0:0:0
     RDKit          3D

 86 93  0  0  1  0  0  0  0  0999 V2000
  -28.9340  -22.2550   20.3680 C   0  0  0  0  0  3  0  0  0  0  0  0
  -29.3990  -22.3330   21.7040 O   0  0  0  0  0  0  0  0  0  0  0  0
  -28.6360  -22.3290   22.2760 H   0  0  0  0  0  0  0  0  0  0  0  0
  -28.7060  -20.3480   20.2210 C   0  0  0  0  0  2  0  0  0  0  0  0
  -30.8560  -18.9950   19.2380 C   0  0  0  0  0  1  0  0  0  0  0  0
  -29.7580  -18.7400   20.2780 C   0  0  0  0  0  0  0  0  0  0  0  0
  -30.2710  -15.6350   20.1890 C   0  0  0  0  0  0  0  0  0  0  0  0
  -30.3350  -13.1190   19.3340 C   0  0  0  0  0  2  0  0  0  0  0  0
  -29.4220  -12.7610   18.1300 C   0  0  0  0  0  2  0  0  0  0  0  0
  -27.9990  -12.4180   18.6010 C   0  0  0  0  0  2  0  0  0  0  0  0
  -27.5150  -13.3990   19.6940 C   0  0  0  0  0  3  0  0  0  0  0  0
  -28.5660  -13.6760   20.7940 C   0  0  0  0  0  2  0  0  0  0  0  0
  -29.7340  -14.2840   20.1200 N   0  0  0  0  0  0  0  0  0  0  0  0
  -31.5000  -15.5770   20.0070 O   0  0  0  0  0  0  0  0  0  0  0  0
  -29.5200  -16.9890   20.2670 N   0  0  0  0  0  4  0  0  0  0  0  0
  -28.5350  -16.7810   20.3550 H   0  0  0  0  0  0  0  0  0  0  0  0
  -25.1600  -13.9100   20.5000 C   0  0  0  0  0  0  0  0  0  0  0  0
  -24.1140  -13.1180   20.8750 C   0  0  0  0  0  0  0  0  0  0  0  0
  -24.5950  -11.7730   20.8260 C   0  0  0  0  0  0  0  0  0  0  0  0
  -26.2080  -13.0490   20.2310 N   0  0  0  0  0  0  0  0  0  0  0  0
  -25.8840  -11.7560   20.4960 N   0  0  0  0  0  0  0  0  0  0  0  0
  -23.8810  -10.5020   21.0130 C   0  0  0  0  0  0  0  0  0  0  0  0
  -24.3180   -9.5390   21.9480 C   0  0  0  0  0  3  0  0  0  0  0  0
  -23.5990   -8.3370   22.1270 C   0  0  0  0  0  3  0  0  0  0  0  0
  -22.4300   -8.0890   21.3690 C   0  0  0  0  0  0  0  0  0  0  0  0
  -22.0120   -9.0410   20.4230 C   0  0  0  0  0  3  0  0  0  0  0  0
  -22.7320  -10.2340   20.2430 C   0  0  0  0  0  3  0  0  0  0  0  0
  -21.6830   -6.9380   21.4570 O   0  0  0  0  0  0  0  0  0  0  0  0
  -21.6190   -6.2080   22.6160 C   0  0  0  0  0  0  0  0  0  0  0  0
  -21.1370   -6.7640   23.8210 C   0  0  0  0  0  3  0  0  0  0  0  0
  -21.0230   -5.9590   24.9730 C   0  0  0  0  0  3  0  0  0  0  0  0
  -21.3810   -4.5980   24.9190 C   0  0  0  0  0  0  0  0  0  0  0  0
  -21.8560   -4.0420   23.7180 C   0  0  0  0  0  3  0  0  0  0  0  0
  -21.9720   -4.8450   22.5690 C   0  0  0  0  0  0  0  0  0  0  0  0
  -22.4090   -4.2980   21.4090 F   0  0  0  0  0  0  0  0  0  0  0  0
  -21.2650   -3.8220   26.0210 F   0  0  0  0  0  0  0  0  0  0  0  0
  -22.7150  -13.5800   21.1590 C   0  0  0  0  0  0  0  0  0  0  0  0
  -22.0040  -12.8770   22.0330 N   0  0  0  0  0  0  0  0  0  0  0  0
  -22.2620  -14.6000   20.6420 O   0  0  0  0  0  0  0  0  0  0  0  0
  -22.3850  -12.0530   22.4740 H   0  0  0  0  0  0  0  0  0  0  0  0
  -21.0650  -13.1670   22.2650 H   0  0  0  0  0  0  0  0  0  0  0  0
  -25.3040  -15.2840   20.3290 N   0  0  0  0  0  0  0  0  0  0  0  0
  -24.5290  -15.9250   20.4550 H   0  0  0  0  0  0  0  0  0  0  0  0
  -26.1310  -15.7310   19.9590 H   0  0  0  0  0  0  0  0  0  0  0  0
  -27.9470  -23.9030   20.2350 C   0  0  0  0  0  2  0  0  0  0  0  0
  -28.1540  -25.6330   20.3390 O   0  0  0  0  0  0  0  0  0  0  0  0
  -24.6740  -31.8980   23.2500 C   0  0  0  0  0  0  0  0  0  0  0  0
  -27.1800  -26.8280   20.2820 C   0  0  0  0  0  0  0  0  0  0  0  0
  -23.4820  -30.5070   21.6090 C   0  0  0  0  0  3  0  0  0  0  0  0
  -24.9220  -28.8510   20.2070 C   0  0  0  0  0  0  0  0  0  0  0  0
  -26.0610  -30.6390   21.4970 C   0  0  0  0  0  2  0  0  0  0  0  0
  -26.1160  -29.2090   20.8440 C   0  0  0  0  0  0  0  0  0  0  0  0
  -27.2320  -28.2250   20.8490 C   0  0  0  0  0  3  0  0  0  0  0  0
  -25.9530  -26.6670   19.5940 C   0  0  0  0  0  3  0  0  0  0  0  0
  -24.8770  -27.6040   19.5590 C   0  0  0  0  0  3  0  0  0  0  0  0
  -23.7210  -29.8080   20.2400 C   0  0  0  0  0  2  0  0  0  0  0  0
  -24.7620  -31.0460   22.1710 N   0  0  0  0  0  0  0  0  0  0  0  0
  -23.5810  -32.2080   23.7540 O   0  0  0  0  0  0  0  0  0  0  0  0
  -22.7550  -29.5350   22.5770 C   0  0  0  0  0  0  0  0  0  0  0  0
  -21.4220  -29.3930   22.4470 N   0  0  0  0  0  0  0  0  0  0  0  0
  -23.4010  -28.9060   23.4180 O   0  0  0  0  0  0  0  0  0  0  0  0
  -20.9500  -29.9530   21.7510 H   0  0  0  0  0  0  0  0  0  0  0  0
  -18.0210  -28.2150   22.9480 C   0  0  0  0  0  0  0  0  0  0  0  0
  -20.5830  -28.4650   23.2170 C   0  0  0  0  0  3  0  0  0  0  0  0
  -20.6740  -27.0300   22.6480 C   0  0  0  0  0  2  0  0  0  0  0  0
  -19.5740  -26.7140   21.6290 C   0  0  0  0  0  2  0  0  0  0  0  0
  -18.1910  -26.8660   22.2680 C   0  0  0  0  0  2  0  0  0  0  0  0
  -19.1430  -28.9730   23.3780 C   0  0  0  0  0  0  0  0  0  0  0  0
  -18.9280  -30.2320   23.9790 C   0  0  0  0  0  3  0  0  0  0  0  0
  -17.6240  -30.7360   24.1480 C   0  0  0  0  0  3  0  0  0  0  0  0
  -16.5170  -29.9780   23.7300 C   0  0  0  0  0  3  0  0  0  0  0  0
  -16.7160  -28.7180   23.1360 C   0  0  0  0  0  3  0  0  0  0  0  0
  -25.9400  -32.5370   23.8960 C   0  0  0  0  0  3  0  0  0  0  0  0
  -26.4190  -31.7800   25.1970 C   0  0  1  0  0  0  0  0  0  0  0  0
  -25.3010  -31.5730   26.2480 C   0  0  0  0  0  1  0  0  0  0  0  0
  -26.9920  -30.3890   24.8510 C   0  0  0  0  0  1  0  0  0  0  0  0
  -27.5670  -32.5700   25.8690 C   0  0  0  0  0  1  0  0  0  0  0  0
  -25.6290  -33.9430   24.2220 N   0  0  0  0  0  0  0  0  0  0  0  0
  -25.9530  -35.0000   23.4650 C   0  0  0  0  0  0  0  0  0  0  0  0
  -26.6020  -34.8950   22.4210 O   0  0  0  0  0  0  0  0  0  0  0  0
  -25.0490  -34.0980   25.0330 H   0  0  0  0  0  0  0  0  0  0  0  0
  -24.2160  -36.8040   23.1740 C   0  0  0  0  0  1  0  0  0  0  0  0
  -25.4870  -36.3940   23.9370 C   0  0  0  0  0  3  0  0  0  0  0  0
  -27.6480  -37.2890   24.6880 C   0  0  0  0  0  1  0  0  0  0  0  0
  -26.5150  -37.4460   23.7800 N   0  0  0  0  0  0  0  0  0  0  0  0
  -26.1140  -38.3680   23.9310 H   0  0  0  0  0  0  0  0  0  0  0  0
  1  4  1  0
  1  2  1  0
  2  3  1  0
  4  6  1  0
  5  6  1  0
  7 15  1  0
  8 13  1  0
  9 10  1  0
  9  8  1  0
 11 10  1  0
 11 20  1  0
 11 12  1  0
 13  7  1  0
 13 12  1  0
 14  7  2  0
 15  6  2  0
 15 16  1  0
 17 18  2  0
 18 37  1  0
 19 18  1  0
 19 22  1  0
 20 21  1  0
 20 17  1  0
 21 19  2  0
 22 23  1  0
 23 24  2  0
 25 28  1  0
 25 24  1  0
 26 25  2  0
 27 26  1  0
 27 22  2  0
 28 29  1  0
 29 30  1  0
 30 31  2  0
 32 31  1  0
 32 36  1  0
 33 32  2  0
 34 29  2  0
 34 33  1  0
 35 34  1  0
 37 38  1  0
 38 41  1  0
 38 40  1  0
 39 37  2  0
 42 43  1  0
 42 17  1  0
 44 42  1  0
 45 46  1  0
 45  1  1  0
 47 58  2  0
 48 46  1  0
 48 53  1  0
 49 57  1  0
 49 59  1  0
 50 56  1  0
 50 52  1  0
 51 57  1  0
 52 53  2  0
 52 51  1  0
 54 48  2  0
 55 54  1  0
 55 50  2  0
 56 49  1  0
 57 47  1  0
 59 61  2  0
 60 59  1  0
 62 60  1  0
 63 72  2  0
 63 68  1  0
 64 60  1  0
 64 68  1  0
 65 64  1  0
 66 67  1  0
 66 65  1  0
 67 63  1  0
 68 69  2  0
 69 70  1  0
 71 70  2  0
 72 71  1  0
 73 47  1  0
 73 78  1  0
 73 74  1  0
 74 77  1  1
 74 75  1  0
 76 74  1  0
 78 81  1  0
 79 83  1  0
 79 78  1  0
 80 79  2  0
 83 82  1  0
 85 86  1  0
 85 83  1  0
 85 84  1  0
M  ISO  4   7 100  15 100  45 101  46 101
M  END
>  <TORSDO>  (1) 
F 20

>  <SCORE>  (1) 
-16.454

>  <name>  (1) 
0

>  <ligand_id>  (1) 
0

>  <original_smiles>  (1) 
[H]OC([H])(C([H])([H])Oc1c([H])c([H])c2c(c1[H])C([H])([H])N(C(=O)C([H])(N([H])C(=O)C([H])(N([H])C([H])([H])[H])C([H])([H])[H])C(C([H])([H])[H])(C([H])([H])[H])C([H])([H])[H])C([H])(C(=O)N([H])C1([H])c3c([H])c([H])c([H])c([H])c3C([H])([H])C([H])([H])C1([H])[H])C2([H])[H])C([H])([H])C([H])(N([H])C(=O)N1C([H])([H])C([H])([H])C([H])([H])C([H])(n2nc(-c3c([H])c([H])c(Oc4c([H])c([H])c(F)c([H])c4F)c([H])c3[H])c(C(=O)N([H])[H])c2N([H])[H])C1([H])[H])C([H])([H])[H]

>  <smiles>  (1) 
[H]OC([H])(C([H])([H])Oc1c([H])c([H])c2c(c1[H])C([H])([H])N(C(=O)C([H])(N([H])C(=O)C([H])(N([H])C([H])([H])[H])C([H])([H])[H])C(C([H])([H])[H])(C([H])([H])[H])C([H])([H])[H])C([H])(C(=O)N([H])C1([H])c3c([H])c([H])c([H])c([H])c3C([H])([H])C([H])([H])C1([H])[H])C2([H])[H])C([H])([H])C([H])(N([H])C(=O)N1C([H])([H])C([H])([H])C([H])([H])C([H])(n2nc(-c3c([H])c([H])c(Oc4c([H])c([H])c(F)c([H])c4F)c([H])c3[H])c(C(=O)N([H])[H])c2N([H])[H])C1([H])[H])C([H])([H])[H]

$$$$
1:0:0
     RDKit          3D

 96104  0  0  1  0  0  0  0  0999 V2000
  -32.8000  -21.0880   21.5540 C   0  0  0  0  0  3  0  0  0  0  0  0
  -31.8290  -20.0880   21.3520 C   0  0  0  0  0  3  0  0  0  0  0  0
  -32.6660  -22.3450   20.9350 C   0  0  0  0  0  3  0  0  0  0  0  0
  -30.5900  -21.6060   19.9070 C   0  0  0  0  0  3  0  0  0  0  0  0
  -30.7070  -20.3420   20.5290 C   0  0  0  0  0  0  0  0  0  0  0  0
  -31.5600  -22.6180   20.1020 C   0  0  0  0  0  0  0  0  0  0  0  0
  -30.7900  -23.9730   18.0420 C   0  0  0  0  0  1  0  0  0  0  0  0
  -31.4420  -23.9970   19.4380 C   0  0  0  0  0  3  0  0  0  0  0  0
  -30.8530  -25.0200   20.3400 N   0  0  0  0  0  4  0  0  0  0  0  0
  -31.5020  -25.1140   21.1050 H   0  0  0  0  0  0  0  0  0  0  0  0
  -30.8330  -25.9160   19.8800 H   0  0  0  0  0  0  0  0  0  0  0  0
  -29.5240  -24.7470   20.9460 C   0  0  0  0  0  2  0  0  0  0  0  0
  -28.3530  -25.3250   20.1390 C   0  0  0  0  0  2  0  0  0  0  0  0
  -28.4210  -26.7510   20.1820 O   0  0  0  0  0  0  0  0  0  0  0  0
  -24.5870  -31.8760   23.2340 C   0  0  0  0  0  0  0  0  0  0  0  0
  -27.2280  -27.4410   20.1590 C   0  0  0  0  0  0  0  0  0  0  0  0
  -23.3740  -30.4660   21.6020 C   0  0  0  0  0  3  0  0  0  0  0  0
  -24.8230  -28.9260   20.1780 C   0  0  0  0  0  0  0  0  0  0  0  0
  -25.8960  -30.8330   21.3910 C   0  0  0  0  0  2  0  0  0  0  0  0
  -25.9810  -29.4600   20.7570 C   0  0  0  0  0  0  0  0  0  0  0  0
  -27.1850  -28.7250   20.7430 C   0  0  0  0  0  3  0  0  0  0  0  0
  -26.0530  -26.9190   19.5690 C   0  0  0  0  0  3  0  0  0  0  0  0
  -24.8520  -27.6550   19.5830 C   0  0  0  0  0  3  0  0  0  0  0  0
  -23.5780  -29.7810   20.2250 C   0  0  0  0  0  2  0  0  0  0  0  0
  -24.6380  -31.0720   22.1340 N   0  0  0  0  0  0  0  0  0  0  0  0
  -23.5080  -32.1500   23.7770 O   0  0  0  0  0  0  0  0  0  0  0  0
  -22.7280  -29.4480   22.5680 C   0  0  0  0  0  0  0  0  0  0  0  0
  -21.4030  -29.2660   22.4470 N   0  0  0  0  0  0  0  0  0  0  0  0
  -23.4160  -28.8230   23.3810 O   0  0  0  0  0  0  0  0  0  0  0  0
  -20.9110  -29.8220   21.7620 H   0  0  0  0  0  0  0  0  0  0  0  0
  -18.0280  -28.0860   22.9640 C   0  0  0  0  0  0  0  0  0  0  0  0
  -20.5880  -28.3330   23.2240 C   0  0  0  0  0  3  0  0  0  0  0  0
  -20.6830  -26.9010   22.6490 C   0  0  0  0  0  2  0  0  0  0  0  0
  -19.5740  -26.5820   21.6400 C   0  0  0  0  0  2  0  0  0  0  0  0
  -18.1970  -26.7340   22.2910 C   0  0  0  0  0  2  0  0  0  0  0  0
  -19.1520  -28.8440   23.3880 C   0  0  0  0  0  0  0  0  0  0  0  0
  -18.9440  -30.1100   23.9760 C   0  0  0  0  0  3  0  0  0  0  0  0
  -17.6420  -30.6180   24.1460 C   0  0  0  0  0  3  0  0  0  0  0  0
  -16.5320  -29.8580   23.7390 C   0  0  0  0  0  3  0  0  0  0  0  0
  -16.7270  -28.5940   23.1550 C   0  0  0  0  0  3  0  0  0  0  0  0
  -25.8760  -32.5080   23.8450 C   0  0  0  0  0  3  0  0  0  0  0  0
  -25.5690  -33.9070   24.1740 N   0  0  0  0  0  0  0  0  0  0  0  0
  -25.9000  -34.9560   23.4100 C   0  0  0  0  0  0  0  0  0  0  0  0
  -26.5690  -34.8490   22.3780 O   0  0  0  0  0  0  0  0  0  0  0  0
  -24.9740  -34.0630   24.9750 H   0  0  0  0  0  0  0  0  0  0  0  0
  -24.1720  -36.7460   23.0500 C   0  0  0  0  0  1  0  0  0  0  0  0
  -25.4130  -36.3460   23.8630 C   0  0  0  0  0  3  0  0  0  0  0  0
  -27.5480  -37.2290   24.6900 C   0  0  0  0  0  1  0  0  0  0  0  0
  -26.4460  -37.3980   23.7480 N   0  0  0  0  0  0  0  0  0  0  0  0
  -26.0410  -38.3180   23.8960 H   0  0  0  0  0  0  0  0  0  0  0  0
  -26.4030  -31.7380   25.1180 C   0  0  1  0  0  0  0  0  0  0  0  0
  -25.3170  -31.4990   26.1930 C   0  0  0  0  0  1  0  0  0  0  0  0
  -26.9830  -30.3600   24.7180 C   0  0  0  0  0  1  0  0  0  0  0  0
  -27.5590  -32.5320   25.7710 C   0  0  0  0  0  1  0  0  0  0  0  0
  -29.5980  -19.3120   20.2830 C   0  0  0  0  0  2  0  0  0  0  0  0
  -29.6190  -18.1010   21.1360 N   0  0  0  0  0  4  0  0  0  0  0  0
  -28.6610  -17.8030   21.2030 H   0  0  0  0  0  0  0  0  0  0  0  0
  -29.9170  -18.3500   22.0650 H   0  0  0  0  0  0  0  0  0  0  0  0
  -30.4070  -16.9640   20.5980 C   0  0  0  0  0  2  0  0  0  0  0  0
  -30.0610  -15.6110   21.2710 C   0  0  0  0  0  2  0  0  0  0  0  0
  -30.6880  -14.4240   20.5110 C   0  0  0  0  0  0  0  0  0  0  0  0
  -30.3710  -12.2990   19.3020 C   0  0  0  0  0  2  0  0  0  0  0  0
  -29.4270  -12.5340   18.1050 C   0  0  0  0  0  2  0  0  0  0  0  0
  -27.9520  -12.3950   18.5350 C   0  0  0  0  0  2  0  0  0  0  0  0
  -27.6220  -13.2100   19.8150 C   0  0  0  0  0  3  0  0  0  0  0  0
  -28.6800  -12.9520   20.9150 C   0  0  0  0  0  2  0  0  0  0  0  0
  -30.0040  -13.2590   20.3530 N   0  0  0  0  0  0  0  0  0  0  0  0
  -31.7850  -14.6130   19.9780 O   0  0  0  0  0  0  0  0  0  0  0  0
  -25.2140  -13.8130   20.5040 C   0  0  0  0  0  0  0  0  0  0  0  0
  -24.1480  -13.0380   20.8740 C   0  0  0  0  0  0  0  0  0  0  0  0
  -24.6160  -11.6880   20.8530 C   0  0  0  0  0  0  0  0  0  0  0  0
  -26.2660  -12.9350   20.2860 N   0  0  0  0  0  0  0  0  0  0  0  0
  -25.9060  -11.6520   20.5500 N   0  0  0  0  0  0  0  0  0  0  0  0
  -23.8940  -10.4250   21.0480 C   0  0  0  0  0  0  0  0  0  0  0  0
  -24.3390   -9.4570   21.9760 C   0  0  0  0  0  3  0  0  0  0  0  0
  -23.6190   -8.2560   22.1590 C   0  0  0  0  0  3  0  0  0  0  0  0
  -22.4410   -8.0150   21.4130 C   0  0  0  0  0  0  0  0  0  0  0  0
  -22.0170   -8.9700   20.4740 C   0  0  0  0  0  3  0  0  0  0  0  0
  -22.7360  -10.1630   20.2890 C   0  0  0  0  0  3  0  0  0  0  0  0
  -21.6920   -6.8670   21.5050 O   0  0  0  0  0  0  0  0  0  0  0  0
  -21.6680   -6.1130   22.6520 C   0  0  0  0  0  0  0  0  0  0  0  0
  -21.2710   -6.6590   23.8930 C   0  0  0  0  0  3  0  0  0  0  0  0
  -21.1930   -5.8330   25.0320 C   0  0  0  0  0  3  0  0  0  0  0  0
  -21.5000   -4.4640   24.9320 C   0  0  0  0  0  0  0  0  0  0  0  0
  -21.8890   -3.9170   23.6960 C   0  0  0  0  0  3  0  0  0  0  0  0
  -21.9690   -4.7400   22.5590 C   0  0  0  0  0  0  0  0  0  0  0  0
  -22.3230   -4.2050   21.3660 F   0  0  0  0  0  0  0  0  0  0  0  0
  -21.4170   -3.6680   26.0240 F   0  0  0  0  0  0  0  0  0  0  0  0
  -22.7480  -13.5100   21.1400 C   0  0  0  0  0  0  0  0  0  0  0  0
  -22.0220  -12.8140   22.0080 N   0  0  0  0  0  0  0  0  0  0  0  0
  -22.3060  -14.5310   20.6140 O   0  0  0  0  0  0  0  0  0  0  0  0
  -22.3920  -11.9890   22.4550 H   0  0  0  0  0  0  0  0  0  0  0  0
  -21.0810  -13.1120   22.2280 H   0  0  0  0  0  0  0  0  0  0  0  0
  -25.3740  -15.1830   20.3150 N   0  0  0  0  0  0  0  0  0  0  0  0
  -24.5980  -15.8300   20.3960 H   0  0  0  0  0  0  0  0  0  0  0  0
  -26.2100  -15.6130   19.9420 H   0  0  0  0  0  0  0  0  0  0  0  0
  2  1  1  0
  3  1  2  0
  4  6  2  0
  4  5  1  0
  5  2  2  0
  6  3  1  0
  8  7  1  0
  8  6  1  0
  8  9  1  0
  9 12  1  0
  9 10  1  0
 11  9  1  0
 13 14  1  0
 13 12  1  0
 15 26  2  0
 16 14  1  0
 16 21  1  0
 17 25  1  0
 17 27  1  0
 18 24  1  0
 18 20  1  0
 19 25  1  0
 20 19  1  0
 21 20  2  0
 22 23  1  0
 22 16  2  0
 23 18  2  0
 24 17  1  0
 25 15  1  0
 27 29  2  0
 28 27  1  0
 30 28  1  0
 31 40  2  0
 31 36  1  0
 32 28  1  0
 32 36  1  0
 33 32  1  0
 34 35  1  0
 34 33  1  0
 35 31  1  0
 36 37  2  0
 37 38  1  0
 39 38  2  0
 40 39  1  0
 41 15  1  0
 41 42  1  0
 41 51  1  0
 42 45  1  0
 43 47  1  0
 43 42  1  0
 44 43  2  0
 47 46  1  0
 49 47  1  0
 49 50  1  0
 49 48  1  0
 51 54  1  1
 51 52  1  0
 53 51  1  0
 55  5  1  0
 55 56  1  0
 56 57  1  0
 56 58  1  0
 59 56  1  0
 59 60  1  0
 61 60  1  0
 62 67  1  0
 63 64  1  0
 63 62  1  0
 65 64  1  0
 65 72  1  0
 65 66  1  0
 67 61  1  0
 67 66  1  0
 68 61  2  0
 69 70  2  0
 70 89  1  0
 71 70  1  0
 71 74  1  0
 72 69  1  0
 72 73  1  0
 73 71  2  0
 74 75  1  0
 75 76  2  0
 77 80  1  0
 77 76  1  0
 78 77  2  0
 79 78  1  0
 79 74  2  0
 80 81  1  0
 81 82  1  0
 82 83  2  0
 84 83  1  0
 84 88  1  0
 85 84  2  0
 86 81  2  0
 86 85  1  0
 87 86  1  0
 89 90  1  0
 90 93  1  0
 90 92  1  0
 91 89  2  0
 94 95  1  0
 94 69  1  0
 96 94  1  0
M  ISO  4  13 101  14 101  60 100  61 100
M  END
>  <TORSDO>  (2) 
F 24

>  <SCORE>  (2) 
-12.412

>  <name>  (2) 
1

>  <ligand_id>  (2) 
1

>  <original_smiles>  (2) 
[H]c1c([H])c([H])c2c(c1[H])C([H])([H])C([H])([H])C([H])([H])C2([H])N([H])C(=O)C1([H])N(C(=O)C([H])(N([H])C(=O)C([H])(N([H])C([H])([H])[H])C([H])([H])[H])C(C([H])([H])[H])(C([H])([H])[H])C([H])([H])[H])C([H])([H])c2c([H])c(OC([H])([H])C([H])([H])[N+]([H])([H])C([H])(c3c([H])c([H])c([H])c(C([H])([H])[N+]([H])([H])C([H])([H])C([H])([H])C(=O)N4C([H])([H])C([H])([H])C([H])([H])C([H])(n5nc(-c6c([H])c([H])c(Oc7c([H])c([H])c(F)c([H])c7F)c([H])c6[H])c(C(=O)N([H])[H])c5N([H])[H])C4([H])[H])c3[H])C([H])([H])[H])c([H])c([H])c2C1([H])[H]

>  <smiles>  (2) 
[H]c1c([H])c([H])c2c(c1[H])C([H])([H])C([H])([H])C([H])([H])C2([H])N([H])C(=O)C1([H])N(C(=O)C([H])(N([H])C(=O)C([H])(N([H])C([H])([H])[H])C([H])([H])[H])C(C([H])([H])[H])(C([H])([H])[H])C([H])([H])[H])C([H])([H])c2c([H])c(OC([H])([H])C([H])([H])[N+]([H])([H])C([H])(c3c([H])c([H])c([H])c(C([H])([H])[N+]([H])([H])C([H])([H])C([H])([H])C(=O)N4C([H])([H])C([H])([H])C([H])([H])C([H])(n5nc(-c6c([H])c([H])c(Oc7c([H])c([H])c(F)c([H])c7F)c([H])c6[H])c(C(=O)N([H])[H])c5N([H])[H])C4([H])[H])c3[H])C([H])([H])[H])c([H])c([H])c2C1([H])[H]

$$$$
2:0:0
     RDKit          3D

 96104  0  0  1  0  0  0  0  0999 V2000
  -31.5410  -19.7360   22.3010 C   0  0  0  0  0  3  0  0  0  0  0  0
  -31.1030  -18.4220   22.0810 C   0  0  0  0  0  3  0  0  0  0  0  0
  -30.9550  -20.8010   21.5990 C   0  0  0  0  0  3  0  0  0  0  0  0
  -30.0840  -18.1370   21.1450 C   0  0  0  0  0  0  0  0  0  0  0  0
  -29.4540  -19.2310   20.4590 C   0  0  0  0  0  0  0  0  0  0  0  0
  -29.8960  -20.5760   20.6930 C   0  0  0  0  0  0  0  0  0  0  0  0
  -26.9300  -19.0550   20.1630 C   0  0  0  0  0  1  0  0  0  0  0  0
  -28.3020  -18.9840   19.4810 C   0  0  0  0  0  2  0  0  0  0  0  0
  -29.3370  -21.6690   19.9910 N   0  0  0  0  0  0  0  0  0  0  0  0
  -28.7110  -21.4130   19.2330 H   0  0  0  0  0  0  0  0  0  0  0  0
  -28.9570  -22.9050   20.7000 C   0  0  0  0  0  2  0  0  0  0  0  0
  -28.9430  -24.1660   19.7890 C   0  0  0  0  0  2  0  0  0  0  0  0
  -28.4790  -25.4580   20.5080 C   0  0  0  0  0  2  0  0  0  0  0  0
  -28.4920  -26.6120   19.6460 O   0  0  0  0  0  0  0  0  0  0  0  0
  -24.6510  -31.5500   23.0390 C   0  0  0  0  0  0  0  0  0  0  0  0
  -27.3350  -27.3550   19.6780 C   0  0  0  0  0  0  0  0  0  0  0  0
  -23.4550  -30.2450   21.3090 C   0  0  0  0  0  3  0  0  0  0  0  0
  -24.9240  -28.8210   19.7830 C   0  0  0  0  0  0  0  0  0  0  0  0
  -25.9750  -30.6500   21.1260 C   0  0  0  0  0  2  0  0  0  0  0  0
  -26.0770  -29.3260   20.3990 C   0  0  0  0  0  0  0  0  0  0  0  0
  -27.2880  -28.6000   20.3420 C   0  0  0  0  0  3  0  0  0  0  0  0
  -26.1710  -26.8630   19.0530 C   0  0  0  0  0  3  0  0  0  0  0  0
  -24.9660  -27.5900   19.1040 C   0  0  0  0  0  3  0  0  0  0  0  0
  -23.6680  -29.6570   19.8880 C   0  0  0  0  0  2  0  0  0  0  0  0
  -24.7130  -30.8260   21.8850 N   0  0  0  0  0  0  0  0  0  0  0  0
  -23.5710  -31.7700   23.6020 O   0  0  0  0  0  0  0  0  0  0  0  0
  -22.8220  -29.1540   22.2040 C   0  0  0  0  0  0  0  0  0  0  0  0
  -21.4920  -28.9910   22.1000 N   0  0  0  0  0  0  0  0  0  0  0  0
  -23.5210  -28.4600   22.9470 O   0  0  0  0  0  0  0  0  0  0  0  0
  -20.9880  -29.6050   21.4750 H   0  0  0  0  0  0  0  0  0  0  0  0
  -18.1210  -27.7940   22.6040 C   0  0  0  0  0  0  0  0  0  0  0  0
  -20.6890  -27.9990   22.8140 C   0  0  0  0  0  3  0  0  0  0  0  0
  -20.7550  -26.6220   22.1160 C   0  0  0  0  0  2  0  0  0  0  0  0
  -19.6180  -26.3980   21.1140 C   0  0  0  0  0  2  0  0  0  0  0  0
  -18.2590  -26.5040   21.8120 C   0  0  0  0  0  2  0  0  0  0  0  0
  -19.2630  -28.5030   23.0610 C   0  0  0  0  0  0  0  0  0  0  0  0
  -19.0800  -29.7150   23.7620 C   0  0  0  0  0  3  0  0  0  0  0  0
  -17.7880  -30.2150   24.0110 C   0  0  0  0  0  3  0  0  0  0  0  0
  -16.6610  -29.4990   23.5710 C   0  0  0  0  0  3  0  0  0  0  0  0
  -16.8290  -28.2900   22.8710 C   0  0  0  0  0  3  0  0  0  0  0  0
  -25.9340  -32.1540   23.6940 C   0  0  0  0  0  3  0  0  0  0  0  0
  -26.4720  -31.3030   24.9100 C   0  0  1  0  0  0  0  0  0  0  0  0
  -25.3930  -30.9870   25.9710 C   0  0  0  0  0  1  0  0  0  0  0  0
  -27.0580  -29.9580   24.4190 C   0  0  0  0  0  1  0  0  0  0  0  0
  -27.6250  -32.0590   25.6090 C   0  0  0  0  0  1  0  0  0  0  0  0
  -25.6100  -33.5220   24.1190 N   0  0  0  0  0  0  0  0  0  0  0  0
  -25.9330  -34.6280   23.4360 C   0  0  0  0  0  0  0  0  0  0  0  0
  -26.6090  -34.6030   22.4020 O   0  0  0  0  0  0  0  0  0  0  0  0
  -25.0110  -33.6140   24.9270 H   0  0  0  0  0  0  0  0  0  0  0  0
  -24.1830  -36.4180   23.2030 C   0  0  0  0  0  1  0  0  0  0  0  0
  -25.4290  -35.9760   23.9860 C   0  0  0  0  0  3  0  0  0  0  0  0
  -27.5530  -36.8290   24.8730 C   0  0  0  0  0  1  0  0  0  0  0  0
  -26.4490  -37.0470   23.9430 N   0  0  0  0  0  0  0  0  0  0  0  0
  -26.0300  -37.9500   24.1530 H   0  0  0  0  0  0  0  0  0  0  0  0
  -29.8000  -16.6320   20.8960 C   0  0  0  0  0  2  0  0  0  0  0  0
  -30.7900  -16.0100   19.8660 C   0  0  0  0  0  3  0  0  0  0  0  0
  -31.3620  -14.5560   19.9890 C   0  0  0  0  0  0  0  0  0  0  0  0
  -30.9290  -12.2870   19.1650 C   0  0  0  0  0  2  0  0  0  0  0  0
  -30.0130  -12.4070   17.9280 C   0  0  0  0  0  2  0  0  0  0  0  0
  -28.5310  -12.3680   18.3570 C   0  0  0  0  0  2  0  0  0  0  0  0
  -28.2080  -13.3240   19.5370 C   0  0  0  0  0  3  0  0  0  0  0  0
  -29.2730  -13.2550   20.6520 C   0  0  0  0  0  2  0  0  0  0  0  0
  -30.6040  -13.4200   20.0520 N   0  0  0  0  0  0  0  0  0  0  0  0
  -32.5570  -14.4790   19.7040 O   0  0  0  0  0  0  0  0  0  0  0  0
  -25.8700  -14.0460   20.3200 C   0  0  0  0  0  0  0  0  0  0  0  0
  -24.7710  -13.3300   20.7070 C   0  0  0  0  0  0  0  0  0  0  0  0
  -25.1630  -11.9570   20.6710 C   0  0  0  0  0  0  0  0  0  0  0  0
  -26.8620  -13.1140   20.0590 N   0  0  0  0  0  0  0  0  0  0  0  0
  -26.4430  -11.8510   20.3350 N   0  0  0  0  0  0  0  0  0  0  0  0
  -24.3760  -10.7360   20.8790 C   0  0  0  0  0  0  0  0  0  0  0  0
  -24.7470   -9.7690   21.8400 C   0  0  0  0  0  3  0  0  0  0  0  0
  -23.9580   -8.6130   22.0340 C   0  0  0  0  0  3  0  0  0  0  0  0
  -22.7860   -8.4170   21.2660 C   0  0  0  0  0  0  0  0  0  0  0  0
  -22.4340   -9.3720   20.2950 C   0  0  0  0  0  3  0  0  0  0  0  0
  -23.2220  -10.5180   20.0990 C   0  0  0  0  0  3  0  0  0  0  0  0
  -21.9750   -7.3120   21.3660 O   0  0  0  0  0  0  0  0  0  0  0  0
  -21.8250   -6.6340   22.5500 C   0  0  0  0  0  0  0  0  0  0  0  0
  -21.3690   -7.2750   23.7240 C   0  0  0  0  0  3  0  0  0  0  0  0
  -21.1620   -6.5260   24.8990 C   0  0  0  0  0  3  0  0  0  0  0  0
  -21.4020   -5.1390   24.9020 C   0  0  0  0  0  0  0  0  0  0  0  0
  -21.8490   -4.4990   23.7340 C   0  0  0  0  0  3  0  0  0  0  0  0
  -22.0580   -5.2440   22.5600 C   0  0  0  0  0  0  0  0  0  0  0  0
  -22.4690   -4.6180   21.4320 F   0  0  0  0  0  0  0  0  0  0  0  0
  -21.1960   -4.4190   26.0290 F   0  0  0  0  0  0  0  0  0  0  0  0
  -23.4070  -13.8830   21.0020 C   0  0  0  0  0  0  0  0  0  0  0  0
  -22.6690  -13.2470   21.9040 N   0  0  0  0  0  0  0  0  0  0  0  0
  -23.0070  -14.9150   20.4640 O   0  0  0  0  0  0  0  0  0  0  0  0
  -23.0040  -12.4110   22.3610 H   0  0  0  0  0  0  0  0  0  0  0  0
  -21.7540  -13.6020   22.1400 H   0  0  0  0  0  0  0  0  0  0  0  0
  -26.0980  -15.4100   20.1540 N   0  0  0  0  0  0  0  0  0  0  0  0
  -25.3610  -16.0820   20.3340 H   0  0  0  0  0  0  0  0  0  0  0  0
  -26.9740  -15.8490   19.9220 H   0  0  0  0  0  0  0  0  0  0  0  0
  -30.5070  -16.3790   18.4680 N   0  0  0  0  0  4  0  0  0  0  0  0
  -31.2830  -16.0790   17.9020 H   0  0  0  0  0  0  0  0  0  0  0  0
  -30.4420  -17.3790   18.3760 H   0  0  0  0  0  0  0  0  0  0  0  0
  -29.6710  -15.9550   18.1170 H   0  0  0  0  0  0  0  0  0  0  0  0
  2  1  1  0
  3  1  2  0
  4  2  2  0
  5  6  2  0
  5  4  1  0
  6  3  1  0
  8  7  1  0
  8  5  1  0
  9  6  1  0
  9 11  1  0
 10  9  1  0
 12 13  1  0
 12 11  1  0
 14 16  1  0
 14 13  1  0
 15 26  2  0
 16 21  1  0
 17 25  1  0
 17 27  1  0
 18 24  1  0
 18 20  1  0
 19 25  1  0
 20 19  1  0
 21 20  2  0
 22 23  1  0
 22 16  2  0
 23 18  2  0
 24 17  1  0
 25 15  1  0
 27 29  2  0
 28 27  1  0
 30 28  1  0
 31 40  2  0
 31 36  1  0
 32 28  1  0
 32 36  1  0
 33 32  1  0
 34 35  1  0
 34 33  1  0
 35 31  1  0
 36 37  2  0
 37 38  1  0
 39 38  2  0
 40 39  1  0
 41 15  1  0
 41 46  1  0
 41 42  1  0
 42 45  1  1
 42 43  1  0
 44 42  1  0
 46 49  1  0
 47 51  1  0
 47 46  1  0
 48 47  2  0
 51 50  1  0
 53 51  1  0
 53 54  1  0
 53 52  1  0
 55  4  1  0
 56 57  1  0
 56 55  1  0
 57 63  1  0
 58 63  1  0
 59 60  1  0
 59 58  1  0
 61 60  1  0
 61 68  1  0
 61 62  1  0
 63 62  1  0
 64 57  2  0
 65 66  2  0
 66 85  1  0
 67 66  1  0
 67 70  1  0
 68 65  1  0
 68 69  1  0
 69 67  2  0
 70 71  1  0
 71 72  2  0
 73 76  1  0
 73 72  1  0
 74 73  2  0
 75 74  1  0
 75 70  2  0
 76 77  1  0
 77 82  2  0
 77 78  1  0
 78 79  2  0
 79 80  1  0
 80 84  1  0
 81 80  2  0
 82 81  1  0
 83 82  1  0
 85 86  1  0
 86 89  1  0
 86 88  1  0
 87 85  2  0
 90 65  1  0
 90 91  1  0
 92 90  1  0
 93 56  1  0
 94 93  1  0
 95 93  1  0
 96 93  1  0
M  ISO  4  13 101  14 101  56 100  57 100
M  END
>  <TORSDO>  (3) 
F 24

>  <SCORE>  (3) 
-11.782

>  <name>  (3) 
2

>  <ligand_id>  (3) 
2

>  <original_smiles>  (3) 
[H]c1c([H])c([H])c2c(c1[H])C([H])([H])C([H])([H])C([H])([H])C2([H])N([H])C(=O)C1([H])N(C(=O)C([H])(N([H])C(=O)C([H])(N([H])C([H])([H])[H])C([H])([H])[H])C(C([H])([H])[H])(C([H])([H])[H])C([H])([H])[H])C([H])([H])c2c([H])c(OC([H])([H])C([H])([H])C([H])([H])N([H])c3c([H])c([H])c([H])c(C([H])([H])C([H])(C(=O)N4C([H])([H])C([H])([H])C([H])([H])C([H])(n5nc(-c6c([H])c([H])c(Oc7c([H])c([H])c(F)c([H])c7F)c([H])c6[H])c(C(=O)N([H])[H])c5N([H])[H])C4([H])[H])[N+]([H])([H])[H])c3C([H])([H])C([H])([H])[H])c([H])c([H])c2C1([H])[H]

>  <smiles>  (3) 
[H]c1c([H])c([H])c2c(c1[H])C([H])([H])C([H])([H])C([H])([H])C2([H])N([H])C(=O)C1([H])N(C(=O)C([H])(N([H])C(=O)C([H])(N([H])C([H])([H])[H])C([H])([H])[H])C(C([H])([H])[H])(C([H])([H])[H])C([H])([H])[H])C([H])([H])c2c([H])c(OC([H])([H])C([H])([H])C([H])([H])N([H])c3c([H])c([H])c([H])c(C([H])([H])C([H])(C(=O)N4C([H])([H])C([H])([H])C([H])([H])C([H])(n5nc(-c6c([H])c([H])c(Oc7c([H])c([H])c(F)c([H])c7F)c([H])c6[H])c(C(=O)N([H])[H])c5N([H])[H])C4([H])[H])[N+]([H])([H])[H])c3C([H])([H])C([H])([H])[H])c([H])c([H])c2C1([H])[H]

$$$$
3:0:0
     RDKit          3D

 86 93  0  0  1  0  0  0  0  0999 V2000
  -28.9940  -22.3240   20.2930 C   0  0  0  0  0  3  0  0  0  0  0  0
  -28.6900  -20.5960   20.3220 N   0  0  0  0  0  4  0  0  0  0  0  0
  -28.0100  -20.4610   19.5900 H   0  0  0  0  0  0  0  0  0  0  0  0
  -28.1640  -20.4650   21.1710 H   0  0  0  0  0  0  0  0  0  0  0  0
  -30.4160  -19.3050   18.8720 C   0  0  0  0  0  1  0  0  0  0  0  0
  -30.7590  -19.3830   21.3250 C   0  0  0  0  0  1  0  0  0  0  0  0
  -29.7030  -19.1690   20.2280 C   0  0  1  0  0  0  0  0  0  0  0  0
  -29.3640  -17.2850   20.3340 C   0  0  0  0  0  2  0  0  0  0  0  0
  -30.2310  -15.6540   20.1320 C   0  0  0  0  0  0  0  0  0  0  0  0
  -30.3170  -13.1390   19.2580 C   0  0  0  0  0  2  0  0  0  0  0  0
  -29.3730  -12.8300   18.0600 C   0  0  0  0  0  2  0  0  0  0  0  0
  -27.9560  -12.4830   18.5450 C   0  0  0  0  0  2  0  0  0  0  0  0
  -27.4970  -13.4410   19.6680 C   0  0  0  0  0  3  0  0  0  0  0  0
  -28.5700  -13.6750   20.7540 C   0  0  0  0  0  2  0  0  0  0  0  0
  -29.7470  -14.2810   20.0980 N   0  0  0  0  0  0  0  0  0  0  0  0
  -31.4480  -15.6270   19.8660 O   0  0  0  0  0  0  0  0  0  0  0  0
  -25.1630  -13.9430   20.5400 C   0  0  0  0  0  0  0  0  0  0  0  0
  -24.1210  -13.1480   20.9260 C   0  0  0  0  0  0  0  0  0  0  0  0
  -24.5970  -11.8020   20.8390 C   0  0  0  0  0  0  0  0  0  0  0  0
  -26.2000  -13.0850   20.2270 N   0  0  0  0  0  0  0  0  0  0  0  0
  -25.8760  -11.7880   20.4760 N   0  0  0  0  0  0  0  0  0  0  0  0
  -23.8830  -10.5310   21.0210 C   0  0  0  0  0  0  0  0  0  0  0  0
  -24.3260   -9.5570   21.9430 C   0  0  0  0  0  3  0  0  0  0  0  0
  -23.6070   -8.3540   22.1150 C   0  0  0  0  0  3  0  0  0  0  0  0
  -22.4300   -8.1150   21.3660 C   0  0  0  0  0  0  0  0  0  0  0  0
  -22.0050   -9.0780   20.4340 C   0  0  0  0  0  3  0  0  0  0  0  0
  -22.7240  -10.2730   20.2600 C   0  0  0  0  0  3  0  0  0  0  0  0
  -21.6830   -6.9650   21.4490 O   0  0  0  0  0  0  0  0  0  0  0  0
  -21.6130   -6.2330   22.6070 C   0  0  0  0  0  0  0  0  0  0  0  0
  -21.1070   -6.7820   23.8060 C   0  0  0  0  0  3  0  0  0  0  0  0
  -20.9870   -5.9750   24.9540 C   0  0  0  0  0  3  0  0  0  0  0  0
  -21.3630   -4.6200   24.9050 C   0  0  0  0  0  0  0  0  0  0  0  0
  -21.8620   -4.0690   23.7110 C   0  0  0  0  0  3  0  0  0  0  0  0
  -21.9820   -4.8740   22.5650 C   0  0  0  0  0  0  0  0  0  0  0  0
  -22.4430   -4.3330   21.4110 F   0  0  0  0  0  0  0  0  0  0  0  0
  -21.2420   -3.8420   26.0060 F   0  0  0  0  0  0  0  0  0  0  0  0
  -22.7330  -13.6090   21.2560 C   0  0  0  0  0  0  0  0  0  0  0  0
  -22.0410  -12.8910   22.1330 N   0  0  0  0  0  0  0  0  0  0  0  0
  -22.2720  -14.6420   20.7720 O   0  0  0  0  0  0  0  0  0  0  0  0
  -22.4290  -12.0560   22.5470 H   0  0  0  0  0  0  0  0  0  0  0  0
  -21.1110  -13.1810   22.3980 H   0  0  0  0  0  0  0  0  0  0  0  0
  -25.3110  -15.3190   20.3970 N   0  0  0  0  0  0  0  0  0  0  0  0
  -24.5460  -15.9650   20.5610 H   0  0  0  0  0  0  0  0  0  0  0  0
  -26.1450  -15.7750   20.0500 H   0  0  0  0  0  0  0  0  0  0  0  0
  -27.9540  -23.9330   20.2480 C   0  0  0  0  0  3  0  0  0  0  0  0
  -28.1460  -25.6670   20.3100 O   0  0  0  0  0  0  0  0  0  0  0  0
  -24.6510  -31.8990   23.2540 C   0  0  0  0  0  0  0  0  0  0  0  0
  -27.1610  -26.8520   20.2620 C   0  0  0  0  0  0  0  0  0  0  0  0
  -23.4530  -30.5060   21.6190 C   0  0  0  0  0  3  0  0  0  0  0  0
  -24.8920  -28.8600   20.2060 C   0  0  0  0  0  0  0  0  0  0  0  0
  -26.0300  -30.6530   21.4890 C   0  0  0  0  0  2  0  0  0  0  0  0
  -26.0880  -29.2250   20.8340 C   0  0  0  0  0  0  0  0  0  0  0  0
  -27.2100  -28.2480   20.8280 C   0  0  0  0  0  3  0  0  0  0  0  0
  -25.9290  -26.6840   19.5810 C   0  0  0  0  0  3  0  0  0  0  0  0
  -24.8480  -27.6150   19.5550 C   0  0  0  0  0  3  0  0  0  0  0  0
  -23.6870  -29.8100   20.2480 C   0  0  0  0  0  2  0  0  0  0  0  0
  -24.7350  -31.0510   22.1740 N   0  0  0  0  0  0  0  0  0  0  0  0
  -23.5600  -32.2020   23.7680 O   0  0  0  0  0  0  0  0  0  0  0  0
  -22.7390  -29.5290   22.5910 C   0  0  0  0  0  0  0  0  0  0  0  0
  -21.4090  -29.3650   22.4560 N   0  0  0  0  0  0  0  0  0  0  0  0
  -23.3920  -28.9150   23.4380 O   0  0  0  0  0  0  0  0  0  0  0  0
  -20.9320  -29.9110   21.7520 H   0  0  0  0  0  0  0  0  0  0  0  0
  -18.0240  -28.1380   22.9470 C   0  0  0  0  0  0  0  0  0  0  0  0
  -20.5800  -28.4300   23.2280 C   0  0  0  0  0  3  0  0  0  0  0  0
  -20.6960  -26.9920   22.6690 C   0  0  0  0  0  2  0  0  0  0  0  0
  -19.6070  -26.6520   21.6480 C   0  0  0  0  0  2  0  0  0  0  0  0
  -18.2180  -26.7880   22.2790 C   0  0  0  0  0  2  0  0  0  0  0  0
  -19.1320  -28.9160   23.3790 C   0  0  0  0  0  0  0  0  0  0  0  0
  -18.8940  -30.1770   23.9680 C   0  0  0  0  0  3  0  0  0  0  0  0
  -17.5810  -30.6610   24.1270 C   0  0  0  0  0  3  0  0  0  0  0  0
  -16.4890  -29.8820   23.7090 C   0  0  0  0  0  3  0  0  0  0  0  0
  -16.7110  -28.6220   23.1260 C   0  0  0  0  0  3  0  0  0  0  0  0
  -25.9190  -32.5430   23.8920 C   0  0  0  0  0  3  0  0  0  0  0  0
  -26.4110  -31.7850   25.1880 C   0  0  1  0  0  0  0  0  0  0  0  0
  -25.3010  -31.5690   26.2440 C   0  0  0  0  0  1  0  0  0  0  0  0
  -26.9900  -30.3970   24.8330 C   0  0  0  0  0  1  0  0  0  0  0  0
  -27.5570  -32.5800   25.8550 C   0  0  0  0  0  1  0  0  0  0  0  0
  -25.6040  -33.9460   24.2230 N   0  0  0  0  0  0  0  0  0  0  0  0
  -25.9180  -35.0070   23.4650 C   0  0  0  0  0  0  0  0  0  0  0  0
  -26.5590  -34.9060   22.4170 O   0  0  0  0  0  0  0  0  0  0  0  0
  -25.0300  -34.0970   25.0380 H   0  0  0  0  0  0  0  0  0  0  0  0
  -24.1740  -36.8040   23.1860 C   0  0  0  0  0  1  0  0  0  0  0  0
  -25.4490  -36.3980   23.9430 C   0  0  0  0  0  3  0  0  0  0  0  0
  -27.6090  -37.3010   24.6890 C   0  0  0  0  0  1  0  0  0  0  0  0
  -26.4730  -37.4550   23.7830 N   0  0  0  0  0  0  0  0  0  0  0  0
  -26.0690  -38.3740   23.9350 H   0  0  0  0  0  0  0  0  0  0  0  0
  1  2  1  0
  2  4  1  0
  3  2  1  0
  7  5  1  6
  7  2  1  0
  7  8  1  0
  7  6  1  0
  9  8  1  0
 10 15  1  0
 11 12  1  0
 11 10  1  0
 13 12  1  0
 13 20  1  0
 13 14  1  0
 15  9  1  0
 15 14  1  0
 16  9  2  0
 17 18  2  0
 18 37  1  0
 19 18  1  0
 19 22  1  0
 20 21  1  0
 20 17  1  0
 21 19  2  0
 22 23  1  0
 23 24  2  0
 25 28  1  0
 25 24  1  0
 26 25  2  0
 27 26  1  0
 27 22  2  0
 28 29  1  0
 29 30  1  0
 30 31  2  0
 32 31  1  0
 32 36  1  0
 33 32  2  0
 34 29  2  0
 34 33  1  0
 35 34  1  0
 37 38  1  0
 38 41  1  0
 38 40  1  0
 39 37  2  0
 42 17  1  0
 42 43  1  0
 44 42  1  0
 45  1  2  0
 45 46  1  0
 47 58  2  0
 48 46  1  0
 48 53  1  0
 49 57  1  0
 49 59  1  0
 50 56  1  0
 50 52  1  0
 51 57  1  0
 52 51  1  0
 53 52  2  0
 54 48  2  0
 55 54  1  0
 55 50  2  0
 56 49  1  0
 57 47  1  0
 59 61  2  0
 60 59  1  0
 62 60  1  0
 63 72  2  0
 63 68  1  0
 64 60  1  0
 64 68  1  0
 65 64  1  0
 66 67  1  0
 66 65  1  0
 67 63  1  0
 68 69  2  0
 69 70  1  0
 71 70  2  0
 72 71  1  0
 73 47  1  0
 73 78  1  0
 73 74  1  0
 74 77  1  1
 74 75  1  0
 76 74  1  0
 78 81  1  0
 79 83  1  0
 79 78  1  0
 80 79  2  0
 83 82  1  0
 85 86  1  0
 85 83  1  0
 85 84  1  0
M  ISO  4   8 100   9 100  45 101  46 101
M  END
>  <TORSDO>  (4) 
F 20

>  <SCORE>  (4) 
-16.530

>  <name>  (4) 
3

>  <ligand_id>  (4) 
3

>  <original_smiles>  (4) 
[H]c1c([H])c([H])c2c(c1[H])C([H])([H])C([H])([H])C([H])([H])C2([H])N([H])C(=O)C1([H])N(C(=O)C([H])(N([H])C(=O)C([H])(N([H])C([H])([H])[H])C([H])([H])[H])C(C([H])([H])[H])(C([H])([H])[H])C([H])([H])[H])C([H])([H])c2c([H])c(OC([H])([H])C([H])([H])[N+]([H])([H])C(C([H])([H])[H])(C([H])([H])[H])C([H])([H])C(=O)N3C([H])([H])C([H])([H])C([H])([H])C([H])(n4nc(-c5c([H])c([H])c(Oc6c([H])c([H])c(F)c([H])c6F)c([H])c5[H])c(C(=O)N([H])[H])c4N([H])[H])C3([H])[H])c([H])c([H])c2C1([H])[H]

>  <smiles>  (4) 
[H]c1c([H])c([H])c2c(c1[H])C([H])([H])C([H])([H])C([H])([H])C2([H])N([H])C(=O)C1([H])N(C(=O)C([H])(N([H])C(=O)C([H])(N([H])C([H])([H])[H])C([H])([H])[H])C(C([H])([H])[H])(C([H])([H])[H])C([H])([H])[H])C([H])([H])c2c([H])c(OC([H])([H])C([H])([H])[N+]([H])([H])C(C([H])([H])[H])(C([H])([H])[H])C([H])([H])C(=O)N3C([H])([H])C([H])([H])C([H])([H])C([H])(n4nc(-c5c([H])c([H])c(Oc6c([H])c([H])c(F)c([H])c6F)c([H])c5[H])c(C(=O)N([H])[H])c4N([H])[H])C3([H])[H])c([H])c([H])c2C1([H])[H]

$$$$
4:0:0
     RDKit          3D

 93101  0  0  1  0  0  0  0  0999 V2000
  -29.9980  -21.6310   18.4390 C   0  0  0  0  0  3  0  0  0  0  0  0
  -30.3920  -20.3790   18.9600 C   0  0  0  0  0  3  0  0  0  0  0  0
  -27.6880  -21.1320   18.9920 C   0  0  0  0  0  3  0  0  0  0  0  0
  -28.6410  -22.0090   18.4360 C   0  0  0  0  0  0  0  0  0  0  0  0
  -28.0740  -19.8760   19.5110 C   0  0  0  0  0  0  0  0  0  0  0  0
  -29.4350  -19.4800   19.4890 C   0  0  0  0  0  0  0  0  0  0  0  0
  -27.0030  -18.9530   20.0720 C   0  0  0  0  0  1  0  0  0  0  0  0
  -29.7840  -18.2090   19.9820 N   0  0  0  0  0  0  0  0  0  0  0  0
  -29.0680  -17.6320   20.4100 H   0  0  0  0  0  0  0  0  0  0  0  0
  -31.1300  -17.6560   19.8580 C   0  0  0  0  0  2  0  0  0  0  0  0
  -31.4240  -16.6090   20.9540 C   0  0  0  0  0  2  0  0  0  0  0  0
  -31.2750  -14.3340   19.9360 C   0  0  0  0  0  0  0  0  0  0  0  0
  -30.8440  -12.1160   18.9400 C   0  0  0  0  0  2  0  0  0  0  0  0
  -29.8450  -12.2350   17.7730 C   0  0  0  0  0  2  0  0  0  0  0  0
  -28.3950  -12.1650   18.2870 C   0  0  0  0  0  2  0  0  0  0  0  0
  -28.1390  -13.1230   19.4810 C   0  0  0  0  0  3  0  0  0  0  0  0
  -29.2410  -12.9710   20.5540 C   0  0  0  0  0  2  0  0  0  0  0  0
  -30.5460  -13.1860   19.9030 N   0  0  0  0  0  0  0  0  0  0  0  0
  -32.3160  -14.4890   19.2900 O   0  0  0  0  0  0  0  0  0  0  0  0
  -30.7810  -15.3180   20.7010 N   0  0  0  0  0  0  0  0  0  0  0  0
  -29.9150  -15.1290   21.1840 H   0  0  0  0  0  0  0  0  0  0  0  0
  -25.8440  -13.8700   20.3780 C   0  0  0  0  0  0  0  0  0  0  0  0
  -24.7510  -13.1600   20.7980 C   0  0  0  0  0  0  0  0  0  0  0  0
  -25.1110  -11.7820   20.6890 C   0  0  0  0  0  0  0  0  0  0  0  0
  -26.8050  -12.9270   20.0450 N   0  0  0  0  0  0  0  0  0  0  0  0
  -26.3690  -11.6640   20.2870 N   0  0  0  0  0  0  0  0  0  0  0  0
  -24.3120  -10.5660   20.8900 C   0  0  0  0  0  0  0  0  0  0  0  0
  -24.6840   -9.5840   21.8350 C   0  0  0  0  0  3  0  0  0  0  0  0
  -23.8890   -8.4340   22.0230 C   0  0  0  0  0  3  0  0  0  0  0  0
  -22.7070   -8.2560   21.2650 C   0  0  0  0  0  0  0  0  0  0  0  0
  -22.3530   -9.2250   20.3110 C   0  0  0  0  0  3  0  0  0  0  0  0
  -23.1480  -10.3670   20.1200 C   0  0  0  0  0  3  0  0  0  0  0  0
  -21.8870   -7.1580   21.3610 O   0  0  0  0  0  0  0  0  0  0  0  0
  -21.7330   -6.4760   22.5420 C   0  0  0  0  0  0  0  0  0  0  0  0
  -21.2130   -7.0950   23.6980 C   0  0  0  0  0  3  0  0  0  0  0  0
  -21.0070   -6.3390   24.8700 C   0  0  0  0  0  3  0  0  0  0  0  0
  -21.3100   -4.9640   24.8850 C   0  0  0  0  0  0  0  0  0  0  0  0
  -21.8240   -4.3450   23.7310 C   0  0  0  0  0  3  0  0  0  0  0  0
  -22.0310   -5.0970   22.5630 C   0  0  0  0  0  0  0  0  0  0  0  0
  -22.5060   -4.4910   21.4480 F   0  0  0  0  0  0  0  0  0  0  0  0
  -21.1050   -4.2370   26.0070 F   0  0  0  0  0  0  0  0  0  0  0  0
  -23.4150  -13.7220   21.1880 C   0  0  0  0  0  0  0  0  0  0  0  0
  -22.7000  -13.0430   22.0790 N   0  0  0  0  0  0  0  0  0  0  0  0
  -23.0160  -14.7950   20.7380 O   0  0  0  0  0  0  0  0  0  0  0  0
  -23.0360  -12.1730   22.4630 H   0  0  0  0  0  0  0  0  0  0  0  0
  -21.8060  -13.4000   22.3830 H   0  0  0  0  0  0  0  0  0  0  0  0
  -26.0950  -15.2310   20.2330 N   0  0  0  0  0  0  0  0  0  0  0  0
  -25.3880  -15.9350   20.4150 H   0  0  0  0  0  0  0  0  0  0  0  0
  -26.9540  -15.6190   19.8640 H   0  0  0  0  0  0  0  0  0  0  0  0
  -28.1900  -23.2920   17.7410 C   0  0  0  0  0  2  0  0  0  0  0  0
  -28.7770  -24.6150   18.2770 C   0  0  0  0  0  2  0  0  0  0  0  0
  -28.3030  -25.0150   19.6870 C   0  0  0  0  0  2  0  0  0  0  0  0
  -28.4000  -26.4350   19.8880 O   0  0  0  0  0  0  0  0  0  0  0  0
  -24.6380  -31.5460   23.0860 C   0  0  0  0  0  0  0  0  0  0  0  0
  -27.2290  -27.1670   19.8770 C   0  0  0  0  0  0  0  0  0  0  0  0
  -23.4170  -30.2190   21.3930 C   0  0  0  0  0  3  0  0  0  0  0  0
  -24.8530  -28.7070   19.9260 C   0  0  0  0  0  0  0  0  0  0  0  0
  -25.9490  -30.5470   21.2170 C   0  0  0  0  0  2  0  0  0  0  0  0
  -26.0170  -29.1960   20.5330 C   0  0  0  0  0  0  0  0  0  0  0  0
  -27.2070  -28.4350   20.5020 C   0  0  0  0  0  3  0  0  0  0  0  0
  -26.0450  -26.6940   19.2620 C   0  0  0  0  0  3  0  0  0  0  0  0
  -24.8630  -27.4560   19.2880 C   0  0  0  0  0  3  0  0  0  0  0  0
  -23.6230  -29.5820   19.9940 C   0  0  0  0  0  2  0  0  0  0  0  0
  -24.6860  -30.7830   21.9590 N   0  0  0  0  0  0  0  0  0  0  0  0
  -23.5580  -31.8180   23.6300 O   0  0  0  0  0  0  0  0  0  0  0  0
  -22.7460  -29.1770   22.3160 C   0  0  0  0  0  0  0  0  0  0  0  0
  -21.4160  -29.0340   22.1890 N   0  0  0  0  0  0  0  0  0  0  0  0
  -23.4170  -28.5030   23.1010 O   0  0  0  0  0  0  0  0  0  0  0  0
  -20.9390  -29.6300   21.5280 H   0  0  0  0  0  0  0  0  0  0  0  0
  -18.0090  -27.9430   22.6890 C   0  0  0  0  0  0  0  0  0  0  0  0
  -20.5790  -28.0890   22.9250 C   0  0  0  0  0  3  0  0  0  0  0  0
  -20.6160  -26.6870   22.2740 C   0  0  0  0  0  2  0  0  0  0  0  0
  -19.4860  -26.4600   21.2660 C   0  0  0  0  0  2  0  0  0  0  0  0
  -18.1220  -26.6250   21.9430 C   0  0  0  0  0  2  0  0  0  0  0  0
  -19.1640  -28.6390   23.1370 C   0  0  0  0  0  0  0  0  0  0  0  0
  -19.0050  -29.8770   23.7940 C   0  0  0  0  0  3  0  0  0  0  0  0
  -17.7230  -30.4210   24.0090 C   0  0  0  0  0  3  0  0  0  0  0  0
  -16.5830  -29.7200   23.5780 C   0  0  0  0  0  3  0  0  0  0  0  0
  -16.7270  -28.4840   22.9240 C   0  0  0  0  0  3  0  0  0  0  0  0
  -25.9310  -32.1350   23.7320 C   0  0  0  0  0  3  0  0  0  0  0  0
  -25.6470  -33.5300   24.0950 N   0  0  0  0  0  0  0  0  0  0  0  0
  -26.0000  -34.5940   23.3590 C   0  0  0  0  0  0  0  0  0  0  0  0
  -26.6700  -34.5010   22.3270 O   0  0  0  0  0  0  0  0  0  0  0  0
  -25.0530  -33.6780   24.8980 H   0  0  0  0  0  0  0  0  0  0  0  0
  -24.3020  -36.4210   23.0440 C   0  0  0  0  0  1  0  0  0  0  0  0
  -25.5360  -35.9790   23.8470 C   0  0  0  0  0  3  0  0  0  0  0  0
  -27.6780  -36.8170   24.7080 C   0  0  0  0  0  1  0  0  0  0  0  0
  -26.5860  -37.0170   23.7580 N   0  0  0  0  0  0  0  0  0  0  0  0
  -26.1930  -37.9410   23.9180 H   0  0  0  0  0  0  0  0  0  0  0  0
  -26.4240  -31.3200   24.9900 C   0  0  1  0  0  0  0  0  0  0  0  0
  -25.3180  -31.0640   26.0400 C   0  0  0  0  0  1  0  0  0  0  0  0
  -26.9950  -29.9470   24.5600 C   0  0  0  0  0  1  0  0  0  0  0  0
  -27.5780  -32.0790   25.6880 C   0  0  0  0  0  1  0  0  0  0  0  0
  1  2  1  0
  2  6  2  0
  3  5  2  0
  4  1  2  0
  4  3  1  0
  5  7  1  0
  6  5  1  0
  6  8  1  0
  8  9  1  0
 10  8  1  0
 10 11  1  0
 12 20  1  0
 13 18  1  0
 14 15  1  0
 14 13  1  0
 16 15  1  0
 16 25  1  0
 16 17  1  0
 18 12  1  0
 18 17  1  0
 19 12  2  0
 20 11  1  0
 20 21  1  0
 22 23  2  0
 23 42  1  0
 24 23  1  0
 24 27  1  0
 25 26  1  0
 25 22  1  0
 26 24  2  0
 27 28  1  0
 28 29  2  0
 30 33  1  0
 30 29  1  0
 31 30  2  0
 32 31  1  0
 32 27  2  0
 33 34  1  0
 34 39  2  0
 34 35  1  0
 35 36  2  0
 36 37  1  0
 37 41  1  0
 38 37  2  0
 39 38  1  0
 40 39  1  0
 42 43  1  0
 43 46  1  0
 43 45  1  0
 44 42  2  0
 47 22  1  0
 47 48  1  0
 49 47  1  0
 50 51  1  0
 50  4  1  0
 51 52  1  0
 52 53  1  0
 54 65  2  0
 55 53  1  0
 55 60  1  0
 56 64  1  0
 56 66  1  0
 57 63  1  0
 57 59  1  0
 58 64  1  0
 59 58  1  0
 60 59  2  0
 61 62  1  0
 61 55  2  0
 62 57  2  0
 63 56  1  0
 64 54  1  0
 66 68  2  0
 67 66  1  0
 69 67  1  0
 70 79  2  0
 70 75  1  0
 71 67  1  0
 71 75  1  0
 72 71  1  0
 73 74  1  0
 73 72  1  0
 74 70  1  0
 75 76  2  0
 76 77  1  0
 78 77  2  0
 79 78  1  0
 80 54  1  0
 80 81  1  0
 80 90  1  0
 81 84  1  0
 82 86  1  0
 82 81  1  0
 83 82  2  0
 86 85  1  0
 88 86  1  0
 88 89  1  0
 88 87  1  0
 90 93  1  1
 90 91  1  0
 92 90  1  0
M  ISO  4  12 100  20 100  52 101  53 101
M  END
>  <TORSDO>  (5) 
F 22

>  <SCORE>  (5) 
-12.198

>  <name>  (5) 
4

>  <ligand_id>  (5) 
4

>  <original_smiles>  (5) 
[H]c1c([H])c([H])c2c(c1[H])C([H])([H])C([H])([H])C([H])([H])C2([H])N([H])C(=O)C1([H])N(C(=O)C([H])(N([H])C(=O)C([H])(N([H])C([H])([H])[H])C([H])([H])[H])C(C([H])([H])[H])(C([H])([H])[H])C([H])([H])[H])C([H])([H])c2c([H])c(OC([H])([H])C([H])([H])C([H])([H])c3c([H])c([H])c(N([H])C([H])([H])C([H])([H])N([H])C(=O)N4C([H])([H])C([H])([H])C([H])([H])C([H])(n5nc(-c6c([H])c([H])c(Oc7c([H])c([H])c(F)c([H])c7F)c([H])c6[H])c(C(=O)N([H])[H])c5N([H])[H])C4([H])[H])c(C([H])([H])[H])c3[H])c([H])c([H])c2C1([H])[H]

>  <smiles>  (5) 
[H]c1c([H])c([H])c2c(c1[H])C([H])([H])C([H])([H])C([H])([H])C2([H])N([H])C(=O)C1([H])N(C(=O)C([H])(N([H])C(=O)C([H])(N([H])C([H])([H])[H])C([H])([H])[H])C(C([H])([H])[H])(C([H])([H])[H])C([H])([H])[H])C([H])([H])c2c([H])c(OC([H])([H])C([H])([H])C([H])([H])c3c([H])c([H])c(N([H])C([H])([H])C([H])([H])N([H])C(=O)N4C([H])([H])C([H])([H])C([H])([H])C([H])(n5nc(-c6c([H])c([H])c(Oc7c([H])c([H])c(F)c([H])c7F)c([H])c6[H])c(C(=O)N([H])[H])c5N([H])[H])C4([H])[H])c(C([H])([H])[H])c3[H])c([H])c([H])c2C1([H])[H]

$$$$
5:0:0
     RDKit          3D

 95103  0  0  1  0  0  0  0  0999 V2000
  -28.6060  -20.7730   22.1330 C   0  0  0  0  0  3  0  0  0  0  0  0
  -28.6400  -22.0260   22.7710 C   0  0  0  0  0  3  0  0  0  0  0  0
  -29.4550  -21.7950   20.0990 C   0  0  0  0  0  3  0  0  0  0  0  0
  -29.0490  -20.6340   20.8020 C   0  0  0  0  0  0  0  0  0  0  0  0
  -29.1090  -23.1700   22.0960 C   0  0  0  0  0  0  0  0  0  0  0  0
  -29.4900  -23.0660   20.7300 C   0  0  0  0  0  0  0  0  0  0  0  0
  -29.2260  -24.4640   22.8920 C   0  0  0  0  0  1  0  0  0  0  0  0
  -29.9720  -24.1590   19.9910 N   0  0  0  0  0  0  0  0  0  0  0  0
  -30.9120  -24.4090   20.2870 H   0  0  0  0  0  0  0  0  0  0  0  0
  -29.1430  -25.3640   19.9300 C   0  0  0  0  0  2  0  0  0  0  0  0
  -29.4460  -26.2380   18.6970 C   0  0  0  0  0  2  0  0  0  0  0  0
  -29.1380  -27.5980   18.9900 O   0  0  0  0  0  0  0  0  0  0  0  0
  -24.6520  -31.3960   22.9700 C   0  0  0  0  0  0  0  0  0  0  0  0
  -27.8300  -28.0000   19.1580 C   0  0  0  0  0  0  0  0  0  0  0  0
  -23.6030  -30.0550   21.1730 C   0  0  0  0  0  3  0  0  0  0  0  0
  -25.2110  -29.0090   19.4940 C   0  0  0  0  0  0  0  0  0  0  0  0
  -26.0140  -30.8780   20.9520 C   0  0  0  0  0  2  0  0  0  0  0  0
  -26.2920  -29.6500   20.1120 C   0  0  0  0  0  0  0  0  0  0  0  0
  -27.6000  -29.1500   19.9430 C   0  0  0  0  0  3  0  0  0  0  0  0
  -26.7250  -27.3530   18.5510 C   0  0  0  0  0  3  0  0  0  0  0  0
  -25.4200  -27.8540   18.7220 C   0  0  0  0  0  3  0  0  0  0  0  0
  -23.8460  -29.6280   19.7000 C   0  0  0  0  0  2  0  0  0  0  0  0
  -24.7740  -30.7870   21.7570 N   0  0  0  0  0  0  0  0  0  0  0  0
  -23.5750  -31.3980   23.5820 O   0  0  0  0  0  0  0  0  0  0  0  0
  -23.1920  -28.8080   21.9870 C   0  0  0  0  0  0  0  0  0  0  0  0
  -21.9340  -28.3730   21.8150 N   0  0  0  0  0  0  0  0  0  0  0  0
  -23.9980  -28.2430   22.7310 O   0  0  0  0  0  0  0  0  0  0  0  0
  -21.3320  -28.8950   21.1950 H   0  0  0  0  0  0  0  0  0  0  0  0
  -18.9140  -26.4040   22.0270 C   0  0  0  0  0  0  0  0  0  0  0  0
  -21.3370  -27.1980   22.4480 C   0  0  0  0  0  3  0  0  0  0  0  0
  -21.7790  -25.8980   21.7360 C   0  0  0  0  0  2  0  0  0  0  0  0
  -20.8040  -25.4500   20.6420 C   0  0  0  0  0  2  0  0  0  0  0  0
  -19.4110  -25.2110   21.2300 C   0  0  0  0  0  2  0  0  0  0  0  0
  -19.8180  -27.3480   22.5850 C   0  0  0  0  0  0  0  0  0  0  0  0
  -19.3040  -28.4610   23.2840 C   0  0  0  0  0  3  0  0  0  0  0  0
  -17.9160  -28.6340   23.4400 C   0  0  0  0  0  3  0  0  0  0  0  0
  -17.0250  -27.6890   22.9030 C   0  0  0  0  0  3  0  0  0  0  0  0
  -17.5250  -26.5770   22.2000 C   0  0  0  0  0  3  0  0  0  0  0  0
  -25.8480  -32.1450   23.6350 C   0  0  0  0  0  3  0  0  0  0  0  0
  -25.3680  -33.4710   24.0470 N   0  0  0  0  0  0  0  0  0  0  0  0
  -25.5840  -34.6050   23.3660 C   0  0  0  0  0  0  0  0  0  0  0  0
  -26.2830  -34.6540   22.3510 O   0  0  0  0  0  0  0  0  0  0  0  0
  -24.7480  -33.5000   24.8420 H   0  0  0  0  0  0  0  0  0  0  0  0
  -23.6540  -36.1910   23.0810 C   0  0  0  0  0  1  0  0  0  0  0  0
  -24.9210  -35.8890   23.8990 C   0  0  0  0  0  3  0  0  0  0  0  0
  -26.9130  -36.9660   24.8410 C   0  0  0  0  0  1  0  0  0  0  0  0
  -25.8160  -37.0660   23.8820 N   0  0  0  0  0  0  0  0  0  0  0  0
  -25.2960  -37.9150   24.0860 H   0  0  0  0  0  0  0  0  0  0  0  0
  -26.4640  -31.3680   24.8640 C   0  0  1  0  0  0  0  0  0  0  0  0
  -25.4160  -30.9260   25.9100 C   0  0  0  0  0  1  0  0  0  0  0  0
  -27.2220  -30.1070   24.3900 C   0  0  0  0  0  1  0  0  0  0  0  0
  -27.5060  -32.2610   25.5830 C   0  0  0  0  0  1  0  0  0  0  0  0
  -29.0160  -19.2510   20.1390 C   0  0  0  0  0  2  0  0  0  0  0  0
  -29.9430  -18.1790   20.7870 C   0  0  0  0  0  2  0  0  0  0  0  0
  -31.3570  -18.3100   20.3580 N   0  0  0  0  0  4  0  0  0  0  0  0
  -31.8150  -18.8920   21.0420 H   0  0  0  0  0  0  0  0  0  0  0  0
  -31.3660  -18.8240   19.4920 H   0  0  0  0  0  0  0  0  0  0  0  0
  -32.1770  -17.0690   20.2280 C   0  0  0  0  0  2  0  0  0  0  0  0
  -31.6050  -16.0370   19.2360 C   0  0  0  0  0  2  0  0  0  0  0  0
  -32.3660  -14.6920   19.1960 C   0  0  0  0  0  0  0  0  0  0  0  0
  -32.0160  -12.2770   18.8550 C   0  0  0  0  0  2  0  0  0  0  0  0
  -30.9630  -12.1010   17.7390 C   0  0  0  0  0  2  0  0  0  0  0  0
  -29.5280  -12.1680   18.3030 C   0  0  0  0  0  2  0  0  0  0  0  0
  -29.3010  -13.3790   19.2420 C   0  0  0  0  0  3  0  0  0  0  0  0
  -30.4510  -13.4840   20.2730 C   0  0  0  0  0  2  0  0  0  0  0  0
  -31.7190  -13.5460   19.5360 N   0  0  0  0  0  0  0  0  0  0  0  0
  -33.4770  -14.6880   18.6600 O   0  0  0  0  0  0  0  0  0  0  0  0
  -27.1890  -14.3720   20.3370 C   0  0  0  0  0  0  0  0  0  0  0  0
  -26.0330  -13.7840   20.7830 C   0  0  0  0  0  0  0  0  0  0  0  0
  -26.1900  -12.3850   20.5550 C   0  0  0  0  0  0  0  0  0  0  0  0
  -27.9890  -13.3320   19.8800 N   0  0  0  0  0  0  0  0  0  0  0  0
  -27.3950  -12.1280   20.0650 N   0  0  0  0  0  0  0  0  0  0  0  0
  -25.2420  -11.2750   20.7210 C   0  0  0  0  0  0  0  0  0  0  0  0
  -25.5090  -10.2040   21.5980 C   0  0  0  0  0  3  0  0  0  0  0  0
  -24.5740   -9.1580   21.7540 C   0  0  0  0  0  3  0  0  0  0  0  0
  -23.3570   -9.1780   21.0330 C   0  0  0  0  0  0  0  0  0  0  0  0
  -23.1070  -10.2350   20.1410 C   0  0  0  0  0  3  0  0  0  0  0  0
  -24.0420  -11.2730   19.9840 C   0  0  0  0  0  3  0  0  0  0  0  0
  -22.4000   -8.1950   21.1070 O   0  0  0  0  0  0  0  0  0  0  0  0
  -22.1210   -7.5530   22.2860 C   0  0  0  0  0  0  0  0  0  0  0  0
  -21.6830   -8.2530   23.4310 C   0  0  0  0  0  3  0  0  0  0  0  0
  -21.3350   -7.5450   24.5990 C   0  0  0  0  0  3  0  0  0  0  0  0
  -21.4130   -6.1400   24.6220 C   0  0  0  0  0  0  0  0  0  0  0  0
  -21.8470   -5.4410   23.4820 C   0  0  0  0  0  3  0  0  0  0  0  0
  -22.1960   -6.1450   22.3160 C   0  0  0  0  0  0  0  0  0  0  0  0
  -22.5890   -5.4640   21.2150 F   0  0  0  0  0  0  0  0  0  0  0  0
  -21.0710   -5.4610   25.7420 F   0  0  0  0  0  0  0  0  0  0  0  0
  -24.8080  -14.4870   21.2920 C   0  0  0  0  0  0  0  0  0  0  0  0
  -24.0680  -13.8540   22.1980 N   0  0  0  0  0  0  0  0  0  0  0  0
  -24.5230  -15.6240   20.9220 O   0  0  0  0  0  0  0  0  0  0  0  0
  -24.3030  -12.9280   22.5250 H   0  0  0  0  0  0  0  0  0  0  0  0
  -23.2440  -14.3050   22.5690 H   0  0  0  0  0  0  0  0  0  0  0  0
  -27.6090  -15.6960   20.2650 N   0  0  0  0  0  0  0  0  0  0  0  0
  -26.9680  -16.4500   20.4890 H   0  0  0  0  0  0  0  0  0  0  0  0
  -28.4060  -16.0100   19.7270 H   0  0  0  0  0  0  0  0  0  0  0  0
  1  2  1  0
  3  6  2  0
  3  4  1  0
  4  1  2  0
  5  2  2  0
  5  7  1  0
  6  5  1  0
  8  9  1  0
  8  6  1  0
 10  8  1  0
 11 12  1  0
 11 10  1  0
 12 14  1  0
 13 24  2  0
 14 19  1  0
 15 23  1  0
 15 25  1  0
 16 22  1  0
 16 18  1  0
 17 23  1  0
 18 17  1  0
 19 18  2  0
 20 21  1  0
 20 14  2  0
 21 16  2  0
 22 15  1  0
 23 13  1  0
 25 27  2  0
 26 25  1  0
 28 26  1  0
 29 38  2  0
 29 34  1  0
 30 26  1  0
 30 34  1  0
 31 30  1  0
 32 33  1  0
 32 31  1  0
 33 29  1  0
 34 35  2  0
 35 36  1  0
 37 36  2  0
 38 37  1  0
 39 13  1  0
 39 40  1  0
 39 49  1  0
 40 43  1  0
 41 45  1  0
 41 40  1  0
 42 41  2  0
 45 44  1  0
 47 45  1  0
 47 48  1  0
 47 46  1  0
 49 52  1  1
 49 50  1  0
 51 49  1  0
 53 54  1  0
 53  4  1  0
 55 54  1  0
 55 56  1  0
 57 55  1  0
 58 55  1  0
 59 58  1  0
 60 59  1  0
 60 66  1  0
 61 66  1  0
 62 63  1  0
 62 61  1  0
 64 63  1  0
 64 71  1  0
 64 65  1  0
 66 65  1  0
 67 60  2  0
 68 69  2  0
 69 88  1  0
 70 73  1  0
 70 69  1  0
 71 72  1  0
 71 68  1  0
 72 70  2  0
 73 74  1  0
 74 75  2  0
 76 79  1  0
 76 75  1  0
 77 76  2  0
 78 77  1  0
 78 73  2  0
 79 80  1  0
 80 85  2  0
 80 81  1  0
 81 82  2  0
 82 83  1  0
 83 87  1  0
 84 83  2  0
 85 84  1  0
 86 85  1  0
 88 89  1  0
 89 91  1  0
 89 92  1  0
 90 88  2  0
 93 68  1  0
 93 94  1  0
 95 93  1  0
M  ISO  4  11 101  12 101  59 100  60 100
M  END
>  <TORSDO>  (6) 
F 24

>  <SCORE>  (6) 
-6.699

>  <name>  (6) 
5

>  <ligand_id>  (6) 
5

>  <original_smiles>  (6) 
[H]c1c([H])c([H])c2c(c1[H])C([H])([H])C([H])([H])C([H])([H])C2([H])N([H])C(=O)C1([H])N(C(=O)C([H])(N([H])C(=O)C([H])(N([H])C([H])([H])[H])C([H])([H])[H])C(C([H])([H])[H])(C([H])([H])[H])C([H])([H])[H])C([H])([H])c2c([H])c(OC([H])([H])C([H])([H])N([H])c3c([H])c(C([H])([H])C([H])([H])[N+]([H])([H])C([H])([H])C([H])([H])C(=O)N4C([H])([H])C([H])([H])C([H])([H])C([H])(n5nc(-c6c([H])c([H])c(Oc7c([H])c([H])c(F)c([H])c7F)c([H])c6[H])c(C(=O)N([H])[H])c5N([H])[H])C4([H])[H])c([H])c([H])c3C([H])([H])[H])c([H])c([H])c2C1([H])[H]

>  <smiles>  (6) 
[H]c1c([H])c([H])c2c(c1[H])C([H])([H])C([H])([H])C([H])([H])C2([H])N([H])C(=O)C1([H])N(C(=O)C([H])(N([H])C(=O)C([H])(N([H])C([H])([H])[H])C([H])([H])[H])C(C([H])([H])[H])(C([H])([H])[H])C([H])([H])[H])C([H])([H])c2c([H])c(OC([H])([H])C([H])([H])N([H])c3c([H])c(C([H])([H])C([H])([H])[N+]([H])([H])C([H])([H])C([H])([H])C(=O)N4C([H])([H])C([H])([H])C([H])([H])C([H])(n5nc(-c6c([H])c([H])c(Oc7c([H])c([H])c(F)c([H])c7F)c([H])c6[H])c(C(=O)N([H])[H])c5N([H])[H])C4([H])[H])c([H])c([H])c3C([H])([H])[H])c([H])c([H])c2C1([H])[H]

$$$$
6:0:0
     RDKit          3D

 95104  0  0  1  0  0  0  0  0999 V2000
  -31.7870  -21.5860   20.2370 C   0  0  0  0  0  2  0  0  0  0  0  0
  -29.4550  -21.1830   21.3770 C   0  0  0  0  0  2  0  0  0  0  0  0
  -31.4810  -23.0890   20.4060 C   0  0  0  0  0  2  0  0  0  0  0  0
  -29.3510  -22.7290   21.4400 C   0  0  0  0  0  2  0  0  0  0  0  0
  -30.8360  -20.5900   20.9770 C   0  0  0  0  0  3  0  0  0  0  0  0
  -30.0310  -23.3950   20.3010 N   0  0  1  0  0  4  0  0  0  0  0  0
  -29.6920  -22.9970   19.4330 H   0  0  0  0  0  0  0  0  0  0  0  0
  -30.4190  -19.3500   18.7760 C   0  0  0  0  0  3  0  0  0  0  0  0
  -30.1220  -18.1920   18.0460 C   0  0  0  0  0  3  0  0  0  0  0  0
  -30.4500  -18.0580   20.8340 C   0  0  0  0  0  3  0  0  0  0  0  0
  -30.6010  -19.3000   20.1770 C   0  0  0  0  0  0  0  0  0  0  0  0
  -29.9580  -16.9550   18.6990 C   0  0  0  0  0  0  0  0  0  0  0  0
  -30.1300  -16.8760   20.1170 C   0  0  0  0  0  0  0  0  0  0  0  0
  -29.5560  -15.7690   17.8300 C   0  0  0  0  0  1  0  0  0  0  0  0
  -30.7110  -14.6870   21.1550 C   0  0  0  0  0  0  0  0  0  0  0  0
  -30.6600  -12.3070   20.5320 C   0  0  0  0  0  2  0  0  0  0  0  0
  -29.9110  -12.1570   19.1880 C   0  0  0  0  0  2  0  0  0  0  0  0
  -28.3700  -12.2160   19.3480 C   0  0  0  0  0  2  0  0  0  0  0  0
  -27.8400  -13.2140   20.4190 C   0  0  0  0  0  3  0  0  0  0  0  0
  -28.7330  -13.2280   21.6810 C   0  0  0  0  0  2  0  0  0  0  0  0
  -30.1170  -13.4660   21.2440 N   0  0  0  0  0  0  0  0  0  0  0  0
  -31.9320  -14.8480   21.0670 O   0  0  0  0  0  0  0  0  0  0  0  0
  -29.8570  -15.6840   20.8610 N   0  0  0  0  0  0  0  0  0  0  0  0
  -28.8890  -15.4160   20.9170 H   0  0  0  0  0  0  0  0  0  0  0  0
  -25.3460  -13.8060   20.8150 C   0  0  0  0  0  0  0  0  0  0  0  0
  -24.2580  -13.0090   21.0720 C   0  0  0  0  0  0  0  0  0  0  0  0
  -24.7470  -11.6730   21.1470 C   0  0  0  0  0  0  0  0  0  0  0  0
  -26.4370  -12.9450   20.7530 N   0  0  0  0  0  0  0  0  0  0  0  0
  -26.0710  -11.6650   21.0240 N   0  0  0  0  0  0  0  0  0  0  0  0
  -24.0280  -10.3980   21.2840 C   0  0  0  0  0  0  0  0  0  0  0  0
  -24.3860   -9.4480   22.2620 C   0  0  0  0  0  3  0  0  0  0  0  0
  -23.6690   -8.2360   22.3860 C   0  0  0  0  0  3  0  0  0  0  0  0
  -22.5740   -7.9680   21.5340 C   0  0  0  0  0  0  0  0  0  0  0  0
  -22.2360   -8.9090   20.5470 C   0  0  0  0  0  3  0  0  0  0  0  0
  -22.9520  -10.1090   20.4160 C   0  0  0  0  0  3  0  0  0  0  0  0
  -21.8280   -6.8120   21.5600 O   0  0  0  0  0  0  0  0  0  0  0  0
  -21.7140   -6.0530   22.6980 C   0  0  0  0  0  0  0  0  0  0  0  0
  -21.2060   -6.5880   23.9010 C   0  0  0  0  0  3  0  0  0  0  0  0
  -21.0470   -5.7570   25.0260 C   0  0  0  0  0  3  0  0  0  0  0  0
  -21.3810   -4.3920   24.9450 C   0  0  0  0  0  0  0  0  0  0  0  0
  -21.8760   -3.8550   23.7440 C   0  0  0  0  0  3  0  0  0  0  0  0
  -22.0400   -4.6850   22.6190 C   0  0  0  0  0  0  0  0  0  0  0  0
  -22.4990   -4.1610   21.4570 F   0  0  0  0  0  0  0  0  0  0  0  0
  -21.2200   -3.5880   26.0210 F   0  0  0  0  0  0  0  0  0  0  0  0
  -22.8190  -13.4480   21.1590 C   0  0  0  0  0  0  0  0  0  0  0  0
  -22.0090  -12.7490   21.9500 N   0  0  0  0  0  0  0  0  0  0  0  0
  -22.4220  -14.4420   20.5540 O   0  0  0  0  0  0  0  0  0  0  0  0
  -22.3340  -11.9400   22.4610 H   0  0  0  0  0  0  0  0  0  0  0  0
  -21.0400  -13.0190   22.0520 H   0  0  0  0  0  0  0  0  0  0  0  0
  -25.4790  -15.1760   20.5990 N   0  0  0  0  0  0  0  0  0  0  0  0
  -24.6550  -15.7700   20.6280 H   0  0  0  0  0  0  0  0  0  0  0  0
  -26.2900  -15.6630   20.2410 H   0  0  0  0  0  0  0  0  0  0  0  0
  -29.8160  -24.8720   20.2450 C   0  0  0  0  0  2  0  0  0  0  0  0
  -28.4290  -25.3520   19.7760 C   0  0  0  0  0  2  0  0  0  0  0  0
  -28.4190  -26.7730   19.9390 O   0  0  0  0  0  0  0  0  0  0  0  0
  -24.5330  -31.8330   23.0520 C   0  0  0  0  0  0  0  0  0  0  0  0
  -27.2100  -27.4430   19.9420 C   0  0  0  0  0  0  0  0  0  0  0  0
  -23.3360  -30.4280   21.4120 C   0  0  0  0  0  3  0  0  0  0  0  0
  -24.7970  -28.9200   19.9730 C   0  0  0  0  0  0  0  0  0  0  0  0
  -25.8540  -30.8290   21.1870 C   0  0  0  0  0  2  0  0  0  0  0  0
  -25.9520  -29.4590   20.5490 C   0  0  0  0  0  0  0  0  0  0  0  0
  -27.1660  -28.7340   20.5180 C   0  0  0  0  0  3  0  0  0  0  0  0
  -26.0270  -26.9040   19.3840 C   0  0  0  0  0  3  0  0  0  0  0  0
  -24.8310  -27.6480   19.3820 C   0  0  0  0  0  3  0  0  0  0  0  0
  -23.5400  -29.7610   20.0280 C   0  0  0  0  0  2  0  0  0  0  0  0
  -24.5940  -31.0430   21.9460 N   0  0  0  0  0  0  0  0  0  0  0  0
  -23.4490  -32.0870   23.6000 O   0  0  0  0  0  0  0  0  0  0  0  0
  -22.7050  -29.3880   22.3660 C   0  0  0  0  0  0  0  0  0  0  0  0
  -21.3760  -29.2040   22.2630 N   0  0  0  0  0  0  0  0  0  0  0  0
  -23.4060  -28.7470   23.1530 O   0  0  0  0  0  0  0  0  0  0  0  0
  -20.8680  -29.7730   21.6010 H   0  0  0  0  0  0  0  0  0  0  0  0
  -18.0170  -28.0010   22.7990 C   0  0  0  0  0  0  0  0  0  0  0  0
  -20.5800  -28.2550   23.0390 C   0  0  0  0  0  3  0  0  0  0  0  0
  -20.6740  -26.8290   22.4460 C   0  0  0  0  0  2  0  0  0  0  0  0
  -19.5580  -26.5210   21.4420 C   0  0  0  0  0  2  0  0  0  0  0  0
  -18.1840  -26.6600   22.1040 C   0  0  0  0  0  2  0  0  0  0  0  0
  -19.1420  -28.7570   23.2240 C   0  0  0  0  0  0  0  0  0  0  0  0
  -18.9290  -30.0160   23.8280 C   0  0  0  0  0  3  0  0  0  0  0  0
  -17.6260  -30.5160   24.0160 C   0  0  0  0  0  3  0  0  0  0  0  0
  -16.5160  -29.7550   23.6070 C   0  0  0  0  0  3  0  0  0  0  0  0
  -16.7140  -28.5000   23.0020 C   0  0  0  0  0  3  0  0  0  0  0  0
  -25.8120  -32.4750   23.6730 C   0  0  0  0  0  3  0  0  0  0  0  0
  -26.3760  -31.6780   24.9110 C   0  0  1  0  0  0  0  0  0  0  0  0
  -25.3080  -31.3930   25.9930 C   0  0  0  0  0  1  0  0  0  0  0  0
  -26.9780  -30.3260   24.4590 C   0  0  0  0  0  1  0  0  0  0  0  0
  -27.5270  -32.4750   25.5710 C   0  0  0  0  0  1  0  0  0  0  0  0
  -25.4770  -33.8540   24.0500 N   0  0  0  0  0  0  0  0  0  0  0  0
  -25.8020  -34.9370   23.3300 C   0  0  0  0  0  0  0  0  0  0  0  0
  -26.4830  -34.8820   22.3050 O   0  0  0  0  0  0  0  0  0  0  0  0
  -24.8580  -33.9660   24.8400 H   0  0  0  0  0  0  0  0  0  0  0  0
  -24.0520  -36.7150   23.0100 C   0  0  0  0  0  1  0  0  0  0  0  0
  -25.2860  -36.3020   23.8260 C   0  0  0  0  0  3  0  0  0  0  0  0
  -27.4040  -37.1870   24.7100 C   0  0  0  0  0  1  0  0  0  0  0  0
  -26.3060  -37.3720   23.7620 N   0  0  0  0  0  0  0  0  0  0  0  0
  -25.8840  -38.2790   23.9400 H   0  0  0  0  0  0  0  0  0  0  0  0
  1  3  1  0
  1  5  1  0
  2  4  1  0
  5 11  1  0
  5  2  1  0
  6  3  1  0
  6  4  1  0
  6  7  1  6
  8 11  1  0
  9 12  1  0
  9  8  2  0
 11 10  2  0
 12 13  2  0
 13 10  1  0
 13 23  1  0
 14 12  1  0
 15 21  1  0
 16 21  1  0
 17 18  1  0
 17 16  1  0
 19 18  1  0
 19 28  1  0
 19 20  1  0
 21 20  1  0
 22 15  2  0
 23 24  1  0
 23 15  1  0
 25 26  2  0
 26 27  1  0
 26 45  1  0
 27 30  1  0
 28 25  1  0
 28 29  1  0
 29 27  2  0
 30 31  1  0
 31 32  2  0
 33 36  1  0
 33 32  1  0
 34 33  2  0
 35 34  1  0
 35 30  2  0
 36 37  1  0
 37 38  1  0
 38 39  2  0
 40 39  1  0
 40 44  1  0
 41 40  2  0
 42 37  2  0
 42 41  1  0
 43 42  1  0
 45 46  1  0
 46 49  1  0
 46 48  1  0
 47 45  2  0
 50 51  1  0
 50 25  1  0
 52 50  1  0
 53  6  1  0
 54 55  1  0
 54 53  1  0
 55 57  1  0
 56 67  2  0
 57 62  1  0
 58 66  1  0
 58 68  1  0
 59 65  1  0
 59 61  1  0
 60 66  1  0
 61 60  1  0
 62 61  2  0
 63 57  2  0
 64 63  1  0
 64 59  2  0
 65 58  1  0
 66 56  1  0
 68 70  2  0
 69 68  1  0
 71 69  1  0
 72 81  2  0
 72 77  1  0
 73 69  1  0
 73 77  1  0
 74 73  1  0
 75 76  1  0
 75 74  1  0
 76 72  1  0
 77 78  2  0
 78 79  1  0
 80 79  2  0
 81 80  1  0
 82 56  1  0
 82 87  1  0
 82 83  1  0
 83 86  1  1
 83 84  1  0
 85 83  1  0
 87 90  1  0
 88 92  1  0
 88 87  1  0
 89 88  2  0
 92 91  1  0
 94 92  1  0
 94 95  1  0
 94 93  1  0
M  ISO  4  15 100  23 100  54 101  55 101
M  END
>  <TORSDO>  (7) 
F 19

>  <SCORE>  (7) 
-12.205

>  <name>  (7) 
6

>  <ligand_id>  (7) 
6

>  <original_smiles>  (7) 
[H]c1c([H])c([H])c2c(c1[H])C([H])([H])C([H])([H])C([H])([H])C2([H])N([H])C(=O)C1([H])N(C(=O)C([H])(N([H])C(=O)C([H])(N([H])C([H])([H])[H])C([H])([H])[H])C(C([H])([H])[H])(C([H])([H])[H])C([H])([H])[H])C([H])([H])c2c([H])c(OC([H])([H])C([H])([H])[N+]3([H])C([H])([H])C([H])([H])C([H])(c4c([H])c([H])c(C([H])([H])[H])c(N([H])C(=O)N5C([H])([H])C([H])([H])C([H])([H])C([H])(n6nc(-c7c([H])c([H])c(Oc8c([H])c([H])c(F)c([H])c8F)c([H])c7[H])c(C(=O)N([H])[H])c6N([H])[H])C5([H])[H])c4[H])C([H])([H])C3([H])[H])c([H])c([H])c2C1([H])[H]

>  <smiles>  (7) 
[H]c1c([H])c([H])c2c(c1[H])C([H])([H])C([H])([H])C([H])([H])C2([H])N([H])C(=O)C1([H])N(C(=O)C([H])(N([H])C(=O)C([H])(N([H])C([H])([H])[H])C([H])([H])[H])C(C([H])([H])[H])(C([H])([H])[H])C([H])([H])[H])C([H])([H])c2c([H])c(OC([H])([H])C([H])([H])[N+]3([H])C([H])([H])C([H])([H])C([H])(c4c([H])c([H])c(C([H])([H])[H])c(N([H])C(=O)N5C([H])([H])C([H])([H])C([H])([H])C([H])(n6nc(-c7c([H])c([H])c(Oc8c([H])c([H])c(F)c([H])c8F)c([H])c7[H])c(C(=O)N([H])[H])c6N([H])[H])C5([H])[H])c4[H])C([H])([H])C3([H])[H])c([H])c([H])c2C1([H])[H]

$$$$
7:0:0
     RDKit          3D

 95102  0  0  1  0  0  0  0  0999 V2000
  -28.4220  -24.1830   20.5010 C   0  0  0  0  0  3  0  0  0  0  0  0
  -26.9950  -24.0310   21.0550 C   0  0  0  0  0  0  0  0  0  0  0  0
  -26.7980  -24.2610   22.3450 N   0  0  0  0  0  0  0  0  0  0  0  0
  -26.0900  -23.6190   20.3330 O   0  0  0  0  0  0  0  0  0  0  0  0
  -27.5590  -24.5710   22.9310 H   0  0  0  0  0  0  0  0  0  0  0  0
  -25.8810  -24.1350   22.7480 H   0  0  0  0  0  0  0  0  0  0  0  0
  -28.8320  -22.8990   19.8560 N   0  0  0  0  0  0  0  0  0  0  0  0
  -28.0770  -22.6100   19.2390 H   0  0  0  0  0  0  0  0  0  0  0  0
  -29.1150  -21.7920   20.7920 C   0  0  0  0  0  2  0  0  0  0  0  0
  -29.1840  -20.3980   20.0890 C   0  0  0  0  0  2  0  0  0  0  0  0
  -29.8020  -19.3370   20.9350 N   0  0  0  0  0  4  0  0  0  0  0  0
  -30.7940  -19.5060   20.9800 H   0  0  0  0  0  0  0  0  0  0  0  0
  -29.4350  -19.4330   21.8670 H   0  0  0  0  0  0  0  0  0  0  0  0
  -29.5630  -17.9300   20.4960 C   0  0  0  0  0  2  0  0  0  0  0  0
  -30.3370  -16.8800   21.3490 C   0  0  0  0  0  2  0  0  0  0  0  0
  -30.6370  -14.4930   20.5220 C   0  0  0  0  0  0  0  0  0  0  0  0
  -30.3560  -12.3300   19.3590 C   0  0  0  0  0  2  0  0  0  0  0  0
  -29.4120  -12.5250   18.1530 C   0  0  0  0  0  2  0  0  0  0  0  0
  -27.9380  -12.3840   18.5840 C   0  0  0  0  0  2  0  0  0  0  0  0
  -27.5980  -13.2260   19.8430 C   0  0  0  0  0  3  0  0  0  0  0  0
  -28.6500  -12.9990   20.9520 C   0  0  0  0  0  2  0  0  0  0  0  0
  -29.9740  -13.3120   20.3860 N   0  0  0  0  0  0  0  0  0  0  0  0
  -31.7590  -14.6940   20.0500 O   0  0  0  0  0  0  0  0  0  0  0  0
  -29.9280  -15.4830   21.0990 N   0  0  0  0  0  0  0  0  0  0  0  0
  -29.0080  -15.2190   21.4220 H   0  0  0  0  0  0  0  0  0  0  0  0
  -25.1980  -13.8430   20.5370 C   0  0  0  0  0  0  0  0  0  0  0  0
  -24.1270  -13.0750   20.9090 C   0  0  0  0  0  0  0  0  0  0  0  0
  -24.5860  -11.7230   20.8880 C   0  0  0  0  0  0  0  0  0  0  0  0
  -26.2430  -12.9580   20.3180 N   0  0  0  0  0  0  0  0  0  0  0  0
  -25.8770  -11.6780   20.5860 N   0  0  0  0  0  0  0  0  0  0  0  0
  -23.8560  -10.4630   21.0830 C   0  0  0  0  0  0  0  0  0  0  0  0
  -24.3030   -9.4860   22.0000 C   0  0  0  0  0  3  0  0  0  0  0  0
  -23.5750   -8.2910   22.1830 C   0  0  0  0  0  3  0  0  0  0  0  0
  -22.3870   -8.0640   21.4480 C   0  0  0  0  0  0  0  0  0  0  0  0
  -21.9590   -9.0300   20.5210 C   0  0  0  0  0  3  0  0  0  0  0  0
  -22.6870  -10.2170   20.3370 C   0  0  0  0  0  3  0  0  0  0  0  0
  -21.6290   -6.9210   21.5420 O   0  0  0  0  0  0  0  0  0  0  0  0
  -21.6210   -6.1550   22.6800 C   0  0  0  0  0  0  0  0  0  0  0  0
  -21.2690   -6.6920   23.9370 C   0  0  0  0  0  3  0  0  0  0  0  0
  -21.2060   -5.8520   25.0680 C   0  0  0  0  0  3  0  0  0  0  0  0
  -21.4830   -4.4770   24.9420 C   0  0  0  0  0  0  0  0  0  0  0  0
  -21.8290   -3.9410   23.6890 C   0  0  0  0  0  3  0  0  0  0  0  0
  -21.8940   -4.7770   22.5600 C   0  0  0  0  0  0  0  0  0  0  0  0
  -22.2060   -4.2510   21.3520 F   0  0  0  0  0  0  0  0  0  0  0  0
  -21.4150   -3.6700   26.0250 F   0  0  0  0  0  0  0  0  0  0  0  0
  -22.7300  -13.5570   21.1740 C   0  0  0  0  0  0  0  0  0  0  0  0
  -21.9980  -12.8690   22.0430 N   0  0  0  0  0  0  0  0  0  0  0  0
  -22.2950  -14.5790   20.6440 O   0  0  0  0  0  0  0  0  0  0  0  0
  -22.3620  -12.0420   22.4920 H   0  0  0  0  0  0  0  0  0  0  0  0
  -21.0620  -13.1750   22.2640 H   0  0  0  0  0  0  0  0  0  0  0  0
  -25.3660  -15.2120   20.3490 N   0  0  0  0  0  0  0  0  0  0  0  0
  -24.5960  -15.8660   20.4340 H   0  0  0  0  0  0  0  0  0  0  0  0
  -26.2100  -15.6380   19.9880 H   0  0  0  0  0  0  0  0  0  0  0  0
  -28.5260  -25.3890   19.5060 C   0  0  0  0  0  2  0  0  0  0  0  0
  -28.4130  -26.7050   20.1020 O   0  0  0  0  0  0  0  0  0  0  0  0
  -24.6100  -31.8760   23.2250 C   0  0  0  0  0  0  0  0  0  0  0  0
  -27.2190  -27.4140   20.0990 C   0  0  0  0  0  0  0  0  0  0  0  0
  -23.3870  -30.4790   21.5940 C   0  0  0  0  0  3  0  0  0  0  0  0
  -24.8220  -28.9410   20.1510 C   0  0  0  0  0  0  0  0  0  0  0  0
  -25.9120  -30.8270   21.3710 C   0  0  0  0  0  2  0  0  0  0  0  0
  -25.9880  -29.4550   20.7280 C   0  0  0  0  0  0  0  0  0  0  0  0
  -27.1840  -28.6970   20.7040 C   0  0  0  0  0  3  0  0  0  0  0  0
  -26.0250  -26.9220   19.5200 C   0  0  0  0  0  3  0  0  0  0  0  0
  -24.8360  -27.6740   19.5470 C   0  0  0  0  0  3  0  0  0  0  0  0
  -23.5820  -29.8020   20.2110 C   0  0  0  0  0  2  0  0  0  0  0  0
  -24.6560  -31.0760   22.1220 N   0  0  0  0  0  0  0  0  0  0  0  0
  -23.5350  -32.1500   23.7740 O   0  0  0  0  0  0  0  0  0  0  0  0
  -22.7430  -29.4570   22.5590 C   0  0  0  0  0  0  0  0  0  0  0  0
  -21.4170  -29.2790   22.4450 N   0  0  0  0  0  0  0  0  0  0  0  0
  -23.4330  -28.8280   23.3660 O   0  0  0  0  0  0  0  0  0  0  0  0
  -20.9210  -29.8380   21.7650 H   0  0  0  0  0  0  0  0  0  0  0  0
  -18.0460  -28.0810   22.9620 C   0  0  0  0  0  0  0  0  0  0  0  0
  -20.6050  -28.3410   23.2200 C   0  0  0  0  0  3  0  0  0  0  0  0
  -20.7060  -26.9100   22.6440 C   0  0  0  0  0  2  0  0  0  0  0  0
  -19.5980  -26.5850   21.6370 C   0  0  0  0  0  2  0  0  0  0  0  0
  -18.2200  -26.7290   22.2880 C   0  0  0  0  0  2  0  0  0  0  0  0
  -19.1670  -28.8440   23.3850 C   0  0  0  0  0  0  0  0  0  0  0  0
  -18.9520  -30.1090   23.9740 C   0  0  0  0  0  3  0  0  0  0  0  0
  -17.6480  -30.6100   24.1470 C   0  0  0  0  0  3  0  0  0  0  0  0
  -16.5410  -29.8430   23.7400 C   0  0  0  0  0  3  0  0  0  0  0  0
  -16.7410  -28.5810   23.1540 C   0  0  0  0  0  3  0  0  0  0  0  0
  -25.9030  -32.5050   23.8320 C   0  0  0  0  0  3  0  0  0  0  0  0
  -25.5970  -33.8990   24.1780 N   0  0  0  0  0  0  0  0  0  0  0  0
  -25.9140  -34.9580   23.4220 C   0  0  0  0  0  0  0  0  0  0  0  0
  -26.5690  -34.8650   22.3800 O   0  0  0  0  0  0  0  0  0  0  0  0
  -25.0140  -34.0460   24.9900 H   0  0  0  0  0  0  0  0  0  0  0  0
  -24.1700  -36.7440   23.1130 C   0  0  0  0  0  1  0  0  0  0  0  0
  -25.4290  -36.3410   23.8980 C   0  0  0  0  0  3  0  0  0  0  0  0
  -27.5770  -37.2260   24.6890 C   0  0  0  0  0  1  0  0  0  0  0  0
  -26.4530  -37.4010   23.7730 N   0  0  0  0  0  0  0  0  0  0  0  0
  -26.0460  -38.3160   23.9440 H   0  0  0  0  0  0  0  0  0  0  0  0
  -26.4420  -31.7230   25.0930 C   0  0  1  0  0  0  0  0  0  0  0  0
  -25.3670  -31.4730   26.1760 C   0  0  0  0  0  1  0  0  0  0  0  0
  -27.0210  -30.3500   24.6770 C   0  0  0  0  0  1  0  0  0  0  0  0
  -27.6020  -32.5140   25.7430 C   0  0  0  0  0  1  0  0  0  0  0  0
  1 54  1  0
  1  2  1  0
  2  3  1  0
  3  6  1  0
  3  5  1  0
  4  2  2  0
  7  1  1  0
  7  9  1  0
  8  7  1  0
 10  9  1  0
 10 11  1  0
 11 12  1  0
 11 13  1  0
 14 11  1  0
 14 15  1  0
 16 24  1  0
 17 22  1  0
 18 19  1  0
 18 17  1  0
 20 19  1  0
 20 29  1  0
 20 21  1  0
 22 16  1  0
 22 21  1  0
 23 16  2  0
 24 15  1  0
 24 25  1  0
 26 27  2  0
 27 46  1  0
 28 27  1  0
 28 31  1  0
 29 26  1  0
 29 30  1  0
 30 28  2  0
 31 32  1  0
 32 33  2  0
 34 37  1  0
 34 33  1  0
 35 34  2  0
 36 35  1  0
 36 31  2  0
 37 38  1  0
 38 39  1  0
 39 40  2  0
 41 40  1  0
 41 45  1  0
 42 41  2  0
 43 38  2  0
 43 42  1  0
 44 43  1  0
 46 47  1  0
 47 50  1  0
 47 49  1  0
 48 46  2  0
 51 52  1  0
 51 26  1  0
 53 51  1  0
 54 55  1  0
 56 67  2  0
 57 55  1  0
 57 62  1  0
 58 66  1  0
 58 68  1  0
 59 65  1  0
 59 61  1  0
 60 66  1  0
 61 60  1  0
 62 61  2  0
 63 64  1  0
 63 57  2  0
 64 59  2  0
 65 58  1  0
 66 56  1  0
 68 70  2  0
 69 68  1  0
 71 69  1  0
 72 81  2  0
 72 77  1  0
 73 69  1  0
 73 77  1  0
 74 73  1  0
 75 76  1  0
 75 74  1  0
 76 72  1  0
 77 78  2  0
 78 79  1  0
 80 79  2  0
 81 80  1  0
 82 56  1  0
 82 83  1  0
 82 92  1  0
 83 86  1  0
 84 88  1  0
 84 83  1  0
 85 84  2  0
 88 87  1  0
 90 88  1  0
 90 91  1  0
 90 89  1  0
 92 95  1  1
 92 93  1  0
 94 92  1  0
M  ISO  4  16 100  24 100  54 101  55 101
M  END
>  <TORSDO>  (8) 
F 24

>  <SCORE>  (8) 
-12.686

>  <name>  (8) 
7

>  <ligand_id>  (8) 
7

>  <original_smiles>  (8) 
[H]c1c([H])c([H])c2c(c1[H])C([H])([H])C([H])([H])C([H])([H])C2([H])N([H])C(=O)C1([H])N(C(=O)C([H])(N([H])C(=O)C([H])(N([H])C([H])([H])[H])C([H])([H])[H])C(C([H])([H])[H])(C([H])([H])[H])C([H])([H])[H])C([H])([H])c2c([H])c(OC([H])([H])C([H])(C(=O)N([H])[H])N([H])C([H])([H])C([H])([H])[N+]([H])([H])C([H])([H])C([H])([H])N([H])C(=O)N3C([H])([H])C([H])([H])C([H])([H])C([H])(n4nc(-c5c([H])c([H])c(Oc6c([H])c([H])c(F)c([H])c6F)c([H])c5[H])c(C(=O)N([H])[H])c4N([H])[H])C3([H])[H])c([H])c([H])c2C1([H])[H]

>  <smiles>  (8) 
[H]c1c([H])c([H])c2c(c1[H])C([H])([H])C([H])([H])C([H])([H])C2([H])N([H])C(=O)C1([H])N(C(=O)C([H])(N([H])C(=O)C([H])(N([H])C([H])([H])[H])C([H])([H])[H])C(C([H])([H])[H])(C([H])([H])[H])C([H])([H])[H])C([H])([H])c2c([H])c(OC([H])([H])C([H])(C(=O)N([H])[H])N([H])C([H])([H])C([H])([H])[N+]([H])([H])C([H])([H])C([H])([H])N([H])C(=O)N3C([H])([H])C([H])([H])C([H])([H])C([H])(n4nc(-c5c([H])c([H])c(Oc6c([H])c([H])c(F)c([H])c6F)c([H])c5[H])c(C(=O)N([H])[H])c4N([H])[H])C3([H])[H])c([H])c([H])c2C1([H])[H]

$$$$
8:0:0
     RDKit          3D

 95103  0  0  1  0  0  0  0  0999 V2000
  -29.2200  -20.7930   22.4160 C   0  0  0  0  0  3  0  0  0  0  0  0
  -30.9740  -21.4470   20.8600 C   0  0  0  0  0  3  0  0  0  0  0  0
  -29.4860  -19.4370   22.1440 C   0  0  0  0  0  3  0  0  0  0  0  0
  -31.2430  -20.0900   20.5920 C   0  0  0  0  0  3  0  0  0  0  0  0
  -29.9540  -21.8080   21.7660 C   0  0  0  0  0  0  0  0  0  0  0  0
  -30.4900  -19.0730   21.2230 C   0  0  0  0  0  0  0  0  0  0  0  0
  -30.6950  -17.7100   20.9660 N   0  0  0  0  0  0  0  0  0  0  0  0
  -30.1940  -17.0260   21.5250 H   0  0  0  0  0  0  0  0  0  0  0  0
  -31.9200  -17.2590   20.3210 C   0  0  0  0  0  2  0  0  0  0  0  0
  -32.2840  -15.8270   20.7460 C   0  0  0  0  0  2  0  0  0  0  0  0
  -31.2680  -14.1360   19.2270 C   0  0  0  0  0  0  0  0  0  0  0  0
  -30.7710  -11.8680   18.4060 C   0  0  0  0  0  2  0  0  0  0  0  0
  -29.6680  -11.7860   17.3410 C   0  0  0  0  0  2  0  0  0  0  0  0
  -28.2830  -11.7000   18.0030 C   0  0  0  0  0  2  0  0  0  0  0  0
  -28.0700  -12.8020   19.0730 C   0  0  0  0  0  3  0  0  0  0  0  0
  -29.2610  -12.8640   20.0560 C   0  0  0  0  0  2  0  0  0  0  0  0
  -30.5110  -13.0140   19.2880 N   0  0  0  0  0  0  0  0  0  0  0  0
  -32.0570  -14.3770   18.3070 O   0  0  0  0  0  0  0  0  0  0  0  0
  -31.2730  -14.8420   20.3630 N   0  0  0  0  0  0  0  0  0  0  0  0
  -30.6380  -14.5360   21.0850 H   0  0  0  0  0  0  0  0  0  0  0  0
  -25.8910  -13.5750   20.2140 C   0  0  0  0  0  0  0  0  0  0  0  0
  -24.8390  -12.8790   20.7480 C   0  0  0  0  0  0  0  0  0  0  0  0
  -25.1660  -11.4960   20.5990 C   0  0  0  0  0  0  0  0  0  0  0  0
  -26.7990  -12.6220   19.7780 N   0  0  0  0  0  0  0  0  0  0  0  0
  -26.3730  -11.3630   20.0610 N   0  0  0  0  0  0  0  0  0  0  0  0
  -24.3770  -10.2900   20.8830 C   0  0  0  0  0  0  0  0  0  0  0  0
  -24.8000   -9.3390   21.8380 C   0  0  0  0  0  3  0  0  0  0  0  0
  -24.0160   -8.1970   22.1060 C   0  0  0  0  0  3  0  0  0  0  0  0
  -22.7940   -7.9970   21.4180 C   0  0  0  0  0  0  0  0  0  0  0  0
  -22.3910   -8.9350   20.4500 C   0  0  0  0  0  3  0  0  0  0  0  0
  -23.1750  -10.0690   20.1830 C   0  0  0  0  0  3  0  0  0  0  0  0
  -21.9800   -6.9040   21.5930 O   0  0  0  0  0  0  0  0  0  0  0  0
  -21.8440   -6.2970   22.8150 C   0  0  0  0  0  0  0  0  0  0  0  0
  -21.3640   -6.9950   23.9450 C   0  0  0  0  0  3  0  0  0  0  0  0
  -21.1740   -6.3140   25.1650 C   0  0  0  0  0  3  0  0  0  0  0  0
  -21.4530   -4.9370   25.2540 C   0  0  0  0  0  0  0  0  0  0  0  0
  -21.9250   -4.2400   24.1280 C   0  0  0  0  0  3  0  0  0  0  0  0
  -22.1160   -4.9180   22.9110 C   0  0  0  0  0  0  0  0  0  0  0  0
  -22.5510   -4.2370   21.8240 F   0  0  0  0  0  0  0  0  0  0  0  0
  -21.2620   -4.2810   26.4220 F   0  0  0  0  0  0  0  0  0  0  0  0
  -23.5590  -13.4550   21.2810 C   0  0  0  0  0  0  0  0  0  0  0  0
  -22.9570  -12.8010   22.2690 N   0  0  0  0  0  0  0  0  0  0  0  0
  -23.1110  -14.5200   20.8580 O   0  0  0  0  0  0  0  0  0  0  0  0
  -23.3390  -11.9430   22.6360 H   0  0  0  0  0  0  0  0  0  0  0  0
  -22.1010  -13.1620   22.6650 H   0  0  0  0  0  0  0  0  0  0  0  0
  -26.1440  -14.9330   20.0460 N   0  0  0  0  0  0  0  0  0  0  0  0
  -25.4770  -15.6500   20.3070 H   0  0  0  0  0  0  0  0  0  0  0  0
  -26.9780  -15.3060   19.6100 H   0  0  0  0  0  0  0  0  0  0  0  0
  -29.6390  -23.2750   22.0240 C   0  0  0  0  0  2  0  0  0  0  0  0
  -28.5830  -23.7530   21.1110 N   0  0  0  0  0  4  0  0  0  0  0  0
  -28.7470  -23.3490   20.2020 H   0  0  0  0  0  0  0  0  0  0  0  0
  -27.7070  -23.3860   21.4490 H   0  0  0  0  0  0  0  0  0  0  0  0
  -28.4750  -25.2290   20.9910 C   0  0  0  0  0  2  0  0  0  0  0  0
  -28.8020  -25.7260   19.5650 C   0  0  0  0  0  2  0  0  0  0  0  0
  -28.7250  -27.1510   19.4670 O   0  0  0  0  0  0  0  0  0  0  0  0
  -24.8420  -31.6160   23.3570 C   0  0  0  0  0  0  0  0  0  0  0  0
  -27.4990  -27.7620   19.5970 C   0  0  0  0  0  0  0  0  0  0  0  0
  -23.6040  -30.3780   21.6090 C   0  0  0  0  0  3  0  0  0  0  0  0
  -25.0380  -29.1100   19.9260 C   0  0  0  0  0  0  0  0  0  0  0  0
  -26.0910  -30.8970   21.3250 C   0  0  0  0  0  2  0  0  0  0  0  0
  -26.2000  -29.6260   20.5100 C   0  0  0  0  0  0  0  0  0  0  0  0
  -27.4330  -28.9600   20.3420 C   0  0  0  0  0  3  0  0  0  0  0  0
  -26.3170  -27.2540   19.0120 C   0  0  0  0  0  3  0  0  0  0  0  0
  -25.0890  -27.9240   19.1750 C   0  0  0  0  0  3  0  0  0  0  0  0
  -23.7620  -29.8890   20.1440 C   0  0  0  0  0  2  0  0  0  0  0  0
  -24.8670  -30.9700   22.1570 N   0  0  0  0  0  0  0  0  0  0  0  0
  -23.7820  -31.7580   23.9840 O   0  0  0  0  0  0  0  0  0  0  0  0
  -23.0540  -29.2110   22.4580 C   0  0  0  0  0  0  0  0  0  0  0  0
  -21.7570  -28.9070   22.2880 N   0  0  0  0  0  0  0  0  0  0  0  0
  -23.7900  -28.5850   23.2240 O   0  0  0  0  0  0  0  0  0  0  0  0
  -21.2150  -29.4740   21.6510 H   0  0  0  0  0  0  0  0  0  0  0  0
  -18.5430  -27.2790   22.5310 C   0  0  0  0  0  0  0  0  0  0  0  0
  -21.0340  -27.8230   22.9510 C   0  0  0  0  0  3  0  0  0  0  0  0
  -21.3390  -26.4600   22.2870 C   0  0  0  0  0  2  0  0  0  0  0  0
  -20.3320  -26.0820   21.1980 C   0  0  0  0  0  2  0  0  0  0  0  0
  -18.9150  -26.0140   21.7780 C   0  0  0  0  0  2  0  0  0  0  0  0
  -19.5380  -28.1370   23.0680 C   0  0  0  0  0  0  0  0  0  0  0  0
  -19.1390  -29.3200   23.7260 C   0  0  0  0  0  3  0  0  0  0  0  0
  -17.7760  -29.6480   23.8550 C   0  0  0  0  0  3  0  0  0  0  0  0
  -16.7940  -28.7860   23.3370 C   0  0  0  0  0  3  0  0  0  0  0  0
  -17.1790  -27.6040   22.6800 C   0  0  0  0  0  3  0  0  0  0  0  0
  -26.1330  -32.2240   23.9880 C   0  0  0  0  0  3  0  0  0  0  0  0
  -25.8140  -33.5880   24.4270 N   0  0  0  0  0  0  0  0  0  0  0  0
  -26.1120  -34.6980   23.7370 C   0  0  0  0  0  0  0  0  0  0  0  0
  -26.7540  -34.6820   22.6840 O   0  0  0  0  0  0  0  0  0  0  0  0
  -25.2420  -33.6750   25.2540 H   0  0  0  0  0  0  0  0  0  0  0  0
  -24.3440  -36.4760   23.5570 C   0  0  0  0  0  1  0  0  0  0  0  0
  -25.6140  -36.0400   24.3060 C   0  0  0  0  0  3  0  0  0  0  0  0
  -27.7500  -36.9040   25.1500 C   0  0  0  0  0  1  0  0  0  0  0  0
  -26.6260  -37.1180   24.2430 N   0  0  0  0  0  0  0  0  0  0  0  0
  -26.2070  -38.0180   24.4630 H   0  0  0  0  0  0  0  0  0  0  0  0
  -26.7040  -31.3700   25.1860 C   0  0  1  0  0  0  0  0  0  0  0  0
  -25.6420  -30.9990   26.2460 C   0  0  0  0  0  1  0  0  0  0  0  0
  -27.3330  -30.0580   24.6630 C   0  0  0  0  0  1  0  0  0  0  0  0
  -27.8330  -32.1530   25.8970 C   0  0  0  0  0  1  0  0  0  0  0  0
  2  5  1  0
  3  1  1  0
  4  2  2  0
  4  6  1  0
  5 49  1  0
  5  1  2  0
  6  3  2  0
  7  6  1  0
  7  8  1  0
  9 10  1  0
  9  7  1  0
 11 17  1  0
 11 19  1  0
 12 17  1  0
 13 14  1  0
 13 12  1  0
 15 14  1  0
 15 24  1  0
 15 16  1  0
 17 16  1  0
 18 11  2  0
 19 10  1  0
 19 20  1  0
 21 22  2  0
 22 41  1  0
 23 22  1  0
 23 26  1  0
 24 25  1  0
 24 21  1  0
 25 23  2  0
 26 27  1  0
 27 28  2  0
 29 32  1  0
 29 28  1  0
 30 29  2  0
 31 30  1  0
 31 26  2  0
 32 33  1  0
 33 38  2  0
 33 34  1  0
 34 35  2  0
 35 36  1  0
 36 40  1  0
 37 36  2  0
 38 37  1  0
 39 38  1  0
 41 42  1  0
 42 44  1  0
 42 45  1  0
 43 41  2  0
 46 21  1  0
 46 47  1  0
 48 46  1  0
 50 52  1  0
 50 49  1  0
 51 50  1  0
 53 50  1  0
 54 53  1  0
 55 54  1  0
 55 57  1  0
 56 67  2  0
 57 62  1  0
 58 66  1  0
 58 68  1  0
 59 65  1  0
 59 61  1  0
 60 66  1  0
 61 60  1  0
 62 61  2  0
 63 64  1  0
 63 57  2  0
 64 59  2  0
 65 58  1  0
 66 56  1  0
 68 70  2  0
 69 68  1  0
 71 69  1  0
 72 81  2  0
 72 77  1  0
 73 69  1  0
 73 77  1  0
 74 73  1  0
 75 76  1  0
 75 74  1  0
 76 72  1  0
 77 78  2  0
 78 79  1  0
 80 79  2  0
 81 80  1  0
 82 56  1  0
 82 83  1  0
 82 92  1  0
 83 86  1  0
 84 88  1  0
 84 83  1  0
 85 84  2  0
 88 87  1  0
 90 88  1  0
 90 91  1  0
 90 89  1  0
 92 95  1  1
 92 93  1  0
 94 92  1  0
M  ISO  4  11 100  19 100  54 101  55 101
M  END
>  <TORSDO>  (9) 
F 23

>  <SCORE>  (9) 
-8.446

>  <name>  (9) 
8

>  <ligand_id>  (9) 
8

>  <original_smiles>  (9) 
[H]c1c([H])c([H])c2c(c1[H])C([H])([H])C([H])([H])C([H])([H])C2([H])N([H])C(=O)C1([H])N(C(=O)C([H])(N([H])C(=O)C([H])(N([H])C([H])([H])[H])C([H])([H])[H])C(C([H])([H])[H])(C([H])([H])[H])C([H])([H])[H])C([H])([H])c2c([H])c(OC([H])([H])C([H])([H])[N+]([H])([H])C([H])([H])c3c([H])c([H])c(N([H])C([H])([H])C([H])([H])N([H])C(=O)N4C([H])([H])C([H])([H])C([H])([H])C([H])(n5nc(-c6c([H])c([H])c(Oc7c([H])c([H])c(F)c([H])c7F)c([H])c6[H])c(C(=O)N([H])[H])c5N([H])[H])C4([H])[H])c([H])c3[H])c([H])c([H])c2C1([H])[H]

>  <smiles>  (9) 
[H]c1c([H])c([H])c2c(c1[H])C([H])([H])C([H])([H])C([H])([H])C2([H])N([H])C(=O)C1([H])N(C(=O)C([H])(N([H])C(=O)C([H])(N([H])C([H])([H])[H])C([H])([H])[H])C(C([H])([H])[H])(C([H])([H])[H])C([H])([H])[H])C([H])([H])c2c([H])c(OC([H])([H])C([H])([H])[N+]([H])([H])C([H])([H])c3c([H])c([H])c(N([H])C([H])([H])C([H])([H])N([H])C(=O)N4C([H])([H])C([H])([H])C([H])([H])C([H])(n5nc(-c6c([H])c([H])c(Oc7c([H])c([H])c(F)c([H])c7F)c([H])c6[H])c(C(=O)N([H])[H])c5N([H])[H])C4([H])[H])c([H])c3[H])c([H])c([H])c2C1([H])[H]

$$$$
9:0:0
     RDKit          3D

 97106  0  0  1  0  0  0  0  0999 V2000
  -29.6350  -20.5260   17.3160 C   0  0  0  0  0  3  0  0  0  0  0  0
  -29.4270  -19.1460   17.2910 C   0  0  0  0  0  3  0  0  0  0  0  0
  -29.5880  -21.2020   18.5360 C   0  0  0  0  0  3  0  0  0  0  0  0
  -29.1950  -18.4290   18.4820 C   0  0  0  0  0  0  0  0  0  0  0  0
  -29.1540  -19.0910   19.7470 C   0  0  0  0  0  0  0  0  0  0  0  0
  -29.3160  -20.5300   19.7520 C   0  0  0  0  0  0  0  0  0  0  0  0
  -28.9780  -18.2680   21.0630 C   0  0  0  0  0  2  0  0  0  0  0  0
  -29.0480  -16.9270   18.3350 C   0  0  0  0  0  2  0  0  0  0  0  0
  -29.2720  -16.7030   21.1220 C   0  0  0  0  0  2  0  0  0  0  0  0
  -30.4730  -16.1370   20.2840 C   0  0  2  0  0  0  0  0  0  0  0  0
  -31.6960  -17.0400   20.6600 C   0  0  0  0  0  1  0  0  0  0  0  0
  -30.2640  -16.2600   18.8230 N   0  0  0  0  0  4  0  0  0  0  0  0
  -31.0660  -16.7320   18.4360 H   0  0  0  0  0  0  0  0  0  0  0  0
  -30.2960  -15.3250   18.4510 H   0  0  0  0  0  0  0  0  0  0  0  0
  -30.9090  -14.6120   20.4100 C   0  0  0  0  0  0  0  0  0  0  0  0
  -30.4740  -12.4070   19.3940 C   0  0  0  0  0  2  0  0  0  0  0  0
  -29.5760  -12.5460   18.1490 C   0  0  0  0  0  2  0  0  0  0  0  0
  -28.0980  -12.4270   18.5560 C   0  0  0  0  0  2  0  0  0  0  0  0
  -27.7300  -13.3150   19.7760 C   0  0  0  0  0  3  0  0  0  0  0  0
  -28.7840  -13.2560   20.9040 C   0  0  0  0  0  2  0  0  0  0  0  0
  -30.1090  -13.5000   20.3230 N   0  0  0  0  0  0  0  0  0  0  0  0
  -32.1060  -14.4680   20.1780 O   0  0  0  0  0  0  0  0  0  0  0  0
  -25.3330  -13.9010   20.4800 C   0  0  0  0  0  0  0  0  0  0  0  0
  -24.2660  -13.1260   20.8410 C   0  0  0  0  0  0  0  0  0  0  0  0
  -24.7320  -11.7760   20.8260 C   0  0  0  0  0  0  0  0  0  0  0  0
  -26.3840  -13.0240   20.2630 N   0  0  0  0  0  0  0  0  0  0  0  0
  -26.0290  -11.7420   20.5370 N   0  0  0  0  0  0  0  0  0  0  0  0
  -24.0050  -10.5140   21.0150 C   0  0  0  0  0  0  0  0  0  0  0  0
  -24.4220   -9.5540   21.9630 C   0  0  0  0  0  3  0  0  0  0  0  0
  -23.6940   -8.3580   22.1400 C   0  0  0  0  0  3  0  0  0  0  0  0
  -22.5320   -8.1130   21.3680 C   0  0  0  0  0  0  0  0  0  0  0  0
  -22.1340   -9.0620   20.4100 C   0  0  0  0  0  3  0  0  0  0  0  0
  -22.8630  -10.2490   20.2310 C   0  0  0  0  0  3  0  0  0  0  0  0
  -21.7780   -6.9670   21.4530 O   0  0  0  0  0  0  0  0  0  0  0  0
  -21.7080   -6.2340   22.6110 C   0  0  0  0  0  0  0  0  0  0  0  0
  -21.2530   -6.7980   23.8230 C   0  0  0  0  0  3  0  0  0  0  0  0
  -21.1320   -5.9920   24.9730 C   0  0  0  0  0  3  0  0  0  0  0  0
  -21.4560   -4.6240   24.9110 C   0  0  0  0  0  0  0  0  0  0  0  0
  -21.9030   -4.0600   23.7040 C   0  0  0  0  0  3  0  0  0  0  0  0
  -22.0270   -4.8620   22.5560 C   0  0  0  0  0  0  0  0  0  0  0  0
  -22.4380   -4.3100   21.3900 F   0  0  0  0  0  0  0  0  0  0  0  0
  -21.3320   -3.8460   26.0130 F   0  0  0  0  0  0  0  0  0  0  0  0
  -22.8640  -13.6020   21.0860 C   0  0  0  0  0  0  0  0  0  0  0  0
  -22.1240  -12.9110   21.9480 N   0  0  0  0  0  0  0  0  0  0  0  0
  -22.4330  -14.6230   20.5520 O   0  0  0  0  0  0  0  0  0  0  0  0
  -22.4870  -12.0880   22.4040 H   0  0  0  0  0  0  0  0  0  0  0  0
  -21.1810  -13.2120   22.1510 H   0  0  0  0  0  0  0  0  0  0  0  0
  -25.4910  -15.2700   20.2930 N   0  0  0  0  0  0  0  0  0  0  0  0
  -24.7130  -15.9110   20.3910 H   0  0  0  0  0  0  0  0  0  0  0  0
  -26.3320  -15.7240   19.9680 H   0  0  0  0  0  0  0  0  0  0  0  0
  -29.2430  -21.4530   20.9910 C   0  0  0  0  0  2  0  0  0  0  0  0
  -28.4060  -22.6750   20.7610 N   0  0  0  0  0  4  0  0  0  0  0  0
  -27.7210  -22.6890   21.5010 H   0  0  0  0  0  0  0  0  0  0  0  0
  -27.8930  -22.5050   19.9100 H   0  0  0  0  0  0  0  0  0  0  0  0
  -29.0680  -24.0320   20.7080 C   0  0  0  0  0  2  0  0  0  0  0  0
  -28.0980  -25.1280   20.1530 C   0  0  0  0  0  2  0  0  0  0  0  0
  -28.4050  -26.5570   20.2800 O   0  0  0  0  0  0  0  0  0  0  0  0
  -24.6210  -31.8960   23.2210 C   0  0  0  0  0  0  0  0  0  0  0  0
  -27.2970  -27.4020   20.1800 C   0  0  0  0  0  0  0  0  0  0  0  0
  -23.4460  -30.4900   21.5680 C   0  0  0  0  0  3  0  0  0  0  0  0
  -24.9240  -28.9730   20.1500 C   0  0  0  0  0  0  0  0  0  0  0  0
  -25.9830  -30.8410   21.4120 C   0  0  0  0  0  2  0  0  0  0  0  0
  -26.0800  -29.4700   20.7630 C   0  0  0  0  0  0  0  0  0  0  0  0
  -27.2720  -28.6930   20.7770 C   0  0  0  0  0  3  0  0  0  0  0  0
  -26.1210  -26.9660   19.5170 C   0  0  0  0  0  3  0  0  0  0  0  0
  -24.9440  -27.7230   19.5190 C   0  0  0  0  0  3  0  0  0  0  0  0
  -23.6780  -29.8280   20.1870 C   0  0  0  0  0  2  0  0  0  0  0  0
  -24.7020  -31.0920   22.1240 N   0  0  0  0  0  0  0  0  0  0  0  0
  -23.5290  -32.1620   23.7440 O   0  0  0  0  0  0  0  0  0  0  0  0
  -22.7900  -29.4580   22.5150 C   0  0  0  0  0  0  0  0  0  0  0  0
  -21.4670  -29.2670   22.3740 N   0  0  0  0  0  0  0  0  0  0  0  0
  -23.4680  -28.8340   23.3360 O   0  0  0  0  0  0  0  0  0  0  0  0
  -20.9810  -29.8260   21.6880 H   0  0  0  0  0  0  0  0  0  0  0  0
  -18.0930  -28.0530   22.8400 C   0  0  0  0  0  0  0  0  0  0  0  0
  -20.6470  -28.3230   23.1350 C   0  0  0  0  0  3  0  0  0  0  0  0
  -20.7610  -26.8930   22.5570 C   0  0  0  0  0  2  0  0  0  0  0  0
  -19.6700  -26.5670   21.5330 C   0  0  0  0  0  2  0  0  0  0  0  0
  -18.2820  -26.7050   22.1640 C   0  0  0  0  0  2  0  0  0  0  0  0
  -19.2040  -28.8200   23.2820 C   0  0  0  0  0  0  0  0  0  0  0  0
  -18.9740  -30.0810   23.8720 C   0  0  0  0  0  3  0  0  0  0  0  0
  -17.6640  -30.5770   24.0240 C   0  0  0  0  0  3  0  0  0  0  0  0
  -16.5680  -29.8070   23.5990 C   0  0  0  0  0  3  0  0  0  0  0  0
  -16.7830  -28.5470   23.0140 C   0  0  0  0  0  3  0  0  0  0  0  0
  -25.8920  -32.5390   23.8560 C   0  0  0  0  0  3  0  0  0  0  0  0
  -26.3990  -31.7750   25.1400 C   0  0  1  0  0  0  0  0  0  0  0  0
  -25.2940  -31.5300   26.1940 C   0  0  0  0  0  1  0  0  0  0  0  0
  -26.9970  -30.4010   24.7570 C   0  0  0  0  0  1  0  0  0  0  0  0
  -27.5340  -32.5800   25.8140 C   0  0  0  0  0  1  0  0  0  0  0  0
  -25.5690  -33.9360   24.1760 N   0  0  0  0  0  0  0  0  0  0  0  0
  -25.8970  -34.9870   23.4130 C   0  0  0  0  0  0  0  0  0  0  0  0
  -26.5760  -34.8830   22.3870 O   0  0  0  0  0  0  0  0  0  0  0  0
  -24.9690  -34.0900   24.9730 H   0  0  0  0  0  0  0  0  0  0  0  0
  -24.1580  -36.7630   23.0290 C   0  0  0  0  0  1  0  0  0  0  0  0
  -25.3930  -36.3740   23.8570 C   0  0  0  0  0  3  0  0  0  0  0  0
  -27.5110  -37.2790   24.7090 C   0  0  0  0  0  1  0  0  0  0  0  0
  -26.4190  -37.4350   23.7520 N   0  0  0  0  0  0  0  0  0  0  0  0
  -26.0040  -38.3510   23.8920 H   0  0  0  0  0  0  0  0  0  0  0  0
  1  3  1  0
  2  1  2  0
  2  4  1  0
  3  6  2  0
  4  5  2  0
  5  6  1  0
  5  7  1  0
  6 51  1  0
  7  9  1  0
  8  4  1  0
  8 12  1  0
 10 15  1  0
 10 11  1  1
 10  9  1  0
 12 10  1  0
 13 12  1  0
 14 12  1  0
 16 21  1  0
 17 18  1  0
 17 16  1  0
 19 18  1  0
 19 26  1  0
 19 20  1  0
 21 15  1  0
 21 20  1  0
 22 15  2  0
 23 24  2  0
 24 43  1  0
 25 24  1  0
 25 28  1  0
 26 23  1  0
 26 27  1  0
 27 25  2  0
 28 29  1  0
 29 30  2  0
 31 34  1  0
 31 30  1  0
 32 31  2  0
 33 32  1  0
 33 28  2  0
 34 35  1  0
 35 36  1  0
 36 37  2  0
 38 37  1  0
 38 42  1  0
 39 38  2  0
 40 35  2  0
 40 39  1  0
 41 40  1  0
 43 44  1  0
 44 47  1  0
 44 46  1  0
 45 43  2  0
 48 49  1  0
 48 23  1  0
 50 48  1  0
 52 51  1  0
 52 53  1  0
 54 52  1  0
 55 52  1  0
 56 57  1  0
 56 55  1  0
 58 69  2  0
 59 57  1  0
 59 64  1  0
 60 68  1  0
 60 70  1  0
 61 67  1  0
 61 63  1  0
 62 68  1  0
 63 64  2  0
 63 62  1  0
 65 66  1  0
 65 59  2  0
 66 61  2  0
 67 60  1  0
 68 58  1  0
 70 72  2  0
 71 70  1  0
 73 71  1  0
 74 83  2  0
 74 79  1  0
 75 71  1  0
 75 79  1  0
 76 75  1  0
 77 78  1  0
 77 76  1  0
 78 74  1  0
 79 80  2  0
 80 81  1  0
 82 81  2  0
 83 82  1  0
 84 58  1  0
 84 89  1  0
 84 85  1  0
 85 88  1  1
 85 86  1  0
 87 85  1  0
 89 92  1  0
 90 94  1  0
 90 89  1  0
 91 90  2  0
 94 93  1  0
 96 94  1  0
 96 97  1  0
 96 95  1  0
M  ISO  4  10 100  15 100  56 101  57 101
M  END
>  <TORSDO>  (10) 
F 20

>  <SCORE>  (10) 
-13.811

>  <name>  (10) 
9

>  <ligand_id>  (10) 
9

>  <original_smiles>  (10) 
[H]c1c([H])c([H])c2c(c1[H])C([H])([H])C([H])([H])C([H])([H])C2([H])N([H])C(=O)C1([H])N(C(=O)C([H])(N([H])C(=O)C([H])(N([H])C([H])([H])[H])C([H])([H])[H])C(C([H])([H])[H])(C([H])([H])[H])C([H])([H])[H])C([H])([H])c2c([H])c(OC([H])([H])C([H])([H])[N+]([H])([H])C([H])([H])c3c([H])c([H])c([H])c4c3C([H])([H])C([H])([H])C(C(=O)N3C([H])([H])C([H])([H])C([H])([H])C([H])(n5nc(-c6c([H])c([H])c(Oc7c([H])c([H])c(F)c([H])c7F)c([H])c6[H])c(C(=O)N([H])[H])c5N([H])[H])C3([H])[H])(C([H])([H])[H])[N+]([H])([H])C4([H])[H])c([H])c([H])c2C1([H])[H]

>  <smiles>  (10) 
[H]c1c([H])c([H])c2c(c1[H])C([H])([H])C([H])([H])C([H])([H])C2([H])N([H])C(=O)C1([H])N(C(=O)C([H])(N([H])C(=O)C([H])(N([H])C([H])([H])[H])C([H])([H])[H])C(C([H])([H])[H])(C([H])([H])[H])C([H])([H])[H])C([H])([H])c2c([H])c(OC([H])([H])C([H])([H])[N+]([H])([H])C([H])([H])c3c([H])c([H])c([H])c4c3C([H])([H])C([H])([H])C(C(=O)N3C([H])([H])C([H])([H])C([H])([H])C([H])(n5nc(-c6c([H])c([H])c(Oc7c([H])c([H])c(F)c([H])c7F)c([H])c6[H])c(C(=O)N([H])[H])c5N([H])[H])C3([H])[H])(C([H])([H])[H])[N+]([H])([H])C4([H])[H])c([H])c([H])c2C1([H])[H]

$$$$
10:0:0
     RDKit          3D

 93101  0  0  1  0  0  0  0  0999 V2000
  -30.3690  -22.6290   21.4580 C   0  0  0  0  0  3  0  0  0  0  0  0
  -30.3840  -23.8250   20.7180 C   0  0  0  0  0  3  0  0  0  0  0  0
  -31.0810  -21.5110   20.9970 C   0  0  0  0  0  3  0  0  0  0  0  0
  -31.8170  -22.7840   19.0470 C   0  0  0  0  0  3  0  0  0  0  0  0
  -31.0990  -23.9230   19.5010 C   0  0  0  0  0  0  0  0  0  0  0  0
  -31.8090  -21.5740   19.7860 C   0  0  0  0  0  0  0  0  0  0  0  0
  -31.0940  -25.2510   18.7960 C   0  0  0  0  0  0  0  0  0  0  0  0
  -30.9060  -26.3060   19.4110 O   0  0  0  0  0  0  0  0  0  0  0  0
  -31.3150  -25.3280   17.2760 C   0  0  0  0  0  2  0  0  0  0  0  0
  -30.2630  -26.1820   16.5220 C   0  0  0  0  0  2  0  0  0  0  0  0
  -29.8730  -27.4040   17.1890 O   0  0  0  0  0  0  0  0  0  0  0  0
  -25.3180  -29.2550   22.3400 C   0  0  0  0  0  0  0  0  0  0  0  0
  -28.5440  -27.6600   17.4960 C   0  0  0  0  0  0  0  0  0  0  0  0
  -24.2880  -28.4460   20.2420 C   0  0  0  0  0  3  0  0  0  0  0  0
  -25.8620  -28.2190   18.2520 C   0  0  0  0  0  0  0  0  0  0  0  0
  -26.5870  -29.5790   20.2190 C   0  0  0  0  0  2  0  0  0  0  0  0
  -26.9210  -28.7370   19.0030 C   0  0  0  0  0  0  0  0  0  0  0  0
  -28.2590  -28.4600   18.6300 C   0  0  0  0  0  3  0  0  0  0  0  0
  -27.4480  -27.1590   16.7490 C   0  0  0  0  0  3  0  0  0  0  0  0
  -26.1220  -27.4240   17.1260 C   0  0  0  0  0  3  0  0  0  0  0  0
  -24.4600  -28.5510   18.7050 C   0  0  0  0  0  2  0  0  0  0  0  0
  -25.4170  -29.0890   20.9900 N   0  0  0  0  0  0  0  0  0  0  0  0
  -24.2940  -28.9220   22.9530 O   0  0  0  0  0  0  0  0  0  0  0  0
  -24.0740  -26.9610   20.6150 C   0  0  0  0  0  0  0  0  0  0  0  0
  -22.9070  -26.4130   20.2400 N   0  0  0  0  0  0  0  0  0  0  0  0
  -24.9530  -26.3230   21.2000 O   0  0  0  0  0  0  0  0  0  0  0  0
  -22.2400  -27.0030   19.7640 H   0  0  0  0  0  0  0  0  0  0  0  0
  -20.2490  -24.0340   19.6610 C   0  0  0  0  0  0  0  0  0  0  0  0
  -22.5010  -25.0240   20.4530 C   0  0  0  0  0  3  0  0  0  0  0  0
  -23.1620  -24.0880   19.4160 C   0  0  0  0  0  2  0  0  0  0  0  0
  -22.2910  -23.8500   18.1780 C   0  0  0  0  0  2  0  0  0  0  0  0
  -20.9470  -23.2320   18.5760 C   0  0  0  0  0  2  0  0  0  0  0  0
  -20.9760  -24.8880   20.5310 C   0  0  0  0  0  0  0  0  0  0  0  0
  -20.2740  -25.6380   21.5000 C   0  0  0  0  0  3  0  0  0  0  0  0
  -18.8740  -25.5430   21.6080 C   0  0  0  0  0  3  0  0  0  0  0  0
  -18.1600  -24.6830   20.7550 C   0  0  0  0  0  3  0  0  0  0  0  0
  -18.8480  -23.9280   19.7880 C   0  0  0  0  0  3  0  0  0  0  0  0
  -26.4750  -29.8920   23.1710 C   0  0  0  0  0  3  0  0  0  0  0  0
  -25.9230  -31.0590   23.8700 N   0  0  0  0  0  0  0  0  0  0  0  0
  -26.1290  -32.3330   23.5060 C   0  0  0  0  0  0  0  0  0  0  0  0
  -26.8750  -32.6510   22.5750 O   0  0  0  0  0  0  0  0  0  0  0  0
  -25.2650  -30.8720   24.6130 H   0  0  0  0  0  0  0  0  0  0  0  0
  -24.1910  -33.9330   23.4860 C   0  0  0  0  0  1  0  0  0  0  0  0
  -25.3920  -33.4260   24.3020 C   0  0  0  0  0  3  0  0  0  0  0  0
  -27.2520  -34.2250   25.6890 C   0  0  0  0  0  1  0  0  0  0  0  0
  -26.2560  -34.5670   24.6760 N   0  0  0  0  0  0  0  0  0  0  0  0
  -25.7000  -35.3420   25.0280 H   0  0  0  0  0  0  0  0  0  0  0  0
  -27.1360  -28.8890   24.1970 C   0  0  1  0  0  0  0  0  0  0  0  0
  -26.1160  -28.1550   25.0970 C   0  0  0  0  0  1  0  0  0  0  0  0
  -27.9650  -27.8140   23.4550 C   0  0  0  0  0  1  0  0  0  0  0  0
  -28.1220  -29.6520   25.1130 C   0  0  0  0  0  1  0  0  0  0  0  0
  -32.5260  -20.4650   19.3080 N   0  0  0  0  0  0  0  0  0  0  0  0
  -32.7400  -20.4440   18.3140 H   0  0  0  0  0  0  0  0  0  0  0  0
  -32.3680  -19.1680   19.9690 C   0  0  0  0  0  2  0  0  0  0  0  0
  -33.1480  -18.0640   19.2310 C   0  0  0  0  0  2  0  0  0  0  0  0
  -33.4240  -15.6030   19.2680 C   0  0  0  0  0  0  0  0  0  0  0  0
  -33.0620  -13.2710   18.5680 C   0  0  0  0  0  2  0  0  0  0  0  0
  -32.0720  -13.2580   17.3860 C   0  0  0  0  0  2  0  0  0  0  0  0
  -30.6100  -13.2490   17.8870 C   0  0  0  0  0  2  0  0  0  0  0  0
  -30.3410  -14.3210   18.9790 C   0  0  0  0  0  3  0  0  0  0  0  0
  -31.4390  -14.2700   20.0660 C   0  0  0  0  0  2  0  0  0  0  0  0
  -32.7410  -14.4360   19.4030 N   0  0  0  0  0  0  0  0  0  0  0  0
  -34.5220  -15.6800   18.7080 O   0  0  0  0  0  0  0  0  0  0  0  0
  -32.7510  -16.7110   19.6270 N   0  0  0  0  0  0  0  0  0  0  0  0
  -31.8360  -16.5840   20.0360 H   0  0  0  0  0  0  0  0  0  0  0  0
  -28.0880  -15.1500   19.9100 C   0  0  0  0  0  0  0  0  0  0  0  0
  -26.9750  -14.4770   20.3420 C   0  0  0  0  0  0  0  0  0  0  0  0
  -27.2800  -13.0900   20.2190 C   0  0  0  0  0  0  0  0  0  0  0  0
  -29.0070  -14.1730   19.5570 N   0  0  0  0  0  0  0  0  0  0  0  0
  -28.5280  -12.9250   19.7980 N   0  0  0  0  0  0  0  0  0  0  0  0
  -26.4350  -11.9060   20.4230 C   0  0  0  0  0  0  0  0  0  0  0  0
  -26.5780  -11.0860   21.5640 C   0  0  0  0  0  3  0  0  0  0  0  0
  -25.7420   -9.9620   21.7480 C   0  0  0  0  0  3  0  0  0  0  0  0
  -24.7490   -9.6530   20.7880 C   0  0  0  0  0  0  0  0  0  0  0  0
  -24.6270  -10.4600   19.6430 C   0  0  0  0  0  3  0  0  0  0  0  0
  -25.4630  -11.5730   19.4600 C   0  0  0  0  0  3  0  0  0  0  0  0
  -23.9080   -8.5700   20.8720 O   0  0  0  0  0  0  0  0  0  0  0  0
  -23.1720   -8.3140   22.0010 C   0  0  0  0  0  0  0  0  0  0  0  0
  -22.1740   -9.2030   22.4580 C   0  0  0  0  0  3  0  0  0  0  0  0
  -21.3920   -8.8690   23.5820 C   0  0  0  0  0  3  0  0  0  0  0  0
  -21.6000   -7.6440   24.2440 C   0  0  0  0  0  0  0  0  0  0  0  0
  -22.5890   -6.7550   23.7880 C   0  0  0  0  0  3  0  0  0  0  0  0
  -23.3690   -7.0880   22.6680 C   0  0  0  0  0  0  0  0  0  0  0  0
  -24.3050   -6.2160   22.2190 F   0  0  0  0  0  0  0  0  0  0  0  0
  -20.8420   -7.3200   25.3190 F   0  0  0  0  0  0  0  0  0  0  0  0
  -25.6670  -15.0890   20.7530 C   0  0  0  0  0  0  0  0  0  0  0  0
  -24.9540  -14.4550   21.6800 N   0  0  0  0  0  0  0  0  0  0  0  0
  -25.2910  -16.1630   20.2850 O   0  0  0  0  0  0  0  0  0  0  0  0
  -25.2650  -13.5800   22.0760 H   0  0  0  0  0  0  0  0  0  0  0  0
  -24.0780  -14.8520   21.9940 H   0  0  0  0  0  0  0  0  0  0  0  0
  -28.3870  -16.5020   19.7700 N   0  0  0  0  0  0  0  0  0  0  0  0
  -27.7050  -17.2290   19.9640 H   0  0  0  0  0  0  0  0  0  0  0  0
  -29.2400  -16.8640   19.3560 H   0  0  0  0  0  0  0  0  0  0  0  0
  2  1  2  0
  3  1  1  0
  4  5  2  0
  4  6  1  0
  5  2  1  0
  6  3  2  0
  7  8  2  0
  7  5  1  0
  9  7  1  0
 10 11  1  0
 10  9  1  0
 11 13  1  0
 12 23  2  0
 13 18  1  0
 14 24  1  0
 14 22  1  0
 15 21  1  0
 15 17  1  0
 16 22  1  0
 17 16  1  0
 18 17  2  0
 19 20  1  0
 19 13  2  0
 20 15  2  0
 21 14  1  0
 22 12  1  0
 24 26  2  0
 25 24  1  0
 27 25  1  0
 28 37  2  0
 28 33  1  0
 29 25  1  0
 29 33  1  0
 30 29  1  0
 31 32  1  0
 31 30  1  0
 32 28  1  0
 33 34  2  0
 34 35  1  0
 36 35  2  0
 37 36  1  0
 38 12  1  0
 38 39  1  0
 38 48  1  0
 39 42  1  0
 40 39  1  0
 40 44  1  0
 41 40  2  0
 44 43  1  0
 44 46  1  0
 46 47  1  0
 46 45  1  0
 48 49  1  1
 48 51  1  0
 50 48  1  0
 52  6  1  0
 52 54  1  0
 53 52  1  0
 55 64  1  0
 55 54  1  0
 56 62  1  0
 56 64  1  0
 57 62  1  0
 58 59  1  0
 58 57  1  0
 60 59  1  0
 60 69  1  0
 60 61  1  0
 62 61  1  0
 63 56  2  0
 64 65  1  0
 66 67  2  0
 67 86  1  0
 68 67  1  0
 68 71  1  0
 69 70  1  0
 69 66  1  0
 70 68  2  0
 71 72  1  0
 72 73  2  0
 74 77  1  0
 74 73  1  0
 75 74  2  0
 76 75  1  0
 76 71  2  0
 77 78  1  0
 78 79  2  0
 78 83  1  0
 79 80  1  0
 80 81  2  0
 81 85  1  0
 82 81  1  0
 83 82  2  0
 84 83  1  0
 86 87  1  0
 87 90  1  0
 87 89  1  0
 88 86  2  0
 91 66  1  0
 91 92  1  0
 93 91  1  0
M  ISO  4  10 101  11 101  56 100  64 100
M  END
>  <TORSDO>  (11) 
F 22

>  <SCORE>  (11) 
-3.470

>  <name>  (11) 
10

>  <ligand_id>  (11) 
10

>  <original_smiles>  (11) 
[H]c1c([H])c(C(=O)C([H])([H])C([H])([H])Oc2c([H])c([H])c3c(c2[H])C([H])([H])N(C(=O)C([H])(N([H])C(=O)C([H])(N([H])C([H])([H])[H])C([H])([H])[H])C(C([H])([H])[H])(C([H])([H])[H])C([H])([H])[H])C([H])(C(=O)N([H])C2([H])c4c([H])c([H])c([H])c([H])c4C([H])([H])C([H])([H])C2([H])[H])C3([H])[H])c([H])c(N([H])C([H])([H])C([H])([H])N([H])C(=O)N2C([H])([H])C([H])([H])C([H])([H])C([H])(n3nc(-c4c([H])c([H])c(Oc5c([H])c([H])c(F)c([H])c5F)c([H])c4[H])c(C(=O)N([H])[H])c3N([H])[H])C2([H])[H])c1[H]

>  <smiles>  (11) 
[H]c1c([H])c(C(=O)C([H])([H])C([H])([H])Oc2c([H])c([H])c3c(c2[H])C([H])([H])N(C(=O)C([H])(N([H])C(=O)C([H])(N([H])C([H])([H])[H])C([H])([H])[H])C(C([H])([H])[H])(C([H])([H])[H])C([H])([H])[H])C([H])(C(=O)N([H])C2([H])c4c([H])c([H])c([H])c([H])c4C([H])([H])C([H])([H])C2([H])[H])C3([H])[H])c([H])c(N([H])C([H])([H])C([H])([H])N([H])C(=O)N2C([H])([H])C([H])([H])C([H])([H])C([H])(n3nc(-c4c([H])c([H])c(Oc5c([H])c([H])c(F)c([H])c5F)c([H])c4[H])c(C(=O)N([H])[H])c3N([H])[H])C2([H])[H])c1[H]

$$$$
11:0:0
     RDKit          3D

 93100  0  0  1  0  0  0  0  0999 V2000
  -31.6160  -22.2320   20.9500 C   0  0  0  0  0  1  0  0  0  0  0  0
  -30.1350  -21.8750   20.7070 C   0  0  0  0  0  3  0  0  0  0  0  0
  -29.4530  -22.9220   19.8700 N   0  0  0  0  0  4  0  0  0  0  0  0
  -29.8620  -22.9320   18.9470 H   0  0  0  0  0  0  0  0  0  0  0  0
  -28.4940  -22.6290   19.7570 H   0  0  0  0  0  0  0  0  0  0  0  0
  -29.4510  -24.3300   20.4020 C   0  0  0  0  0  2  0  0  0  0  0  0
  -28.2820  -25.2070   19.8560 C   0  0  0  0  0  2  0  0  0  0  0  0
  -28.3790  -26.6240   20.1630 O   0  0  0  0  0  0  0  0  0  0  0  0
  -24.6190  -31.8810   23.2220 C   0  0  0  0  0  0  0  0  0  0  0  0
  -27.2140  -27.3880   20.1270 C   0  0  0  0  0  0  0  0  0  0  0  0
  -23.3940  -30.4840   21.5950 C   0  0  0  0  0  3  0  0  0  0  0  0
  -24.8260  -28.9370   20.1580 C   0  0  0  0  0  0  0  0  0  0  0  0
  -25.9240  -30.8190   21.3760 C   0  0  0  0  0  2  0  0  0  0  0  0
  -25.9970  -29.4460   20.7350 C   0  0  0  0  0  0  0  0  0  0  0  0
  -27.1910  -28.6830   20.7090 C   0  0  0  0  0  3  0  0  0  0  0  0
  -26.0200  -26.9100   19.5330 C   0  0  0  0  0  3  0  0  0  0  0  0
  -24.8360  -27.6710   19.5520 C   0  0  0  0  0  3  0  0  0  0  0  0
  -23.5860  -29.8030   20.2150 C   0  0  0  0  0  2  0  0  0  0  0  0
  -24.6650  -31.0780   22.1210 N   0  0  0  0  0  0  0  0  0  0  0  0
  -23.5430  -32.1590   23.7720 O   0  0  0  0  0  0  0  0  0  0  0  0
  -22.7460  -29.4670   22.5640 C   0  0  0  0  0  0  0  0  0  0  0  0
  -21.4180  -29.2870   22.4500 N   0  0  0  0  0  0  0  0  0  0  0  0
  -23.4340  -28.8410   23.3750 O   0  0  0  0  0  0  0  0  0  0  0  0
  -20.9250  -29.8480   21.7680 H   0  0  0  0  0  0  0  0  0  0  0  0
  -18.0470  -28.0940   22.9710 C   0  0  0  0  0  0  0  0  0  0  0  0
  -20.6050  -28.3520   23.2280 C   0  0  0  0  0  3  0  0  0  0  0  0
  -20.7030  -26.9180   22.6560 C   0  0  0  0  0  2  0  0  0  0  0  0
  -19.5960  -26.5910   21.6480 C   0  0  0  0  0  2  0  0  0  0  0  0
  -18.2180  -26.7430   22.2980 C   0  0  0  0  0  2  0  0  0  0  0  0
  -19.1670  -28.8580   23.3920 C   0  0  0  0  0  0  0  0  0  0  0  0
  -18.9530  -30.1240   23.9790 C   0  0  0  0  0  3  0  0  0  0  0  0
  -17.6490  -30.6280   24.1460 C   0  0  0  0  0  3  0  0  0  0  0  0
  -16.5420  -29.8630   23.7400 C   0  0  0  0  0  3  0  0  0  0  0  0
  -16.7420  -28.5960   23.1610 C   0  0  0  0  0  3  0  0  0  0  0  0
  -25.9120  -32.5090   23.8310 C   0  0  0  0  0  3  0  0  0  0  0  0
  -26.4450  -31.7290   25.0960 C   0  0  1  0  0  0  0  0  0  0  0  0
  -25.3670  -31.4890   26.1780 C   0  0  0  0  0  1  0  0  0  0  0  0
  -27.0200  -30.3530   24.6880 C   0  0  0  0  0  1  0  0  0  0  0  0
  -27.6060  -32.5200   25.7460 C   0  0  0  0  0  1  0  0  0  0  0  0
  -25.6060  -33.9040   24.1750 N   0  0  0  0  0  0  0  0  0  0  0  0
  -25.9260  -34.9620   23.4180 C   0  0  0  0  0  0  0  0  0  0  0  0
  -26.5800  -34.8660   22.3760 O   0  0  0  0  0  0  0  0  0  0  0  0
  -25.0190  -34.0510   24.9830 H   0  0  0  0  0  0  0  0  0  0  0  0
  -24.1840  -36.7520   23.1030 C   0  0  0  0  0  1  0  0  0  0  0  0
  -25.4400  -36.3460   23.8920 C   0  0  0  0  0  3  0  0  0  0  0  0
  -27.5920  -37.2290   24.6830 C   0  0  0  0  0  1  0  0  0  0  0  0
  -26.4680  -37.4030   23.7670 N   0  0  0  0  0  0  0  0  0  0  0  0
  -26.0630  -38.3220   23.9300 H   0  0  0  0  0  0  0  0  0  0  0  0
  -30.0180  -20.4250   20.1070 C   0  0  0  0  0  2  0  0  0  0  0  0
  -30.0120  -19.1910   21.0870 C   0  0  0  0  0  3  0  0  0  0  0  0
  -31.0900  -19.2200   22.1010 N   0  0  0  0  0  4  0  0  0  0  0  0
  -31.9930  -19.0060   21.7080 H   0  0  0  0  0  0  0  0  0  0  0  0
  -30.8970  -18.5460   22.8200 H   0  0  0  0  0  0  0  0  0  0  0  0
  -31.1480  -20.1130   22.5580 H   0  0  0  0  0  0  0  0  0  0  0  0
  -30.0410  -17.8200   20.3230 C   0  0  0  0  0  2  0  0  0  0  0  0
  -29.3950  -16.5960   21.0450 C   0  0  0  0  0  2  0  0  0  0  0  0
  -30.3310  -15.4360   21.5090 C   0  0  0  0  0  2  0  0  0  0  0  0
  -30.7370  -14.4080   20.4200 C   0  0  0  0  0  0  0  0  0  0  0  0
  -30.3540  -12.3220   19.1320 C   0  0  0  0  0  2  0  0  0  0  0  0
  -29.3920  -12.5820   17.9560 C   0  0  0  0  0  2  0  0  0  0  0  0
  -27.9250  -12.4470   18.4080 C   0  0  0  0  0  2  0  0  0  0  0  0
  -27.6300  -13.2510   19.6980 C   0  0  0  0  0  3  0  0  0  0  0  0
  -28.6930  -12.9680   20.7810 C   0  0  0  0  0  2  0  0  0  0  0  0
  -30.0170  -13.2660   20.2140 N   0  0  0  0  0  0  0  0  0  0  0  0
  -31.7540  -14.6560   19.7680 O   0  0  0  0  0  0  0  0  0  0  0  0
  -25.2490  -13.8940   20.4330 C   0  0  0  0  0  0  0  0  0  0  0  0
  -24.1760  -13.1370   20.8220 C   0  0  0  0  0  0  0  0  0  0  0  0
  -24.6180  -11.7790   20.7870 C   0  0  0  0  0  0  0  0  0  0  0  0
  -26.2790  -12.9980   20.1920 N   0  0  0  0  0  0  0  0  0  0  0  0
  -25.9010  -11.7200   20.4560 N   0  0  0  0  0  0  0  0  0  0  0  0
  -23.8760  -10.5290   20.9970 C   0  0  0  0  0  0  0  0  0  0  0  0
  -24.3180   -9.5520   21.9160 C   0  0  0  0  0  3  0  0  0  0  0  0
  -23.5770   -8.3660   22.1110 C   0  0  0  0  0  3  0  0  0  0  0  0
  -22.3800   -8.1520   21.3880 C   0  0  0  0  0  0  0  0  0  0  0  0
  -21.9580   -9.1170   20.4570 C   0  0  0  0  0  3  0  0  0  0  0  0
  -22.6990  -10.2940   20.2620 C   0  0  0  0  0  3  0  0  0  0  0  0
  -21.6100   -7.0180   21.4910 O   0  0  0  0  0  0  0  0  0  0  0  0
  -21.5880   -6.2650   22.6360 C   0  0  0  0  0  0  0  0  0  0  0  0
  -21.2360   -6.8190   23.8880 C   0  0  0  0  0  3  0  0  0  0  0  0
  -21.1590   -5.9950   25.0280 C   0  0  0  0  0  3  0  0  0  0  0  0
  -21.4260   -4.6160   24.9210 C   0  0  0  0  0  0  0  0  0  0  0  0
  -21.7710   -4.0610   23.6760 C   0  0  0  0  0  3  0  0  0  0  0  0
  -21.8490   -4.8830   22.5370 C   0  0  0  0  0  0  0  0  0  0  0  0
  -22.1640   -4.3380   21.3380 F   0  0  0  0  0  0  0  0  0  0  0  0
  -21.3440   -3.8250   26.0140 F   0  0  0  0  0  0  0  0  0  0  0  0
  -22.7910  -13.6370   21.1160 C   0  0  0  0  0  0  0  0  0  0  0  0
  -22.0690  -12.9570   22.0010 N   0  0  0  0  0  0  0  0  0  0  0  0
  -22.3580  -14.6640   20.5980 O   0  0  0  0  0  0  0  0  0  0  0  0
  -22.4350  -12.1270   22.4440 H   0  0  0  0  0  0  0  0  0  0  0  0
  -21.1380  -13.2680   22.2380 H   0  0  0  0  0  0  0  0  0  0  0  0
  -25.4240  -15.2620   20.2490 N   0  0  0  0  0  0  0  0  0  0  0  0
  -24.6570  -15.9170   20.3620 H   0  0  0  0  0  0  0  0  0  0  0  0
  -26.2700  -15.6970   19.9010 H   0  0  0  0  0  0  0  0  0  0  0  0
  2  1  1  0
  3  6  1  0
  3  2  1  0
  4  3  1  0
  5  3  1  0
  7  8  1  0
  7  6  1  0
  9 20  2  0
 10  8  1  0
 10 15  1  0
 11 19  1  0
 11 21  1  0
 12 18  1  0
 12 14  1  0
 13 19  1  0
 14 13  1  0
 15 14  2  0
 16 17  1  0
 16 10  2  0
 17 12  2  0
 18 11  1  0
 19  9  1  0
 21 23  2  0
 22 21  1  0
 24 22  1  0
 25 34  2  0
 25 30  1  0
 26 22  1  0
 26 30  1  0
 27 26  1  0
 28 29  1  0
 28 27  1  0
 29 25  1  0
 30 31  2  0
 31 32  1  0
 33 32  2  0
 34 33  1  0
 35  9  1  0
 35 40  1  0
 35 36  1  0
 36 39  1  1
 36 37  1  0
 38 36  1  0
 40 43  1  0
 41 45  1  0
 41 40  1  0
 42 41  2  0
 45 44  1  0
 47 45  1  0
 47 48  1  0
 47 46  1  0
 49  2  1  0
 50 49  1  0
 50 51  1  0
 51 54  1  0
 51 53  1  0
 52 51  1  0
 55 56  1  0
 55 50  1  0
 56 57  1  0
 58 57  1  0
 59 64  1  0
 60 61  1  0
 60 59  1  0
 62 61  1  0
 62 69  1  0
 62 63  1  0
 64 58  1  0
 64 63  1  0
 65 58  2  0
 66 67  2  0
 67 86  1  0
 68 67  1  0
 68 71  1  0
 69 66  1  0
 69 70  1  0
 70 68  2  0
 71 72  1  0
 72 73  2  0
 74 77  1  0
 74 73  1  0
 75 74  2  0
 76 75  1  0
 76 71  2  0
 77 78  1  0
 78 79  1  0
 79 80  2  0
 81 80  1  0
 81 85  1  0
 82 81  2  0
 83 78  2  0
 83 82  1  0
 84 83  1  0
 86 87  1  0
 87 90  1  0
 87 89  1  0
 88 86  2  0
 91 92  1  0
 91 66  1  0
 93 91  1  0
M  ISO  4   7 101   8 101  57 100  58 100
M  END
>  <TORSDO>  (12) 
F 25

>  <SCORE>  (12) 
-12.292

>  <name>  (12) 
11

>  <ligand_id>  (12) 
11

>  <original_smiles>  (12) 
[H]c1c([H])c([H])c2c(c1[H])C([H])([H])C([H])([H])C([H])([H])C2([H])N([H])C(=O)C1([H])N(C(=O)C([H])(N([H])C(=O)C([H])(N([H])C([H])([H])[H])C([H])([H])[H])C(C([H])([H])[H])(C([H])([H])[H])C([H])([H])[H])C([H])([H])c2c([H])c(OC([H])([H])C([H])([H])[N+]([H])([H])C([H])(C([H])([H])[H])C([H])([H])C([H])(C([H])([H])C([H])([H])C([H])([H])C(=O)N3C([H])([H])C([H])([H])C([H])([H])C([H])(n4nc(-c5c([H])c([H])c(Oc6c([H])c([H])c(F)c([H])c6F)c([H])c5[H])c(C(=O)N([H])[H])c4N([H])[H])C3([H])[H])[N+]([H])([H])[H])c([H])c([H])c2C1([H])[H]

>  <smiles>  (12) 
[H]c1c([H])c([H])c2c(c1[H])C([H])([H])C([H])([H])C([H])([H])C2([H])N([H])C(=O)C1([H])N(C(=O)C([H])(N([H])C(=O)C([H])(N([H])C([H])([H])[H])C([H])([H])[H])C(C([H])([H])[H])(C([H])([H])[H])C([H])([H])[H])C([H])([H])c2c([H])c(OC([H])([H])C([H])([H])[N+]([H])([H])C([H])(C([H])([H])[H])C([H])([H])C([H])(C([H])([H])C([H])([H])C([H])([H])C(=O)N3C([H])([H])C([H])([H])C([H])([H])C([H])(n4nc(-c5c([H])c([H])c(Oc6c([H])c([H])c(F)c([H])c6F)c([H])c5[H])c(C(=O)N([H])[H])c4N([H])[H])C3([H])[H])[N+]([H])([H])[H])c([H])c([H])c2C1([H])[H]

$$$$
12:0:0
     RDKit          3D

 93101  0  0  1  0  0  0  0  0999 V2000
  -28.5800  -21.9600   21.3690 C   0  0  0  0  0  2  0  0  0  0  0  0
  -28.1140  -20.6370   19.2360 C   0  0  0  0  0  3  0  0  0  0  0  0
  -28.1320  -19.4370   18.5000 C   0  0  0  0  0  3  0  0  0  0  0  0
  -29.3920  -19.5380   20.9920 C   0  0  0  0  0  3  0  0  0  0  0  0
  -28.7290  -20.6970   20.5010 C   0  0  0  0  0  0  0  0  0  0  0  0
  -28.7510  -18.2730   19.0080 C   0  0  0  0  0  0  0  0  0  0  0  0
  -29.4070  -18.3080   20.2750 C   0  0  0  0  0  0  0  0  0  0  0  0
  -28.6970  -17.0140   18.1590 C   0  0  0  0  0  1  0  0  0  0  0  0
  -30.1360  -17.1010   20.9330 C   0  0  0  0  0  2  0  0  0  0  0  0
  -30.6100  -14.6120   20.5490 C   0  0  0  0  0  0  0  0  0  0  0  0
  -30.4080  -12.4160   19.4610 C   0  0  0  0  0  2  0  0  0  0  0  0
  -29.4840  -12.5780   18.2360 C   0  0  0  0  0  2  0  0  0  0  0  0
  -28.0010  -12.4310   18.6350 C   0  0  0  0  0  2  0  0  0  0  0  0
  -27.6220  -13.2750   19.8820 C   0  0  0  0  0  3  0  0  0  0  0  0
  -28.6580  -13.0910   21.0120 C   0  0  0  0  0  2  0  0  0  0  0  0
  -29.9810  -13.4100   20.4550 N   0  0  0  0  0  0  0  0  0  0  0  0
  -31.7850  -14.7810   20.2130 O   0  0  0  0  0  0  0  0  0  0  0  0
  -29.8010  -15.6600   20.8410 N   0  0  0  0  0  0  0  0  0  0  0  0
  -28.8450  -15.4200   21.0530 H   0  0  0  0  0  0  0  0  0  0  0  0
  -25.2020  -13.8730   20.5160 C   0  0  0  0  0  0  0  0  0  0  0  0
  -24.1310  -13.0960   20.8660 C   0  0  0  0  0  0  0  0  0  0  0  0
  -24.6040  -11.7490   20.8680 C   0  0  0  0  0  0  0  0  0  0  0  0
  -26.2610  -12.9990   20.3310 N   0  0  0  0  0  0  0  0  0  0  0  0
  -25.9030  -11.7160   20.5970 N   0  0  0  0  0  0  0  0  0  0  0  0
  -23.8850  -10.4830   21.0470 C   0  0  0  0  0  0  0  0  0  0  0  0
  -24.3010   -9.5250   21.9970 C   0  0  0  0  0  3  0  0  0  0  0  0
  -23.5800   -8.3240   22.1680 C   0  0  0  0  0  3  0  0  0  0  0  0
  -22.4290   -8.0700   21.3840 C   0  0  0  0  0  0  0  0  0  0  0  0
  -22.0320   -9.0160   20.4220 C   0  0  0  0  0  3  0  0  0  0  0  0
  -22.7540  -10.2100   20.2510 C   0  0  0  0  0  3  0  0  0  0  0  0
  -21.6820   -6.9200   21.4650 O   0  0  0  0  0  0  0  0  0  0  0  0
  -21.6060   -6.1900   22.6240 C   0  0  0  0  0  0  0  0  0  0  0  0
  -21.1270   -6.7500   23.8280 C   0  0  0  0  0  3  0  0  0  0  0  0
  -21.0000   -5.9440   24.9770 C   0  0  0  0  0  3  0  0  0  0  0  0
  -21.3420   -4.5790   24.9220 C   0  0  0  0  0  0  0  0  0  0  0  0
  -21.8160   -4.0210   23.7220 C   0  0  0  0  0  3  0  0  0  0  0  0
  -21.9440   -4.8220   22.5760 C   0  0  0  0  0  0  0  0  0  0  0  0
  -22.3790   -4.2720   21.4160 F   0  0  0  0  0  0  0  0  0  0  0  0
  -21.2140   -3.8020   26.0230 F   0  0  0  0  0  0  0  0  0  0  0  0
  -22.7230  -13.5650   21.0990 C   0  0  0  0  0  0  0  0  0  0  0  0
  -21.9780  -12.8700   21.9530 N   0  0  0  0  0  0  0  0  0  0  0  0
  -22.2890  -14.5820   20.5600 O   0  0  0  0  0  0  0  0  0  0  0  0
  -22.3410  -12.0470   22.4110 H   0  0  0  0  0  0  0  0  0  0  0  0
  -21.0340  -13.1680   22.1580 H   0  0  0  0  0  0  0  0  0  0  0  0
  -25.3560  -15.2420   20.3210 N   0  0  0  0  0  0  0  0  0  0  0  0
  -24.5600  -15.8690   20.3350 H   0  0  0  0  0  0  0  0  0  0  0  0
  -26.2120  -15.7080   20.0510 H   0  0  0  0  0  0  0  0  0  0  0  0
  -29.1890  -23.2030   20.8180 N   0  0  0  0  0  4  0  0  0  0  0  0
  -29.7950  -22.9540   20.0530 H   0  0  0  0  0  0  0  0  0  0  0  0
  -29.7930  -23.5490   21.5490 H   0  0  0  0  0  0  0  0  0  0  0  0
  -28.2650  -24.3210   20.4220 C   0  0  0  0  0  2  0  0  0  0  0  0
  -28.7200  -25.7150   20.9520 C   0  0  0  0  0  2  0  0  0  0  0  0
  -28.4440  -26.8220   20.0750 O   0  0  0  0  0  0  0  0  0  0  0  0
  -24.5790  -31.9340   23.2690 C   0  0  0  0  0  0  0  0  0  0  0  0
  -27.2500  -27.4960   20.2000 C   0  0  0  0  0  0  0  0  0  0  0  0
  -23.3760  -30.5270   21.6260 C   0  0  0  0  0  3  0  0  0  0  0  0
  -24.8410  -28.9830   20.2110 C   0  0  0  0  0  0  0  0  0  0  0  0
  -25.9010  -30.8940   21.4270 C   0  0  0  0  0  2  0  0  0  0  0  0
  -25.9940  -29.5170   20.8010 C   0  0  0  0  0  0  0  0  0  0  0  0
  -27.2020  -28.7800   20.7910 C   0  0  0  0  0  3  0  0  0  0  0  0
  -26.0790  -26.9710   19.6170 C   0  0  0  0  0  3  0  0  0  0  0  0
  -24.8770  -27.7070   19.6200 C   0  0  0  0  0  3  0  0  0  0  0  0
  -23.5910  -29.8370   20.2510 C   0  0  0  0  0  2  0  0  0  0  0  0
  -24.6370  -31.1340   22.1660 N   0  0  0  0  0  0  0  0  0  0  0  0
  -23.4970  -32.2020   23.8060 O   0  0  0  0  0  0  0  0  0  0  0  0
  -22.7330  -29.5050   22.5900 C   0  0  0  0  0  0  0  0  0  0  0  0
  -21.4080  -29.3260   22.4690 N   0  0  0  0  0  0  0  0  0  0  0  0
  -23.4200  -28.8780   23.4010 O   0  0  0  0  0  0  0  0  0  0  0  0
  -20.9120  -29.9100   21.8100 H   0  0  0  0  0  0  0  0  0  0  0  0
  -18.0470  -28.0850   22.9240 C   0  0  0  0  0  0  0  0  0  0  0  0
  -20.5960  -28.3740   23.2240 C   0  0  0  0  0  3  0  0  0  0  0  0
  -20.7250  -26.9490   22.6430 C   0  0  0  0  0  2  0  0  0  0  0  0
  -19.6360  -26.6210   21.6180 C   0  0  0  0  0  2  0  0  0  0  0  0
  -18.2490  -26.7360   22.2570 C   0  0  0  0  0  2  0  0  0  0  0  0
  -19.1500  -28.8610   23.3650 C   0  0  0  0  0  0  0  0  0  0  0  0
  -18.9110  -30.1260   23.9480 C   0  0  0  0  0  3  0  0  0  0  0  0
  -17.5980  -30.6130   24.0950 C   0  0  0  0  0  3  0  0  0  0  0  0
  -16.5070  -29.8330   23.6710 C   0  0  0  0  0  3  0  0  0  0  0  0
  -16.7330  -28.5710   23.0930 C   0  0  0  0  0  3  0  0  0  0  0  0
  -25.8650  -32.5680   23.8900 C   0  0  0  0  0  3  0  0  0  0  0  0
  -25.5570  -33.9710   24.2010 N   0  0  0  0  0  0  0  0  0  0  0  0
  -25.8970  -35.0120   23.4320 C   0  0  0  0  0  0  0  0  0  0  0  0
  -26.5750  -34.8950   22.4060 O   0  0  0  0  0  0  0  0  0  0  0  0
  -24.9620  -34.1380   24.9990 H   0  0  0  0  0  0  0  0  0  0  0  0
  -24.1840  -36.8080   23.0350 C   0  0  0  0  0  1  0  0  0  0  0  0
  -25.4120  -36.4080   23.8690 C   0  0  0  0  0  3  0  0  0  0  0  0
  -27.5380  -37.2920   24.7210 C   0  0  0  0  0  1  0  0  0  0  0  0
  -26.4520  -37.4550   23.7570 N   0  0  0  0  0  0  0  0  0  0  0  0
  -26.0490  -38.3790   23.8860 H   0  0  0  0  0  0  0  0  0  0  0  0
  -26.3730  -31.8080   25.1750 C   0  0  1  0  0  0  0  0  0  0  0  0
  -25.2730  -31.5830   26.2380 C   0  0  0  0  0  1  0  0  0  0  0  0
  -26.9540  -30.4260   24.7960 C   0  0  0  0  0  1  0  0  0  0  0  0
  -27.5210  -32.6070   25.8340 C   0  0  0  0  0  1  0  0  0  0  0  0
  2  5  1  0
  3  6  1  0
  3  2  2  0
  5  4  2  0
  5  1  1  0
  6  7  2  0
  7  9  1  0
  7  4  1  0
  8  6  1  0
 10 18  1  0
 11 16  1  0
 12 13  1  0
 12 11  1  0
 14 13  1  0
 14 23  1  0
 14 15  1  0
 16 10  1  0
 16 15  1  0
 17 10  2  0
 18  9  1  0
 18 19  1  0
 20 21  2  0
 21 22  1  0
 21 40  1  0
 22 25  1  0
 23 20  1  0
 23 24  1  0
 24 22  2  0
 25 26  1  0
 26 27  2  0
 28 31  1  0
 28 27  1  0
 29 28  2  0
 30 29  1  0
 30 25  2  0
 31 32  1  0
 32 33  1  0
 33 34  2  0
 35 34  1  0
 35 39  1  0
 36 35  2  0
 37 32  2  0
 37 36  1  0
 38 37  1  0
 40 41  1  0
 41 44  1  0
 41 43  1  0
 42 40  2  0
 45 46  1  0
 45 20  1  0
 47 45  1  0
 48  1  1  0
 48 50  1  0
 49 48  1  0
 51 48  1  0
 51 52  1  0
 53 55  1  0
 53 52  1  0
 54 65  2  0
 55 60  1  0
 56 64  1  0
 56 66  1  0
 57 63  1  0
 57 59  1  0
 58 64  1  0
 59 58  1  0
 60 59  2  0
 61 62  1  0
 61 55  2  0
 62 57  2  0
 63 56  1  0
 64 54  1  0
 66 68  2  0
 67 66  1  0
 69 67  1  0
 70 79  2  0
 70 75  1  0
 71 67  1  0
 71 75  1  0
 72 71  1  0
 73 74  1  0
 73 72  1  0
 74 70  1  0
 75 76  2  0
 76 77  1  0
 78 77  2  0
 79 78  1  0
 80 54  1  0
 80 81  1  0
 80 90  1  0
 81 84  1  0
 82 86  1  0
 82 81  1  0
 83 82  2  0
 86 85  1  0
 88 86  1  0
 88 89  1  0
 88 87  1  0
 90 93  1  1
 90 91  1  0
 92 90  1  0
M  ISO  4  10 100  18 100  52 101  53 101
M  END
>  <TORSDO>  (13) 
F 21

>  <SCORE>  (13) 
-13.335

>  <name>  (13) 
12

>  <ligand_id>  (13) 
12

>  <original_smiles>  (13) 
[H]c1c([H])c([H])c2c(c1[H])C([H])([H])C([H])([H])C([H])([H])C2([H])N([H])C(=O)C1([H])N(C(=O)C([H])(N([H])C(=O)C([H])(N([H])C([H])([H])[H])C([H])([H])[H])C(C([H])([H])[H])(C([H])([H])[H])C([H])([H])[H])C([H])([H])c2c([H])c(OC([H])([H])C([H])([H])[N+]([H])([H])C([H])([H])c3c([H])c([H])c(C([H])([H])[H])c(C([H])([H])N([H])C(=O)N4C([H])([H])C([H])([H])C([H])([H])C([H])(n5nc(-c6c([H])c([H])c(Oc7c([H])c([H])c(F)c([H])c7F)c([H])c6[H])c(C(=O)N([H])[H])c5N([H])[H])C4([H])[H])c3[H])c([H])c([H])c2C1([H])[H]

>  <smiles>  (13) 
[H]c1c([H])c([H])c2c(c1[H])C([H])([H])C([H])([H])C([H])([H])C2([H])N([H])C(=O)C1([H])N(C(=O)C([H])(N([H])C(=O)C([H])(N([H])C([H])([H])[H])C([H])([H])[H])C(C([H])([H])[H])(C([H])([H])[H])C([H])([H])[H])C([H])([H])c2c([H])c(OC([H])([H])C([H])([H])[N+]([H])([H])C([H])([H])c3c([H])c([H])c(C([H])([H])[H])c(C([H])([H])N([H])C(=O)N4C([H])([H])C([H])([H])C([H])([H])C([H])(n5nc(-c6c([H])c([H])c(Oc7c([H])c([H])c(F)c([H])c7F)c([H])c6[H])c(C(=O)N([H])[H])c5N([H])[H])C4([H])[H])c3[H])c([H])c([H])c2C1([H])[H]

$$$$
13:0:0
     RDKit          3D

 94102  0  0  1  0  0  0  0  0999 V2000
  -30.8270  -20.6710   19.9020 C   0  0  0  0  0  3  0  0  0  0  0  0
  -28.5970  -19.9450   20.5570 C   0  0  0  0  0  3  0  0  0  0  0  0
  -31.2460  -19.3290   19.8620 C   0  0  0  0  0  3  0  0  0  0  0  0
  -29.0150  -18.5950   20.5040 C   0  0  0  0  0  3  0  0  0  0  0  0
  -29.4880  -20.9870   20.2030 C   0  0  0  0  0  0  0  0  0  0  0  0
  -30.3320  -18.2790   20.1050 C   0  0  0  0  0  0  0  0  0  0  0  0
  -29.0010  -22.4210   20.0310 C   0  0  0  0  0  2  0  0  0  0  0  0
  -29.4700  -23.3260   21.1010 N   0  0  0  0  0  4  0  0  0  0  0  0
  -30.3900  -23.0190   21.3710 H   0  0  0  0  0  0  0  0  0  0  0  0
  -28.8750  -23.2030   21.9050 H   0  0  0  0  0  0  0  0  0  0  0  0
  -29.5590  -24.7670   20.7290 C   0  0  0  0  0  2  0  0  0  0  0  0
  -28.2160  -25.3940   20.3080 C   0  0  0  0  0  2  0  0  0  0  0  0
  -28.3370  -26.8170   20.1980 O   0  0  0  0  0  0  0  0  0  0  0  0
  -24.5210  -31.9530   23.2750 C   0  0  0  0  0  0  0  0  0  0  0  0
  -27.1570  -27.5280   20.1770 C   0  0  0  0  0  0  0  0  0  0  0  0
  -23.3050  -30.5470   21.6450 C   0  0  0  0  0  3  0  0  0  0  0  0
  -24.7520  -29.0190   20.2080 C   0  0  0  0  0  0  0  0  0  0  0  0
  -25.8270  -30.9220   21.4220 C   0  0  0  0  0  2  0  0  0  0  0  0
  -25.9120  -29.5520   20.7820 C   0  0  0  0  0  0  0  0  0  0  0  0
  -27.1190  -28.8160   20.7580 C   0  0  0  0  0  3  0  0  0  0  0  0
  -25.9760  -27.0100   19.5940 C   0  0  0  0  0  3  0  0  0  0  0  0
  -24.7780  -27.7470   19.6100 C   0  0  0  0  0  3  0  0  0  0  0  0
  -23.5020  -29.8670   20.2650 C   0  0  0  0  0  2  0  0  0  0  0  0
  -24.5690  -31.1550   22.1720 N   0  0  0  0  0  0  0  0  0  0  0  0
  -23.4440  -32.2210   23.8260 O   0  0  0  0  0  0  0  0  0  0  0  0
  -22.6690  -29.5210   22.6120 C   0  0  0  0  0  0  0  0  0  0  0  0
  -21.3490  -29.3150   22.4820 N   0  0  0  0  0  0  0  0  0  0  0  0
  -23.3610  -28.9130   23.4330 O   0  0  0  0  0  0  0  0  0  0  0  0
  -20.8510  -29.8600   21.7910 H   0  0  0  0  0  0  0  0  0  0  0  0
  -17.9970  -28.0540   22.9560 C   0  0  0  0  0  0  0  0  0  0  0  0
  -20.5440  -28.3710   23.2560 C   0  0  0  0  0  3  0  0  0  0  0  0
  -20.6850  -26.9350   22.7010 C   0  0  0  0  0  2  0  0  0  0  0  0
  -19.6040  -26.5730   21.6790 C   0  0  0  0  0  2  0  0  0  0  0  0
  -18.2110  -26.6980   22.3040 C   0  0  0  0  0  2  0  0  0  0  0  0
  -19.0930  -28.8460   23.3880 C   0  0  0  0  0  0  0  0  0  0  0  0
  -18.8400  -30.1140   23.9540 C   0  0  0  0  0  3  0  0  0  0  0  0
  -17.5230  -30.5910   24.0930 C   0  0  0  0  0  3  0  0  0  0  0  0
  -16.4400  -29.7960   23.6780 C   0  0  0  0  0  3  0  0  0  0  0  0
  -16.6780  -28.5300   23.1150 C   0  0  0  0  0  3  0  0  0  0  0  0
  -25.8110  -32.5880   23.8830 C   0  0  0  0  0  3  0  0  0  0  0  0
  -25.5100  -33.9920   24.1880 N   0  0  0  0  0  0  0  0  0  0  0  0
  -25.8680  -35.0300   23.4200 C   0  0  0  0  0  0  0  0  0  0  0  0
  -26.5590  -34.9050   22.4050 O   0  0  0  0  0  0  0  0  0  0  0  0
  -24.8990  -34.1640   24.9740 H   0  0  0  0  0  0  0  0  0  0  0  0
  -24.1870  -36.8470   22.9780 C   0  0  0  0  0  1  0  0  0  0  0  0
  -25.3840  -36.4280   23.8470 C   0  0  0  0  0  3  0  0  0  0  0  0
  -27.4910  -37.2870   24.7700 C   0  0  0  0  0  1  0  0  0  0  0  0
  -26.4390  -37.4640   23.7740 N   0  0  0  0  0  0  0  0  0  0  0  0
  -26.0400  -38.3920   23.8930 H   0  0  0  0  0  0  0  0  0  0  0  0
  -26.3290  -31.8340   25.1680 C   0  0  1  0  0  0  0  0  0  0  0  0
  -25.2390  -31.6130   26.2430 C   0  0  0  0  0  1  0  0  0  0  0  0
  -26.9100  -30.4510   24.7920 C   0  0  0  0  0  1  0  0  0  0  0  0
  -27.4820  -32.6380   25.8170 C   0  0  0  0  0  1  0  0  0  0  0  0
  -30.7490  -16.8600   19.7140 C   0  0  0  0  0  3  0  0  0  0  0  0
  -31.0140  -14.6140   20.6760 C   0  0  0  0  0  0  0  0  0  0  0  0
  -30.6940  -12.4410   19.6060 C   0  0  0  0  0  2  0  0  0  0  0  0
  -29.8160  -12.6420   18.3530 C   0  0  0  0  0  2  0  0  0  0  0  0
  -28.3230  -12.5550   18.7180 C   0  0  0  0  0  2  0  0  0  0  0  0
  -27.9430  -13.4130   19.9550 C   0  0  0  0  0  3  0  0  0  0  0  0
  -28.9510  -13.2270   21.1130 C   0  0  0  0  0  2  0  0  0  0  0  0
  -30.3000  -13.4640   20.5850 N   0  0  0  0  0  0  0  0  0  0  0  0
  -32.2280  -14.6530   20.4710 O   0  0  0  0  0  0  0  0  0  0  0  0
  -30.2910  -15.7490   20.5760 N   0  0  0  0  0  0  0  0  0  0  0  0
  -29.3000  -15.6730   20.7420 H   0  0  0  0  0  0  0  0  0  0  0  0
  -25.5170  -14.0330   20.5450 C   0  0  0  0  0  0  0  0  0  0  0  0
  -24.4310  -13.2660   20.8720 C   0  0  0  0  0  0  0  0  0  0  0  0
  -24.8910  -11.9140   20.8870 C   0  0  0  0  0  0  0  0  0  0  0  0
  -26.5710  -13.1470   20.3800 N   0  0  0  0  0  0  0  0  0  0  0  0
  -26.1960  -11.8700   20.6490 N   0  0  0  0  0  0  0  0  0  0  0  0
  -24.1550  -10.6540   21.0560 C   0  0  0  0  0  0  0  0  0  0  0  0
  -24.5220   -9.7120   22.0420 C   0  0  0  0  0  3  0  0  0  0  0  0
  -23.7870   -8.5170   22.1980 C   0  0  0  0  0  3  0  0  0  0  0  0
  -22.6710   -8.2560   21.3680 C   0  0  0  0  0  0  0  0  0  0  0  0
  -22.3250   -9.1870   20.3730 C   0  0  0  0  0  3  0  0  0  0  0  0
  -23.0600  -10.3730   20.2140 C   0  0  0  0  0  3  0  0  0  0  0  0
  -21.9140   -7.1110   21.4310 O   0  0  0  0  0  0  0  0  0  0  0  0
  -21.7700   -6.4080   22.6000 C   0  0  0  0  0  0  0  0  0  0  0  0
  -21.2180   -6.9930   23.7600 C   0  0  0  0  0  3  0  0  0  0  0  0
  -21.0220   -6.2140   24.9180 C   0  0  0  0  0  3  0  0  0  0  0  0
  -21.3710   -4.8510   24.9160 C   0  0  0  0  0  0  0  0  0  0  0  0
  -21.9160   -4.2640   23.7600 C   0  0  0  0  0  3  0  0  0  0  0  0
  -22.1120   -5.0410   22.6040 C   0  0  0  0  0  0  0  0  0  0  0  0
  -22.6180   -4.4650   21.4870 F   0  0  0  0  0  0  0  0  0  0  0  0
  -21.1760   -4.1000   26.0250 F   0  0  0  0  0  0  0  0  0  0  0  0
  -23.0220  -13.7480   21.0630 C   0  0  0  0  0  0  0  0  0  0  0  0
  -22.2490  -13.0640   21.8990 N   0  0  0  0  0  0  0  0  0  0  0  0
  -22.6140  -14.7660   20.5050 O   0  0  0  0  0  0  0  0  0  0  0  0
  -22.5920  -12.2410   22.3720 H   0  0  0  0  0  0  0  0  0  0  0  0
  -21.3010  -13.3700   22.0700 H   0  0  0  0  0  0  0  0  0  0  0  0
  -25.6910  -15.4000   20.3510 N   0  0  0  0  0  0  0  0  0  0  0  0
  -24.9120  -16.0500   20.4000 H   0  0  0  0  0  0  0  0  0  0  0  0
  -26.5440  -15.8310   20.0220 H   0  0  0  0  0  0  0  0  0  0  0  0
  -30.7720  -17.6140   17.2190 C   0  0  0  0  0  1  0  0  0  0  0  0
  -30.3420  -16.5600   18.2510 C   0  0  0  0  0  2  0  0  0  0  0  0
  1  5  1  0
  3  1  2  0
  3  6  1  0
  4  2  1  0
  5  2  2  0
  6  4  2  0
  7  5  1  0
  7  8  1  0
  8  9  1  0
  8 10  1  0
 11  8  1  0
 12 11  1  0
 13 12  1  0
 14 25  2  0
 15 13  1  0
 15 20  1  0
 16 24  1  0
 16 26  1  0
 17 23  1  0
 17 19  1  0
 18 24  1  0
 19 18  1  0
 20 19  2  0
 21 22  1  0
 21 15  2  0
 22 17  2  0
 23 16  1  0
 24 14  1  0
 26 28  2  0
 27 26  1  0
 29 27  1  0
 30 39  2  0
 30 35  1  0
 31 27  1  0
 31 35  1  0
 32 31  1  0
 33 34  1  0
 33 32  1  0
 34 30  1  0
 35 36  2  0
 36 37  1  0
 38 37  2  0
 39 38  1  0
 40 14  1  0
 40 41  1  0
 40 50  1  0
 41 44  1  0
 42 46  1  0
 42 41  1  0
 43 42  2  0
 46 45  1  0
 48 46  1  0
 48 49  1  0
 48 47  1  0
 50 53  1  1
 50 51  1  0
 52 50  1  0
 54 94  1  0
 54  6  1  0
 54 63  1  0
 56 61  1  0
 57 58  1  0
 57 56  1  0
 59 58  1  0
 59 68  1  0
 59 60  1  0
 61 55  1  0
 61 60  1  0
 62 55  2  0
 63 55  1  0
 63 64  1  0
 65 66  2  0
 66 67  1  0
 66 85  1  0
 67 70  1  0
 68 65  1  0
 68 69  1  0
 69 67  2  0
 70 71  1  0
 71 72  2  0
 73 76  1  0
 73 72  1  0
 74 73  2  0
 75 74  1  0
 75 70  2  0
 76 77  1  0
 77 82  2  0
 77 78  1  0
 78 79  2  0
 80 79  1  0
 80 84  1  0
 81 80  2  0
 82 81  1  0
 83 82  1  0
 85 86  1  0
 86 89  1  0
 86 88  1  0
 87 85  2  0
 90 91  1  0
 90 65  1  0
 92 90  1  0
 93 94  1  0
M  ISO  4  12 101  13 101  55 100  63 100
M  END
>  <TORSDO>  (14) 
F 22

>  <SCORE>  (14) 
-12.601

>  <name>  (14) 
13

>  <ligand_id>  (14) 
13

>  <original_smiles>  (14) 
[H]c1c([H])c([H])c2c(c1[H])C([H])([H])C([H])([H])C([H])([H])C2([H])N([H])C(=O)C1([H])N(C(=O)C([H])(N([H])C(=O)C([H])(N([H])C([H])([H])[H])C([H])([H])[H])C(C([H])([H])[H])(C([H])([H])[H])C([H])([H])[H])C([H])([H])c2c([H])c(OC([H])([H])C([H])([H])[N+]([H])([H])C([H])([H])c3c([H])c([H])c(C([H])(N([H])C(=O)N4C([H])([H])C([H])([H])C([H])([H])C([H])(n5nc(-c6c([H])c([H])c(Oc7c([H])c([H])c(F)c([H])c7F)c([H])c6[H])c(C(=O)N([H])[H])c5N([H])[H])C4([H])[H])C([H])([H])C([H])([H])[H])c([H])c3[H])c([H])c([H])c2C1([H])[H]

>  <smiles>  (14) 
[H]c1c([H])c([H])c2c(c1[H])C([H])([H])C([H])([H])C([H])([H])C2([H])N([H])C(=O)C1([H])N(C(=O)C([H])(N([H])C(=O)C([H])(N([H])C([H])([H])[H])C([H])([H])[H])C(C([H])([H])[H])(C([H])([H])[H])C([H])([H])[H])C([H])([H])c2c([H])c(OC([H])([H])C([H])([H])[N+]([H])([H])C([H])([H])c3c([H])c([H])c(C([H])(N([H])C(=O)N4C([H])([H])C([H])([H])C([H])([H])C([H])(n5nc(-c6c([H])c([H])c(Oc7c([H])c([H])c(F)c([H])c7F)c([H])c6[H])c(C(=O)N([H])[H])c5N([H])[H])C4([H])[H])C([H])([H])C([H])([H])[H])c([H])c3[H])c([H])c([H])c2C1([H])[H]

$$$$
14:0:0
     RDKit          3D

 92100  0  0  1  0  0  0  0  0999 V2000
  -27.9810  -22.5000   18.4990 C   0  0  0  0  0  3  0  0  0  0  0  0
  -28.2300  -21.2480   17.9100 C   0  0  0  0  0  3  0  0  0  0  0  0
  -28.9120  -21.6690   20.5850 C   0  0  0  0  0  3  0  0  0  0  0  0
  -28.3530  -22.7460   19.8370 C   0  0  0  0  0  0  0  0  0  0  0  0
  -28.8300  -20.1980   18.6380 C   0  0  0  0  0  0  0  0  0  0  0  0
  -29.1380  -20.3810   20.0150 C   0  0  0  0  0  0  0  0  0  0  0  0
  -29.1710  -18.9300   17.8700 C   0  0  0  0  0  1  0  0  0  0  0  0
  -29.7160  -19.3730   20.8290 N   0  0  0  0  0  0  0  0  0  0  0  0
  -30.0190  -19.7060   21.7400 H   0  0  0  0  0  0  0  0  0  0  0  0
  -29.2240  -17.9820   20.8640 C   0  0  0  0  0  2  0  0  0  0  0  0
  -30.3760  -16.9350   20.8440 C   0  0  0  0  0  2  0  0  0  0  0  0
  -30.6430  -14.4730   20.4390 C   0  0  0  0  0  0  0  0  0  0  0  0
  -30.3490  -12.2990   19.3090 C   0  0  0  0  0  2  0  0  0  0  0  0
  -29.4120  -12.5000   18.0990 C   0  0  0  0  0  2  0  0  0  0  0  0
  -27.9350  -12.3700   18.5240 C   0  0  0  0  0  2  0  0  0  0  0  0
  -27.5970  -13.2100   19.7840 C   0  0  0  0  0  3  0  0  0  0  0  0
  -28.6490  -12.9950   20.8960 C   0  0  0  0  0  2  0  0  0  0  0  0
  -29.9720  -13.2930   20.3280 N   0  0  0  0  0  0  0  0  0  0  0  0
  -31.7860  -14.6270   20.0030 O   0  0  0  0  0  0  0  0  0  0  0  0
  -29.9260  -15.5280   20.8840 N   0  0  0  0  0  0  0  0  0  0  0  0
  -28.9890  -15.3440   21.2110 H   0  0  0  0  0  0  0  0  0  0  0  0
  -25.2000  -13.8280   20.4870 C   0  0  0  0  0  0  0  0  0  0  0  0
  -24.1300  -13.0590   20.8580 C   0  0  0  0  0  0  0  0  0  0  0  0
  -24.5870  -11.7060   20.8350 C   0  0  0  0  0  0  0  0  0  0  0  0
  -26.2430  -12.9420   20.2610 N   0  0  0  0  0  0  0  0  0  0  0  0
  -25.8770  -11.6610   20.5300 N   0  0  0  0  0  0  0  0  0  0  0  0
  -23.8550  -10.4480   21.0300 C   0  0  0  0  0  0  0  0  0  0  0  0
  -24.2880   -9.4800   21.9640 C   0  0  0  0  0  3  0  0  0  0  0  0
  -23.5580   -8.2860   22.1460 C   0  0  0  0  0  3  0  0  0  0  0  0
  -22.3820   -8.0510   21.3960 C   0  0  0  0  0  0  0  0  0  0  0  0
  -21.9700   -9.0070   20.4510 C   0  0  0  0  0  3  0  0  0  0  0  0
  -22.7000  -10.1930   20.2660 C   0  0  0  0  0  3  0  0  0  0  0  0
  -21.6240   -6.9080   21.4880 O   0  0  0  0  0  0  0  0  0  0  0  0
  -21.5830   -6.1630   22.6390 C   0  0  0  0  0  0  0  0  0  0  0  0
  -21.1730   -6.7180   23.8710 C   0  0  0  0  0  3  0  0  0  0  0  0
  -21.0770   -5.8990   25.0130 C   0  0  0  0  0  3  0  0  0  0  0  0
  -21.3800   -4.5270   24.9260 C   0  0  0  0  0  0  0  0  0  0  0  0
  -21.7840   -3.9720   23.6990 C   0  0  0  0  0  3  0  0  0  0  0  0
  -21.8810   -4.7880   22.5570 C   0  0  0  0  0  0  0  0  0  0  0  0
  -22.2500   -4.2450   21.3720 F   0  0  0  0  0  0  0  0  0  0  0  0
  -21.2810   -3.7380   26.0210 F   0  0  0  0  0  0  0  0  0  0  0  0
  -22.7330  -13.5430   21.1240 C   0  0  0  0  0  0  0  0  0  0  0  0
  -22.0020  -12.8540   21.9940 N   0  0  0  0  0  0  0  0  0  0  0  0
  -22.2990  -14.5660   20.5970 O   0  0  0  0  0  0  0  0  0  0  0  0
  -22.3670  -12.0280   22.4450 H   0  0  0  0  0  0  0  0  0  0  0  0
  -21.0640  -13.1580   22.2120 H   0  0  0  0  0  0  0  0  0  0  0  0
  -25.3690  -15.1960   20.3010 N   0  0  0  0  0  0  0  0  0  0  0  0
  -24.6010  -15.8510   20.3970 H   0  0  0  0  0  0  0  0  0  0  0  0
  -26.2150  -15.6280   19.9510 H   0  0  0  0  0  0  0  0  0  0  0  0
  -28.1120  -24.1410   20.4580 C   0  0  0  0  0  3  0  0  0  0  0  0
  -28.5360  -25.3600   19.5750 C   0  0  0  0  0  3  0  0  0  0  0  0
  -28.4140  -26.6630   20.1920 O   0  0  0  0  0  0  0  0  0  0  0  0
  -24.5890  -31.8580   23.2310 C   0  0  0  0  0  0  0  0  0  0  0  0
  -27.2240  -27.3770   20.1620 C   0  0  0  0  0  0  0  0  0  0  0  0
  -23.3810  -30.4560   21.5920 C   0  0  0  0  0  3  0  0  0  0  0  0
  -24.8310  -28.9090   20.1690 C   0  0  0  0  0  0  0  0  0  0  0  0
  -25.9090  -30.8010   21.3960 C   0  0  0  0  0  2  0  0  0  0  0  0
  -25.9900  -29.4260   20.7570 C   0  0  0  0  0  0  0  0  0  0  0  0
  -27.1850  -28.6670   20.7510 C   0  0  0  0  0  3  0  0  0  0  0  0
  -26.0390  -26.8760   19.5760 C   0  0  0  0  0  3  0  0  0  0  0  0
  -24.8510  -27.6340   19.5780 C   0  0  0  0  0  3  0  0  0  0  0  0
  -23.5890  -29.7730   20.2130 C   0  0  0  0  0  2  0  0  0  0  0  0
  -24.6440  -31.0540   22.1310 N   0  0  0  0  0  0  0  0  0  0  0  0
  -23.5070  -32.1340   23.7690 O   0  0  0  0  0  0  0  0  0  0  0  0
  -22.7270  -29.4380   22.5530 C   0  0  0  0  0  0  0  0  0  0  0  0
  -21.4010  -29.2630   22.4310 N   0  0  0  0  0  0  0  0  0  0  0  0
  -23.4090  -28.8080   23.3660 O   0  0  0  0  0  0  0  0  0  0  0  0
  -20.9100  -29.8240   21.7480 H   0  0  0  0  0  0  0  0  0  0  0  0
  -18.0200  -28.0900   22.9360 C   0  0  0  0  0  0  0  0  0  0  0  0
  -20.5800  -28.3280   23.2020 C   0  0  0  0  0  3  0  0  0  0  0  0
  -20.6710  -26.8990   22.6190 C   0  0  0  0  0  2  0  0  0  0  0  0
  -19.5630  -26.5870   21.6080 C   0  0  0  0  0  2  0  0  0  0  0  0
  -18.1850  -26.7400   22.2580 C   0  0  0  0  0  2  0  0  0  0  0  0
  -19.1460  -28.8420   23.3660 C   0  0  0  0  0  0  0  0  0  0  0  0
  -18.9380  -30.1070   23.9590 C   0  0  0  0  0  3  0  0  0  0  0  0
  -17.6390  -30.6170   24.1280 C   0  0  0  0  0  3  0  0  0  0  0  0
  -16.5280  -29.8610   23.7170 C   0  0  0  0  0  3  0  0  0  0  0  0
  -16.7190  -28.5990   23.1270 C   0  0  0  0  0  3  0  0  0  0  0  0
  -25.8760  -32.4880   23.8510 C   0  0  0  0  0  3  0  0  0  0  0  0
  -25.5690  -33.8850   24.1820 N   0  0  0  0  0  0  0  0  0  0  0  0
  -25.9050  -34.9380   23.4240 C   0  0  0  0  0  0  0  0  0  0  0  0
  -26.5750  -34.8340   22.3930 O   0  0  0  0  0  0  0  0  0  0  0  0
  -24.9750  -34.0410   24.9840 H   0  0  0  0  0  0  0  0  0  0  0  0
  -24.1790  -36.7310   23.0700 C   0  0  0  0  0  1  0  0  0  0  0  0
  -25.4190  -36.3260   23.8830 C   0  0  0  0  0  3  0  0  0  0  0  0
  -27.5550  -37.2060   24.7150 C   0  0  0  0  0  1  0  0  0  0  0  0
  -26.4540  -37.3780   23.7710 N   0  0  0  0  0  0  0  0  0  0  0  0
  -26.0490  -38.2980   23.9210 H   0  0  0  0  0  0  0  0  0  0  0  0
  -26.3950  -31.7140   25.1240 C   0  0  1  0  0  0  0  0  0  0  0  0
  -25.3050  -31.4770   26.1960 C   0  0  0  0  0  1  0  0  0  0  0  0
  -26.9740  -30.3370   24.7270 C   0  0  0  0  0  1  0  0  0  0  0  0
  -27.5480  -32.5060   25.7840 C   0  0  0  0  0  1  0  0  0  0  0  0
  1  4  1  0
  2  1  2  0
  2  5  1  0
  4 50  1  0
  4  3  2  0
  5  6  2  0
  6  3  1  0
  6  8  1  0
  7  5  1  0
  8 10  1  0
  8  9  1  0
 11 10  1  0
 11 20  1  0
 12 20  1  0
 13 18  1  0
 14 15  1  0
 14 13  1  0
 16 15  1  0
 16 25  1  0
 16 17  1  0
 18 12  1  0
 18 17  1  0
 19 12  2  0
 20 21  1  0
 22 23  2  0
 23 42  1  0
 24 23  1  0
 24 27  1  0
 25 22  1  0
 25 26  1  0
 26 24  2  0
 27 28  1  0
 28 29  2  0
 30 33  1  0
 30 29  1  0
 31 30  2  0
 32 31  1  0
 32 27  2  0
 33 34  1  0
 34 35  1  0
 35 36  2  0
 37 36  1  0
 37 41  1  0
 38 37  2  0
 39 34  2  0
 39 38  1  0
 40 39  1  0
 42 43  1  0
 43 46  1  0
 43 45  1  0
 44 42  2  0
 47 48  1  0
 47 22  1  0
 49 47  1  0
 51 52  1  0
 51 50  2  0
 53 64  2  0
 54 52  1  0
 54 59  1  0
 55 63  1  0
 55 65  1  0
 56 62  1  0
 56 58  1  0
 57 63  1  0
 58 57  1  0
 59 58  2  0
 60 61  1  0
 60 54  2  0
 61 56  2  0
 62 55  1  0
 63 53  1  0
 65 67  2  0
 66 65  1  0
 68 66  1  0
 69 78  2  0
 69 74  1  0
 70 66  1  0
 70 74  1  0
 71 70  1  0
 72 73  1  0
 72 71  1  0
 73 69  1  0
 74 75  2  0
 75 76  1  0
 77 76  2  0
 78 77  1  0
 79 53  1  0
 79 80  1  0
 79 89  1  0
 80 83  1  0
 81 85  1  0
 81 80  1  0
 82 81  2  0
 85 84  1  0
 87 85  1  0
 87 88  1  0
 87 86  1  0
 89 92  1  1
 89 90  1  0
 91 89  1  0
M  ISO  4  12 100  20 100  51 101  52 101
M  END
>  <TORSDO>  (15) 
F 21

>  <SCORE>  (15) 
-13.609

>  <name>  (15) 
14

>  <ligand_id>  (15) 
14

>  <original_smiles>  (15) 
[H]c1c([H])c([H])c2c(c1[H])C([H])([H])C([H])([H])C([H])([H])C2([H])N([H])C(=O)C1([H])N(C(=O)C([H])(N([H])C(=O)C([H])(N([H])C([H])([H])[H])C([H])([H])[H])C(C([H])([H])[H])(C([H])([H])[H])C([H])([H])[H])C([H])([H])c2c([H])c(OC([H])([H])C([H])([H])c3c([H])c([H])c(C([H])([H])[H])c(N([H])C([H])([H])C([H])([H])N([H])C(=O)N4C([H])([H])C([H])([H])C([H])([H])C([H])(n5nc(-c6c([H])c([H])c(Oc7c([H])c([H])c(F)c([H])c7F)c([H])c6[H])c(C(=O)N([H])[H])c5N([H])[H])C4([H])[H])c3[H])c([H])c([H])c2C1([H])[H]

>  <smiles>  (15) 
[H]c1c([H])c([H])c2c(c1[H])C([H])([H])C([H])([H])C([H])([H])C2([H])N([H])C(=O)C1([H])N(C(=O)C([H])(N([H])C(=O)C([H])(N([H])C([H])([H])[H])C([H])([H])[H])C(C([H])([H])[H])(C([H])([H])[H])C([H])([H])[H])C([H])([H])c2c([H])c(OC([H])([H])C([H])([H])c3c([H])c([H])c(C([H])([H])[H])c(N([H])C([H])([H])C([H])([H])N([H])C(=O)N4C([H])([H])C([H])([H])C([H])([H])C([H])(n5nc(-c6c([H])c([H])c(Oc7c([H])c([H])c(F)c([H])c7F)c([H])c6[H])c(C(=O)N([H])[H])c5N([H])[H])C4([H])[H])c3[H])c([H])c([H])c2C1([H])[H]

$$$$
15:0:0
     RDKit          3D

 97104  0  0  1  0  0  0  0  0999 V2000
  -23.6210  -23.2180   20.9960 C   0  0  0  0  0  2  0  0  0  0  0  0
  -20.5060  -26.3130   21.2380 C   0  0  0  0  0  2  0  0  0  0  0  0
  -21.7280  -27.6180   19.9090 C   0  0  0  0  0  1  0  0  0  0  0  0
  -23.5650  -25.7110   20.1110 C   0  0  0  0  0  3  0  0  0  0  0  0
  -21.3740  -24.9830   21.4970 C   0  0  0  0  0  3  0  0  0  0  0  0
  -22.8020  -24.7040   20.9060 C   0  0  0  0  0  0  0  0  0  0  0  0
  -23.3920  -27.1390   19.7210 C   0  0  0  0  0  3  0  0  0  0  0  0
  -20.7130  -23.9140   22.3380 C   0  0  0  0  0  1  0  0  0  0  0  0
  -24.9500  -27.6700   20.0220 O   0  0  0  0  0  0  0  0  0  0  0  0
  -24.6710  -32.0050   23.3390 C   0  0  0  0  0  0  0  0  0  0  0  0
  -26.2030  -28.1270   19.4180 C   0  0  0  0  0  3  0  0  0  0  0  0
  -23.4850  -31.1920   21.3690 C   0  0  0  0  0  3  0  0  0  0  0  0
  -24.8520  -30.2970   19.3860 C   0  0  0  0  0  3  0  0  0  0  0  0
  -26.0230  -31.4060   21.3100 C   0  0  0  0  0  2  0  0  0  0  0  0
  -25.9550  -30.3170   20.2490 C   0  0  0  0  0  3  0  0  0  0  0  0
  -26.8160  -29.2060   20.1480 C   0  0  0  0  0  2  0  0  0  0  0  0
  -25.8720  -28.4660   18.1380 C   0  0  0  0  0  2  0  0  0  0  0  0
  -24.8840  -29.4610   18.2330 C   0  0  0  0  0  2  0  0  0  0  0  0
  -23.6330  -31.0540   19.8170 C   0  0  0  0  0  2  0  0  0  0  0  0
  -24.7480  -31.6030   22.0390 N   0  0  0  0  0  0  0  0  0  0  0  0
  -23.5790  -32.1230   23.9190 O   0  0  0  0  0  0  0  0  0  0  0  0
  -23.0330  -29.9170   22.0990 C   0  0  0  0  0  0  0  0  0  0  0  0
  -21.7920  -29.8040   22.5030 N   0  0  0  0  0  0  0  0  0  0  0  0
  -23.8500  -29.0570   22.4060 O   0  0  0  0  0  0  0  0  0  0  0  0
  -21.1390  -30.5620   22.3560 H   0  0  0  0  0  0  0  0  0  0  0  0
  -18.4060  -28.9140   22.1030 C   0  0  0  0  0  0  0  0  0  0  0  0
  -21.2480  -28.5030   22.9160 C   0  0  0  0  0  3  0  0  0  0  0  0
  -22.0360  -27.0030   21.9150 C   0  0  0  0  0  2  0  0  0  0  0  0
  -19.5990  -27.0660   19.5210 C   0  0  0  0  0  1  0  0  0  0  0  0
  -18.2960  -28.1630   20.5010 C   0  0  0  0  0  2  0  0  0  0  0  0
  -19.6290  -29.0880   23.0030 C   0  0  0  0  0  0  0  0  0  0  0  0
  -19.4670  -29.9960   24.1200 C   0  0  0  0  0  3  0  0  0  0  0  0
  -18.2650  -30.5920   24.5550 C   0  0  0  0  0  3  0  0  0  0  0  0
  -17.0870  -30.2280   23.8970 C   0  0  0  0  0  3  0  0  0  0  0  0
  -17.1760  -29.4160   22.7240 C   0  0  0  0  0  3  0  0  0  0  0  0
  -25.9480  -32.3550   24.1470 C   0  0  0  0  0  3  0  0  0  0  0  0
  -25.6920  -33.6690   24.7430 N   0  0  0  0  0  0  0  0  0  0  0  0
  -26.0800  -34.8270   24.1990 C   0  0  0  0  0  0  0  0  0  0  0  0
  -26.7850  -34.8860   23.1880 O   0  0  0  0  0  0  0  0  0  0  0  0
  -25.0780  -33.6960   25.5430 H   0  0  0  0  0  0  0  0  0  0  0  0
  -24.4400  -36.7320   24.1170 C   0  0  0  0  0  1  0  0  0  0  0  0
  -25.6200  -36.1230   24.8900 C   0  0  0  0  0  3  0  0  0  0  0  0
  -27.7560  -36.7040   25.9470 C   0  0  0  0  0  1  0  0  0  0  0  0
  -26.6990  -37.1230   25.0310 N   0  0  0  0  0  0  0  0  0  0  0  0
  -26.3270  -38.0100   25.3600 H   0  0  0  0  0  0  0  0  0  0  0  0
  -26.3010  -31.2970   25.2610 C   0  0  1  0  0  0  0  0  0  0  0  0
  -25.1090  -30.9060   26.1640 C   0  0  0  0  0  1  0  0  0  0  0  0
  -26.8610  -29.9980   24.6380 C   0  0  0  0  0  1  0  0  0  0  0  0
  -27.4230  -31.8670   26.1610 C   0  0  0  0  0  1  0  0  0  0  0  0
  -25.0020  -22.7350   20.3090 N   0  0  0  0  0  4  0  0  0  0  0  0
  -25.7350  -23.2070   20.8080 H   0  0  0  0  0  0  0  0  0  0  0  0
  -25.0010  -23.1270   19.3830 H   0  0  0  0  0  0  0  0  0  0  0  0
  -25.4620  -21.1880   20.1140 C   0  0  0  0  0  2  0  0  0  0  0  0
  -26.7290  -20.5700   19.0810 C   0  0  0  0  0  3  0  0  0  0  0  0
  -27.9100  -21.3580   19.4020 N   0  0  0  0  0  0  0  0  0  0  0  0
  -28.2300  -21.1220   20.3390 H   0  0  0  0  0  0  0  0  0  0  0  0
  -27.6830  -22.3440   19.4630 H   0  0  0  0  0  0  0  0  0  0  0  0
  -27.3570  -18.9370   18.9470 C   0  0  0  0  0  2  0  0  0  0  0  0
  -28.9660  -18.3290   18.6180 C   0  0  0  0  0  2  0  0  0  0  0  0
  -30.7730  -16.0420   18.8720 C   0  0  0  0  0  0  0  0  0  0  0  0
  -31.4060  -13.5530   18.6810 C   0  0  0  0  0  2  0  0  0  0  0  0
  -30.4850  -12.8590   17.6400 C   0  0  0  0  0  2  0  0  0  0  0  0
  -29.0860  -12.5590   18.2170 C   0  0  0  0  0  2  0  0  0  0  0  0
  -28.5400  -13.7500   19.0380 C   0  0  0  0  0  3  0  0  0  0  0  0
  -29.5670  -14.2330   20.0720 C   0  0  0  0  0  2  0  0  0  0  0  0
  -30.6770  -14.7190   19.2740 N   0  0  0  0  0  0  0  0  0  0  0  0
  -31.8720  -16.3610   18.3680 O   0  0  0  0  0  0  0  0  0  0  0  0
  -29.5580  -16.8550   18.9510 N   0  0  0  0  0  0  0  0  0  0  0  0
  -28.8300  -16.2960   19.3730 H   0  0  0  0  0  0  0  0  0  0  0  0
  -26.3410  -14.3840   20.1490 C   0  0  0  0  0  0  0  0  0  0  0  0
  -25.3120  -13.6250   20.6320 C   0  0  0  0  0  0  0  0  0  0  0  0
  -25.7030  -12.2640   20.4390 C   0  0  0  0  0  0  0  0  0  0  0  0
  -27.2780  -13.4800   19.6830 N   0  0  0  0  0  0  0  0  0  0  0  0
  -26.9220  -12.1970   19.9260 N   0  0  0  0  0  0  0  0  0  0  0  0
  -24.9620  -11.0190   20.6500 C   0  0  0  0  0  0  0  0  0  0  0  0
  -25.3590  -10.0790   21.6250 C   0  0  0  0  0  3  0  0  0  0  0  0
  -24.6160   -8.8950   21.8180 C   0  0  0  0  0  3  0  0  0  0  0  0
  -23.4650   -8.6470   21.0330 C   0  0  0  0  0  0  0  0  0  0  0  0
  -23.0890   -9.5770   20.0480 C   0  0  0  0  0  3  0  0  0  0  0  0
  -23.8320  -10.7510   19.8540 C   0  0  0  0  0  3  0  0  0  0  0  0
  -22.6950   -7.5150   21.1310 O   0  0  0  0  0  0  0  0  0  0  0  0
  -22.3530   -6.9820   22.3480 C   0  0  0  0  0  0  0  0  0  0  0  0
  -21.6800   -7.7400   23.3300 C   0  0  0  0  0  3  0  0  0  0  0  0
  -21.2840   -7.1340   24.5400 C   0  0  0  0  0  3  0  0  0  0  0  0
  -21.5540   -5.7710   24.7640 C   0  0  0  0  0  0  0  0  0  0  0  0
  -22.2170   -5.0120   23.7850 C   0  0  0  0  0  3  0  0  0  0  0  0
  -22.6140   -5.6170   22.5780 C   0  0  0  0  0  0  0  0  0  0  0  0
  -23.2360   -4.8770   21.6290 F   0  0  0  0  0  0  0  0  0  0  0  0
  -21.1670   -5.1840   25.9220 F   0  0  0  0  0  0  0  0  0  0  0  0
  -23.9990  -14.1350   21.1410 C   0  0  0  0  0  0  0  0  0  0  0  0
  -23.3880  -13.4220   22.0780 N   0  0  0  0  0  0  0  0  0  0  0  0
  -23.5290  -15.2010   20.7410 O   0  0  0  0  0  0  0  0  0  0  0  0
  -23.7870  -12.5590   22.4150 H   0  0  0  0  0  0  0  0  0  0  0  0
  -22.5120  -13.7440   22.4620 H   0  0  0  0  0  0  0  0  0  0  0  0
  -26.5400  -15.7570   20.0340 N   0  0  0  0  0  0  0  0  0  0  0  0
  -25.7870  -16.3990   20.2610 H   0  0  0  0  0  0  0  0  0  0  0  0
  -27.2330  -16.1690   19.4230 H   0  0  0  0  0  0  0  0  0  0  0  0
  2  5  1  0
  2 28  1  0
  4  6  2  0
  5  8  1  0
  6  1  1  0
  6  5  1  0
  7  3  1  0
  7  9  1  0
  7  4  1  0
 10 21  2  0
 11 17  1  0
 11  9  1  0
 11 16  1  0
 12 19  1  0
 12 20  1  0
 12 22  1  0
 13 18  1  0
 13 19  1  0
 13 15  1  0
 14 20  1  0
 15 16  1  0
 15 14  1  0
 17 18  1  0
 20 10  1  0
 22 24  2  0
 22 23  1  0
 23 27  1  0
 25 23  1  0
 26 35  2  0
 26 31  1  0
 27 31  1  0
 28 27  1  0
 29 30  1  0
 30 26  1  0
 31 32  2  0
 32 33  1  0
 34 33  2  0
 35 34  1  0
 36 10  1  0
 36 37  1  0
 36 46  1  0
 37 40  1  0
 38 37  1  0
 38 42  1  0
 39 38  2  0
 42 41  1  0
 42 44  1  0
 44 45  1  0
 44 43  1  0
 46 49  1  1
 46 47  1  0
 48 46  1  0
 50 51  1  0
 50  1  1  0
 52 50  1  0
 53 50  1  0
 54 58  1  0
 54 55  1  0
 54 53  1  0
 55 57  1  0
 55 56  1  0
 59 58  1  0
 59 68  1  0
 60 68  1  0
 60 66  1  0
 61 66  1  0
 62 63  1  0
 62 61  1  0
 64 63  1  0
 64 73  1  0
 64 65  1  0
 66 65  1  0
 67 60  2  0
 68 69  1  0
 70 71  2  0
 71 90  1  0
 72 71  1  0
 72 75  1  0
 73 74  1  0
 73 70  1  0
 74 72  2  0
 75 76  1  0
 76 77  2  0
 78 81  1  0
 78 77  1  0
 79 78  2  0
 80 79  1  0
 80 75  2  0
 81 82  1  0
 82 87  2  0
 82 83  1  0
 83 84  2  0
 84 85  1  0
 85 89  1  0
 86 85  2  0
 87 86  1  0
 88 87  1  0
 90 91  1  0
 91 93  1  0
 91 94  1  0
 92 90  2  0
 95 70  1  0
 95 96  1  0
 97 95  1  0
M  ISO  4   7 101   9 101  60 100  68 100
M  END
>  <TORSDO>  (16) 
F 23

>  <SCORE>  (16) 
-6.833

>  <name>  (16) 
15

>  <ligand_id>  (16) 
15

>  <original_smiles>  (16) 
[H]c1c([H])c([H])c2c(c1[H])C([H])([H])C([H])([H])C([H])([H])C2([H])N([H])C(=O)C1([H])N(C(=O)C([H])(N([H])C(=O)C([H])(N([H])C([H])([H])[H])C([H])([H])[H])C(C([H])([H])[H])(C([H])([H])[H])C([H])([H])[H])C([H])([H])c2c([H])c(Oc3c([H])c([H])c(C([H])([H])[H])c(C([H])([H])[N+]([H])([H])C([H])([H])C([H])(N([H])[H])C([H])([H])C([H])([H])N([H])C(=O)N4C([H])([H])C([H])([H])C([H])([H])C([H])(n5nc(-c6c([H])c([H])c(Oc7c([H])c([H])c(F)c([H])c7F)c([H])c6[H])c(C(=O)N([H])[H])c5N([H])[H])C4([H])[H])c3[H])c([H])c([H])c2C1([H])[H]

>  <smiles>  (16) 
[H]c1c([H])c([H])c2c(c1[H])C([H])([H])C([H])([H])C([H])([H])C2([H])N([H])C(=O)C1([H])N(C(=O)C([H])(N([H])C(=O)C([H])(N([H])C([H])([H])[H])C([H])([H])[H])C(C([H])([H])[H])(C([H])([H])[H])C([H])([H])[H])C([H])([H])c2c([H])c(Oc3c([H])c([H])c(C([H])([H])[H])c(C([H])([H])[N+]([H])([H])C([H])([H])C([H])(N([H])[H])C([H])([H])C([H])([H])N([H])C(=O)N4C([H])([H])C([H])([H])C([H])([H])C([H])(n5nc(-c6c([H])c([H])c(Oc7c([H])c([H])c(F)c([H])c7F)c([H])c6[H])c(C(=O)N([H])[H])c5N([H])[H])C4([H])[H])c3[H])c([H])c([H])c2C1([H])[H]

$$$$
16:0:0
     RDKit          3D

 88 95  0  0  1  0  0  0  0  0999 V2000
  -28.7880  -22.7360   20.6310 C   0  0  0  0  0  3  0  0  0  0  0  0
  -28.9940  -21.2220   19.9490 N   0  0  0  0  0  4  0  0  0  0  0  0
  -28.2940  -21.1410   19.2290 H   0  0  0  0  0  0  0  0  0  0  0  0
  -29.8740  -21.3440   19.4680 H   0  0  0  0  0  0  0  0  0  0  0  0
  -29.1060  -19.6980   20.6300 C   0  0  0  0  0  3  0  0  0  0  0  0
  -29.7870  -18.1660   19.9620 C   0  0  0  0  0  3  0  0  0  0  0  0
  -30.4120  -15.2830   20.2160 C   0  0  0  0  0  0  0  0  0  0  0  0
  -30.3650  -12.8410   19.3440 C   0  0  0  0  0  2  0  0  0  0  0  0
  -29.4370  -12.6630   18.1160 C   0  0  0  0  0  2  0  0  0  0  0  0
  -27.9880  -12.4030   18.5610 C   0  0  0  0  0  2  0  0  0  0  0  0
  -27.5560  -13.3540   19.7050 C   0  0  0  0  0  3  0  0  0  0  0  0
  -28.6130  -13.4800   20.8250 C   0  0  0  0  0  2  0  0  0  0  0  0
  -29.8460  -13.9770   20.1930 N   0  0  0  0  0  0  0  0  0  0  0  0
  -31.6120  -15.2910   19.9070 O   0  0  0  0  0  0  0  0  0  0  0  0
  -29.6560  -16.5490   20.3840 N   0  0  0  0  0  0  0  0  0  0  0  0
  -28.7200  -16.3410   20.7020 H   0  0  0  0  0  0  0  0  0  0  0  0
  -25.1880  -13.9150   20.4690 C   0  0  0  0  0  0  0  0  0  0  0  0
  -24.1290  -13.1400   20.8490 C   0  0  0  0  0  0  0  0  0  0  0  0
  -24.5970  -11.7890   20.8210 C   0  0  0  0  0  0  0  0  0  0  0  0
  -26.2300  -13.0390   20.2220 N   0  0  0  0  0  0  0  0  0  0  0  0
  -25.8880  -11.7550   20.5030 N   0  0  0  0  0  0  0  0  0  0  0  0
  -23.8710  -10.5270   21.0210 C   0  0  0  0  0  0  0  0  0  0  0  0
  -24.3160   -9.5570   21.9460 C   0  0  0  0  0  3  0  0  0  0  0  0
  -23.5870   -8.3630   22.1350 C   0  0  0  0  0  3  0  0  0  0  0  0
  -22.4000   -8.1300   21.4010 C   0  0  0  0  0  0  0  0  0  0  0  0
  -21.9740   -9.0900   20.4650 C   0  0  0  0  0  3  0  0  0  0  0  0
  -22.7030  -10.2750   20.2740 C   0  0  0  0  0  3  0  0  0  0  0  0
  -21.6420   -6.9890   21.5010 O   0  0  0  0  0  0  0  0  0  0  0  0
  -21.6230   -6.2350   22.6470 C   0  0  0  0  0  0  0  0  0  0  0  0
  -21.2470   -6.7820   23.8930 C   0  0  0  0  0  3  0  0  0  0  0  0
  -21.1730   -5.9560   25.0310 C   0  0  0  0  0  3  0  0  0  0  0  0
  -21.4660   -4.5830   24.9260 C   0  0  0  0  0  0  0  0  0  0  0  0
  -21.8350   -4.0350   23.6850 C   0  0  0  0  0  3  0  0  0  0  0  0
  -21.9100   -4.8590   22.5480 C   0  0  0  0  0  0  0  0  0  0  0  0
  -22.2460   -4.3210   21.3510 F   0  0  0  0  0  0  0  0  0  0  0  0
  -21.3890   -3.7870   26.0190 F   0  0  0  0  0  0  0  0  0  0  0  0
  -22.7340  -13.6180   21.1210 C   0  0  0  0  0  0  0  0  0  0  0  0
  -22.0100  -12.9300   21.9970 N   0  0  0  0  0  0  0  0  0  0  0  0
  -22.2950  -14.6380   20.5930 O   0  0  0  0  0  0  0  0  0  0  0  0
  -22.3790  -12.1060   22.4470 H   0  0  0  0  0  0  0  0  0  0  0  0
  -21.0740  -13.2330   22.2210 H   0  0  0  0  0  0  0  0  0  0  0  0
  -25.3470  -15.2850   20.2810 N   0  0  0  0  0  0  0  0  0  0  0  0
  -24.5730  -15.9320   20.3830 H   0  0  0  0  0  0  0  0  0  0  0  0
  -26.1750  -15.7190   19.8960 H   0  0  0  0  0  0  0  0  0  0  0  0
  -30.2040  -23.0810   21.0700 C   0  0  0  0  0  3  0  0  0  0  0  0
  -31.2080  -22.7610   20.4260 O   0  0  0  0  0  0  0  0  0  0  0  0
  -28.1290  -24.2670   19.9370 C   0  0  0  0  0  2  0  0  0  0  0  0
  -28.2030  -25.8750   20.3340 O   0  0  0  0  0  0  0  0  0  0  0  0
  -24.6410  -31.8590   23.2040 C   0  0  0  0  0  0  0  0  0  0  0  0
  -27.1890  -26.9630   20.2160 C   0  0  0  0  0  0  0  0  0  0  0  0
  -23.4440  -30.4540   21.5750 C   0  0  0  0  0  3  0  0  0  0  0  0
  -24.8880  -28.8400   20.1570 C   0  0  0  0  0  0  0  0  0  0  0  0
  -26.0080  -30.6630   21.4250 C   0  0  0  0  0  2  0  0  0  0  0  0
  -26.0750  -29.2490   20.7770 C   0  0  0  0  0  0  0  0  0  0  0  0
  -27.2160  -28.3290   20.7860 C   0  0  0  0  0  3  0  0  0  0  0  0
  -25.9760  -26.7080   19.5350 C   0  0  0  0  0  3  0  0  0  0  0  0
  -24.8650  -27.5910   19.5150 C   0  0  0  0  0  3  0  0  0  0  0  0
  -23.6700  -29.7610   20.2020 C   0  0  0  0  0  2  0  0  0  0  0  0
  -24.7200  -31.0190   22.1210 N   0  0  0  0  0  0  0  0  0  0  0  0
  -23.5530  -32.1530   23.7250 O   0  0  0  0  0  0  0  0  0  0  0  0
  -22.7500  -29.4660   22.5490 C   0  0  0  0  0  0  0  0  0  0  0  0
  -21.4180  -29.3070   22.4330 N   0  0  0  0  0  0  0  0  0  0  0  0
  -23.4170  -28.8410   23.3770 O   0  0  0  0  0  0  0  0  0  0  0  0
  -20.9340  -29.8620   21.7410 H   0  0  0  0  0  0  0  0  0  0  0  0
  -18.0340  -28.1110   22.9570 C   0  0  0  0  0  0  0  0  0  0  0  0
  -20.5950  -28.3770   23.2120 C   0  0  0  0  0  3  0  0  0  0  0  0
  -20.6930  -26.9400   22.6470 C   0  0  0  0  0  2  0  0  0  0  0  0
  -19.5880  -26.6110   21.6390 C   0  0  0  0  0  2  0  0  0  0  0  0
  -18.2080  -26.7590   22.2860 C   0  0  0  0  0  2  0  0  0  0  0  0
  -19.1530  -28.8770   23.3780 C   0  0  0  0  0  0  0  0  0  0  0  0
  -18.9330  -30.1400   23.9690 C   0  0  0  0  0  3  0  0  0  0  0  0
  -17.6270  -30.6370   24.1410 C   0  0  0  0  0  3  0  0  0  0  0  0
  -16.5240  -29.8690   23.7350 C   0  0  0  0  0  3  0  0  0  0  0  0
  -16.7270  -28.6080   23.1490 C   0  0  0  0  0  3  0  0  0  0  0  0
  -25.9140  -32.5050   23.8300 C   0  0  0  0  0  3  0  0  0  0  0  0
  -25.5940  -33.9040   24.1670 N   0  0  0  0  0  0  0  0  0  0  0  0
  -25.9200  -34.9670   23.4200 C   0  0  0  0  0  0  0  0  0  0  0  0
  -26.5820  -34.8740   22.3840 O   0  0  0  0  0  0  0  0  0  0  0  0
  -25.0030  -34.0480   24.9720 H   0  0  0  0  0  0  0  0  0  0  0  0
  -24.1820  -36.7640   23.1060 C   0  0  0  0  0  1  0  0  0  0  0  0
  -25.4360  -36.3540   23.8940 C   0  0  0  0  0  3  0  0  0  0  0  0
  -27.5810  -37.2420   24.6970 C   0  0  0  0  0  1  0  0  0  0  0  0
  -26.4640  -37.4110   23.7720 N   0  0  0  0  0  0  0  0  0  0  0  0
  -26.0580  -38.3290   23.9280 H   0  0  0  0  0  0  0  0  0  0  0  0
  -26.4250  -31.7420   25.1170 C   0  0  1  0  0  0  0  0  0  0  0  0
  -25.3290  -31.5160   26.1840 C   0  0  0  0  0  1  0  0  0  0  0  0
  -27.0060  -30.3600   24.7440 C   0  0  0  0  0  1  0  0  0  0  0  0
  -27.5760  -32.5400   25.7740 C   0  0  0  0  0  1  0  0  0  0  0  0
  1 47  1  0
  1 45  1  0
  2  5  1  0
  2  1  1  0
  3  2  1  0
  4  2  1  0
  6 15  1  0
  6  5  2  0
  7 15  1  0
  8 13  1  0
  9 10  1  0
  9  8  1  0
 11 10  1  0
 11 20  1  0
 11 12  1  0
 13  7  1  0
 13 12  1  0
 14  7  2  0
 15 16  1  0
 17 18  2  0
 18 37  1  0
 19 18  1  0
 19 22  1  0
 20 17  1  0
 20 21  1  0
 21 19  2  0
 22 23  1  0
 23 24  2  0
 25 28  1  0
 25 24  1  0
 26 25  2  0
 27 26  1  0
 27 22  2  0
 28 29  1  0
 29 30  1  0
 30 31  2  0
 32 31  1  0
 32 36  1  0
 33 32  2  0
 34 29  2  0
 34 33  1  0
 35 34  1  0
 37 38  1  0
 38 41  1  0
 38 40  1  0
 39 37  2  0
 42 43  1  0
 42 17  1  0
 44 42  1  0
 46 45  2  0
 47 48  1  0
 49 60  2  0
 50 48  1  0
 50 55  1  0
 51 59  1  0
 51 61  1  0
 52 58  1  0
 52 54  1  0
 53 59  1  0
 54 55  2  0
 54 53  1  0
 56 50  2  0
 57 56  1  0
 57 52  2  0
 58 51  1  0
 59 49  1  0
 61 63  2  0
 62 61  1  0
 64 62  1  0
 65 74  2  0
 65 70  1  0
 66 62  1  0
 66 70  1  0
 67 66  1  0
 68 69  1  0
 68 67  1  0
 69 65  1  0
 70 71  2  0
 71 72  1  0
 73 72  2  0
 74 73  1  0
 75 49  1  0
 75 76  1  0
 75 85  1  0
 76 79  1  0
 77 81  1  0
 77 76  1  0
 78 77  2  0
 81 80  1  0
 83 81  1  0
 83 84  1  0
 83 82  1  0
 85 88  1  1
 85 86  1  0
 87 85  1  0
M  ISO  4   7 100  15 100  47 101  48 101
M  END
>  <TORSDO>  (17) 
F 21

>  <SCORE>  (17) 
-16.189

>  <name>  (17) 
16

>  <ligand_id>  (17) 
16

>  <original_smiles>  (17) 
[H]C(=O)C([H])(C([H])([H])Oc1c([H])c([H])c2c(c1[H])C([H])([H])N(C(=O)C([H])(N([H])C(=O)C([H])(N([H])C([H])([H])[H])C([H])([H])[H])C(C([H])([H])[H])(C([H])([H])[H])C([H])([H])[H])C([H])(C(=O)N([H])C1([H])c3c([H])c([H])c([H])c([H])c3C([H])([H])C([H])([H])C1([H])[H])C2([H])[H])[N+]([H])([H])C([H])([H])C([H])([H])N([H])C(=O)N1C([H])([H])C([H])([H])C([H])([H])C([H])(n2nc(-c3c([H])c([H])c(Oc4c([H])c([H])c(F)c([H])c4F)c([H])c3[H])c(C(=O)N([H])[H])c2N([H])[H])C1([H])[H]

>  <smiles>  (17) 
[H]C(=O)C([H])(C([H])([H])Oc1c([H])c([H])c2c(c1[H])C([H])([H])N(C(=O)C([H])(N([H])C(=O)C([H])(N([H])C([H])([H])[H])C([H])([H])[H])C(C([H])([H])[H])(C([H])([H])[H])C([H])([H])[H])C([H])(C(=O)N([H])C1([H])c3c([H])c([H])c([H])c([H])c3C([H])([H])C([H])([H])C1([H])[H])C2([H])[H])[N+]([H])([H])C([H])([H])C([H])([H])N([H])C(=O)N1C([H])([H])C([H])([H])C([H])([H])C([H])(n2nc(-c3c([H])c([H])c(Oc4c([H])c([H])c(F)c([H])c4F)c([H])c3[H])c(C(=O)N([H])[H])c2N([H])[H])C1([H])[H]

$$$$
17:0:0
     RDKit          3D

 92100  0  0  1  0  0  0  0  0999 V2000
  -29.6900  -21.9380   21.1270 C   0  0  0  0  0  2  0  0  0  0  0  0
  -32.2790  -19.3690   19.8630 C   0  0  0  0  0  3  0  0  0  0  0  0
  -31.6090  -18.1400   20.0430 C   0  0  0  0  0  3  0  0  0  0  0  0
  -31.6500  -20.5890   20.1800 C   0  0  0  0  0  3  0  0  0  0  0  0
  -29.6540  -19.3540   20.8260 C   0  0  0  0  0  3  0  0  0  0  0  0
  -30.2840  -18.1090   20.5230 C   0  0  0  0  0  0  0  0  0  0  0  0
  -30.3250  -20.6020   20.6700 C   0  0  0  0  0  0  0  0  0  0  0  0
  -29.4800  -16.7850   20.5970 C   0  0  0  0  0  2  0  0  0  0  0  0
  -30.6600  -14.5410   20.4360 C   0  0  0  0  0  0  0  0  0  0  0  0
  -30.3730  -12.3570   19.3140 C   0  0  0  0  0  2  0  0  0  0  0  0
  -29.4440  -12.5620   18.0970 C   0  0  0  0  0  2  0  0  0  0  0  0
  -27.9620  -12.4390   18.5030 C   0  0  0  0  0  2  0  0  0  0  0  0
  -27.6200  -13.2710   19.7700 C   0  0  0  0  0  3  0  0  0  0  0  0
  -28.6670  -13.0450   20.8880 C   0  0  0  0  0  2  0  0  0  0  0  0
  -30.0060  -13.3430   20.3460 N   0  0  0  0  0  0  0  0  0  0  0  0
  -31.7260  -14.7520   19.8540 O   0  0  0  0  0  0  0  0  0  0  0  0
  -30.0380  -15.5160   21.1380 N   0  0  0  0  0  0  0  0  0  0  0  0
  -29.4330  -15.1250   21.8430 H   0  0  0  0  0  0  0  0  0  0  0  0
  -25.2140  -13.8880   20.4560 C   0  0  0  0  0  0  0  0  0  0  0  0
  -24.1430  -13.1230   20.8280 C   0  0  0  0  0  0  0  0  0  0  0  0
  -24.6000  -11.7690   20.8100 C   0  0  0  0  0  0  0  0  0  0  0  0
  -26.2610  -13.0050   20.2400 N   0  0  0  0  0  0  0  0  0  0  0  0
  -25.8930  -11.7260   20.5090 N   0  0  0  0  0  0  0  0  0  0  0  0
  -23.8660  -10.5110   21.0080 C   0  0  0  0  0  0  0  0  0  0  0  0
  -24.2970   -9.5460   21.9460 C   0  0  0  0  0  3  0  0  0  0  0  0
  -23.5650   -8.3530   22.1340 C   0  0  0  0  0  3  0  0  0  0  0  0
  -22.3880   -8.1170   21.3840 C   0  0  0  0  0  0  0  0  0  0  0  0
  -21.9750   -9.0730   20.4360 C   0  0  0  0  0  3  0  0  0  0  0  0
  -22.7080  -10.2560   20.2480 C   0  0  0  0  0  3  0  0  0  0  0  0
  -21.6280   -6.9770   21.4800 O   0  0  0  0  0  0  0  0  0  0  0  0
  -21.5870   -6.2310   22.6310 C   0  0  0  0  0  0  0  0  0  0  0  0
  -21.1870   -6.7880   23.8660 C   0  0  0  0  0  3  0  0  0  0  0  0
  -21.0950   -5.9690   25.0090 C   0  0  0  0  0  3  0  0  0  0  0  0
  -21.3920   -4.5970   24.9190 C   0  0  0  0  0  0  0  0  0  0  0  0
  -21.7830   -4.0390   23.6890 C   0  0  0  0  0  3  0  0  0  0  0  0
  -21.8780   -4.8540   22.5480 C   0  0  0  0  0  0  0  0  0  0  0  0
  -22.2370   -4.3100   21.3600 F   0  0  0  0  0  0  0  0  0  0  0  0
  -21.2940   -3.8080   26.0150 F   0  0  0  0  0  0  0  0  0  0  0  0
  -22.7450  -13.6080   21.0900 C   0  0  0  0  0  0  0  0  0  0  0  0
  -22.0110  -12.9250   21.9600 N   0  0  0  0  0  0  0  0  0  0  0  0
  -22.3130  -14.6280   20.5550 O   0  0  0  0  0  0  0  0  0  0  0  0
  -22.3760  -12.1030   22.4170 H   0  0  0  0  0  0  0  0  0  0  0  0
  -21.0700  -13.2300   22.1710 H   0  0  0  0  0  0  0  0  0  0  0  0
  -25.3790  -15.2570   20.2690 N   0  0  0  0  0  0  0  0  0  0  0  0
  -24.6010  -15.9020   20.3610 H   0  0  0  0  0  0  0  0  0  0  0  0
  -26.2300  -15.7030   19.9540 H   0  0  0  0  0  0  0  0  0  0  0  0
  -29.5380  -22.9980   20.0810 N   0  0  0  0  0  4  0  0  0  0  0  0
  -30.3400  -22.9520   19.4720 H   0  0  0  0  0  0  0  0  0  0  0  0
  -28.7370  -22.7620   19.5180 H   0  0  0  0  0  0  0  0  0  0  0  0
  -29.4110  -24.4100   20.5870 C   0  0  0  0  0  2  0  0  0  0  0  0
  -28.4140  -25.2920   19.7760 C   0  0  0  0  0  2  0  0  0  0  0  0
  -28.4030  -26.6840   20.1840 O   0  0  0  0  0  0  0  0  0  0  0  0
  -24.5920  -31.8910   23.2290 C   0  0  0  0  0  0  0  0  0  0  0  0
  -27.2220  -27.4160   20.1390 C   0  0  0  0  0  0  0  0  0  0  0  0
  -23.3780  -30.4930   21.5900 C   0  0  0  0  0  3  0  0  0  0  0  0
  -24.8260  -28.9540   20.1540 C   0  0  0  0  0  0  0  0  0  0  0  0
  -25.9070  -30.8390   21.3850 C   0  0  0  0  0  2  0  0  0  0  0  0
  -25.9870  -29.4650   20.7460 C   0  0  0  0  0  0  0  0  0  0  0  0
  -27.1820  -28.7040   20.7380 C   0  0  0  0  0  3  0  0  0  0  0  0
  -26.0360  -26.9390   19.5250 C   0  0  0  0  0  3  0  0  0  0  0  0
  -24.8490  -27.6920   19.5400 C   0  0  0  0  0  3  0  0  0  0  0  0
  -23.5820  -29.8140   20.2090 C   0  0  0  0  0  2  0  0  0  0  0  0
  -24.6440  -31.0880   22.1280 N   0  0  0  0  0  0  0  0  0  0  0  0
  -23.5130  -32.1650   23.7730 O   0  0  0  0  0  0  0  0  0  0  0  0
  -22.7270  -29.4730   22.5510 C   0  0  0  0  0  0  0  0  0  0  0  0
  -21.4000  -29.2950   22.4290 N   0  0  0  0  0  0  0  0  0  0  0  0
  -23.4110  -28.8420   23.3640 O   0  0  0  0  0  0  0  0  0  0  0  0
  -20.9100  -29.8530   21.7430 H   0  0  0  0  0  0  0  0  0  0  0  0
  -18.0250  -28.1150   22.9390 C   0  0  0  0  0  0  0  0  0  0  0  0
  -20.5830  -28.3580   23.2010 C   0  0  0  0  0  3  0  0  0  0  0  0
  -20.6770  -26.9300   22.6180 C   0  0  0  0  0  2  0  0  0  0  0  0
  -19.5690  -26.6180   21.6070 C   0  0  0  0  0  2  0  0  0  0  0  0
  -18.1900  -26.7670   22.2570 C   0  0  0  0  0  2  0  0  0  0  0  0
  -19.1480  -28.8690   23.3680 C   0  0  0  0  0  0  0  0  0  0  0  0
  -18.9390  -30.1330   23.9630 C   0  0  0  0  0  3  0  0  0  0  0  0
  -17.6390  -30.6420   24.1320 C   0  0  0  0  0  3  0  0  0  0  0  0
  -16.5290  -29.8850   23.7200 C   0  0  0  0  0  3  0  0  0  0  0  0
  -16.7220  -28.6230   23.1300 C   0  0  0  0  0  3  0  0  0  0  0  0
  -25.8810  -32.5170   23.8470 C   0  0  0  0  0  3  0  0  0  0  0  0
  -25.5770  -33.9140   24.1800 N   0  0  0  0  0  0  0  0  0  0  0  0
  -25.9130  -34.9690   23.4240 C   0  0  0  0  0  0  0  0  0  0  0  0
  -26.5820  -34.8650   22.3930 O   0  0  0  0  0  0  0  0  0  0  0  0
  -24.9780  -34.0690   24.9790 H   0  0  0  0  0  0  0  0  0  0  0  0
  -24.1870  -36.7650   23.0710 C   0  0  0  0  0  1  0  0  0  0  0  0
  -25.4260  -36.3580   23.8840 C   0  0  0  0  0  3  0  0  0  0  0  0
  -27.5640  -37.2320   24.7140 C   0  0  0  0  0  1  0  0  0  0  0  0
  -26.4620  -37.4080   23.7720 N   0  0  0  0  0  0  0  0  0  0  0  0
  -26.0610  -38.3300   23.9220 H   0  0  0  0  0  0  0  0  0  0  0  0
  -26.4000  -31.7410   25.1200 C   0  0  1  0  0  0  0  0  0  0  0  0
  -25.3080  -31.5050   26.1890 C   0  0  0  0  0  1  0  0  0  0  0  0
  -26.9750  -30.3640   24.7170 C   0  0  0  0  0  1  0  0  0  0  0  0
  -27.5530  -32.5300   25.7800 C   0  0  0  0  0  1  0  0  0  0  0  0
  2  3  2  0
  2  4  1  0
  3  6  1  0
  4  7  2  0
  6  8  1  0
  6  5  2  0
  7  5  1  0
  7  1  1  0
  8 17  1  0
  9 17  1  0
 10 15  1  0
 11 12  1  0
 11 10  1  0
 13 12  1  0
 13 22  1  0
 13 14  1  0
 15  9  1  0
 15 14  1  0
 16  9  2  0
 17 18  1  0
 19 20  2  0
 20 39  1  0
 21 20  1  0
 21 24  1  0
 22 19  1  0
 22 23  1  0
 23 21  2  0
 24 25  1  0
 25 26  2  0
 27 30  1  0
 27 26  1  0
 28 27  2  0
 29 28  1  0
 29 24  2  0
 30 31  1  0
 31 32  1  0
 32 33  2  0
 34 33  1  0
 34 38  1  0
 35 34  2  0
 36 31  2  0
 36 35  1  0
 37 36  1  0
 39 40  1  0
 40 43  1  0
 40 42  1  0
 41 39  2  0
 44 45  1  0
 44 19  1  0
 46 44  1  0
 47 50  1  0
 47  1  1  0
 48 47  1  0
 49 47  1  0
 51 52  1  0
 51 50  1  0
 53 64  2  0
 54 52  1  0
 54 59  1  0
 55 63  1  0
 55 65  1  0
 56 62  1  0
 56 58  1  0
 57 63  1  0
 58 57  1  0
 59 58  2  0
 60 61  1  0
 60 54  2  0
 61 56  2  0
 62 55  1  0
 63 53  1  0
 65 67  2  0
 66 65  1  0
 68 66  1  0
 69 78  2  0
 69 74  1  0
 70 66  1  0
 70 74  1  0
 71 70  1  0
 72 73  1  0
 72 71  1  0
 73 69  1  0
 74 75  2  0
 75 76  1  0
 77 76  2  0
 78 77  1  0
 79 53  1  0
 79 80  1  0
 79 89  1  0
 80 83  1  0
 81 85  1  0
 81 80  1  0
 82 81  2  0
 85 84  1  0
 87 85  1  0
 87 88  1  0
 87 86  1  0
 89 92  1  1
 89 90  1  0
 91 89  1  0
M  ISO  4   9 100  17 100  51 101  52 101
M  END
>  <TORSDO>  (18) 
F 21

>  <SCORE>  (18) 
-13.521

>  <name>  (18) 
17

>  <ligand_id>  (18) 
17

>  <original_smiles>  (18) 
[H]c1c([H])c([H])c2c(c1[H])C([H])([H])C([H])([H])C([H])([H])C2([H])N([H])C(=O)C1([H])N(C(=O)C([H])(N([H])C(=O)C([H])(N([H])C([H])([H])[H])C([H])([H])[H])C(C([H])([H])[H])(C([H])([H])[H])C([H])([H])[H])C([H])([H])c2c([H])c(OC([H])([H])C([H])([H])[N+]([H])([H])C([H])([H])c3c([H])c([H])c([H])c(C([H])([H])N([H])C(=O)N4C([H])([H])C([H])([H])C([H])([H])C([H])(n5nc(-c6c([H])c([H])c(Oc7c([H])c([H])c(F)c([H])c7F)c([H])c6[H])c(C(=O)N([H])[H])c5N([H])[H])C4([H])[H])c3[H])c([H])c([H])c2C1([H])[H]

>  <smiles>  (18) 
[H]c1c([H])c([H])c2c(c1[H])C([H])([H])C([H])([H])C([H])([H])C2([H])N([H])C(=O)C1([H])N(C(=O)C([H])(N([H])C(=O)C([H])(N([H])C([H])([H])[H])C([H])([H])[H])C(C([H])([H])[H])(C([H])([H])[H])C([H])([H])[H])C([H])([H])c2c([H])c(OC([H])([H])C([H])([H])[N+]([H])([H])C([H])([H])c3c([H])c([H])c([H])c(C([H])([H])N([H])C(=O)N4C([H])([H])C([H])([H])C([H])([H])C([H])(n5nc(-c6c([H])c([H])c(Oc7c([H])c([H])c(F)c([H])c7F)c([H])c6[H])c(C(=O)N([H])[H])c5N([H])[H])C4([H])[H])c3[H])c([H])c([H])c2C1([H])[H]

$$$$
18:0:0
     RDKit          3D

 91 99  0  0  1  0  0  0  0  0999 V2000
  -30.5800  -20.0760   21.0360 C   0  0  0  0  0  2  0  0  0  0  0  0
  -28.4110  -19.5340   20.2220 C   0  0  0  0  0  2  0  0  0  0  0  0
  -30.4060  -21.6110   20.6290 C   0  0  0  0  0  2  0  0  0  0  0  0
  -28.2130  -21.0810   19.7590 C   0  0  0  0  0  2  0  0  0  0  0  0
  -29.8820  -18.9280   20.1740 C   0  0  2  0  0  0  0  0  0  0  0  0
  -29.0030  -22.1530   20.4960 N   0  0  2  0  0  4  0  0  0  0  0  0
  -28.6320  -22.1850   21.4380 H   0  0  0  0  0  0  0  0  0  0  0  0
  -30.2020  -17.3590   20.7110 C   0  0  0  0  0  3  0  0  0  0  0  0
  -31.2250  -17.3490   21.8570 C   0  0  0  0  0  1  0  0  0  0  0  0
  -29.7640  -16.1800   20.2360 N   0  0  0  0  0  2  0  0  0  0  0  0
  -30.5570  -14.9410   20.2430 C   0  0  0  0  0  0  0  0  0  0  0  0
  -30.3880  -12.5980   19.3510 C   0  0  0  0  0  2  0  0  0  0  0  0
  -29.4740  -12.6200   18.1070 C   0  0  0  0  0  2  0  0  0  0  0  0
  -27.9980  -12.4390   18.5140 C   0  0  0  0  0  2  0  0  0  0  0  0
  -27.5960  -13.3510   19.7030 C   0  0  0  0  0  3  0  0  0  0  0  0
  -28.6420  -13.3420   20.8310 C   0  0  0  0  0  2  0  0  0  0  0  0
  -29.9420  -13.6980   20.2480 N   0  0  0  0  0  0  0  0  0  0  0  0
  -31.7750  -14.9450   20.0360 O   0  0  0  0  0  0  0  0  0  0  0  0
  -25.2110  -13.9160   20.4470 C   0  0  0  0  0  0  0  0  0  0  0  0
  -24.1500  -13.1390   20.8170 C   0  0  0  0  0  0  0  0  0  0  0  0
  -24.6230  -11.7900   20.7950 C   0  0  0  0  0  0  0  0  0  0  0  0
  -26.2590  -13.0450   20.2040 N   0  0  0  0  0  0  0  0  0  0  0  0
  -25.9130  -11.7590   20.4800 N   0  0  0  0  0  0  0  0  0  0  0  0
  -23.9010  -10.5250   20.9930 C   0  0  0  0  0  0  0  0  0  0  0  0
  -24.3280   -9.5660   21.9360 C   0  0  0  0  0  3  0  0  0  0  0  0
  -23.6040   -8.3690   22.1220 C   0  0  0  0  0  3  0  0  0  0  0  0
  -22.4360   -8.1230   21.3630 C   0  0  0  0  0  0  0  0  0  0  0  0
  -22.0250   -9.0700   20.4080 C   0  0  0  0  0  3  0  0  0  0  0  0
  -22.7530  -10.2580   20.2210 C   0  0  0  0  0  3  0  0  0  0  0  0
  -21.6830   -6.9760   21.4570 O   0  0  0  0  0  0  0  0  0  0  0  0
  -21.6290   -6.2410   22.6150 C   0  0  0  0  0  0  0  0  0  0  0  0
  -21.1950   -6.8060   23.8340 C   0  0  0  0  0  3  0  0  0  0  0  0
  -21.0870   -5.9980   24.9850 C   0  0  0  0  0  3  0  0  0  0  0  0
  -21.4030   -4.6280   24.9160 C   0  0  0  0  0  0  0  0  0  0  0  0
  -21.8290   -4.0630   23.7000 C   0  0  0  0  0  3  0  0  0  0  0  0
  -21.9370   -4.8670   22.5530 C   0  0  0  0  0  0  0  0  0  0  0  0
  -22.3280   -4.3140   21.3790 F   0  0  0  0  0  0  0  0  0  0  0  0
  -21.2920   -3.8490   26.0170 F   0  0  0  0  0  0  0  0  0  0  0  0
  -22.7500  -13.6110   21.0830 C   0  0  0  0  0  0  0  0  0  0  0  0
  -22.0190  -12.9170   21.9490 N   0  0  0  0  0  0  0  0  0  0  0  0
  -22.3130  -14.6350   20.5580 O   0  0  0  0  0  0  0  0  0  0  0  0
  -22.3830  -12.0960   22.4080 H   0  0  0  0  0  0  0  0  0  0  0  0
  -21.0780  -13.2200   22.1600 H   0  0  0  0  0  0  0  0  0  0  0  0
  -25.3690  -15.2860   20.2670 N   0  0  0  0  0  0  0  0  0  0  0  0
  -24.6120  -15.9470   20.3990 H   0  0  0  0  0  0  0  0  0  0  0  0
  -26.2350  -15.7210   19.9730 H   0  0  0  0  0  0  0  0  0  0  0  0
  -29.7880  -18.1750   17.6250 C   0  0  0  0  0  1  0  0  0  0  0  0
  -30.4540  -19.0340   18.7190 C   0  0  0  0  0  2  0  0  0  0  0  0
  -28.9780  -23.6350   19.9430 C   0  0  0  0  0  3  0  0  0  0  0  0
  -28.0710  -24.8530   20.5810 C   0  0  0  0  0  3  0  0  0  0  0  0
  -28.3050  -26.3380   20.2680 O   0  0  0  0  0  0  0  0  0  0  0  0
  -24.6080  -31.9320   23.2440 C   0  0  0  0  0  0  0  0  0  0  0  0
  -27.2220  -27.2660   20.2420 C   0  0  0  0  0  0  0  0  0  0  0  0
  -23.4190  -30.5200   21.6080 C   0  0  0  0  0  3  0  0  0  0  0  0
  -24.8790  -28.9540   20.1950 C   0  0  0  0  0  0  0  0  0  0  0  0
  -25.9660  -30.8130   21.4410 C   0  0  0  0  0  2  0  0  0  0  0  0
  -26.0490  -29.4200   20.8050 C   0  0  0  0  0  0  0  0  0  0  0  0
  -27.2250  -28.5910   20.8140 C   0  0  0  0  0  3  0  0  0  0  0  0
  -26.0290  -26.8840   19.5890 C   0  0  0  0  0  3  0  0  0  0  0  0
  -24.8770  -27.6950   19.5730 C   0  0  0  0  0  3  0  0  0  0  0  0
  -23.6480  -29.8420   20.2310 C   0  0  0  0  0  2  0  0  0  0  0  0
  -24.6850  -31.1080   22.1550 N   0  0  0  0  0  0  0  0  0  0  0  0
  -23.5190  -32.2120   23.7690 O   0  0  0  0  0  0  0  0  0  0  0  0
  -22.7480  -29.5080   22.5700 C   0  0  0  0  0  0  0  0  0  0  0  0
  -21.4210  -29.3320   22.4450 N   0  0  0  0  0  0  0  0  0  0  0  0
  -23.4240  -28.8850   23.3920 O   0  0  0  0  0  0  0  0  0  0  0  0
  -20.9320  -29.8890   21.7580 H   0  0  0  0  0  0  0  0  0  0  0  0
  -18.0400  -28.1410   22.9580 C   0  0  0  0  0  0  0  0  0  0  0  0
  -20.6010  -28.3980   23.2210 C   0  0  0  0  0  3  0  0  0  0  0  0
  -20.6980  -26.9650   22.6470 C   0  0  0  0  0  2  0  0  0  0  0  0
  -19.5930  -26.6420   21.6370 C   0  0  0  0  0  2  0  0  0  0  0  0
  -18.2130  -26.7920   22.2840 C   0  0  0  0  0  2  0  0  0  0  0  0
  -19.1610  -28.9030   23.3840 C   0  0  0  0  0  0  0  0  0  0  0  0
  -18.9450  -30.1660   23.9760 C   0  0  0  0  0  3  0  0  0  0  0  0
  -17.6400  -30.6680   24.1500 C   0  0  0  0  0  3  0  0  0  0  0  0
  -16.5340  -29.9040   23.7390 C   0  0  0  0  0  3  0  0  0  0  0  0
  -16.7350  -28.6440   23.1480 C   0  0  0  0  0  3  0  0  0  0  0  0
  -25.8830  -32.5770   23.8690 C   0  0  0  0  0  3  0  0  0  0  0  0
  -26.3880  -31.8230   25.1600 C   0  0  1  0  0  0  0  0  0  0  0  0
  -25.2880  -31.5920   26.2220 C   0  0  0  0  0  1  0  0  0  0  0  0
  -26.9790  -30.4440   24.7870 C   0  0  0  0  0  1  0  0  0  0  0  0
  -27.5330  -32.6260   25.8230 C   0  0  0  0  0  1  0  0  0  0  0  0
  -25.5680  -33.9790   24.1820 N   0  0  0  0  0  0  0  0  0  0  0  0
  -25.9070  -35.0260   23.4190 C   0  0  0  0  0  0  0  0  0  0  0  0
  -26.5870  -34.9140   22.3940 O   0  0  0  0  0  0  0  0  0  0  0  0
  -24.9690  -34.1410   24.9790 H   0  0  0  0  0  0  0  0  0  0  0  0
  -24.1900  -36.8240   23.0270 C   0  0  0  0  0  1  0  0  0  0  0  0
  -25.4160  -36.4190   23.8610 C   0  0  0  0  0  3  0  0  0  0  0  0
  -27.5380  -37.3040   24.7230 C   0  0  0  0  0  1  0  0  0  0  0  0
  -26.4520  -37.4700   23.7600 N   0  0  0  0  0  0  0  0  0  0  0  0
  -26.0470  -38.3910   23.9000 H   0  0  0  0  0  0  0  0  0  0  0  0
  3  1  1  0
  4  2  1  0
  4  6  1  0
  5 48  1  6
  5  2  1  0
  5  8  1  0
  5  1  1  0
  6  3  1  0
  6  7  1  1
  8  9  1  0
 10 11  1  0
 10  8  1  0
 11 17  1  0
 12 17  1  0
 13 14  1  0
 13 12  1  0
 15 14  1  0
 15 22  1  0
 15 16  1  0
 17 16  1  0
 18 11  2  0
 19 20  2  0
 20 39  1  0
 21 20  1  0
 21 24  1  0
 22 19  1  0
 22 23  1  0
 23 21  2  0
 24 25  1  0
 25 26  2  0
 27 30  1  0
 27 26  1  0
 28 27  2  0
 29 28  1  0
 29 24  2  0
 30 31  1  0
 31 32  1  0
 32 33  2  0
 34 33  1  0
 34 38  1  0
 35 34  2  0
 36 31  2  0
 36 35  1  0
 37 36  1  0
 39 40  1  0
 40 43  1  0
 40 42  1  0
 41 39  2  0
 44 45  1  0
 44 19  1  0
 46 44  1  0
 47 48  1  0
 49  6  1  0
 49 50  2  0
 51 50  1  0
 52 63  2  0
 53 51  1  0
 53 58  1  0
 54 62  1  0
 54 64  1  0
 55 61  1  0
 55 57  1  0
 56 62  1  0
 57 58  2  0
 57 56  1  0
 59 53  2  0
 60 59  1  0
 60 55  2  0
 61 54  1  0
 62 52  1  0
 64 66  2  0
 65 64  1  0
 67 65  1  0
 68 77  2  0
 68 73  1  0
 69 65  1  0
 69 73  1  0
 70 69  1  0
 71 72  1  0
 71 70  1  0
 72 68  1  0
 73 74  2  0
 74 75  1  0
 76 75  2  0
 77 76  1  0
 78 52  1  0
 78 83  1  0
 78 79  1  0
 79 82  1  1
 79 80  1  0
 81 79  1  0
 83 86  1  0
 84 88  1  0
 84 83  1  0
 85 84  2  0
 88 87  1  0
 90 88  1  0
 90 91  1  0
 90 89  1  0
M  ISO  4  10 100  11 100  50 101  51 101
M  END
>  <TORSDO>  (19) 
F 20

>  <SCORE>  (19) 
-13.966

>  <name>  (19) 
18

>  <ligand_id>  (19) 
18

>  <original_smiles>  (19) 
[H]c1c([H])c([H])c2c(c1[H])C([H])([H])C([H])([H])C([H])([H])C2([H])N([H])C(=O)C1([H])N(C(=O)C([H])(N([H])C(=O)C([H])(N([H])C([H])([H])[H])C([H])([H])[H])C(C([H])([H])[H])(C([H])([H])[H])C([H])([H])[H])C([H])([H])c2c([H])c(OC([H])([H])C([H])([H])[N+]3([H])C([H])([H])C([H])([H])C(C(=NC(=O)N4C([H])([H])C([H])([H])C([H])([H])C([H])(n5nc(-c6c([H])c([H])c(Oc7c([H])c([H])c(F)c([H])c7F)c([H])c6[H])c(C(=O)N([H])[H])c5N([H])[H])C4([H])[H])C([H])([H])[H])(C([H])([H])C([H])([H])[H])C([H])([H])C3([H])[H])c([H])c([H])c2C1([H])[H]

>  <smiles>  (19) 
[H]c1c([H])c([H])c2c(c1[H])C([H])([H])C([H])([H])C([H])([H])C2([H])N([H])C(=O)C1([H])N(C(=O)C([H])(N([H])C(=O)C([H])(N([H])C([H])([H])[H])C([H])([H])[H])C(C([H])([H])[H])(C([H])([H])[H])C([H])([H])[H])C([H])([H])c2c([H])c(OC([H])([H])C([H])([H])[N+]3([H])C([H])([H])C([H])([H])C(C(=NC(=O)N4C([H])([H])C([H])([H])C([H])([H])C([H])(n5nc(-c6c([H])c([H])c(Oc7c([H])c([H])c(F)c([H])c7F)c([H])c6[H])c(C(=O)N([H])[H])c5N([H])[H])C4([H])[H])C([H])([H])[H])(C([H])([H])C([H])([H])[H])C([H])([H])C3([H])[H])c([H])c([H])c2C1([H])[H]

$$$$
19:0:0
     RDKit          3D

 93100  0  0  1  0  0  0  0  0999 V2000
  -29.1750  -23.0620   21.7410 C   0  0  0  0  0  2  0  0  0  0  0  0
  -27.2140  -24.1170   22.8530 C   0  0  0  0  0  1  0  0  0  0  0  0
  -28.6400  -24.2460   22.4650 N   0  0  2  0  0  4  0  0  0  0  0  0
  -29.1460  -24.2720   23.3390 H   0  0  0  0  0  0  0  0  0  0  0  0
  -28.9420  -25.5570   21.8250 C   0  0  0  0  0  2  0  0  0  0  0  0
  -28.5760  -25.6560   20.3300 C   0  0  0  0  0  2  0  0  0  0  0  0
  -28.5830  -27.0380   19.9820 O   0  0  0  0  0  0  0  0  0  0  0  0
  -24.6090  -31.9570   23.2390 C   0  0  0  0  0  0  0  0  0  0  0  0
  -27.3760  -27.6880   20.0480 C   0  0  0  0  0  0  0  0  0  0  0  0
  -23.4410  -30.5640   21.5640 C   0  0  0  0  0  3  0  0  0  0  0  0
  -24.9340  -29.0990   20.1090 C   0  0  0  0  0  0  0  0  0  0  0  0
  -25.9520  -31.0000   21.3740 C   0  0  0  0  0  2  0  0  0  0  0  0
  -26.0740  -29.6470   20.7070 C   0  0  0  0  0  0  0  0  0  0  0  0
  -27.2990  -28.9490   20.6740 C   0  0  0  0  0  3  0  0  0  0  0  0
  -26.2190  -27.1490   19.4410 C   0  0  0  0  0  3  0  0  0  0  0  0
  -24.9980  -27.8460   19.4760 C   0  0  0  0  0  3  0  0  0  0  0  0
  -23.6680  -29.9240   20.1700 C   0  0  0  0  0  2  0  0  0  0  0  0
  -24.6860  -31.1850   22.1190 N   0  0  0  0  0  0  0  0  0  0  0  0
  -23.5220  -32.1900   23.7840 O   0  0  0  0  0  0  0  0  0  0  0  0
  -22.8160  -29.5040   22.4990 C   0  0  0  0  0  0  0  0  0  0  0  0
  -21.4970  -29.2930   22.3640 N   0  0  0  0  0  0  0  0  0  0  0  0
  -23.5140  -28.8750   23.2980 O   0  0  0  0  0  0  0  0  0  0  0  0
  -20.9940  -29.8550   21.6920 H   0  0  0  0  0  0  0  0  0  0  0  0
  -18.1480  -28.0280   22.8470 C   0  0  0  0  0  0  0  0  0  0  0  0
  -20.7030  -28.3200   23.1150 C   0  0  0  0  0  3  0  0  0  0  0  0
  -20.8260  -26.9090   22.4980 C   0  0  0  0  0  2  0  0  0  0  0  0
  -19.7240  -26.5960   21.4810 C   0  0  0  0  0  2  0  0  0  0  0  0
  -18.3430  -26.7000   22.1360 C   0  0  0  0  0  2  0  0  0  0  0  0
  -19.2560  -28.7960   23.2940 C   0  0  0  0  0  0  0  0  0  0  0  0
  -19.0210  -30.0390   23.9190 C   0  0  0  0  0  3  0  0  0  0  0  0
  -17.7100  -30.5150   24.1070 C   0  0  0  0  0  3  0  0  0  0  0  0
  -16.6150  -29.7450   23.6760 C   0  0  0  0  0  3  0  0  0  0  0  0
  -16.8360  -28.5050   23.0500 C   0  0  0  0  0  3  0  0  0  0  0  0
  -25.8790  -32.6050   23.8720 C   0  0  0  0  0  3  0  0  0  0  0  0
  -26.3870  -31.8430   25.1570 C   0  0  1  0  0  0  0  0  0  0  0  0
  -25.2830  -31.5910   26.2100 C   0  0  0  0  0  1  0  0  0  0  0  0
  -26.9970  -30.4720   24.7770 C   0  0  0  0  0  1  0  0  0  0  0  0
  -27.5200  -32.6520   25.8300 C   0  0  0  0  0  1  0  0  0  0  0  0
  -25.5500  -34.0020   24.1880 N   0  0  0  0  0  0  0  0  0  0  0  0
  -25.8920  -35.0510   23.4270 C   0  0  0  0  0  0  0  0  0  0  0  0
  -26.5870  -34.9460   22.4130 O   0  0  0  0  0  0  0  0  0  0  0  0
  -24.9290  -34.1560   24.9690 H   0  0  0  0  0  0  0  0  0  0  0  0
  -24.1610  -36.8290   23.0060 C   0  0  0  0  0  1  0  0  0  0  0  0
  -25.3790  -36.4400   23.8580 C   0  0  0  0  0  3  0  0  0  0  0  0
  -27.4830  -37.3490   24.7430 C   0  0  0  0  0  1  0  0  0  0  0  0
  -26.4090  -37.4990   23.7650 N   0  0  0  0  0  0  0  0  0  0  0  0
  -25.9920  -38.4180   23.8870 H   0  0  0  0  0  0  0  0  0  0  0  0
  -29.6090  -21.9390   22.7050 C   0  0  0  0  0  2  0  0  0  0  0  0
  -30.0350  -20.6630   21.9600 C   0  0  0  0  0  2  0  0  0  0  0  0
  -30.3810  -19.5630   22.8900 N   0  0  0  0  0  4  0  0  0  0  0  0
  -30.4260  -19.9230   23.8300 H   0  0  0  0  0  0  0  0  0  0  0  0
  -29.6280  -18.8930   22.8800 H   0  0  0  0  0  0  0  0  0  0  0  0
  -31.6490  -18.8500   22.6090 C   0  0  0  0  0  2  0  0  0  0  0  0
  -31.4270  -17.3340   22.4540 C   0  0  0  0  0  2  0  0  0  0  0  0
  -30.9750  -16.9310   21.0400 C   0  0  0  0  0  2  0  0  0  0  0  0
  -31.0820  -14.5800   20.2310 C   0  0  0  0  0  0  0  0  0  0  0  0
  -30.7050  -12.4300   19.0940 C   0  0  0  0  0  2  0  0  0  0  0  0
  -29.7590  -12.6300   17.8930 C   0  0  0  0  0  2  0  0  0  0  0  0
  -28.2870  -12.5280   18.3350 C   0  0  0  0  0  2  0  0  0  0  0  0
  -27.9720  -13.3890   19.5880 C   0  0  0  0  0  3  0  0  0  0  0  0
  -29.0310  -13.1740   20.6910 C   0  0  0  0  0  2  0  0  0  0  0  0
  -30.3640  -13.4330   20.1130 N   0  0  0  0  0  0  0  0  0  0  0  0
  -32.1410  -14.7790   19.6320 O   0  0  0  0  0  0  0  0  0  0  0  0
  -30.5310  -15.5360   20.9860 N   0  0  0  0  0  0  0  0  0  0  0  0
  -29.6670  -15.2990   21.4530 H   0  0  0  0  0  0  0  0  0  0  0  0
  -25.5790  -14.0250   20.3020 C   0  0  0  0  0  0  0  0  0  0  0  0
  -24.5070  -13.2650   20.6840 C   0  0  0  0  0  0  0  0  0  0  0  0
  -24.9570  -11.9080   20.6660 C   0  0  0  0  0  0  0  0  0  0  0  0
  -26.6180  -13.1330   20.0790 N   0  0  0  0  0  0  0  0  0  0  0  0
  -26.2450  -11.8560   20.3540 N   0  0  0  0  0  0  0  0  0  0  0  0
  -24.2200  -10.6550   20.8760 C   0  0  0  0  0  0  0  0  0  0  0  0
  -24.6240   -9.7170   21.8530 C   0  0  0  0  0  3  0  0  0  0  0  0
  -23.8900   -8.5280   22.0510 C   0  0  0  0  0  3  0  0  0  0  0  0
  -22.7400   -8.2660   21.2700 C   0  0  0  0  0  0  0  0  0  0  0  0
  -22.3550   -9.1920   20.2840 C   0  0  0  0  0  3  0  0  0  0  0  0
  -23.0890  -10.3750   20.0850 C   0  0  0  0  0  3  0  0  0  0  0  0
  -21.9820   -7.1240   21.3730 O   0  0  0  0  0  0  0  0  0  0  0  0
  -21.8620   -6.4450   22.5600 C   0  0  0  0  0  0  0  0  0  0  0  0
  -21.3570   -7.0620   23.7240 C   0  0  0  0  0  3  0  0  0  0  0  0
  -21.1860   -6.3100   24.9020 C   0  0  0  0  0  3  0  0  0  0  0  0
  -21.5090   -4.9400   24.9180 C   0  0  0  0  0  0  0  0  0  0  0  0
  -22.0050   -4.3210   23.7570 C   0  0  0  0  0  3  0  0  0  0  0  0
  -22.1780   -5.0710   22.5800 C   0  0  0  0  0  0  0  0  0  0  0  0
  -22.6380   -4.4650   21.4590 F   0  0  0  0  0  0  0  0  0  0  0  0
  -21.3380   -4.2130   26.0470 F   0  0  0  0  0  0  0  0  0  0  0  0
  -23.1160  -13.7560   20.9590 C   0  0  0  0  0  0  0  0  0  0  0  0
  -22.3920  -13.0870   21.8510 N   0  0  0  0  0  0  0  0  0  0  0  0
  -22.6780  -14.7710   20.4200 O   0  0  0  0  0  0  0  0  0  0  0  0
  -22.7540  -12.2660   22.3130 H   0  0  0  0  0  0  0  0  0  0  0  0
  -21.4570  -13.3990   22.0720 H   0  0  0  0  0  0  0  0  0  0  0  0
  -25.7540  -15.3920   20.1140 N   0  0  0  0  0  0  0  0  0  0  0  0
  -26.6190  -15.8320   19.8220 H   0  0  0  0  0  0  0  0  0  0  0  0
  -24.9920  -16.0530   20.2240 H   0  0  0  0  0  0  0  0  0  0  0  0
  1  3  1  0
  1 48  1  0
  3  2  1  0
  3  4  1  1
  5  3  1  0
  6  5  1  0
  7  9  1  0
  7  6  1  0
  8 19  2  0
  9 14  1  0
 10 18  1  0
 10 20  1  0
 11 17  1  0
 11 13  1  0
 12 18  1  0
 13 12  1  0
 14 13  2  0
 15 16  1  0
 15  9  2  0
 16 11  2  0
 17 10  1  0
 18  8  1  0
 20 22  2  0
 21 20  1  0
 23 21  1  0
 24 33  2  0
 24 29  1  0
 25 21  1  0
 25 29  1  0
 26 25  1  0
 27 28  1  0
 27 26  1  0
 28 24  1  0
 29 30  2  0
 30 31  1  0
 32 31  2  0
 33 32  1  0
 34  8  1  0
 34 39  1  0
 34 35  1  0
 35 38  1  1
 35 36  1  0
 37 35  1  0
 39 42  1  0
 40 44  1  0
 40 39  1  0
 41 40  2  0
 44 43  1  0
 46 44  1  0
 46 47  1  0
 46 45  1  0
 49 48  1  0
 49 50  1  0
 50 51  1  0
 52 50  1  0
 53 50  1  0
 54 53  1  0
 55 54  1  0
 56 64  1  0
 57 62  1  0
 58 59  1  0
 58 57  1  0
 60 59  1  0
 60 69  1  0
 60 61  1  0
 62 56  1  0
 62 61  1  0
 63 56  2  0
 64 55  1  0
 64 65  1  0
 66 67  2  0
 67 86  1  0
 68 67  1  0
 68 71  1  0
 69 66  1  0
 69 70  1  0
 70 68  2  0
 71 72  1  0
 72 73  2  0
 74 77  1  0
 74 73  1  0
 75 74  2  0
 76 75  1  0
 76 71  2  0
 77 78  1  0
 78 83  2  0
 78 79  1  0
 79 80  2  0
 80 81  1  0
 81 85  1  0
 82 81  2  0
 83 82  1  0
 84 83  1  0
 86 87  1  0
 87 90  1  0
 87 89  1  0
 88 86  2  0
 91 93  1  0
 91 66  1  0
 92 91  1  0
M  ISO  4   6 101   7 101  56 100  64 100
M  END
>  <TORSDO>  (20) 
F 25

>  <SCORE>  (20) 
-10.613

>  <name>  (20) 
19

>  <ligand_id>  (20) 
19

>  <original_smiles>  (20) 
[H]c1c([H])c([H])c2c(c1[H])C([H])([H])C([H])([H])C([H])([H])C2([H])N([H])C(=O)C1([H])N(C(=O)C([H])(N([H])C(=O)C([H])(N([H])C([H])([H])[H])C([H])([H])[H])C(C([H])([H])[H])(C([H])([H])[H])C([H])([H])[H])C([H])([H])c2c([H])c(OC([H])([H])C([H])([H])[N+]([H])(C([H])([H])[H])C([H])([H])C([H])([H])C([H])([H])[N+]([H])([H])C([H])([H])C([H])([H])C([H])([H])N([H])C(=O)N3C([H])([H])C([H])([H])C([H])([H])C([H])(n4nc(-c5c([H])c([H])c(Oc6c([H])c([H])c(F)c([H])c6F)c([H])c5[H])c(C(=O)N([H])[H])c4N([H])[H])C3([H])[H])c([H])c([H])c2C1([H])[H]

>  <smiles>  (20) 
[H]c1c([H])c([H])c2c(c1[H])C([H])([H])C([H])([H])C([H])([H])C2([H])N([H])C(=O)C1([H])N(C(=O)C([H])(N([H])C(=O)C([H])(N([H])C([H])([H])[H])C([H])([H])[H])C(C([H])([H])[H])(C([H])([H])[H])C([H])([H])[H])C([H])([H])c2c([H])c(OC([H])([H])C([H])([H])[N+]([H])(C([H])([H])[H])C([H])([H])C([H])([H])C([H])([H])[N+]([H])([H])C([H])([H])C([H])([H])C([H])([H])N([H])C(=O)N3C([H])([H])C([H])([H])C([H])([H])C([H])(n4nc(-c5c([H])c([H])c(Oc6c([H])c([H])c(F)c([H])c6F)c([H])c5[H])c(C(=O)N([H])[H])c4N([H])[H])C3([H])[H])c([H])c([H])c2C1([H])[H]

$$$$
20:0:0
     RDKit          3D

 93101  0  0  1  0  0  0  0  0999 V2000
  -32.0230  -23.5430   21.3370 C   0  0  0  0  0  3  0  0  0  0  0  0
  -31.7170  -24.9060   21.4290 C   0  0  0  0  0  3  0  0  0  0  0  0
  -31.1060  -22.6610   20.7420 C   0  0  0  0  0  3  0  0  0  0  0  0
  -30.5040  -25.3840   20.9090 C   0  0  0  0  0  3  0  0  0  0  0  0
  -29.8670  -23.1100   20.2190 C   0  0  0  0  0  0  0  0  0  0  0  0
  -29.5700  -24.5230   20.2800 C   0  0  0  0  0  0  0  0  0  0  0  0
  -28.9440  -22.0450   19.5740 C   0  0  0  0  0  2  0  0  0  0  0  0
  -28.8910  -20.7050   20.2560 N   0  0  0  0  0  4  0  0  0  0  0  0
  -27.9180  -20.4440   20.2640 H   0  0  0  0  0  0  0  0  0  0  0  0
  -29.1640  -20.8240   21.2180 H   0  0  0  0  0  0  0  0  0  0  0  0
  -29.6340  -19.5530   19.6370 C   0  0  0  0  0  2  0  0  0  0  0  0
  -29.3650  -18.1570   20.3130 C   0  0  0  0  0  3  0  0  0  0  0  0
  -30.3080  -16.9870   19.8410 C   0  0  0  0  0  3  0  0  0  0  0  0
  -30.7410  -14.5480   19.8980 C   0  0  0  0  0  0  0  0  0  0  0  0
  -30.3590  -12.3810   18.7630 C   0  0  0  0  0  2  0  0  0  0  0  0
  -29.3370  -12.5520   17.6180 C   0  0  0  0  0  2  0  0  0  0  0  0
  -27.8940  -12.4060   18.1410 C   0  0  0  0  0  2  0  0  0  0  0  0
  -27.6340  -13.2530   19.4160 C   0  0  0  0  0  3  0  0  0  0  0  0
  -28.7590  -13.0480   20.4520 C   0  0  0  0  0  2  0  0  0  0  0  0
  -30.0400  -13.3760   19.8060 N   0  0  0  0  0  0  0  0  0  0  0  0
  -31.8030  -14.7030   19.2870 O   0  0  0  0  0  0  0  0  0  0  0  0
  -30.0110  -15.6840   21.9260 C   0  0  0  0  0  1  0  0  0  0  0  0
  -30.1190  -15.6340   20.4610 N   0  0  0  0  0  0  0  0  0  0  0  0
  -25.2970  -13.8610   20.3000 C   0  0  0  0  0  0  0  0  0  0  0  0
  -24.2580  -13.0900   20.7500 C   0  0  0  0  0  0  0  0  0  0  0  0
  -24.7150  -11.7380   20.6880 C   0  0  0  0  0  0  0  0  0  0  0  0
  -26.3200  -12.9780   19.9920 N   0  0  0  0  0  0  0  0  0  0  0  0
  -25.9790  -11.6960   20.2860 N   0  0  0  0  0  0  0  0  0  0  0  0
  -24.0020  -10.4770   20.9340 C   0  0  0  0  0  0  0  0  0  0  0  0
  -24.4650   -9.5400   21.8850 C   0  0  0  0  0  3  0  0  0  0  0  0
  -23.7530   -8.3420   22.1150 C   0  0  0  0  0  3  0  0  0  0  0  0
  -22.5660   -8.0740   21.3950 C   0  0  0  0  0  0  0  0  0  0  0  0
  -22.1220   -8.9990   20.4330 C   0  0  0  0  0  3  0  0  0  0  0  0
  -22.8340  -10.1870   20.2020 C   0  0  0  0  0  3  0  0  0  0  0  0
  -21.8220   -6.9270   21.5350 O   0  0  0  0  0  0  0  0  0  0  0  0
  -21.7630   -6.2460   22.7250 C   0  0  0  0  0  0  0  0  0  0  0  0
  -21.3180   -6.8620   23.9150 C   0  0  0  0  0  3  0  0  0  0  0  0
  -21.2100   -6.1070   25.1010 C   0  0  0  0  0  3  0  0  0  0  0  0
  -21.5350   -4.7370   25.0960 C   0  0  0  0  0  0  0  0  0  0  0  0
  -21.9710   -4.1210   23.9100 C   0  0  0  0  0  3  0  0  0  0  0  0
  -22.0820   -4.8730   22.7270 C   0  0  0  0  0  0  0  0  0  0  0  0
  -22.4840   -4.2700   21.5820 F   0  0  0  0  0  0  0  0  0  0  0  0
  -21.4230   -4.0090   26.2310 F   0  0  0  0  0  0  0  0  0  0  0  0
  -22.8840  -13.5690   21.1220 C   0  0  0  0  0  0  0  0  0  0  0  0
  -22.2240  -12.8870   22.0510 N   0  0  0  0  0  0  0  0  0  0  0  0
  -22.4050  -14.5850   20.6190 O   0  0  0  0  0  0  0  0  0  0  0  0
  -22.6220  -12.0670   22.4830 H   0  0  0  0  0  0  0  0  0  0  0  0
  -21.3040  -13.1920   22.3350 H   0  0  0  0  0  0  0  0  0  0  0  0
  -25.4530  -15.2310   20.1090 N   0  0  0  0  0  0  0  0  0  0  0  0
  -24.7050  -15.8960   20.2750 H   0  0  0  0  0  0  0  0  0  0  0  0
  -26.2920  -15.6600   19.7390 H   0  0  0  0  0  0  0  0  0  0  0  0
  -28.3010  -25.1980   19.7030 C   0  0  0  0  0  2  0  0  0  0  0  0
  -28.3360  -26.6520   19.7740 O   0  0  0  0  0  0  0  0  0  0  0  0
  -24.4530  -31.6950   23.0190 C   0  0  0  0  0  0  0  0  0  0  0  0
  -27.1530  -27.3750   19.7760 C   0  0  0  0  0  0  0  0  0  0  0  0
  -23.2640  -30.3310   21.3320 C   0  0  0  0  0  3  0  0  0  0  0  0
  -24.7350  -28.8680   19.8440 C   0  0  0  0  0  0  0  0  0  0  0  0
  -25.7840  -30.7340   21.1350 C   0  0  0  0  0  2  0  0  0  0  0  0
  -25.8890  -29.3850   20.4450 C   0  0  0  0  0  0  0  0  0  0  0  0
  -27.0990  -28.6490   20.4000 C   0  0  0  0  0  3  0  0  0  0  0  0
  -25.9770  -26.8800   19.1690 C   0  0  0  0  0  3  0  0  0  0  0  0
  -24.7770  -27.6170   19.2010 C   0  0  0  0  0  3  0  0  0  0  0  0
  -23.4790  -29.7070   19.9290 C   0  0  0  0  0  2  0  0  0  0  0  0
  -24.5190  -30.9340   21.8880 N   0  0  0  0  0  0  0  0  0  0  0  0
  -23.3690  -31.9300   23.5720 O   0  0  0  0  0  0  0  0  0  0  0  0
  -22.6330  -29.2670   22.2590 C   0  0  0  0  0  0  0  0  0  0  0  0
  -21.3070  -29.0810   22.1460 N   0  0  0  0  0  0  0  0  0  0  0  0
  -23.3330  -28.6140   23.0380 O   0  0  0  0  0  0  0  0  0  0  0  0
  -20.8030  -29.6600   21.4900 H   0  0  0  0  0  0  0  0  0  0  0  0
  -17.9460  -27.8580   22.6620 C   0  0  0  0  0  0  0  0  0  0  0  0
  -20.5090  -28.1050   22.8870 C   0  0  0  0  0  3  0  0  0  0  0  0
  -20.5980  -26.7050   22.2370 C   0  0  0  0  0  2  0  0  0  0  0  0
  -19.4730  -26.4330   21.2350 C   0  0  0  0  0  2  0  0  0  0  0  0
  -18.1060  -26.5450   21.9160 C   0  0  0  0  0  2  0  0  0  0  0  0
  -19.0740  -28.5990   23.1050 C   0  0  0  0  0  0  0  0  0  0  0  0
  -18.8690  -29.8300   23.7630 C   0  0  0  0  0  3  0  0  0  0  0  0
  -17.5680  -30.3210   23.9840 C   0  0  0  0  0  3  0  0  0  0  0  0
  -16.4540  -29.5770   23.5600 C   0  0  0  0  0  3  0  0  0  0  0  0
  -16.6440  -28.3480   22.9030 C   0  0  0  0  0  3  0  0  0  0  0  0
  -25.7300  -32.3260   23.6560 C   0  0  0  0  0  3  0  0  0  0  0  0
  -25.3990  -33.7030   24.0460 N   0  0  0  0  0  0  0  0  0  0  0  0
  -25.7060  -34.7920   23.3280 C   0  0  0  0  0  0  0  0  0  0  0  0
  -26.3730  -34.7420   22.2910 O   0  0  0  0  0  0  0  0  0  0  0  0
  -24.8080  -33.8150   24.8570 H   0  0  0  0  0  0  0  0  0  0  0  0
  -23.9420  -36.5600   23.0560 C   0  0  0  0  0  1  0  0  0  0  0  0
  -25.1950  -36.1490   23.8440 C   0  0  0  0  0  3  0  0  0  0  0  0
  -27.3160  -37.0420   24.7000 C   0  0  0  0  0  1  0  0  0  0  0  0
  -26.2080  -37.2260   23.7680 N   0  0  0  0  0  0  0  0  0  0  0  0
  -25.7850  -38.1320   23.9550 H   0  0  0  0  0  0  0  0  0  0  0  0
  -26.2730  -31.5130   24.8940 C   0  0  1  0  0  0  0  0  0  0  0  0
  -25.1940  -31.2090   25.9590 C   0  0  0  0  0  1  0  0  0  0  0  0
  -26.8800  -30.1670   24.4370 C   0  0  0  0  0  1  0  0  0  0  0  0
  -27.4170  -32.2990   25.5770 C   0  0  0  0  0  1  0  0  0  0  0  0
  1  2  1  0
  3  1  2  0
  4  2  2  0
  5  6  2  0
  5  3  1  0
  6  4  1  0
  7  5  1  0
  7  8  1  0
  8  9  1  0
  8 10  1  0
 11  8  1  0
 11 12  1  0
 13 12  2  0
 13 23  1  0
 14 23  1  0
 15 20  1  0
 16 17  1  0
 16 15  1  0
 18 17  1  0
 18 27  1  0
 18 19  1  0
 20 14  1  0
 20 19  1  0
 21 14  2  0
 23 22  1  0
 24 25  2  0
 25 44  1  0
 26 25  1  0
 26 29  1  0
 27 28  1  0
 27 24  1  0
 28 26  2  0
 29 30  1  0
 30 31  2  0
 32 35  1  0
 32 31  1  0
 33 32  2  0
 34 33  1  0
 34 29  2  0
 35 36  1  0
 36 41  2  0
 36 37  1  0
 37 38  2  0
 39 38  1  0
 39 43  1  0
 40 39  2  0
 41 40  1  0
 42 41  1  0
 44 45  1  0
 45 48  1  0
 45 47  1  0
 46 44  2  0
 49 50  1  0
 49 24  1  0
 51 49  1  0
 52 53  1  0
 52  6  1  0
 53 55  1  0
 54 65  2  0
 55 60  1  0
 56 64  1  0
 56 66  1  0
 57 63  1  0
 57 59  1  0
 58 64  1  0
 59 58  1  0
 60 59  2  0
 61 62  1  0
 61 55  2  0
 62 57  2  0
 63 56  1  0
 64 54  1  0
 66 68  2  0
 67 66  1  0
 69 67  1  0
 70 79  2  0
 70 75  1  0
 71 67  1  0
 71 75  1  0
 72 71  1  0
 73 74  1  0
 73 72  1  0
 74 70  1  0
 75 76  2  0
 76 77  1  0
 78 77  2  0
 79 78  1  0
 80 54  1  0
 80 81  1  0
 80 90  1  0
 81 84  1  0
 82 86  1  0
 82 81  1  0
 83 82  2  0
 86 85  1  0
 88 86  1  0
 88 89  1  0
 88 87  1  0
 90 93  1  1
 90 91  1  0
 92 90  1  0
M  ISO  4  14 100  23 100  52 101  53 101
M  END
>  <TORSDO>  (21) 
F 22

>  <SCORE>  (21) 
-10.929

>  <name>  (21) 
20

>  <ligand_id>  (21) 
20

>  <original_smiles>  (21) 
[H]c1c([H])c([H])c(C([H])([H])[N+]([H])([H])C([H])([H])C([H])([H])C([H])([H])N(C(=O)N2C([H])([H])C([H])([H])C([H])([H])C([H])(n3nc(-c4c([H])c([H])c(Oc5c([H])c([H])c(F)c([H])c5F)c([H])c4[H])c(C(=O)N([H])[H])c3N([H])[H])C2([H])[H])C([H])([H])[H])c(C([H])([H])Oc2c([H])c([H])c3c(c2[H])C([H])([H])N(C(=O)C([H])(N([H])C(=O)C([H])(N([H])C([H])([H])[H])C([H])([H])[H])C(C([H])([H])[H])(C([H])([H])[H])C([H])([H])[H])C([H])(C(=O)N([H])C2([H])c4c([H])c([H])c([H])c([H])c4C([H])([H])C([H])([H])C2([H])[H])C3([H])[H])c1[H]

>  <smiles>  (21) 
[H]c1c([H])c([H])c(C([H])([H])[N+]([H])([H])C([H])([H])C([H])([H])C([H])([H])N(C(=O)N2C([H])([H])C([H])([H])C([H])([H])C([H])(n3nc(-c4c([H])c([H])c(Oc5c([H])c([H])c(F)c([H])c5F)c([H])c4[H])c(C(=O)N([H])[H])c3N([H])[H])C2([H])[H])C([H])([H])[H])c(C([H])([H])Oc2c([H])c([H])c3c(c2[H])C([H])([H])N(C(=O)C([H])(N([H])C(=O)C([H])(N([H])C([H])([H])[H])C([H])([H])[H])C(C([H])([H])[H])(C([H])([H])[H])C([H])([H])[H])C([H])(C(=O)N([H])C2([H])c4c([H])c([H])c([H])c([H])c4C([H])([H])C([H])([H])C2([H])[H])C3([H])[H])c1[H]

$$$$
21:0:0
     RDKit          3D

 95103  0  0  1  0  0  0  0  0999 V2000
  -30.4370  -21.0270   21.7400 C   0  0  0  0  0  2  0  0  0  0  0  0
  -31.6570  -18.8360   21.2130 C   0  0  0  0  0  3  0  0  0  0  0  0
  -31.6510  -17.4400   21.0030 C   0  0  0  0  0  3  0  0  0  0  0  0
  -29.2240  -18.8440   21.2550 C   0  0  0  0  0  3  0  0  0  0  0  0
  -30.4430  -19.5460   21.3610 C   0  0  0  0  0  0  0  0  0  0  0  0
  -30.4260  -16.7320   20.9280 C   0  0  0  0  0  0  0  0  0  0  0  0
  -29.2130  -17.4520   21.0350 C   0  0  0  0  0  0  0  0  0  0  0  0
  -30.8590  -14.4660   19.9200 C   0  0  0  0  0  0  0  0  0  0  0  0
  -30.4020  -12.4300   18.5980 C   0  0  0  0  0  2  0  0  0  0  0  0
  -29.3790  -12.7640   17.4910 C   0  0  0  0  0  2  0  0  0  0  0  0
  -27.9340  -12.6510   18.0160 C   0  0  0  0  0  2  0  0  0  0  0  0
  -27.7280  -13.3950   19.3620 C   0  0  0  0  0  3  0  0  0  0  0  0
  -28.8430  -13.0150   20.3620 C   0  0  0  0  0  2  0  0  0  0  0  0
  -30.1450  -13.3230   19.7370 N   0  0  0  0  0  0  0  0  0  0  0  0
  -31.9020  -14.7080   19.3040 O   0  0  0  0  0  0  0  0  0  0  0  0
  -30.3080  -15.3190   20.7980 N   0  0  0  0  0  0  0  0  0  0  0  0
  -29.5260  -14.9450   21.3120 H   0  0  0  0  0  0  0  0  0  0  0  0
  -25.3870  -14.0430   20.2190 C   0  0  0  0  0  0  0  0  0  0  0  0
  -24.3280  -13.2880   20.6470 C   0  0  0  0  0  0  0  0  0  0  0  0
  -24.7580  -11.9280   20.5680 C   0  0  0  0  0  0  0  0  0  0  0  0
  -26.3980  -13.1440   19.9140 N   0  0  0  0  0  0  0  0  0  0  0  0
  -26.0240  -11.8660   20.1780 N   0  0  0  0  0  0  0  0  0  0  0  0
  -24.0190  -10.6780   20.7850 C   0  0  0  0  0  0  0  0  0  0  0  0
  -24.4500   -9.7200   21.7290 C   0  0  0  0  0  3  0  0  0  0  0  0
  -23.7130   -8.5320   21.9320 C   0  0  0  0  0  3  0  0  0  0  0  0
  -22.5300   -8.2960   21.1920 C   0  0  0  0  0  0  0  0  0  0  0  0
  -22.1180   -9.2430   20.2380 C   0  0  0  0  0  3  0  0  0  0  0  0
  -22.8550  -10.4210   20.0330 C   0  0  0  0  0  3  0  0  0  0  0  0
  -21.7650   -7.1610   21.3040 O   0  0  0  0  0  0  0  0  0  0  0  0
  -21.6540   -6.4820   22.4910 C   0  0  0  0  0  0  0  0  0  0  0  0
  -21.1860   -7.1080   23.6660 C   0  0  0  0  0  3  0  0  0  0  0  0
  -21.0210   -6.3560   24.8470 C   0  0  0  0  0  3  0  0  0  0  0  0
  -21.3140   -4.9800   24.8520 C   0  0  0  0  0  0  0  0  0  0  0  0
  -21.7760   -4.3530   23.6810 C   0  0  0  0  0  3  0  0  0  0  0  0
  -21.9420   -5.1020   22.5020 C   0  0  0  0  0  0  0  0  0  0  0  0
  -22.3660   -4.4900   21.3710 F   0  0  0  0  0  0  0  0  0  0  0  0
  -21.1490   -4.2550   25.9830 F   0  0  0  0  0  0  0  0  0  0  0  0
  -22.9610  -13.7890   21.0130 C   0  0  0  0  0  0  0  0  0  0  0  0
  -22.2880  -13.1130   21.9370 N   0  0  0  0  0  0  0  0  0  0  0  0
  -22.5000  -14.8150   20.5130 O   0  0  0  0  0  0  0  0  0  0  0  0
  -22.6750  -12.2840   22.3630 H   0  0  0  0  0  0  0  0  0  0  0  0
  -21.3720  -13.4300   22.2230 H   0  0  0  0  0  0  0  0  0  0  0  0
  -25.5690  -15.4120   20.0440 N   0  0  0  0  0  0  0  0  0  0  0  0
  -24.8060  -16.0660   20.1800 H   0  0  0  0  0  0  0  0  0  0  0  0
  -26.3560  -15.8220   19.5580 H   0  0  0  0  0  0  0  0  0  0  0  0
  -27.9890  -16.7870   20.9390 N   0  0  0  0  0  0  0  0  0  0  0  0
  -27.1690  -17.3830   20.8860 H   0  0  0  0  0  0  0  0  0  0  0  0
  -27.9210  -16.0520   20.2460 H   0  0  0  0  0  0  0  0  0  0  0  0
  -29.9350  -21.9350   20.6830 N   0  0  0  0  0  4  0  0  0  0  0  0
  -29.0920  -21.5440   20.2970 H   0  0  0  0  0  0  0  0  0  0  0  0
  -30.6230  -21.9750   19.9490 H   0  0  0  0  0  0  0  0  0  0  0  0
  -29.6550  -23.3060   21.1880 C   0  0  0  0  0  2  0  0  0  0  0  0
  -29.2380  -24.3270   20.1020 C   0  0  0  0  0  2  0  0  0  0  0  0
  -28.9070  -25.7120   20.7090 C   0  0  0  0  0  2  0  0  0  0  0  0
  -28.7090  -26.7050   19.6990 O   0  0  0  0  0  0  0  0  0  0  0  0
  -24.7430  -31.6250   23.0050 C   0  0  0  0  0  0  0  0  0  0  0  0
  -27.5190  -27.3850   19.7780 C   0  0  0  0  0  0  0  0  0  0  0  0
  -23.5740  -30.2340   21.3250 C   0  0  0  0  0  3  0  0  0  0  0  0
  -25.0720  -28.7870   19.8510 C   0  0  0  0  0  0  0  0  0  0  0  0
  -26.0820  -30.6890   21.1240 C   0  0  0  0  0  2  0  0  0  0  0  0
  -26.2130  -29.3390   20.4490 C   0  0  0  0  0  0  0  0  0  0  0  0
  -27.4410  -28.6450   20.4120 C   0  0  0  0  0  3  0  0  0  0  0  0
  -26.3650  -26.8370   19.1830 C   0  0  0  0  0  3  0  0  0  0  0  0
  -25.1410  -27.5330   19.2180 C   0  0  0  0  0  3  0  0  0  0  0  0
  -23.7990  -29.6000   19.9250 C   0  0  0  0  0  2  0  0  0  0  0  0
  -24.8180  -30.8640   21.8770 N   0  0  0  0  0  0  0  0  0  0  0  0
  -23.6570  -31.8440   23.5600 O   0  0  0  0  0  0  0  0  0  0  0  0
  -22.9630  -29.1640   22.2570 C   0  0  0  0  0  0  0  0  0  0  0  0
  -21.6390  -28.9650   22.1520 N   0  0  0  0  0  0  0  0  0  0  0  0
  -23.6760  -28.5160   23.0280 O   0  0  0  0  0  0  0  0  0  0  0  0
  -21.1250  -29.5390   21.5000 H   0  0  0  0  0  0  0  0  0  0  0  0
  -18.2890  -27.7340   22.7150 C   0  0  0  0  0  0  0  0  0  0  0  0
  -20.8560  -27.9820   22.9000 C   0  0  0  0  0  3  0  0  0  0  0  0
  -20.9370  -26.5860   22.2390 C   0  0  0  0  0  2  0  0  0  0  0  0
  -19.7960  -26.3200   21.2520 C   0  0  0  0  0  2  0  0  0  0  0  0
  -18.4410  -26.4260   21.9560 C   0  0  0  0  0  2  0  0  0  0  0  0
  -19.4250  -28.4730   23.1430 C   0  0  0  0  0  0  0  0  0  0  0  0
  -19.2280  -29.7020   23.8100 C   0  0  0  0  0  3  0  0  0  0  0  0
  -17.9320  -30.1910   24.0540 C   0  0  0  0  0  3  0  0  0  0  0  0
  -16.8120  -29.4480   23.6420 C   0  0  0  0  0  3  0  0  0  0  0  0
  -16.9920  -28.2210   22.9770 C   0  0  0  0  0  3  0  0  0  0  0  0
  -26.0120  -32.2770   23.6380 C   0  0  0  0  0  3  0  0  0  0  0  0
  -25.6590  -33.6510   24.0210 N   0  0  0  0  0  0  0  0  0  0  0  0
  -25.9600  -34.7400   23.3010 C   0  0  0  0  0  0  0  0  0  0  0  0
  -26.6330  -34.6970   22.2670 O   0  0  0  0  0  0  0  0  0  0  0  0
  -25.0610  -33.7580   24.8270 H   0  0  0  0  0  0  0  0  0  0  0  0
  -24.1740  -36.4850   23.0080 C   0  0  0  0  0  1  0  0  0  0  0  0
  -25.4270  -36.0940   23.8070 C   0  0  0  0  0  3  0  0  0  0  0  0
  -27.5310  -37.0160   24.6740 C   0  0  0  0  0  1  0  0  0  0  0  0
  -26.4250  -37.1840   23.7340 N   0  0  0  0  0  0  0  0  0  0  0  0
  -25.9900  -38.0840   23.9150 H   0  0  0  0  0  0  0  0  0  0  0  0
  -26.5690  -31.4780   24.8790 C   0  0  1  0  0  0  0  0  0  0  0  0
  -25.4950  -31.1560   25.9430 C   0  0  0  0  0  1  0  0  0  0  0  0
  -27.2030  -30.1430   24.4250 C   0  0  0  0  0  1  0  0  0  0  0  0
  -27.6930  -32.2900   25.5640 C   0  0  0  0  0  1  0  0  0  0  0  0
  2  5  1  0
  3  2  2  0
  4  5  2  0
  5  1  1  0
  6  3  1  0
  6  7  2  0
  7  4  1  0
  8 16  1  0
  9 14  1  0
 10 11  1  0
 10  9  1  0
 12 11  1  0
 12 21  1  0
 12 13  1  0
 14  8  1  0
 14 13  1  0
 15  8  2  0
 16  6  1  0
 16 17  1  0
 18 19  2  0
 19 38  1  0
 20 19  1  0
 20 23  1  0
 21 22  1  0
 21 18  1  0
 22 20  2  0
 23 24  1  0
 24 25  2  0
 26 29  1  0
 26 25  1  0
 27 26  2  0
 28 27  1  0
 28 23  2  0
 29 30  1  0
 30 35  2  0
 30 31  1  0
 31 32  2  0
 32 33  1  0
 33 37  1  0
 34 33  2  0
 35 34  1  0
 36 35  1  0
 38 39  1  0
 39 42  1  0
 39 41  1  0
 40 38  2  0
 43 44  1  0
 43 18  1  0
 45 43  1  0
 46  7  1  0
 47 46  1  0
 48 46  1  0
 49 52  1  0
 49  1  1  0
 50 49  1  0
 51 49  1  0
 53 54  1  0
 53 52  1  0
 55 57  1  0
 55 54  1  0
 56 67  2  0
 57 62  1  0
 58 66  1  0
 58 68  1  0
 59 65  1  0
 59 61  1  0
 60 66  1  0
 61 60  1  0
 62 61  2  0
 63 64  1  0
 63 57  2  0
 64 59  2  0
 65 58  1  0
 66 56  1  0
 68 70  2  0
 69 68  1  0
 71 69  1  0
 72 81  2  0
 72 77  1  0
 73 69  1  0
 73 77  1  0
 74 73  1  0
 75 76  1  0
 75 74  1  0
 76 72  1  0
 77 78  2  0
 78 79  1  0
 80 79  2  0
 81 80  1  0
 82 56  1  0
 82 83  1  0
 82 92  1  0
 83 86  1  0
 84 88  1  0
 84 83  1  0
 85 84  2  0
 88 87  1  0
 90 88  1  0
 90 91  1  0
 90 89  1  0
 92 95  1  1
 92 93  1  0
 94 92  1  0
M  ISO  4   8 100  16 100  54 101  55 101
M  END
>  <TORSDO>  (22) 
F 22

>  <SCORE>  (22) 
-11.563

>  <name>  (22) 
21

>  <ligand_id>  (22) 
21

>  <original_smiles>  (22) 
[H]c1c([H])c([H])c2c(c1[H])C([H])([H])C([H])([H])C([H])([H])C2([H])N([H])C(=O)C1([H])N(C(=O)C([H])(N([H])C(=O)C([H])(N([H])C([H])([H])[H])C([H])([H])[H])C(C([H])([H])[H])(C([H])([H])[H])C([H])([H])[H])C([H])([H])c2c([H])c(OC([H])([H])C([H])([H])C([H])([H])[N+]([H])([H])C([H])([H])c3c([H])c([H])c(N([H])C(=O)N4C([H])([H])C([H])([H])C([H])([H])C([H])(n5nc(-c6c([H])c([H])c(Oc7c([H])c([H])c(F)c([H])c7F)c([H])c6[H])c(C(=O)N([H])[H])c5N([H])[H])C4([H])[H])c(N([H])[H])c3[H])c([H])c([H])c2C1([H])[H]

>  <smiles>  (22) 
[H]c1c([H])c([H])c2c(c1[H])C([H])([H])C([H])([H])C([H])([H])C2([H])N([H])C(=O)C1([H])N(C(=O)C([H])(N([H])C(=O)C([H])(N([H])C([H])([H])[H])C([H])([H])[H])C(C([H])([H])[H])(C([H])([H])[H])C([H])([H])[H])C([H])([H])c2c([H])c(OC([H])([H])C([H])([H])C([H])([H])[N+]([H])([H])C([H])([H])c3c([H])c([H])c(N([H])C(=O)N4C([H])([H])C([H])([H])C([H])([H])C([H])(n5nc(-c6c([H])c([H])c(Oc7c([H])c([H])c(F)c([H])c7F)c([H])c6[H])c(C(=O)N([H])[H])c5N([H])[H])C4([H])[H])c(N([H])[H])c3[H])c([H])c([H])c2C1([H])[H]

$$$$
22:0:0
     RDKit          3D

 91100  0  0  1  0  0  0  0  0999 V2000
  -30.9590  -14.8510   20.1330 C   0  0  0  0  0  0  0  0  0  0  0  0
  -30.6670  -12.5090   19.2340 C   0  0  0  0  0  2  0  0  0  0  0  0
  -29.7400  -12.4970   17.9980 C   0  0  0  0  0  2  0  0  0  0  0  0
  -28.2640  -12.3750   18.4240 C   0  0  0  0  0  2  0  0  0  0  0  0
  -27.9050  -13.3500   19.5730 C   0  0  0  0  0  3  0  0  0  0  0  0
  -28.9530  -13.3210   20.7040 C   0  0  0  0  0  2  0  0  0  0  0  0
  -30.2580  -13.6470   20.1080 N   0  0  0  0  0  0  0  0  0  0  0  0
  -32.1100  -14.8450   19.6840 O   0  0  0  0  0  0  0  0  0  0  0  0
  -29.4810  -17.6990   22.2050 C   0  0  0  0  0  2  0  0  0  0  0  0
  -30.2590  -18.9060   21.6730 C   0  0  0  0  0  2  0  0  0  0  0  0
  -31.3020  -19.9970   19.6040 C   0  0  0  0  0  2  0  0  0  0  0  0
  -28.9400  -19.6800   19.6010 C   0  0  0  0  0  2  0  0  0  0  0  0
  -30.1840  -16.3700   21.8730 C   0  0  0  0  0  2  0  0  0  0  0  0
  -30.5670  -17.4000   19.6110 C   0  0  0  0  0  2  0  0  0  0  0  0
  -31.1060  -21.5360   19.9680 C   0  0  0  0  0  2  0  0  0  0  0  0
  -28.7250  -21.2530   19.9170 C   0  0  0  0  0  2  0  0  0  0  0  0
  -30.2480  -18.9500   20.1360 C   0  0  2  0  0  0  0  0  0  0  0  0
  -30.3380  -16.0900   20.4310 N   0  0  0  0  0  0  0  0  0  0  0  0
  -29.8310  -22.2010   19.5040 N   0  0  1  0  0  4  0  0  0  0  0  0
  -29.8660  -22.1880   18.4940 H   0  0  0  0  0  0  0  0  0  0  0  0
  -25.5620  -14.0590   20.3360 C   0  0  0  0  0  0  0  0  0  0  0  0
  -24.4600  -13.3390   20.7110 C   0  0  0  0  0  0  0  0  0  0  0  0
  -24.8510  -11.9660   20.6680 C   0  0  0  0  0  0  0  0  0  0  0  0
  -26.5530  -13.1260   20.0780 N   0  0  0  0  0  0  0  0  0  0  0  0
  -26.1340  -11.8620   20.3440 N   0  0  0  0  0  0  0  0  0  0  0  0
  -24.0580  -10.7430   20.8570 C   0  0  0  0  0  0  0  0  0  0  0  0
  -24.4450   -9.7470   21.7800 C   0  0  0  0  0  3  0  0  0  0  0  0
  -23.6550   -8.5900   21.9570 C   0  0  0  0  0  3  0  0  0  0  0  0
  -22.4640   -8.4220   21.2110 C   0  0  0  0  0  0  0  0  0  0  0  0
  -22.0970   -9.4050   20.2750 C   0  0  0  0  0  3  0  0  0  0  0  0
  -22.8870  -10.5530   20.0960 C   0  0  0  0  0  3  0  0  0  0  0  0
  -21.6480   -7.3210   21.2990 O   0  0  0  0  0  0  0  0  0  0  0  0
  -21.5690   -6.5720   22.4450 C   0  0  0  0  0  0  0  0  0  0  0  0
  -21.1680   -7.1350   23.6780 C   0  0  0  0  0  3  0  0  0  0  0  0
  -21.0340   -6.3140   24.8150 C   0  0  0  0  0  3  0  0  0  0  0  0
  -21.2900   -4.9330   24.7220 C   0  0  0  0  0  0  0  0  0  0  0  0
  -21.6850   -4.3700   23.4950 C   0  0  0  0  0  3  0  0  0  0  0  0
  -21.8200   -5.1870   22.3600 C   0  0  0  0  0  0  0  0  0  0  0  0
  -22.1800   -4.6380   21.1740 F   0  0  0  0  0  0  0  0  0  0  0  0
  -21.1540   -4.1430   25.8130 F   0  0  0  0  0  0  0  0  0  0  0  0
  -23.0930  -13.8900   20.9970 C   0  0  0  0  0  0  0  0  0  0  0  0
  -22.3380  -13.2330   21.8720 N   0  0  0  0  0  0  0  0  0  0  0  0
  -22.7060  -14.9370   20.4820 O   0  0  0  0  0  0  0  0  0  0  0  0
  -22.6660  -12.3850   22.3110 H   0  0  0  0  0  0  0  0  0  0  0  0
  -21.4200  -13.5840   22.1060 H   0  0  0  0  0  0  0  0  0  0  0  0
  -25.8020  -15.4200   20.1700 N   0  0  0  0  0  0  0  0  0  0  0  0
  -25.0840  -16.1210   20.3160 H   0  0  0  0  0  0  0  0  0  0  0  0
  -26.6830  -15.8110   19.8620 H   0  0  0  0  0  0  0  0  0  0  0  0
  -29.7440  -23.7160   19.9260 C   0  0  0  0  0  3  0  0  0  0  0  0
  -28.7080  -24.8200   19.2830 C   0  0  0  0  0  3  0  0  0  0  0  0
  -28.7600  -26.3090   19.6440 O   0  0  0  0  0  0  0  0  0  0  0  0
  -24.7360  -31.3730   23.0220 C   0  0  0  0  0  0  0  0  0  0  0  0
  -27.6020  -27.1440   19.6360 C   0  0  0  0  0  0  0  0  0  0  0  0
  -23.6040  -29.9930   21.3200 C   0  0  0  0  0  3  0  0  0  0  0  0
  -25.1330  -28.6440   19.7630 C   0  0  0  0  0  0  0  0  0  0  0  0
  -26.1180  -30.4880   21.1180 C   0  0  0  0  0  2  0  0  0  0  0  0
  -26.2820  -29.1570   20.3770 C   0  0  0  0  0  0  0  0  0  0  0  0
  -27.5130  -28.4220   20.3040 C   0  0  0  0  0  3  0  0  0  0  0  0
  -26.4240  -26.7180   18.9810 C   0  0  0  0  0  3  0  0  0  0  0  0
  -25.2130  -27.4370   19.0510 C   0  0  0  0  0  3  0  0  0  0  0  0
  -23.8380  -29.4250   19.8950 C   0  0  0  0  0  2  0  0  0  0  0  0
  -24.8390  -30.6370   21.8760 N   0  0  0  0  0  0  0  0  0  0  0  0
  -23.6470  -31.5350   23.5920 O   0  0  0  0  0  0  0  0  0  0  0  0
  -23.0340  -28.8750   22.2270 C   0  0  0  0  0  0  0  0  0  0  0  0
  -21.7190  -28.6150   22.1230 N   0  0  0  0  0  0  0  0  0  0  0  0
  -23.7750  -28.2460   22.9870 O   0  0  0  0  0  0  0  0  0  0  0  0
  -21.1740  -29.1800   21.4870 H   0  0  0  0  0  0  0  0  0  0  0  0
  -18.4470  -27.1470   22.6250 C   0  0  0  0  0  0  0  0  0  0  0  0
  -20.9880  -27.5750   22.8500 C   0  0  0  0  0  3  0  0  0  0  0  0
  -21.1750  -26.1930   22.1800 C   0  0  0  0  0  2  0  0  0  0  0  0
  -20.0700  -25.8580   21.1730 C   0  0  0  0  0  2  0  0  0  0  0  0
  -18.7000  -25.8610   21.8570 C   0  0  0  0  0  2  0  0  0  0  0  0
  -19.5210  -27.9590   23.0770 C   0  0  0  0  0  0  0  0  0  0  0  0
  -19.2290  -29.1620   23.7580 C   0  0  0  0  0  3  0  0  0  0  0  0
  -17.8970  -29.5510   23.9900 C   0  0  0  0  0  3  0  0  0  0  0  0
  -16.8390  -28.7370   23.5530 C   0  0  0  0  0  3  0  0  0  0  0  0
  -17.1150  -27.5360   22.8750 C   0  0  0  0  0  3  0  0  0  0  0  0
  -25.9790  -32.0630   23.6640 C   0  0  0  0  0  3  0  0  0  0  0  0
  -25.5820  -33.4240   24.0570 N   0  0  0  0  0  0  0  0  0  0  0  0
  -25.8190  -34.5270   23.3340 C   0  0  0  0  0  0  0  0  0  0  0  0
  -26.4620  -34.5110   22.2820 O   0  0  0  0  0  0  0  0  0  0  0  0
  -25.0040  -33.5070   24.8810 H   0  0  0  0  0  0  0  0  0  0  0  0
  -23.9510  -36.2000   23.1210 C   0  0  0  0  0  1  0  0  0  0  0  0
  -25.2530  -35.8610   23.8620 C   0  0  0  0  0  3  0  0  0  0  0  0
  -27.3500  -36.8760   24.6390 C   0  0  0  0  0  1  0  0  0  0  0  0
  -26.2010  -36.9900   23.7450 N   0  0  0  0  0  0  0  0  0  0  0  0
  -25.7350  -37.8710   23.9400 H   0  0  0  0  0  0  0  0  0  0  0  0
  -26.5560  -31.2760   24.9060 C   0  0  1  0  0  0  0  0  0  0  0  0
  -25.4940  -30.9350   25.9760 C   0  0  0  0  0  1  0  0  0  0  0  0
  -27.2120  -29.9490   24.4580 C   0  0  0  0  0  1  0  0  0  0  0  0
  -27.6690  -32.1120   25.5820 C   0  0  0  0  0  1  0  0  0  0  0  0
  1 18  1  0
  2  7  1  0
  3  4  1  0
  3  2  1  0
  5  4  1  0
  5 24  1  0
  5  6  1  0
  7  1  1  0
  7  6  1  0
  8  1  2  0
 10  9  1  0
 11 15  1  0
 17 11  1  6
 12 16  1  0
 13  9  1  0
 14 17  1  0
 14 18  1  0
 17 12  1  0
 17 10  1  0
 18 13  1  0
 19 16  1  0
 19 49  1  0
 19 15  1  0
 19 20  1  6
 21 22  2  0
 22 41  1  0
 23 22  1  0
 23 26  1  0
 24 21  1  0
 24 25  1  0
 25 23  2  0
 26 27  1  0
 27 28  2  0
 29 32  1  0
 29 28  1  0
 30 29  2  0
 31 30  1  0
 31 26  2  0
 32 33  1  0
 33 34  1  0
 34 35  2  0
 36 35  1  0
 36 40  1  0
 37 36  2  0
 38 33  2  0
 38 37  1  0
 39 38  1  0
 41 42  1  0
 42 45  1  0
 42 44  1  0
 43 41  2  0
 46 47  1  0
 46 21  1  0
 48 46  1  0
 50 51  1  0
 50 49  2  0
 52 63  2  0
 53 51  1  0
 53 58  1  0
 54 62  1  0
 54 64  1  0
 55 61  1  0
 55 57  1  0
 56 62  1  0
 57 56  1  0
 58 57  2  0
 59 60  1  0
 59 53  2  0
 60 55  2  0
 61 54  1  0
 62 52  1  0
 64 66  2  0
 65 64  1  0
 67 65  1  0
 68 77  2  0
 68 73  1  0
 69 65  1  0
 69 73  1  0
 70 69  1  0
 71 72  1  0
 71 70  1  0
 72 68  1  0
 73 74  2  0
 74 75  1  0
 76 75  2  0
 77 76  1  0
 78 52  1  0
 78 79  1  0
 78 88  1  0
 79 82  1  0
 80 84  1  0
 80 79  1  0
 81 80  2  0
 84 83  1  0
 86 84  1  0
 86 87  1  0
 86 85  1  0
 88 91  1  1
 88 89  1  0
 90 88  1  0
M  ISO  4   1 100  18 100  50 101  51 101
M  END
>  <TORSDO>  (23) 
F 17

>  <SCORE>  (23) 
-12.040

>  <name>  (23) 
22

>  <ligand_id>  (23) 
22

>  <original_smiles>  (23) 
[H]c1c([H])c([H])c2c(c1[H])C([H])([H])C([H])([H])C([H])([H])C2([H])N([H])C(=O)C1([H])N(C(=O)C([H])(N([H])C(=O)C([H])(N([H])C([H])([H])[H])C([H])([H])[H])C(C([H])([H])[H])(C([H])([H])[H])C([H])([H])[H])C([H])([H])c2c([H])c(OC([H])([H])C([H])([H])[N+]3([H])C([H])([H])C([H])([H])C4(C([H])([H])N(C(=O)N5C([H])([H])C([H])([H])C([H])([H])C([H])(n6nc(-c7c([H])c([H])c(Oc8c([H])c([H])c(F)c([H])c8F)c([H])c7[H])c(C(=O)N([H])[H])c6N([H])[H])C5([H])[H])C([H])([H])C([H])([H])C4([H])[H])C([H])([H])C3([H])[H])c([H])c([H])c2C1([H])[H]

>  <smiles>  (23) 
[H]c1c([H])c([H])c2c(c1[H])C([H])([H])C([H])([H])C([H])([H])C2([H])N([H])C(=O)C1([H])N(C(=O)C([H])(N([H])C(=O)C([H])(N([H])C([H])([H])[H])C([H])([H])[H])C(C([H])([H])[H])(C([H])([H])[H])C([H])([H])[H])C([H])([H])c2c([H])c(OC([H])([H])C([H])([H])[N+]3([H])C([H])([H])C([H])([H])C4(C([H])([H])N(C(=O)N5C([H])([H])C([H])([H])C([H])([H])C([H])(n6nc(-c7c([H])c([H])c(Oc8c([H])c([H])c(F)c([H])c8F)c([H])c7[H])c(C(=O)N([H])[H])c6N([H])[H])C5([H])[H])C([H])([H])C([H])([H])C4([H])[H])C([H])([H])C3([H])[H])c([H])c([H])c2C1([H])[H]

$$$$
23:0:0
     RDKit          3D

 85 92  0  0  1  0  0  0  0  0999 V2000
  -29.0340  -22.2860   20.1020 C   0  0  0  0  0  3  0  0  0  0  0  0
  -27.4670  -20.0870   20.3780 C   0  0  0  0  0  1  0  0  0  0  0  0
  -28.5930  -20.3740   18.2200 C   0  0  0  0  0  1  0  0  0  0  0  0
  -28.8350  -20.4110   19.7360 C   0  0  1  0  0  0  0  0  0  0  0  0
  -29.9050  -18.8290   19.9670 C   0  0  0  0  0  2  0  0  0  0  0  0
  -30.5240  -15.7460   19.8470 C   0  0  0  0  0  0  0  0  0  0  0  0
  -30.6070  -13.2040   19.0530 C   0  0  0  0  0  2  0  0  0  0  0  0
  -29.6670  -12.8360   17.8730 C   0  0  0  0  0  2  0  0  0  0  0  0
  -28.2570  -12.4930   18.3840 C   0  0  0  0  0  2  0  0  0  0  0  0
  -27.7940  -13.4990   19.4620 C   0  0  0  0  0  3  0  0  0  0  0  0
  -28.8640  -13.7920   20.5330 C   0  0  0  0  0  2  0  0  0  0  0  0
  -30.0160  -14.3840   19.8270 N   0  0  0  0  0  0  0  0  0  0  0  0
  -31.7470  -15.7140   19.6140 O   0  0  0  0  0  0  0  0  0  0  0  0
  -29.7320  -17.0740   19.9500 N   0  0  0  0  0  0  0  0  0  0  0  0
  -28.7630  -16.8330   20.0870 H   0  0  0  0  0  0  0  0  0  0  0  0
  -25.4890  -14.0420   20.3780 C   0  0  0  0  0  0  0  0  0  0  0  0
  -24.4440  -13.2620   20.7920 C   0  0  0  0  0  0  0  0  0  0  0  0
  -24.8970  -11.9120   20.6940 C   0  0  0  0  0  0  0  0  0  0  0  0
  -26.5020  -13.1670   20.0420 N   0  0  0  0  0  0  0  0  0  0  0  0
  -26.1670  -11.8760   20.3000 N   0  0  0  0  0  0  0  0  0  0  0  0
  -24.1690  -10.6500   20.8890 C   0  0  0  0  0  0  0  0  0  0  0  0
  -24.5800   -9.6960   21.8470 C   0  0  0  0  0  3  0  0  0  0  0  0
  -23.8470   -8.5020   22.0290 C   0  0  0  0  0  3  0  0  0  0  0  0
  -22.6850   -8.2550   21.2570 C   0  0  0  0  0  0  0  0  0  0  0  0
  -22.2930   -9.1980   20.2910 C   0  0  0  0  0  3  0  0  0  0  0  0
  -23.0280  -10.3830   20.1070 C   0  0  0  0  0  3  0  0  0  0  0  0
  -21.9260   -7.1140   21.3470 O   0  0  0  0  0  0  0  0  0  0  0  0
  -21.7770   -6.4430   22.5360 C   0  0  0  0  0  0  0  0  0  0  0  0
  -21.1900   -7.0520   23.6680 C   0  0  0  0  0  3  0  0  0  0  0  0
  -20.9930   -6.3030   24.8440 C   0  0  0  0  0  3  0  0  0  0  0  0
  -21.3710   -4.9480   24.8900 C   0  0  0  0  0  0  0  0  0  0  0  0
  -21.9510   -4.3410   23.7620 C   0  0  0  0  0  3  0  0  0  0  0  0
  -22.1500   -5.0850   22.5870 C   0  0  0  0  0  0  0  0  0  0  0  0
  -22.6900   -4.4900   21.4950 F   0  0  0  0  0  0  0  0  0  0  0  0
  -21.1750   -4.2250   26.0180 F   0  0  0  0  0  0  0  0  0  0  0  0
  -23.0700  -13.7460   21.1470 C   0  0  0  0  0  0  0  0  0  0  0  0
  -22.3780  -13.0460   22.0390 N   0  0  0  0  0  0  0  0  0  0  0  0
  -22.6190  -14.7840   20.6670 O   0  0  0  0  0  0  0  0  0  0  0  0
  -22.7540  -12.2010   22.4480 H   0  0  0  0  0  0  0  0  0  0  0  0
  -21.4550  -13.3550   22.3150 H   0  0  0  0  0  0  0  0  0  0  0  0
  -25.6490  -15.4160   20.2320 N   0  0  0  0  0  0  0  0  0  0  0  0
  -24.8860  -16.0560   20.4190 H   0  0  0  0  0  0  0  0  0  0  0  0
  -26.4360  -15.8600   19.7810 H   0  0  0  0  0  0  0  0  0  0  0  0
  -28.0390  -23.9380   20.0800 C   0  0  0  0  0  3  0  0  0  0  0  0
  -28.2280  -25.6660   20.2570 O   0  0  0  0  0  0  0  0  0  0  0  0
  -24.5760  -31.8220   23.1710 C   0  0  0  0  0  0  0  0  0  0  0  0
  -27.2440  -26.8550   20.1870 C   0  0  0  0  0  0  0  0  0  0  0  0
  -23.4500  -30.4300   21.4840 C   0  0  0  0  0  3  0  0  0  0  0  0
  -24.9560  -28.8330   20.0880 C   0  0  0  0  0  0  0  0  0  0  0  0
  -26.0240  -30.6350   21.4130 C   0  0  0  0  0  2  0  0  0  0  0  0
  -26.1290  -29.2090   20.7520 C   0  0  0  0  0  0  0  0  0  0  0  0
  -27.2660  -28.2480   20.7650 C   0  0  0  0  0  3  0  0  0  0  0  0
  -26.0390  -26.6800   19.4660 C   0  0  0  0  0  3  0  0  0  0  0  0
  -24.9470  -27.5970   19.4230 C   0  0  0  0  0  3  0  0  0  0  0  0
  -23.7320  -29.7590   20.1090 C   0  0  0  0  0  2  0  0  0  0  0  0
  -24.7060  -30.9930   22.0790 N   0  0  0  0  0  0  0  0  0  0  0  0
  -23.4670  -32.0930   23.6600 O   0  0  0  0  0  0  0  0  0  0  0  0
  -22.7290  -29.4250   22.4260 C   0  0  0  0  0  0  0  0  0  0  0  0
  -21.4040  -29.2470   22.2660 N   0  0  0  0  0  0  0  0  0  0  0  0
  -23.3770  -28.7970   23.2660 O   0  0  0  0  0  0  0  0  0  0  0  0
  -20.9290  -29.8000   21.5660 H   0  0  0  0  0  0  0  0  0  0  0  0
  -18.0230  -27.9840   22.6890 C   0  0  0  0  0  0  0  0  0  0  0  0
  -20.5770  -28.2840   23.0030 C   0  0  0  0  0  3  0  0  0  0  0  0
  -20.7080  -26.8650   22.4030 C   0  0  0  0  0  2  0  0  0  0  0  0
  -19.6300  -26.5470   21.3640 C   0  0  0  0  0  2  0  0  0  0  0  0
  -18.2360  -26.6560   21.9850 C   0  0  0  0  0  2  0  0  0  0  0  0
  -19.1230  -28.7580   23.1520 C   0  0  0  0  0  0  0  0  0  0  0  0
  -18.8690  -30.0000   23.7750 C   0  0  0  0  0  3  0  0  0  0  0  0
  -17.5510  -30.4670   23.9410 C   0  0  0  0  0  3  0  0  0  0  0  0
  -16.4690  -29.6940   23.4870 C   0  0  0  0  0  3  0  0  0  0  0  0
  -16.7050  -28.4540   22.8680 C   0  0  0  0  0  3  0  0  0  0  0  0
  -25.8120  -32.4830   23.8530 C   0  0  0  0  0  3  0  0  0  0  0  0
  -26.2560  -31.7430   25.1780 C   0  0  1  0  0  0  0  0  0  0  0  0
  -25.1060  -31.5300   26.1900 C   0  0  0  0  0  1  0  0  0  0  0  0
  -26.8550  -30.3570   24.8570 C   0  0  0  0  0  1  0  0  0  0  0  0
  -27.3690  -32.5510   25.8870 C   0  0  0  0  0  1  0  0  0  0  0  0
  -25.4760  -33.8890   24.1550 N   0  0  0  0  0  0  0  0  0  0  0  0
  -25.7990  -34.9390   23.3870 C   0  0  0  0  0  0  0  0  0  0  0  0
  -26.4710  -34.8290   22.3580 O   0  0  0  0  0  0  0  0  0  0  0  0
  -24.8930  -34.0470   24.9630 H   0  0  0  0  0  0  0  0  0  0  0  0
  -24.0440  -36.7120   23.0310 C   0  0  0  0  0  1  0  0  0  0  0  0
  -25.3050  -36.3340   23.8260 C   0  0  0  0  0  3  0  0  0  0  0  0
  -27.4330  -37.2790   24.6100 C   0  0  0  0  0  1  0  0  0  0  0  0
  -26.3210  -37.3970   23.6700 N   0  0  0  0  0  0  0  0  0  0  0  0
  -25.9040  -38.3150   23.7910 H   0  0  0  0  0  0  0  0  0  0  0  0
  4  3  1  6
  4  5  1  0
  4  1  1  0
  4  2  1  0
  6 14  1  0
  7 12  1  0
  8  9  1  0
  8  7  1  0
 10  9  1  0
 10 19  1  0
 10 11  1  0
 12  6  1  0
 12 11  1  0
 13  6  2  0
 14  5  1  0
 14 15  1  0
 16 17  2  0
 17 36  1  0
 18 17  1  0
 18 21  1  0
 19 20  1  0
 19 16  1  0
 20 18  2  0
 21 22  1  0
 22 23  2  0
 24 27  1  0
 24 23  1  0
 25 24  2  0
 26 25  1  0
 26 21  2  0
 27 28  1  0
 28 33  2  0
 28 29  1  0
 29 30  2  0
 30 31  1  0
 31 35  1  0
 32 31  2  0
 33 32  1  0
 34 33  1  0
 36 37  1  0
 37 40  1  0
 37 39  1  0
 38 36  2  0
 41 16  1  0
 41 42  1  0
 43 41  1  0
 44  1  2  0
 44 45  1  0
 46 57  2  0
 47 45  1  0
 47 52  1  0
 48 56  1  0
 48 58  1  0
 49 55  1  0
 49 51  1  0
 50 56  1  0
 51 52  2  0
 51 50  1  0
 53 47  2  0
 54 53  1  0
 54 49  2  0
 55 48  1  0
 56 46  1  0
 58 60  2  0
 59 58  1  0
 61 59  1  0
 62 71  2  0
 62 67  1  0
 63 59  1  0
 63 67  1  0
 64 63  1  0
 65 66  1  0
 65 64  1  0
 66 62  1  0
 67 68  2  0
 68 69  1  0
 70 69  2  0
 71 70  1  0
 72 46  1  0
 72 77  1  0
 72 73  1  0
 73 76  1  1
 73 74  1  0
 75 73  1  0
 77 80  1  0
 78 82  1  0
 78 77  1  0
 79 78  2  0
 82 81  1  0
 84 85  1  0
 84 82  1  0
 84 83  1  0
M  ISO  4   6 100  14 100  44 101  45 101
M  END
>  <TORSDO>  (24) 
F 19

>  <SCORE>  (24) 
-15.655

>  <name>  (24) 
23

>  <ligand_id>  (24) 
23

>  <original_smiles>  (24) 
[H]c1c([H])c([H])c2c(c1[H])C([H])([H])C([H])([H])C([H])([H])C2([H])N([H])C(=O)C1([H])N(C(=O)C([H])(N([H])C(=O)C([H])(N([H])C([H])([H])[H])C([H])([H])[H])C(C([H])([H])[H])(C([H])([H])[H])C([H])([H])[H])C([H])([H])c2c([H])c(OC([H])([H])C([H])([H])C(C([H])([H])[H])(C([H])([H])[H])C([H])([H])N([H])C(=O)N3C([H])([H])C([H])([H])C([H])([H])C([H])(n4nc(-c5c([H])c([H])c(Oc6c([H])c([H])c(F)c([H])c6F)c([H])c5[H])c(C(=O)N([H])[H])c4N([H])[H])C3([H])[H])c([H])c([H])c2C1([H])[H]

>  <smiles>  (24) 
[H]c1c([H])c([H])c2c(c1[H])C([H])([H])C([H])([H])C([H])([H])C2([H])N([H])C(=O)C1([H])N(C(=O)C([H])(N([H])C(=O)C([H])(N([H])C([H])([H])[H])C([H])([H])[H])C(C([H])([H])[H])(C([H])([H])[H])C([H])([H])[H])C([H])([H])c2c([H])c(OC([H])([H])C([H])([H])C(C([H])([H])[H])(C([H])([H])[H])C([H])([H])N([H])C(=O)N3C([H])([H])C([H])([H])C([H])([H])C([H])(n4nc(-c5c([H])c([H])c(Oc6c([H])c([H])c(F)c([H])c6F)c([H])c5[H])c(C(=O)N([H])[H])c4N([H])[H])C3([H])[H])c([H])c([H])c2C1([H])[H]

$$$$
24:0:0
     RDKit          3D

 87 94  0  0  1  0  0  0  0  0999 V2000
  -28.7440  -22.9430   19.9820 C   0  0  0  0  0  0  0  0  0  0  0  0
  -29.4450  -23.1850   18.8690 N   0  0  0  0  0  4  0  0  0  0  0  0
  -28.7420  -21.5290   20.4370 N   0  0  0  0  0  0  0  0  0  0  0  0
  -29.9750  -22.4740   18.3940 H   0  0  0  0  0  0  0  0  0  0  0  0
  -29.4810  -24.1270   18.5060 H   0  0  0  0  0  0  0  0  0  0  0  0
  -28.2070  -21.4260   21.2890 H   0  0  0  0  0  0  0  0  0  0  0  0
  -27.9650  -24.3580   20.5750 C   0  0  0  0  0  2  0  0  0  0  0  0
  -28.2270  -25.9350   20.2550 O   0  0  0  0  0  0  0  0  0  0  0  0
  -24.6070  -31.8480   23.2160 C   0  0  0  0  0  0  0  0  0  0  0  0
  -27.1970  -27.0010   20.2420 C   0  0  0  0  0  0  0  0  0  0  0  0
  -23.4240  -30.4390   21.5810 C   0  0  0  0  0  3  0  0  0  0  0  0
  -24.8850  -28.8400   20.1750 C   0  0  0  0  0  0  0  0  0  0  0  0
  -25.9880  -30.6740   21.4380 C   0  0  0  0  0  2  0  0  0  0  0  0
  -26.0690  -29.2640   20.7940 C   0  0  0  0  0  0  0  0  0  0  0  0
  -27.2240  -28.3670   20.7970 C   0  0  0  0  0  3  0  0  0  0  0  0
  -25.9830  -26.7160   19.5800 C   0  0  0  0  0  3  0  0  0  0  0  0
  -24.8650  -27.5850   19.5470 C   0  0  0  0  0  3  0  0  0  0  0  0
  -23.6610  -29.7510   20.2090 C   0  0  0  0  0  2  0  0  0  0  0  0
  -24.6940  -31.0130   22.1320 N   0  0  0  0  0  0  0  0  0  0  0  0
  -23.5150  -32.1350   23.7320 O   0  0  0  0  0  0  0  0  0  0  0  0
  -22.7350  -29.4430   22.5490 C   0  0  0  0  0  0  0  0  0  0  0  0
  -21.4050  -29.2790   22.4270 N   0  0  0  0  0  0  0  0  0  0  0  0
  -23.4030  -28.8160   23.3760 O   0  0  0  0  0  0  0  0  0  0  0  0
  -20.9190  -29.8340   21.7360 H   0  0  0  0  0  0  0  0  0  0  0  0
  -18.0190  -28.0850   22.9510 C   0  0  0  0  0  0  0  0  0  0  0  0
  -20.5810  -28.3440   23.2020 C   0  0  0  0  0  3  0  0  0  0  0  0
  -20.6760  -26.9120   22.6260 C   0  0  0  0  0  2  0  0  0  0  0  0
  -19.5690  -26.5920   21.6180 C   0  0  0  0  0  2  0  0  0  0  0  0
  -18.1900  -26.7370   22.2700 C   0  0  0  0  0  2  0  0  0  0  0  0
  -19.1420  -28.8460   23.3740 C   0  0  0  0  0  0  0  0  0  0  0  0
  -18.9260  -30.1050   23.9740 C   0  0  0  0  0  3  0  0  0  0  0  0
  -17.6210  -30.6040   24.1550 C   0  0  0  0  0  3  0  0  0  0  0  0
  -16.5150  -29.8410   23.7440 C   0  0  0  0  0  3  0  0  0  0  0  0
  -16.7140  -28.5830   23.1490 C   0  0  0  0  0  3  0  0  0  0  0  0
  -25.8740  -32.4990   23.8500 C   0  0  0  0  0  3  0  0  0  0  0  0
  -26.3780  -31.7420   25.1400 C   0  0  1  0  0  0  0  0  0  0  0  0
  -25.2750  -31.5130   26.2000 C   0  0  0  0  0  1  0  0  0  0  0  0
  -26.9690  -30.3610   24.7750 C   0  0  0  0  0  1  0  0  0  0  0  0
  -27.5200  -32.5470   25.8050 C   0  0  0  0  0  1  0  0  0  0  0  0
  -25.5480  -33.8990   24.1760 N   0  0  0  0  0  0  0  0  0  0  0  0
  -25.8790  -34.9580   23.4270 C   0  0  0  0  0  0  0  0  0  0  0  0
  -26.5540  -34.8620   22.3990 O   0  0  0  0  0  0  0  0  0  0  0  0
  -24.9490  -34.0460   24.9750 H   0  0  0  0  0  0  0  0  0  0  0  0
  -24.1480  -36.7530   23.0780 C   0  0  0  0  0  1  0  0  0  0  0  0
  -25.3870  -36.3450   23.8890 C   0  0  0  0  0  3  0  0  0  0  0  0
  -27.5150  -37.2380   24.7330 C   0  0  0  0  0  1  0  0  0  0  0  0
  -26.4170  -37.4020   23.7830 N   0  0  0  0  0  0  0  0  0  0  0  0
  -26.0080  -38.3210   23.9290 H   0  0  0  0  0  0  0  0  0  0  0  0
  -29.1760  -20.0300   19.8390 C   0  0  0  0  0  2  0  0  0  0  0  0
  -29.6290  -18.5090   20.6430 C   0  0  0  0  0  2  0  0  0  0  0  0
  -29.5850  -16.7720   20.1770 C   0  0  0  0  0  2  0  0  0  0  0  0
  -30.4190  -15.2310   20.1680 C   0  0  0  0  0  0  0  0  0  0  0  0
  -30.3850  -12.7950   19.3060 C   0  0  0  0  0  2  0  0  0  0  0  0
  -29.4470  -12.6400   18.0810 C   0  0  0  0  0  2  0  0  0  0  0  0
  -27.9970  -12.3840   18.5300 C   0  0  0  0  0  2  0  0  0  0  0  0
  -27.5690  -13.3340   19.6770 C   0  0  0  0  0  3  0  0  0  0  0  0
  -28.6300  -13.4470   20.7880 C   0  0  0  0  0  2  0  0  0  0  0  0
  -29.8730  -13.9220   20.1610 N   0  0  0  0  0  0  0  0  0  0  0  0
  -31.6400  -15.2250   19.9470 O   0  0  0  0  0  0  0  0  0  0  0  0
  -25.2070  -13.8840   20.4650 C   0  0  0  0  0  0  0  0  0  0  0  0
  -24.1510  -13.1030   20.8470 C   0  0  0  0  0  0  0  0  0  0  0  0
  -24.6230  -11.7550   20.8100 C   0  0  0  0  0  0  0  0  0  0  0  0
  -26.2480  -13.0130   20.2050 N   0  0  0  0  0  0  0  0  0  0  0  0
  -25.9100  -11.7260   20.4810 N   0  0  0  0  0  0  0  0  0  0  0  0
  -23.9030  -10.4890   21.0090 C   0  0  0  0  0  0  0  0  0  0  0  0
  -24.3480   -9.5220   21.9380 C   0  0  0  0  0  3  0  0  0  0  0  0
  -23.6250   -8.3240   22.1260 C   0  0  0  0  0  3  0  0  0  0  0  0
  -22.4440   -8.0830   21.3830 C   0  0  0  0  0  0  0  0  0  0  0  0
  -22.0180   -9.0390   20.4430 C   0  0  0  0  0  3  0  0  0  0  0  0
  -22.7420  -10.2270   20.2540 C   0  0  0  0  0  3  0  0  0  0  0  0
  -21.6920   -6.9370   21.4810 O   0  0  0  0  0  0  0  0  0  0  0  0
  -21.6580   -6.1940   22.6330 C   0  0  0  0  0  0  0  0  0  0  0  0
  -21.2400   -6.7460   23.8640 C   0  0  0  0  0  3  0  0  0  0  0  0
  -21.1530   -5.9280   25.0080 C   0  0  0  0  0  3  0  0  0  0  0  0
  -21.4740   -4.5610   24.9240 C   0  0  0  0  0  0  0  0  0  0  0  0
  -21.8860   -4.0090   23.6980 C   0  0  0  0  0  3  0  0  0  0  0  0
  -21.9740   -4.8230   22.5560 C   0  0  0  0  0  0  0  0  0  0  0  0
  -22.3510   -4.2810   21.3730 F   0  0  0  0  0  0  0  0  0  0  0  0
  -21.3850   -3.7740   26.0220 F   0  0  0  0  0  0  0  0  0  0  0  0
  -22.7560  -13.5740   21.1340 C   0  0  0  0  0  0  0  0  0  0  0  0
  -22.0400  -12.8750   22.0060 N   0  0  0  0  0  0  0  0  0  0  0  0
  -22.3110  -14.6000   20.6180 O   0  0  0  0  0  0  0  0  0  0  0  0
  -22.4140  -12.0460   22.4430 H   0  0  0  0  0  0  0  0  0  0  0  0
  -21.1030  -13.1730   22.2420 H   0  0  0  0  0  0  0  0  0  0  0  0
  -25.3630  -15.2560   20.2910 N   0  0  0  0  0  0  0  0  0  0  0  0
  -24.6020  -15.9120   20.4250 H   0  0  0  0  0  0  0  0  0  0  0  0
  -26.2160  -15.6990   19.9710 H   0  0  0  0  0  0  0  0  0  0  0  0
  1  3  1  0
  1  7  1  0
  2  1  2  0
  3  6  1  0
  4  2  1  0
  5  2  1  0
  8  7  1  0
  9 20  2  0
 10  8  1  0
 10 15  1  0
 11 19  1  0
 11 21  1  0
 12 18  1  0
 12 14  1  0
 13 19  1  0
 14 15  2  0
 14 13  1  0
 16 10  2  0
 17 16  1  0
 17 12  2  0
 18 11  1  0
 19  9  1  0
 21 23  2  0
 22 21  1  0
 24 22  1  0
 25 34  2  0
 25 30  1  0
 26 22  1  0
 26 30  1  0
 27 26  1  0
 28 29  1  0
 28 27  1  0
 29 25  1  0
 30 31  2  0
 31 32  1  0
 33 32  2  0
 34 33  1  0
 35  9  1  0
 35 40  1  0
 35 36  1  0
 36 39  1  1
 36 37  1  0
 38 36  1  0
 40 43  1  0
 41 45  1  0
 41 40  1  0
 42 41  2  0
 45 44  1  0
 47 45  1  0
 47 48  1  0
 47 46  1  0
 49  3  1  0
 49 50  1  0
 51 50  1  0
 52 51  1  0
 53 58  1  0
 54 55  1  0
 54 53  1  0
 56 55  1  0
 56 63  1  0
 56 57  1  0
 58 52  1  0
 58 57  1  0
 59 52  2  0
 60 61  2  0
 61 80  1  0
 62 61  1  0
 62 65  1  0
 63 60  1  0
 63 64  1  0
 64 62  2  0
 65 66  1  0
 66 67  2  0
 68 71  1  0
 68 67  1  0
 69 68  2  0
 70 69  1  0
 70 65  2  0
 71 72  1  0
 72 73  1  0
 73 74  2  0
 75 74  1  0
 75 79  1  0
 76 75  2  0
 77 72  2  0
 77 76  1  0
 78 77  1  0
 80 81  1  0
 81 84  1  0
 81 83  1  0
 82 80  2  0
 85 86  1  0
 85 60  1  0
 87 85  1  0
M  ISO  4   7 101   8 101  51 100  52 100
M  END
>  <TORSDO>  (25) 
F 20

>  <SCORE>  (25) 
-15.584

>  <name>  (25) 
24

>  <ligand_id>  (25) 
24

>  <original_smiles>  (25) 
[H]c1c([H])c([H])c2c(c1[H])C([H])([H])C([H])([H])C([H])([H])C2([H])N([H])C(=O)C1([H])N(C(=O)C([H])(N([H])C(=O)C([H])(N([H])C([H])([H])[H])C([H])([H])[H])C(C([H])([H])[H])(C([H])([H])[H])C([H])([H])[H])C([H])([H])c2c([H])c(OC([H])([H])C(N([H])[H])=[N+]([H])C([H])([H])C([H])([H])C([H])([H])C(=O)N3C([H])([H])C([H])([H])C([H])([H])C([H])(n4nc(-c5c([H])c([H])c(Oc6c([H])c([H])c(F)c([H])c6F)c([H])c5[H])c(C(=O)N([H])[H])c4N([H])[H])C3([H])[H])c([H])c([H])c2C1([H])[H]

>  <smiles>  (25) 
[H]c1c([H])c([H])c2c(c1[H])C([H])([H])C([H])([H])C([H])([H])C2([H])N([H])C(=O)C1([H])N(C(=O)C([H])(N([H])C(=O)C([H])(N([H])C([H])([H])[H])C([H])([H])[H])C(C([H])([H])[H])(C([H])([H])[H])C([H])([H])[H])C([H])([H])c2c([H])c(OC([H])([H])C(N([H])[H])=[N+]([H])C([H])([H])C([H])([H])C([H])([H])C(=O)N3C([H])([H])C([H])([H])C([H])([H])C([H])(n4nc(-c5c([H])c([H])c(Oc6c([H])c([H])c(F)c([H])c6F)c([H])c5[H])c(C(=O)N([H])[H])c4N([H])[H])C3([H])[H])c([H])c([H])c2C1([H])[H]

$$$$
25:0:0
     RDKit          3D

 85 92  0  0  1  0  0  0  0  0999 V2000
  -30.0110  -22.4700   19.2120 C   0  0  0  0  0  1  0  0  0  0  0  0
  -29.6760  -22.4560   21.6820 C   0  0  0  0  0  1  0  0  0  0  0  0
  -28.9750  -22.2760   20.3280 C   0  0  2  0  0  0  0  0  0  0  0  0
  -28.7020  -20.3700   20.2830 C   0  0  0  0  0  3  0  0  0  0  0  0
  -29.7340  -18.7450   20.3110 C   0  0  0  0  0  3  0  0  0  0  0  0
  -30.2640  -15.6440   20.2080 C   0  0  0  0  0  0  0  0  0  0  0  0
  -30.3350  -13.1300   19.3480 C   0  0  0  0  0  2  0  0  0  0  0  0
  -29.4200  -12.7710   18.1440 C   0  0  0  0  0  2  0  0  0  0  0  0
  -28.0010  -12.4200   18.6180 C   0  0  0  0  0  2  0  0  0  0  0  0
  -27.5160  -13.3990   19.7100 C   0  0  0  0  0  3  0  0  0  0  0  0
  -28.5660  -13.6770   20.8100 C   0  0  0  0  0  2  0  0  0  0  0  0
  -29.7330  -14.2920   20.1390 N   0  0  0  0  0  0  0  0  0  0  0  0
  -31.4920  -15.5980   20.0100 O   0  0  0  0  0  0  0  0  0  0  0  0
  -29.5080  -16.9930   20.3080 N   0  0  0  0  0  0  0  0  0  0  0  0
  -28.5260  -16.7810   20.4090 H   0  0  0  0  0  0  0  0  0  0  0  0
  -25.1630  -13.9060   20.5270 C   0  0  0  0  0  0  0  0  0  0  0  0
  -24.1170  -13.1130   20.9020 C   0  0  0  0  0  0  0  0  0  0  0  0
  -24.5980  -11.7690   20.8430 C   0  0  0  0  0  0  0  0  0  0  0  0
  -26.2100  -13.0480   20.2500 N   0  0  0  0  0  0  0  0  0  0  0  0
  -25.8850  -11.7530   20.5090 N   0  0  0  0  0  0  0  0  0  0  0  0
  -23.8840  -10.4970   21.0260 C   0  0  0  0  0  0  0  0  0  0  0  0
  -24.3180   -9.5330   21.9630 C   0  0  0  0  0  3  0  0  0  0  0  0
  -23.6000   -8.3300   22.1360 C   0  0  0  0  0  3  0  0  0  0  0  0
  -22.4330   -8.0820   21.3750 C   0  0  0  0  0  0  0  0  0  0  0  0
  -22.0180   -9.0360   20.4280 C   0  0  0  0  0  3  0  0  0  0  0  0
  -22.7380  -10.2290   20.2520 C   0  0  0  0  0  3  0  0  0  0  0  0
  -21.6880   -6.9310   21.4570 O   0  0  0  0  0  0  0  0  0  0  0  0
  -21.6110   -6.2050   22.6180 C   0  0  0  0  0  0  0  0  0  0  0  0
  -21.1070   -6.7620   23.8130 C   0  0  0  0  0  3  0  0  0  0  0  0
  -20.9810   -5.9600   24.9650 C   0  0  0  0  0  3  0  0  0  0  0  0
  -21.3480   -4.6010   24.9220 C   0  0  0  0  0  0  0  0  0  0  0  0
  -21.8450   -4.0440   23.7310 C   0  0  0  0  0  3  0  0  0  0  0  0
  -21.9730   -4.8420   22.5820 C   0  0  0  0  0  0  0  0  0  0  0  0
  -22.4320   -4.2950   21.4310 F   0  0  0  0  0  0  0  0  0  0  0  0
  -21.2210   -3.8290   26.0260 F   0  0  0  0  0  0  0  0  0  0  0  0
  -22.7200  -13.5740   21.1960 C   0  0  0  0  0  0  0  0  0  0  0  0
  -22.0120  -12.8660   22.0680 N   0  0  0  0  0  0  0  0  0  0  0  0
  -22.2670  -14.6000   20.6890 O   0  0  0  0  0  0  0  0  0  0  0  0
  -22.3920  -12.0380   22.5000 H   0  0  0  0  0  0  0  0  0  0  0  0
  -21.0750  -13.1580   22.3080 H   0  0  0  0  0  0  0  0  0  0  0  0
  -25.3070  -15.2810   20.3640 N   0  0  0  0  0  0  0  0  0  0  0  0
  -24.5310  -15.9220   20.4920 H   0  0  0  0  0  0  0  0  0  0  0  0
  -26.1350  -15.7320   19.9960 H   0  0  0  0  0  0  0  0  0  0  0  0
  -27.9500  -23.9030   20.1990 C   0  0  0  0  0  2  0  0  0  0  0  0
  -28.1440  -25.6350   20.3030 O   0  0  0  0  0  0  0  0  0  0  0  0
  -24.6490  -31.8710   23.2540 C   0  0  0  0  0  0  0  0  0  0  0  0
  -27.1630  -26.8270   20.2510 C   0  0  0  0  0  0  0  0  0  0  0  0
  -23.4550  -30.4840   21.6130 C   0  0  0  0  0  3  0  0  0  0  0  0
  -24.8960  -28.8400   20.1960 C   0  0  0  0  0  0  0  0  0  0  0  0
  -26.0320  -30.6280   21.4880 C   0  0  0  0  0  2  0  0  0  0  0  0
  -26.0930  -29.2010   20.8290 C   0  0  0  0  0  0  0  0  0  0  0  0
  -27.2120  -28.2220   20.8230 C   0  0  0  0  0  3  0  0  0  0  0  0
  -25.9350  -26.6650   19.5660 C   0  0  0  0  0  3  0  0  0  0  0  0
  -24.8550  -27.5980   19.5400 C   0  0  0  0  0  3  0  0  0  0  0  0
  -23.6910  -29.7910   20.2390 C   0  0  0  0  0  2  0  0  0  0  0  0
  -24.7360  -31.0260   22.1710 N   0  0  0  0  0  0  0  0  0  0  0  0
  -23.5570  -32.1720   23.7670 O   0  0  0  0  0  0  0  0  0  0  0  0
  -22.7370  -29.5040   22.5800 C   0  0  0  0  0  0  0  0  0  0  0  0
  -21.4050  -29.3520   22.4510 N   0  0  0  0  0  0  0  0  0  0  0  0
  -23.3900  -28.8780   23.4180 O   0  0  0  0  0  0  0  0  0  0  0  0
  -20.9290  -29.9080   21.7530 H   0  0  0  0  0  0  0  0  0  0  0  0
  -18.0120  -28.1500   22.9510 C   0  0  0  0  0  0  0  0  0  0  0  0
  -20.5730  -28.4180   23.2190 C   0  0  0  0  0  3  0  0  0  0  0  0
  -20.6740  -26.9840   22.6460 C   0  0  0  0  0  2  0  0  0  0  0  0
  -19.5750  -26.6630   21.6280 C   0  0  0  0  0  2  0  0  0  0  0  0
  -18.1920  -26.8040   22.2680 C   0  0  0  0  0  2  0  0  0  0  0  0
  -19.1300  -28.9150   23.3830 C   0  0  0  0  0  0  0  0  0  0  0  0
  -18.9060  -30.1710   23.9860 C   0  0  0  0  0  3  0  0  0  0  0  0
  -17.5990  -30.6650   24.1570 C   0  0  0  0  0  3  0  0  0  0  0  0
  -16.4970  -29.9000   23.7390 C   0  0  0  0  0  3  0  0  0  0  0  0
  -16.7040  -28.6430   23.1420 C   0  0  0  0  0  3  0  0  0  0  0  0
  -25.9160  -32.5120   23.8980 C   0  0  0  0  0  3  0  0  0  0  0  0
  -26.4020  -31.7530   25.1950 C   0  0  1  0  0  0  0  0  0  0  0  0
  -25.2880  -31.5400   26.2480 C   0  0  0  0  0  1  0  0  0  0  0  0
  -26.9770  -30.3630   24.8410 C   0  0  0  0  0  1  0  0  0  0  0  0
  -27.5500  -32.5430   25.8650 C   0  0  0  0  0  1  0  0  0  0  0  0
  -25.6030  -33.9160   24.2290 N   0  0  0  0  0  0  0  0  0  0  0  0
  -25.9240  -34.9770   23.4750 C   0  0  0  0  0  0  0  0  0  0  0  0
  -26.5740  -34.8760   22.4320 O   0  0  0  0  0  0  0  0  0  0  0  0
  -25.0210  -34.0660   25.0400 H   0  0  0  0  0  0  0  0  0  0  0  0
  -24.1880  -36.7800   23.1870 C   0  0  0  0  0  1  0  0  0  0  0  0
  -25.4570  -36.3690   23.9520 C   0  0  0  0  0  3  0  0  0  0  0  0
  -27.6140  -37.2620   24.7150 C   0  0  0  0  0  1  0  0  0  0  0  0
  -26.4840  -37.4230   23.8030 N   0  0  0  0  0  0  0  0  0  0  0  0
  -26.0820  -38.3430   23.9550 H   0  0  0  0  0  0  0  0  0  0  0  0
  3  1  1  6
  3  2  1  0
  4  5  2  0
  4  3  1  0
  6 14  1  0
  7 12  1  0
  8  9  1  0
  8  7  1  0
 10  9  1  0
 10 19  1  0
 10 11  1  0
 12  6  1  0
 12 11  1  0
 13  6  2  0
 14  5  1  0
 14 15  1  0
 16 17  2  0
 17 36  1  0
 18 17  1  0
 18 21  1  0
 19 20  1  0
 19 16  1  0
 20 18  2  0
 21 22  1  0
 22 23  2  0
 24 27  1  0
 24 23  1  0
 25 24  2  0
 26 25  1  0
 26 21  2  0
 27 28  1  0
 28 29  1  0
 29 30  2  0
 31 30  1  0
 31 35  1  0
 32 31  2  0
 33 28  2  0
 33 32  1  0
 34 33  1  0
 36 37  1  0
 37 40  1  0
 37 39  1  0
 38 36  2  0
 41 42  1  0
 41 16  1  0
 43 41  1  0
 44 45  1  0
 44  3  1  0
 46 57  2  0
 47 45  1  0
 47 52  1  0
 48 56  1  0
 48 58  1  0
 49 55  1  0
 49 51  1  0
 50 56  1  0
 51 50  1  0
 52 51  2  0
 53 47  2  0
 54 53  1  0
 54 49  2  0
 55 48  1  0
 56 46  1  0
 58 60  2  0
 59 58  1  0
 61 59  1  0
 62 71  2  0
 62 67  1  0
 63 59  1  0
 63 67  1  0
 64 63  1  0
 65 66  1  0
 65 64  1  0
 66 62  1  0
 67 68  2  0
 68 69  1  0
 70 69  2  0
 71 70  1  0
 72 46  1  0
 72 77  1  0
 72 73  1  0
 73 76  1  1
 73 74  1  0
 75 73  1  0
 77 80  1  0
 78 82  1  0
 78 77  1  0
 79 78  2  0
 82 81  1  0
 84 82  1  0
 84 85  1  0
 84 83  1  0
M  ISO  4   6 100  14 100  44 101  45 101
M  END
>  <TORSDO>  (26) 
F 19

>  <SCORE>  (26) 
-16.417

>  <name>  (26) 
25

>  <ligand_id>  (26) 
25

>  <original_smiles>  (26) 
[H]c1c([H])c([H])c2c(c1[H])C([H])([H])C([H])([H])C([H])([H])C2([H])N([H])C(=O)C1([H])N(C(=O)C([H])(N([H])C(=O)C([H])(N([H])C([H])([H])[H])C([H])([H])[H])C(C([H])([H])[H])(C([H])([H])[H])C([H])([H])[H])C([H])([H])c2c([H])c(OC([H])([H])C(C([H])([H])[H])(C([H])([H])[H])C([H])([H])C([H])([H])N([H])C(=O)N3C([H])([H])C([H])([H])C([H])([H])C([H])(n4nc(-c5c([H])c([H])c(Oc6c([H])c([H])c(F)c([H])c6F)c([H])c5[H])c(C(=O)N([H])[H])c4N([H])[H])C3([H])[H])c([H])c([H])c2C1([H])[H]

>  <smiles>  (26) 
[H]c1c([H])c([H])c2c(c1[H])C([H])([H])C([H])([H])C([H])([H])C2([H])N([H])C(=O)C1([H])N(C(=O)C([H])(N([H])C(=O)C([H])(N([H])C([H])([H])[H])C([H])([H])[H])C(C([H])([H])[H])(C([H])([H])[H])C([H])([H])[H])C([H])([H])c2c([H])c(OC([H])([H])C(C([H])([H])[H])(C([H])([H])[H])C([H])([H])C([H])([H])N([H])C(=O)N3C([H])([H])C([H])([H])C([H])([H])C([H])(n4nc(-c5c([H])c([H])c(Oc6c([H])c([H])c(F)c([H])c6F)c([H])c5[H])c(C(=O)N([H])[H])c4N([H])[H])C3([H])[H])c([H])c([H])c2C1([H])[H]

$$$$
26:0:0
     RDKit          3D

 90 97  0  0  1  0  0  0  0  0999 V2000
  -28.4430  -21.4880   20.4500 C   0  0  0  0  0  3  0  0  0  0  0  0
  -28.9860  -20.2500   19.7720 N   0  0  2  0  0  4  0  0  0  0  0  0
  -29.9900  -20.3540   19.8290 H   0  0  0  0  0  0  0  0  0  0  0  0
  -27.1900  -20.0680   17.9690 C   0  0  0  0  0  1  0  0  0  0  0  0
  -28.6900  -20.1720   18.3100 C   0  0  0  0  0  2  0  0  0  0  0  0
  -28.6880  -18.9660   20.5060 C   0  0  0  0  0  2  0  0  0  0  0  0
  -29.6350  -17.7510   20.1940 C   0  0  0  0  0  2  0  0  0  0  0  0
  -29.2120  -16.4050   20.8740 C   0  0  0  0  0  2  0  0  0  0  0  0
  -30.6900  -14.4980   20.0950 C   0  0  0  0  0  0  0  0  0  0  0  0
  -30.2950  -12.3570   18.9090 C   0  0  0  0  0  2  0  0  0  0  0  0
  -29.2980  -12.5520   17.7520 C   0  0  0  0  0  2  0  0  0  0  0  0
  -27.8520  -12.3850   18.2560 C   0  0  0  0  0  2  0  0  0  0  0  0
  -27.5720  -13.2280   19.5270 C   0  0  0  0  0  3  0  0  0  0  0  0
  -28.6790  -13.0340   20.5880 C   0  0  0  0  0  2  0  0  0  0  0  0
  -29.9730  -13.3430   19.9590 N   0  0  0  0  0  0  0  0  0  0  0  0
  -31.7450  -14.6830   19.4800 O   0  0  0  0  0  0  0  0  0  0  0  0
  -31.2650  -15.7730   22.0680 C   0  0  0  0  0  1  0  0  0  0  0  0
  -30.2900  -15.3910   21.0420 N   0  0  0  0  0  0  0  0  0  0  0  0
  -25.2210  -13.8380   20.3700 C   0  0  0  0  0  0  0  0  0  0  0  0
  -24.1720  -13.0680   20.7920 C   0  0  0  0  0  0  0  0  0  0  0  0
  -24.6280  -11.7150   20.7300 C   0  0  0  0  0  0  0  0  0  0  0  0
  -26.2480  -12.9560   20.0790 N   0  0  0  0  0  0  0  0  0  0  0  0
  -25.8980  -11.6730   20.3490 N   0  0  0  0  0  0  0  0  0  0  0  0
  -23.9100  -10.4520   20.9480 C   0  0  0  0  0  0  0  0  0  0  0  0
  -24.3690   -9.4940   21.8790 C   0  0  0  0  0  3  0  0  0  0  0  0
  -23.6520   -8.2960   22.0840 C   0  0  0  0  0  3  0  0  0  0  0  0
  -22.4610   -8.0500   21.3590 C   0  0  0  0  0  0  0  0  0  0  0  0
  -22.0220   -8.9970   20.4180 C   0  0  0  0  0  3  0  0  0  0  0  0
  -22.7400  -10.1860   20.2100 C   0  0  0  0  0  3  0  0  0  0  0  0
  -21.7100   -6.9060   21.4740 O   0  0  0  0  0  0  0  0  0  0  0  0
  -21.6700   -6.1870   22.6420 C   0  0  0  0  0  0  0  0  0  0  0  0
  -21.2510   -6.7650   23.8600 C   0  0  0  0  0  3  0  0  0  0  0  0
  -21.1610   -5.9710   25.0210 C   0  0  0  0  0  3  0  0  0  0  0  0
  -21.4770   -4.6000   24.9640 C   0  0  0  0  0  0  0  0  0  0  0  0
  -21.8910   -4.0230   23.7510 C   0  0  0  0  0  3  0  0  0  0  0  0
  -21.9830   -4.8130   22.5920 C   0  0  0  0  0  0  0  0  0  0  0  0
  -22.3610   -4.2470   21.4200 F   0  0  0  0  0  0  0  0  0  0  0  0
  -21.3830   -3.8350   26.0780 F   0  0  0  0  0  0  0  0  0  0  0  0
  -22.7910  -13.5460   21.1360 C   0  0  0  0  0  0  0  0  0  0  0  0
  -22.1020  -12.8410   22.0270 N   0  0  0  0  0  0  0  0  0  0  0  0
  -22.3330  -14.5790   20.6500 O   0  0  0  0  0  0  0  0  0  0  0  0
  -22.4850  -12.0050   22.4430 H   0  0  0  0  0  0  0  0  0  0  0  0
  -21.1780  -13.1440   22.2990 H   0  0  0  0  0  0  0  0  0  0  0  0
  -25.3810  -15.2090   20.1900 N   0  0  0  0  0  0  0  0  0  0  0  0
  -24.6170  -15.8630   20.3290 H   0  0  0  0  0  0  0  0  0  0  0  0
  -26.2060  -15.6420   19.7990 H   0  0  0  0  0  0  0  0  0  0  0  0
  -28.6890  -22.8480   19.7060 C   0  0  0  0  0  3  0  0  0  0  0  0
  -28.2780  -24.1610   20.4500 C   0  0  0  0  0  2  0  0  0  0  0  0
  -28.5500  -25.4570   19.6200 C   0  0  0  0  0  2  0  0  0  0  0  0
  -28.4020  -26.7170   20.3180 O   0  0  0  0  0  0  0  0  0  0  0  0
  -24.6250  -31.9760   23.3140 C   0  0  0  0  0  0  0  0  0  0  0  0
  -27.2220  -27.4450   20.2790 C   0  0  0  0  0  0  0  0  0  0  0  0
  -23.4060  -30.5700   21.6860 C   0  0  0  0  0  3  0  0  0  0  0  0
  -24.8430  -29.0020   20.2750 C   0  0  0  0  0  0  0  0  0  0  0  0
  -25.9390  -30.8940   21.4880 C   0  0  0  0  0  2  0  0  0  0  0  0
  -26.0080  -29.5130   20.8580 C   0  0  0  0  0  0  0  0  0  0  0  0
  -27.1970  -28.7430   20.8540 C   0  0  0  0  0  3  0  0  0  0  0  0
  -26.0300  -26.9520   19.7000 C   0  0  0  0  0  3  0  0  0  0  0  0
  -24.8510  -27.7220   19.6950 C   0  0  0  0  0  3  0  0  0  0  0  0
  -23.6100  -29.8770   20.3130 C   0  0  0  0  0  2  0  0  0  0  0  0
  -24.6750  -31.1620   22.2220 N   0  0  0  0  0  0  0  0  0  0  0  0
  -23.5460  -32.2660   23.8510 O   0  0  0  0  0  0  0  0  0  0  0  0
  -22.7440  -29.5630   22.6560 C   0  0  0  0  0  0  0  0  0  0  0  0
  -21.4200  -29.3830   22.5200 N   0  0  0  0  0  0  0  0  0  0  0  0
  -23.4190  -28.9470   23.4850 O   0  0  0  0  0  0  0  0  0  0  0  0
  -20.9400  -29.9320   21.8220 H   0  0  0  0  0  0  0  0  0  0  0  0
  -18.0410  -28.1910   22.9940 C   0  0  0  0  0  0  0  0  0  0  0  0
  -20.5950  -28.4590   23.2970 C   0  0  0  0  0  3  0  0  0  0  0  0
  -20.7070  -27.0180   22.7480 C   0  0  0  0  0  2  0  0  0  0  0  0
  -19.6210  -26.6750   21.7240 C   0  0  0  0  0  2  0  0  0  0  0  0
  -18.2290  -26.8310   22.3440 C   0  0  0  0  0  2  0  0  0  0  0  0
  -19.1530  -28.9630   23.4250 C   0  0  0  0  0  0  0  0  0  0  0  0
  -18.9250  -30.2360   23.9900 C   0  0  0  0  0  3  0  0  0  0  0  0
  -17.6170  -30.7380   24.1290 C   0  0  0  0  0  3  0  0  0  0  0  0
  -16.5210  -29.9640   23.7140 C   0  0  0  0  0  3  0  0  0  0  0  0
  -16.7340  -28.6920   23.1530 C   0  0  0  0  0  3  0  0  0  0  0  0
  -25.9160  -32.6000   23.9300 C   0  0  0  0  0  3  0  0  0  0  0  0
  -25.6230  -34.0060   24.2450 N   0  0  0  0  0  0  0  0  0  0  0  0
  -25.9650  -35.0450   23.4730 C   0  0  0  0  0  0  0  0  0  0  0  0
  -26.6330  -34.9230   22.4430 O   0  0  0  0  0  0  0  0  0  0  0  0
  -25.0340  -34.1750   25.0470 H   0  0  0  0  0  0  0  0  0  0  0  0
  -24.2510  -36.8470   23.0970 C   0  0  0  0  0  1  0  0  0  0  0  0
  -25.4890  -36.4420   23.9140 C   0  0  0  0  0  3  0  0  0  0  0  0
  -27.6340  -37.3160   24.7310 C   0  0  0  0  0  1  0  0  0  0  0  0
  -26.5290  -37.4860   23.7900 N   0  0  0  0  0  0  0  0  0  0  0  0
  -26.1320  -38.4100   23.9330 H   0  0  0  0  0  0  0  0  0  0  0  0
  -26.4280  -31.8360   25.2140 C   0  0  1  0  0  0  0  0  0  0  0  0
  -25.3310  -31.6130   26.2810 C   0  0  0  0  0  1  0  0  0  0  0  0
  -27.0020  -30.4520   24.8320 C   0  0  0  0  0  1  0  0  0  0  0  0
  -27.5820  -32.6290   25.8700 C   0  0  0  0  0  1  0  0  0  0  0  0
  2  3  1  6
  2  1  1  0
  2  6  1  0
  4  5  1  0
  5  2  1  0
  7  6  1  0
  7  8  1  0
  8 18  1  0
  9 18  1  0
 10 15  1  0
 11 12  1  0
 11 10  1  0
 13 12  1  0
 13 22  1  0
 13 14  1  0
 15  9  1  0
 15 14  1  0
 16  9  2  0
 18 17  1  0
 19 20  2  0
 20 39  1  0
 21 20  1  0
 21 24  1  0
 22 23  1  0
 22 19  1  0
 23 21  2  0
 24 25  1  0
 25 26  2  0
 27 30  1  0
 27 26  1  0
 28 27  2  0
 29 28  1  0
 29 24  2  0
 30 31  1  0
 31 32  1  0
 32 33  2  0
 34 33  1  0
 34 38  1  0
 35 34  2  0
 36 31  2  0
 36 35  1  0
 37 36  1  0
 39 40  1  0
 40 43  1  0
 40 42  1  0
 41 39  2  0
 44 45  1  0
 44 19  1  0
 46 44  1  0
 47  1  2  0
 47 48  1  0
 49 50  1  0
 49 48  1  0
 51 62  2  0
 52 50  1  0
 52 57  1  0
 53 61  1  0
 53 63  1  0
 54 60  1  0
 54 56  1  0
 55 61  1  0
 56 55  1  0
 57 56  2  0
 58 52  2  0
 59 58  1  0
 59 54  2  0
 60 53  1  0
 61 51  1  0
 63 65  2  0
 64 63  1  0
 66 64  1  0
 67 76  2  0
 67 72  1  0
 68 64  1  0
 68 72  1  0
 69 68  1  0
 70 71  1  0
 70 69  1  0
 71 67  1  0
 72 73  2  0
 73 74  1  0
 75 74  2  0
 76 75  1  0
 77 51  1  0
 77 78  1  0
 77 87  1  0
 78 81  1  0
 79 83  1  0
 79 78  1  0
 80 79  2  0
 83 82  1  0
 85 83  1  0
 85 86  1  0
 85 84  1  0
 87 90  1  1
 87 88  1  0
 89 87  1  0
M  ISO  4   9 100  18 100  49 101  50 101
M  END
>  <TORSDO>  (27) 
F 24

>  <SCORE>  (27) 
-12.202

>  <name>  (27) 
26

>  <ligand_id>  (27) 
26

>  <original_smiles>  (27) 
[H]c1c([H])c([H])c2c(c1[H])C([H])([H])C([H])([H])C([H])([H])C2([H])N([H])C(=O)C1([H])N(C(=O)C([H])(N([H])C(=O)C([H])(N([H])C([H])([H])[H])C([H])([H])[H])C(C([H])([H])[H])(C([H])([H])[H])C([H])([H])[H])C([H])([H])c2c([H])c(OC([H])([H])C([H])([H])C([H])([H])C([H])([H])[N+]([H])(C([H])([H])C([H])([H])[H])C([H])([H])C([H])([H])C([H])([H])N(C(=O)N3C([H])([H])C([H])([H])C([H])([H])C([H])(n4nc(-c5c([H])c([H])c(Oc6c([H])c([H])c(F)c([H])c6F)c([H])c5[H])c(C(=O)N([H])[H])c4N([H])[H])C3([H])[H])C([H])([H])[H])c([H])c([H])c2C1([H])[H]

>  <smiles>  (27) 
[H]c1c([H])c([H])c2c(c1[H])C([H])([H])C([H])([H])C([H])([H])C2([H])N([H])C(=O)C1([H])N(C(=O)C([H])(N([H])C(=O)C([H])(N([H])C([H])([H])[H])C([H])([H])[H])C(C([H])([H])[H])(C([H])([H])[H])C([H])([H])[H])C([H])([H])c2c([H])c(OC([H])([H])C([H])([H])C([H])([H])C([H])([H])[N+]([H])(C([H])([H])C([H])([H])[H])C([H])([H])C([H])([H])C([H])([H])N(C(=O)N3C([H])([H])C([H])([H])C([H])([H])C([H])(n4nc(-c5c([H])c([H])c(Oc6c([H])c([H])c(F)c([H])c6F)c([H])c5[H])c(C(=O)N([H])[H])c4N([H])[H])C3([H])[H])C([H])([H])[H])c([H])c([H])c2C1([H])[H]

$$$$
27:0:0
     RDKit          3D

 97105  0  0  1  0  0  0  0  0999 V2000
  -29.3910  -21.3760   22.9880 C   0  0  0  0  0  3  0  0  0  0  0  0
  -28.7130  -22.3990   22.2940 C   0  0  0  0  0  3  0  0  0  0  0  0
  -31.4860  -22.0410   21.9260 C   0  0  0  0  0  3  0  0  0  0  0  0
  -30.7810  -21.1960   22.8120 C   0  0  0  0  0  0  0  0  0  0  0  0
  -29.4240  -23.2410   21.4120 C   0  0  0  0  0  0  0  0  0  0  0  0
  -30.8180  -23.0790   21.2420 C   0  0  0  0  0  0  0  0  0  0  0  0
  -28.7630  -24.2510   20.7080 N   0  0  0  0  0  0  0  0  0  0  0  0
  -27.7570  -24.2790   20.8150 H   0  0  0  0  0  0  0  0  0  0  0  0
  -29.0190  -24.3050   19.7270 H   0  0  0  0  0  0  0  0  0  0  0  0
  -31.4710  -23.9960   20.4060 N   0  0  0  0  0  0  0  0  0  0  0  0
  -30.7960  -24.7190   20.1670 H   0  0  0  0  0  0  0  0  0  0  0  0
  -32.7720  -24.5360   20.8060 C   0  0  0  0  0  2  0  0  0  0  0  0
  -33.4540  -25.3580   19.6900 C   0  0  0  0  0  2  0  0  0  0  0  0
  -33.2050  -26.7560   19.8610 O   0  0  0  0  0  0  0  0  0  0  0  0
  -28.1900  -29.9140   23.7790 C   0  0  0  0  0  0  0  0  0  0  0  0
  -31.9000  -27.1970   19.9130 C   0  0  0  0  0  0  0  0  0  0  0  0
  -27.4220  -28.9590   21.6320 C   0  0  0  0  0  3  0  0  0  0  0  0
  -29.2620  -28.2150   20.0350 C   0  0  0  0  0  0  0  0  0  0  0  0
  -29.8340  -29.7550   21.9160 C   0  0  0  0  0  2  0  0  0  0  0  0
  -30.2370  -28.6940   20.9160 C   0  0  0  0  0  0  0  0  0  0  0  0
  -31.5550  -28.1880   20.8580 C   0  0  0  0  0  3  0  0  0  0  0  0
  -30.9020  -26.7410   19.0170 C   0  0  0  0  0  3  0  0  0  0  0  0
  -29.5870  -27.2360   19.0840 C   0  0  0  0  0  3  0  0  0  0  0  0
  -27.8750  -28.8050   20.1540 C   0  0  0  0  0  2  0  0  0  0  0  0
  -28.4930  -29.5380   22.5050 N   0  0  0  0  0  0  0  0  0  0  0  0
  -27.0330  -29.8230   24.2150 O   0  0  0  0  0  0  0  0  0  0  0  0
  -26.9030  -27.5900   22.1270 C   0  0  0  0  0  0  0  0  0  0  0  0
  -25.6470  -27.2650   21.7760 N   0  0  0  0  0  0  0  0  0  0  0  0
  -27.6270  -26.8390   22.7860 O   0  0  0  0  0  0  0  0  0  0  0  0
  -25.1180  -27.9340   21.2330 H   0  0  0  0  0  0  0  0  0  0  0  0
  -22.4950  -25.5270   21.5060 C   0  0  0  0  0  0  0  0  0  0  0  0
  -24.9610  -26.0150   22.1000 C   0  0  0  0  0  3  0  0  0  0  0  0
  -25.3200  -24.9050   21.0870 C   0  0  0  0  0  2  0  0  0  0  0  0
  -24.3310  -24.8130   19.9210 C   0  0  0  0  0  2  0  0  0  0  0  0
  -22.9170  -24.5350   20.4360 C   0  0  0  0  0  2  0  0  0  0  0  0
  -23.4550  -26.2340   22.2770 C   0  0  0  0  0  0  0  0  0  0  0  0
  -23.0100  -27.1700   23.2340 C   0  0  0  0  0  3  0  0  0  0  0  0
  -21.6360  -27.4070   23.4270 C   0  0  0  0  0  3  0  0  0  0  0  0
  -20.6880  -26.6930   22.6710 C   0  0  0  0  0  3  0  0  0  0  0  0
  -21.1170  -25.7530   21.7180 C   0  0  0  0  0  3  0  0  0  0  0  0
  -29.2730  -30.4960   24.7400 C   0  0  0  0  0  3  0  0  0  0  0  0
  -29.6780  -29.5020   25.8950 C   0  0  1  0  0  0  0  0  0  0  0  0
  -28.4700  -28.9360   26.6770 C   0  0  0  0  0  1  0  0  0  0  0  0
  -30.4770  -28.3040   25.3290 C   0  0  0  0  0  1  0  0  0  0  0  0
  -30.6050  -30.2190   26.9030 C   0  0  0  0  0  1  0  0  0  0  0  0
  -28.7460  -31.7520   25.2900 N   0  0  0  0  0  0  0  0  0  0  0  0
  -29.0700  -32.9740   24.8430 C   0  0  0  0  0  0  0  0  0  0  0  0
  -29.9130  -33.1620   23.9620 O   0  0  0  0  0  0  0  0  0  0  0  0
  -28.0060  -31.6720   25.9720 H   0  0  0  0  0  0  0  0  0  0  0  0
  -27.2180  -34.6460   24.5430 C   0  0  0  0  0  1  0  0  0  0  0  0
  -28.3440  -34.1740   25.4770 C   0  0  0  0  0  3  0  0  0  0  0  0
  -30.1820  -35.0200   26.8680 C   0  0  0  0  0  1  0  0  0  0  0  0
  -29.2420  -35.3080   25.7870 N   0  0  0  0  0  0  0  0  0  0  0  0
  -28.7060  -36.1320   26.0470 H   0  0  0  0  0  0  0  0  0  0  0  0
  -31.5510  -20.1660   23.6350 C   0  0  0  0  0  2  0  0  0  0  0  0
  -32.0720  -19.0310   22.8480 N   0  0  0  0  0  4  0  0  0  0  0  0
  -32.8460  -18.6520   23.3680 H   0  0  0  0  0  0  0  0  0  0  0  0
  -32.4420  -19.3710   21.9750 H   0  0  0  0  0  0  0  0  0  0  0  0
  -31.1220  -17.9280   22.5920 C   0  0  0  0  0  2  0  0  0  0  0  0
  -31.7500  -16.8380   21.7000 C   0  0  0  0  0  2  0  0  0  0  0  0
  -30.8190  -15.6200   21.5010 C   0  0  0  0  0  2  0  0  0  0  0  0
  -31.3220  -14.6190   20.4450 C   0  0  0  0  0  0  0  0  0  0  0  0
  -30.8360  -12.7120   18.9520 C   0  0  0  0  0  2  0  0  0  0  0  0
  -29.8670  -13.1450   17.8350 C   0  0  0  0  0  2  0  0  0  0  0  0
  -28.4010  -13.0480   18.2940 C   0  0  0  0  0  2  0  0  0  0  0  0
  -28.1650  -13.7130   19.6760 C   0  0  0  0  0  3  0  0  0  0  0  0
  -29.2320  -13.2480   20.6960 C   0  0  0  0  0  2  0  0  0  0  0  0
  -30.5570  -13.5420   20.1310 N   0  0  0  0  0  0  0  0  0  0  0  0
  -32.3960  -14.8530   19.8810 O   0  0  0  0  0  0  0  0  0  0  0  0
  -25.7710  -14.3720   20.3610 C   0  0  0  0  0  0  0  0  0  0  0  0
  -24.6890  -13.6220   20.7300 C   0  0  0  0  0  0  0  0  0  0  0  0
  -25.1260  -12.2610   20.7110 C   0  0  0  0  0  0  0  0  0  0  0  0
  -26.8050  -13.4700   20.1510 N   0  0  0  0  0  0  0  0  0  0  0  0
  -26.4180  -12.1960   20.4150 N   0  0  0  0  0  0  0  0  0  0  0  0
  -24.3780  -11.0130   20.9030 C   0  0  0  0  0  0  0  0  0  0  0  0
  -24.7560  -10.0700   21.8860 C   0  0  0  0  0  3  0  0  0  0  0  0
  -24.0090   -8.8850   22.0660 C   0  0  0  0  0  3  0  0  0  0  0  0
  -22.8720   -8.6350   21.2620 C   0  0  0  0  0  0  0  0  0  0  0  0
  -22.5140   -9.5650   20.2700 C   0  0  0  0  0  3  0  0  0  0  0  0
  -23.2610  -10.7400   20.0880 C   0  0  0  0  0  3  0  0  0  0  0  0
  -22.1040   -7.4980   21.3480 O   0  0  0  0  0  0  0  0  0  0  0  0
  -21.9120   -6.8480   22.5420 C   0  0  0  0  0  0  0  0  0  0  0  0
  -21.3400   -7.4940   23.6600 C   0  0  0  0  0  3  0  0  0  0  0  0
  -21.0950   -6.7680   24.8430 C   0  0  0  0  0  3  0  0  0  0  0  0
  -21.4160   -5.3980   24.9090 C   0  0  0  0  0  0  0  0  0  0  0  0
  -21.9840   -4.7550   23.7950 C   0  0  0  0  0  3  0  0  0  0  0  0
  -22.2300   -5.4770   22.6150 C   0  0  0  0  0  0  0  0  0  0  0  0
  -22.7560   -4.8450   21.5380 F   0  0  0  0  0  0  0  0  0  0  0  0
  -21.1760   -4.6990   26.0430 F   0  0  0  0  0  0  0  0  0  0  0  0
  -23.2980  -14.1230   20.9940 C   0  0  0  0  0  0  0  0  0  0  0  0
  -22.5640  -13.4570   21.8760 N   0  0  0  0  0  0  0  0  0  0  0  0
  -22.8730  -15.1420   20.4510 O   0  0  0  0  0  0  0  0  0  0  0  0
  -22.9200  -12.6290   22.3320 H   0  0  0  0  0  0  0  0  0  0  0  0
  -21.6360  -13.7830   22.1070 H   0  0  0  0  0  0  0  0  0  0  0  0
  -25.9670  -15.7370   20.1690 N   0  0  0  0  0  0  0  0  0  0  0  0
  -25.2200  -16.4160   20.2680 H   0  0  0  0  0  0  0  0  0  0  0  0
  -26.8320  -16.1470   19.8410 H   0  0  0  0  0  0  0  0  0  0  0  0
  2  1  2  0
  3  4  2  0
  4  1  1  0
  4 55  1  0
  5  2  1  0
  6  5  2  0
  6  3  1  0
  7  8  1  0
  7  5  1  0
  9  7  1  0
 10 12  1  0
 10  6  1  0
 11 10  1  0
 13 14  1  0
 13 12  1  0
 14 16  1  0
 15 26  2  0
 16 21  1  0
 17 27  1  0
 17 25  1  0
 18 24  1  0
 18 20  1  0
 19 25  1  0
 20 19  1  0
 21 20  2  0
 22 23  1  0
 22 16  2  0
 23 18  2  0
 24 17  1  0
 25 15  1  0
 27 29  2  0
 28 27  1  0
 30 28  1  0
 31 40  2  0
 31 36  1  0
 32 28  1  0
 32 36  1  0
 33 32  1  0
 34 35  1  0
 34 33  1  0
 35 31  1  0
 36 37  2  0
 37 38  1  0
 39 38  2  0
 40 39  1  0
 41 15  1  0
 41 46  1  0
 41 42  1  0
 42 43  1  1
 42 45  1  0
 44 42  1  0
 46 49  1  0
 47 46  1  0
 47 51  1  0
 48 47  2  0
 51 50  1  0
 51 53  1  0
 53 54  1  0
 53 52  1  0
 56 57  1  0
 56 55  1  0
 58 56  1  0
 59 56  1  0
 60 59  1  0
 61 60  1  0
 62 61  1  0
 63 68  1  0
 64 65  1  0
 64 63  1  0
 66 65  1  0
 66 73  1  0
 66 67  1  0
 68 62  1  0
 68 67  1  0
 69 62  2  0
 70 71  2  0
 71 90  1  0
 72 71  1  0
 72 75  1  0
 73 70  1  0
 73 74  1  0
 74 72  2  0
 75 76  1  0
 76 77  2  0
 78 81  1  0
 78 77  1  0
 79 78  2  0
 80 79  1  0
 80 75  2  0
 81 82  1  0
 82 87  2  0
 82 83  1  0
 83 84  2  0
 84 85  1  0
 85 89  1  0
 86 85  2  0
 87 86  1  0
 88 87  1  0
 90 91  1  0
 91 94  1  0
 91 93  1  0
 92 90  2  0
 95 96  1  0
 95 70  1  0
 97 95  1  0
M  ISO  4  13 101  14 101  61 100  62 100
M  END
>  <TORSDO>  (28) 
F 25

>  <SCORE>  (28) 
-6.280

>  <name>  (28) 
27

>  <ligand_id>  (28) 
27

>  <original_smiles>  (28) 
[H]c1c([H])c([H])c2c(c1[H])C([H])([H])C([H])([H])C([H])([H])C2([H])N([H])C(=O)C1([H])N(C(=O)C([H])(N([H])C(=O)C([H])(N([H])C([H])([H])[H])C([H])([H])[H])C(C([H])([H])[H])(C([H])([H])[H])C([H])([H])[H])C([H])([H])c2c([H])c(OC([H])([H])C([H])([H])N([H])c3c([H])c(C([H])([H])[N+]([H])([H])C([H])([H])C([H])([H])C([H])([H])C(=O)N4C([H])([H])C([H])([H])C([H])([H])C([H])(n5nc(-c6c([H])c([H])c(Oc7c([H])c([H])c(F)c([H])c7F)c([H])c6[H])c(C(=O)N([H])[H])c5N([H])[H])C4([H])[H])c([H])c([H])c3N([H])[H])c([H])c([H])c2C1([H])[H]

>  <smiles>  (28) 
[H]c1c([H])c([H])c2c(c1[H])C([H])([H])C([H])([H])C([H])([H])C2([H])N([H])C(=O)C1([H])N(C(=O)C([H])(N([H])C(=O)C([H])(N([H])C([H])([H])[H])C([H])([H])[H])C(C([H])([H])[H])(C([H])([H])[H])C([H])([H])[H])C([H])([H])c2c([H])c(OC([H])([H])C([H])([H])N([H])c3c([H])c(C([H])([H])[N+]([H])([H])C([H])([H])C([H])([H])C([H])([H])C(=O)N4C([H])([H])C([H])([H])C([H])([H])C([H])(n5nc(-c6c([H])c([H])c(Oc7c([H])c([H])c(F)c([H])c7F)c([H])c6[H])c(C(=O)N([H])[H])c5N([H])[H])C4([H])[H])c([H])c([H])c3N([H])[H])c([H])c([H])c2C1([H])[H]

$$$$
28:0:0
     RDKit          3D

 97105  0  0  1  0  0  0  0  0999 V2000
  -28.8680  -21.3310   21.7650 C   0  0  0  0  0  3  0  0  0  0  0  0
  -31.1680  -21.8960   22.3410 C   0  0  0  0  0  3  0  0  0  0  0  0
  -29.3300  -20.2880   20.9410 C   0  0  0  0  0  3  0  0  0  0  0  0
  -31.6280  -20.8280   21.5450 C   0  0  0  0  0  3  0  0  0  0  0  0
  -29.7840  -22.1530   22.4600 C   0  0  0  0  0  0  0  0  0  0  0  0
  -30.7140  -20.0250   20.8270 C   0  0  0  0  0  0  0  0  0  0  0  0
  -29.2850  -23.2820   23.3550 C   0  0  0  0  0  2  0  0  0  0  0  0
  -28.3890  -24.2150   22.6390 N   0  0  0  0  0  4  0  0  0  0  0  0
  -27.8390  -23.6690   21.9990 H   0  0  0  0  0  0  0  0  0  0  0  0
  -27.7490  -24.5940   23.3210 H   0  0  0  0  0  0  0  0  0  0  0  0
  -29.0350  -25.3510   21.9330 C   0  0  0  0  0  2  0  0  0  0  0  0
  -28.5140  -25.5090   20.4910 C   0  0  0  0  0  2  0  0  0  0  0  0
  -28.5860  -26.8810   20.0690 O   0  0  0  0  0  0  0  0  0  0  0  0
  -24.6740  -31.9150   23.2030 C   0  0  0  0  0  0  0  0  0  0  0  0
  -27.3990  -27.5820   20.0670 C   0  0  0  0  0  0  0  0  0  0  0  0
  -23.4890  -30.5110   21.5450 C   0  0  0  0  0  3  0  0  0  0  0  0
  -24.9720  -29.0300   20.0930 C   0  0  0  0  0  0  0  0  0  0  0  0
  -26.0040  -30.9340   21.3430 C   0  0  0  0  0  2  0  0  0  0  0  0
  -26.1190  -29.5750   20.6840 C   0  0  0  0  0  0  0  0  0  0  0  0
  -27.3370  -28.8600   20.6640 C   0  0  0  0  0  3  0  0  0  0  0  0
  -26.2390  -27.0570   19.4520 C   0  0  0  0  0  3  0  0  0  0  0  0
  -25.0270  -27.7710   19.4720 C   0  0  0  0  0  3  0  0  0  0  0  0
  -23.7080  -29.8560   20.1550 C   0  0  0  0  0  2  0  0  0  0  0  0
  -24.7390  -31.1330   22.0890 N   0  0  0  0  0  0  0  0  0  0  0  0
  -23.5900  -32.1550   23.7530 O   0  0  0  0  0  0  0  0  0  0  0  0
  -22.8680  -29.4600   22.4950 C   0  0  0  0  0  0  0  0  0  0  0  0
  -21.5480  -29.2490   22.3680 N   0  0  0  0  0  0  0  0  0  0  0  0
  -23.5690  -28.8400   23.2980 O   0  0  0  0  0  0  0  0  0  0  0  0
  -21.0450  -29.8050   21.6900 H   0  0  0  0  0  0  0  0  0  0  0  0
  -18.2040  -27.9710   22.8460 C   0  0  0  0  0  0  0  0  0  0  0  0
  -20.7530  -28.2840   23.1260 C   0  0  0  0  0  3  0  0  0  0  0  0
  -20.8920  -26.8630   22.5340 C   0  0  0  0  0  2  0  0  0  0  0  0
  -19.8010  -26.5250   21.5140 C   0  0  0  0  0  2  0  0  0  0  0  0
  -18.4150  -26.6320   22.1570 C   0  0  0  0  0  2  0  0  0  0  0  0
  -19.3030  -28.7530   23.2870 C   0  0  0  0  0  0  0  0  0  0  0  0
  -19.0550  -30.0060   23.8870 C   0  0  0  0  0  3  0  0  0  0  0  0
  -17.7400  -30.4770   24.0540 C   0  0  0  0  0  3  0  0  0  0  0  0
  -16.6530  -29.6910   23.6300 C   0  0  0  0  0  3  0  0  0  0  0  0
  -16.8860  -28.4390   23.0330 C   0  0  0  0  0  3  0  0  0  0  0  0
  -25.9510  -32.5630   23.8260 C   0  0  0  0  0  3  0  0  0  0  0  0
  -26.4850  -31.7920   25.0950 C   0  0  1  0  0  0  0  0  0  0  0  0
  -25.3970  -31.5290   26.1610 C   0  0  0  0  0  1  0  0  0  0  0  0
  -27.0910  -30.4290   24.6870 C   0  0  0  0  0  1  0  0  0  0  0  0
  -27.6240  -32.6010   25.7580 C   0  0  0  0  0  1  0  0  0  0  0  0
  -25.6220  -33.9540   24.1620 N   0  0  0  0  0  0  0  0  0  0  0  0
  -25.9410  -35.0130   23.4060 C   0  0  0  0  0  0  0  0  0  0  0  0
  -26.6150  -34.9230   22.3750 O   0  0  0  0  0  0  0  0  0  0  0  0
  -25.0240  -34.0980   24.9620 H   0  0  0  0  0  0  0  0  0  0  0  0
  -24.1880  -36.7770   23.0470 C   0  0  0  0  0  1  0  0  0  0  0  0
  -25.4300  -36.3910   23.8660 C   0  0  0  0  0  3  0  0  0  0  0  0
  -27.5440  -37.3020   24.7170 C   0  0  0  0  0  1  0  0  0  0  0  0
  -26.4470  -37.4600   23.7650 N   0  0  0  0  0  0  0  0  0  0  0  0
  -26.0260  -38.3730   23.9170 H   0  0  0  0  0  0  0  0  0  0  0  0
  -31.2210  -18.9280   19.8900 C   0  0  0  0  0  3  0  0  0  0  0  0
  -30.5390  -17.6370   20.1340 N   0  0  0  0  0  4  0  0  0  0  0  0
  -29.5520  -17.8210   20.2070 H   0  0  0  0  0  0  0  0  0  0  0  0
  -30.7060  -17.0730   19.3160 H   0  0  0  0  0  0  0  0  0  0  0  0
  -30.9920  -16.8490   21.3080 C   0  0  0  0  0  2  0  0  0  0  0  0
  -30.3050  -15.4560   21.3910 C   0  0  0  0  0  2  0  0  0  0  0  0
  -30.7330  -14.4570   20.2950 C   0  0  0  0  0  0  0  0  0  0  0  0
  -30.3460  -12.3900   18.9970 C   0  0  0  0  0  2  0  0  0  0  0  0
  -29.3570  -12.6270   17.8390 C   0  0  0  0  0  2  0  0  0  0  0  0
  -27.9020  -12.4730   18.3210 C   0  0  0  0  0  2  0  0  0  0  0  0
  -27.6130  -13.2810   19.6130 C   0  0  0  0  0  3  0  0  0  0  0  0
  -28.7030  -13.0180   20.6790 C   0  0  0  0  0  2  0  0  0  0  0  0
  -30.0140  -13.3250   20.0820 N   0  0  0  0  0  0  0  0  0  0  0  0
  -31.7260  -14.7390   19.6160 O   0  0  0  0  0  0  0  0  0  0  0  0
  -25.2250  -13.8770   20.3790 C   0  0  0  0  0  0  0  0  0  0  0  0
  -24.1710  -13.1000   20.7800 C   0  0  0  0  0  0  0  0  0  0  0  0
  -24.6400  -11.7510   20.7390 C   0  0  0  0  0  0  0  0  0  0  0  0
  -26.2720  -13.0030   20.1260 N   0  0  0  0  0  0  0  0  0  0  0  0
  -25.9210  -11.7190   20.3950 N   0  0  0  0  0  0  0  0  0  0  0  0
  -23.9270  -10.4860   20.9530 C   0  0  0  0  0  0  0  0  0  0  0  0
  -24.3680   -9.5420   21.9080 C   0  0  0  0  0  3  0  0  0  0  0  0
  -23.6560   -8.3390   22.1070 C   0  0  0  0  0  3  0  0  0  0  0  0
  -22.4890   -8.0720   21.3530 C   0  0  0  0  0  0  0  0  0  0  0  0
  -22.0700   -9.0030   20.3870 C   0  0  0  0  0  3  0  0  0  0  0  0
  -22.7820  -10.1970   20.1860 C   0  0  0  0  0  3  0  0  0  0  0  0
  -21.7490   -6.9190   21.4620 O   0  0  0  0  0  0  0  0  0  0  0  0
  -21.6800   -6.2150   22.6370 C   0  0  0  0  0  0  0  0  0  0  0  0
  -21.2050   -6.8020   23.8320 C   0  0  0  0  0  3  0  0  0  0  0  0
  -21.0850   -6.0230   25.0000 C   0  0  0  0  0  3  0  0  0  0  0  0
  -21.4290   -4.6580   24.9760 C   0  0  0  0  0  0  0  0  0  0  0  0
  -21.8950   -4.0710   23.7870 C   0  0  0  0  0  3  0  0  0  0  0  0
  -22.0170   -4.8470   22.6210 C   0  0  0  0  0  0  0  0  0  0  0  0
  -22.4470   -4.2690   21.4720 F   0  0  0  0  0  0  0  0  0  0  0  0
  -21.3070   -3.9090   26.0960 F   0  0  0  0  0  0  0  0  0  0  0  0
  -22.7790  -13.5690   21.0920 C   0  0  0  0  0  0  0  0  0  0  0  0
  -22.0810  -12.8680   21.9780 N   0  0  0  0  0  0  0  0  0  0  0  0
  -22.3210  -14.5920   20.5830 O   0  0  0  0  0  0  0  0  0  0  0  0
  -22.4640  -12.0440   22.4130 H   0  0  0  0  0  0  0  0  0  0  0  0
  -21.1450  -13.1610   22.2240 H   0  0  0  0  0  0  0  0  0  0  0  0
  -25.3760  -15.2480   20.1910 N   0  0  0  0  0  0  0  0  0  0  0  0
  -24.6060  -15.8960   20.3110 H   0  0  0  0  0  0  0  0  0  0  0  0
  -26.2120  -15.6870   19.8300 H   0  0  0  0  0  0  0  0  0  0  0  0
  -31.7150  -20.6710   18.0290 C   0  0  0  0  0  1  0  0  0  0  0  0
  -31.0580  -19.3330   18.4050 C   0  0  0  0  0  2  0  0  0  0  0  0
  1  5  1  0
  2  5  2  0
  3  1  2  0
  4  2  1  0
  5  7  1  0
  6  3  1  0
  6  4  2  0
  8 10  1  0
  8  7  1  0
  9  8  1  0
 11  8  1  0
 12 11  1  0
 13 12  1  0
 14 25  2  0
 15 13  1  0
 15 20  1  0
 16 24  1  0
 16 26  1  0
 17 23  1  0
 17 19  1  0
 18 24  1  0
 19 18  1  0
 20 19  2  0
 21 22  1  0
 21 15  2  0
 22 17  2  0
 23 16  1  0
 24 14  1  0
 26 28  2  0
 27 26  1  0
 29 27  1  0
 30 39  2  0
 30 35  1  0
 31 27  1  0
 31 35  1  0
 32 31  1  0
 33 34  1  0
 33 32  1  0
 34 30  1  0
 35 36  2  0
 36 37  1  0
 38 37  2  0
 39 38  1  0
 40 14  1  0
 40 45  1  0
 40 41  1  0
 41 44  1  1
 41 42  1  0
 43 41  1  0
 45 48  1  0
 46 50  1  0
 46 45  1  0
 47 46  2  0
 50 49  1  0
 52 50  1  0
 52 53  1  0
 52 51  1  0
 54 97  1  0
 54 55  1  0
 54  6  1  0
 55 56  1  0
 55 58  1  0
 57 55  1  0
 58 59  1  0
 60 59  1  0
 61 66  1  0
 62 63  1  0
 62 61  1  0
 64 63  1  0
 64 71  1  0
 64 65  1  0
 66 60  1  0
 66 65  1  0
 67 60  2  0
 68 69  2  0
 69 88  1  0
 70 69  1  0
 70 73  1  0
 71 68  1  0
 71 72  1  0
 72 70  2  0
 73 74  1  0
 74 75  2  0
 76 79  1  0
 76 75  1  0
 77 76  2  0
 78 77  1  0
 78 73  2  0
 79 80  1  0
 80 81  1  0
 81 82  2  0
 83 82  1  0
 83 87  1  0
 84 83  2  0
 85 80  2  0
 85 84  1  0
 86 85  1  0
 88 89  1  0
 89 92  1  0
 89 91  1  0
 90 88  2  0
 93 94  1  0
 93 68  1  0
 95 93  1  0
 96 97  1  0
M  ISO  4  12 101  13 101  59 100  60 100
M  END
>  <TORSDO>  (29) 
F 25

>  <SCORE>  (29) 
-12.265

>  <name>  (29) 
28

>  <ligand_id>  (29) 
28

>  <original_smiles>  (29) 
[H]c1c([H])c([H])c2c(c1[H])C([H])([H])C([H])([H])C([H])([H])C2([H])N([H])C(=O)C1([H])N(C(=O)C([H])(N([H])C(=O)C([H])(N([H])C([H])([H])[H])C([H])([H])[H])C(C([H])([H])[H])(C([H])([H])[H])C([H])([H])[H])C([H])([H])c2c([H])c(OC([H])([H])C([H])([H])[N+]([H])([H])C([H])([H])c3c([H])c([H])c(C([H])(C([H])([H])C([H])([H])[H])[N+]([H])([H])C([H])([H])C([H])([H])C(=O)N4C([H])([H])C([H])([H])C([H])([H])C([H])(n5nc(-c6c([H])c([H])c(Oc7c([H])c([H])c(F)c([H])c7F)c([H])c6[H])c(C(=O)N([H])[H])c5N([H])[H])C4([H])[H])c([H])c3[H])c([H])c([H])c2C1([H])[H]

>  <smiles>  (29) 
[H]c1c([H])c([H])c2c(c1[H])C([H])([H])C([H])([H])C([H])([H])C2([H])N([H])C(=O)C1([H])N(C(=O)C([H])(N([H])C(=O)C([H])(N([H])C([H])([H])[H])C([H])([H])[H])C(C([H])([H])[H])(C([H])([H])[H])C([H])([H])[H])C([H])([H])c2c([H])c(OC([H])([H])C([H])([H])[N+]([H])([H])C([H])([H])c3c([H])c([H])c(C([H])(C([H])([H])C([H])([H])[H])[N+]([H])([H])C([H])([H])C([H])([H])C(=O)N4C([H])([H])C([H])([H])C([H])([H])C([H])(n5nc(-c6c([H])c([H])c(Oc7c([H])c([H])c(F)c([H])c7F)c([H])c6[H])c(C(=O)N([H])[H])c5N([H])[H])C4([H])[H])c([H])c3[H])c([H])c([H])c2C1([H])[H]

$$$$
29:0:0
     RDKit          3D

 94 94  0  0  1  0  0  0  0  0999 V2000
  -28.0950  -17.7490   21.2780 C   0  0  0  0  0  3  0  0  0  0  0  0
  -27.8890  -16.6370   20.4320 C   0  0  0  0  0  3  0  0  0  0  0  0
  -28.1160  -19.1850   21.0780 C   0  0  0  0  0  3  0  0  0  0  0  0
  -27.9450  -18.2510   18.7700 C   0  0  0  0  0  3  0  0  0  0  0  0
  -27.8810  -16.5960   18.9500 C   0  0  0  0  0  3  0  0  0  0  0  0
  -28.0140  -19.7440   19.6700 C   0  0  0  0  0  3  0  0  0  0  0  0
  -27.7710  -14.8060   17.8930 C   0  0  0  0  0  1  0  0  0  0  0  0
  -27.7240  -11.8980   16.9910 C   0  0  0  0  0  1  0  0  0  0  0  0
  -27.7880  -12.9430   18.0370 N   0  0  0  0  0  0  0  0  0  0  0  0
  -28.5040  -11.8080   19.1070 C   0  0  0  0  0  2  0  0  0  0  0  0
  -29.8000  -12.1390   20.1520 C   0  0  0  0  0  2  0  0  0  0  0  0
  -32.0990  -14.8920   20.0180 C   0  0  0  0  0  1  0  0  0  0  0  0
  -31.6370  -13.3910   19.8490 N   0  0  0  0  0  0  0  0  0  0  0  0
  -31.3200  -13.5930   18.8930 H   0  0  0  0  0  0  0  0  0  0  0  0
  -33.1360  -12.9280   19.3810 C   0  0  0  0  0  2  0  0  0  0  0  0
  -33.9150  -12.3510   20.5880 C   0  0  0  0  0  2  0  0  0  0  0  0
  -32.8370  -12.0630   21.6920 C   0  0  0  0  0  0  0  0  0  0  0  0
  -31.8400  -10.6240   19.5810 C   0  0  0  0  0 15  0  0  0  0  0  0
  -31.0110  -11.7280   17.8830 C   0  0  0  0  0 15  0  0  0  0  0  0
  -29.6990  -13.4500   18.4400 C   0  0  0  0  0 15  0  0  0  0  0  0
  -29.0150  -13.4470   20.7780 C   0  0  0  0  0  2  0  0  0  0  0  0
  -30.2780  -12.5530   22.0180 C   0  0  0  0  0  1  0  0  0  0  0  0
  -31.6420  -11.3880   21.4050 N   0  0  0  0  0  2  0  0  0  0  0  0
  -32.9690  -12.8620   22.5450 O   0  0  0  0  0  0  0  0  0  0  0  0
  -26.0760  -13.7720   21.3840 C   0  0  0  0  0  3  0  0  0  0  0  0
  -24.9150  -13.0090   21.3630 C   0  0  0  0  0  0  0  0  0  0  0  0
  -25.3230  -11.7020   21.2370 C   0  0  0  0  0  0  0  0  0  0  0  0
  -27.3140  -13.0330   21.3390 N   0  0  0  0  0  0  0  0  0  0  0  0
  -26.7040  -11.7310   21.4730 N   0  0  0  0  0  2  0  0  0  0  0  0
  -24.4140  -10.4980   21.1330 C   0  0  0  0  0  0  0  0  0  0  0  0
  -24.4510   -9.3820   22.0240 C   0  0  0  0  0  3  0  0  0  0  0  0
  -23.4700   -8.3500   22.0220 C   0  0  0  0  0  3  0  0  0  0  0  0
  -22.3730   -8.3930   21.1330 C   0  0  0  0  0  0  0  0  0  0  0  0
  -22.2740   -9.5070   20.2580 C   0  0  0  0  0  3  0  0  0  0  0  0
  -23.2640  -10.5180   20.2610 C   0  0  0  0  0  3  0  0  0  0  0  0
  -21.4290   -7.3870   20.9930 O   0  0  0  0  0  0  0  0  0  0  0  0
  -21.1230   -6.5330   22.0250 C   0  0  0  0  0  0  0  0  0  0  0  0
  -20.6750   -6.9900   23.2970 C   0  0  0  0  0  3  0  0  0  0  0  0
  -20.3050   -6.0560   24.2900 C   0  0  0  0  0  3  0  0  0  0  0  0
  -20.3740   -4.6850   24.0240 C   0  0  0  0  0  0  0  0  0  0  0  0
  -20.7860   -4.2230   22.7720 C   0  0  0  0  0  3  0  0  0  0  0  0
  -21.1500   -5.1460   21.7660 C   0  0  0  0  0  0  0  0  0  0  0  0
  -21.5200   -4.6840   20.5550 F   0  0  0  0  0  0  0  0  0  0  0  0
  -20.0260   -3.7880   24.9990 F   0  0  0  0  0  0  0  0  0  0  0  0
  -23.5380  -13.5290   21.3290 C   0  0  0  0  0  0  0  0  0  0  0  0
  -22.5760  -13.0000   22.1070 N   0  0  0  0  0  0  0  0  0  0  0  0
  -23.2980  -14.5530   20.7020 O   0  0  0  0  0  0  0  0  0  0  0  0
  -22.7690  -12.2110   22.7280 H   0  0  0  0  0  0  0  0  0  0  0  0
  -21.6140  -13.3800   22.1150 H   0  0  0  0  0  0  0  0  0  0  0  0
  -25.8460  -15.1440   21.2360 N   0  0  0  0  0  0  0  0  0  0  0  0
  -26.5340  -15.7570   20.7470 H   0  0  0  0  0  0  0  0  0  0  0  0
  -24.8690  -15.3790   21.2220 H   0  0  0  0  0  0  0  0  0  0  0  0
  -27.7770  -21.7570   19.2240 C   0  0  0  0  0 15  0  0  0  0  0  0
  -28.1140  -23.8600   19.3930 O   0  0  0  0  0  1  0  0  0  0  0  0
  -25.0230  -31.1610   22.3770 C   0  0  0  0  0  0  0  0  0  0  0  0
  -27.4540  -25.4860   19.3540 C   0  0  0  0  0  0  0  0  0  0  0  0
  -23.9690  -29.7040   20.7220 C   0  0  0  0  0  3  0  0  0  0  0  0
  -25.4510  -28.0060   19.2900 C   0  0  0  0  0  0  0  0  0  0  0  0
  -26.5550  -29.6550   20.7630 C   0  0  0  0  0  2  0  0  0  0  0  0
  -26.6040  -28.1890   20.0430 C   0  0  0  0  0  0  0  0  0  0  0  0
  -27.5890  -26.9600   20.0320 C   0  0  0  0  0  3  0  0  0  0  0  0
  -26.3450  -25.7590   18.4840 C   0  0  0  0  0  3  0  0  0  0  0  0
  -25.4120  -26.8560   18.4800 C   0  0  0  0  0  3  0  0  0  0  0  0
  -24.2770  -29.0160   19.3470 C   0  0  0  0  0  2  0  0  0  0  0  0
  -25.2230  -30.2440   21.3310 N   0  0  0  0  0  0  0  0  0  0  0  0
  -23.8870  -31.4110   22.8290 O   0  0  0  0  0  0  0  0  0  0  0  0
  -23.2530  -28.7200   21.6900 C   0  0  0  0  0  0  0  0  0  0  0  0
  -21.9150  -28.5620   21.6080 N   0  0  0  0  0  0  0  0  0  0  0  0
  -23.9280  -28.0900   22.5060 O   0  0  0  0  0  0  0  0  0  0  0  0
  -21.4060  -29.1120   20.9310 H   0  0  0  0  0  0  0  0  0  0  0  0
  -18.5800  -27.2470   22.2780 C   0  0  0  0  0  0  0  0  0  0  0  0
  -21.1480  -27.5610   22.3680 C   0  0  0  0  0  3  0  0  0  0  0  0
  -21.2280  -26.1760   21.6810 C   0  0  0  0  0  2  0  0  0  0  0  0
  -20.0650  -25.9180   20.7180 C   0  0  0  0  0  2  0  0  0  0  0  0
  -18.7320  -25.9710   21.4680 C   0  0  0  0  0  2  0  0  0  0  0  0
  -19.7110  -28.0040   22.6860 C   0  0  0  0  0  0  0  0  0  0  0  0
  -19.5100  -29.1930   23.4190 C   0  0  0  0  0  3  0  0  0  0  0  0
  -18.2100  -29.6300   23.7400 C   0  0  0  0  0  3  0  0  0  0  0  0
  -17.0940  -28.8720   23.3410 C   0  0  0  0  0  3  0  0  0  0  0  0
  -17.2820  -27.6810   22.6170 C   0  0  0  0  0  3  0  0  0  0  0  0
  -26.1740  -31.9590   23.0730 C   0  0  0  0  0  3  0  0  0  0  0  0
  -25.6420  -33.2540   23.5880 N   0  0  0  0  0  0  0  0  0  0  0  0
  -25.8560  -34.4720   23.0650 C   0  0  0  0  0  0  0  0  0  0  0  0
  -26.5480  -34.6400   22.0610 O   0  0  0  0  0  0  0  0  0  0  0  0
  -25.0010  -33.1840   24.3640 H   0  0  0  0  0  0  0  0  0  0  0  0
  -23.9160  -36.0980   23.0250 C   0  0  0  0  0  1  0  0  0  0  0  0
  -25.2100  -35.7020   23.7570 C   0  0  0  0  0  3  0  0  0  0  0  0
  -27.2200  -36.7130   24.7550 C   0  0  0  0  0  1  0  0  0  0  0  0
  -26.1020  -36.8840   23.8320 N   0  0  0  0  0  0  0  0  0  0  0  0
  -25.5800  -37.7100   24.1140 H   0  0  0  0  0  0  0  0  0  0  0  0
  -26.8160  -31.1760   24.2870 C   0  0  1  0  0  0  0  0  0  0  0  0
  -25.7880  -30.7000   25.3420 C   0  0  0  0  0  1  0  0  0  0  0  0
  -27.5830  -29.9290   23.8110 C   0  0  0  0  0  1  0  0  0  0  0  0
  -27.8600  -32.0680   24.9980 C   0  0  0  0  0  1  0  0  0  0  0  0
  2  1  2  0
  3  1  1  0
  4  5  2  0
  4  6  1  0
  5  2  1  0
  6  3  2  0
  7  9  1  0
  8  9  1  0
  9 10  1  0
 10 11  1  0
 11 21  1  0
 13 12  1  0
 14 13  1  0
 15 13  1  0
 15 16  1  0
 16 17  1  0
 17 24  2  0
 21 28  1  0
 23 17  1  0
 23 22  1  0
 25 50  1  0
 26 25  1  0
 27 26  2  0
 27 29  1  0
 28 25  1  0
 28 29  1  0
 30 27  1  0
 30 31  1  0
 32 31  2  0
 33 32  1  0
 34 35  1  0
 34 33  2  0
 35 30  2  0
 36 33  1  0
 36 37  1  0
 37 38  1  0
 38 39  2  0
 40 39  1  0
 40 44  1  0
 41 40  2  0
 42 37  2  0
 42 41  1  0
 43 42  1  0
 45 26  1  0
 45 46  1  0
 46 49  1  0
 46 48  1  0
 47 45  2  0
 51 50  1  0
 52 50  1  0
 55 66  2  0
 56 54  1  0
 56 61  1  0
 57 65  1  0
 57 67  1  0
 58 64  1  0
 58 60  1  0
 59 65  1  0
 60 59  1  0
 61 60  2  0
 62 56  2  0
 63 62  1  0
 63 58  2  0
 64 57  1  0
 65 55  1  0
 67 69  2  0
 68 67  1  0
 70 68  1  0
 71 80  2  0
 71 76  1  0
 72 68  1  0
 72 76  1  0
 73 72  1  0
 74 75  1  0
 74 73  1  0
 75 71  1  0
 76 77  2  0
 77 78  1  0
 79 78  2  0
 80 79  1  0
 81 55  1  0
 81 82  1  0
 81 91  1  0
 82 85  1  0
 83 82  1  0
 83 87  1  0
 84 83  2  0
 87 86  1  0
 87 89  1  0
 89 90  1  0
 89 88  1  0
 91 94  1  1
 91 92  1  0
 93 91  1  0
M  ISO  4  16 100  17 100  53 101  54 101
M  END
>  <TORSDO>  (30) 
F 24

>  <SCORE>  (30) 
-5.641

>  <name>  (30) 
29

>  <ligand_id>  (30) 
29

>  <original_smiles>  (30) 
[H]c1c([H])c(C([H])([H])Oc2c([H])c([H])c3c(c2[H])C([H])([H])N(C(=O)C([H])(N([H])C(=O)C([H])(N([H])C([H])([H])[H])C([H])([H])[H])C(C([H])([H])[H])(C([H])([H])[H])C([H])([H])[H])C([H])(C(=O)N([H])C2([H])c4c([H])c([H])c([H])c([H])c4C([H])([H])C([H])([H])C2([H])[H])C3([H])[H])c([H])c(C([H])([H])N(C([H])([H])[H])C([H])([H])C([H])([H])[N+]([H])(C([H])([H])[H])C([H])([H])C([H])([H])C(=O)N2C([H])([H])C([H])([H])C([H])([H])C([H])(n3nc(-c4c([H])c([H])c(Oc5c([H])c([H])c(F)c([H])c5F)c([H])c4[H])c(C(=O)N([H])[H])c3N([H])[H])C2([H])[H])c1[H]

>  <smiles>  (30) 
[H]c1c([H])c(C([H])([H])Oc2c([H])c([H])c3c(c2[H])C([H])([H])N(C(=O)C([H])(N([H])C(=O)C([H])(N([H])C([H])([H])[H])C([H])([H])[H])C(C([H])([H])[H])(C([H])([H])[H])C([H])([H])[H])C([H])(C(=O)N([H])C2([H])c4c([H])c([H])c([H])c([H])c4C([H])([H])C([H])([H])C2([H])[H])C3([H])[H])c([H])c(C([H])([H])N(C([H])([H])[H])C([H])([H])C([H])([H])[N+]([H])(C([H])([H])[H])C([H])([H])C([H])([H])C(=O)N2C([H])([H])C([H])([H])C([H])([H])C([H])(n3nc(-c4c([H])c([H])c(Oc5c([H])c([H])c(F)c([H])c5F)c([H])c4[H])c(C(=O)N([H])[H])c3N([H])[H])C2([H])[H])c1[H]

$$$$
30:0:0
     RDKit          3D

 91 99  0  0  1  0  0  0  0  0999 V2000
  -28.8060  -22.3330   20.0930 N   0  0  0  0  0  4  0  0  0  0  0  0
  -27.8190  -22.1460   20.0140 H   0  0  0  0  0  0  0  0  0  0  0  0
  -29.1800  -22.2910   19.1590 H   0  0  0  0  0  0  0  0  0  0  0  0
  -29.3980  -21.1580   20.8760 C   0  0  0  0  0  2  0  0  0  0  0  0
  -30.6170  -18.6380   18.1760 C   0  0  0  0  0  3  0  0  0  0  0  0
  -30.2290  -19.8150   18.8440 C   0  0  0  0  0  3  0  0  0  0  0  0
  -30.5050  -17.3740   18.7870 C   0  0  0  0  0  3  0  0  0  0  0  0
  -29.5680  -18.4530   20.7540 C   0  0  0  0  0  3  0  0  0  0  0  0
  -29.6920  -19.7730   20.1490 C   0  0  0  0  0  0  0  0  0  0  0  0
  -29.9920  -17.2250   20.0970 C   0  0  0  0  0  0  0  0  0  0  0  0
  -30.5920  -14.7170   20.3550 C   0  0  0  0  0  0  0  0  0  0  0  0
  -30.3570  -12.4470   19.3620 C   0  0  0  0  0  2  0  0  0  0  0  0
  -29.4210  -12.5500   18.1380 C   0  0  0  0  0  2  0  0  0  0  0  0
  -27.9490  -12.3960   18.5690 C   0  0  0  0  0  2  0  0  0  0  0  0
  -27.5890  -13.2780   19.7950 C   0  0  0  0  0  3  0  0  0  0  0  0
  -28.6500  -13.1710   20.9130 C   0  0  0  0  0  2  0  0  0  0  0  0
  -29.9530  -13.4990   20.3230 N   0  0  0  0  0  0  0  0  0  0  0  0
  -31.7660  -14.8030   19.9820 O   0  0  0  0  0  0  0  0  0  0  0  0
  -29.8580  -15.8560   20.6520 N   0  0  0  0  0  0  0  0  0  0  0  0
  -29.0050  -15.6830   21.1630 H   0  0  0  0  0  0  0  0  0  0  0  0
  -25.2050  -13.8800   20.5260 C   0  0  0  0  0  0  0  0  0  0  0  0
  -24.1370  -13.1120   20.9020 C   0  0  0  0  0  0  0  0  0  0  0  0
  -24.5940  -11.7590   20.8720 C   0  0  0  0  0  0  0  0  0  0  0  0
  -26.2450  -12.9960   20.2890 N   0  0  0  0  0  0  0  0  0  0  0  0
  -25.8840  -11.7150   20.5590 N   0  0  0  0  0  0  0  0  0  0  0  0
  -23.8630  -10.5000   21.0680 C   0  0  0  0  0  0  0  0  0  0  0  0
  -24.3070   -9.5210   21.9840 C   0  0  0  0  0  3  0  0  0  0  0  0
  -23.5750   -8.3280   22.1670 C   0  0  0  0  0  3  0  0  0  0  0  0
  -22.3850   -8.1050   21.4360 C   0  0  0  0  0  0  0  0  0  0  0  0
  -21.9600   -9.0720   20.5080 C   0  0  0  0  0  3  0  0  0  0  0  0
  -22.6920  -10.2570   20.3230 C   0  0  0  0  0  3  0  0  0  0  0  0
  -21.6230   -6.9650   21.5290 O   0  0  0  0  0  0  0  0  0  0  0  0
  -21.6070   -6.2020   22.6700 C   0  0  0  0  0  0  0  0  0  0  0  0
  -21.2440   -6.7420   23.9240 C   0  0  0  0  0  3  0  0  0  0  0  0
  -21.1740   -5.9070   25.0560 C   0  0  0  0  0  3  0  0  0  0  0  0
  -21.4550   -4.5330   24.9370 C   0  0  0  0  0  0  0  0  0  0  0  0
  -21.8110   -3.9920   23.6880 C   0  0  0  0  0  3  0  0  0  0  0  0
  -21.8830   -4.8250   22.5580 C   0  0  0  0  0  0  0  0  0  0  0  0
  -22.2060   -4.2950   21.3530 F   0  0  0  0  0  0  0  0  0  0  0  0
  -21.3810   -3.7290   26.0230 F   0  0  0  0  0  0  0  0  0  0  0  0
  -22.7430  -13.5960   21.1780 C   0  0  0  0  0  0  0  0  0  0  0  0
  -22.0150  -12.9070   22.0500 N   0  0  0  0  0  0  0  0  0  0  0  0
  -22.3070  -14.6210   20.6540 O   0  0  0  0  0  0  0  0  0  0  0  0
  -22.3800  -12.0790   22.4960 H   0  0  0  0  0  0  0  0  0  0  0  0
  -21.0790  -13.2130   22.2740 H   0  0  0  0  0  0  0  0  0  0  0  0
  -25.3740  -15.2510   20.3460 N   0  0  0  0  0  0  0  0  0  0  0  0
  -24.6090  -15.9070   20.4560 H   0  0  0  0  0  0  0  0  0  0  0  0
  -26.2200  -15.6830   19.9990 H   0  0  0  0  0  0  0  0  0  0  0  0
  -29.0010  -23.7770   20.6010 C   0  0  0  0  0  3  0  0  0  0  0  0
  -28.0720  -24.9320   19.9680 C   0  0  0  0  0  3  0  0  0  0  0  0
  -28.2800  -26.3930   20.2570 O   0  0  0  0  0  0  0  0  0  0  0  0
  -24.6130  -31.8780   23.2450 C   0  0  0  0  0  0  0  0  0  0  0  0
  -27.1830  -27.2830   20.1760 C   0  0  0  0  0  0  0  0  0  0  0  0
  -23.3940  -30.4830   21.6140 C   0  0  0  0  0  3  0  0  0  0  0  0
  -24.8310  -28.9310   20.1740 C   0  0  0  0  0  0  0  0  0  0  0  0
  -25.9360  -30.7850   21.4180 C   0  0  0  0  0  2  0  0  0  0  0  0
  -26.0070  -29.4040   20.7710 C   0  0  0  0  0  0  0  0  0  0  0  0
  -27.1840  -28.5910   20.7650 C   0  0  0  0  0  3  0  0  0  0  0  0
  -25.9890  -26.8870   19.5290 C   0  0  0  0  0  3  0  0  0  0  0  0
  -24.8270  -27.6790   19.5420 C   0  0  0  0  0  3  0  0  0  0  0  0
  -23.5980  -29.8100   20.2320 C   0  0  0  0  0  2  0  0  0  0  0  0
  -24.6670  -31.0670   22.1470 N   0  0  0  0  0  0  0  0  0  0  0  0
  -23.5330  -32.1590   23.7850 O   0  0  0  0  0  0  0  0  0  0  0  0
  -22.7350  -29.4680   22.5780 C   0  0  0  0  0  0  0  0  0  0  0  0
  -21.4080  -29.2920   22.4600 N   0  0  0  0  0  0  0  0  0  0  0  0
  -23.4170  -28.8410   23.3930 O   0  0  0  0  0  0  0  0  0  0  0  0
  -20.9160  -29.8500   21.7760 H   0  0  0  0  0  0  0  0  0  0  0  0
  -18.0330  -28.0900   22.9710 C   0  0  0  0  0  0  0  0  0  0  0  0
  -20.5920  -28.3560   23.2350 C   0  0  0  0  0  3  0  0  0  0  0  0
  -20.6950  -26.9220   22.6680 C   0  0  0  0  0  2  0  0  0  0  0  0
  -19.5920  -26.5910   21.6580 C   0  0  0  0  0  2  0  0  0  0  0  0
  -18.2110  -26.7370   22.3020 C   0  0  0  0  0  2  0  0  0  0  0  0
  -19.1510  -28.8580   23.3950 C   0  0  0  0  0  0  0  0  0  0  0  0
  -18.9300  -30.1230   23.9810 C   0  0  0  0  0  3  0  0  0  0  0  0
  -17.6230  -30.6210   24.1470 C   0  0  0  0  0  3  0  0  0  0  0  0
  -16.5210  -29.8520   23.7380 C   0  0  0  0  0  3  0  0  0  0  0  0
  -16.7260  -28.5880   23.1560 C   0  0  0  0  0  3  0  0  0  0  0  0
  -25.9000  -32.5080   23.8590 C   0  0  0  0  0  3  0  0  0  0  0  0
  -26.4260  -31.7330   25.1290 C   0  0  1  0  0  0  0  0  0  0  0  0
  -25.3420  -31.4970   26.2060 C   0  0  0  0  0  1  0  0  0  0  0  0
  -27.0020  -30.3550   24.7310 C   0  0  0  0  0  1  0  0  0  0  0  0
  -27.5850  -32.5230   25.7810 C   0  0  0  0  0  1  0  0  0  0  0  0
  -25.5930  -33.9060   24.1960 N   0  0  0  0  0  0  0  0  0  0  0  0
  -25.9130  -34.9610   23.4360 C   0  0  0  0  0  0  0  0  0  0  0  0
  -26.5680  -34.8610   22.3940 O   0  0  0  0  0  0  0  0  0  0  0  0
  -25.0100  -34.0580   25.0060 H   0  0  0  0  0  0  0  0  0  0  0  0
  -24.1740  -36.7520   23.1200 C   0  0  0  0  0  1  0  0  0  0  0  0
  -25.4320  -36.3480   23.9050 C   0  0  0  0  0  3  0  0  0  0  0  0
  -27.5840  -37.2360   24.6900 C   0  0  0  0  0  1  0  0  0  0  0  0
  -26.4610  -37.4040   23.7720 N   0  0  0  0  0  0  0  0  0  0  0  0
  -26.0560  -38.3220   23.9300 H   0  0  0  0  0  0  0  0  0  0  0  0
  1 49  1  0
  1  4  1  0
  2  1  1  0
  3  1  1  0
  5  7  2  0
  5  6  1  0
  6  9  2  0
  7 10  1  0
  9  8  1  0
  9  4  1  0
 10 19  1  0
 10  8  2  0
 11 19  1  0
 12 17  1  0
 13 14  1  0
 13 12  1  0
 15 14  1  0
 15 24  1  0
 15 16  1  0
 17 11  1  0
 17 16  1  0
 18 11  2  0
 19 20  1  0
 21 22  2  0
 22 41  1  0
 23 22  1  0
 23 26  1  0
 24 21  1  0
 24 25  1  0
 25 23  2  0
 26 27  1  0
 27 28  2  0
 29 32  1  0
 29 28  1  0
 30 29  2  0
 31 30  1  0
 31 26  2  0
 32 33  1  0
 33 34  1  0
 34 35  2  0
 36 35  1  0
 36 40  1  0
 37 36  2  0
 38 33  2  0
 38 37  1  0
 39 38  1  0
 41 42  1  0
 42 45  1  0
 42 44  1  0
 43 41  2  0
 46 47  1  0
 46 21  1  0
 48 46  1  0
 50 51  1  0
 50 49  2  0
 52 63  2  0
 53 51  1  0
 53 58  1  0
 54 62  1  0
 54 64  1  0
 55 61  1  0
 55 57  1  0
 56 62  1  0
 57 56  1  0
 58 57  2  0
 59 60  1  0
 59 53  2  0
 60 55  2  0
 61 54  1  0
 62 52  1  0
 64 66  2  0
 65 64  1  0
 67 65  1  0
 68 77  2  0
 68 73  1  0
 69 65  1  0
 69 73  1  0
 70 69  1  0
 71 72  1  0
 71 70  1  0
 72 68  1  0
 73 74  2  0
 74 75  1  0
 76 75  2  0
 77 76  1  0
 78 52  1  0
 78 83  1  0
 78 79  1  0
 79 82  1  1
 79 80  1  0
 81 79  1  0
 83 86  1  0
 84 88  1  0
 84 83  1  0
 85 84  2  0
 88 87  1  0
 90 88  1  0
 90 91  1  0
 90 89  1  0
M  ISO  4  11 100  19 100  50 101  51 101
M  END
>  <TORSDO>  (31) 
F 20

>  <SCORE>  (31) 
-13.766

>  <name>  (31) 
30

>  <ligand_id>  (31) 
30

>  <original_smiles>  (31) 
[H]c1c([H])c([H])c2c(c1[H])C([H])([H])C([H])([H])C([H])([H])C2([H])N([H])C(=O)C1([H])N(C(=O)C([H])(N([H])C(=O)C([H])(N([H])C([H])([H])[H])C([H])([H])[H])C(C([H])([H])[H])(C([H])([H])[H])C([H])([H])[H])C([H])([H])c2c([H])c(OC([H])([H])C([H])([H])[N+]([H])([H])C([H])([H])c3c([H])c([H])c([H])c(N([H])C(=O)N4C([H])([H])C([H])([H])C([H])([H])C([H])(n5nc(-c6c([H])c([H])c(Oc7c([H])c([H])c(F)c([H])c7F)c([H])c6[H])c(C(=O)N([H])[H])c5N([H])[H])C4([H])[H])c3[H])c([H])c([H])c2C1([H])[H]

>  <smiles>  (31) 
[H]c1c([H])c([H])c2c(c1[H])C([H])([H])C([H])([H])C([H])([H])C2([H])N([H])C(=O)C1([H])N(C(=O)C([H])(N([H])C(=O)C([H])(N([H])C([H])([H])[H])C([H])([H])[H])C(C([H])([H])[H])(C([H])([H])[H])C([H])([H])[H])C([H])([H])c2c([H])c(OC([H])([H])C([H])([H])[N+]([H])([H])C([H])([H])c3c([H])c([H])c([H])c(N([H])C(=O)N4C([H])([H])C([H])([H])C([H])([H])C([H])(n5nc(-c6c([H])c([H])c(Oc7c([H])c([H])c(F)c([H])c7F)c([H])c6[H])c(C(=O)N([H])[H])c5N([H])[H])C4([H])[H])c3[H])c([H])c([H])c2C1([H])[H]

$$$$
31:0:0
     RDKit          3D

 94102  0  0  1  0  0  0  0  0999 V2000
  -29.3940  -18.4890   20.1220 C   0  0  0  0  0  3  0  0  0  0  0  0
  -30.9740  -18.8730   22.3690 C   0  0  0  0  0  3  0  0  0  0  0  0
  -29.5880  -19.8550   20.5930 C   0  0  0  0  0  0  0  0  0  0  0  0
  -30.7710  -17.5550   21.9010 C   0  0  0  0  0  0  0  0  0  0  0  0
  -29.9970  -17.3110   20.7350 C   0  0  0  0  0  0  0  0  0  0  0  0
  -30.4080  -19.9990   21.7370 C   0  0  0  0  0  0  0  0  0  0  0  0
  -31.3610  -16.4230   22.7290 C   0  0  0  0  0  1  0  0  0  0  0  0
  -30.5340  -14.8160   20.0880 C   0  0  0  0  0  0  0  0  0  0  0  0
  -30.3040  -12.5760   18.9970 C   0  0  0  0  0  2  0  0  0  0  0  0
  -29.2990  -12.6800   17.8270 C   0  0  0  0  0  2  0  0  0  0  0  0
  -27.8530  -12.4920   18.3310 C   0  0  0  0  0  2  0  0  0  0  0  0
  -27.5420  -13.3490   19.5860 C   0  0  0  0  0  3  0  0  0  0  0  0
  -28.6540  -13.2180   20.6480 C   0  0  0  0  0  2  0  0  0  0  0  0
  -29.9150  -13.5910   19.9980 N   0  0  0  0  0  0  0  0  0  0  0  0
  -31.7120  -14.9410   19.7380 O   0  0  0  0  0  0  0  0  0  0  0  0
  -29.7170  -15.9180   20.3110 N   0  0  0  0  0  0  0  0  0  0  0  0
  -28.7360  -15.6890   20.2780 H   0  0  0  0  0  0  0  0  0  0  0  0
  -25.1920  -13.9380   20.4310 C   0  0  0  0  0  0  0  0  0  0  0  0
  -24.1470  -13.1600   20.8450 C   0  0  0  0  0  0  0  0  0  0  0  0
  -24.6090  -11.8100   20.7810 C   0  0  0  0  0  0  0  0  0  0  0  0
  -26.2230  -13.0610   20.1350 N   0  0  0  0  0  0  0  0  0  0  0  0
  -25.8830  -11.7760   20.4100 N   0  0  0  0  0  0  0  0  0  0  0  0
  -23.8930  -10.5450   20.9910 C   0  0  0  0  0  0  0  0  0  0  0  0
  -24.3580   -9.5770   21.9080 C   0  0  0  0  0  3  0  0  0  0  0  0
  -23.6430   -8.3770   22.1070 C   0  0  0  0  0  3  0  0  0  0  0  0
  -22.4470   -8.1370   21.3890 C   0  0  0  0  0  0  0  0  0  0  0  0
  -22.0010   -9.0930   20.4590 C   0  0  0  0  0  3  0  0  0  0  0  0
  -22.7180  -10.2840   20.2590 C   0  0  0  0  0  3  0  0  0  0  0  0
  -21.7010   -6.9890   21.4980 O   0  0  0  0  0  0  0  0  0  0  0  0
  -21.6780   -6.2530   22.6550 C   0  0  0  0  0  0  0  0  0  0  0  0
  -21.2530   -6.8050   23.8820 C   0  0  0  0  0  3  0  0  0  0  0  0
  -21.1800   -5.9940   25.0320 C   0  0  0  0  0  3  0  0  0  0  0  0
  -21.5200   -4.6300   24.9550 C   0  0  0  0  0  0  0  0  0  0  0  0
  -21.9370   -4.0750   23.7320 C   0  0  0  0  0  3  0  0  0  0  0  0
  -22.0130   -4.8840   22.5850 C   0  0  0  0  0  0  0  0  0  0  0  0
  -22.3960   -4.3420   21.4030 F   0  0  0  0  0  0  0  0  0  0  0  0
  -21.4420   -3.8470   26.0570 F   0  0  0  0  0  0  0  0  0  0  0  0
  -22.7620  -13.6340   21.1840 C   0  0  0  0  0  0  0  0  0  0  0  0
  -22.0710  -12.9240   22.0690 N   0  0  0  0  0  0  0  0  0  0  0  0
  -22.3040  -14.6680   20.7000 O   0  0  0  0  0  0  0  0  0  0  0  0
  -22.4550  -12.0870   22.4820 H   0  0  0  0  0  0  0  0  0  0  0  0
  -21.1450  -13.2240   22.3410 H   0  0  0  0  0  0  0  0  0  0  0  0
  -25.3430  -15.3120   20.2570 N   0  0  0  0  0  0  0  0  0  0  0  0
  -24.5700  -15.9510   20.4070 H   0  0  0  0  0  0  0  0  0  0  0  0
  -26.1570  -15.7620   19.8600 H   0  0  0  0  0  0  0  0  0  0  0  0
  -30.6630  -21.2350   22.2620 O   0  0  0  0  0  0  0  0  0  0  0  0
  -31.1860  -21.1920   23.0560 H   0  0  0  0  0  0  0  0  0  0  0  0
  -29.0190  -21.1600   19.8630 C   0  0  0  0  0  2  0  0  0  0  0  0
  -28.7610  -22.4460   20.6610 N   0  0  0  0  0  4  0  0  0  0  0  0
  -27.9450  -22.2770   21.2270 H   0  0  0  0  0  0  0  0  0  0  0  0
  -29.5420  -22.4860   21.3060 H   0  0  0  0  0  0  0  0  0  0  0  0
  -28.6090  -23.8080   19.9460 C   0  0  0  0  0  3  0  0  0  0  0  0
  -28.2160  -25.1010   20.8310 C   0  0  0  0  0  3  0  0  0  0  0  0
  -28.3910  -26.5070   20.3320 O   0  0  0  0  0  0  0  0  0  0  0  0
  -24.6540  -31.9610   23.3200 C   0  0  0  0  0  0  0  0  0  0  0  0
  -27.2790  -27.3680   20.3180 C   0  0  0  0  0  0  0  0  0  0  0  0
  -23.4600  -30.5440   21.6890 C   0  0  0  0  0  3  0  0  0  0  0  0
  -24.9190  -28.9890   20.2760 C   0  0  0  0  0  0  0  0  0  0  0  0
  -25.9970  -30.8740   21.5030 C   0  0  0  0  0  2  0  0  0  0  0  0
  -26.0870  -29.4860   20.8720 C   0  0  0  0  0  0  0  0  0  0  0  0
  -27.2750  -28.6880   20.8780 C   0  0  0  0  0  3  0  0  0  0  0  0
  -26.0940  -26.9280   19.6970 C   0  0  0  0  0  3  0  0  0  0  0  0
  -24.9270  -27.7190   19.6770 C   0  0  0  0  0  3  0  0  0  0  0  0
  -23.6820  -29.8640   20.3120 C   0  0  0  0  0  2  0  0  0  0  0  0
  -24.7220  -31.1450   22.2280 N   0  0  0  0  0  0  0  0  0  0  0  0
  -23.5690  -32.2340   23.8540 O   0  0  0  0  0  0  0  0  0  0  0  0
  -22.8010  -29.5290   22.6550 C   0  0  0  0  0  0  0  0  0  0  0  0
  -21.4800  -29.3260   22.5110 N   0  0  0  0  0  0  0  0  0  0  0  0
  -23.4760  -28.9280   23.4950 O   0  0  0  0  0  0  0  0  0  0  0  0
  -20.9900  -29.8650   21.8110 H   0  0  0  0  0  0  0  0  0  0  0  0
  -18.1270  -28.0400   22.9440 C   0  0  0  0  0  0  0  0  0  0  0  0
  -20.6680  -28.3850   23.2840 C   0  0  0  0  0  3  0  0  0  0  0  0
  -20.8290  -26.9410   22.7530 C   0  0  0  0  0  2  0  0  0  0  0  0
  -19.7690  -26.5580   21.7150 C   0  0  0  0  0  2  0  0  0  0  0  0
  -18.3630  -26.6780   22.3130 C   0  0  0  0  0  2  0  0  0  0  0  0
  -19.2100  -28.8470   23.3860 C   0  0  0  0  0  0  0  0  0  0  0  0
  -18.9360  -30.1180   23.9360 C   0  0  0  0  0  3  0  0  0  0  0  0
  -17.6130  -30.5850   24.0490 C   0  0  0  0  0  3  0  0  0  0  0  0
  -16.5450  -29.7750   23.6250 C   0  0  0  0  0  3  0  0  0  0  0  0
  -16.8020  -28.5060   23.0770 C   0  0  0  0  0  3  0  0  0  0  0  0
  -25.9330  -32.6050   23.9390 C   0  0  0  0  0  3  0  0  0  0  0  0
  -25.6250  -34.0110   24.2350 N   0  0  0  0  0  0  0  0  0  0  0  0
  -25.9680  -35.0470   23.4580 C   0  0  0  0  0  0  0  0  0  0  0  0
  -26.6450  -34.9190   22.4340 O   0  0  0  0  0  0  0  0  0  0  0  0
  -25.0280  -34.1860   25.0310 H   0  0  0  0  0  0  0  0  0  0  0  0
  -24.2540  -36.8420   23.0450 C   0  0  0  0  0  1  0  0  0  0  0  0
  -25.4820  -36.4470   23.8810 C   0  0  0  0  0  3  0  0  0  0  0  0
  -27.6060  -37.3400   24.7320 C   0  0  0  0  0  1  0  0  0  0  0  0
  -26.5220  -37.4920   23.7640 N   0  0  0  0  0  0  0  0  0  0  0  0
  -26.1150  -38.4160   23.8870 H   0  0  0  0  0  0  0  0  0  0  0  0
  -26.4360  -31.8650   25.2380 C   0  0  1  0  0  0  0  0  0  0  0  0
  -25.3330  -31.6530   26.3000 C   0  0  0  0  0  1  0  0  0  0  0  0
  -27.0220  -30.4790   24.8820 C   0  0  0  0  0  1  0  0  0  0  0  0
  -27.5810  -32.6710   25.8940 C   0  0  0  0  0  1  0  0  0  0  0  0
  1  3  2  0
  1  5  1  0
  3  6  1  0
  4  2  1  0
  4  7  1  0
  5  4  2  0
  6 46  1  0
  6  2  2  0
  8 16  1  0
  9 14  1  0
 10 11  1  0
 10  9  1  0
 12 11  1  0
 12 21  1  0
 12 13  1  0
 14  8  1  0
 14 13  1  0
 15  8  2  0
 16  5  1  0
 17 16  1  0
 18 19  2  0
 19 38  1  0
 20 19  1  0
 20 23  1  0
 21 22  1  0
 21 18  1  0
 22 20  2  0
 23 24  1  0
 24 25  2  0
 26 29  1  0
 26 25  1  0
 27 26  2  0
 28 27  1  0
 28 23  2  0
 29 30  1  0
 30 31  1  0
 31 32  2  0
 33 32  1  0
 33 37  1  0
 34 33  2  0
 35 30  2  0
 35 34  1  0
 36 35  1  0
 38 39  1  0
 39 42  1  0
 39 41  1  0
 40 38  2  0
 43 44  1  0
 43 18  1  0
 45 43  1  0
 46 47  1  0
 48  3  1  0
 48 49  1  0
 49 50  1  0
 49 51  1  0
 52 49  1  0
 52 53  2  0
 54 53  1  0
 55 66  2  0
 56 54  1  0
 56 61  1  0
 57 65  1  0
 57 67  1  0
 58 64  1  0
 58 60  1  0
 59 65  1  0
 60 61  2  0
 60 59  1  0
 62 56  2  0
 63 62  1  0
 63 58  2  0
 64 57  1  0
 65 55  1  0
 67 69  2  0
 68 67  1  0
 70 68  1  0
 71 80  2  0
 71 76  1  0
 72 68  1  0
 72 76  1  0
 73 72  1  0
 74 75  1  0
 74 73  1  0
 75 71  1  0
 76 77  2  0
 77 78  1  0
 79 78  2  0
 80 79  1  0
 81 55  1  0
 81 82  1  0
 81 91  1  0
 82 85  1  0
 83 87  1  0
 83 82  1  0
 84 83  2  0
 87 86  1  0
 89 87  1  0
 89 90  1  0
 89 88  1  0
 91 94  1  1
 91 92  1  0
 93 91  1  0
M  ISO  4   8 100  16 100  53 101  54 101
M  END
>  <TORSDO>  (32) 
F 21

>  <SCORE>  (32) 
-12.925

>  <name>  (32) 
31

>  <ligand_id>  (32) 
31

>  <original_smiles>  (32) 
[H]Oc1c([H])c(C([H])([H])[H])c(N([H])C(=O)N2C([H])([H])C([H])([H])C([H])([H])C([H])(n3nc(-c4c([H])c([H])c(Oc5c([H])c([H])c(F)c([H])c5F)c([H])c4[H])c(C(=O)N([H])[H])c3N([H])[H])C2([H])[H])c([H])c1C([H])([H])[N+]([H])([H])C([H])([H])C([H])([H])Oc1c([H])c([H])c2c(c1[H])C([H])([H])N(C(=O)C([H])(N([H])C(=O)C([H])(N([H])C([H])([H])[H])C([H])([H])[H])C(C([H])([H])[H])(C([H])([H])[H])C([H])([H])[H])C([H])(C(=O)N([H])C1([H])c3c([H])c([H])c([H])c([H])c3C([H])([H])C([H])([H])C1([H])[H])C2([H])[H]

>  <smiles>  (32) 
[H]Oc1c([H])c(C([H])([H])[H])c(N([H])C(=O)N2C([H])([H])C([H])([H])C([H])([H])C([H])(n3nc(-c4c([H])c([H])c(Oc5c([H])c([H])c(F)c([H])c5F)c([H])c4[H])c(C(=O)N([H])[H])c3N([H])[H])C2([H])[H])c([H])c1C([H])([H])[N+]([H])([H])C([H])([H])C([H])([H])Oc1c([H])c([H])c2c(c1[H])C([H])([H])N(C(=O)C([H])(N([H])C(=O)C([H])(N([H])C([H])([H])[H])C([H])([H])[H])C(C([H])([H])[H])(C([H])([H])[H])C([H])([H])[H])C([H])(C(=O)N([H])C1([H])c3c([H])c([H])c([H])c([H])c3C([H])([H])C([H])([H])C1([H])[H])C2([H])[H]

$$$$
32:0:0
     RDKit          3D

 98106  0  0  1  0  0  0  0  0999 V2000
  -28.0320  -19.7930   20.7970 C   0  0  0  0  0  3  0  0  0  0  0  0
  -27.1930  -20.8900   21.0530 C   0  0  0  0  0  3  0  0  0  0  0  0
  -29.9120  -21.3140   20.5020 C   0  0  0  0  0  3  0  0  0  0  0  0
  -29.0770  -22.4270   20.7560 C   0  0  0  0  0  0  0  0  0  0  0  0
  -29.3980  -20.0010   20.5370 C   0  0  0  0  0  0  0  0  0  0  0  0
  -27.7060  -22.2020   21.0500 C   0  0  0  0  0  0  0  0  0  0  0  0
  -26.8280  -23.2400   21.3600 N   0  0  0  0  0  0  0  0  0  0  0  0
  -25.9600  -22.9730   21.8170 H   0  0  0  0  0  0  0  0  0  0  0  0
  -27.1980  -24.0960   21.7530 H   0  0  0  0  0  0  0  0  0  0  0  0
  -30.2420  -18.9070   20.3290 N   0  0  0  0  0  0  0  0  0  0  0  0
  -29.7960  -18.1930   19.7600 H   0  0  0  0  0  0  0  0  0  0  0  0
  -31.7680  -19.2830   22.2590 C   0  0  0  0  0  1  0  0  0  0  0  0
  -30.7920  -18.3260   21.5540 C   0  0  0  0  0  3  0  0  0  0  0  0
  -31.4830  -16.9900   21.2270 C   0  0  0  0  0  2  0  0  0  0  0  0
  -30.4930  -15.8150   21.0510 C   0  0  0  0  0  2  0  0  0  0  0  0
  -31.0290  -14.6800   20.1640 C   0  0  0  0  0  0  0  0  0  0  0  0
  -30.6000  -12.5680   18.9610 C   0  0  0  0  0  2  0  0  0  0  0  0
  -29.6080  -12.8240   17.8100 C   0  0  0  0  0  2  0  0  0  0  0  0
  -28.1560  -12.7060   18.3080 C   0  0  0  0  0  2  0  0  0  0  0  0
  -27.8990  -13.5310   19.5960 C   0  0  0  0  0  3  0  0  0  0  0  0
  -28.9990  -13.2740   20.6480 C   0  0  0  0  0  2  0  0  0  0  0  0
  -30.3050  -13.5380   20.0250 N   0  0  0  0  0  0  0  0  0  0  0  0
  -32.0770  -14.8680   19.5400 O   0  0  0  0  0  0  0  0  0  0  0  0
  -25.5750  -14.1760   20.4960 C   0  0  0  0  0  0  0  0  0  0  0  0
  -24.4960  -13.4170   20.8660 C   0  0  0  0  0  0  0  0  0  0  0  0
  -24.8940  -12.0560   20.7010 C   0  0  0  0  0  0  0  0  0  0  0  0
  -26.5640  -13.2750   20.1360 N   0  0  0  0  0  0  0  0  0  0  0  0
  -26.1600  -11.9910   20.3080 N   0  0  0  0  0  0  0  0  0  0  0  0
  -24.1260  -10.8120   20.8340 C   0  0  0  0  0  0  0  0  0  0  0  0
  -24.5670   -9.7530   21.6600 C   0  0  0  0  0  3  0  0  0  0  0  0
  -23.8000   -8.5740   21.7840 C   0  0  0  0  0  3  0  0  0  0  0  0
  -22.5780   -8.4470   21.0830 C   0  0  0  0  0  0  0  0  0  0  0  0
  -22.1540   -9.4950   20.2450 C   0  0  0  0  0  3  0  0  0  0  0  0
  -22.9220  -10.6630   20.1180 C   0  0  0  0  0  3  0  0  0  0  0  0
  -21.7800   -7.3290   21.1250 O   0  0  0  0  0  0  0  0  0  0  0  0
  -21.7560   -6.5000   22.2190 C   0  0  0  0  0  0  0  0  0  0  0  0
  -21.4070   -6.9740   23.5030 C   0  0  0  0  0  3  0  0  0  0  0  0
  -21.3260   -6.0760   24.5860 C   0  0  0  0  0  3  0  0  0  0  0  0
  -21.5860   -4.7070   24.3860 C   0  0  0  0  0  0  0  0  0  0  0  0
  -21.9290   -4.2340   23.1070 C   0  0  0  0  0  3  0  0  0  0  0  0
  -22.0100   -5.1280   22.0260 C   0  0  0  0  0  0  0  0  0  0  0  0
  -22.3200   -4.6630   20.7920 F   0  0  0  0  0  0  0  0  0  0  0  0
  -21.5000   -3.8420   25.4240 F   0  0  0  0  0  0  0  0  0  0  0  0
  -23.1400  -13.9240   21.2660 C   0  0  0  0  0  0  0  0  0  0  0  0
  -22.4390  -13.1920   22.1250 N   0  0  0  0  0  0  0  0  0  0  0  0
  -22.7140  -15.0030   20.8560 O   0  0  0  0  0  0  0  0  0  0  0  0
  -22.7940  -12.3130   22.4730 H   0  0  0  0  0  0  0  0  0  0  0  0
  -21.5350  -13.5140   22.4380 H   0  0  0  0  0  0  0  0  0  0  0  0
  -25.7890  -15.5480   20.4170 N   0  0  0  0  0  0  0  0  0  0  0  0
  -25.0630  -16.2240   20.6300 H   0  0  0  0  0  0  0  0  0  0  0  0
  -26.6390  -15.9760   20.0780 H   0  0  0  0  0  0  0  0  0  0  0  0
  -29.7000  -23.8230   20.7520 C   0  0  0  0  0  2  0  0  0  0  0  0
  -29.9590  -24.3260   19.3870 N   0  0  0  0  0  4  0  0  0  0  0  0
  -29.1180  -24.2580   18.8310 H   0  0  0  0  0  0  0  0  0  0  0  0
  -30.6420  -23.7130   18.9750 H   0  0  0  0  0  0  0  0  0  0  0  0
  -30.4960  -25.7090   19.3120 C   0  0  0  0  0  2  0  0  0  0  0  0
  -29.4440  -26.7860   19.6140 C   0  0  0  0  0  2  0  0  0  0  0  0
  -28.5500  -26.8600   18.5060 O   0  0  0  0  0  0  0  0  0  0  0  0
  -24.6600  -31.1030   22.7190 C   0  0  0  0  0  0  0  0  0  0  0  0
  -27.3650  -27.5080   18.7520 C   0  0  0  0  0  0  0  0  0  0  0  0
  -23.4240  -29.8880   20.9520 C   0  0  0  0  0  3  0  0  0  0  0  0
  -24.8640  -28.7420   19.1820 C   0  0  0  0  0  0  0  0  0  0  0  0
  -25.8770  -30.5110   20.6310 C   0  0  0  0  0  2  0  0  0  0  0  0
  -26.0180  -29.2720   19.7730 C   0  0  0  0  0  0  0  0  0  0  0  0
  -27.2720  -28.6580   19.5690 C   0  0  0  0  0  3  0  0  0  0  0  0
  -26.2000  -26.9940   18.1500 C   0  0  0  0  0  3  0  0  0  0  0  0
  -24.9450  -27.5950   18.3740 C   0  0  0  0  0  3  0  0  0  0  0  0
  -23.5640  -29.4640   19.4640 C   0  0  0  0  0  2  0  0  0  0  0  0
  -24.6770  -30.5040   21.4950 N   0  0  0  0  0  0  0  0  0  0  0  0
  -23.6140  -31.1860   23.3760 O   0  0  0  0  0  0  0  0  0  0  0  0
  -22.9410  -28.6660   21.7630 C   0  0  0  0  0  0  0  0  0  0  0  0
  -21.6360  -28.3630   21.6630 N   0  0  0  0  0  0  0  0  0  0  0  0
  -23.7290  -28.0000   22.4390 O   0  0  0  0  0  0  0  0  0  0  0  0
  -21.0560  -28.9690   21.0990 H   0  0  0  0  0  0  0  0  0  0  0  0
  -18.4490  -26.6960   22.0080 C   0  0  0  0  0  0  0  0  0  0  0  0
  -20.9580  -27.2380   22.3020 C   0  0  0  0  0  3  0  0  0  0  0  0
  -21.2280  -25.9190   21.5410 C   0  0  0  0  0  2  0  0  0  0  0  0
  -20.1550  -25.5950   20.4960 C   0  0  0  0  0  2  0  0  0  0  0  0
  -18.7790  -25.4780   21.1590 C   0  0  0  0  0  2  0  0  0  0  0  0
  -19.4720  -27.5310   22.5290 C   0  0  0  0  0  0  0  0  0  0  0  0
  -19.1110  -28.6700   23.2820 C   0  0  0  0  0  3  0  0  0  0  0  0
  -17.7580  -28.9800   23.5130 C   0  0  0  0  0  3  0  0  0  0  0  0
  -16.7510  -28.1400   23.0080 C   0  0  0  0  0  3  0  0  0  0  0  0
  -17.0960  -27.0000   22.2630 C   0  0  0  0  0  3  0  0  0  0  0  0
  -25.9450  -31.7310   23.3440 C   0  0  0  0  0  3  0  0  0  0  0  0
  -26.6190  -30.8100   24.4330 C   0  0  1  0  0  0  0  0  0  0  0  0
  -25.6410  -30.3150   25.5230 C   0  0  0  0  0  1  0  0  0  0  0  0
  -27.2560  -29.5670   23.7680 C   0  0  0  0  0  1  0  0  0  0  0  0
  -27.7680  -31.5760   25.1320 C   0  0  0  0  0  1  0  0  0  0  0  0
  -25.5680  -33.0300   23.9160 N   0  0  0  0  0  0  0  0  0  0  0  0
  -25.7960  -34.2120   23.3310 C   0  0  0  0  0  0  0  0  0  0  0  0
  -26.4190  -34.3270   22.2710 O   0  0  0  0  0  0  0  0  0  0  0  0
  -25.0130  -33.0070   24.7580 H   0  0  0  0  0  0  0  0  0  0  0  0
  -23.9540  -35.9220   23.3320 C   0  0  0  0  0  1  0  0  0  0  0  0
  -25.2460  -35.4700   24.0310 C   0  0  0  0  0  3  0  0  0  0  0  0
  -27.3540  -36.3340   24.9470 C   0  0  0  0  0  1  0  0  0  0  0  0
  -26.2110  -36.5920   24.0730 N   0  0  0  0  0  0  0  0  0  0  0  0
  -25.7590  -37.4440   24.3930 H   0  0  0  0  0  0  0  0  0  0  0  0
  1  2  1  0
  3  5  1  0
  3  4  2  0
  4  6  1  0
  5  1  2  0
  6  2  2  0
  6  7  1  0
  7  9  1  0
  7  8  1  0
 10  5  1  0
 10 13  1  0
 11 10  1  0
 13 12  1  0
 14 13  1  0
 15 14  1  0
 16 15  1  0
 17 22  1  0
 18 19  1  0
 18 17  1  0
 20 19  1  0
 20 27  1  0
 20 21  1  0
 22 16  1  0
 22 21  1  0
 23 16  2  0
 24 25  2  0
 25 44  1  0
 26 29  1  0
 26 25  1  0
 27 28  1  0
 27 24  1  0
 28 26  2  0
 29 30  1  0
 30 31  2  0
 32 35  1  0
 32 31  1  0
 33 32  2  0
 34 33  1  0
 34 29  2  0
 35 36  1  0
 36 37  1  0
 37 38  2  0
 39 38  1  0
 39 43  1  0
 40 39  2  0
 41 36  2  0
 41 40  1  0
 42 41  1  0
 44 45  1  0
 45 48  1  0
 45 47  1  0
 46 44  2  0
 49 24  1  0
 49 50  1  0
 51 49  1  0
 52  4  1  0
 53 52  1  0
 54 53  1  0
 55 53  1  0
 56 53  1  0
 56 57  1  0
 58 60  1  0
 58 57  1  0
 59 70  2  0
 60 65  1  0
 61 69  1  0
 61 71  1  0
 62 68  1  0
 62 64  1  0
 63 69  1  0
 64 63  1  0
 65 64  2  0
 66 67  1  0
 66 60  2  0
 67 62  2  0
 68 61  1  0
 69 59  1  0
 71 73  2  0
 72 71  1  0
 74 72  1  0
 75 84  2  0
 75 80  1  0
 76 72  1  0
 76 80  1  0
 77 76  1  0
 78 79  1  0
 78 77  1  0
 79 75  1  0
 80 81  2  0
 81 82  1  0
 83 82  2  0
 84 83  1  0
 85 59  1  0
 85 90  1  0
 85 86  1  0
 86 89  1  1
 86 87  1  0
 88 86  1  0
 90 93  1  0
 91 90  1  0
 91 95  1  0
 92 91  2  0
 95 94  1  0
 95 97  1  0
 97 98  1  0
 97 96  1  0
M  ISO  4  15 100  16 100  57 101  58 101
M  END
>  <TORSDO>  (33) 
F 25

>  <SCORE>  (33) 
-8.692

>  <name>  (33) 
32

>  <ligand_id>  (33) 
32

>  <original_smiles>  (33) 
[H]c1c([H])c([H])c2c(c1[H])C([H])([H])C([H])([H])C([H])([H])C2([H])N([H])C(=O)C1([H])N(C(=O)C([H])(N([H])C(=O)C([H])(N([H])C([H])([H])[H])C([H])([H])[H])C(C([H])([H])[H])(C([H])([H])[H])C([H])([H])[H])C([H])([H])c2c([H])c(OC([H])([H])C([H])([H])[N+]([H])([H])C([H])([H])c3c([H])c(N([H])C([H])(C([H])([H])[H])C([H])([H])C([H])([H])C(=O)N4C([H])([H])C([H])([H])C([H])([H])C([H])(n5nc(-c6c([H])c([H])c(Oc7c([H])c([H])c(F)c([H])c7F)c([H])c6[H])c(C(=O)N([H])[H])c5N([H])[H])C4([H])[H])c([H])c([H])c3N([H])[H])c([H])c([H])c2C1([H])[H]

>  <smiles>  (33) 
[H]c1c([H])c([H])c2c(c1[H])C([H])([H])C([H])([H])C([H])([H])C2([H])N([H])C(=O)C1([H])N(C(=O)C([H])(N([H])C(=O)C([H])(N([H])C([H])([H])[H])C([H])([H])[H])C(C([H])([H])[H])(C([H])([H])[H])C([H])([H])[H])C([H])([H])c2c([H])c(OC([H])([H])C([H])([H])[N+]([H])([H])C([H])([H])c3c([H])c(N([H])C([H])(C([H])([H])[H])C([H])([H])C([H])([H])C(=O)N4C([H])([H])C([H])([H])C([H])([H])C([H])(n5nc(-c6c([H])c([H])c(Oc7c([H])c([H])c(F)c([H])c7F)c([H])c6[H])c(C(=O)N([H])[H])c5N([H])[H])C4([H])[H])c([H])c([H])c3N([H])[H])c([H])c([H])c2C1([H])[H]

$$$$
33:0:0
     RDKit          3D

 94102  0  0  1  0  0  0  0  0999 V2000
  -26.3670  -21.7200   21.1790 C   0  0  0  0  0  1  0  0  0  0  0  0
  -27.7920  -21.4600   20.6340 C   0  0  0  0  0  3  0  0  0  0  0  0
  -28.3330  -22.6220   19.8810 N   0  0  0  0  0  4  0  0  0  0  0  0
  -29.1750  -22.3270   19.4090 H   0  0  0  0  0  0  0  0  0  0  0  0
  -27.6660  -22.8670   19.1690 H   0  0  0  0  0  0  0  0  0  0  0  0
  -28.6550  -23.8390   20.6680 C   0  0  0  0  0  2  0  0  0  0  0  0
  -28.6850  -25.0990   19.7790 C   0  0  0  0  0  2  0  0  0  0  0  0
  -28.9040  -26.3980   20.5800 C   0  0  0  0  0  2  0  0  0  0  0  0
  -28.7680  -27.5590   19.7560 O   0  0  0  0  0  0  0  0  0  0  0  0
  -24.7210  -32.0400   23.5100 C   0  0  0  0  0  0  0  0  0  0  0  0
  -27.5570  -28.1930   19.8770 C   0  0  0  0  0  0  0  0  0  0  0  0
  -23.5580  -30.7560   21.7430 C   0  0  0  0  0  3  0  0  0  0  0  0
  -25.0670  -29.4940   20.1200 C   0  0  0  0  0  0  0  0  0  0  0  0
  -26.0440  -31.3140   21.5290 C   0  0  0  0  0  2  0  0  0  0  0  0
  -26.2020  -30.0350   20.7370 C   0  0  0  0  0  0  0  0  0  0  0  0
  -27.4510  -29.3900   20.6150 C   0  0  0  0  0  3  0  0  0  0  0  0
  -26.4090  -27.6630   19.2510 C   0  0  0  0  0  3  0  0  0  0  0  0
  -25.1630  -28.3060   19.3750 C   0  0  0  0  0  3  0  0  0  0  0  0
  -23.7700  -30.2510   20.2910 C   0  0  0  0  0  2  0  0  0  0  0  0
  -24.7930  -31.3790   22.3200 N   0  0  0  0  0  0  0  0  0  0  0  0
  -23.6420  -32.1730   24.1030 O   0  0  0  0  0  0  0  0  0  0  0  0
  -23.0060  -29.5890   22.5930 C   0  0  0  0  0  0  0  0  0  0  0  0
  -21.7190  -29.2610   22.3940 N   0  0  0  0  0  0  0  0  0  0  0  0
  -23.7350  -28.9840   23.3860 O   0  0  0  0  0  0  0  0  0  0  0  0
  -21.1880  -29.8100   21.7340 H   0  0  0  0  0  0  0  0  0  0  0  0
  -18.5300  -27.5730   22.5700 C   0  0  0  0  0  0  0  0  0  0  0  0
  -20.9980  -28.1730   23.0520 C   0  0  0  0  0  3  0  0  0  0  0  0
  -21.3470  -26.8070   22.4160 C   0  0  0  0  0  2  0  0  0  0  0  0
  -20.3760  -26.3910   21.3070 C   0  0  0  0  0  2  0  0  0  0  0  0
  -18.9470  -26.3010   21.8490 C   0  0  0  0  0  2  0  0  0  0  0  0
  -19.4940  -28.4580   23.1220 C   0  0  0  0  0  0  0  0  0  0  0  0
  -19.0540  -29.6430   23.7510 C   0  0  0  0  0  3  0  0  0  0  0  0
  -17.6820  -29.9470   23.8370 C   0  0  0  0  0  3  0  0  0  0  0  0
  -16.7320  -29.0580   23.3040 C   0  0  0  0  0  3  0  0  0  0  0  0
  -17.1560  -27.8740   22.6750 C   0  0  0  0  0  3  0  0  0  0  0  0
  -25.9820  -32.6810   24.1680 C   0  0  0  0  0  3  0  0  0  0  0  0
  -25.6420  -34.0660   24.5210 N   0  0  0  0  0  0  0  0  0  0  0  0
  -25.9790  -35.1390   23.7940 C   0  0  0  0  0  0  0  0  0  0  0  0
  -26.6780  -35.0690   22.7800 O   0  0  0  0  0  0  0  0  0  0  0  0
  -25.0220  -34.1930   25.3080 H   0  0  0  0  0  0  0  0  0  0  0  0
  -24.2360  -36.9140   23.4170 C   0  0  0  0  0  1  0  0  0  0  0  0
  -25.4530  -36.5090   24.2660 C   0  0  0  0  0  3  0  0  0  0  0  0
  -27.5400  -37.4040   25.1970 C   0  0  0  0  0  1  0  0  0  0  0  0
  -26.4720  -37.5790   24.2170 N   0  0  0  0  0  0  0  0  0  0  0  0
  -26.0470  -38.4890   24.3710 H   0  0  0  0  0  0  0  0  0  0  0  0
  -26.4930  -31.8910   25.4340 C   0  0  1  0  0  0  0  0  0  0  0  0
  -25.3840  -31.5950   26.4700 C   0  0  0  0  0  1  0  0  0  0  0  0
  -27.1230  -30.5410   25.0170 C   0  0  0  0  0  1  0  0  0  0  0  0
  -27.6050  -32.6990   26.1430 C   0  0  0  0  0  1  0  0  0  0  0  0
  -27.7810  -20.1930   19.7420 C   0  0  0  0  0  2  0  0  0  0  0  0
  -29.6240  -18.6120   18.9310 C   0  0  0  0  0  3  0  0  0  0  0  0
  -29.1370  -18.7480   21.3130 C   0  0  0  0  0  3  0  0  0  0  0  0
  -30.5230  -17.5520   19.1760 C   0  0  0  0  0  3  0  0  0  0  0  0
  -30.0300  -17.6880   21.5590 C   0  0  0  0  0  3  0  0  0  0  0  0
  -28.9020  -19.1930   19.9970 C   0  0  0  0  0  0  0  0  0  0  0  0
  -30.7000  -17.0570   20.4920 C   0  0  0  0  0  0  0  0  0  0  0  0
  -31.8800  -14.9870   19.9140 C   0  0  0  0  0  0  0  0  0  0  0  0
  -31.5180  -12.7350   18.9740 C   0  0  0  0  0  2  0  0  0  0  0  0
  -30.4960  -12.8080   17.8210 C   0  0  0  0  0  2  0  0  0  0  0  0
  -29.0530  -12.7230   18.3520 C   0  0  0  0  0  2  0  0  0  0  0  0
  -28.7940  -13.7030   19.5260 C   0  0  0  0  0  3  0  0  0  0  0  0
  -29.9080  -13.5760   20.5900 C   0  0  0  0  0  2  0  0  0  0  0  0
  -31.2140  -13.8040   19.9350 N   0  0  0  0  0  0  0  0  0  0  0  0
  -32.8400  -15.2230   19.1720 O   0  0  0  0  0  0  0  0  0  0  0  0
  -31.4440  -15.8880   20.8040 N   0  0  0  0  0  0  0  0  0  0  0  0
  -31.1210  -15.4500   21.6540 H   0  0  0  0  0  0  0  0  0  0  0  0
  -26.5390  -14.4390   20.5330 C   0  0  0  0  0  0  0  0  0  0  0  0
  -25.4370  -13.7240   20.9270 C   0  0  0  0  0  0  0  0  0  0  0  0
  -25.7580  -12.3500   20.7040 C   0  0  0  0  0  0  0  0  0  0  0  0
  -27.4670  -13.5020   20.1060 N   0  0  0  0  0  0  0  0  0  0  0  0
  -27.0030  -12.2340   20.2590 N   0  0  0  0  0  0  0  0  0  0  0  0
  -24.9350  -11.1410   20.8380 C   0  0  0  0  0  0  0  0  0  0  0  0
  -25.2490  -10.1330   21.7760 C   0  0  0  0  0  3  0  0  0  0  0  0
  -24.4340   -8.9880   21.8970 C   0  0  0  0  0  3  0  0  0  0  0  0
  -23.2870   -8.8430   21.0790 C   0  0  0  0  0  0  0  0  0  0  0  0
  -22.9900   -9.8390   20.1320 C   0  0  0  0  0  3  0  0  0  0  0  0
  -23.8060  -10.9770   20.0090 C   0  0  0  0  0  3  0  0  0  0  0  0
  -22.4510   -7.7540   21.1100 O   0  0  0  0  0  0  0  0  0  0  0  0
  -22.1610   -7.1010   22.2800 C   0  0  0  0  0  0  0  0  0  0  0  0
  -21.5740   -7.7660   23.3780 C   0  0  0  0  0  3  0  0  0  0  0  0
  -21.2290   -7.0410   24.5360 C   0  0  0  0  0  3  0  0  0  0  0  0
  -21.4620   -5.6540   24.5970 C   0  0  0  0  0  0  0  0  0  0  0  0
  -22.0410   -4.9890   23.5010 C   0  0  0  0  0  3  0  0  0  0  0  0
  -22.3870   -5.7110   22.3450 C   0  0  0  0  0  0  0  0  0  0  0  0
  -22.9260   -5.0630   21.2850 F   0  0  0  0  0  0  0  0  0  0  0  0
  -21.1230   -4.9550   25.7060 F   0  0  0  0  0  0  0  0  0  0  0  0
  -24.1260  -14.2850   21.3980 C   0  0  0  0  0  0  0  0  0  0  0  0
  -23.4520  -13.5890   22.3070 N   0  0  0  0  0  0  0  0  0  0  0  0
  -23.7140  -15.3730   20.9970 O   0  0  0  0  0  0  0  0  0  0  0  0
  -23.8020  -12.7070   22.6520 H   0  0  0  0  0  0  0  0  0  0  0  0
  -22.5770  -13.9430   22.6630 H   0  0  0  0  0  0  0  0  0  0  0  0
  -26.8200  -15.8000   20.4890 N   0  0  0  0  0  0  0  0  0  0  0  0
  -26.1450  -16.5010   20.7710 H   0  0  0  0  0  0  0  0  0  0  0  0
  -27.7030  -16.1980   20.1880 H   0  0  0  0  0  0  0  0  0  0  0  0
  2  1  1  0
  3  2  1  0
  3  6  1  0
  4  3  1  0
  5  3  1  0
  7  8  1  0
  7  6  1  0
  9 11  1  0
  9  8  1  0
 10 21  2  0
 11 16  1  0
 12 20  1  0
 12 22  1  0
 13 19  1  0
 13 15  1  0
 14 20  1  0
 15 14  1  0
 16 15  2  0
 17 18  1  0
 17 11  2  0
 18 13  2  0
 19 12  1  0
 20 10  1  0
 22 24  2  0
 23 22  1  0
 25 23  1  0
 26 35  2  0
 26 31  1  0
 27 23  1  0
 27 31  1  0
 28 27  1  0
 29 30  1  0
 29 28  1  0
 30 26  1  0
 31 32  2  0
 32 33  1  0
 34 33  2  0
 35 34  1  0
 36 10  1  0
 36 37  1  0
 36 46  1  0
 37 40  1  0
 38 42  1  0
 38 37  1  0
 39 38  2  0
 42 41  1  0
 44 42  1  0
 44 45  1  0
 44 43  1  0
 46 49  1  1
 46 47  1  0
 48 46  1  0
 50 55  1  0
 50  2  1  0
 51 53  2  0
 51 55  1  0
 52 54  1  0
 53 56  1  0
 55 52  2  0
 56 65  1  0
 56 54  2  0
 57 63  1  0
 57 65  1  0
 58 63  1  0
 59 60  1  0
 59 58  1  0
 61 60  1  0
 61 70  1  0
 61 62  1  0
 63 62  1  0
 64 57  2  0
 65 66  1  0
 67 68  2  0
 68 87  1  0
 69 72  1  0
 69 68  1  0
 70 71  1  0
 70 67  1  0
 71 69  2  0
 72 73  1  0
 73 74  2  0
 75 78  1  0
 75 74  1  0
 76 75  2  0
 77 76  1  0
 77 72  2  0
 78 79  1  0
 79 84  2  0
 79 80  1  0
 80 81  2  0
 81 82  1  0
 82 86  1  0
 83 82  2  0
 84 83  1  0
 85 84  1  0
 87 88  1  0
 88 90  1  0
 88 91  1  0
 89 87  2  0
 92 67  1  0
 92 93  1  0
 94 92  1  0
M  ISO  4   8 101   9 101  57 100  65 100
M  END
>  <TORSDO>  (34) 
F 22

>  <SCORE>  (34) 
-8.052

>  <name>  (34) 
33

>  <ligand_id>  (34) 
33

>  <original_smiles>  (34) 
[H]c1c([H])c([H])c2c(c1[H])C([H])([H])C([H])([H])C([H])([H])C2([H])N([H])C(=O)C1([H])N(C(=O)C([H])(N([H])C(=O)C([H])(N([H])C([H])([H])[H])C([H])([H])[H])C(C([H])([H])[H])(C([H])([H])[H])C([H])([H])[H])C([H])([H])c2c([H])c(OC([H])([H])C([H])([H])C([H])([H])[N+]([H])([H])C([H])(C([H])([H])[H])C([H])([H])c3c([H])c([H])c(N([H])C(=O)N4C([H])([H])C([H])([H])C([H])([H])C([H])(n5nc(-c6c([H])c([H])c(Oc7c([H])c([H])c(F)c([H])c7F)c([H])c6[H])c(C(=O)N([H])[H])c5N([H])[H])C4([H])[H])c([H])c3[H])c([H])c([H])c2C1([H])[H]

>  <smiles>  (34) 
[H]c1c([H])c([H])c2c(c1[H])C([H])([H])C([H])([H])C([H])([H])C2([H])N([H])C(=O)C1([H])N(C(=O)C([H])(N([H])C(=O)C([H])(N([H])C([H])([H])[H])C([H])([H])[H])C(C([H])([H])[H])(C([H])([H])[H])C([H])([H])[H])C([H])([H])c2c([H])c(OC([H])([H])C([H])([H])C([H])([H])[N+]([H])([H])C([H])(C([H])([H])[H])C([H])([H])c3c([H])c([H])c(N([H])C(=O)N4C([H])([H])C([H])([H])C([H])([H])C([H])(n5nc(-c6c([H])c([H])c(Oc7c([H])c([H])c(F)c([H])c7F)c([H])c6[H])c(C(=O)N([H])[H])c5N([H])[H])C4([H])[H])c([H])c3[H])c([H])c([H])c2C1([H])[H]

$$$$
34:0:0
     RDKit          3D

 91 99  0  0  1  0  0  0  0  0999 V2000
  -28.9640  -24.7800   16.9870 C   0  0  0  0  0  3  0  0  0  0  0  0
  -28.9030  -23.4480   17.4390 C   0  0  0  0  0  3  0  0  0  0  0  0
  -28.7860  -25.8430   17.8860 C   0  0  0  0  0  3  0  0  0  0  0  0
  -28.4780  -24.2400   19.7050 C   0  0  0  0  0  3  0  0  0  0  0  0
  -28.6480  -23.1550   18.7970 C   0  0  0  0  0  0  0  0  0  0  0  0
  -28.5400  -25.5900   19.2500 C   0  0  0  0  0  0  0  0  0  0  0  0
  -28.3820  -26.6650   20.1090 O   0  0  0  0  0  0  0  0  0  0  0  0
  -24.6130  -31.8810   23.2140 C   0  0  0  0  0  0  0  0  0  0  0  0
  -27.2170  -27.4160   20.0970 C   0  0  0  0  0  0  0  0  0  0  0  0
  -23.3880  -30.4790   21.5870 C   0  0  0  0  0  3  0  0  0  0  0  0
  -24.8230  -28.9400   20.1480 C   0  0  0  0  0  0  0  0  0  0  0  0
  -25.9130  -30.8330   21.3600 C   0  0  0  0  0  2  0  0  0  0  0  0
  -25.9920  -29.4590   20.7190 C   0  0  0  0  0  0  0  0  0  0  0  0
  -27.1910  -28.7030   20.6920 C   0  0  0  0  0  3  0  0  0  0  0  0
  -26.0210  -26.9130   19.5330 C   0  0  0  0  0  3  0  0  0  0  0  0
  -24.8330  -27.6670   19.5560 C   0  0  0  0  0  3  0  0  0  0  0  0
  -23.5820  -29.8020   20.2060 C   0  0  0  0  0  2  0  0  0  0  0  0
  -24.6590  -31.0790   22.1120 N   0  0  0  0  0  0  0  0  0  0  0  0
  -23.5360  -32.1560   23.7610 O   0  0  0  0  0  0  0  0  0  0  0  0
  -22.7460  -29.4570   22.5530 C   0  0  0  0  0  0  0  0  0  0  0  0
  -21.4200  -29.2720   22.4380 N   0  0  0  0  0  0  0  0  0  0  0  0
  -23.4370  -28.8340   23.3640 O   0  0  0  0  0  0  0  0  0  0  0  0
  -20.9230  -29.8300   21.7580 H   0  0  0  0  0  0  0  0  0  0  0  0
  -18.0550  -28.0640   22.9480 C   0  0  0  0  0  0  0  0  0  0  0  0
  -20.6110  -28.3350   23.2170 C   0  0  0  0  0  3  0  0  0  0  0  0
  -20.7190  -26.9010   22.6500 C   0  0  0  0  0  2  0  0  0  0  0  0
  -19.6170  -26.5670   21.6390 C   0  0  0  0  0  2  0  0  0  0  0  0
  -18.2350  -26.7110   22.2820 C   0  0  0  0  0  2  0  0  0  0  0  0
  -19.1700  -28.8350   23.3730 C   0  0  0  0  0  0  0  0  0  0  0  0
  -18.9460  -30.1010   23.9540 C   0  0  0  0  0  3  0  0  0  0  0  0
  -17.6390  -30.5980   24.1150 C   0  0  0  0  0  3  0  0  0  0  0  0
  -16.5390  -29.8250   23.7090 C   0  0  0  0  0  3  0  0  0  0  0  0
  -16.7470  -28.5590   23.1310 C   0  0  0  0  0  3  0  0  0  0  0  0
  -25.9050  -32.5120   23.8180 C   0  0  0  0  0  3  0  0  0  0  0  0
  -25.5960  -33.9060   24.1610 N   0  0  0  0  0  0  0  0  0  0  0  0
  -25.9210  -34.9640   23.4060 C   0  0  0  0  0  0  0  0  0  0  0  0
  -26.5810  -34.8680   22.3670 O   0  0  0  0  0  0  0  0  0  0  0  0
  -25.0070  -34.0550   24.9650 H   0  0  0  0  0  0  0  0  0  0  0  0
  -24.1860  -36.7530   23.0790 C   0  0  0  0  0  1  0  0  0  0  0  0
  -25.4360  -36.3470   23.8760 C   0  0  0  0  0  3  0  0  0  0  0  0
  -27.5790  -37.2260   24.6910 C   0  0  0  0  0  1  0  0  0  0  0  0
  -26.4660  -37.4030   23.7620 N   0  0  0  0  0  0  0  0  0  0  0  0
  -26.0600  -38.3200   23.9240 H   0  0  0  0  0  0  0  0  0  0  0  0
  -26.4450  -31.7330   25.0780 C   0  0  1  0  0  0  0  0  0  0  0  0
  -25.3710  -31.4850   26.1620 C   0  0  0  0  0  1  0  0  0  0  0  0
  -27.0200  -30.3590   24.6630 C   0  0  0  0  0  1  0  0  0  0  0  0
  -27.6060  -32.5240   25.7270 C   0  0  0  0  0  1  0  0  0  0  0  0
  -28.4620  -21.6740   19.1940 C   0  0  0  0  0  2  0  0  0  0  0  0
  -29.7460  -20.8730   19.5660 C   0  0  0  0  0  2  0  0  0  0  0  0
  -29.6530  -19.4130   19.2430 N   0  0  0  0  0  4  0  0  0  0  0  0
  -30.4940  -19.2040   18.7290 H   0  0  0  0  0  0  0  0  0  0  0  0
  -28.8900  -19.2770   18.6010 H   0  0  0  0  0  0  0  0  0  0  0  0
  -29.5630  -18.4140   20.3520 C   0  0  0  0  0  2  0  0  0  0  0  0
  -29.9770  -16.9750   19.8810 C   0  0  0  0  0  2  0  0  0  0  0  0
  -29.9320  -15.8220   20.9420 C   0  0  0  0  0  2  0  0  0  0  0  0
  -30.6360  -14.5140   20.4650 C   0  0  0  0  0  0  0  0  0  0  0  0
  -30.3570  -12.3230   19.3630 C   0  0  0  0  0  2  0  0  0  0  0  0
  -29.4320  -12.5280   18.1430 C   0  0  0  0  0  2  0  0  0  0  0  0
  -27.9510  -12.4030   18.5520 C   0  0  0  0  0  2  0  0  0  0  0  0
  -27.6020  -13.2450   19.8090 C   0  0  0  0  0  3  0  0  0  0  0  0
  -28.6460  -13.0310   20.9270 C   0  0  0  0  0  2  0  0  0  0  0  0
  -29.9740  -13.3240   20.3730 N   0  0  0  0  0  0  0  0  0  0  0  0
  -31.7910  -14.6340   20.0490 O   0  0  0  0  0  0  0  0  0  0  0  0
  -25.1970  -13.8660   20.4740 C   0  0  0  0  0  0  0  0  0  0  0  0
  -24.1210  -13.1030   20.8370 C   0  0  0  0  0  0  0  0  0  0  0  0
  -24.5790  -11.7500   20.8320 C   0  0  0  0  0  0  0  0  0  0  0  0
  -26.2440  -12.9790   20.2750 N   0  0  0  0  0  0  0  0  0  0  0  0
  -25.8750  -11.7030   20.5480 N   0  0  0  0  0  0  0  0  0  0  0  0
  -23.8480  -10.4910   21.0260 C   0  0  0  0  0  0  0  0  0  0  0  0
  -24.2730   -9.5220   21.9610 C   0  0  0  0  0  3  0  0  0  0  0  0
  -23.5400   -8.3300   22.1420 C   0  0  0  0  0  3  0  0  0  0  0  0
  -22.3640   -8.0980   21.3900 C   0  0  0  0  0  0  0  0  0  0  0  0
  -21.9580   -9.0550   20.4420 C   0  0  0  0  0  3  0  0  0  0  0  0
  -22.6930  -10.2370   20.2570 C   0  0  0  0  0  3  0  0  0  0  0  0
  -21.6030   -6.9570   21.4810 O   0  0  0  0  0  0  0  0  0  0  0  0
  -21.5630   -6.2100   22.6300 C   0  0  0  0  0  0  0  0  0  0  0  0
  -21.1730   -6.7650   23.8690 C   0  0  0  0  0  3  0  0  0  0  0  0
  -21.0740   -5.9430   25.0090 C   0  0  0  0  0  3  0  0  0  0  0  0
  -21.3590   -4.5670   24.9140 C   0  0  0  0  0  0  0  0  0  0  0  0
  -21.7450   -4.0140   23.6810 C   0  0  0  0  0  3  0  0  0  0  0  0
  -21.8420   -4.8310   22.5420 C   0  0  0  0  0  0  0  0  0  0  0  0
  -22.1900   -4.2870   21.3520 F   0  0  0  0  0  0  0  0  0  0  0  0
  -21.2610   -3.7770   26.0080 F   0  0  0  0  0  0  0  0  0  0  0  0
  -22.7210  -13.5860   21.0800 C   0  0  0  0  0  0  0  0  0  0  0  0
  -21.9810  -12.9020   21.9460 N   0  0  0  0  0  0  0  0  0  0  0  0
  -22.2910  -14.6020   20.5340 O   0  0  0  0  0  0  0  0  0  0  0  0
  -22.3460  -12.0850   22.4130 H   0  0  0  0  0  0  0  0  0  0  0  0
  -21.0380  -13.2010   22.1440 H   0  0  0  0  0  0  0  0  0  0  0  0
  -25.3730  -15.2340   20.2770 N   0  0  0  0  0  0  0  0  0  0  0  0
  -24.6170  -15.9020   20.3670 H   0  0  0  0  0  0  0  0  0  0  0  0
  -26.2360  -15.6610   19.9680 H   0  0  0  0  0  0  0  0  0  0  0  0
  1  2  2  0
  1  3  1  0
  2  5  1  0
  3  6  2  0
  5 48  1  0
  5  4  2  0
  6  4  1  0
  6  7  1  0
  8 19  2  0
  9  7  1  0
  9 14  1  0
 10 18  1  0
 10 20  1  0
 11 17  1  0
 11 13  1  0
 12 18  1  0
 13 12  1  0
 14 13  2  0
 15 16  1  0
 15  9  2  0
 16 11  2  0
 17 10  1  0
 18  8  1  0
 20 22  2  0
 21 20  1  0
 23 21  1  0
 24 33  2  0
 24 29  1  0
 25 21  1  0
 25 29  1  0
 26 25  1  0
 27 28  1  0
 27 26  1  0
 28 24  1  0
 29 30  2  0
 30 31  1  0
 32 31  2  0
 33 32  1  0
 34  8  1  0
 34 35  1  0
 34 44  1  0
 35 38  1  0
 36 40  1  0
 36 35  1  0
 37 36  2  0
 40 39  1  0
 42 40  1  0
 42 43  1  0
 42 41  1  0
 44 47  1  1
 44 45  1  0
 46 44  1  0
 48 49  1  0
 50 49  1  0
 50 53  1  0
 51 50  1  0
 52 50  1  0
 54 53  1  0
 54 55  1  0
 56 55  1  0
 57 62  1  0
 58 59  1  0
 58 57  1  0
 60 59  1  0
 60 67  1  0
 60 61  1  0
 62 56  1  0
 62 61  1  0
 63 56  2  0
 64 65  2  0
 65 84  1  0
 66 65  1  0
 66 69  1  0
 67 64  1  0
 67 68  1  0
 68 66  2  0
 69 70  1  0
 70 71  2  0
 72 75  1  0
 72 71  1  0
 73 72  2  0
 74 73  1  0
 74 69  2  0
 75 76  1  0
 76 77  1  0
 77 78  2  0
 79 78  1  0
 79 83  1  0
 80 79  2  0
 81 76  2  0
 81 80  1  0
 82 81  1  0
 84 85  1  0
 85 88  1  0
 85 87  1  0
 86 84  2  0
 89 90  1  0
 89 64  1  0
 91 89  1  0
M  ISO  4   6 101   7 101  55 100  56 100
M  END
>  <TORSDO>  (35) 
F 22

>  <SCORE>  (35) 
-12.900

>  <name>  (35) 
34

>  <ligand_id>  (35) 
34

>  <original_smiles>  (35) 
[H]c1c([H])c([H])c2c(c1[H])C([H])([H])C([H])([H])C([H])([H])C2([H])N([H])C(=O)C1([H])N(C(=O)C([H])(N([H])C(=O)C([H])(N([H])C([H])([H])[H])C([H])([H])[H])C(C([H])([H])[H])(C([H])([H])[H])C([H])([H])[H])C([H])([H])c2c([H])c(Oc3c([H])c([H])c([H])c(C([H])([H])C([H])([H])[N+]([H])([H])C([H])([H])C([H])([H])C([H])([H])C(=O)N4C([H])([H])C([H])([H])C([H])([H])C([H])(n5nc(-c6c([H])c([H])c(Oc7c([H])c([H])c(F)c([H])c7F)c([H])c6[H])c(C(=O)N([H])[H])c5N([H])[H])C4([H])[H])c3[H])c([H])c([H])c2C1([H])[H]

>  <smiles>  (35) 
[H]c1c([H])c([H])c2c(c1[H])C([H])([H])C([H])([H])C([H])([H])C2([H])N([H])C(=O)C1([H])N(C(=O)C([H])(N([H])C(=O)C([H])(N([H])C([H])([H])[H])C([H])([H])[H])C(C([H])([H])[H])(C([H])([H])[H])C([H])([H])[H])C([H])([H])c2c([H])c(Oc3c([H])c([H])c([H])c(C([H])([H])C([H])([H])[N+]([H])([H])C([H])([H])C([H])([H])C([H])([H])C(=O)N4C([H])([H])C([H])([H])C([H])([H])C([H])(n5nc(-c6c([H])c([H])c(Oc7c([H])c([H])c(F)c([H])c7F)c([H])c6[H])c(C(=O)N([H])[H])c5N([H])[H])C4([H])[H])c3[H])c([H])c([H])c2C1([H])[H]

$$$$
35:0:0
     RDKit          3D

 83 87  0  0  1  0  0  0  0  0999 V2000
  -28.1600  -22.5550   20.2210 C   0  0  0  0  0 15  0  0  0  0  0  0
  -28.1220  -24.6610   20.3210 O   0  0  0  0  0  1  0  0  0  0  0  0
  -24.7190  -31.8040   23.1860 C   0  0  0  0  0  0  0  0  0  0  0  0
  -27.2130  -26.1560   20.2950 C   0  0  0  0  0  0  0  0  0  0  0  0
  -23.5560  -30.3810   21.5630 C   0  0  0  0  0  3  0  0  0  0  0  0
  -25.0070  -28.5920   20.2070 C   0  0  0  0  0  0  0  0  0  0  0  0
  -26.1570  -30.3330   21.5220 C   0  0  0  0  0  2  0  0  0  0  0  0
  -26.2110  -28.8270   20.8760 C   0  0  0  0  0  0  0  0  0  0  0  0
  -27.2640  -27.6630   20.8680 C   0  0  0  0  0  3  0  0  0  0  0  0
  -25.9670  -26.2960   19.5630 C   0  0  0  0  0  3  0  0  0  0  0  0
  -24.9620  -27.3550   19.5230 C   0  0  0  0  0  3  0  0  0  0  0  0
  -23.8290  -29.6220   20.2210 C   0  0  0  0  0  2  0  0  0  0  0  0
  -24.8440  -30.8880   22.1420 N   0  0  0  0  0  0  0  0  0  0  0  0
  -23.6120  -32.1370   23.6550 O   0  0  0  0  0  0  0  0  0  0  0  0
  -22.7730  -29.4730   22.5540 C   0  0  0  0  0  0  0  0  0  0  0  0
  -21.4340  -29.3610   22.4300 N   0  0  0  0  0  0  0  0  0  0  0  0
  -23.3960  -28.8560   23.4200 O   0  0  0  0  0  0  0  0  0  0  0  0
  -20.9710  -29.9060   21.7160 H   0  0  0  0  0  0  0  0  0  0  0  0
  -18.0220  -28.1830   22.9710 C   0  0  0  0  0  0  0  0  0  0  0  0
  -20.5880  -28.4400   23.2100 C   0  0  0  0  0  3  0  0  0  0  0  0
  -20.6700  -27.0030   22.6430 C   0  0  0  0  0  2  0  0  0  0  0  0
  -19.5630  -26.6870   21.6330 C   0  0  0  0  0  2  0  0  0  0  0  0
  -18.1860  -26.8370   22.2850 C   0  0  0  0  0  2  0  0  0  0  0  0
  -19.1480  -28.9430   23.3890 C   0  0  0  0  0  0  0  0  0  0  0  0
  -18.9330  -30.1970   24.0010 C   0  0  0  0  0  3  0  0  0  0  0  0
  -17.6290  -30.6930   24.1920 C   0  0  0  0  0  3  0  0  0  0  0  0
  -16.5200  -29.9330   23.7840 C   0  0  0  0  0  3  0  0  0  0  0  0
  -16.7170  -28.6780   23.1800 C   0  0  0  0  0  3  0  0  0  0  0  0
  -25.9510  -32.4910   23.8540 C   0  0  0  0  0  3  0  0  0  0  0  0
  -25.6050  -33.8960   24.1860 N   0  0  0  0  0  0  0  0  0  0  0  0
  -25.9300  -34.9790   23.4640 C   0  0  0  0  0  0  0  0  0  0  0  0
  -26.5930  -34.9020   22.4290 O   0  0  0  0  0  0  0  0  0  0  0  0
  -25.0080  -34.0270   24.9900 H   0  0  0  0  0  0  0  0  0  0  0  0
  -24.1870  -36.7880   23.1980 C   0  0  0  0  0  1  0  0  0  0  0  0
  -25.4530  -36.3640   23.9620 C   0  0  0  0  0  3  0  0  0  0  0  0
  -27.5990  -37.2690   24.7510 C   0  0  0  0  0  1  0  0  0  0  0  0
  -26.4760  -37.4280   23.8320 N   0  0  0  0  0  0  0  0  0  0  0  0
  -26.0660  -38.3450   23.9890 H   0  0  0  0  0  0  0  0  0  0  0  0
  -26.4240  -31.7570   25.1720 C   0  0  1  0  0  0  0  0  0  0  0  0
  -25.2960  -31.5460   26.2130 C   0  0  0  0  0  1  0  0  0  0  0  0
  -27.0190  -30.3700   24.8560 C   0  0  0  0  0  1  0  0  0  0  0  0
  -27.5520  -32.5680   25.8500 C   0  0  0  0  0  1  0  0  0  0  0  0
  -29.1840  -20.4270   20.2410 C   0  0  0  0  0  1  0  0  0  0  0  0
  -29.9140  -16.6910   20.1220 C   0  0  0  0  0  0  0  0  0  0  0  0
  -30.2820  -13.9310   19.3340 C   0  0  0  0  0  2  0  0  0  0  0  0
  -29.5120  -13.0900   18.2330 C   0  0  0  0  0  2  0  0  0  0  0  0
  -28.1950  -12.5120   18.7530 C   0  0  0  0  0  2  0  0  0  0  0  0
  -27.5500  -13.5400   19.6930 C   0  0  0  0  0  3  0  0  0  0  0  0
  -28.5140  -14.2370   20.7220 C   0  0  0  0  0  2  0  0  0  0  0  0
  -29.4950  -15.1640   19.9980 N   0  0  0  0  0  0  0  0  0  0  0  0
  -31.1640  -16.4720   20.0440 O   0  0  0  0  0  0  0  0  0  0  0  0
  -29.1830  -18.3190   20.1660 N   0  0  0  0  0  2  0  0  0  0  0  0
  -28.1970  -18.0860   20.1420 H   0  0  0  0  0  0  0  0  0  0  0  0
  -25.2020  -13.9380   20.5120 C   0  0  0  0  0  0  0  0  0  0  0  0
  -24.1690  -13.1250   20.8770 C   0  0  0  0  0  0  0  0  0  0  0  0
  -24.6720  -11.7880   20.8180 C   0  0  0  0  0  0  0  0  0  0  0  0
  -26.2710  -13.1070   20.2490 N   0  0  0  0  0  0  0  0  0  0  0  0
  -25.9660  -11.7980   20.4850 N   0  0  0  0  0  0  0  0  0  0  0  0
  -23.9620  -10.5090   21.0000 C   0  0  0  0  0  0  0  0  0  0  0  0
  -24.3910   -9.5480   21.9420 C   0  0  0  0  0  3  0  0  0  0  0  0
  -23.6710   -8.3450   22.1210 C   0  0  0  0  0  3  0  0  0  0  0  0
  -22.5050   -8.0930   21.3580 C   0  0  0  0  0  0  0  0  0  0  0  0
  -22.0920   -9.0450   20.4090 C   0  0  0  0  0  3  0  0  0  0  0  0
  -22.8130  -10.2370   20.2280 C   0  0  0  0  0  3  0  0  0  0  0  0
  -21.7590   -6.9420   21.4450 O   0  0  0  0  0  0  0  0  0  0  0  0
  -21.6820   -6.2180   22.6080 C   0  0  0  0  0  0  0  0  0  0  0  0
  -21.1730   -6.7760   23.8000 C   0  0  0  0  0  3  0  0  0  0  0  0
  -21.0460   -5.9780   24.9550 C   0  0  0  0  0  3  0  0  0  0  0  0
  -21.4180   -4.6200   24.9170 C   0  0  0  0  0  0  0  0  0  0  0  0
  -21.9190   -4.0610   23.7280 C   0  0  0  0  0  3  0  0  0  0  0  0
  -22.0470   -4.8570   22.5770 C   0  0  0  0  0  0  0  0  0  0  0  0
  -22.5110   -4.3070   21.4290 F   0  0  0  0  0  0  0  0  0  0  0  0
  -21.2900   -3.8500   26.0240 F   0  0  0  0  0  0  0  0  0  0  0  0
  -22.7660  -13.5730   21.1600 C   0  0  0  0  0  0  0  0  0  0  0  0
  -22.0610  -12.8650   22.0340 N   0  0  0  0  0  0  0  0  0  0  0  0
  -22.3080  -14.5920   20.6440 O   0  0  0  0  0  0  0  0  0  0  0  0
  -22.4490  -12.0430   22.4730 H   0  0  0  0  0  0  0  0  0  0  0  0
  -21.1210  -13.1490   22.2690 H   0  0  0  0  0  0  0  0  0  0  0  0
  -25.3190  -15.3140   20.3410 N   0  0  0  0  0  0  0  0  0  0  0  0
  -24.5320  -15.9410   20.4640 H   0  0  0  0  0  0  0  0  0  0  0  0
  -26.1500  -15.7780   19.9990 H   0  0  0  0  0  0  0  0  0  0  0  0
  -31.1390  -21.7770   21.2670 C   0  0  0  0  0  1  0  0  0  0  0  0
  -30.1480  -20.6140   21.4290 C   0  0  0  0  0  2  0  0  0  0  0  0
  3 14  2  0
  4  2  1  0
  4  9  1  0
  5 13  1  0
  5 15  1  0
  6 12  1  0
  6  8  1  0
  7 13  1  0
  8  7  1  0
  9  8  2  0
 10  4  2  0
 11 10  1  0
 11  6  2  0
 12  5  1  0
 13  3  1  0
 15 17  2  0
 16 15  1  0
 18 16  1  0
 19 28  2  0
 19 24  1  0
 20 16  1  0
 20 24  1  0
 21 20  1  0
 22 23  1  0
 22 21  1  0
 23 19  1  0
 24 25  2  0
 25 26  1  0
 27 26  2  0
 28 27  1  0
 29  3  1  0
 29 30  1  0
 29 39  1  0
 30 33  1  0
 31 35  1  0
 31 30  1  0
 32 31  2  0
 35 34  1  0
 37 35  1  0
 37 38  1  0
 37 36  1  0
 39 42  1  1
 39 40  1  0
 41 39  1  0
 43 83  1  0
 44 52  1  0
 45 50  1  0
 46 47  1  0
 46 45  1  0
 48 47  1  0
 48 57  1  0
 48 49  1  0
 50 44  1  0
 50 49  1  0
 51 44  2  0
 53 52  1  0
 54 55  2  0
 55 74  1  0
 56 55  1  0
 56 59  1  0
 57 58  1  0
 57 54  1  0
 58 56  2  0
 59 60  1  0
 60 61  2  0
 62 65  1  0
 62 61  1  0
 63 62  2  0
 64 63  1  0
 64 59  2  0
 65 66  1  0
 66 67  1  0
 67 68  2  0
 69 68  1  0
 69 73  1  0
 70 69  2  0
 71 66  2  0
 71 70  1  0
 72 71  1  0
 74 75  1  0
 75 78  1  0
 75 77  1  0
 76 74  2  0
 79 80  1  0
 79 54  1  0
 81 79  1  0
 82 83  1  0
M  ISO  4   1 101   2 101  44 100  52 100
M  END
>  <TORSDO>  (36) 
F 18

>  <SCORE>  (36) 
-16.095

>  <name>  (36) 
35

>  <ligand_id>  (36) 
35

>  <original_smiles>  (36) 
[H]c1c([H])c([H])c2c(c1[H])C([H])([H])C([H])([H])C([H])([H])C2([H])N([H])C(=O)C1([H])N(C(=O)C([H])(N([H])C(=O)C([H])(N([H])C([H])([H])[H])C([H])([H])[H])C(C([H])([H])[H])(C([H])([H])[H])C([H])([H])[H])C([H])([H])c2c([H])c(OC([H])([H])C([H])(N([H])C(=O)N3C([H])([H])C([H])([H])C([H])([H])C([H])(n4nc(-c5c([H])c([H])c(Oc6c([H])c([H])c(F)c([H])c6F)c([H])c5[H])c(C(=O)N([H])[H])c4N([H])[H])C3([H])[H])C([H])([H])C([H])([H])[H])c([H])c([H])c2C1([H])[H]

>  <smiles>  (36) 
[H]c1c([H])c([H])c2c(c1[H])C([H])([H])C([H])([H])C([H])([H])C2([H])N([H])C(=O)C1([H])N(C(=O)C([H])(N([H])C(=O)C([H])(N([H])C([H])([H])[H])C([H])([H])[H])C(C([H])([H])[H])(C([H])([H])[H])C([H])([H])[H])C([H])([H])c2c([H])c(OC([H])([H])C([H])(N([H])C(=O)N3C([H])([H])C([H])([H])C([H])([H])C([H])(n4nc(-c5c([H])c([H])c(Oc6c([H])c([H])c(F)c([H])c6F)c([H])c5[H])c(C(=O)N([H])[H])c4N([H])[H])C3([H])[H])C([H])([H])C([H])([H])[H])c([H])c([H])c2C1([H])[H]

$$$$
36:0:0
     RDKit          3D

 89 97  0  0  1  0  0  0  0  0999 V2000
  -28.7680  -19.0080   17.9660 C   0  0  0  0  0  2  0  0  0  0  0  0
  -28.8050  -17.6580   18.7240 C   0  0  0  0  0  2  0  0  0  0  0  0
  -28.3270  -20.2170   18.8310 C   0  0  0  0  0  2  0  0  0  0  0  0
  -29.4670  -19.0760   20.7530 C   0  0  0  0  0  2  0  0  0  0  0  0
  -29.7850  -17.6390   19.9190 C   0  0  0  0  0  3  0  0  0  0  0  0
  -29.2770  -20.4320   19.9430 N   0  0  2  0  0  4  0  0  0  0  0  0
  -30.1550  -20.4660   19.4490 H   0  0  0  0  0  0  0  0  0  0  0  0
  -30.5280  -14.9830   20.2960 C   0  0  0  0  0  0  0  0  0  0  0  0
  -30.4080  -12.6230   19.3810 C   0  0  0  0  0  2  0  0  0  0  0  0
  -29.4830  -12.5970   18.1420 C   0  0  0  0  0  2  0  0  0  0  0  0
  -28.0160  -12.3920   18.5650 C   0  0  0  0  0  2  0  0  0  0  0  0
  -27.6100  -13.3070   19.7510 C   0  0  0  0  0  3  0  0  0  0  0  0
  -28.6640  -13.3100   20.8820 C   0  0  0  0  0  2  0  0  0  0  0  0
  -29.9420  -13.7160   20.2860 N   0  0  0  0  0  0  0  0  0  0  0  0
  -31.7040  -15.0590   19.9300 O   0  0  0  0  0  0  0  0  0  0  0  0
  -29.7480  -16.1590   20.5090 N   0  0  0  0  0  0  0  0  0  0  0  0
  -28.8560  -15.9330   20.9220 H   0  0  0  0  0  0  0  0  0  0  0  0
  -25.2300  -13.8830   20.4930 C   0  0  0  0  0  0  0  0  0  0  0  0
  -24.1660  -13.1070   20.8650 C   0  0  0  0  0  0  0  0  0  0  0  0
  -24.6290  -11.7560   20.8280 C   0  0  0  0  0  0  0  0  0  0  0  0
  -26.2730  -13.0050   20.2480 N   0  0  0  0  0  0  0  0  0  0  0  0
  -25.9210  -11.7210   20.5150 N   0  0  0  0  0  0  0  0  0  0  0  0
  -23.9010  -10.4940   21.0150 C   0  0  0  0  0  0  0  0  0  0  0  0
  -24.3220   -9.5280   21.9550 C   0  0  0  0  0  3  0  0  0  0  0  0
  -23.5930   -8.3320   22.1300 C   0  0  0  0  0  3  0  0  0  0  0  0
  -22.4260   -8.0940   21.3640 C   0  0  0  0  0  0  0  0  0  0  0  0
  -22.0250   -9.0480   20.4120 C   0  0  0  0  0  3  0  0  0  0  0  0
  -22.7560  -10.2350   20.2350 C   0  0  0  0  0  3  0  0  0  0  0  0
  -21.6700   -6.9500   21.4480 O   0  0  0  0  0  0  0  0  0  0  0  0
  -21.5930   -6.2200   22.6060 C   0  0  0  0  0  0  0  0  0  0  0  0
  -21.1170   -6.7830   23.8110 C   0  0  0  0  0  3  0  0  0  0  0  0
  -20.9890   -5.9790   24.9610 C   0  0  0  0  0  3  0  0  0  0  0  0
  -21.3260   -4.6130   24.9080 C   0  0  0  0  0  0  0  0  0  0  0  0
  -21.7940   -4.0500   23.7070 C   0  0  0  0  0  3  0  0  0  0  0  0
  -21.9240   -4.8510   22.5590 C   0  0  0  0  0  0  0  0  0  0  0  0
  -22.3540   -4.2980   21.4000 F   0  0  0  0  0  0  0  0  0  0  0  0
  -21.1950   -3.8380   26.0100 F   0  0  0  0  0  0  0  0  0  0  0  0
  -22.7700  -13.5860   21.1380 C   0  0  0  0  0  0  0  0  0  0  0  0
  -22.0360  -12.8850   21.9950 N   0  0  0  0  0  0  0  0  0  0  0  0
  -22.3390  -14.6180   20.6270 O   0  0  0  0  0  0  0  0  0  0  0  0
  -22.3950  -12.0500   22.4320 H   0  0  0  0  0  0  0  0  0  0  0  0
  -21.0980  -13.1890   22.2160 H   0  0  0  0  0  0  0  0  0  0  0  0
  -25.3930  -15.2540   20.3190 N   0  0  0  0  0  0  0  0  0  0  0  0
  -24.6190  -15.9020   20.4220 H   0  0  0  0  0  0  0  0  0  0  0  0
  -26.2270  -15.6890   19.9490 H   0  0  0  0  0  0  0  0  0  0  0  0
  -29.2970  -21.9110   20.5610 C   0  0  0  0  0  2  0  0  0  0  0  0
  -28.2110  -23.2010   20.3120 C   0  0  0  0  0  2  0  0  0  0  0  0
  -28.5060  -24.7820   19.7590 C   0  0  0  0  0  2  0  0  0  0  0  0
  -28.3220  -26.2110   20.3640 O   0  0  0  0  0  0  0  0  0  0  0  0
  -24.6100  -31.8590   23.2300 C   0  0  0  0  0  0  0  0  0  0  0  0
  -27.2380  -27.1530   20.2210 C   0  0  0  0  0  0  0  0  0  0  0  0
  -23.4270  -30.4520   21.5840 C   0  0  0  0  0  3  0  0  0  0  0  0
  -24.8920  -28.8760   20.1680 C   0  0  0  0  0  0  0  0  0  0  0  0
  -25.9760  -30.7310   21.4350 C   0  0  0  0  0  2  0  0  0  0  0  0
  -26.0600  -29.3370   20.7850 C   0  0  0  0  0  0  0  0  0  0  0  0
  -27.2280  -28.4880   20.7970 C   0  0  0  0  0  3  0  0  0  0  0  0
  -26.0460  -26.7860   19.5630 C   0  0  0  0  0  3  0  0  0  0  0  0
  -24.8970  -27.6140   19.5440 C   0  0  0  0  0  3  0  0  0  0  0  0
  -23.6580  -29.7660   20.2090 C   0  0  0  0  0  2  0  0  0  0  0  0
  -24.6900  -31.0380   22.1380 N   0  0  0  0  0  0  0  0  0  0  0  0
  -23.5200  -32.1390   23.7520 O   0  0  0  0  0  0  0  0  0  0  0  0
  -22.7470  -29.4470   22.5480 C   0  0  0  0  0  0  0  0  0  0  0  0
  -21.4190  -29.2770   22.4200 N   0  0  0  0  0  0  0  0  0  0  0  0
  -23.4180  -28.8230   23.3730 O   0  0  0  0  0  0  0  0  0  0  0  0
  -20.9350  -29.8340   21.7300 H   0  0  0  0  0  0  0  0  0  0  0  0
  -18.0360  -28.0860   22.9250 C   0  0  0  0  0  0  0  0  0  0  0  0
  -20.5970  -28.3400   23.1890 C   0  0  0  0  0  3  0  0  0  0  0  0
  -20.6930  -26.9110   22.6090 C   0  0  0  0  0  2  0  0  0  0  0  0
  -19.5890  -26.5940   21.5950 C   0  0  0  0  0  2  0  0  0  0  0  0
  -18.2080  -26.7400   22.2420 C   0  0  0  0  0  2  0  0  0  0  0  0
  -19.1570  -28.8440   23.3550 C   0  0  0  0  0  0  0  0  0  0  0  0
  -18.9410  -30.1040   23.9560 C   0  0  0  0  0  3  0  0  0  0  0  0
  -17.6380  -30.6040   24.1300 C   0  0  0  0  0  3  0  0  0  0  0  0
  -16.5310  -29.8430   23.7160 C   0  0  0  0  0  3  0  0  0  0  0  0
  -16.7320  -28.5850   23.1190 C   0  0  0  0  0  3  0  0  0  0  0  0
  -25.8820  -32.5040   23.8630 C   0  0  0  0  0  3  0  0  0  0  0  0
  -26.3780  -31.7530   25.1610 C   0  0  1  0  0  0  0  0  0  0  0  0
  -25.2690  -31.5350   26.2170 C   0  0  0  0  0  1  0  0  0  0  0  0
  -26.9640  -30.3690   24.8040 C   0  0  0  0  0  1  0  0  0  0  0  0
  -27.5180  -32.5590   25.8280 C   0  0  0  0  0  1  0  0  0  0  0  0
  -25.5650  -33.9070   24.1760 N   0  0  0  0  0  0  0  0  0  0  0  0
  -25.9000  -34.9560   23.4130 C   0  0  0  0  0  0  0  0  0  0  0  0
  -26.5730  -34.8450   22.3850 O   0  0  0  0  0  0  0  0  0  0  0  0
  -24.9680  -34.0670   24.9740 H   0  0  0  0  0  0  0  0  0  0  0  0
  -24.1740  -36.7510   23.0430 C   0  0  0  0  0  1  0  0  0  0  0  0
  -25.4140  -36.3500   23.8600 C   0  0  0  0  0  3  0  0  0  0  0  0
  -27.5420  -37.2460   24.6930 C   0  0  0  0  0  1  0  0  0  0  0  0
  -26.4460  -37.4020   23.7410 N   0  0  0  0  0  0  0  0  0  0  0  0
  -26.0380  -38.3230   23.8760 H   0  0  0  0  0  0  0  0  0  0  0  0
  1  2  1  0
  1  3  1  0
  2  5  1  0
  3  6  1  0
  5 16  1  0
  5  4  1  0
  6 46  1  0
  6  4  1  0
  6  7  1  6
  8 16  1  0
  9 14  1  0
 10 11  1  0
 10  9  1  0
 12 11  1  0
 12 21  1  0
 12 13  1  0
 14  8  1  0
 14 13  1  0
 15  8  2  0
 16 17  1  0
 18 19  2  0
 19 38  1  0
 20 19  1  0
 20 23  1  0
 21 18  1  0
 21 22  1  0
 22 20  2  0
 23 24  1  0
 24 25  2  0
 26 29  1  0
 26 25  1  0
 27 26  2  0
 28 27  1  0
 28 23  2  0
 29 30  1  0
 30 31  1  0
 31 32  2  0
 33 32  1  0
 33 37  1  0
 34 33  2  0
 35 30  2  0
 35 34  1  0
 36 35  1  0
 38 39  1  0
 39 42  1  0
 39 41  1  0
 40 38  2  0
 43 44  1  0
 43 18  1  0
 45 43  1  0
 47 46  1  0
 48 47  1  0
 48 49  1  0
 50 61  2  0
 51 49  1  0
 51 56  1  0
 52 60  1  0
 52 62  1  0
 53 59  1  0
 53 55  1  0
 54 60  1  0
 55 56  2  0
 55 54  1  0
 57 51  2  0
 58 57  1  0
 58 53  2  0
 59 52  1  0
 60 50  1  0
 62 64  2  0
 63 62  1  0
 65 63  1  0
 66 75  2  0
 66 71  1  0
 67 63  1  0
 67 71  1  0
 68 67  1  0
 69 70  1  0
 69 68  1  0
 70 66  1  0
 71 72  2  0
 72 73  1  0
 74 73  2  0
 75 74  1  0
 76 50  1  0
 76 81  1  0
 76 77  1  0
 77 80  1  1
 77 78  1  0
 79 77  1  0
 81 84  1  0
 82 86  1  0
 82 81  1  0
 83 82  2  0
 86 85  1  0
 88 86  1  0
 88 89  1  0
 88 87  1  0
M  ISO  4   8 100  16 100  48 101  49 101
M  END
>  <TORSDO>  (37) 
F 19

>  <SCORE>  (37) 
-15.434

>  <name>  (37) 
36

>  <ligand_id>  (37) 
36

>  <original_smiles>  (37) 
[H]c1c([H])c([H])c2c(c1[H])C([H])([H])C([H])([H])C([H])([H])C2([H])N([H])C(=O)C1([H])N(C(=O)C([H])(N([H])C(=O)C([H])(N([H])C([H])([H])[H])C([H])([H])[H])C(C([H])([H])[H])(C([H])([H])[H])C([H])([H])[H])C([H])([H])c2c([H])c(OC([H])([H])C([H])([H])C([H])([H])[N+]3([H])C([H])([H])C([H])([H])C([H])([H])C([H])(N([H])C(=O)N4C([H])([H])C([H])([H])C([H])([H])C([H])(n5nc(-c6c([H])c([H])c(Oc7c([H])c([H])c(F)c([H])c7F)c([H])c6[H])c(C(=O)N([H])[H])c5N([H])[H])C4([H])[H])C3([H])[H])c([H])c([H])c2C1([H])[H]

>  <smiles>  (37) 
[H]c1c([H])c([H])c2c(c1[H])C([H])([H])C([H])([H])C([H])([H])C2([H])N([H])C(=O)C1([H])N(C(=O)C([H])(N([H])C(=O)C([H])(N([H])C([H])([H])[H])C([H])([H])[H])C(C([H])([H])[H])(C([H])([H])[H])C([H])([H])[H])C([H])([H])c2c([H])c(OC([H])([H])C([H])([H])C([H])([H])[N+]3([H])C([H])([H])C([H])([H])C([H])([H])C([H])(N([H])C(=O)N4C([H])([H])C([H])([H])C([H])([H])C([H])(n5nc(-c6c([H])c([H])c(Oc7c([H])c([H])c(F)c([H])c7F)c([H])c6[H])c(C(=O)N([H])[H])c5N([H])[H])C4([H])[H])C3([H])[H])c([H])c([H])c2C1([H])[H]

$$$$
37:0:0
     RDKit          3D

 96104  0  0  1  0  0  0  0  0999 V2000
  -28.5560  -21.9770   20.1130 C   0  0  0  0  0  3  0  0  0  0  0  0
  -29.0890  -19.8450   21.1870 C   0  0  0  0  0  3  0  0  0  0  0  0
  -28.0430  -19.8910   18.9830 C   0  0  0  0  0  3  0  0  0  0  0  0
  -29.0870  -21.2570   21.2000 C   0  0  0  0  0  0  0  0  0  0  0  0
  -28.0160  -21.3070   19.0010 C   0  0  0  0  0  0  0  0  0  0  0  0
  -28.5920  -19.1450   20.0610 C   0  0  0  0  0  0  0  0  0  0  0  0
  -28.7040  -23.2180   22.7450 C   0  0  0  0  0  1  0  0  0  0  0  0
  -29.6420  -22.0630   22.3560 C   0  0  0  0  0  2  0  0  0  0  0  0
  -28.5660  -17.7400   19.9730 N   0  0  0  0  0  0  0  0  0  0  0  0
  -28.5490  -17.4360   19.0050 H   0  0  0  0  0  0  0  0  0  0  0  0
  -29.4200  -16.8540   20.7820 C   0  0  0  0  0  2  0  0  0  0  0  0
  -31.5940  -17.3100   19.5610 C   0  0  0  0  0  1  0  0  0  0  0  0
  -30.5250  -16.2310   19.8790 C   0  0  0  0  0  3  0  0  0  0  0  0
  -31.1940  -14.8470   20.1760 C   0  0  0  0  0  0  0  0  0  0  0  0
  -30.8620  -12.6300   19.1830 C   0  0  0  0  0  2  0  0  0  0  0  0
  -29.9060  -12.7700   17.9830 C   0  0  0  0  0  2  0  0  0  0  0  0
  -28.4360  -12.6600   18.4260 C   0  0  0  0  0  2  0  0  0  0  0  0
  -28.1090  -13.5600   19.6410 C   0  0  0  0  0  3  0  0  0  0  0  0
  -29.1790  -13.4190   20.7460 C   0  0  0  0  0  2  0  0  0  0  0  0
  -30.4940  -13.6780   20.1510 N   0  0  0  0  0  0  0  0  0  0  0  0
  -32.4140  -14.8390   20.0040 O   0  0  0  0  0  0  0  0  0  0  0  0
  -25.7360  -14.2100   20.3850 C   0  0  0  0  0  0  0  0  0  0  0  0
  -24.6550  -13.4490   20.7480 C   0  0  0  0  0  0  0  0  0  0  0  0
  -25.0950  -12.0890   20.7080 C   0  0  0  0  0  0  0  0  0  0  0  0
  -26.7630  -13.3100   20.1440 N   0  0  0  0  0  0  0  0  0  0  0  0
  -26.3840  -12.0310   20.3970 N   0  0  0  0  0  0  0  0  0  0  0  0
  -24.3500  -10.8360   20.8910 C   0  0  0  0  0  0  0  0  0  0  0  0
  -24.7180   -9.9010   21.8840 C   0  0  0  0  0  3  0  0  0  0  0  0
  -23.9780   -8.7110   22.0540 C   0  0  0  0  0  3  0  0  0  0  0  0
  -22.8550   -8.4500   21.2330 C   0  0  0  0  0  0  0  0  0  0  0  0
  -22.5070   -9.3730   20.2320 C   0  0  0  0  0  3  0  0  0  0  0  0
  -23.2460  -10.5550   20.0610 C   0  0  0  0  0  3  0  0  0  0  0  0
  -22.0930   -7.3090   21.3100 O   0  0  0  0  0  0  0  0  0  0  0  0
  -21.8850   -6.6580   22.5000 C   0  0  0  0  0  0  0  0  0  0  0  0
  -21.2860   -7.3040   23.6050 C   0  0  0  0  0  3  0  0  0  0  0  0
  -21.0290   -6.5810   24.7870 C   0  0  0  0  0  3  0  0  0  0  0  0
  -21.3590   -5.2140   24.8630 C   0  0  0  0  0  0  0  0  0  0  0  0
  -21.9480   -4.5690   23.7620 C   0  0  0  0  0  3  0  0  0  0  0  0
  -22.2080   -5.2890   22.5830 C   0  0  0  0  0  0  0  0  0  0  0  0
  -22.7570   -4.6600   21.5170 F   0  0  0  0  0  0  0  0  0  0  0  0
  -21.1050   -4.5160   25.9940 F   0  0  0  0  0  0  0  0  0  0  0  0
  -23.2670  -13.9460   21.0340 C   0  0  0  0  0  0  0  0  0  0  0  0
  -22.5340  -13.2610   21.9060 N   0  0  0  0  0  0  0  0  0  0  0  0
  -22.8370  -14.9770   20.5180 O   0  0  0  0  0  0  0  0  0  0  0  0
  -22.8900  -12.4240   22.3420 H   0  0  0  0  0  0  0  0  0  0  0  0
  -21.6050  -13.5800   22.1440 H   0  0  0  0  0  0  0  0  0  0  0  0
  -25.9320  -15.5780   20.2210 N   0  0  0  0  0  0  0  0  0  0  0  0
  -25.1950  -16.2580   20.3560 H   0  0  0  0  0  0  0  0  0  0  0  0
  -26.8290  -16.0170   20.0330 H   0  0  0  0  0  0  0  0  0  0  0  0
  -27.3140  -22.1240   17.9150 C   0  0  0  0  0  2  0  0  0  0  0  0
  -28.1000  -23.2950   17.4240 N   0  0  0  0  0  4  0  0  0  0  0  0
  -28.1350  -23.1560   16.4250 H   0  0  0  0  0  0  0  0  0  0  0  0
  -29.0480  -23.2430   17.7520 H   0  0  0  0  0  0  0  0  0  0  0  0
  -27.5430  -24.6700   17.6420 C   0  0  0  0  0  2  0  0  0  0  0  0
  -27.9340  -25.3180   19.0050 C   0  0  0  0  0  2  0  0  0  0  0  0
  -28.0020  -26.7660   18.9900 O   0  0  0  0  0  0  0  0  0  0  0  0
  -24.5270  -31.5590   23.0200 C   0  0  0  0  0  0  0  0  0  0  0  0
  -26.8450  -27.4930   19.2090 C   0  0  0  0  0  0  0  0  0  0  0  0
  -23.1780  -30.3600   21.3370 C   0  0  0  0  0  3  0  0  0  0  0  0
  -24.4860  -28.9940   19.6320 C   0  0  0  0  0  0  0  0  0  0  0  0
  -25.6830  -30.7270   20.9740 C   0  0  0  0  0  2  0  0  0  0  0  0
  -25.7030  -29.4400   20.1710 C   0  0  0  0  0  0  0  0  0  0  0  0
  -26.8850  -28.6960   19.9570 C   0  0  0  0  0  3  0  0  0  0  0  0
  -25.6030  -27.0730   18.6760 C   0  0  0  0  0  3  0  0  0  0  0  0
  -24.4280  -27.8150   18.8810 C   0  0  0  0  0  3  0  0  0  0  0  0
  -23.2730  -29.8530   19.8780 C   0  0  0  0  0  2  0  0  0  0  0  0
  -24.4880  -30.8860   21.8400 N   0  0  0  0  0  0  0  0  0  0  0  0
  -23.4930  -31.7720   23.6760 O   0  0  0  0  0  0  0  0  0  0  0  0
  -22.6040  -29.2310   22.2300 C   0  0  0  0  0  0  0  0  0  0  0  0
  -21.2820  -28.9960   22.1310 N   0  0  0  0  0  0  0  0  0  0  0  0
  -23.3420  -28.5720   22.9640 O   0  0  0  0  0  0  0  0  0  0  0  0
  -20.7420  -29.5860   21.5120 H   0  0  0  0  0  0  0  0  0  0  0  0
  -18.0120  -27.5240   22.5430 C   0  0  0  0  0  0  0  0  0  0  0  0
  -20.5400  -27.9660   22.8600 C   0  0  0  0  0  3  0  0  0  0  0  0
  -20.7570  -26.5730   22.2320 C   0  0  0  0  0  2  0  0  0  0  0  0
  -19.7060  -26.2210   21.1780 C   0  0  0  0  0  2  0  0  0  0  0  0
  -18.3020  -26.2330   21.7940 C   0  0  0  0  0  2  0  0  0  0  0  0
  -19.0650  -28.3440   23.0280 C   0  0  0  0  0  0  0  0  0  0  0  0
  -18.7470  -29.5500   23.6910 C   0  0  0  0  0  3  0  0  0  0  0  0
  -17.4050  -29.9360   23.8800 C   0  0  0  0  0  3  0  0  0  0  0  0
  -16.3670  -29.1150   23.4120 C   0  0  0  0  0  3  0  0  0  0  0  0
  -16.6700  -27.9130   22.7410 C   0  0  0  0  0  3  0  0  0  0  0  0
  -25.8630  -32.1240   23.5950 C   0  0  0  0  0  3  0  0  0  0  0  0
  -25.6040  -33.4930   24.0640 N   0  0  0  0  0  0  0  0  0  0  0  0
  -25.8940  -34.6070   23.3780 C   0  0  0  0  0  0  0  0  0  0  0  0
  -26.4950  -34.5910   22.2980 O   0  0  0  0  0  0  0  0  0  0  0  0
  -25.0850  -33.5700   24.9290 H   0  0  0  0  0  0  0  0  0  0  0  0
  -24.1830  -36.4410   23.2880 C   0  0  0  0  0  1  0  0  0  0  0  0
  -25.4650  -35.9570   23.9810 C   0  0  0  0  0  3  0  0  0  0  0  0
  -27.6600  -36.7410   24.7440 C   0  0  0  0  0  1  0  0  0  0  0  0
  -26.5080  -37.0050   23.8860 N   0  0  0  0  0  0  0  0  0  0  0  0
  -26.1380  -37.9220   24.1290 H   0  0  0  0  0  0  0  0  0  0  0  0
  -26.4740  -31.2420   24.7560 C   0  0  1  0  0  0  0  0  0  0  0  0
  -25.4620  -30.8940   25.8770 C   0  0  0  0  0  1  0  0  0  0  0  0
  -27.0170  -29.9150   24.1820 C   0  0  0  0  0  1  0  0  0  0  0  0
  -27.6790  -31.9690   25.4050 C   0  0  0  0  0  1  0  0  0  0  0  0
  1  4  1  0
  2  4  2  0
  3  5  1  0
  3  6  2  0
  4  8  1  0
  5  1  2  0
  6  2  1  0
  8  7  1  0
  9  6  1  0
  9 11  1  0
 10  9  1  0
 13 12  1  0
 13 14  1  0
 13 11  1  0
 15 20  1  0
 16 17  1  0
 16 15  1  0
 18 17  1  0
 18 25  1  0
 18 19  1  0
 20 14  1  0
 20 19  1  0
 21 14  2  0
 22 23  2  0
 23 42  1  0
 24 23  1  0
 24 27  1  0
 25 22  1  0
 25 26  1  0
 26 24  2  0
 27 28  1  0
 28 29  2  0
 30 33  1  0
 30 29  1  0
 31 30  2  0
 32 31  1  0
 32 27  2  0
 33 34  1  0
 34 39  2  0
 34 35  1  0
 35 36  2  0
 36 37  1  0
 37 41  1  0
 38 37  2  0
 39 38  1  0
 40 39  1  0
 42 43  1  0
 43 46  1  0
 43 45  1  0
 44 42  2  0
 47 48  1  0
 47 22  1  0
 49 47  1  0
 50  5  1  0
 51 54  1  0
 51 53  1  0
 51 50  1  0
 52 51  1  0
 54 55  1  0
 56 55  1  0
 56 58  1  0
 57 68  2  0
 58 63  1  0
 59 67  1  0
 59 69  1  0
 60 66  1  0
 60 62  1  0
 61 67  1  0
 62 61  1  0
 63 62  2  0
 64 65  1  0
 64 58  2  0
 65 60  2  0
 66 59  1  0
 67 57  1  0
 69 71  2  0
 70 69  1  0
 72 70  1  0
 73 82  2  0
 73 78  1  0
 74 70  1  0
 74 78  1  0
 75 74  1  0
 76 77  1  0
 76 75  1  0
 77 73  1  0
 78 79  2  0
 79 80  1  0
 81 80  2  0
 82 81  1  0
 83 57  1  0
 83 84  1  0
 83 93  1  0
 84 87  1  0
 85 89  1  0
 85 84  1  0
 86 85  2  0
 89 88  1  0
 91 89  1  0
 91 92  1  0
 91 90  1  0
 93 96  1  1
 93 94  1  0
 95 93  1  0
M  ISO  4  13 100  14 100  55 101  56 101
M  END
>  <TORSDO>  (38) 
F 24

>  <SCORE>  (38) 
-11.196

>  <name>  (38) 
37

>  <ligand_id>  (38) 
37

>  <original_smiles>  (38) 
[H]c1c([H])c([H])c2c(c1[H])C([H])([H])C([H])([H])C([H])([H])C2([H])N([H])C(=O)C1([H])N(C(=O)C([H])(N([H])C(=O)C([H])(N([H])C([H])([H])[H])C([H])([H])[H])C(C([H])([H])[H])(C([H])([H])[H])C([H])([H])[H])C([H])([H])c2c([H])c(OC([H])([H])C([H])([H])[N+]([H])([H])C([H])([H])c3c([H])c(N([H])C([H])([H])C([H])(C(=O)N4C([H])([H])C([H])([H])C([H])([H])C([H])(n5nc(-c6c([H])c([H])c(Oc7c([H])c([H])c(F)c([H])c7F)c([H])c6[H])c(C(=O)N([H])[H])c5N([H])[H])C4([H])[H])C([H])([H])[H])c([H])c(C([H])([H])C([H])([H])[H])c3[H])c([H])c([H])c2C1([H])[H]

>  <smiles>  (38) 
[H]c1c([H])c([H])c2c(c1[H])C([H])([H])C([H])([H])C([H])([H])C2([H])N([H])C(=O)C1([H])N(C(=O)C([H])(N([H])C(=O)C([H])(N([H])C([H])([H])[H])C([H])([H])[H])C(C([H])([H])[H])(C([H])([H])[H])C([H])([H])[H])C([H])([H])c2c([H])c(OC([H])([H])C([H])([H])[N+]([H])([H])C([H])([H])c3c([H])c(N([H])C([H])([H])C([H])(C(=O)N4C([H])([H])C([H])([H])C([H])([H])C([H])(n5nc(-c6c([H])c([H])c(Oc7c([H])c([H])c(F)c([H])c7F)c([H])c6[H])c(C(=O)N([H])[H])c5N([H])[H])C4([H])[H])C([H])([H])[H])c([H])c(C([H])([H])C([H])([H])[H])c3[H])c([H])c([H])c2C1([H])[H]

$$$$
38:0:0
     RDKit          3D

 86 93  0  0  1  0  0  0  0  0999 V2000
  -28.8720  -22.7540   20.5600 C   0  0  0  0  0  3  0  0  0  0  0  0
  -28.6280  -21.0310   20.1300 C   0  0  0  0  0  2  0  0  0  0  0  0
  -29.5720  -18.2540   20.0740 C   0  0  0  0  0  0  0  0  0  0  0  0
  -29.3150  -19.6000   20.6340 N   0  0  0  0  0  0  0  0  0  0  0  0
  -29.5290  -18.1760   18.8460 O   0  0  0  0  0  0  0  0  0  0  0  0
  -29.4480  -19.5980   21.6370 H   0  0  0  0  0  0  0  0  0  0  0  0
  -30.4890  -17.0150   22.2510 C   0  0  0  0  0  1  0  0  0  0  0  0
  -29.8090  -16.7300   20.8920 C   0  0  0  0  0  3  0  0  0  0  0  0
  -30.4900  -15.2270   20.3020 C   0  0  0  0  0  0  0  0  0  0  0  0
  -30.4270  -12.8000   19.3700 C   0  0  0  0  0  2  0  0  0  0  0  0
  -29.4940  -12.6510   18.1400 C   0  0  0  0  0  2  0  0  0  0  0  0
  -28.0390  -12.4170   18.5810 C   0  0  0  0  0  2  0  0  0  0  0  0
  -27.6220  -13.3620   19.7370 C   0  0  0  0  0  3  0  0  0  0  0  0
  -28.6810  -13.4390   20.8590 C   0  0  0  0  0  2  0  0  0  0  0  0
  -29.9230  -13.9230   20.2450 N   0  0  0  0  0  0  0  0  0  0  0  0
  -31.6710  -15.2260   19.9150 O   0  0  0  0  0  0  0  0  0  0  0  0
  -25.2540  -13.9420   20.4910 C   0  0  0  0  0  0  0  0  0  0  0  0
  -24.1870  -13.1710   20.8640 C   0  0  0  0  0  0  0  0  0  0  0  0
  -24.6400  -11.8170   20.8290 C   0  0  0  0  0  0  0  0  0  0  0  0
  -26.2890  -13.0560   20.2450 N   0  0  0  0  0  0  0  0  0  0  0  0
  -25.9310  -11.7720   20.5130 N   0  0  0  0  0  0  0  0  0  0  0  0
  -23.9010  -10.5600   21.0200 C   0  0  0  0  0  0  0  0  0  0  0  0
  -24.3290   -9.5820   21.9460 C   0  0  0  0  0  3  0  0  0  0  0  0
  -23.5880   -8.3930   22.1250 C   0  0  0  0  0  3  0  0  0  0  0  0
  -22.4030   -8.1750   21.3810 C   0  0  0  0  0  0  0  0  0  0  0  0
  -21.9920   -9.1430   20.4500 C   0  0  0  0  0  3  0  0  0  0  0  0
  -22.7330  -10.3230   20.2680 C   0  0  0  0  0  3  0  0  0  0  0  0
  -21.6320   -7.0400   21.4730 O   0  0  0  0  0  0  0  0  0  0  0  0
  -21.5910   -6.2910   22.6220 C   0  0  0  0  0  0  0  0  0  0  0  0
  -21.2110   -6.8460   23.8630 C   0  0  0  0  0  3  0  0  0  0  0  0
  -21.1210   -6.0250   25.0040 C   0  0  0  0  0  3  0  0  0  0  0  0
  -21.3980   -4.6480   24.9040 C   0  0  0  0  0  0  0  0  0  0  0  0
  -21.7730   -4.0920   23.6680 C   0  0  0  0  0  3  0  0  0  0  0  0
  -21.8680   -4.9110   22.5300 C   0  0  0  0  0  0  0  0  0  0  0  0
  -22.2100   -4.3680   21.3370 F   0  0  0  0  0  0  0  0  0  0  0  0
  -21.3000   -3.8560   25.9980 F   0  0  0  0  0  0  0  0  0  0  0  0
  -22.7950  -13.6620   21.1410 C   0  0  0  0  0  0  0  0  0  0  0  0
  -22.0640  -12.9750   22.0150 N   0  0  0  0  0  0  0  0  0  0  0  0
  -22.3640  -14.6840   20.6140 O   0  0  0  0  0  0  0  0  0  0  0  0
  -22.4180  -12.1430   22.4620 H   0  0  0  0  0  0  0  0  0  0  0  0
  -21.1340  -13.2950   22.2450 H   0  0  0  0  0  0  0  0  0  0  0  0
  -25.4390  -15.3090   20.3130 N   0  0  0  0  0  0  0  0  0  0  0  0
  -24.6900  -15.9840   20.4200 H   0  0  0  0  0  0  0  0  0  0  0  0
  -26.3000  -15.7250   19.9820 H   0  0  0  0  0  0  0  0  0  0  0  0
  -27.9670  -24.2450   20.1340 C   0  0  0  0  0  3  0  0  0  0  0  0
  -28.1940  -25.8600   20.3350 O   0  0  0  0  0  0  0  0  0  0  0  0
  -24.6200  -31.8370   23.1740 C   0  0  0  0  0  0  0  0  0  0  0  0
  -27.1810  -26.9450   20.2280 C   0  0  0  0  0  0  0  0  0  0  0  0
  -23.4270  -30.4250   21.5460 C   0  0  0  0  0  3  0  0  0  0  0  0
  -24.8760  -28.8070   20.1370 C   0  0  0  0  0  0  0  0  0  0  0  0
  -25.9870  -30.6440   21.3940 C   0  0  0  0  0  2  0  0  0  0  0  0
  -26.0590  -29.2230   20.7630 C   0  0  0  0  0  0  0  0  0  0  0  0
  -27.2050  -28.3120   20.7860 C   0  0  0  0  0  3  0  0  0  0  0  0
  -25.9760  -26.6780   19.5400 C   0  0  0  0  0  3  0  0  0  0  0  0
  -24.8600  -27.5550   19.4970 C   0  0  0  0  0  3  0  0  0  0  0  0
  -23.6550  -29.7250   20.1750 C   0  0  0  0  0  2  0  0  0  0  0  0
  -24.7000  -30.9960   22.0930 N   0  0  0  0  0  0  0  0  0  0  0  0
  -23.5330  -32.1290   23.6960 O   0  0  0  0  0  0  0  0  0  0  0  0
  -22.7350  -29.4360   22.5230 C   0  0  0  0  0  0  0  0  0  0  0  0
  -21.4040  -29.2730   22.4070 N   0  0  0  0  0  0  0  0  0  0  0  0
  -23.4010  -28.8130   23.3550 O   0  0  0  0  0  0  0  0  0  0  0  0
  -20.9160  -29.8340   21.7220 H   0  0  0  0  0  0  0  0  0  0  0  0
  -18.0220  -28.0730   22.9410 C   0  0  0  0  0  0  0  0  0  0  0  0
  -20.5840  -28.3420   23.1900 C   0  0  0  0  0  3  0  0  0  0  0  0
  -20.6800  -26.9060   22.6260 C   0  0  0  0  0  2  0  0  0  0  0  0
  -19.5720  -26.5750   21.6190 C   0  0  0  0  0  2  0  0  0  0  0  0
  -18.1940  -26.7210   22.2710 C   0  0  0  0  0  2  0  0  0  0  0  0
  -19.1440  -28.8420   23.3580 C   0  0  0  0  0  0  0  0  0  0  0  0
  -18.9220  -30.1050   23.9490 C   0  0  0  0  0  3  0  0  0  0  0  0
  -17.6160  -30.6000   24.1260 C   0  0  0  0  0  3  0  0  0  0  0  0
  -16.5120  -29.8310   23.7210 C   0  0  0  0  0  3  0  0  0  0  0  0
  -16.7160  -28.5700   23.1340 C   0  0  0  0  0  3  0  0  0  0  0  0
  -25.8940  -32.4850   23.8010 C   0  0  0  0  0  3  0  0  0  0  0  0
  -26.4130  -31.7170   25.0790 C   0  0  1  0  0  0  0  0  0  0  0  0
  -25.3210  -31.4770   26.1500 C   0  0  0  0  0  1  0  0  0  0  0  0
  -27.0000  -30.3400   24.6930 C   0  0  0  0  0  1  0  0  0  0  0  0
  -27.5610  -32.5150   25.7390 C   0  0  0  0  0  1  0  0  0  0  0  0
  -25.5680  -33.8790   24.1510 N   0  0  0  0  0  0  0  0  0  0  0  0
  -25.8760  -34.9490   23.4060 C   0  0  0  0  0  0  0  0  0  0  0  0
  -26.5300  -34.8650   22.3640 O   0  0  0  0  0  0  0  0  0  0  0  0
  -24.9950  -34.0150   24.9700 H   0  0  0  0  0  0  0  0  0  0  0  0
  -24.1260  -36.7330   23.1130 C   0  0  0  0  0  1  0  0  0  0  0  0
  -25.3870  -36.3290   23.8930 C   0  0  0  0  0  3  0  0  0  0  0  0
  -27.5310  -37.2260   24.6880 C   0  0  0  0  0  1  0  0  0  0  0  0
  -26.4060  -37.3950   23.7720 N   0  0  0  0  0  0  0  0  0  0  0  0
  -25.9960  -38.3110   23.9360 H   0  0  0  0  0  0  0  0  0  0  0  0
  2  1  1  0
  2  4  1  0
  3  4  1  0
  3  8  1  0
  4  6  1  0
  5  3  2  0
  8  7  1  0
  9  8  1  0
 10 15  1  0
 11 12  1  0
 11 10  1  0
 13 12  1  0
 13 20  1  0
 13 14  1  0
 15  9  1  0
 15 14  1  0
 16  9  2  0
 17 18  2  0
 18 37  1  0
 19 18  1  0
 19 22  1  0
 20 17  1  0
 20 21  1  0
 21 19  2  0
 22 23  1  0
 23 24  2  0
 25 28  1  0
 25 24  1  0
 26 25  2  0
 27 26  1  0
 27 22  2  0
 28 29  1  0
 29 30  1  0
 30 31  2  0
 32 31  1  0
 32 36  1  0
 33 32  2  0
 34 29  2  0
 34 33  1  0
 35 34  1  0
 37 38  1  0
 38 41  1  0
 38 40  1  0
 39 37  2  0
 42 43  1  0
 42 17  1  0
 44 42  1  0
 45 46  1  0
 45  1  2  0
 47 58  2  0
 48 46  1  0
 48 53  1  0
 49 57  1  0
 49 59  1  0
 50 56  1  0
 50 52  1  0
 51 57  1  0
 52 53  2  0
 52 51  1  0
 54 48  2  0
 55 54  1  0
 55 50  2  0
 56 49  1  0
 57 47  1  0
 59 61  2  0
 60 59  1  0
 62 60  1  0
 63 72  2  0
 63 68  1  0
 64 60  1  0
 64 68  1  0
 65 64  1  0
 66 67  1  0
 66 65  1  0
 67 63  1  0
 68 69  2  0
 69 70  1  0
 71 70  2  0
 72 71  1  0
 73 47  1  0
 73 78  1  0
 73 74  1  0
 74 77  1  1
 74 75  1  0
 76 74  1  0
 78 81  1  0
 79 83  1  0
 79 78  1  0
 80 79  2  0
 83 82  1  0
 85 83  1  0
 85 86  1  0
 85 84  1  0
M  ISO  4   8 100   9 100  45 101  46 101
M  END
>  <TORSDO>  (39) 
F 20

>  <SCORE>  (39) 
-15.919

>  <name>  (39) 
38

>  <ligand_id>  (39) 
38

>  <original_smiles>  (39) 
[H]c1c([H])c([H])c2c(c1[H])C([H])([H])C([H])([H])C([H])([H])C2([H])N([H])C(=O)C1([H])N(C(=O)C([H])(N([H])C(=O)C([H])(N([H])C([H])([H])[H])C([H])([H])[H])C(C([H])([H])[H])(C([H])([H])[H])C([H])([H])[H])C([H])([H])c2c([H])c(OC([H])([H])C([H])([H])C([H])([H])N([H])C(=O)C([H])(C(=O)N3C([H])([H])C([H])([H])C([H])([H])C([H])(n4nc(-c5c([H])c([H])c(Oc6c([H])c([H])c(F)c([H])c6F)c([H])c5[H])c(C(=O)N([H])[H])c4N([H])[H])C3([H])[H])C([H])([H])[H])c([H])c([H])c2C1([H])[H]

>  <smiles>  (39) 
[H]c1c([H])c([H])c2c(c1[H])C([H])([H])C([H])([H])C([H])([H])C2([H])N([H])C(=O)C1([H])N(C(=O)C([H])(N([H])C(=O)C([H])(N([H])C([H])([H])[H])C([H])([H])[H])C(C([H])([H])[H])(C([H])([H])[H])C([H])([H])[H])C([H])([H])c2c([H])c(OC([H])([H])C([H])([H])C([H])([H])N([H])C(=O)C([H])(C(=O)N3C([H])([H])C([H])([H])C([H])([H])C([H])(n4nc(-c5c([H])c([H])c(Oc6c([H])c([H])c(F)c([H])c6F)c([H])c5[H])c(C(=O)N([H])[H])c4N([H])[H])C3([H])[H])C([H])([H])[H])c([H])c([H])c2C1([H])[H]

$$$$
39:0:0
     RDKit          3D

 92 96  0  0  1  0  0  0  0  0999 V2000
  -27.0290  -27.7460   22.8310 C   0  0  0  0  0  3  0  0  0  0  0  0
  -24.6080  -29.2080   21.0500 C   0  0  0  0  0  3  0  0  0  0  0  0
  -27.8930  -28.5190   21.6740 C   0  0  0  0  0  3  0  0  0  0  0  0
  -25.8320  -29.7260   20.0880 C   0  0  0  0  0  2  0  0  0  0  0  0
  -25.3610  -27.7120   22.8240 C   0  0  0  0  0  1  0  0  0  0  0  0
  -27.3320  -29.1900   20.3110 C   0  0  0  0  0  3  0  0  0  0  0  0
  -27.5350  -28.2080   19.2270 O   0  0  0  0  0  0  0  0  0  0  0  0
  -23.9660  -31.8220   23.3540 C   0  0  0  0  0  0  0  0  0  0  0  0
  -26.4800  -27.3100   18.9380 C   0  0  0  0  0  3  0  0  0  0  0  0
  -22.6350  -30.1120   21.8190 C   0  0  0  0  0  3  0  0  0  0  0  0
  -23.8450  -27.6810   19.8820 C   0  0  0  0  0  3  0  0  0  0  0  0
  -25.7010  -30.2280   22.0970 C   0  0  0  0  0  2  0  0  0  0  0  0
  -25.3820  -27.8450   20.2960 C   0  0  0  0  0  3  0  0  0  0  0  0
  -26.2010  -26.8090   20.0840 C   0  0  0  0  0  2  0  0  0  0  0  0
  -25.3210  -27.2680   18.0260 C   0  0  0  0  0  3  0  0  0  0  0  0
  -23.9650  -27.3400   18.5550 C   0  0  0  0  0  3  0  0  0  0  0  0
  -22.4960  -28.7010   20.5710 C   0  0  0  0  0  2  0  0  0  0  0  0
  -24.0850  -30.7790   22.5050 N   0  0  0  0  0  0  0  0  0  0  0  0
  -22.8710  -32.2590   23.7310 O   0  0  0  0  0  0  0  0  0  0  0  0
  -21.7920  -29.5270   22.8900 C   0  0  0  0  0  0  0  0  0  0  0  0
  -20.5000  -29.3530   22.6230 N   0  0  0  0  0  0  0  0  0  0  0  0
  -22.3540  -29.0520   23.8700 O   0  0  0  0  0  0  0  0  0  0  0  0
  -20.0940  -29.7610   21.7920 H   0  0  0  0  0  0  0  0  0  0  0  0
  -17.2000  -27.9720   22.9800 C   0  0  0  0  0  0  0  0  0  0  0  0
  -19.6870  -28.4270   23.3920 C   0  0  0  0  0  3  0  0  0  0  0  0
  -19.9380  -26.9640   22.9540 C   0  0  0  0  0  2  0  0  0  0  0  0
  -18.9390  -26.4710   21.9070 C   0  0  0  0  0  2  0  0  0  0  0  0
  -17.5130  -26.5760   22.4590 C   0  0  0  0  0  2  0  0  0  0  0  0
  -18.2320  -28.8510   23.3900 C   0  0  0  0  0  0  0  0  0  0  0  0
  -17.9110  -30.1540   23.8260 C   0  0  0  0  0  3  0  0  0  0  0  0
  -16.5740  -30.5790   23.8780 C   0  0  0  0  0  3  0  0  0  0  0  0
  -15.5480  -29.6960   23.4970 C   0  0  0  0  0  3  0  0  0  0  0  0
  -15.8610  -28.3980   23.0490 C   0  0  0  0  0  3  0  0  0  0  0  0
  -25.2690  -32.4450   23.9240 C   0  0  0  0  0  3  0  0  0  0  0  0
  -25.0110  -33.8660   24.2090 N   0  0  0  0  0  0  0  0  0  0  0  0
  -25.3900  -34.9060   23.4510 C   0  0  0  0  0  0  0  0  0  0  0  0
  -26.0370  -34.7780   22.4070 O   0  0  0  0  0  0  0  0  0  0  0  0
  -24.4410  -34.0600   25.0190 H   0  0  0  0  0  0  0  0  0  0  0  0
  -23.7750  -36.8190   23.1570 C   0  0  0  0  0  1  0  0  0  0  0  0
  -24.9970  -36.3150   23.9400 C   0  0  0  0  0  3  0  0  0  0  0  0
  -27.1930  -37.0460   24.7670 C   0  0  0  0  0  1  0  0  0  0  0  0
  -26.0930  -37.3040   23.8410 N   0  0  0  0  0  0  0  0  0  0  0  0
  -25.7470  -38.2440   24.0120 H   0  0  0  0  0  0  0  0  0  0  0  0
  -25.7690  -31.6940   25.2280 C   0  0  1  0  0  0  0  0  0  0  0  0
  -24.6440  -31.5560   26.2700 C   0  0  0  0  0  1  0  0  0  0  0  0
  -26.3000  -30.2470   25.1080 C   0  0  0  0  0  1  0  0  0  0  0  0
  -26.9630  -32.4780   25.8090 C   0  0  0  0  0  1  0  0  0  0  0  0
  -25.7730  -25.6830   22.8090 C   0  0  0  0  0  1  0  0  0  0  0  0
  -26.6520  -24.2770   21.8520 N   0  0  0  0  0  4  0  0  0  0  0  0
  -25.9650  -24.0920   21.1380 H   0  0  0  0  0  0  0  0  0  0  0  0
  -27.3410  -24.8360   21.3780 H   0  0  0  0  0  0  0  0  0  0  0  0
  -27.5850  -22.6190   21.9250 C   0  0  0  0  0  1  0  0  0  0  0  0
  -28.0060  -20.7860   20.9210 C   0  0  0  0  0 15  0  0  0  0  0  0
  -29.1720  -19.0090   20.7840 C   0  0  0  0  0 15  0  0  0  0  0  0
  -30.1430  -15.7450   20.0230 C   0  0  0  0  0  0  0  0  0  0  0  0
  -30.4180  -13.1410   19.0490 C   0  0  0  0  0  2  0  0  0  0  0  0
  -29.5240  -12.5480   17.8970 C   0  0  0  0  0  2  0  0  0  0  0  0
  -28.1450  -12.1230   18.4160 C   0  0  0  0  0  2  0  0  0  0  0  0
  -27.6510  -13.1540   19.4470 C   0  0  0  0  0  3  0  0  0  0  0  0
  -28.6820  -13.5350   20.5340 C   0  0  0  0  0  2  0  0  0  0  0  0
  -29.7380  -14.3060   19.8530 N   0  0  0  0  0  0  0  0  0  0  0  0
  -31.3760  -15.6840   19.7560 O   0  0  0  0  0  0  0  0  0  0  0  0
  -29.2880  -17.1390   20.3250 N   0  0  0  0  0  2  0  0  0  0  0  0
  -28.3360  -16.8070   20.3640 H   0  0  0  0  0  0  0  0  0  0  0  0
  -25.4030  -13.7560   20.3960 C   0  0  0  0  0  0  0  0  0  0  0  0
  -24.3430  -13.0130   20.8190 C   0  0  0  0  0  0  0  0  0  0  0  0
  -24.7400  -11.6440   20.6930 C   0  0  0  0  0  0  0  0  0  0  0  0
  -26.3680  -12.8430   20.0270 N   0  0  0  0  0  0  0  0  0  0  0  0
  -25.9980  -11.5620   20.2720 N   0  0  0  0  0  0  0  0  0  0  0  0
  -23.9670  -10.4130   20.8860 C   0  0  0  0  0  0  0  0  0  0  0  0
  -24.3590   -9.4360   21.8270 C   0  0  0  0  0  3  0  0  0  0  0  0
  -23.5810   -8.2710   22.0120 C   0  0  0  0  0  3  0  0  0  0  0  0
  -22.3990   -8.0800   21.2570 C   0  0  0  0  0  0  0  0  0  0  0  0
  -22.0270   -9.0470   20.3070 C   0  0  0  0  0  3  0  0  0  0  0  0
  -22.8040  -10.2030   20.1210 C   0  0  0  0  0  3  0  0  0  0  0  0
  -21.5970   -6.9690   21.3510 O   0  0  0  0  0  0  0  0  0  0  0  0
  -21.4410   -6.2910   22.5320 C   0  0  0  0  0  0  0  0  0  0  0  0
  -20.9570   -6.9250   23.6980 C   0  0  0  0  0  3  0  0  0  0  0  0
  -20.7460   -6.1730   24.8710 C   0  0  0  0  0  3  0  0  0  0  0  0
  -21.0120   -4.7910   24.8800 C   0  0  0  0  0  0  0  0  0  0  0  0
  -21.4900   -4.1580   23.7190 C   0  0  0  0  0  3  0  0  0  0  0  0
  -21.7000   -4.9060   22.5480 C   0  0  0  0  0  0  0  0  0  0  0  0
  -22.1410   -4.2870   21.4260 F   0  0  0  0  0  0  0  0  0  0  0  0
  -20.8020   -4.0690   26.0050 F   0  0  0  0  0  0  0  0  0  0  0  0
  -23.0000  -13.5470   21.2140 C   0  0  0  0  0  0  0  0  0  0  0  0
  -22.3140  -12.8620   22.1200 N   0  0  0  0  0  0  0  0  0  0  0  0
  -22.5800  -14.6090   20.7560 O   0  0  0  0  0  0  0  0  0  0  0  0
  -22.6740  -12.0020   22.5040 H   0  0  0  0  0  0  0  0  0  0  0  0
  -21.4140  -13.2000   22.4310 H   0  0  0  0  0  0  0  0  0  0  0  0
  -25.6260  -15.1230   20.2610 N   0  0  0  0  0  0  0  0  0  0  0  0
  -24.8990  -15.8050   20.4500 H   0  0  0  0  0  0  0  0  0  0  0  0
  -26.4270  -15.5180   19.7880 H   0  0  0  0  0  0  0  0  0  0  0  0
  2  4  1  0
  2 12  1  0
  3  1  2  0
  4  6  1  0
  5  1  1  0
  6  3  1  0
  7  6  1  0
  8 19  2  0
  9 15  1  0
  9  7  1  0
  9 14  1  0
 10 18  1  0
 10 20  1  0
 11 16  1  0
 11 13  1  0
 11 17  1  0
 12 18  1  0
 13 14  1  0
 13  2  1  0
 15 16  2  0
 17 10  1  0
 18  8  1  0
 20 22  2  0
 21 20  1  0
 23 21  1  0
 24 33  2  0
 24 29  1  0
 25 21  1  0
 26 25  1  0
 27 28  1  0
 27 26  1  0
 28 24  1  0
 29 25  1  0
 29 30  2  0
 30 31  1  0
 32 31  2  0
 33 32  1  0
 34  8  1  0
 34 35  1  0
 34 44  1  0
 35 38  1  0
 36 40  1  0
 36 35  1  0
 37 36  2  0
 40 39  1  0
 42 40  1  0
 42 43  1  0
 42 41  1  0
 44 47  1  1
 44 45  1  0
 46 44  1  0
 49 52  1  0
 49 48  1  0
 50 49  1  0
 51 49  1  0
 55 63  1  0
 56 61  1  0
 57 58  1  0
 57 56  1  0
 59 58  1  0
 59 68  1  0
 59 60  1  0
 61 55  1  0
 61 60  1  0
 62 55  2  0
 63 64  1  0
 65 66  2  0
 66 85  1  0
 67 66  1  0
 67 70  1  0
 68 69  1  0
 68 65  1  0
 69 67  2  0
 70 71  1  0
 71 72  2  0
 73 76  1  0
 73 72  1  0
 74 73  2  0
 75 74  1  0
 75 70  2  0
 76 77  1  0
 77 82  2  0
 77 78  1  0
 78 79  2  0
 79 80  1  0
 80 84  1  0
 81 80  2  0
 82 81  1  0
 83 82  1  0
 85 86  1  0
 86 89  1  0
 86 88  1  0
 87 85  2  0
 90 65  1  0
 90 91  1  0
 92 90  1  0
M  ISO  4   6 101   7 101  55 100  63 100
M  END
>  <TORSDO>  (40) 
F 21

>  <SCORE>  (40) 
-12.859

>  <name>  (40) 
39

>  <ligand_id>  (40) 
39

>  <original_smiles>  (40) 
[H]c1c([H])c([H])c2c(c1[H])C([H])([H])C([H])([H])C([H])([H])C2([H])N([H])C(=O)C1([H])N(C(=O)C([H])(N([H])C(=O)C([H])(N([H])C([H])([H])[H])C([H])([H])[H])C(C([H])([H])[H])(C([H])([H])[H])C([H])([H])[H])C([H])([H])c2c([H])c(Oc3c([H])c([H])c(C([H])([H])[N+]([H])([H])C([H])([H])C([H])([H])C([H])([H])N([H])C(=O)N4C([H])([H])C([H])([H])C([H])([H])C([H])(n5nc(-c6c([H])c([H])c(Oc7c([H])c([H])c(F)c([H])c7F)c([H])c6[H])c(C(=O)N([H])[H])c5N([H])[H])C4([H])[H])c([H])c3[H])c([H])c([H])c2C1([H])[H]

>  <smiles>  (40) 
[H]c1c([H])c([H])c2c(c1[H])C([H])([H])C([H])([H])C([H])([H])C2([H])N([H])C(=O)C1([H])N(C(=O)C([H])(N([H])C(=O)C([H])(N([H])C([H])([H])[H])C([H])([H])[H])C(C([H])([H])[H])(C([H])([H])[H])C([H])([H])[H])C([H])([H])c2c([H])c(Oc3c([H])c([H])c(C([H])([H])[N+]([H])([H])C([H])([H])C([H])([H])C([H])([H])N([H])C(=O)N4C([H])([H])C([H])([H])C([H])([H])C([H])(n5nc(-c6c([H])c([H])c(Oc7c([H])c([H])c(F)c([H])c7F)c([H])c6[H])c(C(=O)N([H])[H])c5N([H])[H])C4([H])[H])c([H])c3[H])c([H])c([H])c2C1([H])[H]

$$$$
40:0:0
     RDKit          3D

 92100  0  0  1  0  0  0  0  0999 V2000
  -29.9150  -20.3880   19.8160 N   0  0  0  0  0  4  0  0  0  0  0  0
  -30.9030  -20.5870   19.7460 H   0  0  0  0  0  0  0  0  0  0  0  0
  -29.7200  -20.3500   20.8010 H   0  0  0  0  0  0  0  0  0  0  0  0
  -27.3630  -18.6150   20.7170 C   0  0  0  0  0  2  0  0  0  0  0  0
  -28.6280  -17.9710   21.3670 C   0  0  0  0  0  2  0  0  0  0  0  0
  -28.5010  -18.7670   18.3830 C   0  0  0  0  0  2  0  0  0  0  0  0
  -27.2400  -18.3840   19.1870 C   0  0  0  0  0  3  0  0  0  0  0  0
  -29.7550  -17.5980   20.3600 C   0  0  0  0  0  3  0  0  0  0  0  0
  -29.7520  -18.8980   19.2800 C   0  0  0  0  0  3  0  0  0  0  0  0
  -25.9850  -19.0350   18.5840 C   0  0  0  0  0  1  0  0  0  0  0  0
  -30.3150  -14.9070   19.7760 C   0  0  0  0  0  0  0  0  0  0  0  0
  -30.1300  -12.5830   18.7640 C   0  0  0  0  0  2  0  0  0  0  0  0
  -29.0750  -12.5640   17.6330 C   0  0  0  0  0  2  0  0  0  0  0  0
  -27.6580  -12.3380   18.2030 C   0  0  0  0  0  2  0  0  0  0  0  0
  -27.3690  -13.2190   19.4460 C   0  0  0  0  0  3  0  0  0  0  0  0
  -28.5320  -13.1880   20.4540 C   0  0  0  0  0  2  0  0  0  0  0  0
  -29.7310  -13.6410   19.7340 N   0  0  0  0  0  0  0  0  0  0  0  0
  -31.5000  -14.9970   19.4390 O   0  0  0  0  0  0  0  0  0  0  0  0
  -29.5120  -16.0640   20.0010 N   0  0  0  0  0  0  0  0  0  0  0  0
  -28.5480  -15.8070   20.1450 H   0  0  0  0  0  0  0  0  0  0  0  0
  -25.0520  -13.7380   20.4080 C   0  0  0  0  0  0  0  0  0  0  0  0
  -24.0450  -12.9360   20.8640 C   0  0  0  0  0  0  0  0  0  0  0  0
  -24.5350  -11.5980   20.7740 C   0  0  0  0  0  0  0  0  0  0  0  0
  -26.0900  -12.8880   20.0640 N   0  0  0  0  0  0  0  0  0  0  0  0
  -25.7930  -11.5940   20.3490 N   0  0  0  0  0  0  0  0  0  0  0  0
  -23.8520  -10.3190   21.0070 C   0  0  0  0  0  0  0  0  0  0  0  0
  -24.3590   -9.3740   21.9250 C   0  0  0  0  0  3  0  0  0  0  0  0
  -23.6780   -8.1590   22.1510 C   0  0  0  0  0  3  0  0  0  0  0  0
  -22.4710   -7.8850   21.4620 C   0  0  0  0  0  0  0  0  0  0  0  0
  -21.9830   -8.8200   20.5320 C   0  0  0  0  0  3  0  0  0  0  0  0
  -22.6680  -10.0240   20.3020 C   0  0  0  0  0  3  0  0  0  0  0  0
  -21.7480   -6.7250   21.6010 O   0  0  0  0  0  0  0  0  0  0  0  0
  -21.7180   -6.0350   22.7870 C   0  0  0  0  0  0  0  0  0  0  0  0
  -21.2760   -6.6320   23.9890 C   0  0  0  0  0  3  0  0  0  0  0  0
  -21.1970   -5.8680   25.1690 C   0  0  0  0  0  3  0  0  0  0  0  0
  -21.5480   -4.5050   25.1490 C   0  0  0  0  0  0  0  0  0  0  0  0
  -21.9870   -3.9060   23.9540 C   0  0  0  0  0  3  0  0  0  0  0  0
  -22.0670   -4.6710   22.7760 C   0  0  0  0  0  0  0  0  0  0  0  0
  -22.4670   -4.0840   21.6230 F   0  0  0  0  0  0  0  0  0  0  0  0
  -21.4640   -3.7670   26.2800 F   0  0  0  0  0  0  0  0  0  0  0  0
  -22.6680  -13.3800   21.2580 C   0  0  0  0  0  0  0  0  0  0  0  0
  -22.0440  -12.6680   22.1910 N   0  0  0  0  0  0  0  0  0  0  0  0
  -22.1550  -14.3880   20.7700 O   0  0  0  0  0  0  0  0  0  0  0  0
  -22.4770  -11.8490   22.5930 H   0  0  0  0  0  0  0  0  0  0  0  0
  -21.1200  -12.9300   22.5020 H   0  0  0  0  0  0  0  0  0  0  0  0
  -25.1470  -15.1120   20.2390 N   0  0  0  0  0  0  0  0  0  0  0  0
  -24.3760  -15.7220   20.4900 H   0  0  0  0  0  0  0  0  0  0  0  0
  -25.9380  -15.6180   19.8730 H   0  0  0  0  0  0  0  0  0  0  0  0
  -29.1340  -21.6560   19.2640 C   0  0  0  0  0  2  0  0  0  0  0  0
  -29.4070  -23.2580   19.7400 C   0  0  0  0  0  3  0  0  0  0  0  0
  -28.3740  -24.5560   19.4060 C   0  0  0  0  0  3  0  0  0  0  0  0
  -28.5420  -26.0740   19.7320 O   0  0  0  0  0  0  0  0  0  0  0  0
  -24.6400  -31.4060   22.9990 C   0  0  0  0  0  0  0  0  0  0  0  0
  -27.4320  -26.9980   19.7110 C   0  0  0  0  0  0  0  0  0  0  0  0
  -23.5020  -30.0540   21.2780 C   0  0  0  0  0  3  0  0  0  0  0  0
  -25.0190  -28.6230   19.7740 C   0  0  0  0  0  0  0  0  0  0  0  0
  -26.0450  -30.4430   21.1370 C   0  0  0  0  0  2  0  0  0  0  0  0
  -26.1770  -29.0970   20.4040 C   0  0  0  0  0  0  0  0  0  0  0  0
  -27.3830  -28.3000   20.3530 C   0  0  0  0  0  3  0  0  0  0  0  0
  -26.2380  -26.6220   19.0570 C   0  0  0  0  0  3  0  0  0  0  0  0
  -25.0610  -27.4020   19.0860 C   0  0  0  0  0  3  0  0  0  0  0  0
  -23.7510  -29.4590   19.8670 C   0  0  0  0  0  2  0  0  0  0  0  0
  -24.7480  -30.6540   21.8610 N   0  0  0  0  0  0  0  0  0  0  0  0
  -23.5410  -31.6090   23.5400 O   0  0  0  0  0  0  0  0  0  0  0  0
  -22.8660  -28.9700   22.1840 C   0  0  0  0  0  0  0  0  0  0  0  0
  -21.5420  -28.7640   22.0600 N   0  0  0  0  0  0  0  0  0  0  0  0
  -23.5640  -28.3190   22.9650 O   0  0  0  0  0  0  0  0  0  0  0  0
  -21.0310  -29.3390   21.4050 H   0  0  0  0  0  0  0  0  0  0  0  0
  -18.2040  -27.4420   22.5470 C   0  0  0  0  0  0  0  0  0  0  0  0
  -20.7610  -27.7530   22.7800 C   0  0  0  0  0  3  0  0  0  0  0  0
  -20.8850  -26.3670   22.1050 C   0  0  0  0  0  2  0  0  0  0  0  0
  -19.7690  -26.0840   21.0940 C   0  0  0  0  0  2  0  0  0  0  0  0
  -18.3980  -26.1490   21.7730 C   0  0  0  0  0  2  0  0  0  0  0  0
  -19.3120  -28.2030   23.0070 C   0  0  0  0  0  0  0  0  0  0  0  0
  -19.0710  -29.4150   23.6910 C   0  0  0  0  0  3  0  0  0  0  0  0
  -17.7570  -29.8640   23.9220 C   0  0  0  0  0  3  0  0  0  0  0  0
  -16.6650  -29.0990   23.4760 C   0  0  0  0  0  3  0  0  0  0  0  0
  -16.8890  -27.8900   22.7940 C   0  0  0  0  0  3  0  0  0  0  0  0
  -25.8870  -32.0660   23.6650 C   0  0  0  0  0  3  0  0  0  0  0  0
  -26.4030  -31.2730   24.9280 C   0  0  1  0  0  0  0  0  0  0  0  0
  -25.3020  -30.9730   25.9710 C   0  0  0  0  0  1  0  0  0  0  0  0
  -27.0340  -29.9270   24.5120 C   0  0  0  0  0  1  0  0  0  0  0  0
  -27.5200  -32.0850   25.6260 C   0  0  0  0  0  1  0  0  0  0  0  0
  -25.5210  -33.4400   24.0390 N   0  0  0  0  0  0  0  0  0  0  0  0
  -25.8260  -34.5350   23.3300 C   0  0  0  0  0  0  0  0  0  0  0  0
  -26.5120  -34.4930   22.3040 O   0  0  0  0  0  0  0  0  0  0  0  0
  -24.9120  -33.5420   24.8370 H   0  0  0  0  0  0  0  0  0  0  0  0
  -24.0480  -36.2910   23.0330 C   0  0  0  0  0  1  0  0  0  0  0  0
  -25.2930  -35.8900   23.8390 C   0  0  0  0  0  3  0  0  0  0  0  0
  -27.3890  -36.8100   24.7280 C   0  0  0  0  0  1  0  0  0  0  0  0
  -26.2930  -36.9800   23.7780 N   0  0  0  0  0  0  0  0  0  0  0  0
  -25.8560  -37.8800   23.9530 H   0  0  0  0  0  0  0  0  0  0  0  0
  1  3  1  0
  2  1  1  0
  4  5  1  0
  6  7  1  0
  6  9  1  0
  7 10  1  0
  7  4  1  0
  8 19  1  0
  8  5  1  0
  9  1  1  0
  9  8  1  0
 11 19  1  0
 12 17  1  0
 13 14  1  0
 13 12  1  0
 15 14  1  0
 15 24  1  0
 15 16  1  0
 17 11  1  0
 17 16  1  0
 18 11  2  0
 19 20  1  0
 21 22  2  0
 22 41  1  0
 23 22  1  0
 23 26  1  0
 24 25  1  0
 24 21  1  0
 25 23  2  0
 26 27  1  0
 27 28  2  0
 29 32  1  0
 29 28  1  0
 30 29  2  0
 31 30  1  0
 31 26  2  0
 32 33  1  0
 33 34  1  0
 34 35  2  0
 36 35  1  0
 36 40  1  0
 37 36  2  0
 38 33  2  0
 38 37  1  0
 39 38  1  0
 41 42  1  0
 42 45  1  0
 42 44  1  0
 43 41  2  0
 46 21  1  0
 46 47  1  0
 48 46  1  0
 49 50  1  0
 49  1  1  0
 51 52  1  0
 51 50  2  0
 53 64  2  0
 54 52  1  0
 54 59  1  0
 55 63  1  0
 55 65  1  0
 56 62  1  0
 56 58  1  0
 57 63  1  0
 58 57  1  0
 59 58  2  0
 60 61  1  0
 60 54  2  0
 61 56  2  0
 62 55  1  0
 63 53  1  0
 65 67  2  0
 66 65  1  0
 68 66  1  0
 69 78  2  0
 69 74  1  0
 70 66  1  0
 70 74  1  0
 71 70  1  0
 72 73  1  0
 72 71  1  0
 73 69  1  0
 74 75  2  0
 75 76  1  0
 77 76  2  0
 78 77  1  0
 79 53  1  0
 79 84  1  0
 79 80  1  0
 80 83  1  1
 80 81  1  0
 82 80  1  0
 84 87  1  0
 85 89  1  0
 85 84  1  0
 86 85  2  0
 89 88  1  0
 91 89  1  0
 91 92  1  0
 91 90  1  0
M  ISO  4  11 100  19 100  51 101  52 101
M  END
>  <TORSDO>  (41) 
F 20

>  <SCORE>  (41) 
-10.667

>  <name>  (41) 
40

>  <ligand_id>  (41) 
40

>  <original_smiles>  (41) 
[H]c1c([H])c([H])c2c(c1[H])C([H])([H])C([H])([H])C([H])([H])C2([H])N([H])C(=O)C1([H])N(C(=O)C([H])(N([H])C(=O)C([H])(N([H])C([H])([H])[H])C([H])([H])[H])C(C([H])([H])[H])(C([H])([H])[H])C([H])([H])[H])C([H])([H])c2c([H])c(OC([H])([H])C([H])([H])C([H])([H])[N+]([H])([H])C3([H])C([H])([H])C([H])(C([H])([H])[H])C([H])([H])C([H])([H])C3([H])N([H])C(=O)N3C([H])([H])C([H])([H])C([H])([H])C([H])(n4nc(-c5c([H])c([H])c(Oc6c([H])c([H])c(F)c([H])c6F)c([H])c5[H])c(C(=O)N([H])[H])c4N([H])[H])C3([H])[H])c([H])c([H])c2C1([H])[H]

>  <smiles>  (41) 
[H]c1c([H])c([H])c2c(c1[H])C([H])([H])C([H])([H])C([H])([H])C2([H])N([H])C(=O)C1([H])N(C(=O)C([H])(N([H])C(=O)C([H])(N([H])C([H])([H])[H])C([H])([H])[H])C(C([H])([H])[H])(C([H])([H])[H])C([H])([H])[H])C([H])([H])c2c([H])c(OC([H])([H])C([H])([H])C([H])([H])[N+]([H])([H])C3([H])C([H])([H])C([H])(C([H])([H])[H])C([H])([H])C([H])([H])C3([H])N([H])C(=O)N3C([H])([H])C([H])([H])C([H])([H])C([H])(n4nc(-c5c([H])c([H])c(Oc6c([H])c([H])c(F)c([H])c6F)c([H])c5[H])c(C(=O)N([H])[H])c4N([H])[H])C3([H])[H])c([H])c([H])c2C1([H])[H]

$$$$
41:0:0
     RDKit          3D

 91 99  0  0  1  0  0  0  0  0999 V2000
  -29.9970  -21.7220   20.7520 C   0  0  0  0  0  0  0  0  0  0  0  0
  -29.1340  -22.7250   20.4300 N   0  0  0  0  0  0  0  0  0  0  0  0
  -31.1060  -21.9880   21.2210 O   0  0  0  0  0  0  0  0  0  0  0  0
  -28.2310  -22.4550   20.0630 H   0  0  0  0  0  0  0  0  0  0  0  0
  -30.5520  -19.5150   19.4740 C   0  0  0  0  0  2  0  0  0  0  0  0
  -29.7340  -19.3500   21.8270 C   0  0  0  0  0  2  0  0  0  0  0  0
  -30.3280  -17.9800   19.2780 C   0  0  0  0  0  2  0  0  0  0  0  0
  -29.4900  -17.8190   21.6280 C   0  0  0  0  0  2  0  0  0  0  0  0
  -29.6240  -20.2040   20.5260 C   0  0  0  0  0  3  0  0  0  0  0  0
  -30.4460  -17.1570   20.5910 C   0  0  0  0  0  3  0  0  0  0  0  0
  -30.9270  -14.6690   19.9830 C   0  0  0  0  0  0  0  0  0  0  0  0
  -30.6460  -12.4640   18.8690 C   0  0  0  0  0  2  0  0  0  0  0  0
  -29.6110  -12.6070   17.7270 C   0  0  0  0  0  2  0  0  0  0  0  0
  -28.1670  -12.4650   18.2470 C   0  0  0  0  0  2  0  0  0  0  0  0
  -27.9060  -13.3020   19.5230 C   0  0  0  0  0  3  0  0  0  0  0  0
  -29.0340  -13.1060   20.5590 C   0  0  0  0  0  2  0  0  0  0  0  0
  -30.3030  -13.4560   19.9030 N   0  0  0  0  0  0  0  0  0  0  0  0
  -32.0600  -14.8550   19.5310 O   0  0  0  0  0  0  0  0  0  0  0  0
  -30.1520  -15.6980   20.4300 N   0  0  0  0  0  0  0  0  0  0  0  0
  -29.2160  -15.4190   20.6850 H   0  0  0  0  0  0  0  0  0  0  0  0
  -25.5810  -13.8920   20.4390 C   0  0  0  0  0  0  0  0  0  0  0  0
  -24.5320  -13.1160   20.8460 C   0  0  0  0  0  0  0  0  0  0  0  0
  -24.9680  -11.7620   20.7160 C   0  0  0  0  0  0  0  0  0  0  0  0
  -26.5920  -13.0130   20.0880 N   0  0  0  0  0  0  0  0  0  0  0  0
  -26.2320  -11.7230   20.3100 N   0  0  0  0  0  0  0  0  0  0  0  0
  -24.2390  -10.5010   20.9040 C   0  0  0  0  0  0  0  0  0  0  0  0
  -24.6400   -9.5490   21.8670 C   0  0  0  0  0  3  0  0  0  0  0  0
  -23.9140   -8.3490   22.0310 C   0  0  0  0  0  3  0  0  0  0  0  0
  -22.7720   -8.0960   21.2350 C   0  0  0  0  0  0  0  0  0  0  0  0
  -22.3930   -9.0350   20.2610 C   0  0  0  0  0  3  0  0  0  0  0  0
  -23.1190  -10.2260   20.0960 C   0  0  0  0  0  3  0  0  0  0  0  0
  -22.0170   -6.9510   21.3130 O   0  0  0  0  0  0  0  0  0  0  0  0
  -21.7910   -6.3190   22.5100 C   0  0  0  0  0  0  0  0  0  0  0  0
  -21.1390   -6.9650   23.5830 C   0  0  0  0  0  3  0  0  0  0  0  0
  -20.8620   -6.2530   24.7680 C   0  0  0  0  0  3  0  0  0  0  0  0
  -21.2310   -4.9000   24.8810 C   0  0  0  0  0  0  0  0  0  0  0  0
  -21.8760   -4.2560   23.8110 C   0  0  0  0  0  3  0  0  0  0  0  0
  -22.1550   -4.9640   22.6300 C   0  0  0  0  0  0  0  0  0  0  0  0
  -22.7570   -4.3320   21.5940 F   0  0  0  0  0  0  0  0  0  0  0  0
  -20.9620   -4.2150   26.0180 F   0  0  0  0  0  0  0  0  0  0  0  0
  -23.1660  -13.5930   21.2480 C   0  0  0  0  0  0  0  0  0  0  0  0
  -22.5020  -12.8610   22.1340 N   0  0  0  0  0  0  0  0  0  0  0  0
  -22.7020  -14.6450   20.8110 O   0  0  0  0  0  0  0  0  0  0  0  0
  -22.8990  -12.0090   22.5020 H   0  0  0  0  0  0  0  0  0  0  0  0
  -21.5860  -13.1520   22.4480 H   0  0  0  0  0  0  0  0  0  0  0  0
  -25.7640  -15.2670   20.3150 N   0  0  0  0  0  0  0  0  0  0  0  0
  -25.0420  -15.9410   20.5370 H   0  0  0  0  0  0  0  0  0  0  0  0
  -26.5920  -15.6880   19.9110 H   0  0  0  0  0  0  0  0  0  0  0  0
  -29.4060  -24.1980   20.5440 C   0  0  0  0  0  3  0  0  0  0  0  0
  -28.2500  -25.1550   20.0600 C   0  0  0  0  0  3  0  0  0  0  0  0
  -28.4430  -26.6050   20.2150 O   0  0  0  0  0  0  0  0  0  0  0  0
  -24.6050  -31.8280   23.2710 C   0  0  0  0  0  0  0  0  0  0  0  0
  -27.3020  -27.4090   20.1450 C   0  0  0  0  0  0  0  0  0  0  0  0
  -23.4220  -30.4340   21.6100 C   0  0  0  0  0  3  0  0  0  0  0  0
  -24.9020  -28.9480   20.1520 C   0  0  0  0  0  0  0  0  0  0  0  0
  -25.9490  -30.8200   21.4260 C   0  0  0  0  0  2  0  0  0  0  0  0
  -26.0570  -29.4560   20.7600 C   0  0  0  0  0  0  0  0  0  0  0  0
  -27.2590  -28.6990   20.7500 C   0  0  0  0  0  3  0  0  0  0  0  0
  -26.1320  -26.9540   19.4940 C   0  0  0  0  0  3  0  0  0  0  0  0
  -24.9400  -27.7010   19.5060 C   0  0  0  0  0  3  0  0  0  0  0  0
  -23.6480  -29.7920   20.2140 C   0  0  0  0  0  2  0  0  0  0  0  0
  -24.6770  -31.0420   22.1600 N   0  0  0  0  0  0  0  0  0  0  0  0
  -23.5180  -32.0730   23.8170 O   0  0  0  0  0  0  0  0  0  0  0  0
  -22.7880  -29.3860   22.5530 C   0  0  0  0  0  0  0  0  0  0  0  0
  -21.4740  -29.1550   22.3980 N   0  0  0  0  0  0  0  0  0  0  0  0
  -23.4750  -28.7850   23.3830 O   0  0  0  0  0  0  0  0  0  0  0  0
  -20.9770  -29.6900   21.7000 H   0  0  0  0  0  0  0  0  0  0  0  0
  -18.1370  -27.8280   22.8320 C   0  0  0  0  0  0  0  0  0  0  0  0
  -20.6780  -28.1880   23.1540 C   0  0  0  0  0  3  0  0  0  0  0  0
  -20.8500  -26.7620   22.5840 C   0  0  0  0  0  2  0  0  0  0  0  0
  -19.7810  -26.3950   21.5480 C   0  0  0  0  0  2  0  0  0  0  0  0
  -18.3820  -26.4860   22.1620 C   0  0  0  0  0  2  0  0  0  0  0  0
  -19.2170  -28.6320   23.2850 C   0  0  0  0  0  0  0  0  0  0  0  0
  -18.9370  -29.8880   23.8690 C   0  0  0  0  0  3  0  0  0  0  0  0
  -17.6110  -30.3360   24.0120 C   0  0  0  0  0  3  0  0  0  0  0  0
  -16.5460  -29.5280   23.5760 C   0  0  0  0  0  3  0  0  0  0  0  0
  -16.8110  -28.2790   22.9880 C   0  0  0  0  0  3  0  0  0  0  0  0
  -25.8800  -32.4760   23.8970 C   0  0  0  0  0  3  0  0  0  0  0  0
  -26.3720  -31.7380   25.2020 C   0  0  1  0  0  0  0  0  0  0  0  0
  -25.2550  -31.5220   26.2490 C   0  0  0  0  0  1  0  0  0  0  0  0
  -26.9710  -30.3560   24.8600 C   0  0  0  0  0  1  0  0  0  0  0  0
  -27.5090  -32.5500   25.8670 C   0  0  0  0  0  1  0  0  0  0  0  0
  -25.5670  -33.8830   24.1800 N   0  0  0  0  0  0  0  0  0  0  0  0
  -25.8800  -34.9090   23.3760 C   0  0  0  0  0  0  0  0  0  0  0  0
  -26.5330  -34.7720   22.3370 O   0  0  0  0  0  0  0  0  0  0  0  0
  -24.9850  -34.0650   24.9840 H   0  0  0  0  0  0  0  0  0  0  0  0
  -24.1160  -36.6650   23.0100 C   0  0  0  0  0  1  0  0  0  0  0  0
  -25.3920  -36.3100   23.7900 C   0  0  0  0  0  3  0  0  0  0  0  0
  -27.5350  -37.2650   24.5150 C   0  0  0  0  0  1  0  0  0  0  0  0
  -26.4050  -37.3710   23.5950 N   0  0  0  0  0  0  0  0  0  0  0  0
  -25.9870  -38.2910   23.7080 H   0  0  0  0  0  0  0  0  0  0  0  0
  1  3  2  0
  2 49  1  0
  2  1  1  0
  4  2  1  0
  5  9  1  0
  7  5  1  0
  7 10  1  0
  8  6  1  0
  9  1  1  0
  9  6  1  0
 10 19  1  0
 10  8  1  0
 11 19  1  0
 12 17  1  0
 13 14  1  0
 13 12  1  0
 15 14  1  0
 15 24  1  0
 15 16  1  0
 17 11  1  0
 17 16  1  0
 18 11  2  0
 19 20  1  0
 21 22  2  0
 22 41  1  0
 23 22  1  0
 23 26  1  0
 24 25  1  0
 24 21  1  0
 25 23  2  0
 26 27  1  0
 27 28  2  0
 29 32  1  0
 29 28  1  0
 30 29  2  0
 31 30  1  0
 31 26  2  0
 32 33  1  0
 33 38  2  0
 33 34  1  0
 34 35  2  0
 35 36  1  0
 36 40  1  0
 37 36  2  0
 38 37  1  0
 39 38  1  0
 41 42  1  0
 42 45  1  0
 42 44  1  0
 43 41  2  0
 46 21  1  0
 46 47  1  0
 48 46  1  0
 50 51  1  0
 50 49  2  0
 52 63  2  0
 53 51  1  0
 53 58  1  0
 54 62  1  0
 54 64  1  0
 55 61  1  0
 55 57  1  0
 56 62  1  0
 57 56  1  0
 58 57  2  0
 59 60  1  0
 59 53  2  0
 60 55  2  0
 61 54  1  0
 62 52  1  0
 64 66  2  0
 65 64  1  0
 67 65  1  0
 68 77  2  0
 68 73  1  0
 69 65  1  0
 69 73  1  0
 70 69  1  0
 71 72  1  0
 71 70  1  0
 72 68  1  0
 73 74  2  0
 74 75  1  0
 76 75  2  0
 77 76  1  0
 78 52  1  0
 78 83  1  0
 78 79  1  0
 79 82  1  1
 79 80  1  0
 81 79  1  0
 83 86  1  0
 84 88  1  0
 84 83  1  0
 85 84  2  0
 88 87  1  0
 90 91  1  0
 90 88  1  0
 90 89  1  0
M  ISO  4  11 100  19 100  50 101  51 101
M  END
>  <TORSDO>  (42) 
F 19

>  <SCORE>  (42) 
-12.683

>  <name>  (42) 
41

>  <ligand_id>  (42) 
41

>  <original_smiles>  (42) 
[H]c1c([H])c([H])c2c(c1[H])C([H])([H])C([H])([H])C([H])([H])C2([H])N([H])C(=O)C1([H])N(C(=O)C([H])(N([H])C(=O)C([H])(N([H])C([H])([H])[H])C([H])([H])[H])C(C([H])([H])[H])(C([H])([H])[H])C([H])([H])[H])C([H])([H])c2c([H])c(OC([H])([H])C([H])([H])N([H])C(=O)C3([H])C([H])([H])C([H])([H])C([H])(N([H])C(=O)N4C([H])([H])C([H])([H])C([H])([H])C([H])(n5nc(-c6c([H])c([H])c(Oc7c([H])c([H])c(F)c([H])c7F)c([H])c6[H])c(C(=O)N([H])[H])c5N([H])[H])C4([H])[H])C([H])([H])C3([H])[H])c([H])c([H])c2C1([H])[H]

>  <smiles>  (42) 
[H]c1c([H])c([H])c2c(c1[H])C([H])([H])C([H])([H])C([H])([H])C2([H])N([H])C(=O)C1([H])N(C(=O)C([H])(N([H])C(=O)C([H])(N([H])C([H])([H])[H])C([H])([H])[H])C(C([H])([H])[H])(C([H])([H])[H])C([H])([H])[H])C([H])([H])c2c([H])c(OC([H])([H])C([H])([H])N([H])C(=O)C3([H])C([H])([H])C([H])([H])C([H])(N([H])C(=O)N4C([H])([H])C([H])([H])C([H])([H])C([H])(n5nc(-c6c([H])c([H])c(Oc7c([H])c([H])c(F)c([H])c7F)c([H])c6[H])c(C(=O)N([H])[H])c5N([H])[H])C4([H])[H])C([H])([H])C3([H])[H])c([H])c([H])c2C1([H])[H]

$$$$
42:0:0
     RDKit          3D

 82 86  0  0  1  0  0  0  0  0999 V2000
  -28.1370  -24.6640   20.2800 O   0  0  0  0  0  1  0  0  0  0  0  0
  -24.7340  -31.8030   23.1520 C   0  0  0  0  0  0  0  0  0  0  0  0
  -27.2260  -26.1590   20.2530 C   0  0  0  0  0  0  0  0  0  0  0  0
  -23.5690  -30.3790   21.5310 C   0  0  0  0  0  3  0  0  0  0  0  0
  -25.0170  -28.5910   20.1720 C   0  0  0  0  0  0  0  0  0  0  0  0
  -26.1690  -30.3340   21.4840 C   0  0  0  0  0  2  0  0  0  0  0  0
  -26.2240  -28.8290   20.8370 C   0  0  0  0  0  0  0  0  0  0  0  0
  -27.2770  -27.6660   20.8260 C   0  0  0  0  0  3  0  0  0  0  0  0
  -25.9790  -26.2970   19.5260 C   0  0  0  0  0  3  0  0  0  0  0  0
  -24.9720  -27.3550   19.4890 C   0  0  0  0  0  3  0  0  0  0  0  0
  -23.8390  -29.6200   20.1890 C   0  0  0  0  0  2  0  0  0  0  0  0
  -24.8570  -30.8880   22.1070 N   0  0  0  0  0  0  0  0  0  0  0  0
  -23.6280  -32.1340   23.6250 O   0  0  0  0  0  0  0  0  0  0  0  0
  -22.7900  -29.4690   22.5260 C   0  0  0  0  0  0  0  0  0  0  0  0
  -21.4500  -29.3540   22.4040 N   0  0  0  0  0  0  0  0  0  0  0  0
  -23.4170  -28.8550   23.3910 O   0  0  0  0  0  0  0  0  0  0  0  0
  -20.9850  -29.8980   21.6910 H   0  0  0  0  0  0  0  0  0  0  0  0
  -18.0430  -28.1630   22.9450 C   0  0  0  0  0  0  0  0  0  0  0  0
  -20.6080  -28.4320   23.1860 C   0  0  0  0  0  3  0  0  0  0  0  0
  -20.6980  -26.9930   22.6240 C   0  0  0  0  0  2  0  0  0  0  0  0
  -19.5930  -26.6710   21.6130 C   0  0  0  0  0  2  0  0  0  0  0  0
  -18.2140  -26.8160   22.2620 C   0  0  0  0  0  2  0  0  0  0  0  0
  -19.1660  -28.9300   23.3620 C   0  0  0  0  0  0  0  0  0  0  0  0
  -18.9450  -30.1830   23.9710 C   0  0  0  0  0  3  0  0  0  0  0  0
  -17.6390  -30.6750   24.1590 C   0  0  0  0  0  3  0  0  0  0  0  0
  -16.5340  -29.9080   23.7510 C   0  0  0  0  0  3  0  0  0  0  0  0
  -16.7360  -28.6540   23.1500 C   0  0  0  0  0  3  0  0  0  0  0  0
  -25.9690  -32.4900   23.8170 C   0  0  0  0  0  3  0  0  0  0  0  0
  -25.6220  -33.8950   24.1490 N   0  0  0  0  0  0  0  0  0  0  0  0
  -25.9300  -34.9760   23.4180 C   0  0  0  0  0  0  0  0  0  0  0  0
  -26.5750  -34.8970   22.3700 O   0  0  0  0  0  0  0  0  0  0  0  0
  -25.0380  -34.0270   24.9630 H   0  0  0  0  0  0  0  0  0  0  0  0
  -24.1650  -36.7690   23.1870 C   0  0  0  0  0  1  0  0  0  0  0  0
  -25.4550  -36.3610   23.9170 C   0  0  0  0  0  3  0  0  0  0  0  0
  -27.6170  -37.2890   24.6380 C   0  0  0  0  0  1  0  0  0  0  0  0
  -26.4650  -37.4330   23.7520 N   0  0  0  0  0  0  0  0  0  0  0  0
  -26.0520  -38.3460   23.9150 H   0  0  0  0  0  0  0  0  0  0  0  0
  -26.4440  -31.7560   25.1340 C   0  0  1  0  0  0  0  0  0  0  0  0
  -25.3190  -31.5450   26.1760 C   0  0  0  0  0  1  0  0  0  0  0  0
  -27.0410  -30.3700   24.8160 C   0  0  0  0  0  1  0  0  0  0  0  0
  -27.5740  -32.5690   25.8090 C   0  0  0  0  0  1  0  0  0  0  0  0
  -28.1770  -22.5590   20.1660 C   0  0  0  0  0 15  0  0  0  0  0  0
  -30.1260  -20.6340   21.3760 C   0  0  0  0  0  1  0  0  0  0  0  0
  -29.1990  -20.4320   20.1740 C   0  0  0  0  0  1  0  0  0  0  0  0
  -29.9420  -16.6970   20.0440 C   0  0  0  0  0  0  0  0  0  0  0  0
  -30.3010  -13.9350   19.2580 C   0  0  0  0  0  2  0  0  0  0  0  0
  -29.5130  -13.0880   18.1740 C   0  0  0  0  0  2  0  0  0  0  0  0
  -28.2060  -12.5100   18.7180 C   0  0  0  0  0  2  0  0  0  0  0  0
  -27.5770  -13.5390   19.6670 C   0  0  0  0  0  3  0  0  0  0  0  0
  -28.5580  -14.2410   20.6770 C   0  0  0  0  0  2  0  0  0  0  0  0
  -29.5240  -15.1680   19.9320 N   0  0  0  0  0  0  0  0  0  0  0  0
  -31.1900  -16.4790   19.9460 O   0  0  0  0  0  0  0  0  0  0  0  0
  -29.2060  -18.3230   20.0940 N   0  0  0  0  0  2  0  0  0  0  0  0
  -28.2220  -18.0840   20.0790 H   0  0  0  0  0  0  0  0  0  0  0  0
  -25.2470  -13.9380   20.5380 C   0  0  0  0  0  0  0  0  0  0  0  0
  -24.2200  -13.1270   20.9200 C   0  0  0  0  0  0  0  0  0  0  0  0
  -24.7160  -11.7890   20.8410 C   0  0  0  0  0  0  0  0  0  0  0  0
  -26.3080  -13.1070   20.2470 N   0  0  0  0  0  0  0  0  0  0  0  0
  -26.0040  -11.7970   20.4800 N   0  0  0  0  0  0  0  0  0  0  0  0
  -24.0070  -10.5110   21.0280 C   0  0  0  0  0  0  0  0  0  0  0  0
  -24.4480   -9.5440   21.9600 C   0  0  0  0  0  3  0  0  0  0  0  0
  -23.7280   -8.3430   22.1460 C   0  0  0  0  0  3  0  0  0  0  0  0
  -22.5510   -8.0970   21.4000 C   0  0  0  0  0  0  0  0  0  0  0  0
  -22.1250   -9.0510   20.4590 C   0  0  0  0  0  3  0  0  0  0  0  0
  -22.8460  -10.2440   20.2730 C   0  0  0  0  0  3  0  0  0  0  0  0
  -21.8040   -6.9470   21.4930 O   0  0  0  0  0  0  0  0  0  0  0  0
  -21.7380   -6.2200   22.6560 C   0  0  0  0  0  0  0  0  0  0  0  0
  -21.2500   -6.7810   23.8570 C   0  0  0  0  0  3  0  0  0  0  0  0
  -21.1340   -5.9820   25.0120 C   0  0  0  0  0  3  0  0  0  0  0  0
  -21.4950   -4.6220   24.9670 C   0  0  0  0  0  0  0  0  0  0  0  0
  -21.9760   -4.0600   23.7710 C   0  0  0  0  0  3  0  0  0  0  0  0
  -22.0930   -4.8570   22.6180 C   0  0  0  0  0  0  0  0  0  0  0  0
  -22.5350   -4.3050   21.4630 F   0  0  0  0  0  0  0  0  0  0  0  0
  -21.3780   -3.8520   26.0750 F   0  0  0  0  0  0  0  0  0  0  0  0
  -22.8250  -13.5770   21.2360 C   0  0  0  0  0  0  0  0  0  0  0  0
  -22.1350  -12.8630   22.1170 N   0  0  0  0  0  0  0  0  0  0  0  0
  -22.3590  -14.6020   20.7400 O   0  0  0  0  0  0  0  0  0  0  0  0
  -22.5290  -12.0350   22.5410 H   0  0  0  0  0  0  0  0  0  0  0  0
  -21.2000  -13.1480   22.3730 H   0  0  0  0  0  0  0  0  0  0  0  0
  -25.3640  -15.3150   20.3750 N   0  0  0  0  0  0  0  0  0  0  0  0
  -24.5810  -15.9440   20.5150 H   0  0  0  0  0  0  0  0  0  0  0  0
  -26.1870  -15.7810   20.0160 H   0  0  0  0  0  0  0  0  0  0  0  0
  2 13  2  0
  3  1  1  0
  3  8  1  0
  4 12  1  0
  4 14  1  0
  5 11  1  0
  5  7  1  0
  6 12  1  0
  7  6  1  0
  8  7  2  0
  9  3  2  0
 10  9  1  0
 10  5  2  0
 11  4  1  0
 12  2  1  0
 14 16  2  0
 15 14  1  0
 17 15  1  0
 18 27  2  0
 18 23  1  0
 19 15  1  0
 19 23  1  0
 20 19  1  0
 21 22  1  0
 21 20  1  0
 22 18  1  0
 23 24  2  0
 24 25  1  0
 26 25  2  0
 27 26  1  0
 28  2  1  0
 28 29  1  0
 28 38  1  0
 29 32  1  0
 30 34  1  0
 30 29  1  0
 31 30  2  0
 34 33  1  0
 36 37  1  0
 36 34  1  0
 36 35  1  0
 38 41  1  1
 38 39  1  0
 40 38  1  0
 44 43  1  0
 45 53  1  0
 46 51  1  0
 47 48  1  0
 47 46  1  0
 49 48  1  0
 49 58  1  0
 49 50  1  0
 51 45  1  0
 51 50  1  0
 52 45  2  0
 54 53  1  0
 55 56  2  0
 56 75  1  0
 57 56  1  0
 57 60  1  0
 58 59  1  0
 58 55  1  0
 59 57  2  0
 60 61  1  0
 61 62  2  0
 63 66  1  0
 63 62  1  0
 64 63  2  0
 65 64  1  0
 65 60  2  0
 66 67  1  0
 67 68  1  0
 68 69  2  0
 70 69  1  0
 70 74  1  0
 71 70  2  0
 72 67  2  0
 72 71  1  0
 73 72  1  0
 75 76  1  0
 76 79  1  0
 76 78  1  0
 77 75  2  0
 80 81  1  0
 80 55  1  0
 82 80  1  0
M  ISO  4   1 101  42 101  45 100  53 100
M  END
>  <TORSDO>  (43) 
F 17

>  <SCORE>  (43) 
-16.272

>  <name>  (43) 
42

>  <ligand_id>  (43) 
42

>  <original_smiles>  (43) 
[H]c1c([H])c([H])c2c(c1[H])C([H])([H])C([H])([H])C([H])([H])C2([H])N([H])C(=O)C1([H])N(C(=O)C([H])(N([H])C(=O)C([H])(N([H])C([H])([H])[H])C([H])([H])[H])C(C([H])([H])[H])(C([H])([H])[H])C([H])([H])[H])C([H])([H])c2c([H])c(OC([H])([H])C([H])(N([H])C(=O)N3C([H])([H])C([H])([H])C([H])([H])C([H])(n4nc(-c5c([H])c([H])c(Oc6c([H])c([H])c(F)c([H])c6F)c([H])c5[H])c(C(=O)N([H])[H])c4N([H])[H])C3([H])[H])C([H])([H])[H])c([H])c([H])c2C1([H])[H]

>  <smiles>  (43) 
[H]c1c([H])c([H])c2c(c1[H])C([H])([H])C([H])([H])C([H])([H])C2([H])N([H])C(=O)C1([H])N(C(=O)C([H])(N([H])C(=O)C([H])(N([H])C([H])([H])[H])C([H])([H])[H])C(C([H])([H])[H])(C([H])([H])[H])C([H])([H])[H])C([H])([H])c2c([H])c(OC([H])([H])C([H])(N([H])C(=O)N3C([H])([H])C([H])([H])C([H])([H])C([H])(n4nc(-c5c([H])c([H])c(Oc6c([H])c([H])c(F)c([H])c6F)c([H])c5[H])c(C(=O)N([H])[H])c4N([H])[H])C3([H])[H])C([H])([H])[H])c([H])c([H])c2C1([H])[H]

$$$$
43:0:0
     RDKit          3D

 92100  0  0  1  0  0  0  0  0999 V2000
  -31.3600  -18.1620   20.8100 C   0  0  0  0  0  3  0  0  0  0  0  0
  -31.7810  -19.5000   20.9540 C   0  0  0  0  0  3  0  0  0  0  0  0
  -29.1420  -19.0310   20.3640 C   0  0  0  0  0  3  0  0  0  0  0  0
  -30.0270  -17.8170   20.5100 C   0  0  0  0  0  0  0  0  0  0  0  0
  -30.9210  -20.6110   20.8050 C   0  0  0  0  0  0  0  0  0  0  0  0
  -29.5380  -20.4820   20.4930 C   0  0  0  0  0  0  0  0  0  0  0  0
  -30.4820  -15.0880   20.3280 C   0  0  0  0  0  0  0  0  0  0  0  0
  -30.3700  -12.7320   19.3660 C   0  0  0  0  0  2  0  0  0  0  0  0
  -29.4210  -12.6640   18.1470 C   0  0  0  0  0  2  0  0  0  0  0  0
  -27.9680  -12.4340   18.6010 C   0  0  0  0  0  2  0  0  0  0  0  0
  -27.5680  -13.3450   19.7890 C   0  0  0  0  0  3  0  0  0  0  0  0
  -28.6400  -13.3830   20.8980 C   0  0  0  0  0  2  0  0  0  0  0  0
  -29.8860  -13.8250   20.2610 N   0  0  0  0  0  0  0  0  0  0  0  0
  -31.6920  -15.1200   20.0760 O   0  0  0  0  0  0  0  0  0  0  0  0
  -29.7010  -16.2970   20.4300 N   0  0  0  0  0  0  0  0  0  0  0  0
  -28.7140  -16.0940   20.4550 H   0  0  0  0  0  0  0  0  0  0  0  0
  -25.1980  -13.8900   20.5800 C   0  0  0  0  0  0  0  0  0  0  0  0
  -24.1460  -13.1000   20.9510 C   0  0  0  0  0  0  0  0  0  0  0  0
  -24.6220  -11.7530   20.8950 C   0  0  0  0  0  0  0  0  0  0  0  0
  -26.2440  -13.0240   20.3080 N   0  0  0  0  0  0  0  0  0  0  0  0
  -25.9100  -11.7340   20.5680 N   0  0  0  0  0  0  0  0  0  0  0  0
  -23.9090  -10.4830   21.0730 C   0  0  0  0  0  0  0  0  0  0  0  0
  -24.3460   -9.5110   22.0000 C   0  0  0  0  0  3  0  0  0  0  0  0
  -23.6280   -8.3070   22.1690 C   0  0  0  0  0  3  0  0  0  0  0  0
  -22.4590   -8.0660   21.4080 C   0  0  0  0  0  0  0  0  0  0  0  0
  -22.0410   -9.0260   20.4690 C   0  0  0  0  0  3  0  0  0  0  0  0
  -22.7600  -10.2210   20.2990 C   0  0  0  0  0  3  0  0  0  0  0  0
  -21.7130   -6.9150   21.4850 O   0  0  0  0  0  0  0  0  0  0  0  0
  -21.6460   -6.1760   22.6400 C   0  0  0  0  0  0  0  0  0  0  0  0
  -21.1540   -6.7210   23.8450 C   0  0  0  0  0  3  0  0  0  0  0  0
  -21.0360   -5.9080   24.9900 C   0  0  0  0  0  3  0  0  0  0  0  0
  -21.4030   -4.5510   24.9310 C   0  0  0  0  0  0  0  0  0  0  0  0
  -21.8890   -4.0040   23.7300 C   0  0  0  0  0  3  0  0  0  0  0  0
  -22.0080   -4.8150   22.5870 C   0  0  0  0  0  0  0  0  0  0  0  0
  -22.4570   -4.2780   21.4270 F   0  0  0  0  0  0  0  0  0  0  0  0
  -21.2840   -3.7670   26.0280 F   0  0  0  0  0  0  0  0  0  0  0  0
  -22.7490  -13.5610   21.2430 C   0  0  0  0  0  0  0  0  0  0  0  0
  -22.0380  -12.8500   22.1110 N   0  0  0  0  0  0  0  0  0  0  0  0
  -22.2970  -14.5880   20.7370 O   0  0  0  0  0  0  0  0  0  0  0  0
  -22.4180  -12.0190   22.5390 H   0  0  0  0  0  0  0  0  0  0  0  0
  -21.1000  -13.1430   22.3530 H   0  0  0  0  0  0  0  0  0  0  0  0
  -25.3430  -15.2640   20.4170 N   0  0  0  0  0  0  0  0  0  0  0  0
  -24.5650  -15.9020   20.5450 H   0  0  0  0  0  0  0  0  0  0  0  0
  -26.1650  -15.7180   20.0390 H   0  0  0  0  0  0  0  0  0  0  0  0
  -31.4900  -21.8630   21.0040 N   0  0  0  0  0  0  0  0  0  0  0  0
  -32.1990  -21.9190   21.7240 H   0  0  0  0  0  0  0  0  0  0  0  0
  -30.7790  -22.5740   21.1200 H   0  0  0  0  0  0  0  0  0  0  0  0
  -28.6920  -21.7340   20.3540 N   0  0  0  0  0  0  0  0  0  0  0  0
  -27.7100  -21.5460   20.1660 H   0  0  0  0  0  0  0  0  0  0  0  0
  -29.0090  -23.2910   20.4690 C   0  0  0  0  0  3  0  0  0  0  0  0
  -27.9430  -24.6060   20.2120 C   0  0  0  0  0  3  0  0  0  0  0  0
  -28.2180  -26.1530   20.3880 O   0  0  0  0  0  0  0  0  0  0  0  0
  -24.6340  -31.9640   23.2870 C   0  0  0  0  0  0  0  0  0  0  0  0
  -27.1820  -27.1700   20.3110 C   0  0  0  0  0  0  0  0  0  0  0  0
  -23.4350  -30.5700   21.6480 C   0  0  0  0  0  3  0  0  0  0  0  0
  -24.8780  -28.9650   20.2450 C   0  0  0  0  0  0  0  0  0  0  0  0
  -25.9960  -30.7970   21.5040 C   0  0  0  0  0  2  0  0  0  0  0  0
  -26.0590  -29.3970   20.8620 C   0  0  0  0  0  0  0  0  0  0  0  0
  -27.2120  -28.5160   20.8740 C   0  0  0  0  0  3  0  0  0  0  0  0
  -25.9740  -26.8500   19.6560 C   0  0  0  0  0  3  0  0  0  0  0  0
  -24.8510  -27.7070   19.6270 C   0  0  0  0  0  3  0  0  0  0  0  0
  -23.6610  -29.8800   20.2760 C   0  0  0  0  0  2  0  0  0  0  0  0
  -24.7080  -31.1330   22.2010 N   0  0  0  0  0  0  0  0  0  0  0  0
  -23.5460  -32.2620   23.8030 O   0  0  0  0  0  0  0  0  0  0  0  0
  -22.7360  -29.5770   22.6100 C   0  0  0  0  0  0  0  0  0  0  0  0
  -21.4080  -29.4150   22.4720 N   0  0  0  0  0  0  0  0  0  0  0  0
  -23.3930  -28.9540   23.4500 O   0  0  0  0  0  0  0  0  0  0  0  0
  -20.9330  -29.9690   21.7720 H   0  0  0  0  0  0  0  0  0  0  0  0
  -18.0100  -28.2570   22.9650 C   0  0  0  0  0  0  0  0  0  0  0  0
  -20.5710  -28.4920   23.2440 C   0  0  0  0  0  3  0  0  0  0  0  0
  -20.6590  -27.0550   22.6760 C   0  0  0  0  0  2  0  0  0  0  0  0
  -19.5590  -26.7410   21.6580 C   0  0  0  0  0  2  0  0  0  0  0  0
  -18.1740  -26.9030   22.2940 C   0  0  0  0  0  2  0  0  0  0  0  0
  -19.1350  -29.0080   23.3960 C   0  0  0  0  0  0  0  0  0  0  0  0
  -18.9260  -30.2730   23.9870 C   0  0  0  0  0  3  0  0  0  0  0  0
  -17.6260  -30.7880   24.1490 C   0  0  0  0  0  3  0  0  0  0  0  0
  -16.5160  -30.0340   23.7320 C   0  0  0  0  0  3  0  0  0  0  0  0
  -16.7080  -28.7700   23.1460 C   0  0  0  0  0  3  0  0  0  0  0  0
  -25.9100  -32.5950   23.9200 C   0  0  0  0  0  3  0  0  0  0  0  0
  -26.4040  -31.8290   25.2090 C   0  0  1  0  0  0  0  0  0  0  0  0
  -25.2940  -31.6000   26.2620 C   0  0  0  0  0  1  0  0  0  0  0  0
  -26.9890  -30.4480   24.8380 C   0  0  0  0  0  1  0  0  0  0  0  0
  -27.5480  -32.6230   25.8840 C   0  0  0  0  0  1  0  0  0  0  0  0
  -25.6040  -33.9970   24.2470 N   0  0  0  0  0  0  0  0  0  0  0  0
  -25.9140  -35.0490   23.4760 C   0  0  0  0  0  0  0  0  0  0  0  0
  -26.5550  -34.9390   22.4280 O   0  0  0  0  0  0  0  0  0  0  0  0
  -25.0290  -34.1550   25.0610 H   0  0  0  0  0  0  0  0  0  0  0  0
  -24.1620  -36.8330   23.1860 C   0  0  0  0  0  1  0  0  0  0  0  0
  -25.4420  -36.4410   23.9430 C   0  0  0  0  0  3  0  0  0  0  0  0
  -27.6030  -37.3510   24.6700 C   0  0  0  0  0  1  0  0  0  0  0  0
  -26.4620  -37.4990   23.7710 N   0  0  0  0  0  0  0  0  0  0  0  0
  -26.0560  -38.4180   23.9230 H   0  0  0  0  0  0  0  0  0  0  0  0
  1  2  1  0
  3  6  2  0
  3  4  1  0
  4  1  2  0
  5  2  2  0
  5 45  1  0
  6  5  1  0
  7 15  1  0
  8 13  1  0
  9 10  1  0
  9  8  1  0
 11 10  1  0
 11 20  1  0
 11 12  1  0
 13  7  1  0
 13 12  1  0
 14  7  2  0
 15 16  1  0
 15  4  1  0
 17 18  2  0
 18 37  1  0
 19 18  1  0
 19 22  1  0
 20 21  1  0
 20 17  1  0
 21 19  2  0
 22 23  1  0
 23 24  2  0
 25 28  1  0
 25 24  1  0
 26 25  2  0
 27 26  1  0
 27 22  2  0
 28 29  1  0
 29 30  1  0
 30 31  2  0
 32 31  1  0
 32 36  1  0
 33 32  2  0
 34 29  2  0
 34 33  1  0
 35 34  1  0
 37 38  1  0
 38 41  1  0
 38 40  1  0
 39 37  2  0
 42 43  1  0
 42 17  1  0
 44 42  1  0
 45 47  1  0
 45 46  1  0
 48 50  1  0
 48  6  1  0
 49 48  1  0
 51 52  1  0
 51 50  2  0
 53 64  2  0
 54 52  1  0
 54 59  1  0
 55 63  1  0
 55 65  1  0
 56 62  1  0
 56 58  1  0
 57 63  1  0
 58 59  2  0
 58 57  1  0
 60 54  2  0
 61 60  1  0
 61 56  2  0
 62 55  1  0
 63 53  1  0
 65 67  2  0
 66 65  1  0
 68 66  1  0
 69 78  2  0
 69 74  1  0
 70 66  1  0
 70 74  1  0
 71 70  1  0
 72 73  1  0
 72 71  1  0
 73 69  1  0
 74 75  2  0
 75 76  1  0
 77 76  2  0
 78 77  1  0
 79 53  1  0
 79 84  1  0
 79 80  1  0
 80 83  1  1
 80 81  1  0
 82 80  1  0
 84 87  1  0
 85 89  1  0
 85 84  1  0
 86 85  2  0
 89 88  1  0
 91 92  1  0
 91 89  1  0
 91 90  1  0
M  ISO  4   7 100  15 100  51 101  52 101
M  END
>  <TORSDO>  (44) 
F 20

>  <SCORE>  (44) 
-14.946

>  <name>  (44) 
43

>  <ligand_id>  (44) 
43

>  <original_smiles>  (44) 
[H]c1c([H])c([H])c2c(c1[H])C([H])([H])C([H])([H])C([H])([H])C2([H])N([H])C(=O)C1([H])N(C(=O)C([H])(N([H])C(=O)C([H])(N([H])C([H])([H])[H])C([H])([H])[H])C(C([H])([H])[H])(C([H])([H])[H])C([H])([H])[H])C([H])([H])c2c([H])c(OC([H])([H])C([H])([H])N([H])c3c([H])c(N([H])C(=O)N4C([H])([H])C([H])([H])C([H])([H])C([H])(n5nc(-c6c([H])c([H])c(Oc7c([H])c([H])c(F)c([H])c7F)c([H])c6[H])c(C(=O)N([H])[H])c5N([H])[H])C4([H])[H])c([H])c([H])c3N([H])[H])c([H])c([H])c2C1([H])[H]

>  <smiles>  (44) 
[H]c1c([H])c([H])c2c(c1[H])C([H])([H])C([H])([H])C([H])([H])C2([H])N([H])C(=O)C1([H])N(C(=O)C([H])(N([H])C(=O)C([H])(N([H])C([H])([H])[H])C([H])([H])[H])C(C([H])([H])[H])(C([H])([H])[H])C([H])([H])[H])C([H])([H])c2c([H])c(OC([H])([H])C([H])([H])N([H])c3c([H])c(N([H])C(=O)N4C([H])([H])C([H])([H])C([H])([H])C([H])(n5nc(-c6c([H])c([H])c(Oc7c([H])c([H])c(F)c([H])c7F)c([H])c6[H])c(C(=O)N([H])[H])c5N([H])[H])C4([H])[H])c([H])c([H])c3N([H])[H])c([H])c([H])c2C1([H])[H]

$$$$
44:0:0
     RDKit          3D

 94102  0  0  1  0  0  0  0  0999 V2000
  -27.3100  -24.5890   20.9470 C   0  0  0  0  0  3  0  0  0  0  0  0
  -27.1530  -23.4210   21.7180 C   0  0  0  0  0  3  0  0  0  0  0  0
  -29.2440  -23.5910   19.8470 C   0  0  0  0  0  3  0  0  0  0  0  0
  -28.3480  -24.6940   19.9940 C   0  0  0  0  0  0  0  0  0  0  0  0
  -28.0490  -22.3460   21.5700 C   0  0  0  0  0  0  0  0  0  0  0  0
  -29.1170  -22.4240   20.6500 C   0  0  0  0  0  0  0  0  0  0  0  0
  -27.8920  -21.1930   22.3420 N   0  0  0  0  0  0  0  0  0  0  0  0
  -26.9980  -21.0940   22.8070 H   0  0  0  0  0  0  0  0  0  0  0  0
  -28.1440  -20.3390   21.8570 H   0  0  0  0  0  0  0  0  0  0  0  0
  -30.0580  -21.3710   20.6920 N   0  0  0  0  0  0  0  0  0  0  0  0
  -30.0440  -21.0340   21.6540 H   0  0  0  0  0  0  0  0  0  0  0  0
  -29.9700  -20.2430   19.7490 C   0  0  0  0  0  2  0  0  0  0  0  0
  -30.3050  -18.8460   20.4160 C   0  0  0  0  0  2  0  0  0  0  0  0
  -31.2840  -17.6750   19.9860 C   0  0  0  0  0  2  0  0  0  0  0  0
  -31.6200  -15.2000   20.1670 C   0  0  0  0  0  0  0  0  0  0  0  0
  -31.4040  -12.8840   19.3550 C   0  0  0  0  0  2  0  0  0  0  0  0
  -30.5150  -12.9000   18.0930 C   0  0  0  0  0  2  0  0  0  0  0  0
  -29.0250  -12.8010   18.4750 C   0  0  0  0  0  2  0  0  0  0  0  0
  -28.6250  -13.8010   19.5960 C   0  0  0  0  0  3  0  0  0  0  0  0
  -29.6360  -13.7630   20.7660 C   0  0  0  0  0  2  0  0  0  0  0  0
  -30.9750  -14.0030   20.2090 N   0  0  0  0  0  0  0  0  0  0  0  0
  -32.7850  -15.3130   19.7770 O   0  0  0  0  0  0  0  0  0  0  0  0
  -30.8560  -16.3020   20.3580 N   0  0  0  0  0  0  0  0  0  0  0  0
  -29.9000  -16.1580   20.6450 H   0  0  0  0  0  0  0  0  0  0  0  0
  -26.2380  -14.4900   20.2570 C   0  0  0  0  0  0  0  0  0  0  0  0
  -25.1390  -13.7570   20.6120 C   0  0  0  0  0  0  0  0  0  0  0  0
  -25.5560  -12.3910   20.6040 C   0  0  0  0  0  0  0  0  0  0  0  0
  -27.2570  -13.5740   20.0540 N   0  0  0  0  0  0  0  0  0  0  0  0
  -26.8490  -12.3060   20.3220 N   0  0  0  0  0  0  0  0  0  0  0  0
  -24.7840  -11.1560   20.7910 C   0  0  0  0  0  0  0  0  0  0  0  0
  -25.1010  -10.2370   21.8170 C   0  0  0  0  0  3  0  0  0  0  0  0
  -24.3330   -9.0670   21.9880 C   0  0  0  0  0  3  0  0  0  0  0  0
  -23.2360   -8.8040   21.1350 C   0  0  0  0  0  0  0  0  0  0  0  0
  -22.9390   -9.7120   20.1020 C   0  0  0  0  0  3  0  0  0  0  0  0
  -23.7070  -10.8750   19.9280 C   0  0  0  0  0  3  0  0  0  0  0  0
  -22.4500   -7.6800   21.2110 O   0  0  0  0  0  0  0  0  0  0  0  0
  -22.1750   -7.0740   22.4110 C   0  0  0  0  0  0  0  0  0  0  0  0
  -21.5360   -7.7640   23.4640 C   0  0  0  0  0  3  0  0  0  0  0  0
  -21.2090   -7.0850   24.6540 C   0  0  0  0  0  3  0  0  0  0  0  0
  -21.5090   -5.7160   24.7890 C   0  0  0  0  0  0  0  0  0  0  0  0
  -22.1390   -5.0260   23.7400 C   0  0  0  0  0  3  0  0  0  0  0  0
  -22.4680   -5.7030   22.5520 C   0  0  0  0  0  0  0  0  0  0  0  0
  -23.0570   -5.0280   21.5350 F   0  0  0  0  0  0  0  0  0  0  0  0
  -21.1870   -5.0600   25.9290 F   0  0  0  0  0  0  0  0  0  0  0  0
  -23.7540  -14.2850   20.8500 C   0  0  0  0  0  0  0  0  0  0  0  0
  -22.9880  -13.6310   21.7160 N   0  0  0  0  0  0  0  0  0  0  0  0
  -23.3590  -15.3140   20.3020 O   0  0  0  0  0  0  0  0  0  0  0  0
  -23.3200  -12.7980   22.1810 H   0  0  0  0  0  0  0  0  0  0  0  0
  -22.0570  -13.9680   21.9180 H   0  0  0  0  0  0  0  0  0  0  0  0
  -26.4490  -15.8520   20.0670 N   0  0  0  0  0  0  0  0  0  0  0  0
  -25.6950  -16.5250   20.1520 H   0  0  0  0  0  0  0  0  0  0  0  0
  -27.3110  -16.2640   19.7340 H   0  0  0  0  0  0  0  0  0  0  0  0
  -28.4730  -25.9500   19.1020 C   0  0  0  0  0  2  0  0  0  0  0  0
  -28.3960  -27.2490   19.7490 O   0  0  0  0  0  0  0  0  0  0  0  0
  -24.6780  -32.0320   23.5100 C   0  0  0  0  0  0  0  0  0  0  0  0
  -27.2080  -27.9640   19.8320 C   0  0  0  0  0  0  0  0  0  0  0  0
  -23.4090  -30.8010   21.7820 C   0  0  0  0  0  3  0  0  0  0  0  0
  -24.8040  -29.4520   20.1260 C   0  0  0  0  0  0  0  0  0  0  0  0
  -25.9210  -31.2100   21.5070 C   0  0  0  0  0  2  0  0  0  0  0  0
  -25.9860  -29.9160   20.7140 C   0  0  0  0  0  0  0  0  0  0  0  0
  -27.1870  -29.1800   20.5640 C   0  0  0  0  0  3  0  0  0  0  0  0
  -26.0030  -27.5290   19.2320 C   0  0  0  0  0  3  0  0  0  0  0  0
  -24.8100  -28.2590   19.3830 C   0  0  0  0  0  3  0  0  0  0  0  0
  -23.5580  -30.2840   20.3260 C   0  0  0  0  0  2  0  0  0  0  0  0
  -24.6910  -31.3580   22.3240 N   0  0  0  0  0  0  0  0  0  0  0  0
  -23.6220  -32.2240   24.1280 O   0  0  0  0  0  0  0  0  0  0  0  0
  -22.8150  -29.6710   22.6540 C   0  0  0  0  0  0  0  0  0  0  0  0
  -21.5000  -29.4330   22.5150 N   0  0  0  0  0  0  0  0  0  0  0  0
  -23.5340  -29.0140   23.4120 O   0  0  0  0  0  0  0  0  0  0  0  0
  -20.9770  -30.0180   21.8780 H   0  0  0  0  0  0  0  0  0  0  0  0
  -18.2190  -27.9540   22.8340 C   0  0  0  0  0  0  0  0  0  0  0  0
  -20.7400  -28.3890   23.2040 C   0  0  0  0  0  3  0  0  0  0  0  0
  -20.9690  -27.0070   22.5450 C   0  0  0  0  0  2  0  0  0  0  0  0
  -19.9200  -26.6700   21.4790 C   0  0  0  0  0  2  0  0  0  0  0  0
  -18.5160  -26.6680   22.0840 C   0  0  0  0  0  2  0  0  0  0  0  0
  -19.2620  -28.7700   23.3460 C   0  0  0  0  0  0  0  0  0  0  0  0
  -18.9320  -29.9750   24.0030 C   0  0  0  0  0  3  0  0  0  0  0  0
  -17.5880  -30.3650   24.1570 C   0  0  0  0  0  3  0  0  0  0  0  0
  -16.5580  -29.5470   23.6620 C   0  0  0  0  0  3  0  0  0  0  0  0
  -16.8730  -28.3430   23.0060 C   0  0  0  0  0  3  0  0  0  0  0  0
  -25.9850  -32.6120   24.1340 C   0  0  0  0  0  3  0  0  0  0  0  0
  -25.7060  -33.9970   24.5320 N   0  0  0  0  0  0  0  0  0  0  0  0
  -26.0620  -35.0790   23.8240 C   0  0  0  0  0  0  0  0  0  0  0  0
  -26.7290  -35.0100   22.7870 O   0  0  0  0  0  0  0  0  0  0  0  0
  -25.1150  -34.1270   25.3400 H   0  0  0  0  0  0  0  0  0  0  0  0
  -24.3730  -36.9230   23.5570 C   0  0  0  0  0  1  0  0  0  0  0  0
  -25.6040  -36.4530   24.3470 C   0  0  0  0  0  3  0  0  0  0  0  0
  -27.7570  -37.2500   25.2200 C   0  0  0  0  0  1  0  0  0  0  0  0
  -26.6600  -37.4880   24.2850 N   0  0  0  0  0  0  0  0  0  0  0  0
  -26.2740  -38.4080   24.4760 H   0  0  0  0  0  0  0  0  0  0  0  0
  -26.5130  -31.7750   25.3630 C   0  0  1  0  0  0  0  0  0  0  0  0
  -25.4320  -31.4900   26.4310 C   0  0  0  0  0  1  0  0  0  0  0  0
  -27.0820  -30.4150   24.8940 C   0  0  0  0  0  1  0  0  0  0  0  0
  -27.6790  -32.5270   26.0480 C   0  0  0  0  0  1  0  0  0  0  0  0
  1  2  1  0
  3  4  1  0
  3  6  2  0
  4  1  2  0
  5  2  2  0
  5  7  1  0
  6 10  1  0
  6  5  1  0
  7  8  1  0
  9  7  1  0
 10 11  1  0
 12 13  1  0
 12 10  1  0
 14 23  1  0
 14 13  1  0
 15 21  1  0
 15 23  1  0
 16 21  1  0
 17 18  1  0
 17 16  1  0
 19 18  1  0
 19 28  1  0
 19 20  1  0
 21 20  1  0
 22 15  2  0
 23 24  1  0
 25 26  2  0
 26 45  1  0
 27 26  1  0
 27 30  1  0
 28 25  1  0
 28 29  1  0
 29 27  2  0
 30 31  1  0
 31 32  2  0
 33 36  1  0
 33 32  1  0
 34 33  2  0
 35 34  1  0
 35 30  2  0
 36 37  1  0
 37 42  2  0
 37 38  1  0
 38 39  2  0
 39 40  1  0
 40 44  1  0
 41 40  2  0
 42 41  1  0
 43 42  1  0
 45 46  1  0
 46 49  1  0
 46 48  1  0
 47 45  2  0
 50 51  1  0
 50 25  1  0
 52 50  1  0
 53 54  1  0
 53  4  1  0
 54 56  1  0
 55 66  2  0
 56 61  1  0
 57 65  1  0
 57 67  1  0
 58 64  1  0
 58 60  1  0
 59 65  1  0
 60 59  1  0
 61 60  2  0
 62 63  1  0
 62 56  2  0
 63 58  2  0
 64 57  1  0
 65 55  1  0
 67 69  2  0
 68 67  1  0
 70 68  1  0
 71 80  2  0
 71 76  1  0
 72 68  1  0
 72 76  1  0
 73 72  1  0
 74 75  1  0
 74 73  1  0
 75 71  1  0
 76 77  2  0
 77 78  1  0
 79 78  2  0
 80 79  1  0
 81 55  1  0
 81 82  1  0
 81 91  1  0
 82 85  1  0
 83 87  1  0
 83 82  1  0
 84 83  2  0
 87 86  1  0
 89 87  1  0
 89 90  1  0
 89 88  1  0
 91 94  1  1
 91 92  1  0
 93 91  1  0
M  ISO  4  15 100  23 100  53 101  54 101
M  END
>  <TORSDO>  (45) 
F 22

>  <SCORE>  (45) 
-10.664

>  <name>  (45) 
44

>  <ligand_id>  (45) 
44

>  <original_smiles>  (45) 
[H]c1c([H])c([H])c2c(c1[H])C([H])([H])C([H])([H])C([H])([H])C2([H])N([H])C(=O)C1([H])N(C(=O)C([H])(N([H])C(=O)C([H])(N([H])C([H])([H])[H])C([H])([H])[H])C(C([H])([H])[H])(C([H])([H])[H])C([H])([H])[H])C([H])([H])c2c([H])c(OC([H])([H])c3c([H])c([H])c(N([H])[H])c(N([H])C([H])([H])C([H])([H])C([H])([H])N([H])C(=O)N4C([H])([H])C([H])([H])C([H])([H])C([H])(n5nc(-c6c([H])c([H])c(Oc7c([H])c([H])c(F)c([H])c7F)c([H])c6[H])c(C(=O)N([H])[H])c5N([H])[H])C4([H])[H])c3[H])c([H])c([H])c2C1([H])[H]

>  <smiles>  (45) 
[H]c1c([H])c([H])c2c(c1[H])C([H])([H])C([H])([H])C([H])([H])C2([H])N([H])C(=O)C1([H])N(C(=O)C([H])(N([H])C(=O)C([H])(N([H])C([H])([H])[H])C([H])([H])[H])C(C([H])([H])[H])(C([H])([H])[H])C([H])([H])[H])C([H])([H])c2c([H])c(OC([H])([H])c3c([H])c([H])c(N([H])[H])c(N([H])C([H])([H])C([H])([H])C([H])([H])N([H])C(=O)N4C([H])([H])C([H])([H])C([H])([H])C([H])(n5nc(-c6c([H])c([H])c(Oc7c([H])c([H])c(F)c([H])c7F)c([H])c6[H])c(C(=O)N([H])[H])c5N([H])[H])C4([H])[H])c3[H])c([H])c([H])c2C1([H])[H]

$$$$
45:0:0
     RDKit          3D

 93102  0  0  1  0  0  0  0  0999 V2000
  -29.4890  -20.3470   17.9990 C   0  0  0  0  0  3  0  0  0  0  0  0
  -29.5820  -19.1450   18.7460 C   0  0  0  0  0  3  0  0  0  0  0  0
  -29.4390  -20.5000   20.7680 C   0  0  0  0  0  3  0  0  0  0  0  0
  -29.3840  -21.6050   18.6300 C   0  0  0  0  0  0  0  0  0  0  0  0
  -29.2540  -21.7770   20.0090 C   0  0  0  0  0  0  0  0  0  0  0  0
  -29.6220  -19.1390   20.1570 C   0  0  0  0  0  0  0  0  0  0  0  0
  -29.6500  -22.9310   17.9590 C   0  0  0  0  0  2  0  0  0  0  0  0
  -29.3560  -23.4170   20.3120 C   0  0  1  0  0  0  0  0  0  0  0  0
  -30.2360  -23.6560   21.5560 C   0  0  0  0  0  1  0  0  0  0  0  0
  -30.1070  -23.7820   19.0840 N   0  0  0  0  0  4  0  0  0  0  0  0
  -30.0180  -24.7630   18.8630 H   0  0  0  0  0  0  0  0  0  0  0  0
  -31.0810  -23.5720   19.2270 H   0  0  0  0  0  0  0  0  0  0  0  0
  -30.0150  -17.7040   20.8990 C   0  0  0  0  0  2  0  0  0  0  0  0
  -30.5080  -14.9940   20.3500 C   0  0  0  0  0  0  0  0  0  0  0  0
  -30.3790  -12.6380   19.3900 C   0  0  0  0  0  2  0  0  0  0  0  0
  -29.4470  -12.5760   18.1580 C   0  0  0  0  0  2  0  0  0  0  0  0
  -27.9840  -12.3540   18.5920 C   0  0  0  0  0  2  0  0  0  0  0  0
  -27.5630  -13.2810   19.7620 C   0  0  0  0  0  3  0  0  0  0  0  0
  -28.6230  -13.3320   20.8830 C   0  0  0  0  0  2  0  0  0  0  0  0
  -29.8900  -13.7430   20.2630 N   0  0  0  0  0  0  0  0  0  0  0  0
  -31.7250  -15.0270   20.1500 O   0  0  0  0  0  0  0  0  0  0  0  0
  -29.7410  -16.1950   20.4560 N   0  0  0  0  0  0  0  0  0  0  0  0
  -28.7530  -16.0020   20.4240 H   0  0  0  0  0  0  0  0  0  0  0  0
  -25.1820  -13.8450   20.5100 C   0  0  0  0  0  0  0  0  0  0  0  0
  -24.1210  -13.0650   20.8830 C   0  0  0  0  0  0  0  0  0  0  0  0
  -24.5950  -11.7160   20.8560 C   0  0  0  0  0  0  0  0  0  0  0  0
  -26.2300  -12.9730   20.2690 N   0  0  0  0  0  0  0  0  0  0  0  0
  -25.8890  -11.6870   20.5460 N   0  0  0  0  0  0  0  0  0  0  0  0
  -23.8730  -10.4530   21.0470 C   0  0  0  0  0  0  0  0  0  0  0  0
  -24.3050   -9.4830   21.9780 C   0  0  0  0  0  3  0  0  0  0  0  0
  -23.5780   -8.2870   22.1570 C   0  0  0  0  0  3  0  0  0  0  0  0
  -22.4050   -8.0490   21.4020 C   0  0  0  0  0  0  0  0  0  0  0  0
  -21.9930   -9.0060   20.4590 C   0  0  0  0  0  3  0  0  0  0  0  0
  -22.7200  -10.1940   20.2780 C   0  0  0  0  0  3  0  0  0  0  0  0
  -21.6480   -6.9050   21.4920 O   0  0  0  0  0  0  0  0  0  0  0  0
  -21.6000   -6.1620   22.6450 C   0  0  0  0  0  0  0  0  0  0  0  0
  -21.1690   -6.7140   23.8710 C   0  0  0  0  0  3  0  0  0  0  0  0
  -21.0690   -5.8960   25.0150 C   0  0  0  0  0  3  0  0  0  0  0  0
  -21.3870   -4.5260   24.9310 C   0  0  0  0  0  0  0  0  0  0  0  0
  -21.8090   -3.9750   23.7090 C   0  0  0  0  0  3  0  0  0  0  0  0
  -21.9130   -4.7900   22.5690 C   0  0  0  0  0  0  0  0  0  0  0  0
  -22.2990   -4.2480   21.3890 F   0  0  0  0  0  0  0  0  0  0  0  0
  -21.2830   -3.7380   26.0280 F   0  0  0  0  0  0  0  0  0  0  0  0
  -22.7210  -13.5370   21.1480 C   0  0  0  0  0  0  0  0  0  0  0  0
  -21.9920  -12.8430   22.0140 N   0  0  0  0  0  0  0  0  0  0  0  0
  -22.2840  -14.5620   20.6250 O   0  0  0  0  0  0  0  0  0  0  0  0
  -22.3620  -12.0210   22.4690 H   0  0  0  0  0  0  0  0  0  0  0  0
  -21.0520  -13.1400   22.2330 H   0  0  0  0  0  0  0  0  0  0  0  0
  -25.3270  -15.2170   20.3230 N   0  0  0  0  0  0  0  0  0  0  0  0
  -24.5280  -15.8370   20.3930 H   0  0  0  0  0  0  0  0  0  0  0  0
  -26.1550  -15.6750   19.9650 H   0  0  0  0  0  0  0  0  0  0  0  0
  -28.1080  -24.5790   20.3210 C   0  0  0  0  0  2  0  0  0  0  0  0
  -28.2980  -26.1440   20.3140 O   0  0  0  0  0  0  0  0  0  0  0  0
  -24.6430  -31.8630   23.2490 C   0  0  0  0  0  0  0  0  0  0  0  0
  -27.2140  -27.1080   20.2570 C   0  0  0  0  0  0  0  0  0  0  0  0
  -23.4340  -30.4600   21.6210 C   0  0  0  0  0  3  0  0  0  0  0  0
  -24.8750  -28.8640   20.2050 C   0  0  0  0  0  0  0  0  0  0  0  0
  -25.9870  -30.7150   21.4440 C   0  0  0  0  0  2  0  0  0  0  0  0
  -26.0580  -29.3140   20.8080 C   0  0  0  0  0  0  0  0  0  0  0  0
  -27.2240  -28.4540   20.8110 C   0  0  0  0  0  3  0  0  0  0  0  0
  -26.0010  -26.7610   19.6170 C   0  0  0  0  0  3  0  0  0  0  0  0
  -24.8630  -27.6020   19.5920 C   0  0  0  0  0  3  0  0  0  0  0  0
  -23.6490  -29.7680   20.2470 C   0  0  0  0  0  2  0  0  0  0  0  0
  -24.7100  -31.0350   22.1610 N   0  0  0  0  0  0  0  0  0  0  0  0
  -23.5580  -32.1560   23.7760 O   0  0  0  0  0  0  0  0  0  0  0  0
  -22.7520  -29.4660   22.5940 C   0  0  0  0  0  0  0  0  0  0  0  0
  -21.4240  -29.2950   22.4660 N   0  0  0  0  0  0  0  0  0  0  0  0
  -23.4210  -28.8470   23.4260 O   0  0  0  0  0  0  0  0  0  0  0  0
  -20.9440  -29.8470   21.7700 H   0  0  0  0  0  0  0  0  0  0  0  0
  -18.0370  -28.0980   22.9620 C   0  0  0  0  0  0  0  0  0  0  0  0
  -20.5960  -28.3650   23.2400 C   0  0  0  0  0  3  0  0  0  0  0  0
  -20.7010  -26.9270   22.6810 C   0  0  0  0  0  2  0  0  0  0  0  0
  -19.6050  -26.5940   21.6640 C   0  0  0  0  0  2  0  0  0  0  0  0
  -18.2190  -26.7420   22.2990 C   0  0  0  0  0  2  0  0  0  0  0  0
  -19.1530  -28.8670   23.3890 C   0  0  0  0  0  0  0  0  0  0  0  0
  -18.9300  -30.1330   23.9710 C   0  0  0  0  0  3  0  0  0  0  0  0
  -17.6230  -30.6340   24.1280 C   0  0  0  0  0  3  0  0  0  0  0  0
  -16.5220  -29.8640   23.7160 C   0  0  0  0  0  3  0  0  0  0  0  0
  -16.7300  -28.5970   23.1400 C   0  0  0  0  0  3  0  0  0  0  0  0
  -25.9220  -32.4960   23.8750 C   0  0  0  0  0  3  0  0  0  0  0  0
  -25.6170  -33.8980   24.1990 N   0  0  0  0  0  0  0  0  0  0  0  0
  -25.9500  -34.9500   23.4380 C   0  0  0  0  0  0  0  0  0  0  0  0
  -26.6140  -34.8410   22.4040 O   0  0  0  0  0  0  0  0  0  0  0  0
  -25.0230  -34.0550   25.0010 H   0  0  0  0  0  0  0  0  0  0  0  0
  -24.2270  -36.7550   23.0980 C   0  0  0  0  0  1  0  0  0  0  0  0
  -25.4740  -36.3440   23.8960 C   0  0  0  0  0  3  0  0  0  0  0  0
  -27.6240  -37.2220   24.7010 C   0  0  0  0  0  1  0  0  0  0  0  0
  -26.5120  -37.3910   23.7670 N   0  0  0  0  0  0  0  0  0  0  0  0
  -26.1130  -38.3140   23.9150 H   0  0  0  0  0  0  0  0  0  0  0  0
  -26.4240  -31.7320   25.1620 C   0  0  1  0  0  0  0  0  0  0  0  0
  -25.3240  -31.5180   26.2280 C   0  0  0  0  0  1  0  0  0  0  0  0
  -26.9970  -30.3460   24.7880 C   0  0  0  0  0  1  0  0  0  0  0  0
  -27.5780  -32.5210   25.8220 C   0  0  0  0  0  1  0  0  0  0  0  0
  1  4  2  0
  1  2  1  0
  2  6  2  0
  4  5  1  0
  5  8  1  0
  5  3  2  0
  6  3  1  0
  6 13  1  0
  7  4  1  0
  7 10  1  0
  8 52  1  0
  8  9  1  1
 10 12  1  0
 10  8  1  0
 11 10  1  0
 14 22  1  0
 15 20  1  0
 16 17  1  0
 16 15  1  0
 18 17  1  0
 18 27  1  0
 18 19  1  0
 20 14  1  0
 20 19  1  0
 21 14  2  0
 22 13  1  0
 23 22  1  0
 24 25  2  0
 25 44  1  0
 26 25  1  0
 26 29  1  0
 27 24  1  0
 27 28  1  0
 28 26  2  0
 29 30  1  0
 30 31  2  0
 32 35  1  0
 32 31  1  0
 33 32  2  0
 34 33  1  0
 34 29  2  0
 35 36  1  0
 36 37  1  0
 37 38  2  0
 39 38  1  0
 39 43  1  0
 40 39  2  0
 41 36  2  0
 41 40  1  0
 42 41  1  0
 44 45  1  0
 45 48  1  0
 45 47  1  0
 46 44  2  0
 49 50  1  0
 49 24  1  0
 51 49  1  0
 53 52  1  0
 54 65  2  0
 55 53  1  0
 55 60  1  0
 56 64  1  0
 56 66  1  0
 57 63  1  0
 57 59  1  0
 58 64  1  0
 59 60  2  0
 59 58  1  0
 61 55  2  0
 62 61  1  0
 62 57  2  0
 63 56  1  0
 64 54  1  0
 66 68  2  0
 67 66  1  0
 69 67  1  0
 70 79  2  0
 70 75  1  0
 71 67  1  0
 71 75  1  0
 72 71  1  0
 73 74  1  0
 73 72  1  0
 74 70  1  0
 75 76  2  0
 76 77  1  0
 78 77  2  0
 79 78  1  0
 80 54  1  0
 80 81  1  0
 80 90  1  0
 81 84  1  0
 82 86  1  0
 82 81  1  0
 83 82  2  0
 86 85  1  0
 88 86  1  0
 88 89  1  0
 88 87  1  0
 90 93  1  1
 90 91  1  0
 92 90  1  0
M  ISO  4  14 100  22 100  52 101  53 101
M  END
>  <TORSDO>  (46) 
F 18

>  <SCORE>  (46) 
-15.306

>  <name>  (46) 
45

>  <ligand_id>  (46) 
45

>  <original_smiles>  (46) 
[H]c1c([H])c([H])c2c(c1[H])C([H])([H])C([H])([H])C([H])([H])C2([H])N([H])C(=O)C1([H])N(C(=O)C([H])(N([H])C(=O)C([H])(N([H])C([H])([H])[H])C([H])([H])[H])C(C([H])([H])[H])(C([H])([H])[H])C([H])([H])[H])C([H])([H])c2c([H])c(OC([H])([H])C3(C([H])([H])[H])c4c([H])c(C([H])([H])N([H])C(=O)N5C([H])([H])C([H])([H])C([H])([H])C([H])(n6nc(-c7c([H])c([H])c(Oc8c([H])c([H])c(F)c([H])c8F)c([H])c7[H])c(C(=O)N([H])[H])c6N([H])[H])C5([H])[H])c([H])c([H])c4C([H])([H])[N+]3([H])[H])c([H])c([H])c2C1([H])[H]

>  <smiles>  (46) 
[H]c1c([H])c([H])c2c(c1[H])C([H])([H])C([H])([H])C([H])([H])C2([H])N([H])C(=O)C1([H])N(C(=O)C([H])(N([H])C(=O)C([H])(N([H])C([H])([H])[H])C([H])([H])[H])C(C([H])([H])[H])(C([H])([H])[H])C([H])([H])[H])C([H])([H])c2c([H])c(OC([H])([H])C3(C([H])([H])[H])c4c([H])c(C([H])([H])N([H])C(=O)N5C([H])([H])C([H])([H])C([H])([H])C([H])(n6nc(-c7c([H])c([H])c(Oc8c([H])c([H])c(F)c([H])c8F)c([H])c7[H])c(C(=O)N([H])[H])c6N([H])[H])C5([H])[H])c([H])c([H])c4C([H])([H])[N+]3([H])[H])c([H])c([H])c2C1([H])[H]

$$$$
46:0:0
     RDKit          3D

 97106  0  0  1  0  0  0  0  0999 V2000
  -32.3800  -25.5180   20.3410 C   0  0  0  0  0  3  0  0  0  0  0  0
  -32.7840  -24.2620   19.8630 C   0  0  0  0  0  3  0  0  0  0  0  0
  -32.2570  -22.1150   18.8610 C   0  0  0  0  0  3  0  0  0  0  0  0
  -31.0260  -25.8890   20.2790 C   0  0  0  0  0  3  0  0  0  0  0  0
  -31.3260  -21.1980   18.3440 C   0  0  0  0  0  3  0  0  0  0  0  0
  -29.5280  -22.7840   18.7930 C   0  0  0  0  0  3  0  0  0  0  0  0
  -31.8300  -23.3680   19.3420 C   0  0  0  0  0  0  0  0  0  0  0  0
  -30.4560  -23.7270   19.2950 C   0  0  0  0  0  0  0  0  0  0  0  0
  -29.9510  -21.5170   18.3320 C   0  0  0  0  0  0  0  0  0  0  0  0
  -30.0490  -25.0120   19.7480 C   0  0  0  0  0  0  0  0  0  0  0  0
  -28.9050  -20.5340   17.8160 C   0  0  0  0  0  2  0  0  0  0  0  0
  -29.2360  -19.0380   17.9830 C   0  0  0  0  0  2  0  0  0  0  0  0
  -29.5160  -18.6540   19.3870 N   0  0  0  0  0  4  0  0  0  0  0  0
  -28.7810  -19.0150   19.9740 H   0  0  0  0  0  0  0  0  0  0  0  0
  -30.3790  -19.0870   19.6770 H   0  0  0  0  0  0  0  0  0  0  0  0
  -29.6090  -17.1920   19.5830 C   0  0  0  0  0  2  0  0  0  0  0  0
  -30.0840  -16.7890   20.9980 C   0  0  0  0  0  2  0  0  0  0  0  0
  -30.6660  -14.4020   20.5670 C   0  0  0  0  0  0  0  0  0  0  0  0
  -30.3780  -12.2770   19.3590 C   0  0  0  0  0  2  0  0  0  0  0  0
  -29.4430  -12.5250   18.1540 C   0  0  0  0  0  2  0  0  0  0  0  0
  -27.9630  -12.3980   18.5680 C   0  0  0  0  0  2  0  0  0  0  0  0
  -27.6260  -13.2130   19.8450 C   0  0  0  0  0  3  0  0  0  0  0  0
  -28.6660  -12.9250   20.9550 C   0  0  0  0  0  2  0  0  0  0  0  0
  -30.0060  -13.2250   20.4170 N   0  0  0  0  0  0  0  0  0  0  0  0
  -31.7490  -14.6590   20.0340 O   0  0  0  0  0  0  0  0  0  0  0  0
  -29.9500  -15.3460   21.1890 N   0  0  0  0  0  0  0  0  0  0  0  0
  -29.1000  -15.0280   21.6300 H   0  0  0  0  0  0  0  0  0  0  0  0
  -25.2220  -13.8490   20.5240 C   0  0  0  0  0  0  0  0  0  0  0  0
  -24.1410  -13.0860   20.8770 C   0  0  0  0  0  0  0  0  0  0  0  0
  -24.5870  -11.7300   20.8370 C   0  0  0  0  0  0  0  0  0  0  0  0
  -26.2610  -12.9570   20.3000 N   0  0  0  0  0  0  0  0  0  0  0  0
  -25.8790  -11.6770   20.5410 N   0  0  0  0  0  0  0  0  0  0  0  0
  -23.8470  -10.4740   21.0100 C   0  0  0  0  0  0  0  0  0  0  0  0
  -24.2900   -9.4720   21.9010 C   0  0  0  0  0  3  0  0  0  0  0  0
  -23.5510   -8.2800   22.0610 C   0  0  0  0  0  3  0  0  0  0  0  0
  -22.3560   -8.0820   21.3320 C   0  0  0  0  0  0  0  0  0  0  0  0
  -21.9320   -9.0740   20.4290 C   0  0  0  0  0  3  0  0  0  0  0  0
  -22.6710  -10.2570   20.2660 C   0  0  0  0  0  3  0  0  0  0  0  0
  -21.5870   -6.9460   21.4040 O   0  0  0  0  0  0  0  0  0  0  0  0
  -21.5890   -6.1480   22.5190 C   0  0  0  0  0  0  0  0  0  0  0  0
  -21.2730   -6.6520   23.8000 C   0  0  0  0  0  3  0  0  0  0  0  0
  -21.2180   -5.7820   24.9060 C   0  0  0  0  0  3  0  0  0  0  0  0
  -21.4700   -4.4070   24.7340 C   0  0  0  0  0  0  0  0  0  0  0  0
  -21.7800   -3.9020   23.4590 C   0  0  0  0  0  3  0  0  0  0  0  0
  -21.8360   -4.7690   22.3550 C   0  0  0  0  0  0  0  0  0  0  0  0
  -22.1150   -4.2740   21.1250 F   0  0  0  0  0  0  0  0  0  0  0  0
  -21.4120   -3.5680   25.7950 F   0  0  0  0  0  0  0  0  0  0  0  0
  -22.7470  -13.5770   21.1420 C   0  0  0  0  0  0  0  0  0  0  0  0
  -22.0070  -12.8820   22.0000 N   0  0  0  0  0  0  0  0  0  0  0  0
  -22.3220  -14.6090   20.6260 O   0  0  0  0  0  0  0  0  0  0  0  0
  -22.3630  -12.0460   22.4390 H   0  0  0  0  0  0  0  0  0  0  0  0
  -21.0700  -13.1910   22.2220 H   0  0  0  0  0  0  0  0  0  0  0  0
  -25.4030  -15.2180   20.3580 N   0  0  0  0  0  0  0  0  0  0  0  0
  -24.6370  -15.8760   20.4600 H   0  0  0  0  0  0  0  0  0  0  0  0
  -26.2560  -15.6510   20.0290 H   0  0  0  0  0  0  0  0  0  0  0  0
  -28.5930  -25.4790   19.6600 C   0  0  0  0  0  2  0  0  0  0  0  0
  -28.4540  -26.8220   20.1130 O   0  0  0  0  0  0  0  0  0  0  0  0
  -24.6200  -31.8780   23.2210 C   0  0  0  0  0  0  0  0  0  0  0  0
  -27.2330  -27.4530   20.1120 C   0  0  0  0  0  0  0  0  0  0  0  0
  -23.3880  -30.4730   21.5970 C   0  0  0  0  0  3  0  0  0  0  0  0
  -24.8210  -28.9260   20.1590 C   0  0  0  0  0  0  0  0  0  0  0  0
  -25.9050  -30.8380   21.3600 C   0  0  0  0  0  2  0  0  0  0  0  0
  -25.9810  -29.4640   20.7270 C   0  0  0  0  0  0  0  0  0  0  0  0
  -27.1840  -28.7330   20.7020 C   0  0  0  0  0  3  0  0  0  0  0  0
  -26.0540  -26.9110   19.5510 C   0  0  0  0  0  3  0  0  0  0  0  0
  -24.8500  -27.6470   19.5720 C   0  0  0  0  0  3  0  0  0  0  0  0
  -23.5760  -29.7830   20.2180 C   0  0  0  0  0  2  0  0  0  0  0  0
  -24.6560  -31.0780   22.1180 N   0  0  0  0  0  0  0  0  0  0  0  0
  -23.5480  -32.1530   23.7760 O   0  0  0  0  0  0  0  0  0  0  0  0
  -22.7500  -29.4570   22.5710 C   0  0  0  0  0  0  0  0  0  0  0  0
  -21.4250  -29.2750   22.4580 N   0  0  0  0  0  0  0  0  0  0  0  0
  -23.4430  -28.8350   23.3800 O   0  0  0  0  0  0  0  0  0  0  0  0
  -20.9280  -29.8290   21.7750 H   0  0  0  0  0  0  0  0  0  0  0  0
  -18.0580  -28.0730   22.9770 C   0  0  0  0  0  0  0  0  0  0  0  0
  -20.6160  -28.3410   23.2400 C   0  0  0  0  0  3  0  0  0  0  0  0
  -20.7220  -26.9070   22.6740 C   0  0  0  0  0  2  0  0  0  0  0  0
  -19.6180  -26.5720   21.6660 C   0  0  0  0  0  2  0  0  0  0  0  0
  -18.2370  -26.7180   22.3130 C   0  0  0  0  0  2  0  0  0  0  0  0
  -19.1760  -28.8420   23.3980 C   0  0  0  0  0  0  0  0  0  0  0  0
  -18.9560  -30.1110   23.9760 C   0  0  0  0  0  3  0  0  0  0  0  0
  -17.6500  -30.6100   24.1410 C   0  0  0  0  0  3  0  0  0  0  0  0
  -16.5470  -29.8380   23.7370 C   0  0  0  0  0  3  0  0  0  0  0  0
  -16.7520  -28.5720   23.1620 C   0  0  0  0  0  3  0  0  0  0  0  0
  -25.9170  -32.5070   23.8220 C   0  0  0  0  0  3  0  0  0  0  0  0
  -25.6100  -33.8970   24.1790 N   0  0  0  0  0  0  0  0  0  0  0  0
  -25.9180  -34.9610   23.4240 C   0  0  0  0  0  0  0  0  0  0  0  0
  -26.5610  -34.8750   22.3760 O   0  0  0  0  0  0  0  0  0  0  0  0
  -25.0350  -34.0380   24.9970 H   0  0  0  0  0  0  0  0  0  0  0  0
  -24.1630  -36.7390   23.1450 C   0  0  0  0  0  1  0  0  0  0  0  0
  -25.4320  -36.3400   23.9110 C   0  0  0  0  0  3  0  0  0  0  0  0
  -27.5890  -37.2320   24.6750 C   0  0  0  0  0  1  0  0  0  0  0  0
  -26.4520  -37.4040   23.7750 N   0  0  0  0  0  0  0  0  0  0  0  0
  -26.0450  -38.3180   23.9490 H   0  0  0  0  0  0  0  0  0  0  0  0
  -26.4700  -31.7170   25.0720 C   0  0  1  0  0  0  0  0  0  0  0  0
  -25.4060  -31.4590   26.1630 C   0  0  0  0  0  1  0  0  0  0  0  0
  -27.0450  -30.3480   24.6400 C   0  0  0  0  0  1  0  0  0  0  0  0
  -27.6350  -32.5050   25.7160 C   0  0  0  0  0  1  0  0  0  0  0  0
  2  1  2  0
  3  7  1  0
  4  1  1  0
  5  3  2  0
  6  8  1  0
  7  2  1  0
  8  7  2  0
  8 10  1  0
  9  5  1  0
  9  6  2  0
 10  4  2  0
 11 12  1  0
 11  9  1  0
 12 13  1  0
 13 16  1  0
 13 15  1  0
 13 14  1  0
 16 17  1  0
 17 26  1  0
 18 26  1  0
 19 24  1  0
 20 21  1  0
 20 19  1  0
 22 21  1  0
 22 31  1  0
 22 23  1  0
 24 18  1  0
 24 23  1  0
 25 18  2  0
 26 27  1  0
 28 29  2  0
 29 48  1  0
 30 29  1  0
 30 33  1  0
 31 28  1  0
 31 32  1  0
 32 30  2  0
 33 34  1  0
 34 35  2  0
 36 39  1  0
 36 35  1  0
 37 36  2  0
 38 37  1  0
 38 33  2  0
 39 40  1  0
 40 41  1  0
 41 42  2  0
 43 42  1  0
 43 47  1  0
 44 43  2  0
 45 40  2  0
 45 44  1  0
 46 45  1  0
 48 49  1  0
 49 52  1  0
 49 51  1  0
 50 48  2  0
 53 54  1  0
 53 28  1  0
 55 53  1  0
 56 10  1  0
 56 57  1  0
 58 69  2  0
 59 57  1  0
 59 64  1  0
 60 68  1  0
 60 70  1  0
 61 67  1  0
 61 63  1  0
 62 68  1  0
 63 62  1  0
 64 63  2  0
 65 66  1  0
 65 59  2  0
 66 61  2  0
 67 60  1  0
 68 58  1  0
 70 72  2  0
 71 70  1  0
 73 71  1  0
 74 83  2  0
 74 79  1  0
 75 71  1  0
 75 79  1  0
 76 75  1  0
 77 78  1  0
 77 76  1  0
 78 74  1  0
 79 80  2  0
 80 81  1  0
 82 81  2  0
 83 82  1  0
 84 58  1  0
 84 85  1  0
 84 94  1  0
 85 88  1  0
 86 90  1  0
 86 85  1  0
 87 86  2  0
 90 89  1  0
 92 90  1  0
 92 93  1  0
 92 91  1  0
 94 97  1  1
 94 95  1  0
 96 94  1  0
M  ISO  4  18 100  26 100  56 101  57 101
M  END
>  <TORSDO>  (47) 
F 22

>  <SCORE>  (47) 
-13.043

>  <name>  (47) 
46

>  <ligand_id>  (47) 
46

>  <original_smiles>  (47) 
[H]c1c([H])c([H])c2c(c1[H])C([H])([H])C([H])([H])C([H])([H])C2([H])N([H])C(=O)C1([H])N(C(=O)C([H])(N([H])C(=O)C([H])(N([H])C([H])([H])[H])C([H])([H])[H])C(C([H])([H])[H])(C([H])([H])[H])C([H])([H])[H])C([H])([H])c2c([H])c(OC([H])([H])c3c([H])c([H])c([H])c4c([H])c([H])c(C([H])([H])C([H])([H])[N+]([H])([H])C([H])([H])C([H])([H])N([H])C(=O)N5C([H])([H])C([H])([H])C([H])([H])C([H])(n6nc(-c7c([H])c([H])c(Oc8c([H])c([H])c(F)c([H])c8F)c([H])c7[H])c(C(=O)N([H])[H])c6N([H])[H])C5([H])[H])c([H])c34)c([H])c([H])c2C1([H])[H]

>  <smiles>  (47) 
[H]c1c([H])c([H])c2c(c1[H])C([H])([H])C([H])([H])C([H])([H])C2([H])N([H])C(=O)C1([H])N(C(=O)C([H])(N([H])C(=O)C([H])(N([H])C([H])([H])[H])C([H])([H])[H])C(C([H])([H])[H])(C([H])([H])[H])C([H])([H])[H])C([H])([H])c2c([H])c(OC([H])([H])c3c([H])c([H])c([H])c4c([H])c([H])c(C([H])([H])C([H])([H])[N+]([H])([H])C([H])([H])C([H])([H])N([H])C(=O)N5C([H])([H])C([H])([H])C([H])([H])C([H])(n6nc(-c7c([H])c([H])c(Oc8c([H])c([H])c(F)c([H])c8F)c([H])c7[H])c(C(=O)N([H])[H])c6N([H])[H])C5([H])[H])c([H])c34)c([H])c([H])c2C1([H])[H]

$$$$
47:0:0
     RDKit          3D

 90 98  0  0  1  0  0  0  0  0999 V2000
  -31.4070  -22.9540   20.4320 C   0  0  0  0  0  3  0  0  0  0  0  0
  -30.4790  -24.0250   20.3470 C   0  0  0  0  0  3  0  0  0  0  0  0
  -31.0040  -21.5960   20.4120 C   0  0  0  0  0  3  0  0  0  0  0  0
  -28.7200  -22.3590   20.1820 C   0  0  0  0  0  3  0  0  0  0  0  0
  -29.0960  -23.7610   20.2280 C   0  0  0  0  0  0  0  0  0  0  0  0
  -29.6430  -21.2460   20.2760 C   0  0  0  0  0  0  0  0  0  0  0  0
  -29.2290  -19.8600   20.1800 N   0  0  0  0  0  0  0  0  0  0  0  0
  -28.2230  -19.7480   20.0800 H   0  0  0  0  0  0  0  0  0  0  0  0
  -29.9170  -18.6280   20.7450 C   0  0  0  0  0  2  0  0  0  0  0  0
  -29.9630  -17.2790   19.8560 C   0  0  0  0  0  2  0  0  0  0  0  0
  -30.5810  -14.7530   20.3020 C   0  0  0  0  0  0  0  0  0  0  0  0
  -30.3660  -12.4690   19.3220 C   0  0  0  0  0  2  0  0  0  0  0  0
  -29.4240  -12.5290   18.0970 C   0  0  0  0  0  2  0  0  0  0  0  0
  -27.9520  -12.3760   18.5290 C   0  0  0  0  0  2  0  0  0  0  0  0
  -27.5870  -13.2710   19.7450 C   0  0  0  0  0  3  0  0  0  0  0  0
  -28.6460  -13.1910   20.8650 C   0  0  0  0  0  2  0  0  0  0  0  0
  -29.9490  -13.5270   20.2710 N   0  0  0  0  0  0  0  0  0  0  0  0
  -31.7560  -14.8480   19.9390 O   0  0  0  0  0  0  0  0  0  0  0  0
  -29.8080  -15.8900   20.4810 N   0  0  0  0  0  0  0  0  0  0  0  0
  -28.8780  -15.6990   20.8220 H   0  0  0  0  0  0  0  0  0  0  0  0
  -25.2060  -13.8790   20.4860 C   0  0  0  0  0  0  0  0  0  0  0  0
  -24.1360  -13.1120   20.8640 C   0  0  0  0  0  0  0  0  0  0  0  0
  -24.5940  -11.7590   20.8400 C   0  0  0  0  0  0  0  0  0  0  0  0
  -26.2420  -12.9940   20.2420 N   0  0  0  0  0  0  0  0  0  0  0  0
  -25.8820  -11.7130   20.5190 N   0  0  0  0  0  0  0  0  0  0  0  0
  -23.8610  -10.5020   21.0410 C   0  0  0  0  0  0  0  0  0  0  0  0
  -24.3040   -9.5240   21.9580 C   0  0  0  0  0  3  0  0  0  0  0  0
  -23.5670   -8.3340   22.1480 C   0  0  0  0  0  3  0  0  0  0  0  0
  -22.3730   -8.1150   21.4200 C   0  0  0  0  0  0  0  0  0  0  0  0
  -21.9510   -9.0810   20.4880 C   0  0  0  0  0  3  0  0  0  0  0  0
  -22.6900  -10.2620   20.2960 C   0  0  0  0  0  3  0  0  0  0  0  0
  -21.6070   -6.9800   21.5200 O   0  0  0  0  0  0  0  0  0  0  0  0
  -21.5950   -6.2170   22.6610 C   0  0  0  0  0  0  0  0  0  0  0  0
  -21.2460   -6.7590   23.9170 C   0  0  0  0  0  3  0  0  0  0  0  0
  -21.1780   -5.9250   25.0500 C   0  0  0  0  0  3  0  0  0  0  0  0
  -21.4510   -4.5490   24.9290 C   0  0  0  0  0  0  0  0  0  0  0  0
  -21.7940   -4.0070   23.6780 C   0  0  0  0  0  3  0  0  0  0  0  0
  -21.8640   -4.8390   22.5480 C   0  0  0  0  0  0  0  0  0  0  0  0
  -22.1730   -4.3060   21.3410 F   0  0  0  0  0  0  0  0  0  0  0  0
  -21.3790   -3.7440   26.0160 F   0  0  0  0  0  0  0  0  0  0  0  0
  -22.7410  -13.6020   21.1290 C   0  0  0  0  0  0  0  0  0  0  0  0
  -22.0080  -12.9200   22.0030 N   0  0  0  0  0  0  0  0  0  0  0  0
  -22.3090  -14.6220   20.5960 O   0  0  0  0  0  0  0  0  0  0  0  0
  -22.3730  -12.1010   22.4640 H   0  0  0  0  0  0  0  0  0  0  0  0
  -21.0680  -13.2250   22.2150 H   0  0  0  0  0  0  0  0  0  0  0  0
  -25.3730  -15.2480   20.3050 N   0  0  0  0  0  0  0  0  0  0  0  0
  -24.6080  -15.9000   20.4480 H   0  0  0  0  0  0  0  0  0  0  0  0
  -26.2140  -15.6910   19.9570 H   0  0  0  0  0  0  0  0  0  0  0  0
  -28.0120  -24.9140   20.1020 C   0  0  0  0  0  2  0  0  0  0  0  0
  -28.3080  -26.3850   20.1760 O   0  0  0  0  0  0  0  0  0  0  0  0
  -24.5950  -31.8560   23.2180 C   0  0  0  0  0  0  0  0  0  0  0  0
  -27.1990  -27.2710   20.1360 C   0  0  0  0  0  0  0  0  0  0  0  0
  -23.3830  -30.4580   21.5890 C   0  0  0  0  0  3  0  0  0  0  0  0
  -24.8290  -28.9070   20.1530 C   0  0  0  0  0  0  0  0  0  0  0  0
  -25.9290  -30.7630   21.3940 C   0  0  0  0  0  2  0  0  0  0  0  0
  -26.0080  -29.3870   20.7390 C   0  0  0  0  0  0  0  0  0  0  0  0
  -27.1940  -28.5860   20.7150 C   0  0  0  0  0  3  0  0  0  0  0  0
  -25.9890  -26.8590   19.5240 C   0  0  0  0  0  3  0  0  0  0  0  0
  -24.8250  -27.6510   19.5340 C   0  0  0  0  0  3  0  0  0  0  0  0
  -23.5920  -29.7840   20.2100 C   0  0  0  0  0  2  0  0  0  0  0  0
  -24.6570  -31.0420   22.1240 N   0  0  0  0  0  0  0  0  0  0  0  0
  -23.5150  -32.1390   23.7550 O   0  0  0  0  0  0  0  0  0  0  0  0
  -22.7210  -29.4430   22.5520 C   0  0  0  0  0  0  0  0  0  0  0  0
  -21.3920  -29.2740   22.4360 N   0  0  0  0  0  0  0  0  0  0  0  0
  -23.4020  -28.8130   23.3650 O   0  0  0  0  0  0  0  0  0  0  0  0
  -20.9040  -29.8270   21.7450 H   0  0  0  0  0  0  0  0  0  0  0  0
  -18.0130  -28.0930   22.9590 C   0  0  0  0  0  0  0  0  0  0  0  0
  -20.5740  -28.3410   23.2130 C   0  0  0  0  0  3  0  0  0  0  0  0
  -20.6660  -26.9090   22.6390 C   0  0  0  0  0  2  0  0  0  0  0  0
  -19.5550  -26.5890   21.6350 C   0  0  0  0  0  2  0  0  0  0  0  0
  -18.1780  -26.7410   22.2860 C   0  0  0  0  0  2  0  0  0  0  0  0
  -19.1370  -28.8520   23.3810 C   0  0  0  0  0  0  0  0  0  0  0  0
  -18.9240  -30.1150   23.9730 C   0  0  0  0  0  3  0  0  0  0  0  0
  -17.6220  -30.6190   24.1470 C   0  0  0  0  0  3  0  0  0  0  0  0
  -16.5130  -29.8590   23.7390 C   0  0  0  0  0  3  0  0  0  0  0  0
  -16.7090  -28.5970   23.1480 C   0  0  0  0  0  3  0  0  0  0  0  0
  -25.8800  -32.4860   23.8360 C   0  0  0  0  0  3  0  0  0  0  0  0
  -26.4060  -31.7050   25.1030 C   0  0  1  0  0  0  0  0  0  0  0  0
  -25.3210  -31.4620   26.1780 C   0  0  0  0  0  1  0  0  0  0  0  0
  -26.9840  -30.3290   24.6980 C   0  0  0  0  0  1  0  0  0  0  0  0
  -27.5630  -32.4970   25.7590 C   0  0  0  0  0  1  0  0  0  0  0  0
  -25.5680  -33.8800   24.1810 N   0  0  0  0  0  0  0  0  0  0  0  0
  -25.8830  -34.9410   23.4260 C   0  0  0  0  0  0  0  0  0  0  0  0
  -26.5380  -34.8470   22.3840 O   0  0  0  0  0  0  0  0  0  0  0  0
  -24.9860  -34.0280   24.9910 H   0  0  0  0  0  0  0  0  0  0  0  0
  -24.1350  -36.7240   23.1210 C   0  0  0  0  0  1  0  0  0  0  0  0
  -25.3970  -36.3220   23.9030 C   0  0  0  0  0  3  0  0  0  0  0  0
  -27.5440  -37.2130   24.6930 C   0  0  0  0  0  1  0  0  0  0  0  0
  -26.4190  -37.3820   23.7770 N   0  0  0  0  0  0  0  0  0  0  0  0
  -26.0100  -38.2990   23.9390 H   0  0  0  0  0  0  0  0  0  0  0  0
  2  1  2  0
  3  1  1  0
  4  5  2  0
  4  6  1  0
  5  2  1  0
  6  3  2  0
  7  6  1  0
  7  9  1  0
  8  7  1  0
 10 19  1  0
 10  9  1  0
 11 19  1  0
 12 17  1  0
 13 14  1  0
 13 12  1  0
 15 14  1  0
 15 24  1  0
 15 16  1  0
 17 11  1  0
 17 16  1  0
 18 11  2  0
 19 20  1  0
 21 22  2  0
 22 41  1  0
 23 22  1  0
 23 26  1  0
 24 21  1  0
 24 25  1  0
 25 23  2  0
 26 27  1  0
 27 28  2  0
 29 32  1  0
 29 28  1  0
 30 29  2  0
 31 30  1  0
 31 26  2  0
 32 33  1  0
 33 34  1  0
 34 35  2  0
 36 35  1  0
 36 40  1  0
 37 36  2  0
 38 33  2  0
 38 37  1  0
 39 38  1  0
 41 42  1  0
 42 45  1  0
 42 44  1  0
 43 41  2  0
 46 47  1  0
 46 21  1  0
 48 46  1  0
 49 50  1  0
 49  5  1  0
 51 62  2  0
 52 50  1  0
 52 57  1  0
 53 61  1  0
 53 63  1  0
 54 60  1  0
 54 56  1  0
 55 61  1  0
 56 55  1  0
 57 56  2  0
 58 59  1  0
 58 52  2  0
 59 54  2  0
 60 53  1  0
 61 51  1  0
 63 65  2  0
 64 63  1  0
 66 64  1  0
 67 76  2  0
 67 72  1  0
 68 64  1  0
 68 72  1  0
 69 68  1  0
 70 71  1  0
 70 69  1  0
 71 67  1  0
 72 73  2  0
 73 74  1  0
 75 74  2  0
 76 75  1  0
 77 51  1  0
 77 82  1  0
 77 78  1  0
 78 81  1  1
 78 79  1  0
 80 78  1  0
 82 85  1  0
 83 87  1  0
 83 82  1  0
 84 83  2  0
 87 86  1  0
 89 87  1  0
 89 90  1  0
 89 88  1  0
M  ISO  4  11 100  19 100  49 101  50 101
M  END
>  <TORSDO>  (48) 
F 20

>  <SCORE>  (48) 
-13.704

>  <name>  (48) 
47

>  <ligand_id>  (48) 
47

>  <original_smiles>  (48) 
[H]c1c([H])c(N([H])C([H])([H])C([H])([H])N([H])C(=O)N2C([H])([H])C([H])([H])C([H])([H])C([H])(n3nc(-c4c([H])c([H])c(Oc5c([H])c([H])c(F)c([H])c5F)c([H])c4[H])c(C(=O)N([H])[H])c3N([H])[H])C2([H])[H])c([H])c(C([H])([H])Oc2c([H])c([H])c3c(c2[H])C([H])([H])N(C(=O)C([H])(N([H])C(=O)C([H])(N([H])C([H])([H])[H])C([H])([H])[H])C(C([H])([H])[H])(C([H])([H])[H])C([H])([H])[H])C([H])(C(=O)N([H])C2([H])c4c([H])c([H])c([H])c([H])c4C([H])([H])C([H])([H])C2([H])[H])C3([H])[H])c1[H]

>  <smiles>  (48) 
[H]c1c([H])c(N([H])C([H])([H])C([H])([H])N([H])C(=O)N2C([H])([H])C([H])([H])C([H])([H])C([H])(n3nc(-c4c([H])c([H])c(Oc5c([H])c([H])c(F)c([H])c5F)c([H])c4[H])c(C(=O)N([H])[H])c3N([H])[H])C2([H])[H])c([H])c(C([H])([H])Oc2c([H])c([H])c3c(c2[H])C([H])([H])N(C(=O)C([H])(N([H])C(=O)C([H])(N([H])C([H])([H])[H])C([H])([H])[H])C(C([H])([H])[H])(C([H])([H])[H])C([H])([H])[H])C([H])(C(=O)N([H])C2([H])c4c([H])c([H])c([H])c([H])c4C([H])([H])C([H])([H])C2([H])[H])C3([H])[H])c1[H]

$$$$
48:0:0
     RDKit          3D

104112  0  0  1  0  0  0  0  0999 V2000
  -25.8140  -19.4080   18.8370 C   0  0  0  0  0  1  0  0  0  0  0  0
  -27.3410  -19.5930   18.7910 C   0  0  0  0  0  3  0  0  0  0  0  0
  -27.9440  -18.8090   17.6880 N   0  0  0  0  0  4  0  0  0  0  0  0
  -28.6560  -18.2010   18.0660 H   0  0  0  0  0  0  0  0  0  0  0  0
  -27.2230  -18.2390   17.2750 H   0  0  0  0  0  0  0  0  0  0  0  0
  -28.5410  -19.6040   16.5950 C   0  0  0  0  0  2  0  0  0  0  0  0
  -32.7270  -18.5570   16.0310 C   0  0  0  0  0  3  0  0  0  0  0  0
  -30.5720  -19.2070   15.1080 C   0  0  0  0  0  3  0  0  0  0  0  0
  -30.8560  -19.0450   17.5190 C   0  0  0  0  0  3  0  0  0  0  0  0
  -31.9010  -18.7570   14.9040 C   0  0  0  0  0  0  0  0  0  0  0  0
  -32.2200  -18.6980   17.3430 C   0  0  0  0  0  0  0  0  0  0  0  0
  -30.0270  -19.3010   16.4050 C   0  0  0  0  0  0  0  0  0  0  0  0
  -32.4410  -18.4870   13.5150 C   0  0  0  0  0  0  0  0  0  0  0  0
  -32.3830  -18.9810   11.0870 C   0  0  0  0  0  2  0  0  0  0  0  0
  -33.3220  -20.1420   10.6990 C   0  0  0  0  0  2  0  0  0  0  0  0
  -32.6360  -21.5050   10.9000 C   0  0  0  0  0  2  0  0  0  0  0  0
  -31.9730  -21.6240   12.2950 C   0  0  0  0  0  3  0  0  0  0  0  0
  -31.0760  -20.3930   12.5560 C   0  0  0  0  0  2  0  0  0  0  0  0
  -31.9310  -19.1970   12.4690 N   0  0  0  0  0  0  0  0  0  0  0  0
  -33.2800  -17.5880   13.3690 O   0  0  0  0  0  0  0  0  0  0  0  0
  -31.5930  -24.0350   13.0990 C   0  0  0  0  0  0  0  0  0  0  0  0
  -30.5680  -24.9190   12.8760 C   0  0  0  0  0  0  0  0  0  0  0  0
  -29.6250  -24.2300   12.0560 C   0  0  0  0  0  0  0  0  0  0  0  0
  -31.2350  -22.8720   12.4360 N   0  0  0  0  0  0  0  0  0  0  0  0
  -30.0180  -22.9820   11.8510 N   0  0  0  0  0  0  0  0  0  0  0  0
  -28.3980  -24.7020   11.4020 C   0  0  0  0  0  0  0  0  0  0  0  0
  -27.1270  -24.4850   11.9770 C   0  0  0  0  0  3  0  0  0  0  0  0
  -25.9630  -24.9550   11.3350 C   0  0  0  0  0  3  0  0  0  0  0  0
  -26.0590  -25.6560   10.1100 C   0  0  0  0  0  0  0  0  0  0  0  0
  -27.3250  -25.8480    9.5300 C   0  0  0  0  0  3  0  0  0  0  0  0
  -28.4830  -25.3740   10.1680 C   0  0  0  0  0  3  0  0  0  0  0  0
  -24.9800  -26.1280    9.4030 O   0  0  0  0  0  0  0  0  0  0  0  0
  -24.0890  -27.0110    9.9580 C   0  0  0  0  0  0  0  0  0  0  0  0
  -24.4180  -28.3690   10.1680 C   0  0  0  0  0  3  0  0  0  0  0  0
  -23.4530  -29.2570   10.6840 C   0  0  0  0  0  3  0  0  0  0  0  0
  -22.1550  -28.7950   10.9730 C   0  0  0  0  0  0  0  0  0  0  0  0
  -21.8220  -27.4460   10.7570 C   0  0  0  0  0  3  0  0  0  0  0  0
  -22.7870  -26.5580   10.2490 C   0  0  0  0  0  0  0  0  0  0  0  0
  -22.4560  -25.2640   10.0260 F   0  0  0  0  0  0  0  0  0  0  0  0
  -21.2240  -29.6510   11.4580 F   0  0  0  0  0  0  0  0  0  0  0  0
  -30.5160  -26.3540   13.3050 C   0  0  0  0  0  0  0  0  0  0  0  0
  -29.3180  -26.8810   13.5310 N   0  0  0  0  0  0  0  0  0  0  0  0
  -31.5480  -26.9970   13.4920 O   0  0  0  0  0  0  0  0  0  0  0  0
  -28.4770  -26.3420   13.3870 H   0  0  0  0  0  0  0  0  0  0  0  0
  -29.2360  -27.8300   13.8660 H   0  0  0  0  0  0  0  0  0  0  0  0
  -32.8050  -24.1300   13.7770 N   0  0  0  0  0  0  0  0  0  0  0  0
  -33.0290  -25.1130   13.8840 H   0  0  0  0  0  0  0  0  0  0  0  0
  -33.5390  -23.6620   13.2570 H   0  0  0  0  0  0  0  0  0  0  0  0
  -33.1430  -18.3910   18.5310 C   0  0  0  0  0  2  0  0  0  0  0  0
  -32.9770  -19.2890   19.6940 N   0  0  0  0  0  4  0  0  0  0  0  0
  -33.2670  -18.7800   20.5160 H   0  0  0  0  0  0  0  0  0  0  0  0
  -31.9960  -19.4830   19.8020 H   0  0  0  0  0  0  0  0  0  0  0  0
  -32.9310  -21.7280   20.2170 C   0  0  0  0  0  1  0  0  0  0  0  0
  -33.7460  -20.5530   19.6570 C   0  0  0  0  0  2  0  0  0  0  0  0
  -27.7570  -21.0810   18.6910 C   0  0  0  0  0  2  0  0  0  0  0  0
  -28.6240  -21.5220   19.8880 C   0  0  0  0  0  2  0  0  0  0  0  0
  -29.0740  -22.9890   19.8620 C   0  0  0  0  0  0  0  0  0  0  0  0
  -29.8190  -23.3970   20.8960 N   0  0  0  0  0  0  0  0  0  0  0  0
  -28.7370  -23.7330   18.9400 O   0  0  0  0  0  0  0  0  0  0  0  0
  -30.0470  -22.6990   21.5910 H   0  0  0  0  0  0  0  0  0  0  0  0
  -30.2910  -24.7600   21.1500 C   0  0  0  0  0  2  0  0  0  0  0  0
  -31.5270  -25.1110   20.2960 C   0  0  0  0  0  2  0  0  0  0  0  0
  -31.6460  -26.6040   19.9040 C   0  0  0  0  0  2  0  0  0  0  0  0
  -31.2480  -26.8380   18.5490 O   0  0  0  0  0  0  0  0  0  0  0  0
  -24.7220  -27.2500   21.3780 C   0  0  0  0  0  0  0  0  0  0  0  0
  -29.9120  -27.0980   18.3690 C   0  0  0  0  0  0  0  0  0  0  0  0
  -24.8450  -27.2720   18.9070 C   0  0  0  0  0  3  0  0  0  0  0  0
  -27.1740  -27.5910   17.9150 C   0  0  0  0  0  0  0  0  0  0  0  0
  -26.7780  -28.1690   20.3140 C   0  0  0  0  0  2  0  0  0  0  0  0
  -27.7090  -27.7410   19.2010 C   0  0  0  0  0  0  0  0  0  0  0  0
  -29.0780  -27.4950   19.4370 C   0  0  0  0  0  3  0  0  0  0  0  0
  -29.3720  -26.9830   17.0730 C   0  0  0  0  0  3  0  0  0  0  0  0
  -28.0020  -27.2110   16.8420 C   0  0  0  0  0  3  0  0  0  0  0  0
  -25.6980  -27.8680   17.7530 C   0  0  0  0  0  2  0  0  0  0  0  0
  -25.4420  -27.5340   20.2560 N   0  0  0  0  0  0  0  0  0  0  0  0
  -23.5640  -26.8180   21.3040 O   0  0  0  0  0  0  0  0  0  0  0  0
  -24.6080  -25.7720   18.6240 C   0  0  0  0  0  0  0  0  0  0  0  0
  -23.3980  -25.4360   18.1500 N   0  0  0  0  0  0  0  0  0  0  0  0
  -25.5090  -24.9450   18.8010 O   0  0  0  0  0  0  0  0  0  0  0  0
  -22.7140  -26.1730   18.0420 H   0  0  0  0  0  0  0  0  0  0  0  0
  -20.4930  -23.4050   17.4610 C   0  0  0  0  0  0  0  0  0  0  0  0
  -22.9640  -24.0920   17.7770 C   0  0  0  0  0  3  0  0  0  0  0  0
  -23.1160  -23.8590   16.2560 C   0  0  0  0  0  2  0  0  0  0  0  0
  -21.8430  -24.1790   15.4660 C   0  0  0  0  0  2  0  0  0  0  0  0
  -20.6770  -23.3150   15.9550 C   0  0  0  0  0  2  0  0  0  0  0  0
  -21.5620  -23.7840   18.3160 C   0  0  0  0  0  0  0  0  0  0  0  0
  -21.3260  -23.8860   19.7040 C   0  0  0  0  0  3  0  0  0  0  0  0
  -20.0530  -23.6150   20.2400 C   0  0  0  0  0  3  0  0  0  0  0  0
  -19.0030  -23.2250   19.3910 C   0  0  0  0  0  3  0  0  0  0  0  0
  -19.2250  -23.1160   18.0070 C   0  0  0  0  0  3  0  0  0  0  0  0
  -25.3120  -27.4760   22.8060 C   0  0  0  0  0  3  0  0  0  0  0  0
  -24.5640  -28.5770   23.4240 N   0  0  0  0  0  0  0  0  0  0  0  0
  -25.0250  -29.8280   23.5480 C   0  0  0  0  0  0  0  0  0  0  0  0
  -26.1680  -30.1600   23.2180 O   0  0  0  0  0  0  0  0  0  0  0  0
  -23.6040  -28.3910   23.6770 H   0  0  0  0  0  0  0  0  0  0  0  0
  -23.4610  -31.7180   22.9920 C   0  0  0  0  0  1  0  0  0  0  0  0
  -24.0680  -30.8840   24.1310 C   0  0  0  0  0  3  0  0  0  0  0  0
  -25.0900  -31.1020   26.3540 C   0  0  0  0  0  1  0  0  0  0  0  0
  -24.7100  -31.7790   25.1170 N   0  0  0  0  0  0  0  0  0  0  0  0
  -24.0930  -32.5480   25.3580 H   0  0  0  0  0  0  0  0  0  0  0  0
  -25.2590  -26.1860   23.7140 C   0  0  1  0  0  0  0  0  0  0  0  0
  -23.9140  -26.0010   24.4560 C   0  0  0  0  0  1  0  0  0  0  0  0
  -25.5120  -24.9140   22.8680 C   0  0  0  0  0  1  0  0  0  0  0  0
  -26.3840  -26.2430   24.7760 C   0  0  0  0  0  1  0  0  0  0  0  0
  2  1  1  0
  3  4  1  0
  3  2  1  0
  5  3  1  0
  6  3  1  0
  7 11  1  0
  8 12  2  0
 10  8  1  0
 10  7  2  0
 11  9  2  0
 11 49  1  0
 12  6  1  0
 12  9  1  0
 13 10  1  0
 14 19  1  0
 15 16  1  0
 15 14  1  0
 17 16  1  0
 17 24  1  0
 17 18  1  0
 19 18  1  0
 19 13  1  0
 20 13  2  0
 21 46  1  0
 22 21  2  0
 22 41  1  0
 23 22  1  0
 24 21  1  0
 25 23  2  0
 25 24  1  0
 26 27  1  0
 26 23  1  0
 28 27  2  0
 29 28  1  0
 30 29  2  0
 30 31  1  0
 31 26  2  0
 32 33  1  0
 32 29  1  0
 33 34  2  0
 33 38  1  0
 34 35  1  0
 35 36  2  0
 36 40  1  0
 37 36  1  0
 38 37  2  0
 39 38  1  0
 41 43  2  0
 41 42  1  0
 42 45  1  0
 44 42  1  0
 46 47  1  0
 48 46  1  0
 49 50  1  0
 50 52  1  0
 50 51  1  0
 54 50  1  0
 54 53  1  0
 55  2  1  0
 55 56  1  0
 57 56  1  0
 57 58  1  0
 58 61  1  0
 58 60  1  0
 59 57  2  0
 62 61  1  0
 63 62  1  0
 64 63  1  0
 66 64  1  0
 66 71  1  0
 67 77  1  0
 67 75  1  0
 68 70  1  0
 70 71  2  0
 70 69  1  0
 72 66  2  0
 73 72  1  0
 73 68  2  0
 74 68  1  0
 74 67  1  0
 75 69  1  0
 75 65  1  0
 76 65  2  0
 77 79  2  0
 78 77  1  0
 80 78  1  0
 81 90  2  0
 81 86  1  0
 82 78  1  0
 82 86  1  0
 83 82  1  0
 84 85  1  0
 84 83  1  0
 85 81  1  0
 86 87  2  0
 87 88  1  0
 89 88  2  0
 90 89  1  0
 91 65  1  0
 91 92  1  0
 91101  1  0
 92 93  1  0
 92 95  1  0
 93 97  1  0
 94 93  2  0
 97 96  1  0
 97 99  1  0
 99100  1  0
 99 98  1  0
101102  1  1
101104  1  0
103101  1  0
M  ISO  4  10 100  13 100  63 101  64 101
M  END
>  <TORSDO>  (49) 
F 28

>  <SCORE>  (49) 
-5.241

>  <name>  (49) 
48

>  <ligand_id>  (49) 
48

>  <original_smiles>  (49) 
[H]c1c([H])c([H])c2c(c1[H])C([H])([H])C([H])([H])C([H])([H])C2([H])N([H])C(=O)C1([H])N(C(=O)C([H])(N([H])C(=O)C([H])(N([H])C([H])([H])[H])C([H])([H])[H])C(C([H])([H])[H])(C([H])([H])[H])C([H])([H])[H])C([H])([H])c2c([H])c(OC([H])([H])C([H])([H])C([H])([H])N([H])C(=O)C([H])([H])C([H])([H])C([H])(C([H])([H])[H])[N+]([H])([H])C([H])([H])c3c([H])c(C(=O)N4C([H])([H])C([H])([H])C([H])([H])C([H])(n5nc(-c6c([H])c([H])c(Oc7c([H])c([H])c(F)c([H])c7F)c([H])c6[H])c(C(=O)N([H])[H])c5N([H])[H])C4([H])[H])c([H])c(C([H])([H])[N+]([H])([H])C([H])([H])C([H])([H])[H])c3[H])c([H])c([H])c2C1([H])[H]

>  <smiles>  (49) 
[H]c1c([H])c([H])c2c(c1[H])C([H])([H])C([H])([H])C([H])([H])C2([H])N([H])C(=O)C1([H])N(C(=O)C([H])(N([H])C(=O)C([H])(N([H])C([H])([H])[H])C([H])([H])[H])C(C([H])([H])[H])(C([H])([H])[H])C([H])([H])[H])C([H])([H])c2c([H])c(OC([H])([H])C([H])([H])C([H])([H])N([H])C(=O)C([H])([H])C([H])([H])C([H])(C([H])([H])[H])[N+]([H])([H])C([H])([H])c3c([H])c(C(=O)N4C([H])([H])C([H])([H])C([H])([H])C([H])(n5nc(-c6c([H])c([H])c(Oc7c([H])c([H])c(F)c([H])c7F)c([H])c6[H])c(C(=O)N([H])[H])c5N([H])[H])C4([H])[H])c([H])c(C([H])([H])[N+]([H])([H])C([H])([H])C([H])([H])[H])c3[H])c([H])c([H])c2C1([H])[H]

$$$$
49:0:0
     RDKit          3D

 93101  0  0  1  0  0  0  0  0999 V2000
  -30.6090  -20.5730   21.6970 C   0  0  0  0  0  3  0  0  0  0  0  0
  -29.0280  -19.8640   19.9910 C   0  0  0  0  0  3  0  0  0  0  0  0
  -30.5710  -21.8930   21.1910 C   0  0  0  0  0  3  0  0  0  0  0  0
  -29.0130  -21.1740   19.4690 C   0  0  0  0  0  3  0  0  0  0  0  0
  -29.8470  -19.5490   21.0910 C   0  0  0  0  0  0  0  0  0  0  0  0
  -29.7960  -22.1920   20.0480 C   0  0  0  0  0  0  0  0  0  0  0  0
  -29.8990  -18.2250   21.5500 N   0  0  0  0  0  0  0  0  0  0  0  0
  -29.0820  -17.6730   21.3030 H   0  0  0  0  0  0  0  0  0  0  0  0
  -31.1400  -17.5350   21.2150 C   0  0  0  0  0  2  0  0  0  0  0  0
  -31.2500  -16.1730   21.9250 C   0  0  0  0  0  2  0  0  0  0  0  0
  -30.8240  -14.3890   20.2250 C   0  0  0  0  0  0  0  0  0  0  0  0
  -30.3860  -12.3400   18.9110 C   0  0  0  0  0  2  0  0  0  0  0  0
  -29.3740  -12.5800   17.7770 C   0  0  0  0  0  2  0  0  0  0  0  0
  -27.9300  -12.4260   18.2900 C   0  0  0  0  0  2  0  0  0  0  0  0
  -27.6710  -13.2350   19.5880 C   0  0  0  0  0  3  0  0  0  0  0  0
  -28.7780  -12.9660   20.6300 C   0  0  0  0  0  2  0  0  0  0  0  0
  -30.0820  -13.2720   20.0090 N   0  0  0  0  0  0  0  0  0  0  0  0
  -31.8110  -14.6880   19.5460 O   0  0  0  0  0  0  0  0  0  0  0  0
  -30.4580  -15.1210   21.2880 N   0  0  0  0  0  0  0  0  0  0  0  0
  -29.6280  -14.8150   21.7730 H   0  0  0  0  0  0  0  0  0  0  0  0
  -25.3090  -13.8420   20.4120 C   0  0  0  0  0  0  0  0  0  0  0  0
  -24.2590  -13.0670   20.8290 C   0  0  0  0  0  0  0  0  0  0  0  0
  -24.7180  -11.7160   20.7690 C   0  0  0  0  0  0  0  0  0  0  0  0
  -26.3420  -12.9610   20.1300 N   0  0  0  0  0  0  0  0  0  0  0  0
  -25.9920  -11.6780   20.3990 N   0  0  0  0  0  0  0  0  0  0  0  0
  -24.0020  -10.4530   20.9910 C   0  0  0  0  0  0  0  0  0  0  0  0
  -24.4540   -9.5010   21.9320 C   0  0  0  0  0  3  0  0  0  0  0  0
  -23.7370   -8.3010   22.1380 C   0  0  0  0  0  3  0  0  0  0  0  0
  -22.5560   -8.0460   21.4030 C   0  0  0  0  0  0  0  0  0  0  0  0
  -22.1210   -8.9860   20.4520 C   0  0  0  0  0  3  0  0  0  0  0  0
  -22.8380  -10.1770   20.2430 C   0  0  0  0  0  3  0  0  0  0  0  0
  -21.8080   -6.8980   21.5190 O   0  0  0  0  0  0  0  0  0  0  0  0
  -21.7560   -6.1900   22.6930 C   0  0  0  0  0  0  0  0  0  0  0  0
  -21.3030   -6.7740   23.8960 C   0  0  0  0  0  3  0  0  0  0  0  0
  -21.1970   -5.9910   25.0620 C   0  0  0  0  0  3  0  0  0  0  0  0
  -21.5340   -4.6250   25.0260 C   0  0  0  0  0  0  0  0  0  0  0  0
  -21.9800   -4.0400   23.8280 C   0  0  0  0  0  3  0  0  0  0  0  0
  -22.0880   -4.8210   22.6630 C   0  0  0  0  0  0  0  0  0  0  0  0
  -22.4950   -4.2480   21.5070 F   0  0  0  0  0  0  0  0  0  0  0  0
  -21.4260   -3.8690   26.1430 F   0  0  0  0  0  0  0  0  0  0  0  0
  -22.8760  -13.5440   21.1740 C   0  0  0  0  0  0  0  0  0  0  0  0
  -22.1880  -12.8370   22.0650 N   0  0  0  0  0  0  0  0  0  0  0  0
  -22.4160  -14.5760   20.6890 O   0  0  0  0  0  0  0  0  0  0  0  0
  -22.5720  -12.0000   22.4780 H   0  0  0  0  0  0  0  0  0  0  0  0
  -21.2640  -13.1390   22.3390 H   0  0  0  0  0  0  0  0  0  0  0  0
  -25.4660  -15.2130   20.2330 N   0  0  0  0  0  0  0  0  0  0  0  0
  -24.7060  -15.8680   20.3810 H   0  0  0  0  0  0  0  0  0  0  0  0
  -26.3030  -15.6520   19.8700 H   0  0  0  0  0  0  0  0  0  0  0  0
  -29.8270  -23.4450   19.4220 N   0  0  0  0  0  0  0  0  0  0  0  0
  -29.3790  -23.4830   18.5090 H   0  0  0  0  0  0  0  0  0  0  0  0
  -29.7090  -24.6830   20.1930 C   0  0  0  0  0  2  0  0  0  0  0  0
  -28.4740  -25.4780   19.7370 C   0  0  0  0  0  2  0  0  0  0  0  0
  -28.4730  -26.8180   20.2310 O   0  0  0  0  0  0  0  0  0  0  0  0
  -24.5810  -31.9420   23.2240 C   0  0  0  0  0  0  0  0  0  0  0  0
  -27.2830  -27.5190   20.1810 C   0  0  0  0  0  0  0  0  0  0  0  0
  -23.3970  -30.5310   21.5740 C   0  0  0  0  0  3  0  0  0  0  0  0
  -24.8720  -29.0030   20.1670 C   0  0  0  0  0  0  0  0  0  0  0  0
  -25.9190  -30.9080   21.3960 C   0  0  0  0  0  2  0  0  0  0  0  0
  -26.0190  -29.5360   20.7670 C   0  0  0  0  0  0  0  0  0  0  0  0
  -27.2250  -28.8010   20.7730 C   0  0  0  0  0  3  0  0  0  0  0  0
  -26.1100  -27.0020   19.5730 C   0  0  0  0  0  3  0  0  0  0  0  0
  -24.9100  -27.7330   19.5720 C   0  0  0  0  0  3  0  0  0  0  0  0
  -23.6210  -29.8510   20.1980 C   0  0  0  0  0  2  0  0  0  0  0  0
  -24.6490  -31.1420   22.1230 N   0  0  0  0  0  0  0  0  0  0  0  0
  -23.4940  -32.2090   23.7550 O   0  0  0  0  0  0  0  0  0  0  0  0
  -22.7440  -29.5070   22.5310 C   0  0  0  0  0  0  0  0  0  0  0  0
  -21.4260  -29.3000   22.3730 N   0  0  0  0  0  0  0  0  0  0  0  0
  -23.4180  -28.9020   23.3680 O   0  0  0  0  0  0  0  0  0  0  0  0
  -20.9410  -29.8400   21.6690 H   0  0  0  0  0  0  0  0  0  0  0  0
  -18.0640  -28.0510   22.8050 C   0  0  0  0  0  0  0  0  0  0  0  0
  -20.6110  -28.3550   23.1340 C   0  0  0  0  0  3  0  0  0  0  0  0
  -20.7510  -26.9190   22.5770 C   0  0  0  0  0  2  0  0  0  0  0  0
  -19.6790  -26.5670   21.5410 C   0  0  0  0  0  2  0  0  0  0  0  0
  -18.2800  -26.6960   22.1480 C   0  0  0  0  0  2  0  0  0  0  0  0
  -19.1610  -28.8360   23.2510 C   0  0  0  0  0  0  0  0  0  0  0  0
  -18.9070  -30.1020   23.8230 C   0  0  0  0  0  3  0  0  0  0  0  0
  -17.5910  -30.5830   23.9540 C   0  0  0  0  0  3  0  0  0  0  0  0
  -16.5090  -29.7960   23.5230 C   0  0  0  0  0  3  0  0  0  0  0  0
  -16.7460  -28.5310   22.9560 C   0  0  0  0  0  3  0  0  0  0  0  0
  -25.8580  -32.5820   23.8530 C   0  0  0  0  0  3  0  0  0  0  0  0
  -25.5440  -33.9830   24.1670 N   0  0  0  0  0  0  0  0  0  0  0  0
  -25.8900  -35.0280   23.4070 C   0  0  0  0  0  0  0  0  0  0  0  0
  -26.5850  -34.9170   22.3930 O   0  0  0  0  0  0  0  0  0  0  0  0
  -24.9370  -34.1420   24.9560 H   0  0  0  0  0  0  0  0  0  0  0  0
  -24.1770  -36.8210   22.9820 C   0  0  0  0  0  1  0  0  0  0  0  0
  -25.3880  -36.4200   23.8380 C   0  0  0  0  0  3  0  0  0  0  0  0
  -27.4910  -37.3090   24.7430 C   0  0  0  0  0  1  0  0  0  0  0  0
  -26.4250  -37.4720   23.7570 N   0  0  0  0  0  0  0  0  0  0  0  0
  -26.0130  -38.3920   23.8900 H   0  0  0  0  0  0  0  0  0  0  0  0
  -26.3660  -31.8230   25.1410 C   0  0  1  0  0  0  0  0  0  0  0  0
  -25.2620  -31.5670   26.1930 C   0  0  0  0  0  1  0  0  0  0  0  0
  -26.9750  -30.4540   24.7590 C   0  0  0  0  0  1  0  0  0  0  0  0
  -27.5000  -32.6320   25.8160 C   0  0  0  0  0  1  0  0  0  0  0  0
  2  5  1  0
  3  1  1  0
  4  2  2  0
  4  6  1  0
  5  7  1  0
  5  1  2  0
  6  3  2  0
  8  7  1  0
  9  7  1  0
  9 10  1  0
 11 19  1  0
 12 17  1  0
 13 14  1  0
 13 12  1  0
 15 14  1  0
 15 24  1  0
 15 16  1  0
 17 11  1  0
 17 16  1  0
 18 11  2  0
 19 20  1  0
 19 10  1  0
 21 22  2  0
 22 41  1  0
 23 22  1  0
 23 26  1  0
 24 25  1  0
 24 21  1  0
 25 23  2  0
 26 27  1  0
 27 28  2  0
 29 32  1  0
 29 28  1  0
 30 29  2  0
 31 30  1  0
 31 26  2  0
 32 33  1  0
 33 34  1  0
 34 35  2  0
 36 35  1  0
 36 40  1  0
 37 36  2  0
 38 33  2  0
 38 37  1  0
 39 38  1  0
 41 42  1  0
 42 45  1  0
 42 44  1  0
 43 41  2  0
 46 47  1  0
 46 21  1  0
 48 46  1  0
 49  6  1  0
 49 51  1  0
 50 49  1  0
 52 51  1  0
 52 53  1  0
 54 65  2  0
 55 53  1  0
 55 60  1  0
 56 64  1  0
 56 66  1  0
 57 63  1  0
 57 59  1  0
 58 64  1  0
 59 60  2  0
 59 58  1  0
 61 55  2  0
 62 61  1  0
 62 57  2  0
 63 56  1  0
 64 54  1  0
 66 68  2  0
 67 66  1  0
 69 67  1  0
 70 79  2  0
 70 75  1  0
 71 67  1  0
 71 75  1  0
 72 71  1  0
 73 74  1  0
 73 72  1  0
 74 70  1  0
 75 76  2  0
 76 77  1  0
 78 77  2  0
 79 78  1  0
 80 54  1  0
 80 81  1  0
 80 90  1  0
 81 84  1  0
 82 86  1  0
 82 81  1  0
 83 82  2  0
 86 85  1  0
 88 86  1  0
 88 89  1  0
 88 87  1  0
 90 93  1  1
 90 91  1  0
 92 90  1  0
M  ISO  4  11 100  19 100  52 101  53 101
M  END
>  <TORSDO>  (50) 
F 22

>  <SCORE>  (50) 
-13.109

>  <name>  (50) 
49

>  <ligand_id>  (50) 
49

>  <original_smiles>  (50) 
[H]c1c([H])c([H])c2c(c1[H])C([H])([H])C([H])([H])C([H])([H])C2([H])N([H])C(=O)C1([H])N(C(=O)C([H])(N([H])C(=O)C([H])(N([H])C([H])([H])[H])C([H])([H])[H])C(C([H])([H])[H])(C([H])([H])[H])C([H])([H])[H])C([H])([H])c2c([H])c(OC([H])([H])C([H])([H])N([H])c3c([H])c([H])c(N([H])C([H])([H])C([H])([H])N([H])C(=O)N4C([H])([H])C([H])([H])C([H])([H])C([H])(n5nc(-c6c([H])c([H])c(Oc7c([H])c([H])c(F)c([H])c7F)c([H])c6[H])c(C(=O)N([H])[H])c5N([H])[H])C4([H])[H])c([H])c3[H])c([H])c([H])c2C1([H])[H]

>  <smiles>  (50) 
[H]c1c([H])c([H])c2c(c1[H])C([H])([H])C([H])([H])C([H])([H])C2([H])N([H])C(=O)C1([H])N(C(=O)C([H])(N([H])C(=O)C([H])(N([H])C([H])([H])[H])C([H])([H])[H])C(C([H])([H])[H])(C([H])([H])[H])C([H])([H])[H])C([H])([H])c2c([H])c(OC([H])([H])C([H])([H])N([H])c3c([H])c([H])c(N([H])C([H])([H])C([H])([H])N([H])C(=O)N4C([H])([H])C([H])([H])C([H])([H])C([H])(n5nc(-c6c([H])c([H])c(Oc7c([H])c([H])c(F)c([H])c7F)c([H])c6[H])c(C(=O)N([H])[H])c5N([H])[H])C4([H])[H])c([H])c3[H])c([H])c([H])c2C1([H])[H]

$$$$
50:0:0
     RDKit          3D

 86 94  0  0  1  0  0  0  0  0999 V2000
  -31.1700  -20.9320   20.4430 C   0  0  0  0  0  3  0  0  0  0  0  0
  -30.2760  -22.0570   20.4060 C   0  0  0  0  0  3  0  0  0  0  0  0
  -30.8430  -19.5330   20.3890 C   0  0  0  0  0  3  0  0  0  0  0  0
  -28.5970  -20.3530   20.2540 C   0  0  0  0  0  3  0  0  0  0  0  0
  -28.8660  -21.9710   20.3050 C   0  0  0  0  0  0  0  0  0  0  0  0
  -29.5320  -19.0050   20.2890 C   0  0  0  0  0  0  0  0  0  0  0  0
  -30.1920  -15.8550   20.2000 C   0  0  0  0  0  0  0  0  0  0  0  0
  -30.3410  -13.2850   19.3630 C   0  0  0  0  0  2  0  0  0  0  0  0
  -29.4560  -12.8160   18.1690 C   0  0  0  0  0  2  0  0  0  0  0  0
  -28.0490  -12.4220   18.6400 C   0  0  0  0  0  2  0  0  0  0  0  0
  -27.5220  -13.4180   19.6950 C   0  0  0  0  0  3  0  0  0  0  0  0
  -28.5540  -13.7840   20.7920 C   0  0  0  0  0  2  0  0  0  0  0  0
  -29.6910  -14.4650   20.1150 N   0  0  0  0  0  0  0  0  0  0  0  0
  -31.4300  -15.7760   20.0400 O   0  0  0  0  0  0  0  0  0  0  0  0
  -29.4130  -17.2430   20.2600 N   0  0  0  0  0  0  0  0  0  0  0  0
  -28.4360  -16.9880   20.2920 H   0  0  0  0  0  0  0  0  0  0  0  0
  -25.1650  -13.9080   20.4880 C   0  0  0  0  0  0  0  0  0  0  0  0
  -24.1200  -13.1120   20.8580 C   0  0  0  0  0  0  0  0  0  0  0  0
  -24.6060  -11.7690   20.8140 C   0  0  0  0  0  0  0  0  0  0  0  0
  -26.2190  -13.0530   20.2290 N   0  0  0  0  0  0  0  0  0  0  0  0
  -25.8990  -11.7570   20.4910 N   0  0  0  0  0  0  0  0  0  0  0  0
  -23.8950  -10.4960   20.9990 C   0  0  0  0  0  0  0  0  0  0  0  0
  -24.3210   -9.5410   21.9480 C   0  0  0  0  0  3  0  0  0  0  0  0
  -23.6030   -8.3370   22.1240 C   0  0  0  0  0  3  0  0  0  0  0  0
  -22.4450   -8.0810   21.3530 C   0  0  0  0  0  0  0  0  0  0  0  0
  -22.0370   -9.0260   20.3930 C   0  0  0  0  0  3  0  0  0  0  0  0
  -22.7560  -10.2200   20.2160 C   0  0  0  0  0  3  0  0  0  0  0  0
  -21.7000   -6.9290   21.4370 O   0  0  0  0  0  0  0  0  0  0  0  0
  -21.6170   -6.2090   22.6020 C   0  0  0  0  0  0  0  0  0  0  0  0
  -21.1080   -6.7740   23.7910 C   0  0  0  0  0  3  0  0  0  0  0  0
  -20.9740   -5.9790   24.9470 C   0  0  0  0  0  3  0  0  0  0  0  0
  -21.3410   -4.6210   24.9140 C   0  0  0  0  0  0  0  0  0  0  0  0
  -21.8440   -4.0550   23.7290 C   0  0  0  0  0  3  0  0  0  0  0  0
  -21.9780   -4.8470   22.5760 C   0  0  0  0  0  0  0  0  0  0  0  0
  -22.4430   -4.2910   21.4310 F   0  0  0  0  0  0  0  0  0  0  0  0
  -21.2070   -3.8540   26.0220 F   0  0  0  0  0  0  0  0  0  0  0  0
  -22.7170  -13.5690   21.1330 C   0  0  0  0  0  0  0  0  0  0  0  0
  -22.0030  -12.8670   22.0040 N   0  0  0  0  0  0  0  0  0  0  0  0
  -22.2660  -14.5890   20.6110 O   0  0  0  0  0  0  0  0  0  0  0  0
  -22.3830  -12.0440   22.4480 H   0  0  0  0  0  0  0  0  0  0  0  0
  -21.0620  -13.1570   22.2300 H   0  0  0  0  0  0  0  0  0  0  0  0
  -25.3030  -15.2820   20.3150 N   0  0  0  0  0  0  0  0  0  0  0  0
  -24.5210  -15.9180   20.4310 H   0  0  0  0  0  0  0  0  0  0  0  0
  -26.1290  -15.7320   19.9470 H   0  0  0  0  0  0  0  0  0  0  0  0
  -27.9040  -23.6280   20.2440 C   0  0  0  0  0  2  0  0  0  0  0  0
  -28.1320  -25.4200   20.3730 O   0  0  0  0  0  0  0  0  0  0  0  0
  -24.6750  -31.8720   23.2620 C   0  0  0  0  0  0  0  0  0  0  0  0
  -27.1850  -26.6880   20.3150 C   0  0  0  0  0  0  0  0  0  0  0  0
  -23.4950  -30.4780   21.6190 C   0  0  0  0  0  3  0  0  0  0  0  0
  -24.9430  -28.7980   20.2290 C   0  0  0  0  0  0  0  0  0  0  0  0
  -26.0790  -30.5740   21.5310 C   0  0  0  0  0  2  0  0  0  0  0  0
  -26.1380  -29.1300   20.8780 C   0  0  0  0  0  0  0  0  0  0  0  0
  -27.2390  -28.1060   20.8840 C   0  0  0  0  0  3  0  0  0  0  0  0
  -25.9550  -26.5930   19.6070 C   0  0  0  0  0  3  0  0  0  0  0  0
  -24.8960  -27.5580   19.5690 C   0  0  0  0  0  3  0  0  0  0  0  0
  -23.7460  -29.7690   20.2550 C   0  0  0  0  0  2  0  0  0  0  0  0
  -24.7750  -31.0100   22.1900 N   0  0  0  0  0  0  0  0  0  0  0  0
  -23.5770  -32.1850   23.7580 O   0  0  0  0  0  0  0  0  0  0  0  0
  -22.7530  -29.5170   22.5880 C   0  0  0  0  0  0  0  0  0  0  0  0
  -21.4200  -29.3750   22.4510 N   0  0  0  0  0  0  0  0  0  0  0  0
  -23.3920  -28.8940   23.4400 O   0  0  0  0  0  0  0  0  0  0  0  0
  -20.9530  -29.9280   21.7440 H   0  0  0  0  0  0  0  0  0  0  0  0
  -18.0190  -28.1820   22.9320 C   0  0  0  0  0  0  0  0  0  0  0  0
  -20.5780  -28.4480   23.2190 C   0  0  0  0  0  3  0  0  0  0  0  0
  -20.6800  -27.0100   22.6570 C   0  0  0  0  0  2  0  0  0  0  0  0
  -19.5890  -26.6850   21.6310 C   0  0  0  0  0  2  0  0  0  0  0  0
  -18.2010  -26.8320   22.2590 C   0  0  0  0  0  2  0  0  0  0  0  0
  -19.1330  -28.9480   23.3680 C   0  0  0  0  0  0  0  0  0  0  0  0
  -18.9060  -30.2070   23.9630 C   0  0  0  0  0  3  0  0  0  0  0  0
  -17.5980  -30.7030   24.1240 C   0  0  0  0  0  3  0  0  0  0  0  0
  -16.4980  -29.9370   23.7000 C   0  0  0  0  0  3  0  0  0  0  0  0
  -16.7090  -28.6770   23.1110 C   0  0  0  0  0  3  0  0  0  0  0  0
  -25.9330  -32.5200   23.9170 C   0  0  0  0  0  3  0  0  0  0  0  0
  -25.6150  -33.9250   24.2440 N   0  0  0  0  0  0  0  0  0  0  0  0
  -25.9320  -34.9870   23.4900 C   0  0  0  0  0  0  0  0  0  0  0  0
  -26.5750  -34.8860   22.4430 O   0  0  0  0  0  0  0  0  0  0  0  0
  -25.0360  -34.0750   25.0570 H   0  0  0  0  0  0  0  0  0  0  0  0
  -24.1820  -36.7830   23.2210 C   0  0  0  0  0  1  0  0  0  0  0  0
  -25.4640  -36.3790   23.9670 C   0  0  0  0  0  3  0  0  0  0  0  0
  -27.6290  -37.2890   24.6910 C   0  0  0  0  0  1  0  0  0  0  0  0
  -26.4850  -37.4380   23.7970 N   0  0  0  0  0  0  0  0  0  0  0  0
  -26.0790  -38.3570   23.9500 H   0  0  0  0  0  0  0  0  0  0  0  0
  -26.4050  -31.7660   25.2230 C   0  0  1  0  0  0  0  0  0  0  0  0
  -25.2830  -31.5600   26.2680 C   0  0  0  0  0  1  0  0  0  0  0  0
  -26.9830  -30.3740   24.8840 C   0  0  0  0  0  1  0  0  0  0  0  0
  -27.5480  -32.5590   25.9010 C   0  0  0  0  0  1  0  0  0  0  0  0
  2  1  1  0
  3  1  2  0
  4  6  2  0
  4  5  1  0
  5  2  2  0
  6  3  1  0
  7 15  1  0
  8 13  1  0
  9 10  1  0
  9  8  1  0
 11 10  1  0
 11 20  1  0
 11 12  1  0
 13  7  1  0
 13 12  1  0
 14  7  2  0
 15  6  1  0
 15 16  1  0
 17 18  2  0
 18 37  1  0
 19 18  1  0
 19 22  1  0
 20 17  1  0
 20 21  1  0
 21 19  2  0
 22 23  1  0
 23 24  2  0
 25 28  1  0
 25 24  1  0
 26 25  2  0
 27 26  1  0
 27 22  2  0
 28 29  1  0
 29 30  1  0
 30 31  2  0
 32 31  1  0
 32 36  1  0
 33 32  2  0
 34 29  2  0
 34 33  1  0
 35 34  1  0
 37 38  1  0
 38 41  1  0
 38 40  1  0
 39 37  2  0
 42 43  1  0
 42 17  1  0
 44 42  1  0
 45  5  1  0
 45 46  1  0
 47 58  2  0
 48 46  1  0
 48 53  1  0
 49 57  1  0
 49 59  1  0
 50 56  1  0
 50 52  1  0
 51 57  1  0
 52 53  2  0
 52 51  1  0
 54 48  2  0
 55 54  1  0
 55 50  2  0
 56 49  1  0
 57 47  1  0
 59 61  2  0
 60 59  1  0
 62 60  1  0
 63 72  2  0
 63 68  1  0
 64 60  1  0
 64 68  1  0
 65 64  1  0
 66 67  1  0
 66 65  1  0
 67 63  1  0
 68 69  2  0
 69 70  1  0
 71 70  2  0
 72 71  1  0
 73 47  1  0
 73 74  1  0
 73 83  1  0
 74 77  1  0
 75 79  1  0
 75 74  1  0
 76 75  2  0
 79 78  1  0
 81 82  1  0
 81 79  1  0
 81 80  1  0
 83 86  1  1
 83 84  1  0
 85 83  1  0
M  ISO  4   7 100  15 100  45 101  46 101
M  END
>  <TORSDO>  (51) 
F 17

>  <SCORE>  (51) 
-16.516

>  <name>  (51) 
50

>  <ligand_id>  (51) 
50

>  <original_smiles>  (51) 
[H]c1c([H])c(N([H])C(=O)N2C([H])([H])C([H])([H])C([H])([H])C([H])(n3nc(-c4c([H])c([H])c(Oc5c([H])c([H])c(F)c([H])c5F)c([H])c4[H])c(C(=O)N([H])[H])c3N([H])[H])C2([H])[H])c([H])c(C([H])([H])Oc2c([H])c([H])c3c(c2[H])C([H])([H])N(C(=O)C([H])(N([H])C(=O)C([H])(N([H])C([H])([H])[H])C([H])([H])[H])C(C([H])([H])[H])(C([H])([H])[H])C([H])([H])[H])C([H])(C(=O)N([H])C2([H])c4c([H])c([H])c([H])c([H])c4C([H])([H])C([H])([H])C2([H])[H])C3([H])[H])c1[H]

>  <smiles>  (51) 
[H]c1c([H])c(N([H])C(=O)N2C([H])([H])C([H])([H])C([H])([H])C([H])(n3nc(-c4c([H])c([H])c(Oc5c([H])c([H])c(F)c([H])c5F)c([H])c4[H])c(C(=O)N([H])[H])c3N([H])[H])C2([H])[H])c([H])c(C([H])([H])Oc2c([H])c([H])c3c(c2[H])C([H])([H])N(C(=O)C([H])(N([H])C(=O)C([H])(N([H])C([H])([H])[H])C([H])([H])[H])C(C([H])([H])[H])(C([H])([H])[H])C([H])([H])[H])C([H])(C(=O)N([H])C2([H])c4c([H])c([H])c([H])c([H])c4C([H])([H])C([H])([H])C2([H])[H])C3([H])[H])c1[H]

$$$$
51:0:0
     RDKit          3D

 90 98  0  0  1  0  0  0  0  0999 V2000
  -28.1530  -19.4950   18.3790 C   0  0  0  0  0  3  0  0  0  0  0  0
  -28.7680  -18.3990   19.0230 C   0  0  0  0  0  3  0  0  0  0  0  0
  -28.2110  -20.8030   18.9100 C   0  0  0  0  0  3  0  0  0  0  0  0
  -29.5020  -19.9270   20.7640 C   0  0  0  0  0  3  0  0  0  0  0  0
  -29.4700  -18.5720   20.2310 C   0  0  0  0  0  0  0  0  0  0  0  0
  -28.8760  -21.0770   20.1260 C   0  0  0  0  0  0  0  0  0  0  0  0
  -28.8820  -22.4230   20.6700 N   0  0  0  0  0  0  0  0  0  0  0  0
  -29.3170  -22.5340   21.5840 H   0  0  0  0  0  0  0  0  0  0  0  0
  -28.6220  -23.7280   19.9270 C   0  0  0  0  0  2  0  0  0  0  0  0
  -28.2050  -25.0460   20.7750 C   0  0  0  0  0  2  0  0  0  0  0  0
  -28.3480  -26.4420   20.2440 O   0  0  0  0  0  0  0  0  0  0  0  0
  -24.5950  -31.8990   23.2350 C   0  0  0  0  0  0  0  0  0  0  0  0
  -27.2330  -27.3030   20.2340 C   0  0  0  0  0  0  0  0  0  0  0  0
  -23.4080  -30.4900   21.5920 C   0  0  0  0  0  3  0  0  0  0  0  0
  -24.8710  -28.9260   20.1890 C   0  0  0  0  0  0  0  0  0  0  0  0
  -25.9500  -30.8060   21.4270 C   0  0  0  0  0  2  0  0  0  0  0  0
  -26.0370  -29.4210   20.7880 C   0  0  0  0  0  0  0  0  0  0  0  0
  -27.2240  -28.6240   20.7940 C   0  0  0  0  0  3  0  0  0  0  0  0
  -26.0470  -26.8640   19.6150 C   0  0  0  0  0  3  0  0  0  0  0  0
  -24.8800  -27.6550   19.5900 C   0  0  0  0  0  3  0  0  0  0  0  0
  -23.6340  -29.8040   20.2190 C   0  0  0  0  0  2  0  0  0  0  0  0
  -24.6700  -31.0850   22.1420 N   0  0  0  0  0  0  0  0  0  0  0  0
  -23.5070  -32.1780   23.7600 O   0  0  0  0  0  0  0  0  0  0  0  0
  -22.7350  -29.4810   22.5540 C   0  0  0  0  0  0  0  0  0  0  0  0
  -21.4090  -29.3090   22.4230 N   0  0  0  0  0  0  0  0  0  0  0  0
  -23.4080  -28.8560   23.3780 O   0  0  0  0  0  0  0  0  0  0  0  0
  -20.9260  -29.8630   21.7290 H   0  0  0  0  0  0  0  0  0  0  0  0
  -18.0230  -28.1370   22.9260 C   0  0  0  0  0  0  0  0  0  0  0  0
  -20.5840  -28.3750   23.1900 C   0  0  0  0  0  3  0  0  0  0  0  0
  -20.6730  -26.9450   22.6080 C   0  0  0  0  0  2  0  0  0  0  0  0
  -19.5650  -26.6350   21.5960 C   0  0  0  0  0  2  0  0  0  0  0  0
  -18.1860  -26.7890   22.2440 C   0  0  0  0  0  2  0  0  0  0  0  0
  -19.1480  -28.8880   23.3560 C   0  0  0  0  0  0  0  0  0  0  0  0
  -18.9410  -30.1500   23.9540 C   0  0  0  0  0  3  0  0  0  0  0  0
  -17.6410  -30.6610   24.1250 C   0  0  0  0  0  3  0  0  0  0  0  0
  -16.5290  -29.9070   23.7100 C   0  0  0  0  0  3  0  0  0  0  0  0
  -16.7210  -28.6470   23.1170 C   0  0  0  0  0  3  0  0  0  0  0  0
  -25.8720  -32.5370   23.8660 C   0  0  0  0  0  3  0  0  0  0  0  0
  -26.3740  -31.7760   25.1550 C   0  0  1  0  0  0  0  0  0  0  0  0
  -25.2680  -31.5470   26.2120 C   0  0  0  0  0  1  0  0  0  0  0  0
  -26.9600  -30.3960   24.7810 C   0  0  0  0  0  1  0  0  0  0  0  0
  -27.5180  -32.5740   25.8220 C   0  0  0  0  0  1  0  0  0  0  0  0
  -25.5590  -33.9380   24.1840 N   0  0  0  0  0  0  0  0  0  0  0  0
  -25.8980  -34.9860   23.4220 C   0  0  0  0  0  0  0  0  0  0  0  0
  -26.5750  -34.8760   22.3960 O   0  0  0  0  0  0  0  0  0  0  0  0
  -24.9590  -34.0980   24.9810 H   0  0  0  0  0  0  0  0  0  0  0  0
  -24.1820  -36.7850   23.0350 C   0  0  0  0  0  1  0  0  0  0  0  0
  -25.4080  -36.3780   23.8680 C   0  0  0  0  0  3  0  0  0  0  0  0
  -27.5290  -37.2620   24.7350 C   0  0  0  0  0  1  0  0  0  0  0  0
  -26.4470  -37.4270   23.7690 N   0  0  0  0  0  0  0  0  0  0  0  0
  -26.0410  -38.3510   23.9040 H   0  0  0  0  0  0  0  0  0  0  0  0
  -30.2410  -17.3320   20.8670 C   0  0  0  0  0  2  0  0  0  0  0  0
  -30.5990  -14.7620   20.3870 C   0  0  0  0  0  0  0  0  0  0  0  0
  -30.4110  -12.4980   19.3420 C   0  0  0  0  0  2  0  0  0  0  0  0
  -29.4670  -12.5740   18.1230 C   0  0  0  0  0  2  0  0  0  0  0  0
  -28.0000  -12.3900   18.5590 C   0  0  0  0  0  2  0  0  0  0  0  0
  -27.6230  -13.2700   19.7820 C   0  0  0  0  0  3  0  0  0  0  0  0
  -28.6850  -13.1730   20.8980 C   0  0  0  0  0  2  0  0  0  0  0  0
  -29.9760  -13.5390   20.3010 N   0  0  0  0  0  0  0  0  0  0  0  0
  -31.7870  -14.8730   20.0760 O   0  0  0  0  0  0  0  0  0  0  0  0
  -29.8220  -15.8800   20.6420 N   0  0  0  0  0  0  0  0  0  0  0  0
  -28.8470  -15.6880   20.8090 H   0  0  0  0  0  0  0  0  0  0  0  0
  -25.2330  -13.8440   20.5130 C   0  0  0  0  0  0  0  0  0  0  0  0
  -24.1730  -13.0620   20.8820 C   0  0  0  0  0  0  0  0  0  0  0  0
  -24.6450  -11.7150   20.8470 C   0  0  0  0  0  0  0  0  0  0  0  0
  -26.2820  -12.9720   20.2730 N   0  0  0  0  0  0  0  0  0  0  0  0
  -25.9360  -11.6870   20.5390 N   0  0  0  0  0  0  0  0  0  0  0  0
  -23.9280  -10.4470   21.0330 C   0  0  0  0  0  0  0  0  0  0  0  0
  -24.3560   -9.4850   21.9740 C   0  0  0  0  0  3  0  0  0  0  0  0
  -23.6380   -8.2830   22.1470 C   0  0  0  0  0  3  0  0  0  0  0  0
  -22.4760   -8.0340   21.3790 C   0  0  0  0  0  0  0  0  0  0  0  0
  -22.0660   -8.9840   20.4260 C   0  0  0  0  0  3  0  0  0  0  0  0
  -22.7860  -10.1780   20.2520 C   0  0  0  0  0  3  0  0  0  0  0  0
  -21.7290   -6.8830   21.4600 O   0  0  0  0  0  0  0  0  0  0  0  0
  -21.6630   -6.1500   22.6170 C   0  0  0  0  0  0  0  0  0  0  0  0
  -21.1780   -6.7010   23.8230 C   0  0  0  0  0  3  0  0  0  0  0  0
  -21.0620   -5.8920   24.9710 C   0  0  0  0  0  3  0  0  0  0  0  0
  -21.4190   -4.5320   24.9140 C   0  0  0  0  0  0  0  0  0  0  0  0
  -21.8970   -3.9790   23.7120 C   0  0  0  0  0  3  0  0  0  0  0  0
  -22.0150   -4.7860   22.5670 C   0  0  0  0  0  0  0  0  0  0  0  0
  -22.4560   -4.2430   21.4060 F   0  0  0  0  0  0  0  0  0  0  0  0
  -21.3010   -3.7520   26.0140 F   0  0  0  0  0  0  0  0  0  0  0  0
  -22.7720  -13.5300   21.1530 C   0  0  0  0  0  0  0  0  0  0  0  0
  -22.0480  -12.8230   22.0140 N   0  0  0  0  0  0  0  0  0  0  0  0
  -22.3300  -14.5560   20.6390 O   0  0  0  0  0  0  0  0  0  0  0  0
  -22.4190  -11.9930   22.4520 H   0  0  0  0  0  0  0  0  0  0  0  0
  -21.1080  -13.1170   22.2400 H   0  0  0  0  0  0  0  0  0  0  0  0
  -25.3860  -15.2160   20.3370 N   0  0  0  0  0  0  0  0  0  0  0  0
  -24.6080  -15.8580   20.4380 H   0  0  0  0  0  0  0  0  0  0  0  0
  -26.2170  -15.6630   19.9730 H   0  0  0  0  0  0  0  0  0  0  0  0
  1  3  2  0
  1  2  1  0
  2  5  2  0
  3  6  1  0
  5  4  1  0
  5 52  1  0
  6  7  1  0
  6  4  2  0
  7  8  1  0
  9  7  1  0
  9 10  1  0
 11 10  1  0
 12 23  2  0
 13 11  1  0
 13 18  1  0
 14 22  1  0
 14 24  1  0
 15 21  1  0
 15 17  1  0
 16 22  1  0
 17 18  2  0
 17 16  1  0
 19 13  2  0
 20 19  1  0
 20 15  2  0
 21 14  1  0
 22 12  1  0
 24 26  2  0
 25 24  1  0
 27 25  1  0
 28 37  2  0
 28 33  1  0
 29 25  1  0
 29 33  1  0
 30 29  1  0
 31 32  1  0
 31 30  1  0
 32 28  1  0
 33 34  2  0
 34 35  1  0
 36 35  2  0
 37 36  1  0
 38 12  1  0
 38 43  1  0
 38 39  1  0
 39 42  1  1
 39 40  1  0
 41 39  1  0
 43 46  1  0
 44 48  1  0
 44 43  1  0
 45 44  2  0
 48 47  1  0
 50 48  1  0
 50 51  1  0
 50 49  1  0
 53 61  1  0
 54 59  1  0
 55 56  1  0
 55 54  1  0
 57 56  1  0
 57 66  1  0
 57 58  1  0
 59 53  1  0
 59 58  1  0
 60 53  2  0
 61 62  1  0
 61 52  1  0
 63 64  2  0
 64 83  1  0
 65 64  1  0
 65 68  1  0
 66 63  1  0
 66 67  1  0
 67 65  2  0
 68 69  1  0
 69 70  2  0
 71 74  1  0
 71 70  1  0
 72 71  2  0
 73 72  1  0
 73 68  2  0
 74 75  1  0
 75 76  1  0
 76 77  2  0
 78 77  1  0
 78 82  1  0
 79 78  2  0
 80 75  2  0
 80 79  1  0
 81 80  1  0
 83 84  1  0
 84 87  1  0
 84 86  1  0
 85 83  2  0
 88 89  1  0
 88 63  1  0
 90 88  1  0
M  ISO  4  10 101  11 101  53 100  61 100
M  END
>  <TORSDO>  (52) 
F 20

>  <SCORE>  (52) 
-13.932

>  <name>  (52) 
51

>  <ligand_id>  (52) 
51

>  <original_smiles>  (52) 
[H]c1c([H])c(N([H])C([H])([H])C([H])([H])Oc2c([H])c([H])c3c(c2[H])C([H])([H])N(C(=O)C([H])(N([H])C(=O)C([H])(N([H])C([H])([H])[H])C([H])([H])[H])C(C([H])([H])[H])(C([H])([H])[H])C([H])([H])[H])C([H])(C(=O)N([H])C2([H])c4c([H])c([H])c([H])c([H])c4C([H])([H])C([H])([H])C2([H])[H])C3([H])[H])c([H])c(C([H])([H])N([H])C(=O)N2C([H])([H])C([H])([H])C([H])([H])C([H])(n3nc(-c4c([H])c([H])c(Oc5c([H])c([H])c(F)c([H])c5F)c([H])c4[H])c(C(=O)N([H])[H])c3N([H])[H])C2([H])[H])c1[H]

>  <smiles>  (52) 
[H]c1c([H])c(N([H])C([H])([H])C([H])([H])Oc2c([H])c([H])c3c(c2[H])C([H])([H])N(C(=O)C([H])(N([H])C(=O)C([H])(N([H])C([H])([H])[H])C([H])([H])[H])C(C([H])([H])[H])(C([H])([H])[H])C([H])([H])[H])C([H])(C(=O)N([H])C2([H])c4c([H])c([H])c([H])c([H])c4C([H])([H])C([H])([H])C2([H])[H])C3([H])[H])c([H])c(C([H])([H])N([H])C(=O)N2C([H])([H])C([H])([H])C([H])([H])C([H])(n3nc(-c4c([H])c([H])c(Oc5c([H])c([H])c(F)c([H])c5F)c([H])c4[H])c(C(=O)N([H])[H])c3N([H])[H])C2([H])[H])c1[H]

$$$$
52:0:0
     RDKit          3D

 91 98  0  0  1  0  0  0  0  0999 V2000
  -28.9550  -22.0820   20.3160 N   0  0  0  0  0  4  0  0  0  0  0  0
  -28.0630  -21.8800   19.8890 H   0  0  0  0  0  0  0  0  0  0  0  0
  -28.8060  -21.9920   21.3080 H   0  0  0  0  0  0  0  0  0  0  0  0
  -30.0250  -20.8260   18.3850 C   0  0  0  0  0  1  0  0  0  0  0  0
  -29.9180  -20.9050   19.9160 C   0  0  0  0  0  3  0  0  0  0  0  0
  -29.6530  -19.3650   20.5140 C   0  0  0  0  0  3  0  0  0  0  0  0
  -29.9660  -19.4030   21.9350 N   0  0  0  0  0  0  0  0  0  0  0  0
  -29.3840  -20.0670   22.4340 H   0  0  0  0  0  0  0  0  0  0  0  0
  -30.9160  -19.7300   22.0760 H   0  0  0  0  0  0  0  0  0  0  0  0
  -30.3770  -17.9530   19.9660 C   0  0  0  0  0  2  0  0  0  0  0  0
  -28.4860  -16.4110   20.6500 C   0  0  0  0  0  1  0  0  0  0  0  0
  -30.0190  -16.4340   20.5630 C   0  0  0  0  0  3  0  0  0  0  0  0
  -30.7110  -15.0170   20.0100 C   0  0  0  0  0  0  0  0  0  0  0  0
  -30.5650  -12.7140   18.9480 C   0  0  0  0  0  2  0  0  0  0  0  0
  -29.5400  -12.7280   17.7860 C   0  0  0  0  0  2  0  0  0  0  0  0
  -28.1040  -12.4890   18.2960 C   0  0  0  0  0  2  0  0  0  0  0  0
  -27.7830  -13.3360   19.5520 C   0  0  0  0  0  3  0  0  0  0  0  0
  -28.9240  -13.2250   20.5940 C   0  0  0  0  0  2  0  0  0  0  0  0
  -30.1450  -13.7360   19.9530 N   0  0  0  0  0  0  0  0  0  0  0  0
  -31.8510  -15.1140   19.5400 O   0  0  0  0  0  0  0  0  0  0  0  0
  -25.4370  -13.9000   20.4350 C   0  0  0  0  0  0  0  0  0  0  0  0
  -24.3990  -13.1120   20.8480 C   0  0  0  0  0  0  0  0  0  0  0  0
  -24.8620  -11.7650   20.7390 C   0  0  0  0  0  0  0  0  0  0  0  0
  -26.4710  -13.0320   20.1130 N   0  0  0  0  0  0  0  0  0  0  0  0
  -26.1330  -11.7410   20.3520 N   0  0  0  0  0  0  0  0  0  0  0  0
  -24.1490  -10.4980   20.9260 C   0  0  0  0  0  0  0  0  0  0  0  0
  -24.5760   -9.5440   21.8770 C   0  0  0  0  0  3  0  0  0  0  0  0
  -23.8620   -8.3400   22.0510 C   0  0  0  0  0  3  0  0  0  0  0  0
  -22.7070   -8.0810   21.2750 C   0  0  0  0  0  0  0  0  0  0  0  0
  -22.3010   -9.0230   20.3150 C   0  0  0  0  0  3  0  0  0  0  0  0
  -23.0150  -10.2200   20.1380 C   0  0  0  0  0  3  0  0  0  0  0  0
  -21.9660   -6.9270   21.3590 O   0  0  0  0  0  0  0  0  0  0  0  0
  -21.8310   -6.2430   22.5390 C   0  0  0  0  0  0  0  0  0  0  0  0
  -21.2630   -6.8420   23.6870 C   0  0  0  0  0  3  0  0  0  0  0  0
  -21.0800   -6.0820   24.8580 C   0  0  0  0  0  3  0  0  0  0  0  0
  -21.4520   -4.7250   24.8850 C   0  0  0  0  0  0  0  0  0  0  0  0
  -22.0110   -4.1260   23.7420 C   0  0  0  0  0  3  0  0  0  0  0  0
  -22.1980   -4.8830   22.5730 C   0  0  0  0  0  0  0  0  0  0  0  0
  -22.7190   -4.2950   21.4680 F   0  0  0  0  0  0  0  0  0  0  0  0
  -21.2680   -3.9920   26.0090 F   0  0  0  0  0  0  0  0  0  0  0  0
  -23.0220  -13.5760   21.2250 C   0  0  0  0  0  0  0  0  0  0  0  0
  -22.3470  -12.8460   22.1050 N   0  0  0  0  0  0  0  0  0  0  0  0
  -22.5560  -14.6240   20.7780 O   0  0  0  0  0  0  0  0  0  0  0  0
  -22.7370  -11.9970   22.4890 H   0  0  0  0  0  0  0  0  0  0  0  0
  -21.4270  -13.1400   22.3980 H   0  0  0  0  0  0  0  0  0  0  0  0
  -25.5650  -15.2750   20.2860 N   0  0  0  0  0  0  0  0  0  0  0  0
  -24.8000  -15.9140   20.4720 H   0  0  0  0  0  0  0  0  0  0  0  0
  -26.4040  -15.7450   19.9730 H   0  0  0  0  0  0  0  0  0  0  0  0
  -29.2780  -23.6060   20.0590 C   0  0  0  0  0  3  0  0  0  0  0  0
  -28.1470  -24.8010   20.3190 C   0  0  0  0  0  3  0  0  0  0  0  0
  -28.3810  -26.3280   20.2470 O   0  0  0  0  0  0  0  0  0  0  0  0
  -24.6130  -31.8870   23.2440 C   0  0  0  0  0  0  0  0  0  0  0  0
  -27.2860  -27.2540   20.2090 C   0  0  0  0  0  0  0  0  0  0  0  0
  -23.4430  -30.4850   21.5880 C   0  0  0  0  0  3  0  0  0  0  0  0
  -24.9230  -28.9400   20.1730 C   0  0  0  0  0  0  0  0  0  0  0  0
  -25.9920  -30.7910   21.4460 C   0  0  0  0  0  2  0  0  0  0  0  0
  -26.0900  -29.4060   20.7910 C   0  0  0  0  0  0  0  0  0  0  0  0
  -27.2710  -28.5800   20.7940 C   0  0  0  0  0  3  0  0  0  0  0  0
  -26.0910  -26.8830   19.5520 C   0  0  0  0  0  3  0  0  0  0  0  0
  -24.9340  -27.6890   19.5390 C   0  0  0  0  0  3  0  0  0  0  0  0
  -23.6830  -29.8170   20.2080 C   0  0  0  0  0  2  0  0  0  0  0  0
  -24.7020  -31.0750   22.1480 N   0  0  0  0  0  0  0  0  0  0  0  0
  -23.5200  -32.1550   23.7650 O   0  0  0  0  0  0  0  0  0  0  0  0
  -22.7710  -29.4650   22.5380 C   0  0  0  0  0  0  0  0  0  0  0  0
  -21.4420  -29.2920   22.4110 N   0  0  0  0  0  0  0  0  0  0  0  0
  -23.4440  -28.8290   23.3530 O   0  0  0  0  0  0  0  0  0  0  0  0
  -20.9550  -29.8570   21.7300 H   0  0  0  0  0  0  0  0  0  0  0  0
  -18.0610  -28.0990   22.9130 C   0  0  0  0  0  0  0  0  0  0  0  0
  -20.6220  -28.3470   23.1720 C   0  0  0  0  0  3  0  0  0  0  0  0
  -20.7140  -26.9230   22.5760 C   0  0  0  0  0  2  0  0  0  0  0  0
  -19.6060  -26.6180   21.5620 C   0  0  0  0  0  2  0  0  0  0  0  0
  -18.2290  -26.7600   22.2150 C   0  0  0  0  0  2  0  0  0  0  0  0
  -19.1850  -28.8510   23.3470 C   0  0  0  0  0  0  0  0  0  0  0  0
  -18.9720  -30.1040   23.9610 C   0  0  0  0  0  3  0  0  0  0  0  0
  -17.6700  -30.6060   24.1440 C   0  0  0  0  0  3  0  0  0  0  0  0
  -16.5600  -29.8510   23.7250 C   0  0  0  0  0  3  0  0  0  0  0  0
  -16.7580  -28.5980   23.1160 C   0  0  0  0  0  3  0  0  0  0  0  0
  -25.8800  -32.5320   23.8840 C   0  0  0  0  0  3  0  0  0  0  0  0
  -25.5610  -33.9350   24.1910 N   0  0  0  0  0  0  0  0  0  0  0  0
  -25.9190  -34.9820   23.4370 C   0  0  0  0  0  0  0  0  0  0  0  0
  -26.6210  -34.8690   22.4280 O   0  0  0  0  0  0  0  0  0  0  0  0
  -24.9420  -34.0960   24.9720 H   0  0  0  0  0  0  0  0  0  0  0  0
  -24.2250  -36.7930   23.0000 C   0  0  0  0  0  1  0  0  0  0  0  0
  -25.4220  -36.3760   23.8700 C   0  0  0  0  0  3  0  0  0  0  0  0
  -27.5190  -37.2490   24.8050 C   0  0  0  0  0  1  0  0  0  0  0  0
  -26.4690  -37.4210   23.8050 N   0  0  0  0  0  0  0  0  0  0  0  0
  -26.0630  -38.3450   23.9260 H   0  0  0  0  0  0  0  0  0  0  0  0
  -26.3680  -31.7820   25.1850 C   0  0  1  0  0  0  0  0  0  0  0  0
  -25.2510  -31.5560   26.2300 C   0  0  0  0  0  1  0  0  0  0  0  0
  -26.9660  -30.4000   24.8310 C   0  0  0  0  0  1  0  0  0  0  0  0
  -27.5000  -32.5900   25.8620 C   0  0  0  0  0  1  0  0  0  0  0  0
  1  3  1  0
  2  1  1  0
  5  4  1  0
  5  1  1  0
  5  6  1  0
  6 10  1  0
  6  7  1  0
  7  9  1  0
  7  8  1  0
 10 12  1  0
 12 11  1  0
 13 12  1  0
 14 19  1  0
 15 16  1  0
 15 14  1  0
 17 16  1  0
 17 24  1  0
 17 18  1  0
 19 13  1  0
 19 18  1  0
 20 13  2  0
 21 22  2  0
 22 41  1  0
 23 22  1  0
 23 26  1  0
 24 25  1  0
 24 21  1  0
 25 23  2  0
 26 27  1  0
 27 28  2  0
 29 32  1  0
 29 28  1  0
 30 29  2  0
 31 30  1  0
 31 26  2  0
 32 33  1  0
 33 38  2  0
 33 34  1  0
 34 35  2  0
 35 36  1  0
 36 40  1  0
 37 36  2  0
 38 37  1  0
 39 38  1  0
 41 42  1  0
 42 45  1  0
 42 44  1  0
 43 41  2  0
 46 21  1  0
 46 47  1  0
 48 46  1  0
 49  1  1  0
 49 50  2  0
 51 50  1  0
 52 63  2  0
 53 51  1  0
 53 58  1  0
 54 62  1  0
 54 64  1  0
 55 61  1  0
 55 57  1  0
 56 62  1  0
 57 58  2  0
 57 56  1  0
 59 53  2  0
 60 59  1  0
 60 55  2  0
 61 54  1  0
 62 52  1  0
 64 66  2  0
 65 64  1  0
 67 65  1  0
 68 77  2  0
 68 73  1  0
 69 65  1  0
 69 73  1  0
 70 69  1  0
 71 72  1  0
 71 70  1  0
 72 68  1  0
 73 74  2  0
 74 75  1  0
 76 75  2  0
 77 76  1  0
 78 52  1  0
 78 79  1  0
 78 88  1  0
 79 82  1  0
 80 84  1  0
 80 79  1  0
 81 80  2  0
 84 83  1  0
 86 84  1  0
 86 87  1  0
 86 85  1  0
 88 91  1  1
 88 89  1  0
 90 88  1  0
M  ISO  4  12 100  13 100  50 101  51 101
M  END
>  <TORSDO>  (53) 
F 23

>  <SCORE>  (53) 
-12.454

>  <name>  (53) 
52

>  <ligand_id>  (53) 
52

>  <original_smiles>  (53) 
[H]c1c([H])c([H])c2c(c1[H])C([H])([H])C([H])([H])C([H])([H])C2([H])N([H])C(=O)C1([H])N(C(=O)C([H])(N([H])C(=O)C([H])(N([H])C([H])([H])[H])C([H])([H])[H])C(C([H])([H])[H])(C([H])([H])[H])C([H])([H])[H])C([H])([H])c2c([H])c(OC([H])([H])C([H])([H])[N+]([H])([H])C([H])(C([H])([H])[H])C([H])(N([H])[H])C([H])([H])C([H])(C(=O)N3C([H])([H])C([H])([H])C([H])([H])C([H])(n4nc(-c5c([H])c([H])c(Oc6c([H])c([H])c(F)c([H])c6F)c([H])c5[H])c(C(=O)N([H])[H])c4N([H])[H])C3([H])[H])C([H])([H])[H])c([H])c([H])c2C1([H])[H]

>  <smiles>  (53) 
[H]c1c([H])c([H])c2c(c1[H])C([H])([H])C([H])([H])C([H])([H])C2([H])N([H])C(=O)C1([H])N(C(=O)C([H])(N([H])C(=O)C([H])(N([H])C([H])([H])[H])C([H])([H])[H])C(C([H])([H])[H])(C([H])([H])[H])C([H])([H])[H])C([H])([H])c2c([H])c(OC([H])([H])C([H])([H])[N+]([H])([H])C([H])(C([H])([H])[H])C([H])(N([H])[H])C([H])([H])C([H])(C(=O)N3C([H])([H])C([H])([H])C([H])([H])C([H])(n4nc(-c5c([H])c([H])c(Oc6c([H])c([H])c(F)c([H])c6F)c([H])c5[H])c(C(=O)N([H])[H])c4N([H])[H])C3([H])[H])C([H])([H])[H])c([H])c([H])c2C1([H])[H]

$$$$
53:0:0
     RDKit          3D

 95103  0  0  1  0  0  0  0  0999 V2000
  -29.2080  -23.0190   18.2250 C   0  0  0  0  0  3  0  0  0  0  0  0
  -28.9880  -24.1990   17.4840 C   0  0  0  0  0  3  0  0  0  0  0  0
  -28.7350  -24.2410   20.2760 C   0  0  0  0  0  3  0  0  0  0  0  0
  -29.0860  -23.0200   19.6320 C   0  0  0  0  0  0  0  0  0  0  0  0
  -28.6800  -25.4100   18.1350 C   0  0  0  0  0  0  0  0  0  0  0  0
  -28.5570  -25.4480   19.5440 C   0  0  0  0  0  0  0  0  0  0  0  0
  -28.5370  -26.5510   17.3960 O   0  0  0  0  0  0  0  0  0  0  0  0
  -28.5970  -26.3940   16.4580 H   0  0  0  0  0  0  0  0  0  0  0  0
  -28.3980  -26.6580   20.2020 O   0  0  0  0  0  0  0  0  0  0  0  0
  -24.5730  -31.8400   23.2610 C   0  0  0  0  0  0  0  0  0  0  0  0
  -27.2130  -27.3700   20.1850 C   0  0  0  0  0  0  0  0  0  0  0  0
  -23.3730  -30.4340   21.6180 C   0  0  0  0  0  3  0  0  0  0  0  0
  -24.8260  -28.8930   20.1990 C   0  0  0  0  0  0  0  0  0  0  0  0
  -25.9010  -30.7840   21.4310 C   0  0  0  0  0  2  0  0  0  0  0  0
  -25.9820  -29.4080   20.7950 C   0  0  0  0  0  0  0  0  0  0  0  0
  -27.1750  -28.6490   20.7950 C   0  0  0  0  0  3  0  0  0  0  0  0
  -26.0300  -26.8670   19.5970 C   0  0  0  0  0  3  0  0  0  0  0  0
  -24.8400  -27.6200   19.6030 C   0  0  0  0  0  3  0  0  0  0  0  0
  -23.5880  -29.7580   20.2380 C   0  0  0  0  0  2  0  0  0  0  0  0
  -24.6350  -31.0340   22.1620 N   0  0  0  0  0  0  0  0  0  0  0  0
  -23.4890  -32.1100   23.7950 O   0  0  0  0  0  0  0  0  0  0  0  0
  -22.7200  -29.4100   22.5750 C   0  0  0  0  0  0  0  0  0  0  0  0
  -21.4040  -29.1980   22.4230 N   0  0  0  0  0  0  0  0  0  0  0  0
  -23.3960  -28.8060   23.4120 O   0  0  0  0  0  0  0  0  0  0  0  0
  -20.9150  -29.7430   21.7250 H   0  0  0  0  0  0  0  0  0  0  0  0
  -18.0500  -27.9190   22.8330 C   0  0  0  0  0  0  0  0  0  0  0  0
  -20.5880  -28.2560   23.1870 C   0  0  0  0  0  3  0  0  0  0  0  0
  -20.7490  -26.8160   22.6480 C   0  0  0  0  0  2  0  0  0  0  0  0
  -19.6940  -26.4390   21.6030 C   0  0  0  0  0  2  0  0  0  0  0  0
  -18.2860  -26.5580   22.1980 C   0  0  0  0  0  2  0  0  0  0  0  0
  -19.1320  -28.7230   23.2840 C   0  0  0  0  0  0  0  0  0  0  0  0
  -18.8580  -29.9920   23.8360 C   0  0  0  0  0  3  0  0  0  0  0  0
  -17.5340  -30.4600   23.9440 C   0  0  0  0  0  3  0  0  0  0  0  0
  -16.4660  -29.6550   23.5090 C   0  0  0  0  0  3  0  0  0  0  0  0
  -16.7250  -28.3870   22.9590 C   0  0  0  0  0  3  0  0  0  0  0  0
  -25.8560  -32.4720   23.8800 C   0  0  0  0  0  3  0  0  0  0  0  0
  -25.5460  -33.8710   24.2040 N   0  0  0  0  0  0  0  0  0  0  0  0
  -25.8710  -34.9190   23.4370 C   0  0  0  0  0  0  0  0  0  0  0  0
  -26.5370  -34.8110   22.4020 O   0  0  0  0  0  0  0  0  0  0  0  0
  -24.9450  -34.0290   25.0010 H   0  0  0  0  0  0  0  0  0  0  0  0
  -24.1400  -36.7090   23.0690 C   0  0  0  0  0  1  0  0  0  0  0  0
  -25.3800  -36.3090   23.8860 C   0  0  0  0  0  3  0  0  0  0  0  0
  -27.5050  -37.2070   24.7290 C   0  0  0  0  0  1  0  0  0  0  0  0
  -26.4100  -37.3650   23.7750 N   0  0  0  0  0  0  0  0  0  0  0  0
  -25.9970  -38.2830   23.9170 H   0  0  0  0  0  0  0  0  0  0  0  0
  -26.3730  -31.7030   25.1590 C   0  0  1  0  0  0  0  0  0  0  0  0
  -25.2750  -31.4650   26.2220 C   0  0  0  0  0  1  0  0  0  0  0  0
  -26.9600  -30.3240   24.7730 C   0  0  0  0  0  1  0  0  0  0  0  0
  -27.5120  -32.5020   25.8330 C   0  0  0  0  0  1  0  0  0  0  0  0
  -29.4990  -21.7740   20.4490 C   0  0  0  0  0  2  0  0  0  0  0  0
  -27.5410  -20.2300   19.8780 C   0  0  0  0  0  1  0  0  0  0  0  0
  -29.0790  -20.3500   19.9410 C   0  0  0  0  0  3  0  0  0  0  0  0
  -29.7230  -19.2720   20.7670 N   0  0  0  0  0  4  0  0  0  0  0  0
  -30.7130  -19.3710   20.6180 H   0  0  0  0  0  0  0  0  0  0  0  0
  -29.5660  -19.4440   21.7490 H   0  0  0  0  0  0  0  0  0  0  0  0
  -29.4130  -17.8420   20.4570 C   0  0  0  0  0  2  0  0  0  0  0  0
  -30.5240  -16.8560   20.9820 C   0  0  0  0  0  2  0  0  0  0  0  0
  -30.8520  -14.4350   20.2430 C   0  0  0  0  0  0  0  0  0  0  0  0
  -30.5250  -12.2420   19.1270 C   0  0  0  0  0  2  0  0  0  0  0  0
  -29.5550  -12.4260   17.9410 C   0  0  0  0  0  2  0  0  0  0  0  0
  -28.0930  -12.2960   18.4190 C   0  0  0  0  0  2  0  0  0  0  0  0
  -27.7910  -13.1670   19.6650 C   0  0  0  0  0  3  0  0  0  0  0  0
  -28.8690  -12.9630   20.7510 C   0  0  0  0  0  2  0  0  0  0  0  0
  -30.1850  -13.2510   20.1480 N   0  0  0  0  0  0  0  0  0  0  0  0
  -31.9510  -14.6310   19.7130 O   0  0  0  0  0  0  0  0  0  0  0  0
  -30.1630  -15.4290   20.8440 N   0  0  0  0  0  0  0  0  0  0  0  0
  -29.2880  -15.1520   21.2590 H   0  0  0  0  0  0  0  0  0  0  0  0
  -25.4260  -13.7980   20.4520 C   0  0  0  0  0  0  0  0  0  0  0  0
  -24.3620  -13.0330   20.8560 C   0  0  0  0  0  0  0  0  0  0  0  0
  -24.8070  -11.6780   20.8010 C   0  0  0  0  0  0  0  0  0  0  0  0
  -26.4530  -12.9050   20.1840 N   0  0  0  0  0  0  0  0  0  0  0  0
  -26.0840  -11.6270   20.4510 N   0  0  0  0  0  0  0  0  0  0  0  0
  -24.0770  -10.4210   21.0040 C   0  0  0  0  0  0  0  0  0  0  0  0
  -24.5100   -9.4530   21.9370 C   0  0  0  0  0  3  0  0  0  0  0  0
  -23.7750   -8.2610   22.1240 C   0  0  0  0  0  3  0  0  0  0  0  0
  -22.5930   -8.0330   21.3780 C   0  0  0  0  0  0  0  0  0  0  0  0
  -22.1830   -8.9870   20.4300 C   0  0  0  0  0  3  0  0  0  0  0  0
  -22.9200  -10.1690   20.2400 C   0  0  0  0  0  3  0  0  0  0  0  0
  -21.8290   -6.8930   21.4780 O   0  0  0  0  0  0  0  0  0  0  0  0
  -21.7570   -6.1720   22.6430 C   0  0  0  0  0  0  0  0  0  0  0  0
  -21.2630   -6.7370   23.8400 C   0  0  0  0  0  3  0  0  0  0  0  0
  -21.1430   -5.9420   24.9960 C   0  0  0  0  0  3  0  0  0  0  0  0
  -21.5030   -4.5800   24.9580 C   0  0  0  0  0  0  0  0  0  0  0  0
  -21.9920   -4.0160   23.7640 C   0  0  0  0  0  3  0  0  0  0  0  0
  -22.1150   -4.8090   22.6110 C   0  0  0  0  0  0  0  0  0  0  0  0
  -22.5660   -4.2540   21.4590 F   0  0  0  0  0  0  0  0  0  0  0  0
  -21.3790   -3.8130   26.0630 F   0  0  0  0  0  0  0  0  0  0  0  0
  -22.9810  -13.5250   21.1780 C   0  0  0  0  0  0  0  0  0  0  0  0
  -22.2700  -12.8320   22.0640 N   0  0  0  0  0  0  0  0  0  0  0  0
  -22.5390  -14.5560   20.6770 O   0  0  0  0  0  0  0  0  0  0  0  0
  -22.6390  -11.9950   22.4890 H   0  0  0  0  0  0  0  0  0  0  0  0
  -21.3470  -13.1490   22.3240 H   0  0  0  0  0  0  0  0  0  0  0  0
  -25.5970  -15.1640   20.2710 N   0  0  0  0  0  0  0  0  0  0  0  0
  -24.8170  -15.8100   20.3540 H   0  0  0  0  0  0  0  0  0  0  0  0
  -26.4010  -15.5770   19.8160 H   0  0  0  0  0  0  0  0  0  0  0  0
  1  4  1  0
  2  5  1  0
  2  1  2  0
  4  3  2  0
  4 50  1  0
  5  6  2  0
  6  9  1  0
  6  3  1  0
  7  5  1  0
  8  7  1  0
 10 21  2  0
 11  9  1  0
 11 16  1  0
 12 20  1  0
 12 22  1  0
 13 19  1  0
 13 15  1  0
 14 20  1  0
 15 16  2  0
 15 14  1  0
 17 18  1  0
 17 11  2  0
 18 13  2  0
 19 12  1  0
 20 10  1  0
 22 24  2  0
 23 22  1  0
 25 23  1  0
 26 35  2  0
 26 31  1  0
 27 23  1  0
 27 31  1  0
 28 27  1  0
 29 30  1  0
 29 28  1  0
 30 26  1  0
 31 32  2  0
 32 33  1  0
 34 33  2  0
 35 34  1  0
 36 10  1  0
 36 37  1  0
 36 46  1  0
 37 40  1  0
 38 42  1  0
 38 37  1  0
 39 38  2  0
 42 41  1  0
 44 42  1  0
 44 45  1  0
 44 43  1  0
 46 49  1  1
 46 47  1  0
 48 46  1  0
 52 51  1  0
 52 50  1  0
 52 53  1  0
 53 55  1  0
 54 53  1  0
 56 53  1  0
 56 57  1  0
 58 66  1  0
 59 64  1  0
 60 61  1  0
 60 59  1  0
 62 61  1  0
 62 71  1  0
 62 63  1  0
 64 58  1  0
 64 63  1  0
 65 58  2  0
 66 57  1  0
 66 67  1  0
 68 69  2  0
 69 88  1  0
 70 69  1  0
 70 73  1  0
 71 72  1  0
 71 68  1  0
 72 70  2  0
 73 74  1  0
 74 75  2  0
 76 79  1  0
 76 75  1  0
 77 76  2  0
 78 77  1  0
 78 73  2  0
 79 80  1  0
 80 81  1  0
 81 82  2  0
 83 82  1  0
 83 87  1  0
 84 83  2  0
 85 80  2  0
 85 84  1  0
 86 85  1  0
 88 89  1  0
 89 92  1  0
 89 91  1  0
 90 88  2  0
 93 94  1  0
 93 68  1  0
 95 93  1  0
M  ISO  4   6 101   9 101  58 100  66 100
M  END
>  <TORSDO>  (54) 
F 22

>  <SCORE>  (54) 
-13.154

>  <name>  (54) 
53

>  <ligand_id>  (54) 
53

>  <original_smiles>  (54) 
[H]Oc1c([H])c([H])c(C([H])([H])C([H])(C([H])([H])[H])[N+]([H])([H])C([H])([H])C([H])([H])N([H])C(=O)N2C([H])([H])C([H])([H])C([H])([H])C([H])(n3nc(-c4c([H])c([H])c(Oc5c([H])c([H])c(F)c([H])c5F)c([H])c4[H])c(C(=O)N([H])[H])c3N([H])[H])C2([H])[H])c([H])c1Oc1c([H])c([H])c2c(c1[H])C([H])([H])N(C(=O)C([H])(N([H])C(=O)C([H])(N([H])C([H])([H])[H])C([H])([H])[H])C(C([H])([H])[H])(C([H])([H])[H])C([H])([H])[H])C([H])(C(=O)N([H])C1([H])c3c([H])c([H])c([H])c([H])c3C([H])([H])C([H])([H])C1([H])[H])C2([H])[H]

>  <smiles>  (54) 
[H]Oc1c([H])c([H])c(C([H])([H])C([H])(C([H])([H])[H])[N+]([H])([H])C([H])([H])C([H])([H])N([H])C(=O)N2C([H])([H])C([H])([H])C([H])([H])C([H])(n3nc(-c4c([H])c([H])c(Oc5c([H])c([H])c(F)c([H])c5F)c([H])c4[H])c(C(=O)N([H])[H])c3N([H])[H])C2([H])[H])c([H])c1Oc1c([H])c([H])c2c(c1[H])C([H])([H])N(C(=O)C([H])(N([H])C(=O)C([H])(N([H])C([H])([H])[H])C([H])([H])[H])C(C([H])([H])[H])(C([H])([H])[H])C([H])([H])[H])C([H])(C(=O)N([H])C1([H])c3c([H])c([H])c([H])c([H])c3C([H])([H])C([H])([H])C1([H])[H])C2([H])[H]

$$$$
54:0:0
     RDKit          3D

 93101  0  0  1  0  0  0  0  0999 V2000
  -29.1800  -20.0770   19.6710 N   0  0  0  0  0  4  0  0  0  0  0  0
  -29.5880  -20.1690   20.5670 H   0  0  0  0  0  0  0  0  0  0  0  0
  -28.2120  -19.8800   19.9010 H   0  0  0  0  0  0  0  0  0  0  0  0
  -30.3910  -16.9020   17.2080 C   0  0  0  0  0  3  0  0  0  0  0  0
  -29.6820  -18.2610   17.5870 C   0  0  0  0  0  2  0  0  0  0  0  0
  -31.3110  -16.0120   18.1300 C   0  0  0  0  0  3  0  0  0  0  0  0
  -30.9540  -17.9800   19.7860 C   0  0  0  0  0  2  0  0  0  0  0  0
  -29.6460  -18.6480   19.1210 C   0  0  0  0  0  3  0  0  0  0  0  0
  -31.4730  -16.4480   19.6230 C   0  0  1  0  0  0  0  0  0  0  0  0
  -31.2090  -15.1750   20.6760 C   0  0  0  0  0  0  0  0  0  0  0  0
  -30.7480  -12.9010   19.5410 C   0  0  0  0  0  2  0  0  0  0  0  0
  -29.5970  -12.6500   18.4690 C   0  0  0  0  0  2  0  0  0  0  0  0
  -28.4160  -13.5860   18.6960 C   0  0  0  0  0  2  0  0  0  0  0  0
  -28.0120  -13.8630   20.1980 C   0  0  0  0  0  3  0  0  0  0  0  0
  -29.2110  -13.5260   21.2080 C   0  0  0  0  0  2  0  0  0  0  0  0
  -30.4600  -13.9800   20.5090 N   0  0  0  0  0  0  0  0  0  0  0  0
  -32.1050  -15.1240   21.5240 O   0  0  0  0  0  0  0  0  0  0  0  0
  -25.5560  -14.2510   20.7520 C   0  0  0  0  0  0  0  0  0  0  0  0
  -24.4580  -13.4580   20.9960 C   0  0  0  0  0  0  0  0  0  0  0  0
  -24.9690  -12.1040   21.0400 C   0  0  0  0  0  0  0  0  0  0  0  0
  -26.6630  -13.4320   20.6190 N   0  0  0  0  0  0  0  0  0  0  0  0
  -26.2890  -12.1270   20.8320 N   0  0  0  0  0  0  0  0  0  0  0  0
  -24.2250  -10.8260   21.1350 C   0  0  0  0  0  0  0  0  0  0  0  0
  -24.5680   -9.8230   22.0880 C   0  0  0  0  0  3  0  0  0  0  0  0
  -23.8000   -8.6330   22.2000 C   0  0  0  0  0  3  0  0  0  0  0  0
  -22.6920   -8.4490   21.3410 C   0  0  0  0  0  0  0  0  0  0  0  0
  -22.3650   -9.4080   20.3820 C   0  0  0  0  0  3  0  0  0  0  0  0
  -23.1300  -10.5930   20.2640 C   0  0  0  0  0  3  0  0  0  0  0  0
  -21.8960   -7.3000   21.3830 O   0  0  0  0  0  0  0  0  0  0  0  0
  -21.7690   -6.5500   22.5000 C   0  0  0  0  0  0  0  0  0  0  0  0
  -21.2450   -7.0900   23.7130 C   0  0  0  0  0  3  0  0  0  0  0  0
  -21.0500   -6.2780   24.8270 C   0  0  0  0  0  3  0  0  0  0  0  0
  -21.3630   -4.8940   24.7680 C   0  0  0  0  0  0  0  0  0  0  0  0
  -21.8670   -4.3480   23.5810 C   0  0  0  0  0  3  0  0  0  0  0  0
  -22.0620   -5.1680   22.4520 C   0  0  0  0  0  0  0  0  0  0  0  0
  -22.5210   -4.6140   21.3060 F   0  0  0  0  0  0  0  0  0  0  0  0
  -21.1760   -4.1110   25.8610 F   0  0  0  0  0  0  0  0  0  0  0  0
  -23.0190  -13.8940   21.0440 C   0  0  0  0  0  0  0  0  0  0  0  0
  -22.1920  -13.2340   21.8890 N   0  0  0  0  0  0  0  0  0  0  0  0
  -22.6160  -14.8620   20.3950 O   0  0  0  0  0  0  0  0  0  0  0  0
  -22.5350  -12.3980   22.3280 H   0  0  0  0  0  0  0  0  0  0  0  0
  -21.2610  -13.5500   22.0810 H   0  0  0  0  0  0  0  0  0  0  0  0
  -25.6400  -15.6300   20.5880 N   0  0  0  0  0  0  0  0  0  0  0  0
  -25.3570  -16.1770   21.4130 H   0  0  0  0  0  0  0  0  0  0  0  0
  -24.7660  -15.6820   20.0710 H   0  0  0  0  0  0  0  0  0  0  0  0
  -32.8940  -16.7440   19.8570 N   0  0  0  0  0  4  0  0  0  0  0  0
  -33.0680  -17.7070   19.5870 H   0  0  0  0  0  0  0  0  0  0  0  0
  -33.6230  -16.1990   19.3720 H   0  0  0  0  0  0  0  0  0  0  0  0
  -33.0610  -16.7090   20.8610 H   0  0  0  0  0  0  0  0  0  0  0  0
  -28.9550  -21.5690   19.1210 C   0  0  0  0  0  3  0  0  0  0  0  0
  -28.4990  -23.0640   19.9530 C   0  0  0  0  0  3  0  0  0  0  0  0
  -28.2420  -24.6730   19.3660 C   0  0  0  0  0  2  0  0  0  0  0  0
  -28.2440  -26.1270   20.0230 O   0  0  0  0  0  0  0  0  0  0  0  0
  -24.5840  -31.8920   23.1940 C   0  0  0  0  0  0  0  0  0  0  0  0
  -27.2060  -27.1670   20.0670 C   0  0  0  0  0  0  0  0  0  0  0  0
  -23.3890  -30.5080   21.5480 C   0  0  0  0  0  3  0  0  0  0  0  0
  -24.8490  -28.9240   20.1130 C   0  0  0  0  0  0  0  0  0  0  0  0
  -25.9380  -30.7630   21.4320 C   0  0  0  0  0  2  0  0  0  0  0  0
  -26.0190  -29.3760   20.7350 C   0  0  0  0  0  0  0  0  0  0  0  0
  -27.1920  -28.4990   20.7180 C   0  0  0  0  0  3  0  0  0  0  0  0
  -25.9920  -26.8510   19.4430 C   0  0  0  0  0  3  0  0  0  0  0  0
  -24.8500  -27.6730   19.4660 C   0  0  0  0  0  3  0  0  0  0  0  0
  -23.6260  -29.8280   20.1710 C   0  0  0  0  0  2  0  0  0  0  0  0
  -24.6500  -31.0690   22.1150 N   0  0  0  0  0  0  0  0  0  0  0  0
  -23.5050  -32.1750   23.7250 O   0  0  0  0  0  0  0  0  0  0  0  0
  -22.7130  -29.5020   22.5100 C   0  0  0  0  0  0  0  0  0  0  0  0
  -21.3840  -29.3250   22.3900 N   0  0  0  0  0  0  0  0  0  0  0  0
  -23.3710  -28.8670   23.3390 O   0  0  0  0  0  0  0  0  0  0  0  0
  -20.8810  -29.8770   21.7080 H   0  0  0  0  0  0  0  0  0  0  0  0
  -18.0020  -28.0990   22.9240 C   0  0  0  0  0  0  0  0  0  0  0  0
  -20.5650  -28.3800   23.1690 C   0  0  0  0  0  3  0  0  0  0  0  0
  -20.6690  -26.9480   22.5930 C   0  0  0  0  0  2  0  0  0  0  0  0
  -19.5620  -26.6220   21.5850 C   0  0  0  0  0  2  0  0  0  0  0  0
  -18.1830  -26.7570   22.2380 C   0  0  0  0  0  2  0  0  0  0  0  0
  -19.1170  -28.8670   23.3510 C   0  0  0  0  0  0  0  0  0  0  0  0
  -18.8970  -30.1250   23.9530 C   0  0  0  0  0  3  0  0  0  0  0  0
  -17.5900  -30.6130   24.1390 C   0  0  0  0  0  3  0  0  0  0  0  0
  -16.4890  -29.8410   23.7290 C   0  0  0  0  0  3  0  0  0  0  0  0
  -16.6960  -28.5880   23.1280 C   0  0  0  0  0  3  0  0  0  0  0  0
  -25.8490  -32.5370   23.8260 C   0  0  0  0  0  3  0  0  0  0  0  0
  -25.5410  -33.9360   24.1570 N   0  0  0  0  0  0  0  0  0  0  0  0
  -25.9060  -34.9980   23.4230 C   0  0  0  0  0  0  0  0  0  0  0  0
  -26.6090  -34.8970   22.4120 O   0  0  0  0  0  0  0  0  0  0  0  0
  -24.9120  -34.0910   24.9330 H   0  0  0  0  0  0  0  0  0  0  0  0
  -24.2060  -36.8120   23.0310 C   0  0  0  0  0  1  0  0  0  0  0  0
  -25.4140  -36.3820   23.8800 C   0  0  0  0  0  3  0  0  0  0  0  0
  -27.5250  -37.2350   24.7990 C   0  0  0  0  0  1  0  0  0  0  0  0
  -26.4560  -37.4290   23.8220 N   0  0  0  0  0  0  0  0  0  0  0  0
  -26.0510  -38.3470   23.9770 H   0  0  0  0  0  0  0  0  0  0  0  0
  -26.3560  -31.7800   25.1160 C   0  0  1  0  0  0  0  0  0  0  0  0
  -25.2540  -31.5630   26.1800 C   0  0  0  0  0  1  0  0  0  0  0  0
  -26.9500  -30.3940   24.7760 C   0  0  0  0  0  1  0  0  0  0  0  0
  -27.5040  -32.5850   25.7840 C   0  0  0  0  0  1  0  0  0  0  0  0
  1  3  1  0
  1  2  1  0
  4  5  1  0
  4  6  2  0
  5  8  1  0
  6  9  1  0
  8  1  1  0
  8  7  1  0
  9  7  1  0
  9 46  1  6
  9 10  1  0
 10 17  2  0
 11 16  1  0
 12 13  1  0
 12 11  1  0
 14 13  1  0
 14 21  1  0
 14 15  1  0
 16 10  1  0
 16 15  1  0
 18 19  2  0
 19 20  1  0
 19 38  1  0
 20 23  1  0
 21 18  1  0
 21 22  1  0
 22 20  2  0
 23 24  1  0
 24 25  2  0
 26 29  1  0
 26 25  1  0
 27 26  2  0
 28 27  1  0
 28 23  2  0
 29 30  1  0
 30 31  1  0
 31 32  2  0
 33 32  1  0
 33 37  1  0
 34 33  2  0
 35 30  2  0
 35 34  1  0
 36 35  1  0
 38 39  1  0
 39 42  1  0
 39 41  1  0
 40 38  2  0
 43 18  1  0
 43 44  1  0
 45 43  1  0
 46 49  1  0
 47 46  1  0
 48 46  1  0
 50  1  1  0
 50 51  2  0
 52 51  1  0
 52 53  1  0
 53 55  1  0
 54 65  2  0
 55 60  1  0
 56 64  1  0
 56 66  1  0
 57 63  1  0
 57 59  1  0
 58 64  1  0
 59 58  1  0
 60 59  2  0
 61 62  1  0
 61 55  2  0
 62 57  2  0
 63 56  1  0
 64 54  1  0
 66 68  2  0
 67 66  1  0
 69 67  1  0
 70 79  2  0
 70 75  1  0
 71 67  1  0
 71 75  1  0
 72 71  1  0
 73 74  1  0
 73 72  1  0
 74 70  1  0
 75 76  2  0
 76 77  1  0
 78 77  2  0
 79 78  1  0
 80 54  1  0
 80 81  1  0
 80 90  1  0
 81 84  1  0
 82 86  1  0
 82 81  1  0
 83 82  2  0
 86 85  1  0
 88 86  1  0
 88 89  1  0
 88 87  1  0
 90 93  1  1
 90 91  1  0
 92 90  1  0
M  ISO  4   9 100  10 100  52 101  53 101
M  END
>  <TORSDO>  (55) 
F 21

>  <SCORE>  (55) 
-12.977

>  <name>  (55) 
54

>  <ligand_id>  (55) 
54

>  <original_smiles>  (55) 
[H]c1c([H])c([H])c2c(c1[H])C([H])([H])C([H])([H])C([H])([H])C2([H])N([H])C(=O)C1([H])N(C(=O)C([H])(N([H])C(=O)C([H])(N([H])C([H])([H])[H])C([H])([H])[H])C(C([H])([H])[H])(C([H])([H])[H])C([H])([H])[H])C([H])([H])c2c([H])c(OC([H])([H])C([H])([H])C([H])([H])[N+]([H])([H])C3([H])C([H])([H])C([H])([H])C([H])([H])C(C(=O)N4C([H])([H])C([H])([H])C([H])([H])C([H])(n5nc(-c6c([H])c([H])c(Oc7c([H])c([H])c(F)c([H])c7F)c([H])c6[H])c(C(=O)N([H])[H])c5N([H])[H])C4([H])[H])([N+]([H])([H])[H])C3([H])[H])c([H])c([H])c2C1([H])[H]

>  <smiles>  (55) 
[H]c1c([H])c([H])c2c(c1[H])C([H])([H])C([H])([H])C([H])([H])C2([H])N([H])C(=O)C1([H])N(C(=O)C([H])(N([H])C(=O)C([H])(N([H])C([H])([H])[H])C([H])([H])[H])C(C([H])([H])[H])(C([H])([H])[H])C([H])([H])[H])C([H])([H])c2c([H])c(OC([H])([H])C([H])([H])C([H])([H])[N+]([H])([H])C3([H])C([H])([H])C([H])([H])C([H])([H])C(C(=O)N4C([H])([H])C([H])([H])C([H])([H])C([H])(n5nc(-c6c([H])c([H])c(Oc7c([H])c([H])c(F)c([H])c7F)c([H])c6[H])c(C(=O)N([H])[H])c5N([H])[H])C4([H])[H])([N+]([H])([H])[H])C3([H])[H])c([H])c([H])c2C1([H])[H]

$$$$
55:0:0
     RDKit          3D

 88 95  0  0  1  0  0  0  0  0999 V2000
  -30.9350  -19.1670   19.3160 C   0  0  0  0  0  3  0  0  0  0  0  0
  -28.9900  -18.6940   18.2150 C   0  0  0  0  0  3  0  0  0  0  0  0
  -30.5520  -20.8510   19.3290 C   0  0  0  0  0  3  0  0  0  0  0  0
  -28.5300  -20.3550   18.2960 C   0  0  0  0  0  3  0  0  0  0  0  0
  -28.6350  -20.3680   20.6170 C   0  0  0  0  0  2  0  0  0  0  0  0
  -29.8430  -17.9140   19.3880 C   0  0  0  0  0  3  0  0  0  0  0  0
  -29.0280  -21.4580   19.4290 C   0  0  0  0  0  3  0  0  0  0  0  0
  -29.0000  -18.6600   20.6230 C   0  0  2  0  0  0  0  0  0  0  0  0
  -27.6480  -17.9170   20.7640 C   0  0  0  0  0  1  0  0  0  0  0  0
  -29.7370  -18.3750   21.9530 C   0  0  0  0  0  1  0  0  0  0  0  0
  -30.4830  -16.0170   19.3330 C   0  0  0  0  0  2  0  0  0  0  0  0
  -30.6110  -13.3550   18.6700 C   0  0  0  0  0  2  0  0  0  0  0  0
  -29.6510  -12.7610   17.5880 C   0  0  0  0  0  2  0  0  0  0  0  0
  -28.3090  -12.3470   18.2040 C   0  0  0  0  0  2  0  0  0  0  0  0
  -27.8380  -13.4100   19.2160 C   0  0  0  0  0  3  0  0  0  0  0  0
  -28.9370  -13.9130   20.1880 C   0  0  0  0  0  2  0  0  0  0  0  0
  -30.0040  -14.5930   19.3950 N   0  0  0  0  0  0  0  0  0  0  0  0
  -31.6950  -15.8460   19.0620 O   0  0  0  0  0  1  0  0  0  0  0  0
  -25.6180  -13.9330   20.3110 C   0  0  0  0  0  0  0  0  0  0  0  0
  -24.5890  -13.1580   20.7650 C   0  0  0  0  0  0  0  0  0  0  0  0
  -25.0110  -11.8010   20.6020 C   0  0  0  0  0  0  0  0  0  0  0  0
  -26.5950  -13.0550   19.8880 N   0  0  0  0  0  0  0  0  0  0  0  0
  -26.2540  -11.7600   20.1270 N   0  0  0  0  0  0  0  0  0  0  0  0
  -24.2700  -10.5480   20.8150 C   0  0  0  0  0  0  0  0  0  0  0  0
  -24.7190   -9.5650   21.7240 C   0  0  0  0  0  3  0  0  0  0  0  0
  -23.9730   -8.3840   21.9300 C   0  0  0  0  0  3  0  0  0  0  0  0
  -22.7630   -8.1770   21.2270 C   0  0  0  0  0  0  0  0  0  0  0  0
  -22.3300   -9.1480   20.3080 C   0  0  0  0  0  3  0  0  0  0  0  0
  -23.0760  -10.3210   20.1000 C   0  0  0  0  0  3  0  0  0  0  0  0
  -21.9870   -7.0470   21.3420 O   0  0  0  0  0  0  0  0  0  0  0  0
  -21.8790   -6.3650   22.5270 C   0  0  0  0  0  0  0  0  0  0  0  0
  -21.3930   -6.9810   23.7000 C   0  0  0  0  0  3  0  0  0  0  0  0
  -21.2320   -6.2260   24.8780 C   0  0  0  0  0  3  0  0  0  0  0  0
  -21.5490   -4.8540   24.8850 C   0  0  0  0  0  0  0  0  0  0  0  0
  -22.0300   -4.2370   23.7160 C   0  0  0  0  0  3  0  0  0  0  0  0
  -22.1900   -4.9900   22.5400 C   0  0  0  0  0  0  0  0  0  0  0  0
  -22.6330   -4.3860   21.4120 F   0  0  0  0  0  0  0  0  0  0  0  0
  -21.3880   -4.1250   26.0140 F   0  0  0  0  0  0  0  0  0  0  0  0
  -23.2510  -13.6540   21.2250 C   0  0  0  0  0  0  0  0  0  0  0  0
  -22.6140  -12.9390   22.1440 N   0  0  0  0  0  0  0  0  0  0  0  0
  -22.7870  -14.7150   20.8050 O   0  0  0  0  0  0  0  0  0  0  0  0
  -23.0080  -12.0820   22.5020 H   0  0  0  0  0  0  0  0  0  0  0  0
  -21.7210  -13.2540   22.4960 H   0  0  0  0  0  0  0  0  0  0  0  0
  -25.7980  -15.3070   20.1890 N   0  0  0  0  0  0  0  0  0  0  0  0
  -25.0740  -15.9710   20.4400 H   0  0  0  0  0  0  0  0  0  0  0  0
  -26.6230  -15.7450   19.8040 H   0  0  0  0  0  0  0  0  0  0  0  0
  -28.4000  -23.4480   19.2760 C   0  0  0  0  0  1  0  0  0  0  0  0
  -28.4650  -25.2680   19.6710 O   0  0  0  0  0  0  0  0  0  0  0  0
  -24.8980  -31.5650   22.9670 C   0  0  0  0  0  0  0  0  0  0  0  0
  -27.4980  -26.5580   19.6790 C   0  0  0  0  0  0  0  0  0  0  0  0
  -23.7330  -30.2350   21.2610 C   0  0  0  0  0  3  0  0  0  0  0  0
  -25.2060  -28.6680   19.7520 C   0  0  0  0  0  0  0  0  0  0  0  0
  -26.3150  -30.3840   21.1480 C   0  0  0  0  0  2  0  0  0  0  0  0
  -26.4030  -28.9730   20.4080 C   0  0  0  0  0  0  0  0  0  0  0  0
  -27.5210  -27.9540   20.3380 C   0  0  0  0  0  3  0  0  0  0  0  0
  -26.2600  -26.5180   18.9720 C   0  0  0  0  0  3  0  0  0  0  0  0
  -25.1850  -27.4720   19.0090 C   0  0  0  0  0  3  0  0  0  0  0  0
  -23.9870  -29.6110   19.8550 C   0  0  0  0  0  2  0  0  0  0  0  0
  -25.0080  -30.7640   21.8460 N   0  0  0  0  0  0  0  0  0  0  0  0
  -23.8000  -31.8210   23.4930 O   0  0  0  0  0  0  0  0  0  0  0  0
  -23.0270  -29.2040   22.1860 C   0  0  0  0  0  0  0  0  0  0  0  0
  -21.6960  -29.0360   22.0590 N   0  0  0  0  0  0  0  0  0  0  0  0
  -23.6940  -28.5520   22.9930 O   0  0  0  0  0  0  0  0  0  0  0  0
  -21.2030  -29.6140   21.3930 H   0  0  0  0  0  0  0  0  0  0  0  0
  -18.3280  -27.7540   22.5660 C   0  0  0  0  0  0  0  0  0  0  0  0
  -20.8920  -28.0400   22.7840 C   0  0  0  0  0  3  0  0  0  0  0  0
  -20.9930  -26.6510   22.1110 C   0  0  0  0  0  2  0  0  0  0  0  0
  -19.8710  -26.3860   21.1010 C   0  0  0  0  0  2  0  0  0  0  0  0
  -18.5050  -26.4620   21.7860 C   0  0  0  0  0  2  0  0  0  0  0  0
  -19.4470  -28.5020   23.0210 C   0  0  0  0  0  0  0  0  0  0  0  0
  -19.2230  -29.7080   23.7190 C   0  0  0  0  0  3  0  0  0  0  0  0
  -17.9140  -30.1690   23.9630 C   0  0  0  0  0  3  0  0  0  0  0  0
  -16.8120  -29.4180   23.5200 C   0  0  0  0  0  3  0  0  0  0  0  0
  -17.0190  -28.2120   22.8280 C   0  0  0  0  0  3  0  0  0  0  0  0
  -26.1450  -32.2120   23.6440 C   0  0  0  0  0  3  0  0  0  0  0  0
  -25.7990  -33.5960   24.0360 N   0  0  0  0  0  0  0  0  0  0  0  0
  -26.1010  -34.6990   23.3370 C   0  0  0  0  0  0  0  0  0  0  0  0
  -26.7510  -34.6620   22.2900 O   0  0  0  0  0  0  0  0  0  0  0  0
  -25.2140  -33.6960   24.8520 H   0  0  0  0  0  0  0  0  0  0  0  0
  -24.3230  -36.4790   23.1470 C   0  0  0  0  0  1  0  0  0  0  0  0
  -25.6070  -36.0590   23.8800 C   0  0  0  0  0  3  0  0  0  0  0  0
  -27.7510  -36.9690   24.6660 C   0  0  0  0  0  1  0  0  0  0  0  0
  -26.6110  -37.1420   23.7700 N   0  0  0  0  0  0  0  0  0  0  0  0
  -26.1890  -38.0460   23.9650 H   0  0  0  0  0  0  0  0  0  0  0  0
  -26.6410  -31.4140   24.9130 C   0  0  1  0  0  0  0  0  0  0  0  0
  -25.5310  -31.1450   25.9580 C   0  0  0  0  0  1  0  0  0  0  0  0
  -27.2410  -30.0490   24.5150 C   0  0  0  0  0  1  0  0  0  0  0  0
  -27.7750  -32.1990   25.6170 C   0  0  0  0  0  1  0  0  0  0  0  0
  1  3  2  0
  1  6  1  0
  2  4  2  0
  3  7  1  0
  5  8  1  0
  6  2  1  0
  6  8  1  0
  7  4  1  0
  7  5  1  0
  8  9  1  1
  8 10  1  0
 11 17  1  0
 12 17  1  0
 13 14  1  0
 13 12  1  0
 15 14  1  0
 15 22  1  0
 15 16  1  0
 17 16  1  0
 18 11  1  0
 19 20  2  0
 20 39  1  0
 21 20  1  0
 21 24  1  0
 22 23  1  0
 22 19  1  0
 23 21  2  0
 24 25  1  0
 25 26  2  0
 27 30  1  0
 27 26  1  0
 28 27  2  0
 29 28  1  0
 29 24  2  0
 30 31  1  0
 31 36  2  0
 31 32  1  0
 32 33  2  0
 33 34  1  0
 34 38  1  0
 35 34  2  0
 36 35  1  0
 37 36  1  0
 39 40  1  0
 40 43  1  0
 40 42  1  0
 41 39  2  0
 44 19  1  0
 44 45  1  0
 46 44  1  0
 47 48  1  0
 48 50  1  0
 49 60  2  0
 50 55  1  0
 51 59  1  0
 51 61  1  0
 52 58  1  0
 52 54  1  0
 53 59  1  0
 54 53  1  0
 55 54  2  0
 56 57  1  0
 56 50  2  0
 57 52  2  0
 58 51  1  0
 59 49  1  0
 61 63  2  0
 62 61  1  0
 64 62  1  0
 65 74  2  0
 65 70  1  0
 66 62  1  0
 66 70  1  0
 67 66  1  0
 68 69  1  0
 68 67  1  0
 69 65  1  0
 70 71  2  0
 71 72  1  0
 73 72  2  0
 74 73  1  0
 75 49  1  0
 75 76  1  0
 75 85  1  0
 76 79  1  0
 77 81  1  0
 77 76  1  0
 78 77  2  0
 81 80  1  0
 83 81  1  0
 83 84  1  0
 83 82  1  0
 85 88  1  1
 85 86  1  0
 87 85  1  0
M  ISO  4   6 100  11 100  47 101  48 101
M  END
>  <TORSDO>  (56) 
F 17

>  <SCORE>  (56) 
-14.104

>  <name>  (56) 
55

>  <ligand_id>  (56) 
55

>  <original_smiles>  (56) 
[H]c1c([H])c([H])c2c(c1[H])C([H])([H])C([H])([H])C([H])([H])C2([H])N([H])C(=O)C1([H])N(C(=O)C([H])(N([H])C(=O)C([H])(N([H])C([H])([H])[H])C([H])([H])[H])C(C([H])([H])[H])(C([H])([H])[H])C([H])([H])[H])C([H])([H])c2c([H])c(OC([H])([H])C34C([H])([H])C([H])([H])C(C(=O)N5C([H])([H])C([H])([H])C([H])([H])C([H])(n6nc(-c7c([H])c([H])c(Oc8c([H])c([H])c(F)c([H])c8F)c([H])c7[H])c(C(=O)N([H])[H])c6N([H])[H])C5([H])[H])(C([H])([H])C3([H])[H])C(C([H])([H])[H])(C([H])([H])[H])C4([H])[H])c([H])c([H])c2C1([H])[H]

>  <smiles>  (56) 
[H]c1c([H])c([H])c2c(c1[H])C([H])([H])C([H])([H])C([H])([H])C2([H])N([H])C(=O)C1([H])N(C(=O)C([H])(N([H])C(=O)C([H])(N([H])C([H])([H])[H])C([H])([H])[H])C(C([H])([H])[H])(C([H])([H])[H])C([H])([H])[H])C([H])([H])c2c([H])c(OC([H])([H])C34C([H])([H])C([H])([H])C(C(=O)N5C([H])([H])C([H])([H])C([H])([H])C([H])(n6nc(-c7c([H])c([H])c(Oc8c([H])c([H])c(F)c([H])c8F)c([H])c7[H])c(C(=O)N([H])[H])c6N([H])[H])C5([H])[H])(C([H])([H])C3([H])[H])C(C([H])([H])[H])(C([H])([H])[H])C4([H])[H])c([H])c([H])c2C1([H])[H]

$$$$
56:0:0
     RDKit          3D

 97105  0  0  1  0  0  0  0  0999 V2000
  -29.5710  -19.9250   20.5240 N   0  0  0  0  0  0  0  0  0  0  0  0
  -29.8610  -20.2010   19.5930 H   0  0  0  0  0  0  0  0  0  0  0  0
  -28.4400  -20.8080   20.9110 C   0  0  0  0  0  2  0  0  0  0  0  0
  -29.3760  -23.0210   19.8240 C   0  0  0  0  0  3  0  0  0  0  0  0
  -27.6370  -23.1900   21.4790 C   0  0  0  0  0  3  0  0  0  0  0  0
  -29.3200  -24.4350   19.6450 C   0  0  0  0  0  3  0  0  0  0  0  0
  -27.5850  -24.6020   21.3040 C   0  0  0  0  0  3  0  0  0  0  0  0
  -28.5240  -22.3610   20.7430 C   0  0  0  0  0  0  0  0  0  0  0  0
  -28.4140  -25.2620   20.3620 C   0  0  0  0  0  0  0  0  0  0  0  0
  -28.4260  -26.6560   20.1710 O   0  0  0  0  0  0  0  0  0  0  0  0
  -24.5860  -31.8760   23.2660 C   0  0  0  0  0  0  0  0  0  0  0  0
  -27.2720  -27.4370   20.1640 C   0  0  0  0  0  0  0  0  0  0  0  0
  -23.4200  -30.5350   21.5470 C   0  0  0  0  0  3  0  0  0  0  0  0
  -24.9040  -29.0180   20.1220 C   0  0  0  0  0  0  0  0  0  0  0  0
  -25.9580  -30.8590   21.4420 C   0  0  0  0  0  2  0  0  0  0  0  0
  -26.0500  -29.4990   20.7680 C   0  0  0  0  0  0  0  0  0  0  0  0
  -27.2360  -28.7160   20.7840 C   0  0  0  0  0  3  0  0  0  0  0  0
  -26.1110  -26.9920   19.4950 C   0  0  0  0  0  3  0  0  0  0  0  0
  -24.9340  -27.7670   19.4800 C   0  0  0  0  0  3  0  0  0  0  0  0
  -23.6680  -29.8940   20.1550 C   0  0  0  0  0  2  0  0  0  0  0  0
  -24.6720  -31.1050   22.1440 N   0  0  0  0  0  0  0  0  0  0  0  0
  -23.4920  -32.1430   23.7810 O   0  0  0  0  0  0  0  0  0  0  0  0
  -22.7280  -29.4960   22.4590 C   0  0  0  0  0  0  0  0  0  0  0  0
  -21.4060  -29.3290   22.2890 N   0  0  0  0  0  0  0  0  0  0  0  0
  -23.3810  -28.8400   23.2760 O   0  0  0  0  0  0  0  0  0  0  0  0
  -20.9400  -29.9110   21.6060 H   0  0  0  0  0  0  0  0  0  0  0  0
  -18.0060  -28.1630   22.6720 C   0  0  0  0  0  0  0  0  0  0  0  0
  -20.5600  -28.3750   23.0060 C   0  0  0  0  0  3  0  0  0  0  0  0
  -20.6570  -26.9650   22.3810 C   0  0  0  0  0  2  0  0  0  0  0  0
  -19.5740  -26.6950   21.3310 C   0  0  0  0  0  2  0  0  0  0  0  0
  -18.1800  -26.8370   21.9500 C   0  0  0  0  0  2  0  0  0  0  0  0
  -19.1250  -28.8920   23.1540 C   0  0  0  0  0  0  0  0  0  0  0  0
  -18.9100  -30.1350   23.7870 C   0  0  0  0  0  3  0  0  0  0  0  0
  -17.6090  -30.6490   23.9420 C   0  0  0  0  0  3  0  0  0  0  0  0
  -16.5030  -29.9160   23.4790 C   0  0  0  0  0  3  0  0  0  0  0  0
  -16.7030  -28.6740   22.8490 C   0  0  0  0  0  3  0  0  0  0  0  0
  -25.8580  -32.4770   23.9440 C   0  0  0  0  0  3  0  0  0  0  0  0
  -25.5480  -33.8650   24.3150 N   0  0  0  0  0  0  0  0  0  0  0  0
  -25.9010  -34.9410   23.6000 C   0  0  0  0  0  0  0  0  0  0  0  0
  -26.5910  -34.8700   22.5790 O   0  0  0  0  0  0  0  0  0  0  0  0
  -24.9380  -33.9950   25.1080 H   0  0  0  0  0  0  0  0  0  0  0  0
  -24.1870  -36.7540   23.2740 C   0  0  0  0  0  1  0  0  0  0  0  0
  -25.4100  -36.3150   24.0950 C   0  0  0  0  0  3  0  0  0  0  0  0
  -27.5280  -37.1630   25.0010 C   0  0  0  0  0  1  0  0  0  0  0  0
  -26.4480  -37.3670   24.0400 N   0  0  0  0  0  0  0  0  0  0  0  0
  -26.0420  -38.2840   24.2080 H   0  0  0  0  0  0  0  0  0  0  0  0
  -26.3400  -31.6590   25.2040 C   0  0  1  0  0  0  0  0  0  0  0  0
  -25.2190  -31.3850   26.2330 C   0  0  0  0  0  1  0  0  0  0  0  0
  -26.9310  -30.2940   24.7760 C   0  0  0  0  0  1  0  0  0  0  0  0
  -27.4760  -32.4230   25.9240 C   0  0  0  0  0  1  0  0  0  0  0  0
  -29.1840  -18.4790   20.5450 C   0  0  0  0  0  2  0  0  0  0  0  0
  -30.2460  -17.3750   20.0920 C   0  0  0  0  0  3  0  0  0  0  0  0
  -30.4240  -17.3750   18.6130 N   0  0  0  0  0  4  0  0  0  0  0  0
  -30.8730  -16.4890   18.4060 H   0  0  0  0  0  0  0  0  0  0  0  0
  -29.5170  -17.3700   18.1740 H   0  0  0  0  0  0  0  0  0  0  0  0
  -31.2710  -18.2430   16.4540 C   0  0  0  0  0  1  0  0  0  0  0  0
  -32.7090  -18.4670   18.5120 C   0  0  0  0  0  1  0  0  0  0  0  0
  -31.2610  -18.4320   17.9810 C   0  0  0  0  0  3  0  0  0  0  0  0
  -29.9210  -15.8880   20.6280 C   0  0  0  0  0  3  0  0  0  0  0  0
  -30.5440  -14.6480   19.8530 C   0  0  0  0  0  0  0  0  0  0  0  0
  -30.2160  -12.4710   18.6850 C   0  0  0  0  0  2  0  0  0  0  0  0
  -29.1500  -12.6200   17.5760 C   0  0  0  0  0  2  0  0  0  0  0  0
  -27.7320  -12.4200   18.1450 C   0  0  0  0  0  2  0  0  0  0  0  0
  -27.4880  -13.2410   19.4380 C   0  0  0  0  0  3  0  0  0  0  0  0
  -28.6530  -13.0660   20.4350 C   0  0  0  0  0  2  0  0  0  0  0  0
  -29.9000  -13.4410   19.7540 N   0  0  0  0  0  0  0  0  0  0  0  0
  -31.5920  -14.8470   19.2310 O   0  0  0  0  0  0  0  0  0  0  0  0
  -25.1760  -13.7810   20.4280 C   0  0  0  0  0  0  0  0  0  0  0  0
  -24.1630  -12.9800   20.8800 C   0  0  0  0  0  0  0  0  0  0  0  0
  -24.6330  -11.6380   20.7460 C   0  0  0  0  0  0  0  0  0  0  0  0
  -26.2000  -12.9250   20.0480 N   0  0  0  0  0  0  0  0  0  0  0  0
  -25.8830  -11.6280   20.2990 N   0  0  0  0  0  0  0  0  0  0  0  0
  -23.9430  -10.3590   20.9630 C   0  0  0  0  0  0  0  0  0  0  0  0
  -24.4170   -9.4140   21.8990 C   0  0  0  0  0  3  0  0  0  0  0  0
  -23.7270   -8.2000   22.1030 C   0  0  0  0  0  3  0  0  0  0  0  0
  -22.5500   -7.9220   21.3700 C   0  0  0  0  0  0  0  0  0  0  0  0
  -22.0960   -8.8550   20.4220 C   0  0  0  0  0  3  0  0  0  0  0  0
  -22.7870  -10.0610   20.2170 C   0  0  0  0  0  3  0  0  0  0  0  0
  -21.8270   -6.7590   21.4830 O   0  0  0  0  0  0  0  0  0  0  0  0
  -21.7330   -6.0800   22.6710 C   0  0  0  0  0  0  0  0  0  0  0  0
  -21.2190   -6.6880   23.8380 C   0  0  0  0  0  3  0  0  0  0  0  0
  -21.0760   -5.9340   25.0190 C   0  0  0  0  0  3  0  0  0  0  0  0
  -21.4380   -4.5740   25.0370 C   0  0  0  0  0  0  0  0  0  0  0  0
  -21.9450   -3.9660   23.8750 C   0  0  0  0  0  3  0  0  0  0  0  0
  -22.0890   -4.7160   22.6950 C   0  0  0  0  0  0  0  0  0  0  0  0
  -22.5590   -4.1200   21.5730 F   0  0  0  0  0  0  0  0  0  0  0  0
  -21.2940   -3.8470   26.1700 F   0  0  0  0  0  0  0  0  0  0  0  0
  -22.7990  -13.4270   21.3170 C   0  0  0  0  0  0  0  0  0  0  0  0
  -22.1740  -12.6870   22.2260 N   0  0  0  0  0  0  0  0  0  0  0  0
  -22.2960  -14.4630   20.8860 O   0  0  0  0  0  0  0  0  0  0  0  0
  -22.5970  -11.8490   22.5970 H   0  0  0  0  0  0  0  0  0  0  0  0
  -21.2590  -12.9630   22.5550 H   0  0  0  0  0  0  0  0  0  0  0  0
  -25.3070  -15.1590   20.2870 N   0  0  0  0  0  0  0  0  0  0  0  0
  -24.5490  -15.7970   20.5020 H   0  0  0  0  0  0  0  0  0  0  0  0
  -26.1030  -15.6230   19.8690 H   0  0  0  0  0  0  0  0  0  0  0  0
  -31.6970  -15.7240   22.5670 C   0  0  0  0  0  1  0  0  0  0  0  0
  -30.2120  -15.7700   22.1520 C   0  0  0  0  0  2  0  0  0  0  0  0
  1 51  1  0
  1  3  1  0
  2  1  1  0
  4  8  1  0
  6  4  2  0
  6  9  1  0
  7  5  1  0
  8  3  1  0
  8  5  2  0
  9  7  2  0
 10  9  1  0
 11 22  2  0
 12 10  1  0
 12 17  1  0
 13 21  1  0
 13 23  1  0
 14 20  1  0
 14 16  1  0
 15 21  1  0
 16 17  2  0
 16 15  1  0
 18 12  2  0
 19 18  1  0
 19 14  2  0
 20 13  1  0
 21 11  1  0
 23 25  2  0
 24 23  1  0
 26 24  1  0
 27 36  2  0
 27 32  1  0
 28 24  1  0
 28 32  1  0
 29 28  1  0
 30 31  1  0
 30 29  1  0
 31 27  1  0
 32 33  2  0
 33 34  1  0
 35 34  2  0
 36 35  1  0
 37 11  1  0
 37 38  1  0
 37 47  1  0
 38 41  1  0
 39 43  1  0
 39 38  1  0
 40 39  2  0
 43 42  1  0
 45 43  1  0
 45 46  1  0
 45 44  1  0
 47 50  1  1
 47 48  1  0
 49 47  1  0
 52 51  1  0
 52 59  1  0
 53 52  1  0
 54 53  1  0
 55 53  1  0
 56 58  1  0
 58 57  1  0
 58 53  1  0
 59 97  1  0
 60 59  1  0
 61 66  1  0
 62 63  1  0
 62 61  1  0
 64 63  1  0
 64 71  1  0
 64 65  1  0
 66 60  1  0
 66 65  1  0
 67 60  2  0
 68 69  2  0
 69 88  1  0
 70 69  1  0
 70 73  1  0
 71 72  1  0
 71 68  1  0
 72 70  2  0
 73 74  1  0
 74 75  2  0
 76 79  1  0
 76 75  1  0
 77 76  2  0
 78 77  1  0
 78 73  2  0
 79 80  1  0
 80 85  2  0
 80 81  1  0
 81 82  2  0
 82 83  1  0
 83 87  1  0
 84 83  2  0
 85 84  1  0
 86 85  1  0
 88 89  1  0
 89 92  1  0
 89 91  1  0
 90 88  2  0
 93 68  1  0
 93 94  1  0
 95 93  1  0
 97 96  1  0
M  ISO  4   9 101  10 101  59 100  60 100
M  END
>  <TORSDO>  (57) 
F 24

>  <SCORE>  (57) 
-10.743

>  <name>  (57) 
56

>  <ligand_id>  (57) 
56

>  <original_smiles>  (57) 
[H]c1c([H])c([H])c2c(c1[H])C([H])([H])C([H])([H])C([H])([H])C2([H])N([H])C(=O)C1([H])N(C(=O)C([H])(N([H])C(=O)C([H])(N([H])C([H])([H])[H])C([H])([H])[H])C(C([H])([H])[H])(C([H])([H])[H])C([H])([H])[H])C([H])([H])c2c([H])c(Oc3c([H])c([H])c(C([H])([H])N([H])C([H])([H])C([H])(C([H])(C(=O)N4C([H])([H])C([H])([H])C([H])([H])C([H])(n5nc(-c6c([H])c([H])c(Oc7c([H])c([H])c(F)c([H])c7F)c([H])c6[H])c(C(=O)N([H])[H])c5N([H])[H])C4([H])[H])C([H])([H])C([H])([H])[H])[N+]([H])([H])C([H])(C([H])([H])[H])C([H])([H])[H])c([H])c3[H])c([H])c([H])c2C1([H])[H]

>  <smiles>  (57) 
[H]c1c([H])c([H])c2c(c1[H])C([H])([H])C([H])([H])C([H])([H])C2([H])N([H])C(=O)C1([H])N(C(=O)C([H])(N([H])C(=O)C([H])(N([H])C([H])([H])[H])C([H])([H])[H])C(C([H])([H])[H])(C([H])([H])[H])C([H])([H])[H])C([H])([H])c2c([H])c(Oc3c([H])c([H])c(C([H])([H])N([H])C([H])([H])C([H])(C([H])(C(=O)N4C([H])([H])C([H])([H])C([H])([H])C([H])(n5nc(-c6c([H])c([H])c(Oc7c([H])c([H])c(F)c([H])c7F)c([H])c6[H])c(C(=O)N([H])[H])c5N([H])[H])C4([H])[H])C([H])([H])C([H])([H])[H])[N+]([H])([H])C([H])(C([H])([H])[H])C([H])([H])[H])c([H])c3[H])c([H])c([H])c2C1([H])[H]

$$$$
57:0:0
     RDKit          3D

 92100  0  0  1  0  0  0  0  0999 V2000
  -30.4700  -21.9850   20.1130 C   0  0  0  0  0  2  0  0  0  0  0  0
  -29.2750  -18.9790   18.0000 C   0  0  0  0  0  3  0  0  0  0  0  0
  -29.8320  -17.8850   18.6890 C   0  0  0  0  0  3  0  0  0  0  0  0
  -29.4660  -20.2950   18.4690 C   0  0  0  0  0  3  0  0  0  0  0  0
  -30.7510  -19.4240   20.3430 C   0  0  0  0  0  3  0  0  0  0  0  0
  -30.5860  -18.0950   19.8630 C   0  0  0  0  0  0  0  0  0  0  0  0
  -30.2020  -20.5370   19.6510 C   0  0  0  0  0  0  0  0  0  0  0  0
  -31.2870  -16.9220   20.5690 C   0  0  0  0  0  2  0  0  0  0  0  0
  -31.0390  -14.4850   20.0510 C   0  0  0  0  0  0  0  0  0  0  0  0
  -30.6230  -12.3140   18.9250 C   0  0  0  0  0  2  0  0  0  0  0  0
  -29.6160  -12.4840   17.7680 C   0  0  0  0  0  2  0  0  0  0  0  0
  -28.1650  -12.3650   18.2740 C   0  0  0  0  0  2  0  0  0  0  0  0
  -27.9110  -13.2120   19.5480 C   0  0  0  0  0  3  0  0  0  0  0  0
  -29.0220  -12.9460   20.5860 C   0  0  0  0  0  2  0  0  0  0  0  0
  -30.3040  -13.3250   19.9620 N   0  0  0  0  0  0  0  0  0  0  0  0
  -32.1210  -14.5550   19.4570 O   0  0  0  0  0  0  0  0  0  0  0  0
  -29.4160  -15.7650   21.5740 C   0  0  0  0  0  1  0  0  0  0  0  0
  -30.5400  -15.6310   20.6380 N   0  0  0  0  0  0  0  0  0  0  0  0
  -25.5850  -13.8800   20.4200 C   0  0  0  0  0  0  0  0  0  0  0  0
  -24.5170  -13.1330   20.8380 C   0  0  0  0  0  0  0  0  0  0  0  0
  -24.9290  -11.7680   20.7380 C   0  0  0  0  0  0  0  0  0  0  0  0
  -26.5810  -12.9720   20.0990 N   0  0  0  0  0  0  0  0  0  0  0  0
  -26.1930  -11.6950   20.3450 N   0  0  0  0  0  0  0  0  0  0  0  0
  -24.1730  -10.5260   20.9390 C   0  0  0  0  0  0  0  0  0  0  0  0
  -24.5960   -9.5500   21.8680 C   0  0  0  0  0  3  0  0  0  0  0  0
  -23.8440   -8.3700   22.0570 C   0  0  0  0  0  3  0  0  0  0  0  0
  -22.6560   -8.1590   21.3170 C   0  0  0  0  0  0  0  0  0  0  0  0
  -22.2550   -9.1230   20.3760 C   0  0  0  0  0  3  0  0  0  0  0  0
  -23.0060  -10.2940   20.1850 C   0  0  0  0  0  3  0  0  0  0  0  0
  -21.8770   -7.0310   21.4140 O   0  0  0  0  0  0  0  0  0  0  0  0
  -21.7720   -6.3300   22.5880 C   0  0  0  0  0  0  0  0  0  0  0  0
  -21.2870   -6.9260   23.7720 C   0  0  0  0  0  3  0  0  0  0  0  0
  -21.1280   -6.1490   24.9370 C   0  0  0  0  0  3  0  0  0  0  0  0
  -21.4440   -4.7770   24.9180 C   0  0  0  0  0  0  0  0  0  0  0  0
  -21.9240   -4.1810   23.7380 C   0  0  0  0  0  3  0  0  0  0  0  0
  -22.0830   -4.9550   22.5750 C   0  0  0  0  0  0  0  0  0  0  0  0
  -22.5220   -4.3710   21.4350 F   0  0  0  0  0  0  0  0  0  0  0  0
  -21.2850   -4.0280   26.0350 F   0  0  0  0  0  0  0  0  0  0  0  0
  -23.1580  -13.6460   21.2160 C   0  0  0  0  0  0  0  0  0  0  0  0
  -22.4670  -12.9450   22.1090 N   0  0  0  0  0  0  0  0  0  0  0  0
  -22.7220  -14.7020   20.7580 O   0  0  0  0  0  0  0  0  0  0  0  0
  -22.8370  -12.0900   22.4980 H   0  0  0  0  0  0  0  0  0  0  0  0
  -21.5580  -13.2680   22.4100 H   0  0  0  0  0  0  0  0  0  0  0  0
  -25.7830  -15.2490   20.2680 N   0  0  0  0  0  0  0  0  0  0  0  0
  -25.0520  -15.9230   20.4660 H   0  0  0  0  0  0  0  0  0  0  0  0
  -26.6190  -15.6740   19.8890 H   0  0  0  0  0  0  0  0  0  0  0  0
  -29.2720  -22.8700   20.0740 N   0  0  0  0  0  4  0  0  0  0  0  0
  -28.6130  -22.5150   20.7490 H   0  0  0  0  0  0  0  0  0  0  0  0
  -28.8560  -22.7620   19.1640 H   0  0  0  0  0  0  0  0  0  0  0  0
  -29.5030  -24.3320   20.3160 C   0  0  0  0  0  2  0  0  0  0  0  0
  -28.2330  -25.1770   20.0190 C   0  0  0  0  0  2  0  0  0  0  0  0
  -28.3550  -26.6070   20.2230 O   0  0  0  0  0  0  0  0  0  0  0  0
  -24.4420  -31.8260   23.1510 C   0  0  0  0  0  0  0  0  0  0  0  0
  -27.1810  -27.3510   20.1670 C   0  0  0  0  0  0  0  0  0  0  0  0
  -23.2800  -30.4040   21.4980 C   0  0  0  0  0  3  0  0  0  0  0  0
  -24.7730  -28.8630   20.1200 C   0  0  0  0  0  0  0  0  0  0  0  0
  -25.8100  -30.7700   21.3520 C   0  0  0  0  0  2  0  0  0  0  0  0
  -25.9190  -29.3930   20.7230 C   0  0  0  0  0  0  0  0  0  0  0  0
  -27.1250  -28.6460   20.7420 C   0  0  0  0  0  3  0  0  0  0  0  0
  -26.0050  -26.8480   19.5540 C   0  0  0  0  0  3  0  0  0  0  0  0
  -24.8120  -27.5890   19.5360 C   0  0  0  0  0  3  0  0  0  0  0  0
  -23.5230  -29.7140   20.1310 C   0  0  0  0  0  2  0  0  0  0  0  0
  -24.5280  -31.0160   22.0590 N   0  0  0  0  0  0  0  0  0  0  0  0
  -23.3470  -32.0970   23.6660 O   0  0  0  0  0  0  0  0  0  0  0  0
  -22.6130  -29.3870   22.4520 C   0  0  0  0  0  0  0  0  0  0  0  0
  -21.2880  -29.2130   22.3140 N   0  0  0  0  0  0  0  0  0  0  0  0
  -23.2850  -28.7570   23.2730 O   0  0  0  0  0  0  0  0  0  0  0  0
  -20.8070  -29.7710   21.6220 H   0  0  0  0  0  0  0  0  0  0  0  0
  -17.8950  -28.0840   22.8280 C   0  0  0  0  0  0  0  0  0  0  0  0
  -20.4600  -28.2800   23.0770 C   0  0  0  0  0  3  0  0  0  0  0  0
  -20.5260  -26.8570   22.4750 C   0  0  0  0  0  2  0  0  0  0  0  0
  -19.4060  -26.5770   21.4680 C   0  0  0  0  0  2  0  0  0  0  0  0
  -18.0350  -26.7420   22.1290 C   0  0  0  0  0  2  0  0  0  0  0  0
  -19.0350  -28.8120   23.2590 C   0  0  0  0  0  0  0  0  0  0  0  0
  -18.8500  -30.0710   23.8720 C   0  0  0  0  0  3  0  0  0  0  0  0
  -17.5590  -30.5990   24.0600 C   0  0  0  0  0  3  0  0  0  0  0  0
  -16.4340  -29.8650   23.6470 C   0  0  0  0  0  3  0  0  0  0  0  0
  -16.6030  -28.6100   23.0350 C   0  0  0  0  0  3  0  0  0  0  0  0
  -25.7090  -32.4700   23.7940 C   0  0  0  0  0  3  0  0  0  0  0  0
  -25.3760  -33.8600   24.1320 N   0  0  0  0  0  0  0  0  0  0  0  0
  -25.7030  -34.9240   23.3870 C   0  0  0  0  0  0  0  0  0  0  0  0
  -26.3880  -34.8400   22.3640 O   0  0  0  0  0  0  0  0  0  0  0  0
  -24.7690  -33.9980   24.9270 H   0  0  0  0  0  0  0  0  0  0  0  0
  -23.9610  -36.6990   23.0170 C   0  0  0  0  0  1  0  0  0  0  0  0
  -25.1890  -36.3000   23.8500 C   0  0  0  0  0  3  0  0  0  0  0  0
  -27.2890  -37.2030   24.7450 C   0  0  0  0  0  1  0  0  0  0  0  0
  -26.2110  -37.3670   23.7740 N   0  0  0  0  0  0  0  0  0  0  0  0
  -25.7900  -38.2810   23.9190 H   0  0  0  0  0  0  0  0  0  0  0  0
  -26.2240  -31.6950   25.0670 C   0  0  1  0  0  0  0  0  0  0  0  0
  -25.1220  -31.4250   26.1170 C   0  0  0  0  0  1  0  0  0  0  0  0
  -26.8400  -30.3350   24.6660 C   0  0  0  0  0  1  0  0  0  0  0  0
  -27.3510  -32.5030   25.7550 C   0  0  0  0  0  1  0  0  0  0  0  0
  2  4  2  0
  2  3  1  0
  3  6  2  0
  4  7  1  0
  6  5  1  0
  6  8  1  0
  7  1  1  0
  7  5  2  0
  8 18  1  0
  9 18  1  0
 10 15  1  0
 11 12  1  0
 11 10  1  0
 13 12  1  0
 13 22  1  0
 13 14  1  0
 15  9  1  0
 15 14  1  0
 16  9  2  0
 18 17  1  0
 19 20  2  0
 20 39  1  0
 21 20  1  0
 21 24  1  0
 22 23  1  0
 22 19  1  0
 23 21  2  0
 24 25  1  0
 25 26  2  0
 27 30  1  0
 27 26  1  0
 28 27  2  0
 29 28  1  0
 29 24  2  0
 30 31  1  0
 31 32  1  0
 32 33  2  0
 34 33  1  0
 34 38  1  0
 35 34  2  0
 36 31  2  0
 36 35  1  0
 37 36  1  0
 39 40  1  0
 40 43  1  0
 40 42  1  0
 41 39  2  0
 44 19  1  0
 44 45  1  0
 46 44  1  0
 47  1  1  0
 47 50  1  0
 47 48  1  0
 49 47  1  0
 51 52  1  0
 51 50  1  0
 53 64  2  0
 54 52  1  0
 54 59  1  0
 55 63  1  0
 55 65  1  0
 56 62  1  0
 56 58  1  0
 57 63  1  0
 58 59  2  0
 58 57  1  0
 60 54  2  0
 61 60  1  0
 61 56  2  0
 62 55  1  0
 63 53  1  0
 65 67  2  0
 66 65  1  0
 68 66  1  0
 69 78  2  0
 69 74  1  0
 70 66  1  0
 70 74  1  0
 71 70  1  0
 72 73  1  0
 72 71  1  0
 73 69  1  0
 74 75  2  0
 75 76  1  0
 77 76  2  0
 78 77  1  0
 79 53  1  0
 79 80  1  0
 79 89  1  0
 80 83  1  0
 81 85  1  0
 81 80  1  0
 82 81  2  0
 85 84  1  0
 87 85  1  0
 87 88  1  0
 87 86  1  0
 89 92  1  1
 89 90  1  0
 91 89  1  0
M  ISO  4   9 100  18 100  51 101  52 101
M  END
>  <TORSDO>  (58) 
F 21

>  <SCORE>  (58) 
-13.026

>  <name>  (58) 
57

>  <ligand_id>  (58) 
57

>  <original_smiles>  (58) 
[H]c1c([H])c([H])c2c(c1[H])C([H])([H])C([H])([H])C([H])([H])C2([H])N([H])C(=O)C1([H])N(C(=O)C([H])(N([H])C(=O)C([H])(N([H])C([H])([H])[H])C([H])([H])[H])C(C([H])([H])[H])(C([H])([H])[H])C([H])([H])[H])C([H])([H])c2c([H])c(OC([H])([H])C([H])([H])[N+]([H])([H])C([H])([H])c3c([H])c([H])c([H])c(C([H])([H])N(C(=O)N4C([H])([H])C([H])([H])C([H])([H])C([H])(n5nc(-c6c([H])c([H])c(Oc7c([H])c([H])c(F)c([H])c7F)c([H])c6[H])c(C(=O)N([H])[H])c5N([H])[H])C4([H])[H])C([H])([H])[H])c3[H])c([H])c([H])c2C1([H])[H]

>  <smiles>  (58) 
[H]c1c([H])c([H])c2c(c1[H])C([H])([H])C([H])([H])C([H])([H])C2([H])N([H])C(=O)C1([H])N(C(=O)C([H])(N([H])C(=O)C([H])(N([H])C([H])([H])[H])C([H])([H])[H])C(C([H])([H])[H])(C([H])([H])[H])C([H])([H])[H])C([H])([H])c2c([H])c(OC([H])([H])C([H])([H])[N+]([H])([H])C([H])([H])c3c([H])c([H])c([H])c(C([H])([H])N(C(=O)N4C([H])([H])C([H])([H])C([H])([H])C([H])(n5nc(-c6c([H])c([H])c(Oc7c([H])c([H])c(F)c([H])c7F)c([H])c6[H])c(C(=O)N([H])[H])c5N([H])[H])C4([H])[H])C([H])([H])[H])c3[H])c([H])c([H])c2C1([H])[H]

$$$$
58:0:0
     RDKit          3D

 91 99  0  0  1  0  0  0  0  0999 V2000
  -28.8710  -22.2990   20.2250 N   0  0  0  0  0  4  0  0  0  0  0  0
  -28.5110  -22.1640   21.1560 H   0  0  0  0  0  0  0  0  0  0  0  0
  -28.1150  -22.1080   19.5860 H   0  0  0  0  0  0  0  0  0  0  0  0
  -29.9420  -21.2190   19.9880 C   0  0  0  0  0  2  0  0  0  0  0  0
  -28.4230  -19.1670   20.3880 C   0  0  0  0  0  3  0  0  0  0  0  0
  -27.9340  -17.9170   20.5890 C   0  0  0  0  0  2  0  0  0  0  0  0
  -30.7550  -17.3540   19.7820 C   0  0  0  0  0  3  0  0  0  0  0  0
  -30.6170  -18.7310   19.7570 C   0  0  0  0  0  3  0  0  0  0  0  0
  -30.0040  -16.2280   20.0940 C   0  0  0  0  0  3  0  0  0  0  0  0
  -29.6300  -19.6430   20.0330 C   0  0  0  0  0  0  0  0  0  0  0  0
  -28.6040  -16.5730   20.5370 C   0  0  0  0  0  0  0  0  0  0  0  0
  -27.8500  -15.6990   20.9470 O   0  0  0  0  0  0  0  0  0  0  0  0
  -30.7090  -14.8500   19.9710 C   0  0  0  0  0  0  0  0  0  0  0  0
  -30.5400  -12.5090   19.0890 C   0  0  0  0  0  2  0  0  0  0  0  0
  -29.5560  -12.4740   17.8970 C   0  0  0  0  0  2  0  0  0  0  0  0
  -28.1020  -12.2840   18.3740 C   0  0  0  0  0  2  0  0  0  0  0  0
  -27.7500  -13.1880   19.5860 C   0  0  0  0  0  3  0  0  0  0  0  0
  -28.8640  -13.1140   20.6530 C   0  0  0  0  0  2  0  0  0  0  0  0
  -30.0980  -13.5940   20.0140 N   0  0  0  0  0  0  0  0  0  0  0  0
  -31.8970  -14.8230   19.6270 O   0  0  0  0  0  0  0  0  0  0  0  0
  -25.3890  -13.7550   20.4120 C   0  0  0  0  0  0  0  0  0  0  0  0
  -24.3390  -12.9720   20.8030 C   0  0  0  0  0  0  0  0  0  0  0  0
  -24.8060  -11.6240   20.7290 C   0  0  0  0  0  0  0  0  0  0  0  0
  -26.4300  -12.8860   20.1270 N   0  0  0  0  0  0  0  0  0  0  0  0
  -26.0850  -11.5960   20.3730 N   0  0  0  0  0  0  0  0  0  0  0  0
  -24.0900  -10.3570   20.9270 C   0  0  0  0  0  0  0  0  0  0  0  0
  -24.5210   -9.4030   21.8760 C   0  0  0  0  0  3  0  0  0  0  0  0
  -23.8040   -8.2000   22.0590 C   0  0  0  0  0  3  0  0  0  0  0  0
  -22.6440   -7.9430   21.2930 C   0  0  0  0  0  0  0  0  0  0  0  0
  -22.2300   -8.8850   20.3340 C   0  0  0  0  0  3  0  0  0  0  0  0
  -22.9470  -10.0790   20.1500 C   0  0  0  0  0  3  0  0  0  0  0  0
  -21.9000   -6.7920   21.3850 O   0  0  0  0  0  0  0  0  0  0  0  0
  -21.7970   -6.0940   22.5600 C   0  0  0  0  0  0  0  0  0  0  0  0
  -21.2890   -6.6880   23.7370 C   0  0  0  0  0  3  0  0  0  0  0  0
  -21.1370   -5.9160   24.9050 C   0  0  0  0  0  3  0  0  0  0  0  0
  -21.4810   -4.5510   24.8980 C   0  0  0  0  0  0  0  0  0  0  0  0
  -21.9820   -3.9560   23.7270 C   0  0  0  0  0  3  0  0  0  0  0  0
  -22.1370   -4.7260   22.5610 C   0  0  0  0  0  0  0  0  0  0  0  0
  -22.6030   -4.1450   21.4290 F   0  0  0  0  0  0  0  0  0  0  0  0
  -21.3240   -3.8060   26.0170 F   0  0  0  0  0  0  0  0  0  0  0  0
  -22.9580  -13.4420   21.1510 C   0  0  0  0  0  0  0  0  0  0  0  0
  -22.2760  -12.7360   22.0460 N   0  0  0  0  0  0  0  0  0  0  0  0
  -22.4950  -14.4750   20.6680 O   0  0  0  0  0  0  0  0  0  0  0  0
  -22.6680  -11.9030   22.4600 H   0  0  0  0  0  0  0  0  0  0  0  0
  -21.3520  -13.0370   22.3270 H   0  0  0  0  0  0  0  0  0  0  0  0
  -25.5410  -15.1290   20.2640 N   0  0  0  0  0  0  0  0  0  0  0  0
  -24.8110  -15.7490   20.5990 H   0  0  0  0  0  0  0  0  0  0  0  0
  -26.4710  -15.5210   20.3710 H   0  0  0  0  0  0  0  0  0  0  0  0
  -29.2580  -23.7940   20.0840 C   0  0  0  0  0  3  0  0  0  0  0  0
  -28.1030  -24.9210   20.2470 C   0  0  0  0  0  3  0  0  0  0  0  0
  -28.3720  -26.4070   20.1380 O   0  0  0  0  0  0  0  0  0  0  0  0
  -24.6890  -31.8810   23.2280 C   0  0  0  0  0  0  0  0  0  0  0  0
  -27.2760  -27.3050   20.1130 C   0  0  0  0  0  0  0  0  0  0  0  0
  -23.4840  -30.5070   21.5710 C   0  0  0  0  0  3  0  0  0  0  0  0
  -24.9290  -28.9720   20.1220 C   0  0  0  0  0  0  0  0  0  0  0  0
  -26.0310  -30.8050   21.3990 C   0  0  0  0  0  2  0  0  0  0  0  0
  -26.1040  -29.4300   20.7320 C   0  0  0  0  0  0  0  0  0  0  0  0
  -27.2810  -28.6110   20.7150 C   0  0  0  0  0  3  0  0  0  0  0  0
  -26.0770  -26.9290   19.4610 C   0  0  0  0  0  3  0  0  0  0  0  0
  -24.9230  -27.7310   19.4740 C   0  0  0  0  0  3  0  0  0  0  0  0
  -23.6980  -29.8570   20.1800 C   0  0  0  0  0  2  0  0  0  0  0  0
  -24.7550  -31.0820   22.1220 N   0  0  0  0  0  0  0  0  0  0  0  0
  -23.6050  -32.1540   23.7640 O   0  0  0  0  0  0  0  0  0  0  0  0
  -22.8160  -29.4790   22.5170 C   0  0  0  0  0  0  0  0  0  0  0  0
  -21.4920  -29.2950   22.3800 N   0  0  0  0  0  0  0  0  0  0  0  0
  -23.4920  -28.8480   23.3350 O   0  0  0  0  0  0  0  0  0  0  0  0
  -21.0050  -29.8560   21.6940 H   0  0  0  0  0  0  0  0  0  0  0  0
  -18.1190  -28.0710   22.8500 C   0  0  0  0  0  0  0  0  0  0  0  0
  -20.6730  -28.3490   23.1400 C   0  0  0  0  0  3  0  0  0  0  0  0
  -20.7900  -26.9200   22.5620 C   0  0  0  0  0  2  0  0  0  0  0  0
  -19.6990  -26.5930   21.5370 C   0  0  0  0  0  2  0  0  0  0  0  0
  -18.3100  -26.7250   22.1680 C   0  0  0  0  0  2  0  0  0  0  0  0
  -19.2290  -28.8390   23.2940 C   0  0  0  0  0  0  0  0  0  0  0  0
  -18.9950  -30.0950   23.8930 C   0  0  0  0  0  3  0  0  0  0  0  0
  -17.6850  -30.5850   24.0510 C   0  0  0  0  0  3  0  0  0  0  0  0
  -16.5900  -29.8140   23.6220 C   0  0  0  0  0  3  0  0  0  0  0  0
  -16.8080  -28.5580   23.0300 C   0  0  0  0  0  3  0  0  0  0  0  0
  -25.9720  -32.5060   23.8560 C   0  0  0  0  0  3  0  0  0  0  0  0
  -26.4830  -31.7250   25.1280 C   0  0  1  0  0  0  0  0  0  0  0  0
  -25.3880  -31.4800   26.1930 C   0  0  0  0  0  1  0  0  0  0  0  0
  -27.0650  -30.3480   24.7300 C   0  0  0  0  0  1  0  0  0  0  0  0
  -27.6350  -32.5100   25.7960 C   0  0  0  0  0  1  0  0  0  0  0  0
  -25.6630  -33.9020   24.2000 N   0  0  0  0  0  0  0  0  0  0  0  0
  -25.9830  -34.9620   23.4450 C   0  0  0  0  0  0  0  0  0  0  0  0
  -26.6390  -34.8660   22.4040 O   0  0  0  0  0  0  0  0  0  0  0  0
  -25.0820  -34.0500   25.0120 H   0  0  0  0  0  0  0  0  0  0  0  0
  -24.2460  -36.7530   23.1290 C   0  0  0  0  0  1  0  0  0  0  0  0
  -25.5010  -36.3470   23.9180 C   0  0  0  0  0  3  0  0  0  0  0  0
  -27.6480  -37.2310   24.7170 C   0  0  0  0  0  1  0  0  0  0  0  0
  -26.5290  -37.4020   23.7930 N   0  0  0  0  0  0  0  0  0  0  0  0
  -26.1250  -38.3220   23.9530 H   0  0  0  0  0  0  0  0  0  0  0  0
  1  2  1  0
  3  1  1  0
  4 10  1  0
  4  1  1  0
  5  6  1  0
  7  9  1  0
  8  7  2  0
  8 10  1  0
  9 13  1  0
  9 11  1  0
 10  5  2  0
 11  6  1  0
 11 12  2  0
 13 19  1  0
 14 19  1  0
 15 16  1  0
 15 14  1  0
 17 16  1  0
 17 24  1  0
 17 18  1  0
 19 18  1  0
 20 13  2  0
 21 22  2  0
 22 41  1  0
 23 22  1  0
 23 26  1  0
 24 25  1  0
 24 21  1  0
 25 23  2  0
 26 27  1  0
 27 28  2  0
 29 32  1  0
 29 28  1  0
 30 29  2  0
 31 30  1  0
 31 26  2  0
 32 33  1  0
 33 38  2  0
 33 34  1  0
 34 35  2  0
 36 35  1  0
 36 40  1  0
 37 36  2  0
 38 37  1  0
 39 38  1  0
 41 42  1  0
 42 45  1  0
 42 44  1  0
 43 41  2  0
 46 48  1  0
 46 21  1  0
 46 47  1  0
 49  1  1  0
 49 50  2  0
 51 50  1  0
 52 63  2  0
 53 51  1  0
 53 58  1  0
 54 62  1  0
 54 64  1  0
 55 61  1  0
 55 57  1  0
 56 62  1  0
 57 56  1  0
 58 57  2  0
 59 60  1  0
 59 53  2  0
 60 55  2  0
 61 54  1  0
 62 52  1  0
 64 66  2  0
 65 64  1  0
 67 65  1  0
 68 77  2  0
 68 73  1  0
 69 65  1  0
 69 73  1  0
 70 69  1  0
 71 72  1  0
 71 70  1  0
 72 68  1  0
 73 74  2  0
 74 75  1  0
 76 75  2  0
 77 76  1  0
 78 52  1  0
 78 83  1  0
 78 79  1  0
 79 82  1  1
 79 80  1  0
 81 79  1  0
 83 86  1  0
 84 88  1  0
 84 83  1  0
 85 84  2  0
 88 87  1  0
 90 88  1  0
 90 91  1  0
 90 89  1  0
M  ISO  4   9 100  13 100  50 101  51 101
M  END
>  <TORSDO>  (59) 
F 20

>  <SCORE>  (59) 
-13.432

>  <name>  (59) 
58

>  <ligand_id>  (59) 
58

>  <original_smiles>  (59) 
[H]c1c([H])c([H])c2c(c1[H])C([H])([H])C([H])([H])C([H])([H])C2([H])N([H])C(=O)C1([H])N(C(=O)C([H])(N([H])C(=O)C([H])(N([H])C([H])([H])[H])C([H])([H])[H])C(C([H])([H])[H])(C([H])([H])[H])C([H])([H])[H])C([H])([H])c2c([H])c(OC([H])([H])C([H])([H])[N+]([H])([H])C([H])([H])c3c([H])c([H])c(C(=O)N4C([H])([H])C([H])([H])C([H])([H])C([H])(n5nc(-c6c([H])c([H])c(Oc7c([H])c([H])c(F)c([H])c7F)c([H])c6[H])c(C(=O)N([H])[H])c5N([H])[H])C4([H])[H])c(=O)c([H])c3[H])c([H])c([H])c2C1([H])[H]

>  <smiles>  (59) 
[H]c1c([H])c([H])c2c(c1[H])C([H])([H])C([H])([H])C([H])([H])C2([H])N([H])C(=O)C1([H])N(C(=O)C([H])(N([H])C(=O)C([H])(N([H])C([H])([H])[H])C([H])([H])[H])C(C([H])([H])[H])(C([H])([H])[H])C([H])([H])[H])C([H])([H])c2c([H])c(OC([H])([H])C([H])([H])[N+]([H])([H])C([H])([H])c3c([H])c([H])c(C(=O)N4C([H])([H])C([H])([H])C([H])([H])C([H])(n5nc(-c6c([H])c([H])c(Oc7c([H])c([H])c(F)c([H])c7F)c([H])c6[H])c(C(=O)N([H])[H])c5N([H])[H])C4([H])[H])c(=O)c([H])c3[H])c([H])c([H])c2C1([H])[H]

$$$$
59:0:0
     RDKit          3D

 88 95  0  0  1  0  0  0  0  0999 V2000
  -29.1340  -22.3860   20.0590 C   0  0  0  0  0  3  0  0  0  0  0  0
  -30.2270  -22.6700   19.1140 N   0  0  0  0  0  4  0  0  0  0  0  0
  -29.9140  -22.6020   18.1620 H   0  0  0  0  0  0  0  0  0  0  0  0
  -30.9890  -22.0290   19.2490 H   0  0  0  0  0  0  0  0  0  0  0  0
  -30.5800  -23.6010   19.2610 H   0  0  0  0  0  0  0  0  0  0  0  0
  -27.8320  -20.1870   21.0200 C   0  0  0  0  0  1  0  0  0  0  0  0
  -28.8950  -20.4740   19.9570 C   0  0  0  0  0  3  0  0  0  0  0  0
  -29.9640  -18.8710   19.9670 C   0  0  0  0  0  2  0  0  0  0  0  0
  -30.5180  -15.7770   19.9420 C   0  0  0  0  0  0  0  0  0  0  0  0
  -30.5890  -13.2440   19.1380 C   0  0  0  0  0  2  0  0  0  0  0  0
  -29.6480  -12.8490   17.9660 C   0  0  0  0  0  2  0  0  0  0  0  0
  -28.2460  -12.4940   18.4850 C   0  0  0  0  0  2  0  0  0  0  0  0
  -27.7760  -13.4930   19.5690 C   0  0  0  0  0  3  0  0  0  0  0  0
  -28.8520  -13.8090   20.6350 C   0  0  0  0  0  2  0  0  0  0  0  0
  -29.9990  -14.4160   19.9230 N   0  0  0  0  0  0  0  0  0  0  0  0
  -31.7360  -15.7380   19.6870 O   0  0  0  0  0  0  0  0  0  0  0  0
  -29.7570  -17.1210   20.0510 N   0  0  0  0  0  0  0  0  0  0  0  0
  -28.7890  -16.9060   20.2430 H   0  0  0  0  0  0  0  0  0  0  0  0
  -25.4630  -14.0020   20.4890 C   0  0  0  0  0  0  0  0  0  0  0  0
  -24.4230  -13.2110   20.8850 C   0  0  0  0  0  0  0  0  0  0  0  0
  -24.8860  -11.8620   20.7700 C   0  0  0  0  0  0  0  0  0  0  0  0
  -26.4880  -13.1390   20.1470 N   0  0  0  0  0  0  0  0  0  0  0  0
  -26.1580  -11.8420   20.3840 N   0  0  0  0  0  0  0  0  0  0  0  0
  -24.1630  -10.5940   20.9490 C   0  0  0  0  0  0  0  0  0  0  0  0
  -24.5740   -9.6380   21.9040 C   0  0  0  0  0  3  0  0  0  0  0  0
  -23.8490   -8.4380   22.0710 C   0  0  0  0  0  3  0  0  0  0  0  0
  -22.6990   -8.1870   21.2870 C   0  0  0  0  0  0  0  0  0  0  0  0
  -22.3090   -9.1320   20.3220 C   0  0  0  0  0  3  0  0  0  0  0  0
  -23.0340  -10.3220   20.1510 C   0  0  0  0  0  3  0  0  0  0  0  0
  -21.9480   -7.0390   21.3640 O   0  0  0  0  0  0  0  0  0  0  0  0
  -21.7740   -6.3700   22.5490 C   0  0  0  0  0  0  0  0  0  0  0  0
  -21.1570   -6.9780   23.6650 C   0  0  0  0  0  3  0  0  0  0  0  0
  -20.9370   -6.2320   24.8400 C   0  0  0  0  0  3  0  0  0  0  0  0
  -21.3210   -4.8790   24.9000 C   0  0  0  0  0  0  0  0  0  0  0  0
  -21.9290   -4.2700   23.7870 C   0  0  0  0  0  3  0  0  0  0  0  0
  -22.1510   -5.0130   22.6150 C   0  0  0  0  0  0  0  0  0  0  0  0
  -22.7170   -4.4160   21.5390 F   0  0  0  0  0  0  0  0  0  0  0  0
  -21.1030   -4.1600   26.0250 F   0  0  0  0  0  0  0  0  0  0  0  0
  -23.0460  -13.6780   21.2490 C   0  0  0  0  0  0  0  0  0  0  0  0
  -22.3650  -12.9540   22.1300 N   0  0  0  0  0  0  0  0  0  0  0  0
  -22.5830  -14.7210   20.7860 O   0  0  0  0  0  0  0  0  0  0  0  0
  -22.7580  -12.1120   22.5270 H   0  0  0  0  0  0  0  0  0  0  0  0
  -21.4400  -13.2420   22.4100 H   0  0  0  0  0  0  0  0  0  0  0  0
  -25.6140  -15.3800   20.3580 N   0  0  0  0  0  0  0  0  0  0  0  0
  -24.8520  -16.0230   20.5410 H   0  0  0  0  0  0  0  0  0  0  0  0
  -26.4340  -15.8350   19.9780 H   0  0  0  0  0  0  0  0  0  0  0  0
  -28.0900  -24.0040   20.0470 C   0  0  0  0  0  2  0  0  0  0  0  0
  -28.2670  -25.7380   20.1820 O   0  0  0  0  0  0  0  0  0  0  0  0
  -24.6900  -31.8600   23.2620 C   0  0  0  0  0  0  0  0  0  0  0  0
  -27.2720  -26.9200   20.1540 C   0  0  0  0  0  0  0  0  0  0  0  0
  -23.5160  -30.4980   21.5860 C   0  0  0  0  0  3  0  0  0  0  0  0
  -24.9820  -28.9070   20.1360 C   0  0  0  0  0  0  0  0  0  0  0  0
  -26.0910  -30.6790   21.4700 C   0  0  0  0  0  2  0  0  0  0  0  0
  -26.1710  -29.2680   20.7780 C   0  0  0  0  0  0  0  0  0  0  0  0
  -27.3040  -28.3030   20.7540 C   0  0  0  0  0  3  0  0  0  0  0  0
  -26.0450  -26.7590   19.4630 C   0  0  0  0  0  3  0  0  0  0  0  0
  -24.9550  -27.6780   19.4530 C   0  0  0  0  0  3  0  0  0  0  0  0
  -23.7640  -29.8390   20.1980 C   0  0  0  0  0  2  0  0  0  0  0  0
  -24.7900  -31.0430   22.1590 N   0  0  0  0  0  0  0  0  0  0  0  0
  -23.5930  -32.1370   23.7780 O   0  0  0  0  0  0  0  0  0  0  0  0
  -22.8080  -29.4860   22.5260 C   0  0  0  0  0  0  0  0  0  0  0  0
  -21.4820  -29.3020   22.3690 N   0  0  0  0  0  0  0  0  0  0  0  0
  -23.4610  -28.8670   23.3670 O   0  0  0  0  0  0  0  0  0  0  0  0
  -21.0060  -29.8560   21.6720 H   0  0  0  0  0  0  0  0  0  0  0  0
  -18.1110  -28.0130   22.7940 C   0  0  0  0  0  0  0  0  0  0  0  0
  -20.6610  -28.3350   23.1080 C   0  0  0  0  0  3  0  0  0  0  0  0
  -20.8040  -26.9140   22.5130 C   0  0  0  0  0  2  0  0  0  0  0  0
  -19.7280  -26.5840   21.4710 C   0  0  0  0  0  2  0  0  0  0  0  0
  -18.3320  -26.6830   22.0930 C   0  0  0  0  0  2  0  0  0  0  0  0
  -19.2040  -28.7960   23.2550 C   0  0  0  0  0  0  0  0  0  0  0  0
  -18.9400  -30.0370   23.8750 C   0  0  0  0  0  3  0  0  0  0  0  0
  -17.6190  -30.4970   24.0320 C   0  0  0  0  0  3  0  0  0  0  0  0
  -16.5430  -29.7130   23.5850 C   0  0  0  0  0  3  0  0  0  0  0  0
  -16.7890  -28.4710   22.9730 C   0  0  0  0  0  3  0  0  0  0  0  0
  -25.9470  -32.5000   23.9260 C   0  0  0  0  0  3  0  0  0  0  0  0
  -26.4110  -31.7400   25.2310 C   0  0  1  0  0  0  0  0  0  0  0  0
  -25.2790  -31.5270   26.2650 C   0  0  0  0  0  1  0  0  0  0  0  0
  -26.9960  -30.3520   24.8870 C   0  0  0  0  0  1  0  0  0  0  0  0
  -27.5440  -32.5330   25.9250 C   0  0  0  0  0  1  0  0  0  0  0  0
  -25.6330  -33.9040   24.2510 N   0  0  0  0  0  0  0  0  0  0  0  0
  -25.9430  -34.9610   23.4880 C   0  0  0  0  0  0  0  0  0  0  0  0
  -26.5830  -34.8580   22.4390 O   0  0  0  0  0  0  0  0  0  0  0  0
  -25.0620  -34.0590   25.0690 H   0  0  0  0  0  0  0  0  0  0  0  0
  -24.1790  -36.7430   23.2240 C   0  0  0  0  0  1  0  0  0  0  0  0
  -25.4710  -36.3540   23.9610 C   0  0  0  0  0  3  0  0  0  0  0  0
  -27.6360  -37.2820   24.6610 C   0  0  0  0  0  1  0  0  0  0  0  0
  -26.4830  -37.4180   23.7740 N   0  0  0  0  0  0  0  0  0  0  0  0
  -26.0730  -38.3350   23.9300 H   0  0  0  0  0  0  0  0  0  0  0  0
  1 47  1  0
  2  4  1  0
  2  5  1  0
  2  1  1  0
  3  2  1  0
  7  8  1  0
  7  1  1  0
  7  6  1  0
  8 17  1  0
  9 17  1  0
 10 15  1  0
 11 12  1  0
 11 10  1  0
 13 12  1  0
 13 22  1  0
 13 14  1  0
 15  9  1  0
 15 14  1  0
 16  9  2  0
 17 18  1  0
 19 20  2  0
 20 39  1  0
 21 20  1  0
 21 24  1  0
 22 23  1  0
 22 19  1  0
 23 21  2  0
 24 25  1  0
 25 26  2  0
 27 30  1  0
 27 26  1  0
 28 27  2  0
 29 28  1  0
 29 24  2  0
 30 31  1  0
 31 36  2  0
 31 32  1  0
 32 33  2  0
 33 34  1  0
 34 38  1  0
 35 34  2  0
 36 35  1  0
 37 36  1  0
 39 40  1  0
 40 43  1  0
 40 42  1  0
 41 39  2  0
 44 19  1  0
 44 45  1  0
 46 44  1  0
 47 48  1  0
 49 60  2  0
 50 48  1  0
 50 55  1  0
 51 59  1  0
 51 61  1  0
 52 58  1  0
 52 54  1  0
 53 59  1  0
 54 53  1  0
 55 54  2  0
 56 50  2  0
 57 56  1  0
 57 52  2  0
 58 51  1  0
 59 49  1  0
 61 63  2  0
 62 61  1  0
 64 62  1  0
 65 74  2  0
 65 70  1  0
 66 62  1  0
 66 70  1  0
 67 66  1  0
 68 69  1  0
 68 67  1  0
 69 65  1  0
 70 71  2  0
 71 72  1  0
 73 72  2  0
 74 73  1  0
 75 49  1  0
 75 80  1  0
 75 76  1  0
 76 79  1  1
 76 77  1  0
 78 76  1  0
 80 83  1  0
 81 85  1  0
 81 80  1  0
 82 81  2  0
 85 84  1  0
 87 88  1  0
 87 85  1  0
 87 86  1  0
M  ISO  4   9 100  17 100  47 101  48 101
M  END
>  <TORSDO>  (60) 
F 20

>  <SCORE>  (60) 
-15.350

>  <name>  (60) 
59

>  <ligand_id>  (60) 
59

>  <original_smiles>  (60) 
[H]c1c([H])c([H])c2c(c1[H])C([H])([H])C([H])([H])C([H])([H])C2([H])N([H])C(=O)C1([H])N(C(=O)C([H])(N([H])C(=O)C([H])(N([H])C([H])([H])[H])C([H])([H])[H])C(C([H])([H])[H])(C([H])([H])[H])C([H])([H])[H])C([H])([H])c2c([H])c(OC([H])([H])C([H])(C([H])(C([H])([H])[H])C([H])([H])N([H])C(=O)N3C([H])([H])C([H])([H])C([H])([H])C([H])(n4nc(-c5c([H])c([H])c(Oc6c([H])c([H])c(F)c([H])c6F)c([H])c5[H])c(C(=O)N([H])[H])c4N([H])[H])C3([H])[H])[N+]([H])([H])[H])c([H])c([H])c2C1([H])[H]

>  <smiles>  (60) 
[H]c1c([H])c([H])c2c(c1[H])C([H])([H])C([H])([H])C([H])([H])C2([H])N([H])C(=O)C1([H])N(C(=O)C([H])(N([H])C(=O)C([H])(N([H])C([H])([H])[H])C([H])([H])[H])C(C([H])([H])[H])(C([H])([H])[H])C([H])([H])[H])C([H])([H])c2c([H])c(OC([H])([H])C([H])(C([H])(C([H])([H])[H])C([H])([H])N([H])C(=O)N3C([H])([H])C([H])([H])C([H])([H])C([H])(n4nc(-c5c([H])c([H])c(Oc6c([H])c([H])c(F)c([H])c6F)c([H])c5[H])c(C(=O)N([H])[H])c4N([H])[H])C3([H])[H])[N+]([H])([H])[H])c([H])c([H])c2C1([H])[H]

$$$$
60:0:0
     RDKit          3D

 95103  0  0  1  0  0  0  0  0999 V2000
  -31.9960  -20.3340   20.2400 C   0  0  0  0  0  3  0  0  0  0  0  0
  -31.0780  -21.3930   20.4050 C   0  0  0  0  0  3  0  0  0  0  0  0
  -29.2890  -19.7650   20.2880 C   0  0  0  0  0  3  0  0  0  0  0  0
  -31.5880  -18.9930   20.0330 C   0  0  0  0  0  0  0  0  0  0  0  0
  -30.2080  -18.6400   20.1210 C   0  0  0  0  0  0  0  0  0  0  0  0
  -29.6880  -21.1650   20.3850 C   0  0  0  0  0  0  0  0  0  0  0  0
  -28.7800  -22.2980   20.4260 N   0  0  0  0  0  0  0  0  0  0  0  0
  -27.7820  -22.1000   20.4290 H   0  0  0  0  0  0  0  0  0  0  0  0
  -29.1620  -23.7750   20.4560 C   0  0  0  0  0  3  0  0  0  0  0  0
  -28.0130  -24.8850   20.1680 C   0  0  0  0  0  3  0  0  0  0  0  0
  -28.2530  -26.3700   20.2800 O   0  0  0  0  0  0  0  0  0  0  0  0
  -24.5500  -31.8960   23.2120 C   0  0  0  0  0  0  0  0  0  0  0  0
  -27.1500  -27.2590   20.2130 C   0  0  0  0  0  0  0  0  0  0  0  0
  -23.3420  -30.4760   21.5930 C   0  0  0  0  0  3  0  0  0  0  0  0
  -24.7890  -28.9040   20.1870 C   0  0  0  0  0  0  0  0  0  0  0  0
  -25.8870  -30.7840   21.4020 C   0  0  0  0  0  2  0  0  0  0  0  0
  -25.9660  -29.3950   20.7690 C   0  0  0  0  0  0  0  0  0  0  0  0
  -27.1490  -28.5860   20.7660 C   0  0  0  0  0  3  0  0  0  0  0  0
  -25.9460  -26.8380   19.6050 C   0  0  0  0  0  3  0  0  0  0  0  0
  -24.7850  -27.6340   19.5940 C   0  0  0  0  0  3  0  0  0  0  0  0
  -23.5540  -29.7820   20.2230 C   0  0  0  0  0  2  0  0  0  0  0  0
  -24.6130  -31.0710   22.1240 N   0  0  0  0  0  0  0  0  0  0  0  0
  -23.4670  -32.1810   23.7440 O   0  0  0  0  0  0  0  0  0  0  0  0
  -22.6780  -29.4750   22.5700 C   0  0  0  0  0  0  0  0  0  0  0  0
  -21.3490  -29.3040   22.4560 N   0  0  0  0  0  0  0  0  0  0  0  0
  -23.3580  -28.8550   23.3910 O   0  0  0  0  0  0  0  0  0  0  0  0
  -20.8610  -29.8580   21.7680 H   0  0  0  0  0  0  0  0  0  0  0  0
  -17.9660  -28.1350   22.9970 C   0  0  0  0  0  0  0  0  0  0  0  0
  -20.5300  -28.3770   23.2390 C   0  0  0  0  0  3  0  0  0  0  0  0
  -20.6160  -26.9410   22.6730 C   0  0  0  0  0  2  0  0  0  0  0  0
  -19.5020  -26.6170   21.6740 C   0  0  0  0  0  2  0  0  0  0  0  0
  -18.1260  -26.7790   22.3280 C   0  0  0  0  0  2  0  0  0  0  0  0
  -19.0950  -28.8920   23.4090 C   0  0  0  0  0  0  0  0  0  0  0  0
  -18.8910  -30.1590   23.9950 C   0  0  0  0  0  3  0  0  0  0  0  0
  -17.5920  -30.6730   24.1700 C   0  0  0  0  0  3  0  0  0  0  0  0
  -16.4780  -29.9120   23.7760 C   0  0  0  0  0  3  0  0  0  0  0  0
  -16.6660  -28.6450   23.1970 C   0  0  0  0  0  3  0  0  0  0  0  0
  -25.8320  -32.5400   23.8220 C   0  0  0  0  0  3  0  0  0  0  0  0
  -25.5150  -33.9360   24.1540 N   0  0  0  0  0  0  0  0  0  0  0  0
  -25.8400  -34.9930   23.3980 C   0  0  0  0  0  0  0  0  0  0  0  0
  -26.5050  -34.8970   22.3630 O   0  0  0  0  0  0  0  0  0  0  0  0
  -24.9380  -34.0880   24.9670 H   0  0  0  0  0  0  0  0  0  0  0  0
  -24.1110  -36.7860   23.0510 C   0  0  0  0  0  1  0  0  0  0  0  0
  -25.3500  -36.3770   23.8640 C   0  0  0  0  0  3  0  0  0  0  0  0
  -27.4790  -37.2590   24.7110 C   0  0  0  0  0  1  0  0  0  0  0  0
  -26.3790  -37.4340   23.7660 N   0  0  0  0  0  0  0  0  0  0  0  0
  -25.9700  -38.3510   23.9210 H   0  0  0  0  0  0  0  0  0  0  0  0
  -26.3640  -31.7760   25.0970 C   0  0  1  0  0  0  0  0  0  0  0  0
  -25.2810  -31.5330   26.1750 C   0  0  0  0  0  1  0  0  0  0  0  0
  -26.9530  -30.4010   24.7050 C   0  0  0  0  0  1  0  0  0  0  0  0
  -27.5140  -32.5800   25.7490 C   0  0  0  0  0  1  0  0  0  0  0  0
  -29.7010  -17.1500   19.7920 C   0  0  0  0  0  2  0  0  0  0  0  0
  -30.6910  -14.7330   20.0630 C   0  0  0  0  0  0  0  0  0  0  0  0
  -30.3610  -12.5280   18.9220 C   0  0  0  0  0  2  0  0  0  0  0  0
  -29.3490  -12.6540   17.7610 C   0  0  0  0  0  2  0  0  0  0  0  0
  -27.9060  -12.4800   18.2700 C   0  0  0  0  0  2  0  0  0  0  0  0
  -27.6220  -13.3140   19.5460 C   0  0  0  0  0  3  0  0  0  0  0  0
  -28.7410  -13.1560   20.5960 C   0  0  0  0  0  2  0  0  0  0  0  0
  -30.0110  -13.5350   19.9550 N   0  0  0  0  0  0  0  0  0  0  0  0
  -31.8100  -14.8560   19.5530 O   0  0  0  0  0  0  0  0  0  0  0  0
  -29.9590  -16.0270   22.0090 C   0  0  0  0  0  1  0  0  0  0  0  0
  -30.0490  -15.8650   20.5570 N   0  0  0  0  0  0  0  0  0  0  0  0
  -25.2800  -13.8980   20.4140 C   0  0  0  0  0  0  0  0  0  0  0  0
  -24.2310  -13.1210   20.8240 C   0  0  0  0  0  0  0  0  0  0  0  0
  -24.6860  -11.7680   20.7360 C   0  0  0  0  0  0  0  0  0  0  0  0
  -26.3060  -13.0220   20.1040 N   0  0  0  0  0  0  0  0  0  0  0  0
  -25.9600  -11.7330   20.3600 N   0  0  0  0  0  0  0  0  0  0  0  0
  -23.9650  -10.5070   20.9400 C   0  0  0  0  0  0  0  0  0  0  0  0
  -24.4160   -9.5420   21.8670 C   0  0  0  0  0  3  0  0  0  0  0  0
  -23.6970   -8.3410   22.0560 C   0  0  0  0  0  3  0  0  0  0  0  0
  -22.5140   -8.0990   21.3210 C   0  0  0  0  0  0  0  0  0  0  0  0
  -22.0830   -9.0530   20.3840 C   0  0  0  0  0  3  0  0  0  0  0  0
  -22.7990  -10.2450   20.1920 C   0  0  0  0  0  3  0  0  0  0  0  0
  -21.7640   -6.9530   21.4210 O   0  0  0  0  0  0  0  0  0  0  0  0
  -21.7040   -6.2320   22.5880 C   0  0  0  0  0  0  0  0  0  0  0  0
  -21.2590   -6.8080   23.7980 C   0  0  0  0  0  3  0  0  0  0  0  0
  -21.1470   -6.0140   24.9560 C   0  0  0  0  0  3  0  0  0  0  0  0
  -21.4680   -4.6450   24.9060 C   0  0  0  0  0  0  0  0  0  0  0  0
  -21.9040   -4.0680   23.7000 C   0  0  0  0  0  3  0  0  0  0  0  0
  -22.0190   -4.8590   22.5440 C   0  0  0  0  0  0  0  0  0  0  0  0
  -22.4190   -4.2940   21.3790 F   0  0  0  0  0  0  0  0  0  0  0  0
  -21.3550   -3.8800   26.0170 F   0  0  0  0  0  0  0  0  0  0  0  0
  -22.8550  -13.5990   21.1810 C   0  0  0  0  0  0  0  0  0  0  0  0
  -22.1740  -12.8890   22.0740 N   0  0  0  0  0  0  0  0  0  0  0  0
  -22.3920  -14.6330   20.7030 O   0  0  0  0  0  0  0  0  0  0  0  0
  -22.5640  -12.0500   22.4760 H   0  0  0  0  0  0  0  0  0  0  0  0
  -21.2520  -13.1880   22.3570 H   0  0  0  0  0  0  0  0  0  0  0  0
  -25.4370  -15.2710   20.2580 N   0  0  0  0  0  0  0  0  0  0  0  0
  -24.6820  -15.9230   20.4450 H   0  0  0  0  0  0  0  0  0  0  0  0
  -26.2680  -15.7240   19.8980 H   0  0  0  0  0  0  0  0  0  0  0  0
  -32.6770  -18.0250   19.5680 C   0  0  0  0  0  2  0  0  0  0  0  0
  -33.3370  -17.3170   20.6690 N   0  0  0  0  0  4  0  0  0  0  0  0
  -33.2500  -17.8300   21.5260 H   0  0  0  0  0  0  0  0  0  0  0  0
  -34.3130  -17.1990   20.4600 H   0  0  0  0  0  0  0  0  0  0  0  0
  -32.9340  -16.4000   20.7620 H   0  0  0  0  0  0  0  0  0  0  0  0
  1  2  1  0
  3  6  1  0
  4  5  1  0
  4  1  2  0
  5  3  2  0
  6  2  2  0
  6  7  1  0
  7  8  1  0
  7  9  1  0
 10 11  1  0
 10  9  2  0
 12 23  2  0
 13 11  1  0
 13 18  1  0
 14 22  1  0
 14 24  1  0
 15 21  1  0
 15 17  1  0
 16 22  1  0
 17 16  1  0
 18 17  2  0
 19 13  2  0
 20 19  1  0
 20 15  2  0
 21 14  1  0
 22 12  1  0
 24 26  2  0
 25 24  1  0
 27 25  1  0
 28 37  2  0
 28 33  1  0
 29 25  1  0
 29 33  1  0
 30 29  1  0
 31 32  1  0
 31 30  1  0
 32 28  1  0
 33 34  2  0
 34 35  1  0
 36 35  2  0
 37 36  1  0
 38 12  1  0
 38 39  1  0
 38 48  1  0
 39 42  1  0
 40 44  1  0
 40 39  1  0
 41 40  2  0
 44 43  1  0
 46 44  1  0
 46 47  1  0
 46 45  1  0
 48 51  1  1
 48 49  1  0
 50 48  1  0
 52  5  1  0
 52 62  1  0
 53 62  1  0
 54 59  1  0
 55 56  1  0
 55 54  1  0
 57 56  1  0
 57 66  1  0
 57 58  1  0
 59 53  1  0
 59 58  1  0
 60 53  2  0
 62 61  1  0
 63 64  2  0
 64 83  1  0
 65 64  1  0
 65 68  1  0
 66 67  1  0
 66 63  1  0
 67 65  2  0
 68 69  1  0
 69 70  2  0
 71 74  1  0
 71 70  1  0
 72 71  2  0
 73 72  1  0
 73 68  2  0
 74 75  1  0
 75 76  1  0
 76 77  2  0
 78 77  1  0
 78 82  1  0
 79 78  2  0
 80 75  2  0
 80 79  1  0
 81 80  1  0
 83 84  1  0
 84 87  1  0
 84 86  1  0
 85 83  2  0
 88 63  1  0
 88 89  1  0
 90 88  1  0
 91  4  1  0
 91 92  1  0
 92 95  1  0
 92 93  1  0
 94 92  1  0
M  ISO  4  10 101  11 101  53 100  62 100
M  END
>  <TORSDO>  (61) 
F 22

>  <SCORE>  (61) 
-12.476

>  <name>  (61) 
60

>  <ligand_id>  (61) 
60

>  <original_smiles>  (61) 
[H]c1c([H])c([H])c2c(c1[H])C([H])([H])C([H])([H])C([H])([H])C2([H])N([H])C(=O)C1([H])N(C(=O)C([H])(N([H])C(=O)C([H])(N([H])C([H])([H])[H])C([H])([H])[H])C(C([H])([H])[H])(C([H])([H])[H])C([H])([H])[H])C([H])([H])c2c([H])c(OC([H])([H])C([H])([H])N([H])c3c([H])c([H])c(C([H])([H])[N+]([H])([H])[H])c(C([H])([H])N(C(=O)N4C([H])([H])C([H])([H])C([H])([H])C([H])(n5nc(-c6c([H])c([H])c(Oc7c([H])c([H])c(F)c([H])c7F)c([H])c6[H])c(C(=O)N([H])[H])c5N([H])[H])C4([H])[H])C([H])([H])[H])c3[H])c([H])c([H])c2C1([H])[H]

>  <smiles>  (61) 
[H]c1c([H])c([H])c2c(c1[H])C([H])([H])C([H])([H])C([H])([H])C2([H])N([H])C(=O)C1([H])N(C(=O)C([H])(N([H])C(=O)C([H])(N([H])C([H])([H])[H])C([H])([H])[H])C(C([H])([H])[H])(C([H])([H])[H])C([H])([H])[H])C([H])([H])c2c([H])c(OC([H])([H])C([H])([H])N([H])c3c([H])c([H])c(C([H])([H])[N+]([H])([H])[H])c(C([H])([H])N(C(=O)N4C([H])([H])C([H])([H])C([H])([H])C([H])(n5nc(-c6c([H])c([H])c(Oc7c([H])c([H])c(F)c([H])c7F)c([H])c6[H])c(C(=O)N([H])[H])c5N([H])[H])C4([H])[H])C([H])([H])[H])c3[H])c([H])c([H])c2C1([H])[H]

$$$$
61:0:0
     RDKit          3D

 94 94  0  0  1  0  0  0  0  0999 V2000
  -19.9720  -26.3320   19.1690 C   0  0  0  0  0  2  0  0  0  0  0  0
  -18.8380  -27.5620   19.9780 C   0  0  0  0  0  2  0  0  0  0  0  0
  -20.2630  -26.5430   23.1910 C   0  0  0  0  0  2  0  0  0  0  0  0
  -21.1300  -25.2170   19.9510 C   0  0  0  0  0  1  0  0  0  0  0  0
  -19.0920  -27.5610   22.5950 C   0  0  0  0  0  2  0  0  0  0  0  0
  -21.2370  -25.6280   22.2100 C   0  0  0  0  0  2  0  0  0  0  0  0
  -18.5370  -28.2180   23.7400 N   0  0  0  0  0  0  0  0  0  0  0  0
  -17.6770  -28.7330   23.5950 H   0  0  0  0  0  0  0  0  0  0  0  0
  -18.6390  -27.7990   24.6510 H   0  0  0  0  0  0  0  0  0  0  0  0
  -22.5740  -25.5630   23.1390 N   0  0  0  0  0  0  0  0  0  0  0  0
  -22.3820  -25.7760   24.1140 H   0  0  0  0  0  0  0  0  0  0  0  0
  -24.2650  -25.7350   22.8340 C   0  0  0  0  0  2  0  0  0  0  0  0
  -25.5960  -25.0660   21.6710 C   0  0  0  0  0  2  0  0  0  0  0  0
  -26.8780  -25.2350   20.5880 O   0  0  0  0  0  0  0  0  0  0  0  0
  -23.5080  -30.2120   21.4100 C   0  0  0  0  0  0  0  0  0  0  0  0
  -27.2710  -26.3370   19.8420 C   0  0  0  0  0  0  0  0  0  0  0  0
  -23.8300  -29.4310   19.1010 C   0  0  0  0  0  3  0  0  0  0  0  0
  -26.0400  -28.3390   18.4970 C   0  0  0  0  0  0  0  0  0  0  0  0
  -25.8340  -29.7230   20.5840 C   0  0  0  0  0  2  0  0  0  0  0  0
  -26.4350  -28.5540   19.8230 C   0  0  0  0  0  0  0  0  0  0  0  0
  -27.1630  -27.5720   20.4920 C   0  0  0  0  0  3  0  0  0  0  0  0
  -27.2320  -26.2350   18.4430 C   0  0  0  0  0  3  0  0  0  0  0  0
  -26.5170  -27.2310   17.7640 C   0  0  0  0  0  3  0  0  0  0  0  0
  -24.9620  -29.2820   18.0170 C   0  0  0  0  0  2  0  0  0  0  0  0
  -24.3680  -29.8280   20.4210 N   0  0  0  0  0  0  0  0  0  0  0  0
  -22.2830  -30.2970   21.2160 O   0  0  0  0  0  0  0  0  0  0  0  0
  -23.2040  -28.0840   19.3160 C   0  0  0  0  0  0  0  0  0  0  0  0
  -22.1390  -27.8940   18.5780 N   0  0  0  0  0  0  0  0  0  0  0  0
  -23.7440  -27.1830   19.9580 O   0  0  0  0  0  0  0  0  0  0  0  0
  -21.8500  -28.6090   17.9260 H   0  0  0  0  0  0  0  0  0  0  0  0
  -18.0940  -25.8650   19.2600 C   0  0  0  0  0  3  0  0  0  0  0  0
  -21.5150  -26.6590   18.5180 C   0  0  0  0  0  2  0  0  0  0  0  0
  -21.6200  -24.9020   17.2760 C   0  0  0  0  0 15  0  0  0  0  0  0
  -19.6830  -23.4960   17.4850 C   0  0  0  0  0 15  0  0  0  0  0  0
  -18.0070  -24.3780   18.3990 C   0  0  0  0  0  1  0  0  0  0  0  0
  -20.1690  -27.1420   19.3450 C   0  0  2  0  0  0  0  0  0  0  0  0
  -20.0340  -28.5690   20.4770 C   0  0  0  0  0  3  0  0  0  0  0  0
  -18.5840  -28.9860   21.3020 C   0  0  0  0  0  3  0  0  0  0  0  0
  -17.1140  -28.1610   21.2200 C   0  0  0  0  0  3  0  0  0  0  0  0
  -16.8010  -26.7070   20.3120 C   0  0  0  0  0  3  0  0  0  0  0  0
  -24.0350  -30.5710   22.8210 C   0  0  0  0  0  3  0  0  0  0  0  0
  -24.3050  -32.0070   22.7810 N   0  0  0  0  0  0  0  0  0  0  0  0
  -25.5060  -32.5230   22.5060 C   0  0  0  0  0  0  0  0  0  0  0  0
  -26.5170  -31.8280   22.3630 O   0  0  0  0  0  0  0  0  0  0  0  0
  -23.5070  -32.6220   22.8330 H   0  0  0  0  0  0  0  0  0  0  0  0
  -25.7130  -34.4440   20.9010 C   0  0  0  0  0  1  0  0  0  0  0  0
  -25.6040  -34.0530   22.3830 C   0  0  0  0  0  3  0  0  0  0  0  0
  -26.5910  -34.4850   24.5860 C   0  0  0  0  0  1  0  0  0  0  0  0
  -26.7390  -34.6220   23.1390 N   0  0  0  0  0  0  0  0  0  0  0  0
  -26.8570  -35.6090   22.9250 H   0  0  0  0  0  0  0  0  0  0  0  0
  -23.0570  -30.2050   24.0010 C   0  0  1  0  0  0  0  0  0  0  0  0
  -21.6310  -30.7830   23.8480 C   0  0  0  0  0  1  0  0  0  0  0  0
  -22.9330  -28.6700   24.1520 C   0  0  0  0  0  1  0  0  0  0  0  0
  -23.6540  -30.7340   25.3250 C   0  0  0  0  0  1  0  0  0  0  0  0
  -22.9580  -23.0950   19.2650 C   0  0  0  0  0 15  0  0  0  0  0  0
  -25.1570  -21.0010   19.3330 C   0  0  0  0  0 15  0  0  0  0  0  0
  -28.3230  -17.4380   18.9730 C   0  0  0  0  0  2  0  0  0  0  0  0
  -30.0470  -14.7890   18.1690 C   0  0  0  0  0  2  0  0  0  0  0  0
  -29.8410  -13.3180   17.4430 C   0  0  0  0  0  2  0  0  0  0  0  0
  -28.8390  -12.4200   18.1590 C   0  0  0  0  0  2  0  0  0  0  0  0
  -28.0070  -13.4350   18.9160 C   0  0  0  0  0  3  0  0  0  0  0  0
  -28.7060  -14.5170   19.7960 C   0  0  0  0  0  2  0  0  0  0  0  0
  -28.8100  -15.7590   18.8890 N   0  0  0  0  0  0  0  0  0  0  0  0
  -29.6610  -17.4770   18.8090 O   0  0  0  0  0  1  0  0  0  0  0  0
  -26.7370  -18.8880   19.0930 N   0  0  0  0  0  1  0  0  0  0  0  0
  -26.0120  -18.1810   19.0900 H   0  0  0  0  0  0  0  0  0  0  0  0
  -25.9140  -13.9110   20.0110 C   0  0  0  0  0  0  0  0  0  0  0  0
  -24.9520  -13.1380   20.5520 C   0  0  0  0  0  0  0  0  0  0  0  0
  -25.3830  -11.7840   20.3810 C   0  0  0  0  0  0  0  0  0  0  0  0
  -26.8570  -13.0180   19.5750 N   0  0  0  0  0  0  0  0  0  0  0  0
  -26.5900  -11.7260   19.8360 N   0  0  0  0  0  0  0  0  0  0  0  0
  -24.6640  -10.5440   20.6270 C   0  0  0  0  0  0  0  0  0  0  0  0
  -24.9950   -9.6970   21.7050 C   0  0  0  0  0  3  0  0  0  0  0  0
  -24.2510   -8.5230   21.9320 C   0  0  0  0  0  3  0  0  0  0  0  0
  -23.1670   -8.1960   21.0820 C   0  0  0  0  0  0  0  0  0  0  0  0
  -22.8660   -9.0300   19.9920 C   0  0  0  0  0  3  0  0  0  0  0  0
  -23.6120  -10.1940   19.7630 C   0  0  0  0  0  3  0  0  0  0  0  0
  -22.4000   -7.0670   21.2130 O   0  0  0  0  0  0  0  0  0  0  0  0
  -21.9910   -6.6240   22.4440 C   0  0  0  0  0  0  0  0  0  0  0  0
  -21.1480   -7.3940   23.2750 C   0  0  0  0  0  3  0  0  0  0  0  0
  -20.6980   -6.8670   24.5010 C   0  0  0  0  0  3  0  0  0  0  0  0
  -21.0840   -5.5710   24.8950 C   0  0  0  0  0  0  0  0  0  0  0  0
  -21.9230   -4.8030   24.0680 C   0  0  0  0  0  3  0  0  0  0  0  0
  -22.3740   -5.3290   22.8450 C   0  0  0  0  0  0  0  0  0  0  0  0
  -23.1660   -4.5810   22.0410 F   0  0  0  0  0  0  0  0  0  0  0  0
  -20.6440   -5.0590   26.0680 F   0  0  0  0  0  0  0  0  0  0  0  0
  -23.6560  -13.6600   21.0670 C   0  0  0  0  0  0  0  0  0  0  0  0
  -23.0720  -12.9780   22.0410 N   0  0  0  0  0  0  0  0  0  0  0  0
  -23.1920  -14.7190   20.6470 O   0  0  0  0  0  0  0  0  0  0  0  0
  -23.4720  -12.1250   22.4010 H   0  0  0  0  0  0  0  0  0  0  0  0
  -22.2110  -13.3180   22.4450 H   0  0  0  0  0  0  0  0  0  0  0  0
  -26.0460  -15.2900   19.8180 N   0  0  0  0  0  0  0  0  0  0  0  0
  -25.2050  -15.8480   19.9260 H   0  0  0  0  0  0  0  0  0  0  0  0
  -26.6110  -15.5730   19.0280 H   0  0  0  0  0  0  0  0  0  0  0  0
 36  1  1  1
  1  4  1  0
  2 37  1  0
  5  3  1  0
  5  7  1  0
  6 10  1  0
  6  3  1  0
  7  9  1  0
  8  7  1  0
 10 11  1  0
 12 10  1  0
 13 12  1  0
 14 13  1  0
 16 21  1  0
 16 14  1  0
 17 27  1  0
 17 25  1  0
 18 20  1  0
 20 21  2  0
 20 19  1  0
 22 16  2  0
 23 22  1  0
 23 18  2  0
 24 18  1  0
 24 17  1  0
 25 19  1  0
 25 15  1  0
 26 15  2  0
 27 29  2  0
 28 27  1  0
 30 28  1  0
 31 40  2  0
 32 28  1  0
 35 31  1  0
 36 32  1  0
 36  2  1  0
 36 37  1  0
 37 38  1  0
 39 38  2  0
 40 39  1  0
 41 15  1  0
 41 51  1  0
 42 41  1  0
 42 45  1  0
 43 42  1  0
 44 43  2  0
 47 46  1  0
 47 43  1  0
 47 49  1  0
 49 48  1  0
 50 49  1  0
 51 53  1  1
 51 54  1  0
 52 51  1  0
 58 63  1  0
 59 60  1  0
 59 58  1  0
 61 60  1  0
 61 70  1  0
 61 62  1  0
 63 57  1  0
 63 62  1  0
 64 57  1  0
 66 65  1  0
 67 68  2  0
 68 87  1  0
 69 68  1  0
 69 72  1  0
 70 71  1  0
 70 67  1  0
 71 69  2  0
 72 73  1  0
 73 74  2  0
 75 78  1  0
 75 74  1  0
 76 75  2  0
 77 76  1  0
 77 72  2  0
 78 79  1  0
 79 84  2  0
 79 80  1  0
 80 81  2  0
 81 82  1  0
 82 86  1  0
 83 82  2  0
 84 83  1  0
 85 84  1  0
 87 88  1  0
 88 90  1  0
 88 91  1  0
 89 87  2  0
 92 93  1  0
 92 67  1  0
 94 92  1  0
M  ISO  4  13 101  14 101  57 100  65 100
M  END
>  <TORSDO>  (62) 
F 22

>  <SCORE>  (62) 
0.904

>  <name>  (62) 
61

>  <ligand_id>  (62) 
61

>  <original_smiles>  (62) 
[H]c1c([H])c([H])c2c(c1[H])C([H])([H])C([H])([H])C([H])([H])C2([H])N([H])C(=O)C1([H])N(C(=O)C([H])(N([H])C(=O)C([H])(N([H])C([H])([H])[H])C([H])([H])[H])C(C([H])([H])[H])(C([H])([H])[H])C([H])([H])[H])C([H])([H])c2c([H])c(OC([H])([H])C([H])([H])N([H])c3c([H])c(N([H])[H])c([H])c([H])c3C([H])([H])C([H])([H])N([H])C(=O)N3C([H])([H])C([H])([H])C([H])([H])C([H])(n4nc(-c5c([H])c([H])c(Oc6c([H])c([H])c(F)c([H])c6F)c([H])c5[H])c(C(=O)N([H])[H])c4N([H])[H])C3([H])[H])c([H])c([H])c2C1([H])[H]

>  <smiles>  (62) 
[H]c1c([H])c([H])c2c(c1[H])C([H])([H])C([H])([H])C([H])([H])C2([H])N([H])C(=O)C1([H])N(C(=O)C([H])(N([H])C(=O)C([H])(N([H])C([H])([H])[H])C([H])([H])[H])C(C([H])([H])[H])(C([H])([H])[H])C([H])([H])[H])C([H])([H])c2c([H])c(OC([H])([H])C([H])([H])N([H])c3c([H])c(N([H])[H])c([H])c([H])c3C([H])([H])C([H])([H])N([H])C(=O)N3C([H])([H])C([H])([H])C([H])([H])C([H])(n4nc(-c5c([H])c([H])c(Oc6c([H])c([H])c(F)c([H])c6F)c([H])c5[H])c(C(=O)N([H])[H])c4N([H])[H])C3([H])[H])c([H])c([H])c2C1([H])[H]

$$$$
62:0:0
     RDKit          3D

 90 98  0  0  1  0  0  0  0  0999 V2000
  -29.1430  -23.7950   20.5180 C   0  0  0  0  0  0  0  0  0  0  0  0
  -29.1340  -22.4750   20.1140 N   0  0  0  0  0  0  0  0  0  0  0  0
  -29.8710  -24.1630   21.4430 O   0  0  0  0  0  0  0  0  0  0  0  0
  -28.5290  -22.2720   19.3280 H   0  0  0  0  0  0  0  0  0  0  0  0
  -28.1540  -24.8440   19.8460 C   0  0  0  0  0  2  0  0  0  0  0  0
  -28.3630  -26.3080   20.0980 O   0  0  0  0  0  0  0  0  0  0  0  0
  -24.6150  -31.7780   23.0030 C   0  0  0  0  0  0  0  0  0  0  0  0
  -27.2540  -27.1790   20.0040 C   0  0  0  0  0  0  0  0  0  0  0  0
  -23.4170  -30.3410   21.3950 C   0  0  0  0  0  3  0  0  0  0  0  0
  -24.8760  -28.7900   19.9780 C   0  0  0  0  0  0  0  0  0  0  0  0
  -25.9530  -30.6770   21.1940 C   0  0  0  0  0  2  0  0  0  0  0  0
  -26.0440  -29.2870   20.5690 C   0  0  0  0  0  0  0  0  0  0  0  0
  -27.2310  -28.4920   20.5800 C   0  0  0  0  0  3  0  0  0  0  0  0
  -26.0670  -26.7600   19.3550 C   0  0  0  0  0  3  0  0  0  0  0  0
  -24.8920  -27.5330   19.3590 C   0  0  0  0  0  3  0  0  0  0  0  0
  -23.6300  -29.6510   20.0220 C   0  0  0  0  0  2  0  0  0  0  0  0
  -24.6800  -30.9520   21.9200 N   0  0  0  0  0  0  0  0  0  0  0  0
  -23.5320  -32.0510   23.5420 O   0  0  0  0  0  0  0  0  0  0  0  0
  -22.7730  -29.3300   22.3750 C   0  0  0  0  0  0  0  0  0  0  0  0
  -21.4440  -29.1560   22.2820 N   0  0  0  0  0  0  0  0  0  0  0  0
  -23.4690  -28.7050   23.1790 O   0  0  0  0  0  0  0  0  0  0  0  0
  -20.9400  -29.7120   21.6040 H   0  0  0  0  0  0  0  0  0  0  0  0
  -18.0730  -27.9840   22.8790 C   0  0  0  0  0  0  0  0  0  0  0  0
  -20.6410  -28.2270   23.0780 C   0  0  0  0  0  3  0  0  0  0  0  0
  -20.7180  -26.7930   22.5050 C   0  0  0  0  0  2  0  0  0  0  0  0
  -19.5860  -26.4730   21.5230 C   0  0  0  0  0  2  0  0  0  0  0  0
  -18.2230  -26.6310   22.2040 C   0  0  0  0  0  2  0  0  0  0  0  0
  -19.2080  -28.7400   23.2760 C   0  0  0  0  0  0  0  0  0  0  0  0
  -19.0150  -30.0060   23.8690 C   0  0  0  0  0  3  0  0  0  0  0  0
  -17.7180  -30.5170   24.0690 C   0  0  0  0  0  3  0  0  0  0  0  0
  -16.5980  -29.7580   23.6890 C   0  0  0  0  0  3  0  0  0  0  0  0
  -16.7770  -28.4940   23.0980 C   0  0  0  0  0  3  0  0  0  0  0  0
  -25.8940  -32.4370   23.6050 C   0  0  0  0  0  3  0  0  0  0  0  0
  -26.5040  -31.6220   24.8110 C   0  0  1  0  0  0  0  0  0  0  0  0
  -25.4730  -31.2700   25.9090 C   0  0  0  0  0  1  0  0  0  0  0  0
  -27.1310  -30.2980   24.3150 C   0  0  0  0  0  1  0  0  0  0  0  0
  -27.6430  -32.4340   25.4690 C   0  0  0  0  0  1  0  0  0  0  0  0
  -25.5340  -33.7980   24.0300 N   0  0  0  0  0  0  0  0  0  0  0  0
  -25.8000  -34.9100   23.3320 C   0  0  0  0  0  0  0  0  0  0  0  0
  -26.4450  -34.9010   22.2800 O   0  0  0  0  0  0  0  0  0  0  0  0
  -24.9590  -33.8750   24.8560 H   0  0  0  0  0  0  0  0  0  0  0  0
  -23.9970  -36.6530   23.1310 C   0  0  0  0  0  1  0  0  0  0  0  0
  -25.2690  -36.2440   23.8900 C   0  0  0  0  0  3  0  0  0  0  0  0
  -27.3850  -37.1600   24.7370 C   0  0  0  0  0  1  0  0  0  0  0  0
  -26.2560  -37.3440   23.8280 N   0  0  0  0  0  0  0  0  0  0  0  0
  -25.8170  -38.2350   24.0450 H   0  0  0  0  0  0  0  0  0  0  0  0
  -29.7370  -21.2580   20.7950 C   0  0  0  0  0  3  0  0  0  0  0  0
  -29.8330  -19.8660   19.9830 C   0  0  0  0  0  3  0  0  0  0  0  0
  -30.5610  -17.2530   22.7890 C   0  0  0  0  0  3  0  0  0  0  0  0
  -30.9010  -16.0750   22.0930 C   0  0  0  0  0  3  0  0  0  0  0  0
  -30.2450  -18.4470   22.1100 C   0  0  0  0  0  3  0  0  0  0  0  0
  -30.6250  -17.2920   20.0060 C   0  0  0  0  0  3  0  0  0  0  0  0
  -30.9270  -16.0400   20.6820 C   0  0  0  0  0  0  0  0  0  0  0  0
  -30.2690  -18.5170   20.7000 C   0  0  0  0  0  0  0  0  0  0  0  0
  -31.4180  -14.7590   19.9490 C   0  0  0  0  0  0  0  0  0  0  0  0
  -30.9360  -12.6140   18.7630 C   0  0  0  0  0  2  0  0  0  0  0  0
  -29.9340  -12.8800   17.6180 C   0  0  0  0  0  2  0  0  0  0  0  0
  -28.4850  -12.7800   18.1310 C   0  0  0  0  0  2  0  0  0  0  0  0
  -28.2660  -13.5770   19.4430 C   0  0  0  0  0  3  0  0  0  0  0  0
  -29.3820  -13.3010   20.4720 C   0  0  0  0  0  2  0  0  0  0  0  0
  -30.6740  -13.6010   19.8400 N   0  0  0  0  0  0  0  0  0  0  0  0
  -32.5080  -14.8380   19.3760 O   0  0  0  0  0  0  0  0  0  0  0  0
  -25.9690  -14.2660   20.3580 C   0  0  0  0  0  0  0  0  0  0  0  0
  -24.8860  -13.5350   20.7640 C   0  0  0  0  0  0  0  0  0  0  0  0
  -25.2640  -12.1630   20.6370 C   0  0  0  0  0  0  0  0  0  0  0  0
  -26.9400  -13.3430   20.0080 N   0  0  0  0  0  0  0  0  0  0  0  0
  -26.5260  -12.0690   20.2370 N   0  0  0  0  0  0  0  0  0  0  0  0
  -24.4770  -10.9360   20.8200 C   0  0  0  0  0  0  0  0  0  0  0  0
  -24.8670   -9.9380   21.7410 C   0  0  0  0  0  3  0  0  0  0  0  0
  -24.0840   -8.7760   21.9110 C   0  0  0  0  0  3  0  0  0  0  0  0
  -22.8960   -8.6040   21.1610 C   0  0  0  0  0  0  0  0  0  0  0  0
  -22.5250   -9.5900   20.2300 C   0  0  0  0  0  3  0  0  0  0  0  0
  -23.3080  -10.7430   20.0570 C   0  0  0  0  0  3  0  0  0  0  0  0
  -22.0850   -7.4970   21.2420 O   0  0  0  0  0  0  0  0  0  0  0  0
  -21.9480   -6.7900   22.4090 C   0  0  0  0  0  0  0  0  0  0  0  0
  -21.5160   -7.4030   23.6070 C   0  0  0  0  0  3  0  0  0  0  0  0
  -21.3200   -6.6250   24.7650 C   0  0  0  0  0  3  0  0  0  0  0  0
  -21.5470   -5.2360   24.7270 C   0  0  0  0  0  0  0  0  0  0  0  0
  -21.9700   -4.6230   23.5350 C   0  0  0  0  0  3  0  0  0  0  0  0
  -22.1680   -5.3980   22.3790 C   0  0  0  0  0  0  0  0  0  0  0  0
  -22.5560   -4.8000   21.2280 F   0  0  0  0  0  0  0  0  0  0  0  0
  -21.3510   -4.4860   25.8380 F   0  0  0  0  0  0  0  0  0  0  0  0
  -23.5420  -14.0760   21.1570 C   0  0  0  0  0  0  0  0  0  0  0  0
  -22.8550  -13.4060   22.0740 N   0  0  0  0  0  0  0  0  0  0  0  0
  -23.1140  -15.1280   20.6830 O   0  0  0  0  0  0  0  0  0  0  0  0
  -23.2170  -12.5550   22.4800 H   0  0  0  0  0  0  0  0  0  0  0  0
  -21.9550  -13.7500   22.3790 H   0  0  0  0  0  0  0  0  0  0  0  0
  -26.2040  -15.6320   20.2390 N   0  0  0  0  0  0  0  0  0  0  0  0
  -25.4970  -16.3260   20.4550 H   0  0  0  0  0  0  0  0  0  0  0  0
  -27.0790  -16.0380   19.9310 H   0  0  0  0  0  0  0  0  0  0  0  0
  1  3  2  0
  2  1  1  0
  2 47  1  0
  4  2  1  0
  5  6  1  0
  5  1  1  0
  7 18  2  0
  8  6  1  0
  8 13  1  0
  9 17  1  0
  9 19  1  0
 10 16  1  0
 10 12  1  0
 11 17  1  0
 12 13  2  0
 12 11  1  0
 14 15  1  0
 14  8  2  0
 15 10  2  0
 16  9  1  0
 17  7  1  0
 19 21  2  0
 20 19  1  0
 22 20  1  0
 23 32  2  0
 23 28  1  0
 24 20  1  0
 24 28  1  0
 25 24  1  0
 26 27  1  0
 26 25  1  0
 27 23  1  0
 28 29  2  0
 29 30  1  0
 31 30  2  0
 32 31  1  0
 33  7  1  0
 33 38  1  0
 33 34  1  0
 34 37  1  1
 34 35  1  0
 36 34  1  0
 38 41  1  0
 39 43  1  0
 39 38  1  0
 40 39  2  0
 43 42  1  0
 45 43  1  0
 45 46  1  0
 45 44  1  0
 48 54  1  0
 48 47  2  0
 50 49  2  0
 51 49  1  0
 52 53  2  0
 52 54  1  0
 53 50  1  0
 54 51  2  0
 55 53  1  0
 56 61  1  0
 57 58  1  0
 57 56  1  0
 59 58  1  0
 59 66  1  0
 59 60  1  0
 61 55  1  0
 61 60  1  0
 62 55  2  0
 63 64  2  0
 64 83  1  0
 65 64  1  0
 65 68  1  0
 66 67  1  0
 66 63  1  0
 67 65  2  0
 68 69  1  0
 69 70  2  0
 71 74  1  0
 71 70  1  0
 72 71  2  0
 73 72  1  0
 73 68  2  0
 74 75  1  0
 75 76  1  0
 76 77  2  0
 78 77  1  0
 78 82  1  0
 79 78  2  0
 80 75  2  0
 80 79  1  0
 81 80  1  0
 83 84  1  0
 84 87  1  0
 84 86  1  0
 85 83  2  0
 88 63  1  0
 88 89  1  0
 90 88  1  0
M  ISO  4   5 101   6 101  53 100  55 100
M  END
>  <TORSDO>  (63) 
F 20

>  <SCORE>  (63) 
-12.294

>  <name>  (63) 
62

>  <ligand_id>  (63) 
62

>  <original_smiles>  (63) 
[H]c1c([H])c(C(=O)N2C([H])([H])C([H])([H])C([H])([H])C([H])(n3nc(-c4c([H])c([H])c(Oc5c([H])c([H])c(F)c([H])c5F)c([H])c4[H])c(C(=O)N([H])[H])c3N([H])[H])C2([H])[H])c([H])c(C([H])([H])C([H])([H])N([H])C(=O)C([H])([H])Oc2c([H])c([H])c3c(c2[H])C([H])([H])N(C(=O)C([H])(N([H])C(=O)C([H])(N([H])C([H])([H])[H])C([H])([H])[H])C(C([H])([H])[H])(C([H])([H])[H])C([H])([H])[H])C([H])(C(=O)N([H])C2([H])c4c([H])c([H])c([H])c([H])c4C([H])([H])C([H])([H])C2([H])[H])C3([H])[H])c1[H]

>  <smiles>  (63) 
[H]c1c([H])c(C(=O)N2C([H])([H])C([H])([H])C([H])([H])C([H])(n3nc(-c4c([H])c([H])c(Oc5c([H])c([H])c(F)c([H])c5F)c([H])c4[H])c(C(=O)N([H])[H])c3N([H])[H])C2([H])[H])c([H])c(C([H])([H])C([H])([H])N([H])C(=O)C([H])([H])Oc2c([H])c([H])c3c(c2[H])C([H])([H])N(C(=O)C([H])(N([H])C(=O)C([H])(N([H])C([H])([H])[H])C([H])([H])[H])C(C([H])([H])[H])(C([H])([H])[H])C([H])([H])[H])C([H])(C(=O)N([H])C2([H])c4c([H])c([H])c([H])c([H])c4C([H])([H])C([H])([H])C2([H])[H])C3([H])[H])c1[H]

$$$$
63:0:0
     RDKit          3D

 96104  0  0  1  0  0  0  0  0999 V2000
  -31.5630  -21.8430   20.1230 C   0  0  0  0  0  3  0  0  0  0  0  0
  -29.5110  -20.6260   20.6430 C   0  0  0  0  0  3  0  0  0  0  0  0
  -31.6270  -19.4300   20.4880 C   0  0  0  0  0  3  0  0  0  0  0  0
  -30.1700  -21.8480   20.3480 C   0  0  0  0  0  0  0  0  0  0  0  0
  -32.2890  -20.6390   20.1930 C   0  0  0  0  0  0  0  0  0  0  0  0
  -30.2270  -19.4030   20.6980 C   0  0  0  0  0  0  0  0  0  0  0  0
  -33.6640  -20.6370   19.9620 N   0  0  0  0  0  0  0  0  0  0  0  0
  -34.0680  -21.4280   19.4700 H   0  0  0  0  0  0  0  0  0  0  0  0
  -34.0890  -19.7580   19.6770 H   0  0  0  0  0  0  0  0  0  0  0  0
  -29.5490  -18.1970   20.9690 N   0  0  0  0  0  0  0  0  0  0  0  0
  -28.5480  -18.2900   21.1390 H   0  0  0  0  0  0  0  0  0  0  0  0
  -29.9520  -16.9630   20.2700 C   0  0  0  0  0  2  0  0  0  0  0  0
  -30.0360  -15.7160   21.1960 C   0  0  0  0  0  2  0  0  0  0  0  0
  -30.6730  -14.4820   20.5030 C   0  0  0  0  0  0  0  0  0  0  0  0
  -30.3600  -12.3410   19.3130 C   0  0  0  0  0  2  0  0  0  0  0  0
  -29.4260  -12.5900   18.1100 C   0  0  0  0  0  2  0  0  0  0  0  0
  -27.9480  -12.4590   18.5310 C   0  0  0  0  0  2  0  0  0  0  0  0
  -27.6190  -13.2740   19.8130 C   0  0  0  0  0  3  0  0  0  0  0  0
  -28.6690  -12.9990   20.9130 C   0  0  0  0  0  2  0  0  0  0  0  0
  -29.9960  -13.3070   20.3620 N   0  0  0  0  0  0  0  0  0  0  0  0
  -31.7930  -14.6420   20.0070 O   0  0  0  0  0  0  0  0  0  0  0  0
  -25.2160  -13.8920   20.4950 C   0  0  0  0  0  0  0  0  0  0  0  0
  -24.1430  -13.1240   20.8620 C   0  0  0  0  0  0  0  0  0  0  0  0
  -24.5990  -11.7710   20.8460 C   0  0  0  0  0  0  0  0  0  0  0  0
  -26.2600  -13.0060   20.2810 N   0  0  0  0  0  0  0  0  0  0  0  0
  -25.8910  -11.7260   20.5460 N   0  0  0  0  0  0  0  0  0  0  0  0
  -23.8670  -10.5130   21.0390 C   0  0  0  0  0  0  0  0  0  0  0  0
  -24.2960   -9.5450   21.9740 C   0  0  0  0  0  3  0  0  0  0  0  0
  -23.5660   -8.3500   22.1530 C   0  0  0  0  0  3  0  0  0  0  0  0
  -22.3930   -8.1150   21.3970 C   0  0  0  0  0  0  0  0  0  0  0  0
  -21.9840   -9.0710   20.4500 C   0  0  0  0  0  3  0  0  0  0  0  0
  -22.7150  -10.2580   20.2690 C   0  0  0  0  0  3  0  0  0  0  0  0
  -21.6330   -6.9740   21.4880 O   0  0  0  0  0  0  0  0  0  0  0  0
  -21.5880   -6.2290   22.6390 C   0  0  0  0  0  0  0  0  0  0  0  0
  -21.1800   -6.7860   23.8710 C   0  0  0  0  0  3  0  0  0  0  0  0
  -21.0820   -5.9670   25.0140 C   0  0  0  0  0  3  0  0  0  0  0  0
  -21.3800   -4.5950   24.9260 C   0  0  0  0  0  0  0  0  0  0  0  0
  -21.7790   -4.0370   23.6990 C   0  0  0  0  0  3  0  0  0  0  0  0
  -21.8800   -4.8520   22.5580 C   0  0  0  0  0  0  0  0  0  0  0  0
  -22.2460   -4.3070   21.3730 F   0  0  0  0  0  0  0  0  0  0  0  0
  -21.2770   -3.8070   26.0230 F   0  0  0  0  0  0  0  0  0  0  0  0
  -22.7440  -13.6080   21.1220 C   0  0  0  0  0  0  0  0  0  0  0  0
  -22.0070  -12.9150   21.9870 N   0  0  0  0  0  0  0  0  0  0  0  0
  -22.3120  -14.6320   20.5960 O   0  0  0  0  0  0  0  0  0  0  0  0
  -22.3670  -12.0840   22.4320 H   0  0  0  0  0  0  0  0  0  0  0  0
  -21.0680  -13.2190   22.2020 H   0  0  0  0  0  0  0  0  0  0  0  0
  -25.3850  -15.2610   20.3110 N   0  0  0  0  0  0  0  0  0  0  0  0
  -24.6180  -15.9180   20.4020 H   0  0  0  0  0  0  0  0  0  0  0  0
  -26.2470  -15.6970   20.0090 H   0  0  0  0  0  0  0  0  0  0  0  0
  -29.4010  -23.1660   20.2280 C   0  0  0  0  0  2  0  0  0  0  0  0
  -29.6260  -24.0500   21.3960 N   0  0  0  0  0  4  0  0  0  0  0  0
  -30.2570  -23.5500   22.0010 H   0  0  0  0  0  0  0  0  0  0  0  0
  -28.7560  -24.1430   21.8970 H   0  0  0  0  0  0  0  0  0  0  0  0
  -30.2110  -25.3950   21.1250 C   0  0  0  0  0  2  0  0  0  0  0  0
  -29.2090  -26.5690   21.2580 C   0  0  0  0  0  2  0  0  0  0  0  0
  -28.3940  -26.6510   20.0920 O   0  0  0  0  0  0  0  0  0  0  0  0
  -24.5900  -31.8690   23.2220 C   0  0  0  0  0  0  0  0  0  0  0  0
  -27.2650  -27.4400   20.1560 C   0  0  0  0  0  0  0  0  0  0  0  0
  -23.3930  -30.4680   21.5710 C   0  0  0  0  0  3  0  0  0  0  0  0
  -24.8620  -28.9330   20.1570 C   0  0  0  0  0  0  0  0  0  0  0  0
  -25.9170  -30.8330   21.3870 C   0  0  0  0  0  2  0  0  0  0  0  0
  -26.0120  -29.4580   20.7590 C   0  0  0  0  0  0  0  0  0  0  0  0
  -27.2170  -28.7170   20.7690 C   0  0  0  0  0  3  0  0  0  0  0  0
  -26.1030  -26.9350   19.5420 C   0  0  0  0  0  3  0  0  0  0  0  0
  -24.9000  -27.6660   19.5490 C   0  0  0  0  0  3  0  0  0  0  0  0
  -23.6140  -29.7880   20.1920 C   0  0  0  0  0  2  0  0  0  0  0  0
  -24.6510  -31.0710   22.1200 N   0  0  0  0  0  0  0  0  0  0  0  0
  -23.5060  -32.1390   23.7590 O   0  0  0  0  0  0  0  0  0  0  0  0
  -22.7390  -29.4440   22.5270 C   0  0  0  0  0  0  0  0  0  0  0  0
  -21.4160  -29.2610   22.3930 N   0  0  0  0  0  0  0  0  0  0  0  0
  -23.4200  -28.8170   23.3440 O   0  0  0  0  0  0  0  0  0  0  0  0
  -20.9270  -29.8200   21.7070 H   0  0  0  0  0  0  0  0  0  0  0  0
  -18.0400  -28.0650   22.8690 C   0  0  0  0  0  0  0  0  0  0  0  0
  -20.5960  -28.3220   23.1570 C   0  0  0  0  0  3  0  0  0  0  0  0
  -20.7010  -26.8920   22.5790 C   0  0  0  0  0  2  0  0  0  0  0  0
  -19.6050  -26.5720   21.5580 C   0  0  0  0  0  2  0  0  0  0  0  0
  -18.2190  -26.7160   22.1940 C   0  0  0  0  0  2  0  0  0  0  0  0
  -19.1560  -28.8260   23.3070 C   0  0  0  0  0  0  0  0  0  0  0  0
  -18.9350  -30.0900   23.8970 C   0  0  0  0  0  3  0  0  0  0  0  0
  -17.6290  -30.5920   24.0540 C   0  0  0  0  0  3  0  0  0  0  0  0
  -16.5270  -29.8290   23.6310 C   0  0  0  0  0  3  0  0  0  0  0  0
  -16.7330  -28.5670   23.0450 C   0  0  0  0  0  3  0  0  0  0  0  0
  -25.8720  -32.5000   23.8490 C   0  0  0  0  0  3  0  0  0  0  0  0
  -25.5600  -33.8950   24.1830 N   0  0  0  0  0  0  0  0  0  0  0  0
  -25.8980  -34.9500   23.4310 C   0  0  0  0  0  0  0  0  0  0  0  0
  -26.5750  -34.8520   22.4030 O   0  0  0  0  0  0  0  0  0  0  0  0
  -24.9590  -34.0460   24.9810 H   0  0  0  0  0  0  0  0  0  0  0  0
  -24.1720  -36.7420   23.0690 C   0  0  0  0  0  1  0  0  0  0  0  0
  -25.4060  -36.3350   23.8890 C   0  0  0  0  0  3  0  0  0  0  0  0
  -27.5340  -37.2170   24.7390 C   0  0  0  0  0  1  0  0  0  0  0  0
  -26.4390  -37.3900   23.7900 N   0  0  0  0  0  0  0  0  0  0  0  0
  -26.0310  -38.3090   23.9390 H   0  0  0  0  0  0  0  0  0  0  0  0
  -26.3900  -31.7210   25.1190 C   0  0  1  0  0  0  0  0  0  0  0  0
  -25.2990  -31.4750   26.1870 C   0  0  0  0  0  1  0  0  0  0  0  0
  -26.9770  -30.3480   24.7160 C   0  0  0  0  0  1  0  0  0  0  0  0
  -27.5390  -32.5150   25.7880 C   0  0  0  0  0  1  0  0  0  0  0  0
  1  5  2  0
  1  4  1  0
  2  6  1  0
  3  6  2  0
  4  2  2  0
  5  3  1  0
  6 10  1  0
  7  5  1  0
  8  7  1  0
  9  7  1  0
 10 11  1  0
 12 10  1  0
 12 13  1  0
 14 13  1  0
 15 20  1  0
 16 17  1  0
 16 15  1  0
 18 17  1  0
 18 25  1  0
 18 19  1  0
 20 14  1  0
 20 19  1  0
 21 14  2  0
 22 23  2  0
 23 42  1  0
 24 23  1  0
 24 27  1  0
 25 22  1  0
 25 26  1  0
 26 24  2  0
 27 28  1  0
 28 29  2  0
 30 33  1  0
 30 29  1  0
 31 30  2  0
 32 31  1  0
 32 27  2  0
 33 34  1  0
 34 35  1  0
 35 36  2  0
 37 36  1  0
 37 41  1  0
 38 37  2  0
 39 34  2  0
 39 38  1  0
 40 39  1  0
 42 43  1  0
 43 46  1  0
 43 45  1  0
 44 42  2  0
 47 48  1  0
 47 22  1  0
 49 47  1  0
 50  4  1  0
 50 51  1  0
 51 53  1  0
 51 52  1  0
 54 55  1  0
 54 51  1  0
 56 58  1  0
 56 55  1  0
 57 68  2  0
 58 63  1  0
 59 67  1  0
 59 69  1  0
 60 66  1  0
 60 62  1  0
 61 67  1  0
 62 63  2  0
 62 61  1  0
 64 65  1  0
 64 58  2  0
 65 60  2  0
 66 59  1  0
 67 57  1  0
 69 71  2  0
 70 69  1  0
 72 70  1  0
 73 82  2  0
 73 78  1  0
 74 70  1  0
 74 78  1  0
 75 74  1  0
 76 77  1  0
 76 75  1  0
 77 73  1  0
 78 79  2  0
 79 80  1  0
 81 80  2  0
 82 81  1  0
 83 57  1  0
 83 84  1  0
 83 93  1  0
 84 87  1  0
 85 89  1  0
 85 84  1  0
 86 85  2  0
 89 88  1  0
 91 89  1  0
 91 92  1  0
 91 90  1  0
 93 96  1  1
 93 94  1  0
 95 93  1  0
M  ISO  4  13 100  14 100  55 101  56 101
M  END
>  <TORSDO>  (64) 
F 24

>  <SCORE>  (64) 
-12.925

>  <name>  (64) 
63

>  <ligand_id>  (64) 
63

>  <original_smiles>  (64) 
[H]c1c([H])c([H])c2c(c1[H])C([H])([H])C([H])([H])C([H])([H])C2([H])N([H])C(=O)C1([H])N(C(=O)C([H])(N([H])C(=O)C([H])(N([H])C([H])([H])[H])C([H])([H])[H])C(C([H])([H])[H])(C([H])([H])[H])C([H])([H])[H])C([H])([H])c2c([H])c(OC([H])([H])C([H])([H])[N+]([H])([H])C([H])([H])c3c([H])c(N([H])[H])c([H])c(N([H])C([H])([H])C([H])([H])C(=O)N4C([H])([H])C([H])([H])C([H])([H])C([H])(n5nc(-c6c([H])c([H])c(Oc7c([H])c([H])c(F)c([H])c7F)c([H])c6[H])c(C(=O)N([H])[H])c5N([H])[H])C4([H])[H])c3[H])c([H])c([H])c2C1([H])[H]

>  <smiles>  (64) 
[H]c1c([H])c([H])c2c(c1[H])C([H])([H])C([H])([H])C([H])([H])C2([H])N([H])C(=O)C1([H])N(C(=O)C([H])(N([H])C(=O)C([H])(N([H])C([H])([H])[H])C([H])([H])[H])C(C([H])([H])[H])(C([H])([H])[H])C([H])([H])[H])C([H])([H])c2c([H])c(OC([H])([H])C([H])([H])[N+]([H])([H])C([H])([H])c3c([H])c(N([H])[H])c([H])c(N([H])C([H])([H])C([H])([H])C(=O)N4C([H])([H])C([H])([H])C([H])([H])C([H])(n5nc(-c6c([H])c([H])c(Oc7c([H])c([H])c(F)c([H])c7F)c([H])c6[H])c(C(=O)N([H])[H])c5N([H])[H])C4([H])[H])c3[H])c([H])c([H])c2C1([H])[H]

$$$$
64:0:0
     RDKit          3D

 96104  0  0  1  0  0  0  0  0999 V2000
  -31.6970  -23.9740   18.4240 C   0  0  0  0  0  0  0  0  0  0  0  0
  -30.5200  -24.5580   20.4110 C   0  0  0  0  0  2  0  0  0  0  0  0
  -31.6920  -23.6850   19.9180 C   0  0  0  0  0  3  0  0  0  0  0  0
  -30.2600  -25.5760   19.2850 C   0  0  0  0  0  3  0  0  0  0  0  0
  -30.9030  -24.9920   18.1210 N   0  0  0  0  0  0  0  0  0  0  0  0
  -32.3510  -23.3220   17.6090 O   0  0  0  0  0  0  0  0  0  0  0  0
  -30.8150  -25.3770   17.1890 H   0  0  0  0  0  0  0  0  0  0  0  0
  -31.4990  -22.2410   20.1480 N   0  0  0  0  0  4  0  0  0  0  0  0
  -32.1280  -21.7740   19.5160 H   0  0  0  0  0  0  0  0  0  0  0  0
  -30.5680  -22.0220   19.8420 H   0  0  0  0  0  0  0  0  0  0  0  0
  -31.7470  -21.7740   21.5380 C   0  0  0  0  0  2  0  0  0  0  0  0
  -30.8240  -20.5920   21.9260 C   0  0  0  0  0  2  0  0  0  0  0  0
  -31.2690  -19.2570   21.3060 C   0  0  0  0  0  2  0  0  0  0  0  0
  -30.3030  -18.1510   21.4970 N   0  0  0  0  0  4  0  0  0  0  0  0
  -30.2330  -17.9240   22.4760 H   0  0  0  0  0  0  0  0  0  0  0  0
  -29.3870  -18.4410   21.1890 H   0  0  0  0  0  0  0  0  0  0  0  0
  -30.7040  -16.9490   20.7390 C   0  0  0  0  0  2  0  0  0  0  0  0
  -30.0430  -15.6340   21.2150 C   0  0  0  0  0  2  0  0  0  0  0  0
  -30.6630  -14.4150   20.5010 C   0  0  0  0  0  0  0  0  0  0  0  0
  -30.3200  -12.2840   19.3250 C   0  0  0  0  0  2  0  0  0  0  0  0
  -29.3980  -12.5560   18.1210 C   0  0  0  0  0  2  0  0  0  0  0  0
  -27.9180  -12.4340   18.5400 C   0  0  0  0  0  2  0  0  0  0  0  0
  -27.5850  -13.2280   19.8320 C   0  0  0  0  0  3  0  0  0  0  0  0
  -28.6400  -12.9840   20.9330 C   0  0  0  0  0  2  0  0  0  0  0  0
  -29.9670  -13.2580   20.3670 N   0  0  0  0  0  0  0  0  0  0  0  0
  -31.7660  -14.5700   19.9660 O   0  0  0  0  0  0  0  0  0  0  0  0
  -25.1830  -13.8340   20.5360 C   0  0  0  0  0  0  0  0  0  0  0  0
  -24.1180  -13.0630   20.9090 C   0  0  0  0  0  0  0  0  0  0  0  0
  -24.5790  -11.7100   20.8830 C   0  0  0  0  0  0  0  0  0  0  0  0
  -26.2320  -12.9540   20.3090 N   0  0  0  0  0  0  0  0  0  0  0  0
  -25.8720  -11.6720   20.5760 N   0  0  0  0  0  0  0  0  0  0  0  0
  -23.8560  -10.4500   21.0770 C   0  0  0  0  0  0  0  0  0  0  0  0
  -24.3120   -9.4740   21.9890 C   0  0  0  0  0  3  0  0  0  0  0  0
  -23.5940   -8.2740   22.1740 C   0  0  0  0  0  3  0  0  0  0  0  0
  -22.4020   -8.0410   21.4480 C   0  0  0  0  0  0  0  0  0  0  0  0
  -21.9630   -9.0040   20.5240 C   0  0  0  0  0  3  0  0  0  0  0  0
  -22.6840  -10.1970   20.3380 C   0  0  0  0  0  3  0  0  0  0  0  0
  -21.6510   -6.8930   21.5450 O   0  0  0  0  0  0  0  0  0  0  0  0
  -21.6540   -6.1210   22.6770 C   0  0  0  0  0  0  0  0  0  0  0  0
  -21.3100   -6.6490   23.9400 C   0  0  0  0  0  3  0  0  0  0  0  0
  -21.2640   -5.8060   25.0660 C   0  0  0  0  0  3  0  0  0  0  0  0
  -21.5450   -4.4340   24.9300 C   0  0  0  0  0  0  0  0  0  0  0  0
  -21.8770   -3.9030   23.6700 C   0  0  0  0  0  3  0  0  0  0  0  0
  -21.9300   -4.7440   22.5460 C   0  0  0  0  0  0  0  0  0  0  0  0
  -22.2320   -4.2260   21.3320 F   0  0  0  0  0  0  0  0  0  0  0  0
  -21.4890   -3.6190   26.0100 F   0  0  0  0  0  0  0  0  0  0  0  0
  -22.7190  -13.5390   21.1760 C   0  0  0  0  0  0  0  0  0  0  0  0
  -21.9870  -12.8520   22.0440 N   0  0  0  0  0  0  0  0  0  0  0  0
  -22.2820  -14.5600   20.6440 O   0  0  0  0  0  0  0  0  0  0  0  0
  -22.3480  -12.0340   22.5130 H   0  0  0  0  0  0  0  0  0  0  0  0
  -21.0420  -13.1530   22.2460 H   0  0  0  0  0  0  0  0  0  0  0  0
  -25.3500  -15.2040   20.3460 N   0  0  0  0  0  0  0  0  0  0  0  0
  -24.5810  -15.8570   20.4470 H   0  0  0  0  0  0  0  0  0  0  0  0
  -26.1970  -15.6410   20.0080 H   0  0  0  0  0  0  0  0  0  0  0  0
  -28.7680  -25.9030   19.0780 C   0  0  0  0  0  2  0  0  0  0  0  0
  -28.4480  -26.8150   20.1200 O   0  0  0  0  0  0  0  0  0  0  0  0
  -24.6170  -31.8800   23.2100 C   0  0  0  0  0  0  0  0  0  0  0  0
  -27.2440  -27.4690   20.1010 C   0  0  0  0  0  0  0  0  0  0  0  0
  -23.3900  -30.4690   21.5820 C   0  0  0  0  0  3  0  0  0  0  0  0
  -24.8290  -28.9250   20.1470 C   0  0  0  0  0  0  0  0  0  0  0  0
  -25.9000  -30.8440   21.3430 C   0  0  0  0  0  2  0  0  0  0  0  0
  -25.9830  -29.4650   20.7290 C   0  0  0  0  0  0  0  0  0  0  0  0
  -27.1840  -28.7320   20.7230 C   0  0  0  0  0  3  0  0  0  0  0  0
  -26.0790  -26.9350   19.5060 C   0  0  0  0  0  3  0  0  0  0  0  0
  -24.8700  -27.6570   19.5390 C   0  0  0  0  0  3  0  0  0  0  0  0
  -23.5780  -29.7710   20.2040 C   0  0  0  0  0  2  0  0  0  0  0  0
  -24.6560  -31.0800   22.1070 N   0  0  0  0  0  0  0  0  0  0  0  0
  -23.5450  -32.1470   23.7690 O   0  0  0  0  0  0  0  0  0  0  0  0
  -22.7540  -29.4530   22.5540 C   0  0  0  0  0  0  0  0  0  0  0  0
  -21.4270  -29.2790   22.4460 N   0  0  0  0  0  0  0  0  0  0  0  0
  -23.4510  -28.8240   23.3580 O   0  0  0  0  0  0  0  0  0  0  0  0
  -20.9300  -29.8450   21.7720 H   0  0  0  0  0  0  0  0  0  0  0  0
  -18.0590  -28.0790   22.9720 C   0  0  0  0  0  0  0  0  0  0  0  0
  -20.6190  -28.3410   23.2250 C   0  0  0  0  0  3  0  0  0  0  0  0
  -20.7180  -26.9070   22.6560 C   0  0  0  0  0  2  0  0  0  0  0  0
  -19.6110  -26.5810   21.6480 C   0  0  0  0  0  2  0  0  0  0  0  0
  -18.2330  -26.7270   22.3010 C   0  0  0  0  0  2  0  0  0  0  0  0
  -19.1810  -28.8450   23.3910 C   0  0  0  0  0  0  0  0  0  0  0  0
  -18.9680  -30.1100   23.9770 C   0  0  0  0  0  3  0  0  0  0  0  0
  -17.6650  -30.6130   24.1460 C   0  0  0  0  0  3  0  0  0  0  0  0
  -16.5570  -29.8460   23.7430 C   0  0  0  0  0  3  0  0  0  0  0  0
  -16.7570  -28.5810   23.1650 C   0  0  0  0  0  3  0  0  0  0  0  0
  -25.9140  -32.5120   23.8110 C   0  0  0  0  0  3  0  0  0  0  0  0
  -25.6030  -33.9030   24.1670 N   0  0  0  0  0  0  0  0  0  0  0  0
  -25.9200  -34.9670   23.4160 C   0  0  0  0  0  0  0  0  0  0  0  0
  -26.5760  -34.8830   22.3740 O   0  0  0  0  0  0  0  0  0  0  0  0
  -25.0200  -34.0400   24.9790 H   0  0  0  0  0  0  0  0  0  0  0  0
  -24.1740  -36.7540   23.1140 C   0  0  0  0  0  1  0  0  0  0  0  0
  -25.4320  -36.3480   23.8980 C   0  0  0  0  0  3  0  0  0  0  0  0
  -27.5770  -37.2360   24.6940 C   0  0  0  0  0  1  0  0  0  0  0  0
  -26.4540  -37.4120   23.7760 N   0  0  0  0  0  0  0  0  0  0  0  0
  -26.0430  -38.3250   23.9520 H   0  0  0  0  0  0  0  0  0  0  0  0
  -26.4660  -31.7250   25.0620 C   0  0  1  0  0  0  0  0  0  0  0  0
  -25.4000  -31.4690   26.1530 C   0  0  0  0  0  1  0  0  0  0  0  0
  -27.0380  -30.3540   24.6270 C   0  0  0  0  0  1  0  0  0  0  0  0
  -27.6320  -32.5100   25.7110 C   0  0  0  0  0  1  0  0  0  0  0  0
  1  3  1  0
  3  8  1  0
  3  2  1  0
  4 55  1  0
  4  2  1  0
  5  1  1  0
  5  4  1  0
  6  1  2  0
  7  5  1  0
  8 11  1  0
  9  8  1  0
 10  8  1  0
 11 12  1  0
 13 14  1  0
 13 12  1  0
 14 15  1  0
 16 14  1  0
 17 18  1  0
 17 14  1  0
 19 18  1  0
 20 25  1  0
 21 22  1  0
 21 20  1  0
 23 22  1  0
 23 30  1  0
 23 24  1  0
 25 19  1  0
 25 24  1  0
 26 19  2  0
 27 28  2  0
 28 47  1  0
 29 28  1  0
 29 32  1  0
 30 27  1  0
 30 31  1  0
 31 29  2  0
 32 33  1  0
 33 34  2  0
 35 38  1  0
 35 34  1  0
 36 35  2  0
 37 36  1  0
 37 32  2  0
 38 39  1  0
 39 40  1  0
 40 41  2  0
 42 41  1  0
 42 46  1  0
 43 42  2  0
 44 39  2  0
 44 43  1  0
 45 44  1  0
 47 48  1  0
 48 51  1  0
 48 50  1  0
 49 47  2  0
 52 53  1  0
 52 27  1  0
 54 52  1  0
 55 56  1  0
 57 68  2  0
 58 56  1  0
 58 63  1  0
 59 67  1  0
 59 69  1  0
 60 66  1  0
 60 62  1  0
 61 67  1  0
 62 61  1  0
 63 62  2  0
 64 65  1  0
 64 58  2  0
 65 60  2  0
 66 59  1  0
 67 57  1  0
 69 71  2  0
 70 69  1  0
 72 70  1  0
 73 82  2  0
 73 78  1  0
 74 70  1  0
 74 78  1  0
 75 74  1  0
 76 77  1  0
 76 75  1  0
 77 73  1  0
 78 79  2  0
 79 80  1  0
 81 80  2  0
 82 81  1  0
 83 57  1  0
 83 84  1  0
 83 93  1  0
 84 87  1  0
 85 89  1  0
 85 84  1  0
 86 85  2  0
 89 88  1  0
 91 89  1  0
 91 92  1  0
 91 90  1  0
 93 96  1  1
 93 94  1  0
 95 93  1  0
M  ISO  4  18 100  19 100  55 101  56 101
M  END
>  <TORSDO>  (65) 
F 24

>  <SCORE>  (65) 
-12.439

>  <name>  (65) 
64

>  <ligand_id>  (65) 
64

>  <original_smiles>  (65) 
[H]c1c([H])c([H])c2c(c1[H])C([H])([H])C([H])([H])C([H])([H])C2([H])N([H])C(=O)C1([H])N(C(=O)C([H])(N([H])C(=O)C([H])(N([H])C([H])([H])[H])C([H])([H])[H])C(C([H])([H])[H])(C([H])([H])[H])C([H])([H])[H])C([H])([H])c2c([H])c(OC([H])([H])C3([H])N([H])C(=O)C([H])([N+]([H])([H])C([H])([H])C([H])([H])C([H])([H])[N+]([H])([H])C([H])([H])C([H])([H])C(=O)N4C([H])([H])C([H])([H])C([H])([H])C([H])(n5nc(-c6c([H])c([H])c(Oc7c([H])c([H])c(F)c([H])c7F)c([H])c6[H])c(C(=O)N([H])[H])c5N([H])[H])C4([H])[H])C3([H])[H])c([H])c([H])c2C1([H])[H]

>  <smiles>  (65) 
[H]c1c([H])c([H])c2c(c1[H])C([H])([H])C([H])([H])C([H])([H])C2([H])N([H])C(=O)C1([H])N(C(=O)C([H])(N([H])C(=O)C([H])(N([H])C([H])([H])[H])C([H])([H])[H])C(C([H])([H])[H])(C([H])([H])[H])C([H])([H])[H])C([H])([H])c2c([H])c(OC([H])([H])C3([H])N([H])C(=O)C([H])([N+]([H])([H])C([H])([H])C([H])([H])C([H])([H])[N+]([H])([H])C([H])([H])C([H])([H])C(=O)N4C([H])([H])C([H])([H])C([H])([H])C([H])(n5nc(-c6c([H])c([H])c(Oc7c([H])c([H])c(F)c([H])c7F)c([H])c6[H])c(C(=O)N([H])[H])c5N([H])[H])C4([H])[H])C3([H])[H])c([H])c([H])c2C1([H])[H]

$$$$
65:0:0
     RDKit          3D

 88 96  0  0  1  0  0  0  0  0999 V2000
  -27.1720  -21.2980   19.6950 C   0  0  0  0  0  1  0  0  0  0  0  0
  -28.6280  -21.5230   19.5570 N   0  0  2  0  0  4  0  0  0  0  0  0
  -28.7260  -21.6770   18.5620 H   0  0  0  0  0  0  0  0  0  0  0  0
  -30.5700  -15.2260   19.8440 C   0  0  0  0  0  0  0  0  0  0  0  0
  -30.3960  -12.8220   18.9690 C   0  0  0  0  0  2  0  0  0  0  0  0
  -29.3920  -12.6800   17.8040 C   0  0  0  0  0  2  0  0  0  0  0  0
  -27.9750  -12.4360   18.3510 C   0  0  0  0  0  2  0  0  0  0  0  0
  -27.6170  -13.4000   19.5070 C   0  0  0  0  0  3  0  0  0  0  0  0
  -28.7410  -13.5310   20.5560 C   0  0  0  0  0  2  0  0  0  0  0  0
  -29.9420  -13.9650   19.8290 N   0  0  0  0  0  0  0  0  0  0  0  0
  -31.7810  -15.1860   19.5870 O   0  0  0  0  0  0  0  0  0  0  0  0
  -29.1820  -18.9370   18.5940 C   0  0  0  0  0  2  0  0  0  0  0  0
  -29.3210  -19.0740   20.9110 C   0  0  0  0  0  2  0  0  0  0  0  0
  -29.9220  -17.4590   18.6400 C   0  0  0  0  0  2  0  0  0  0  0  0
  -30.0840  -17.5970   20.9210 C   0  0  0  0  0  2  0  0  0  0  0  0
  -29.4660  -20.1050   19.6810 C   0  0  0  0  0  3  0  0  0  0  0  0
  -29.8770  -16.5220   19.8480 N   0  0  0  0  0  0  0  0  0  0  0  0
  -25.3100  -13.9590   20.4460 C   0  0  0  0  0  0  0  0  0  0  0  0
  -24.2680  -13.1770   20.8510 C   0  0  0  0  0  0  0  0  0  0  0  0
  -24.7190  -11.8260   20.7480 C   0  0  0  0  0  0  0  0  0  0  0  0
  -26.3270  -13.0840   20.1030 N   0  0  0  0  0  0  0  0  0  0  0  0
  -25.9880  -11.7950   20.3580 N   0  0  0  0  0  0  0  0  0  0  0  0
  -23.9940  -10.5630   20.9410 C   0  0  0  0  0  0  0  0  0  0  0  0
  -24.4310   -9.5940   21.8710 C   0  0  0  0  0  3  0  0  0  0  0  0
  -23.7020   -8.3980   22.0550 C   0  0  0  0  0  3  0  0  0  0  0  0
  -22.5240   -8.1630   21.3090 C   0  0  0  0  0  0  0  0  0  0  0  0
  -22.1070   -9.1210   20.3660 C   0  0  0  0  0  3  0  0  0  0  0  0
  -22.8350  -10.3060   20.1810 C   0  0  0  0  0  3  0  0  0  0  0  0
  -21.7660   -7.0200   21.4030 O   0  0  0  0  0  0  0  0  0  0  0  0
  -21.6620   -6.3200   22.5770 C   0  0  0  0  0  0  0  0  0  0  0  0
  -21.1300   -6.9050   23.7480 C   0  0  0  0  0  3  0  0  0  0  0  0
  -20.9770   -6.1290   24.9140 C   0  0  0  0  0  3  0  0  0  0  0  0
  -21.3440   -4.7700   24.9110 C   0  0  0  0  0  0  0  0  0  0  0  0
  -21.8690   -4.1850   23.7440 C   0  0  0  0  0  3  0  0  0  0  0  0
  -22.0230   -4.9580   22.5800 C   0  0  0  0  0  0  0  0  0  0  0  0
  -22.5090   -4.3840   21.4520 F   0  0  0  0  0  0  0  0  0  0  0  0
  -21.1900   -4.0220   26.0290 F   0  0  0  0  0  0  0  0  0  0  0  0
  -22.8910  -13.6530   21.2190 C   0  0  0  0  0  0  0  0  0  0  0  0
  -22.2150  -12.9350   22.1070 N   0  0  0  0  0  0  0  0  0  0  0  0
  -22.4320  -14.6970   20.7560 O   0  0  0  0  0  0  0  0  0  0  0  0
  -22.6060  -12.0900   22.4980 H   0  0  0  0  0  0  0  0  0  0  0  0
  -21.2940  -13.2300   22.4000 H   0  0  0  0  0  0  0  0  0  0  0  0
  -25.4750  -15.3340   20.3080 N   0  0  0  0  0  0  0  0  0  0  0  0
  -24.7270  -15.9880   20.5100 H   0  0  0  0  0  0  0  0  0  0  0  0
  -26.3180  -15.7870   19.9830 H   0  0  0  0  0  0  0  0  0  0  0  0
  -28.9850  -23.0250   20.1070 C   0  0  0  0  0  3  0  0  0  0  0  0
  -28.1550  -24.5190   19.6710 C   0  0  0  0  0  3  0  0  0  0  0  0
  -28.2870  -26.0640   20.1350 O   0  0  0  0  0  0  0  0  0  0  0  0
  -24.6430  -31.8250   23.2360 C   0  0  0  0  0  0  0  0  0  0  0  0
  -27.2480  -27.1060   20.0770 C   0  0  0  0  0  0  0  0  0  0  0  0
  -23.4570  -30.4570   21.5660 C   0  0  0  0  0  3  0  0  0  0  0  0
  -24.9160  -28.9110   20.1000 C   0  0  0  0  0  0  0  0  0  0  0  0
  -26.0180  -30.7070   21.4200 C   0  0  0  0  0  2  0  0  0  0  0  0
  -26.0970  -29.3230   20.7290 C   0  0  0  0  0  0  0  0  0  0  0  0
  -27.2560  -28.4390   20.7000 C   0  0  0  0  0  3  0  0  0  0  0  0
  -26.0390  -26.8350   19.3950 C   0  0  0  0  0  3  0  0  0  0  0  0
  -24.9070  -27.6860   19.4140 C   0  0  0  0  0  3  0  0  0  0  0  0
  -23.6860  -29.8090   20.1740 C   0  0  0  0  0  2  0  0  0  0  0  0
  -24.7270  -31.0200   22.1290 N   0  0  0  0  0  0  0  0  0  0  0  0
  -23.5520  -32.0960   23.7640 O   0  0  0  0  0  0  0  0  0  0  0  0
  -22.7750  -29.4320   22.5080 C   0  0  0  0  0  0  0  0  0  0  0  0
  -21.4510  -29.2470   22.3630 N   0  0  0  0  0  0  0  0  0  0  0  0
  -23.4440  -28.8060   23.3330 O   0  0  0  0  0  0  0  0  0  0  0  0
  -20.9680  -29.8090   21.6770 H   0  0  0  0  0  0  0  0  0  0  0  0
  -18.0850  -27.9700   22.8030 C   0  0  0  0  0  0  0  0  0  0  0  0
  -20.6350  -28.2840   23.1090 C   0  0  0  0  0  3  0  0  0  0  0  0
  -20.7740  -26.8630   22.5170 C   0  0  0  0  0  2  0  0  0  0  0  0
  -19.6940  -26.5340   21.4820 C   0  0  0  0  0  2  0  0  0  0  0  0
  -18.3010  -26.6360   22.1090 C   0  0  0  0  0  2  0  0  0  0  0  0
  -19.1810  -28.7510   23.2590 C   0  0  0  0  0  0  0  0  0  0  0  0
  -18.9280  -29.9980   23.8720 C   0  0  0  0  0  3  0  0  0  0  0  0
  -17.6100  -30.4660   24.0320 C   0  0  0  0  0  3  0  0  0  0  0  0
  -16.5280  -29.6840   23.5930 C   0  0  0  0  0  3  0  0  0  0  0  0
  -16.7670  -28.4370   22.9840 C   0  0  0  0  0  3  0  0  0  0  0  0
  -25.9120  -32.4570   23.8830 C   0  0  0  0  0  3  0  0  0  0  0  0
  -25.6040  -33.8620   24.2060 N   0  0  0  0  0  0  0  0  0  0  0  0
  -25.9320  -34.9150   23.4430 C   0  0  0  0  0  0  0  0  0  0  0  0
  -26.5930  -34.8060   22.4080 O   0  0  0  0  0  0  0  0  0  0  0  0
  -25.0190  -34.0220   25.0130 H   0  0  0  0  0  0  0  0  0  0  0  0
  -24.1960  -36.7100   23.1190 C   0  0  0  0  0  1  0  0  0  0  0  0
  -25.4540  -36.3080   23.9050 C   0  0  0  0  0  3  0  0  0  0  0  0
  -27.5970  -37.2100   24.6930 C   0  0  0  0  0  1  0  0  0  0  0  0
  -26.4830  -37.3600   23.7620 N   0  0  0  0  0  0  0  0  0  0  0  0
  -26.0760  -38.2810   23.9040 H   0  0  0  0  0  0  0  0  0  0  0  0
  -26.3950  -31.6950   25.1800 C   0  0  1  0  0  0  0  0  0  0  0  0
  -25.2740  -31.4730   26.2230 C   0  0  0  0  0  1  0  0  0  0  0  0
  -26.9790  -30.3090   24.8220 C   0  0  0  0  0  1  0  0  0  0  0  0
  -27.5360  -32.4870   25.8600 C   0  0  0  0  0  1  0  0  0  0  0  0
  2  1  1  0
  2 46  1  0
  2  3  1  6
  4 17  1  0
  5 10  1  0
  6  7  1  0
  6  5  1  0
  8  7  1  0
  8 21  1  0
  8  9  1  0
 10  4  1  0
 10  9  1  0
 11  4  2  0
 12 14  1  0
 12 16  1  0
 13 15  1  0
 14 17  1  0
 16  2  1  0
 16 13  1  0
 17 15  1  0
 18 19  2  0
 19 38  1  0
 20 19  1  0
 20 23  1  0
 21 22  1  0
 21 18  1  0
 22 20  2  0
 23 24  1  0
 24 25  2  0
 26 29  1  0
 26 25  1  0
 27 26  2  0
 28 27  1  0
 28 23  2  0
 29 30  1  0
 30 35  2  0
 30 31  1  0
 31 32  2  0
 33 32  1  0
 33 37  1  0
 34 33  2  0
 35 34  1  0
 36 35  1  0
 38 39  1  0
 39 42  1  0
 39 41  1  0
 40 38  2  0
 43 18  1  0
 43 44  1  0
 45 43  1  0
 47 46  2  0
 47 48  1  0
 49 60  2  0
 50 48  1  0
 50 55  1  0
 51 59  1  0
 51 61  1  0
 52 58  1  0
 52 54  1  0
 53 59  1  0
 54 53  1  0
 55 54  2  0
 56 57  1  0
 56 50  2  0
 57 52  2  0
 58 51  1  0
 59 49  1  0
 61 63  2  0
 62 61  1  0
 64 62  1  0
 65 74  2  0
 65 70  1  0
 66 62  1  0
 66 70  1  0
 67 66  1  0
 68 69  1  0
 68 67  1  0
 69 65  1  0
 70 71  2  0
 71 72  1  0
 73 72  2  0
 74 73  1  0
 75 49  1  0
 75 76  1  0
 75 85  1  0
 76 79  1  0
 77 81  1  0
 77 76  1  0
 78 77  2  0
 81 80  1  0
 83 84  1  0
 83 81  1  0
 83 82  1  0
 85 88  1  1
 85 86  1  0
 87 85  1  0
M  ISO  4   4 100  17 100  47 101  48 101
M  END
>  <TORSDO>  (66) 
F 18

>  <SCORE>  (66) 
-14.899

>  <name>  (66) 
65

>  <ligand_id>  (66) 
65

>  <original_smiles>  (66) 
[H]c1c([H])c([H])c2c(c1[H])C([H])([H])C([H])([H])C([H])([H])C2([H])N([H])C(=O)C1([H])N(C(=O)C([H])(N([H])C(=O)C([H])(N([H])C([H])([H])[H])C([H])([H])[H])C(C([H])([H])[H])(C([H])([H])[H])C([H])([H])[H])C([H])([H])c2c([H])c(OC([H])([H])C([H])([H])[N+]([H])(C([H])([H])[H])C3([H])C([H])([H])C([H])([H])N(C(=O)N4C([H])([H])C([H])([H])C([H])([H])C([H])(n5nc(-c6c([H])c([H])c(Oc7c([H])c([H])c(F)c([H])c7F)c([H])c6[H])c(C(=O)N([H])[H])c5N([H])[H])C4([H])[H])C([H])([H])C3([H])[H])c([H])c([H])c2C1([H])[H]

>  <smiles>  (66) 
[H]c1c([H])c([H])c2c(c1[H])C([H])([H])C([H])([H])C([H])([H])C2([H])N([H])C(=O)C1([H])N(C(=O)C([H])(N([H])C(=O)C([H])(N([H])C([H])([H])[H])C([H])([H])[H])C(C([H])([H])[H])(C([H])([H])[H])C([H])([H])[H])C([H])([H])c2c([H])c(OC([H])([H])C([H])([H])[N+]([H])(C([H])([H])[H])C3([H])C([H])([H])C([H])([H])N(C(=O)N4C([H])([H])C([H])([H])C([H])([H])C([H])(n5nc(-c6c([H])c([H])c(Oc7c([H])c([H])c(F)c([H])c7F)c([H])c6[H])c(C(=O)N([H])[H])c5N([H])[H])C4([H])[H])C([H])([H])C3([H])[H])c([H])c([H])c2C1([H])[H]

$$$$
66:0:0
     RDKit          3D

 92100  0  0  1  0  0  0  0  0999 V2000
  -29.2390  -21.1630   19.8440 C   0  0  0  0  0  2  0  0  0  0  0  0
  -30.6500  -19.9710   21.6300 C   0  0  0  0  0  3  0  0  0  0  0  0
  -31.1960  -18.8500   22.2790 C   0  0  0  0  0  3  0  0  0  0  0  0
  -29.3730  -18.4630   20.2170 C   0  0  0  0  0  3  0  0  0  0  0  0
  -29.7070  -19.8320   20.5930 C   0  0  0  0  0  0  0  0  0  0  0  0
  -30.8480  -17.5260   21.9230 C   0  0  0  0  0  0  0  0  0  0  0  0
  -29.9510  -17.2770   20.8450 C   0  0  0  0  0  0  0  0  0  0  0  0
  -31.4450  -16.4150   22.7720 C   0  0  0  0  0  1  0  0  0  0  0  0
  -30.3180  -14.7910   20.0890 C   0  0  0  0  0  0  0  0  0  0  0  0
  -30.0470  -12.6070   18.8980 C   0  0  0  0  0  2  0  0  0  0  0  0
  -29.0150  -12.7540   17.7590 C   0  0  0  0  0  2  0  0  0  0  0  0
  -27.5870  -12.5190   18.2870 C   0  0  0  0  0  2  0  0  0  0  0  0
  -27.2950  -13.3110   19.5890 C   0  0  0  0  0  3  0  0  0  0  0  0
  -28.4370  -13.1590   20.6180 C   0  0  0  0  0  2  0  0  0  0  0  0
  -29.6810  -13.5750   19.9550 N   0  0  0  0  0  0  0  0  0  0  0  0
  -31.4660  -14.9310   19.6600 O   0  0  0  0  0  0  0  0  0  0  0  0
  -29.5660  -15.8830   20.4960 N   0  0  0  0  0  0  0  0  0  0  0  0
  -28.5860  -15.6760   20.6130 H   0  0  0  0  0  0  0  0  0  0  0  0
  -24.9360  -13.8010   20.4680 C   0  0  0  0  0  0  0  0  0  0  0  0
  -23.9240  -12.9830   20.8910 C   0  0  0  0  0  0  0  0  0  0  0  0
  -24.4340  -11.6500   20.8090 C   0  0  0  0  0  0  0  0  0  0  0  0
  -25.9950  -12.9670   20.1550 N   0  0  0  0  0  0  0  0  0  0  0  0
  -25.7040  -11.6660   20.4210 N   0  0  0  0  0  0  0  0  0  0  0  0
  -23.7670  -10.3590   21.0190 C   0  0  0  0  0  0  0  0  0  0  0  0
  -24.2600   -9.4150   21.9480 C   0  0  0  0  0  3  0  0  0  0  0  0
  -23.5900   -8.1890   22.1450 C   0  0  0  0  0  3  0  0  0  0  0  0
  -22.4140   -7.8960   21.4160 C   0  0  0  0  0  0  0  0  0  0  0  0
  -21.9410   -8.8280   20.4760 C   0  0  0  0  0  3  0  0  0  0  0  0
  -22.6110  -10.0460   20.2750 C   0  0  0  0  0  3  0  0  0  0  0  0
  -21.7110   -6.7210   21.5250 O   0  0  0  0  0  0  0  0  0  0  0  0
  -21.6920   -6.0000   22.6930 C   0  0  0  0  0  0  0  0  0  0  0  0
  -21.2330   -6.5570   23.9060 C   0  0  0  0  0  3  0  0  0  0  0  0
  -21.1650   -5.7610   25.0660 C   0  0  0  0  0  3  0  0  0  0  0  0
  -21.5430   -4.4050   25.0130 C   0  0  0  0  0  0  0  0  0  0  0  0
  -21.9940   -3.8460   23.8040 C   0  0  0  0  0  3  0  0  0  0  0  0
  -22.0640   -4.6420   22.6470 C   0  0  0  0  0  0  0  0  0  0  0  0
  -22.4790   -4.0920   21.4790 F   0  0  0  0  0  0  0  0  0  0  0  0
  -21.4690   -3.6360   26.1250 F   0  0  0  0  0  0  0  0  0  0  0  0
  -22.5290  -13.4020   21.2530 C   0  0  0  0  0  0  0  0  0  0  0  0
  -21.8810  -12.6690   22.1500 N   0  0  0  0  0  0  0  0  0  0  0  0
  -22.0210  -14.4160   20.7730 O   0  0  0  0  0  0  0  0  0  0  0  0
  -22.3050  -11.8490   22.5590 H   0  0  0  0  0  0  0  0  0  0  0  0
  -20.9470  -12.9310   22.4360 H   0  0  0  0  0  0  0  0  0  0  0  0
  -25.0370  -15.1800   20.3030 N   0  0  0  0  0  0  0  0  0  0  0  0
  -24.2490  -15.7980   20.4610 H   0  0  0  0  0  0  0  0  0  0  0  0
  -25.8360  -15.6520   19.9020 H   0  0  0  0  0  0  0  0  0  0  0  0
  -28.8100  -22.4130   20.6280 N   0  0  0  0  0  4  0  0  0  0  0  0
  -27.8820  -22.2220   20.9730 H   0  0  0  0  0  0  0  0  0  0  0  0
  -29.4090  -22.4770   21.4360 H   0  0  0  0  0  0  0  0  0  0  0  0
  -28.8120  -23.7930   19.9280 C   0  0  0  0  0  3  0  0  0  0  0  0
  -28.0910  -25.0480   20.6540 C   0  0  0  0  0  3  0  0  0  0  0  0
  -28.2670  -26.4600   20.1660 O   0  0  0  0  0  0  0  0  0  0  0  0
  -24.5910  -31.9310   23.2230 C   0  0  0  0  0  0  0  0  0  0  0  0
  -27.1590  -27.3340   20.1630 C   0  0  0  0  0  0  0  0  0  0  0  0
  -23.3720  -30.5340   21.5920 C   0  0  0  0  0  3  0  0  0  0  0  0
  -24.8070  -28.9760   20.1560 C   0  0  0  0  0  0  0  0  0  0  0  0
  -25.9120  -30.8440   21.3880 C   0  0  0  0  0  2  0  0  0  0  0  0
  -25.9830  -29.4590   20.7450 C   0  0  0  0  0  0  0  0  0  0  0  0
  -27.1650  -28.6500   20.7310 C   0  0  0  0  0  3  0  0  0  0  0  0
  -25.9610  -26.9150   19.5450 C   0  0  0  0  0  3  0  0  0  0  0  0
  -24.7990  -27.7120   19.5440 C   0  0  0  0  0  3  0  0  0  0  0  0
  -23.5760  -29.8610   20.2090 C   0  0  0  0  0  2  0  0  0  0  0  0
  -24.6440  -31.1220   22.1240 N   0  0  0  0  0  0  0  0  0  0  0  0
  -23.5100  -32.2090   23.7670 O   0  0  0  0  0  0  0  0  0  0  0  0
  -22.7130  -29.5190   22.5590 C   0  0  0  0  0  0  0  0  0  0  0  0
  -21.3840  -29.3460   22.4420 N   0  0  0  0  0  0  0  0  0  0  0  0
  -23.3950  -28.8910   23.3730 O   0  0  0  0  0  0  0  0  0  0  0  0
  -20.8890  -29.9050   21.7610 H   0  0  0  0  0  0  0  0  0  0  0  0
  -18.0090  -28.1520   22.9670 C   0  0  0  0  0  0  0  0  0  0  0  0
  -20.5700  -28.4100   23.2190 C   0  0  0  0  0  3  0  0  0  0  0  0
  -20.6650  -26.9780   22.6450 C   0  0  0  0  0  2  0  0  0  0  0  0
  -19.5560  -26.6550   21.6380 C   0  0  0  0  0  2  0  0  0  0  0  0
  -18.1780  -26.8020   22.2910 C   0  0  0  0  0  2  0  0  0  0  0  0
  -19.1320  -28.9140   23.3880 C   0  0  0  0  0  0  0  0  0  0  0  0
  -18.9170  -30.1770   23.9820 C   0  0  0  0  0  3  0  0  0  0  0  0
  -17.6130  -30.6800   24.1570 C   0  0  0  0  0  3  0  0  0  0  0  0
  -16.5050  -29.9150   23.7520 C   0  0  0  0  0  3  0  0  0  0  0  0
  -16.7040  -28.6530   23.1640 C   0  0  0  0  0  3  0  0  0  0  0  0
  -25.8780  -32.5630   23.8350 C   0  0  0  0  0  3  0  0  0  0  0  0
  -26.4050  -31.7900   25.1060 C   0  0  1  0  0  0  0  0  0  0  0  0
  -25.3230  -31.5510   26.1840 C   0  0  0  0  0  1  0  0  0  0  0  0
  -26.9850  -30.4140   24.7050 C   0  0  0  0  0  1  0  0  0  0  0  0
  -27.5650  -32.5810   25.7560 C   0  0  0  0  0  1  0  0  0  0  0  0
  -25.5740  -33.9600   24.1720 N   0  0  0  0  0  0  0  0  0  0  0  0
  -25.9030  -35.0170   23.4180 C   0  0  0  0  0  0  0  0  0  0  0  0
  -26.5630  -34.9140   22.3800 O   0  0  0  0  0  0  0  0  0  0  0  0
  -24.9900  -34.1130   24.9800 H   0  0  0  0  0  0  0  0  0  0  0  0
  -24.1810  -36.8190   23.0820 C   0  0  0  0  0  1  0  0  0  0  0  0
  -25.4240  -36.4040   23.8860 C   0  0  0  0  0  3  0  0  0  0  0  0
  -27.5640  -37.2780   24.7130 C   0  0  0  0  0  1  0  0  0  0  0  0
  -26.4600  -37.4540   23.7740 N   0  0  0  0  0  0  0  0  0  0  0  0
  -26.0570  -38.3740   23.9300 H   0  0  0  0  0  0  0  0  0  0  0  0
  1  5  1  0
  1 47  1  0
  2  3  1  0
  4  5  1  0
  4  7  2  0
  5  2  2  0
  6  3  2  0
  6  8  1  0
  7  6  1  0
  9 17  1  0
 10 15  1  0
 11 12  1  0
 11 10  1  0
 13 12  1  0
 13 22  1  0
 13 14  1  0
 15  9  1  0
 15 14  1  0
 16  9  2  0
 17 18  1  0
 17  7  1  0
 19 20  2  0
 20 39  1  0
 21 20  1  0
 21 24  1  0
 22 23  1  0
 22 19  1  0
 23 21  2  0
 24 25  1  0
 25 26  2  0
 27 30  1  0
 27 26  1  0
 28 27  2  0
 29 28  1  0
 29 24  2  0
 30 31  1  0
 31 32  1  0
 32 33  2  0
 34 33  1  0
 34 38  1  0
 35 34  2  0
 36 31  2  0
 36 35  1  0
 37 36  1  0
 39 40  1  0
 40 43  1  0
 40 42  1  0
 41 39  2  0
 44 45  1  0
 44 19  1  0
 46 44  1  0
 47 48  1  0
 47 49  1  0
 50 47  1  0
 50 51  2  0
 52 51  1  0
 53 64  2  0
 54 52  1  0
 54 59  1  0
 55 63  1  0
 55 65  1  0
 56 62  1  0
 56 58  1  0
 57 63  1  0
 58 57  1  0
 59 58  2  0
 60 54  2  0
 61 60  1  0
 61 56  2  0
 62 55  1  0
 63 53  1  0
 65 67  2  0
 66 65  1  0
 68 66  1  0
 69 78  2  0
 69 74  1  0
 70 66  1  0
 70 74  1  0
 71 70  1  0
 72 73  1  0
 72 71  1  0
 73 69  1  0
 74 75  2  0
 75 76  1  0
 77 76  2  0
 78 77  1  0
 79 53  1  0
 79 84  1  0
 79 80  1  0
 80 83  1  1
 80 81  1  0
 82 80  1  0
 84 87  1  0
 85 89  1  0
 85 84  1  0
 86 85  2  0
 89 88  1  0
 91 89  1  0
 91 92  1  0
 91 90  1  0
M  ISO  4   9 100  17 100  51 101  52 101
M  END
>  <TORSDO>  (67) 
F 20

>  <SCORE>  (67) 
-12.751

>  <name>  (67) 
66

>  <ligand_id>  (67) 
66

>  <original_smiles>  (67) 
[H]c1c([H])c([H])c2c(c1[H])C([H])([H])C([H])([H])C([H])([H])C2([H])N([H])C(=O)C1([H])N(C(=O)C([H])(N([H])C(=O)C([H])(N([H])C([H])([H])[H])C([H])([H])[H])C(C([H])([H])[H])(C([H])([H])[H])C([H])([H])[H])C([H])([H])c2c([H])c(OC([H])([H])C([H])([H])[N+]([H])([H])C([H])([H])c3c([H])c([H])c(C([H])([H])[H])c(N([H])C(=O)N4C([H])([H])C([H])([H])C([H])([H])C([H])(n5nc(-c6c([H])c([H])c(Oc7c([H])c([H])c(F)c([H])c7F)c([H])c6[H])c(C(=O)N([H])[H])c5N([H])[H])C4([H])[H])c3[H])c([H])c([H])c2C1([H])[H]

>  <smiles>  (67) 
[H]c1c([H])c([H])c2c(c1[H])C([H])([H])C([H])([H])C([H])([H])C2([H])N([H])C(=O)C1([H])N(C(=O)C([H])(N([H])C(=O)C([H])(N([H])C([H])([H])[H])C([H])([H])[H])C(C([H])([H])[H])(C([H])([H])[H])C([H])([H])[H])C([H])([H])c2c([H])c(OC([H])([H])C([H])([H])[N+]([H])([H])C([H])([H])c3c([H])c([H])c(C([H])([H])[H])c(N([H])C(=O)N4C([H])([H])C([H])([H])C([H])([H])C([H])(n5nc(-c6c([H])c([H])c(Oc7c([H])c([H])c(F)c([H])c7F)c([H])c6[H])c(C(=O)N([H])[H])c5N([H])[H])C4([H])[H])c3[H])c([H])c([H])c2C1([H])[H]

$$$$
67:0:0
     RDKit          3D

100110  0  0  1  0  0  0  0  0999 V2000
  -28.1230  -22.8890   18.4490 C   0  0  0  0  0  3  0  0  0  0  0  0
  -28.9190  -18.0220   18.9100 C   0  0  0  0  0  3  0  0  0  0  0  0
  -28.3480  -24.1860   18.9480 C   0  0  0  0  0  3  0  0  0  0  0  0
  -29.5370  -16.9880   19.6250 C   0  0  0  0  0  3  0  0  0  0  0  0
  -28.9210  -23.2420   21.1200 C   0  0  0  0  0  3  0  0  0  0  0  0
  -29.7440  -18.4230   21.5730 C   0  0  0  0  0  3  0  0  0  0  0  0
  -28.3160  -21.7560   19.2740 C   0  0  0  0  0  0  0  0  0  0  0  0
  -28.7200  -19.2820   19.5130 C   0  0  0  0  0  0  0  0  0  0  0  0
  -28.7130  -21.9380   20.6270 C   0  0  0  0  0  0  0  0  0  0  0  0
  -29.1220  -19.4730   20.8620 C   0  0  0  0  0  0  0  0  0  0  0  0
  -28.7650  -24.3630   20.2840 C   0  0  0  0  0  0  0  0  0  0  0  0
  -29.9870  -17.1930   20.9440 C   0  0  0  0  0  0  0  0  0  0  0  0
  -28.1330  -20.3910   18.7050 C   0  0  0  0  0  0  0  0  0  0  0  0
  -28.9620  -20.7830   21.5360 C   0  0  0  0  0  0  0  0  0  0  0  0
  -27.5820  -20.1960   17.6160 O   0  0  0  0  0  0  0  0  0  0  0  0
  -29.0910  -20.9150   22.7580 O   0  0  0  0  0  0  0  0  0  0  0  0
  -30.7760  -16.2380   21.5830 N   0  0  0  0  0  0  0  0  0  0  0  0
  -30.8470  -16.3930   22.5870 H   0  0  0  0  0  0  0  0  0  0  0  0
  -32.1030  -16.1800   20.9620 C   0  0  0  0  0  2  0  0  0  0  0  0
  -32.6730  -14.7560   20.9010 C   0  0  0  0  0  2  0  0  0  0  0  0
  -31.3910  -13.4040   19.2360 C   0  0  0  0  0  0  0  0  0  0  0  0
  -30.5610  -11.3080   18.2710 C   0  0  0  0  0  2  0  0  0  0  0  0
  -29.4060  -11.4210   17.2680 C   0  0  0  0  0  2  0  0  0  0  0  0
  -28.0570  -11.4250   18.0060 C   0  0  0  0  0  2  0  0  0  0  0  0
  -28.0100  -12.4930   19.1260 C   0  0  0  0  0  3  0  0  0  0  0  0
  -29.2470  -12.3950   20.0450 C   0  0  0  0  0  2  0  0  0  0  0  0
  -30.4750  -12.4170   19.2240 N   0  0  0  0  0  0  0  0  0  0  0  0
  -32.0820  -13.7330   18.2660 O   0  0  0  0  0  0  0  0  0  0  0  0
  -31.6540  -13.8070   20.4810 N   0  0  0  0  0  0  0  0  0  0  0  0
  -31.0730  -13.4200   21.2100 H   0  0  0  0  0  0  0  0  0  0  0  0
  -25.9780  -13.4200   20.4140 C   0  0  0  0  0  0  0  0  0  0  0  0
  -24.8810  -12.8020   20.9550 C   0  0  0  0  0  0  0  0  0  0  0  0
  -25.0540  -11.4060   20.7140 C   0  0  0  0  0  0  0  0  0  0  0  0
  -26.7620  -12.4040   19.8860 N   0  0  0  0  0  0  0  0  0  0  0  0
  -26.2180  -11.1810   20.1170 N   0  0  0  0  0  0  0  0  0  0  0  0
  -24.1540  -10.2720   20.9710 C   0  0  0  0  0  0  0  0  0  0  0  0
  -24.5550   -9.1760   21.7640 C   0  0  0  0  0  3  0  0  0  0  0  0
  -23.6680   -8.1070   22.0110 C   0  0  0  0  0  3  0  0  0  0  0  0
  -22.3620   -8.1280   21.4670 C   0  0  0  0  0  0  0  0  0  0  0  0
  -21.9750   -9.2110   20.6580 C   0  0  0  0  0  3  0  0  0  0  0  0
  -22.8610  -10.2720   20.4090 C   0  0  0  0  0  3  0  0  0  0  0  0
  -21.4400   -7.1230   21.6320 O   0  0  0  0  0  0  0  0  0  0  0  0
  -21.4290   -6.3340   22.7530 C   0  0  0  0  0  0  0  0  0  0  0  0
  -21.2600   -6.8770   24.0450 C   0  0  0  0  0  3  0  0  0  0  0  0
  -21.1850   -6.0230   25.1640 C   0  0  0  0  0  3  0  0  0  0  0  0
  -21.2680   -4.6270   24.9920 C   0  0  0  0  0  0  0  0  0  0  0  0
  -21.4300   -4.0850   23.7050 C   0  0  0  0  0  3  0  0  0  0  0  0
  -21.5070   -4.9360   22.5890 C   0  0  0  0  0  0  0  0  0  0  0  0
  -21.6420   -4.4060   21.3490 F   0  0  0  0  0  0  0  0  0  0  0  0
  -21.1870   -3.8060   26.0640 F   0  0  0  0  0  0  0  0  0  0  0  0
  -23.6930  -13.4750   21.5800 C   0  0  0  0  0  0  0  0  0  0  0  0
  -23.0740  -12.8330   22.5660 N   0  0  0  0  0  0  0  0  0  0  0  0
  -23.3360  -14.5990   21.2300 O   0  0  0  0  0  0  0  0  0  0  0  0
  -23.3770  -11.9190   22.8670 H   0  0  0  0  0  0  0  0  0  0  0  0
  -22.2830  -13.2610   23.0260 H   0  0  0  0  0  0  0  0  0  0  0  0
  -26.3620  -14.7520   20.3090 N   0  0  0  0  0  0  0  0  0  0  0  0
  -25.7790  -15.5100   20.6480 H   0  0  0  0  0  0  0  0  0  0  0  0
  -27.2270  -15.0700   19.8910 H   0  0  0  0  0  0  0  0  0  0  0  0
  -29.1400  -25.7250   20.8320 C   0  0  0  0  0  2  0  0  0  0  0  0
  -28.9740  -26.7750   19.8970 O   0  0  0  0  0  0  0  0  0  0  0  0
  -24.8810  -31.5980   23.1260 C   0  0  0  0  0  0  0  0  0  0  0  0
  -27.7610  -27.4010   19.9660 C   0  0  0  0  0  0  0  0  0  0  0  0
  -23.7620  -30.2200   21.3980 C   0  0  0  0  0  3  0  0  0  0  0  0
  -25.3070  -28.7750   19.9790 C   0  0  0  0  0  0  0  0  0  0  0  0
  -26.2720  -30.6760   21.2870 C   0  0  0  0  0  2  0  0  0  0  0  0
  -26.4250  -29.3310   20.6140 C   0  0  0  0  0  0  0  0  0  0  0  0
  -27.6560  -28.6480   20.6100 C   0  0  0  0  0  3  0  0  0  0  0  0
  -26.6300  -26.8320   19.3490 C   0  0  0  0  0  3  0  0  0  0  0  0
  -25.3980  -27.5180   19.3540 C   0  0  0  0  0  3  0  0  0  0  0  0
  -24.0340  -29.5920   20.0050 C   0  0  0  0  0  2  0  0  0  0  0  0
  -24.9870  -30.8450   21.9960 N   0  0  0  0  0  0  0  0  0  0  0  0
  -23.7770  -31.8180   23.6440 O   0  0  0  0  0  0  0  0  0  0  0  0
  -23.1220  -29.1460   22.3040 C   0  0  0  0  0  0  0  0  0  0  0  0
  -21.8010  -28.9560   22.1580 N   0  0  0  0  0  0  0  0  0  0  0  0
  -23.8090  -28.4900   23.0930 O   0  0  0  0  0  0  0  0  0  0  0  0
  -21.3110  -29.5350   21.4900 H   0  0  0  0  0  0  0  0  0  0  0  0
  -18.4320  -27.7260   22.5900 C   0  0  0  0  0  0  0  0  0  0  0  0
  -20.9880  -27.9770   22.8780 C   0  0  0  0  0  3  0  0  0  0  0  0
  -21.0990  -26.5790   22.2270 C   0  0  0  0  0  2  0  0  0  0  0  0
  -20.0000  -26.3060   21.1970 C   0  0  0  0  0  2  0  0  0  0  0  0
  -18.6140  -26.4140   21.8450 C   0  0  0  0  0  2  0  0  0  0  0  0
  -19.5490  -28.4670   23.0610 C   0  0  0  0  0  0  0  0  0  0  0  0
  -19.3300  -29.6970   23.7190 C   0  0  0  0  0  3  0  0  0  0  0  0
  -18.0260  -30.1890   23.9090 C   0  0  0  0  0  3  0  0  0  0  0  0
  -16.9220  -29.4460   23.4560 C   0  0  0  0  0  3  0  0  0  0  0  0
  -17.1260  -28.2150   22.8020 C   0  0  0  0  0  3  0  0  0  0  0  0
  -26.1300  -32.2440   23.8050 C   0  0  0  0  0  3  0  0  0  0  0  0
  -26.6420  -31.4410   25.0640 C   0  0  1  0  0  0  0  0  0  0  0  0
  -25.5360  -31.1420   26.1020 C   0  0  0  0  0  1  0  0  0  0  0  0
  -27.2700  -30.0920   24.6400 C   0  0  0  0  0  1  0  0  0  0  0  0
  -27.7580  -32.2380   25.7780 C   0  0  0  0  0  1  0  0  0  0  0  0
  -25.7690  -33.6180   24.1700 N   0  0  0  0  0  0  0  0  0  0  0  0
  -26.0750  -34.7020   23.4450 C   0  0  0  0  0  0  0  0  0  0  0  0
  -26.7620  -34.6510   22.4200 O   0  0  0  0  0  0  0  0  0  0  0  0
  -25.1590  -33.7300   24.9680 H   0  0  0  0  0  0  0  0  0  0  0  0
  -24.2870  -36.4420   23.1190 C   0  0  0  0  0  1  0  0  0  0  0  0
  -25.5320  -36.0570   23.9350 C   0  0  0  0  0  3  0  0  0  0  0  0
  -27.6220  -36.9930   24.8180 C   0  0  0  0  0  1  0  0  0  0  0  0
  -26.5250  -37.1490   23.8660 N   0  0  0  0  0  0  0  0  0  0  0  0
  -26.0830  -38.0490   24.0360 H   0  0  0  0  0  0  0  0  0  0  0  0
  1  3  2  0
  1  7  1  0
  2  8  2  0
  2  4  1  0
  3 11  1  0
  4 12  2  0
  7  9  2  0
  8 10  1  0
  9  5  1  0
  9 14  1  0
 10 14  1  0
 10  6  2  0
 11 59  1  0
 11  5  2  0
 12  6  1  0
 12 17  1  0
 13  7  1  0
 13  8  1  0
 14 16  2  0
 15 13  2  0
 17 18  1  0
 19 17  1  0
 20 19  1  0
 21 29  1  0
 22 27  1  0
 23 24  1  0
 23 22  1  0
 25 24  1  0
 25 34  1  0
 25 26  1  0
 27 21  1  0
 27 26  1  0
 28 21  2  0
 29 20  1  0
 29 30  1  0
 31 32  2  0
 32 51  1  0
 33 32  1  0
 33 36  1  0
 34 35  1  0
 34 31  1  0
 35 33  2  0
 36 37  1  0
 37 38  2  0
 39 42  1  0
 39 38  1  0
 40 39  2  0
 41 40  1  0
 41 36  2  0
 42 43  1  0
 43 44  1  0
 44 45  2  0
 46 45  1  0
 46 50  1  0
 47 46  2  0
 48 43  2  0
 48 47  1  0
 49 48  1  0
 51 52  1  0
 52 54  1  0
 52 55  1  0
 53 51  2  0
 56 31  1  0
 56 57  1  0
 58 56  1  0
 60 62  1  0
 60 59  1  0
 61 72  2  0
 62 67  1  0
 63 71  1  0
 63 73  1  0
 64 70  1  0
 64 66  1  0
 65 71  1  0
 66 65  1  0
 67 66  2  0
 68 69  1  0
 68 62  2  0
 69 64  2  0
 70 63  1  0
 71 61  1  0
 73 75  2  0
 74 73  1  0
 76 74  1  0
 77 86  2  0
 77 82  1  0
 78 74  1  0
 78 82  1  0
 79 78  1  0
 80 81  1  0
 80 79  1  0
 81 77  1  0
 82 83  2  0
 83 84  1  0
 85 84  2  0
 86 85  1  0
 87 61  1  0
 87 92  1  0
 87 88  1  0
 88 91  1  1
 88 89  1  0
 90 88  1  0
 92 95  1  0
 93 97  1  0
 93 92  1  0
 94 93  2  0
 97 96  1  0
 99 97  1  0
 99100  1  0
 99 98  1  0
M  ISO  4  21 100  29 100  59 101  60 101
M  END
>  <TORSDO>  (68) 
F 20

>  <SCORE>  (68) 
-9.794

>  <name>  (68) 
67

>  <ligand_id>  (68) 
67

>  <original_smiles>  (68) 
[H]c1c([H])c([H])c2c(c1[H])C([H])([H])C([H])([H])C([H])([H])C2([H])N([H])C(=O)C1([H])N(C(=O)C([H])(N([H])C(=O)C([H])(N([H])C([H])([H])[H])C([H])([H])[H])C(C([H])([H])[H])(C([H])([H])[H])C([H])([H])[H])C([H])([H])c2c([H])c(OC([H])([H])c3c([H])c([H])c4c(c3[H])C(=O)c3c([H])c(N([H])C([H])([H])C([H])([H])N([H])C(=O)N5C([H])([H])C([H])([H])C([H])([H])C([H])(n6nc(-c7c([H])c([H])c(Oc8c([H])c([H])c(F)c([H])c8F)c([H])c7[H])c(C(=O)N([H])[H])c6N([H])[H])C5([H])[H])c([H])c([H])c3C4=O)c([H])c([H])c2C1([H])[H]

>  <smiles>  (68) 
[H]c1c([H])c([H])c2c(c1[H])C([H])([H])C([H])([H])C([H])([H])C2([H])N([H])C(=O)C1([H])N(C(=O)C([H])(N([H])C(=O)C([H])(N([H])C([H])([H])[H])C([H])([H])[H])C(C([H])([H])[H])(C([H])([H])[H])C([H])([H])[H])C([H])([H])c2c([H])c(OC([H])([H])c3c([H])c([H])c4c(c3[H])C(=O)c3c([H])c(N([H])C([H])([H])C([H])([H])N([H])C(=O)N5C([H])([H])C([H])([H])C([H])([H])C([H])(n6nc(-c7c([H])c([H])c(Oc8c([H])c([H])c(F)c([H])c8F)c([H])c7[H])c(C(=O)N([H])[H])c6N([H])[H])C5([H])[H])c([H])c([H])c3C4=O)c([H])c([H])c2C1([H])[H]

$$$$
68:0:0
     RDKit          3D

 87 95  0  0  1  0  0  0  0  0999 V2000
  -30.4580  -19.8130   18.2240 C   0  0  0  0  0  3  0  0  0  0  0  0
  -29.8900  -20.9970   18.7730 C   0  0  0  0  0  3  0  0  0  0  0  0
  -30.3900  -18.5160   18.8090 C   0  0  0  0  0  3  0  0  0  0  0  0
  -29.1180  -19.5680   20.5640 C   0  0  0  0  0  3  0  0  0  0  0  0
  -29.1810  -21.0210   19.9950 C   0  0  0  0  0  0  0  0  0  0  0  0
  -29.7100  -18.2340   20.0170 C   0  0  0  0  0  0  0  0  0  0  0  0
  -30.3720  -15.3630   20.2720 C   0  0  0  0  0  0  0  0  0  0  0  0
  -30.3680  -12.8800   19.4710 C   0  0  0  0  0  2  0  0  0  0  0  0
  -29.4610  -12.6320   18.2390 C   0  0  0  0  0  2  0  0  0  0  0  0
  -28.0180  -12.3430   18.6920 C   0  0  0  0  0  2  0  0  0  0  0  0
  -27.5460  -13.3410   19.7760 C   0  0  0  0  0  3  0  0  0  0  0  0
  -28.5830  -13.5420   20.9040 C   0  0  0  0  0  2  0  0  0  0  0  0
  -29.8160  -14.0410   20.2730 N   0  0  0  0  0  0  0  0  0  0  0  0
  -31.5870  -15.3410   20.0160 O   0  0  0  0  0  0  0  0  0  0  0  0
  -29.6210  -16.6500   20.4450 N   0  0  0  0  0  0  0  0  0  0  0  0
  -28.7180  -16.4350   20.8390 H   0  0  0  0  0  0  0  0  0  0  0  0
  -25.1710  -13.9020   20.5180 C   0  0  0  0  0  0  0  0  0  0  0  0
  -24.1090  -13.1250   20.8870 C   0  0  0  0  0  0  0  0  0  0  0  0
  -24.5740  -11.7740   20.8620 C   0  0  0  0  0  0  0  0  0  0  0  0
  -26.2150  -13.0240   20.2810 N   0  0  0  0  0  0  0  0  0  0  0  0
  -25.8670  -11.7390   20.5570 N   0  0  0  0  0  0  0  0  0  0  0  0
  -23.8440  -10.5130   21.0510 C   0  0  0  0  0  0  0  0  0  0  0  0
  -24.2690   -9.5450   21.9870 C   0  0  0  0  0  3  0  0  0  0  0  0
  -23.5380   -8.3500   22.1640 C   0  0  0  0  0  3  0  0  0  0  0  0
  -22.3650   -8.1160   21.4080 C   0  0  0  0  0  0  0  0  0  0  0  0
  -21.9580   -9.0710   20.4620 C   0  0  0  0  0  3  0  0  0  0  0  0
  -22.6880  -10.2580   20.2820 C   0  0  0  0  0  3  0  0  0  0  0  0
  -21.6010   -6.9750   21.4970 O   0  0  0  0  0  0  0  0  0  0  0  0
  -21.5520   -6.2310   22.6490 C   0  0  0  0  0  0  0  0  0  0  0  0
  -21.1320   -6.7850   23.8780 C   0  0  0  0  0  3  0  0  0  0  0  0
  -21.0250   -5.9650   25.0190 C   0  0  0  0  0  3  0  0  0  0  0  0
  -21.3320   -4.5940   24.9350 C   0  0  0  0  0  0  0  0  0  0  0  0
  -21.7510   -4.0420   23.7120 C   0  0  0  0  0  3  0  0  0  0  0  0
  -21.8570   -4.8570   22.5710 C   0  0  0  0  0  0  0  0  0  0  0  0
  -22.2370   -4.3130   21.3900 F   0  0  0  0  0  0  0  0  0  0  0  0
  -21.2270   -3.8060   26.0300 F   0  0  0  0  0  0  0  0  0  0  0  0
  -22.7080  -13.6000   21.1400 C   0  0  0  0  0  0  0  0  0  0  0  0
  -21.9730  -12.9060   22.0030 N   0  0  0  0  0  0  0  0  0  0  0  0
  -22.2760  -14.6210   20.6080 O   0  0  0  0  0  0  0  0  0  0  0  0
  -22.3400  -12.0770   22.4460 H   0  0  0  0  0  0  0  0  0  0  0  0
  -21.0340  -13.2070   22.2200 H   0  0  0  0  0  0  0  0  0  0  0  0
  -25.3310  -15.2710   20.3300 N   0  0  0  0  0  0  0  0  0  0  0  0
  -24.5620  -15.9210   20.4430 H   0  0  0  0  0  0  0  0  0  0  0  0
  -26.1440  -15.6990   19.9050 H   0  0  0  0  0  0  0  0  0  0  0  0
  -28.7000  -22.6210   20.5810 C   0  0  0  0  0  2  0  0  0  0  0  0
  -28.2610  -24.2330   19.8390 C   0  0  0  0  0  2  0  0  0  0  0  0
  -28.2380  -25.8380   20.3040 O   0  0  0  0  0  0  0  0  0  0  0  0
  -24.6600  -31.8470   23.2030 C   0  0  0  0  0  0  0  0  0  0  0  0
  -27.2180  -26.9340   20.1930 C   0  0  0  0  0  0  0  0  0  0  0  0
  -23.4630  -30.4410   21.5710 C   0  0  0  0  0  3  0  0  0  0  0  0
  -24.9110  -28.8260   20.1520 C   0  0  0  0  0  0  0  0  0  0  0  0
  -26.0310  -30.6470   21.4240 C   0  0  0  0  0  2  0  0  0  0  0  0
  -26.1000  -29.2310   20.7700 C   0  0  0  0  0  0  0  0  0  0  0  0
  -27.2390  -28.3030   20.7700 C   0  0  0  0  0  3  0  0  0  0  0  0
  -25.9960  -26.6880   19.5250 C   0  0  0  0  0  3  0  0  0  0  0  0
  -24.8840  -27.5760   19.5110 C   0  0  0  0  0  3  0  0  0  0  0  0
  -23.6930  -29.7510   20.2000 C   0  0  0  0  0  2  0  0  0  0  0  0
  -24.7400  -31.0070   22.1200 N   0  0  0  0  0  0  0  0  0  0  0  0
  -23.5700  -32.1410   23.7220 O   0  0  0  0  0  0  0  0  0  0  0  0
  -22.7690  -29.4530   22.5440 C   0  0  0  0  0  0  0  0  0  0  0  0
  -21.4360  -29.2990   22.4290 N   0  0  0  0  0  0  0  0  0  0  0  0
  -23.4340  -28.8290   23.3730 O   0  0  0  0  0  0  0  0  0  0  0  0
  -20.9440  -29.8630   21.7480 H   0  0  0  0  0  0  0  0  0  0  0  0
  -18.0540  -28.1030   22.9450 C   0  0  0  0  0  0  0  0  0  0  0  0
  -20.6130  -28.3670   23.2070 C   0  0  0  0  0  3  0  0  0  0  0  0
  -20.7160  -26.9340   22.6350 C   0  0  0  0  0  2  0  0  0  0  0  0
  -19.6140  -26.6090   21.6250 C   0  0  0  0  0  2  0  0  0  0  0  0
  -18.2300  -26.7550   22.2680 C   0  0  0  0  0  2  0  0  0  0  0  0
  -19.1710  -28.8660   23.3690 C   0  0  0  0  0  0  0  0  0  0  0  0
  -18.9460  -30.1240   23.9690 C   0  0  0  0  0  3  0  0  0  0  0  0
  -17.6400  -30.6210   24.1450 C   0  0  0  0  0  3  0  0  0  0  0  0
  -16.5410  -29.8530   23.7280 C   0  0  0  0  0  3  0  0  0  0  0  0
  -16.7460  -28.5960   23.1370 C   0  0  0  0  0  3  0  0  0  0  0  0
  -25.9290  -32.4940   23.8320 C   0  0  0  0  0  3  0  0  0  0  0  0
  -25.6120  -33.8940   24.1620 N   0  0  0  0  0  0  0  0  0  0  0  0
  -25.9500  -34.9570   23.4160 C   0  0  0  0  0  0  0  0  0  0  0  0
  -26.6250  -34.8560   22.3890 O   0  0  0  0  0  0  0  0  0  0  0  0
  -25.0100  -34.0430   24.9570 H   0  0  0  0  0  0  0  0  0  0  0  0
  -24.2290  -36.7630   23.0760 C   0  0  0  0  0  1  0  0  0  0  0  0
  -25.4690  -36.3470   23.8840 C   0  0  0  0  0  3  0  0  0  0  0  0
  -27.6050  -37.2210   24.7220 C   0  0  0  0  0  1  0  0  0  0  0  0
  -26.5060  -37.3970   23.7760 N   0  0  0  0  0  0  0  0  0  0  0  0
  -26.1050  -38.3180   23.9310 H   0  0  0  0  0  0  0  0  0  0  0  0
  -26.4330  -31.7370   25.1240 C   0  0  1  0  0  0  0  0  0  0  0  0
  -25.3300  -31.5180   26.1870 C   0  0  0  0  0  1  0  0  0  0  0  0
  -27.0130  -30.3510   24.7620 C   0  0  0  0  0  1  0  0  0  0  0  0
  -27.5820  -32.5350   25.7850 C   0  0  0  0  0  1  0  0  0  0  0  0
  1  2  2  0
  1  3  1  0
  2  5  1  0
  3  6  2  0
  5  4  2  0
  5 45  1  0
  6 15  1  0
  6  4  1  0
  7 13  1  0
  7 15  1  0
  8 13  1  0
  9 10  1  0
  9  8  1  0
 11 10  1  0
 11 20  1  0
 11 12  1  0
 13 12  1  0
 14  7  2  0
 15 16  1  0
 17 18  2  0
 18 37  1  0
 19 18  1  0
 19 22  1  0
 20 17  1  0
 20 21  1  0
 21 19  2  0
 22 23  1  0
 23 24  2  0
 25 28  1  0
 25 24  1  0
 26 25  2  0
 27 26  1  0
 27 22  2  0
 28 29  1  0
 29 30  1  0
 30 31  2  0
 32 31  1  0
 32 36  1  0
 33 32  2  0
 34 29  2  0
 34 33  1  0
 35 34  1  0
 37 38  1  0
 38 41  1  0
 38 40  1  0
 39 37  2  0
 42 43  1  0
 42 17  1  0
 44 42  1  0
 46 47  1  0
 46 45  1  0
 48 59  2  0
 49 47  1  0
 49 54  1  0
 50 58  1  0
 50 60  1  0
 51 57  1  0
 51 53  1  0
 52 58  1  0
 53 52  1  0
 54 53  2  0
 55 49  2  0
 56 55  1  0
 56 51  2  0
 57 50  1  0
 58 48  1  0
 60 62  2  0
 61 60  1  0
 63 61  1  0
 64 73  2  0
 64 69  1  0
 65 61  1  0
 65 69  1  0
 66 65  1  0
 67 68  1  0
 67 66  1  0
 68 64  1  0
 69 70  2  0
 70 71  1  0
 72 71  2  0
 73 72  1  0
 74 48  1  0
 74 75  1  0
 74 84  1  0
 75 78  1  0
 76 80  1  0
 76 75  1  0
 77 76  2  0
 80 79  1  0
 82 80  1  0
 82 83  1  0
 82 81  1  0
 84 87  1  1
 84 85  1  0
 86 84  1  0
M  ISO  4   7 100  15 100  46 101  47 101
M  END
>  <TORSDO>  (69) 
F 18

>  <SCORE>  (69) 
-15.935

>  <name>  (69) 
68

>  <ligand_id>  (69) 
68

>  <original_smiles>  (69) 
[H]c1c([H])c(N([H])C(=O)N2C([H])([H])C([H])([H])C([H])([H])C([H])(n3nc(-c4c([H])c([H])c(Oc5c([H])c([H])c(F)c([H])c5F)c([H])c4[H])c(C(=O)N([H])[H])c3N([H])[H])C2([H])[H])c([H])c(C([H])([H])C([H])([H])Oc2c([H])c([H])c3c(c2[H])C([H])([H])N(C(=O)C([H])(N([H])C(=O)C([H])(N([H])C([H])([H])[H])C([H])([H])[H])C(C([H])([H])[H])(C([H])([H])[H])C([H])([H])[H])C([H])(C(=O)N([H])C2([H])c4c([H])c([H])c([H])c([H])c4C([H])([H])C([H])([H])C2([H])[H])C3([H])[H])c1[H]

>  <smiles>  (69) 
[H]c1c([H])c(N([H])C(=O)N2C([H])([H])C([H])([H])C([H])([H])C([H])(n3nc(-c4c([H])c([H])c(Oc5c([H])c([H])c(F)c([H])c5F)c([H])c4[H])c(C(=O)N([H])[H])c3N([H])[H])C2([H])[H])c([H])c(C([H])([H])C([H])([H])Oc2c([H])c([H])c3c(c2[H])C([H])([H])N(C(=O)C([H])(N([H])C(=O)C([H])(N([H])C([H])([H])[H])C([H])([H])[H])C(C([H])([H])[H])(C([H])([H])[H])C([H])([H])[H])C([H])(C(=O)N([H])C2([H])c4c([H])c([H])c([H])c([H])c4C([H])([H])C([H])([H])C2([H])[H])C3([H])[H])c1[H]

$$$$
69:0:0
     RDKit          3D

 93102  0  0  1  0  0  0  0  0999 V2000
  -30.7530  -22.3430   21.0910 C   0  0  0  0  0  2  0  0  0  0  0  0
  -30.7970  -14.5820   20.0960 C   0  0  0  0  0  0  0  0  0  0  0  0
  -30.4250  -12.4470   18.9210 C   0  0  0  0  0  2  0  0  0  0  0  0
  -29.4060  -12.6730   17.7850 C   0  0  0  0  0  2  0  0  0  0  0  0
  -27.9570  -12.5340   18.3010 C   0  0  0  0  0  2  0  0  0  0  0  0
  -27.7020  -13.3180   19.6170 C   0  0  0  0  0  3  0  0  0  0  0  0
  -28.8360  -13.0880   20.6430 C   0  0  0  0  0  2  0  0  0  0  0  0
  -30.1150  -13.4070   19.9880 N   0  0  0  0  0  0  0  0  0  0  0  0
  -31.9390  -14.7360   19.6520 O   0  0  0  0  0  0  0  0  0  0  0  0
  -30.5320  -18.8040   22.6350 C   0  0  0  0  0  3  0  0  0  0  0  0
  -30.5930  -20.2090   22.5110 C   0  0  0  0  0  3  0  0  0  0  0  0
  -30.4350  -19.9980   20.0960 C   0  0  0  0  0  3  0  0  0  0  0  0
  -30.4170  -17.9800   21.4940 C   0  0  0  0  0  0  0  0  0  0  0  0
  -30.3530  -18.5910   20.2250 C   0  0  0  0  0  0  0  0  0  0  0  0
  -30.5620  -20.8230   21.2370 C   0  0  0  0  0  0  0  0  0  0  0  0
  -30.1790  -17.7120   19.0050 C   0  0  0  0  0  2  0  0  0  0  0  0
  -30.3660  -16.4500   21.6550 C   0  0  0  0  0  2  0  0  0  0  0  0
  -29.4110  -16.4260   19.3600 C   0  0  0  0  0  2  0  0  0  0  0  0
  -30.0550  -15.6620   20.4440 N   0  0  0  0  0  0  0  0  0  0  0  0
  -25.3590  -13.8960   20.5040 C   0  0  0  0  0  0  0  0  0  0  0  0
  -24.3150  -13.1100   20.9120 C   0  0  0  0  0  0  0  0  0  0  0  0
  -24.7710  -11.7610   20.7990 C   0  0  0  0  0  0  0  0  0  0  0  0
  -26.3860  -13.0230   20.1770 N   0  0  0  0  0  0  0  0  0  0  0  0
  -26.0390  -11.7340   20.4100 N   0  0  0  0  0  0  0  0  0  0  0  0
  -24.0570  -10.4920   20.9820 C   0  0  0  0  0  0  0  0  0  0  0  0
  -24.5050   -9.5250   21.9090 C   0  0  0  0  0  3  0  0  0  0  0  0
  -23.7950   -8.3180   22.0820 C   0  0  0  0  0  3  0  0  0  0  0  0
  -22.6230   -8.0720   21.3300 C   0  0  0  0  0  0  0  0  0  0  0  0
  -22.1930   -9.0270   20.3920 C   0  0  0  0  0  3  0  0  0  0  0  0
  -22.9050  -10.2270   20.2160 C   0  0  0  0  0  3  0  0  0  0  0  0
  -21.8810   -6.9180   21.4160 O   0  0  0  0  0  0  0  0  0  0  0  0
  -21.7790   -6.2100   22.5860 C   0  0  0  0  0  0  0  0  0  0  0  0
  -21.2640   -6.7900   23.7650 C   0  0  0  0  0  3  0  0  0  0  0  0
  -21.1120   -6.0070   24.9270 C   0  0  0  0  0  3  0  0  0  0  0  0
  -21.4660   -4.6450   24.9090 C   0  0  0  0  0  0  0  0  0  0  0  0
  -21.9750   -4.0640   23.7350 C   0  0  0  0  0  3  0  0  0  0  0  0
  -22.1280   -4.8440   22.5750 C   0  0  0  0  0  0  0  0  0  0  0  0
  -22.5960   -4.2750   21.4390 F   0  0  0  0  0  0  0  0  0  0  0  0
  -21.3150   -3.8900   26.0230 F   0  0  0  0  0  0  0  0  0  0  0  0
  -22.9380  -13.5730   21.2890 C   0  0  0  0  0  0  0  0  0  0  0  0
  -22.2680  -12.8430   22.1730 N   0  0  0  0  0  0  0  0  0  0  0  0
  -22.4670  -14.6160   20.8370 O   0  0  0  0  0  0  0  0  0  0  0  0
  -22.6590  -11.9970   22.5600 H   0  0  0  0  0  0  0  0  0  0  0  0
  -21.3490  -13.1360   22.4720 H   0  0  0  0  0  0  0  0  0  0  0  0
  -25.5160  -15.2720   20.3660 N   0  0  0  0  0  0  0  0  0  0  0  0
  -24.7660  -15.9290   20.5550 H   0  0  0  0  0  0  0  0  0  0  0  0
  -26.3600  -15.7200   20.0360 H   0  0  0  0  0  0  0  0  0  0  0  0
  -29.4970  -23.1300   21.0100 N   0  0  0  0  0  4  0  0  0  0  0  0
  -29.0420  -23.0730   21.9070 H   0  0  0  0  0  0  0  0  0  0  0  0
  -28.8950  -22.6840   20.3350 H   0  0  0  0  0  0  0  0  0  0  0  0
  -29.6860  -24.5660   20.6290 C   0  0  0  0  0  2  0  0  0  0  0  0
  -28.3860  -25.3970   20.7440 C   0  0  0  0  0  2  0  0  0  0  0  0
  -28.5250  -26.7330   20.2170 O   0  0  0  0  0  0  0  0  0  0  0  0
  -24.6320  -31.8820   23.2200 C   0  0  0  0  0  0  0  0  0  0  0  0
  -27.3540  -27.4620   20.1830 C   0  0  0  0  0  0  0  0  0  0  0  0
  -23.4530  -30.4590   21.5740 C   0  0  0  0  0  3  0  0  0  0  0  0
  -24.9380  -28.9360   20.1640 C   0  0  0  0  0  0  0  0  0  0  0  0
  -25.9740  -30.8510   21.3920 C   0  0  0  0  0  2  0  0  0  0  0  0
  -26.0840  -29.4790   20.7570 C   0  0  0  0  0  0  0  0  0  0  0  0
  -27.2980  -28.7520   20.7600 C   0  0  0  0  0  3  0  0  0  0  0  0
  -26.1930  -26.9410   19.5690 C   0  0  0  0  0  3  0  0  0  0  0  0
  -24.9880  -27.6670   19.5640 C   0  0  0  0  0  3  0  0  0  0  0  0
  -23.6820  -29.7780   20.1980 C   0  0  0  0  0  2  0  0  0  0  0  0
  -24.7030  -31.0810   22.1200 N   0  0  0  0  0  0  0  0  0  0  0  0
  -23.5440  -32.1420   23.7540 O   0  0  0  0  0  0  0  0  0  0  0  0
  -22.8070  -29.4330   22.5340 C   0  0  0  0  0  0  0  0  0  0  0  0
  -21.4820  -29.2550   22.4160 N   0  0  0  0  0  0  0  0  0  0  0  0
  -23.4970  -28.8020   23.3400 O   0  0  0  0  0  0  0  0  0  0  0  0
  -20.9880  -29.8220   21.7410 H   0  0  0  0  0  0  0  0  0  0  0  0
  -18.1050  -28.0790   22.9430 C   0  0  0  0  0  0  0  0  0  0  0  0
  -20.6680  -28.3140   23.1850 C   0  0  0  0  0  3  0  0  0  0  0  0
  -20.7520  -26.8900   22.5880 C   0  0  0  0  0  2  0  0  0  0  0  0
  -19.6340  -26.5880   21.5850 C   0  0  0  0  0  2  0  0  0  0  0  0
  -18.2620  -26.7350   22.2490 C   0  0  0  0  0  2  0  0  0  0  0  0
  -19.2360  -28.8260   23.3680 C   0  0  0  0  0  0  0  0  0  0  0  0
  -19.0340  -30.0840   23.9760 C   0  0  0  0  0  3  0  0  0  0  0  0
  -17.7370  -30.5940   24.1650 C   0  0  0  0  0  3  0  0  0  0  0  0
  -16.6200  -29.8430   23.7570 C   0  0  0  0  0  3  0  0  0  0  0  0
  -16.8060  -28.5870   23.1520 C   0  0  0  0  0  3  0  0  0  0  0  0
  -25.9070  -32.5270   23.8480 C   0  0  0  0  0  3  0  0  0  0  0  0
  -26.4270  -31.7630   25.1270 C   0  0  1  0  0  0  0  0  0  0  0  0
  -25.3310  -31.5110   26.1890 C   0  0  0  0  0  1  0  0  0  0  0  0
  -27.0300  -30.3940   24.7360 C   0  0  0  0  0  1  0  0  0  0  0  0
  -27.5640  -32.5740   25.7930 C   0  0  0  0  0  1  0  0  0  0  0  0
  -25.5830  -33.9230   24.1700 N   0  0  0  0  0  0  0  0  0  0  0  0
  -25.9220  -34.9770   23.4130 C   0  0  0  0  0  0  0  0  0  0  0  0
  -26.6100  -34.8740   22.3930 O   0  0  0  0  0  0  0  0  0  0  0  0
  -24.9720  -34.0750   24.9600 H   0  0  0  0  0  0  0  0  0  0  0  0
  -24.1970  -36.7600   23.0110 C   0  0  0  0  0  1  0  0  0  0  0  0
  -25.4160  -36.3610   23.8580 C   0  0  0  0  0  3  0  0  0  0  0  0
  -27.5230  -37.2520   24.7510 C   0  0  0  0  0  1  0  0  0  0  0  0
  -26.4490  -37.4190   23.7760 N   0  0  0  0  0  0  0  0  0  0  0  0
  -26.0360  -38.3370   23.9130 H   0  0  0  0  0  0  0  0  0  0  0  0
  1 15  1  0
  2 19  1  0
  3  8  1  0
  4  5  1  0
  4  3  1  0
  6  5  1  0
  6 23  1  0
  6  7  1  0
  8  2  1  0
  8  7  1  0
  9  2  2  0
 11 10  1  0
 12 14  2  0
 12 15  1  0
 13 17  1  0
 13 10  2  0
 14 13  1  0
 15 11  2  0
 16 18  1  0
 16 14  1  0
 18 19  1  0
 19 17  1  0
 20 21  2  0
 21 40  1  0
 22 21  1  0
 22 25  1  0
 23 24  1  0
 23 20  1  0
 24 22  2  0
 25 26  1  0
 26 27  2  0
 28 31  1  0
 28 27  1  0
 29 28  2  0
 30 29  1  0
 30 25  2  0
 31 32  1  0
 32 33  1  0
 33 34  2  0
 35 34  1  0
 35 39  1  0
 36 35  2  0
 37 32  2  0
 37 36  1  0
 38 37  1  0
 40 41  1  0
 41 44  1  0
 41 43  1  0
 42 40  2  0
 45 20  1  0
 45 46  1  0
 47 45  1  0
 48  1  1  0
 48 49  1  0
 50 48  1  0
 51 52  1  0
 51 48  1  0
 53 52  1  0
 54 65  2  0
 55 53  1  0
 55 60  1  0
 56 64  1  0
 56 66  1  0
 57 63  1  0
 57 59  1  0
 58 64  1  0
 59 60  2  0
 59 58  1  0
 61 55  2  0
 62 61  1  0
 62 57  2  0
 63 56  1  0
 64 54  1  0
 66 68  2  0
 67 66  1  0
 69 67  1  0
 70 79  2  0
 70 75  1  0
 71 67  1  0
 71 75  1  0
 72 71  1  0
 73 74  1  0
 73 72  1  0
 74 70  1  0
 75 76  2  0
 76 77  1  0
 78 77  2  0
 79 78  1  0
 80 54  1  0
 80 85  1  0
 80 81  1  0
 81 84  1  1
 81 82  1  0
 83 81  1  0
 85 88  1  0
 86 90  1  0
 86 85  1  0
 87 86  2  0
 90 89  1  0
 92 90  1  0
 92 93  1  0
 92 91  1  0
M  ISO  4   2 100  19 100  52 101  53 101
M  END
>  <TORSDO>  (70) 
F 19

>  <SCORE>  (70) 
-13.792

>  <name>  (70) 
69

>  <ligand_id>  (70) 
69

>  <original_smiles>  (70) 
[H]c1c([H])c([H])c2c(c1[H])C([H])([H])C([H])([H])C([H])([H])C2([H])N([H])C(=O)C1([H])N(C(=O)C([H])(N([H])C(=O)C([H])(N([H])C([H])([H])[H])C([H])([H])[H])C(C([H])([H])[H])(C([H])([H])[H])C([H])([H])[H])C([H])([H])c2c([H])c(OC([H])([H])C([H])([H])[N+]([H])([H])C([H])([H])c3c([H])c([H])c4c(c3[H])C([H])([H])C([H])([H])N(C(=O)N3C([H])([H])C([H])([H])C([H])([H])C([H])(n5nc(-c6c([H])c([H])c(Oc7c([H])c([H])c(F)c([H])c7F)c([H])c6[H])c(C(=O)N([H])[H])c5N([H])[H])C3([H])[H])C4([H])[H])c([H])c([H])c2C1([H])[H]

>  <smiles>  (70) 
[H]c1c([H])c([H])c2c(c1[H])C([H])([H])C([H])([H])C([H])([H])C2([H])N([H])C(=O)C1([H])N(C(=O)C([H])(N([H])C(=O)C([H])(N([H])C([H])([H])[H])C([H])([H])[H])C(C([H])([H])[H])(C([H])([H])[H])C([H])([H])[H])C([H])([H])c2c([H])c(OC([H])([H])C([H])([H])[N+]([H])([H])C([H])([H])c3c([H])c([H])c4c(c3[H])C([H])([H])C([H])([H])N(C(=O)N3C([H])([H])C([H])([H])C([H])([H])C([H])(n5nc(-c6c([H])c([H])c(Oc7c([H])c([H])c(F)c([H])c7F)c([H])c6[H])c(C(=O)N([H])[H])c5N([H])[H])C3([H])[H])C4([H])[H])c([H])c([H])c2C1([H])[H]

$$$$
70:0:0
     RDKit          3D

 98105  0  0  1  0  0  0  0  0999 V2000
  -29.2520  -22.1610   19.7830 C   0  0  0  0  0  3  0  0  0  0  0  0
  -28.9480  -20.6540   20.1730 N   0  0  0  0  0  4  0  0  0  0  0  0
  -28.4580  -20.7400   21.0500 H   0  0  0  0  0  0  0  0  0  0  0  0
  -28.2490  -20.2970   19.5440 H   0  0  0  0  0  0  0  0  0  0  0  0
  -29.9760  -19.4820   20.4770 C   0  0  0  0  0  3  0  0  0  0  0  0
  -29.8130  -17.9060   19.9130 C   0  0  0  0  0  2  0  0  0  0  0  0
  -30.0360  -16.5160   20.8360 C   0  0  0  0  0  2  0  0  0  0  0  0
  -30.8440  -15.1320   20.4300 C   0  0  0  0  0  0  0  0  0  0  0  0
  -30.7860  -12.7590   19.5410 C   0  0  0  0  0  2  0  0  0  0  0  0
  -29.8970  -12.7100   18.2750 C   0  0  0  0  0  2  0  0  0  0  0  0
  -28.4110  -12.5400   18.6520 C   0  0  0  0  0  2  0  0  0  0  0  0
  -27.9780  -13.4910   19.7990 C   0  0  0  0  0  3  0  0  0  0  0  0
  -28.9850  -13.4660   20.9650 C   0  0  0  0  0  2  0  0  0  0  0  0
  -30.2870  -13.8560   20.4150 N   0  0  0  0  0  0  0  0  0  0  0  0
  -32.0260  -15.2240   20.0780 O   0  0  0  0  0  0  0  0  0  0  0  0
  -25.5950  -14.1310   20.4900 C   0  0  0  0  0  0  0  0  0  0  0  0
  -24.4990  -13.3810   20.8150 C   0  0  0  0  0  0  0  0  0  0  0  0
  -24.9210  -12.0160   20.7590 C   0  0  0  0  0  0  0  0  0  0  0  0
  -26.6160  -13.2250   20.2500 N   0  0  0  0  0  0  0  0  0  0  0  0
  -26.2180  -11.9480   20.4750 N   0  0  0  0  0  0  0  0  0  0  0  0
  -24.1540  -10.7720   20.8960 C   0  0  0  0  0  0  0  0  0  0  0  0
  -24.5050   -9.7860   21.8440 C   0  0  0  0  0  3  0  0  0  0  0  0
  -23.7360   -8.6090   21.9690 C   0  0  0  0  0  3  0  0  0  0  0  0
  -22.6030   -8.4090   21.1440 C   0  0  0  0  0  0  0  0  0  0  0  0
  -22.2740   -9.3830   20.1850 C   0  0  0  0  0  3  0  0  0  0  0  0
  -23.0430  -10.5520   20.0580 C   0  0  0  0  0  3  0  0  0  0  0  0
  -21.8120   -7.2860   21.1770 O   0  0  0  0  0  0  0  0  0  0  0  0
  -21.6330   -6.5670   22.3320 C   0  0  0  0  0  0  0  0  0  0  0  0
  -21.0930   -7.1510   23.4990 C   0  0  0  0  0  3  0  0  0  0  0  0
  -20.8600   -6.3590   24.6400 C   0  0  0  0  0  3  0  0  0  0  0  0
  -21.1570   -4.9830   24.6150 C   0  0  0  0  0  0  0  0  0  0  0  0
  -21.6890   -4.3980   23.4530 C   0  0  0  0  0  3  0  0  0  0  0  0
  -21.9230   -5.1870   22.3130 C   0  0  0  0  0  0  0  0  0  0  0  0
  -22.4150   -4.6140   21.1890 F   0  0  0  0  0  0  0  0  0  0  0  0
  -20.9260   -4.2200   25.7090 F   0  0  0  0  0  0  0  0  0  0  0  0
  -23.1100  -13.8920   21.0660 C   0  0  0  0  0  0  0  0  0  0  0  0
  -22.3460  -13.2080   21.9090 N   0  0  0  0  0  0  0  0  0  0  0  0
  -22.7120  -14.9350   20.5490 O   0  0  0  0  0  0  0  0  0  0  0  0
  -22.6790  -12.3630   22.3490 H   0  0  0  0  0  0  0  0  0  0  0  0
  -21.4130  -13.5340   22.1180 H   0  0  0  0  0  0  0  0  0  0  0  0
  -25.8110  -15.5000   20.3550 N   0  0  0  0  0  0  0  0  0  0  0  0
  -25.0710  -16.1840   20.4690 H   0  0  0  0  0  0  0  0  0  0  0  0
  -26.6860  -15.9100   20.0570 H   0  0  0  0  0  0  0  0  0  0  0  0
  -31.4350  -19.9910   20.3730 C   0  0  0  0  0  2  0  0  0  0  0  0
  -32.4840  -19.1840   21.1630 C   0  0  0  0  0  2  0  0  0  0  0  0
  -33.8400  -19.9140   21.2320 C   0  0  0  0  0  2  0  0  0  0  0  0
  -34.8460  -19.1670   22.0010 N   0  0  0  0  0  4  0  0  0  0  0  0
  -34.5320  -19.0030   22.9410 H   0  0  0  0  0  0  0  0  0  0  0  0
  -35.6990  -19.6950   22.0480 H   0  0  0  0  0  0  0  0  0  0  0  0
  -35.0530  -18.2840   21.5670 H   0  0  0  0  0  0  0  0  0  0  0  0
  -29.6660  -22.2110   18.2870 C   0  0  0  0  0  2  0  0  0  0  0  0
  -28.5300  -22.0980   17.2360 C   0  0  0  0  0  2  0  0  0  0  0  0
  -28.3190  -23.3310   16.4770 N   0  0  0  0  0  0  0  0  0  0  0  0
  -29.4230  -23.4690   15.5590 O   0  0  0  0  0  1  0  0  0  0  0  0
  -28.3440  -24.1300   17.1050 H   0  0  0  0  0  0  0  0  0  0  0  0
  -28.2190  -23.4270   20.2100 C   0  0  0  0  0  2  0  0  0  0  0  0
  -28.1910  -24.9590   19.5210 C   0  0  0  0  0  2  0  0  0  0  0  0
  -28.1150  -26.3490   20.1900 O   0  0  0  0  0  0  0  0  0  0  0  0
  -24.5990  -31.9890   23.2890 C   0  0  0  0  0  0  0  0  0  0  0  0
  -27.0380  -27.2920   20.1330 C   0  0  0  0  0  0  0  0  0  0  0  0
  -23.3340  -30.5980   21.6950 C   0  0  0  0  0  3  0  0  0  0  0  0
  -24.7180  -29.0220   20.2130 C   0  0  0  0  0  0  0  0  0  0  0  0
  -25.8800  -30.8590   21.4370 C   0  0  0  0  0  2  0  0  0  0  0  0
  -25.9190  -29.4700   20.7740 C   0  0  0  0  0  0  0  0  0  0  0  0
  -27.0800  -28.6190   20.7160 C   0  0  0  0  0  3  0  0  0  0  0  0
  -25.8060  -26.9300   19.5460 C   0  0  0  0  0  3  0  0  0  0  0  0
  -24.6710  -27.7680   19.5850 C   0  0  0  0  0  3  0  0  0  0  0  0
  -23.4980  -29.9230   20.3090 C   0  0  0  0  0  2  0  0  0  0  0  0
  -24.6250  -31.1710   22.1940 N   0  0  0  0  0  0  0  0  0  0  0  0
  -23.5350  -32.2770   23.8580 O   0  0  0  0  0  0  0  0  0  0  0  0
  -22.6860  -29.5920   22.6790 C   0  0  0  0  0  0  0  0  0  0  0  0
  -21.3690  -29.3550   22.5340 N   0  0  0  0  0  0  0  0  0  0  0  0
  -23.3690  -29.0250   23.5340 O   0  0  0  0  0  0  0  0  0  0  0  0
  -20.8760  -29.8700   21.8170 H   0  0  0  0  0  0  0  0  0  0  0  0
  -18.0600  -27.9410   22.9450 C   0  0  0  0  0  0  0  0  0  0  0  0
  -20.5740  -28.4100   23.3220 C   0  0  0  0  0  3  0  0  0  0  0  0
  -20.8070  -26.9550   22.8530 C   0  0  0  0  0  2  0  0  0  0  0  0
  -19.7890  -26.4890   21.8080 C   0  0  0  0  0  2  0  0  0  0  0  0
  -18.3670  -26.5680   22.3710 C   0  0  0  0  0  2  0  0  0  0  0  0
  -19.0960  -28.8110   23.3750 C   0  0  0  0  0  0  0  0  0  0  0  0
  -18.7540  -30.0860   23.8750 C   0  0  0  0  0  3  0  0  0  0  0  0
  -17.4080  -30.4940   23.9450 C   0  0  0  0  0  3  0  0  0  0  0  0
  -16.3870  -29.6240   23.5300 C   0  0  0  0  0  3  0  0  0  0  0  0
  -16.7120  -28.3490   23.0350 C   0  0  0  0  0  3  0  0  0  0  0  0
  -25.9010  -32.6150   23.8710 C   0  0  0  0  0  3  0  0  0  0  0  0
  -25.6110  -34.0170   24.2100 N   0  0  0  0  0  0  0  0  0  0  0  0
  -25.9320  -35.0700   23.4450 C   0  0  0  0  0  0  0  0  0  0  0  0
  -26.5720  -34.9620   22.3960 O   0  0  0  0  0  0  0  0  0  0  0  0
  -25.0400  -34.1760   25.0280 H   0  0  0  0  0  0  0  0  0  0  0  0
  -24.2050  -36.8780   23.1610 C   0  0  0  0  0  1  0  0  0  0  0  0
  -25.4750  -36.4630   23.9220 C   0  0  0  0  0  3  0  0  0  0  0  0
  -27.6480  -37.3330   24.6660 C   0  0  0  0  0  1  0  0  0  0  0  0
  -26.5090  -37.5110   23.7670 N   0  0  0  0  0  0  0  0  0  0  0  0
  -26.1160  -38.4340   23.9370 H   0  0  0  0  0  0  0  0  0  0  0  0
  -26.4510  -31.8450   25.1350 C   0  0  1  0  0  0  0  0  0  0  0  0
  -25.3780  -31.5870   26.2190 C   0  0  0  0  0  1  0  0  0  0  0  0
  -27.0470  -30.4770   24.7310 C   0  0  0  0  0  1  0  0  0  0  0  0
  -27.6030  -32.6540   25.7760 C   0  0  0  0  0  1  0  0  0  0  0  0
  1 51  1  0
  1  2  1  0
  1 56  1  0
  2  5  1  0
  2  3  1  0
  4  2  1  0
  5  6  1  0
  6  7  1  0
  8  7  1  0
  9 14  1  0
 10 11  1  0
 10  9  1  0
 12 11  1  0
 12 19  1  0
 12 13  1  0
 14  8  1  0
 14 13  1  0
 15  8  2  0
 16 17  2  0
 17 36  1  0
 18 17  1  0
 18 21  1  0
 19 20  1  0
 19 16  1  0
 20 18  2  0
 21 22  1  0
 22 23  2  0
 24 27  1  0
 24 23  1  0
 25 24  2  0
 26 25  1  0
 26 21  2  0
 27 28  1  0
 28 29  1  0
 29 30  2  0
 31 30  1  0
 31 35  1  0
 32 31  2  0
 33 28  2  0
 33 32  1  0
 34 33  1  0
 36 37  1  0
 37 40  1  0
 37 39  1  0
 38 36  2  0
 41 42  1  0
 41 16  1  0
 43 41  1  0
 44  5  1  0
 44 45  1  0
 45 46  1  0
 46 47  1  0
 47 49  1  0
 47 48  1  0
 50 47  1  0
 52 51  1  0
 53 55  1  0
 53 52  1  0
 54 53  1  0
 57 58  1  0
 57 56  1  0
 59 70  2  0
 60 58  1  0
 60 65  1  0
 61 69  1  0
 61 71  1  0
 62 68  1  0
 62 64  1  0
 63 69  1  0
 64 63  1  0
 65 64  2  0
 66 67  1  0
 66 60  2  0
 67 62  2  0
 68 61  1  0
 69 59  1  0
 71 73  2  0
 72 71  1  0
 74 72  1  0
 75 84  2  0
 75 80  1  0
 76 72  1  0
 76 80  1  0
 77 76  1  0
 78 79  1  0
 78 77  1  0
 79 75  1  0
 80 81  2  0
 81 82  1  0
 83 82  2  0
 84 83  1  0
 85 59  1  0
 85 86  1  0
 85 95  1  0
 86 89  1  0
 87 91  1  0
 87 86  1  0
 88 87  2  0
 91 90  1  0
 93 91  1  0
 93 94  1  0
 93 92  1  0
 95 98  1  1
 95 96  1  0
 97 95  1  0
M  ISO  4   7 100   8 100  57 101  58 101
M  END
>  <TORSDO>  (71) 
F 29

>  <SCORE>  (71) 
-10.675

>  <name>  (71) 
70

>  <ligand_id>  (71) 
70

>  <original_smiles>  (71) 
[H]c1c([H])c([H])c2c(c1[H])C([H])([H])C([H])([H])C([H])([H])C2([H])N([H])C(=O)C1([H])N(C(=O)C([H])(N([H])C(=O)C([H])(N([H])C([H])([H])[H])C([H])([H])[H])C(C([H])([H])[H])(C([H])([H])[H])C([H])([H])[H])C([H])([H])c2c([H])c(OC([H])([H])C([H])([H])C([H])(C([H])([H])C([H])([H])N([H])[O-])[N+]([H])([H])C([H])(C([H])([H])C([H])([H])C(=O)N3C([H])([H])C([H])([H])C([H])([H])C([H])(n4nc(-c5c([H])c([H])c(Oc6c([H])c([H])c(F)c([H])c6F)c([H])c5[H])c(C(=O)N([H])[H])c4N([H])[H])C3([H])[H])C([H])([H])C([H])([H])C([H])([H])[N+]([H])([H])[H])c([H])c([H])c2C1([H])[H]

>  <smiles>  (71) 
[H]c1c([H])c([H])c2c(c1[H])C([H])([H])C([H])([H])C([H])([H])C2([H])N([H])C(=O)C1([H])N(C(=O)C([H])(N([H])C(=O)C([H])(N([H])C([H])([H])[H])C([H])([H])[H])C(C([H])([H])[H])(C([H])([H])[H])C([H])([H])[H])C([H])([H])c2c([H])c(OC([H])([H])C([H])([H])C([H])(C([H])([H])C([H])([H])N([H])[O-])[N+]([H])([H])C([H])(C([H])([H])C([H])([H])C(=O)N3C([H])([H])C([H])([H])C([H])([H])C([H])(n4nc(-c5c([H])c([H])c(Oc6c([H])c([H])c(F)c([H])c6F)c([H])c5[H])c(C(=O)N([H])[H])c4N([H])[H])C3([H])[H])C([H])([H])C([H])([H])C([H])([H])[N+]([H])([H])[H])c([H])c([H])c2C1([H])[H]

$$$$
71:0:0
     RDKit          3D

 91100  0  0  1  0  0  0  0  0999 V2000
  -29.9560  -17.0270   21.4100 C   0  0  0  0  0  3  0  0  0  0  0  0
  -29.6220  -18.4220   21.5830 C   0  0  0  0  0  3  0  0  0  0  0  0
  -29.9510  -17.3660   19.0670 C   0  0  0  0  0  3  0  0  0  0  0  0
  -30.1460  -16.4180   20.1350 C   0  0  0  0  0  0  0  0  0  0  0  0
  -29.4310  -19.3700   20.5220 C   0  0  0  0  0  0  0  0  0  0  0  0
  -29.5840  -18.7670   19.2340 C   0  0  0  0  0  0  0  0  0  0  0  0
  -29.3430  -19.6240   17.9960 C   0  0  0  0  0  2  0  0  0  0  0  0
  -28.9740  -20.9060   20.8560 C   0  0  0  0  0  2  0  0  0  0  0  0
  -28.1500  -20.5950   18.1390 C   0  0  0  0  0  2  0  0  0  0  0  0
  -28.4710  -22.0340   18.6240 C   0  0  0  0  0  2  0  0  0  0  0  0
  -29.1240  -22.1760   19.9580 N   0  0  1  0  0  4  0  0  0  0  0  0
  -30.1120  -22.1960   19.7510 H   0  0  0  0  0  0  0  0  0  0  0  0
  -30.7810  -14.9760   19.9090 C   0  0  0  0  0  0  0  0  0  0  0  0
  -30.4840  -12.6690   18.9650 C   0  0  0  0  0  2  0  0  0  0  0  0
  -29.4930  -12.7220   17.7800 C   0  0  0  0  0  2  0  0  0  0  0  0
  -28.0510  -12.5490   18.2880 C   0  0  0  0  0  2  0  0  0  0  0  0
  -27.7380  -13.4560   19.5080 C   0  0  0  0  0  3  0  0  0  0  0  0
  -28.8530  -13.4220   20.5740 C   0  0  0  0  0  2  0  0  0  0  0  0
  -30.1150  -13.7590   19.9120 N   0  0  0  0  0  0  0  0  0  0  0  0
  -31.9530  -14.9730   19.5220 O   0  0  0  0  0  0  0  0  0  0  0  0
  -25.4200  -14.0500   20.4170 C   0  0  0  0  0  0  0  0  0  0  0  0
  -24.3670  -13.2810   20.8280 C   0  0  0  0  0  0  0  0  0  0  0  0
  -24.8040  -11.9250   20.7300 C   0  0  0  0  0  0  0  0  0  0  0  0
  -26.4290  -13.1640   20.0830 N   0  0  0  0  0  0  0  0  0  0  0  0
  -26.0720  -11.8780   20.3380 N   0  0  0  0  0  0  0  0  0  0  0  0
  -24.0680  -10.6680   20.9290 C   0  0  0  0  0  0  0  0  0  0  0  0
  -24.5110   -9.6870   21.8430 C   0  0  0  0  0  3  0  0  0  0  0  0
  -23.7750   -8.4980   22.0320 C   0  0  0  0  0  3  0  0  0  0  0  0
  -22.5800   -8.2800   21.3060 C   0  0  0  0  0  0  0  0  0  0  0  0
  -22.1550   -9.2490   20.3800 C   0  0  0  0  0  3  0  0  0  0  0  0
  -22.8910  -10.4300   20.1890 C   0  0  0  0  0  3  0  0  0  0  0  0
  -21.8130   -7.1430   21.4040 O   0  0  0  0  0  0  0  0  0  0  0  0
  -21.7600   -6.4090   22.5600 C   0  0  0  0  0  0  0  0  0  0  0  0
  -21.2740   -6.9540   23.7690 C   0  0  0  0  0  3  0  0  0  0  0  0
  -21.1710   -6.1430   24.9160 C   0  0  0  0  0  3  0  0  0  0  0  0
  -21.5460   -4.7870   24.8580 C   0  0  0  0  0  0  0  0  0  0  0  0
  -22.0240   -4.2400   23.6540 C   0  0  0  0  0  3  0  0  0  0  0  0
  -22.1290   -5.0490   22.5080 C   0  0  0  0  0  0  0  0  0  0  0  0
  -22.5710   -4.5120   21.3450 F   0  0  0  0  0  0  0  0  0  0  0  0
  -21.4400   -4.0070   25.9580 F   0  0  0  0  0  0  0  0  0  0  0  0
  -22.9960  -13.7720   21.1960 C   0  0  0  0  0  0  0  0  0  0  0  0
  -22.3090  -13.0630   22.0840 N   0  0  0  0  0  0  0  0  0  0  0  0
  -22.5470  -14.8180   20.7310 O   0  0  0  0  0  0  0  0  0  0  0  0
  -22.6860  -12.2150   22.4800 H   0  0  0  0  0  0  0  0  0  0  0  0
  -21.3910  -13.3730   22.3730 H   0  0  0  0  0  0  0  0  0  0  0  0
  -25.6010  -15.4230   20.2780 N   0  0  0  0  0  0  0  0  0  0  0  0
  -24.8690  -16.0930   20.4860 H   0  0  0  0  0  0  0  0  0  0  0  0
  -26.4600  -15.8590   19.9620 H   0  0  0  0  0  0  0  0  0  0  0  0
  -28.8110  -23.5850   20.6110 C   0  0  0  0  0  3  0  0  0  0  0  0
  -28.7520  -25.0090   19.7490 C   0  0  0  0  0  3  0  0  0  0  0  0
  -28.5990  -26.4320   20.3170 O   0  0  0  0  0  0  0  0  0  0  0  0
  -24.5840  -31.8090   23.2020 C   0  0  0  0  0  0  0  0  0  0  0  0
  -27.4730  -27.3040   20.1870 C   0  0  0  0  0  0  0  0  0  0  0  0
  -23.5120  -30.4180   21.4700 C   0  0  0  0  0  3  0  0  0  0  0  0
  -25.0790  -28.9340   20.0800 C   0  0  0  0  0  0  0  0  0  0  0  0
  -26.0560  -30.7850   21.4340 C   0  0  0  0  0  2  0  0  0  0  0  0
  -26.2060  -29.4170   20.7530 C   0  0  0  0  0  0  0  0  0  0  0  0
  -27.4000  -28.6170   20.7910 C   0  0  0  0  0  3  0  0  0  0  0  0
  -26.3130  -26.9000   19.4860 C   0  0  0  0  0  3  0  0  0  0  0  0
  -25.1430  -27.6880   19.4340 C   0  0  0  0  0  3  0  0  0  0  0  0
  -23.8200  -29.7850   20.0870 C   0  0  0  0  0  2  0  0  0  0  0  0
  -24.7340  -31.0240   22.0920 N   0  0  0  0  0  0  0  0  0  0  0  0
  -23.4660  -32.0430   23.6830 O   0  0  0  0  0  0  0  0  0  0  0  0
  -22.8250  -29.3640   22.3720 C   0  0  0  0  0  0  0  0  0  0  0  0
  -21.5010  -29.1930   22.2090 N   0  0  0  0  0  0  0  0  0  0  0  0
  -23.4840  -28.7050   23.1790 O   0  0  0  0  0  0  0  0  0  0  0  0
  -21.0260  -29.7760   21.5340 H   0  0  0  0  0  0  0  0  0  0  0  0
  -18.1060  -28.0140   22.6430 C   0  0  0  0  0  0  0  0  0  0  0  0
  -20.6690  -28.2200   22.9190 C   0  0  0  0  0  3  0  0  0  0  0  0
  -20.7490  -26.8260   22.2530 C   0  0  0  0  0  2  0  0  0  0  0  0
  -19.6390  -26.5860   21.2260 C   0  0  0  0  0  2  0  0  0  0  0  0
  -18.2610  -26.7090   21.8820 C   0  0  0  0  0  2  0  0  0  0  0  0
  -19.2370  -28.7310   23.1170 C   0  0  0  0  0  0  0  0  0  0  0  0
  -19.0360  -29.9550   23.7920 C   0  0  0  0  0  3  0  0  0  0  0  0
  -17.7380  -30.4600   23.9980 C   0  0  0  0  0  3  0  0  0  0  0  0
  -16.6220  -29.7380   23.5380 C   0  0  0  0  0  3  0  0  0  0  0  0
  -16.8080  -28.5180   22.8660 C   0  0  0  0  0  3  0  0  0  0  0  0
  -25.8090  -32.4660   23.9080 C   0  0  0  0  0  3  0  0  0  0  0  0
  -25.4610  -33.8660   24.1980 N   0  0  0  0  0  0  0  0  0  0  0  0
  -25.8240  -34.9130   23.4470 C   0  0  0  0  0  0  0  0  0  0  0  0
  -26.5540  -34.8060   22.4570 O   0  0  0  0  0  0  0  0  0  0  0  0
  -24.8200  -34.0220   24.9610 H   0  0  0  0  0  0  0  0  0  0  0  0
  -24.1050  -36.6880   22.9650 C   0  0  0  0  0  1  0  0  0  0  0  0
  -25.2950  -36.3030   23.8570 C   0  0  0  0  0  3  0  0  0  0  0  0
  -27.3510  -37.2310   24.8280 C   0  0  0  0  0  1  0  0  0  0  0  0
  -26.3230  -37.3650   23.8000 N   0  0  0  0  0  0  0  0  0  0  0  0
  -25.8980  -38.2840   23.8950 H   0  0  0  0  0  0  0  0  0  0  0  0
  -26.2360  -31.7200   25.2330 C   0  0  1  0  0  0  0  0  0  0  0  0
  -25.0680  -31.4850   26.2200 C   0  0  0  0  0  1  0  0  0  0  0  0
  -26.8640  -30.3440   24.9110 C   0  0  0  0  0  1  0  0  0  0  0  0
  -27.3240  -32.5370   25.9680 C   0  0  0  0  0  1  0  0  0  0  0  0
  1  2  1  0
  3  6  2  0
  3  4  1  0
  4  1  2  0
  5  8  1  0
  5  2  2  0
  6  5  1  0
  7  9  1  0
  7  6  1  0
  9 10  1  0
 10 11  1  0
 11 49  1  0
 11  8  1  0
 11 12  1  6
 13 19  1  0
 13  4  1  0
 14 19  1  0
 15 16  1  0
 15 14  1  0
 17 16  1  0
 17 24  1  0
 17 18  1  0
 19 18  1  0
 20 13  2  0
 21 22  2  0
 22 41  1  0
 23 22  1  0
 23 26  1  0
 24 25  1  0
 24 21  1  0
 25 23  2  0
 26 27  1  0
 27 28  2  0
 29 32  1  0
 29 28  1  0
 30 29  2  0
 31 30  1  0
 31 26  2  0
 32 33  1  0
 33 34  1  0
 34 35  2  0
 36 35  1  0
 36 40  1  0
 37 36  2  0
 38 33  2  0
 38 37  1  0
 39 38  1  0
 41 42  1  0
 42 45  1  0
 42 44  1  0
 43 41  2  0
 46 21  1  0
 46 47  1  0
 48 46  1  0
 50 51  1  0
 50 49  2  0
 52 63  2  0
 53 51  1  0
 53 58  1  0
 54 62  1  0
 54 64  1  0
 55 61  1  0
 55 57  1  0
 56 62  1  0
 57 58  2  0
 57 56  1  0
 59 53  2  0
 60 59  1  0
 60 55  2  0
 61 54  1  0
 62 52  1  0
 64 66  2  0
 65 64  1  0
 67 65  1  0
 68 77  2  0
 68 73  1  0
 69 65  1  0
 69 73  1  0
 70 69  1  0
 71 72  1  0
 71 70  1  0
 72 68  1  0
 73 74  2  0
 74 75  1  0
 76 75  2  0
 77 76  1  0
 78 52  1  0
 78 79  1  0
 78 88  1  0
 79 82  1  0
 80 84  1  0
 80 79  1  0
 81 80  2  0
 84 83  1  0
 86 84  1  0
 86 87  1  0
 86 85  1  0
 88 91  1  1
 88 89  1  0
 90 88  1  0
M  ISO  4   4 100  13 100  50 101  51 101
M  END
>  <TORSDO>  (72) 
F 18

>  <SCORE>  (72) 
-14.273

>  <name>  (72) 
71

>  <ligand_id>  (72) 
71

>  <original_smiles>  (72) 
[H]c1c([H])c([H])c2c(c1[H])C([H])([H])C([H])([H])C([H])([H])C2([H])N([H])C(=O)C1([H])N(C(=O)C([H])(N([H])C(=O)C([H])(N([H])C([H])([H])[H])C([H])([H])[H])C(C([H])([H])[H])(C([H])([H])[H])C([H])([H])[H])C([H])([H])c2c([H])c(OC([H])([H])C([H])([H])[N+]3([H])C([H])([H])c4c([H])c([H])c(C(=O)N5C([H])([H])C([H])([H])C([H])([H])C([H])(n6nc(-c7c([H])c([H])c(Oc8c([H])c([H])c(F)c([H])c8F)c([H])c7[H])c(C(=O)N([H])[H])c6N([H])[H])C5([H])[H])c([H])c4C([H])([H])C([H])([H])C3([H])[H])c([H])c([H])c2C1([H])[H]

>  <smiles>  (72) 
[H]c1c([H])c([H])c2c(c1[H])C([H])([H])C([H])([H])C([H])([H])C2([H])N([H])C(=O)C1([H])N(C(=O)C([H])(N([H])C(=O)C([H])(N([H])C([H])([H])[H])C([H])([H])[H])C(C([H])([H])[H])(C([H])([H])[H])C([H])([H])[H])C([H])([H])c2c([H])c(OC([H])([H])C([H])([H])[N+]3([H])C([H])([H])c4c([H])c([H])c(C(=O)N5C([H])([H])C([H])([H])C([H])([H])C([H])(n6nc(-c7c([H])c([H])c(Oc8c([H])c([H])c(F)c([H])c8F)c([H])c7[H])c(C(=O)N([H])[H])c6N([H])[H])C5([H])[H])c([H])c4C([H])([H])C([H])([H])C3([H])[H])c([H])c([H])c2C1([H])[H]

$$$$
72:0:0
     RDKit          3D

 95103  0  0  1  0  0  0  0  0999 V2000
  -29.8910  -24.3860   17.4790 C   0  0  0  0  0  3  0  0  0  0  0  0
  -30.4560  -22.2460   18.4920 C   0  0  0  0  0  3  0  0  0  0  0  0
  -29.3700  -23.9760   19.8250 C   0  0  0  0  0  3  0  0  0  0  0  0
  -30.4260  -23.0890   17.3660 C   0  0  0  0  0  0  0  0  0  0  0  0
  -29.3750  -24.8450   18.7060 C   0  0  0  0  0  0  0  0  0  0  0  0
  -29.9220  -22.6680   19.7310 C   0  0  0  0  0  0  0  0  0  0  0  0
  -30.9890  -22.6110   16.0400 C   0  0  0  0  0  1  0  0  0  0  0  0
  -29.6700  -22.3730   22.2870 C   0  0  0  0  0  1  0  0  0  0  0  0
  -30.0270  -21.7210   20.9390 C   0  0  0  0  0  3  0  0  0  0  0  0
  -29.2450  -20.4660   20.7610 N   0  0  0  0  0  4  0  0  0  0  0  0
  -28.9000  -20.2140   21.6710 H   0  0  0  0  0  0  0  0  0  0  0  0
  -28.4440  -20.6530   20.1790 H   0  0  0  0  0  0  0  0  0  0  0  0
  -30.0030  -19.2990   20.2360 C   0  0  0  0  0  2  0  0  0  0  0  0
  -29.4980  -17.9250   20.7470 C   0  0  0  0  0  2  0  0  0  0  0  0
  -30.4930  -16.8100   20.3400 C   0  0  0  0  0  2  0  0  0  0  0  0
  -30.7450  -14.4140   20.1540 C   0  0  0  0  0  0  0  0  0  0  0  0
  -30.2710  -12.3360   18.9140 C   0  0  0  0  0  2  0  0  0  0  0  0
  -29.2690  -12.6140   17.7770 C   0  0  0  0  0  2  0  0  0  0  0  0
  -27.8240  -12.4700   18.2880 C   0  0  0  0  0  2  0  0  0  0  0  0
  -27.5740  -13.2610   19.6010 C   0  0  0  0  0  3  0  0  0  0  0  0
  -28.6900  -12.9990   20.6360 C   0  0  0  0  0  2  0  0  0  0  0  0
  -29.9870  -13.2890   20.0020 N   0  0  0  0  0  0  0  0  0  0  0  0
  -31.7930  -14.5830   19.5210 O   0  0  0  0  0  0  0  0  0  0  0  0
  -30.2590  -15.3750   22.3180 C   0  0  0  0  0  1  0  0  0  0  0  0
  -30.2090  -15.4480   20.8520 N   0  0  0  0  0  0  0  0  0  0  0  0
  -25.2190  -13.8560   20.4550 C   0  0  0  0  0  0  0  0  0  0  0  0
  -24.1730  -13.0780   20.8690 C   0  0  0  0  0  0  0  0  0  0  0  0
  -24.6290  -11.7250   20.7880 C   0  0  0  0  0  0  0  0  0  0  0  0
  -26.2490  -12.9790   20.1490 N   0  0  0  0  0  0  0  0  0  0  0  0
  -25.8990  -11.6910   20.4060 N   0  0  0  0  0  0  0  0  0  0  0  0
  -23.9120  -10.4600   20.9950 C   0  0  0  0  0  0  0  0  0  0  0  0
  -24.3860   -9.4850   21.8990 C   0  0  0  0  0  3  0  0  0  0  0  0
  -23.6710   -8.2840   22.0970 C   0  0  0  0  0  3  0  0  0  0  0  0
  -22.4670   -8.0500   21.3900 C   0  0  0  0  0  0  0  0  0  0  0  0
  -22.0110   -9.0160   20.4760 C   0  0  0  0  0  3  0  0  0  0  0  0
  -22.7280  -10.2070   20.2760 C   0  0  0  0  0  3  0  0  0  0  0  0
  -21.7190   -6.9030   21.4980 O   0  0  0  0  0  0  0  0  0  0  0  0
  -21.7070   -6.1560   22.6490 C   0  0  0  0  0  0  0  0  0  0  0  0
  -21.3400   -6.7100   23.8940 C   0  0  0  0  0  3  0  0  0  0  0  0
  -21.2750   -5.8910   25.0380 C   0  0  0  0  0  3  0  0  0  0  0  0
  -21.5680   -4.5170   24.9380 C   0  0  0  0  0  0  0  0  0  0  0  0
  -21.9270   -3.9620   23.6990 C   0  0  0  0  0  3  0  0  0  0  0  0
  -21.9940   -4.7790   22.5560 C   0  0  0  0  0  0  0  0  0  0  0  0
  -22.3210   -4.2340   21.3590 F   0  0  0  0  0  0  0  0  0  0  0  0
  -21.4970   -3.7290   26.0360 F   0  0  0  0  0  0  0  0  0  0  0  0
  -22.7950  -13.5510   21.2300 C   0  0  0  0  0  0  0  0  0  0  0  0
  -22.1230  -12.8510   22.1370 N   0  0  0  0  0  0  0  0  0  0  0  0
  -22.3230  -14.5770   20.7390 O   0  0  0  0  0  0  0  0  0  0  0  0
  -22.5180  -12.0210   22.5540 H   0  0  0  0  0  0  0  0  0  0  0  0
  -21.1980  -13.1480   22.4180 H   0  0  0  0  0  0  0  0  0  0  0  0
  -25.3750  -15.2290   20.2940 N   0  0  0  0  0  0  0  0  0  0  0  0
  -24.6210  -15.8840   20.4710 H   0  0  0  0  0  0  0  0  0  0  0  0
  -26.2160  -15.6770   19.9500 H   0  0  0  0  0  0  0  0  0  0  0  0
  -28.8460  -26.2750   18.7660 C   0  0  0  0  0  2  0  0  0  0  0  0
  -28.4190  -26.7130   20.0600 O   0  0  0  0  0  0  0  0  0  0  0  0
  -24.6260  -31.8570   23.2090 C   0  0  0  0  0  0  0  0  0  0  0  0
  -27.2450  -27.4300   20.0910 C   0  0  0  0  0  0  0  0  0  0  0  0
  -23.4040  -30.4570   21.5760 C   0  0  0  0  0  3  0  0  0  0  0  0
  -24.8440  -28.9170   20.1420 C   0  0  0  0  0  0  0  0  0  0  0  0
  -25.9270  -30.8160   21.3570 C   0  0  0  0  0  2  0  0  0  0  0  0
  -26.0060  -29.4420   20.7220 C   0  0  0  0  0  0  0  0  0  0  0  0
  -27.2060  -28.7000   20.7080 C   0  0  0  0  0  3  0  0  0  0  0  0
  -26.0600  -26.9010   19.5350 C   0  0  0  0  0  3  0  0  0  0  0  0
  -24.8630  -27.6400   19.5530 C   0  0  0  0  0  3  0  0  0  0  0  0
  -23.6020  -29.7780   20.1940 C   0  0  0  0  0  2  0  0  0  0  0  0
  -24.6720  -31.0570   22.1060 N   0  0  0  0  0  0  0  0  0  0  0  0
  -23.5500  -32.1290   23.7600 O   0  0  0  0  0  0  0  0  0  0  0  0
  -22.7610  -29.4360   22.5410 C   0  0  0  0  0  0  0  0  0  0  0  0
  -21.4350  -29.2580   22.4280 N   0  0  0  0  0  0  0  0  0  0  0  0
  -23.4510  -28.8060   23.3480 O   0  0  0  0  0  0  0  0  0  0  0  0
  -20.9410  -29.8180   21.7480 H   0  0  0  0  0  0  0  0  0  0  0  0
  -18.0620  -28.0730   22.9510 C   0  0  0  0  0  0  0  0  0  0  0  0
  -20.6230  -28.3220   23.2060 C   0  0  0  0  0  3  0  0  0  0  0  0
  -20.7170  -26.8920   22.6280 C   0  0  0  0  0  2  0  0  0  0  0  0
  -19.6070  -26.5720   21.6220 C   0  0  0  0  0  2  0  0  0  0  0  0
  -18.2300  -26.7230   22.2750 C   0  0  0  0  0  2  0  0  0  0  0  0
  -19.1860  -28.8310   23.3740 C   0  0  0  0  0  0  0  0  0  0  0  0
  -18.9760  -30.0950   23.9650 C   0  0  0  0  0  3  0  0  0  0  0  0
  -17.6740  -30.6010   24.1410 C   0  0  0  0  0  3  0  0  0  0  0  0
  -16.5640  -29.8400   23.7340 C   0  0  0  0  0  3  0  0  0  0  0  0
  -16.7590  -28.5780   23.1450 C   0  0  0  0  0  3  0  0  0  0  0  0
  -25.9190  -32.4850   23.8180 C   0  0  0  0  0  3  0  0  0  0  0  0
  -25.6110  -33.8770   24.1710 N   0  0  0  0  0  0  0  0  0  0  0  0
  -25.9180  -34.9380   23.4150 C   0  0  0  0  0  0  0  0  0  0  0  0
  -26.5650  -34.8500   22.3670 O   0  0  0  0  0  0  0  0  0  0  0  0
  -25.0360  -34.0190   24.9890 H   0  0  0  0  0  0  0  0  0  0  0  0
  -24.1650  -36.7170   23.1230 C   0  0  0  0  0  1  0  0  0  0  0  0
  -25.4320  -36.3190   23.8970 C   0  0  0  0  0  3  0  0  0  0  0  0
  -27.5840  -37.2130   24.6720 C   0  0  0  0  0  1  0  0  0  0  0  0
  -26.4520  -37.3820   23.7640 N   0  0  0  0  0  0  0  0  0  0  0  0
  -26.0440  -38.2970   23.9330 H   0  0  0  0  0  0  0  0  0  0  0  0
  -26.4620  -31.6970   25.0730 C   0  0  1  0  0  0  0  0  0  0  0  0
  -25.3900  -31.4390   26.1570 C   0  0  0  0  0  1  0  0  0  0  0  0
  -27.0420  -30.3280   24.6470 C   0  0  0  0  0  1  0  0  0  0  0  0
  -27.6240  -32.4850   25.7230 C   0  0  0  0  0  1  0  0  0  0  0  0
  1  5  1  0
  2  6  2  0
  4  1  2  0
  4  2  1  0
  5 54  1  0
  5  3  2  0
  6  3  1  0
  6  9  1  0
  7  4  1  0
  9  8  1  0
 10  9  1  0
 10 11  1  0
 12 10  1  0
 13 14  1  0
 13 10  1  0
 15 14  1  0
 15 25  1  0
 16 25  1  0
 17 22  1  0
 18 19  1  0
 18 17  1  0
 20 19  1  0
 20 29  1  0
 20 21  1  0
 22 16  1  0
 22 21  1  0
 23 16  2  0
 25 24  1  0
 26 27  2  0
 27 46  1  0
 28 27  1  0
 28 31  1  0
 29 30  1  0
 29 26  1  0
 30 28  2  0
 31 32  1  0
 32 33  2  0
 34 37  1  0
 34 33  1  0
 35 34  2  0
 36 35  1  0
 36 31  2  0
 37 38  1  0
 38 39  1  0
 39 40  2  0
 41 40  1  0
 41 45  1  0
 42 41  2  0
 43 38  2  0
 43 42  1  0
 44 43  1  0
 46 47  1  0
 47 50  1  0
 47 49  1  0
 48 46  2  0
 51 26  1  0
 51 52  1  0
 53 51  1  0
 54 55  1  0
 55 57  1  0
 56 67  2  0
 57 62  1  0
 58 66  1  0
 58 68  1  0
 59 65  1  0
 59 61  1  0
 60 66  1  0
 61 60  1  0
 62 61  2  0
 63 64  1  0
 63 57  2  0
 64 59  2  0
 65 58  1  0
 66 56  1  0
 68 70  2  0
 69 68  1  0
 71 69  1  0
 72 81  2  0
 72 77  1  0
 73 69  1  0
 73 77  1  0
 74 73  1  0
 75 76  1  0
 75 74  1  0
 76 72  1  0
 77 78  2  0
 78 79  1  0
 80 79  2  0
 81 80  1  0
 82 56  1  0
 82 83  1  0
 82 92  1  0
 83 86  1  0
 84 88  1  0
 84 83  1  0
 85 84  2  0
 88 87  1  0
 90 88  1  0
 90 91  1  0
 90 89  1  0
 92 95  1  1
 92 93  1  0
 94 92  1  0
M  ISO  4  16 100  25 100  54 101  55 101
M  END
>  <TORSDO>  (73) 
F 22

>  <SCORE>  (73) 
-12.265

>  <name>  (73) 
72

>  <ligand_id>  (73) 
72

>  <original_smiles>  (73) 
[H]c1c([H])c([H])c2c(c1[H])C([H])([H])C([H])([H])C([H])([H])C2([H])N([H])C(=O)C1([H])N(C(=O)C([H])(N([H])C(=O)C([H])(N([H])C([H])([H])[H])C([H])([H])[H])C(C([H])([H])[H])(C([H])([H])[H])C([H])([H])[H])C([H])([H])c2c([H])c(OC([H])([H])c3c([H])c(C([H])([H])[H])c([H])c(C([H])(C([H])([H])[H])[N+]([H])([H])C([H])([H])C([H])([H])C([H])([H])N(C(=O)N4C([H])([H])C([H])([H])C([H])([H])C([H])(n5nc(-c6c([H])c([H])c(Oc7c([H])c([H])c(F)c([H])c7F)c([H])c6[H])c(C(=O)N([H])[H])c5N([H])[H])C4([H])[H])C([H])([H])[H])c3[H])c([H])c([H])c2C1([H])[H]

>  <smiles>  (73) 
[H]c1c([H])c([H])c2c(c1[H])C([H])([H])C([H])([H])C([H])([H])C2([H])N([H])C(=O)C1([H])N(C(=O)C([H])(N([H])C(=O)C([H])(N([H])C([H])([H])[H])C([H])([H])[H])C(C([H])([H])[H])(C([H])([H])[H])C([H])([H])[H])C([H])([H])c2c([H])c(OC([H])([H])c3c([H])c(C([H])([H])[H])c([H])c(C([H])(C([H])([H])[H])[N+]([H])([H])C([H])([H])C([H])([H])C([H])([H])N(C(=O)N4C([H])([H])C([H])([H])C([H])([H])C([H])(n5nc(-c6c([H])c([H])c(Oc7c([H])c([H])c(F)c([H])c7F)c([H])c6[H])c(C(=O)N([H])[H])c5N([H])[H])C4([H])[H])C([H])([H])[H])c3[H])c([H])c([H])c2C1([H])[H]

$$$$
73:0:0
     RDKit          3D

 93101  0  0  1  0  0  0  0  0999 V2000
  -29.0770  -22.8800   18.7090 C   0  0  0  0  0  3  0  0  0  0  0  0
  -29.3030  -21.5100   19.0490 C   0  0  0  0  0  3  0  0  0  0  0  0
  -28.6480  -23.4300   21.0080 C   0  0  0  0  0  3  0  0  0  0  0  0
  -28.7700  -23.8870   19.6710 C   0  0  0  0  0  0  0  0  0  0  0  0
  -29.2290  -21.0640   20.3920 C   0  0  0  0  0  0  0  0  0  0  0  0
  -28.8640  -22.0560   21.3530 C   0  0  0  0  0  0  0  0  0  0  0  0
  -28.6900  -21.6460   22.6760 N   0  0  0  0  0  0  0  0  0  0  0  0
  -28.1230  -22.2580   23.2530 H   0  0  0  0  0  0  0  0  0  0  0  0
  -28.3700  -20.6870   22.7580 H   0  0  0  0  0  0  0  0  0  0  0  0
  -29.5380  -19.7360   20.8500 N   0  0  0  0  0  0  0  0  0  0  0  0
  -29.6430  -19.6790   21.8580 H   0  0  0  0  0  0  0  0  0  0  0  0
  -29.6010  -18.4350   20.1080 C   0  0  0  0  0  2  0  0  0  0  0  0
  -30.3730  -17.2620   20.8770 C   0  0  0  0  0  2  0  0  0  0  0  0
  -30.7320  -14.7270   20.4050 C   0  0  0  0  0  0  0  0  0  0  0  0
  -30.5150  -12.4760   19.3650 C   0  0  0  0  0  2  0  0  0  0  0  0
  -29.5880  -12.5900   18.1350 C   0  0  0  0  0  2  0  0  0  0  0  0
  -28.1100  -12.4390   18.5520 C   0  0  0  0  0  2  0  0  0  0  0  0
  -27.7400  -13.3190   19.7770 C   0  0  0  0  0  3  0  0  0  0  0  0
  -28.7870  -13.1850   20.9040 C   0  0  0  0  0  2  0  0  0  0  0  0
  -30.0950  -13.5160   20.3250 N   0  0  0  0  0  0  0  0  0  0  0  0
  -31.9150  -14.8450   20.0770 O   0  0  0  0  0  0  0  0  0  0  0  0
  -29.9580  -15.8270   20.6730 N   0  0  0  0  0  0  0  0  0  0  0  0
  -28.9880  -15.6270   20.8670 H   0  0  0  0  0  0  0  0  0  0  0  0
  -25.3400  -13.9270   20.4600 C   0  0  0  0  0  0  0  0  0  0  0  0
  -24.2680  -13.1580   20.8230 C   0  0  0  0  0  0  0  0  0  0  0  0
  -24.7290  -11.8060   20.8130 C   0  0  0  0  0  0  0  0  0  0  0  0
  -26.3870  -13.0430   20.2500 N   0  0  0  0  0  0  0  0  0  0  0  0
  -26.0240  -11.7630   20.5220 N   0  0  0  0  0  0  0  0  0  0  0  0
  -23.9980  -10.5470   21.0030 C   0  0  0  0  0  0  0  0  0  0  0  0
  -24.4240   -9.5820   21.9430 C   0  0  0  0  0  3  0  0  0  0  0  0
  -23.6920   -8.3860   22.1220 C   0  0  0  0  0  3  0  0  0  0  0  0
  -22.5230   -8.1490   21.3610 C   0  0  0  0  0  0  0  0  0  0  0  0
  -22.1180   -9.1030   20.4110 C   0  0  0  0  0  3  0  0  0  0  0  0
  -22.8500  -10.2890   20.2310 C   0  0  0  0  0  3  0  0  0  0  0  0
  -21.7640   -7.0070   21.4500 O   0  0  0  0  0  0  0  0  0  0  0  0
  -21.7110   -6.2670   22.6030 C   0  0  0  0  0  0  0  0  0  0  0  0
  -21.2810   -6.8250   23.8280 C   0  0  0  0  0  3  0  0  0  0  0  0
  -21.1760   -6.0100   24.9730 C   0  0  0  0  0  3  0  0  0  0  0  0
  -21.4900   -4.6400   24.8950 C   0  0  0  0  0  0  0  0  0  0  0  0
  -21.9110   -4.0820   23.6770 C   0  0  0  0  0  3  0  0  0  0  0  0
  -22.0200   -4.8930   22.5330 C   0  0  0  0  0  0  0  0  0  0  0  0
  -22.4080   -4.3470   21.3550 F   0  0  0  0  0  0  0  0  0  0  0  0
  -21.3800   -3.8560   25.9940 F   0  0  0  0  0  0  0  0  0  0  0  0
  -22.8680  -13.6400   21.0720 C   0  0  0  0  0  0  0  0  0  0  0  0
  -22.1280  -12.9530   21.9330 N   0  0  0  0  0  0  0  0  0  0  0  0
  -22.4410  -14.6620   20.5360 O   0  0  0  0  0  0  0  0  0  0  0  0
  -22.4840  -12.1230   22.3840 H   0  0  0  0  0  0  0  0  0  0  0  0
  -21.1900  -13.2620   22.1480 H   0  0  0  0  0  0  0  0  0  0  0  0
  -25.5100  -15.2950   20.2680 N   0  0  0  0  0  0  0  0  0  0  0  0
  -24.7440  -15.9540   20.3550 H   0  0  0  0  0  0  0  0  0  0  0  0
  -26.3590  -15.7230   19.9200 H   0  0  0  0  0  0  0  0  0  0  0  0
  -28.5690  -25.3780   19.1820 C   0  0  0  0  0  2  0  0  0  0  0  0
  -28.4000  -26.5230   20.1050 O   0  0  0  0  0  0  0  0  0  0  0  0
  -24.6470  -31.8840   23.1830 C   0  0  0  0  0  0  0  0  0  0  0  0
  -27.2680  -27.3560   20.0560 C   0  0  0  0  0  0  0  0  0  0  0  0
  -23.4430  -30.4840   21.5470 C   0  0  0  0  0  3  0  0  0  0  0  0
  -24.8930  -28.9570   20.0950 C   0  0  0  0  0  0  0  0  0  0  0  0
  -25.9810  -30.8180   21.3470 C   0  0  0  0  0  2  0  0  0  0  0  0
  -26.0640  -29.4450   20.6880 C   0  0  0  0  0  0  0  0  0  0  0  0
  -27.2500  -28.6520   20.6680 C   0  0  0  0  0  3  0  0  0  0  0  0
  -26.0640  -26.9150   19.4630 C   0  0  0  0  0  3  0  0  0  0  0  0
  -24.8950  -27.6990   19.4760 C   0  0  0  0  0  3  0  0  0  0  0  0
  -23.6510  -29.8240   20.1600 C   0  0  0  0  0  2  0  0  0  0  0  0
  -24.7100  -31.0790   22.0830 N   0  0  0  0  0  0  0  0  0  0  0  0
  -23.5660  -32.1550   23.7250 O   0  0  0  0  0  0  0  0  0  0  0  0
  -22.7940  -29.4560   22.5040 C   0  0  0  0  0  0  0  0  0  0  0  0
  -21.4660  -29.2780   22.3930 N   0  0  0  0  0  0  0  0  0  0  0  0
  -23.4820  -28.8240   23.3090 O   0  0  0  0  0  0  0  0  0  0  0  0
  -20.9670  -29.8470   21.7230 H   0  0  0  0  0  0  0  0  0  0  0  0
  -18.0960  -28.0680   22.9150 C   0  0  0  0  0  0  0  0  0  0  0  0
  -20.6570  -28.3320   23.1630 C   0  0  0  0  0  3  0  0  0  0  0  0
  -20.7560  -26.9050   22.5770 C   0  0  0  0  0  2  0  0  0  0  0  0
  -19.6450  -26.5880   21.5710 C   0  0  0  0  0  2  0  0  0  0  0  0
  -18.2690  -26.7240   22.2280 C   0  0  0  0  0  2  0  0  0  0  0  0
  -19.2170  -28.8310   23.3390 C   0  0  0  0  0  0  0  0  0  0  0  0
  -19.0000  -30.0890   23.9390 C   0  0  0  0  0  3  0  0  0  0  0  0
  -17.6960  -30.5860   24.1210 C   0  0  0  0  0  3  0  0  0  0  0  0
  -16.5900  -29.8200   23.7140 C   0  0  0  0  0  3  0  0  0  0  0  0
  -16.7910  -28.5640   23.1160 C   0  0  0  0  0  3  0  0  0  0  0  0
  -25.9300  -32.5230   23.8000 C   0  0  0  0  0  3  0  0  0  0  0  0
  -25.6080  -33.9150   24.1540 N   0  0  0  0  0  0  0  0  0  0  0  0
  -25.9150  -34.9810   23.4030 C   0  0  0  0  0  0  0  0  0  0  0  0
  -26.5670  -34.8970   22.3580 O   0  0  0  0  0  0  0  0  0  0  0  0
  -25.0250  -34.0530   24.9680 H   0  0  0  0  0  0  0  0  0  0  0  0
  -24.1590  -36.7570   23.1020 C   0  0  0  0  0  1  0  0  0  0  0  0
  -25.4200  -36.3580   23.8840 C   0  0  0  0  0  3  0  0  0  0  0  0
  -27.5590  -37.2580   24.6870 C   0  0  0  0  0  1  0  0  0  0  0  0
  -26.4380  -37.4250   23.7660 N   0  0  0  0  0  0  0  0  0  0  0  0
  -26.0240  -38.3370   23.9360 H   0  0  0  0  0  0  0  0  0  0  0  0
  -26.4670  -31.7440   25.0620 C   0  0  1  0  0  0  0  0  0  0  0  0
  -25.3880  -31.4810   26.1390 C   0  0  0  0  0  1  0  0  0  0  0  0
  -27.0610  -30.3760   24.6500 C   0  0  0  0  0  1  0  0  0  0  0  0
  -27.6180  -32.5420   25.7210 C   0  0  0  0  0  1  0  0  0  0  0  0
  1  2  2  0
  1  4  1  0
  2  5  1  0
  3  6  1  0
  4  3  2  0
  5 10  1  0
  5  6  2  0
  6  7  1  0
  7  9  1  0
  7  8  1  0
 10 11  1  0
 12 10  1  0
 12 13  1  0
 14 22  1  0
 15 20  1  0
 16 17  1  0
 16 15  1  0
 18 17  1  0
 18 27  1  0
 18 19  1  0
 20 14  1  0
 20 19  1  0
 21 14  2  0
 22 23  1  0
 22 13  1  0
 24 25  2  0
 25 44  1  0
 26 25  1  0
 26 29  1  0
 27 24  1  0
 27 28  1  0
 28 26  2  0
 29 30  1  0
 30 31  2  0
 32 35  1  0
 32 31  1  0
 33 32  2  0
 34 33  1  0
 34 29  2  0
 35 36  1  0
 36 37  1  0
 37 38  2  0
 39 38  1  0
 39 43  1  0
 40 39  2  0
 41 36  2  0
 41 40  1  0
 42 41  1  0
 44 45  1  0
 45 48  1  0
 45 47  1  0
 46 44  2  0
 49 50  1  0
 49 24  1  0
 51 49  1  0
 52  4  1  0
 52 53  1  0
 54 65  2  0
 55 53  1  0
 55 60  1  0
 56 64  1  0
 56 66  1  0
 57 63  1  0
 57 59  1  0
 58 64  1  0
 59 58  1  0
 60 59  2  0
 61 62  1  0
 61 55  2  0
 62 57  2  0
 63 56  1  0
 64 54  1  0
 66 68  2  0
 67 66  1  0
 69 67  1  0
 70 79  2  0
 70 75  1  0
 71 67  1  0
 71 75  1  0
 72 71  1  0
 73 74  1  0
 73 72  1  0
 74 70  1  0
 75 76  2  0
 76 77  1  0
 78 77  2  0
 79 78  1  0
 80 54  1  0
 80 81  1  0
 80 90  1  0
 81 84  1  0
 82 86  1  0
 82 81  1  0
 83 82  2  0
 86 85  1  0
 88 86  1  0
 88 89  1  0
 88 87  1  0
 90 93  1  1
 90 91  1  0
 92 90  1  0
M  ISO  4  14 100  22 100  52 101  53 101
M  END
>  <TORSDO>  (74) 
F 21

>  <SCORE>  (74) 
-13.828

>  <name>  (74) 
73

>  <ligand_id>  (74) 
73

>  <original_smiles>  (74) 
[H]c1c([H])c([H])c2c(c1[H])C([H])([H])C([H])([H])C([H])([H])C2([H])N([H])C(=O)C1([H])N(C(=O)C([H])(N([H])C(=O)C([H])(N([H])C([H])([H])[H])C([H])([H])[H])C(C([H])([H])[H])(C([H])([H])[H])C([H])([H])[H])C([H])([H])c2c([H])c(OC([H])([H])c3c([H])c([H])c(N([H])C([H])([H])C([H])([H])N([H])C(=O)N4C([H])([H])C([H])([H])C([H])([H])C([H])(n5nc(-c6c([H])c([H])c(Oc7c([H])c([H])c(F)c([H])c7F)c([H])c6[H])c(C(=O)N([H])[H])c5N([H])[H])C4([H])[H])c(N([H])[H])c3[H])c([H])c([H])c2C1([H])[H]

>  <smiles>  (74) 
[H]c1c([H])c([H])c2c(c1[H])C([H])([H])C([H])([H])C([H])([H])C2([H])N([H])C(=O)C1([H])N(C(=O)C([H])(N([H])C(=O)C([H])(N([H])C([H])([H])[H])C([H])([H])[H])C(C([H])([H])[H])(C([H])([H])[H])C([H])([H])[H])C([H])([H])c2c([H])c(OC([H])([H])c3c([H])c([H])c(N([H])C([H])([H])C([H])([H])N([H])C(=O)N4C([H])([H])C([H])([H])C([H])([H])C([H])(n5nc(-c6c([H])c([H])c(Oc7c([H])c([H])c(F)c([H])c7F)c([H])c6[H])c(C(=O)N([H])[H])c5N([H])[H])C4([H])[H])c(N([H])[H])c3[H])c([H])c([H])c2C1([H])[H]

$$$$
74:0:0
     RDKit          3D

 91 99  0  0  1  0  0  0  0  0999 V2000
  -30.5350  -20.0930   22.5690 C   0  0  0  0  0  3  0  0  0  0  0  0
  -30.0220  -21.2580   21.9590 C   0  0  0  0  0  3  0  0  0  0  0  0
  -29.4500  -19.9200   20.0250 C   0  0  0  0  0  3  0  0  0  0  0  0
  -30.5330  -18.8340   21.9220 C   0  0  0  0  0  0  0  0  0  0  0  0
  -29.9800  -18.7020   20.6220 C   0  0  0  0  0  0  0  0  0  0  0  0
  -29.4610  -21.2250   20.6640 C   0  0  0  0  0  0  0  0  0  0  0  0
  -31.1760  -17.6590   22.6410 C   0  0  0  0  0  1  0  0  0  0  0  0
  -28.9420  -22.4380   20.0620 N   0  0  0  0  0  0  0  0  0  0  0  0
  -28.5880  -22.3600   19.1120 H   0  0  0  0  0  0  0  0  0  0  0  0
  -29.1010  -23.8590   20.5790 C   0  0  0  0  0  3  0  0  0  0  0  0
  -28.1360  -25.0060   19.9740 C   0  0  0  0  0  3  0  0  0  0  0  0
  -28.3160  -26.4630   20.2910 O   0  0  0  0  0  0  0  0  0  0  0  0
  -24.6110  -31.9420   23.2530 C   0  0  0  0  0  0  0  0  0  0  0  0
  -27.2130  -27.3460   20.2070 C   0  0  0  0  0  0  0  0  0  0  0  0
  -23.4030  -30.5410   21.6200 C   0  0  0  0  0  3  0  0  0  0  0  0
  -24.8510  -28.9870   20.1860 C   0  0  0  0  0  0  0  0  0  0  0  0
  -25.9430  -30.8510   21.4300 C   0  0  0  0  0  2  0  0  0  0  0  0
  -26.0210  -29.4670   20.7890 C   0  0  0  0  0  0  0  0  0  0  0  0
  -27.2000  -28.6570   20.7930 C   0  0  0  0  0  3  0  0  0  0  0  0
  -26.0230  -26.9440   19.5550 C   0  0  0  0  0  3  0  0  0  0  0  0
  -24.8580  -27.7330   19.5560 C   0  0  0  0  0  3  0  0  0  0  0  0
  -23.6120  -29.8600   20.2400 C   0  0  0  0  0  2  0  0  0  0  0  0
  -24.6720  -31.1290   22.1580 N   0  0  0  0  0  0  0  0  0  0  0  0
  -23.5290  -32.2230   23.7880 O   0  0  0  0  0  0  0  0  0  0  0  0
  -22.7390  -29.5280   22.5850 C   0  0  0  0  0  0  0  0  0  0  0  0
  -21.4130  -29.3500   22.4580 N   0  0  0  0  0  0  0  0  0  0  0  0
  -23.4180  -28.9050   23.4060 O   0  0  0  0  0  0  0  0  0  0  0  0
  -20.9260  -29.9070   21.7710 H   0  0  0  0  0  0  0  0  0  0  0  0
  -18.0350  -28.1560   22.9650 C   0  0  0  0  0  0  0  0  0  0  0  0
  -20.5930  -28.4160   23.2320 C   0  0  0  0  0  3  0  0  0  0  0  0
  -20.6940  -26.9820   22.6600 C   0  0  0  0  0  2  0  0  0  0  0  0
  -19.5900  -26.6570   21.6490 C   0  0  0  0  0  2  0  0  0  0  0  0
  -18.2100  -26.8040   22.2930 C   0  0  0  0  0  2  0  0  0  0  0  0
  -19.1540  -28.9200   23.3910 C   0  0  0  0  0  0  0  0  0  0  0  0
  -18.9360  -30.1840   23.9780 C   0  0  0  0  0  3  0  0  0  0  0  0
  -17.6310  -30.6850   24.1480 C   0  0  0  0  0  3  0  0  0  0  0  0
  -16.5270  -29.9180   23.7370 C   0  0  0  0  0  3  0  0  0  0  0  0
  -16.7280  -28.6570   23.1500 C   0  0  0  0  0  3  0  0  0  0  0  0
  -25.8950  -32.5760   23.8710 C   0  0  0  0  0  3  0  0  0  0  0  0
  -26.4090  -31.8100   25.1520 C   0  0  1  0  0  0  0  0  0  0  0  0
  -25.3140  -31.5770   26.2210 C   0  0  0  0  0  1  0  0  0  0  0  0
  -26.9920  -30.4290   24.7670 C   0  0  0  0  0  1  0  0  0  0  0  0
  -27.5610  -32.6030   25.8100 C   0  0  0  0  0  1  0  0  0  0  0  0
  -25.5870  -33.9760   24.1980 N   0  0  0  0  0  0  0  0  0  0  0  0
  -25.9130  -35.0280   23.4340 C   0  0  0  0  0  0  0  0  0  0  0  0
  -26.5790  -34.9210   22.3990 O   0  0  0  0  0  0  0  0  0  0  0  0
  -24.9970  -34.1330   25.0010 H   0  0  0  0  0  0  0  0  0  0  0  0
  -24.1850  -36.8220   23.0820 C   0  0  0  0  0  1  0  0  0  0  0  0
  -25.4290  -36.4180   23.8890 C   0  0  0  0  0  3  0  0  0  0  0  0
  -27.5660  -37.3050   24.7100 C   0  0  0  0  0  1  0  0  0  0  0  0
  -26.4610  -37.4700   23.7690 N   0  0  0  0  0  0  0  0  0  0  0  0
  -26.0570  -38.3910   23.9130 H   0  0  0  0  0  0  0  0  0  0  0  0
  -30.0860  -17.3250   19.8240 C   0  0  0  0  0  2  0  0  0  0  0  0
  -30.6700  -14.8040   20.2350 C   0  0  0  0  0  0  0  0  0  0  0  0
  -30.4360  -12.5410   19.2270 C   0  0  0  0  0  2  0  0  0  0  0  0
  -29.4970  -12.6670   18.0080 C   0  0  0  0  0  2  0  0  0  0  0  0
  -28.0270  -12.4950   18.4380 C   0  0  0  0  0  2  0  0  0  0  0  0
  -27.6690  -13.3580   19.6790 C   0  0  0  0  0  3  0  0  0  0  0  0
  -28.7370  -13.2480   20.7930 C   0  0  0  0  0  2  0  0  0  0  0  0
  -30.0370  -13.5830   20.2000 N   0  0  0  0  0  0  0  0  0  0  0  0
  -31.8420  -14.9040   19.8640 O   0  0  0  0  0  0  0  0  0  0  0  0
  -29.8990  -15.9360   20.4350 N   0  0  0  0  0  0  0  0  0  0  0  0
  -28.9640  -15.7490   20.7640 H   0  0  0  0  0  0  0  0  0  0  0  0
  -25.2800  -13.9380   20.4060 C   0  0  0  0  0  0  0  0  0  0  0  0
  -24.2190  -13.1620   20.7850 C   0  0  0  0  0  0  0  0  0  0  0  0
  -24.6910  -11.8120   20.7640 C   0  0  0  0  0  0  0  0  0  0  0  0
  -26.3290  -13.0630   20.1760 N   0  0  0  0  0  0  0  0  0  0  0  0
  -25.9810  -11.7790   20.4520 N   0  0  0  0  0  0  0  0  0  0  0  0
  -23.9710  -10.5480   20.9670 C   0  0  0  0  0  0  0  0  0  0  0  0
  -24.4090   -9.5910   21.9110 C   0  0  0  0  0  3  0  0  0  0  0  0
  -23.6900   -8.3920   22.1000 C   0  0  0  0  0  3  0  0  0  0  0  0
  -22.5180   -8.1380   21.3470 C   0  0  0  0  0  0  0  0  0  0  0  0
  -22.1000   -9.0820   20.3930 C   0  0  0  0  0  3  0  0  0  0  0  0
  -22.8190  -10.2730   20.2020 C   0  0  0  0  0  3  0  0  0  0  0  0
  -21.7720   -6.9890   21.4460 O   0  0  0  0  0  0  0  0  0  0  0  0
  -21.7240   -6.2590   22.6060 C   0  0  0  0  0  0  0  0  0  0  0  0
  -21.2930   -6.8240   23.8260 C   0  0  0  0  0  3  0  0  0  0  0  0
  -21.1950   -6.0200   24.9800 C   0  0  0  0  0  3  0  0  0  0  0  0
  -21.5170   -4.6510   24.9130 C   0  0  0  0  0  0  0  0  0  0  0  0
  -21.9420   -4.0850   23.6970 C   0  0  0  0  0  3  0  0  0  0  0  0
  -22.0420   -4.8870   22.5470 C   0  0  0  0  0  0  0  0  0  0  0  0
  -22.4310   -4.3330   21.3720 F   0  0  0  0  0  0  0  0  0  0  0  0
  -21.4160   -3.8730   26.0160 F   0  0  0  0  0  0  0  0  0  0  0  0
  -22.8190  -13.6330   21.0530 C   0  0  0  0  0  0  0  0  0  0  0  0
  -22.0960  -12.9370   21.9220 N   0  0  0  0  0  0  0  0  0  0  0  0
  -22.3740  -14.6520   20.5250 O   0  0  0  0  0  0  0  0  0  0  0  0
  -22.4660  -12.1120   22.3680 H   0  0  0  0  0  0  0  0  0  0  0  0
  -21.1580  -13.2360   22.1460 H   0  0  0  0  0  0  0  0  0  0  0  0
  -25.4350  -15.3090   20.2150 N   0  0  0  0  0  0  0  0  0  0  0  0
  -24.6620  -15.9600   20.3040 H   0  0  0  0  0  0  0  0  0  0  0  0
  -26.2790  -15.7410   19.8620 H   0  0  0  0  0  0  0  0  0  0  0  0
  2  1  1  0
  3  5  2  0
  3  6  1  0
  4  1  2  0
  4  7  1  0
  5  4  1  0
  6  2  2  0
  8 10  1  0
  8  6  1  0
  9  8  1  0
 11 12  1  0
 11 10  2  0
 13 24  2  0
 14 12  1  0
 14 19  1  0
 15 23  1  0
 15 25  1  0
 16 22  1  0
 16 18  1  0
 17 23  1  0
 18 19  2  0
 18 17  1  0
 20 21  1  0
 20 14  2  0
 21 16  2  0
 22 15  1  0
 23 13  1  0
 25 27  2  0
 26 25  1  0
 28 26  1  0
 29 38  2  0
 29 34  1  0
 30 26  1  0
 30 34  1  0
 31 30  1  0
 32 33  1  0
 32 31  1  0
 33 29  1  0
 34 35  2  0
 35 36  1  0
 37 36  2  0
 38 37  1  0
 39 13  1  0
 39 44  1  0
 39 40  1  0
 40 43  1  1
 40 41  1  0
 42 40  1  0
 44 47  1  0
 45 49  1  0
 45 44  1  0
 46 45  2  0
 49 48  1  0
 51 49  1  0
 51 52  1  0
 51 50  1  0
 53 62  1  0
 53  5  1  0
 54 62  1  0
 55 60  1  0
 56 57  1  0
 56 55  1  0
 58 57  1  0
 58 67  1  0
 58 59  1  0
 60 54  1  0
 60 59  1  0
 61 54  2  0
 62 63  1  0
 64 65  2  0
 65 84  1  0
 66 65  1  0
 66 69  1  0
 67 64  1  0
 67 68  1  0
 68 66  2  0
 69 70  1  0
 70 71  2  0
 72 75  1  0
 72 71  1  0
 73 72  2  0
 74 73  1  0
 74 69  2  0
 75 76  1  0
 76 77  1  0
 77 78  2  0
 79 78  1  0
 79 83  1  0
 80 79  2  0
 81 76  2  0
 81 80  1  0
 82 81  1  0
 84 85  1  0
 85 88  1  0
 85 87  1  0
 86 84  2  0
 89 90  1  0
 89 64  1  0
 91 89  1  0
M  ISO  4  11 101  12 101  54 100  62 100
M  END
>  <TORSDO>  (75) 
F 20

>  <SCORE>  (75) 
-13.349

>  <name>  (75) 
74

>  <ligand_id>  (75) 
74

>  <original_smiles>  (75) 
[H]c1c([H])c([H])c2c(c1[H])C([H])([H])C([H])([H])C([H])([H])C2([H])N([H])C(=O)C1([H])N(C(=O)C([H])(N([H])C(=O)C([H])(N([H])C([H])([H])[H])C([H])([H])[H])C(C([H])([H])[H])(C([H])([H])[H])C([H])([H])[H])C([H])([H])c2c([H])c(OC([H])([H])C([H])([H])N([H])c3c([H])c([H])c(C([H])([H])[H])c(C([H])([H])N([H])C(=O)N4C([H])([H])C([H])([H])C([H])([H])C([H])(n5nc(-c6c([H])c([H])c(Oc7c([H])c([H])c(F)c([H])c7F)c([H])c6[H])c(C(=O)N([H])[H])c5N([H])[H])C4([H])[H])c3[H])c([H])c([H])c2C1([H])[H]

>  <smiles>  (75) 
[H]c1c([H])c([H])c2c(c1[H])C([H])([H])C([H])([H])C([H])([H])C2([H])N([H])C(=O)C1([H])N(C(=O)C([H])(N([H])C(=O)C([H])(N([H])C([H])([H])[H])C([H])([H])[H])C(C([H])([H])[H])(C([H])([H])[H])C([H])([H])[H])C([H])([H])c2c([H])c(OC([H])([H])C([H])([H])N([H])c3c([H])c([H])c(C([H])([H])[H])c(C([H])([H])N([H])C(=O)N4C([H])([H])C([H])([H])C([H])([H])C([H])(n5nc(-c6c([H])c([H])c(Oc7c([H])c([H])c(F)c([H])c7F)c([H])c6[H])c(C(=O)N([H])[H])c5N([H])[H])C4([H])[H])c3[H])c([H])c([H])c2C1([H])[H]

$$$$
75:0:0
     RDKit          3D

 94103  0  0  1  0  0  0  0  0999 V2000
  -29.9120  -22.3210   20.3450 N   0  0  1  0  0  4  0  0  0  0  0  0
  -29.7860  -22.0860   21.3200 H   0  0  0  0  0  0  0  0  0  0  0  0
  -30.6000  -15.1050   19.5610 C   0  0  0  0  0  0  0  0  0  0  0  0
  -30.2910  -12.8180   18.4710 C   0  0  0  0  0  2  0  0  0  0  0  0
  -29.1830  -12.8240   17.3920 C   0  0  0  0  0  2  0  0  0  0  0  0
  -27.7970  -12.5830   18.0200 C   0  0  0  0  0  2  0  0  0  0  0  0
  -27.5850  -13.4090   19.3160 C   0  0  0  0  0  3  0  0  0  0  0  0
  -28.8060  -13.2980   20.2550 C   0  0  0  0  0  2  0  0  0  0  0  0
  -29.9450  -13.8550   19.5020 N   0  0  0  0  0  0  0  0  0  0  0  0
  -31.7410  -15.0740   19.0860 O   0  0  0  0  0  0  0  0  0  0  0  0
  -32.4380  -19.4200   19.1820 C   0  0  0  0  0  2  0  0  0  0  0  0
  -29.0370  -17.5570   21.8780 C   0  0  0  0  0  2  0  0  0  0  0  0
  -29.4450  -19.0230   21.5500 C   0  0  0  0  0  2  0  0  0  0  0  0
  -31.9480  -18.0540   19.6500 C   0  0  0  0  0  2  0  0  0  0  0  0
  -31.8370  -20.5700   19.9920 C   0  0  0  0  0  2  0  0  0  0  0  0
  -28.7760  -16.6230   20.6630 C   0  0  0  0  0  2  0  0  0  0  0  0
  -29.6770  -19.2970   20.0500 C   0  0  0  0  0  3  0  0  0  0  0  0
  -30.4310  -17.8830   19.4520 C   0  0  0  0  0  3  0  0  0  0  0  0
  -30.3140  -20.8550   19.7270 C   0  0  0  0  0  3  0  0  0  0  0  0
  -29.9840  -16.4010   19.8520 N   0  0  0  0  0  0  0  0  0  0  0  0
  -25.3370  -13.9430   20.4160 C   0  0  0  0  0  0  0  0  0  0  0  0
  -24.3260  -13.1500   20.8820 C   0  0  0  0  0  0  0  0  0  0  0  0
  -24.7640  -11.8030   20.6940 C   0  0  0  0  0  0  0  0  0  0  0  0
  -26.3280  -13.0810   19.9770 N   0  0  0  0  0  0  0  0  0  0  0  0
  -25.9980  -11.7830   20.2020 N   0  0  0  0  0  0  0  0  0  0  0  0
  -24.0550  -10.5330   20.9010 C   0  0  0  0  0  0  0  0  0  0  0  0
  -24.5540   -9.5430   21.7760 C   0  0  0  0  0  3  0  0  0  0  0  0
  -23.8420   -8.3410   21.9770 C   0  0  0  0  0  3  0  0  0  0  0  0
  -22.6180   -8.1190   21.3040 C   0  0  0  0  0  0  0  0  0  0  0  0
  -22.1360   -9.0990   20.4160 C   0  0  0  0  0  3  0  0  0  0  0  0
  -22.8490  -10.2930   20.2130 C   0  0  0  0  0  3  0  0  0  0  0  0
  -21.8730   -6.9700   21.4160 O   0  0  0  0  0  0  0  0  0  0  0  0
  -21.8240   -6.2560   22.5850 C   0  0  0  0  0  0  0  0  0  0  0  0
  -21.3840   -6.8370   23.7950 C   0  0  0  0  0  3  0  0  0  0  0  0
  -21.2800   -6.0480   24.9580 C   0  0  0  0  0  3  0  0  0  0  0  0
  -21.6070   -4.6800   24.9130 C   0  0  0  0  0  0  0  0  0  0  0  0
  -22.0440   -4.1000   23.7100 C   0  0  0  0  0  3  0  0  0  0  0  0
  -22.1470   -4.8850   22.5490 C   0  0  0  0  0  0  0  0  0  0  0  0
  -22.5470   -4.3160   21.3850 F   0  0  0  0  0  0  0  0  0  0  0  0
  -21.5010   -3.9210   26.0290 F   0  0  0  0  0  0  0  0  0  0  0  0
  -22.9890  -13.6150   21.3790 C   0  0  0  0  0  0  0  0  0  0  0  0
  -22.3900  -12.8760   22.3050 N   0  0  0  0  0  0  0  0  0  0  0  0
  -22.4910  -14.6670   20.9810 O   0  0  0  0  0  0  0  0  0  0  0  0
  -22.8130  -12.0270   22.6480 H   0  0  0  0  0  0  0  0  0  0  0  0
  -21.4970  -13.1680   22.6760 H   0  0  0  0  0  0  0  0  0  0  0  0
  -25.4870  -15.3210   20.3050 N   0  0  0  0  0  0  0  0  0  0  0  0
  -24.7490  -15.9660   20.5650 H   0  0  0  0  0  0  0  0  0  0  0  0
  -26.2780  -15.7790   19.8710 H   0  0  0  0  0  0  0  0  0  0  0  0
  -31.0630  -23.2800   20.4200 C   0  0  0  0  0  2  0  0  0  0  0  0
  -32.5950  -24.9130   19.1530 C   0  0  0  0  0  1  0  0  0  0  0  0
  -31.6500  -23.7070   19.0390 C   0  0  0  0  0  2  0  0  0  0  0  0
  -28.6300  -23.2300   20.0830 C   0  0  0  0  0  2  0  0  0  0  0  0
  -28.5680  -24.8860   19.6050 C   0  0  0  0  0  2  0  0  0  0  0  0
  -28.4030  -26.2680   20.3200 O   0  0  0  0  0  0  0  0  0  0  0  0
  -24.6470  -31.8900   23.2470 C   0  0  0  0  0  0  0  0  0  0  0  0
  -27.3210  -27.2250   20.1920 C   0  0  0  0  0  0  0  0  0  0  0  0
  -23.4820  -30.4970   21.5800 C   0  0  0  0  0  3  0  0  0  0  0  0
  -24.9650  -28.9520   20.1540 C   0  0  0  0  0  0  0  0  0  0  0  0
  -26.0350  -30.7880   21.4520 C   0  0  0  0  0  2  0  0  0  0  0  0
  -26.1310  -29.4020   20.7850 C   0  0  0  0  0  0  0  0  0  0  0  0
  -27.3010  -28.5520   20.7920 C   0  0  0  0  0  3  0  0  0  0  0  0
  -26.1230  -26.8790   19.5240 C   0  0  0  0  0  3  0  0  0  0  0  0
  -24.9760  -27.7060   19.5100 C   0  0  0  0  0  3  0  0  0  0  0  0
  -23.7280  -29.8350   20.1970 C   0  0  0  0  0  2  0  0  0  0  0  0
  -24.7400  -31.0810   22.1480 N   0  0  0  0  0  0  0  0  0  0  0  0
  -23.5520  -32.1590   23.7640 O   0  0  0  0  0  0  0  0  0  0  0  0
  -22.8020  -29.4750   22.5240 C   0  0  0  0  0  0  0  0  0  0  0  0
  -21.4830  -29.2680   22.3580 N   0  0  0  0  0  0  0  0  0  0  0  0
  -23.4640  -28.8700   23.3710 O   0  0  0  0  0  0  0  0  0  0  0  0
  -21.0030  -29.8080   21.6510 H   0  0  0  0  0  0  0  0  0  0  0  0
  -18.1290  -27.9540   22.7400 C   0  0  0  0  0  0  0  0  0  0  0  0
  -20.6640  -28.3120   23.1080 C   0  0  0  0  0  3  0  0  0  0  0  0
  -20.8400  -26.8770   22.5570 C   0  0  0  0  0  2  0  0  0  0  0  0
  -19.7930  -26.5040   21.5030 C   0  0  0  0  0  2  0  0  0  0  0  0
  -18.3820  -26.6050   22.0890 C   0  0  0  0  0  2  0  0  0  0  0  0
  -19.2010  -28.7620   23.2050 C   0  0  0  0  0  0  0  0  0  0  0  0
  -18.9120  -30.0210   23.7750 C   0  0  0  0  0  3  0  0  0  0  0  0
  -17.5840  -30.4740   23.8850 C   0  0  0  0  0  3  0  0  0  0  0  0
  -16.5260  -29.6650   23.4370 C   0  0  0  0  0  3  0  0  0  0  0  0
  -16.7990  -28.4060   22.8700 C   0  0  0  0  0  3  0  0  0  0  0  0
  -25.9100  -32.5350   23.8950 C   0  0  0  0  0  3  0  0  0  0  0  0
  -26.3860  -31.7860   25.2010 C   0  0  1  0  0  0  0  0  0  0  0  0
  -25.2630  -31.5700   26.2410 C   0  0  0  0  0  1  0  0  0  0  0  0
  -26.9800  -30.4010   24.8570 C   0  0  0  0  0  1  0  0  0  0  0  0
  -27.5190  -32.5910   25.8830 C   0  0  0  0  0  1  0  0  0  0  0  0
  -25.5910  -33.9390   24.2000 N   0  0  0  0  0  0  0  0  0  0  0  0
  -25.9240  -34.9840   23.4310 C   0  0  0  0  0  0  0  0  0  0  0  0
  -26.6000  -34.8680   22.4050 O   0  0  0  0  0  0  0  0  0  0  0  0
  -24.9890  -34.1030   24.9950 H   0  0  0  0  0  0  0  0  0  0  0  0
  -24.1830  -36.7640   23.0610 C   0  0  0  0  0  1  0  0  0  0  0  0
  -25.4330  -36.3790   23.8680 C   0  0  0  0  0  3  0  0  0  0  0  0
  -27.5680  -37.2970   24.6650 C   0  0  0  0  0  1  0  0  0  0  0  0
  -26.4600  -37.4360   23.7240 N   0  0  0  0  0  0  0  0  0  0  0  0
  -26.0470  -38.3570   23.8540 H   0  0  0  0  0  0  0  0  0  0  0  0
  1 49  1  0
  1  2  1  1
  3 20  1  0
  4  9  1  0
  5  6  1  0
  5  4  1  0
  7  6  1  0
  7 24  1  0
  7  8  1  0
  9  3  1  0
  9  8  1  0
 10  3  2  0
 11 14  1  0
 11 15  1  0
 13 12  1  0
 16 12  1  0
 17 13  1  0
 18 14  1  0
 18 20  1  0
 18 17  1  0
 19 15  1  0
 19 17  1  0
 19  1  1  0
 20 16  1  0
 21 22  2  0
 22 41  1  0
 23 22  1  0
 23 26  1  0
 24 25  1  0
 24 21  1  0
 25 23  2  0
 26 27  1  0
 27 28  2  0
 29 32  1  0
 29 28  1  0
 30 29  2  0
 31 30  1  0
 31 26  2  0
 32 33  1  0
 33 34  1  0
 34 35  2  0
 36 35  1  0
 36 40  1  0
 37 36  2  0
 38 33  2  0
 38 37  1  0
 39 38  1  0
 41 42  1  0
 42 44  1  0
 42 45  1  0
 43 41  2  0
 46 21  1  0
 46 47  1  0
 48 46  1  0
 51 50  1  0
 51 49  1  0
 52  1  1  0
 53 52  1  0
 53 54  1  0
 55 66  2  0
 56 54  1  0
 56 61  1  0
 57 65  1  0
 57 67  1  0
 58 64  1  0
 58 60  1  0
 59 65  1  0
 60 61  2  0
 60 59  1  0
 62 56  2  0
 63 62  1  0
 63 58  2  0
 64 57  1  0
 65 55  1  0
 67 69  2  0
 68 67  1  0
 70 68  1  0
 71 80  2  0
 71 76  1  0
 72 68  1  0
 72 76  1  0
 73 72  1  0
 74 75  1  0
 74 73  1  0
 75 71  1  0
 76 77  2  0
 77 78  1  0
 79 78  2  0
 80 79  1  0
 81 55  1  0
 81 86  1  0
 81 82  1  0
 82 85  1  1
 82 83  1  0
 84 82  1  0
 86 89  1  0
 87 91  1  0
 87 86  1  0
 88 87  2  0
 91 90  1  0
 93 94  1  0
 93 91  1  0
 93 92  1  0
M  ISO  4   3 100  20 100  53 101  54 101
M  END
>  <TORSDO>  (76) 
F 20

>  <SCORE>  (76) 
-12.002

>  <name>  (76) 
75

>  <ligand_id>  (76) 
75

>  <original_smiles>  (76) 
[H]c1c([H])c([H])c2c(c1[H])C([H])([H])C([H])([H])C([H])([H])C2([H])N([H])C(=O)C1([H])N(C(=O)C([H])(N([H])C(=O)C([H])(N([H])C([H])([H])[H])C([H])([H])[H])C(C([H])([H])[H])(C([H])([H])[H])C([H])([H])[H])C([H])([H])c2c([H])c(OC([H])([H])C([H])([H])[N+]([H])(C([H])([H])C([H])([H])C([H])([H])[H])C3([H])C([H])([H])C([H])([H])C([H])([H])C4([H])N(C(=O)N5C([H])([H])C([H])([H])C([H])([H])C([H])(n6nc(-c7c([H])c([H])c(Oc8c([H])c([H])c(F)c([H])c8F)c([H])c7[H])c(C(=O)N([H])[H])c6N([H])[H])C5([H])[H])C([H])([H])C([H])([H])C([H])([H])C43[H])c([H])c([H])c2C1([H])[H]

>  <smiles>  (76) 
[H]c1c([H])c([H])c2c(c1[H])C([H])([H])C([H])([H])C([H])([H])C2([H])N([H])C(=O)C1([H])N(C(=O)C([H])(N([H])C(=O)C([H])(N([H])C([H])([H])[H])C([H])([H])[H])C(C([H])([H])[H])(C([H])([H])[H])C([H])([H])[H])C([H])([H])c2c([H])c(OC([H])([H])C([H])([H])[N+]([H])(C([H])([H])C([H])([H])C([H])([H])[H])C3([H])C([H])([H])C([H])([H])C([H])([H])C4([H])N(C(=O)N5C([H])([H])C([H])([H])C([H])([H])C([H])(n6nc(-c7c([H])c([H])c(Oc8c([H])c([H])c(F)c([H])c8F)c([H])c7[H])c(C(=O)N([H])[H])c6N([H])[H])C5([H])[H])C([H])([H])C([H])([H])C([H])([H])C43[H])c([H])c([H])c2C1([H])[H]

$$$$
76:0:0
     RDKit          3D

 93101  0  0  1  0  0  0  0  0999 V2000
  -29.5730  -21.9630   21.3930 C   0  0  0  0  0  2  0  0  0  0  0  0
  -32.4030  -19.3740   21.0070 C   0  0  0  0  0  3  0  0  0  0  0  0
  -31.7120  -20.5920   21.1730 C   0  0  0  0  0  3  0  0  0  0  0  0
  -31.7060  -18.1790   20.7410 C   0  0  0  0  0  3  0  0  0  0  0  0
  -29.6100  -19.4270   20.7840 C   0  0  0  0  0  3  0  0  0  0  0  0
  -30.3030  -20.6370   21.0720 C   0  0  0  0  0  0  0  0  0  0  0  0
  -30.3010  -18.1840   20.6220 C   0  0  0  0  0  0  0  0  0  0  0  0
  -29.5550  -16.7910   18.6540 C   0  0  0  0  0  1  0  0  0  0  0  0
  -29.5440  -16.9100   20.1910 C   0  0  0  0  0  3  0  0  0  0  0  0
  -30.6200  -14.5850   20.4670 C   0  0  0  0  0  0  0  0  0  0  0  0
  -30.3830  -12.3900   19.3640 C   0  0  0  0  0  2  0  0  0  0  0  0
  -29.4610  -12.5920   18.1400 C   0  0  0  0  0  2  0  0  0  0  0  0
  -27.9760  -12.4650   18.5380 C   0  0  0  0  0  2  0  0  0  0  0  0
  -27.6200  -13.2840   19.8080 C   0  0  0  0  0  3  0  0  0  0  0  0
  -28.6600  -13.0580   20.9310 C   0  0  0  0  0  2  0  0  0  0  0  0
  -29.9940  -13.3740   20.3890 N   0  0  0  0  0  0  0  0  0  0  0  0
  -31.7500  -14.7760   20.0080 O   0  0  0  0  0  0  0  0  0  0  0  0
  -29.8230  -15.6060   20.8630 N   0  0  0  0  0  0  0  0  0  0  0  0
  -29.0340  -15.2780   21.3980 H   0  0  0  0  0  0  0  0  0  0  0  0
  -25.2090  -13.8940   20.4670 C   0  0  0  0  0  0  0  0  0  0  0  0
  -24.1350  -13.1230   20.8240 C   0  0  0  0  0  0  0  0  0  0  0  0
  -24.5970  -11.7710   20.8100 C   0  0  0  0  0  0  0  0  0  0  0  0
  -26.2590  -13.0110   20.2610 N   0  0  0  0  0  0  0  0  0  0  0  0
  -25.8930  -11.7300   20.5230 N   0  0  0  0  0  0  0  0  0  0  0  0
  -23.8690  -10.5110   20.9970 C   0  0  0  0  0  0  0  0  0  0  0  0
  -24.2830   -9.5530   21.9480 C   0  0  0  0  0  3  0  0  0  0  0  0
  -23.5560   -8.3560   22.1230 C   0  0  0  0  0  3  0  0  0  0  0  0
  -22.4000   -8.1080   21.3450 C   0  0  0  0  0  0  0  0  0  0  0  0
  -22.0050   -9.0540   20.3830 C   0  0  0  0  0  3  0  0  0  0  0  0
  -22.7330  -10.2430   20.2070 C   0  0  0  0  0  3  0  0  0  0  0  0
  -21.6460   -6.9630   21.4280 O   0  0  0  0  0  0  0  0  0  0  0  0
  -21.5680   -6.2330   22.5870 C   0  0  0  0  0  0  0  0  0  0  0  0
  -21.1030   -6.8000   23.7940 C   0  0  0  0  0  3  0  0  0  0  0  0
  -20.9730   -5.9970   24.9450 C   0  0  0  0  0  3  0  0  0  0  0  0
  -21.2990   -4.6290   24.8900 C   0  0  0  0  0  0  0  0  0  0  0  0
  -21.7580   -4.0620   23.6880 C   0  0  0  0  0  3  0  0  0  0  0  0
  -21.8900   -4.8620   22.5400 C   0  0  0  0  0  0  0  0  0  0  0  0
  -22.3130   -4.3050   21.3790 F   0  0  0  0  0  0  0  0  0  0  0  0
  -21.1670   -3.8540   25.9930 F   0  0  0  0  0  0  0  0  0  0  0  0
  -22.7340  -13.6020   21.0690 C   0  0  0  0  0  0  0  0  0  0  0  0
  -21.9900  -12.9110   21.9250 N   0  0  0  0  0  0  0  0  0  0  0  0
  -22.3050  -14.6250   20.5360 O   0  0  0  0  0  0  0  0  0  0  0  0
  -22.3490  -12.0860   22.3830 H   0  0  0  0  0  0  0  0  0  0  0  0
  -21.0470  -13.2120   22.1270 H   0  0  0  0  0  0  0  0  0  0  0  0
  -25.3740  -15.2630   20.2810 N   0  0  0  0  0  0  0  0  0  0  0  0
  -24.5980  -15.9120   20.3660 H   0  0  0  0  0  0  0  0  0  0  0  0
  -26.2200  -15.7000   19.9380 H   0  0  0  0  0  0  0  0  0  0  0  0
  -29.5110  -22.9720   20.2940 N   0  0  0  0  0  4  0  0  0  0  0  0
  -30.3580  -22.8910   19.7530 H   0  0  0  0  0  0  0  0  0  0  0  0
  -28.7500  -22.7120   19.6880 H   0  0  0  0  0  0  0  0  0  0  0  0
  -29.3670  -24.4090   20.7260 C   0  0  0  0  0  2  0  0  0  0  0  0
  -28.3840  -25.2620   19.8670 C   0  0  0  0  0  2  0  0  0  0  0  0
  -28.4060  -26.6780   20.2050 O   0  0  0  0  0  0  0  0  0  0  0  0
  -24.5800  -31.8900   23.2440 C   0  0  0  0  0  0  0  0  0  0  0  0
  -27.2320  -27.4240   20.1540 C   0  0  0  0  0  0  0  0  0  0  0  0
  -23.3790  -30.4930   21.5960 C   0  0  0  0  0  3  0  0  0  0  0  0
  -24.8370  -28.9630   20.1650 C   0  0  0  0  0  0  0  0  0  0  0  0
  -25.9080  -30.8450   21.4050 C   0  0  0  0  0  2  0  0  0  0  0  0
  -25.9960  -29.4730   20.7620 C   0  0  0  0  0  0  0  0  0  0  0  0
  -27.1920  -28.7110   20.7540 C   0  0  0  0  0  3  0  0  0  0  0  0
  -26.0530  -26.9530   19.5280 C   0  0  0  0  0  3  0  0  0  0  0  0
  -24.8630  -27.7040   19.5450 C   0  0  0  0  0  3  0  0  0  0  0  0
  -23.5920  -29.8210   20.2140 C   0  0  0  0  0  2  0  0  0  0  0  0
  -24.6420  -31.0910   22.1400 N   0  0  0  0  0  0  0  0  0  0  0  0
  -23.4970  -32.1590   23.7840 O   0  0  0  0  0  0  0  0  0  0  0  0
  -22.7270  -29.4680   22.5520 C   0  0  0  0  0  0  0  0  0  0  0  0
  -21.4030  -29.2860   22.4270 N   0  0  0  0  0  0  0  0  0  0  0  0
  -23.4120  -28.8390   23.3650 O   0  0  0  0  0  0  0  0  0  0  0  0
  -20.9120  -29.8480   21.7450 H   0  0  0  0  0  0  0  0  0  0  0  0
  -18.0270  -28.0920   22.9260 C   0  0  0  0  0  0  0  0  0  0  0  0
  -20.5870  -28.3440   23.1930 C   0  0  0  0  0  3  0  0  0  0  0  0
  -20.6850  -26.9170   22.6070 C   0  0  0  0  0  2  0  0  0  0  0  0
  -19.5800  -26.6030   21.5940 C   0  0  0  0  0  2  0  0  0  0  0  0
  -18.1990  -26.7470   22.2420 C   0  0  0  0  0  2  0  0  0  0  0  0
  -19.1490  -28.8500   23.3580 C   0  0  0  0  0  0  0  0  0  0  0  0
  -18.9360  -30.1100   23.9580 C   0  0  0  0  0  3  0  0  0  0  0  0
  -17.6330  -30.6150   24.1280 C   0  0  0  0  0  3  0  0  0  0  0  0
  -16.5250  -29.8540   23.7130 C   0  0  0  0  0  3  0  0  0  0  0  0
  -16.7230  -28.5950   23.1180 C   0  0  0  0  0  3  0  0  0  0  0  0
  -25.8630  -32.5230   23.8660 C   0  0  0  0  0  3  0  0  0  0  0  0
  -25.5540  -33.9220   24.1920 N   0  0  0  0  0  0  0  0  0  0  0  0
  -25.8890  -34.9730   23.4310 C   0  0  0  0  0  0  0  0  0  0  0  0
  -26.5640  -34.8670   22.4030 O   0  0  0  0  0  0  0  0  0  0  0  0
  -24.9560  -34.0780   24.9900 H   0  0  0  0  0  0  0  0  0  0  0  0
  -24.1660  -36.7680   23.0610 C   0  0  0  0  0  1  0  0  0  0  0  0
  -25.3990  -36.3630   23.8830 C   0  0  0  0  0  3  0  0  0  0  0  0
  -27.5260  -37.2460   24.7340 C   0  0  0  0  0  1  0  0  0  0  0  0
  -26.4340  -37.4130   23.7790 N   0  0  0  0  0  0  0  0  0  0  0  0
  -26.0280  -38.3350   23.9210 H   0  0  0  0  0  0  0  0  0  0  0  0
  -26.3780  -31.7540   25.1430 C   0  0  1  0  0  0  0  0  0  0  0  0
  -25.2820  -31.5180   26.2090 C   0  0  0  0  0  1  0  0  0  0  0  0
  -26.9620  -30.3760   24.7520 C   0  0  0  0  0  1  0  0  0  0  0  0
  -27.5260  -32.5500   25.8090 C   0  0  0  0  0  1  0  0  0  0  0  0
  2  3  1  0
  4  2  2  0
  5  6  1  0
  6  3  2  0
  6  1  1  0
  7  4  1  0
  7  5  2  0
  9  8  1  0
  9  7  1  0
  9 18  1  0
 10 18  1  0
 11 16  1  0
 12 13  1  0
 12 11  1  0
 14 13  1  0
 14 23  1  0
 14 15  1  0
 16 10  1  0
 16 15  1  0
 17 10  2  0
 18 19  1  0
 20 21  2  0
 21 40  1  0
 22 21  1  0
 22 25  1  0
 23 20  1  0
 23 24  1  0
 24 22  2  0
 25 26  1  0
 26 27  2  0
 28 31  1  0
 28 27  1  0
 29 28  2  0
 30 29  1  0
 30 25  2  0
 31 32  1  0
 32 33  1  0
 33 34  2  0
 35 34  1  0
 35 39  1  0
 36 35  2  0
 37 32  2  0
 37 36  1  0
 38 37  1  0
 40 41  1  0
 41 44  1  0
 41 43  1  0
 42 40  2  0
 45 46  1  0
 45 20  1  0
 47 45  1  0
 48 51  1  0
 48  1  1  0
 49 48  1  0
 50 48  1  0
 52 53  1  0
 52 51  1  0
 54 65  2  0
 55 53  1  0
 55 60  1  0
 56 64  1  0
 56 66  1  0
 57 63  1  0
 57 59  1  0
 58 64  1  0
 59 58  1  0
 60 59  2  0
 61 62  1  0
 61 55  2  0
 62 57  2  0
 63 56  1  0
 64 54  1  0
 66 68  2  0
 67 66  1  0
 69 67  1  0
 70 79  2  0
 70 75  1  0
 71 67  1  0
 71 75  1  0
 72 71  1  0
 73 74  1  0
 73 72  1  0
 74 70  1  0
 75 76  2  0
 76 77  1  0
 78 77  2  0
 79 78  1  0
 80 54  1  0
 80 81  1  0
 80 90  1  0
 81 84  1  0
 82 86  1  0
 82 81  1  0
 83 82  2  0
 86 85  1  0
 88 86  1  0
 88 89  1  0
 88 87  1  0
 90 93  1  1
 90 91  1  0
 92 90  1  0
M  ISO  4  10 100  18 100  52 101  53 101
M  END
>  <TORSDO>  (77) 
F 21

>  <SCORE>  (77) 
-13.517

>  <name>  (77) 
76

>  <ligand_id>  (77) 
76

>  <original_smiles>  (77) 
[H]c1c([H])c([H])c2c(c1[H])C([H])([H])C([H])([H])C([H])([H])C2([H])N([H])C(=O)C1([H])N(C(=O)C([H])(N([H])C(=O)C([H])(N([H])C([H])([H])[H])C([H])([H])[H])C(C([H])([H])[H])(C([H])([H])[H])C([H])([H])[H])C([H])([H])c2c([H])c(OC([H])([H])C([H])([H])[N+]([H])([H])C([H])([H])c3c([H])c([H])c([H])c(C([H])(N([H])C(=O)N4C([H])([H])C([H])([H])C([H])([H])C([H])(n5nc(-c6c([H])c([H])c(Oc7c([H])c([H])c(F)c([H])c7F)c([H])c6[H])c(C(=O)N([H])[H])c5N([H])[H])C4([H])[H])C([H])([H])[H])c3[H])c([H])c([H])c2C1([H])[H]

>  <smiles>  (77) 
[H]c1c([H])c([H])c2c(c1[H])C([H])([H])C([H])([H])C([H])([H])C2([H])N([H])C(=O)C1([H])N(C(=O)C([H])(N([H])C(=O)C([H])(N([H])C([H])([H])[H])C([H])([H])[H])C(C([H])([H])[H])(C([H])([H])[H])C([H])([H])[H])C([H])([H])c2c([H])c(OC([H])([H])C([H])([H])[N+]([H])([H])C([H])([H])c3c([H])c([H])c([H])c(C([H])(N([H])C(=O)N4C([H])([H])C([H])([H])C([H])([H])C([H])(n5nc(-c6c([H])c([H])c(Oc7c([H])c([H])c(F)c([H])c7F)c([H])c6[H])c(C(=O)N([H])[H])c5N([H])[H])C4([H])[H])C([H])([H])[H])c3[H])c([H])c([H])c2C1([H])[H]

$$$$
77:0:0
     RDKit          3D

 98100  0  0  1  0  0  0  0  0999 V2000
  -22.4900  -23.9860   18.1360 C   0  0  0  0  0  3  0  0  0  0  0  0
  -23.5970  -23.1340   18.4870 C   0  0  0  0  0  3  0  0  0  0  0  0
  -23.8040  -24.7220   20.2200 C   0  0  0  0  0  3  0  0  0  0  0  0
  -21.9820  -25.2030   18.7510 C   0  0  0  0  0  0  0  0  0  0  0  0
  -22.5510  -25.8580   19.8950 C   0  0  0  0  0  3  0  0  0  0  0  0
  -24.4920  -23.2980   19.5810 C   0  0  0  0  0  0  0  0  0  0  0  0
  -20.7120  -25.7660   18.1120 C   0  0  0  0  0  2  0  0  0  0  0  0
  -20.7530  -27.2760   17.8860 C   0  0  0  0  0  2  0  0  0  0  0  0
  -20.6630  -28.1230   19.1620 C   0  0  0  0  0  2  0  0  0  0  0  0
  -21.5450  -27.6260   20.3460 C   0  0  0  0  0  1  0  0  0  0  0  0
  -21.5660  -29.0930   21.6010 N   0  0  0  0  0  2  0  0  0  0  0  0
  -20.5830  -29.2190   21.8030 H   0  0  0  0  0  0  0  0  0  0  0  0
  -21.8280  -29.9220   21.1020 H   0  0  0  0  0  0  0  0  0  0  0  0
  -22.4420  -29.3210   23.3280 C   0  0  0  0  0 15  0  0  0  0  0  0
  -24.4960  -28.7880   23.8810 C   0  0  0  0  0 15  0  0  0  0  0  0
  -26.0970  -28.1650   22.9850 O   0  0  0  0  0  1  0  0  0  0  0  0
  -24.5130  -31.6100   23.0690 C   0  0  0  0  0  0  0  0  0  0  0  0
  -26.7250  -27.7410   21.7000 C   0  0  0  0  0  3  0  0  0  0  0  0
  -23.9440  -29.3440   21.3910 C   0  0  0  0  0  3  0  0  0  0  0  0
  -25.3830  -28.8170   19.8330 C   0  0  0  0  0  3  0  0  0  0  0  0
  -25.9950  -30.8230   21.2890 C   0  0  0  0  0  2  0  0  0  0  0  0
  -26.3620  -29.5400   20.5790 C   0  0  0  0  0  3  0  0  0  0  0  0
  -27.3880  -28.8190   21.1580 C   0  0  0  0  0  2  0  0  0  0  0  0
  -26.2570  -26.8300   20.6810 C   0  0  0  0  0  2  0  0  0  0  0  0
  -25.4820  -27.4280   19.6850 C   0  0  0  0  0  2  0  0  0  0  0  0
  -24.0490  -29.3430   19.8820 C   0  0  0  0  0  2  0  0  0  0  0  0
  -24.7540  -30.6430   22.0170 N   0  0  0  0  0  0  0  0  0  0  0  0
  -23.3950  -31.9690   23.4410 O   0  0  0  0  0  0  0  0  0  0  0  0
  -23.5410  -27.5650   22.1170 C   0  0  0  0  0  0  0  0  0  0  0  0
  -22.3220  -27.0400   22.8290 N   0  0  0  0  0  0  0  0  0  0  0  0
  -24.2160  -26.8160   22.7180 O   0  0  0  0  0  0  0  0  0  0  0  0
  -22.7010  -26.1700   23.2040 H   0  0  0  0  0  0  0  0  0  0  0  0
  -18.1540  -27.5070   22.4640 C   0  0  0  0  0  0  0  0  0  0  0  0
  -20.7260  -27.1050   23.2490 C   0  0  0  0  0  3  0  0  0  0  0  0
  -20.4020  -25.7180   22.7260 C   0  0  0  0  0  2  0  0  0  0  0  0
  -19.5070  -25.5470   21.4940 C   0  0  0  0  0  2  0  0  0  0  0  0
  -18.2030  -26.2920   21.5750 C   0  0  0  0  0  2  0  0  0  0  0  0
  -19.3320  -28.0490   23.0970 C   0  0  0  0  0  0  0  0  0  0  0  0
  -19.0600  -29.2980   23.7550 C   0  0  0  0  0  3  0  0  0  0  0  0
  -17.7680  -29.9150   23.7810 C   0  0  0  0  0  3  0  0  0  0  0  0
  -16.6450  -29.3040   23.2060 C   0  0  0  0  0  3  0  0  0  0  0  0
  -16.8560  -28.0820   22.5590 C   0  0  0  0  0  3  0  0  0  0  0  0
  -25.6430  -32.2980   23.9600 C   0  0  0  0  0  3  0  0  0  0  0  0
  -25.2920  -33.7240   24.1030 N   0  0  0  0  0  0  0  0  0  0  0  0
  -25.7870  -34.7020   23.3400 C   0  0  0  0  0  0  0  0  0  0  0  0
  -26.6040  -34.4810   22.4430 O   0  0  0  0  0  0  0  0  0  0  0  0
  -24.5640  -33.9500   24.7680 H   0  0  0  0  0  0  0  0  0  0  0  0
  -24.1690  -36.4800   22.6190 C   0  0  0  0  0  1  0  0  0  0  0  0
  -25.2960  -36.1360   23.6040 C   0  0  0  0  0  3  0  0  0  0  0  0
  -27.3410  -37.0730   24.5950 C   0  0  0  0  0  1  0  0  0  0  0  0
  -26.3690  -37.1460   23.5060 N   0  0  0  0  0  0  0  0  0  0  0  0
  -25.9810  -38.0840   23.4880 H   0  0  0  0  0  0  0  0  0  0  0  0
  -25.9200  -31.7540   25.4470 C   0  0  1  0  0  0  0  0  0  0  0  0
  -24.6380  -31.5520   26.3200 C   0  0  0  0  0  1  0  0  0  0  0  0
  -26.8370  -30.4960   25.4260 C   0  0  0  0  0  1  0  0  0  0  0  0
  -26.7590  -32.7750   26.2630 C   0  0  0  0  0  1  0  0  0  0  0  0
  -25.7260  -22.0850   19.8120 N   0  0  0  0  0  0  0  0  0  0  0  0
  -26.1940  -22.3310   20.6810 H   0  0  0  0  0  0  0  0  0  0  0  0
  -26.5490  -20.4750   19.2610 C   0  0  0  0  0  1  0  0  0  0  0  0
  -28.0070  -18.9740   19.7520 C   0  0  0  0  0 15  0  0  0  0  0  0
  -29.8820  -15.9780   19.5490 C   0  0  0  0  0  0  0  0  0  0  0  0
  -30.5970  -13.3780   18.8510 C   0  0  0  0  0  2  0  0  0  0  0  0
  -29.7530  -12.6250   17.7740 C   0  0  0  0  0  2  0  0  0  0  0  0
  -28.3880  -12.2060   18.3500 C   0  0  0  0  0  2  0  0  0  0  0  0
  -27.8590  -13.2950   19.3100 C   0  0  0  0  0  3  0  0  0  0  0  0
  -28.8590  -13.7270   20.3700 C   0  0  0  0  0  2  0  0  0  0  0  0
  -29.7690  -14.4960   19.5490 N   0  0  0  0  0  0  0  0  0  0  0  0
  -31.1490  -16.0820   19.4800 O   0  0  0  0  0  0  0  0  0  0  0  0
  -28.7010  -17.1700   19.4930 N   0  0  0  0  0  2  0  0  0  0  0  0
  -27.9020  -16.6400   19.1740 H   0  0  0  0  0  0  0  0  0  0  0  0
  -25.6770  -13.9800   20.3120 C   0  0  0  0  0  0  0  0  0  0  0  0
  -24.6080  -13.2590   20.7360 C   0  0  0  0  0  0  0  0  0  0  0  0
  -24.9790  -11.8840   20.6200 C   0  0  0  0  0  0  0  0  0  0  0  0
  -26.6030  -13.0360   19.9270 N   0  0  0  0  0  0  0  0  0  0  0  0
  -26.2240  -11.7690   20.1890 N   0  0  0  0  0  0  0  0  0  0  0  0
  -24.1980  -10.6700   20.8130 C   0  0  0  0  0  0  0  0  0  0  0  0
  -24.6010   -9.6720   21.7260 C   0  0  0  0  0  3  0  0  0  0  0  0
  -23.8110   -8.5180   21.9040 C   0  0  0  0  0  3  0  0  0  0  0  0
  -22.6150   -8.3570   21.1630 C   0  0  0  0  0  0  0  0  0  0  0  0
  -22.2400   -9.3450   20.2340 C   0  0  0  0  0  3  0  0  0  0  0  0
  -23.0280  -10.4890   20.0540 C   0  0  0  0  0  3  0  0  0  0  0  0
  -21.7960   -7.2590   21.2530 O   0  0  0  0  0  0  0  0  0  0  0  0
  -21.6650   -6.5570   22.4240 C   0  0  0  0  0  0  0  0  0  0  0  0
  -21.2070   -7.1670   23.6120 C   0  0  0  0  0  3  0  0  0  0  0  0
  -21.0210   -6.3910   24.7740 C   0  0  0  0  0  3  0  0  0  0  0  0
  -21.2820   -5.0070   24.7460 C   0  0  0  0  0  0  0  0  0  0  0  0
  -21.7340   -4.3990   23.5620 C   0  0  0  0  0  3  0  0  0  0  0  0
  -21.9230   -5.1720   22.4030 C   0  0  0  0  0  0  0  0  0  0  0  0
  -22.3370   -4.5780   21.2590 F   0  0  0  0  0  0  0  0  0  0  0  0
  -21.0950   -4.2600   25.8590 F   0  0  0  0  0  0  0  0  0  0  0  0
  -23.2770  -13.8220   21.1220 C   0  0  0  0  0  0  0  0  0  0  0  0
  -22.5840  -13.1620   22.0430 N   0  0  0  0  0  0  0  0  0  0  0  0
  -22.8670  -14.8810   20.6440 O   0  0  0  0  0  0  0  0  0  0  0  0
  -22.9380  -12.3060   22.4430 H   0  0  0  0  0  0  0  0  0  0  0  0
  -21.6860  -13.5170   22.3460 H   0  0  0  0  0  0  0  0  0  0  0  0
  -25.9310  -15.3430   20.1890 N   0  0  0  0  0  0  0  0  0  0  0  0
  -25.2410  -16.0460   20.4210 H   0  0  0  0  0  0  0  0  0  0  0  0
  -26.7970  -15.7370   19.8600 H   0  0  0  0  0  0  0  0  0  0  0  0
  1  2  2  0
  1  4  1  0
  2  6  1  0
  4  5  2  0
  5  3  1  0
  6 57  1  0
  6  3  2  0
  7  4  1  0
  8  7  1  0
  8  9  1  0
  9 10  1  0
 11 12  1  0
 13 11  1  0
 17 28  2  0
 18 16  1  0
 19 27  1  0
 19 29  1  0
 20 25  1  0
 20 26  1  0
 20 22  1  0
 21 27  1  0
 22 23  1  0
 22 21  1  0
 23 18  1  0
 24 18  1  0
 25 24  1  0
 26 19  1  0
 27 17  1  0
 29 31  2  0
 29 30  1  0
 30 32  1  0
 33 42  2  0
 33 38  1  0
 34 30  1  0
 35 34  1  0
 36 37  1  0
 36 35  1  0
 37 33  1  0
 38 34  1  0
 38 39  2  0
 39 40  1  0
 41 40  2  0
 42 41  1  0
 43 17  1  0
 43 44  1  0
 43 53  1  0
 44 47  1  0
 45 49  1  0
 45 44  1  0
 46 45  2  0
 49 48  1  0
 51 49  1  0
 51 50  1  0
 52 51  1  0
 53 56  1  1
 53 54  1  0
 55 53  1  0
 57 58  1  0
 59 57  1  0
 62 67  1  0
 63 64  1  0
 63 62  1  0
 65 64  1  0
 65 74  1  0
 65 66  1  0
 67 61  1  0
 67 66  1  0
 68 61  2  0
 69 61  1  0
 70 69  1  0
 71 72  2  0
 72 91  1  0
 73 72  1  0
 73 76  1  0
 74 75  1  0
 74 71  1  0
 75 73  2  0
 76 77  1  0
 77 78  2  0
 79 82  1  0
 79 78  1  0
 80 79  2  0
 81 80  1  0
 81 76  2  0
 82 83  1  0
 83 84  1  0
 84 85  2  0
 86 85  1  0
 86 90  1  0
 87 86  2  0
 88 83  2  0
 88 87  1  0
 89 88  1  0
 91 92  1  0
 92 95  1  0
 92 94  1  0
 93 91  2  0
 96 71  1  0
 96 97  1  0
 98 96  1  0
M  ISO  4  15 101  16 101  61 100  69 100
M  END
>  <TORSDO>  (78) 
F 22

>  <SCORE>  (78) 
-15.679

>  <name>  (78) 
77

>  <ligand_id>  (78) 
77

>  <original_smiles>  (78) 
[H]c1c([H])c([H])c2c(c1[H])C([H])([H])C([H])([H])C([H])([H])C2([H])N([H])C(=O)C1([H])N(C(=O)C([H])(N([H])C(=O)C([H])(N([H])C([H])([H])[H])C([H])([H])[H])C(C([H])([H])[H])(C([H])([H])[H])C([H])([H])[H])C([H])([H])c2c([H])c(OC([H])([H])C([H])([H])[N+]([H])([H])C3([H])c4c([H])c(N([H])C([H])([H])C([H])([H])N([H])C(=O)N5C([H])([H])C([H])([H])C([H])([H])C([H])(n6nc(-c7c([H])c([H])c(Oc8c([H])c([H])c(F)c([H])c8F)c([H])c7[H])c(C(=O)N([H])[H])c6N([H])[H])C5([H])[H])c([H])c([H])c4C([H])([H])C([H])([H])C3([H])[H])c([H])c([H])c2C1([H])[H]

>  <smiles>  (78) 
[H]c1c([H])c([H])c2c(c1[H])C([H])([H])C([H])([H])C([H])([H])C2([H])N([H])C(=O)C1([H])N(C(=O)C([H])(N([H])C(=O)C([H])(N([H])C([H])([H])[H])C([H])([H])[H])C(C([H])([H])[H])(C([H])([H])[H])C([H])([H])[H])C([H])([H])c2c([H])c(OC([H])([H])C([H])([H])[N+]([H])([H])C3([H])c4c([H])c(N([H])C([H])([H])C([H])([H])N([H])C(=O)N5C([H])([H])C([H])([H])C([H])([H])C([H])(n6nc(-c7c([H])c([H])c(Oc8c([H])c([H])c(F)c([H])c8F)c([H])c7[H])c(C(=O)N([H])[H])c6N([H])[H])C5([H])[H])c([H])c([H])c4C([H])([H])C([H])([H])C3([H])[H])c([H])c([H])c2C1([H])[H]

$$$$
78:0:0
     RDKit          3D

 98106  0  0  1  0  0  0  0  0999 V2000
  -33.1180  -23.1700   17.5910 C   0  0  0  0  0  3  0  0  0  0  0  0
  -32.9990  -22.0300   18.4090 C   0  0  0  0  0  3  0  0  0  0  0  0
  -33.1640  -24.4530   18.1670 C   0  0  0  0  0  3  0  0  0  0  0  0
  -32.9320  -23.4590   20.3820 C   0  0  0  0  0  3  0  0  0  0  0  0
  -32.9080  -22.1680   19.8100 C   0  0  0  0  0  0  0  0  0  0  0  0
  -33.0700  -24.6050   19.5680 C   0  0  0  0  0  0  0  0  0  0  0  0
  -32.8490  -20.9410   20.7090 C   0  0  0  0  0  2  0  0  0  0  0  0
  -31.6200  -20.0390   20.4730 C   0  0  0  0  0  2  0  0  0  0  0  0
  -31.6510  -18.8490   21.3510 N   0  0  0  0  0  4  0  0  0  0  0  0
  -31.4110  -19.1280   22.2890 H   0  0  0  0  0  0  0  0  0  0  0  0
  -32.5950  -18.4980   21.3680 H   0  0  0  0  0  0  0  0  0  0  0  0
  -30.7740  -17.7340   20.9300 C   0  0  0  0  0  2  0  0  0  0  0  0
  -30.8870  -16.5340   21.8990 C   0  0  0  0  0  2  0  0  0  0  0  0
  -30.6140  -14.5480   20.4410 C   0  0  0  0  0  0  0  0  0  0  0  0
  -30.2320  -12.5080   19.1150 C   0  0  0  0  0  2  0  0  0  0  0  0
  -29.2620  -12.7760   17.9490 C   0  0  0  0  0  2  0  0  0  0  0  0
  -27.8030  -12.6010   18.4070 C   0  0  0  0  0  2  0  0  0  0  0  0
  -27.4910  -13.3760   19.7150 C   0  0  0  0  0  3  0  0  0  0  0  0
  -28.5680  -13.1040   20.7890 C   0  0  0  0  0  2  0  0  0  0  0  0
  -29.8900  -13.4210   20.2160 N   0  0  0  0  0  0  0  0  0  0  0  0
  -31.6270  -14.8440   19.8020 O   0  0  0  0  0  0  0  0  0  0  0  0
  -30.1800  -15.3390   21.4290 N   0  0  0  0  0  0  0  0  0  0  0  0
  -29.3530  -15.0470   21.9290 H   0  0  0  0  0  0  0  0  0  0  0  0
  -25.0830  -13.9240   20.4440 C   0  0  0  0  0  0  0  0  0  0  0  0
  -24.0380  -13.1250   20.8240 C   0  0  0  0  0  0  0  0  0  0  0  0
  -24.5310  -11.7840   20.7850 C   0  0  0  0  0  0  0  0  0  0  0  0
  -26.1480  -13.0690   20.2050 N   0  0  0  0  0  0  0  0  0  0  0  0
  -25.8190  -11.7780   20.4630 N   0  0  0  0  0  0  0  0  0  0  0  0
  -23.8380  -10.5040   20.9800 C   0  0  0  0  0  0  0  0  0  0  0  0
  -24.2860   -9.5580   21.9290 C   0  0  0  0  0  3  0  0  0  0  0  0
  -23.5940   -8.3430   22.1100 C   0  0  0  0  0  3  0  0  0  0  0  0
  -22.4380   -8.0630   21.3440 C   0  0  0  0  0  0  0  0  0  0  0  0
  -22.0090   -8.9980   20.3850 C   0  0  0  0  0  3  0  0  0  0  0  0
  -22.7030  -10.2060   20.2020 C   0  0  0  0  0  3  0  0  0  0  0  0
  -21.7160   -6.8980   21.4330 O   0  0  0  0  0  0  0  0  0  0  0  0
  -21.6660   -6.1700   22.5950 C   0  0  0  0  0  0  0  0  0  0  0  0
  -21.1760   -6.7200   23.7990 C   0  0  0  0  0  3  0  0  0  0  0  0
  -21.0780   -5.9160   24.9520 C   0  0  0  0  0  3  0  0  0  0  0  0
  -21.4580   -4.5620   24.9020 C   0  0  0  0  0  0  0  0  0  0  0  0
  -21.9400   -4.0100   23.7010 C   0  0  0  0  0  3  0  0  0  0  0  0
  -22.0400   -4.8120   22.5510 C   0  0  0  0  0  0  0  0  0  0  0  0
  -22.4850   -4.2700   21.3920 F   0  0  0  0  0  0  0  0  0  0  0  0
  -21.3580   -3.7860   26.0060 F   0  0  0  0  0  0  0  0  0  0  0  0
  -22.6330  -13.5660   21.1170 C   0  0  0  0  0  0  0  0  0  0  0  0
  -21.9310  -12.8440   21.9840 N   0  0  0  0  0  0  0  0  0  0  0  0
  -22.1640  -14.5860   20.6120 O   0  0  0  0  0  0  0  0  0  0  0  0
  -22.3240  -12.0200   22.4130 H   0  0  0  0  0  0  0  0  0  0  0  0
  -20.9900  -13.1220   22.2230 H   0  0  0  0  0  0  0  0  0  0  0  0
  -25.2150  -15.2990   20.2660 N   0  0  0  0  0  0  0  0  0  0  0  0
  -24.4360  -15.9380   20.3820 H   0  0  0  0  0  0  0  0  0  0  0  0
  -26.0540  -15.7520   19.9280 H   0  0  0  0  0  0  0  0  0  0  0  0
  -33.1570  -25.9860   20.2110 C   0  0  0  0  0  2  0  0  0  0  0  0
  -32.0140  -26.8710   19.9010 N   0  0  0  0  0  4  0  0  0  0  0  0
  -32.1010  -27.1790   18.9450 H   0  0  0  0  0  0  0  0  0  0  0  0
  -32.1190  -27.6880   20.4830 H   0  0  0  0  0  0  0  0  0  0  0  0
  -30.6650  -26.2890   20.1040 C   0  0  0  0  0  2  0  0  0  0  0  0
  -29.5820  -27.3750   20.1990 C   0  0  0  0  0  2  0  0  0  0  0  0
  -28.3150  -26.7590   20.0010 O   0  0  0  0  0  0  0  0  0  0  0  0
  -24.5620  -31.9280   23.2200 C   0  0  0  0  0  0  0  0  0  0  0  0
  -27.1830  -27.5380   20.0790 C   0  0  0  0  0  0  0  0  0  0  0  0
  -23.3280  -30.5300   21.5900 C   0  0  0  0  0  3  0  0  0  0  0  0
  -24.7630  -29.0000   20.1400 C   0  0  0  0  0  0  0  0  0  0  0  0
  -25.8420  -30.9090   21.3430 C   0  0  0  0  0  2  0  0  0  0  0  0
  -25.9230  -29.5410   20.7060 C   0  0  0  0  0  0  0  0  0  0  0  0
  -27.1340  -28.8210   20.6770 C   0  0  0  0  0  3  0  0  0  0  0  0
  -26.0010  -26.9990   19.5300 C   0  0  0  0  0  3  0  0  0  0  0  0
  -24.7940  -27.7240   19.5520 C   0  0  0  0  0  3  0  0  0  0  0  0
  -23.5150  -29.8510   20.2060 C   0  0  0  0  0  2  0  0  0  0  0  0
  -24.5960  -31.1350   22.1110 N   0  0  0  0  0  0  0  0  0  0  0  0
  -23.4910  -32.1940   23.7810 O   0  0  0  0  0  0  0  0  0  0  0  0
  -22.6960  -29.5050   22.5570 C   0  0  0  0  0  0  0  0  0  0  0  0
  -21.3700  -29.3190   22.4460 N   0  0  0  0  0  0  0  0  0  0  0  0
  -23.3920  -28.8790   23.3610 O   0  0  0  0  0  0  0  0  0  0  0  0
  -20.8700  -29.8760   21.7670 H   0  0  0  0  0  0  0  0  0  0  0  0
  -18.0040  -28.1320   22.9900 C   0  0  0  0  0  0  0  0  0  0  0  0
  -20.5660  -28.3790   23.2240 C   0  0  0  0  0  3  0  0  0  0  0  0
  -20.6550  -26.9520   22.6350 C   0  0  0  0  0  2  0  0  0  0  0  0
  -19.5360  -26.6400   21.6370 C   0  0  0  0  0  2  0  0  0  0  0  0
  -18.1650  -26.7860   22.3030 C   0  0  0  0  0  2  0  0  0  0  0  0
  -19.1320  -28.8870   23.4080 C   0  0  0  0  0  0  0  0  0  0  0  0
  -18.9270  -30.1480   24.0090 C   0  0  0  0  0  3  0  0  0  0  0  0
  -17.6280  -30.6540   24.1970 C   0  0  0  0  0  3  0  0  0  0  0  0
  -16.5140  -29.8950   23.7970 C   0  0  0  0  0  3  0  0  0  0  0  0
  -16.7030  -28.6370   23.1980 C   0  0  0  0  0  3  0  0  0  0  0  0
  -25.8590  -32.5540   23.8210 C   0  0  0  0  0  3  0  0  0  0  0  0
  -26.3980  -31.7770   25.0860 C   0  0  1  0  0  0  0  0  0  0  0  0
  -25.3220  -31.5330   26.1680 C   0  0  0  0  0  1  0  0  0  0  0  0
  -26.9790  -30.4040   24.6760 C   0  0  0  0  0  1  0  0  0  0  0  0
  -27.5560  -32.5720   25.7340 C   0  0  0  0  0  1  0  0  0  0  0  0
  -25.5610  -33.9520   24.1550 N   0  0  0  0  0  0  0  0  0  0  0  0
  -25.9010  -35.0020   23.3950 C   0  0  0  0  0  0  0  0  0  0  0  0
  -26.5710  -34.8950   22.3640 O   0  0  0  0  0  0  0  0  0  0  0  0
  -24.9670  -34.1100   24.9550 H   0  0  0  0  0  0  0  0  0  0  0  0
  -24.1980  -36.8140   23.0240 C   0  0  0  0  0  1  0  0  0  0  0  0
  -25.4220  -36.3930   23.8530 C   0  0  0  0  0  3  0  0  0  0  0  0
  -27.5510  -37.2510   24.7230 C   0  0  0  0  0  1  0  0  0  0  0  0
  -26.4680  -37.4350   23.7610 N   0  0  0  0  0  0  0  0  0  0  0  0
  -26.0700  -38.3590   23.9040 H   0  0  0  0  0  0  0  0  0  0  0  0
  1  3  2  0
  1  2  1  0
  2  5  2  0
  3  6  1  0
  5  4  1  0
  5  7  1  0
  6 52  1  0
  6  4  2  0
  8  7  1  0
  8  9  1  0
  9 11  1  0
  9 10  1  0
 12  9  1  0
 12 13  1  0
 14 22  1  0
 15 20  1  0
 16 17  1  0
 16 15  1  0
 18 17  1  0
 18 27  1  0
 18 19  1  0
 20 14  1  0
 20 19  1  0
 21 14  2  0
 22 13  1  0
 22 23  1  0
 24 25  2  0
 25 44  1  0
 26 25  1  0
 26 29  1  0
 27 24  1  0
 27 28  1  0
 28 26  2  0
 29 30  1  0
 30 31  2  0
 32 35  1  0
 32 31  1  0
 33 32  2  0
 34 33  1  0
 34 29  2  0
 35 36  1  0
 36 37  1  0
 37 38  2  0
 39 38  1  0
 39 43  1  0
 40 39  2  0
 41 36  2  0
 41 40  1  0
 42 41  1  0
 44 45  1  0
 45 48  1  0
 45 47  1  0
 46 44  2  0
 49 50  1  0
 49 24  1  0
 51 49  1  0
 53 56  1  0
 53 52  1  0
 53 55  1  0
 54 53  1  0
 56 57  1  0
 58 60  1  0
 58 57  1  0
 59 70  2  0
 60 65  1  0
 61 69  1  0
 61 71  1  0
 62 68  1  0
 62 64  1  0
 63 69  1  0
 64 63  1  0
 65 64  2  0
 66 67  1  0
 66 60  2  0
 67 62  2  0
 68 61  1  0
 69 59  1  0
 71 73  2  0
 72 71  1  0
 74 72  1  0
 75 84  2  0
 75 80  1  0
 76 72  1  0
 76 80  1  0
 77 76  1  0
 78 79  1  0
 78 77  1  0
 79 75  1  0
 80 81  2  0
 81 82  1  0
 83 82  2  0
 84 83  1  0
 85 59  1  0
 85 90  1  0
 85 86  1  0
 86 89  1  1
 86 87  1  0
 88 86  1  0
 90 93  1  0
 91 95  1  0
 91 90  1  0
 92 91  2  0
 95 94  1  0
 97 95  1  0
 97 98  1  0
 97 96  1  0
M  ISO  4  14 100  22 100  57 101  58 101
M  END
>  <TORSDO>  (79) 
F 25

>  <SCORE>  (79) 
-11.897

>  <name>  (79) 
78

>  <ligand_id>  (79) 
78

>  <original_smiles>  (79) 
[H]c1c([H])c([H])c2c(c1[H])C([H])([H])C([H])([H])C([H])([H])C2([H])N([H])C(=O)C1([H])N(C(=O)C([H])(N([H])C(=O)C([H])(N([H])C([H])([H])[H])C([H])([H])[H])C(C([H])([H])[H])(C([H])([H])[H])C([H])([H])[H])C([H])([H])c2c([H])c(OC([H])([H])C([H])([H])[N+]([H])([H])C([H])([H])c3c([H])c([H])c([H])c(C([H])([H])C([H])([H])[N+]([H])([H])C([H])([H])C([H])([H])N([H])C(=O)N4C([H])([H])C([H])([H])C([H])([H])C([H])(n5nc(-c6c([H])c([H])c(Oc7c([H])c([H])c(F)c([H])c7F)c([H])c6[H])c(C(=O)N([H])[H])c5N([H])[H])C4([H])[H])c3[H])c([H])c([H])c2C1([H])[H]

>  <smiles>  (79) 
[H]c1c([H])c([H])c2c(c1[H])C([H])([H])C([H])([H])C([H])([H])C2([H])N([H])C(=O)C1([H])N(C(=O)C([H])(N([H])C(=O)C([H])(N([H])C([H])([H])[H])C([H])([H])[H])C(C([H])([H])[H])(C([H])([H])[H])C([H])([H])[H])C([H])([H])c2c([H])c(OC([H])([H])C([H])([H])[N+]([H])([H])C([H])([H])c3c([H])c([H])c([H])c(C([H])([H])C([H])([H])[N+]([H])([H])C([H])([H])C([H])([H])N([H])C(=O)N4C([H])([H])C([H])([H])C([H])([H])C([H])(n5nc(-c6c([H])c([H])c(Oc7c([H])c([H])c(F)c([H])c7F)c([H])c6[H])c(C(=O)N([H])[H])c5N([H])[H])C4([H])[H])c3[H])c([H])c([H])c2C1([H])[H]

$$$$
79:0:0
     RDKit          3D

101109  0  0  1  0  0  0  0  0999 V2000
  -24.4750  -22.1840   18.4150 C   0  0  0  0  0  3  0  0  0  0  0  0
  -25.0480  -22.2600   19.6970 C   0  0  0  0  0  3  0  0  0  0  0  0
  -25.1290  -22.7740   17.3190 C   0  0  0  0  0  3  0  0  0  0  0  0
  -26.8520  -23.6270   18.8220 C   0  0  0  0  0  3  0  0  0  0  0  0
  -26.2720  -22.9380   19.9100 C   0  0  0  0  0  0  0  0  0  0  0  0
  -26.3130  -23.5050   17.5240 C   0  0  0  0  0  0  0  0  0  0  0  0
  -26.8720  -22.9230   21.2960 C   0  0  0  0  0  0  0  0  0  0  0  0
  -27.9860  -22.2200   21.5730 N   0  0  0  0  0  0  0  0  0  0  0  0
  -26.2280  -23.4050   22.2300 O   0  0  0  0  0  0  0  0  0  0  0  0
  -28.1090  -22.1300   22.5730 H   0  0  0  0  0  0  0  0  0  0  0  0
  -29.2390  -22.0670   20.8300 C   0  0  0  0  0  2  0  0  0  0  0  0
  -29.4050  -20.7930   19.9690 C   0  0  0  0  0  2  0  0  0  0  0  0
  -29.4900  -19.4630   20.7290 C   0  0  0  0  0  2  0  0  0  0  0  0
  -30.2320  -18.4560   19.9300 N   0  0  0  0  0  4  0  0  0  0  0  0
  -29.7950  -18.3780   19.0240 H   0  0  0  0  0  0  0  0  0  0  0  0
  -31.1760  -18.7790   19.7920 H   0  0  0  0  0  0  0  0  0  0  0  0
  -30.2710  -17.1150   20.5410 C   0  0  0  0  0  2  0  0  0  0  0  0
  -31.5550  -16.3230   20.2020 C   0  0  0  0  0  2  0  0  0  0  0  0
  -32.0160  -13.8620   20.4690 C   0  0  0  0  0  0  0  0  0  0  0  0
  -31.7350  -11.4080   20.5870 C   0  0  0  0  0  2  0  0  0  0  0  0
  -30.9560  -10.8880   19.3620 C   0  0  0  0  0  2  0  0  0  0  0  0
  -29.4310  -11.0040   19.5670 C   0  0  0  0  0  2  0  0  0  0  0  0
  -29.0100  -12.4050   20.0750 C   0  0  0  0  0  3  0  0  0  0  0  0
  -29.8820  -12.8100   21.2830 C   0  0  0  0  0  2  0  0  0  0  0  0
  -31.3010  -12.7800   20.8690 N   0  0  0  0  0  0  0  0  0  0  0  0
  -33.0850  -13.8060   19.8500 O   0  0  0  0  0  0  0  0  0  0  0  0
  -31.4380  -15.0130   20.8250 N   0  0  0  0  0  0  0  0  0  0  0  0
  -30.6520  -14.8930   21.4460 H   0  0  0  0  0  0  0  0  0  0  0  0
  -26.7210  -13.5330   20.4610 C   0  0  0  0  0  0  0  0  0  0  0  0
  -25.4890  -13.0160   20.7590 C   0  0  0  0  0  0  0  0  0  0  0  0
  -25.6680  -11.6040   20.8620 C   0  0  0  0  0  0  0  0  0  0  0  0
  -27.5860  -12.4490   20.4060 N   0  0  0  0  0  0  0  0  0  0  0  0
  -26.9460  -11.2890   20.7000 N   0  0  0  0  0  0  0  0  0  0  0  0
  -24.6900  -10.5250   21.0490 C   0  0  0  0  0  0  0  0  0  0  0  0
  -24.9340   -9.4500   21.9330 C   0  0  0  0  0  3  0  0  0  0  0  0
  -23.9720   -8.4320   22.1030 C   0  0  0  0  0  3  0  0  0  0  0  0
  -22.7480   -8.4860   21.3950 C   0  0  0  0  0  0  0  0  0  0  0  0
  -22.5220   -9.5440   20.4970 C   0  0  0  0  0  3  0  0  0  0  0  0
  -23.4830  -10.5530   20.3230 C   0  0  0  0  0  3  0  0  0  0  0  0
  -21.7620   -7.5310   21.4820 O   0  0  0  0  0  0  0  0  0  0  0  0
  -21.6150   -6.7520   22.6010 C   0  0  0  0  0  0  0  0  0  0  0  0
  -21.4710   -7.3150   23.8880 C   0  0  0  0  0  3  0  0  0  0  0  0
  -21.2510   -6.4790   25.0010 C   0  0  0  0  0  3  0  0  0  0  0  0
  -21.1660   -5.0850   24.8310 C   0  0  0  0  0  0  0  0  0  0  0  0
  -21.3040   -4.5230   23.5500 C   0  0  0  0  0  3  0  0  0  0  0  0
  -21.5260   -5.3550   22.4380 C   0  0  0  0  0  0  0  0  0  0  0  0
  -21.6380   -4.8090   21.2040 F   0  0  0  0  0  0  0  0  0  0  0  0
  -20.9470   -4.2820   25.8980 F   0  0  0  0  0  0  0  0  0  0  0  0
  -24.1950  -13.7740   20.8510 C   0  0  0  0  0  0  0  0  0  0  0  0
  -23.2810  -13.3240   21.7050 N   0  0  0  0  0  0  0  0  0  0  0  0
  -24.0080  -14.7990   20.1950 O   0  0  0  0  0  0  0  0  0  0  0  0
  -23.4410  -12.4920   22.2530 H   0  0  0  0  0  0  0  0  0  0  0  0
  -22.4070  -13.8180   21.8150 H   0  0  0  0  0  0  0  0  0  0  0  0
  -27.1780  -14.8230   20.2140 N   0  0  0  0  0  0  0  0  0  0  0  0
  -26.5460  -15.6120   20.1280 H   0  0  0  0  0  0  0  0  0  0  0  0
  -28.1040  -15.0190   19.8570 H   0  0  0  0  0  0  0  0  0  0  0  0
  -26.9530  -24.0810   16.4260 N   0  0  0  0  0  0  0  0  0  0  0  0
  -26.3420  -24.2300   15.6300 H   0  0  0  0  0  0  0  0  0  0  0  0
  -27.7800  -25.2410   16.7320 C   0  0  0  0  0  2  0  0  0  0  0  0
  -27.4100  -26.4250   15.8250 C   0  0  0  0  0  2  0  0  0  0  0  0
  -27.6350  -27.6680   16.4770 O   0  0  0  0  0  0  0  0  0  0  0  0
  -25.5460  -28.7100   23.1660 C   0  0  0  0  0  0  0  0  0  0  0  0
  -26.6470  -28.1920   17.2820 C   0  0  0  0  0  0  0  0  0  0  0  0
  -23.8640  -29.2390   21.4310 C   0  0  0  0  0  3  0  0  0  0  0  0
  -24.7210  -29.2860   19.0360 C   0  0  0  0  0  0  0  0  0  0  0  0
  -26.3630  -29.3980   20.9180 C   0  0  0  0  0  2  0  0  0  0  0  0
  -26.0260  -29.0520   19.4850 C   0  0  0  0  0  0  0  0  0  0  0  0
  -26.9890  -28.5060   18.6130 C   0  0  0  0  0  3  0  0  0  0  0  0
  -25.3190  -28.4310   16.8460 C   0  0  0  0  0  3  0  0  0  0  0  0
  -24.3560  -28.9630   17.7190 C   0  0  0  0  0  3  0  0  0  0  0  0
  -23.7600  -29.8920   20.0300 C   0  0  0  0  0  2  0  0  0  0  0  0
  -25.2840  -29.0740   21.8800 N   0  0  0  0  0  0  0  0  0  0  0  0
  -24.6300  -28.5510   23.9840 O   0  0  0  0  0  0  0  0  0  0  0  0
  -23.0660  -27.9150   21.4220 C   0  0  0  0  0  0  0  0  0  0  0  0
  -21.7310  -28.0240   21.3330 N   0  0  0  0  0  0  0  0  0  0  0  0
  -23.6460  -26.8260   21.4710 O   0  0  0  0  0  0  0  0  0  0  0  0
  -21.3310  -28.9510   21.3020 H   0  0  0  0  0  0  0  0  0  0  0  0
  -18.2480  -27.2060   20.8430 C   0  0  0  0  0  0  0  0  0  0  0  0
  -20.7790  -26.9150   21.2780 C   0  0  0  0  0  3  0  0  0  0  0  0
  -20.8310  -26.2040   19.9060 C   0  0  0  0  0  2  0  0  0  0  0  0
  -19.8100  -26.7520   18.9020 C   0  0  0  0  0  2  0  0  0  0  0  0
  -18.3870  -26.6100   19.4520 C   0  0  0  0  0  2  0  0  0  0  0  0
  -19.3730  -27.3640   21.6930 C   0  0  0  0  0  0  0  0  0  0  0  0
  -19.1960  -27.9570   22.9630 C   0  0  0  0  0  3  0  0  0  0  0  0
  -17.9210  -28.3810   23.3880 C   0  0  0  0  0  3  0  0  0  0  0  0
  -16.8080  -28.2080   22.5480 C   0  0  0  0  0  3  0  0  0  0  0  0
  -16.9720  -27.6190   21.2800 C   0  0  0  0  0  3  0  0  0  0  0  0
  -27.0030  -28.4980   23.6750 C   0  0  0  0  0  3  0  0  0  0  0  0
  -27.4420  -26.9810   23.7100 C   0  0  1  0  0  0  0  0  0  0  0  0
  -26.4590  -26.0700   24.4830 C   0  0  0  0  0  1  0  0  0  0  0  0
  -27.5730  -26.4210   22.2740 C   0  0  0  0  0  1  0  0  0  0  0  0
  -28.8360  -26.8490   24.3670 C   0  0  0  0  0  1  0  0  0  0  0  0
  -27.0990  -29.1010   25.0120 N   0  0  0  0  0  0  0  0  0  0  0  0
  -27.7240  -30.2570   25.2800 C   0  0  0  0  0  0  0  0  0  0  0  0
  -28.3500  -30.8950   24.4300 O   0  0  0  0  0  0  0  0  0  0  0  0
  -26.5610  -28.6670   25.7490 H   0  0  0  0  0  0  0  0  0  0  0  0
  -26.6420  -31.9570   26.7830 C   0  0  0  0  0  1  0  0  0  0  0  0
  -27.6360  -30.7880   26.7230 C   0  0  0  0  0  3  0  0  0  0  0  0
  -29.8580  -30.1000   27.5090 C   0  0  0  0  0  1  0  0  0  0  0  0
  -28.9410  -31.2130   27.2720 N   0  0  0  0  0  0  0  0  0  0  0  0
  -28.8160  -31.7120   28.1490 H   0  0  0  0  0  0  0  0  0  0  0  0
  1  2  1  0
  2  5  2  0
  3  6  1  0
  3  1  2  0
  4  5  1  0
  5  7  1  0
  6  4  2  0
  7  8  1  0
  7  9  2  0
  8 10  1  0
 11  8  1  0
 12 13  1  0
 12 11  1  0
 14 17  1  0
 14 13  1  0
 15 14  1  0
 16 14  1  0
 18 17  1  0
 18 27  1  0
 19 27  1  0
 19 25  1  0
 20 25  1  0
 21 22  1  0
 21 20  1  0
 23 22  1  0
 23 32  1  0
 23 24  1  0
 25 24  1  0
 26 19  2  0
 27 28  1  0
 29 30  2  0
 30 49  1  0
 30 31  1  0
 31 34  1  0
 32 29  1  0
 32 33  1  0
 33 31  2  0
 34 35  1  0
 35 36  2  0
 37 40  1  0
 37 36  1  0
 38 37  2  0
 39 38  1  0
 39 34  2  0
 40 41  1  0
 41 42  1  0
 42 43  2  0
 44 43  1  0
 44 48  1  0
 45 44  2  0
 46 41  2  0
 46 45  1  0
 47 46  1  0
 49 50  1  0
 50 53  1  0
 50 52  1  0
 51 49  2  0
 54 29  1  0
 55 54  1  0
 56 54  1  0
 57 59  1  0
 57  6  1  0
 58 57  1  0
 60 61  1  0
 60 59  1  0
 61 63  1  0
 62 73  2  0
 63 68  1  0
 64 74  1  0
 64 72  1  0
 65 67  1  0
 65 71  1  0
 66 72  1  0
 67 66  1  0
 68 67  2  0
 69 63  2  0
 69 70  1  0
 70 65  2  0
 71 64  1  0
 72 62  1  0
 74 76  2  0
 75 74  1  0
 77 75  1  0
 78 87  2  0
 78 83  1  0
 79 75  1  0
 79 83  1  0
 80 79  1  0
 81 82  1  0
 81 80  1  0
 82 78  1  0
 83 84  2  0
 84 85  1  0
 86 85  2  0
 87 86  1  0
 88 62  1  0
 88 89  1  0
 88 93  1  0
 89 92  1  1
 89 90  1  0
 91 89  1  0
 93 94  1  0
 93 96  1  0
 94 98  1  0
 95 94  2  0
 98 97  1  0
 98100  1  0
100 99  1  0
100101  1  0
M  ISO  4  19 100  27 100  60 101  61 101
M  END
>  <TORSDO>  (80) 
F 26

>  <SCORE>  (80) 
-8.176

>  <name>  (80) 
79

>  <ligand_id>  (80) 
79

>  <original_smiles>  (80) 
[H]c1c([H])c(C(=O)N([H])C([H])([H])C([H])([H])C([H])([H])[N+]([H])([H])C([H])([H])C([H])([H])N([H])C(=O)N2C([H])([H])C([H])([H])C([H])([H])C([H])(n3nc(-c4c([H])c([H])c(Oc5c([H])c([H])c(F)c([H])c5F)c([H])c4[H])c(C(=O)N([H])[H])c3N([H])[H])C2([H])[H])c([H])c(N([H])C([H])([H])C([H])([H])Oc2c([H])c([H])c3c(c2[H])C([H])([H])N(C(=O)C([H])(N([H])C(=O)C([H])(N([H])C([H])([H])[H])C([H])([H])[H])C(C([H])([H])[H])(C([H])([H])[H])C([H])([H])[H])C([H])(C(=O)N([H])C2([H])c4c([H])c([H])c([H])c([H])c4C([H])([H])C([H])([H])C2([H])[H])C3([H])[H])c1[H]

>  <smiles>  (80) 
[H]c1c([H])c(C(=O)N([H])C([H])([H])C([H])([H])C([H])([H])[N+]([H])([H])C([H])([H])C([H])([H])N([H])C(=O)N2C([H])([H])C([H])([H])C([H])([H])C([H])(n3nc(-c4c([H])c([H])c(Oc5c([H])c([H])c(F)c([H])c5F)c([H])c4[H])c(C(=O)N([H])[H])c3N([H])[H])C2([H])[H])c([H])c(N([H])C([H])([H])C([H])([H])Oc2c([H])c([H])c3c(c2[H])C([H])([H])N(C(=O)C([H])(N([H])C(=O)C([H])(N([H])C([H])([H])[H])C([H])([H])[H])C(C([H])([H])[H])(C([H])([H])[H])C([H])([H])[H])C([H])(C(=O)N([H])C2([H])c4c([H])c([H])c([H])c([H])c4C([H])([H])C([H])([H])C2([H])[H])C3([H])[H])c1[H]

$$$$
80:0:0
     RDKit          3D

 97104  0  0  1  0  0  0  0  0999 V2000
  -29.5750  -20.0310   22.1530 C   0  0  0  0  0  1  0  0  0  0  0  0
  -29.9170  -20.1190   20.6500 C   0  0  1  0  0  0  0  0  0  0  0  0
  -29.0530  -21.5820   20.1630 C   0  0  0  0  0  2  0  0  0  0  0  0
  -29.2180  -23.2600   20.6360 C   0  0  0  0  0  3  0  0  0  0  0  0
  -28.3100  -24.6660   20.1390 C   0  0  0  0  0  3  0  0  0  0  0  0
  -28.4900  -26.2300   20.4370 O   0  0  0  0  0  0  0  0  0  0  0  0
  -24.7120  -31.9810   23.2750 C   0  0  0  0  0  0  0  0  0  0  0  0
  -27.4360  -27.2430   20.3200 C   0  0  0  0  0  0  0  0  0  0  0  0
  -23.5740  -30.5560   21.6180 C   0  0  0  0  0  3  0  0  0  0  0  0
  -25.0800  -28.9930   20.2190 C   0  0  0  0  0  0  0  0  0  0  0  0
  -26.1250  -30.8520   21.5010 C   0  0  0  0  0  2  0  0  0  0  0  0
  -26.2420  -29.4530   20.8550 C   0  0  0  0  0  0  0  0  0  0  0  0
  -27.4180  -28.5950   20.8860 C   0  0  0  0  0  3  0  0  0  0  0  0
  -26.2490  -26.9090   19.6300 C   0  0  0  0  0  3  0  0  0  0  0  0
  -25.1030  -27.7400   19.5850 C   0  0  0  0  0  3  0  0  0  0  0  0
  -23.8390  -29.8770   20.2440 C   0  0  0  0  0  2  0  0  0  0  0  0
  -24.8240  -31.1560   22.1860 N   0  0  0  0  0  0  0  0  0  0  0  0
  -23.6090  -32.2460   23.7800 O   0  0  0  0  0  0  0  0  0  0  0  0
  -22.8950  -29.5420   22.5740 C   0  0  0  0  0  0  0  0  0  0  0  0
  -21.5770  -29.3310   22.4160 N   0  0  0  0  0  0  0  0  0  0  0  0
  -23.5600  -28.9440   23.4220 O   0  0  0  0  0  0  0  0  0  0  0  0
  -21.0960  -29.8690   21.7110 H   0  0  0  0  0  0  0  0  0  0  0  0
  -18.2190  -28.0380   22.8580 C   0  0  0  0  0  0  0  0  0  0  0  0
  -20.7640  -28.3770   23.1760 C   0  0  0  0  0  3  0  0  0  0  0  0
  -20.9160  -26.9450   22.6120 C   0  0  0  0  0  2  0  0  0  0  0  0
  -19.8440  -26.5850   21.5760 C   0  0  0  0  0  2  0  0  0  0  0  0
  -18.4470  -26.6930   22.1910 C   0  0  0  0  0  2  0  0  0  0  0  0
  -19.3060  -28.8370   23.3060 C   0  0  0  0  0  0  0  0  0  0  0  0
  -19.0360  -30.0910   23.8910 C   0  0  0  0  0  3  0  0  0  0  0  0
  -17.7120  -30.5510   24.0340 C   0  0  0  0  0  3  0  0  0  0  0  0
  -16.6410  -29.7520   23.5970 C   0  0  0  0  0  3  0  0  0  0  0  0
  -16.8950  -28.4980   23.0150 C   0  0  0  0  0  3  0  0  0  0  0  0
  -25.9610  -32.6500   23.9250 C   0  0  0  0  0  3  0  0  0  0  0  0
  -26.4470  -31.9100   25.2330 C   0  0  1  0  0  0  0  0  0  0  0  0
  -25.3240  -31.6600   26.2680 C   0  0  0  0  0  1  0  0  0  0  0  0
  -27.0800  -30.5440   24.8890 C   0  0  0  0  0  1  0  0  0  0  0  0
  -27.5520  -32.7440   25.9240 C   0  0  0  0  0  1  0  0  0  0  0  0
  -25.6130  -34.0470   24.2350 N   0  0  0  0  0  0  0  0  0  0  0  0
  -25.9210  -35.1020   23.4670 C   0  0  0  0  0  0  0  0  0  0  0  0
  -26.6000  -35.0000   22.4400 O   0  0  0  0  0  0  0  0  0  0  0  0
  -25.0120  -34.1940   25.0330 H   0  0  0  0  0  0  0  0  0  0  0  0
  -24.1480  -36.8510   23.1000 C   0  0  0  0  0  1  0  0  0  0  0  0
  -25.4040  -36.4850   23.9070 C   0  0  0  0  0  3  0  0  0  0  0  0
  -27.5160  -37.4450   24.7140 C   0  0  0  0  0  1  0  0  0  0  0  0
  -26.4090  -37.5630   23.7710 N   0  0  0  0  0  0  0  0  0  0  0  0
  -25.9790  -38.4750   23.9000 H   0  0  0  0  0  0  0  0  0  0  0  0
  -31.4410  -20.4500   20.5430 C   0  0  0  0  0  2  0  0  0  0  0  0
  -31.8520  -21.0390   19.2400 N   0  0  0  0  0  4  0  0  0  0  0  0
  -32.2010  -21.9670   19.4310 H   0  0  0  0  0  0  0  0  0  0  0  0
  -31.0400  -21.1680   18.6590 H   0  0  0  0  0  0  0  0  0  0  0  0
  -34.3130  -20.7520   18.9530 C   0  0  0  0  0  1  0  0  0  0  0  0
  -32.7480  -20.5110   16.9720 C   0  0  0  0  0  1  0  0  0  0  0  0
  -32.9120  -20.3160   18.4910 C   0  0  0  0  0  3  0  0  0  0  0  0
  -29.6830  -18.4340   20.1140 C   0  0  0  0  0  3  0  0  0  0  0  0
  -29.5600  -18.3220   18.6300 N   0  0  0  0  0  4  0  0  0  0  0  0
  -30.4500  -18.4500   18.1880 H   0  0  0  0  0  0  0  0  0  0  0  0
  -29.2930  -17.3750   18.4090 H   0  0  0  0  0  0  0  0  0  0  0  0
  -27.1910  -18.4970   17.8330 C   0  0  0  0  0  1  0  0  0  0  0  0
  -29.0280  -19.7630   16.6290 C   0  0  0  0  0  1  0  0  0  0  0  0
  -28.5440  -19.2020   17.9800 C   0  0  0  0  0  3  0  0  0  0  0  0
  -30.2190  -16.8980   20.8320 C   0  0  0  0  0  2  0  0  0  0  0  0
  -30.8800  -15.3830   20.3220 C   0  0  0  0  0  0  0  0  0  0  0  0
  -30.8170  -12.9500   19.4690 C   0  0  0  0  0  2  0  0  0  0  0  0
  -29.9230  -12.8310   18.2070 C   0  0  0  0  0  2  0  0  0  0  0  0
  -28.4500  -12.6250   18.6020 C   0  0  0  0  0  2  0  0  0  0  0  0
  -28.0090  -13.5780   19.7440 C   0  0  0  0  0  3  0  0  0  0  0  0
  -29.0340  -13.6440   20.8950 C   0  0  0  0  0  2  0  0  0  0  0  0
  -30.3110  -14.0850   20.3160 N   0  0  0  0  0  0  0  0  0  0  0  0
  -32.0580  -15.3890   19.9370 O   0  0  0  0  0  0  0  0  0  0  0  0
  -25.6380  -14.1890   20.4630 C   0  0  0  0  0  0  0  0  0  0  0  0
  -24.5520  -13.4350   20.8030 C   0  0  0  0  0  0  0  0  0  0  0  0
  -24.9880  -12.0730   20.7580 C   0  0  0  0  0  0  0  0  0  0  0  0
  -26.6620  -13.2920   20.2210 N   0  0  0  0  0  0  0  0  0  0  0  0
  -26.2810  -12.0120   20.4640 N   0  0  0  0  0  0  0  0  0  0  0  0
  -24.2320  -10.8260   20.9250 C   0  0  0  0  0  0  0  0  0  0  0  0
  -24.6100   -9.8490   21.8730 C   0  0  0  0  0  3  0  0  0  0  0  0
  -23.8470   -8.6710   22.0250 C   0  0  0  0  0  3  0  0  0  0  0  0
  -22.6970   -8.4600   21.2310 C   0  0  0  0  0  0  0  0  0  0  0  0
  -22.3400   -9.4230   20.2710 C   0  0  0  0  0  3  0  0  0  0  0  0
  -23.1000  -10.5940   20.1170 C   0  0  0  0  0  3  0  0  0  0  0  0
  -21.9120   -7.3350   21.2940 O   0  0  0  0  0  0  0  0  0  0  0  0
  -21.7810   -6.6090   22.4500 C   0  0  0  0  0  0  0  0  0  0  0  0
  -21.2710   -7.1840   23.6340 C   0  0  0  0  0  3  0  0  0  0  0  0
  -21.0830   -6.3880   24.7810 C   0  0  0  0  0  3  0  0  0  0  0  0
  -21.4030   -5.0180   24.7490 C   0  0  0  0  0  0  0  0  0  0  0  0
  -21.9070   -4.4420   23.5710 C   0  0  0  0  0  3  0  0  0  0  0  0
  -22.0920   -5.2340   22.4240 C   0  0  0  0  0  0  0  0  0  0  0  0
  -22.5620   -4.6700   21.2860 F   0  0  0  0  0  0  0  0  0  0  0  0
  -21.2120   -4.2520   25.8490 F   0  0  0  0  0  0  0  0  0  0  0  0
  -23.1650  -13.9450   21.0570 C   0  0  0  0  0  0  0  0  0  0  0  0
  -22.4070  -13.2630   21.9090 N   0  0  0  0  0  0  0  0  0  0  0  0
  -22.7640  -14.9820   20.5290 O   0  0  0  0  0  0  0  0  0  0  0  0
  -22.7470  -12.4350   22.3730 H   0  0  0  0  0  0  0  0  0  0  0  0
  -21.4650  -13.5740   22.1010 H   0  0  0  0  0  0  0  0  0  0  0  0
  -25.8290  -15.5600   20.3100 N   0  0  0  0  0  0  0  0  0  0  0  0
  -26.6930  -15.9970   20.0360 H   0  0  0  0  0  0  0  0  0  0  0  0
  -25.0610  -16.2110   20.4380 H   0  0  0  0  0  0  0  0  0  0  0  0
  2  1  1  1
  3  4  1  0
  3  2  1  0
  5  6  1  0
  5  4  2  0
  7 18  2  0
  8  6  1  0
  8 13  1  0
  9 17  1  0
  9 19  1  0
 10 16  1  0
 10 12  1  0
 11 17  1  0
 12 13  2  0
 12 11  1  0
 14  8  2  0
 15 14  1  0
 15 10  2  0
 16  9  1  0
 17  7  1  0
 19 21  2  0
 20 19  1  0
 22 20  1  0
 23 32  2  0
 23 28  1  0
 24 20  1  0
 24 28  1  0
 25 24  1  0
 26 27  1  0
 26 25  1  0
 27 23  1  0
 28 29  2  0
 29 30  1  0
 31 30  2  0
 32 31  1  0
 33  7  1  0
 33 38  1  0
 33 34  1  0
 34 37  1  1
 34 35  1  0
 36 34  1  0
 38 41  1  0
 39 43  1  0
 39 38  1  0
 40 39  2  0
 43 42  1  0
 45 46  1  0
 45 43  1  0
 45 44  1  0
 47  2  1  0
 48 49  1  0
 48 47  1  0
 50 48  1  0
 52 53  1  0
 53 51  1  0
 53 48  1  0
 54  2  1  0
 54 61  1  0
 55 54  1  0
 56 55  1  0
 57 55  1  0
 58 60  1  0
 59 60  1  0
 60 55  1  0
 62 61  1  0
 63 68  1  0
 64 65  1  0
 64 63  1  0
 66 65  1  0
 66 73  1  0
 66 67  1  0
 68 62  1  0
 68 67  1  0
 69 62  2  0
 70 71  2  0
 71 90  1  0
 72 71  1  0
 72 75  1  0
 73 70  1  0
 73 74  1  0
 74 72  2  0
 75 76  1  0
 76 77  2  0
 78 81  1  0
 78 77  1  0
 79 78  2  0
 80 79  1  0
 80 75  2  0
 81 82  1  0
 82 83  1  0
 83 84  2  0
 85 84  1  0
 85 89  1  0
 86 85  2  0
 87 82  2  0
 87 86  1  0
 88 87  1  0
 90 91  1  0
 91 94  1  0
 91 93  1  0
 92 90  2  0
 95 97  1  0
 95 70  1  0
 96 95  1  0
M  ISO  4   5 101   6 101  61 100  62 100
M  END
>  <TORSDO>  (81) 
F 26

>  <SCORE>  (81) 
-13.117

>  <name>  (81) 
80

>  <ligand_id>  (81) 
80

>  <original_smiles>  (81) 
[H]c1c([H])c([H])c2c(c1[H])C([H])([H])C([H])([H])C([H])([H])C2([H])N([H])C(=O)C1([H])N(C(=O)C([H])(N([H])C(=O)C([H])(N([H])C([H])([H])[H])C([H])([H])[H])C(C([H])([H])[H])(C([H])([H])[H])C([H])([H])[H])C([H])([H])c2c([H])c(OC([H])([H])C([H])([H])C([H])([H])C(C([H])([H])[H])(C([H])([H])[N+]([H])([H])C([H])(C([H])([H])[H])C([H])([H])[H])C([H])(C([H])([H])C(=O)N3C([H])([H])C([H])([H])C([H])([H])C([H])(n4nc(-c5c([H])c([H])c(Oc6c([H])c([H])c(F)c([H])c6F)c([H])c5[H])c(C(=O)N([H])[H])c4N([H])[H])C3([H])[H])[N+]([H])([H])C([H])(C([H])([H])[H])C([H])([H])[H])c([H])c([H])c2C1([H])[H]

>  <smiles>  (81) 
[H]c1c([H])c([H])c2c(c1[H])C([H])([H])C([H])([H])C([H])([H])C2([H])N([H])C(=O)C1([H])N(C(=O)C([H])(N([H])C(=O)C([H])(N([H])C([H])([H])[H])C([H])([H])[H])C(C([H])([H])[H])(C([H])([H])[H])C([H])([H])[H])C([H])([H])c2c([H])c(OC([H])([H])C([H])([H])C([H])([H])C(C([H])([H])[H])(C([H])([H])[N+]([H])([H])C([H])(C([H])([H])[H])C([H])([H])[H])C([H])(C([H])([H])C(=O)N3C([H])([H])C([H])([H])C([H])([H])C([H])(n4nc(-c5c([H])c([H])c(Oc6c([H])c([H])c(F)c([H])c6F)c([H])c5[H])c(C(=O)N([H])[H])c4N([H])[H])C3([H])[H])[N+]([H])([H])C([H])(C([H])([H])[H])C([H])([H])[H])c([H])c([H])c2C1([H])[H]

$$$$
81:0:0
     RDKit          3D

 94103  0  0  1  0  0  0  0  0999 V2000
  -30.6830  -22.3250   19.8960 C   0  0  0  0  0  3  0  0  0  0  0  0
  -30.6400  -20.9370   20.1520 C   0  0  0  0  0  3  0  0  0  0  0  0
  -28.3110  -21.1460   20.7870 C   0  0  0  0  0  3  0  0  0  0  0  0
  -29.5440  -23.1400   20.0870 C   0  0  0  0  0  0  0  0  0  0  0  0
  -28.3400  -22.5420   20.5440 C   0  0  0  0  0  0  0  0  0  0  0  0
  -29.4480  -20.3300   20.6070 C   0  0  0  0  0  0  0  0  0  0  0  0
  -29.6420  -24.6460   19.8110 C   0  0  0  0  0  2  0  0  0  0  0  0
  -27.3410  -24.8920   20.7590 C   0  0  0  0  0  2  0  0  0  0  0  0
  -27.0700  -23.3780   20.7410 C   0  0  0  0  0  3  0  0  0  0  0  0
  -28.2760  -25.3340   19.6170 C   0  0  0  0  0  3  0  0  0  0  0  0
  -26.2580  -22.9820   21.9890 C   0  0  0  0  0  1  0  0  0  0  0  0
  -29.3330  -18.9640   20.9290 N   0  0  0  0  0  0  0  0  0  0  0  0
  -28.4380  -18.6690   21.3120 H   0  0  0  0  0  0  0  0  0  0  0  0
  -30.1120  -17.9020   20.2890 C   0  0  0  0  0  2  0  0  0  0  0  0
  -30.5520  -16.8270   21.3140 C   0  0  0  0  0  2  0  0  0  0  0  0
  -30.6290  -14.5720   20.2070 C   0  0  0  0  0  0  0  0  0  0  0  0
  -30.2830  -12.4350   19.0180 C   0  0  0  0  0  2  0  0  0  0  0  0
  -29.2780  -12.6270   17.8640 C   0  0  0  0  0  2  0  0  0  0  0  0
  -27.8290  -12.4690   18.3660 C   0  0  0  0  0  2  0  0  0  0  0  0
  -27.5450  -13.3030   19.6430 C   0  0  0  0  0  3  0  0  0  0  0  0
  -28.6520  -13.0800   20.6990 C   0  0  0  0  0  2  0  0  0  0  0  0
  -29.9480  -13.4020   20.0740 N   0  0  0  0  0  0  0  0  0  0  0  0
  -31.6790  -14.8150   19.6070 O   0  0  0  0  0  0  0  0  0  0  0  0
  -30.0480  -15.4880   20.9970 N   0  0  0  0  0  0  0  0  0  0  0  0
  -29.1830  -15.2120   21.4370 H   0  0  0  0  0  0  0  0  0  0  0  0
  -25.1860  -13.8970   20.4870 C   0  0  0  0  0  0  0  0  0  0  0  0
  -24.1360  -13.1150   20.8920 C   0  0  0  0  0  0  0  0  0  0  0  0
  -24.5930  -11.7650   20.8030 C   0  0  0  0  0  0  0  0  0  0  0  0
  -26.2160  -13.0200   20.1820 N   0  0  0  0  0  0  0  0  0  0  0  0
  -25.8650  -11.7330   20.4280 N   0  0  0  0  0  0  0  0  0  0  0  0
  -23.8760  -10.4990   21.0000 C   0  0  0  0  0  0  0  0  0  0  0  0
  -24.3490   -9.5140   21.8950 C   0  0  0  0  0  3  0  0  0  0  0  0
  -23.6330   -8.3120   22.0790 C   0  0  0  0  0  3  0  0  0  0  0  0
  -22.4290   -8.0860   21.3700 C   0  0  0  0  0  0  0  0  0  0  0  0
  -21.9750   -9.0600   20.4620 C   0  0  0  0  0  3  0  0  0  0  0  0
  -22.6930  -10.2540   20.2760 C   0  0  0  0  0  3  0  0  0  0  0  0
  -21.6810   -6.9390   21.4660 O   0  0  0  0  0  0  0  0  0  0  0  0
  -21.6780   -6.1740   22.6050 C   0  0  0  0  0  0  0  0  0  0  0  0
  -21.2860   -6.7020   23.8550 C   0  0  0  0  0  3  0  0  0  0  0  0
  -21.2320   -5.8630   24.9860 C   0  0  0  0  0  3  0  0  0  0  0  0
  -21.5580   -4.4980   24.8700 C   0  0  0  0  0  0  0  0  0  0  0  0
  -21.9420   -3.9710   23.6250 C   0  0  0  0  0  3  0  0  0  0  0  0
  -21.9990   -4.8060   22.4950 C   0  0  0  0  0  0  0  0  0  0  0  0
  -22.3500   -4.2880   21.2930 F   0  0  0  0  0  0  0  0  0  0  0  0
  -21.4980   -3.6920   25.9540 F   0  0  0  0  0  0  0  0  0  0  0  0
  -22.7570  -13.5860   21.2510 C   0  0  0  0  0  0  0  0  0  0  0  0
  -22.0730  -12.8660   22.1330 N   0  0  0  0  0  0  0  0  0  0  0  0
  -22.2940  -14.6260   20.7840 O   0  0  0  0  0  0  0  0  0  0  0  0
  -22.4610  -12.0230   22.5320 H   0  0  0  0  0  0  0  0  0  0  0  0
  -21.1490  -13.1610   22.4150 H   0  0  0  0  0  0  0  0  0  0  0  0
  -25.3440  -15.2710   20.3350 N   0  0  0  0  0  0  0  0  0  0  0  0
  -24.5880  -15.9260   20.5020 H   0  0  0  0  0  0  0  0  0  0  0  0
  -26.1820  -15.7170   19.9820 H   0  0  0  0  0  0  0  0  0  0  0  0
  -28.4000  -26.7740   19.5750 O   0  0  0  0  0  0  0  0  0  0  0  0
  -24.6410  -31.7290   23.0540 C   0  0  0  0  0  0  0  0  0  0  0  0
  -27.2300  -27.5190   19.6080 C   0  0  0  0  0  0  0  0  0  0  0  0
  -23.4080  -30.4510   21.3360 C   0  0  0  0  0  3  0  0  0  0  0  0
  -24.8360  -29.0280   19.7760 C   0  0  0  0  0  0  0  0  0  0  0  0
  -25.9310  -30.8240   21.1220 C   0  0  0  0  0  2  0  0  0  0  0  0
  -26.0070  -29.5050   20.3780 C   0  0  0  0  0  0  0  0  0  0  0  0
  -27.2060  -28.7590   20.2900 C   0  0  0  0  0  3  0  0  0  0  0  0
  -26.0380  -27.0680   18.9920 C   0  0  0  0  0  3  0  0  0  0  0  0
  -24.8470  -27.8100   19.0790 C   0  0  0  0  0  3  0  0  0  0  0  0
  -23.5920  -29.8780   19.9070 C   0  0  0  0  0  2  0  0  0  0  0  0
  -24.6790  -31.0110   21.8960 N   0  0  0  0  0  0  0  0  0  0  0  0
  -23.5680  -31.9610   23.6290 O   0  0  0  0  0  0  0  0  0  0  0  0
  -22.7720  -29.3600   22.2280 C   0  0  0  0  0  0  0  0  0  0  0  0
  -21.4410  -29.2100   22.1340 N   0  0  0  0  0  0  0  0  0  0  0  0
  -23.4720  -28.6560   22.9610 O   0  0  0  0  0  0  0  0  0  0  0  0
  -20.9380  -29.8330   21.5170 H   0  0  0  0  0  0  0  0  0  0  0  0
  -18.0560  -28.0790   22.7050 C   0  0  0  0  0  0  0  0  0  0  0  0
  -20.6320  -28.2230   22.8500 C   0  0  0  0  0  3  0  0  0  0  0  0
  -20.6490  -26.8590   22.1240 C   0  0  0  0  0  2  0  0  0  0  0  0
  -19.4800  -26.6800   21.1500 C   0  0  0  0  0  2  0  0  0  0  0  0
  -18.1430  -26.8020   21.8850 C   0  0  0  0  0  2  0  0  0  0  0  0
  -19.2250  -28.7550   23.1440 C   0  0  0  0  0  0  0  0  0  0  0  0
  -19.0900  -29.9550   23.8730 C   0  0  0  0  0  3  0  0  0  0  0  0
  -17.8180  -30.4800   24.1650 C   0  0  0  0  0  3  0  0  0  0  0  0
  -16.6620  -29.8000   23.7430 C   0  0  0  0  0  3  0  0  0  0  0  0
  -16.7840  -28.5990   23.0180 C   0  0  0  0  0  3  0  0  0  0  0  0
  -25.9370  -32.3140   23.6960 C   0  0  0  0  0  3  0  0  0  0  0  0
  -26.4590  -31.4700   24.9230 C   0  0  1  0  0  0  0  0  0  0  0  0
  -25.3750  -31.1880   25.9890 C   0  0  0  0  0  1  0  0  0  0  0  0
  -27.0200  -30.1090   24.4480 C   0  0  0  0  0  1  0  0  0  0  0  0
  -27.6260  -32.2130   25.6120 C   0  0  0  0  0  1  0  0  0  0  0  0
  -25.6440  -33.6950   24.1030 N   0  0  0  0  0  0  0  0  0  0  0  0
  -25.9810  -34.7830   23.3970 C   0  0  0  0  0  0  0  0  0  0  0  0
  -26.6430  -34.7280   22.3570 O   0  0  0  0  0  0  0  0  0  0  0  0
  -25.0580  -33.8120   24.9160 H   0  0  0  0  0  0  0  0  0  0  0  0
  -24.2670  -36.6050   23.1470 C   0  0  0  0  0  1  0  0  0  0  0  0
  -25.5090  -36.1490   23.9290 C   0  0  0  0  0  3  0  0  0  0  0  0
  -27.6530  -36.9720   24.7960 C   0  0  0  0  0  1  0  0  0  0  0  0
  -26.5510  -37.1980   23.8660 N   0  0  0  0  0  0  0  0  0  0  0  0
  -26.1530  -38.1130   24.0620 H   0  0  0  0  0  0  0  0  0  0  0  0
  1  4  2  0
  1  2  1  0
  2  6  2  0
  4  5  1  0
  5  9  1  0
  5  3  2  0
  6  3  1  0
  6 12  1  0
  7  4  1  0
  9  8  1  0
  9 11  1  0
 10 54  1  0
 10  7  1  0
 10  8  1  0
 12 13  1  0
 14 12  1  0
 14 15  1  0
 16 24  1  0
 17 22  1  0
 18 19  1  0
 18 17  1  0
 20 19  1  0
 20 29  1  0
 20 21  1  0
 22 16  1  0
 22 21  1  0
 23 16  2  0
 24 15  1  0
 24 25  1  0
 26 27  2  0
 27 46  1  0
 28 27  1  0
 28 31  1  0
 29 30  1  0
 29 26  1  0
 30 28  2  0
 31 32  1  0
 32 33  2  0
 34 37  1  0
 34 33  1  0
 35 34  2  0
 36 35  1  0
 36 31  2  0
 37 38  1  0
 38 39  1  0
 39 40  2  0
 41 40  1  0
 41 45  1  0
 42 41  2  0
 43 38  2  0
 43 42  1  0
 44 43  1  0
 46 47  1  0
 47 50  1  0
 47 49  1  0
 48 46  2  0
 51 26  1  0
 51 52  1  0
 53 51  1  0
 54 56  1  0
 55 66  2  0
 56 61  1  0
 57 65  1  0
 57 67  1  0
 58 64  1  0
 58 60  1  0
 59 65  1  0
 60 59  1  0
 61 60  2  0
 62 63  1  0
 62 56  2  0
 63 58  2  0
 64 57  1  0
 65 55  1  0
 67 69  2  0
 68 67  1  0
 70 68  1  0
 71 80  2  0
 71 76  1  0
 72 68  1  0
 72 76  1  0
 73 72  1  0
 74 75  1  0
 74 73  1  0
 75 71  1  0
 76 77  2  0
 77 78  1  0
 79 78  2  0
 80 79  1  0
 81 55  1  0
 81 86  1  0
 81 82  1  0
 82 85  1  1
 82 83  1  0
 84 82  1  0
 86 89  1  0
 87 91  1  0
 87 86  1  0
 88 87  2  0
 91 90  1  0
 93 91  1  0
 93 94  1  0
 93 92  1  0
M  ISO  4  10 101  16 100  24 100  54 101
M  END
>  <TORSDO>  (82) 
F 19

>  <SCORE>  (82) 
-13.837

>  <name>  (82) 
81

>  <ligand_id>  (82) 
81

>  <original_smiles>  (82) 
[H]c1c([H])c([H])c2c(c1[H])C([H])([H])C([H])([H])C([H])([H])C2([H])N([H])C(=O)C1([H])N(C(=O)C([H])(N([H])C(=O)C([H])(N([H])C([H])([H])[H])C([H])([H])[H])C(C([H])([H])[H])(C([H])([H])[H])C([H])([H])[H])C([H])([H])c2c([H])c(OC3([H])C([H])([H])c4c([H])c([H])c(N([H])C([H])([H])C([H])([H])N([H])C(=O)N5C([H])([H])C([H])([H])C([H])([H])C([H])(n6nc(-c7c([H])c([H])c(Oc8c([H])c([H])c(F)c([H])c8F)c([H])c7[H])c(C(=O)N([H])[H])c6N([H])[H])C5([H])[H])c([H])c4C([H])(C([H])([H])[H])C3([H])[H])c([H])c([H])c2C1([H])[H]

>  <smiles>  (82) 
[H]c1c([H])c([H])c2c(c1[H])C([H])([H])C([H])([H])C([H])([H])C2([H])N([H])C(=O)C1([H])N(C(=O)C([H])(N([H])C(=O)C([H])(N([H])C([H])([H])[H])C([H])([H])[H])C(C([H])([H])[H])(C([H])([H])[H])C([H])([H])[H])C([H])([H])c2c([H])c(OC3([H])C([H])([H])c4c([H])c([H])c(N([H])C([H])([H])C([H])([H])N([H])C(=O)N5C([H])([H])C([H])([H])C([H])([H])C([H])(n6nc(-c7c([H])c([H])c(Oc8c([H])c([H])c(F)c([H])c8F)c([H])c7[H])c(C(=O)N([H])[H])c6N([H])[H])C5([H])[H])c([H])c4C([H])(C([H])([H])[H])C3([H])[H])c([H])c([H])c2C1([H])[H]

$$$$
82:0:0
     RDKit          3D

 94102  0  0  1  0  0  0  0  0999 V2000
  -32.8510  -18.6860   16.9530 C   0  0  0  0  0  2  0  0  0  0  0  0
  -33.4240  -18.7230   18.3900 C   0  0  0  0  0  2  0  0  0  0  0  0
  -31.7430  -19.6990   16.6570 C   0  0  0  0  0  2  0  0  0  0  0  0
  -32.6580  -17.8470   19.4140 C   0  0  0  0  0  2  0  0  0  0  0  0
  -30.7460  -19.9030   17.7980 C   0  0  0  0  0  2  0  0  0  0  0  0
  -31.5230  -18.4720   20.2930 C   0  0  0  0  0  2  0  0  0  0  0  0
  -30.0300  -18.6110   18.2850 C   0  0  0  0  0  2  0  0  0  0  0  0
  -30.0380  -18.3010   19.8230 C   0  0  1  0  0  0  0  0  0  0  0  0
  -30.3990  -15.3080   20.2340 C   0  0  0  0  0  0  0  0  0  0  0  0
  -30.3540  -12.8370   19.4020 C   0  0  0  0  0  2  0  0  0  0  0  0
  -29.4370  -12.5670   18.1820 C   0  0  0  0  0  2  0  0  0  0  0  0
  -27.9960  -12.2700   18.6380 C   0  0  0  0  0  2  0  0  0  0  0  0
  -27.5220  -13.2750   19.7130 C   0  0  0  0  0  3  0  0  0  0  0  0
  -28.5730  -13.4960   20.8220 C   0  0  0  0  0  2  0  0  0  0  0  0
  -29.7940  -14.0090   20.1690 N   0  0  0  0  0  0  0  0  0  0  0  0
  -31.6300  -15.1980   20.2240 O   0  0  0  0  0  0  0  0  0  0  0  0
  -29.6760  -16.6380   20.0650 N   0  0  0  0  0  0  0  0  0  0  0  0
  -25.1690  -13.8660   20.5050 C   0  0  0  0  0  0  0  0  0  0  0  0
  -24.0950  -13.0980   20.8480 C   0  0  0  0  0  0  0  0  0  0  0  0
  -24.5610  -11.7510   20.8350 C   0  0  0  0  0  0  0  0  0  0  0  0
  -26.2030  -12.9830   20.2440 N   0  0  0  0  0  0  0  0  0  0  0  0
  -25.8530  -11.7060   20.5300 N   0  0  0  0  0  0  0  0  0  0  0  0
  -23.8340  -10.4930   21.0340 C   0  0  0  0  0  0  0  0  0  0  0  0
  -24.2700   -9.5310   21.9700 C   0  0  0  0  0  3  0  0  0  0  0  0
  -23.5410   -8.3370   22.1560 C   0  0  0  0  0  3  0  0  0  0  0  0
  -22.3620   -8.1010   21.4100 C   0  0  0  0  0  0  0  0  0  0  0  0
  -21.9480   -9.0480   20.4600 C   0  0  0  0  0  3  0  0  0  0  0  0
  -22.6780  -10.2340   20.2740 C   0  0  0  0  0  3  0  0  0  0  0  0
  -21.6040   -6.9590   21.5090 O   0  0  0  0  0  0  0  0  0  0  0  0
  -21.5770   -6.2110   22.6560 C   0  0  0  0  0  0  0  0  0  0  0  0
  -21.1840   -6.7640   23.8960 C   0  0  0  0  0  3  0  0  0  0  0  0
  -21.1130   -5.9440   25.0410 C   0  0  0  0  0  3  0  0  0  0  0  0
  -21.4030   -4.5700   24.9380 C   0  0  0  0  0  0  0  0  0  0  0  0
  -21.7780   -4.0170   23.7010 C   0  0  0  0  0  3  0  0  0  0  0  0
  -21.8660   -4.8360   22.5630 C   0  0  0  0  0  0  0  0  0  0  0  0
  -22.2150   -4.2960   21.3690 F   0  0  0  0  0  0  0  0  0  0  0  0
  -21.3250   -3.7800   26.0320 F   0  0  0  0  0  0  0  0  0  0  0  0
  -22.6990  -13.5900   21.0860 C   0  0  0  0  0  0  0  0  0  0  0  0
  -21.9520  -12.9090   21.9520 N   0  0  0  0  0  0  0  0  0  0  0  0
  -22.2760  -14.6070   20.5410 O   0  0  0  0  0  0  0  0  0  0  0  0
  -22.3090  -12.0890   22.4170 H   0  0  0  0  0  0  0  0  0  0  0  0
  -21.0110  -13.2140   22.1490 H   0  0  0  0  0  0  0  0  0  0  0  0
  -25.3340  -15.2310   20.3750 N   0  0  0  0  0  0  0  0  0  0  0  0
  -24.5870  -15.9000   20.5170 H   0  0  0  0  0  0  0  0  0  0  0  0
  -26.2100  -15.6660   20.1170 H   0  0  0  0  0  0  0  0  0  0  0  0
  -27.2610  -17.1980   18.8830 C   0  0  0  0  0  1  0  0  0  0  0  0
  -28.2420  -16.3950   19.8000 C   0  0  0  0  0  2  0  0  0  0  0  0
  -29.1720  -19.7350   20.5080 C   0  0  0  0  0  2  0  0  0  0  0  0
  -29.0090  -21.2740   19.8800 N   0  0  0  0  0  4  0  0  0  0  0  0
  -28.1800  -21.2040   19.3150 H   0  0  0  0  0  0  0  0  0  0  0  0
  -29.7630  -21.3630   19.2200 H   0  0  0  0  0  0  0  0  0  0  0  0
  -28.8750  -22.7810   20.5770 C   0  0  0  0  0  3  0  0  0  0  0  0
  -28.1380  -24.2950   19.9430 C   0  0  0  0  0  3  0  0  0  0  0  0
  -28.2460  -25.8990   20.3100 O   0  0  0  0  0  0  0  0  0  0  0  0
  -24.6400  -31.8480   23.1920 C   0  0  0  0  0  0  0  0  0  0  0  0
  -27.2190  -26.9720   20.2090 C   0  0  0  0  0  0  0  0  0  0  0  0
  -23.4500  -30.4330   21.5700 C   0  0  0  0  0  3  0  0  0  0  0  0
  -24.9040  -28.8260   20.1570 C   0  0  0  0  0  0  0  0  0  0  0  0
  -26.0170  -30.6580   21.4120 C   0  0  0  0  0  2  0  0  0  0  0  0
  -26.0920  -29.2460   20.7700 C   0  0  0  0  0  0  0  0  0  0  0  0
  -27.2410  -28.3400   20.7710 C   0  0  0  0  0  3  0  0  0  0  0  0
  -26.0010  -26.6990   19.5440 C   0  0  0  0  0  3  0  0  0  0  0  0
  -24.8840  -27.5730   19.5220 C   0  0  0  0  0  3  0  0  0  0  0  0
  -23.6820  -29.7380   20.1990 C   0  0  0  0  0  2  0  0  0  0  0  0
  -24.7240  -31.0070   22.1110 N   0  0  0  0  0  0  0  0  0  0  0  0
  -23.5490  -32.1360   23.7130 O   0  0  0  0  0  0  0  0  0  0  0  0
  -22.7550  -29.4440   22.5440 C   0  0  0  0  0  0  0  0  0  0  0  0
  -21.4220  -29.2880   22.4280 N   0  0  0  0  0  0  0  0  0  0  0  0
  -23.4240  -28.8190   23.3720 O   0  0  0  0  0  0  0  0  0  0  0  0
  -20.9370  -29.8400   21.7360 H   0  0  0  0  0  0  0  0  0  0  0  0
  -18.0330  -28.0930   22.9490 C   0  0  0  0  0  0  0  0  0  0  0  0
  -20.5960  -28.3570   23.2060 C   0  0  0  0  0  3  0  0  0  0  0  0
  -20.6920  -26.9190   22.6410 C   0  0  0  0  0  2  0  0  0  0  0  0
  -19.5850  -26.5940   21.6330 C   0  0  0  0  0  2  0  0  0  0  0  0
  -18.2070  -26.7420   22.2790 C   0  0  0  0  0  2  0  0  0  0  0  0
  -19.1540  -28.8590   23.3710 C   0  0  0  0  0  0  0  0  0  0  0  0
  -18.9330  -30.1240   23.9600 C   0  0  0  0  0  3  0  0  0  0  0  0
  -17.6260  -30.6200   24.1340 C   0  0  0  0  0  3  0  0  0  0  0  0
  -16.5220  -29.8490   23.7270 C   0  0  0  0  0  3  0  0  0  0  0  0
  -16.7260  -28.5890   23.1400 C   0  0  0  0  0  3  0  0  0  0  0  0
  -25.9100  -32.4950   23.8240 C   0  0  0  0  0  3  0  0  0  0  0  0
  -25.5870  -33.8920   24.1630 N   0  0  0  0  0  0  0  0  0  0  0  0
  -25.9160  -34.9570   23.4200 C   0  0  0  0  0  0  0  0  0  0  0  0
  -26.5840  -34.8660   22.3860 O   0  0  0  0  0  0  0  0  0  0  0  0
  -24.9940  -34.0350   24.9680 H   0  0  0  0  0  0  0  0  0  0  0  0
  -24.1800  -36.7490   23.1000 C   0  0  0  0  0  1  0  0  0  0  0  0
  -25.4300  -36.3420   23.8950 C   0  0  0  0  0  3  0  0  0  0  0  0
  -27.5730  -37.2250   24.7090 C   0  0  0  0  0  1  0  0  0  0  0  0
  -26.4600  -37.3990   23.7790 N   0  0  0  0  0  0  0  0  0  0  0  0
  -26.0540  -38.3170   23.9390 H   0  0  0  0  0  0  0  0  0  0  0  0
  -26.4230  -31.7280   25.1040 C   0  0  1  0  0  0  0  0  0  0  0  0
  -25.3280  -31.4930   26.1710 C   0  0  0  0  0  1  0  0  0  0  0  0
  -27.0060  -30.3480   24.7240 C   0  0  0  0  0  1  0  0  0  0  0  0
  -27.5780  -32.5200   25.7590 C   0  0  0  0  0  1  0  0  0  0  0  0
  1  2  1  0
  2  4  1  0
  3  1  1  0
  3  5  1  0
  4  6  1  0
  5  7  1  0
  7  8  1  0
  8 17  1  0
  8  6  1  0
  8 48  1  1
 10 15  1  0
 11 12  1  0
 11 10  1  0
 13 12  1  0
 13 21  1  0
 13 14  1  0
 15  9  1  0
 15 14  1  0
 16  9  2  0
 17  9  1  0
 18 19  2  0
 19 38  1  0
 20 19  1  0
 20 23  1  0
 21 18  1  0
 21 22  1  0
 22 20  2  0
 23 24  1  0
 24 25  2  0
 26 29  1  0
 26 25  1  0
 27 26  2  0
 28 27  1  0
 28 23  2  0
 29 30  1  0
 30 31  1  0
 31 32  2  0
 33 32  1  0
 33 37  1  0
 34 33  2  0
 35 30  2  0
 35 34  1  0
 36 35  1  0
 38 39  1  0
 39 42  1  0
 39 41  1  0
 40 38  2  0
 43 18  1  0
 43 44  1  0
 45 43  1  0
 46 47  1  0
 47 17  1  0
 49 48  1  0
 49 52  1  0
 50 49  1  0
 51 49  1  0
 53 54  1  0
 53 52  2  0
 55 66  2  0
 56 54  1  0
 56 61  1  0
 57 65  1  0
 57 67  1  0
 58 64  1  0
 58 60  1  0
 59 65  1  0
 60 61  2  0
 60 59  1  0
 62 56  2  0
 63 62  1  0
 63 58  2  0
 64 57  1  0
 65 55  1  0
 67 69  2  0
 68 67  1  0
 70 68  1  0
 71 80  2  0
 71 76  1  0
 72 68  1  0
 72 76  1  0
 73 72  1  0
 74 75  1  0
 74 73  1  0
 75 71  1  0
 76 77  2  0
 77 78  1  0
 79 78  2  0
 80 79  1  0
 81 55  1  0
 81 82  1  0
 81 91  1  0
 82 85  1  0
 83 87  1  0
 83 82  1  0
 84 83  2  0
 87 86  1  0
 89 87  1  0
 89 90  1  0
 89 88  1  0
 91 94  1  1
 91 92  1  0
 93 91  1  0
M  ISO  4   9 100  17 100  53 101  54 101
M  END
>  <TORSDO>  (83) 
F 21

>  <SCORE>  (83) 
-15.405

>  <name>  (83) 
82

>  <ligand_id>  (83) 
82

>  <original_smiles>  (83) 
[H]c1c([H])c([H])c2c(c1[H])C([H])([H])C([H])([H])C([H])([H])C2([H])N([H])C(=O)C1([H])N(C(=O)C([H])(N([H])C(=O)C([H])(N([H])C([H])([H])[H])C([H])([H])[H])C(C([H])([H])[H])(C([H])([H])[H])C([H])([H])[H])C([H])([H])c2c([H])c(OC([H])([H])C([H])([H])[N+]([H])([H])C([H])([H])C3(N(C(=O)N4C([H])([H])C([H])([H])C([H])([H])C([H])(n5nc(-c6c([H])c([H])c(Oc7c([H])c([H])c(F)c([H])c7F)c([H])c6[H])c(C(=O)N([H])[H])c5N([H])[H])C4([H])[H])C([H])([H])C([H])([H])[H])C([H])([H])C([H])([H])C([H])([H])C([H])([H])C([H])([H])C([H])([H])C3([H])[H])c([H])c([H])c2C1([H])[H]

>  <smiles>  (83) 
[H]c1c([H])c([H])c2c(c1[H])C([H])([H])C([H])([H])C([H])([H])C2([H])N([H])C(=O)C1([H])N(C(=O)C([H])(N([H])C(=O)C([H])(N([H])C([H])([H])[H])C([H])([H])[H])C(C([H])([H])[H])(C([H])([H])[H])C([H])([H])[H])C([H])([H])c2c([H])c(OC([H])([H])C([H])([H])[N+]([H])([H])C([H])([H])C3(N(C(=O)N4C([H])([H])C([H])([H])C([H])([H])C([H])(n5nc(-c6c([H])c([H])c(Oc7c([H])c([H])c(F)c([H])c7F)c([H])c6[H])c(C(=O)N([H])[H])c5N([H])[H])C4([H])[H])C([H])([H])C([H])([H])[H])C([H])([H])C([H])([H])C([H])([H])C([H])([H])C([H])([H])C([H])([H])C3([H])[H])c([H])c([H])c2C1([H])[H]

$$$$
83:0:0
     RDKit          3D

 96104  0  0  1  0  0  0  0  0999 V2000
  -26.1610  -21.3260   20.3950 C   0  0  0  0  0  3  0  0  0  0  0  0
  -26.4240  -20.0690   19.8350 C   0  0  0  0  0  3  0  0  0  0  0  0
  -27.2300  -22.1680   20.7410 C   0  0  0  0  0  3  0  0  0  0  0  0
  -27.7540  -19.6510   19.6510 C   0  0  0  0  0  3  0  0  0  0  0  0
  -28.5790  -21.7980   20.5190 C   0  0  0  0  0  0  0  0  0  0  0  0
  -28.8530  -20.4850   19.9880 C   0  0  0  0  0  0  0  0  0  0  0  0
  -29.6580  -22.7370   21.0180 C   0  0  0  0  0  0  0  0  0  0  0  0
  -29.6380  -24.0560   20.7290 N   0  0  0  0  0  0  0  0  0  0  0  0
  -30.5550  -22.2980   21.7350 O   0  0  0  0  0  0  0  0  0  0  0  0
  -30.3710  -24.5700   21.1980 H   0  0  0  0  0  0  0  0  0  0  0  0
  -28.8550  -24.8690   19.7790 C   0  0  0  0  0  2  0  0  0  0  0  0
  -28.8020  -26.3560   20.2240 C   0  0  0  0  0  2  0  0  0  0  0  0
  -28.4070  -27.2370   19.1640 O   0  0  0  0  0  0  0  0  0  0  0  0
  -24.6770  -31.7210   23.2670 C   0  0  0  0  0  0  0  0  0  0  0  0
  -27.2370  -27.9260   19.3800 C   0  0  0  0  0  0  0  0  0  0  0  0
  -23.4010  -30.5490   21.5000 C   0  0  0  0  0  3  0  0  0  0  0  0
  -24.8040  -29.3140   19.7600 C   0  0  0  0  0  0  0  0  0  0  0  0
  -25.8960  -31.0350   21.2040 C   0  0  0  0  0  2  0  0  0  0  0  0
  -25.9820  -29.7830   20.3580 C   0  0  0  0  0  0  0  0  0  0  0  0
  -27.2030  -29.0970   20.1700 C   0  0  0  0  0  3  0  0  0  0  0  0
  -26.0500  -27.4650   18.7780 C   0  0  0  0  0  3  0  0  0  0  0  0
  -24.8330  -28.1510   18.9700 C   0  0  0  0  0  3  0  0  0  0  0  0
  -23.5400  -30.1100   20.0180 C   0  0  0  0  0  2  0  0  0  0  0  0
  -24.6800  -31.1080   22.0490 N   0  0  0  0  0  0  0  0  0  0  0  0
  -23.6270  -31.8650   23.9090 O   0  0  0  0  0  0  0  0  0  0  0  0
  -22.8480  -29.3640   22.3230 C   0  0  0  0  0  0  0  0  0  0  0  0
  -21.5340  -29.1080   22.1980 N   0  0  0  0  0  0  0  0  0  0  0  0
  -23.5940  -28.6840   23.0320 O   0  0  0  0  0  0  0  0  0  0  0  0
  -20.9850  -29.7150   21.6050 H   0  0  0  0  0  0  0  0  0  0  0  0
  -18.2820  -27.5710   22.5050 C   0  0  0  0  0  0  0  0  0  0  0  0
  -20.8040  -28.0180   22.8490 C   0  0  0  0  0  3  0  0  0  0  0  0
  -21.0420  -26.6730   22.1210 C   0  0  0  0  0  2  0  0  0  0  0  0
  -19.9770  -26.3630   21.0640 C   0  0  0  0  0  2  0  0  0  0  0  0
  -18.5800  -26.3250   21.6910 C   0  0  0  0  0  2  0  0  0  0  0  0
  -19.3270  -28.3730   23.0370 C   0  0  0  0  0  0  0  0  0  0  0  0
  -18.9980  -29.5460   23.7520 C   0  0  0  0  0  3  0  0  0  0  0  0
  -17.6570  -29.9190   23.9480 C   0  0  0  0  0  3  0  0  0  0  0  0
  -16.6250  -29.1100   23.4390 C   0  0  0  0  0  3  0  0  0  0  0  0
  -16.9360  -27.9390   22.7220 C   0  0  0  0  0  3  0  0  0  0  0  0
  -25.9840  -32.2940   23.8960 C   0  0  0  0  0  3  0  0  0  0  0  0
  -25.7030  -33.6720   24.3210 N   0  0  0  0  0  0  0  0  0  0  0  0
  -26.0850  -34.7670   23.6520 C   0  0  0  0  0  0  0  0  0  0  0  0
  -26.7850  -34.7210   22.6360 O   0  0  0  0  0  0  0  0  0  0  0  0
  -25.0820  -33.7830   25.1080 H   0  0  0  0  0  0  0  0  0  0  0  0
  -24.4320  -36.6390   23.3660 C   0  0  0  0  0  1  0  0  0  0  0  0
  -25.6200  -36.1310   24.1970 C   0  0  0  0  0  3  0  0  0  0  0  0
  -27.7380  -36.8730   25.1910 C   0  0  0  0  0  1  0  0  0  0  0  0
  -26.6870  -37.1530   24.2170 N   0  0  0  0  0  0  0  0  0  0  0  0
  -26.3020  -38.0710   24.4190 H   0  0  0  0  0  0  0  0  0  0  0  0
  -26.5210  -31.4340   25.1050 C   0  0  1  0  0  0  0  0  0  0  0  0
  -25.4500  -31.1540   26.1850 C   0  0  0  0  0  1  0  0  0  0  0  0
  -27.0670  -30.0740   24.6090 C   0  0  0  0  0  1  0  0  0  0  0  0
  -27.7060  -32.1620   25.7820 C   0  0  0  0  0  1  0  0  0  0  0  0
  -30.7920  -19.5240   21.2680 C   0  0  0  0  0  1  0  0  0  0  0  0
  -30.2690  -19.8660   19.8590 C   0  0  0  0  0  3  0  0  0  0  0  0
  -30.2700  -18.6890   18.9310 N   0  0  0  0  0  4  0  0  0  0  0  0
  -29.3480  -18.2850   18.9170 H   0  0  0  0  0  0  0  0  0  0  0  0
  -30.4010  -19.0880   18.0130 H   0  0  0  0  0  0  0  0  0  0  0  0
  -31.3070  -17.6150   19.0800 C   0  0  0  0  0  2  0  0  0  0  0  0
  -30.8990  -16.3740   19.9650 C   0  0  0  0  0  2  0  0  0  0  0  0
  -31.5700  -15.0150   19.5860 C   0  0  0  0  0  0  0  0  0  0  0  0
  -31.3150  -12.6000   19.0720 C   0  0  0  0  0  2  0  0  0  0  0  0
  -30.3400  -12.4260   17.8900 C   0  0  0  0  0  2  0  0  0  0  0  0
  -28.8830  -12.3700   18.3890 C   0  0  0  0  0  2  0  0  0  0  0  0
  -28.5420  -13.5220   19.3720 C   0  0  0  0  0  3  0  0  0  0  0  0
  -29.6320  -13.6570   20.4630 C   0  0  0  0  0  2  0  0  0  0  0  0
  -30.9300  -13.8280   19.7920 N   0  0  0  0  0  0  0  0  0  0  0  0
  -32.6660  -15.0520   19.0190 O   0  0  0  0  0  0  0  0  0  0  0  0
  -26.2830  -14.3240   20.3090 C   0  0  0  0  0  0  0  0  0  0  0  0
  -25.1660  -13.6430   20.7170 C   0  0  0  0  0  0  0  0  0  0  0  0
  -25.4740  -12.2570   20.5650 C   0  0  0  0  0  0  0  0  0  0  0  0
  -27.2060  -13.3560   19.9450 N   0  0  0  0  0  0  0  0  0  0  0  0
  -26.7260  -12.1040   20.1540 N   0  0  0  0  0  0  0  0  0  0  0  0
  -24.6280  -11.0670   20.7340 C   0  0  0  0  0  0  0  0  0  0  0  0
  -24.9780  -10.0320   21.6290 C   0  0  0  0  0  3  0  0  0  0  0  0
  -24.1390   -8.9090   21.7900 C   0  0  0  0  0  3  0  0  0  0  0  0
  -22.9350   -8.8110   21.0530 C   0  0  0  0  0  0  0  0  0  0  0  0
  -22.6040   -9.8310   20.1440 C   0  0  0  0  0  3  0  0  0  0  0  0
  -23.4420  -10.9470   19.9820 C   0  0  0  0  0  3  0  0  0  0  0  0
  -22.0720   -7.7440   21.1250 O   0  0  0  0  0  0  0  0  0  0  0  0
  -21.9050   -7.0310   22.2850 C   0  0  0  0  0  0  0  0  0  0  0  0
  -21.4810   -7.6450   23.4830 C   0  0  0  0  0  3  0  0  0  0  0  0
  -21.2560   -6.8630   24.6330 C   0  0  0  0  0  3  0  0  0  0  0  0
  -21.4430   -5.4690   24.5860 C   0  0  0  0  0  0  0  0  0  0  0  0
  -21.8630   -4.8550   23.3930 C   0  0  0  0  0  3  0  0  0  0  0  0
  -22.0900   -5.6340   22.2450 C   0  0  0  0  0  0  0  0  0  0  0  0
  -22.4710   -5.0330   21.0910 F   0  0  0  0  0  0  0  0  0  0  0  0
  -21.2200   -4.7170   25.6900 F   0  0  0  0  0  0  0  0  0  0  0  0
  -23.8540  -14.2440   21.1320 C   0  0  0  0  0  0  0  0  0  0  0  0
  -23.1280  -13.5790   22.0250 N   0  0  0  0  0  0  0  0  0  0  0  0
  -23.4880  -15.3360   20.7010 O   0  0  0  0  0  0  0  0  0  0  0  0
  -23.4400  -12.6940   22.3960 H   0  0  0  0  0  0  0  0  0  0  0  0
  -22.2500  -13.9640   22.3430 H   0  0  0  0  0  0  0  0  0  0  0  0
  -26.5840  -15.6780   20.1990 N   0  0  0  0  0  0  0  0  0  0  0  0
  -25.8950  -16.3970   20.3900 H   0  0  0  0  0  0  0  0  0  0  0  0
  -27.4300  -16.0400   19.7790 H   0  0  0  0  0  0  0  0  0  0  0  0
  1  3  1  0
  2  1  2  0
  4  2  1  0
  4  6  2  0
  5  3  2  0
  5  7  1  0
  6  5  1  0
  7  9  2  0
  8  7  1  0
  8 10  1  0
 11 12  1  0
 11  8  1  0
 13 15  1  0
 13 12  1  0
 14 25  2  0
 15 20  1  0
 16 24  1  0
 16 26  1  0
 17 23  1  0
 17 19  1  0
 18 24  1  0
 19 18  1  0
 20 19  2  0
 21 22  1  0
 21 15  2  0
 22 17  2  0
 23 16  1  0
 24 14  1  0
 26 28  2  0
 27 26  1  0
 29 27  1  0
 30 39  2  0
 30 35  1  0
 31 27  1  0
 31 35  1  0
 32 31  1  0
 33 34  1  0
 33 32  1  0
 34 30  1  0
 35 36  2  0
 36 37  1  0
 38 37  2  0
 39 38  1  0
 40 14  1  0
 40 41  1  0
 40 50  1  0
 41 44  1  0
 42 46  1  0
 42 41  1  0
 43 42  2  0
 46 45  1  0
 46 48  1  0
 48 49  1  0
 48 47  1  0
 50 53  1  1
 50 51  1  0
 52 50  1  0
 55  6  1  0
 55 54  1  0
 56 59  1  0
 56 55  1  0
 57 56  1  0
 58 56  1  0
 59 60  1  0
 61 67  1  0
 61 60  1  0
 62 67  1  0
 63 64  1  0
 63 62  1  0
 65 64  1  0
 65 72  1  0
 65 66  1  0
 67 66  1  0
 68 61  2  0
 69 70  2  0
 70 89  1  0
 71 70  1  0
 71 74  1  0
 72 73  1  0
 72 69  1  0
 73 71  2  0
 74 75  1  0
 75 76  2  0
 77 80  1  0
 77 76  1  0
 78 77  2  0
 79 78  1  0
 79 74  2  0
 80 81  1  0
 81 82  1  0
 82 83  2  0
 84 83  1  0
 84 88  1  0
 85 84  2  0
 86 81  2  0
 86 85  1  0
 87 86  1  0
 89 90  1  0
 90 93  1  0
 90 92  1  0
 91 89  2  0
 94 69  1  0
 94 95  1  0
 96 94  1  0
M  ISO  4  12 101  13 101  60 100  61 100
M  END
>  <TORSDO>  (84) 
F 23

>  <SCORE>  (84) 
-8.501

>  <name>  (84) 
83

>  <ligand_id>  (84) 
83

>  <original_smiles>  (84) 
[H]c1c([H])c([H])c(C([H])(C([H])([H])[H])[N+]([H])([H])C([H])([H])C([H])([H])C(=O)N2C([H])([H])C([H])([H])C([H])([H])C([H])(n3nc(-c4c([H])c([H])c(Oc5c([H])c([H])c(F)c([H])c5F)c([H])c4[H])c(C(=O)N([H])[H])c3N([H])[H])C2([H])[H])c(C(=O)N([H])C([H])([H])C([H])([H])Oc2c([H])c([H])c3c(c2[H])C([H])([H])N(C(=O)C([H])(N([H])C(=O)C([H])(N([H])C([H])([H])[H])C([H])([H])[H])C(C([H])([H])[H])(C([H])([H])[H])C([H])([H])[H])C([H])(C(=O)N([H])C2([H])c4c([H])c([H])c([H])c([H])c4C([H])([H])C([H])([H])C2([H])[H])C3([H])[H])c1[H]

>  <smiles>  (84) 
[H]c1c([H])c([H])c(C([H])(C([H])([H])[H])[N+]([H])([H])C([H])([H])C([H])([H])C(=O)N2C([H])([H])C([H])([H])C([H])([H])C([H])(n3nc(-c4c([H])c([H])c(Oc5c([H])c([H])c(F)c([H])c5F)c([H])c4[H])c(C(=O)N([H])[H])c3N([H])[H])C2([H])[H])c(C(=O)N([H])C([H])([H])C([H])([H])Oc2c([H])c([H])c3c(c2[H])C([H])([H])N(C(=O)C([H])(N([H])C(=O)C([H])(N([H])C([H])([H])[H])C([H])([H])[H])C(C([H])([H])[H])(C([H])([H])[H])C([H])([H])[H])C([H])(C(=O)N([H])C2([H])c4c([H])c([H])c([H])c([H])c4C([H])([H])C([H])([H])C2([H])[H])C3([H])[H])c1[H]

$$$$
84:0:0
     RDKit          3D

 91 99  0  0  1  0  0  0  0  0999 V2000
  -28.7560  -22.6560   20.7400 N   0  0  0  0  0  4  0  0  0  0  0  0
  -27.7720  -22.4790   20.8820 H   0  0  0  0  0  0  0  0  0  0  0  0
  -29.1610  -22.7550   21.6580 H   0  0  0  0  0  0  0  0  0  0  0  0
  -30.8330  -21.5820   19.8010 C   0  0  0  0  0  1  0  0  0  0  0  0
  -29.3360  -21.3970   20.1190 C   0  0  0  0  0  3  0  0  0  0  0  0
  -29.1140  -20.1050   21.0240 C   0  0  0  0  0  2  0  0  0  0  0  0
  -30.7400  -14.6270   20.0720 C   0  0  0  0  0  0  0  0  0  0  0  0
  -30.3780  -12.4380   18.9750 C   0  0  0  0  0  2  0  0  0  0  0  0
  -29.3860  -12.6160   17.8080 C   0  0  0  0  0  2  0  0  0  0  0  0
  -27.9370  -12.4630   18.3100 C   0  0  0  0  0  2  0  0  0  0  0  0
  -27.6490  -13.3050   19.5830 C   0  0  0  0  0  3  0  0  0  0  0  0
  -28.7630  -13.1450   20.6420 C   0  0  0  0  0  2  0  0  0  0  0  0
  -30.0410  -13.4540   19.9900 N   0  0  0  0  0  0  0  0  0  0  0  0
  -31.8990  -14.7050   19.6490 O   0  0  0  0  0  0  0  0  0  0  0  0
  -30.6710  -16.6040   21.4730 C   0  0  0  0  0  2  0  0  0  0  0  0
  -29.7160  -16.6810   19.2800 C   0  0  0  0  0  2  0  0  0  0  0  0
  -29.8980  -17.9170   21.8060 C   0  0  0  0  0  2  0  0  0  0  0  0
  -28.9850  -18.0090   19.6730 C   0  0  0  0  0  2  0  0  0  0  0  0
  -30.0660  -15.7760   20.4060 N   0  0  0  0  0  0  0  0  0  0  0  0
  -29.7590  -18.8050   20.6380 N   0  0  0  0  0  0  0  0  0  0  0  0
  -25.2970  -13.8900   20.4290 C   0  0  0  0  0  0  0  0  0  0  0  0
  -24.2470  -13.1100   20.8340 C   0  0  0  0  0  0  0  0  0  0  0  0
  -24.7060  -11.7600   20.7580 C   0  0  0  0  0  0  0  0  0  0  0  0
  -26.3270  -13.0140   20.1310 N   0  0  0  0  0  0  0  0  0  0  0  0
  -25.9810  -11.7270   20.3900 N   0  0  0  0  0  0  0  0  0  0  0  0
  -23.9880  -10.4940   20.9600 C   0  0  0  0  0  0  0  0  0  0  0  0
  -24.4390   -9.5290   21.8870 C   0  0  0  0  0  3  0  0  0  0  0  0
  -23.7200   -8.3280   22.0770 C   0  0  0  0  0  3  0  0  0  0  0  0
  -22.5360   -8.0860   21.3400 C   0  0  0  0  0  0  0  0  0  0  0  0
  -22.1040   -9.0420   20.4030 C   0  0  0  0  0  3  0  0  0  0  0  0
  -22.8240  -10.2330   20.2110 C   0  0  0  0  0  3  0  0  0  0  0  0
  -21.7860   -6.9390   21.4400 O   0  0  0  0  0  0  0  0  0  0  0  0
  -21.7260   -6.2180   22.6050 C   0  0  0  0  0  0  0  0  0  0  0  0
  -21.2770   -6.7920   23.8160 C   0  0  0  0  0  3  0  0  0  0  0  0
  -21.1660   -5.9960   24.9730 C   0  0  0  0  0  3  0  0  0  0  0  0
  -21.4930   -4.6280   24.9220 C   0  0  0  0  0  0  0  0  0  0  0  0
  -21.9350   -4.0540   23.7180 C   0  0  0  0  0  3  0  0  0  0  0  0
  -22.0490   -4.8470   22.5620 C   0  0  0  0  0  0  0  0  0  0  0  0
  -22.4550   -4.2830   21.3990 F   0  0  0  0  0  0  0  0  0  0  0  0
  -21.3790   -3.8620   26.0320 F   0  0  0  0  0  0  0  0  0  0  0  0
  -22.8650  -13.5840   21.1790 C   0  0  0  0  0  0  0  0  0  0  0  0
  -22.1780  -12.8740   22.0670 N   0  0  0  0  0  0  0  0  0  0  0  0
  -22.4040  -14.6180   20.6960 O   0  0  0  0  0  0  0  0  0  0  0  0
  -22.5640  -12.0370   22.4780 H   0  0  0  0  0  0  0  0  0  0  0  0
  -21.2530  -13.1720   22.3420 H   0  0  0  0  0  0  0  0  0  0  0  0
  -25.4530  -15.2630   20.2680 N   0  0  0  0  0  0  0  0  0  0  0  0
  -24.6960  -15.9170   20.4340 H   0  0  0  0  0  0  0  0  0  0  0  0
  -26.2980  -15.7090   19.9330 H   0  0  0  0  0  0  0  0  0  0  0  0
  -28.8850  -23.9890   20.0210 C   0  0  0  0  0  2  0  0  0  0  0  0
  -28.1920  -25.2060   20.7580 C   0  0  0  0  0  2  0  0  0  0  0  0
  -28.3850  -26.5600   20.2160 O   0  0  0  0  0  0  0  0  0  0  0  0
  -24.6020  -31.8930   23.2170 C   0  0  0  0  0  0  0  0  0  0  0  0
  -27.2590  -27.3790   20.1870 C   0  0  0  0  0  0  0  0  0  0  0  0
  -23.4110  -30.4760   21.5790 C   0  0  0  0  0  3  0  0  0  0  0  0
  -24.8770  -28.9340   20.1640 C   0  0  0  0  0  0  0  0  0  0  0  0
  -25.9430  -30.8280   21.3930 C   0  0  0  0  0  2  0  0  0  0  0  0
  -26.0370  -29.4490   20.7570 C   0  0  0  0  0  0  0  0  0  0  0  0
  -27.2350  -28.6830   20.7590 C   0  0  0  0  0  3  0  0  0  0  0  0
  -26.0840  -26.9060   19.5670 C   0  0  0  0  0  3  0  0  0  0  0  0
  -24.9000  -27.6670   19.5610 C   0  0  0  0  0  3  0  0  0  0  0  0
  -23.6320  -29.7940   20.2030 C   0  0  0  0  0  2  0  0  0  0  0  0
  -24.6710  -31.0830   22.1200 N   0  0  0  0  0  0  0  0  0  0  0  0
  -23.5160  -32.1630   23.7500 O   0  0  0  0  0  0  0  0  0  0  0  0
  -22.7590  -29.4570   22.5430 C   0  0  0  0  0  0  0  0  0  0  0  0
  -21.4340  -29.2700   22.4170 N   0  0  0  0  0  0  0  0  0  0  0  0
  -23.4420  -28.8370   23.3620 O   0  0  0  0  0  0  0  0  0  0  0  0
  -20.9430  -29.8220   21.7280 H   0  0  0  0  0  0  0  0  0  0  0  0
  -18.0640  -28.0550   22.9120 C   0  0  0  0  0  0  0  0  0  0  0  0
  -20.6200  -28.3330   23.1910 C   0  0  0  0  0  3  0  0  0  0  0  0
  -20.7330  -26.8980   22.6240 C   0  0  0  0  0  2  0  0  0  0  0  0
  -19.6370  -26.5620   21.6080 C   0  0  0  0  0  2  0  0  0  0  0  0
  -18.2520  -26.7020   22.2470 C   0  0  0  0  0  2  0  0  0  0  0  0
  -19.1770  -28.8270   23.3420 C   0  0  0  0  0  0  0  0  0  0  0  0
  -18.9480  -30.0930   23.9240 C   0  0  0  0  0  3  0  0  0  0  0  0
  -17.6390  -30.5860   24.0810 C   0  0  0  0  0  3  0  0  0  0  0  0
  -16.5410  -29.8120   23.6690 C   0  0  0  0  0  3  0  0  0  0  0  0
  -16.7550  -28.5480   23.0900 C   0  0  0  0  0  3  0  0  0  0  0  0
  -25.8800  -32.5370   23.8370 C   0  0  0  0  0  3  0  0  0  0  0  0
  -26.4060  -31.7690   25.1120 C   0  0  1  0  0  0  0  0  0  0  0  0
  -25.3180  -31.5170   26.1810 C   0  0  0  0  0  1  0  0  0  0  0  0
  -27.0020  -30.3980   24.7150 C   0  0  0  0  0  1  0  0  0  0  0  0
  -27.5510  -32.5730   25.7720 C   0  0  0  0  0  1  0  0  0  0  0  0
  -25.5570  -33.9310   24.1690 N   0  0  0  0  0  0  0  0  0  0  0  0
  -25.8810  -34.9890   23.4130 C   0  0  0  0  0  0  0  0  0  0  0  0
  -26.5520  -34.8920   22.3820 O   0  0  0  0  0  0  0  0  0  0  0  0
  -24.9590  -34.0790   24.9690 H   0  0  0  0  0  0  0  0  0  0  0  0
  -24.1390  -36.7680   23.0540 C   0  0  0  0  0  1  0  0  0  0  0  0
  -25.3790  -36.3710   23.8710 C   0  0  0  0  0  3  0  0  0  0  0  0
  -27.5020  -37.2710   24.7160 C   0  0  0  0  0  1  0  0  0  0  0  0
  -26.4030  -37.4330   23.7670 N   0  0  0  0  0  0  0  0  0  0  0  0
  -25.9890  -38.3490   23.9140 H   0  0  0  0  0  0  0  0  0  0  0  0
  1  2  1  0
  1  3  1  0
  5  4  1  0
  5  1  1  0
  5  6  1  0
  7 19  1  0
  8 13  1  0
  9 10  1  0
  9  8  1  0
 11 10  1  0
 11 24  1  0
 11 12  1  0
 13  7  1  0
 13 12  1  0
 14  7  2  0
 15 17  1  0
 16 18  1  0
 16 19  1  0
 18 20  1  0
 19 15  1  0
 20  6  1  0
 20 17  1  0
 21 22  2  0
 22 41  1  0
 23 22  1  0
 23 26  1  0
 24 25  1  0
 24 21  1  0
 25 23  2  0
 26 27  1  0
 27 28  2  0
 29 32  1  0
 29 28  1  0
 30 29  2  0
 31 30  1  0
 31 26  2  0
 32 33  1  0
 33 34  1  0
 34 35  2  0
 36 35  1  0
 36 40  1  0
 37 36  2  0
 38 33  2  0
 38 37  1  0
 39 38  1  0
 41 42  1  0
 42 45  1  0
 42 44  1  0
 43 41  2  0
 46 21  1  0
 46 47  1  0
 48 46  1  0
 49  1  1  0
 49 50  1  0
 51 50  1  0
 52 63  2  0
 53 51  1  0
 53 58  1  0
 54 62  1  0
 54 64  1  0
 55 61  1  0
 55 57  1  0
 56 62  1  0
 57 58  2  0
 57 56  1  0
 59 53  2  0
 60 59  1  0
 60 55  2  0
 61 54  1  0
 62 52  1  0
 64 66  2  0
 65 64  1  0
 67 65  1  0
 68 77  2  0
 68 73  1  0
 69 65  1  0
 69 73  1  0
 70 69  1  0
 71 72  1  0
 71 70  1  0
 72 68  1  0
 73 74  2  0
 74 75  1  0
 76 75  2  0
 77 76  1  0
 78 52  1  0
 78 83  1  0
 78 79  1  0
 79 82  1  1
 79 80  1  0
 81 79  1  0
 83 86  1  0
 84 88  1  0
 84 83  1  0
 85 84  2  0
 88 87  1  0
 90 88  1  0
 90 91  1  0
 90 89  1  0
M  ISO  4   7 100  19 100  50 101  51 101
M  END
>  <TORSDO>  (85) 
F 20

>  <SCORE>  (85) 
-13.546

>  <name>  (85) 
84

>  <ligand_id>  (85) 
84

>  <original_smiles>  (85) 
[H]c1c([H])c([H])c2c(c1[H])C([H])([H])C([H])([H])C([H])([H])C2([H])N([H])C(=O)C1([H])N(C(=O)C([H])(N([H])C(=O)C([H])(N([H])C([H])([H])[H])C([H])([H])[H])C(C([H])([H])[H])(C([H])([H])[H])C([H])([H])[H])C([H])([H])c2c([H])c(OC([H])([H])C([H])([H])[N+]([H])([H])C([H])(C([H])([H])[H])C([H])([H])N3C([H])([H])C([H])([H])N(C(=O)N4C([H])([H])C([H])([H])C([H])([H])C([H])(n5nc(-c6c([H])c([H])c(Oc7c([H])c([H])c(F)c([H])c7F)c([H])c6[H])c(C(=O)N([H])[H])c5N([H])[H])C4([H])[H])C([H])([H])C3([H])[H])c([H])c([H])c2C1([H])[H]

>  <smiles>  (85) 
[H]c1c([H])c([H])c2c(c1[H])C([H])([H])C([H])([H])C([H])([H])C2([H])N([H])C(=O)C1([H])N(C(=O)C([H])(N([H])C(=O)C([H])(N([H])C([H])([H])[H])C([H])([H])[H])C(C([H])([H])[H])(C([H])([H])[H])C([H])([H])[H])C([H])([H])c2c([H])c(OC([H])([H])C([H])([H])[N+]([H])([H])C([H])(C([H])([H])[H])C([H])([H])N3C([H])([H])C([H])([H])N(C(=O)N4C([H])([H])C([H])([H])C([H])([H])C([H])(n5nc(-c6c([H])c([H])c(Oc7c([H])c([H])c(F)c([H])c7F)c([H])c6[H])c(C(=O)N([H])[H])c5N([H])[H])C4([H])[H])C([H])([H])C3([H])[H])c([H])c([H])c2C1([H])[H]

$$$$
85:0:0
     RDKit          3D

 93101  0  0  1  0  0  0  0  0999 V2000
  -27.2620  -20.8480   20.9260 C   0  0  0  0  0  3  0  0  0  0  0  0
  -28.2860  -19.8860   20.8470 C   0  0  0  0  0  3  0  0  0  0  0  0
  -27.3860  -22.0760   20.2440 C   0  0  0  0  0  3  0  0  0  0  0  0
  -29.5380  -21.3640   19.3620 C   0  0  0  0  0  3  0  0  0  0  0  0
  -29.4380  -20.1450   20.0760 C   0  0  0  0  0  0  0  0  0  0  0  0
  -28.5240  -22.3460   19.4520 C   0  0  0  0  0  0  0  0  0  0  0  0
  -30.4670  -19.1930   20.0250 N   0  0  0  0  0  0  0  0  0  0  0  0
  -30.6620  -18.7950   20.9370 H   0  0  0  0  0  0  0  0  0  0  0  0
  -30.2440  -18.1560   19.0250 C   0  0  0  0  0  2  0  0  0  0  0  0
  -29.7830  -16.8270   19.6600 C   0  0  0  0  0  2  0  0  0  0  0  0
  -31.4600  -15.0380   19.8140 C   0  0  0  0  0  0  0  0  0  0  0  0
  -31.1610  -12.7380   18.9690 C   0  0  0  0  0  2  0  0  0  0  0  0
  -30.1820  -12.7260   17.7820 C   0  0  0  0  0  2  0  0  0  0  0  0
  -28.7360  -12.5650   18.2860 C   0  0  0  0  0  2  0  0  0  0  0  0
  -28.3840  -13.5800   19.4010 C   0  0  0  0  0  3  0  0  0  0  0  0
  -29.4780  -13.6190   20.4950 C   0  0  0  0  0  2  0  0  0  0  0  0
  -30.7790  -13.8580   19.8470 N   0  0  0  0  0  0  0  0  0  0  0  0
  -32.5660  -15.1610   19.2870 O   0  0  0  0  0  0  0  0  0  0  0  0
  -30.8670  -16.1190   20.3470 N   0  0  0  0  0  0  0  0  0  0  0  0
  -31.5520  -16.7850   20.6740 H   0  0  0  0  0  0  0  0  0  0  0  0
  -26.0780  -14.2680   20.3000 C   0  0  0  0  0  0  0  0  0  0  0  0
  -25.0060  -13.5280   20.7100 C   0  0  0  0  0  0  0  0  0  0  0  0
  -25.4060  -12.1600   20.6010 C   0  0  0  0  0  0  0  0  0  0  0  0
  -27.0630  -13.3480   19.9650 N   0  0  0  0  0  0  0  0  0  0  0  0
  -26.6680  -12.0770   20.2070 N   0  0  0  0  0  0  0  0  0  0  0  0
  -24.6440  -10.9220   20.7910 C   0  0  0  0  0  0  0  0  0  0  0  0
  -25.0060   -9.9770   21.7770 C   0  0  0  0  0  3  0  0  0  0  0  0
  -24.2470   -8.8010   21.9540 C   0  0  0  0  0  3  0  0  0  0  0  0
  -23.1140   -8.5620   21.1430 C   0  0  0  0  0  0  0  0  0  0  0  0
  -22.7730   -9.4930   20.1470 C   0  0  0  0  0  3  0  0  0  0  0  0
  -23.5300  -10.6600   19.9690 C   0  0  0  0  0  3  0  0  0  0  0  0
  -22.3310   -7.4370   21.2260 O   0  0  0  0  0  0  0  0  0  0  0  0
  -22.0800   -6.8220   22.4260 C   0  0  0  0  0  0  0  0  0  0  0  0
  -21.4360   -7.4950   23.4870 C   0  0  0  0  0  3  0  0  0  0  0  0
  -21.1370   -6.8030   24.6790 C   0  0  0  0  0  3  0  0  0  0  0  0
  -21.4700   -5.4420   24.8080 C   0  0  0  0  0  0  0  0  0  0  0  0
  -22.1080   -4.7720   23.7500 C   0  0  0  0  0  3  0  0  0  0  0  0
  -22.4090   -5.4590   22.5610 C   0  0  0  0  0  0  0  0  0  0  0  0
  -23.0050   -4.8020   21.5380 F   0  0  0  0  0  0  0  0  0  0  0  0
  -21.1750   -4.7760   25.9480 F   0  0  0  0  0  0  0  0  0  0  0  0
  -23.6500  -14.0470   21.0900 C   0  0  0  0  0  0  0  0  0  0  0  0
  -22.9550  -13.3510   21.9810 N   0  0  0  0  0  0  0  0  0  0  0  0
  -23.2210  -15.1050   20.6290 O   0  0  0  0  0  0  0  0  0  0  0  0
  -23.3180  -12.4920   22.3670 H   0  0  0  0  0  0  0  0  0  0  0  0
  -22.0470  -13.6780   22.2820 H   0  0  0  0  0  0  0  0  0  0  0  0
  -26.2920  -15.6380   20.1630 N   0  0  0  0  0  0  0  0  0  0  0  0
  -25.5650  -16.3180   20.3540 H   0  0  0  0  0  0  0  0  0  0  0  0
  -27.1270  -16.0500   19.7660 H   0  0  0  0  0  0  0  0  0  0  0  0
  -28.6650  -23.5630   18.7550 N   0  0  0  0  0  0  0  0  0  0  0  0
  -28.2910  -23.5290   17.8070 H   0  0  0  0  0  0  0  0  0  0  0  0
  -28.3260  -24.7890   19.4880 C   0  0  0  0  0  2  0  0  0  0  0  0
  -28.8040  -26.0690   18.7560 C   0  0  0  0  0  2  0  0  0  0  0  0
  -28.6590  -27.2610   19.5350 O   0  0  0  0  0  0  0  0  0  0  0  0
  -24.7030  -31.8180   23.2920 C   0  0  0  0  0  0  0  0  0  0  0  0
  -27.4260  -27.8740   19.6470 C   0  0  0  0  0  0  0  0  0  0  0  0
  -23.5010  -30.5290   21.5610 C   0  0  0  0  0  3  0  0  0  0  0  0
  -24.9600  -29.2320   19.9310 C   0  0  0  0  0  0  0  0  0  0  0  0
  -25.9930  -31.0440   21.3050 C   0  0  0  0  0  2  0  0  0  0  0  0
  -26.1150  -29.7520   20.5250 C   0  0  0  0  0  0  0  0  0  0  0  0
  -27.3460  -29.0730   20.3920 C   0  0  0  0  0  3  0  0  0  0  0  0
  -26.2480  -27.3690   19.0500 C   0  0  0  0  0  3  0  0  0  0  0  0
  -25.0170  -28.0350   19.2000 C   0  0  0  0  0  3  0  0  0  0  0  0
  -23.6840  -30.0200   20.1110 C   0  0  0  0  0  2  0  0  0  0  0  0
  -24.7540  -31.1390   22.1130 N   0  0  0  0  0  0  0  0  0  0  0  0
  -23.6310  -31.9740   23.8950 O   0  0  0  0  0  0  0  0  0  0  0  0
  -22.9440  -29.3770   22.4270 C   0  0  0  0  0  0  0  0  0  0  0  0
  -21.6400  -29.0900   22.2740 N   0  0  0  0  0  0  0  0  0  0  0  0
  -23.6770  -28.7510   23.1960 O   0  0  0  0  0  0  0  0  0  0  0  0
  -21.1030  -29.6520   21.6300 H   0  0  0  0  0  0  0  0  0  0  0  0
  -18.4010  -27.5300   22.5970 C   0  0  0  0  0  0  0  0  0  0  0  0
  -20.9100  -28.0280   22.9640 C   0  0  0  0  0  3  0  0  0  0  0  0
  -21.1790  -26.6580   22.3040 C   0  0  0  0  0  2  0  0  0  0  0  0
  -20.1430  -26.2900   21.2360 C   0  0  0  0  0  2  0  0  0  0  0  0
  -18.7390  -26.2520   21.8470 C   0  0  0  0  0  2  0  0  0  0  0  0
  -19.4240  -28.3720   23.1080 C   0  0  0  0  0  0  0  0  0  0  0  0
  -19.0640  -29.5650   23.7730 C   0  0  0  0  0  3  0  0  0  0  0  0
  -17.7110  -29.9180   23.9340 C   0  0  0  0  0  3  0  0  0  0  0  0
  -16.7000  -29.0730   23.4430 C   0  0  0  0  0  3  0  0  0  0  0  0
  -17.0460  -27.8820   22.7780 C   0  0  0  0  0  3  0  0  0  0  0  0
  -25.9800  -32.4540   23.9230 C   0  0  0  0  0  3  0  0  0  0  0  0
  -25.6540  -33.8420   24.2820 N   0  0  0  0  0  0  0  0  0  0  0  0
  -25.9790  -34.9120   23.5450 C   0  0  0  0  0  0  0  0  0  0  0  0
  -26.6560  -34.8380   22.5160 O   0  0  0  0  0  0  0  0  0  0  0  0
  -25.0600  -33.9780   25.0870 H   0  0  0  0  0  0  0  0  0  0  0  0
  -24.2350  -36.6920   23.2110 C   0  0  0  0  0  1  0  0  0  0  0  0
  -25.4720  -36.2850   24.0260 C   0  0  0  0  0  3  0  0  0  0  0  0
  -27.5800  -37.1830   24.9070 C   0  0  0  0  0  1  0  0  0  0  0  0
  -26.4940  -37.3500   23.9460 N   0  0  0  0  0  0  0  0  0  0  0  0
  -26.0740  -38.2630   24.1000 H   0  0  0  0  0  0  0  0  0  0  0  0
  -26.5140  -31.6620   25.1800 C   0  0  1  0  0  0  0  0  0  0  0  0
  -25.4240  -31.3710   26.2380 C   0  0  0  0  0  1  0  0  0  0  0  0
  -27.1270  -30.3080   24.7530 C   0  0  0  0  0  1  0  0  0  0  0  0
  -27.6470  -32.4610   25.8680 C   0  0  0  0  0  1  0  0  0  0  0  0
  2  1  1  0
  3  1  2  0
  4  6  2  0
  4  5  1  0
  5  2  2  0
  6  3  1  0
  7  5  1  0
  7  8  1  0
  9 10  1  0
  9  7  1  0
 10 19  1  0
 11 17  1  0
 11 19  1  0
 12 17  1  0
 13 14  1  0
 13 12  1  0
 15 14  1  0
 15 24  1  0
 15 16  1  0
 17 16  1  0
 18 11  2  0
 19 20  1  0
 21 22  2  0
 22 41  1  0
 23 22  1  0
 23 26  1  0
 24 25  1  0
 24 21  1  0
 25 23  2  0
 26 27  1  0
 27 28  2  0
 29 32  1  0
 29 28  1  0
 30 29  2  0
 31 30  1  0
 31 26  2  0
 32 33  1  0
 33 38  2  0
 33 34  1  0
 34 35  2  0
 35 36  1  0
 36 40  1  0
 37 36  2  0
 38 37  1  0
 39 38  1  0
 41 42  1  0
 42 45  1  0
 42 44  1  0
 43 41  2  0
 46 21  1  0
 46 47  1  0
 48 46  1  0
 49  6  1  0
 49 51  1  0
 50 49  1  0
 52 51  1  0
 52 53  1  0
 53 55  1  0
 54 65  2  0
 55 60  1  0
 56 64  1  0
 56 66  1  0
 57 63  1  0
 57 59  1  0
 58 64  1  0
 59 58  1  0
 60 59  2  0
 61 62  1  0
 61 55  2  0
 62 57  2  0
 63 56  1  0
 64 54  1  0
 66 68  2  0
 67 66  1  0
 69 67  1  0
 70 79  2  0
 70 75  1  0
 71 67  1  0
 71 75  1  0
 72 71  1  0
 73 74  1  0
 73 72  1  0
 74 70  1  0
 75 76  2  0
 76 77  1  0
 78 77  2  0
 79 78  1  0
 80 54  1  0
 80 81  1  0
 80 90  1  0
 81 84  1  0
 82 86  1  0
 82 81  1  0
 83 82  2  0
 86 85  1  0
 88 86  1  0
 88 89  1  0
 88 87  1  0
 90 93  1  1
 90 91  1  0
 92 90  1  0
M  ISO  4  11 100  19 100  52 101  53 101
M  END
>  <TORSDO>  (86) 
F 22

>  <SCORE>  (86) 
-10.328

>  <name>  (86) 
85

>  <ligand_id>  (86) 
85

>  <original_smiles>  (86) 
[H]c1c([H])c(N([H])C([H])([H])C([H])([H])Oc2c([H])c([H])c3c(c2[H])C([H])([H])N(C(=O)C([H])(N([H])C(=O)C([H])(N([H])C([H])([H])[H])C([H])([H])[H])C(C([H])([H])[H])(C([H])([H])[H])C([H])([H])[H])C([H])(C(=O)N([H])C2([H])c4c([H])c([H])c([H])c([H])c4C([H])([H])C([H])([H])C2([H])[H])C3([H])[H])c([H])c(N([H])C([H])([H])C([H])([H])N([H])C(=O)N2C([H])([H])C([H])([H])C([H])([H])C([H])(n3nc(-c4c([H])c([H])c(Oc5c([H])c([H])c(F)c([H])c5F)c([H])c4[H])c(C(=O)N([H])[H])c3N([H])[H])C2([H])[H])c1[H]

>  <smiles>  (86) 
[H]c1c([H])c(N([H])C([H])([H])C([H])([H])Oc2c([H])c([H])c3c(c2[H])C([H])([H])N(C(=O)C([H])(N([H])C(=O)C([H])(N([H])C([H])([H])[H])C([H])([H])[H])C(C([H])([H])[H])(C([H])([H])[H])C([H])([H])[H])C([H])(C(=O)N([H])C2([H])c4c([H])c([H])c([H])c([H])c4C([H])([H])C([H])([H])C2([H])[H])C3([H])[H])c([H])c(N([H])C([H])([H])C([H])([H])N([H])C(=O)N2C([H])([H])C([H])([H])C([H])([H])C([H])(n3nc(-c4c([H])c([H])c(Oc5c([H])c([H])c(F)c([H])c5F)c([H])c4[H])c(C(=O)N([H])[H])c3N([H])[H])C2([H])[H])c1[H]

$$$$
86:0:0
     RDKit          3D

 98106  0  0  1  0  0  0  0  0999 V2000
  -27.6970  -22.5350   20.3230 N   0  0  0  0  0  4  0  0  0  0  0  0
  -26.7240  -22.7020   20.5250 H   0  0  0  0  0  0  0  0  0  0  0  0
  -28.0930  -21.9940   21.0740 H   0  0  0  0  0  0  0  0  0  0  0  0
  -29.9080  -23.6120   20.5220 C   0  0  0  0  0  0  0  0  0  0  0  0
  -30.7510  -24.8840   20.5490 C   0  0  0  0  0  2  0  0  0  0  0  0
  -30.1980  -25.8900   21.5780 C   0  0  0  0  0  2  0  0  0  0  0  0
  -27.9110  -24.7570   21.4830 C   0  0  0  0  0  2  0  0  0  0  0  0
  -28.3970  -23.8400   20.3400 C   0  0  0  0  0  3  0  0  0  0  0  0
  -28.6720  -26.1000   21.4680 C   0  0  0  0  0  3  0  0  0  0  0  0
  -30.4290  -22.5030   20.6790 O   0  0  0  0  0  0  0  0  0  0  0  0
  -28.3970  -26.7590   20.2360 O   0  0  0  0  0  0  0  0  0  0  0  0
  -24.5310  -31.9020   23.2490 C   0  0  0  0  0  0  0  0  0  0  0  0
  -27.2290  -27.4770   20.2390 C   0  0  0  0  0  0  0  0  0  0  0  0
  -23.3430  -30.4760   21.6100 C   0  0  0  0  0  3  0  0  0  0  0  0
  -24.8190  -28.9290   20.2190 C   0  0  0  0  0  0  0  0  0  0  0  0
  -25.8630  -30.8530   21.4300 C   0  0  0  0  0  2  0  0  0  0  0  0
  -25.9620  -29.4760   20.8140 C   0  0  0  0  0  0  0  0  0  0  0  0
  -27.1710  -28.7550   20.8300 C   0  0  0  0  0  3  0  0  0  0  0  0
  -26.0800  -26.9330   19.6330 C   0  0  0  0  0  3  0  0  0  0  0  0
  -24.8680  -27.6520   19.6290 C   0  0  0  0  0  3  0  0  0  0  0  0
  -23.5660  -29.7740   20.2420 C   0  0  0  0  0  2  0  0  0  0  0  0
  -24.5960  -31.0920   22.1560 N   0  0  0  0  0  0  0  0  0  0  0  0
  -23.4450  -32.1770   23.7780 O   0  0  0  0  0  0  0  0  0  0  0  0
  -22.6880  -29.4650   22.5770 C   0  0  0  0  0  0  0  0  0  0  0  0
  -21.3640  -29.2870   22.4450 N   0  0  0  0  0  0  0  0  0  0  0  0
  -23.3670  -28.8430   23.3970 O   0  0  0  0  0  0  0  0  0  0  0  0
  -20.8790  -29.8420   21.7540 H   0  0  0  0  0  0  0  0  0  0  0  0
  -17.9790  -28.1300   22.9450 C   0  0  0  0  0  0  0  0  0  0  0  0
  -20.5390  -28.3600   23.2170 C   0  0  0  0  0  3  0  0  0  0  0  0
  -20.6270  -26.9270   22.6430 C   0  0  0  0  0  2  0  0  0  0  0  0
  -19.5210  -26.6140   21.6300 C   0  0  0  0  0  2  0  0  0  0  0  0
  -18.1400  -26.7780   22.2720 C   0  0  0  0  0  2  0  0  0  0  0  0
  -19.1060  -28.8810   23.3740 C   0  0  0  0  0  0  0  0  0  0  0  0
  -18.9030  -30.1480   23.9600 C   0  0  0  0  0  3  0  0  0  0  0  0
  -17.6050  -30.6670   24.1220 C   0  0  0  0  0  3  0  0  0  0  0  0
  -16.4920  -29.9130   23.7130 C   0  0  0  0  0  3  0  0  0  0  0  0
  -16.6790  -28.6470   23.1290 C   0  0  0  0  0  3  0  0  0  0  0  0
  -25.8120  -32.5400   23.8740 C   0  0  0  0  0  3  0  0  0  0  0  0
  -25.5030  -33.9430   24.1760 N   0  0  0  0  0  0  0  0  0  0  0  0
  -25.8460  -34.9810   23.4000 C   0  0  0  0  0  0  0  0  0  0  0  0
  -26.5260  -34.8570   22.3780 O   0  0  0  0  0  0  0  0  0  0  0  0
  -24.9000  -34.1140   24.9680 H   0  0  0  0  0  0  0  0  0  0  0  0
  -24.1170  -36.7620   22.9950 C   0  0  0  0  0  1  0  0  0  0  0  0
  -25.3540  -36.3770   23.8240 C   0  0  0  0  0  3  0  0  0  0  0  0
  -27.4830  -37.2780   24.6510 C   0  0  0  0  0  1  0  0  0  0  0  0
  -26.3860  -37.4290   23.6980 N   0  0  0  0  0  0  0  0  0  0  0  0
  -25.9800  -38.3510   23.8280 H   0  0  0  0  0  0  0  0  0  0  0  0
  -26.3170  -31.7860   25.1640 C   0  0  1  0  0  0  0  0  0  0  0  0
  -25.2140  -31.5620   26.2240 C   0  0  0  0  0  1  0  0  0  0  0  0
  -26.9050  -30.4040   24.7940 C   0  0  0  0  0  1  0  0  0  0  0  0
  -27.4600  -32.5900   25.8270 C   0  0  0  0  0  1  0  0  0  0  0  0
  -27.7890  -21.8030   19.0310 C   0  0  0  0  0  2  0  0  0  0  0  0
  -27.0230  -20.4610   19.0160 C   0  0  0  0  0  2  0  0  0  0  0  0
  -27.5020  -19.3810   20.0140 C   0  0  0  0  0  2  0  0  0  0  0  0
  -28.8750  -18.8800   19.7640 N   0  0  0  0  0  4  0  0  0  0  0  0
  -28.9380  -18.5210   18.8230 H   0  0  0  0  0  0  0  0  0  0  0  0
  -29.5450  -19.6260   19.8540 H   0  0  0  0  0  0  0  0  0  0  0  0
  -29.2760  -17.8060   20.6980 C   0  0  0  0  0  2  0  0  0  0  0  0
  -30.7750  -17.4780   20.5980 C   0  0  0  0  0  2  0  0  0  0  0  0
  -31.2090  -16.3340   21.5370 C   0  0  0  0  0  2  0  0  0  0  0  0
  -30.9440  -14.2520   20.2120 C   0  0  0  0  0  0  0  0  0  0  0  0
  -30.4700  -12.1770   18.9760 C   0  0  0  0  0  2  0  0  0  0  0  0
  -29.5100  -12.4310   17.7990 C   0  0  0  0  0  2  0  0  0  0  0  0
  -28.0440  -12.3510   18.2630 C   0  0  0  0  0  2  0  0  0  0  0  0
  -27.7710  -13.2030   19.5320 C   0  0  0  0  0  3  0  0  0  0  0  0
  -28.8350  -12.9250   20.6180 C   0  0  0  0  0  2  0  0  0  0  0  0
  -30.1730  -13.1500   20.0360 N   0  0  0  0  0  0  0  0  0  0  0  0
  -31.9440  -14.5010   19.5320 O   0  0  0  0  0  0  0  0  0  0  0  0
  -30.5590  -15.0680   21.1980 N   0  0  0  0  0  0  0  0  0  0  0  0
  -29.7650  -14.7770   21.7500 H   0  0  0  0  0  0  0  0  0  0  0  0
  -25.4050  -13.9020   20.2750 C   0  0  0  0  0  0  0  0  0  0  0  0
  -24.3170  -13.1720   20.6700 C   0  0  0  0  0  0  0  0  0  0  0  0
  -24.7290  -11.8040   20.6400 C   0  0  0  0  0  0  0  0  0  0  0  0
  -26.4160  -12.9840   20.0330 N   0  0  0  0  0  0  0  0  0  0  0  0
  -26.0110  -11.7170   20.3080 N   0  0  0  0  0  0  0  0  0  0  0  0
  -23.9620  -10.5690   20.8530 C   0  0  0  0  0  0  0  0  0  0  0  0
  -24.3710   -9.6000   21.7960 C   0  0  0  0  0  3  0  0  0  0  0  0
  -23.6080   -8.4300   21.9970 C   0  0  0  0  0  3  0  0  0  0  0  0
  -22.4220   -8.2210   21.2530 C   0  0  0  0  0  0  0  0  0  0  0  0
  -22.0320   -9.1770   20.2980 C   0  0  0  0  0  3  0  0  0  0  0  0
  -22.7960  -10.3390   20.0960 C   0  0  0  0  0  3  0  0  0  0  0  0
  -21.6300   -7.1020   21.3620 O   0  0  0  0  0  0  0  0  0  0  0  0
  -21.5550   -6.3840   22.5280 C   0  0  0  0  0  0  0  0  0  0  0  0
  -21.1530   -6.9790   23.7440 C   0  0  0  0  0  3  0  0  0  0  0  0
  -21.0230   -6.1900   24.9040 C   0  0  0  0  0  3  0  0  0  0  0  0
  -21.2840   -4.8070   24.8490 C   0  0  0  0  0  0  0  0  0  0  0  0
  -21.6790   -4.2120   23.6380 C   0  0  0  0  0  3  0  0  0  0  0  0
  -21.8110   -4.9990   22.4800 C   0  0  0  0  0  0  0  0  0  0  0  0
  -22.1710   -4.4180   21.3100 F   0  0  0  0  0  0  0  0  0  0  0  0
  -21.1510   -4.0460   25.9610 F   0  0  0  0  0  0  0  0  0  0  0  0
  -22.9430  -13.7000   20.9670 C   0  0  0  0  0  0  0  0  0  0  0  0
  -22.2090  -13.0350   21.8540 N   0  0  0  0  0  0  0  0  0  0  0  0
  -22.5310  -14.7370   20.4490 O   0  0  0  0  0  0  0  0  0  0  0  0
  -22.5530  -12.1950   22.2940 H   0  0  0  0  0  0  0  0  0  0  0  0
  -21.2860  -13.3700   22.0940 H   0  0  0  0  0  0  0  0  0  0  0  0
  -25.6160  -15.2650   20.0800 N   0  0  0  0  0  0  0  0  0  0  0  0
  -24.8700  -15.9440   20.1820 H   0  0  0  0  0  0  0  0  0  0  0  0
  -26.4610  -15.6530   19.6880 H   0  0  0  0  0  0  0  0  0  0  0  0
  1  2  1  0
  1  3  1  0
  4  5  1  0
  4 10  2  0
  5  6  1  0
  8  1  1  0
  8  4  1  0
  8  7  1  0
  9 11  1  0
  9  7  1  0
  9  6  1  0
 11 13  1  0
 12 23  2  0
 13 18  1  0
 14 22  1  0
 14 24  1  0
 15 21  1  0
 15 17  1  0
 16 22  1  0
 17 18  2  0
 17 16  1  0
 19 13  2  0
 20 19  1  0
 20 15  2  0
 21 14  1  0
 22 12  1  0
 24 26  2  0
 25 24  1  0
 27 25  1  0
 28 37  2  0
 28 33  1  0
 29 25  1  0
 29 33  1  0
 30 29  1  0
 31 32  1  0
 31 30  1  0
 32 28  1  0
 33 34  2  0
 34 35  1  0
 36 35  2  0
 37 36  1  0
 38 12  1  0
 38 39  1  0
 38 48  1  0
 39 42  1  0
 40 44  1  0
 40 39  1  0
 41 40  2  0
 44 43  1  0
 46 44  1  0
 46 47  1  0
 46 45  1  0
 48 51  1  1
 48 49  1  0
 50 48  1  0
 52  1  1  0
 53 52  1  0
 53 54  1  0
 55 57  1  0
 55 54  1  0
 55 58  1  0
 56 55  1  0
 59 58  1  0
 59 60  1  0
 61 69  1  0
 62 67  1  0
 63 64  1  0
 63 62  1  0
 65 64  1  0
 65 74  1  0
 65 66  1  0
 67 61  1  0
 67 66  1  0
 68 61  2  0
 69 60  1  0
 69 70  1  0
 71 72  2  0
 72 91  1  0
 73 72  1  0
 73 76  1  0
 74 71  1  0
 74 75  1  0
 75 73  2  0
 76 77  1  0
 77 78  2  0
 79 82  1  0
 79 78  1  0
 80 79  2  0
 81 80  1  0
 81 76  2  0
 82 83  1  0
 83 84  1  0
 84 85  2  0
 86 85  1  0
 86 90  1  0
 87 86  2  0
 88 83  2  0
 88 87  1  0
 89 88  1  0
 91 92  1  0
 92 95  1  0
 92 94  1  0
 93 91  2  0
 96 97  1  0
 96 71  1  0
 98 96  1  0
M  ISO  4   9 101  11 101  61 100  69 100
M  END
>  <TORSDO>  (87) 
F 24

>  <SCORE>  (87) 
-12.478

>  <name>  (87) 
86

>  <ligand_id>  (87) 
86

>  <original_smiles>  (87) 
[H]c1c([H])c([H])c2c(c1[H])C([H])([H])C([H])([H])C([H])([H])C2([H])N([H])C(=O)C1([H])N(C(=O)C([H])(N([H])C(=O)C([H])(N([H])C([H])([H])[H])C([H])([H])[H])C(C([H])([H])[H])(C([H])([H])[H])C([H])([H])[H])C([H])([H])c2c([H])c(OC3([H])C([H])([H])C([H])([H])C(=O)C([H])([N+]([H])([H])C([H])([H])C([H])([H])C([H])([H])[N+]([H])([H])C([H])([H])C([H])([H])C([H])([H])N([H])C(=O)N4C([H])([H])C([H])([H])C([H])([H])C([H])(n5nc(-c6c([H])c([H])c(Oc7c([H])c([H])c(F)c([H])c7F)c([H])c6[H])c(C(=O)N([H])[H])c5N([H])[H])C4([H])[H])C3([H])[H])c([H])c([H])c2C1([H])[H]

>  <smiles>  (87) 
[H]c1c([H])c([H])c2c(c1[H])C([H])([H])C([H])([H])C([H])([H])C2([H])N([H])C(=O)C1([H])N(C(=O)C([H])(N([H])C(=O)C([H])(N([H])C([H])([H])[H])C([H])([H])[H])C(C([H])([H])[H])(C([H])([H])[H])C([H])([H])[H])C([H])([H])c2c([H])c(OC3([H])C([H])([H])C([H])([H])C(=O)C([H])([N+]([H])([H])C([H])([H])C([H])([H])C([H])([H])[N+]([H])([H])C([H])([H])C([H])([H])C([H])([H])N([H])C(=O)N4C([H])([H])C([H])([H])C([H])([H])C([H])(n5nc(-c6c([H])c([H])c(Oc7c([H])c([H])c(F)c([H])c7F)c([H])c6[H])c(C(=O)N([H])[H])c5N([H])[H])C4([H])[H])C3([H])[H])c([H])c([H])c2C1([H])[H]

$$$$
87:0:0
     RDKit          3D

 94102  0  0  1  0  0  0  0  0999 V2000
  -27.4100  -21.6560   20.0910 C   0  0  0  0  0  2  0  0  0  0  0  0
  -29.2610  -23.2840   20.5650 C   0  0  0  0  0  2  0  0  0  0  0  0
  -26.3950  -22.6580   20.6780 C   0  0  0  0  0  2  0  0  0  0  0  0
  -28.7990  -21.7930   20.7520 C   0  0  0  0  0  3  0  0  0  0  0  0
  -28.2130  -24.2870   21.1730 C   0  0  0  0  0  3  0  0  0  0  0  0
  -26.8690  -24.0610   20.5770 N   0  0  0  0  0  4  0  0  0  0  0  0
  -26.1890  -24.6450   21.0440 H   0  0  0  0  0  0  0  0  0  0  0  0
  -26.8800  -24.3390   19.6070 H   0  0  0  0  0  0  0  0  0  0  0  0
  -29.7410  -20.7450   20.2250 N   0  0  0  0  0  4  0  0  0  0  0  0
  -30.6190  -21.1880   20.0000 H   0  0  0  0  0  0  0  0  0  0  0  0
  -29.3730  -20.3940   19.3550 H   0  0  0  0  0  0  0  0  0  0  0  0
  -30.0560  -19.5800   21.1220 C   0  0  0  0  0  2  0  0  0  0  0  0
  -29.9450  -18.1550   20.4680 C   0  0  0  0  0  2  0  0  0  0  0  0
  -30.4790  -16.9850   21.3650 C   0  0  0  0  0  2  0  0  0  0  0  0
  -30.7250  -14.6040   20.4500 C   0  0  0  0  0  0  0  0  0  0  0  0
  -30.4490  -12.4390   19.2790 C   0  0  0  0  0  2  0  0  0  0  0  0
  -29.5090  -12.6200   18.0700 C   0  0  0  0  0  2  0  0  0  0  0  0
  -28.0350  -12.4650   18.4980 C   0  0  0  0  0  2  0  0  0  0  0  0
  -27.6850  -13.3110   19.7530 C   0  0  0  0  0  3  0  0  0  0  0  0
  -28.7380  -13.1030   20.8660 C   0  0  0  0  0  2  0  0  0  0  0  0
  -30.0590  -13.4240   20.3020 N   0  0  0  0  0  0  0  0  0  0  0  0
  -31.8620  -14.7860   20.0040 O   0  0  0  0  0  0  0  0  0  0  0  0
  -30.0200  -15.6180   21.0050 N   0  0  0  0  0  0  0  0  0  0  0  0
  -29.0850  -15.3780   21.2970 H   0  0  0  0  0  0  0  0  0  0  0  0
  -25.2780  -13.9110   20.4380 C   0  0  0  0  0  0  0  0  0  0  0  0
  -24.2120  -13.1370   20.8050 C   0  0  0  0  0  0  0  0  0  0  0  0
  -24.6800  -11.7880   20.7930 C   0  0  0  0  0  0  0  0  0  0  0  0
  -26.3310  -13.0330   20.2260 N   0  0  0  0  0  0  0  0  0  0  0  0
  -25.9740  -11.7520   20.4980 N   0  0  0  0  0  0  0  0  0  0  0  0
  -23.9590  -10.5230   20.9890 C   0  0  0  0  0  0  0  0  0  0  0  0
  -24.3870   -9.5710   21.9400 C   0  0  0  0  0  3  0  0  0  0  0  0
  -23.6670   -8.3700   22.1220 C   0  0  0  0  0  3  0  0  0  0  0  0
  -22.5040   -8.1160   21.3570 C   0  0  0  0  0  0  0  0  0  0  0  0
  -22.0980   -9.0580   20.3970 C   0  0  0  0  0  3  0  0  0  0  0  0
  -22.8180  -10.2490   20.2110 C   0  0  0  0  0  3  0  0  0  0  0  0
  -21.7560   -6.9670   21.4490 O   0  0  0  0  0  0  0  0  0  0  0  0
  -21.6960   -6.2400   22.6100 C   0  0  0  0  0  0  0  0  0  0  0  0
  -21.2410   -6.8060   23.8220 C   0  0  0  0  0  3  0  0  0  0  0  0
  -21.1270   -6.0030   24.9750 C   0  0  0  0  0  3  0  0  0  0  0  0
  -21.4600   -4.6360   24.9180 C   0  0  0  0  0  0  0  0  0  0  0  0
  -21.9090   -4.0710   23.7120 C   0  0  0  0  0  3  0  0  0  0  0  0
  -22.0230   -4.8710   22.5610 C   0  0  0  0  0  0  0  0  0  0  0  0
  -22.4360   -4.3150   21.3970 F   0  0  0  0  0  0  0  0  0  0  0  0
  -21.3440   -3.8640   26.0240 F   0  0  0  0  0  0  0  0  0  0  0  0
  -22.8100  -13.6090   21.0610 C   0  0  0  0  0  0  0  0  0  0  0  0
  -22.0790  -12.9160   21.9260 N   0  0  0  0  0  0  0  0  0  0  0  0
  -22.3740  -14.6280   20.5250 O   0  0  0  0  0  0  0  0  0  0  0  0
  -22.4460  -12.0920   22.3790 H   0  0  0  0  0  0  0  0  0  0  0  0
  -21.1380  -13.2140   22.1400 H   0  0  0  0  0  0  0  0  0  0  0  0
  -25.4380  -15.2810   20.2470 N   0  0  0  0  0  0  0  0  0  0  0  0
  -24.6650  -15.9310   20.3410 H   0  0  0  0  0  0  0  0  0  0  0  0
  -26.2850  -15.7220   19.9100 H   0  0  0  0  0  0  0  0  0  0  0  0
  -28.5960  -25.8140   21.2710 C   0  0  0  0  0  2  0  0  0  0  0  0
  -28.3890  -26.6630   20.1150 O   0  0  0  0  0  0  0  0  0  0  0  0
  -24.6110  -31.9050   23.2600 C   0  0  0  0  0  0  0  0  0  0  0  0
  -27.2580  -27.4630   20.1460 C   0  0  0  0  0  0  0  0  0  0  0  0
  -23.4120  -30.5100   21.6060 C   0  0  0  0  0  3  0  0  0  0  0  0
  -24.8730  -28.9930   20.1630 C   0  0  0  0  0  0  0  0  0  0  0  0
  -25.9380  -30.8700   21.4200 C   0  0  0  0  0  2  0  0  0  0  0  0
  -26.0290  -29.5000   20.7710 C   0  0  0  0  0  0  0  0  0  0  0  0
  -27.2270  -28.7390   20.7700 C   0  0  0  0  0  3  0  0  0  0  0  0
  -26.0970  -27.0010   19.4990 C   0  0  0  0  0  3  0  0  0  0  0  0
  -24.9020  -27.7450   19.5210 C   0  0  0  0  0  3  0  0  0  0  0  0
  -23.6260  -29.8480   20.2190 C   0  0  0  0  0  2  0  0  0  0  0  0
  -24.6720  -31.1080   22.1550 N   0  0  0  0  0  0  0  0  0  0  0  0
  -23.5270  -32.1710   23.7990 O   0  0  0  0  0  0  0  0  0  0  0  0
  -22.7640  -29.4780   22.5570 C   0  0  0  0  0  0  0  0  0  0  0  0
  -21.4390  -29.2940   22.4290 N   0  0  0  0  0  0  0  0  0  0  0  0
  -23.4490  -28.8460   23.3660 O   0  0  0  0  0  0  0  0  0  0  0  0
  -20.9470  -29.8600   21.7520 H   0  0  0  0  0  0  0  0  0  0  0  0
  -18.0670  -28.0860   22.9180 C   0  0  0  0  0  0  0  0  0  0  0  0
  -20.6240  -28.3460   23.1910 C   0  0  0  0  0  3  0  0  0  0  0  0
  -20.7300  -26.9210   22.5980 C   0  0  0  0  0  2  0  0  0  0  0  0
  -19.6270  -26.6070   21.5820 C   0  0  0  0  0  2  0  0  0  0  0  0
  -18.2460  -26.7450   22.2270 C   0  0  0  0  0  2  0  0  0  0  0  0
  -19.1850  -28.8440   23.3550 C   0  0  0  0  0  0  0  0  0  0  0  0
  -18.9660  -30.1020   23.9570 C   0  0  0  0  0  3  0  0  0  0  0  0
  -17.6600  -30.6010   24.1280 C   0  0  0  0  0  3  0  0  0  0  0  0
  -16.5560  -29.8390   23.7090 C   0  0  0  0  0  3  0  0  0  0  0  0
  -16.7610  -28.5820   23.1100 C   0  0  0  0  0  3  0  0  0  0  0  0
  -25.8950  -32.5340   23.8850 C   0  0  0  0  0  3  0  0  0  0  0  0
  -25.5870  -33.9310   24.2160 N   0  0  0  0  0  0  0  0  0  0  0  0
  -25.9170  -34.9830   23.4540 C   0  0  0  0  0  0  0  0  0  0  0  0
  -26.5860  -34.8790   22.4220 O   0  0  0  0  0  0  0  0  0  0  0  0
  -24.9930  -34.0840   25.0170 H   0  0  0  0  0  0  0  0  0  0  0  0
  -24.1880  -36.7740   23.0970 C   0  0  0  0  0  1  0  0  0  0  0  0
  -25.4290  -36.3710   23.9100 C   0  0  0  0  0  3  0  0  0  0  0  0
  -27.5610  -37.2550   24.7460 C   0  0  0  0  0  1  0  0  0  0  0  0
  -26.4610  -37.4250   23.8000 N   0  0  0  0  0  0  0  0  0  0  0  0
  -26.0540  -38.3440   23.9500 H   0  0  0  0  0  0  0  0  0  0  0  0
  -26.4110  -31.7610   25.1590 C   0  0  1  0  0  0  0  0  0  0  0  0
  -25.3160  -31.5170   26.2230 C   0  0  0  0  0  1  0  0  0  0  0  0
  -27.0020  -30.3870   24.7650 C   0  0  0  0  0  1  0  0  0  0  0  0
  -27.5610  -32.5570   25.8250 C   0  0  0  0  0  1  0  0  0  0  0  0
  1  3  1  0
  1  4  1  0
  2  4  1  0
  2  5  1  0
  4  9  1  0
  5 53  1  0
  6  3  1  0
  6  7  1  0
  6  5  1  0
  8  6  1  0
  9 12  1  0
 10  9  1  0
 11  9  1  0
 13 12  1  0
 13 14  1  0
 15 23  1  0
 16 21  1  0
 17 18  1  0
 17 16  1  0
 19 18  1  0
 19 28  1  0
 19 20  1  0
 21 15  1  0
 21 20  1  0
 22 15  2  0
 23 24  1  0
 23 14  1  0
 25 26  2  0
 26 45  1  0
 27 26  1  0
 27 30  1  0
 28 25  1  0
 28 29  1  0
 29 27  2  0
 30 31  1  0
 31 32  2  0
 33 36  1  0
 33 32  1  0
 34 33  2  0
 35 34  1  0
 35 30  2  0
 36 37  1  0
 37 38  1  0
 38 39  2  0
 40 39  1  0
 40 44  1  0
 41 40  2  0
 42 37  2  0
 42 41  1  0
 43 42  1  0
 45 46  1  0
 46 49  1  0
 46 48  1  0
 47 45  2  0
 50 51  1  0
 50 25  1  0
 52 50  1  0
 54 56  1  0
 54 53  1  0
 55 66  2  0
 56 61  1  0
 57 65  1  0
 57 67  1  0
 58 64  1  0
 58 60  1  0
 59 65  1  0
 60 59  1  0
 61 60  2  0
 62 63  1  0
 62 56  2  0
 63 58  2  0
 64 57  1  0
 65 55  1  0
 67 69  2  0
 68 67  1  0
 70 68  1  0
 71 80  2  0
 71 76  1  0
 72 68  1  0
 72 76  1  0
 73 72  1  0
 74 75  1  0
 74 73  1  0
 75 71  1  0
 76 77  2  0
 77 78  1  0
 79 78  2  0
 80 79  1  0
 81 55  1  0
 81 82  1  0
 81 91  1  0
 82 85  1  0
 83 87  1  0
 83 82  1  0
 84 83  2  0
 87 86  1  0
 89 87  1  0
 89 90  1  0
 89 88  1  0
 91 94  1  1
 91 92  1  0
 93 91  1  0
M  ISO  4  15 100  23 100  53 101  54 101
M  END
>  <TORSDO>  (88) 
F 21

>  <SCORE>  (88) 
-13.235

>  <name>  (88) 
87

>  <ligand_id>  (88) 
87

>  <original_smiles>  (88) 
[H]c1c([H])c([H])c2c(c1[H])C([H])([H])C([H])([H])C([H])([H])C2([H])N([H])C(=O)C1([H])N(C(=O)C([H])(N([H])C(=O)C([H])(N([H])C([H])([H])[H])C([H])([H])[H])C(C([H])([H])[H])(C([H])([H])[H])C([H])([H])[H])C([H])([H])c2c([H])c(OC([H])([H])C3([H])C([H])([H])C([H])([N+]([H])([H])C([H])([H])C([H])([H])C([H])([H])N([H])C(=O)N4C([H])([H])C([H])([H])C([H])([H])C([H])(n5nc(-c6c([H])c([H])c(Oc7c([H])c([H])c(F)c([H])c7F)c([H])c6[H])c(C(=O)N([H])[H])c5N([H])[H])C4([H])[H])C([H])([H])C([H])([H])[N+]3([H])[H])c([H])c([H])c2C1([H])[H]

>  <smiles>  (88) 
[H]c1c([H])c([H])c2c(c1[H])C([H])([H])C([H])([H])C([H])([H])C2([H])N([H])C(=O)C1([H])N(C(=O)C([H])(N([H])C(=O)C([H])(N([H])C([H])([H])[H])C([H])([H])[H])C(C([H])([H])[H])(C([H])([H])[H])C([H])([H])[H])C([H])([H])c2c([H])c(OC([H])([H])C3([H])C([H])([H])C([H])([N+]([H])([H])C([H])([H])C([H])([H])C([H])([H])N([H])C(=O)N4C([H])([H])C([H])([H])C([H])([H])C([H])(n5nc(-c6c([H])c([H])c(Oc7c([H])c([H])c(F)c([H])c7F)c([H])c6[H])c(C(=O)N([H])[H])c5N([H])[H])C4([H])[H])C([H])([H])C([H])([H])[N+]3([H])[H])c([H])c([H])c2C1([H])[H]

$$$$
88:0:0
     RDKit          3D

 98105  0  0  1  0  0  0  0  0999 V2000
  -28.7350  -21.2280   17.7210 C   0  0  0  0  0  1  0  0  0  0  0  0
  -29.4130  -21.8520   18.9700 C   0  0  1  0  0  0  0  0  0  0  0  0
  -28.5660  -23.0460   19.2650 N   0  0  0  0  0  4  0  0  0  0  0  0
  -28.2230  -23.3470   18.3620 H   0  0  0  0  0  0  0  0  0  0  0  0
  -27.7540  -22.7420   19.7760 H   0  0  0  0  0  0  0  0  0  0  0  0
  -29.0990  -24.2940   19.8980 C   0  0  0  0  0  2  0  0  0  0  0  0
  -28.0460  -25.3870   19.6350 C   0  0  0  0  0  2  0  0  0  0  0  0
  -28.2740  -26.7600   20.0140 O   0  0  0  0  0  0  0  0  0  0  0  0
  -24.5260  -31.9070   23.2240 C   0  0  0  0  0  0  0  0  0  0  0  0
  -27.1310  -27.5520   19.9880 C   0  0  0  0  0  0  0  0  0  0  0  0
  -23.3050  -30.5600   21.5510 C   0  0  0  0  0  3  0  0  0  0  0  0
  -24.7450  -29.0890   20.0600 C   0  0  0  0  0  0  0  0  0  0  0  0
  -25.8340  -30.9240   21.3460 C   0  0  0  0  0  2  0  0  0  0  0  0
  -25.9120  -29.5760   20.6600 C   0  0  0  0  0  0  0  0  0  0  0  0
  -27.1080  -28.8160   20.6270 C   0  0  0  0  0  3  0  0  0  0  0  0
  -25.9390  -27.1140   19.3480 C   0  0  0  0  0  3  0  0  0  0  0  0
  -24.7560  -27.8560   19.4030 C   0  0  0  0  0  3  0  0  0  0  0  0
  -23.5040  -29.9410   20.1440 C   0  0  0  0  0  2  0  0  0  0  0  0
  -24.5730  -31.1460   22.0990 N   0  0  0  0  0  0  0  0  0  0  0  0
  -23.4480  -32.1590   23.7820 O   0  0  0  0  0  0  0  0  0  0  0  0
  -22.6660  -29.4980   22.4770 C   0  0  0  0  0  0  0  0  0  0  0  0
  -21.3470  -29.2900   22.3310 N   0  0  0  0  0  0  0  0  0  0  0  0
  -23.3550  -28.8700   23.2840 O   0  0  0  0  0  0  0  0  0  0  0  0
  -20.8510  -29.8510   21.6540 H   0  0  0  0  0  0  0  0  0  0  0  0
  -17.9990  -27.9990   22.7410 C   0  0  0  0  0  0  0  0  0  0  0  0
  -20.5420  -28.3220   23.0760 C   0  0  0  0  0  3  0  0  0  0  0  0
  -20.6980  -26.8990   22.4900 C   0  0  0  0  0  2  0  0  0  0  0  0
  -19.6290  -26.5550   21.4490 C   0  0  0  0  0  2  0  0  0  0  0  0
  -18.2290  -26.6580   22.0620 C   0  0  0  0  0  2  0  0  0  0  0  0
  -19.0870  -28.7860   23.2030 C   0  0  0  0  0  0  0  0  0  0  0  0
  -18.8210  -30.0370   23.7970 C   0  0  0  0  0  3  0  0  0  0  0  0
  -17.5010  -30.5040   23.9360 C   0  0  0  0  0  3  0  0  0  0  0  0
  -16.4260  -29.7130   23.4900 C   0  0  0  0  0  3  0  0  0  0  0  0
  -16.6760  -28.4630   22.8980 C   0  0  0  0  0  3  0  0  0  0  0  0
  -25.8160  -32.5200   23.8500 C   0  0  0  0  0  3  0  0  0  0  0  0
  -25.5220  -33.9170   24.1900 N   0  0  0  0  0  0  0  0  0  0  0  0
  -25.8750  -34.9710   23.4370 C   0  0  0  0  0  0  0  0  0  0  0  0
  -26.5500  -34.8660   22.4100 O   0  0  0  0  0  0  0  0  0  0  0  0
  -24.9210  -34.0800   24.9840 H   0  0  0  0  0  0  0  0  0  0  0  0
  -24.1690  -36.7830   23.0710 C   0  0  0  0  0  1  0  0  0  0  0  0
  -25.3930  -36.3590   23.8990 C   0  0  0  0  0  3  0  0  0  0  0  0
  -27.5210  -37.2120   24.7690 C   0  0  0  0  0  1  0  0  0  0  0  0
  -26.4360  -37.4020   23.8120 N   0  0  0  0  0  0  0  0  0  0  0  0
  -26.0360  -38.3250   23.9610 H   0  0  0  0  0  0  0  0  0  0  0  0
  -26.3270  -31.7320   25.1170 C   0  0  1  0  0  0  0  0  0  0  0  0
  -25.2350  -31.4900   26.1840 C   0  0  0  0  0  1  0  0  0  0  0  0
  -26.9000  -30.3540   24.7090 C   0  0  0  0  0  1  0  0  0  0  0  0
  -27.4830  -32.5110   25.7870 C   0  0  0  0  0  1  0  0  0  0  0  0
  -29.3570  -20.8050   20.1500 C   0  0  0  0  0  2  0  0  0  0  0  0
  -30.1780  -19.4750   19.9820 C   0  0  0  0  0  2  0  0  0  0  0  0
  -29.7450  -18.3270   20.8500 N   0  0  0  0  0  4  0  0  0  0  0  0
  -28.7930  -18.0690   20.6340 H   0  0  0  0  0  0  0  0  0  0  0  0
  -29.7480  -18.6430   21.8080 H   0  0  0  0  0  0  0  0  0  0  0  0
  -30.6210  -17.1010   20.8370 C   0  0  0  0  0  3  0  0  0  0  0  0
  -29.9720  -15.9060   20.0560 C   0  0  0  0  0  2  0  0  0  0  0  0
  -30.7800  -14.5670   19.9700 C   0  0  0  0  0  0  0  0  0  0  0  0
  -30.5030  -12.2810   19.0980 C   0  0  0  0  0  2  0  0  0  0  0  0
  -29.5340  -12.3530   17.8980 C   0  0  0  0  0  2  0  0  0  0  0  0
  -28.0730  -12.2390   18.3700 C   0  0  0  0  0  2  0  0  0  0  0  0
  -27.7430  -13.1860   19.5540 C   0  0  0  0  0  3  0  0  0  0  0  0
  -28.8310  -13.1060   20.6470 C   0  0  0  0  0  2  0  0  0  0  0  0
  -30.1390  -13.3630   20.0270 N   0  0  0  0  0  0  0  0  0  0  0  0
  -31.9510  -14.6580   19.5910 O   0  0  0  0  0  0  0  0  0  0  0  0
  -25.3970  -13.8430   20.3810 C   0  0  0  0  0  0  0  0  0  0  0  0
  -24.3270  -13.0990   20.7920 C   0  0  0  0  0  0  0  0  0  0  0  0
  -24.7530  -11.7340   20.7290 C   0  0  0  0  0  0  0  0  0  0  0  0
  -26.4080  -12.9400   20.0960 N   0  0  0  0  0  0  0  0  0  0  0  0
  -26.0290  -11.6640   20.3720 N   0  0  0  0  0  0  0  0  0  0  0  0
  -24.0000  -10.4890   20.9320 C   0  0  0  0  0  0  0  0  0  0  0  0
  -24.4220   -9.5160   21.8650 C   0  0  0  0  0  3  0  0  0  0  0  0
  -23.6740   -8.3360   22.0570 C   0  0  0  0  0  3  0  0  0  0  0  0
  -22.4880   -8.1200   21.3150 C   0  0  0  0  0  0  0  0  0  0  0  0
  -22.0850   -9.0790   20.3700 C   0  0  0  0  0  3  0  0  0  0  0  0
  -22.8340  -10.2500   20.1780 C   0  0  0  0  0  3  0  0  0  0  0  0
  -21.7110   -6.9920   21.4160 O   0  0  0  0  0  0  0  0  0  0  0  0
  -21.6200   -6.2810   22.5860 C   0  0  0  0  0  0  0  0  0  0  0  0
  -21.1630   -6.8720   23.7840 C   0  0  0  0  0  3  0  0  0  0  0  0
  -21.0220   -6.0900   24.9480 C   0  0  0  0  0  3  0  0  0  0  0  0
  -21.3300   -4.7160   24.9120 C   0  0  0  0  0  0  0  0  0  0  0  0
  -21.7810   -4.1250   23.7180 C   0  0  0  0  0  3  0  0  0  0  0  0
  -21.9240   -4.9070   22.5580 C   0  0  0  0  0  0  0  0  0  0  0  0
  -22.3380   -4.3290   21.4060 F   0  0  0  0  0  0  0  0  0  0  0  0
  -21.1870   -3.9600   26.0250 F   0  0  0  0  0  0  0  0  0  0  0  0
  -22.9540  -13.6080   21.1200 C   0  0  0  0  0  0  0  0  0  0  0  0
  -22.2440  -12.9290   22.0150 N   0  0  0  0  0  0  0  0  0  0  0  0
  -22.5170  -14.6410   20.6190 O   0  0  0  0  0  0  0  0  0  0  0  0
  -22.6170  -12.0960   22.4460 H   0  0  0  0  0  0  0  0  0  0  0  0
  -21.3220  -13.2500   22.2750 H   0  0  0  0  0  0  0  0  0  0  0  0
  -25.5850  -15.2130   20.2080 N   0  0  0  0  0  0  0  0  0  0  0  0
  -24.8210  -15.8680   20.3280 H   0  0  0  0  0  0  0  0  0  0  0  0
  -26.4080  -15.6250   19.7870 H   0  0  0  0  0  0  0  0  0  0  0  0
  -30.9960  -16.6380   22.2710 C   0  0  0  0  0  2  0  0  0  0  0  0
  -31.1860  -18.9840   23.3600 C   0  0  0  0  0  1  0  0  0  0  0  0
  -30.6270  -17.5600   23.4540 C   0  0  0  0  0  2  0  0  0  0  0  0
  -30.8560  -22.3110   18.6050 C   0  0  0  0  0  2  0  0  0  0  0  0
  -31.5730  -21.3490   17.7860 N   0  0  0  0  0  0  0  0  0  0  0  0
  -32.4350  -21.7810   17.4650 H   0  0  0  0  0  0  0  0  0  0  0  0
  -31.0480  -21.1960   16.9300 H   0  0  0  0  0  0  0  0  0  0  0  0
  2  1  1  6
  2  3  1  0
  2 49  1  0
  3  5  1  0
  3  6  1  0
  4  3  1  0
  7  6  1  0
  7  8  1  0
  9 20  2  0
 10  8  1  0
 10 15  1  0
 11 19  1  0
 11 21  1  0
 12 18  1  0
 12 14  1  0
 13 19  1  0
 14 13  1  0
 15 14  2  0
 16 17  1  0
 16 10  2  0
 17 12  2  0
 18 11  1  0
 19  9  1  0
 21 23  2  0
 22 21  1  0
 24 22  1  0
 25 34  2  0
 25 30  1  0
 26 22  1  0
 26 30  1  0
 27 26  1  0
 28 29  1  0
 28 27  1  0
 29 25  1  0
 30 31  2  0
 31 32  1  0
 33 32  2  0
 34 33  1  0
 35  9  1  0
 35 36  1  0
 35 45  1  0
 36 39  1  0
 37 41  1  0
 37 36  1  0
 38 37  2  0
 41 40  1  0
 43 41  1  0
 43 44  1  0
 43 42  1  0
 45 48  1  1
 45 46  1  0
 47 45  1  0
 50 49  1  0
 50 51  1  0
 51 53  1  0
 52 51  1  0
 54 55  1  0
 54 51  1  0
 54 92  1  0
 56 62  1  0
 56 55  1  0
 57 62  1  0
 58 59  1  0
 58 57  1  0
 60 59  1  0
 60 67  1  0
 60 61  1  0
 62 61  1  0
 63 56  2  0
 64 65  2  0
 65 84  1  0
 66 65  1  0
 66 69  1  0
 67 68  1  0
 67 64  1  0
 68 66  2  0
 69 70  1  0
 70 71  2  0
 72 75  1  0
 72 71  1  0
 73 72  2  0
 74 73  1  0
 74 69  2  0
 75 76  1  0
 76 77  1  0
 77 78  2  0
 79 78  1  0
 79 83  1  0
 80 79  2  0
 81 76  2  0
 81 80  1  0
 82 81  1  0
 84 85  1  0
 85 88  1  0
 85 87  1  0
 86 84  2  0
 89 90  1  0
 89 64  1  0
 91 89  1  0
 92 94  1  0
 93 94  1  0
 95  2  1  0
 96 95  1  0
 97 96  1  0
 98 96  1  0
M  ISO  4   7 101   8 101  55 100  56 100
M  END
>  <TORSDO>  (89) 
F 28

>  <SCORE>  (89) 
-10.877

>  <name>  (89) 
88

>  <ligand_id>  (89) 
88

>  <original_smiles>  (89) 
[H]c1c([H])c([H])c2c(c1[H])C([H])([H])C([H])([H])C([H])([H])C2([H])N([H])C(=O)C1([H])N(C(=O)C([H])(N([H])C(=O)C([H])(N([H])C([H])([H])[H])C([H])([H])[H])C(C([H])([H])[H])(C([H])([H])[H])C([H])([H])[H])C([H])([H])c2c([H])c(OC([H])([H])C([H])([H])[N+]([H])([H])C(C([H])([H])[H])(C([H])([H])N([H])[H])C([H])([H])C([H])([H])[N+]([H])([H])C([H])(C([H])([H])C(=O)N3C([H])([H])C([H])([H])C([H])([H])C([H])(n4nc(-c5c([H])c([H])c(Oc6c([H])c([H])c(F)c([H])c6F)c([H])c5[H])c(C(=O)N([H])[H])c4N([H])[H])C3([H])[H])C([H])([H])C([H])([H])C([H])([H])[H])c([H])c([H])c2C1([H])[H]

>  <smiles>  (89) 
[H]c1c([H])c([H])c2c(c1[H])C([H])([H])C([H])([H])C([H])([H])C2([H])N([H])C(=O)C1([H])N(C(=O)C([H])(N([H])C(=O)C([H])(N([H])C([H])([H])[H])C([H])([H])[H])C(C([H])([H])[H])(C([H])([H])[H])C([H])([H])[H])C([H])([H])c2c([H])c(OC([H])([H])C([H])([H])[N+]([H])([H])C(C([H])([H])[H])(C([H])([H])N([H])[H])C([H])([H])C([H])([H])[N+]([H])([H])C([H])(C([H])([H])C(=O)N3C([H])([H])C([H])([H])C([H])([H])C([H])(n4nc(-c5c([H])c([H])c(Oc6c([H])c([H])c(F)c([H])c6F)c([H])c5[H])c(C(=O)N([H])[H])c4N([H])[H])C3([H])[H])C([H])([H])C([H])([H])C([H])([H])[H])c([H])c([H])c2C1([H])[H]

$$$$
89:0:0
     RDKit          3D

 96104  0  0  1  0  0  0  0  0999 V2000
  -32.5030  -22.7190   19.2420 C   0  0  0  0  0  3  0  0  0  0  0  0
  -32.5730  -21.5230   19.9810 C   0  0  0  0  0  3  0  0  0  0  0  0
  -31.7340  -23.7920   19.7250 C   0  0  0  0  0  3  0  0  0  0  0  0
  -31.1430  -22.4910   21.7040 C   0  0  0  0  0  3  0  0  0  0  0  0
  -31.8750  -21.4020   21.2000 C   0  0  0  0  0  0  0  0  0  0  0  0
  -31.0710  -23.6890   20.9700 C   0  0  0  0  0  0  0  0  0  0  0  0
  -31.8400  -20.0760   21.9250 C   0  0  0  0  0  2  0  0  0  0  0  0
  -30.9160  -19.1080   21.1760 C   0  0  0  0  0  2  0  0  0  0  0  0
  -30.9310  -17.7450   21.7340 N   0  0  0  0  0  4  0  0  0  0  0  0
  -30.5560  -17.7730   22.6700 H   0  0  0  0  0  0  0  0  0  0  0  0
  -31.8840  -17.4250   21.7810 H   0  0  0  0  0  0  0  0  0  0  0  0
  -30.1370  -16.8100   20.9090 C   0  0  0  0  0  2  0  0  0  0  0  0
  -30.1270  -15.3700   21.4580 C   0  0  0  0  0  2  0  0  0  0  0  0
  -30.6800  -14.3350   20.4520 C   0  0  0  0  0  0  0  0  0  0  0  0
  -30.3390  -12.2880   19.1040 C   0  0  0  0  0  2  0  0  0  0  0  0
  -29.3600  -12.5690   17.9470 C   0  0  0  0  0  2  0  0  0  0  0  0
  -27.8910  -12.4440   18.4050 C   0  0  0  0  0  2  0  0  0  0  0  0
  -27.6080  -13.2080   19.7270 C   0  0  0  0  0  3  0  0  0  0  0  0
  -28.6790  -12.8370   20.7750 C   0  0  0  0  0  2  0  0  0  0  0  0
  -29.9940  -13.1860   20.2140 N   0  0  0  0  0  0  0  0  0  0  0  0
  -31.7310  -14.6080   19.8570 O   0  0  0  0  0  0  0  0  0  0  0  0
  -25.2170  -13.8380   20.4600 C   0  0  0  0  0  0  0  0  0  0  0  0
  -24.1500  -13.0710   20.8480 C   0  0  0  0  0  0  0  0  0  0  0  0
  -24.6050  -11.7180   20.8140 C   0  0  0  0  0  0  0  0  0  0  0  0
  -26.2560  -12.9500   20.2190 N   0  0  0  0  0  0  0  0  0  0  0  0
  -25.8890  -11.6700   20.4820 N   0  0  0  0  0  0  0  0  0  0  0  0
  -23.8790  -10.4590   21.0190 C   0  0  0  0  0  0  0  0  0  0  0  0
  -24.3350   -9.4870   21.9360 C   0  0  0  0  0  3  0  0  0  0  0  0
  -23.6100   -8.2910   22.1310 C   0  0  0  0  0  3  0  0  0  0  0  0
  -22.4170   -8.0580   21.4060 C   0  0  0  0  0  0  0  0  0  0  0  0
  -21.9810   -9.0180   20.4760 C   0  0  0  0  0  3  0  0  0  0  0  0
  -22.7050  -10.2050   20.2800 C   0  0  0  0  0  3  0  0  0  0  0  0
  -21.6620   -6.9150   21.5090 O   0  0  0  0  0  0  0  0  0  0  0  0
  -21.6530   -6.1600   22.6540 C   0  0  0  0  0  0  0  0  0  0  0  0
  -21.2880   -6.7050   23.9040 C   0  0  0  0  0  3  0  0  0  0  0  0
  -21.2220   -5.8760   25.0420 C   0  0  0  0  0  3  0  0  0  0  0  0
  -21.5140   -4.5040   24.9310 C   0  0  0  0  0  0  0  0  0  0  0  0
  -21.8720   -3.9570   23.6860 C   0  0  0  0  0  3  0  0  0  0  0  0
  -21.9380   -4.7830   22.5500 C   0  0  0  0  0  0  0  0  0  0  0  0
  -22.2630   -4.2470   21.3490 F   0  0  0  0  0  0  0  0  0  0  0  0
  -21.4430   -3.7070   26.0230 F   0  0  0  0  0  0  0  0  0  0  0  0
  -22.7580  -13.5550   21.1420 C   0  0  0  0  0  0  0  0  0  0  0  0
  -22.0420  -12.8650   22.0260 N   0  0  0  0  0  0  0  0  0  0  0  0
  -22.3120  -14.5770   20.6260 O   0  0  0  0  0  0  0  0  0  0  0  0
  -22.4110  -12.0380   22.4720 H   0  0  0  0  0  0  0  0  0  0  0  0
  -21.1100  -13.1690   22.2620 H   0  0  0  0  0  0  0  0  0  0  0  0
  -25.3810  -15.2060   20.2750 N   0  0  0  0  0  0  0  0  0  0  0  0
  -24.6170  -15.8630   20.3890 H   0  0  0  0  0  0  0  0  0  0  0  0
  -26.2240  -15.6400   19.9200 H   0  0  0  0  0  0  0  0  0  0  0  0
  -30.2270  -24.8330   21.4880 C   0  0  0  0  0  2  0  0  0  0  0  0
  -31.0190  -26.0790   21.5300 N   0  0  0  0  0  4  0  0  0  0  0  0
  -31.7180  -26.0090   20.8090 H   0  0  0  0  0  0  0  0  0  0  0  0
  -31.5070  -26.1060   22.4100 H   0  0  0  0  0  0  0  0  0  0  0  0
  -30.2680  -27.3420   21.3480 C   0  0  0  0  0  2  0  0  0  0  0  0
  -29.6070  -27.4300   19.9620 C   0  0  0  0  0  2  0  0  0  0  0  0
  -28.3610  -26.7440   20.0030 O   0  0  0  0  0  0  0  0  0  0  0  0
  -24.5660  -31.8950   23.2420 C   0  0  0  0  0  0  0  0  0  0  0  0
  -27.2140  -27.4820   20.1480 C   0  0  0  0  0  0  0  0  0  0  0  0
  -23.3560  -30.4890   21.6040 C   0  0  0  0  0  3  0  0  0  0  0  0
  -24.8050  -28.9360   20.1990 C   0  0  0  0  0  0  0  0  0  0  0  0
  -25.8780  -30.8490   21.4070 C   0  0  0  0  0  2  0  0  0  0  0  0
  -25.9580  -29.4760   20.7810 C   0  0  0  0  0  0  0  0  0  0  0  0
  -27.1650  -28.7550   20.7610 C   0  0  0  0  0  3  0  0  0  0  0  0
  -26.0360  -26.9280   19.6130 C   0  0  0  0  0  3  0  0  0  0  0  0
  -24.8310  -27.6530   19.6260 C   0  0  0  0  0  3  0  0  0  0  0  0
  -23.5640  -29.7960   20.2330 C   0  0  0  0  0  2  0  0  0  0  0  0
  -24.6190  -31.0920   22.1420 N   0  0  0  0  0  0  0  0  0  0  0  0
  -23.4860  -32.1750   23.7790 O   0  0  0  0  0  0  0  0  0  0  0  0
  -22.7010  -29.4750   22.5680 C   0  0  0  0  0  0  0  0  0  0  0  0
  -21.3750  -29.3060   22.4440 N   0  0  0  0  0  0  0  0  0  0  0  0
  -23.3820  -28.8440   23.3810 O   0  0  0  0  0  0  0  0  0  0  0  0
  -20.8860  -29.8670   21.7600 H   0  0  0  0  0  0  0  0  0  0  0  0
  -17.9910  -28.1540   22.9440 C   0  0  0  0  0  0  0  0  0  0  0  0
  -20.5520  -28.3780   23.2140 C   0  0  0  0  0  3  0  0  0  0  0  0
  -20.6350  -26.9450   22.6370 C   0  0  0  0  0  2  0  0  0  0  0  0
  -19.5280  -26.6370   21.6240 C   0  0  0  0  0  2  0  0  0  0  0  0
  -18.1490  -26.8010   22.2700 C   0  0  0  0  0  2  0  0  0  0  0  0
  -19.1190  -28.9010   23.3730 C   0  0  0  0  0  0  0  0  0  0  0  0
  -18.9180  -30.1680   23.9610 C   0  0  0  0  0  3  0  0  0  0  0  0
  -17.6190  -30.6880   24.1250 C   0  0  0  0  0  3  0  0  0  0  0  0
  -16.5050  -29.9380   23.7100 C   0  0  0  0  0  3  0  0  0  0  0  0
  -16.6920  -28.6730   23.1260 C   0  0  0  0  0  3  0  0  0  0  0  0
  -25.8550  -32.5210   23.8620 C   0  0  0  0  0  3  0  0  0  0  0  0
  -26.3750  -31.7430   25.1340 C   0  0  1  0  0  0  0  0  0  0  0  0
  -25.2840  -31.5080   26.2030 C   0  0  0  0  0  1  0  0  0  0  0  0
  -26.9480  -30.3640   24.7340 C   0  0  0  0  0  1  0  0  0  0  0  0
  -27.5320  -32.5290   25.7930 C   0  0  0  0  0  1  0  0  0  0  0  0
  -25.5520  -33.9210   24.1870 N   0  0  0  0  0  0  0  0  0  0  0  0
  -25.9010  -34.9710   23.4310 C   0  0  0  0  0  0  0  0  0  0  0  0
  -26.5820  -34.8610   22.4050 O   0  0  0  0  0  0  0  0  0  0  0  0
  -24.9370  -34.0780   24.9750 H   0  0  0  0  0  0  0  0  0  0  0  0
  -24.1840  -36.7700   23.0590 C   0  0  0  0  0  1  0  0  0  0  0  0
  -25.4190  -36.3620   23.8830 C   0  0  0  0  0  3  0  0  0  0  0  0
  -27.5550  -37.2300   24.7230 C   0  0  0  0  0  1  0  0  0  0  0  0
  -26.4590  -37.4060   23.7740 N   0  0  0  0  0  0  0  0  0  0  0  0
  -26.0610  -38.3280   23.9200 H   0  0  0  0  0  0  0  0  0  0  0  0
  1  3  2  0
  1  2  1  0
  2  5  2  0
  3  6  1  0
  5  4  1  0
  5  7  1  0
  6 50  1  0
  6  4  2  0
  8  9  1  0
  8  7  1  0
  9 11  1  0
  9 10  1  0
 12 13  1  0
 12  9  1  0
 14 13  1  0
 15 20  1  0
 16 17  1  0
 16 15  1  0
 18 17  1  0
 18 25  1  0
 18 19  1  0
 20 14  1  0
 20 19  1  0
 21 14  2  0
 22 23  2  0
 23 42  1  0
 24 23  1  0
 24 27  1  0
 25 22  1  0
 25 26  1  0
 26 24  2  0
 27 28  1  0
 28 29  2  0
 30 33  1  0
 30 29  1  0
 31 30  2  0
 32 31  1  0
 32 27  2  0
 33 34  1  0
 34 35  1  0
 35 36  2  0
 37 36  1  0
 37 41  1  0
 38 37  2  0
 39 34  2  0
 39 38  1  0
 40 39  1  0
 42 43  1  0
 43 46  1  0
 43 45  1  0
 44 42  2  0
 47 48  1  0
 47 22  1  0
 49 47  1  0
 50 51  1  0
 51 53  1  0
 52 51  1  0
 54 51  1  0
 55 56  1  0
 55 54  1  0
 56 58  1  0
 57 68  2  0
 58 63  1  0
 59 67  1  0
 59 69  1  0
 60 66  1  0
 60 62  1  0
 61 67  1  0
 62 61  1  0
 63 62  2  0
 64 65  1  0
 64 58  2  0
 65 60  2  0
 66 59  1  0
 67 57  1  0
 69 71  2  0
 70 69  1  0
 72 70  1  0
 73 82  2  0
 73 78  1  0
 74 70  1  0
 74 78  1  0
 75 74  1  0
 76 77  1  0
 76 75  1  0
 77 73  1  0
 78 79  2  0
 79 80  1  0
 81 80  2  0
 82 81  1  0
 83 57  1  0
 83 88  1  0
 83 84  1  0
 84 87  1  1
 84 85  1  0
 86 84  1  0
 88 91  1  0
 89 93  1  0
 89 88  1  0
 90 89  2  0
 93 92  1  0
 95 93  1  0
 95 96  1  0
 95 94  1  0
M  ISO  4  13 100  14 100  55 101  56 101
M  END
>  <TORSDO>  (90) 
F 25

>  <SCORE>  (90) 
-12.407

>  <name>  (90) 
89

>  <ligand_id>  (90) 
89

>  <original_smiles>  (90) 
[H]c1c([H])c([H])c2c(c1[H])C([H])([H])C([H])([H])C([H])([H])C2([H])N([H])C(=O)C1([H])N(C(=O)C([H])(N([H])C(=O)C([H])(N([H])C([H])([H])[H])C([H])([H])[H])C(C([H])([H])[H])(C([H])([H])[H])C([H])([H])[H])C([H])([H])c2c([H])c(OC([H])([H])C([H])([H])[N+]([H])([H])C([H])([H])c3c([H])c([H])c([H])c(C([H])([H])C([H])([H])[N+]([H])([H])C([H])([H])C([H])([H])C(=O)N4C([H])([H])C([H])([H])C([H])([H])C([H])(n5nc(-c6c([H])c([H])c(Oc7c([H])c([H])c(F)c([H])c7F)c([H])c6[H])c(C(=O)N([H])[H])c5N([H])[H])C4([H])[H])c3[H])c([H])c([H])c2C1([H])[H]

>  <smiles>  (90) 
[H]c1c([H])c([H])c2c(c1[H])C([H])([H])C([H])([H])C([H])([H])C2([H])N([H])C(=O)C1([H])N(C(=O)C([H])(N([H])C(=O)C([H])(N([H])C([H])([H])[H])C([H])([H])[H])C(C([H])([H])[H])(C([H])([H])[H])C([H])([H])[H])C([H])([H])c2c([H])c(OC([H])([H])C([H])([H])[N+]([H])([H])C([H])([H])c3c([H])c([H])c([H])c(C([H])([H])C([H])([H])[N+]([H])([H])C([H])([H])C([H])([H])C(=O)N4C([H])([H])C([H])([H])C([H])([H])C([H])(n5nc(-c6c([H])c([H])c(Oc7c([H])c([H])c(F)c([H])c7F)c([H])c6[H])c(C(=O)N([H])[H])c5N([H])[H])C4([H])[H])c3[H])c([H])c([H])c2C1([H])[H]

$$$$
90:0:0
     RDKit          3D

 93100  0  0  1  0  0  0  0  0999 V2000
  -29.3130  -22.0470   20.1860 C   0  0  0  0  0  3  0  0  0  0  0  0
  -28.9300  -20.5880   20.6550 N   0  0  0  0  0  4  0  0  0  0  0  0
  -29.1500  -20.5310   21.6340 H   0  0  0  0  0  0  0  0  0  0  0  0
  -27.9250  -20.5470   20.6030 H   0  0  0  0  0  0  0  0  0  0  0  0
  -29.4240  -19.2540   19.9650 C   0  0  0  0  0  2  0  0  0  0  0  0
  -29.8490  -17.8450   20.7820 C   0  0  0  0  0  2  0  0  0  0  0  0
  -29.5170  -16.2790   20.2770 C   0  0  0  0  0  2  0  0  0  0  0  0
  -30.4550  -14.9150   20.3320 C   0  0  0  0  0  0  0  0  0  0  0  0
  -30.3950  -12.5760   19.3860 C   0  0  0  0  0  2  0  0  0  0  0  0
  -29.4620  -12.5720   18.1500 C   0  0  0  0  0  2  0  0  0  0  0  0
  -27.9890  -12.3700   18.5650 C   0  0  0  0  0  2  0  0  0  0  0  0
  -27.5830  -13.2650   19.7660 C   0  0  0  0  0  3  0  0  0  0  0  0
  -28.6340  -13.2210   20.8920 C   0  0  0  0  0  2  0  0  0  0  0  0
  -29.9190  -13.6320   20.3160 N   0  0  0  0  0  0  0  0  0  0  0  0
  -31.6660  -15.0230   20.1120 O   0  0  0  0  0  0  0  0  0  0  0  0
  -25.1910  -13.8320   20.4860 C   0  0  0  0  0  0  0  0  0  0  0  0
  -24.1290  -13.0520   20.8500 C   0  0  0  0  0  0  0  0  0  0  0  0
  -24.6040  -11.7040   20.8280 C   0  0  0  0  0  0  0  0  0  0  0  0
  -26.2420  -12.9610   20.2530 N   0  0  0  0  0  0  0  0  0  0  0  0
  -25.8960  -11.6760   20.5250 N   0  0  0  0  0  0  0  0  0  0  0  0
  -23.8850  -10.4370   21.0170 C   0  0  0  0  0  0  0  0  0  0  0  0
  -24.3090   -9.4810   21.9650 C   0  0  0  0  0  3  0  0  0  0  0  0
  -23.5890   -8.2810   22.1410 C   0  0  0  0  0  3  0  0  0  0  0  0
  -22.4300   -8.0270   21.3690 C   0  0  0  0  0  0  0  0  0  0  0  0
  -22.0260   -8.9720   20.4110 C   0  0  0  0  0  3  0  0  0  0  0  0
  -22.7460  -10.1650   20.2320 C   0  0  0  0  0  3  0  0  0  0  0  0
  -21.6830   -6.8770   21.4540 O   0  0  0  0  0  0  0  0  0  0  0  0
  -21.6170   -6.1440   22.6120 C   0  0  0  0  0  0  0  0  0  0  0  0
  -21.1500   -6.7040   23.8220 C   0  0  0  0  0  3  0  0  0  0  0  0
  -21.0320   -5.8980   24.9710 C   0  0  0  0  0  3  0  0  0  0  0  0
  -21.3730   -4.5320   24.9130 C   0  0  0  0  0  0  0  0  0  0  0  0
  -21.8310   -3.9720   23.7070 C   0  0  0  0  0  3  0  0  0  0  0  0
  -21.9520   -4.7760   22.5610 C   0  0  0  0  0  0  0  0  0  0  0  0
  -22.3740   -4.2270   21.3960 F   0  0  0  0  0  0  0  0  0  0  0  0
  -21.2530   -3.7560   26.0140 F   0  0  0  0  0  0  0  0  0  0  0  0
  -22.7260  -13.5200   21.1070 C   0  0  0  0  0  0  0  0  0  0  0  0
  -21.9950  -12.8200   21.9670 N   0  0  0  0  0  0  0  0  0  0  0  0
  -22.2880  -14.5430   20.5810 O   0  0  0  0  0  0  0  0  0  0  0  0
  -22.3620  -11.9940   22.4160 H   0  0  0  0  0  0  0  0  0  0  0  0
  -21.0510  -13.1150   22.1800 H   0  0  0  0  0  0  0  0  0  0  0  0
  -25.3450  -15.2040   20.3060 N   0  0  0  0  0  0  0  0  0  0  0  0
  -24.5720  -15.8500   20.4170 H   0  0  0  0  0  0  0  0  0  0  0  0
  -26.1870  -15.6530   19.9730 H   0  0  0  0  0  0  0  0  0  0  0  0
  -30.6560  -22.4630   20.8390 C   0  0  0  0  0  2  0  0  0  0  0  0
  -31.8570  -22.3840   19.8830 C   0  0  0  0  0  2  0  0  0  0  0  0
  -33.0190  -22.8640   20.5350 O   0  0  0  0  0  0  0  0  0  0  0  0
  -33.7340  -22.8490   19.9030 H   0  0  0  0  0  0  0  0  0  0  0  0
  -28.1860  -23.3120   20.1710 C   0  0  0  0  0  3  0  0  0  0  0  0
  -27.7150  -23.4910   18.8050 N   0  0  0  0  0  0  0  0  0  0  0  0
  -26.8750  -24.0600   18.8240 H   0  0  0  0  0  0  0  0  0  0  0  0
  -28.3810  -24.0800   18.3140 H   0  0  0  0  0  0  0  0  0  0  0  0
  -28.2430  -24.8590   20.8400 C   0  0  0  0  0  2  0  0  0  0  0  0
  -28.3310  -26.2550   20.1930 O   0  0  0  0  0  0  0  0  0  0  0  0
  -24.6240  -31.8610   23.2250 C   0  0  0  0  0  0  0  0  0  0  0  0
  -27.2440  -27.1870   20.2170 C   0  0  0  0  0  0  0  0  0  0  0  0
  -23.4370  -30.4580   21.5790 C   0  0  0  0  0  3  0  0  0  0  0  0
  -24.9010  -28.8860   20.1710 C   0  0  0  0  0  0  0  0  0  0  0  0
  -25.9880  -30.7440   21.4250 C   0  0  0  0  0  2  0  0  0  0  0  0
  -26.0740  -29.3520   20.7820 C   0  0  0  0  0  0  0  0  0  0  0  0
  -27.2500  -28.5180   20.7840 C   0  0  0  0  0  3  0  0  0  0  0  0
  -26.0460  -26.8030   19.5820 C   0  0  0  0  0  3  0  0  0  0  0  0
  -24.8980  -27.6230   19.5570 C   0  0  0  0  0  3  0  0  0  0  0  0
  -23.6690  -29.7760   20.2040 C   0  0  0  0  0  2  0  0  0  0  0  0
  -24.7020  -31.0420   22.1330 N   0  0  0  0  0  0  0  0  0  0  0  0
  -23.5350  -32.1410   23.7480 O   0  0  0  0  0  0  0  0  0  0  0  0
  -22.7600  -29.4480   22.5390 C   0  0  0  0  0  0  0  0  0  0  0  0
  -21.4360  -29.2670   22.4010 N   0  0  0  0  0  0  0  0  0  0  0  0
  -23.4300  -28.8300   23.3700 O   0  0  0  0  0  0  0  0  0  0  0  0
  -20.9530  -29.8170   21.7040 H   0  0  0  0  0  0  0  0  0  0  0  0
  -18.0580  -28.0500   22.8740 C   0  0  0  0  0  0  0  0  0  0  0  0
  -20.6130  -28.3280   23.1670 C   0  0  0  0  0  3  0  0  0  0  0  0
  -20.7290  -26.8940   22.6000 C   0  0  0  0  0  2  0  0  0  0  0  0
  -19.6390  -26.5610   21.5750 C   0  0  0  0  0  2  0  0  0  0  0  0
  -18.2500  -26.6990   22.2040 C   0  0  0  0  0  2  0  0  0  0  0  0
  -19.1670  -28.8210   23.3110 C   0  0  0  0  0  0  0  0  0  0  0  0
  -18.9350  -30.0840   23.8990 C   0  0  0  0  0  3  0  0  0  0  0  0
  -17.6250  -30.5760   24.0520 C   0  0  0  0  0  3  0  0  0  0  0  0
  -16.5300  -29.8020   23.6300 C   0  0  0  0  0  3  0  0  0  0  0  0
  -16.7480  -28.5410   23.0470 C   0  0  0  0  0  3  0  0  0  0  0  0
  -25.8980  -32.5010   23.8590 C   0  0  0  0  0  3  0  0  0  0  0  0
  -26.3990  -31.7360   25.1460 C   0  0  1  0  0  0  0  0  0  0  0  0
  -25.2950  -31.5050   26.2040 C   0  0  0  0  0  1  0  0  0  0  0  0
  -26.9850  -30.3560   24.7700 C   0  0  0  0  0  1  0  0  0  0  0  0
  -27.5450  -32.5350   25.8140 C   0  0  0  0  0  1  0  0  0  0  0  0
  -25.5820  -33.9010   24.1840 N   0  0  0  0  0  0  0  0  0  0  0  0
  -25.9200  -34.9530   23.4280 C   0  0  0  0  0  0  0  0  0  0  0  0
  -26.5950  -34.8490   22.4000 O   0  0  0  0  0  0  0  0  0  0  0  0
  -24.9860  -34.0560   24.9830 H   0  0  0  0  0  0  0  0  0  0  0  0
  -24.1940  -36.7470   23.0630 C   0  0  0  0  0  1  0  0  0  0  0  0
  -25.4310  -36.3430   23.8810 C   0  0  0  0  0  3  0  0  0  0  0  0
  -27.5580  -37.2290   24.7280 C   0  0  0  0  0  1  0  0  0  0  0  0
  -26.4650  -37.3960   23.7740 N   0  0  0  0  0  0  0  0  0  0  0  0
  -26.0580  -38.3170   23.9180 H   0  0  0  0  0  0  0  0  0  0  0  0
  1  2  1  0
  1 44  1  0
  2  3  1  0
  4  2  1  0
  5  2  1  0
  5  6  1  0
  7  8  1  0
  7  6  1  0
  9 14  1  0
 10 11  1  0
 10  9  1  0
 12 11  1  0
 12 19  1  0
 12 13  1  0
 14  8  1  0
 14 13  1  0
 15  8  2  0
 16 17  2  0
 17 36  1  0
 18 17  1  0
 18 21  1  0
 19 16  1  0
 19 20  1  0
 20 18  2  0
 21 22  1  0
 22 23  2  0
 24 27  1  0
 24 23  1  0
 25 24  2  0
 26 25  1  0
 26 21  2  0
 27 28  1  0
 28 29  1  0
 29 30  2  0
 31 30  1  0
 31 35  1  0
 32 31  2  0
 33 28  2  0
 33 32  1  0
 34 33  1  0
 36 37  1  0
 37 40  1  0
 37 39  1  0
 38 36  2  0
 41 42  1  0
 41 16  1  0
 43 41  1  0
 45 46  1  0
 45 44  1  0
 47 46  1  0
 48  1  1  0
 48 52  1  0
 49 50  1  0
 49 48  1  0
 51 49  1  0
 53 55  1  0
 53 52  1  0
 54 65  2  0
 55 60  1  0
 56 64  1  0
 56 66  1  0
 57 63  1  0
 57 59  1  0
 58 64  1  0
 59 60  2  0
 59 58  1  0
 61 55  2  0
 62 61  1  0
 62 57  2  0
 63 56  1  0
 64 54  1  0
 66 68  2  0
 67 66  1  0
 69 67  1  0
 70 79  2  0
 70 75  1  0
 71 67  1  0
 71 75  1  0
 72 71  1  0
 73 74  1  0
 73 72  1  0
 74 70  1  0
 75 76  2  0
 76 77  1  0
 78 77  2  0
 79 78  1  0
 80 54  1  0
 80 85  1  0
 80 81  1  0
 81 84  1  1
 81 82  1  0
 83 81  1  0
 85 88  1  0
 86 90  1  0
 86 85  1  0
 87 86  2  0
 90 89  1  0
 92 90  1  0
 92 93  1  0
 92 91  1  0
M  ISO  4   7 100   8 100  52 101  53 101
M  END
>  <TORSDO>  (91) 
F 26

>  <SCORE>  (91) 
-12.465

>  <name>  (91) 
90

>  <ligand_id>  (91) 
90

>  <original_smiles>  (91) 
[H]OC([H])([H])C([H])([H])C([H])(C([H])(N([H])[H])C([H])([H])Oc1c([H])c([H])c2c(c1[H])C([H])([H])N(C(=O)C([H])(N([H])C(=O)C([H])(N([H])C([H])([H])[H])C([H])([H])[H])C(C([H])([H])[H])(C([H])([H])[H])C([H])([H])[H])C([H])(C(=O)N([H])C1([H])c3c([H])c([H])c([H])c([H])c3C([H])([H])C([H])([H])C1([H])[H])C2([H])[H])[N+]([H])([H])C([H])([H])C([H])([H])C([H])([H])C(=O)N1C([H])([H])C([H])([H])C([H])([H])C([H])(n2nc(-c3c([H])c([H])c(Oc4c([H])c([H])c(F)c([H])c4F)c([H])c3[H])c(C(=O)N([H])[H])c2N([H])[H])C1([H])[H]

>  <smiles>  (91) 
[H]OC([H])([H])C([H])([H])C([H])(C([H])(N([H])[H])C([H])([H])Oc1c([H])c([H])c2c(c1[H])C([H])([H])N(C(=O)C([H])(N([H])C(=O)C([H])(N([H])C([H])([H])[H])C([H])([H])[H])C(C([H])([H])[H])(C([H])([H])[H])C([H])([H])[H])C([H])(C(=O)N([H])C1([H])c3c([H])c([H])c([H])c([H])c3C([H])([H])C([H])([H])C1([H])[H])C2([H])[H])[N+]([H])([H])C([H])([H])C([H])([H])C([H])([H])C(=O)N1C([H])([H])C([H])([H])C([H])([H])C([H])(n2nc(-c3c([H])c([H])c(Oc4c([H])c([H])c(F)c([H])c4F)c([H])c3[H])c(C(=O)N([H])[H])c2N([H])[H])C1([H])[H]

$$$$
91:0:0
     RDKit          3D

 92100  0  0  1  0  0  0  0  0999 V2000
  -28.2410  -21.4820   20.6590 C   0  0  0  0  0  2  0  0  0  0  0  0
  -28.2370  -19.0870   19.6440 C   0  0  0  0  0  3  0  0  0  0  0  0
  -29.9220  -19.5030   21.2950 C   0  0  0  0  0  3  0  0  0  0  0  0
  -28.6680  -17.7350   19.5520 C   0  0  0  0  0  3  0  0  0  0  0  0
  -30.3740  -18.1410   21.1890 C   0  0  0  0  0  3  0  0  0  0  0  0
  -28.8550  -20.0280   20.5050 C   0  0  0  0  0  0  0  0  0  0  0  0
  -29.7770  -17.2170   20.2820 C   0  0  0  0  0  0  0  0  0  0  0  0
  -30.9040  -14.8910   20.6660 C   0  0  0  0  0  0  0  0  0  0  0  0
  -30.7600  -12.5700   19.7890 C   0  0  0  0  0  2  0  0  0  0  0  0
  -29.8860  -12.5150   18.5130 C   0  0  0  0  0  2  0  0  0  0  0  0
  -28.3880  -12.4300   18.8570 C   0  0  0  0  0  2  0  0  0  0  0  0
  -27.9470  -13.3890   19.9970 C   0  0  0  0  0  3  0  0  0  0  0  0
  -28.9390  -13.3720   21.1760 C   0  0  0  0  0  2  0  0  0  0  0  0
  -30.2620  -13.6790   20.6250 N   0  0  0  0  0  0  0  0  0  0  0  0
  -32.1350  -14.9250   20.7440 O   0  0  0  0  0  0  0  0  0  0  0  0
  -30.3100  -15.8890   19.8990 N   0  0  0  0  0  0  0  0  0  0  0  0
  -25.5280  -14.0000   20.6000 C   0  0  0  0  0  0  0  0  0  0  0  0
  -24.4370  -13.2320   20.8990 C   0  0  0  0  0  0  0  0  0  0  0  0
  -24.8930  -11.8780   20.8970 C   0  0  0  0  0  0  0  0  0  0  0  0
  -26.5790  -13.1140   20.4250 N   0  0  0  0  0  0  0  0  0  0  0  0
  -26.1990  -11.8340   20.6730 N   0  0  0  0  0  0  0  0  0  0  0  0
  -24.1500  -10.6180   21.0340 C   0  0  0  0  0  0  0  0  0  0  0  0
  -24.5190   -9.6420   21.9860 C   0  0  0  0  0  3  0  0  0  0  0  0
  -23.7770   -8.4480   22.1130 C   0  0  0  0  0  3  0  0  0  0  0  0
  -22.6510   -8.2220   21.2860 C   0  0  0  0  0  0  0  0  0  0  0  0
  -22.3030   -9.1850   20.3220 C   0  0  0  0  0  3  0  0  0  0  0  0
  -23.0470  -10.3700   20.1940 C   0  0  0  0  0  3  0  0  0  0  0  0
  -21.8860   -7.0820   21.3230 O   0  0  0  0  0  0  0  0  0  0  0  0
  -21.7400   -6.3480   22.4730 C   0  0  0  0  0  0  0  0  0  0  0  0
  -21.1770   -6.9010   23.6440 C   0  0  0  0  0  3  0  0  0  0  0  0
  -20.9830   -6.0930   24.7820 C   0  0  0  0  0  3  0  0  0  0  0  0
  -21.3400   -4.7310   24.7490 C   0  0  0  0  0  0  0  0  0  0  0  0
  -21.8940   -4.1770   23.5810 C   0  0  0  0  0  3  0  0  0  0  0  0
  -22.0910   -4.9830   22.4460 C   0  0  0  0  0  0  0  0  0  0  0  0
  -22.6060   -4.4380   21.3180 F   0  0  0  0  0  0  0  0  0  0  0  0
  -21.1460   -3.9530   25.8380 F   0  0  0  0  0  0  0  0  0  0  0  0
  -23.0260  -13.7150   21.0790 C   0  0  0  0  0  0  0  0  0  0  0  0
  -22.2450  -13.0360   21.9120 N   0  0  0  0  0  0  0  0  0  0  0  0
  -22.6240  -14.7330   20.5170 O   0  0  0  0  0  0  0  0  0  0  0  0
  -22.5830  -12.2170   22.3940 H   0  0  0  0  0  0  0  0  0  0  0  0
  -21.2940  -13.3410   22.0680 H   0  0  0  0  0  0  0  0  0  0  0  0
  -25.7120  -15.3690   20.4360 N   0  0  0  0  0  0  0  0  0  0  0  0
  -24.9470  -16.0300   20.5100 H   0  0  0  0  0  0  0  0  0  0  0  0
  -26.5950  -15.8050   20.1960 H   0  0  0  0  0  0  0  0  0  0  0  0
  -31.6830  -17.0150   18.0560 C   0  0  0  0  0  1  0  0  0  0  0  0
  -30.7580  -15.8500   18.4780 C   0  0  0  0  0  2  0  0  0  0  0  0
  -28.9740  -22.7020   20.1320 N   0  0  0  0  0  4  0  0  0  0  0  0
  -29.3990  -22.3980   19.2710 H   0  0  0  0  0  0  0  0  0  0  0  0
  -29.7350  -22.9180   20.7560 H   0  0  0  0  0  0  0  0  0  0  0  0
  -28.1960  -23.9780   19.7770 C   0  0  0  0  0  2  0  0  0  0  0  0
  -28.3430  -25.2710   20.7020 C   0  0  0  0  0  2  0  0  0  0  0  0
  -28.3590  -26.6300   20.1080 O   0  0  0  0  0  0  0  0  0  0  0  0
  -24.5580  -31.9110   23.2360 C   0  0  0  0  0  0  0  0  0  0  0  0
  -27.2120  -27.4250   20.1390 C   0  0  0  0  0  0  0  0  0  0  0  0
  -23.3640  -30.5200   21.5790 C   0  0  0  0  0  3  0  0  0  0  0  0
  -24.8290  -28.9930   20.1410 C   0  0  0  0  0  0  0  0  0  0  0  0
  -25.8960  -30.8720   21.3910 C   0  0  0  0  0  2  0  0  0  0  0  0
  -25.9900  -29.4990   20.7370 C   0  0  0  0  0  0  0  0  0  0  0  0
  -27.1880  -28.7280   20.7220 C   0  0  0  0  0  3  0  0  0  0  0  0
  -26.0320  -26.9600   19.5250 C   0  0  0  0  0  3  0  0  0  0  0  0
  -24.8500  -27.7290   19.5240 C   0  0  0  0  0  3  0  0  0  0  0  0
  -23.5830  -29.8540   20.1940 C   0  0  0  0  0  2  0  0  0  0  0  0
  -24.6250  -31.1180   22.1260 N   0  0  0  0  0  0  0  0  0  0  0  0
  -23.4730  -32.1690   23.7780 O   0  0  0  0  0  0  0  0  0  0  0  0
  -22.7150  -29.4870   22.5310 C   0  0  0  0  0  0  0  0  0  0  0  0
  -21.3890  -29.3020   22.4070 N   0  0  0  0  0  0  0  0  0  0  0  0
  -23.4010  -28.8560   23.3370 O   0  0  0  0  0  0  0  0  0  0  0  0
  -20.8930  -29.8640   21.7300 H   0  0  0  0  0  0  0  0  0  0  0  0
  -18.0210  -28.0870   22.9160 C   0  0  0  0  0  0  0  0  0  0  0  0
  -20.5810  -28.3480   23.1680 C   0  0  0  0  0  3  0  0  0  0  0  0
  -20.6820  -26.9280   22.5660 C   0  0  0  0  0  2  0  0  0  0  0  0
  -19.5710  -26.6200   21.5550 C   0  0  0  0  0  2  0  0  0  0  0  0
  -18.1950  -26.7510   22.2140 C   0  0  0  0  0  2  0  0  0  0  0  0
  -19.1410  -28.8450   23.3500 C   0  0  0  0  0  0  0  0  0  0  0  0
  -18.9250  -30.0970   23.9660 C   0  0  0  0  0  3  0  0  0  0  0  0
  -17.6190  -30.5920   24.1510 C   0  0  0  0  0  3  0  0  0  0  0  0
  -16.5130  -29.8310   23.7320 C   0  0  0  0  0  3  0  0  0  0  0  0
  -16.7150  -28.5810   23.1210 C   0  0  0  0  0  3  0  0  0  0  0  0
  -25.8340  -32.5500   23.8640 C   0  0  0  0  0  3  0  0  0  0  0  0
  -25.5250  -33.9540   24.1720 N   0  0  0  0  0  0  0  0  0  0  0  0
  -25.8730  -34.9950   23.4040 C   0  0  0  0  0  0  0  0  0  0  0  0
  -26.5570  -34.8740   22.3830 O   0  0  0  0  0  0  0  0  0  0  0  0
  -24.9250  -34.1210   24.9640 H   0  0  0  0  0  0  0  0  0  0  0  0
  -24.1710  -36.7990   22.9850 C   0  0  0  0  0  1  0  0  0  0  0  0
  -25.3850  -36.3920   23.8360 C   0  0  0  0  0  3  0  0  0  0  0  0
  -27.4970  -37.2730   24.7250 C   0  0  0  0  0  1  0  0  0  0  0  0
  -26.4290  -37.4360   23.7420 N   0  0  0  0  0  0  0  0  0  0  0  0
  -26.0260  -38.3610   23.8610 H   0  0  0  0  0  0  0  0  0  0  0  0
  -26.3320  -31.7960   25.1590 C   0  0  1  0  0  0  0  0  0  0  0  0
  -25.2250  -31.5760   26.2160 C   0  0  0  0  0  1  0  0  0  0  0  0
  -26.9160  -30.4120   24.7930 C   0  0  0  0  0  1  0  0  0  0  0  0
  -27.4750  -32.5960   25.8250 C   0  0  0  0  0  1  0  0  0  0  0  0
  2  6  1  0
  4  2  2  0
  4  7  1  0
  5  3  1  0
  6  1  1  0
  6  3  2  0
  7  5  2  0
  8 15  2  0
  9 14  1  0
 10 11  1  0
 10  9  1  0
 12 11  1  0
 12 20  1  0
 12 13  1  0
 14  8  1  0
 14 13  1  0
 16  7  1  0
 16  8  1  0
 17 18  2  0
 18 37  1  0
 19 18  1  0
 19 22  1  0
 20 17  1  0
 20 21  1  0
 21 19  2  0
 22 23  1  0
 23 24  2  0
 25 28  1  0
 25 24  1  0
 26 25  2  0
 27 26  1  0
 27 22  2  0
 28 29  1  0
 29 30  1  0
 30 31  2  0
 32 31  1  0
 32 36  1  0
 33 32  2  0
 34 29  2  0
 34 33  1  0
 35 34  1  0
 37 38  1  0
 38 41  1  0
 38 40  1  0
 39 37  2  0
 42 43  1  0
 42 17  1  0
 44 42  1  0
 45 46  1  0
 46 16  1  0
 47  1  1  0
 47 49  1  0
 48 47  1  0
 50 47  1  0
 50 51  1  0
 52 54  1  0
 52 51  1  0
 53 64  2  0
 54 59  1  0
 55 63  1  0
 55 65  1  0
 56 62  1  0
 56 58  1  0
 57 63  1  0
 58 57  1  0
 59 58  2  0
 60 54  2  0
 61 60  1  0
 61 56  2  0
 62 55  1  0
 63 53  1  0
 65 67  2  0
 66 65  1  0
 68 66  1  0
 69 78  2  0
 69 74  1  0
 70 66  1  0
 70 74  1  0
 71 70  1  0
 72 73  1  0
 72 71  1  0
 73 69  1  0
 74 75  2  0
 75 76  1  0
 77 76  2  0
 78 77  1  0
 79 53  1  0
 79 80  1  0
 79 89  1  0
 80 83  1  0
 81 85  1  0
 81 80  1  0
 82 81  2  0
 85 84  1  0
 87 85  1  0
 87 88  1  0
 87 86  1  0
 89 92  1  1
 89 90  1  0
 91 89  1  0
M  ISO  4   8 100  16 100  51 101  52 101
M  END
>  <TORSDO>  (92) 
F 21

>  <SCORE>  (92) 
-13.225

>  <name>  (92) 
91

>  <ligand_id>  (92) 
91

>  <original_smiles>  (92) 
[H]c1c([H])c([H])c2c(c1[H])C([H])([H])C([H])([H])C([H])([H])C2([H])N([H])C(=O)C1([H])N(C(=O)C([H])(N([H])C(=O)C([H])(N([H])C([H])([H])[H])C([H])([H])[H])C(C([H])([H])[H])(C([H])([H])[H])C([H])([H])[H])C([H])([H])c2c([H])c(OC([H])([H])C([H])([H])[N+]([H])([H])C([H])([H])c3c([H])c([H])c(N(C(=O)N4C([H])([H])C([H])([H])C([H])([H])C([H])(n5nc(-c6c([H])c([H])c(Oc7c([H])c([H])c(F)c([H])c7F)c([H])c6[H])c(C(=O)N([H])[H])c5N([H])[H])C4([H])[H])C([H])([H])C([H])([H])[H])c([H])c3[H])c([H])c([H])c2C1([H])[H]

>  <smiles>  (92) 
[H]c1c([H])c([H])c2c(c1[H])C([H])([H])C([H])([H])C([H])([H])C2([H])N([H])C(=O)C1([H])N(C(=O)C([H])(N([H])C(=O)C([H])(N([H])C([H])([H])[H])C([H])([H])[H])C(C([H])([H])[H])(C([H])([H])[H])C([H])([H])[H])C([H])([H])c2c([H])c(OC([H])([H])C([H])([H])[N+]([H])([H])C([H])([H])c3c([H])c([H])c(N(C(=O)N4C([H])([H])C([H])([H])C([H])([H])C([H])(n5nc(-c6c([H])c([H])c(Oc7c([H])c([H])c(F)c([H])c7F)c([H])c6[H])c(C(=O)N([H])[H])c5N([H])[H])C4([H])[H])C([H])([H])C([H])([H])[H])c([H])c3[H])c([H])c([H])c2C1([H])[H]

$$$$
92:0:0
     RDKit          3D

 91 99  0  0  1  0  0  0  0  0999 V2000
  -27.8470  -23.1390   17.9870 C   0  0  0  0  0  3  0  0  0  0  0  0
  -28.3150  -22.0220   18.7160 C   0  0  0  0  0  3  0  0  0  0  0  0
  -27.8470  -24.4540   18.5100 C   0  0  0  0  0  3  0  0  0  0  0  0
  -28.7610  -23.5530   20.5490 C   0  0  0  0  0  3  0  0  0  0  0  0
  -28.8280  -22.1510   20.0220 C   0  0  0  0  0  0  0  0  0  0  0  0
  -28.2490  -24.7580   19.8310 C   0  0  0  0  0  0  0  0  0  0  0  0
  -28.2560  -26.1810   20.2410 O   0  0  0  0  0  0  0  0  0  0  0  0
  -24.6070  -31.8810   23.2130 C   0  0  0  0  0  0  0  0  0  0  0  0
  -27.1760  -27.1490   20.1700 C   0  0  0  0  0  0  0  0  0  0  0  0
  -23.4000  -30.4810   21.5850 C   0  0  0  0  0  3  0  0  0  0  0  0
  -24.8400  -28.9030   20.1570 C   0  0  0  0  0  0  0  0  0  0  0  0
  -25.9540  -30.7440   21.4050 C   0  0  0  0  0  2  0  0  0  0  0  0
  -26.0250  -29.3500   20.7530 C   0  0  0  0  0  0  0  0  0  0  0  0
  -27.1910  -28.4900   20.7410 C   0  0  0  0  0  3  0  0  0  0  0  0
  -25.9460  -26.7990   19.5670 C   0  0  0  0  0  3  0  0  0  0  0  0
  -24.8130  -27.6400   19.5510 C   0  0  0  0  0  3  0  0  0  0  0  0
  -23.6130  -29.8020   20.2080 C   0  0  0  0  0  2  0  0  0  0  0  0
  -24.6750  -31.0570   22.1220 N   0  0  0  0  0  0  0  0  0  0  0  0
  -23.5230  -32.1660   23.7460 O   0  0  0  0  0  0  0  0  0  0  0  0
  -22.7260  -29.4750   22.5530 C   0  0  0  0  0  0  0  0  0  0  0  0
  -21.3960  -29.3040   22.4330 N   0  0  0  0  0  0  0  0  0  0  0  0
  -23.4010  -28.8520   23.3750 O   0  0  0  0  0  0  0  0  0  0  0  0
  -20.9070  -29.8580   21.7450 H   0  0  0  0  0  0  0  0  0  0  0  0
  -18.0190  -28.0960   22.9490 C   0  0  0  0  0  0  0  0  0  0  0  0
  -20.5790  -28.3690   23.2120 C   0  0  0  0  0  3  0  0  0  0  0  0
  -20.6840  -26.9330   22.6480 C   0  0  0  0  0  2  0  0  0  0  0  0
  -19.5830  -26.5990   21.6370 C   0  0  0  0  0  2  0  0  0  0  0  0
  -18.2010  -26.7420   22.2810 C   0  0  0  0  0  2  0  0  0  0  0  0
  -19.1360  -28.8660   23.3720 C   0  0  0  0  0  0  0  0  0  0  0  0
  -18.9110  -30.1300   23.9580 C   0  0  0  0  0  3  0  0  0  0  0  0
  -17.6030  -30.6250   24.1240 C   0  0  0  0  0  3  0  0  0  0  0  0
  -16.5020  -29.8520   23.7170 C   0  0  0  0  0  3  0  0  0  0  0  0
  -16.7120  -28.5890   23.1350 C   0  0  0  0  0  3  0  0  0  0  0  0
  -25.8860  -32.5200   23.8320 C   0  0  0  0  0  3  0  0  0  0  0  0
  -25.5730  -33.9190   24.1640 N   0  0  0  0  0  0  0  0  0  0  0  0
  -25.9020  -34.9770   23.4110 C   0  0  0  0  0  0  0  0  0  0  0  0
  -26.5690  -34.8770   22.3770 O   0  0  0  0  0  0  0  0  0  0  0  0
  -24.9800  -34.0700   24.9680 H   0  0  0  0  0  0  0  0  0  0  0  0
  -24.1790  -36.7780   23.0680 C   0  0  0  0  0  1  0  0  0  0  0  0
  -25.4180  -36.3640   23.8770 C   0  0  0  0  0  3  0  0  0  0  0  0
  -27.5550  -37.2410   24.7140 C   0  0  0  0  0  1  0  0  0  0  0  0
  -26.4530  -37.4160   23.7700 N   0  0  0  0  0  0  0  0  0  0  0  0
  -26.0480  -38.3360   23.9210 H   0  0  0  0  0  0  0  0  0  0  0  0
  -26.4040  -31.7550   25.1110 C   0  0  1  0  0  0  0  0  0  0  0  0
  -25.3140  -31.5240   26.1840 C   0  0  0  0  0  1  0  0  0  0  0  0
  -26.9850  -30.3740   24.7300 C   0  0  0  0  0  1  0  0  0  0  0  0
  -27.5570  -32.5510   25.7670 C   0  0  0  0  0  1  0  0  0  0  0  0
  -29.5320  -20.8060   20.6990 C   0  0  0  0  0  3  0  0  0  0  0  0
  -31.0680  -21.0070   20.6350 C   0  0  0  0  0  3  0  0  0  0  0  0
  -31.4070  -22.2350   21.0310 F   0  0  0  0  0  0  0  0  0  0  0  0
  -31.7340  -20.1490   21.4080 F   0  0  0  0  0  0  0  0  0  0  0  0
  -29.2270  -19.3180   20.2750 N   0  0  0  0  0  0  0  0  0  0  0  0
  -28.8730  -19.3050   19.3240 H   0  0  0  0  0  0  0  0  0  0  0  0
  -30.0690  -18.0220   20.5980 C   0  0  0  0  0  3  0  0  0  0  0  0
  -29.5540  -16.4090   20.4830 C   0  0  0  0  0  3  0  0  0  0  0  0
  -30.4710  -15.0080   20.4240 C   0  0  0  0  0  0  0  0  0  0  0  0
  -30.4340  -12.6410   19.5060 C   0  0  0  0  0  2  0  0  0  0  0  0
  -29.5190  -12.6000   18.2580 C   0  0  0  0  0  2  0  0  0  0  0  0
  -28.0470  -12.3750   18.6600 C   0  0  0  0  0  2  0  0  0  0  0  0
  -27.6110  -13.2890   19.8350 C   0  0  0  0  0  3  0  0  0  0  0  0
  -28.6490  -13.2980   20.9760 C   0  0  0  0  0  2  0  0  0  0  0  0
  -29.9340  -13.7200   20.4050 N   0  0  0  0  0  0  0  0  0  0  0  0
  -31.6820  -15.0960   20.1830 O   0  0  0  0  0  0  0  0  0  0  0  0
  -25.2100  -13.8380   20.5300 C   0  0  0  0  0  0  0  0  0  0  0  0
  -24.1500  -13.0510   20.8870 C   0  0  0  0  0  0  0  0  0  0  0  0
  -24.6340  -11.7060   20.8740 C   0  0  0  0  0  0  0  0  0  0  0  0
  -26.2690  -12.9730   20.3140 N   0  0  0  0  0  0  0  0  0  0  0  0
  -25.9310  -11.6860   20.5880 N   0  0  0  0  0  0  0  0  0  0  0  0
  -23.9210  -10.4350   21.0620 C   0  0  0  0  0  0  0  0  0  0  0  0
  -24.3580   -9.4730   21.9980 C   0  0  0  0  0  3  0  0  0  0  0  0
  -23.6430   -8.2690   22.1730 C   0  0  0  0  0  3  0  0  0  0  0  0
  -22.4770   -8.0170   21.4110 C   0  0  0  0  0  0  0  0  0  0  0  0
  -22.0600   -8.9680   20.4640 C   0  0  0  0  0  3  0  0  0  0  0  0
  -22.7750  -10.1650   20.2870 C   0  0  0  0  0  3  0  0  0  0  0  0
  -21.7350   -6.8640   21.4940 O   0  0  0  0  0  0  0  0  0  0  0  0
  -21.6940   -6.1150   22.6430 C   0  0  0  0  0  0  0  0  0  0  0  0
  -21.2670   -6.6620   23.8730 C   0  0  0  0  0  3  0  0  0  0  0  0
  -21.1740   -5.8390   25.0140 C   0  0  0  0  0  3  0  0  0  0  0  0
  -21.4980   -4.4730   24.9260 C   0  0  0  0  0  0  0  0  0  0  0  0
  -21.9170   -3.9260   23.7010 C   0  0  0  0  0  3  0  0  0  0  0  0
  -22.0110   -4.7450   22.5620 C   0  0  0  0  0  0  0  0  0  0  0  0
  -22.3960   -4.2090   21.3780 F   0  0  0  0  0  0  0  0  0  0  0  0
  -21.4010   -3.6800   26.0190 F   0  0  0  0  0  0  0  0  0  0  0  0
  -22.7410  -13.5100   21.1280 C   0  0  0  0  0  0  0  0  0  0  0  0
  -22.0060  -12.8090   21.9840 N   0  0  0  0  0  0  0  0  0  0  0  0
  -22.3000  -14.5260   20.5920 O   0  0  0  0  0  0  0  0  0  0  0  0
  -22.3770  -11.9900   22.4410 H   0  0  0  0  0  0  0  0  0  0  0  0
  -21.0600  -13.0980   22.1870 H   0  0  0  0  0  0  0  0  0  0  0  0
  -25.3580  -15.2100   20.3500 N   0  0  0  0  0  0  0  0  0  0  0  0
  -24.5830  -15.8570   20.4530 H   0  0  0  0  0  0  0  0  0  0  0  0
  -26.2120  -15.6630   20.0500 H   0  0  0  0  0  0  0  0  0  0  0  0
  1  3  2  0
  1  2  1  0
  2  5  2  0
  3  6  1  0
  5  4  1  0
  5 48  1  0
  6  7  1  0
  6  4  2  0
  8 19  2  0
  9  7  1  0
  9 14  1  0
 10 18  1  0
 10 20  1  0
 11 17  1  0
 11 13  1  0
 12 18  1  0
 13 12  1  0
 14 13  2  0
 15  9  2  0
 16 15  1  0
 16 11  2  0
 17 10  1  0
 18  8  1  0
 20 22  2  0
 21 20  1  0
 23 21  1  0
 24 33  2  0
 24 29  1  0
 25 21  1  0
 25 29  1  0
 26 25  1  0
 27 28  1  0
 27 26  1  0
 28 24  1  0
 29 30  2  0
 30 31  1  0
 32 31  2  0
 33 32  1  0
 34  8  1  0
 34 35  1  0
 34 44  1  0
 35 38  1  0
 36 40  1  0
 36 35  1  0
 37 36  2  0
 40 39  1  0
 42 40  1  0
 42 43  1  0
 42 41  1  0
 44 47  1  1
 44 45  1  0
 46 44  1  0
 48 49  1  0
 49 50  1  0
 49 51  1  0
 52 54  1  0
 52 48  1  0
 53 52  1  0
 55 54  2  0
 56 55  1  0
 57 62  1  0
 58 59  1  0
 58 57  1  0
 60 59  1  0
 60 67  1  0
 60 61  1  0
 62 56  1  0
 62 61  1  0
 63 56  2  0
 64 65  2  0
 65 84  1  0
 66 65  1  0
 66 69  1  0
 67 64  1  0
 67 68  1  0
 68 66  2  0
 69 70  1  0
 70 71  2  0
 72 75  1  0
 72 71  1  0
 73 72  2  0
 74 73  1  0
 74 69  2  0
 75 76  1  0
 76 77  1  0
 77 78  2  0
 79 78  1  0
 79 83  1  0
 80 79  2  0
 81 76  2  0
 81 80  1  0
 82 81  1  0
 84 85  1  0
 85 88  1  0
 85 87  1  0
 86 84  2  0
 89 90  1  0
 89 64  1  0
 91 89  1  0
M  ISO  4   6 101   7 101  55 100  56 100
M  END
>  <TORSDO>  (93) 
F 21

>  <SCORE>  (93) 
-14.315

>  <name>  (93) 
92

>  <ligand_id>  (93) 
92

>  <original_smiles>  (93) 
[H]c1c([H])c([H])c2c(c1[H])C([H])([H])C([H])([H])C([H])([H])C2([H])N([H])C(=O)C1([H])N(C(=O)C([H])(N([H])C(=O)C([H])(N([H])C([H])([H])[H])C([H])([H])[H])C(C([H])([H])[H])(C([H])([H])[H])C([H])([H])[H])C([H])([H])c2c([H])c(Oc3c([H])c([H])c([H])c(C([H])(N([H])C([H])([H])C([H])([H])C(=O)N4C([H])([H])C([H])([H])C([H])([H])C([H])(n5nc(-c6c([H])c([H])c(Oc7c([H])c([H])c(F)c([H])c7F)c([H])c6[H])c(C(=O)N([H])[H])c5N([H])[H])C4([H])[H])C([H])(F)F)c3[H])c([H])c([H])c2C1([H])[H]

>  <smiles>  (93) 
[H]c1c([H])c([H])c2c(c1[H])C([H])([H])C([H])([H])C([H])([H])C2([H])N([H])C(=O)C1([H])N(C(=O)C([H])(N([H])C(=O)C([H])(N([H])C([H])([H])[H])C([H])([H])[H])C(C([H])([H])[H])(C([H])([H])[H])C([H])([H])[H])C([H])([H])c2c([H])c(Oc3c([H])c([H])c([H])c(C([H])(N([H])C([H])([H])C([H])([H])C(=O)N4C([H])([H])C([H])([H])C([H])([H])C([H])(n5nc(-c6c([H])c([H])c(Oc7c([H])c([H])c(F)c([H])c7F)c([H])c6[H])c(C(=O)N([H])[H])c5N([H])[H])C4([H])[H])C([H])(F)F)c3[H])c([H])c([H])c2C1([H])[H]

$$$$
93:0:0
     RDKit          3D

 92100  0  0  1  0  0  0  0  0999 V2000
  -27.1960  -24.2720   21.0330 C   0  0  0  0  0  3  0  0  0  0  0  0
  -27.1550  -22.9260   21.5020 C   0  0  0  0  0  0  0  0  0  0  0  0
  -28.2470  -24.4080   20.1720 C   0  0  0  0  0  0  0  0  0  0  0  0
  -28.1760  -22.2100   20.9320 C   0  0  0  0  0  0  0  0  0  0  0  0
  -28.8420  -23.1330   20.1190 N   0  0  0  0  0  0  0  0  0  0  0  0
  -29.6560  -22.9100   19.5540 H   0  0  0  0  0  0  0  0  0  0  0  0
  -26.2490  -22.4300   22.3890 O   0  0  0  0  0  0  0  0  0  0  0  0
  -25.6230  -23.0840   22.6870 H   0  0  0  0  0  0  0  0  0  0  0  0
  -28.5150  -20.7370   21.2180 C   0  0  0  0  0  2  0  0  0  0  0  0
  -29.3430  -19.8150   20.2610 C   0  0  0  0  0  2  0  0  0  0  0  0
  -29.2270  -18.2890   20.6560 C   0  0  0  0  0  2  0  0  0  0  0  0
  -30.2450  -17.2700   20.0310 C   0  0  0  0  0  2  0  0  0  0  0  0
  -30.7620  -14.7840   20.0070 C   0  0  0  0  0  0  0  0  0  0  0  0
  -30.5070  -12.5530   18.9750 C   0  0  0  0  0  2  0  0  0  0  0  0
  -29.5200  -12.6870   17.7950 C   0  0  0  0  0  2  0  0  0  0  0  0
  -28.0660  -12.5210   18.2820 C   0  0  0  0  0  2  0  0  0  0  0  0
  -27.7510  -13.3910   19.5290 C   0  0  0  0  0  3  0  0  0  0  0  0
  -28.8500  -13.2510   20.6060 C   0  0  0  0  0  2  0  0  0  0  0  0
  -30.1390  -13.5710   19.9750 N   0  0  0  0  0  0  0  0  0  0  0  0
  -31.8910  -14.9580   19.5400 O   0  0  0  0  0  0  0  0  0  0  0  0
  -29.9880  -15.8410   20.3640 N   0  0  0  0  0  0  0  0  0  0  0  0
  -29.0750  -15.6110   20.7290 H   0  0  0  0  0  0  0  0  0  0  0  0
  -25.3920  -13.9760   20.3680 C   0  0  0  0  0  0  0  0  0  0  0  0
  -24.3420  -13.1940   20.7680 C   0  0  0  0  0  0  0  0  0  0  0  0
  -24.8010  -11.8440   20.6810 C   0  0  0  0  0  0  0  0  0  0  0  0
  -26.4230  -13.1010   20.0660 N   0  0  0  0  0  0  0  0  0  0  0  0
  -26.0760  -11.8120   20.3140 N   0  0  0  0  0  0  0  0  0  0  0  0
  -24.0840  -10.5770   20.8760 C   0  0  0  0  0  0  0  0  0  0  0  0
  -24.5040   -9.6340   21.8400 C   0  0  0  0  0  3  0  0  0  0  0  0
  -23.7900   -8.4300   22.0210 C   0  0  0  0  0  3  0  0  0  0  0  0
  -22.6430   -8.1600   21.2380 C   0  0  0  0  0  0  0  0  0  0  0  0
  -22.2420   -9.0910   20.2640 C   0  0  0  0  0  3  0  0  0  0  0  0
  -22.9570  -10.2880   20.0810 C   0  0  0  0  0  3  0  0  0  0  0  0
  -21.9020   -7.0080   21.3280 O   0  0  0  0  0  0  0  0  0  0  0  0
  -21.7490   -6.3390   22.5160 C   0  0  0  0  0  0  0  0  0  0  0  0
  -21.1840   -6.9580   23.6520 C   0  0  0  0  0  3  0  0  0  0  0  0
  -20.9820   -6.2130   24.8310 C   0  0  0  0  0  3  0  0  0  0  0  0
  -21.3350   -4.8510   24.8730 C   0  0  0  0  0  0  0  0  0  0  0  0
  -21.8920   -4.2310   23.7410 C   0  0  0  0  0  3  0  0  0  0  0  0
  -22.0960   -4.9730   22.5650 C   0  0  0  0  0  0  0  0  0  0  0  0
  -22.6130   -4.3660   21.4690 F   0  0  0  0  0  0  0  0  0  0  0  0
  -21.1330   -4.1330   26.0030 F   0  0  0  0  0  0  0  0  0  0  0  0
  -22.9610  -13.6620   21.1180 C   0  0  0  0  0  0  0  0  0  0  0  0
  -22.2730  -12.9420   21.9990 N   0  0  0  0  0  0  0  0  0  0  0  0
  -22.5000  -14.7010   20.6480 O   0  0  0  0  0  0  0  0  0  0  0  0
  -22.6610  -12.1020   22.4010 H   0  0  0  0  0  0  0  0  0  0  0  0
  -21.3470  -13.2370   22.2750 H   0  0  0  0  0  0  0  0  0  0  0  0
  -25.5480  -15.3510   20.2140 N   0  0  0  0  0  0  0  0  0  0  0  0
  -24.7810  -15.9980   20.3610 H   0  0  0  0  0  0  0  0  0  0  0  0
  -26.3740  -15.7960   19.8350 H   0  0  0  0  0  0  0  0  0  0  0  0
  -28.7140  -25.6120   19.3500 C   0  0  0  0  0  2  0  0  0  0  0  0
  -28.5680  -26.8790   20.0580 O   0  0  0  0  0  0  0  0  0  0  0  0
  -24.6810  -31.8880   23.3640 C   0  0  0  0  0  0  0  0  0  0  0  0
  -27.3870  -27.6170   20.0420 C   0  0  0  0  0  0  0  0  0  0  0  0
  -23.5060  -30.5910   21.6170 C   0  0  0  0  0  3  0  0  0  0  0  0
  -24.9870  -29.1500   20.1150 C   0  0  0  0  0  0  0  0  0  0  0  0
  -26.0370  -30.9580   21.4830 C   0  0  0  0  0  2  0  0  0  0  0  0
  -26.1360  -29.6280   20.7550 C   0  0  0  0  0  0  0  0  0  0  0  0
  -27.3330  -28.8680   20.7180 C   0  0  0  0  0  3  0  0  0  0  0  0
  -26.2130  -27.1700   19.3940 C   0  0  0  0  0  3  0  0  0  0  0  0
  -25.0230  -27.9220   19.4330 C   0  0  0  0  0  3  0  0  0  0  0  0
  -23.7380  -30.0010   20.2000 C   0  0  0  0  0  2  0  0  0  0  0  0
  -24.7580  -31.1590   22.2120 N   0  0  0  0  0  0  0  0  0  0  0  0
  -23.5910  -32.1220   23.9040 O   0  0  0  0  0  0  0  0  0  0  0  0
  -22.8450  -29.5080   22.5020 C   0  0  0  0  0  0  0  0  0  0  0  0
  -21.5280  -29.3110   22.3280 N   0  0  0  0  0  0  0  0  0  0  0  0
  -23.5170  -28.8520   23.3030 O   0  0  0  0  0  0  0  0  0  0  0  0
  -21.0470  -29.8950   21.6590 H   0  0  0  0  0  0  0  0  0  0  0  0
  -18.1720  -28.0110   22.6440 C   0  0  0  0  0  0  0  0  0  0  0  0
  -20.7100  -28.3150   23.0210 C   0  0  0  0  0  3  0  0  0  0  0  0
  -20.8700  -26.9180   22.3780 C   0  0  0  0  0  2  0  0  0  0  0  0
  -19.8130  -26.6200   21.3100 C   0  0  0  0  0  2  0  0  0  0  0  0
  -18.4060  -26.7020   21.9110 C   0  0  0  0  0  2  0  0  0  0  0  0
  -19.2550  -28.7750   23.1530 C   0  0  0  0  0  0  0  0  0  0  0  0
  -18.9830  -30.0030   23.7970 C   0  0  0  0  0  3  0  0  0  0  0  0
  -17.6610  -30.4640   23.9410 C   0  0  0  0  0  3  0  0  0  0  0  0
  -16.5910  -29.6950   23.4500 C   0  0  0  0  0  3  0  0  0  0  0  0
  -16.8480  -28.4710   22.8070 C   0  0  0  0  0  3  0  0  0  0  0  0
  -25.9550  -32.4840   24.0410 C   0  0  0  0  0  3  0  0  0  0  0  0
  -25.6410  -33.8640   24.4370 N   0  0  0  0  0  0  0  0  0  0  0  0
  -25.9950  -34.9540   23.7420 C   0  0  0  0  0  0  0  0  0  0  0  0
  -26.6880  -34.9020   22.7230 O   0  0  0  0  0  0  0  0  0  0  0  0
  -25.0280  -33.9780   25.2300 H   0  0  0  0  0  0  0  0  0  0  0  0
  -24.2810  -36.7690   23.4370 C   0  0  0  0  0  1  0  0  0  0  0  0
  -25.4990  -36.3170   24.2590 C   0  0  0  0  0  3  0  0  0  0  0  0
  -27.6090  -37.1500   25.1970 C   0  0  0  0  0  1  0  0  0  0  0  0
  -26.5370  -37.3700   24.2300 N   0  0  0  0  0  0  0  0  0  0  0  0
  -26.1290  -38.2830   24.4120 H   0  0  0  0  0  0  0  0  0  0  0  0
  -26.4490  -31.6470   25.2850 C   0  0  1  0  0  0  0  0  0  0  0  0
  -25.3340  -31.3550   26.3160 C   0  0  0  0  0  1  0  0  0  0  0  0
  -27.0410  -30.2920   24.8330 C   0  0  0  0  0  1  0  0  0  0  0  0
  -27.5870  -32.4050   26.0090 C   0  0  0  0  0  1  0  0  0  0  0  0
  1  2  1  0
  2  7  1  0
  3  1  2  0
  4  9  1  0
  4  2  2  0
  5  3  1  0
  5  4  1  0
  6  5  1  0
  7  8  1  0
 10 11  1  0
 10  9  1  0
 12 21  1  0
 12 11  1  0
 13 21  1  0
 14 19  1  0
 15 16  1  0
 15 14  1  0
 17 16  1  0
 17 26  1  0
 17 18  1  0
 19 13  1  0
 19 18  1  0
 20 13  2  0
 21 22  1  0
 23 24  2  0
 24 43  1  0
 25 24  1  0
 25 28  1  0
 26 27  1  0
 26 23  1  0
 27 25  2  0
 28 29  1  0
 29 30  2  0
 31 34  1  0
 31 30  1  0
 32 31  2  0
 33 32  1  0
 33 28  2  0
 34 35  1  0
 35 40  2  0
 35 36  1  0
 36 37  2  0
 37 38  1  0
 38 42  1  0
 39 38  2  0
 40 39  1  0
 41 40  1  0
 43 44  1  0
 44 47  1  0
 44 46  1  0
 45 43  2  0
 48 49  1  0
 48 23  1  0
 50 48  1  0
 51 52  1  0
 51  3  1  0
 53 64  2  0
 54 52  1  0
 54 59  1  0
 55 63  1  0
 55 65  1  0
 56 62  1  0
 56 58  1  0
 57 63  1  0
 58 57  1  0
 59 58  2  0
 60 61  1  0
 60 54  2  0
 61 56  2  0
 62 55  1  0
 63 53  1  0
 65 67  2  0
 66 65  1  0
 68 66  1  0
 69 78  2  0
 69 74  1  0
 70 66  1  0
 70 74  1  0
 71 70  1  0
 72 73  1  0
 72 71  1  0
 73 69  1  0
 74 75  2  0
 75 76  1  0
 77 76  2  0
 78 77  1  0
 79 53  1  0
 79 80  1  0
 79 89  1  0
 80 83  1  0
 81 85  1  0
 81 80  1  0
 82 81  2  0
 85 84  1  0
 87 85  1  0
 87 88  1  0
 87 86  1  0
 89 92  1  1
 89 90  1  0
 91 89  1  0
M  ISO  4  13 100  21 100  51 101  52 101
M  END
>  <TORSDO>  (94) 
F 22

>  <SCORE>  (94) 
-12.464

>  <name>  (94) 
93

>  <ligand_id>  (94) 
93

>  <original_smiles>  (94) 
[H]Oc1c([H])c(C([H])([H])Oc2c([H])c([H])c3c(c2[H])C([H])([H])N(C(=O)C([H])(N([H])C(=O)C([H])(N([H])C([H])([H])[H])C([H])([H])[H])C(C([H])([H])[H])(C([H])([H])[H])C([H])([H])[H])C([H])(C(=O)N([H])C2([H])c4c([H])c([H])c([H])c([H])c4C([H])([H])C([H])([H])C2([H])[H])C3([H])[H])n([H])c1C([H])([H])C([H])([H])C([H])([H])C([H])([H])N([H])C(=O)N1C([H])([H])C([H])([H])C([H])([H])C([H])(n2nc(-c3c([H])c([H])c(Oc4c([H])c([H])c(F)c([H])c4F)c([H])c3[H])c(C(=O)N([H])[H])c2N([H])[H])C1([H])[H]

>  <smiles>  (94) 
[H]Oc1c([H])c(C([H])([H])Oc2c([H])c([H])c3c(c2[H])C([H])([H])N(C(=O)C([H])(N([H])C(=O)C([H])(N([H])C([H])([H])[H])C([H])([H])[H])C(C([H])([H])[H])(C([H])([H])[H])C([H])([H])[H])C([H])(C(=O)N([H])C2([H])c4c([H])c([H])c([H])c([H])c4C([H])([H])C([H])([H])C2([H])[H])C3([H])[H])n([H])c1C([H])([H])C([H])([H])C([H])([H])C([H])([H])N([H])C(=O)N1C([H])([H])C([H])([H])C([H])([H])C([H])(n2nc(-c3c([H])c([H])c(Oc4c([H])c([H])c(F)c([H])c4F)c([H])c3[H])c(C(=O)N([H])[H])c2N([H])[H])C1([H])[H]

$$$$
94:0:0
     RDKit          3D

 98106  0  0  1  0  0  0  0  0999 V2000
  -27.5030  -21.6280   17.5330 C   0  0  0  0  0  2  0  0  0  0  0  0
  -26.3100  -20.9850   18.2810 C   0  0  0  0  0  2  0  0  0  0  0  0
  -26.5960  -19.6270   18.7560 N   0  0  0  0  0  0  0  0  0  0  0  0
  -26.3360  -18.8720   18.1220 H   0  0  0  0  0  0  0  0  0  0  0  0
  -29.4690  -20.3170   21.0330 C   0  0  0  0  0  3  0  0  0  0  0  0
  -30.2350  -19.1530   20.8430 C   0  0  0  0  0  3  0  0  0  0  0  0
  -28.2380  -20.4620   20.3720 C   0  0  0  0  0  3  0  0  0  0  0  0
  -28.4960  -18.2430   19.3980 C   0  0  0  0  0  3  0  0  0  0  0  0
  -29.7690  -18.1140   20.0100 C   0  0  0  0  0  0  0  0  0  0  0  0
  -27.7560  -19.4400   19.5250 C   0  0  0  0  0  0  0  0  0  0  0  0
  -30.8910  -16.8690   18.1230 C   0  0  0  0  0  1  0  0  0  0  0  0
  -30.7200  -16.9640   19.6560 C   0  0  0  0  0  3  0  0  0  0  0  0
  -31.1690  -14.5950   20.3060 C   0  0  0  0  0  0  0  0  0  0  0  0
  -30.9000  -12.3470   19.3970 C   0  0  0  0  0  2  0  0  0  0  0  0
  -30.0030  -12.5070   18.1510 C   0  0  0  0  0  2  0  0  0  0  0  0
  -28.5110  -12.4290   18.5380 C   0  0  0  0  0  2  0  0  0  0  0  0
  -28.1510  -13.3520   19.7320 C   0  0  0  0  0  3  0  0  0  0  0  0
  -29.1710  -13.1930   20.8850 C   0  0  0  0  0  2  0  0  0  0  0  0
  -30.5170  -13.4090   20.3340 N   0  0  0  0  0  0  0  0  0  0  0  0
  -32.3730  -14.6980   20.0510 O   0  0  0  0  0  0  0  0  0  0  0  0
  -30.3500  -15.6650   20.2350 N   0  0  0  0  0  0  0  0  0  0  0  0
  -29.3720  -15.4940   20.4070 H   0  0  0  0  0  0  0  0  0  0  0  0
  -25.7800  -14.0680   20.4220 C   0  0  0  0  0  0  0  0  0  0  0  0
  -24.6750  -13.3440   20.7820 C   0  0  0  0  0  0  0  0  0  0  0  0
  -25.0760  -11.9740   20.7550 C   0  0  0  0  0  0  0  0  0  0  0  0
  -26.7830  -13.1390   20.1960 N   0  0  0  0  0  0  0  0  0  0  0  0
  -26.3650  -11.8750   20.4570 N   0  0  0  0  0  0  0  0  0  0  0  0
  -24.2940  -10.7440   20.9320 C   0  0  0  0  0  0  0  0  0  0  0  0
  -24.6570   -9.7750   21.8890 C   0  0  0  0  0  3  0  0  0  0  0  0
  -23.8830   -8.6060   22.0540 C   0  0  0  0  0  3  0  0  0  0  0  0
  -22.7290   -8.4010   21.2610 C   0  0  0  0  0  0  0  0  0  0  0  0
  -22.3840   -9.3600   20.2930 C   0  0  0  0  0  3  0  0  0  0  0  0
  -23.1600  -10.5210   20.1270 C   0  0  0  0  0  3  0  0  0  0  0  0
  -21.9290   -7.2860   21.3350 O   0  0  0  0  0  0  0  0  0  0  0  0
  -21.7850   -6.5790   22.5020 C   0  0  0  0  0  0  0  0  0  0  0  0
  -21.3170   -7.1850   23.6880 C   0  0  0  0  0  3  0  0  0  0  0  0
  -21.1220   -6.4070   24.8460 C   0  0  0  0  0  3  0  0  0  0  0  0
  -21.3780   -5.0220   24.8180 C   0  0  0  0  0  0  0  0  0  0  0  0
  -21.8390   -4.4160   23.6350 C   0  0  0  0  0  3  0  0  0  0  0  0
  -22.0380   -5.1920   22.4800 C   0  0  0  0  0  0  0  0  0  0  0  0
  -22.4620   -4.6000   21.3370 F   0  0  0  0  0  0  0  0  0  0  0  0
  -21.1810   -4.2730   25.9260 F   0  0  0  0  0  0  0  0  0  0  0  0
  -23.2960  -13.8820   21.0400 C   0  0  0  0  0  0  0  0  0  0  0  0
  -22.5300  -13.2240   21.9040 N   0  0  0  0  0  0  0  0  0  0  0  0
  -22.9050  -14.9180   20.5060 O   0  0  0  0  0  0  0  0  0  0  0  0
  -22.8540  -12.3850   22.3630 H   0  0  0  0  0  0  0  0  0  0  0  0
  -21.6010  -13.5650   22.1100 H   0  0  0  0  0  0  0  0  0  0  0  0
  -26.0110  -15.4300   20.2440 N   0  0  0  0  0  0  0  0  0  0  0  0
  -25.2810  -16.1250   20.3530 H   0  0  0  0  0  0  0  0  0  0  0  0
  -26.8800  -15.8250   19.9130 H   0  0  0  0  0  0  0  0  0  0  0  0
  -27.2700  -23.0920   17.0950 C   0  0  0  0  0  2  0  0  0  0  0  0
  -27.1580  -24.0450   18.2290 N   0  0  0  0  0  4  0  0  0  0  0  0
  -26.6390  -23.5950   18.9670 H   0  0  0  0  0  0  0  0  0  0  0  0
  -26.6000  -24.8170   17.8960 H   0  0  0  0  0  0  0  0  0  0  0  0
  -28.4360  -24.5950   18.7580 C   0  0  0  0  0  2  0  0  0  0  0  0
  -29.4940  -24.9200   21.0410 C   0  0  0  0  0  1  0  0  0  0  0  0
  -28.3080  -25.3070   20.1420 C   0  0  0  0  0  3  0  0  0  0  0  0
  -28.3600  -26.7480   20.0640 O   0  0  0  0  0  0  0  0  0  0  0  0
  -24.5990  -31.9220   23.2440 C   0  0  0  0  0  0  0  0  0  0  0  0
  -27.1780  -27.4640   20.1210 C   0  0  0  0  0  0  0  0  0  0  0  0
  -23.3710  -30.5300   21.6140 C   0  0  0  0  0  3  0  0  0  0  0  0
  -24.7950  -28.9910   20.1820 C   0  0  0  0  0  0  0  0  0  0  0  0
  -25.8990  -30.8810   21.3810 C   0  0  0  0  0  2  0  0  0  0  0  0
  -25.9710  -29.5130   20.7340 C   0  0  0  0  0  0  0  0  0  0  0  0
  -27.1700  -28.7600   20.6860 C   0  0  0  0  0  3  0  0  0  0  0  0
  -25.9690  -26.9510   19.6020 C   0  0  0  0  0  3  0  0  0  0  0  0
  -24.7900  -27.7070   19.6170 C   0  0  0  0  0  3  0  0  0  0  0  0
  -23.5620  -29.8600   20.2310 C   0  0  0  0  0  2  0  0  0  0  0  0
  -24.6440  -31.1250   22.1390 N   0  0  0  0  0  0  0  0  0  0  0  0
  -23.5220  -32.1950   23.7920 O   0  0  0  0  0  0  0  0  0  0  0  0
  -22.7260  -29.5060   22.5760 C   0  0  0  0  0  0  0  0  0  0  0  0
  -21.4000  -29.3240   22.4570 N   0  0  0  0  0  0  0  0  0  0  0  0
  -23.4130  -28.8760   23.3850 O   0  0  0  0  0  0  0  0  0  0  0  0
  -20.9060  -29.8840   21.7770 H   0  0  0  0  0  0  0  0  0  0  0  0
  -18.0270  -28.1260   22.9720 C   0  0  0  0  0  0  0  0  0  0  0  0
  -20.5860  -28.3870   23.2320 C   0  0  0  0  0  3  0  0  0  0  0  0
  -20.6890  -26.9540   22.6660 C   0  0  0  0  0  2  0  0  0  0  0  0
  -19.5830  -26.6240   21.6570 C   0  0  0  0  0  2  0  0  0  0  0  0
  -18.2020  -26.7730   22.3030 C   0  0  0  0  0  2  0  0  0  0  0  0
  -19.1480  -28.8900   23.3930 C   0  0  0  0  0  0  0  0  0  0  0  0
  -18.9320  -30.1560   23.9780 C   0  0  0  0  0  3  0  0  0  0  0  0
  -17.6290  -30.6590   24.1460 C   0  0  0  0  0  3  0  0  0  0  0  0
  -16.5230  -29.8930   23.7410 C   0  0  0  0  0  3  0  0  0  0  0  0
  -16.7220  -28.6280   23.1600 C   0  0  0  0  0  3  0  0  0  0  0  0
  -25.8910  -32.5510   23.8560 C   0  0  0  0  0  3  0  0  0  0  0  0
  -25.5890  -33.9490   24.1910 N   0  0  0  0  0  0  0  0  0  0  0  0
  -25.9080  -35.0020   23.4260 C   0  0  0  0  0  0  0  0  0  0  0  0
  -26.5670  -34.9000   22.3870 O   0  0  0  0  0  0  0  0  0  0  0  0
  -25.0190  -34.1060   25.0080 H   0  0  0  0  0  0  0  0  0  0  0  0
  -24.1760  -36.7910   23.0830 C   0  0  0  0  0  1  0  0  0  0  0  0
  -25.4230  -36.3910   23.8870 C   0  0  0  0  0  3  0  0  0  0  0  0
  -27.5630  -37.2680   24.7040 C   0  0  0  0  0  1  0  0  0  0  0  0
  -26.4530  -37.4480   23.7710 N   0  0  0  0  0  0  0  0  0  0  0  0
  -26.0480  -38.3660   23.9360 H   0  0  0  0  0  0  0  0  0  0  0  0
  -26.4200  -31.7780   25.1260 C   0  0  1  0  0  0  0  0  0  0  0  0
  -25.3370  -31.5330   26.2030 C   0  0  0  0  0  1  0  0  0  0  0  0
  -27.0050  -30.4050   24.7230 C   0  0  0  0  0  1  0  0  0  0  0  0
  -27.5760  -32.5720   25.7810 C   0  0  0  0  0  1  0  0  0  0  0  0
  1  2  1  0
  2  3  1  0
  3 10  1  0
  4  3  1  0
  6  5  1  0
  7  5  2  0
  8 10  2  0
  8  9  1  0
  9  6  2  0
 10  7  1  0
 12 11  1  0
 12  9  1  0
 12 21  1  0
 13 19  1  0
 14 19  1  0
 15 16  1  0
 15 14  1  0
 17 16  1  0
 17 26  1  0
 17 18  1  0
 19 18  1  0
 20 13  2  0
 21 13  1  0
 21 22  1  0
 23 24  2  0
 24 43  1  0
 25 24  1  0
 25 28  1  0
 26 23  1  0
 26 27  1  0
 27 25  2  0
 28 29  1  0
 29 30  2  0
 31 34  1  0
 31 30  1  0
 32 31  2  0
 33 32  1  0
 33 28  2  0
 34 35  1  0
 35 36  1  0
 36 37  2  0
 38 37  1  0
 38 42  1  0
 39 38  2  0
 40 35  2  0
 40 39  1  0
 41 40  1  0
 43 44  1  0
 44 47  1  0
 44 46  1  0
 45 43  2  0
 48 49  1  0
 48 23  1  0
 50 48  1  0
 51  1  1  0
 51 52  1  0
 52 55  1  0
 52 53  1  0
 54 52  1  0
 55 57  1  0
 57 56  1  0
 58 60  1  0
 58 57  1  0
 59 70  2  0
 60 65  1  0
 61 69  1  0
 61 71  1  0
 62 68  1  0
 62 64  1  0
 63 69  1  0
 64 63  1  0
 65 64  2  0
 66 67  1  0
 66 60  2  0
 67 62  2  0
 68 61  1  0
 69 59  1  0
 71 73  2  0
 72 71  1  0
 74 72  1  0
 75 84  2  0
 75 80  1  0
 76 72  1  0
 76 80  1  0
 77 76  1  0
 78 79  1  0
 78 77  1  0
 79 75  1  0
 80 81  2  0
 81 82  1  0
 83 82  2  0
 84 83  1  0
 85 59  1  0
 85 86  1  0
 85 95  1  0
 86 89  1  0
 87 91  1  0
 87 86  1  0
 88 87  2  0
 91 90  1  0
 93 91  1  0
 93 94  1  0
 93 92  1  0
 95 98  1  1
 95 96  1  0
 97 95  1  0
M  ISO  4  13 100  21 100  57 101  58 101
M  END
>  <TORSDO>  (95) 
F 24

>  <SCORE>  (95) 
-11.889

>  <name>  (95) 
94

>  <ligand_id>  (95) 
94

>  <original_smiles>  (95) 
[H]c1c([H])c([H])c2c(c1[H])C([H])([H])C([H])([H])C([H])([H])C2([H])N([H])C(=O)C1([H])N(C(=O)C([H])(N([H])C(=O)C([H])(N([H])C([H])([H])[H])C([H])([H])[H])C(C([H])([H])[H])(C([H])([H])[H])C([H])([H])[H])C([H])([H])c2c([H])c(OC([H])(C([H])([H])[H])C([H])([H])[N+]([H])([H])C([H])([H])C([H])([H])C([H])([H])N([H])c3c([H])c([H])c([H])c(C([H])(N([H])C(=O)N4C([H])([H])C([H])([H])C([H])([H])C([H])(n5nc(-c6c([H])c([H])c(Oc7c([H])c([H])c(F)c([H])c7F)c([H])c6[H])c(C(=O)N([H])[H])c5N([H])[H])C4([H])[H])C([H])([H])[H])c3[H])c([H])c([H])c2C1([H])[H]

>  <smiles>  (95) 
[H]c1c([H])c([H])c2c(c1[H])C([H])([H])C([H])([H])C([H])([H])C2([H])N([H])C(=O)C1([H])N(C(=O)C([H])(N([H])C(=O)C([H])(N([H])C([H])([H])[H])C([H])([H])[H])C(C([H])([H])[H])(C([H])([H])[H])C([H])([H])[H])C([H])([H])c2c([H])c(OC([H])(C([H])([H])[H])C([H])([H])[N+]([H])([H])C([H])([H])C([H])([H])C([H])([H])N([H])c3c([H])c([H])c([H])c(C([H])(N([H])C(=O)N4C([H])([H])C([H])([H])C([H])([H])C([H])(n5nc(-c6c([H])c([H])c(Oc7c([H])c([H])c(F)c([H])c7F)c([H])c6[H])c(C(=O)N([H])[H])c5N([H])[H])C4([H])[H])C([H])([H])[H])c3[H])c([H])c([H])c2C1([H])[H]

$$$$
95:0:0
     RDKit          3D

 99107  0  0  1  0  0  0  0  0999 V2000
  -32.8030  -19.9830   16.4170 C   0  0  0  0  0  3  0  0  0  0  0  0
  -32.4100  -20.9570   17.3560 C   0  0  0  0  0  3  0  0  0  0  0  0
  -32.1200  -18.7530   16.3440 C   0  0  0  0  0  3  0  0  0  0  0  0
  -30.6280  -19.4830   18.1300 C   0  0  0  0  0  3  0  0  0  0  0  0
  -31.3270  -20.6990   18.2220 C   0  0  0  0  0  0  0  0  0  0  0  0
  -31.0240  -18.5000   17.2000 C   0  0  0  0  0  0  0  0  0  0  0  0
  -30.9120  -21.7140   19.2670 C   0  0  0  0  0  2  0  0  0  0  0  0
  -29.4990  -22.2620   19.0260 C   0  0  0  0  0  2  0  0  0  0  0  0
  -28.0760  -22.5150   21.0160 C   0  0  0  0  0  1  0  0  0  0  0  0
  -29.0900  -23.1530   20.1390 N   0  0  2  0  0  4  0  0  0  0  0  0
  -29.9200  -23.2760   20.7020 H   0  0  0  0  0  0  0  0  0  0  0  0
  -28.7180  -24.5120   19.6730 C   0  0  0  0  0  2  0  0  0  0  0  0
  -28.5650  -25.5050   20.8340 C   0  0  0  0  0  2  0  0  0  0  0  0
  -28.6010  -26.8390   20.3500 O   0  0  0  0  0  0  0  0  0  0  0  0
  -24.5580  -31.8450   23.2820 C   0  0  0  0  0  0  0  0  0  0  0  0
  -27.3980  -27.4920   20.3070 C   0  0  0  0  0  0  0  0  0  0  0  0
  -23.4370  -30.4290   21.5900 C   0  0  0  0  0  3  0  0  0  0  0  0
  -24.9700  -28.9210   20.2220 C   0  0  0  0  0  0  0  0  0  0  0  0
  -25.9570  -30.8420   21.4860 C   0  0  0  0  0  2  0  0  0  0  0  0
  -26.0890  -29.4730   20.8570 C   0  0  0  0  0  0  0  0  0  0  0  0
  -27.3060  -28.7670   20.8970 C   0  0  0  0  0  3  0  0  0  0  0  0
  -26.2620  -26.9370   19.6740 C   0  0  0  0  0  3  0  0  0  0  0  0
  -25.0500  -27.6480   19.6290 C   0  0  0  0  0  3  0  0  0  0  0  0
  -23.7080  -29.7510   20.2180 C   0  0  0  0  0  2  0  0  0  0  0  0
  -24.6660  -31.0520   22.1790 N   0  0  0  0  0  0  0  0  0  0  0  0
  -23.4560  -32.0980   23.7840 O   0  0  0  0  0  0  0  0  0  0  0  0
  -22.7660  -29.3960   22.5220 C   0  0  0  0  0  0  0  0  0  0  0  0
  -21.4490  -29.2020   22.3470 N   0  0  0  0  0  0  0  0  0  0  0  0
  -23.4270  -28.7700   23.3560 O   0  0  0  0  0  0  0  0  0  0  0  0
  -20.9820  -29.7580   21.6440 H   0  0  0  0  0  0  0  0  0  0  0  0
  -18.0690  -27.9800   22.7150 C   0  0  0  0  0  0  0  0  0  0  0  0
  -20.6130  -28.2530   23.0820 C   0  0  0  0  0  3  0  0  0  0  0  0
  -20.7470  -26.8270   22.5020 C   0  0  0  0  0  2  0  0  0  0  0  0
  -19.6830  -26.5030   21.4470 C   0  0  0  0  0  2  0  0  0  0  0  0
  -18.2780  -26.6350   22.0400 C   0  0  0  0  0  2  0  0  0  0  0  0
  -19.1660  -28.7460   23.1900 C   0  0  0  0  0  0  0  0  0  0  0  0
  -18.9180  -30.0060   23.7780 C   0  0  0  0  0  3  0  0  0  0  0  0
  -17.6060  -30.5010   23.8940 C   0  0  0  0  0  3  0  0  0  0  0  0
  -16.5220  -29.7300   23.4380 C   0  0  0  0  0  3  0  0  0  0  0  0
  -16.7550  -28.4720   22.8530 C   0  0  0  0  0  3  0  0  0  0  0  0
  -25.8150  -32.4870   23.9510 C   0  0  0  0  0  3  0  0  0  0  0  0
  -26.2600  -31.7500   25.2740 C   0  0  1  0  0  0  0  0  0  0  0  0
  -25.1060  -31.5310   26.2820 C   0  0  0  0  0  1  0  0  0  0  0  0
  -26.8690  -30.3690   24.9440 C   0  0  0  0  0  1  0  0  0  0  0  0
  -27.3720  -32.5650   25.9750 C   0  0  0  0  0  1  0  0  0  0  0  0
  -25.4970  -33.8930   24.2200 N   0  0  0  0  0  0  0  0  0  0  0  0
  -25.8900  -34.9210   23.4540 C   0  0  0  0  0  0  0  0  0  0  0  0
  -26.6270  -34.7830   22.4750 O   0  0  0  0  0  0  0  0  0  0  0  0
  -24.8500  -34.0730   24.9720 H   0  0  0  0  0  0  0  0  0  0  0  0
  -24.2030  -36.7100   22.9230 C   0  0  0  0  0  1  0  0  0  0  0  0
  -25.3790  -36.3230   23.8340 C   0  0  0  0  0  3  0  0  0  0  0  0
  -27.4550  -37.2160   24.7880 C   0  0  0  0  0  1  0  0  0  0  0  0
  -26.4220  -37.3690   23.7680 N   0  0  0  0  0  0  0  0  0  0  0  0
  -26.0130  -38.2920   23.8650 H   0  0  0  0  0  0  0  0  0  0  0  0
  -30.2960  -17.1650   17.1450 C   0  0  0  0  0  2  0  0  0  0  0  0
  -29.8980  -16.6780   18.4910 N   0  0  1  0  0  4  0  0  0  0  0  0
  -29.3200  -17.4150   18.8640 H   0  0  0  0  0  0  0  0  0  0  0  0
  -29.5900  -14.2440   17.7840 C   0  0  0  0  0  1  0  0  0  0  0  0
  -28.9860  -15.5000   18.4510 C   0  0  0  0  0  2  0  0  0  0  0  0
  -31.0160  -16.5340   19.4700 C   0  0  0  0  0  2  0  0  0  0  0  0
  -30.5680  -16.7630   20.9510 C   0  0  0  0  0  2  0  0  0  0  0  0
  -31.1830  -14.4850   21.7310 C   0  0  0  0  0  0  0  0  0  0  0  0
  -31.0020  -12.4000   20.4640 C   0  0  0  0  0  2  0  0  0  0  0  0
  -30.2400  -12.6950   19.1590 C   0  0  0  0  0  2  0  0  0  0  0  0
  -28.7130  -12.6670   19.3590 C   0  0  0  0  0  2  0  0  0  0  0  0
  -28.2360  -13.4240   20.6260 C   0  0  0  0  0  3  0  0  0  0  0  0
  -29.1150  -13.0730   21.8510 C   0  0  0  0  0  2  0  0  0  0  0  0
  -30.5210  -13.3260   21.4970 N   0  0  0  0  0  0  0  0  0  0  0  0
  -32.3930  -14.6530   21.5550 O   0  0  0  0  0  0  0  0  0  0  0  0
  -30.3520  -15.5320   21.7170 N   0  0  0  0  0  0  0  0  0  0  0  0
  -29.3950  -15.3170   21.9560 H   0  0  0  0  0  0  0  0  0  0  0  0
  -25.7770  -14.1080   20.9520 C   0  0  0  0  0  0  0  0  0  0  0  0
  -24.6420  -13.3620   21.1280 C   0  0  0  0  0  0  0  0  0  0  0  0
  -25.0670  -11.9990   21.1360 C   0  0  0  0  0  0  0  0  0  0  0  0
  -26.8190  -13.1950   20.8770 N   0  0  0  0  0  0  0  0  0  0  0  0
  -26.3850  -11.9240   21.0450 N   0  0  0  0  0  0  0  0  0  0  0  0
  -24.2930  -10.7540   21.1740 C   0  0  0  0  0  0  0  0  0  0  0  0
  -24.5660   -9.7480   22.1260 C   0  0  0  0  0  3  0  0  0  0  0  0
  -23.8000   -8.5630   22.1520 C   0  0  0  0  0  3  0  0  0  0  0  0
  -22.7450   -8.3830   21.2250 C   0  0  0  0  0  0  0  0  0  0  0  0
  -22.4910   -9.3780   20.2650 C   0  0  0  0  0  3  0  0  0  0  0  0
  -23.2590  -10.5550   20.2370 C   0  0  0  0  0  3  0  0  0  0  0  0
  -21.9610   -7.2560   21.1620 O   0  0  0  0  0  0  0  0  0  0  0  0
  -21.6930   -6.5020   22.2760 C   0  0  0  0  0  0  0  0  0  0  0  0
  -21.0930   -7.0590   23.4270 C   0  0  0  0  0  3  0  0  0  0  0  0
  -20.7770   -6.2320   24.5250 C   0  0  0  0  0  3  0  0  0  0  0  0
  -21.0460   -4.8520   24.4680 C   0  0  0  0  0  0  0  0  0  0  0  0
  -21.6360   -4.2960   23.3190 C   0  0  0  0  0  3  0  0  0  0  0  0
  -21.9560   -5.1200   22.2250 C   0  0  0  0  0  0  0  0  0  0  0  0
  -22.5040   -4.5750   21.1120 F   0  0  0  0  0  0  0  0  0  0  0  0
  -20.7300   -4.0560   25.5160 F   0  0  0  0  0  0  0  0  0  0  0  0
  -23.2350  -13.8760   21.1970 C   0  0  0  0  0  0  0  0  0  0  0  0
  -22.3720  -13.1850   21.9330 N   0  0  0  0  0  0  0  0  0  0  0  0
  -22.9060  -14.9200   20.6370 O   0  0  0  0  0  0  0  0  0  0  0  0
  -22.6540  -12.3370   22.4030 H   0  0  0  0  0  0  0  0  0  0  0  0
  -21.4170  -13.5020   22.0230 H   0  0  0  0  0  0  0  0  0  0  0  0
  -26.0070  -15.4740   20.8310 N   0  0  0  0  0  0  0  0  0  0  0  0
  -25.2450  -16.1430   20.8260 H   0  0  0  0  0  0  0  0  0  0  0  0
  -26.9140  -15.9050   20.7070 H   0  0  0  0  0  0  0  0  0  0  0  0
  1  2  1  0
  2  5  2  0
  3  1  2  0
  3  6  1  0
  4  5  1  0
  5  7  1  0
  6  4  2  0
  8  7  1  0
  8 10  1  0
 10 11  1  1
 10  9  1  0
 12 10  1  0
 12 13  1  0
 14 13  1  0
 15 26  2  0
 16 14  1  0
 16 21  1  0
 17 25  1  0
 17 27  1  0
 18 20  1  0
 19 25  1  0
 20 21  2  0
 20 19  1  0
 22 16  2  0
 23 22  1  0
 23 18  2  0
 24 18  1  0
 24 17  1  0
 25 15  1  0
 27 29  2  0
 28 27  1  0
 30 28  1  0
 31 40  2  0
 31 36  1  0
 32 28  1  0
 32 36  1  0
 33 32  1  0
 34 35  1  0
 34 33  1  0
 35 31  1  0
 36 37  2  0
 37 38  1  0
 39 38  2  0
 40 39  1  0
 41 15  1  0
 41 46  1  0
 41 42  1  0
 42 45  1  1
 42 43  1  0
 44 42  1  0
 46 49  1  0
 47 51  1  0
 47 46  1  0
 48 47  2  0
 51 50  1  0
 53 51  1  0
 53 54  1  0
 53 52  1  0
 55  6  1  0
 55 56  1  0
 56 57  1  1
 56 60  1  0
 58 59  1  0
 59 56  1  0
 60 61  1  0
 61 70  1  0
 63 68  1  0
 64 65  1  0
 64 63  1  0
 66 65  1  0
 66 75  1  0
 66 67  1  0
 68 62  1  0
 68 67  1  0
 69 62  2  0
 70 62  1  0
 70 71  1  0
 72 73  2  0
 73 74  1  0
 73 92  1  0
 74 77  1  0
 75 72  1  0
 75 76  1  0
 76 74  2  0
 77 78  1  0
 78 79  2  0
 80 79  1  0
 81 80  2  0
 82 81  1  0
 82 77  2  0
 83 80  1  0
 83 84  1  0
 84 85  1  0
 85 86  2  0
 87 86  1  0
 87 91  1  0
 88 87  2  0
 89 84  2  0
 89 88  1  0
 90 89  1  0
 92 93  1  0
 93 96  1  0
 93 95  1  0
 94 92  2  0
 97 72  1  0
 98 97  1  0
 99 97  1  0
M  ISO  4  13 101  14 101  62 100  70 100
M  END
>  <TORSDO>  (96) 
F 26

>  <SCORE>  (96) 
-8.261

>  <name>  (96) 
95

>  <ligand_id>  (96) 
95

>  <original_smiles>  (96) 
[H]c1c([H])c([H])c2c(c1[H])C([H])([H])C([H])([H])C([H])([H])C2([H])N([H])C(=O)C1([H])N(C(=O)C([H])(N([H])C(=O)C([H])(N([H])C([H])([H])[H])C([H])([H])[H])C(C([H])([H])[H])(C([H])([H])[H])C([H])([H])[H])C([H])([H])c2c([H])c(OC([H])([H])C([H])([H])[N+]([H])(C([H])([H])[H])C([H])([H])C([H])([H])c3c([H])c([H])c([H])c(C([H])([H])[N+]([H])(C([H])([H])C([H])([H])[H])C([H])([H])C([H])([H])N([H])C(=O)N4C([H])([H])C([H])([H])C([H])([H])C([H])(n5nc(-c6c([H])c([H])c(Oc7c([H])c([H])c(F)c([H])c7F)c([H])c6[H])c(C(=O)N([H])[H])c5N([H])[H])C4([H])[H])c3[H])c([H])c([H])c2C1([H])[H]

>  <smiles>  (96) 
[H]c1c([H])c([H])c2c(c1[H])C([H])([H])C([H])([H])C([H])([H])C2([H])N([H])C(=O)C1([H])N(C(=O)C([H])(N([H])C(=O)C([H])(N([H])C([H])([H])[H])C([H])([H])[H])C(C([H])([H])[H])(C([H])([H])[H])C([H])([H])[H])C([H])([H])c2c([H])c(OC([H])([H])C([H])([H])[N+]([H])(C([H])([H])[H])C([H])([H])C([H])([H])c3c([H])c([H])c([H])c(C([H])([H])[N+]([H])(C([H])([H])C([H])([H])[H])C([H])([H])C([H])([H])N([H])C(=O)N4C([H])([H])C([H])([H])C([H])([H])C([H])(n5nc(-c6c([H])c([H])c(Oc7c([H])c([H])c(F)c([H])c7F)c([H])c6[H])c(C(=O)N([H])[H])c5N([H])[H])C4([H])[H])c3[H])c([H])c([H])c2C1([H])[H]

$$$$
97:0:0
     RDKit          3D

 96104  0  0  1  0  0  0  0  0999 V2000
  -28.2550  -20.7620   21.7860 C   0  0  0  0  0  3  0  0  0  0  0  0
  -28.0270  -21.5950   20.6760 C   0  0  0  0  0  3  0  0  0  0  0  0
  -29.5210  -20.1770   21.9830 C   0  0  0  0  0  3  0  0  0  0  0  0
  -30.3470  -21.2980   19.9830 C   0  0  0  0  0  3  0  0  0  0  0  0
  -29.0770  -21.8690   19.7730 C   0  0  0  0  0  0  0  0  0  0  0  0
  -30.5670  -20.4260   21.0650 C   0  0  0  0  0  0  0  0  0  0  0  0
  -31.8010  -19.7680   21.1470 N   0  0  0  0  0  0  0  0  0  0  0  0
  -32.5130  -20.0990   20.5010 H   0  0  0  0  0  0  0  0  0  0  0  0
  -31.7690  -18.3200   21.3490 C   0  0  0  0  0  2  0  0  0  0  0  0
  -31.8130  -17.5020   20.0380 C   0  0  0  0  0  2  0  0  0  0  0  0
  -33.0030  -16.5380   19.9400 C   0  0  0  0  0  2  0  0  0  0  0  0
  -33.3390  -14.4970   18.6060 C   0  0  0  0  0  0  0  0  0  0  0  0
  -32.6380  -12.1460   18.3850 C   0  0  0  0  0  2  0  0  0  0  0  0
  -31.5980  -12.0110   17.2540 C   0  0  0  0  0  2  0  0  0  0  0  0
  -30.1750  -12.2600   17.7950 C   0  0  0  0  0  2  0  0  0  0  0  0
  -30.0700  -13.5540   18.6460 C   0  0  0  0  0  3  0  0  0  0  0  0
  -31.2200  -13.6300   19.6780 C   0  0  0  0  0  2  0  0  0  0  0  0
  -32.4990  -13.4900   18.9640 N   0  0  0  0  0  0  0  0  0  0  0  0
  -34.3710  -14.3260   17.9610 O   0  0  0  0  0  0  0  0  0  0  0  0
  -32.8670  -15.7380   18.7280 N   0  0  0  0  0  0  0  0  0  0  0  0
  -33.1610  -16.2820   17.9300 H   0  0  0  0  0  0  0  0  0  0  0  0
  -28.0450  -14.7910   19.6550 C   0  0  0  0  0  0  0  0  0  0  0  0
  -26.8460  -14.3420   20.1390 C   0  0  0  0  0  0  0  0  0  0  0  0
  -26.8880  -12.9180   20.0380 C   0  0  0  0  0  0  0  0  0  0  0  0
  -28.7580  -13.6600   19.2870 N   0  0  0  0  0  0  0  0  0  0  0  0
  -28.0680  -12.5260   19.5760 N   0  0  0  0  0  0  0  0  0  0  0  0
  -25.8550  -11.9070   20.2960 C   0  0  0  0  0  0  0  0  0  0  0  0
  -26.0530  -10.8580   21.2230 C   0  0  0  0  0  3  0  0  0  0  0  0
  -25.0290   -9.9180   21.4680 C   0  0  0  0  0  3  0  0  0  0  0  0
  -23.7930  -10.0190   20.7870 C   0  0  0  0  0  0  0  0  0  0  0  0
  -23.6110  -11.0480   19.8470 C   0  0  0  0  0  3  0  0  0  0  0  0
  -24.6320  -11.9800   19.5980 C   0  0  0  0  0  3  0  0  0  0  0  0
  -22.7530   -9.1320   20.9440 O   0  0  0  0  0  0  0  0  0  0  0  0
  -22.4860   -8.5400   22.1520 C   0  0  0  0  0  0  0  0  0  0  0  0
  -22.2280   -9.3010   23.3140 C   0  0  0  0  0  3  0  0  0  0  0  0
  -21.8900   -8.6520   24.5180 C   0  0  0  0  0  3  0  0  0  0  0  0
  -21.8020   -7.2470   24.5630 C   0  0  0  0  0  0  0  0  0  0  0  0
  -22.0570   -6.4890   23.4050 C   0  0  0  0  0  3  0  0  0  0  0  0
  -22.3930   -7.1350   22.2020 C   0  0  0  0  0  0  0  0  0  0  0  0
  -22.6140   -6.4000   21.0850 F   0  0  0  0  0  0  0  0  0  0  0  0
  -21.4700   -6.6240   25.7170 F   0  0  0  0  0  0  0  0  0  0  0  0
  -25.6840  -15.1850   20.5860 C   0  0  0  0  0  0  0  0  0  0  0  0
  -24.9090  -14.6990   21.5500 N   0  0  0  0  0  0  0  0  0  0  0  0
  -25.4850  -16.3020   20.1100 O   0  0  0  0  0  0  0  0  0  0  0  0
  -25.0850  -13.7920   21.9560 H   0  0  0  0  0  0  0  0  0  0  0  0
  -24.1280  -15.2420   21.8890 H   0  0  0  0  0  0  0  0  0  0  0  0
  -28.5810  -16.0630   19.4780 N   0  0  0  0  0  0  0  0  0  0  0  0
  -28.0650  -16.9080   19.6970 H   0  0  0  0  0  0  0  0  0  0  0  0
  -29.5030  -16.2440   19.0970 H   0  0  0  0  0  0  0  0  0  0  0  0
  -28.8310  -22.7440   18.5600 C   0  0  0  0  0  2  0  0  0  0  0  0
  -29.0420  -24.1620   18.8970 N   0  0  0  0  0  4  0  0  0  0  0  0
  -29.9820  -24.4110   18.6280 H   0  0  0  0  0  0  0  0  0  0  0  0
  -28.9890  -24.2320   19.9010 H   0  0  0  0  0  0  0  0  0  0  0  0
  -28.0550  -25.0660   18.2640 C   0  0  0  0  0  2  0  0  0  0  0  0
  -28.2200  -26.5360   18.6740 C   0  0  0  0  0  2  0  0  0  0  0  0
  -27.3070  -27.2740   17.8690 O   0  0  0  0  0  0  0  0  0  0  0  0
  -25.5840  -30.6160   23.9040 C   0  0  0  0  0  0  0  0  0  0  0  0
  -26.3910  -28.0100   18.5710 C   0  0  0  0  0  0  0  0  0  0  0  0
  -23.7710  -30.3990   22.2320 C   0  0  0  0  0  3  0  0  0  0  0  0
  -24.4930  -29.5930   19.9240 C   0  0  0  0  0  0  0  0  0  0  0  0
  -26.2170  -30.4790   21.5020 C   0  0  0  0  0  2  0  0  0  0  0  0
  -25.8340  -29.6000   20.3320 C   0  0  0  0  0  0  0  0  0  0  0  0
  -26.7900  -28.8080   19.6620 C   0  0  0  0  0  3  0  0  0  0  0  0
  -25.0450  -28.0100   18.1590 C   0  0  0  0  0  3  0  0  0  0  0  0
  -24.0900  -28.7950   18.8370 C   0  0  0  0  0  3  0  0  0  0  0  0
  -23.5370  -30.4730   20.7000 C   0  0  0  0  0  2  0  0  0  0  0  0
  -25.2230  -30.4770   22.5980 N   0  0  0  0  0  0  0  0  0  0  0  0
  -24.7290  -30.7280   24.7950 O   0  0  0  0  0  0  0  0  0  0  0  0
  -23.0680  -29.1360   22.7780 C   0  0  0  0  0  0  0  0  0  0  0  0
  -21.7410  -29.0630   22.5820 N   0  0  0  0  0  0  0  0  0  0  0  0
  -23.7120  -28.2400   23.3290 O   0  0  0  0  0  0  0  0  0  0  0  0
  -21.2900  -29.8410   22.1220 H   0  0  0  0  0  0  0  0  0  0  0  0
  -18.4200  -27.6950   22.1960 C   0  0  0  0  0  0  0  0  0  0  0  0
  -20.8720  -27.9560   22.9720 C   0  0  0  0  0  3  0  0  0  0  0  0
  -21.1690  -26.6960   22.1280 C   0  0  0  0  0  2  0  0  0  0  0  0
  -20.2780  -26.5790   20.8860 C   0  0  0  0  0  2  0  0  0  0  0  0
  -18.8000  -26.5370   21.2860 C   0  0  0  0  0  2  0  0  0  0  0  0
  -19.3960  -28.3720   22.9730 C   0  0  0  0  0  0  0  0  0  0  0  0
  -18.9980  -29.4670   23.7710 C   0  0  0  0  0  3  0  0  0  0  0  0
  -17.6550  -29.8840   23.8030 C   0  0  0  0  0  3  0  0  0  0  0  0
  -16.6900  -29.1980   23.0430 C   0  0  0  0  0  3  0  0  0  0  0  0
  -17.0720  -28.1050   22.2440 C   0  0  0  0  0  3  0  0  0  0  0  0
  -27.0820  -30.6660   24.3410 C   0  0  0  0  0  3  0  0  0  0  0  0
  -27.2340  -31.7880   25.2750 N   0  0  0  0  0  0  0  0  0  0  0  0
  -27.8330  -32.9490   24.9760 C   0  0  0  0  0  0  0  0  0  0  0  0
  -28.3870  -33.1590   23.8930 O   0  0  0  0  0  0  0  0  0  0  0  0
  -26.7570  -31.7050   26.1620 H   0  0  0  0  0  0  0  0  0  0  0  0
  -26.7570  -35.1060   25.6880 C   0  0  0  0  0  1  0  0  0  0  0  0
  -27.8160  -34.0520   26.0500 C   0  0  0  0  0  3  0  0  0  0  0  0
  -30.1290  -33.8270   26.8390 C   0  0  0  0  0  1  0  0  0  0  0  0
  -29.1270  -34.7060   26.2430 N   0  0  0  0  0  0  0  0  0  0  0  0
  -29.0380  -35.5290   26.8330 H   0  0  0  0  0  0  0  0  0  0  0  0
  -27.5830  -29.3190   24.9920 C   0  0  1  0  0  0  0  0  0  0  0  0
  -26.6700  -28.8010   26.1250 C   0  0  0  0  0  1  0  0  0  0  0  0
  -27.6880  -28.2080   23.9210 C   0  0  0  0  0  1  0  0  0  0  0  0
  -29.0020  -29.5180   25.5760 C   0  0  0  0  0  1  0  0  0  0  0  0
  1  3  1  0
  2  1  2  0
  4  6  1  0
  5  4  2  0
  5  2  1  0
  6  7  1  0
  6  3  2  0
  7  9  1  0
  8  7  1  0
 10  9  1  0
 11 10  1  0
 12 20  1  0
 12 18  1  0
 13 18  1  0
 14 15  1  0
 14 13  1  0
 16 15  1  0
 16 25  1  0
 16 17  1  0
 18 17  1  0
 19 12  2  0
 20 11  1  0
 21 20  1  0
 22 23  2  0
 23 42  1  0
 24 23  1  0
 24 27  1  0
 25 26  1  0
 25 22  1  0
 26 24  2  0
 27 28  1  0
 28 29  2  0
 30 33  1  0
 30 29  1  0
 31 30  2  0
 32 31  1  0
 32 27  2  0
 33 34  1  0
 34 39  2  0
 34 35  1  0
 35 36  2  0
 36 37  1  0
 37 41  1  0
 38 37  2  0
 39 38  1  0
 40 39  1  0
 42 43  1  0
 43 46  1  0
 43 45  1  0
 44 42  2  0
 47 22  1  0
 47 48  1  0
 49 47  1  0
 50 51  1  0
 50  5  1  0
 51 53  1  0
 52 51  1  0
 54 55  1  0
 54 51  1  0
 56 58  1  0
 56 55  1  0
 57 68  2  0
 58 63  1  0
 59 67  1  0
 59 69  1  0
 60 62  1  0
 60 66  1  0
 61 67  1  0
 62 61  1  0
 63 62  2  0
 64 58  2  0
 64 65  1  0
 65 60  2  0
 66 59  1  0
 67 57  1  0
 69 71  2  0
 70 69  1  0
 72 70  1  0
 73 82  2  0
 73 78  1  0
 74 70  1  0
 74 78  1  0
 75 74  1  0
 76 77  1  0
 76 75  1  0
 77 73  1  0
 78 79  2  0
 79 80  1  0
 81 80  2  0
 82 81  1  0
 83 57  1  0
 83 93  1  0
 83 84  1  0
 84 87  1  0
 85 84  1  0
 85 89  1  0
 86 85  2  0
 89 88  1  0
 89 91  1  0
 91 92  1  0
 91 90  1  0
 93 96  1  1
 93 94  1  0
 95 93  1  0
M  ISO  4  12 100  20 100  55 101  56 101
M  END
>  <TORSDO>  (97) 
F 24

>  <SCORE>  (97) 
-5.265

>  <name>  (97) 
97

>  <ligand_id>  (97) 
97

>  <original_smiles>  (97) 
[H]c1c([H])c([H])c2c(c1[H])C([H])([H])C([H])([H])C([H])([H])C2([H])N([H])C(=O)C1([H])N(C(=O)C([H])(N([H])C(=O)C([H])(N([H])C([H])([H])[H])C([H])([H])[H])C(C([H])([H])[H])(C([H])([H])[H])C([H])([H])[H])C([H])([H])c2c([H])c(OC([H])([H])C([H])([H])[N+]([H])([H])C([H])([H])c3c([H])c([H])c([H])c(N([H])C([H])([H])C([H])([H])C([H])([H])N([H])C(=O)N4C([H])([H])C([H])([H])C([H])([H])C([H])(n5nc(-c6c([H])c([H])c(Oc7c([H])c([H])c(F)c([H])c7F)c([H])c6[H])c(C(=O)N([H])[H])c5N([H])[H])C4([H])[H])c3[H])c([H])c([H])c2C1([H])[H]

>  <smiles>  (97) 
[H]c1c([H])c([H])c2c(c1[H])C([H])([H])C([H])([H])C([H])([H])C2([H])N([H])C(=O)C1([H])N(C(=O)C([H])(N([H])C(=O)C([H])(N([H])C([H])([H])[H])C([H])([H])[H])C(C([H])([H])[H])(C([H])([H])[H])C([H])([H])[H])C([H])([H])c2c([H])c(OC([H])([H])C([H])([H])[N+]([H])([H])C([H])([H])c3c([H])c([H])c([H])c(N([H])C([H])([H])C([H])([H])C([H])([H])N([H])C(=O)N4C([H])([H])C([H])([H])C([H])([H])C([H])(n5nc(-c6c([H])c([H])c(Oc7c([H])c([H])c(F)c([H])c7F)c([H])c6[H])c(C(=O)N([H])[H])c5N([H])[H])C4([H])[H])c3[H])c([H])c([H])c2C1([H])[H]

$$$$
98:0:0
     RDKit          3D

 92 97  0  0  1  0  0  0  0  0999 V2000
  -28.0710  -13.3550   22.0970 C   0  0  0  0  0  3  0  0  0  0  0  0
  -28.0320  -15.2290   21.9740 C   0  0  0  0  0  3  0  0  0  0  0  0
  -27.5590  -13.4550   18.8940 C   0  0  0  0  0  3  0  0  0  0  0  0
  -27.9060  -12.3430   20.4440 C   0  0  0  0  0  0  0  0  0  0  0  0
  -27.7400  -15.3120   19.0900 C   0  0  0  0  0  0  0  0  0  0  0  0
  -27.8480  -16.3280   20.5530 C   0  0  0  0  0  0  0  0  0  0  0  0
  -28.0040  -10.8230   20.4250 C   0  0  0  0  0  1  0  0  0  0  0  0
  -27.8400  -18.1620   20.3670 N   0  0  0  0  0  2  0  0  0  0  0  0
  -27.5890  -18.2570   19.3860 H   0  0  0  0  0  0  0  0  0  0  0  0
  -28.1050  -20.0950   20.8010 C   0  0  0  0  0 15  0  0  0  0  0  0
  -27.7320  -22.3470   20.3910 C   0  0  0  0  0 15  0  0  0  0  0  0
  -28.0210  -24.3850   20.6680 O   0  0  0  0  0  1  0  0  0  0  0  0
  -24.7640  -31.5500   23.1380 C   0  0  0  0  0  0  0  0  0  0  0  0
  -27.3620  -25.9540   20.4930 C   0  0  0  0  0  0  0  0  0  0  0  0
  -23.7950  -30.1320   21.3970 C   0  0  0  0  0  3  0  0  0  0  0  0
  -25.3700  -28.4280   20.1340 C   0  0  0  0  0  0  0  0  0  0  0  0
  -26.3750  -30.1220   21.6180 C   0  0  0  0  0  2  0  0  0  0  0  0
  -26.4740  -28.6320   20.9640 C   0  0  0  0  0  0  0  0  0  0  0  0
  -27.4520  -27.4340   21.0990 C   0  0  0  0  0  3  0  0  0  0  0  0
  -26.3200  -26.1500   19.5400 C   0  0  0  0  0  3  0  0  0  0  0  0
  -25.3830  -27.2350   19.3890 C   0  0  0  0  0  3  0  0  0  0  0  0
  -24.2050  -29.4470   20.0550 C   0  0  0  0  0  2  0  0  0  0  0  0
  -25.0070  -30.6550   22.1020 N   0  0  0  0  0  0  0  0  0  0  0  0
  -23.6100  -31.8410   23.5060 O   0  0  0  0  0  0  0  0  0  0  0  0
  -22.9790  -29.1530   22.2860 C   0  0  0  0  0  0  0  0  0  0  0  0
  -21.6440  -29.0810   22.1180 N   0  0  0  0  0  0  0  0  0  0  0  0
  -23.5680  -28.4580   23.1180 O   0  0  0  0  0  0  0  0  0  0  0  0
  -21.2120  -29.6900   21.4370 H   0  0  0  0  0  0  0  0  0  0  0  0
  -18.1750  -28.1070   22.6300 C   0  0  0  0  0  0  0  0  0  0  0  0
  -20.7560  -28.1360   22.8120 C   0  0  0  0  0  3  0  0  0  0  0  0
  -20.7130  -26.7760   22.0740 C   0  0  0  0  0  2  0  0  0  0  0  0
  -19.5600  -26.6710   21.0720 C   0  0  0  0  0  2  0  0  0  0  0  0
  -18.2150  -26.8450   21.7830 C   0  0  0  0  0  2  0  0  0  0  0  0
  -19.3680  -28.7210   23.0990 C   0  0  0  0  0  0  0  0  0  0  0  0
  -19.2690  -29.9060   23.8620 C   0  0  0  0  0  3  0  0  0  0  0  0
  -18.0150  -30.4750   24.1510 C   0  0  0  0  0  3  0  0  0  0  0  0
  -16.8390  -29.8570   23.6930 C   0  0  0  0  0  3  0  0  0  0  0  0
  -16.9200  -28.6720   22.9390 C   0  0  0  0  0  3  0  0  0  0  0  0
  -25.9110  -32.2630   23.9180 C   0  0  0  0  0  3  0  0  0  0  0  0
  -25.5150  -33.6710   24.1700 N   0  0  0  0  0  0  0  0  0  0  0  0
  -25.8900  -34.7370   23.4470 C   0  0  0  0  0  0  0  0  0  0  0  0
  -26.6540  -34.6410   22.4850 O   0  0  0  0  0  0  0  0  0  0  0  0
  -24.8400  -33.8160   24.9060 H   0  0  0  0  0  0  0  0  0  0  0  0
  -24.1370  -36.4890   22.9590 C   0  0  0  0  0  1  0  0  0  0  0  0
  -25.3380  -36.1260   23.8480 C   0  0  0  0  0  3  0  0  0  0  0  0
  -27.3800  -37.1160   24.7990 C   0  0  0  0  0  1  0  0  0  0  0  0
  -26.3440  -37.2110   23.7740 N   0  0  0  0  0  0  0  0  0  0  0  0
  -25.8990  -38.1210   23.8560 H   0  0  0  0  0  0  0  0  0  0  0  0
  -26.2410  -31.5700   25.2990 C   0  0  1  0  0  0  0  0  0  0  0  0
  -25.0040  -31.3590   26.2070 C   0  0  0  0  0  1  0  0  0  0  0  0
  -26.8950  -30.1880   25.0930 C   0  0  0  0  0  1  0  0  0  0  0  0
  -27.2670  -32.4210   26.0830 C   0  0  0  0  0  1  0  0  0  0  0  0
  -28.8670  -15.9420   18.1460 C   0  0  0  0  0  2  0  0  0  0  0  0
  -30.5240  -15.5900   18.1400 C   0  0  0  0  0  2  0  0  0  0  0  0
  -32.1140  -14.3870   20.1350 C   0  0  0  0  0  0  0  0  0  0  0  0
  -31.7430  -11.9750   19.6280 C   0  0  0  0  0  2  0  0  0  0  0  0
  -30.9940  -12.2330   18.3700 C   0  0  0  0  0  2  0  0  0  0  0  0
  -29.6990  -12.8820   18.7300 C   0  0  0  0  0  2  0  0  0  0  0  0
  -29.2900  -13.9360   20.2030 C   0  0  0  0  0  2  0  0  0  0  0  0
  -30.3960  -13.1850   21.1040 C   0  0  0  0  0  2  0  0  0  0  0  0
  -31.5390  -13.1950   20.3760 N   0  0  0  0  0  0  0  0  0  0  0  0
  -33.1790  -14.5610   20.6760 O   0  0  0  0  0  0  0  0  0  0  0  0
  -31.5900  -15.3750   19.2710 N   0  0  0  0  0  0  0  0  0  0  0  0
  -32.1890  -16.1860   19.3290 H   0  0  0  0  0  0  0  0  0  0  0  0
  -25.3980  -14.5770   20.4660 C   0  0  0  0  0  3  0  0  0  0  0  0
  -24.4510  -13.5750   20.5690 C   0  0  2  0  0  0  0  0  0  0  0  0
  -24.9730  -12.3050   20.8380 C   0  0  0  0  0  3  0  0  0  0  0  0
  -26.5470  -14.1410   20.9430 N   0  0  0  0  0  2  0  0  0  0  0  0
  -25.8060  -12.9510   21.6160 N   0  0  0  0  0  0  0  0  0  0  0  0
  -24.3590  -10.8920   20.9720 C   0  0  0  0  0  0  0  0  0  0  0  0
  -24.7540   -9.8200   21.8370 C   0  0  0  0  0  3  0  0  0  0  0  0
  -23.9950   -8.6110   21.9480 C   0  0  0  0  0  3  0  0  0  0  0  0
  -22.8040   -8.4320   21.1990 C   0  0  0  0  0  0  0  0  0  0  0  0
  -22.4560   -9.4420   20.2870 C   0  0  0  0  0  3  0  0  0  0  0  0
  -23.2260  -10.6200   20.1650 C   0  0  0  0  0  3  0  0  0  0  0  0
  -21.9740   -7.3230   21.2410 O   0  0  0  0  0  0  0  0  0  0  0  0
  -21.8690   -6.4980   22.3380 C   0  0  0  0  0  0  0  0  0  0  0  0
  -21.5530   -6.9910   23.6240 C   0  0  0  0  0  3  0  0  0  0  0  0
  -21.4020   -6.1020   24.7090 C   0  0  0  0  0  3  0  0  0  0  0  0
  -21.5540   -4.7140   24.5120 C   0  0  0  0  0  0  0  0  0  0  0  0
  -21.8440   -4.2180   23.2300 C   0  0  0  0  0  3  0  0  0  0  0  0
  -21.9930   -5.1030   22.1490 C   0  0  0  0  0  0  0  0  0  0  0  0
  -22.2460   -4.6080   20.9120 F   0  0  0  0  0  0  0  0  0  0  0  0
  -21.4180   -3.8600   25.5540 F   0  0  0  0  0  0  0  0  0  0  0  0
  -23.0660  -13.9230   20.7950 C   0  0  0  0  0  0  0  0  0  0  0  0
  -22.4190  -13.2550   21.7420 N   0  0  0  0  0  0  0  0  0  0  0  0
  -22.6240  -14.9080   20.2320 O   0  0  0  0  0  0  0  0  0  0  0  0
  -22.8680  -12.5000   22.2390 H   0  0  0  0  0  0  0  0  0  0  0  0
  -21.4730  -13.5130   21.9830 H   0  0  0  0  0  0  0  0  0  0  0  0
  -25.3570  -15.9090   20.2050 N   0  0  0  0  0  0  0  0  0  0  0  0
  -26.1600  -16.5270   20.2470 H   0  0  0  0  0  0  0  0  0  0  0  0
  -24.4820  -16.3870   20.0240 H   0  0  0  0  0  0  0  0  0  0  0  0
  2  1  1  0
  3  5  2  0
  3  4  1  0
  4  1  2  0
  5  6  1  0
  6  2  2  0
  7  4  1  0
  8  6  1  0
  9  8  1  0
 13 24  2  0
 14 12  1  0
 14 19  1  0
 15 23  1  0
 15 25  1  0
 16 18  1  0
 17 23  1  0
 18 19  2  0
 18 17  1  0
 20 14  2  0
 21 20  1  0
 21 16  2  0
 22 16  1  0
 22 15  1  0
 23 13  1  0
 25 27  2  0
 26 25  1  0
 28 26  1  0
 29 38  2  0
 29 34  1  0
 30 26  1  0
 30 34  1  0
 31 30  1  0
 32 33  1  0
 32 31  1  0
 33 29  1  0
 34 35  2  0
 35 36  1  0
 37 36  2  0
 38 37  1  0
 39 13  1  0
 39 40  1  0
 39 49  1  0
 40 43  1  0
 41 45  1  0
 41 40  1  0
 42 41  2  0
 45 44  1  0
 47 45  1  0
 47 48  1  0
 47 46  1  0
 49 52  1  1
 49 50  1  0
 51 49  1  0
 53  5  1  0
 54 53  1  0
 54 63  1  0
 55 61  1  0
 55 62  2  0
 56 61  1  0
 57 58  1  0
 57 56  1  0
 58 59  1  0
 59 60  1  0
 61 60  1  0
 63 64  1  0
 63 55  1  0
 65 90  1  0
 65 66  1  0
 65 68  1  0
 66 85  1  6
 66 67  1  0
 66 69  1  0
 67 70  1  0
 67 69  1  0
 69 68  1  0
 70 71  1  0
 71 72  2  0
 73 76  1  0
 73 72  1  0
 74 73  2  0
 75 74  1  0
 75 70  2  0
 76 77  1  0
 77 78  1  0
 78 79  2  0
 80 79  1  0
 80 84  1  0
 81 80  2  0
 82 77  2  0
 82 81  1  0
 83 82  1  0
 85 86  1  0
 86 89  1  0
 86 88  1  0
 87 85  2  0
 90 91  1  0
 92 90  1  0
M  ISO  4  11 101  12 101  55 100  63 100
M  END
>  <TORSDO>  (98) 
F 21

>  <SCORE>  (98) 
-11.348

>  <name>  (98) 
98

>  <ligand_id>  (98) 
98

>  <original_smiles>  (98) 
[H]c1c([H])c([H])c2c(c1[H])C([H])([H])C([H])([H])C([H])([H])C2([H])N([H])C(=O)C1([H])N(C(=O)C([H])(N([H])C(=O)C([H])(N([H])C([H])([H])[H])C([H])([H])[H])C(C([H])([H])[H])(C([H])([H])[H])C([H])([H])[H])C([H])([H])c2c([H])c(OC([H])([H])C([H])([H])N([H])c3c([H])c([H])c(C([H])([H])[H])c([H])c3C([H])([H])C([H])([H])N([H])C(=O)N3C([H])([H])C([H])([H])C([H])([H])C([H])(n4nc(-c5c([H])c([H])c(Oc6c([H])c([H])c(F)c([H])c6F)c([H])c5[H])c(C(=O)N([H])[H])c4N([H])[H])C3([H])[H])c([H])c([H])c2C1([H])[H]

>  <smiles>  (98) 
[H]c1c([H])c([H])c2c(c1[H])C([H])([H])C([H])([H])C([H])([H])C2([H])N([H])C(=O)C1([H])N(C(=O)C([H])(N([H])C(=O)C([H])(N([H])C([H])([H])[H])C([H])([H])[H])C(C([H])([H])[H])(C([H])([H])[H])C([H])([H])[H])C([H])([H])c2c([H])c(OC([H])([H])C([H])([H])N([H])c3c([H])c([H])c(C([H])([H])[H])c([H])c3C([H])([H])C([H])([H])N([H])C(=O)N3C([H])([H])C([H])([H])C([H])([H])C([H])(n4nc(-c5c([H])c([H])c(Oc6c([H])c([H])c(F)c([H])c6F)c([H])c5[H])c(C(=O)N([H])[H])c4N([H])[H])C3([H])[H])c([H])c([H])c2C1([H])[H]

$$$$
