0:0:0
     RDKit          3D

 95103  0  0  1  0  0  0  0  0999 V2000
  -31.4230  -21.1940   20.7310 C   0  0  0  0  0  1  0  0  0  0  0  0
  -29.9660  -20.7970   20.4190 C   0  0  0  0  0  3  0  0  0  0  0  0
  -29.0050  -21.9830   20.9020 N   0  0  0  0  0  4  0  0  0  0  0  0
  -28.1250  -21.8280   20.4350 H   0  0  0  0  0  0  0  0  0  0  0  0
  -28.8170  -21.8230   21.8810 H   0  0  0  0  0  0  0  0  0  0  0  0
  -29.3380  -23.5500   20.7540 C   0  0  0  0  0  3  0  0  0  0  0  0
  -28.2020  -24.8200   20.7880 C   0  0  0  0  0  3  0  0  0  0  0  0
  -28.4410  -26.3750   20.7090 O   0  0  0  0  0  0  0  0  0  0  0  0
  -24.5520  -32.0620   23.3980 C   0  0  0  0  0  0  0  0  0  0  0  0
  -27.3620  -27.3380   20.5870 C   0  0  0  0  0  0  0  0  0  0  0  0
  -23.4530  -30.6040   21.7430 C   0  0  0  0  0  3  0  0  0  0  0  0
  -24.9950  -29.0350   20.4140 C   0  0  0  0  0  0  0  0  0  0  0  0
  -26.0040  -30.9290   21.6690 C   0  0  0  0  0  2  0  0  0  0  0  0
  -26.1400  -29.5230   21.0570 C   0  0  0  0  0  0  0  0  0  0  0  0
  -27.3240  -28.6920   21.1220 C   0  0  0  0  0  3  0  0  0  0  0  0
  -26.1910  -26.9600   19.8910 C   0  0  0  0  0  3  0  0  0  0  0  0
  -25.0360  -27.7690   19.8130 C   0  0  0  0  0  3  0  0  0  0  0  0
  -23.7450  -29.9030   20.3900 C   0  0  0  0  0  2  0  0  0  0  0  0
  -24.6870  -31.2230   22.3260 N   0  0  0  0  0  0  0  0  0  0  0  0
  -23.4390  -32.3270   23.8790 O   0  0  0  0  0  0  0  0  0  0  0  0
  -22.7640  -29.6000   22.7010 C   0  0  0  0  0  0  0  0  0  0  0  0
  -21.4450  -29.3930   22.5300 N   0  0  0  0  0  0  0  0  0  0  0  0
  -23.4200  -29.0060   23.5620 O   0  0  0  0  0  0  0  0  0  0  0  0
  -20.9700  -29.9250   21.8140 H   0  0  0  0  0  0  0  0  0  0  0  0
  -18.0790  -28.1180   22.9390 C   0  0  0  0  0  0  0  0  0  0  0  0
  -20.6200  -28.4500   23.2900 C   0  0  0  0  0  3  0  0  0  0  0  0
  -20.7750  -27.0110   22.7490 C   0  0  0  0  0  2  0  0  0  0  0  0
  -19.7180  -26.6410   21.7030 C   0  0  0  0  0  2  0  0  0  0  0  0
  -18.3120  -26.7630   22.2950 C   0  0  0  0  0  2  0  0  0  0  0  0
  -19.1630  -28.9170   23.3930 C   0  0  0  0  0  0  0  0  0  0  0  0
  -18.8910  -30.1820   23.9570 C   0  0  0  0  0  3  0  0  0  0  0  0
  -17.5690  -30.6510   24.0700 C   0  0  0  0  0  3  0  0  0  0  0  0
  -16.4990  -29.8520   23.6310 C   0  0  0  0  0  3  0  0  0  0  0  0
  -16.7550  -28.5860   23.0730 C   0  0  0  0  0  3  0  0  0  0  0  0
  -25.7870  -32.7450   24.0600 C   0  0  0  0  0  3  0  0  0  0  0  0
  -25.4420  -34.1550   24.3080 N   0  0  0  0  0  0  0  0  0  0  0  0
  -25.8150  -35.1810   23.5330 C   0  0  0  0  0  0  0  0  0  0  0  0
  -26.5520  -35.0430   22.5540 O   0  0  0  0  0  0  0  0  0  0  0  0
  -24.7910  -34.3330   25.0590 H   0  0  0  0  0  0  0  0  0  0  0  0
  -24.0950  -36.9420   23.0030 C   0  0  0  0  0  1  0  0  0  0  0  0
  -25.2910  -36.5830   23.9000 C   0  0  0  0  0  3  0  0  0  0  0  0
  -27.3700  -37.5250   24.8070 C   0  0  0  0  0  1  0  0  0  0  0  0
  -26.3190  -37.6430   23.8000 N   0  0  0  0  0  0  0  0  0  0  0  0
  -25.8970  -38.5640   23.8860 H   0  0  0  0  0  0  0  0  0  0  0  0
  -26.2360  -32.0460   25.4030 C   0  0  1  0  0  0  0  0  0  0  0  0
  -25.0810  -31.8310   26.4100 C   0  0  0  0  0  1  0  0  0  0  0  0
  -26.8730  -30.6650   25.1180 C   0  0  0  0  0  1  0  0  0  0  0  0
  -27.3230  -32.8970   26.1010 C   0  0  0  0  0  1  0  0  0  0  0  0
  -29.8220  -19.1330   20.8310 C   0  0  0  0  0  2  0  0  0  0  0  0
  -29.3730  -18.2510   18.6160 C   0  0  0  0  0  3  0  0  0  0  0  0
  -31.0040  -16.6830   19.6280 C   0  0  0  0  0  0  0  0  0  0  0  0
  -30.1350  -17.9320   19.7600 C   0  0  0  0  0  0  0  0  0  0  0  0
  -29.6230  -17.7270   17.3450 C   0  0  0  0  0  0  0  0  0  0  0  0
  -31.5340  -16.5550   18.2950 C   0  0  0  0  0  0  0  0  0  0  0  0
  -30.7990  -16.9840   17.1580 C   0  0  0  0  0  0  0  0  0  0  0  0
  -32.9820  -16.0890   18.0400 C   0  0  0  0  0  1  0  0  0  0  0  0
  -31.3080  -16.6650   15.7530 C   0  0  0  0  0  1  0  0  0  0  0  0
  -31.5080  -15.4880   20.5950 C   0  0  0  0  0  0  0  0  0  0  0  0
  -31.3400  -13.0440   19.9100 C   0  0  0  0  0  2  0  0  0  0  0  0
  -30.5160  -12.8510   18.6110 C   0  0  0  0  0  2  0  0  0  0  0  0
  -29.0110  -12.7870   18.9000 C   0  0  0  0  0  2  0  0  0  0  0  0
  -28.5470  -13.8790   19.8970 C   0  0  0  0  0  3  0  0  0  0  0  0
  -29.4840  -13.9870   21.1130 C   0  0  0  0  0  2  0  0  0  0  0  0
  -30.8390  -14.2590   20.6080 N   0  0  0  0  0  0  0  0  0  0  0  0
  -32.7250  -15.4480   20.8090 O   0  0  0  0  0  0  0  0  0  0  0  0
  -26.1700  -14.6790   20.4230 C   0  0  0  0  0  0  0  0  0  0  0  0
  -25.0040  -14.0020   20.6640 C   0  0  0  0  0  0  0  0  0  0  0  0
  -25.3450  -12.6130   20.6580 C   0  0  0  0  0  0  0  0  0  0  0  0
  -27.1470  -13.7080   20.2730 N   0  0  0  0  0  0  0  0  0  0  0  0
  -26.6520  -12.4600   20.4850 N   0  0  0  0  0  0  0  0  0  0  0  0
  -24.4910  -11.4200   20.7450 C   0  0  0  0  0  0  0  0  0  0  0  0
  -24.8120  -10.3400   21.5980 C   0  0  0  0  0  3  0  0  0  0  0  0
  -23.9630   -9.2150   21.6800 C   0  0  0  0  0  3  0  0  0  0  0  0
  -22.7770   -9.1630   20.9090 C   0  0  0  0  0  0  0  0  0  0  0  0
  -22.4730  -10.2300   20.0440 C   0  0  0  0  0  3  0  0  0  0  0  0
  -23.3220  -11.3470   19.9610 C   0  0  0  0  0  3  0  0  0  0  0  0
  -21.9050   -8.1010   20.9080 O   0  0  0  0  0  0  0  0  0  0  0  0
  -21.8270   -7.2310   21.9660 C   0  0  0  0  0  0  0  0  0  0  0  0
  -21.5640   -7.6770   23.2800 C   0  0  0  0  0  3  0  0  0  0  0  0
  -21.4230   -6.7440   24.3260 C   0  0  0  0  0  3  0  0  0  0  0  0
  -21.5330   -5.3650   24.0590 C   0  0  0  0  0  0  0  0  0  0  0  0
  -21.7910   -4.9190   22.7510 C   0  0  0  0  0  3  0  0  0  0  0  0
  -21.9340   -5.8500   21.7080 C   0  0  0  0  0  0  0  0  0  0  0  0
  -22.1590   -5.4130   20.4450 F   0  0  0  0  0  0  0  0  0  0  0  0
  -21.3910   -4.4700   25.0630 F   0  0  0  0  0  0  0  0  0  0  0  0
  -23.6370  -14.6040   20.7950 C   0  0  0  0  0  0  0  0  0  0  0  0
  -22.7660  -13.9870   21.5850 N   0  0  0  0  0  0  0  0  0  0  0  0
  -23.3450  -15.6600   20.2320 O   0  0  0  0  0  0  0  0  0  0  0  0
  -23.0090  -13.1360   22.0690 H   0  0  0  0  0  0  0  0  0  0  0  0
  -21.8410  -14.3740   21.7140 H   0  0  0  0  0  0  0  0  0  0  0  0
  -26.4820  -16.0290   20.2880 N   0  0  0  0  0  0  0  0  0  0  0  0
  -25.7770  -16.7570   20.3180 H   0  0  0  0  0  0  0  0  0  0  0  0
  -27.4010  -16.3750   20.0430 H   0  0  0  0  0  0  0  0  0  0  0  0
  -29.0870  -19.4830   15.5910 C   0  0  0  0  0  1  0  0  0  0  0  0
  -28.6950  -18.1350   16.2100 C   0  0  0  0  0  2  0  0  0  0  0  0
  2  1  1  0
  2 49  1  0
  2  3  1  0
  3  5  1  0
  4  3  1  0
  6  7  2  0
  6  3  1  0
  8  7  1  0
  9 20  2  0
 10  8  1  0
 10 15  1  0
 11 19  1  0
 11 21  1  0
 12 14  1  0
 13 19  1  0
 14 15  2  0
 14 13  1  0
 16 10  2  0
 17 16  1  0
 17 12  2  0
 18 12  1  0
 18 11  1  0
 19  9  1  0
 21 23  2  0
 22 21  1  0
 24 22  1  0
 25 34  2  0
 25 30  1  0
 26 22  1  0
 26 30  1  0
 27 26  1  0
 28 29  1  0
 28 27  1  0
 29 25  1  0
 30 31  2  0
 31 32  1  0
 33 32  2  0
 34 33  1  0
 35  9  1  0
 35 36  1  0
 35 45  1  0
 36 39  1  0
 37 41  1  0
 37 36  1  0
 38 37  2  0
 41 40  1  0
 43 44  1  0
 43 41  1  0
 43 42  1  0
 45 48  1  1
 45 46  1  0
 47 45  1  0
 50 52  1  0
 51 52  2  0
 51 58  1  0
 52 49  1  0
 53 50  2  0
 54 51  1  0
 55 53  1  0
 55 54  2  0
 56 54  1  0
 57 55  1  0
 58 64  1  0
 58 65  2  0
 59 64  1  0
 60 61  1  0
 60 59  1  0
 62 61  1  0
 62 69  1  0
 62 63  1  0
 64 63  1  0
 66 67  2  0
 67 86  1  0
 68 67  1  0
 68 71  1  0
 69 66  1  0
 69 70  1  0
 70 68  2  0
 71 72  1  0
 72 73  2  0
 74 73  1  0
 75 74  2  0
 76 75  1  0
 76 71  2  0
 77 74  1  0
 77 78  1  0
 78 79  1  0
 79 80  2  0
 81 80  1  0
 81 85  1  0
 82 81  2  0
 83 78  2  0
 83 82  1  0
 84 83  1  0
 86 87  1  0
 87 90  1  0
 87 89  1  0
 88 86  2  0
 91 92  1  0
 91 66  1  0
 93 91  1  0
 94 95  1  0
 95 53  1  0
M  ISO  4   7 101   8 101  51 100  58 100
M  END
>  <TORSDO>  (1) 
F 22

>  <SCORE>  (1) 
-10.549

>  <name>  (1) 
0

>  <ligand_id>  (1) 
0

>  <original_smiles>  (1) 
[H]c1c([H])c([H])c2c(c1[H])C([H])([H])C([H])([H])C([H])([H])C2([H])N([H])C(=O)C1([H])N(C(=O)C([H])(N([H])C(=O)C([H])(N([H])C([H])([H])[H])C([H])([H])[H])C(C([H])([H])[H])(C([H])([H])[H])C([H])([H])[H])C([H])([H])c2c([H])c(OC([H])([H])C([H])([H])[N+]([H])([H])C([H])(C([H])([H])[H])C([H])([H])c3c([H])c(C([H])([H])C([H])([H])[H])c(C([H])([H])[H])c(C([H])([H])[H])c3C(=O)N3C([H])([H])C([H])([H])C([H])([H])C([H])(n4nc(-c5c([H])c([H])c(Oc6c([H])c([H])c(F)c([H])c6F)c([H])c5[H])c(C(=O)N([H])[H])c4N([H])[H])C3([H])[H])c([H])c([H])c2C1([H])[H]

>  <smiles>  (1) 
[H]c1c([H])c([H])c2c(c1[H])C([H])([H])C([H])([H])C([H])([H])C2([H])N([H])C(=O)C1([H])N(C(=O)C([H])(N([H])C(=O)C([H])(N([H])C([H])([H])[H])C([H])([H])[H])C(C([H])([H])[H])(C([H])([H])[H])C([H])([H])[H])C([H])([H])c2c([H])c(OC([H])([H])C([H])([H])[N+]([H])([H])C([H])(C([H])([H])[H])C([H])([H])c3c([H])c(C([H])([H])C([H])([H])[H])c(C([H])([H])[H])c(C([H])([H])[H])c3C(=O)N3C([H])([H])C([H])([H])C([H])([H])C([H])(n4nc(-c5c([H])c([H])c(Oc6c([H])c([H])c(F)c([H])c6F)c([H])c5[H])c(C(=O)N([H])[H])c4N([H])[H])C3([H])[H])c([H])c([H])c2C1([H])[H]

$$$$
1:0:0
     RDKit          3D

 98106  0  0  1  0  0  0  0  0999 V2000
  -29.6420  -20.4950   17.3450 C   0  0  0  0  0  3  0  0  0  0  0  0
  -28.8590  -20.5450   20.0390 C   0  0  0  0  0  3  0  0  0  0  0  0
  -29.1660  -19.3150   17.9500 C   0  0  0  0  0  0  0  0  0  0  0  0
  -29.3160  -21.7290   19.4280 C   0  0  0  0  0  0  0  0  0  0  0  0
  -29.7440  -21.6940   18.0780 C   0  0  0  0  0  0  0  0  0  0  0  0
  -28.8020  -19.3330   19.3220 C   0  0  0  0  0  0  0  0  0  0  0  0
  -29.1020  -18.0550   17.1030 C   0  0  0  0  0  1  0  0  0  0  0  0
  -29.3630  -23.0060   20.2550 C   0  0  0  0  0  1  0  0  0  0  0  0
  -30.3540  -22.9170   17.4140 C   0  0  0  0  0  2  0  0  0  0  0  0
  -29.3030  -23.8570   16.7980 C   0  0  0  0  0  2  0  0  0  0  0  0
  -29.7500  -25.3160   16.8790 C   0  0  0  0  0  0  0  0  0  0  0  0
  -28.8620  -26.1780   17.3780 N   0  0  0  0  0  0  0  0  0  0  0  0
  -30.8940  -25.6410   16.5570 O   0  0  0  0  0  0  0  0  0  0  0  0
  -27.9420  -25.8220   17.6020 H   0  0  0  0  0  0  0  0  0  0  0  0
  -29.1680  -27.5190   17.8620 C   0  0  0  0  0  2  0  0  0  0  0  0
  -29.5140  -27.4760   19.3660 C   0  0  0  0  0  2  0  0  0  0  0  0
  -28.4740  -26.8440   20.1100 O   0  0  0  0  0  0  0  0  0  0  0  0
  -24.5940  -31.9420   23.2420 C   0  0  0  0  0  0  0  0  0  0  0  0
  -27.3030  -27.5550   20.1790 C   0  0  0  0  0  0  0  0  0  0  0  0
  -23.4080  -30.5290   21.5920 C   0  0  0  0  0  3  0  0  0  0  0  0
  -24.8840  -28.9950   20.1920 C   0  0  0  0  0  0  0  0  0  0  0  0
  -25.9260  -30.9200   21.4050 C   0  0  0  0  0  2  0  0  0  0  0  0
  -26.0290  -29.5470   20.7800 C   0  0  0  0  0  0  0  0  0  0  0  0
  -27.2430  -28.8320   20.7760 C   0  0  0  0  0  3  0  0  0  0  0  0
  -26.1380  -26.9910   19.6230 C   0  0  0  0  0  3  0  0  0  0  0  0
  -24.9260  -27.7100   19.6200 C   0  0  0  0  0  3  0  0  0  0  0  0
  -23.6300  -29.8400   20.2200 C   0  0  0  0  0  2  0  0  0  0  0  0
  -24.6600  -31.1450   22.1390 N   0  0  0  0  0  0  0  0  0  0  0  0
  -23.5070  -32.2070   23.7750 O   0  0  0  0  0  0  0  0  0  0  0  0
  -22.7560  -29.5070   22.5510 C   0  0  0  0  0  0  0  0  0  0  0  0
  -21.4330  -29.3180   22.4150 N   0  0  0  0  0  0  0  0  0  0  0  0
  -23.4390  -28.8820   23.3670 O   0  0  0  0  0  0  0  0  0  0  0  0
  -20.9440  -29.8700   21.7230 H   0  0  0  0  0  0  0  0  0  0  0  0
  -18.0540  -28.1520   22.9300 C   0  0  0  0  0  0  0  0  0  0  0  0
  -20.6170  -28.3780   23.1810 C   0  0  0  0  0  3  0  0  0  0  0  0
  -20.7000  -26.9550   22.5830 C   0  0  0  0  0  2  0  0  0  0  0  0
  -19.5850  -26.6590   21.5760 C   0  0  0  0  0  2  0  0  0  0  0  0
  -18.2090  -26.8100   22.2340 C   0  0  0  0  0  2  0  0  0  0  0  0
  -19.1840  -28.8970   23.3600 C   0  0  0  0  0  0  0  0  0  0  0  0
  -18.9860  -30.1560   23.9660 C   0  0  0  0  0  3  0  0  0  0  0  0
  -17.6900  -30.6700   24.1480 C   0  0  0  0  0  3  0  0  0  0  0  0
  -16.5730  -29.9240   23.7330 C   0  0  0  0  0  3  0  0  0  0  0  0
  -16.7570  -28.6660   23.1310 C   0  0  0  0  0  3  0  0  0  0  0  0
  -25.8720  -32.5790   23.8720 C   0  0  0  0  0  3  0  0  0  0  0  0
  -25.5490  -33.9710   24.2100 N   0  0  0  0  0  0  0  0  0  0  0  0
  -25.9050  -35.0340   23.4770 C   0  0  0  0  0  0  0  0  0  0  0  0
  -26.6120  -34.9460   22.4680 O   0  0  0  0  0  0  0  0  0  0  0  0
  -24.9290  -34.1160   24.9950 H   0  0  0  0  0  0  0  0  0  0  0  0
  -24.2080  -36.8410   23.0580 C   0  0  0  0  0  1  0  0  0  0  0  0
  -25.3960  -36.4130   23.9360 C   0  0  0  0  0  3  0  0  0  0  0  0
  -27.4760  -37.2660   24.9190 C   0  0  0  0  0  1  0  0  0  0  0  0
  -26.4360  -37.4630   23.9120 N   0  0  0  0  0  0  0  0  0  0  0  0
  -26.0230  -38.3810   24.0600 H   0  0  0  0  0  0  0  0  0  0  0  0
  -26.3960  -31.8020   25.1390 C   0  0  1  0  0  0  0  0  0  0  0  0
  -25.3010  -31.5220   26.1950 C   0  0  0  0  0  1  0  0  0  0  0  0
  -27.0180  -30.4460   24.7290 C   0  0  0  0  0  1  0  0  0  0  0  0
  -27.5210  -32.6160   25.8250 C   0  0  0  0  0  1  0  0  0  0  0  0
  -28.4150  -18.0730   20.0810 C   0  0  0  0  0  2  0  0  0  0  0  0
  -29.6290  -17.1500   20.2680 C   0  0  0  0  0  2  0  0  0  0  0  0
  -29.3720  -15.9940   21.2510 C   0  0  0  0  0  2  0  0  0  0  0  0
  -30.7980  -14.2860   20.2010 C   0  0  0  0  0  0  0  0  0  0  0  0
  -30.3300  -12.2470   18.8880 C   0  0  0  0  0  2  0  0  0  0  0  0
  -29.3080  -12.5110   17.7670 C   0  0  0  0  0  2  0  0  0  0  0  0
  -27.8670  -12.3710   18.2930 C   0  0  0  0  0  2  0  0  0  0  0  0
  -27.6360  -13.1660   19.6040 C   0  0  0  0  0  3  0  0  0  0  0  0
  -28.7540  -12.8550   20.6260 C   0  0  0  0  0  2  0  0  0  0  0  0
  -30.0490  -13.1690   19.9970 N   0  0  0  0  0  0  0  0  0  0  0  0
  -31.8040  -14.5490   19.5300 O   0  0  0  0  0  0  0  0  0  0  0  0
  -31.5290  -15.3840   22.2440 C   0  0  0  0  0  1  0  0  0  0  0  0
  -30.4790  -15.0240   21.2900 N   0  0  0  0  0  0  0  0  0  0  0  0
  -25.2900  -13.7980   20.4610 C   0  0  0  0  0  0  0  0  0  0  0  0
  -24.2400  -13.0330   20.8890 C   0  0  0  0  0  0  0  0  0  0  0  0
  -24.6850  -11.6770   20.8190 C   0  0  0  0  0  0  0  0  0  0  0  0
  -26.3110  -12.9070   20.1610 N   0  0  0  0  0  0  0  0  0  0  0  0
  -25.9510  -11.6270   20.4290 N   0  0  0  0  0  0  0  0  0  0  0  0
  -23.9610  -10.4190   21.0410 C   0  0  0  0  0  0  0  0  0  0  0  0
  -24.4080   -9.4660   21.9830 C   0  0  0  0  0  3  0  0  0  0  0  0
  -23.6840   -8.2720   22.1920 C   0  0  0  0  0  3  0  0  0  0  0  0
  -22.5000   -8.0230   21.4580 C   0  0  0  0  0  0  0  0  0  0  0  0
  -22.0740   -8.9640   20.5030 C   0  0  0  0  0  3  0  0  0  0  0  0
  -22.7980  -10.1500   20.2930 C   0  0  0  0  0  3  0  0  0  0  0  0
  -21.7460   -6.8800   21.5760 O   0  0  0  0  0  0  0  0  0  0  0  0
  -21.6970   -6.1700   22.7480 C   0  0  0  0  0  0  0  0  0  0  0  0
  -21.2300   -6.7450   23.9500 C   0  0  0  0  0  3  0  0  0  0  0  0
  -21.1310   -5.9590   25.1150 C   0  0  0  0  0  3  0  0  0  0  0  0
  -21.4870   -4.5980   25.0800 C   0  0  0  0  0  0  0  0  0  0  0  0
  -21.9490   -4.0220   23.8830 C   0  0  0  0  0  3  0  0  0  0  0  0
  -22.0500   -4.8060   22.7200 C   0  0  0  0  0  0  0  0  0  0  0  0
  -22.4750   -4.2410   21.5640 F   0  0  0  0  0  0  0  0  0  0  0  0
  -21.3850   -3.8400   26.1980 F   0  0  0  0  0  0  0  0  0  0  0  0
  -22.8660  -13.5190   21.2540 C   0  0  0  0  0  0  0  0  0  0  0  0
  -22.1920  -12.8250   22.1630 N   0  0  0  0  0  0  0  0  0  0  0  0
  -22.4040  -14.5500   20.7670 O   0  0  0  0  0  0  0  0  0  0  0  0
  -22.5790  -11.9890   22.5760 H   0  0  0  0  0  0  0  0  0  0  0  0
  -21.2740  -13.1330   22.4510 H   0  0  0  0  0  0  0  0  0  0  0  0
  -25.4550  -15.1670   20.2830 N   0  0  0  0  0  0  0  0  0  0  0  0
  -24.6990  -15.8250   20.4390 H   0  0  0  0  0  0  0  0  0  0  0  0
  -26.2820  -15.6000   19.8960 H   0  0  0  0  0  0  0  0  0  0  0  0
  1  3  2  0
  1  5  1  0
  3  6  1  0
  4  2  1  0
  4  8  1  0
  5  4  2  0
  6  2  2  0
  6 58  1  0
  7  3  1  0
  9  5  1  0
 10 11  1  0
 10  9  1  0
 11 12  1  0
 12 14  1  0
 12 15  1  0
 13 11  2  0
 15 16  1  0
 16 17  1  0
 17 19  1  0
 18 29  2  0
 19 24  1  0
 20 28  1  0
 20 30  1  0
 21 27  1  0
 21 23  1  0
 22 28  1  0
 23 22  1  0
 24 23  2  0
 25 19  2  0
 26 25  1  0
 26 21  2  0
 27 20  1  0
 28 18  1  0
 30 32  2  0
 31 30  1  0
 33 31  1  0
 34 43  2  0
 34 39  1  0
 35 31  1  0
 35 39  1  0
 36 35  1  0
 37 38  1  0
 37 36  1  0
 38 34  1  0
 39 40  2  0
 40 41  1  0
 42 41  2  0
 43 42  1  0
 44 18  1  0
 44 45  1  0
 44 54  1  0
 45 48  1  0
 46 50  1  0
 46 45  1  0
 47 46  2  0
 50 49  1  0
 52 50  1  0
 52 53  1  0
 52 51  1  0
 54 57  1  1
 54 55  1  0
 56 54  1  0
 58 59  1  0
 59 60  1  0
 60 70  1  0
 61 70  1  0
 62 67  1  0
 63 64  1  0
 63 62  1  0
 65 64  1  0
 65 74  1  0
 65 66  1  0
 67 61  1  0
 67 66  1  0
 68 61  2  0
 70 69  1  0
 71 72  2  0
 72 91  1  0
 73 72  1  0
 73 76  1  0
 74 75  1  0
 74 71  1  0
 75 73  2  0
 76 77  1  0
 77 78  2  0
 79 82  1  0
 79 78  1  0
 80 79  2  0
 81 80  1  0
 81 76  2  0
 82 83  1  0
 83 84  1  0
 84 85  2  0
 86 85  1  0
 86 90  1  0
 87 86  2  0
 88 83  2  0
 88 87  1  0
 89 88  1  0
 91 92  1  0
 92 95  1  0
 92 94  1  0
 93 91  2  0
 96 97  1  0
 96 71  1  0
 98 96  1  0
M  ISO  4  16 101  17 101  61 100  70 100
M  END
>  <TORSDO>  (2) 
F 24

>  <SCORE>  (2) 
-11.708

>  <name>  (2) 
1

>  <ligand_id>  (2) 
1

>  <original_smiles>  (2) 
[H]c1c([H])c([H])c2c(c1[H])C([H])([H])C([H])([H])C([H])([H])C2([H])N([H])C(=O)C1([H])N(C(=O)C([H])(N([H])C(=O)C([H])(N([H])C([H])([H])[H])C([H])([H])[H])C(C([H])([H])[H])(C([H])([H])[H])C([H])([H])[H])C([H])([H])c2c([H])c(OC([H])([H])C([H])([H])N([H])C(=O)C([H])([H])C([H])([H])c3c([H])c(C([H])([H])[H])c(C([H])([H])C([H])([H])C([H])([H])N(C(=O)N4C([H])([H])C([H])([H])C([H])([H])C([H])(n5nc(-c6c([H])c([H])c(Oc7c([H])c([H])c(F)c([H])c7F)c([H])c6[H])c(C(=O)N([H])[H])c5N([H])[H])C4([H])[H])C([H])([H])[H])c([H])c3C([H])([H])[H])c([H])c([H])c2C1([H])[H]

>  <smiles>  (2) 
[H]c1c([H])c([H])c2c(c1[H])C([H])([H])C([H])([H])C([H])([H])C2([H])N([H])C(=O)C1([H])N(C(=O)C([H])(N([H])C(=O)C([H])(N([H])C([H])([H])[H])C([H])([H])[H])C(C([H])([H])[H])(C([H])([H])[H])C([H])([H])[H])C([H])([H])c2c([H])c(OC([H])([H])C([H])([H])N([H])C(=O)C([H])([H])C([H])([H])c3c([H])c(C([H])([H])[H])c(C([H])([H])C([H])([H])C([H])([H])N(C(=O)N4C([H])([H])C([H])([H])C([H])([H])C([H])(n5nc(-c6c([H])c([H])c(Oc7c([H])c([H])c(F)c([H])c7F)c([H])c6[H])c(C(=O)N([H])[H])c5N([H])[H])C4([H])[H])C([H])([H])[H])c([H])c3C([H])([H])[H])c([H])c([H])c2C1([H])[H]

$$$$
2:0:0
     RDKit          3D

 95104  0  0  1  0  0  0  0  0999 V2000
  -28.7170  -22.0410   19.4170 C   0  0  0  0  0  3  0  0  0  0  0  0
  -31.0970  -21.6970   19.8920 C   0  0  0  0  0  3  0  0  0  0  0  0
  -28.8210  -23.3020   20.0270 C   0  0  0  0  0  0  0  0  0  0  0  0
  -30.0130  -23.7530   20.5740 C   0  0  0  0  0  0  0  0  0  0  0  0
  -29.8770  -21.2350   19.3300 C   0  0  0  0  0  0  0  0  0  0  0  0
  -31.1720  -22.9570   20.5280 C   0  0  0  0  0  0  0  0  0  0  0  0
  -27.7550  -24.3560   20.0770 C   0  0  0  0  0  2  0  0  0  0  0  0
  -29.8760  -25.1560   21.1150 C   0  0  0  0  0  2  0  0  0  0  0  0
  -28.4350  -25.5870   20.7330 C   0  0  0  0  0  3  0  0  0  0  0  0
  -32.4870  -23.4630   21.0870 C   0  0  0  0  0  1  0  0  0  0  0  0
  -30.2760  -20.2710   17.0660 C   0  0  0  0  0  1  0  0  0  0  0  0
  -29.8310  -19.9530   18.5020 C   0  0  0  0  0  3  0  0  0  0  0  0
  -30.6290  -18.8560   19.1060 N   0  0  0  0  0  4  0  0  0  0  0  0
  -31.0270  -18.3210   18.3510 H   0  0  0  0  0  0  0  0  0  0  0  0
  -31.3860  -19.2690   19.6240 H   0  0  0  0  0  0  0  0  0  0  0  0
  -29.8470  -17.9180   19.9540 C   0  0  0  0  0  2  0  0  0  0  0  0
  -30.6860  -17.0010   20.8890 C   0  0  0  0  0  2  0  0  0  0  0  0
  -30.0620  -15.5830   21.0850 C   0  0  0  0  0  2  0  0  0  0  0  0
  -30.6870  -14.4260   20.2670 C   0  0  0  0  0  0  0  0  0  0  0  0
  -30.3130  -12.2980   19.0570 C   0  0  0  0  0  2  0  0  0  0  0  0
  -29.3480  -12.5810   17.8900 C   0  0  0  0  0  2  0  0  0  0  0  0
  -27.8820  -12.4490   18.3510 C   0  0  0  0  0  2  0  0  0  0  0  0
  -27.5990  -13.2350   19.6590 C   0  0  0  0  0  3  0  0  0  0  0  0
  -28.6880  -12.9720   20.7250 C   0  0  0  0  0  2  0  0  0  0  0  0
  -29.9980  -13.2600   20.1230 N   0  0  0  0  0  0  0  0  0  0  0  0
  -31.7640  -14.6210   19.6950 O   0  0  0  0  0  0  0  0  0  0  0  0
  -25.2190  -13.8410   20.4220 C   0  0  0  0  0  0  0  0  0  0  0  0
  -24.1570  -13.0690   20.8140 C   0  0  0  0  0  0  0  0  0  0  0  0
  -24.6140  -11.7180   20.7750 C   0  0  0  0  0  0  0  0  0  0  0  0
  -26.2580  -12.9570   20.1720 N   0  0  0  0  0  0  0  0  0  0  0  0
  -25.8990  -11.6750   20.4390 N   0  0  0  0  0  0  0  0  0  0  0  0
  -23.8900  -10.4570   20.9860 C   0  0  0  0  0  0  0  0  0  0  0  0
  -24.3260   -9.5020   21.9310 C   0  0  0  0  0  3  0  0  0  0  0  0
  -23.5990   -8.3080   22.1280 C   0  0  0  0  0  3  0  0  0  0  0  0
  -22.4250   -8.0590   21.3800 C   0  0  0  0  0  0  0  0  0  0  0  0
  -22.0090   -9.0020   20.4240 C   0  0  0  0  0  3  0  0  0  0  0  0
  -22.7340  -10.1890   20.2270 C   0  0  0  0  0  3  0  0  0  0  0  0
  -21.6720   -6.9150   21.4840 O   0  0  0  0  0  0  0  0  0  0  0  0
  -21.6200   -6.1920   22.6490 C   0  0  0  0  0  0  0  0  0  0  0  0
  -21.1660   -6.7620   23.8600 C   0  0  0  0  0  3  0  0  0  0  0  0
  -21.0610   -5.9670   25.0180 C   0  0  0  0  0  3  0  0  0  0  0  0
  -21.3990   -4.6020   24.9690 C   0  0  0  0  0  0  0  0  0  0  0  0
  -21.8430   -4.0290   23.7630 C   0  0  0  0  0  3  0  0  0  0  0  0
  -21.9500   -4.8220   22.6070 C   0  0  0  0  0  0  0  0  0  0  0  0
  -22.3600   -4.2620   21.4440 F   0  0  0  0  0  0  0  0  0  0  0  0
  -21.2900   -3.8370   26.0780 F   0  0  0  0  0  0  0  0  0  0  0  0
  -22.7670  -13.5520   21.1150 C   0  0  0  0  0  0  0  0  0  0  0  0
  -22.0570  -12.8560   21.9970 N   0  0  0  0  0  0  0  0  0  0  0  0
  -22.3220  -14.5790   20.6070 O   0  0  0  0  0  0  0  0  0  0  0  0
  -22.4360  -12.0250   22.4270 H   0  0  0  0  0  0  0  0  0  0  0  0
  -21.1280  -13.1620   22.2430 H   0  0  0  0  0  0  0  0  0  0  0  0
  -25.3820  -15.2090   20.2390 N   0  0  0  0  0  0  0  0  0  0  0  0
  -24.6170  -15.8660   20.3480 H   0  0  0  0  0  0  0  0  0  0  0  0
  -26.2300  -15.6440   19.8970 H   0  0  0  0  0  0  0  0  0  0  0  0
  -28.4800  -26.7100   19.8410 O   0  0  0  0  0  0  0  0  0  0  0  0
  -24.6750  -31.7350   23.0880 C   0  0  0  0  0  0  0  0  0  0  0  0
  -27.3170  -27.4410   19.8380 C   0  0  0  0  0  0  0  0  0  0  0  0
  -23.4550  -30.3510   21.4400 C   0  0  0  0  0  3  0  0  0  0  0  0
  -24.9010  -28.8890   19.9380 C   0  0  0  0  0  0  0  0  0  0  0  0
  -25.9650  -30.7740   21.1870 C   0  0  0  0  0  2  0  0  0  0  0  0
  -26.0620  -29.4250   20.5110 C   0  0  0  0  0  0  0  0  0  0  0  0
  -27.2780  -28.7090   20.4550 C   0  0  0  0  0  3  0  0  0  0  0  0
  -26.1430  -26.9240   19.2470 C   0  0  0  0  0  3  0  0  0  0  0  0
  -24.9370  -27.6410   19.2980 C   0  0  0  0  0  3  0  0  0  0  0  0
  -23.6400  -29.7140   20.0390 C   0  0  0  0  0  2  0  0  0  0  0  0
  -24.7190  -30.9650   21.9640 N   0  0  0  0  0  0  0  0  0  0  0  0
  -23.6020  -31.9720   23.6590 O   0  0  0  0  0  0  0  0  0  0  0  0
  -22.8480  -29.2910   22.3890 C   0  0  0  0  0  0  0  0  0  0  0  0
  -21.5300  -29.0640   22.2670 N   0  0  0  0  0  0  0  0  0  0  0  0
  -23.5590  -28.6760   23.1880 O   0  0  0  0  0  0  0  0  0  0  0  0
  -21.0160  -29.6140   21.5910 H   0  0  0  0  0  0  0  0  0  0  0  0
  -18.2080  -27.7260   22.7360 C   0  0  0  0  0  0  0  0  0  0  0  0
  -20.7500  -28.0880   23.0260 C   0  0  0  0  0  3  0  0  0  0  0  0
  -20.9160  -26.6650   22.4440 C   0  0  0  0  0  2  0  0  0  0  0  0
  -19.8360  -26.3020   21.4200 C   0  0  0  0  0  2  0  0  0  0  0  0
  -18.4440  -26.3890   22.0520 C   0  0  0  0  0  2  0  0  0  0  0  0
  -19.2920  -28.5310   23.1780 C   0  0  0  0  0  0  0  0  0  0  0  0
  -19.0170  -29.7810   23.7730 C   0  0  0  0  0  3  0  0  0  0  0  0
  -17.6930  -30.2300   23.9320 C   0  0  0  0  0  3  0  0  0  0  0  0
  -16.6230  -29.4210   23.5100 C   0  0  0  0  0  3  0  0  0  0  0  0
  -16.8820  -28.1710   22.9180 C   0  0  0  0  0  3  0  0  0  0  0  0
  -25.9630  -32.3750   23.6920 C   0  0  0  0  0  3  0  0  0  0  0  0
  -25.6370  -33.7570   24.0670 N   0  0  0  0  0  0  0  0  0  0  0  0
  -25.9380  -34.8340   23.3290 C   0  0  0  0  0  0  0  0  0  0  0  0
  -26.5920  -34.7680   22.2840 O   0  0  0  0  0  0  0  0  0  0  0  0
  -25.0570  -33.8820   24.8830 H   0  0  0  0  0  0  0  0  0  0  0  0
  -24.1770  -36.6050   23.0320 C   0  0  0  0  0  1  0  0  0  0  0  0
  -25.4290  -36.1990   23.8280 C   0  0  0  0  0  3  0  0  0  0  0  0
  -27.5510  -37.0920   24.6820 C   0  0  0  0  0  1  0  0  0  0  0  0
  -26.4460  -37.2710   23.7440 N   0  0  0  0  0  0  0  0  0  0  0  0
  -26.0250  -38.1810   23.9220 H   0  0  0  0  0  0  0  0  0  0  0  0
  -26.5280  -31.5790   24.9330 C   0  0  1  0  0  0  0  0  0  0  0  0
  -25.4690  -31.2850   26.0210 C   0  0  0  0  0  1  0  0  0  0  0  0
  -27.1290  -30.2280   24.4830 C   0  0  0  0  0  1  0  0  0  0  0  0
  -27.6830  -32.3760   25.5860 C   0  0  0  0  0  1  0  0  0  0  0  0
  1  3  1  0
  2  6  2  0
  3  7  1  0
  3  4  2  0
  4  8  1  0
  5  1  2  0
  5  2  1  0
  6  4  1  0
  6 10  1  0
  7  9  1  0
  9 55  1  0
  9  8  1  0
 12 11  1  0
 12 13  1  0
 12  5  1  0
 13 15  1  0
 13 16  1  0
 14 13  1  0
 16 17  1  0
 17 18  1  0
 19 18  1  0
 20 25  1  0
 21 22  1  0
 21 20  1  0
 23 22  1  0
 23 30  1  0
 23 24  1  0
 25 19  1  0
 25 24  1  0
 26 19  2  0
 27 28  2  0
 28 47  1  0
 29 28  1  0
 29 32  1  0
 30 27  1  0
 30 31  1  0
 31 29  2  0
 32 33  1  0
 33 34  2  0
 35 38  1  0
 35 34  1  0
 36 35  2  0
 37 36  1  0
 37 32  2  0
 38 39  1  0
 39 40  1  0
 40 41  2  0
 42 41  1  0
 42 46  1  0
 43 42  2  0
 44 39  2  0
 44 43  1  0
 45 44  1  0
 47 48  1  0
 48 51  1  0
 48 50  1  0
 49 47  2  0
 52 53  1  0
 52 27  1  0
 54 52  1  0
 56 67  2  0
 57 55  1  0
 57 62  1  0
 58 66  1  0
 58 68  1  0
 59 65  1  0
 59 61  1  0
 60 66  1  0
 61 60  1  0
 62 61  2  0
 63 64  1  0
 63 57  2  0
 64 59  2  0
 65 58  1  0
 66 56  1  0
 68 70  2  0
 69 68  1  0
 71 69  1  0
 72 81  2  0
 72 77  1  0
 73 69  1  0
 73 77  1  0
 74 73  1  0
 75 76  1  0
 75 74  1  0
 76 72  1  0
 77 78  2  0
 78 79  1  0
 80 79  2  0
 81 80  1  0
 82 56  1  0
 82 83  1  0
 82 92  1  0
 83 86  1  0
 84 88  1  0
 84 83  1  0
 85 84  2  0
 88 87  1  0
 90 88  1  0
 90 91  1  0
 90 89  1  0
 92 95  1  1
 92 93  1  0
 94 92  1  0
M  ISO  4   9 101  18 100  19 100  55 101
M  END
>  <TORSDO>  (3) 
F 21

>  <SCORE>  (3) 
-12.471

>  <name>  (3) 
2

>  <ligand_id>  (3) 
2

>  <original_smiles>  (3) 
[H]c1c([H])c([H])c2c(c1[H])C([H])([H])C([H])([H])C([H])([H])C2([H])N([H])C(=O)C1([H])N(C(=O)C([H])(N([H])C(=O)C([H])(N([H])C([H])([H])[H])C([H])([H])[H])C(C([H])([H])[H])(C([H])([H])[H])C([H])([H])[H])C([H])([H])c2c([H])c(OC3([H])C([H])([H])c4c([H])c(C([H])(C([H])([H])[H])[N+]([H])([H])C([H])([H])C([H])([H])C([H])([H])C(=O)N5C([H])([H])C([H])([H])C([H])([H])C([H])(n6nc(-c7c([H])c([H])c(Oc8c([H])c([H])c(F)c([H])c8F)c([H])c7[H])c(C(=O)N([H])[H])c6N([H])[H])C5([H])[H])c([H])c(C([H])([H])[H])c4C3([H])[H])c([H])c([H])c2C1([H])[H]

>  <smiles>  (3) 
[H]c1c([H])c([H])c2c(c1[H])C([H])([H])C([H])([H])C([H])([H])C2([H])N([H])C(=O)C1([H])N(C(=O)C([H])(N([H])C(=O)C([H])(N([H])C([H])([H])[H])C([H])([H])[H])C(C([H])([H])[H])(C([H])([H])[H])C([H])([H])[H])C([H])([H])c2c([H])c(OC3([H])C([H])([H])c4c([H])c(C([H])(C([H])([H])[H])[N+]([H])([H])C([H])([H])C([H])([H])C([H])([H])C(=O)N5C([H])([H])C([H])([H])C([H])([H])C([H])(n6nc(-c7c([H])c([H])c(Oc8c([H])c([H])c(F)c([H])c8F)c([H])c7[H])c(C(=O)N([H])[H])c6N([H])[H])C5([H])[H])c([H])c(C([H])([H])[H])c4C3([H])[H])c([H])c([H])c2C1([H])[H]

$$$$
3:0:0
     RDKit          3D

 93100  0  0  1  0  0  0  0  0999 V2000
  -31.1120  -23.9690   24.5830 C   0  0  0  0  0  1  0  0  0  0  0  0
  -29.9550  -24.0950   23.5750 C   0  0  0  0  0  3  0  0  0  0  0  0
  -30.3250  -25.0010   22.4600 N   0  0  0  0  0  4  0  0  0  0  0  0
  -30.7250  -25.8270   22.8820 H   0  0  0  0  0  0  0  0  0  0  0  0
  -31.0510  -24.5800   21.9000 H   0  0  0  0  0  0  0  0  0  0  0  0
  -29.2110  -25.4440   21.5840 C   0  0  0  0  0  2  0  0  0  0  0  0
  -29.5790  -26.7020   20.7730 C   0  0  0  0  0  2  0  0  0  0  0  0
  -28.6640  -26.8540   19.6890 O   0  0  0  0  0  0  0  0  0  0  0  0
  -24.6800  -31.6580   23.2300 C   0  0  0  0  0  0  0  0  0  0  0  0
  -27.5020  -27.5720   19.8530 C   0  0  0  0  0  0  0  0  0  0  0  0
  -23.5360  -30.3710   21.4530 C   0  0  0  0  0  3  0  0  0  0  0  0
  -25.0550  -28.9870   19.9430 C   0  0  0  0  0  0  0  0  0  0  0  0
  -26.0510  -30.8090   21.3320 C   0  0  0  0  0  2  0  0  0  0  0  0
  -26.1840  -29.4940   20.5990 C   0  0  0  0  0  0  0  0  0  0  0  0
  -27.4090  -28.7940   20.5620 C   0  0  0  0  0  3  0  0  0  0  0  0
  -26.3590  -27.0780   19.1930 C   0  0  0  0  0  3  0  0  0  0  0  0
  -25.1340  -27.7720   19.2410 C   0  0  0  0  0  3  0  0  0  0  0  0
  -23.7870  -29.8060   20.0280 C   0  0  0  0  0  2  0  0  0  0  0  0
  -24.7720  -30.9570   22.0660 N   0  0  0  0  0  0  0  0  0  0  0  0
  -23.5840  -31.8600   23.7710 O   0  0  0  0  0  0  0  0  0  0  0  0
  -22.8940  -29.2590   22.3130 C   0  0  0  0  0  0  0  0  0  0  0  0
  -21.5730  -29.0720   22.1590 N   0  0  0  0  0  0  0  0  0  0  0  0
  -23.5820  -28.5710   23.0720 O   0  0  0  0  0  0  0  0  0  0  0  0
  -21.0810  -29.6810   21.5210 H   0  0  0  0  0  0  0  0  0  0  0  0
  -18.2040  -27.8350   22.5590 C   0  0  0  0  0  0  0  0  0  0  0  0
  -20.7640  -28.0580   22.8330 C   0  0  0  0  0  3  0  0  0  0  0  0
  -20.8580  -26.6960   22.1070 C   0  0  0  0  0  2  0  0  0  0  0  0
  -19.7450  -26.4840   21.0750 C   0  0  0  0  0  2  0  0  0  0  0  0
  -18.3710  -26.5640   21.7450 C   0  0  0  0  0  2  0  0  0  0  0  0
  -19.3290  -28.5460   23.0570 C   0  0  0  0  0  0  0  0  0  0  0  0
  -19.1190  -29.7420   23.7780 C   0  0  0  0  0  3  0  0  0  0  0  0
  -17.8180  -30.2260   24.0080 C   0  0  0  0  0  3  0  0  0  0  0  0
  -16.7070  -29.5110   23.5260 C   0  0  0  0  0  3  0  0  0  0  0  0
  -16.9010  -28.3180   22.8080 C   0  0  0  0  0  3  0  0  0  0  0  0
  -25.9420  -32.2610   23.9240 C   0  0  0  0  0  3  0  0  0  0  0  0
  -26.4240  -31.4260   25.1730 C   0  0  1  0  0  0  0  0  0  0  0  0
  -25.3000  -31.1270   26.1910 C   0  0  0  0  0  1  0  0  0  0  0  0
  -27.0290  -30.0750   24.7230 C   0  0  0  0  0  1  0  0  0  0  0  0
  -27.5480  -32.1900   25.9120 C   0  0  0  0  0  1  0  0  0  0  0  0
  -25.6160  -33.6400   24.3130 N   0  0  0  0  0  0  0  0  0  0  0  0
  -25.9770  -34.7290   23.6210 C   0  0  0  0  0  0  0  0  0  0  0  0
  -26.6910  -34.6780   22.6140 O   0  0  0  0  0  0  0  0  0  0  0  0
  -24.9900  -33.7530   25.0960 H   0  0  0  0  0  0  0  0  0  0  0  0
  -24.2610  -36.5330   23.2800 C   0  0  0  0  0  1  0  0  0  0  0  0
  -25.4660  -36.0910   24.1260 C   0  0  0  0  0  3  0  0  0  0  0  0
  -27.5560  -36.9370   25.0970 C   0  0  0  0  0  1  0  0  0  0  0  0
  -26.5000  -37.1490   24.1120 N   0  0  0  0  0  0  0  0  0  0  0  0
  -26.0840  -38.0600   24.2840 H   0  0  0  0  0  0  0  0  0  0  0  0
  -29.4170  -22.7130   23.1160 C   0  0  0  0  0  2  0  0  0  0  0  0
  -30.4300  -21.7470   22.4600 C   0  0  0  0  0  2  0  0  0  0  0  0
  -29.8390  -20.3300   22.2960 C   0  0  0  0  0  2  0  0  0  0  0  0
  -30.8150  -19.2920   21.6990 C   0  0  0  0  0  2  0  0  0  0  0  0
  -30.2610  -17.9190   21.7760 N   0  0  0  0  0  4  0  0  0  0  0  0
  -30.1750  -17.6690   22.7490 H   0  0  0  0  0  0  0  0  0  0  0  0
  -29.3340  -17.9340   21.3800 H   0  0  0  0  0  0  0  0  0  0  0  0
  -31.0590  -16.8760   21.0860 C   0  0  0  0  0  2  0  0  0  0  0  0
  -30.4470  -15.4620   21.2520 C   0  0  0  0  0  2  0  0  0  0  0  0
  -31.0000  -14.4100   20.2670 C   0  0  0  0  0  0  0  0  0  0  0  0
  -30.5850  -12.3850   18.9060 C   0  0  0  0  0  2  0  0  0  0  0  0
  -29.5930  -12.7060   17.7710 C   0  0  0  0  0  2  0  0  0  0  0  0
  -28.1360  -12.5680   18.2570 C   0  0  0  0  0  2  0  0  0  0  0  0
  -27.8800  -13.3150   19.5930 C   0  0  0  0  0  3  0  0  0  0  0  0
  -28.9730  -12.9680   20.6290 C   0  0  0  0  0  2  0  0  0  0  0  0
  -30.2830  -13.2780   20.0340 N   0  0  0  0  0  0  0  0  0  0  0  0
  -32.0560  -14.6530   19.6740 O   0  0  0  0  0  0  0  0  0  0  0  0
  -25.5020  -13.9300   20.3710 C   0  0  0  0  0  0  0  0  0  0  0  0
  -24.4420  -13.1580   20.7660 C   0  0  0  0  0  0  0  0  0  0  0  0
  -24.8970  -11.8060   20.7140 C   0  0  0  0  0  0  0  0  0  0  0  0
  -26.5380  -13.0470   20.1080 N   0  0  0  0  0  0  0  0  0  0  0  0
  -26.1780  -11.7640   20.3680 N   0  0  0  0  0  0  0  0  0  0  0  0
  -24.1730  -10.5450   20.9170 C   0  0  0  0  0  0  0  0  0  0  0  0
  -24.5780   -9.6110   21.8960 C   0  0  0  0  0  3  0  0  0  0  0  0
  -23.8550   -8.4130   22.0840 C   0  0  0  0  0  3  0  0  0  0  0  0
  -22.7130   -8.1410   21.2940 C   0  0  0  0  0  0  0  0  0  0  0  0
  -22.3280   -9.0650   20.3060 C   0  0  0  0  0  3  0  0  0  0  0  0
  -23.0520  -10.2530   20.1160 C   0  0  0  0  0  3  0  0  0  0  0  0
  -21.9650   -6.9930   21.3890 O   0  0  0  0  0  0  0  0  0  0  0  0
  -21.8000   -6.3380   22.5830 C   0  0  0  0  0  0  0  0  0  0  0  0
  -21.2350   -6.9730   23.7100 C   0  0  0  0  0  3  0  0  0  0  0  0
  -21.0210   -6.2430   24.8970 C   0  0  0  0  0  3  0  0  0  0  0  0
  -21.3620   -4.8790   24.9560 C   0  0  0  0  0  0  0  0  0  0  0  0
  -21.9200   -4.2430   23.8330 C   0  0  0  0  0  3  0  0  0  0  0  0
  -22.1360   -4.9700   22.6490 C   0  0  0  0  0  0  0  0  0  0  0  0
  -22.6540   -4.3480   21.5630 F   0  0  0  0  0  0  0  0  0  0  0  0
  -21.1490   -4.1750   26.0920 F   0  0  0  0  0  0  0  0  0  0  0  0
  -23.0550  -13.6390   21.0840 C   0  0  0  0  0  0  0  0  0  0  0  0
  -22.3530  -12.9420   21.9710 N   0  0  0  0  0  0  0  0  0  0  0  0
  -22.6030  -14.6670   20.5810 O   0  0  0  0  0  0  0  0  0  0  0  0
  -22.7300  -12.1100   22.3990 H   0  0  0  0  0  0  0  0  0  0  0  0
  -21.4230  -13.2470   22.2260 H   0  0  0  0  0  0  0  0  0  0  0  0
  -25.6670  -15.3010   20.1960 N   0  0  0  0  0  0  0  0  0  0  0  0
  -24.9020  -15.9560   20.3230 H   0  0  0  0  0  0  0  0  0  0  0  0
  -26.5030  -15.7350   19.8270 H   0  0  0  0  0  0  0  0  0  0  0  0
  2  1  1  0
  3  4  1  0
  3  2  1  0
  5  3  1  0
  6  3  1  0
  7  6  1  0
  8 10  1  0
  8  7  1  0
  9 20  2  0
 10 15  1  0
 11 19  1  0
 11 21  1  0
 12 18  1  0
 12 14  1  0
 13 19  1  0
 14 13  1  0
 15 14  2  0
 16 17  1  0
 16 10  2  0
 17 12  2  0
 18 11  1  0
 19  9  1  0
 21 23  2  0
 22 21  1  0
 24 22  1  0
 25 34  2  0
 25 30  1  0
 26 22  1  0
 26 30  1  0
 27 26  1  0
 28 29  1  0
 28 27  1  0
 29 25  1  0
 30 31  2  0
 31 32  1  0
 33 32  2  0
 34 33  1  0
 35  9  1  0
 35 40  1  0
 35 36  1  0
 36 39  1  1
 36 37  1  0
 38 36  1  0
 40 43  1  0
 41 45  1  0
 41 40  1  0
 42 41  2  0
 45 44  1  0
 47 45  1  0
 47 48  1  0
 47 46  1  0
 49  2  1  0
 50 49  1  0
 51 50  1  0
 52 53  1  0
 52 51  1  0
 53 54  1  0
 55 53  1  0
 56 57  1  0
 56 53  1  0
 58 57  1  0
 59 64  1  0
 60 61  1  0
 60 59  1  0
 62 61  1  0
 62 69  1  0
 62 63  1  0
 64 58  1  0
 64 63  1  0
 65 58  2  0
 66 67  2  0
 67 86  1  0
 68 67  1  0
 68 71  1  0
 69 70  1  0
 69 66  1  0
 70 68  2  0
 71 72  1  0
 72 73  2  0
 74 77  1  0
 74 73  1  0
 75 74  2  0
 76 75  1  0
 76 71  2  0
 77 78  1  0
 78 83  2  0
 78 79  1  0
 79 80  2  0
 80 81  1  0
 81 85  1  0
 82 81  2  0
 83 82  1  0
 84 83  1  0
 86 87  1  0
 87 90  1  0
 87 89  1  0
 88 86  2  0
 91 92  1  0
 91 66  1  0
 93 91  1  0
M  ISO  4   7 101   8 101  57 100  58 100
M  END
>  <TORSDO>  (4) 
F 26

>  <SCORE>  (4) 
-8.071

>  <name>  (4) 
3

>  <ligand_id>  (4) 
3

>  <original_smiles>  (4) 
[H]c1c([H])c([H])c2c(c1[H])C([H])([H])C([H])([H])C([H])([H])C2([H])N([H])C(=O)C1([H])N(C(=O)C([H])(N([H])C(=O)C([H])(N([H])C([H])([H])[H])C([H])([H])[H])C(C([H])([H])[H])(C([H])([H])[H])C([H])([H])[H])C([H])([H])c2c([H])c(OC([H])([H])C([H])([H])[N+]([H])([H])C([H])(C([H])([H])[H])C([H])([H])C([H])([H])C([H])([H])C([H])([H])[N+]([H])([H])C([H])([H])C([H])([H])C(=O)N3C([H])([H])C([H])([H])C([H])([H])C([H])(n4nc(-c5c([H])c([H])c(Oc6c([H])c([H])c(F)c([H])c6F)c([H])c5[H])c(C(=O)N([H])[H])c4N([H])[H])C3([H])[H])c([H])c([H])c2C1([H])[H]

>  <smiles>  (4) 
[H]c1c([H])c([H])c2c(c1[H])C([H])([H])C([H])([H])C([H])([H])C2([H])N([H])C(=O)C1([H])N(C(=O)C([H])(N([H])C(=O)C([H])(N([H])C([H])([H])[H])C([H])([H])[H])C(C([H])([H])[H])(C([H])([H])[H])C([H])([H])[H])C([H])([H])c2c([H])c(OC([H])([H])C([H])([H])[N+]([H])([H])C([H])(C([H])([H])[H])C([H])([H])C([H])([H])C([H])([H])C([H])([H])[N+]([H])([H])C([H])([H])C([H])([H])C(=O)N3C([H])([H])C([H])([H])C([H])([H])C([H])(n4nc(-c5c([H])c([H])c(Oc6c([H])c([H])c(F)c([H])c6F)c([H])c5[H])c(C(=O)N([H])[H])c4N([H])[H])C3([H])[H])c([H])c([H])c2C1([H])[H]

$$$$
4:0:0
     RDKit          3D

 94103  0  0  1  0  0  0  0  0999 V2000
  -30.1750  -21.5110   21.9360 C   0  0  0  0  0  3  0  0  0  0  0  0
  -29.0640  -22.3270   19.9450 C   0  0  0  0  0  3  0  0  0  0  0  0
  -29.3860  -23.8460   21.8170 C   0  0  0  0  0  3  0  0  0  0  0  0
  -29.7060  -21.2160   20.6360 C   0  0  0  0  0  0  0  0  0  0  0  0
  -30.0170  -22.7930   22.5180 C   0  0  0  0  0  0  0  0  0  0  0  0
  -28.8950  -23.6630   20.5110 C   0  0  0  0  0  0  0  0  0  0  0  0
  -30.5340  -23.0570   23.9210 C   0  0  0  0  0  1  0  0  0  0  0  0
  -30.2880  -18.4510   20.9210 C   0  0  0  0  0  2  0  0  0  0  0  0
  -29.0810  -19.2300   18.9340 C   0  0  0  0  0  2  0  0  0  0  0  0
  -30.0320  -19.7680   20.0210 C   0  0  0  0  0  3  0  0  0  0  0  0
  -29.5600  -17.2130   20.2370 C   0  0  0  0  0  3  0  0  0  0  0  0
  -29.3860  -17.7060   18.7950 C   0  0  0  0  0  3  0  0  0  0  0  0
  -30.5770  -14.6870   19.8870 C   0  0  0  0  0  0  0  0  0  0  0  0
  -30.3200  -12.4270   18.8280 C   0  0  0  0  0  2  0  0  0  0  0  0
  -29.2690  -12.5370   17.6970 C   0  0  0  0  0  2  0  0  0  0  0  0
  -27.8430  -12.3500   18.2530 C   0  0  0  0  0  2  0  0  0  0  0  0
  -27.5860  -13.2010   19.5240 C   0  0  0  0  0  3  0  0  0  0  0  0
  -28.7420  -13.0530   20.5420 C   0  0  0  0  0  2  0  0  0  0  0  0
  -29.9910  -13.4380   19.8610 N   0  0  0  0  0  0  0  0  0  0  0  0
  -31.6590  -14.8840   19.3270 O   0  0  0  0  0  0  0  0  0  0  0  0
  -29.8240  -15.7100   20.4310 N   0  0  0  0  0  0  0  0  0  0  0  0
  -29.0420  -15.2970   20.9190 H   0  0  0  0  0  0  0  0  0  0  0  0
  -25.2890  -13.7950   20.5050 C   0  0  0  0  0  0  0  0  0  0  0  0
  -24.2460  -13.0210   20.9370 C   0  0  0  0  0  0  0  0  0  0  0  0
  -24.6740  -11.6670   20.7900 C   0  0  0  0  0  0  0  0  0  0  0  0
  -26.2850  -12.9110   20.1200 N   0  0  0  0  0  0  0  0  0  0  0  0
  -25.9280  -11.6220   20.3520 N   0  0  0  0  0  0  0  0  0  0  0  0
  -23.9410  -10.4090   20.9850 C   0  0  0  0  0  0  0  0  0  0  0  0
  -24.4020   -9.4150   21.8760 C   0  0  0  0  0  3  0  0  0  0  0  0
  -23.6690   -8.2230   22.0600 C   0  0  0  0  0  3  0  0  0  0  0  0
  -22.4600   -8.0160   21.3530 C   0  0  0  0  0  0  0  0  0  0  0  0
  -22.0170   -8.9990   20.4510 C   0  0  0  0  0  3  0  0  0  0  0  0
  -22.7510  -10.1820   20.2640 C   0  0  0  0  0  3  0  0  0  0  0  0
  -21.6970   -6.8780   21.4500 O   0  0  0  0  0  0  0  0  0  0  0  0
  -21.6450   -6.1410   22.6060 C   0  0  0  0  0  0  0  0  0  0  0  0
  -21.1520   -6.6830   23.8130 C   0  0  0  0  0  3  0  0  0  0  0  0
  -21.0510   -5.8700   24.9600 C   0  0  0  0  0  3  0  0  0  0  0  0
  -21.4330   -4.5170   24.9000 C   0  0  0  0  0  0  0  0  0  0  0  0
  -21.9180   -3.9750   23.6980 C   0  0  0  0  0  3  0  0  0  0  0  0
  -22.0220   -4.7850   22.5520 C   0  0  0  0  0  0  0  0  0  0  0  0
  -22.4700   -4.2520   21.3900 F   0  0  0  0  0  0  0  0  0  0  0  0
  -21.3290   -3.7320   25.9990 F   0  0  0  0  0  0  0  0  0  0  0  0
  -22.8920  -13.5070   21.3680 C   0  0  0  0  0  0  0  0  0  0  0  0
  -22.2380  -12.7790   22.2660 N   0  0  0  0  0  0  0  0  0  0  0  0
  -22.4280  -14.5660   20.9450 O   0  0  0  0  0  0  0  0  0  0  0  0
  -22.6280  -11.9220   22.6270 H   0  0  0  0  0  0  0  0  0  0  0  0
  -21.3330  -13.0850   22.5960 H   0  0  0  0  0  0  0  0  0  0  0  0
  -25.4700  -15.1690   20.3830 N   0  0  0  0  0  0  0  0  0  0  0  0
  -24.7370  -15.8380   20.5970 H   0  0  0  0  0  0  0  0  0  0  0  0
  -26.2810  -15.5820   19.9410 H   0  0  0  0  0  0  0  0  0  0  0  0
  -28.3200  -17.0310   18.1520 O   0  0  0  0  0  0  0  0  0  0  0  0
  -27.5090  -17.4120   18.4720 H   0  0  0  0  0  0  0  0  0  0  0  0
  -28.1020  -24.8560   19.8110 C   0  0  0  0  0  2  0  0  0  0  0  0
  -28.2920  -26.3040   20.1920 O   0  0  0  0  0  0  0  0  0  0  0  0
  -24.5420  -31.7750   23.1370 C   0  0  0  0  0  0  0  0  0  0  0  0
  -27.1950  -27.2010   20.0860 C   0  0  0  0  0  0  0  0  0  0  0  0
  -23.3580  -30.3800   21.4810 C   0  0  0  0  0  3  0  0  0  0  0  0
  -24.8290  -28.8450   20.0520 C   0  0  0  0  0  0  0  0  0  0  0  0
  -25.9010  -30.6990   21.3230 C   0  0  0  0  0  2  0  0  0  0  0  0
  -25.9920  -29.3220   20.6670 C   0  0  0  0  0  0  0  0  0  0  0  0
  -27.1760  -28.5130   20.6730 C   0  0  0  0  0  3  0  0  0  0  0  0
  -26.0090  -26.8050   19.4220 C   0  0  0  0  0  3  0  0  0  0  0  0
  -24.8440  -27.5950   19.4170 C   0  0  0  0  0  3  0  0  0  0  0  0
  -23.5860  -29.7150   20.0980 C   0  0  0  0  0  2  0  0  0  0  0  0
  -24.6180  -30.9700   22.0360 N   0  0  0  0  0  0  0  0  0  0  0  0
  -23.4530  -32.0450   23.6650 O   0  0  0  0  0  0  0  0  0  0  0  0
  -22.6910  -29.3570   22.4320 C   0  0  0  0  0  0  0  0  0  0  0  0
  -21.3670  -29.1640   22.2850 N   0  0  0  0  0  0  0  0  0  0  0  0
  -23.3630  -28.7390   23.2610 O   0  0  0  0  0  0  0  0  0  0  0  0
  -20.8830  -29.7130   21.5890 H   0  0  0  0  0  0  0  0  0  0  0  0
  -17.9920  -27.9510   22.7620 C   0  0  0  0  0  0  0  0  0  0  0  0
  -20.5480  -28.2170   23.0450 C   0  0  0  0  0  3  0  0  0  0  0  0
  -20.6580  -26.7920   22.4580 C   0  0  0  0  0  2  0  0  0  0  0  0
  -19.5620  -26.4740   21.4360 C   0  0  0  0  0  2  0  0  0  0  0  0
  -18.1760  -26.6090   22.0740 C   0  0  0  0  0  2  0  0  0  0  0  0
  -19.1060  -28.7140   23.2030 C   0  0  0  0  0  0  0  0  0  0  0  0
  -18.8800  -29.9700   23.8070 C   0  0  0  0  0  3  0  0  0  0  0  0
  -17.5710  -30.4630   23.9740 C   0  0  0  0  0  3  0  0  0  0  0  0
  -16.4730  -29.6980   23.5490 C   0  0  0  0  0  3  0  0  0  0  0  0
  -16.6840  -28.4440   22.9470 C   0  0  0  0  0  3  0  0  0  0  0  0
  -25.8170  -32.4100   23.7730 C   0  0  0  0  0  3  0  0  0  0  0  0
  -26.3190  -31.6400   25.0570 C   0  0  1  0  0  0  0  0  0  0  0  0
  -25.2130  -31.3970   26.1090 C   0  0  0  0  0  1  0  0  0  0  0  0
  -26.9140  -30.2640   24.6770 C   0  0  0  0  0  1  0  0  0  0  0  0
  -27.4550  -32.4410   25.7350 C   0  0  0  0  0  1  0  0  0  0  0  0
  -25.5010  -33.8080   24.1000 N   0  0  0  0  0  0  0  0  0  0  0  0
  -25.8230  -34.8600   23.3370 C   0  0  0  0  0  0  0  0  0  0  0  0
  -26.4860  -34.7580   22.3020 O   0  0  0  0  0  0  0  0  0  0  0  0
  -24.9100  -33.9610   24.9050 H   0  0  0  0  0  0  0  0  0  0  0  0
  -24.0820  -36.6440   22.9940 C   0  0  0  0  0  1  0  0  0  0  0  0
  -25.3330  -36.2480   23.7950 C   0  0  0  0  0  3  0  0  0  0  0  0
  -27.4590  -37.1590   24.6180 C   0  0  0  0  0  1  0  0  0  0  0  0
  -26.3590  -37.3060   23.6690 N   0  0  0  0  0  0  0  0  0  0  0  0
  -25.9450  -38.2250   23.8040 H   0  0  0  0  0  0  0  0  0  0  0  0
  1  5  1  0
  2  6  2  0
  2  4  1  0
  3  5  2  0
  4  1  2  0
  5  7  1  0
  6  3  1  0
  9 10  1  0
 10  4  1  0
 10  8  1  0
 11 21  1  0
 11  8  1  0
 12 51  1  0
 12  9  1  0
 12 11  1  0
 13 21  1  0
 14 19  1  0
 15 16  1  0
 15 14  1  0
 17 16  1  0
 17 26  1  0
 17 18  1  0
 19 13  1  0
 19 18  1  0
 20 13  2  0
 21 22  1  0
 23 24  2  0
 24 43  1  0
 25 24  1  0
 25 28  1  0
 26 27  1  0
 26 23  1  0
 27 25  2  0
 28 29  1  0
 29 30  2  0
 31 34  1  0
 31 30  1  0
 32 31  2  0
 33 32  1  0
 33 28  2  0
 34 35  1  0
 35 36  1  0
 36 37  2  0
 38 37  1  0
 38 42  1  0
 39 38  2  0
 40 35  2  0
 40 39  1  0
 41 40  1  0
 43 44  1  0
 44 47  1  0
 44 46  1  0
 45 43  2  0
 48 23  1  0
 48 49  1  0
 50 48  1  0
 51 52  1  0
 53 54  1  0
 53  6  1  0
 55 66  2  0
 56 54  1  0
 56 61  1  0
 57 65  1  0
 57 67  1  0
 58 64  1  0
 58 60  1  0
 59 65  1  0
 60 61  2  0
 60 59  1  0
 62 56  2  0
 63 62  1  0
 63 58  2  0
 64 57  1  0
 65 55  1  0
 67 69  2  0
 68 67  1  0
 70 68  1  0
 71 80  2  0
 71 76  1  0
 72 68  1  0
 72 76  1  0
 73 72  1  0
 74 75  1  0
 74 73  1  0
 75 71  1  0
 76 77  2  0
 77 78  1  0
 79 78  2  0
 80 79  1  0
 81 55  1  0
 81 86  1  0
 81 82  1  0
 82 85  1  1
 82 83  1  0
 84 82  1  0
 86 89  1  0
 87 91  1  0
 87 86  1  0
 88 87  2  0
 91 90  1  0
 93 91  1  0
 93 94  1  0
 93 92  1  0
M  ISO  4  13 100  21 100  53 101  54 101
M  END
>  <TORSDO>  (5) 
F 19

>  <SCORE>  (5) 
-14.166

>  <name>  (5) 
4

>  <ligand_id>  (5) 
4

>  <original_smiles>  (5) 
[H]OC1([H])C([H])([H])C([H])(c2c([H])c(C([H])([H])[H])c([H])c(C([H])([H])Oc3c([H])c([H])c4c(c3[H])C([H])([H])N(C(=O)C([H])(N([H])C(=O)C([H])(N([H])C([H])([H])[H])C([H])([H])[H])C(C([H])([H])[H])(C([H])([H])[H])C([H])([H])[H])C([H])(C(=O)N([H])C3([H])c5c([H])c([H])c([H])c([H])c5C([H])([H])C([H])([H])C3([H])[H])C4([H])[H])c2[H])C([H])([H])C1([H])N([H])C(=O)N1C([H])([H])C([H])([H])C([H])([H])C([H])(n2nc(-c3c([H])c([H])c(Oc4c([H])c([H])c(F)c([H])c4F)c([H])c3[H])c(C(=O)N([H])[H])c2N([H])[H])C1([H])[H]

>  <smiles>  (5) 
[H]OC1([H])C([H])([H])C([H])(c2c([H])c(C([H])([H])[H])c([H])c(C([H])([H])Oc3c([H])c([H])c4c(c3[H])C([H])([H])N(C(=O)C([H])(N([H])C(=O)C([H])(N([H])C([H])([H])[H])C([H])([H])[H])C(C([H])([H])[H])(C([H])([H])[H])C([H])([H])[H])C([H])(C(=O)N([H])C3([H])c5c([H])c([H])c([H])c([H])c5C([H])([H])C([H])([H])C3([H])[H])C4([H])[H])c2[H])C([H])([H])C1([H])N([H])C(=O)N1C([H])([H])C([H])([H])C([H])([H])C([H])(n2nc(-c3c([H])c([H])c(Oc4c([H])c([H])c(F)c([H])c4F)c([H])c3[H])c(C(=O)N([H])[H])c2N([H])[H])C1([H])[H]

$$$$
5:0:0
     RDKit          3D

 95103  0  0  1  0  0  0  0  0999 V2000
  -28.5240  -25.4730   21.4140 C   0  0  0  0  0  3  0  0  0  0  0  0
  -28.5050  -24.1000   21.7220 C   0  0  0  0  0  0  0  0  0  0  0  0
  -29.5780  -23.6220   19.5650 C   0  0  0  0  0  0  0  0  0  0  0  0
  -29.0230  -23.1600   20.7930 C   0  0  0  0  0  0  0  0  0  0  0  0
  -29.5500  -25.0090   19.2520 C   0  0  0  0  0  0  0  0  0  0  0  0
  -29.0170  -25.9310   20.1790 C   0  0  0  0  0  0  0  0  0  0  0  0
  -27.8900  -23.6750   23.0500 C   0  0  0  0  0  1  0  0  0  0  0  0
  -30.1750  -22.6320   18.5680 C   0  0  0  0  0  1  0  0  0  0  0  0
  -30.0580  -25.5170   17.9070 C   0  0  0  0  0  1  0  0  0  0  0  0
  -28.9550  -27.2700   19.8730 O   0  0  0  0  0  0  0  0  0  0  0  0
  -24.6400  -31.7970   23.2360 C   0  0  0  0  0  0  0  0  0  0  0  0
  -27.7170  -27.8610   19.9160 C   0  0  0  0  0  0  0  0  0  0  0  0
  -23.5750  -30.3670   21.5200 C   0  0  0  0  0  3  0  0  0  0  0  0
  -25.1730  -29.0740   20.0120 C   0  0  0  0  0  0  0  0  0  0  0  0
  -26.0430  -31.0100   21.3370 C   0  0  0  0  0  2  0  0  0  0  0  0
  -26.2700  -29.6940   20.6280 C   0  0  0  0  0  0  0  0  0  0  0  0
  -27.5450  -29.0920   20.5820 C   0  0  0  0  0  3  0  0  0  0  0  0
  -26.6090  -27.2470   19.2940 C   0  0  0  0  0  3  0  0  0  0  0  0
  -25.3360  -27.8460   19.3450 C   0  0  0  0  0  3  0  0  0  0  0  0
  -23.8440  -29.7860   20.1060 C   0  0  0  0  0  2  0  0  0  0  0  0
  -24.7690  -31.0710   22.0910 N   0  0  0  0  0  0  0  0  0  0  0  0
  -23.5410  -31.9250   23.7920 O   0  0  0  0  0  0  0  0  0  0  0  0
  -23.0420  -29.2340   22.4250 C   0  0  0  0  0  0  0  0  0  0  0  0
  -21.7710  -28.8510   22.2160 N   0  0  0  0  0  0  0  0  0  0  0  0
  -23.7690  -28.7020   23.2680 O   0  0  0  0  0  0  0  0  0  0  0  0
  -21.2400  -29.3440   21.5120 H   0  0  0  0  0  0  0  0  0  0  0  0
  -18.6590  -27.0250   22.3710 C   0  0  0  0  0  0  0  0  0  0  0  0
  -21.0690  -27.7800   22.9200 C   0  0  0  0  0  3  0  0  0  0  0  0
  -21.5150  -26.3930   22.4030 C   0  0  0  0  0  2  0  0  0  0  0  0
  -20.6210  -25.8510   21.2840 C   0  0  0  0  0  2  0  0  0  0  0  0
  -19.1720  -25.7290   21.7630 C   0  0  0  0  0  2  0  0  0  0  0  0
  -19.5520  -27.9940   22.8980 C   0  0  0  0  0  0  0  0  0  0  0  0
  -19.0280  -29.1980   23.4200 C   0  0  0  0  0  3  0  0  0  0  0  0
  -17.6410  -29.4380   23.4210 C   0  0  0  0  0  3  0  0  0  0  0  0
  -16.7610  -28.4680   22.9130 C   0  0  0  0  0  3  0  0  0  0  0  0
  -17.2690  -27.2640   22.3940 C   0  0  0  0  0  3  0  0  0  0  0  0
  -25.8580  -32.5230   23.8870 C   0  0  0  0  0  3  0  0  0  0  0  0
  -25.4520  -33.9070   24.1650 N   0  0  0  0  0  0  0  0  0  0  0  0
  -25.8340  -34.9690   23.4450 C   0  0  0  0  0  0  0  0  0  0  0  0
  -26.6320  -34.8910   22.5080 O   0  0  0  0  0  0  0  0  0  0  0  0
  -24.7570  -34.0400   24.8850 H   0  0  0  0  0  0  0  0  0  0  0  0
  -24.0890  -36.6820   22.8600 C   0  0  0  0  0  1  0  0  0  0  0  0
  -25.2330  -36.3350   23.8260 C   0  0  0  0  0  3  0  0  0  0  0  0
  -27.2150  -37.3040   24.9030 C   0  0  0  0  0  1  0  0  0  0  0  0
  -26.2250  -37.4320   23.8370 N   0  0  0  0  0  0  0  0  0  0  0  0
  -25.7650  -38.3320   23.9410 H   0  0  0  0  0  0  0  0  0  0  0  0
  -26.3740  -31.8160   25.2000 C   0  0  1  0  0  0  0  0  0  0  0  0
  -25.2560  -31.5220   26.2260 C   0  0  0  0  0  1  0  0  0  0  0  0
  -27.0700  -30.4780   24.8590 C   0  0  0  0  0  1  0  0  0  0  0  0
  -27.4370  -32.7050   25.8900 C   0  0  0  0  0  1  0  0  0  0  0  0
  -28.9380  -21.6620   21.1000 C   0  0  0  0  0  2  0  0  0  0  0  0
  -30.2750  -21.0510   21.5700 C   0  0  0  0  0  2  0  0  0  0  0  0
  -30.1190  -19.6260   22.1480 C   0  0  0  0  0  2  0  0  0  0  0  0
  -30.3140  -18.5590   21.1390 N   0  0  0  0  0  4  0  0  0  0  0  0
  -29.9990  -18.8860   20.2410 H   0  0  0  0  0  0  0  0  0  0  0  0
  -29.7240  -17.7860   21.4040 H   0  0  0  0  0  0  0  0  0  0  0  0
  -31.7050  -18.0600   21.0520 C   0  0  0  0  0  2  0  0  0  0  0  0
  -31.8740  -16.8630   20.0940 C   0  0  0  0  0  2  0  0  0  0  0  0
  -31.1890  -15.5510   20.5510 C   0  0  0  0  0  2  0  0  0  0  0  0
  -31.6660  -14.3040   19.7790 C   0  0  0  0  0  0  0  0  0  0  0  0
  -31.2220  -12.0090   18.9690 C   0  0  0  0  0  2  0  0  0  0  0  0
  -30.2400  -12.0390   17.7820 C   0  0  0  0  0  2  0  0  0  0  0  0
  -28.7800  -12.0500   18.2770 C   0  0  0  0  0  2  0  0  0  0  0  0
  -28.5300  -13.1210   19.3720 C   0  0  0  0  0  3  0  0  0  0  0  0
  -29.6110  -13.0350   20.4730 C   0  0  0  0  0  2  0  0  0  0  0  0
  -30.9270  -13.1650   19.8280 N   0  0  0  0  0  0  0  0  0  0  0  0
  -32.7030  -14.3820   19.1100 O   0  0  0  0  0  0  0  0  0  0  0  0
  -26.2670  -14.0110   20.2230 C   0  0  0  0  0  0  0  0  0  0  0  0
  -25.1350  -13.3690   20.6500 C   0  0  0  0  0  0  0  0  0  0  0  0
  -25.4230  -11.9730   20.5790 C   0  0  0  0  0  0  0  0  0  0  0  0
  -27.1820  -13.0110   19.9250 N   0  0  0  0  0  0  0  0  0  0  0  0
  -26.6780  -11.7800   20.1920 N   0  0  0  0  0  0  0  0  0  0  0  0
  -24.5600  -10.8060   20.8030 C   0  0  0  0  0  0  0  0  0  0  0  0
  -24.9120   -9.7930   21.7230 C   0  0  0  0  0  3  0  0  0  0  0  0
  -24.0580   -8.6890   21.9340 C   0  0  0  0  0  3  0  0  0  0  0  0
  -22.8360   -8.5920   21.2260 C   0  0  0  0  0  0  0  0  0  0  0  0
  -22.5010   -9.5910   20.2950 C   0  0  0  0  0  3  0  0  0  0  0  0
  -23.3550  -10.6860   20.0820 C   0  0  0  0  0  3  0  0  0  0  0  0
  -21.9560   -7.5440   21.3480 O   0  0  0  0  0  0  0  0  0  0  0  0
  -21.8340   -6.8400   22.5190 C   0  0  0  0  0  0  0  0  0  0  0  0
  -21.5040   -7.4710   23.7380 C   0  0  0  0  0  3  0  0  0  0  0  0
  -21.3200   -6.7000   24.9040 C   0  0  0  0  0  3  0  0  0  0  0  0
  -21.4560   -5.2990   24.8510 C   0  0  0  0  0  0  0  0  0  0  0  0
  -21.7780   -4.6690   23.6360 C   0  0  0  0  0  3  0  0  0  0  0  0
  -21.9630   -5.4360   22.4730 C   0  0  0  0  0  0  0  0  0  0  0  0
  -22.2530   -4.8210   21.3020 F   0  0  0  0  0  0  0  0  0  0  0  0
  -21.2700   -4.5580   25.9680 F   0  0  0  0  0  0  0  0  0  0  0  0
  -23.8250  -14.0090   21.0120 C   0  0  0  0  0  0  0  0  0  0  0  0
  -23.0810  -13.4060   21.9320 N   0  0  0  0  0  0  0  0  0  0  0  0
  -23.4770  -15.0800   20.5130 O   0  0  0  0  0  0  0  0  0  0  0  0
  -23.3770  -12.5390   22.3570 H   0  0  0  0  0  0  0  0  0  0  0  0
  -22.2040  -13.8170   22.2180 H   0  0  0  0  0  0  0  0  0  0  0  0
  -26.5880  -15.3530   20.0450 N   0  0  0  0  0  0  0  0  0  0  0  0
  -25.9070  -16.0920   20.1840 H   0  0  0  0  0  0  0  0  0  0  0  0
  -27.4530  -15.6840   19.6350 H   0  0  0  0  0  0  0  0  0  0  0  0
  1  2  1  0
  2  7  1  0
  3  4  1  0
  4 51  1  0
  4  2  2  0
  5  3  2  0
  5  6  1  0
  6  1  2  0
  8  3  1  0
  9  5  1  0
 10 12  1  0
 10  6  1  0
 11 22  2  0
 12 17  1  0
 13 21  1  0
 13 23  1  0
 14 20  1  0
 14 16  1  0
 15 21  1  0
 16 15  1  0
 17 16  2  0
 18 19  1  0
 18 12  2  0
 19 14  2  0
 20 13  1  0
 21 11  1  0
 23 25  2  0
 24 23  1  0
 26 24  1  0
 27 36  2  0
 27 32  1  0
 28 24  1  0
 29 28  1  0
 30 31  1  0
 30 29  1  0
 31 27  1  0
 32 28  1  0
 32 33  2  0
 33 34  1  0
 35 34  2  0
 36 35  1  0
 37 11  1  0
 37 38  1  0
 37 47  1  0
 38 41  1  0
 39 43  1  0
 39 38  1  0
 40 39  2  0
 43 42  1  0
 43 45  1  0
 45 46  1  0
 45 44  1  0
 47 50  1  1
 47 48  1  0
 49 47  1  0
 51 52  1  0
 52 53  1  0
 54 56  1  0
 54 53  1  0
 55 54  1  0
 57 54  1  0
 58 59  1  0
 58 57  1  0
 60 66  1  0
 60 59  1  0
 61 66  1  0
 62 63  1  0
 62 61  1  0
 64 63  1  0
 64 71  1  0
 64 65  1  0
 66 65  1  0
 67 60  2  0
 68 69  2  0
 69 88  1  0
 70 69  1  0
 70 73  1  0
 71 72  1  0
 71 68  1  0
 72 70  2  0
 73 74  1  0
 74 75  2  0
 76 79  1  0
 76 75  1  0
 77 76  2  0
 78 77  1  0
 78 73  2  0
 79 80  1  0
 80 81  1  0
 81 82  2  0
 83 82  1  0
 83 87  1  0
 84 83  2  0
 85 80  2  0
 85 84  1  0
 86 85  1  0
 88 89  1  0
 89 92  1  0
 89 91  1  0
 90 88  2  0
 93 94  1  0
 93 68  1  0
 95 93  1  0
M  ISO  4   6 101  10 101  59 100  60 100
M  END
>  <TORSDO>  (6) 
F 23

>  <SCORE>  (6) 
-10.181

>  <name>  (6) 
5

>  <ligand_id>  (6) 
5

>  <original_smiles>  (6) 
[H]c1c([H])c([H])c2c(c1[H])C([H])([H])C([H])([H])C([H])([H])C2([H])N([H])C(=O)C1([H])N(C(=O)C([H])(N([H])C(=O)C([H])(N([H])C([H])([H])[H])C([H])([H])[H])C(C([H])([H])[H])(C([H])([H])[H])C([H])([H])[H])C([H])([H])c2c([H])c(Oc3c([H])c(C([H])([H])[H])c(C([H])([H])C([H])([H])C([H])([H])[N+]([H])([H])C([H])([H])C([H])([H])C([H])([H])C(=O)N4C([H])([H])C([H])([H])C([H])([H])C([H])(n5nc(-c6c([H])c([H])c(Oc7c([H])c([H])c(F)c([H])c7F)c([H])c6[H])c(C(=O)N([H])[H])c5N([H])[H])C4([H])[H])c(C([H])([H])[H])c3C([H])([H])[H])c([H])c([H])c2C1([H])[H]

>  <smiles>  (6) 
[H]c1c([H])c([H])c2c(c1[H])C([H])([H])C([H])([H])C([H])([H])C2([H])N([H])C(=O)C1([H])N(C(=O)C([H])(N([H])C(=O)C([H])(N([H])C([H])([H])[H])C([H])([H])[H])C(C([H])([H])[H])(C([H])([H])[H])C([H])([H])[H])C([H])([H])c2c([H])c(Oc3c([H])c(C([H])([H])[H])c(C([H])([H])C([H])([H])C([H])([H])[N+]([H])([H])C([H])([H])C([H])([H])C([H])([H])C(=O)N4C([H])([H])C([H])([H])C([H])([H])C([H])(n5nc(-c6c([H])c([H])c(Oc7c([H])c([H])c(F)c([H])c7F)c([H])c6[H])c(C(=O)N([H])[H])c5N([H])[H])C4([H])[H])c(C([H])([H])[H])c3C([H])([H])[H])c([H])c([H])c2C1([H])[H]

$$$$
6:0:0
     RDKit          3D

 92100  0  0  1  0  0  0  0  0999 V2000
  -29.0340  -20.2870   20.1120 N   0  0  0  0  0  4  0  0  0  0  0  0
  -28.1740  -20.3100   19.5880 H   0  0  0  0  0  0  0  0  0  0  0  0
  -28.7560  -19.9960   21.0340 H   0  0  0  0  0  0  0  0  0  0  0  0
  -30.6920  -19.5080   18.2610 C   0  0  0  0  0  1  0  0  0  0  0  0
  -29.7980  -19.0520   19.4280 C   0  0  0  0  0  3  0  0  0  0  0  0
  -31.7950  -18.9840   22.0050 C   0  0  0  0  0  2  0  0  0  0  0  0
  -30.6090  -18.3750   22.7390 C   0  0  0  0  0  2  0  0  0  0  0  0
  -31.9290  -18.1480   20.7320 C   0  0  0  0  0  2  0  0  0  0  0  0
  -29.7410  -17.7100   21.6610 C   0  0  0  0  0  2  0  0  0  0  0  0
  -30.4950  -17.7600   20.2990 C   0  0  1  0  0  0  0  0  0  0  0  0
  -31.3080  -15.0570   19.8150 C   0  0  0  0  0  0  0  0  0  0  0  0
  -31.1220  -12.6740   18.9360 C   0  0  0  0  0  2  0  0  0  0  0  0
  -30.1410  -12.5930   17.7430 C   0  0  0  0  0  2  0  0  0  0  0  0
  -28.6810  -12.4580   18.2250 C   0  0  0  0  0  2  0  0  0  0  0  0
  -28.3430  -13.4400   19.3760 C   0  0  0  0  0  3  0  0  0  0  0  0
  -29.4340  -13.4470   20.4640 C   0  0  0  0  0  2  0  0  0  0  0  0
  -30.6890  -13.8090   19.7940 N   0  0  0  0  0  0  0  0  0  0  0  0
  -32.5280  -15.0910   19.6190 O   0  0  0  0  0  0  0  0  0  0  0  0
  -30.4980  -16.2320   19.8260 N   0  0  0  0  0  0  0  0  0  0  0  0
  -29.5470  -15.9410   19.6670 H   0  0  0  0  0  0  0  0  0  0  0  0
  -26.0220  -14.1460   20.1940 C   0  0  0  0  0  0  0  0  0  0  0  0
  -24.9340  -13.4290   20.6070 C   0  0  0  0  0  0  0  0  0  0  0  0
  -25.3280  -12.0550   20.5700 C   0  0  0  0  0  0  0  0  0  0  0  0
  -27.0100  -13.2140   19.9250 N   0  0  0  0  0  0  0  0  0  0  0  0
  -26.6040  -11.9510   20.2180 N   0  0  0  0  0  0  0  0  0  0  0  0
  -24.5440  -10.8330   20.7870 C   0  0  0  0  0  0  0  0  0  0  0  0
  -24.9040   -9.8910   21.7760 C   0  0  0  0  0  3  0  0  0  0  0  0
  -24.1210   -8.7330   21.9790 C   0  0  0  0  0  3  0  0  0  0  0  0
  -22.9650   -8.5100   21.1930 C   0  0  0  0  0  0  0  0  0  0  0  0
  -22.6260   -9.4400   20.1950 C   0  0  0  0  0  3  0  0  0  0  0  0
  -23.4080  -10.5880   19.9900 C   0  0  0  0  0  3  0  0  0  0  0  0
  -22.1600   -7.4010   21.3030 O   0  0  0  0  0  0  0  0  0  0  0  0
  -21.9720   -6.7650   22.5040 C   0  0  0  0  0  0  0  0  0  0  0  0
  -21.4580   -7.4400   23.6330 C   0  0  0  0  0  3  0  0  0  0  0  0
  -21.2160   -6.7300   24.8270 C   0  0  0  0  0  3  0  0  0  0  0  0
  -21.4770   -5.3490   24.8920 C   0  0  0  0  0  0  0  0  0  0  0  0
  -21.9850   -4.6750   23.7680 C   0  0  0  0  0  3  0  0  0  0  0  0
  -22.2300   -5.3800   22.5770 C   0  0  0  0  0  0  0  0  0  0  0  0
  -22.6980   -4.7220   21.4900 F   0  0  0  0  0  0  0  0  0  0  0  0
  -21.2380   -4.6660   26.0360 F   0  0  0  0  0  0  0  0  0  0  0  0
  -23.5710  -13.9770   20.9140 C   0  0  0  0  0  0  0  0  0  0  0  0
  -22.8500  -13.3460   21.8350 N   0  0  0  0  0  0  0  0  0  0  0  0
  -23.1570  -15.0000   20.3680 O   0  0  0  0  0  0  0  0  0  0  0  0
  -23.2010  -12.5210   22.2980 H   0  0  0  0  0  0  0  0  0  0  0  0
  -21.9340  -13.6930   22.0800 H   0  0  0  0  0  0  0  0  0  0  0  0
  -26.2420  -15.5060   19.9910 N   0  0  0  0  0  0  0  0  0  0  0  0
  -25.4890  -16.1770   20.1010 H   0  0  0  0  0  0  0  0  0  0  0  0
  -27.0390  -15.8840   19.4970 H   0  0  0  0  0  0  0  0  0  0  0  0
  -29.4310  -21.8260   20.2100 C   0  0  0  0  0  2  0  0  0  0  0  0
  -28.3850  -23.1230   19.8540 C   0  0  0  0  0  2  0  0  0  0  0  0
  -28.2560  -24.6240   20.6300 C   0  0  0  0  0  2  0  0  0  0  0  0
  -28.2820  -26.0840   20.0910 O   0  0  0  0  0  0  0  0  0  0  0  0
  -24.5670  -31.7360   23.0990 C   0  0  0  0  0  0  0  0  0  0  0  0
  -27.1790  -27.0100   20.1300 C   0  0  0  0  0  0  0  0  0  0  0  0
  -23.3790  -30.3230   21.4620 C   0  0  0  0  0  3  0  0  0  0  0  0
  -24.8380  -28.7300   20.0710 C   0  0  0  0  0  0  0  0  0  0  0  0
  -25.9320  -30.5970   21.3080 C   0  0  0  0  0  2  0  0  0  0  0  0
  -26.0130  -29.1970   20.6750 C   0  0  0  0  0  0  0  0  0  0  0  0
  -27.1870  -28.3560   20.6790 C   0  0  0  0  0  3  0  0  0  0  0  0
  -25.9750  -26.6270   19.5100 C   0  0  0  0  0  3  0  0  0  0  0  0
  -24.8290  -27.4570   19.4760 C   0  0  0  0  0  3  0  0  0  0  0  0
  -23.6100  -29.6290   20.0930 C   0  0  0  0  0  2  0  0  0  0  0  0
  -24.6450  -30.9090   22.0100 N   0  0  0  0  0  0  0  0  0  0  0  0
  -23.4790  -32.0250   23.6190 O   0  0  0  0  0  0  0  0  0  0  0  0
  -22.6970  -29.3240   22.4320 C   0  0  0  0  0  0  0  0  0  0  0  0
  -21.3710  -29.1500   22.2980 N   0  0  0  0  0  0  0  0  0  0  0  0
  -23.3640  -28.7090   23.2680 O   0  0  0  0  0  0  0  0  0  0  0  0
  -20.8890  -29.6990   21.6000 H   0  0  0  0  0  0  0  0  0  0  0  0
  -17.9890  -27.9470   22.7870 C   0  0  0  0  0  0  0  0  0  0  0  0
  -20.5450  -28.2190   23.0740 C   0  0  0  0  0  3  0  0  0  0  0  0
  -20.6560  -26.7830   22.5150 C   0  0  0  0  0  2  0  0  0  0  0  0
  -19.5640  -26.4460   21.4950 C   0  0  0  0  0  2  0  0  0  0  0  0
  -18.1760  -26.5910   22.1260 C   0  0  0  0  0  2  0  0  0  0  0  0
  -19.1030  -28.7180   23.2170 C   0  0  0  0  0  0  0  0  0  0  0  0
  -18.8740  -29.9840   23.7960 C   0  0  0  0  0  3  0  0  0  0  0  0
  -17.5660  -30.4810   23.9490 C   0  0  0  0  0  3  0  0  0  0  0  0
  -16.4680  -29.7080   23.5360 C   0  0  0  0  0  3  0  0  0  0  0  0
  -16.6810  -28.4430   22.9600 C   0  0  0  0  0  3  0  0  0  0  0  0
  -25.8420  -32.3790   23.7280 C   0  0  0  0  0  3  0  0  0  0  0  0
  -25.5070  -33.7610   24.1070 N   0  0  0  0  0  0  0  0  0  0  0  0
  -25.8130  -34.8480   23.3860 C   0  0  0  0  0  0  0  0  0  0  0  0
  -26.4780  -34.7950   22.3480 O   0  0  0  0  0  0  0  0  0  0  0  0
  -24.9160  -33.8740   24.9180 H   0  0  0  0  0  0  0  0  0  0  0  0
  -24.0480  -36.6190   23.1130 C   0  0  0  0  0  1  0  0  0  0  0  0
  -25.3040  -36.2100   23.8990 C   0  0  0  0  0  3  0  0  0  0  0  0
  -27.4290  -37.1020   24.7450 C   0  0  0  0  0  1  0  0  0  0  0  0
  -26.3150  -37.2860   23.8180 N   0  0  0  0  0  0  0  0  0  0  0  0
  -25.8940  -38.1930   24.0060 H   0  0  0  0  0  0  0  0  0  0  0  0
  -26.3870  -31.5860   24.9800 C   0  0  1  0  0  0  0  0  0  0  0  0
  -25.3090  -31.2960   26.0500 C   0  0  0  0  0  1  0  0  0  0  0  0
  -26.9990  -30.2320   24.5510 C   0  0  0  0  0  1  0  0  0  0  0  0
  -27.5240  -32.3890   25.6570 C   0  0  0  0  0  1  0  0  0  0  0  0
  1 49  1  0
  1  3  1  0
  2  1  1  0
  5  4  1  0
  5  1  1  0
 10  5  1  6
  6  7  1  0
  8  6  1  0
  9  7  1  0
 10  8  1  0
 10  9  1  0
 11 19  1  0
 12 17  1  0
 13 14  1  0
 13 12  1  0
 15 14  1  0
 15 24  1  0
 15 16  1  0
 17 11  1  0
 17 16  1  0
 18 11  2  0
 19 10  1  0
 20 19  1  0
 21 22  2  0
 22 41  1  0
 23 22  1  0
 23 26  1  0
 24 21  1  0
 24 25  1  0
 25 23  2  0
 26 27  1  0
 27 28  2  0
 29 32  1  0
 29 28  1  0
 30 29  2  0
 31 30  1  0
 31 26  2  0
 32 33  1  0
 33 38  2  0
 33 34  1  0
 34 35  2  0
 35 36  1  0
 36 40  1  0
 37 36  2  0
 38 37  1  0
 39 38  1  0
 41 42  1  0
 42 45  1  0
 42 44  1  0
 43 41  2  0
 46 47  1  0
 46 21  1  0
 48 46  1  0
 50 49  1  0
 50 51  1  0
 52 54  1  0
 52 51  1  0
 53 64  2  0
 54 59  1  0
 55 63  1  0
 55 65  1  0
 56 62  1  0
 56 58  1  0
 57 63  1  0
 58 59  2  0
 58 57  1  0
 60 54  2  0
 61 60  1  0
 61 56  2  0
 62 55  1  0
 63 53  1  0
 65 67  2  0
 66 65  1  0
 68 66  1  0
 69 78  2  0
 69 74  1  0
 70 66  1  0
 70 74  1  0
 71 70  1  0
 72 73  1  0
 72 71  1  0
 73 69  1  0
 74 75  2  0
 75 76  1  0
 77 76  2  0
 78 77  1  0
 79 53  1  0
 79 80  1  0
 79 89  1  0
 80 83  1  0
 81 85  1  0
 81 80  1  0
 82 81  2  0
 85 84  1  0
 87 85  1  0
 87 88  1  0
 87 86  1  0
 89 92  1  1
 89 90  1  0
 91 89  1  0
M  ISO  4  11 100  19 100  51 101  52 101
M  END
>  <TORSDO>  (7) 
F 21

>  <SCORE>  (7) 
-13.577

>  <name>  (7) 
6

>  <ligand_id>  (7) 
6

>  <original_smiles>  (7) 
[H]c1c([H])c([H])c2c(c1[H])C([H])([H])C([H])([H])C([H])([H])C2([H])N([H])C(=O)C1([H])N(C(=O)C([H])(N([H])C(=O)C([H])(N([H])C([H])([H])[H])C([H])([H])[H])C(C([H])([H])[H])(C([H])([H])[H])C([H])([H])[H])C([H])([H])c2c([H])c(OC([H])([H])C([H])([H])C([H])([H])[N+]([H])([H])C([H])(C([H])([H])[H])C3(N([H])C(=O)N4C([H])([H])C([H])([H])C([H])([H])C([H])(n5nc(-c6c([H])c([H])c(Oc7c([H])c([H])c(F)c([H])c7F)c([H])c6[H])c(C(=O)N([H])[H])c5N([H])[H])C4([H])[H])C([H])([H])C([H])([H])C([H])([H])C3([H])[H])c([H])c([H])c2C1([H])[H]

>  <smiles>  (7) 
[H]c1c([H])c([H])c2c(c1[H])C([H])([H])C([H])([H])C([H])([H])C2([H])N([H])C(=O)C1([H])N(C(=O)C([H])(N([H])C(=O)C([H])(N([H])C([H])([H])[H])C([H])([H])[H])C(C([H])([H])[H])(C([H])([H])[H])C([H])([H])[H])C([H])([H])c2c([H])c(OC([H])([H])C([H])([H])C([H])([H])[N+]([H])([H])C([H])(C([H])([H])[H])C3(N([H])C(=O)N4C([H])([H])C([H])([H])C([H])([H])C([H])(n5nc(-c6c([H])c([H])c(Oc7c([H])c([H])c(F)c([H])c7F)c([H])c6[H])c(C(=O)N([H])[H])c5N([H])[H])C4([H])[H])C([H])([H])C([H])([H])C([H])([H])C3([H])[H])c([H])c([H])c2C1([H])[H]

$$$$
7:0:0
     RDKit          3D

 95102  0  0  1  0  0  0  0  0999 V2000
  -25.0070  -22.8500   19.2630 C   0  0  0  0  0  3  0  0  0  0  0  0
  -25.4290  -21.5120   19.1660 C   0  0  0  0  0  3  0  0  0  0  0  0
  -25.8570  -23.8670   19.7010 C   0  0  0  0  0  3  0  0  0  0  0  0
  -27.6240  -22.2390   19.8960 C   0  0  0  0  0  3  0  0  0  0  0  0
  -26.7390  -21.1090   19.5250 C   0  0  0  0  0  0  0  0  0  0  0  0
  -27.2290  -23.6570   19.9490 C   0  0  0  0  0  0  0  0  0  0  0  0
  -27.1010  -19.5110   19.6460 C   0  0  0  0  0  2  0  0  0  0  0  0
  -24.7920  -18.4340   18.7840 C   0  0  0  0  0  1  0  0  0  0  0  0
  -26.2900  -18.1860   19.0000 C   0  0  0  0  0  3  0  0  0  0  0  0
  -26.4700  -16.7940   19.6850 N   0  0  0  0  0  4  0  0  0  0  0  0
  -26.0920  -16.8720   20.6270 H   0  0  0  0  0  0  0  0  0  0  0  0
  -27.4440  -16.6560   19.8740 H   0  0  0  0  0  0  0  0  0  0  0  0
  -25.8480  -15.4060   19.2210 C   0  0  0  0  0  2  0  0  0  0  0  0
  -26.5640  -13.1410   18.5080 C   0  0  0  0  0  1  0  0  0  0  0  0
  -26.2910  -13.8470   19.9110 C   0  0  0  0  0  3  0  0  0  0  0  0
  -29.3240  -14.5070   21.0300 C   0  0  0  0  0  0  0  0  0  0  0  0
  -30.7780  -12.6060   20.5060 C   0  0  0  0  0  2  0  0  0  0  0  0
  -29.9940  -12.2550   19.2390 C   0  0  0  0  0  2  0  0  0  0  0  0
  -28.7560  -11.4680   19.7720 C   0  0  0  0  0  2  0  0  0  0  0  0
  -28.1620  -12.0520   21.1550 C   0  0  0  0  0  3  0  0  0  0  0  0
  -29.0430  -12.5220   22.2010 C   0  0  0  0  0  2  0  0  0  0  0  0
  -29.8330  -13.3180   21.3870 N   0  0  0  0  0  0  0  0  0  0  0  0
  -30.3060  -15.2940   21.1570 O   0  0  0  0  0  0  0  0  0  0  0  0
  -27.8900  -14.6460   20.4120 N   0  0  0  0  0  0  0  0  0  0  0  0
  -27.8500  -15.6000   20.1040 H   0  0  0  0  0  0  0  0  0  0  0  0
  -25.4410  -13.8420   21.7480 C   0  0  0  0  0  2  0  0  0  0  0  0
  -24.1130  -13.1410   20.8850 C   0  0  0  0  0  3  0  0  0  0  0  0
  -24.5360  -11.5490   20.2770 C   0  0  0  0  0  3  0  0  0  0  0  0
  -26.8720  -12.4380   21.4880 N   0  0  0  0  0  2  0  0  0  0  0  0
  -26.1000  -11.2420   20.5320 N   0  0  0  0  0  2  0  0  0  0  0  0
  -23.8720  -10.2500   20.8710 C   0  0  0  0  0  0  0  0  0  0  0  0
  -24.3060   -9.4630   22.0210 C   0  0  0  0  0  3  0  0  0  0  0  0
  -23.6880   -8.2240   22.4110 C   0  0  0  0  0  3  0  0  0  0  0  0
  -22.5840   -7.7330   21.6710 C   0  0  0  0  0  0  0  0  0  0  0  0
  -22.1180   -8.5260   20.6120 C   0  0  0  0  0  3  0  0  0  0  0  0
  -22.7290   -9.7450   20.2380 C   0  0  0  0  0  3  0  0  0  0  0  0
  -21.9570   -6.5020   21.8150 O   0  0  0  0  0  0  0  0  0  0  0  0
  -21.7980   -5.8250   23.0020 C   0  0  0  0  0  0  0  0  0  0  0  0
  -21.1530   -6.4060   24.1150 C   0  0  0  0  0  3  0  0  0  0  0  0
  -20.9290   -5.6430   25.2810 C   0  0  0  0  0  3  0  0  0  0  0  0
  -21.3380   -4.2990   25.3380 C   0  0  0  0  0  0  0  0  0  0  0  0
  -21.9590   -3.7070   24.2270 C   0  0  0  0  0  3  0  0  0  0  0  0
  -22.1780   -4.4640   23.0600 C   0  0  0  0  0  0  0  0  0  0  0  0
  -22.7470   -3.8720   21.9830 F   0  0  0  0  0  0  0  0  0  0  0  0
  -21.1290   -3.5680   26.4620 F   0  0  0  0  0  0  0  0  0  0  0  0
  -22.6590  -13.3840   21.0910 C   0  0  0  0  0  0  0  0  0  0  0  0
  -22.0050  -12.5960   21.9390 N   0  0  0  0  0  0  0  0  0  0  0  0
  -22.1050  -14.2480   20.4280 O   0  0  0  0  0  0  0  0  0  0  0  0
  -21.0170  -12.7380   22.1010 H   0  0  0  0  0  0  0  0  0  0  0  0
  -22.4860  -11.9010   22.4850 H   0  0  0  0  0  0  0  0  0  0  0  0
  -25.6280  -15.1700   21.9670 N   0  0  0  0  0  0  0  0  0  0  0  0
  -25.0190  -15.5200   22.6940 H   0  0  0  0  0  0  0  0  0  0  0  0
  -26.5790  -15.2460   22.3110 H   0  0  0  0  0  0  0  0  0  0  0  0
  -28.0980  -24.9180   20.5070 C   0  0  0  0  0  2  0  0  0  0  0  0
  -28.3120  -26.2930   19.8640 O   0  0  0  0  0  0  0  0  0  0  0  0
  -24.6860  -31.5960   23.3430 C   0  0  0  0  0  0  0  0  0  0  0  0
  -27.3150  -27.2880   19.9160 C   0  0  0  0  0  0  0  0  0  0  0  0
  -23.5140  -30.3210   21.5890 C   0  0  0  0  0  3  0  0  0  0  0  0
  -24.9940  -28.9440   20.0180 C   0  0  0  0  0  0  0  0  0  0  0  0
  -26.0560  -30.6680   21.4640 C   0  0  0  0  0  2  0  0  0  0  0  0
  -26.1510  -29.3440   20.7010 C   0  0  0  0  0  0  0  0  0  0  0  0
  -27.3190  -28.5160   20.6670 C   0  0  0  0  0  3  0  0  0  0  0  0
  -26.2080  -27.0620   19.0970 C   0  0  0  0  0  3  0  0  0  0  0  0
  -25.0300  -27.8110   19.2000 C   0  0  0  0  0  3  0  0  0  0  0  0
  -23.7460  -29.7870   20.1530 C   0  0  0  0  0  2  0  0  0  0  0  0
  -24.7700  -30.8750   22.1870 N   0  0  0  0  0  0  0  0  0  0  0  0
  -23.5940  -31.8040   23.8920 O   0  0  0  0  0  0  0  0  0  0  0  0
  -22.8730  -29.2050   22.4440 C   0  0  0  0  0  0  0  0  0  0  0  0
  -21.5630  -28.9710   22.2540 N   0  0  0  0  0  0  0  0  0  0  0  0
  -23.5540  -28.5590   23.2460 O   0  0  0  0  0  0  0  0  0  0  0  0
  -21.0700  -29.5510   21.5890 H   0  0  0  0  0  0  0  0  0  0  0  0
  -18.2510  -27.5400   22.5000 C   0  0  0  0  0  0  0  0  0  0  0  0
  -20.7670  -27.9470   22.9310 C   0  0  0  0  0  3  0  0  0  0  0  0
  -20.9960  -26.5540   22.3010 C   0  0  0  0  0  2  0  0  0  0  0  0
  -19.9770  -26.2120   21.2090 C   0  0  0  0  0  2  0  0  0  0  0  0
  -18.5540  -26.2380   21.7760 C   0  0  0  0  0  2  0  0  0  0  0  0
  -19.2910  -28.3500   23.0280 C   0  0  0  0  0  0  0  0  0  0  0  0
  -18.9560  -29.5650   23.6630 C   0  0  0  0  0  3  0  0  0  0  0  0
  -17.6130  -29.9740   23.7730 C   0  0  0  0  0  3  0  0  0  0  0  0
  -16.5870  -29.1630   23.2600 C   0  0  0  0  0  3  0  0  0  0  0  0
  -16.9060  -27.9460   22.6270 C   0  0  0  0  0  3  0  0  0  0  0  0
  -25.9530  -32.1990   24.0210 C   0  0  0  0  0  3  0  0  0  0  0  0
  -25.6290  -33.5740   24.4210 N   0  0  0  0  0  0  0  0  0  0  0  0
  -25.9810  -34.6690   23.7370 C   0  0  0  0  0  0  0  0  0  0  0  0
  -26.6790  -34.6280   22.7220 O   0  0  0  0  0  0  0  0  0  0  0  0
  -25.0080  -33.6820   25.2100 H   0  0  0  0  0  0  0  0  0  0  0  0
  -24.2630  -36.4830   23.4290 C   0  0  0  0  0  1  0  0  0  0  0  0
  -25.4750  -36.0280   24.2580 C   0  0  0  0  0  3  0  0  0  0  0  0
  -27.5770  -36.8580   25.2190 C   0  0  0  0  0  1  0  0  0  0  0  0
  -26.5090  -37.0850   24.2490 N   0  0  0  0  0  0  0  0  0  0  0  0
  -26.0950  -37.9940   24.4410 H   0  0  0  0  0  0  0  0  0  0  0  0
  -26.4520  -31.3610   25.2630 C   0  0  1  0  0  0  0  0  0  0  0  0
  -25.3410  -31.0600   26.2970 C   0  0  0  0  0  1  0  0  0  0  0  0
  -27.0520  -30.0090   24.8120 C   0  0  0  0  0  1  0  0  0  0  0  0
  -27.5850  -32.1230   25.9850 C   0  0  0  0  0  1  0  0  0  0  0  0
  1  3  1  0
  2  1  2  0
  2  5  1  0
  3  6  2  0
  4  6  1  0
  5  7  1  0
  5  4  2  0
  6 54  1  0
  9  8  1  0
  9  7  1  0
  9 10  1  0
 10 12  1  0
 10 11  1  0
 13 10  1  0
 13 15  1  0
 15 14  1  0
 15 24  1  0
 16 23  2  0
 16 22  1  0
 17 22  1  0
 18 19  1  0
 18 17  1  0
 19 20  1  0
 20 29  1  0
 20 21  1  0
 22 21  1  0
 24 16  1  0
 25 24  1  0
 26 51  1  0
 27 46  1  0
 27 26  1  0
 28 30  1  0
 28 31  1  0
 28 27  1  0
 30 29  1  0
 31 32  1  0
 32 33  2  0
 34 37  1  0
 34 33  1  0
 35 34  2  0
 36 35  1  0
 36 31  2  0
 37 38  1  0
 38 43  2  0
 38 39  1  0
 39 40  2  0
 40 41  1  0
 41 45  1  0
 42 41  2  0
 43 42  1  0
 44 43  1  0
 46 47  1  0
 47 49  1  0
 47 50  1  0
 48 46  2  0
 51 53  1  0
 51 52  1  0
 55 57  1  0
 55 54  1  0
 56 67  2  0
 57 62  1  0
 58 66  1  0
 58 68  1  0
 59 65  1  0
 59 61  1  0
 60 66  1  0
 61 60  1  0
 62 61  2  0
 63 64  1  0
 63 57  2  0
 64 59  2  0
 65 58  1  0
 66 56  1  0
 68 70  2  0
 69 68  1  0
 71 69  1  0
 72 81  2  0
 72 77  1  0
 73 69  1  0
 73 77  1  0
 74 73  1  0
 75 76  1  0
 75 74  1  0
 76 72  1  0
 77 78  2  0
 78 79  1  0
 80 79  2  0
 81 80  1  0
 82 56  1  0
 82 83  1  0
 82 92  1  0
 83 86  1  0
 84 88  1  0
 84 83  1  0
 85 84  2  0
 88 87  1  0
 90 88  1  0
 90 91  1  0
 90 89  1  0
 92 95  1  1
 92 93  1  0
 94 92  1  0
M  ISO  4  16 100  24 100  54 101  55 101
M  END
>  <TORSDO>  (8) 
F 22

>  <SCORE>  (8) 
-8.126

>  <name>  (8) 
7

>  <ligand_id>  (8) 
7

>  <original_smiles>  (8) 
[H]c1c([H])c([H])c2c(c1[H])C([H])([H])C([H])([H])C([H])([H])C2([H])N([H])C(=O)C1([H])N(C(=O)C([H])(N([H])C(=O)C([H])(N([H])C([H])([H])[H])C([H])([H])[H])C(C([H])([H])[H])(C([H])([H])[H])C([H])([H])[H])C([H])([H])c2c([H])c(OC([H])([H])c3c([H])c([H])c([H])c(C([H])([H])C([H])(C([H])([H])[H])[N+]([H])([H])C([H])([H])C([H])(N([H])C(=O)N4C([H])([H])C([H])([H])C([H])([H])C([H])(n5nc(-c6c([H])c([H])c(Oc7c([H])c([H])c(F)c([H])c7F)c([H])c6[H])c(C(=O)N([H])[H])c5N([H])[H])C4([H])[H])C([H])([H])[H])c3[H])c([H])c([H])c2C1([H])[H]

>  <smiles>  (8) 
[H]c1c([H])c([H])c2c(c1[H])C([H])([H])C([H])([H])C([H])([H])C2([H])N([H])C(=O)C1([H])N(C(=O)C([H])(N([H])C(=O)C([H])(N([H])C([H])([H])[H])C([H])([H])[H])C(C([H])([H])[H])(C([H])([H])[H])C([H])([H])[H])C([H])([H])c2c([H])c(OC([H])([H])c3c([H])c([H])c([H])c(C([H])([H])C([H])(C([H])([H])[H])[N+]([H])([H])C([H])([H])C([H])(N([H])C(=O)N4C([H])([H])C([H])([H])C([H])([H])C([H])(n5nc(-c6c([H])c([H])c(Oc7c([H])c([H])c(F)c([H])c7F)c([H])c6[H])c(C(=O)N([H])[H])c5N([H])[H])C4([H])[H])C([H])([H])[H])c3[H])c([H])c([H])c2C1([H])[H]

$$$$
8:0:0
     RDKit          3D

 96105  0  0  1  0  0  0  0  0999 V2000
  -29.6970  -23.1480   24.0570 C   0  0  0  0  0  3  0  0  0  0  0  0
  -29.4720  -21.8380   23.5860 C   0  0  0  0  0  3  0  0  0  0  0  0
  -29.8260  -24.2250   23.1510 C   0  0  0  0  0  3  0  0  0  0  0  0
  -29.3990  -21.6320   22.1960 C   0  0  0  0  0  0  0  0  0  0  0  0
  -29.5230  -22.6920   21.3030 C   0  0  0  0  0  0  0  0  0  0  0  0
  -29.7250  -24.0170   21.7520 C   0  0  0  0  0  0  0  0  0  0  0  0
  -29.3890  -22.2170   19.8780 C   0  0  0  0  0  2  0  0  0  0  0  0
  -28.9500  -20.7400   20.0130 C   0  0  0  0  0  2  0  0  0  0  0  0
  -29.1550  -20.3180   21.4920 C   0  0  0  0  0  3  0  0  0  0  0  0
  -30.3120  -19.4180   21.6680 N   0  0  0  0  0  4  0  0  0  0  0  0
  -30.6830  -19.6050   22.5840 H   0  0  0  0  0  0  0  0  0  0  0  0
  -31.0240  -19.6600   21.0000 H   0  0  0  0  0  0  0  0  0  0  0  0
  -29.9880  -17.9740   21.5990 C   0  0  0  0  0  2  0  0  0  0  0  0
  -31.2150  -17.0800   21.8850 C   0  0  0  0  0  2  0  0  0  0  0  0
  -31.7440  -16.2990   20.6690 C   0  0  0  0  0  2  0  0  0  0  0  0
  -31.3500  -14.0900   19.6040 C   0  0  0  0  0  0  0  0  0  0  0  0
  -30.9060  -11.7760   18.8710 C   0  0  0  0  0  2  0  0  0  0  0  0
  -29.8910  -11.7300   17.7150 C   0  0  0  0  0  2  0  0  0  0  0  0
  -28.4490  -11.7140   18.2550 C   0  0  0  0  0  2  0  0  0  0  0  0
  -28.1960  -12.8260   19.3060 C   0  0  0  0  0  3  0  0  0  0  0  0
  -29.3080  -12.8260   20.3770 C   0  0  0  0  0  2  0  0  0  0  0  0
  -30.6120  -12.9550   19.6980 N   0  0  0  0  0  0  0  0  0  0  0  0
  -32.3090  -14.2220   18.8380 O   0  0  0  0  0  0  0  0  0  0  0  0
  -31.0080  -15.0540   20.4650 N   0  0  0  0  0  0  0  0  0  0  0  0
  -30.2330  -14.8490   21.0790 H   0  0  0  0  0  0  0  0  0  0  0  0
  -25.9640  -13.6870   20.2610 C   0  0  0  0  0  0  0  0  0  0  0  0
  -24.8510  -13.0320   20.7170 C   0  0  0  0  0  0  0  0  0  0  0  0
  -25.1410  -11.6380   20.6060 C   0  0  0  0  0  0  0  0  0  0  0  0
  -26.8690  -12.6980   19.9070 N   0  0  0  0  0  0  0  0  0  0  0  0
  -26.3810  -11.4590   20.1690 N   0  0  0  0  0  0  0  0  0  0  0  0
  -24.2910  -10.4630   20.8390 C   0  0  0  0  0  0  0  0  0  0  0  0
  -24.6740   -9.4390   21.7340 C   0  0  0  0  0  3  0  0  0  0  0  0
  -23.8310   -8.3290   21.9550 C   0  0  0  0  0  3  0  0  0  0  0  0
  -22.5920   -8.2330   21.2780 C   0  0  0  0  0  0  0  0  0  0  0  0
  -22.2260   -9.2440   20.3720 C   0  0  0  0  0  3  0  0  0  0  0  0
  -23.0670  -10.3460   20.1500 C   0  0  0  0  0  3  0  0  0  0  0  0
  -21.7220   -7.1790   21.4100 O   0  0  0  0  0  0  0  0  0  0  0  0
  -21.5970   -6.4910   22.5900 C   0  0  0  0  0  0  0  0  0  0  0  0
  -21.2440   -7.1360   23.7950 C   0  0  0  0  0  3  0  0  0  0  0  0
  -21.0590   -6.3800   24.9710 C   0  0  0  0  0  3  0  0  0  0  0  0
  -21.2170   -4.9820   24.9420 C   0  0  0  0  0  0  0  0  0  0  0  0
  -21.5640   -4.3370   23.7410 C   0  0  0  0  0  3  0  0  0  0  0  0
  -21.7500   -5.0890   22.5680 C   0  0  0  0  0  0  0  0  0  0  0  0
  -22.0640   -4.4610   21.4090 F   0  0  0  0  0  0  0  0  0  0  0  0
  -21.0330   -4.2540   26.0680 F   0  0  0  0  0  0  0  0  0  0  0  0
  -23.5540  -13.6590   21.1410 C   0  0  0  0  0  0  0  0  0  0  0  0
  -22.8560  -13.0450   22.0910 N   0  0  0  0  0  0  0  0  0  0  0  0
  -23.1740  -14.7280   20.6640 O   0  0  0  0  0  0  0  0  0  0  0  0
  -23.1770  -12.1780   22.4970 H   0  0  0  0  0  0  0  0  0  0  0  0
  -21.9900  -13.4480   22.4170 H   0  0  0  0  0  0  0  0  0  0  0  0
  -26.2740  -15.0340   20.1010 N   0  0  0  0  0  0  0  0  0  0  0  0
  -25.6050  -15.7710   20.2950 H   0  0  0  0  0  0  0  0  0  0  0  0
  -27.1350  -15.3770   19.6920 H   0  0  0  0  0  0  0  0  0  0  0  0
  -29.8170  -25.1670   20.7490 C   0  0  0  0  0  2  0  0  0  0  0  0
  -29.5020  -26.5650   21.3120 C   0  0  0  0  0  2  0  0  0  0  0  0
  -29.2740  -27.4570   20.2260 O   0  0  0  0  0  0  0  0  0  0  0  0
  -24.6390  -31.8360   23.3840 C   0  0  0  0  0  0  0  0  0  0  0  0
  -28.0280  -28.0240   20.2240 C   0  0  0  0  0  0  0  0  0  0  0  0
  -23.7300  -30.4160   21.5710 C   0  0  0  0  0  3  0  0  0  0  0  0
  -25.4600  -29.1790   20.1610 C   0  0  0  0  0  0  0  0  0  0  0  0
  -26.1890  -31.1080   21.5790 C   0  0  0  0  0  2  0  0  0  0  0  0
  -26.4940  -29.8080   20.8670 C   0  0  0  0  0  0  0  0  0  0  0  0
  -27.7810  -29.2340   20.9040 C   0  0  0  0  0  3  0  0  0  0  0  0
  -26.9860  -27.3970   19.5130 C   0  0  0  0  0  3  0  0  0  0  0  0
  -25.6970  -27.9670   19.4850 C   0  0  0  0  0  3  0  0  0  0  0  0
  -24.1120  -29.8660   20.1690 C   0  0  0  0  0  2  0  0  0  0  0  0
  -24.8650  -31.1330   22.2390 N   0  0  0  0  0  0  0  0  0  0  0  0
  -23.5000  -31.9330   23.8620 O   0  0  0  0  0  0  0  0  0  0  0  0
  -23.1570  -29.2560   22.4160 C   0  0  0  0  0  0  0  0  0  0  0  0
  -21.8670  -28.9490   22.2090 N   0  0  0  0  0  0  0  0  0  0  0  0
  -23.8710  -28.6390   23.2120 O   0  0  0  0  0  0  0  0  0  0  0  0
  -21.3500  -29.5080   21.5450 H   0  0  0  0  0  0  0  0  0  0  0  0
  -18.6150  -27.3930   22.4560 C   0  0  0  0  0  0  0  0  0  0  0  0
  -21.1240  -27.8700   22.8590 C   0  0  0  0  0  3  0  0  0  0  0  0
  -21.3890  -26.5140   22.1640 C   0  0  0  0  0  2  0  0  0  0  0  0
  -20.3590  -26.1810   21.0800 C   0  0  0  0  0  2  0  0  0  0  0  0
  -18.9490  -26.1340   21.6750 C   0  0  0  0  0  2  0  0  0  0  0  0
  -19.6370  -28.2170   22.9990 C   0  0  0  0  0  0  0  0  0  0  0  0
  -19.2760  -29.3960   23.6840 C   0  0  0  0  0  3  0  0  0  0  0  0
  -17.9240  -29.7530   23.8380 C   0  0  0  0  0  3  0  0  0  0  0  0
  -16.9140  -28.9250   23.3140 C   0  0  0  0  0  3  0  0  0  0  0  0
  -17.2620  -27.7480   22.6290 C   0  0  0  0  0  3  0  0  0  0  0  0
  -25.7930  -32.5720   24.1340 C   0  0  0  0  0  3  0  0  0  0  0  0
  -25.3690  -33.9610   24.3430 N   0  0  0  0  0  0  0  0  0  0  0  0
  -25.7320  -34.9930   23.5690 C   0  0  0  0  0  0  0  0  0  0  0  0
  -26.5290  -34.8800   22.6330 O   0  0  0  0  0  0  0  0  0  0  0  0
  -24.6700  -34.1180   25.0560 H   0  0  0  0  0  0  0  0  0  0  0  0
  -23.9500  -36.6430   22.9130 C   0  0  0  0  0  1  0  0  0  0  0  0
  -25.1110  -36.3680   23.8820 C   0  0  0  0  0  3  0  0  0  0  0  0
  -27.0890  -37.4260   24.8790 C   0  0  0  0  0  1  0  0  0  0  0  0
  -26.0850  -37.4800   23.8200 N   0  0  0  0  0  0  0  0  0  0  0  0
  -25.6100  -38.3780   23.8780 H   0  0  0  0  0  0  0  0  0  0  0  0
  -26.1790  -31.8920   25.5050 C   0  0  1  0  0  0  0  0  0  0  0  0
  -24.9610  -31.5630   26.3990 C   0  0  0  0  0  1  0  0  0  0  0  0
  -26.9560  -30.5780   25.2610 C   0  0  0  0  0  1  0  0  0  0  0  0
  -27.1210  -32.8220   26.3060 C   0  0  0  0  0  1  0  0  0  0  0  0
  2  1  1  0
  3  1  2  0
  4  2  2  0
  5  6  2  0
  5  4  1  0
  6  3  1  0
  7  8  1  0
  7  5  1  0
  8  9  1  0
  9 10  1  0
  9  4  1  0
 10 11  1  0
 12 10  1  0
 13 10  1  0
 13 14  1  0
 15 14  1  0
 16 22  1  0
 16 24  1  0
 17 22  1  0
 18 19  1  0
 18 17  1  0
 20 19  1  0
 20 29  1  0
 20 21  1  0
 22 21  1  0
 23 16  2  0
 24 15  1  0
 24 25  1  0
 26 27  2  0
 27 46  1  0
 28 27  1  0
 28 31  1  0
 29 30  1  0
 29 26  1  0
 30 28  2  0
 31 32  1  0
 32 33  2  0
 34 37  1  0
 34 33  1  0
 35 34  2  0
 36 35  1  0
 36 31  2  0
 37 38  1  0
 38 39  1  0
 39 40  2  0
 41 40  1  0
 41 45  1  0
 42 41  2  0
 43 38  2  0
 43 42  1  0
 44 43  1  0
 46 47  1  0
 47 50  1  0
 47 49  1  0
 48 46  2  0
 51 26  1  0
 51 52  1  0
 53 51  1  0
 54 55  1  0
 54  6  1  0
 56 55  1  0
 57 68  2  0
 58 56  1  0
 58 63  1  0
 59 67  1  0
 59 69  1  0
 60 66  1  0
 60 62  1  0
 61 67  1  0
 62 63  2  0
 62 61  1  0
 64 58  2  0
 65 64  1  0
 65 60  2  0
 66 59  1  0
 67 57  1  0
 69 71  2  0
 70 69  1  0
 72 70  1  0
 73 82  2  0
 73 78  1  0
 74 70  1  0
 74 78  1  0
 75 74  1  0
 76 77  1  0
 76 75  1  0
 77 73  1  0
 78 79  2  0
 79 80  1  0
 81 80  2  0
 82 81  1  0
 83 57  1  0
 83 84  1  0
 83 93  1  0
 84 87  1  0
 85 89  1  0
 85 84  1  0
 86 85  2  0
 89 88  1  0
 91 92  1  0
 91 89  1  0
 91 90  1  0
 93 96  1  1
 93 94  1  0
 95 93  1  0
M  ISO  4  16 100  24 100  55 101  56 101
M  END
>  <TORSDO>  (9) 
F 22

>  <SCORE>  (9) 
-11.027

>  <name>  (9) 
8

>  <ligand_id>  (9) 
8

>  <original_smiles>  (9) 
[H]c1c([H])c([H])c2c(c1[H])C([H])([H])C([H])([H])C([H])([H])C2([H])N([H])C(=O)C1([H])N(C(=O)C([H])(N([H])C(=O)C([H])(N([H])C([H])([H])[H])C([H])([H])[H])C(C([H])([H])[H])(C([H])([H])[H])C([H])([H])[H])C([H])([H])c2c([H])c(OC([H])([H])C([H])([H])c3c([H])c([H])c([H])c4c3C([H])([H])C([H])([H])C4([H])[N+]([H])([H])C([H])([H])C([H])([H])C([H])([H])N([H])C(=O)N3C([H])([H])C([H])([H])C([H])([H])C([H])(n4nc(-c5c([H])c([H])c(Oc6c([H])c([H])c(F)c([H])c6F)c([H])c5[H])c(C(=O)N([H])[H])c4N([H])[H])C3([H])[H])c([H])c([H])c2C1([H])[H]

>  <smiles>  (9) 
[H]c1c([H])c([H])c2c(c1[H])C([H])([H])C([H])([H])C([H])([H])C2([H])N([H])C(=O)C1([H])N(C(=O)C([H])(N([H])C(=O)C([H])(N([H])C([H])([H])[H])C([H])([H])[H])C(C([H])([H])[H])(C([H])([H])[H])C([H])([H])[H])C([H])([H])c2c([H])c(OC([H])([H])C([H])([H])c3c([H])c([H])c([H])c4c3C([H])([H])C([H])([H])C4([H])[N+]([H])([H])C([H])([H])C([H])([H])C([H])([H])N([H])C(=O)N3C([H])([H])C([H])([H])C([H])([H])C([H])(n4nc(-c5c([H])c([H])c(Oc6c([H])c([H])c(F)c([H])c6F)c([H])c5[H])c(C(=O)N([H])[H])c4N([H])[H])C3([H])[H])c([H])c([H])c2C1([H])[H]

$$$$
10:0:0
     RDKit          3D

 99107  0  0  1  0  0  0  0  0999 V2000
  -30.3050  -19.7000   20.9220 C   0  0  0  0  0  2  0  0  0  0  0  0
  -32.0090  -16.2820   20.9280 C   0  0  0  0  0  2  0  0  0  0  0  0
  -29.5360  -15.8970   21.2620 C   0  0  0  0  0  2  0  0  0  0  0  0
  -31.6430  -17.6380   20.2780 C   0  0  0  0  0  2  0  0  0  0  0  0
  -29.2740  -17.3230   20.6830 C   0  0  0  0  0  3  0  0  0  0  0  0
  -30.8930  -15.1660   20.9180 C   0  0  1  0  0  0  0  0  0  0  0  0
  -27.9600  -17.8770   21.2780 C   0  0  0  0  0  1  0  0  0  0  0  0
  -30.4490  -18.1990   20.9560 N   0  0  2  0  0  4  0  0  0  0  0  0
  -30.6470  -18.0480   21.9340 H   0  0  0  0  0  0  0  0  0  0  0  0
  -30.8610  -14.3670   19.5530 C   0  0  0  0  0  0  0  0  0  0  0  0
  -30.2080  -12.4310   18.1310 C   0  0  0  0  0  2  0  0  0  0  0  0
  -29.0950  -12.7740   17.1230 C   0  0  0  0  0  2  0  0  0  0  0  0
  -27.7030  -12.6150   17.7630 C   0  0  0  0  0  2  0  0  0  0  0  0
  -27.6100  -13.3210   19.1380 C   0  0  0  0  0  3  0  0  0  0  0  0
  -28.8060  -12.9230   20.0310 C   0  0  0  0  0  2  0  0  0  0  0  0
  -30.0510  -13.2840   19.3290 N   0  0  0  0  0  0  0  0  0  0  0  0
  -31.7080  -14.6820   18.7110 O   0  0  0  0  0  0  0  0  0  0  0  0
  -25.3510  -13.9420   20.2080 C   0  0  0  0  0  0  0  0  0  0  0  0
  -24.3320  -13.1750   20.7030 C   0  0  0  0  0  0  0  0  0  0  0  0
  -24.7500  -11.8180   20.5480 C   0  0  0  0  0  0  0  0  0  0  0  0
  -26.3310  -13.0520   19.7930 N   0  0  0  0  0  0  0  0  0  0  0  0
  -25.9800  -11.7680   20.0510 N   0  0  0  0  0  0  0  0  0  0  0  0
  -24.0280  -10.5620   20.7910 C   0  0  0  0  0  0  0  0  0  0  0  0
  -24.5070   -9.6030   21.7110 C   0  0  0  0  0  3  0  0  0  0  0  0
  -23.7860   -8.4120   21.9410 C   0  0  0  0  0  3  0  0  0  0  0  0
  -22.5740   -8.1710   21.2510 C   0  0  0  0  0  0  0  0  0  0  0  0
  -22.1150   -9.1190   20.3200 C   0  0  0  0  0  3  0  0  0  0  0  0
  -22.8350  -10.3020   20.0880 C   0  0  0  0  0  3  0  0  0  0  0  0
  -21.8210   -7.0300   21.3910 O   0  0  0  0  0  0  0  0  0  0  0  0
  -21.7690   -6.3430   22.5770 C   0  0  0  0  0  0  0  0  0  0  0  0
  -21.3650   -6.9630   23.7790 C   0  0  0  0  0  3  0  0  0  0  0  0
  -21.2590   -6.2020   24.9620 C   0  0  0  0  0  3  0  0  0  0  0  0
  -21.5460   -4.8240   24.9420 C   0  0  0  0  0  0  0  0  0  0  0  0
  -21.9440   -4.2050   23.7440 C   0  0  0  0  0  3  0  0  0  0  0  0
  -22.0520   -4.9620   22.5640 C   0  0  0  0  0  0  0  0  0  0  0  0
  -22.4140   -4.3560   21.4080 F   0  0  0  0  0  0  0  0  0  0  0  0
  -21.4370   -4.0920   26.0750 F   0  0  0  0  0  0  0  0  0  0  0  0
  -23.0020  -13.6660   21.1970 C   0  0  0  0  0  0  0  0  0  0  0  0
  -22.4090  -12.9680   22.1600 N   0  0  0  0  0  0  0  0  0  0  0  0
  -22.5000  -14.7030   20.7640 O   0  0  0  0  0  0  0  0  0  0  0  0
  -22.8300  -12.1280   22.5290 H   0  0  0  0  0  0  0  0  0  0  0  0
  -21.5240  -13.2780   22.5320 H   0  0  0  0  0  0  0  0  0  0  0  0
  -25.5180  -15.3140   20.0550 N   0  0  0  0  0  0  0  0  0  0  0  0
  -24.7690  -15.9650   20.2670 H   0  0  0  0  0  0  0  0  0  0  0  0
  -26.2750  -15.7370   19.5360 H   0  0  0  0  0  0  0  0  0  0  0  0
  -31.2760  -14.1810   22.0890 C   0  0  0  0  0  2  0  0  0  0  0  0
  -32.5320  -13.4150   21.9050 N   0  0  0  0  0  4  0  0  0  0  0  0
  -32.5040  -12.8130   21.1010 H   0  0  0  0  0  0  0  0  0  0  0  0
  -32.6810  -12.8300   22.7100 H   0  0  0  0  0  0  0  0  0  0  0  0
  -33.3300  -14.0190   21.8310 H   0  0  0  0  0  0  0  0  0  0  0  0
  -30.0520  -20.3840   19.5450 C   0  0  0  0  0  2  0  0  0  0  0  0
  -31.8860  -22.1900   19.7550 C   0  0  0  0  0  1  0  0  0  0  0  0
  -30.4060  -21.9140   19.4170 C   0  0  0  0  0  3  0  0  0  0  0  0
  -29.4750  -22.8620   20.1160 N   0  0  0  0  0  4  0  0  0  0  0  0
  -28.5300  -22.5490   19.9430 H   0  0  0  0  0  0  0  0  0  0  0  0
  -29.6260  -22.8160   21.1130 H   0  0  0  0  0  0  0  0  0  0  0  0
  -29.5590  -24.2990   19.6840 C   0  0  0  0  0  2  0  0  0  0  0  0
  -28.4940  -25.2240   20.3340 C   0  0  0  0  0  2  0  0  0  0  0  0
  -28.5620  -26.5850   19.8370 O   0  0  0  0  0  0  0  0  0  0  0  0
  -24.6420  -31.5990   23.0900 C   0  0  0  0  0  0  0  0  0  0  0  0
  -27.3820  -27.3090   19.8630 C   0  0  0  0  0  0  0  0  0  0  0  0
  -23.4670  -30.2220   21.4090 C   0  0  0  0  0  3  0  0  0  0  0  0
  -24.9540  -28.7710   19.9260 C   0  0  0  0  0  0  0  0  0  0  0  0
  -25.9850  -30.6460   21.2150 C   0  0  0  0  0  2  0  0  0  0  0  0
  -26.1030  -29.2990   20.5290 C   0  0  0  0  0  0  0  0  0  0  0  0
  -27.3210  -28.5780   20.4910 C   0  0  0  0  0  3  0  0  0  0  0  0
  -26.2170  -26.8100   19.2380 C   0  0  0  0  0  3  0  0  0  0  0  0
  -25.0070  -27.5270   19.2750 C   0  0  0  0  0  3  0  0  0  0  0  0
  -23.6890  -29.5960   20.0060 C   0  0  0  0  0  2  0  0  0  0  0  0
  -24.7160  -30.8360   21.9640 N   0  0  0  0  0  0  0  0  0  0  0  0
  -23.5560  -31.8240   23.6410 O   0  0  0  0  0  0  0  0  0  0  0  0
  -22.8460  -29.1510   22.3350 C   0  0  0  0  0  0  0  0  0  0  0  0
  -21.5280  -28.9340   22.2020 N   0  0  0  0  0  0  0  0  0  0  0  0
  -23.5490  -28.5190   23.1290 O   0  0  0  0  0  0  0  0  0  0  0  0
  -21.0200  -29.5000   21.5360 H   0  0  0  0  0  0  0  0  0  0  0  0
  -18.1870  -27.6370   22.6710 C   0  0  0  0  0  0  0  0  0  0  0  0
  -20.7380  -27.9500   22.9420 C   0  0  0  0  0  3  0  0  0  0  0  0
  -20.8740  -26.5430   22.3170 C   0  0  0  0  0  2  0  0  0  0  0  0
  -19.7760  -26.2280   21.2960 C   0  0  0  0  0  2  0  0  0  0  0  0
  -18.3930  -26.3160   21.9500 C   0  0  0  0  0  2  0  0  0  0  0  0
  -19.2880  -28.4110   23.1240 C   0  0  0  0  0  0  0  0  0  0  0  0
  -19.0410  -29.6480   23.7570 C   0  0  0  0  0  3  0  0  0  0  0  0
  -17.7240  -30.1110   23.9450 C   0  0  0  0  0  3  0  0  0  0  0  0
  -16.6380  -29.3330   23.5080 C   0  0  0  0  0  3  0  0  0  0  0  0
  -16.8700  -28.0980   22.8770 C   0  0  0  0  0  3  0  0  0  0  0  0
  -25.9130  -32.2430   23.7270 C   0  0  0  0  0  3  0  0  0  0  0  0
  -25.5740  -33.6240   24.0900 N   0  0  0  0  0  0  0  0  0  0  0  0
  -25.8870  -34.7020   23.3580 C   0  0  0  0  0  0  0  0  0  0  0  0
  -26.5620  -34.6380   22.3280 O   0  0  0  0  0  0  0  0  0  0  0  0
  -24.9740  -33.7470   24.8930 H   0  0  0  0  0  0  0  0  0  0  0  0
  -24.1280  -36.4710   23.0340 C   0  0  0  0  0  1  0  0  0  0  0  0
  -25.3690  -36.0680   23.8480 C   0  0  0  0  0  3  0  0  0  0  0  0
  -27.4780  -36.9680   24.7240 C   0  0  0  0  0  1  0  0  0  0  0  0
  -26.3820  -37.1430   23.7740 N   0  0  0  0  0  0  0  0  0  0  0  0
  -25.9580  -38.0500   23.9450 H   0  0  0  0  0  0  0  0  0  0  0  0
  -26.4500  -31.4500   24.9820 C   0  0  1  0  0  0  0  0  0  0  0  0
  -25.3540  -31.1070   26.0170 C   0  0  0  0  0  1  0  0  0  0  0  0
  -27.1180  -30.1260   24.5440 C   0  0  0  0  0  1  0  0  0  0  0  0
  -27.5440  -32.2800   25.6960 C   0  0  0  0  0  1  0  0  0  0  0  0
  1  8  1  0
  4  2  1  0
  4  8  1  0
  5  8  1  0
  5  3  1  0
  5  7  1  0
  6  2  1  0
  6  3  1  0
  6 46  1  1
  8  9  1  1
 10  6  1  0
 11 16  1  0
 12 13  1  0
 12 11  1  0
 14 13  1  0
 14 21  1  0
 14 15  1  0
 16 10  1  0
 16 15  1  0
 17 10  2  0
 18 19  2  0
 19 38  1  0
 20 19  1  0
 20 23  1  0
 21 22  1  0
 21 18  1  0
 22 20  2  0
 23 24  1  0
 24 25  2  0
 26 29  1  0
 26 25  1  0
 27 26  2  0
 28 27  1  0
 28 23  2  0
 29 30  1  0
 30 31  1  0
 31 32  2  0
 33 32  1  0
 33 37  1  0
 34 33  2  0
 35 30  2  0
 35 34  1  0
 36 35  1  0
 38 39  1  0
 39 41  1  0
 39 42  1  0
 40 38  2  0
 43 18  1  0
 43 44  1  0
 45 43  1  0
 47 46  1  0
 47 49  1  0
 48 47  1  0
 50 47  1  0
 51  1  1  0
 53 51  1  0
 53 52  1  0
 53 54  1  0
 54 56  1  0
 55 54  1  0
 57 54  1  0
 57 58  1  0
 59 61  1  0
 59 58  1  0
 60 71  2  0
 61 66  1  0
 62 70  1  0
 62 72  1  0
 63 69  1  0
 63 65  1  0
 64 70  1  0
 65 64  1  0
 66 65  2  0
 67 68  1  0
 67 61  2  0
 68 63  2  0
 69 62  1  0
 70 60  1  0
 72 74  2  0
 73 72  1  0
 75 73  1  0
 76 85  2  0
 76 81  1  0
 77 73  1  0
 77 81  1  0
 78 77  1  0
 79 80  1  0
 79 78  1  0
 80 76  1  0
 81 82  2  0
 82 83  1  0
 84 83  2  0
 85 84  1  0
 86 60  1  0
 86 87  1  0
 86 96  1  0
 87 90  1  0
 88 92  1  0
 88 87  1  0
 89 88  2  0
 92 91  1  0
 94 92  1  0
 94 95  1  0
 94 93  1  0
 96 99  1  1
 96 97  1  0
 98 96  1  0
M  ISO  4   6 100  10 100  58 101  59 101
M  END
>  <TORSDO>  (10) 
F 24

>  <SCORE>  (10) 
-9.241

>  <name>  (10) 
10

>  <ligand_id>  (10) 
10

>  <original_smiles>  (10) 
[H]c1c([H])c([H])c2c(c1[H])C([H])([H])C([H])([H])C([H])([H])C2([H])N([H])C(=O)C1([H])N(C(=O)C([H])(N([H])C(=O)C([H])(N([H])C([H])([H])[H])C([H])([H])[H])C(C([H])([H])[H])(C([H])([H])[H])C([H])([H])[H])C([H])([H])c2c([H])c(OC([H])([H])C([H])([H])[N+]([H])([H])C([H])(C([H])([H])[H])C([H])([H])C([H])([H])[N+]3([H])C([H])([H])C([H])([H])C(C(=O)N4C([H])([H])C([H])([H])C([H])([H])C([H])(n5nc(-c6c([H])c([H])c(Oc7c([H])c([H])c(F)c([H])c7F)c([H])c6[H])c(C(=O)N([H])[H])c5N([H])[H])C4([H])[H])(C([H])([H])[N+]([H])([H])[H])C([H])([H])C3([H])C([H])([H])[H])c([H])c([H])c2C1([H])[H]

>  <smiles>  (10) 
[H]c1c([H])c([H])c2c(c1[H])C([H])([H])C([H])([H])C([H])([H])C2([H])N([H])C(=O)C1([H])N(C(=O)C([H])(N([H])C(=O)C([H])(N([H])C([H])([H])[H])C([H])([H])[H])C(C([H])([H])[H])(C([H])([H])[H])C([H])([H])[H])C([H])([H])c2c([H])c(OC([H])([H])C([H])([H])[N+]([H])([H])C([H])(C([H])([H])[H])C([H])([H])C([H])([H])[N+]3([H])C([H])([H])C([H])([H])C(C(=O)N4C([H])([H])C([H])([H])C([H])([H])C([H])(n5nc(-c6c([H])c([H])c(Oc7c([H])c([H])c(F)c([H])c7F)c([H])c6[H])c(C(=O)N([H])[H])c5N([H])[H])C4([H])[H])(C([H])([H])[N+]([H])([H])[H])C([H])([H])C3([H])C([H])([H])[H])c([H])c([H])c2C1([H])[H]

$$$$
11:0:0
     RDKit          3D

 95103  0  0  1  0  0  0  0  0999 V2000
  -30.7290  -20.8230   20.0130 N   0  0  0  0  0  4  0  0  0  0  0  0
  -31.2830  -20.8590   19.1720 H   0  0  0  0  0  0  0  0  0  0  0  0
  -31.2500  -21.3170   20.7200 H   0  0  0  0  0  0  0  0  0  0  0  0
  -32.0460  -18.8720   20.9470 C   0  0  0  0  0  2  0  0  0  0  0  0
  -30.0750  -18.3760   19.4870 C   0  0  0  0  0  2  0  0  0  0  0  0
  -32.3410  -17.3520   20.7010 C   0  0  0  0  0  2  0  0  0  0  0  0
  -29.9310  -16.9310   20.0880 C   0  0  0  0  0  2  0  0  0  0  0  0
  -30.6490  -19.3970   20.4970 C   0  0  0  0  0  3  0  0  0  0  0  0
  -31.1750  -16.2920   20.8310 C   0  0  1  0  0  0  0  0  0  0  0  0
  -31.6370  -14.9230   20.0980 C   0  0  0  0  0  0  0  0  0  0  0  0
  -31.1960  -12.8140   18.8390 C   0  0  0  0  0  2  0  0  0  0  0  0
  -30.2350  -13.1190   17.6670 C   0  0  0  0  0  2  0  0  0  0  0  0
  -28.7610  -13.0360   18.1190 C   0  0  0  0  0  2  0  0  0  0  0  0
  -28.5070  -13.7930   19.4500 C   0  0  0  0  0  3  0  0  0  0  0  0
  -29.5770  -13.4010   20.4860 C   0  0  0  0  0  2  0  0  0  0  0  0
  -30.8930  -13.7700   19.9360 N   0  0  0  0  0  0  0  0  0  0  0  0
  -32.7440  -14.9570   19.5490 O   0  0  0  0  0  0  0  0  0  0  0  0
  -26.1540  -14.4960   20.2100 C   0  0  0  0  0  0  0  0  0  0  0  0
  -25.0620  -13.7690   20.6020 C   0  0  0  0  0  0  0  0  0  0  0  0
  -25.4640  -12.3990   20.5590 C   0  0  0  0  0  0  0  0  0  0  0  0
  -27.1540  -13.5700   19.9550 N   0  0  0  0  0  0  0  0  0  0  0  0
  -26.7450  -12.3040   20.2200 N   0  0  0  0  0  0  0  0  0  0  0  0
  -24.6880  -11.1690   20.7640 C   0  0  0  0  0  0  0  0  0  0  0  0
  -25.0130  -10.2560   21.7900 C   0  0  0  0  0  3  0  0  0  0  0  0
  -24.2400   -9.0890   21.9820 C   0  0  0  0  0  3  0  0  0  0  0  0
  -23.1300   -8.8290   21.1430 C   0  0  0  0  0  0  0  0  0  0  0  0
  -22.8250   -9.7300   20.1090 C   0  0  0  0  0  3  0  0  0  0  0  0
  -23.5970  -10.8880   19.9170 C   0  0  0  0  0  3  0  0  0  0  0  0
  -22.3390   -7.7100   21.2360 O   0  0  0  0  0  0  0  0  0  0  0  0
  -22.0600   -7.1220   22.4440 C   0  0  0  0  0  0  0  0  0  0  0  0
  -21.4900   -7.8470   23.5130 C   0  0  0  0  0  3  0  0  0  0  0  0
  -21.1560   -7.1870   24.7120 C   0  0  0  0  0  3  0  0  0  0  0  0
  -21.3850   -5.8050   24.8440 C   0  0  0  0  0  0  0  0  0  0  0  0
  -21.9490   -5.0800   23.7790 C   0  0  0  0  0  3  0  0  0  0  0  0
  -22.2820   -5.7370   22.5820 C   0  0  0  0  0  0  0  0  0  0  0  0
  -22.8050   -5.0290   21.5500 F   0  0  0  0  0  0  0  0  0  0  0  0
  -21.0570   -5.1700   25.9940 F   0  0  0  0  0  0  0  0  0  0  0  0
  -23.6920  -14.3060   20.9020 C   0  0  0  0  0  0  0  0  0  0  0  0
  -22.9790  -13.6810   21.8330 N   0  0  0  0  0  0  0  0  0  0  0  0
  -23.2650  -15.3140   20.3440 O   0  0  0  0  0  0  0  0  0  0  0  0
  -23.3410  -12.8730   22.3120 H   0  0  0  0  0  0  0  0  0  0  0  0
  -22.0570  -14.0190   22.0690 H   0  0  0  0  0  0  0  0  0  0  0  0
  -26.3750  -15.8590   20.0350 N   0  0  0  0  0  0  0  0  0  0  0  0
  -25.6480  -16.5500   20.1850 H   0  0  0  0  0  0  0  0  0  0  0  0
  -27.2420  -16.2620   19.7060 H   0  0  0  0  0  0  0  0  0  0  0  0
  -30.8330  -16.0230   22.3430 C   0  0  0  0  0  2  0  0  0  0  0  0
  -32.0850  -17.5520   23.9940 C   0  0  0  0  0  1  0  0  0  0  0  0
  -29.7650  -16.7770   24.5330 C   0  0  0  0  0  1  0  0  0  0  0  0
  -30.7220  -17.1620   23.3910 C   0  0  0  0  0  3  0  0  0  0  0  0
  -29.4690  -21.6190   19.8030 C   0  0  0  0  0  2  0  0  0  0  0  0
  -29.7020  -23.1810   19.8090 C   0  0  0  0  0  2  0  0  0  0  0  0
  -27.8610  -23.8650   18.1990 C   0  0  0  0  0  2  0  0  0  0  0  0
  -28.5680  -24.1250   19.3180 C   0  0  0  0  0  0  0  0  0  0  0  0
  -28.3210  -25.4060   20.1570 C   0  0  0  0  0  2  0  0  0  0  0  0
  -28.1520  -26.6480   19.4310 O   0  0  0  0  0  0  0  0  0  0  0  0
  -24.6850  -31.7740   23.1210 C   0  0  0  0  0  0  0  0  0  0  0  0
  -27.0040  -27.3940   19.6470 C   0  0  0  0  0  0  0  0  0  0  0  0
  -23.3480  -30.5160   21.4630 C   0  0  0  0  0  3  0  0  0  0  0  0
  -24.6680  -28.9930   19.8950 C   0  0  0  0  0  0  0  0  0  0  0  0
  -25.8760  -30.7800   21.1600 C   0  0  0  0  0  2  0  0  0  0  0  0
  -25.8780  -29.4390   20.4440 C   0  0  0  0  0  0  0  0  0  0  0  0
  -27.0510  -28.6510   20.3070 C   0  0  0  0  0  3  0  0  0  0  0  0
  -25.7700  -26.9590   19.1210 C   0  0  0  0  0  3  0  0  0  0  0  0
  -24.6090  -27.7520   19.2360 C   0  0  0  0  0  3  0  0  0  0  0  0
  -23.4660  -29.9000   20.0430 C   0  0  0  0  0  2  0  0  0  0  0  0
  -24.6580  -31.0340   21.9740 N   0  0  0  0  0  0  0  0  0  0  0  0
  -23.6400  -32.0580   23.7240 O   0  0  0  0  0  0  0  0  0  0  0  0
  -22.6920  -29.4750   22.3990 C   0  0  0  0  0  0  0  0  0  0  0  0
  -21.3620  -29.3280   22.2940 N   0  0  0  0  0  0  0  0  0  0  0  0
  -23.3790  -28.8010   23.1720 O   0  0  0  0  0  0  0  0  0  0  0  0
  -20.8690  -29.9230   21.6420 H   0  0  0  0  0  0  0  0  0  0  0  0
  -17.9810  -28.1430   22.7730 C   0  0  0  0  0  0  0  0  0  0  0  0
  -20.5410  -28.3730   23.0410 C   0  0  0  0  0  3  0  0  0  0  0  0
  -20.6320  -26.9600   22.4220 C   0  0  0  0  0  2  0  0  0  0  0  0
  -19.5240  -26.6750   21.4040 C   0  0  0  0  0  2  0  0  0  0  0  0
  -18.1450  -26.8130   22.0570 C   0  0  0  0  0  2  0  0  0  0  0  0
  -19.1070  -28.8840   23.2210 C   0  0  0  0  0  0  0  0  0  0  0  0
  -18.9010  -30.1310   23.8480 C   0  0  0  0  0  3  0  0  0  0  0  0
  -17.6010  -30.6380   24.0340 C   0  0  0  0  0  3  0  0  0  0  0  0
  -16.4890  -29.8930   23.6040 C   0  0  0  0  0  3  0  0  0  0  0  0
  -16.6800  -28.6470   22.9800 C   0  0  0  0  0  3  0  0  0  0  0  0
  -26.0210  -32.3150   23.7160 C   0  0  0  0  0  3  0  0  0  0  0  0
  -25.7670  -33.6720   24.2180 N   0  0  0  0  0  0  0  0  0  0  0  0
  -26.1040  -34.7970   23.5710 C   0  0  0  0  0  0  0  0  0  0  0  0
  -26.7310  -34.7950   22.5080 O   0  0  0  0  0  0  0  0  0  0  0  0
  -25.2090  -33.7500   25.0550 H   0  0  0  0  0  0  0  0  0  0  0  0
  -24.4290  -36.6710   23.4820 C   0  0  0  0  0  1  0  0  0  0  0  0
  -25.6770  -36.1350   24.2020 C   0  0  0  0  0  3  0  0  0  0  0  0
  -27.8600  -36.8500   25.0690 C   0  0  0  0  0  1  0  0  0  0  0  0
  -26.7410  -37.1620   24.1840 N   0  0  0  0  0  0  0  0  0  0  0  0
  -26.3700  -38.0690   24.4500 H   0  0  0  0  0  0  0  0  0  0  0  0
  -26.6090  -31.4000   24.8600 C   0  0  1  0  0  0  0  0  0  0  0  0
  -25.5850  -31.0440   25.9630 C   0  0  0  0  0  1  0  0  0  0  0  0
  -27.1470  -30.0740   24.2720 C   0  0  0  0  0  1  0  0  0  0  0  0
  -27.8080  -32.1080   25.5360 C   0  0  0  0  0  1  0  0  0  0  0  0
  1  3  1  0
  2  1  1  0
  5  7  1  0
  5  8  1  0
  6  9  1  0
  6  4  1  0
  7  9  1  0
  8  1  1  0
  8  4  1  0
  9 46  1  1
 10  9  1  0
 11 16  1  0
 12 13  1  0
 12 11  1  0
 14 13  1  0
 14 21  1  0
 14 15  1  0
 16 10  1  0
 16 15  1  0
 17 10  2  0
 18 19  2  0
 19 38  1  0
 20 19  1  0
 20 23  1  0
 21 18  1  0
 21 22  1  0
 22 20  2  0
 23 24  1  0
 24 25  2  0
 26 29  1  0
 26 25  1  0
 27 26  2  0
 28 27  1  0
 28 23  2  0
 29 30  1  0
 30 35  2  0
 30 31  1  0
 31 32  2  0
 32 33  1  0
 33 37  1  0
 34 33  2  0
 35 34  1  0
 36 35  1  0
 38 39  1  0
 39 42  1  0
 39 41  1  0
 40 38  2  0
 43 44  1  0
 43 18  1  0
 45 43  1  0
 46 49  1  0
 49 47  1  0
 49 48  1  0
 50 51  1  0
 50  1  1  0
 52 53  2  0
 53 51  1  0
 53 54  1  0
 55 57  1  0
 55 54  1  0
 56 67  2  0
 57 62  1  0
 58 66  1  0
 58 68  1  0
 59 65  1  0
 59 61  1  0
 60 66  1  0
 61 60  1  0
 62 61  2  0
 63 64  1  0
 63 57  2  0
 64 59  2  0
 65 58  1  0
 66 56  1  0
 68 70  2  0
 69 68  1  0
 71 69  1  0
 72 81  2  0
 72 77  1  0
 73 69  1  0
 73 77  1  0
 74 73  1  0
 75 76  1  0
 75 74  1  0
 76 72  1  0
 77 78  2  0
 78 79  1  0
 80 79  2  0
 81 80  1  0
 82 56  1  0
 82 83  1  0
 82 92  1  0
 83 86  1  0
 84 88  1  0
 84 83  1  0
 85 84  2  0
 88 87  1  0
 90 88  1  0
 90 91  1  0
 90 89  1  0
 92 95  1  1
 92 93  1  0
 94 92  1  0
M  ISO  4   9 100  10 100  54 101  55 101
M  END
>  <TORSDO>  (11) 
F 23

>  <SCORE>  (11) 
-2.345

>  <name>  (11) 
11

>  <ligand_id>  (11) 
11

>  <original_smiles>  (11) 
[H]C([H])=C(C([H])([H])Oc1c([H])c([H])c2c(c1[H])C([H])([H])N(C(=O)C([H])(N([H])C(=O)C([H])(N([H])C([H])([H])[H])C([H])([H])[H])C(C([H])([H])[H])(C([H])([H])[H])C([H])([H])[H])C([H])(C(=O)N([H])C1([H])c3c([H])c([H])c([H])c([H])c3C([H])([H])C([H])([H])C1([H])[H])C2([H])[H])C([H])([H])C([H])([H])[N+]([H])([H])C1([H])C([H])([H])C([H])([H])C(C(=O)N2C([H])([H])C([H])([H])C([H])([H])C([H])(n3nc(-c4c([H])c([H])c(Oc5c([H])c([H])c(F)c([H])c5F)c([H])c4[H])c(C(=O)N([H])[H])c3N([H])[H])C2([H])[H])(C([H])([H])C([H])(C([H])([H])[H])C([H])([H])[H])C([H])([H])C1([H])[H]

>  <smiles>  (11) 
[H]C([H])=C(C([H])([H])Oc1c([H])c([H])c2c(c1[H])C([H])([H])N(C(=O)C([H])(N([H])C(=O)C([H])(N([H])C([H])([H])[H])C([H])([H])[H])C(C([H])([H])[H])(C([H])([H])[H])C([H])([H])[H])C([H])(C(=O)N([H])C1([H])c3c([H])c([H])c([H])c([H])c3C([H])([H])C([H])([H])C1([H])[H])C2([H])[H])C([H])([H])C([H])([H])[N+]([H])([H])C1([H])C([H])([H])C([H])([H])C(C(=O)N2C([H])([H])C([H])([H])C([H])([H])C([H])(n3nc(-c4c([H])c([H])c(Oc5c([H])c([H])c(F)c([H])c5F)c([H])c4[H])c(C(=O)N([H])[H])c3N([H])[H])C2([H])[H])(C([H])([H])C([H])(C([H])([H])[H])C([H])([H])[H])C([H])([H])C1([H])[H]

$$$$
12:0:0
     RDKit          3D

 94103  0  0  1  0  0  0  0  0999 V2000
  -28.5180  -21.6180   19.8190 C   0  0  0  0  0  0  0  0  0  0  0  0
  -28.5510  -22.8400   20.3830 N   0  0  0  0  0  0  0  0  0  0  0  0
  -28.4690  -21.4750   18.5960 O   0  0  0  0  0  0  0  0  0  0  0  0
  -28.5930  -22.8800   21.3920 H   0  0  0  0  0  0  0  0  0  0  0  0
  -28.4390  -20.3950   20.7700 C   0  0  0  0  0  2  0  0  0  0  0  0
  -30.8010  -17.7450   19.1110 C   0  0  0  0  0  3  0  0  0  0  0  0
  -29.9900  -18.8940   19.2740 C   0  0  0  0  0  3  0  0  0  0  0  0
  -29.3940  -18.1710   21.5250 C   0  0  0  0  0  3  0  0  0  0  0  0
  -30.9180  -16.8240   20.1750 C   0  0  0  0  0  0  0  0  0  0  0  0
  -30.2100  -17.0340   21.3500 C   0  0  0  0  0  0  0  0  0  0  0  0
  -29.2920  -19.1360   20.4880 C   0  0  0  0  0  0  0  0  0  0  0  0
  -30.5100  -15.9710   22.3760 C   0  0  0  0  0  3  0  0  0  0  0  0
  -31.7110  -15.1900   21.7750 C   0  0  0  0  0  3  0  0  0  0  0  0
  -31.8890  -15.6500   20.2880 C   0  0  2  0  0  0  0  0  0  0  0  0
  -33.3280  -16.2240   20.1670 C   0  0  0  0  0  1  0  0  0  0  0  0
  -31.6780  -14.5910   19.1360 C   0  0  0  0  0  0  0  0  0  0  0  0
  -30.8450  -12.5170   18.0650 C   0  0  0  0  0  2  0  0  0  0  0  0
  -29.7150  -12.7770   17.0520 C   0  0  0  0  0  2  0  0  0  0  0  0
  -28.3520  -12.7230   17.7630 C   0  0  0  0  0  2  0  0  0  0  0  0
  -28.3270  -13.6160   19.0280 C   0  0  0  0  0  3  0  0  0  0  0  0
  -29.5620  -13.3860   19.9220 C   0  0  0  0  0  2  0  0  0  0  0  0
  -30.7900  -13.5480   19.1260 N   0  0  0  0  0  0  0  0  0  0  0  0
  -32.4590  -14.7150   18.1860 O   0  0  0  0  0  0  0  0  0  0  0  0
  -26.2950  -14.4000   20.4000 C   0  0  0  0  0  0  0  0  0  0  0  0
  -25.2180  -13.7240   20.9090 C   0  0  0  0  0  0  0  0  0  0  0  0
  -25.4190  -12.3510   20.5750 C   0  0  0  0  0  0  0  0  0  0  0  0
  -27.0880  -13.4440   19.7860 N   0  0  0  0  0  0  0  0  0  0  0  0
  -26.5790  -12.1940   19.9490 N   0  0  0  0  0  0  0  0  0  0  0  0
  -24.5450  -11.1840   20.7600 C   0  0  0  0  0  0  0  0  0  0  0  0
  -24.9610  -10.0600   21.5070 C   0  0  0  0  0  3  0  0  0  0  0  0
  -24.0960   -8.9590   21.6850 C   0  0  0  0  0  3  0  0  0  0  0  0
  -22.7990   -8.9750   21.1160 C   0  0  0  0  0  0  0  0  0  0  0  0
  -22.3990  -10.0880   20.3550 C   0  0  0  0  0  3  0  0  0  0  0  0
  -23.2630  -11.1810   20.1750 C   0  0  0  0  0  3  0  0  0  0  0  0
  -21.9010   -7.9410   21.2140 O   0  0  0  0  0  0  0  0  0  0  0  0
  -21.8740   -7.1120   22.3070 C   0  0  0  0  0  0  0  0  0  0  0  0
  -21.6750   -7.6080   23.6150 C   0  0  0  0  0  3  0  0  0  0  0  0
  -21.5850   -6.7140   24.7010 C   0  0  0  0  0  3  0  0  0  0  0  0
  -21.6840   -5.3280   24.4820 C   0  0  0  0  0  0  0  0  0  0  0  0
  -21.8750   -4.8310   23.1810 C   0  0  0  0  0  3  0  0  0  0  0  0
  -21.9670   -5.7210   22.0960 C   0  0  0  0  0  0  0  0  0  0  0  0
  -22.1310   -5.2370   20.8410 F   0  0  0  0  0  0  0  0  0  0  0  0
  -21.5880   -4.4680   25.5230 F   0  0  0  0  0  0  0  0  0  0  0  0
  -24.0220  -14.3300   21.5870 C   0  0  0  0  0  0  0  0  0  0  0  0
  -23.4210  -13.6110   22.5300 N   0  0  0  0  0  0  0  0  0  0  0  0
  -23.6400  -15.4670   21.3150 O   0  0  0  0  0  0  0  0  0  0  0  0
  -23.7470  -12.6870   22.7690 H   0  0  0  0  0  0  0  0  0  0  0  0
  -22.6260  -13.9930   23.0220 H   0  0  0  0  0  0  0  0  0  0  0  0
  -26.6570  -15.7430   20.3920 N   0  0  0  0  0  0  0  0  0  0  0  0
  -26.0720  -16.4650   20.7980 H   0  0  0  0  0  0  0  0  0  0  0  0
  -27.5030  -16.1070   19.9710 H   0  0  0  0  0  0  0  0  0  0  0  0
  -28.4260  -24.1280   19.6780 C   0  0  0  0  0  2  0  0  0  0  0  0
  -28.1820  -25.3010   20.6620 C   0  0  0  0  0  2  0  0  0  0  0  0
  -28.3410  -26.6080   20.0770 O   0  0  0  0  0  0  0  0  0  0  0  0
  -24.6440  -31.8570   23.1600 C   0  0  0  0  0  0  0  0  0  0  0  0
  -27.1980  -27.3770   20.0680 C   0  0  0  0  0  0  0  0  0  0  0  0
  -23.3990  -30.4530   21.5470 C   0  0  0  0  0  3  0  0  0  0  0  0
  -24.8190  -28.9010   20.1030 C   0  0  0  0  0  0  0  0  0  0  0  0
  -25.9220  -30.7980   21.3000 C   0  0  0  0  0  2  0  0  0  0  0  0
  -25.9900  -29.4220   20.6670 C   0  0  0  0  0  0  0  0  0  0  0  0
  -27.1870  -28.6690   20.6430 C   0  0  0  0  0  3  0  0  0  0  0  0
  -26.0130  -26.8700   19.4940 C   0  0  0  0  0  3  0  0  0  0  0  0
  -24.8250  -27.6260   19.5100 C   0  0  0  0  0  3  0  0  0  0  0  0
  -23.5800  -29.7660   20.1670 C   0  0  0  0  0  2  0  0  0  0  0  0
  -24.6740  -31.0510   22.0610 N   0  0  0  0  0  0  0  0  0  0  0  0
  -23.5750  -32.1380   23.7210 O   0  0  0  0  0  0  0  0  0  0  0  0
  -22.7600  -29.4420   22.5260 C   0  0  0  0  0  0  0  0  0  0  0  0
  -21.4350  -29.2520   22.4120 N   0  0  0  0  0  0  0  0  0  0  0  0
  -23.4530  -28.8300   23.3440 O   0  0  0  0  0  0  0  0  0  0  0  0
  -20.9380  -29.7940   21.7200 H   0  0  0  0  0  0  0  0  0  0  0  0
  -18.0740  -28.0320   22.9230 C   0  0  0  0  0  0  0  0  0  0  0  0
  -20.6280  -28.3230   23.2010 C   0  0  0  0  0  3  0  0  0  0  0  0
  -20.7470  -26.8790   22.6600 C   0  0  0  0  0  2  0  0  0  0  0  0
  -19.6560  -26.5260   21.6450 C   0  0  0  0  0  2  0  0  0  0  0  0
  -18.2690  -26.6710   22.2760 C   0  0  0  0  0  2  0  0  0  0  0  0
  -19.1820  -28.8140   23.3420 C   0  0  0  0  0  0  0  0  0  0  0  0
  -18.9480  -30.0880   23.9060 C   0  0  0  0  0  3  0  0  0  0  0  0
  -17.6370  -30.5770   24.0560 C   0  0  0  0  0  3  0  0  0  0  0  0
  -16.5440  -29.7920   23.6570 C   0  0  0  0  0  3  0  0  0  0  0  0
  -16.7620  -28.5210   23.0950 C   0  0  0  0  0  3  0  0  0  0  0  0
  -25.9460  -32.4840   23.7520 C   0  0  0  0  0  3  0  0  0  0  0  0
  -26.5200  -31.6800   24.9810 C   0  0  1  0  0  0  0  0  0  0  0  0
  -25.4640  -31.3670   26.0670 C   0  0  0  0  0  1  0  0  0  0  0  0
  -27.1320  -30.3360   24.5180 C   0  0  0  0  0  1  0  0  0  0  0  0
  -27.6640  -32.4800   25.6470 C   0  0  0  0  0  1  0  0  0  0  0  0
  -25.6370  -33.8680   24.1350 N   0  0  0  0  0  0  0  0  0  0  0  0
  -25.9300  -34.9460   23.3940 C   0  0  0  0  0  0  0  0  0  0  0  0
  -26.5610  -34.8790   22.3360 O   0  0  0  0  0  0  0  0  0  0  0  0
  -25.0730  -33.9930   24.9630 H   0  0  0  0  0  0  0  0  0  0  0  0
  -24.1680  -36.7250   23.1610 C   0  0  0  0  0  1  0  0  0  0  0  0
  -25.4460  -36.3140   23.9090 C   0  0  0  0  0  3  0  0  0  0  0  0
  -27.6070  -37.2000   24.6680 C   0  0  0  0  0  1  0  0  0  0  0  0
  -26.4610  -37.3840   23.7810 N   0  0  0  0  0  0  0  0  0  0  0  0
  -26.0510  -38.2930   23.9770 H   0  0  0  0  0  0  0  0  0  0  0  0
  1  2  1  0
  1  5  1  0
  2  4  1  0
  3  1  2  0
  6  7  2  0
  6  9  1  0
  7 11  1  0
  9 14  1  0
  9 10  2  0
 10  8  1  0
 10 12  1  0
 11  5  1  0
 11  8  2  0
 13 12  2  0
 14 15  1  1
 14 13  1  0
 16 14  1  0
 17 22  1  0
 18 19  1  0
 18 17  1  0
 20 19  1  0
 20 27  1  0
 20 21  1  0
 22 16  1  0
 22 21  1  0
 23 16  2  0
 24 25  2  0
 25 44  1  0
 26 29  1  0
 26 25  1  0
 27 28  1  0
 27 24  1  0
 28 26  2  0
 29 30  1  0
 30 31  2  0
 32 35  1  0
 32 31  1  0
 33 32  2  0
 34 33  1  0
 34 29  2  0
 35 36  1  0
 36 37  1  0
 37 38  2  0
 39 38  1  0
 39 43  1  0
 40 39  2  0
 41 36  2  0
 41 40  1  0
 42 41  1  0
 44 45  1  0
 45 47  1  0
 45 48  1  0
 46 44  2  0
 49 24  1  0
 49 50  1  0
 51 49  1  0
 52  2  1  0
 52 53  1  0
 54 53  1  0
 55 66  2  0
 56 54  1  0
 56 61  1  0
 57 65  1  0
 57 67  1  0
 58 64  1  0
 58 60  1  0
 59 65  1  0
 60 59  1  0
 61 60  2  0
 62 63  1  0
 62 56  2  0
 63 58  2  0
 64 57  1  0
 65 55  1  0
 67 69  2  0
 68 67  1  0
 70 68  1  0
 71 80  2  0
 71 76  1  0
 72 68  1  0
 72 76  1  0
 73 72  1  0
 74 75  1  0
 74 73  1  0
 75 71  1  0
 76 77  2  0
 77 78  1  0
 79 78  2  0
 80 79  1  0
 81 55  1  0
 81 86  1  0
 81 82  1  0
 82 85  1  1
 82 83  1  0
 84 82  1  0
 86 89  1  0
 87 91  1  0
 87 86  1  0
 88 87  2  0
 91 90  1  0
 93 91  1  0
 93 94  1  0
 93 92  1  0
M  ISO  4  14 100  16 100  53 101  54 101
M  END
>  <TORSDO>  (12) 
F 20

>  <SCORE>  (12) 
-9.093

>  <name>  (12) 
12

>  <ligand_id>  (12) 
12

>  <original_smiles>  (12) 
[H]c1c([H])c([H])c2c(c1[H])C([H])([H])C([H])([H])C([H])([H])C2([H])N([H])C(=O)C1([H])N(C(=O)C([H])(N([H])C(=O)C([H])(N([H])C([H])([H])[H])C([H])([H])[H])C(C([H])([H])[H])(C([H])([H])[H])C([H])([H])[H])C([H])([H])c2c([H])c(OC([H])([H])C([H])([H])N([H])C(=O)C([H])([H])c3c([H])c([H])c4c(c3[H])C([H])([H])C([H])([H])C4(C(=O)N3C([H])([H])C([H])([H])C([H])([H])C([H])(n4nc(-c5c([H])c([H])c(Oc6c([H])c([H])c(F)c([H])c6F)c([H])c5[H])c(C(=O)N([H])[H])c4N([H])[H])C3([H])[H])C([H])([H])[H])c([H])c([H])c2C1([H])[H]

>  <smiles>  (12) 
[H]c1c([H])c([H])c2c(c1[H])C([H])([H])C([H])([H])C([H])([H])C2([H])N([H])C(=O)C1([H])N(C(=O)C([H])(N([H])C(=O)C([H])(N([H])C([H])([H])[H])C([H])([H])[H])C(C([H])([H])[H])(C([H])([H])[H])C([H])([H])[H])C([H])([H])c2c([H])c(OC([H])([H])C([H])([H])N([H])C(=O)C([H])([H])c3c([H])c([H])c4c(c3[H])C([H])([H])C([H])([H])C4(C(=O)N3C([H])([H])C([H])([H])C([H])([H])C([H])(n4nc(-c5c([H])c([H])c(Oc6c([H])c([H])c(F)c([H])c6F)c([H])c5[H])c(C(=O)N([H])[H])c4N([H])[H])C3([H])[H])C([H])([H])[H])c([H])c([H])c2C1([H])[H]

$$$$
13:0:0
     RDKit          3D

 94103  0  0  1  0  0  0  0  0999 V2000
  -29.3020  -22.4490   21.1940 C   0  0  0  0  0  0  0  0  0  0  0  0
  -29.8790  -23.3900   20.4320 N   0  0  0  0  0  0  0  0  0  0  0  0
  -28.3210  -22.6840   21.9000 O   0  0  0  0  0  0  0  0  0  0  0  0
  -30.6530  -23.0840   19.8580 H   0  0  0  0  0  0  0  0  0  0  0  0
  -30.6970  -14.4710   20.2990 C   0  0  0  0  0  0  0  0  0  0  0  0
  -30.3370  -12.3140   19.1860 C   0  0  0  0  0  2  0  0  0  0  0  0
  -29.3790  -12.5410   18.0010 C   0  0  0  0  0  2  0  0  0  0  0  0
  -27.9130  -12.4180   18.4610 C   0  0  0  0  0  2  0  0  0  0  0  0
  -27.6020  -13.2470   19.7380 C   0  0  0  0  0  3  0  0  0  0  0  0
  -28.6860  -13.0450   20.8220 C   0  0  0  0  0  2  0  0  0  0  0  0
  -29.9950  -13.3110   20.2090 N   0  0  0  0  0  0  0  0  0  0  0  0
  -31.8700  -14.5770   19.9280 O   0  0  0  0  0  0  0  0  0  0  0  0
  -32.0900  -19.7140   20.8820 C   0  0  0  0  0  2  0  0  0  0  0  0
  -31.4550  -21.1010   20.8290 C   0  0  0  0  0  2  0  0  0  0  0  0
  -31.3280  -18.7570   19.9580 C   0  0  0  0  0  2  0  0  0  0  0  0
  -29.0950  -17.7230   19.3300 C   0  0  0  0  0  2  0  0  0  0  0  0
  -29.6610  -17.8280   21.6890 C   0  0  0  0  0  2  0  0  0  0  0  0
  -29.1780  -20.0060   20.3980 C   0  0  0  0  0  2  0  0  0  0  0  0
  -29.7000  -16.3160   19.1960 C   0  0  0  0  0  2  0  0  0  0  0  0
  -30.2630  -16.4010   21.6670 C   0  0  0  0  0  2  0  0  0  0  0  0
  -29.9610  -21.0540   21.2290 C   0  0  0  0  0  3  0  0  0  0  0  0
  -29.8340  -18.5920   20.3570 C   0  0  1  0  0  0  0  0  0  0  0  0
  -29.9550  -15.5910   20.4660 N   0  0  0  0  0  0  0  0  0  0  0  0
  -25.2260  -13.8550   20.5080 C   0  0  0  0  0  0  0  0  0  0  0  0
  -24.1620  -13.0830   20.8860 C   0  0  0  0  0  0  0  0  0  0  0  0
  -24.6170  -11.7290   20.8270 C   0  0  0  0  0  0  0  0  0  0  0  0
  -26.2630  -12.9720   20.2460 N   0  0  0  0  0  0  0  0  0  0  0  0
  -25.9000  -11.6880   20.4940 N   0  0  0  0  0  0  0  0  0  0  0  0
  -23.8890  -10.4680   21.0140 C   0  0  0  0  0  0  0  0  0  0  0  0
  -24.3210   -9.5000   21.9460 C   0  0  0  0  0  3  0  0  0  0  0  0
  -23.5960   -8.3010   22.1200 C   0  0  0  0  0  3  0  0  0  0  0  0
  -22.4250   -8.0640   21.3620 C   0  0  0  0  0  0  0  0  0  0  0  0
  -22.0130   -9.0210   20.4180 C   0  0  0  0  0  3  0  0  0  0  0  0
  -22.7390  -10.2100   20.2420 C   0  0  0  0  0  3  0  0  0  0  0  0
  -21.6710   -6.9190   21.4460 O   0  0  0  0  0  0  0  0  0  0  0  0
  -21.5890   -6.1950   22.6080 C   0  0  0  0  0  0  0  0  0  0  0  0
  -21.1100   -6.7630   23.8080 C   0  0  0  0  0  3  0  0  0  0  0  0
  -20.9770   -5.9650   24.9610 C   0  0  0  0  0  3  0  0  0  0  0  0
  -21.3110   -4.5990   24.9150 C   0  0  0  0  0  0  0  0  0  0  0  0
  -21.7820   -4.0290   23.7200 C   0  0  0  0  0  3  0  0  0  0  0  0
  -21.9170   -4.8240   22.5680 C   0  0  0  0  0  0  0  0  0  0  0  0
  -22.3520   -4.2650   21.4130 F   0  0  0  0  0  0  0  0  0  0  0  0
  -21.1750   -3.8290   26.0210 F   0  0  0  0  0  0  0  0  0  0  0  0
  -22.7730  -13.5620   21.1930 C   0  0  0  0  0  0  0  0  0  0  0  0
  -22.0640  -12.8610   22.0720 N   0  0  0  0  0  0  0  0  0  0  0  0
  -22.3250  -14.5920   20.6920 O   0  0  0  0  0  0  0  0  0  0  0  0
  -22.4380  -12.0270   22.4990 H   0  0  0  0  0  0  0  0  0  0  0  0
  -21.1330  -13.1620   22.3210 H   0  0  0  0  0  0  0  0  0  0  0  0
  -25.3960  -15.2280   20.3470 N   0  0  0  0  0  0  0  0  0  0  0  0
  -24.6430  -15.8910   20.4920 H   0  0  0  0  0  0  0  0  0  0  0  0
  -26.2590  -15.6650   20.0490 H   0  0  0  0  0  0  0  0  0  0  0  0
  -29.7140  -24.8350   20.5630 C   0  0  0  0  0  2  0  0  0  0  0  0
  -28.4030  -25.3890   19.9850 C   0  0  0  0  0  2  0  0  0  0  0  0
  -28.4340  -26.8020   20.1880 O   0  0  0  0  0  0  0  0  0  0  0  0
  -24.6060  -31.8970   23.2970 C   0  0  0  0  0  0  0  0  0  0  0  0
  -27.2410  -27.4880   20.1820 C   0  0  0  0  0  0  0  0  0  0  0  0
  -23.3970  -30.5100   21.6460 C   0  0  0  0  0  3  0  0  0  0  0  0
  -24.8430  -28.9810   20.2090 C   0  0  0  0  0  0  0  0  0  0  0  0
  -25.9190  -30.8700   21.4440 C   0  0  0  0  0  2  0  0  0  0  0  0
  -26.0000  -29.5060   20.7980 C   0  0  0  0  0  0  0  0  0  0  0  0
  -27.2010  -28.7670   20.7790 C   0  0  0  0  0  3  0  0  0  0  0  0
  -26.0640  -26.9720   19.5900 C   0  0  0  0  0  3  0  0  0  0  0  0
  -24.8700  -27.7140   19.6010 C   0  0  0  0  0  3  0  0  0  0  0  0
  -23.6010  -29.8390   20.2610 C   0  0  0  0  0  2  0  0  0  0  0  0
  -24.6590  -31.1070   22.1870 N   0  0  0  0  0  0  0  0  0  0  0  0
  -23.5270  -32.1660   23.8410 O   0  0  0  0  0  0  0  0  0  0  0  0
  -22.7460  -29.4810   22.5990 C   0  0  0  0  0  0  0  0  0  0  0  0
  -21.4230  -29.2960   22.4670 N   0  0  0  0  0  0  0  0  0  0  0  0
  -23.4300  -28.8530   23.4130 O   0  0  0  0  0  0  0  0  0  0  0  0
  -20.9330  -29.8600   21.7860 H   0  0  0  0  0  0  0  0  0  0  0  0
  -18.0480  -28.1000   22.9420 C   0  0  0  0  0  0  0  0  0  0  0  0
  -20.6050  -28.3530   23.2270 C   0  0  0  0  0  3  0  0  0  0  0  0
  -20.7080  -26.9260   22.6410 C   0  0  0  0  0  2  0  0  0  0  0  0
  -19.6100  -26.6100   21.6210 C   0  0  0  0  0  2  0  0  0  0  0  0
  -18.2260  -26.7540   22.2610 C   0  0  0  0  0  2  0  0  0  0  0  0
  -19.1660  -28.8580   23.3830 C   0  0  0  0  0  0  0  0  0  0  0  0
  -18.9460  -30.1190   23.9770 C   0  0  0  0  0  3  0  0  0  0  0  0
  -17.6420  -30.6220   24.1400 C   0  0  0  0  0  3  0  0  0  0  0  0
  -16.5380  -29.8600   23.7180 C   0  0  0  0  0  3  0  0  0  0  0  0
  -16.7420  -28.6020   23.1230 C   0  0  0  0  0  3  0  0  0  0  0  0
  -25.8950  -32.5210   23.9190 C   0  0  0  0  0  3  0  0  0  0  0  0
  -25.5930  -33.9190   24.2490 N   0  0  0  0  0  0  0  0  0  0  0  0
  -25.9050  -34.9670   23.4740 C   0  0  0  0  0  0  0  0  0  0  0  0
  -26.5510  -34.8580   22.4280 O   0  0  0  0  0  0  0  0  0  0  0  0
  -25.0200  -34.0780   25.0650 H   0  0  0  0  0  0  0  0  0  0  0  0
  -24.1550  -36.7450   23.1650 C   0  0  0  0  0  1  0  0  0  0  0  0
  -25.4280  -36.3580   23.9340 C   0  0  0  0  0  3  0  0  0  0  0  0
  -27.5850  -37.2670   24.6750 C   0  0  0  0  0  1  0  0  0  0  0  0
  -26.4490  -37.4150   23.7690 N   0  0  0  0  0  0  0  0  0  0  0  0
  -26.0410  -38.3350   23.9170 H   0  0  0  0  0  0  0  0  0  0  0  0
  -26.4070  -31.7440   25.1930 C   0  0  1  0  0  0  0  0  0  0  0  0
  -25.3130  -31.5090   26.2600 C   0  0  0  0  0  1  0  0  0  0  0  0
  -26.9860  -30.3680   24.7940 C   0  0  0  0  0  1  0  0  0  0  0  0
  -27.5590  -32.5330   25.8610 C   0  0  0  0  0  1  0  0  0  0  0  0
  1  3  2  0
  2 52  1  0
  2  1  1  0
  4  2  1  0
  5 23  1  0
  6 11  1  0
  7  8  1  0
  7  6  1  0
  9  8  1  0
  9 27  1  0
  9 10  1  0
 11  5  1  0
 11 10  1  0
 12  5  2  0
 14 13  1  0
 14 21  1  0
 22 15  1  6
 15 13  1  0
 18 21  1  0
 19 16  1  0
 19 23  1  0
 20 17  1  0
 21  1  1  0
 22 16  1  0
 22 18  1  0
 22 17  1  0
 23 20  1  0
 24 25  2  0
 25 44  1  0
 26 25  1  0
 26 29  1  0
 27 28  1  0
 27 24  1  0
 28 26  2  0
 29 30  1  0
 30 31  2  0
 32 35  1  0
 32 31  1  0
 33 32  2  0
 34 33  1  0
 34 29  2  0
 35 36  1  0
 36 37  1  0
 37 38  2  0
 39 38  1  0
 39 43  1  0
 40 39  2  0
 41 36  2  0
 41 40  1  0
 42 41  1  0
 44 45  1  0
 45 48  1  0
 45 47  1  0
 46 44  2  0
 49 50  1  0
 49 24  1  0
 51 49  1  0
 53 54  1  0
 53 52  1  0
 55 66  2  0
 56 54  1  0
 56 61  1  0
 57 65  1  0
 57 67  1  0
 58 64  1  0
 58 60  1  0
 59 65  1  0
 60 59  1  0
 61 60  2  0
 62 63  1  0
 62 56  2  0
 63 58  2  0
 64 57  1  0
 65 55  1  0
 67 69  2  0
 68 67  1  0
 70 68  1  0
 71 80  2  0
 71 76  1  0
 72 68  1  0
 72 76  1  0
 73 72  1  0
 74 75  1  0
 74 73  1  0
 75 71  1  0
 76 77  2  0
 77 78  1  0
 79 78  2  0
 80 79  1  0
 81 55  1  0
 81 82  1  0
 81 91  1  0
 82 85  1  0
 83 87  1  0
 83 82  1  0
 84 83  2  0
 87 86  1  0
 89 90  1  0
 89 87  1  0
 89 88  1  0
 91 94  1  1
 91 92  1  0
 93 91  1  0
M  ISO  4   5 100  23 100  53 101  54 101
M  END
>  <TORSDO>  (13) 
F 18

>  <SCORE>  (13) 
-14.788

>  <name>  (13) 
13

>  <ligand_id>  (13) 
13

>  <original_smiles>  (13) 
[H]c1c([H])c([H])c2c(c1[H])C([H])([H])C([H])([H])C([H])([H])C2([H])N([H])C(=O)C1([H])N(C(=O)C([H])(N([H])C(=O)C([H])(N([H])C([H])([H])[H])C([H])([H])[H])C(C([H])([H])[H])(C([H])([H])[H])C([H])([H])[H])C([H])([H])c2c([H])c(OC([H])([H])C([H])([H])N([H])C(=O)C3([H])C([H])([H])C([H])([H])C([H])([H])C4(C([H])([H])C([H])([H])N(C(=O)N5C([H])([H])C([H])([H])C([H])([H])C([H])(n6nc(-c7c([H])c([H])c(Oc8c([H])c([H])c(F)c([H])c8F)c([H])c7[H])c(C(=O)N([H])[H])c6N([H])[H])C5([H])[H])C([H])([H])C4([H])[H])C3([H])[H])c([H])c([H])c2C1([H])[H]

>  <smiles>  (13) 
[H]c1c([H])c([H])c2c(c1[H])C([H])([H])C([H])([H])C([H])([H])C2([H])N([H])C(=O)C1([H])N(C(=O)C([H])(N([H])C(=O)C([H])(N([H])C([H])([H])[H])C([H])([H])[H])C(C([H])([H])[H])(C([H])([H])[H])C([H])([H])[H])C([H])([H])c2c([H])c(OC([H])([H])C([H])([H])N([H])C(=O)C3([H])C([H])([H])C([H])([H])C([H])([H])C4(C([H])([H])C([H])([H])N(C(=O)N5C([H])([H])C([H])([H])C([H])([H])C([H])(n6nc(-c7c([H])c([H])c(Oc8c([H])c([H])c(F)c([H])c8F)c([H])c7[H])c(C(=O)N([H])[H])c6N([H])[H])C5([H])[H])C([H])([H])C4([H])[H])C3([H])[H])c([H])c([H])c2C1([H])[H]

$$$$
14:0:0
     RDKit          3D

101110  0  0  1  0  0  0  0  0999 V2000
  -31.2490  -25.2020   21.1680 C   0  0  0  0  0  2  0  0  0  0  0  0
  -30.6700  -26.6660   19.1710 C   0  0  0  0  0  2  0  0  0  0  0  0
  -29.7780  -27.2540   21.4970 C   0  0  0  0  0  2  0  0  0  0  0  0
  -31.0420  -25.2340   19.6380 C   0  0  0  0  0  3  0  0  0  0  0  0
  -30.0680  -25.8070   21.9610 C   0  0  0  0  0  3  0  0  0  0  0  0
  -29.5480  -27.3760   19.9710 C   0  0  0  0  0  3  0  0  0  0  0  0
  -30.3260  -25.7390   23.4140 N   0  0  0  0  0  4  0  0  0  0  0  0
  -31.1350  -26.2720   23.6760 H   0  0  0  0  0  0  0  0  0  0  0  0
  -30.4740  -24.7860   23.6950 H   0  0  0  0  0  0  0  0  0  0  0  0
  -29.5360  -26.0870   23.9290 H   0  0  0  0  0  0  0  0  0  0  0  0
  -30.0690  -24.1500   19.1230 C   0  0  0  0  0  0  0  0  0  0  0  0
  -30.4350  -23.4790   18.0200 N   0  0  0  0  0  0  0  0  0  0  0  0
  -29.0170  -23.9140   19.7130 O   0  0  0  0  0  0  0  0  0  0  0  0
  -31.3310  -23.7140   17.6110 H   0  0  0  0  0  0  0  0  0  0  0  0
  -29.5880  -22.5580   17.2610 C   0  0  0  0  0  2  0  0  0  0  0  0
  -30.1510  -21.1220   17.1920 C   0  0  0  0  0  2  0  0  0  0  0  0
  -30.1640  -20.3800   18.5450 C   0  0  0  0  0  2  0  0  0  0  0  0
  -30.2700  -18.8430   18.4070 C   0  0  0  0  0  2  0  0  0  0  0  0
  -31.0270  -16.8570   21.4940 C   0  0  0  0  0  2  0  0  0  0  0  0
  -31.3880  -17.9140   20.4480 C   0  0  0  0  0  2  0  0  0  0  0  0
  -29.3550  -16.8970   19.7350 C   0  0  0  0  0  2  0  0  0  0  0  0
  -29.9690  -15.9570   20.8100 C   0  0  0  0  0  3  0  0  0  0  0  0
  -30.1300  -18.1670   19.7240 N   0  0  2  0  0  4  0  0  0  0  0  0
  -29.6010  -18.8020   20.3040 H   0  0  0  0  0  0  0  0  0  0  0  0
  -30.5950  -14.6980   20.1560 C   0  0  0  0  0  0  0  0  0  0  0  0
  -30.2860  -12.5030   19.0780 C   0  0  0  0  0  2  0  0  0  0  0  0
  -29.3170  -12.6710   17.8900 C   0  0  0  0  0  2  0  0  0  0  0  0
  -27.8550  -12.5130   18.3530 C   0  0  0  0  0  2  0  0  0  0  0  0
  -27.5320  -13.3640   19.6090 C   0  0  0  0  0  3  0  0  0  0  0  0
  -28.6220  -13.2010   20.6920 C   0  0  0  0  0  2  0  0  0  0  0  0
  -29.9280  -13.5110   20.0880 N   0  0  0  0  0  0  0  0  0  0  0  0
  -31.6820  -14.8560   19.5950 O   0  0  0  0  0  0  0  0  0  0  0  0
  -25.1340  -13.9240   20.3620 C   0  0  0  0  0  0  0  0  0  0  0  0
  -24.0960  -13.1350   20.7770 C   0  0  0  0  0  0  0  0  0  0  0  0
  -24.5920  -11.7960   20.7690 C   0  0  0  0  0  0  0  0  0  0  0  0
  -26.1980  -13.0660   20.1290 N   0  0  0  0  0  0  0  0  0  0  0  0
  -25.8750  -11.7800   20.4280 N   0  0  0  0  0  0  0  0  0  0  0  0
  -23.9020  -10.5210   21.0070 C   0  0  0  0  0  0  0  0  0  0  0  0
  -24.3510   -9.6120   21.9900 C   0  0  0  0  0  3  0  0  0  0  0  0
  -23.6600   -8.4010   22.2150 C   0  0  0  0  0  3  0  0  0  0  0  0
  -22.5060   -8.0900   21.4540 C   0  0  0  0  0  0  0  0  0  0  0  0
  -22.0780   -8.9890   20.4610 C   0  0  0  0  0  3  0  0  0  0  0  0
  -22.7690  -10.1910   20.2370 C   0  0  0  0  0  3  0  0  0  0  0  0
  -21.7870   -6.9270   21.5850 O   0  0  0  0  0  0  0  0  0  0  0  0
  -21.7260   -6.2470   22.7760 C   0  0  0  0  0  0  0  0  0  0  0  0
  -21.2020   -6.8410   23.9450 C   0  0  0  0  0  3  0  0  0  0  0  0
  -21.0920   -6.0850   25.1290 C   0  0  0  0  0  3  0  0  0  0  0  0
  -21.4970   -4.7370   25.1450 C   0  0  0  0  0  0  0  0  0  0  0  0
  -22.0130   -4.1430   23.9810 C   0  0  0  0  0  3  0  0  0  0  0  0
  -22.1260   -4.8950   22.7980 C   0  0  0  0  0  0  0  0  0  0  0  0
  -22.6030   -4.3130   21.6730 F   0  0  0  0  0  0  0  0  0  0  0  0
  -21.3840   -4.0080   26.2810 F   0  0  0  0  0  0  0  0  0  0  0  0
  -22.6940  -13.5830   21.0730 C   0  0  0  0  0  0  0  0  0  0  0  0
  -22.0010  -12.8830   21.9650 N   0  0  0  0  0  0  0  0  0  0  0  0
  -22.2190  -14.5890   20.5470 O   0  0  0  0  0  0  0  0  0  0  0  0
  -22.3960  -12.0700   22.4150 H   0  0  0  0  0  0  0  0  0  0  0  0
  -21.0600  -13.1640   22.2020 H   0  0  0  0  0  0  0  0  0  0  0  0
  -25.2550  -15.2930   20.1470 N   0  0  0  0  0  0  0  0  0  0  0  0
  -24.4680  -15.9230   20.2580 H   0  0  0  0  0  0  0  0  0  0  0  0
  -26.0680  -15.7460   19.7530 H   0  0  0  0  0  0  0  0  0  0  0  0
  -28.2730  -26.8610   19.5780 O   0  0  0  0  0  0  0  0  0  0  0  0
  -24.3510  -31.7560   23.0880 C   0  0  0  0  0  0  0  0  0  0  0  0
  -27.1230  -27.6170   19.7180 C   0  0  0  0  0  0  0  0  0  0  0  0
  -23.1690  -30.4290   21.3640 C   0  0  0  0  0  3  0  0  0  0  0  0
  -24.6600  -29.0170   19.8460 C   0  0  0  0  0  0  0  0  0  0  0  0
  -25.6780  -30.8760   21.1720 C   0  0  0  0  0  2  0  0  0  0  0  0
  -25.8030  -29.5500   20.4540 C   0  0  0  0  0  0  0  0  0  0  0  0
  -27.0360  -28.8610   20.3910 C   0  0  0  0  0  3  0  0  0  0  0  0
  -25.9550  -27.0870   19.1300 C   0  0  0  0  0  3  0  0  0  0  0  0
  -24.7280  -27.7790   19.1830 C   0  0  0  0  0  3  0  0  0  0  0  0
  -23.3900  -29.8320   19.9470 C   0  0  0  0  0  2  0  0  0  0  0  0
  -24.4170  -31.0300   21.9350 N   0  0  0  0  0  0  0  0  0  0  0  0
  -23.2680  -31.9650   23.6510 O   0  0  0  0  0  0  0  0  0  0  0  0
  -22.5440  -29.3390   22.2640 C   0  0  0  0  0  0  0  0  0  0  0  0
  -21.2250  -29.1330   22.1250 N   0  0  0  0  0  0  0  0  0  0  0  0
  -23.2440  -28.6830   23.0400 O   0  0  0  0  0  0  0  0  0  0  0  0
  -20.7210  -29.7190   21.4760 H   0  0  0  0  0  0  0  0  0  0  0  0
  -17.8780  -27.8440   22.5610 C   0  0  0  0  0  0  0  0  0  0  0  0
  -20.4320  -28.1300   22.8330 C   0  0  0  0  0  3  0  0  0  0  0  0
  -20.5540  -26.7440   22.1610 C   0  0  0  0  0  2  0  0  0  0  0  0
  -19.4510  -26.4690   21.1340 C   0  0  0  0  0  2  0  0  0  0  0  0
  -18.0720  -26.5460   21.7950 C   0  0  0  0  0  2  0  0  0  0  0  0
  -18.9860  -28.5950   23.0340 C   0  0  0  0  0  0  0  0  0  0  0  0
  -18.7490  -29.8130   23.7080 C   0  0  0  0  0  3  0  0  0  0  0  0
  -17.4370  -30.2790   23.9150 C   0  0  0  0  0  3  0  0  0  0  0  0
  -16.3440  -29.5230   23.4590 C   0  0  0  0  0  3  0  0  0  0  0  0
  -16.5650  -28.3080   22.7870 C   0  0  0  0  0  3  0  0  0  0  0  0
  -25.6260  -32.3730   23.7430 C   0  0  0  0  0  3  0  0  0  0  0  0
  -26.1340  -31.5640   24.9980 C   0  0  1  0  0  0  0  0  0  0  0  0
  -25.0290  -31.2690   26.0390 C   0  0  0  0  0  1  0  0  0  0  0  0
  -26.7440  -30.2110   24.5600 C   0  0  0  0  0  1  0  0  0  0  0  0
  -27.2640  -32.3480   25.7050 C   0  0  0  0  0  1  0  0  0  0  0  0
  -25.3100  -33.7590   24.1080 N   0  0  0  0  0  0  0  0  0  0  0  0
  -25.6670  -34.8330   23.3930 C   0  0  0  0  0  0  0  0  0  0  0  0
  -26.3680  -34.7610   22.3800 O   0  0  0  0  0  0  0  0  0  0  0  0
  -24.6880  -33.8890   24.8930 H   0  0  0  0  0  0  0  0  0  0  0  0
  -23.9620  -36.6440   23.0300 C   0  0  0  0  0  1  0  0  0  0  0  0
  -25.1670  -36.2070   23.8760 C   0  0  0  0  0  3  0  0  0  0  0  0
  -27.2650  -37.0600   24.8280 C   0  0  0  0  0  1  0  0  0  0  0  0
  -26.2070  -37.2580   23.8400 N   0  0  0  0  0  0  0  0  0  0  0  0
  -25.8000  -38.1760   23.9910 H   0  0  0  0  0  0  0  0  0  0  0  0
  1  5  1  0
  2  4  1  0
  2  6  1  0
  3  5  1  0
  4 11  1  0
  4  1  1  0
  5  7  1  0
  6 61  1  0
  6  3  1  0
  7  8  1  0
  7  9  1  0
  7 10  1  0
 11 13  2  0
 12 11  1  0
 14 12  1  0
 15 12  1  0
 16 15  1  0
 16 17  1  0
 18 17  1  0
 18 23  1  0
 20 19  1  0
 21 22  1  0
 22 25  1  0
 22 19  1  0
 23 21  1  0
 23 24  1  1
 23 20  1  0
 26 31  1  0
 27 28  1  0
 27 26  1  0
 29 28  1  0
 29 36  1  0
 29 30  1  0
 31 25  1  0
 31 30  1  0
 32 25  2  0
 33 34  2  0
 34 53  1  0
 35 34  1  0
 35 38  1  0
 36 33  1  0
 36 37  1  0
 37 35  2  0
 38 39  1  0
 39 40  2  0
 41 44  1  0
 41 40  1  0
 42 41  2  0
 43 42  1  0
 43 38  2  0
 44 45  1  0
 45 50  2  0
 45 46  1  0
 46 47  2  0
 47 48  1  0
 48 52  1  0
 49 48  2  0
 50 49  1  0
 51 50  1  0
 53 54  1  0
 54 57  1  0
 54 56  1  0
 55 53  2  0
 58 59  1  0
 58 33  1  0
 60 58  1  0
 61 63  1  0
 62 73  2  0
 63 68  1  0
 64 72  1  0
 64 74  1  0
 65 71  1  0
 65 67  1  0
 66 72  1  0
 67 66  1  0
 68 67  2  0
 69 70  1  0
 69 63  2  0
 70 65  2  0
 71 64  1  0
 72 62  1  0
 74 76  2  0
 75 74  1  0
 77 75  1  0
 78 87  2  0
 78 83  1  0
 79 75  1  0
 79 83  1  0
 80 79  1  0
 81 82  1  0
 81 80  1  0
 82 78  1  0
 83 84  2  0
 84 85  1  0
 86 85  2  0
 87 86  1  0
 88 62  1  0
 88 93  1  0
 88 89  1  0
 89 92  1  1
 89 90  1  0
 91 89  1  0
 93 96  1  0
 94 98  1  0
 94 93  1  0
 95 94  2  0
 98 97  1  0
100 98  1  0
100101  1  0
100 99  1  0
M  ISO  4   6 101  22 100  25 100  61 101
M  END
>  <TORSDO>  (14) 
F 23

>  <SCORE>  (14) 
-12.504

>  <name>  (14) 
14

>  <ligand_id>  (14) 
14

>  <original_smiles>  (14) 
[H]c1c([H])c([H])c2c(c1[H])C([H])([H])C([H])([H])C([H])([H])C2([H])N([H])C(=O)C1([H])N(C(=O)C([H])(N([H])C(=O)C([H])(N([H])C([H])([H])[H])C([H])([H])[H])C(C([H])([H])[H])(C([H])([H])[H])C([H])([H])[H])C([H])([H])c2c([H])c(OC3([H])C([H])([H])C([H])(C(=O)N([H])C([H])([H])C([H])([H])C([H])([H])C([H])([H])[N+]4([H])C([H])([H])C([H])([H])C([H])(C(=O)N5C([H])([H])C([H])([H])C([H])([H])C([H])(n6nc(-c7c([H])c([H])c(Oc8c([H])c([H])c(F)c([H])c8F)c([H])c7[H])c(C(=O)N([H])[H])c6N([H])[H])C5([H])[H])C4([H])[H])C([H])([H])C([H])([N+]([H])([H])[H])C3([H])[H])c([H])c([H])c2C1([H])[H]

>  <smiles>  (14) 
[H]c1c([H])c([H])c2c(c1[H])C([H])([H])C([H])([H])C([H])([H])C2([H])N([H])C(=O)C1([H])N(C(=O)C([H])(N([H])C(=O)C([H])(N([H])C([H])([H])[H])C([H])([H])[H])C(C([H])([H])[H])(C([H])([H])[H])C([H])([H])[H])C([H])([H])c2c([H])c(OC3([H])C([H])([H])C([H])(C(=O)N([H])C([H])([H])C([H])([H])C([H])([H])C([H])([H])[N+]4([H])C([H])([H])C([H])([H])C([H])(C(=O)N5C([H])([H])C([H])([H])C([H])([H])C([H])(n6nc(-c7c([H])c([H])c(Oc8c([H])c([H])c(F)c([H])c8F)c([H])c7[H])c(C(=O)N([H])[H])c6N([H])[H])C5([H])[H])C4([H])[H])C([H])([H])C([H])([N+]([H])([H])[H])C3([H])[H])c([H])c([H])c2C1([H])[H]

$$$$
15:0:0
     RDKit          3D

 97106  0  0  1  0  0  0  0  0999 V2000
  -28.8060  -23.3320   17.5090 C   0  0  0  0  0  3  0  0  0  0  0  0
  -28.5800  -22.2820   16.6060 C   0  0  0  0  0  3  0  0  0  0  0  0
  -28.2590  -20.7610   18.4740 C   0  0  0  0  0  3  0  0  0  0  0  0
  -28.7360  -22.6510   21.6740 C   0  0  0  0  0  3  0  0  0  0  0  0
  -28.7050  -23.1370   18.9090 C   0  0  0  0  0  0  0  0  0  0  0  0
  -28.4990  -21.8110   19.3970 C   0  0  0  0  0  0  0  0  0  0  0  0
  -28.2500  -21.0000   17.0840 C   0  0  0  0  0  0  0  0  0  0  0  0
  -28.5440  -21.5640   20.7970 C   0  0  0  0  0  0  0  0  0  0  0  0
  -28.8910  -23.9700   21.2030 C   0  0  0  0  0  0  0  0  0  0  0  0
  -28.8290  -24.2430   19.8070 C   0  0  0  0  0  0  0  0  0  0  0  0
  -27.8590  -19.9090   16.1000 C   0  0  0  0  0  1  0  0  0  0  0  0
  -29.1780  -25.0490   22.2340 C   0  0  0  0  0  1  0  0  0  0  0  0
  -28.5190  -20.1540   21.3920 C   0  0  0  0  0  2  0  0  0  0  0  0
  -29.8480  -19.4260   21.1180 C   0  0  0  0  0  2  0  0  0  0  0  0
  -29.9070  -17.9590   21.5840 C   0  0  0  0  0  2  0  0  0  0  0  0
  -31.2490  -17.3060   21.1870 C   0  0  0  0  0  2  0  0  0  0  0  0
  -31.5090  -15.8920   21.7460 C   0  0  0  0  0  2  0  0  0  0  0  0
  -30.9920  -14.1200   20.0590 C   0  0  0  0  0  0  0  0  0  0  0  0
  -30.4720  -12.0640   18.7880 C   0  0  0  0  0  2  0  0  0  0  0  0
  -29.4790  -12.3140   17.6420 C   0  0  0  0  0  2  0  0  0  0  0  0
  -28.0250  -12.2570   18.1470 C   0  0  0  0  0  2  0  0  0  0  0  0
  -27.7990  -13.1060   19.4250 C   0  0  0  0  0  3  0  0  0  0  0  0
  -28.8840  -12.8030   20.4810 C   0  0  0  0  0  2  0  0  0  0  0  0
  -30.2050  -13.0300   19.8640 N   0  0  0  0  0  0  0  0  0  0  0  0
  -31.9740  -14.3810   19.3550 O   0  0  0  0  0  0  0  0  0  0  0  0
  -30.6840  -14.8470   21.1410 N   0  0  0  0  0  0  0  0  0  0  0  0
  -29.8910  -14.5210   21.6780 H   0  0  0  0  0  0  0  0  0  0  0  0
  -25.4630  -13.8430   20.2230 C   0  0  0  0  0  0  0  0  0  0  0  0
  -24.3770  -13.1340   20.6480 C   0  0  0  0  0  0  0  0  0  0  0  0
  -24.7650  -11.7570   20.6150 C   0  0  0  0  0  0  0  0  0  0  0  0
  -26.4530  -12.9100   19.9620 N   0  0  0  0  0  0  0  0  0  0  0  0
  -26.0360  -11.6490   20.2490 N   0  0  0  0  0  0  0  0  0  0  0  0
  -23.9870  -10.5360   20.8530 C   0  0  0  0  0  0  0  0  0  0  0  0
  -24.4050   -9.5690   21.7940 C   0  0  0  0  0  3  0  0  0  0  0  0
  -23.6310   -8.4110   22.0210 C   0  0  0  0  0  3  0  0  0  0  0  0
  -22.4250   -8.2090   21.3080 C   0  0  0  0  0  0  0  0  0  0  0  0
  -22.0270   -9.1650   20.3560 C   0  0  0  0  0  3  0  0  0  0  0  0
  -22.7980  -10.3160   20.1280 C   0  0  0  0  0  3  0  0  0  0  0  0
  -21.6270   -7.1000   21.4410 O   0  0  0  0  0  0  0  0  0  0  0  0
  -21.5620   -6.3960   22.6150 C   0  0  0  0  0  0  0  0  0  0  0  0
  -21.2010   -7.0110   23.8350 C   0  0  0  0  0  3  0  0  0  0  0  0
  -21.0810   -6.2340   25.0070 C   0  0  0  0  0  3  0  0  0  0  0  0
  -21.3100   -4.8460   24.9580 C   0  0  0  0  0  0  0  0  0  0  0  0
  -21.6660   -4.2330   23.7430 C   0  0  0  0  0  3  0  0  0  0  0  0
  -21.7880   -5.0050   22.5740 C   0  0  0  0  0  0  0  0  0  0  0  0
  -22.1080   -4.4050   21.4030 F   0  0  0  0  0  0  0  0  0  0  0  0
  -21.1890   -4.1000   26.0820 F   0  0  0  0  0  0  0  0  0  0  0  0
  -23.0190  -13.6820   20.9770 C   0  0  0  0  0  0  0  0  0  0  0  0
  -22.3020  -13.0460   21.8950 N   0  0  0  0  0  0  0  0  0  0  0  0
  -22.6050  -14.7150   20.4490 O   0  0  0  0  0  0  0  0  0  0  0  0
  -22.6490  -12.2110   22.3470 H   0  0  0  0  0  0  0  0  0  0  0  0
  -21.3950  -13.4070   22.1560 H   0  0  0  0  0  0  0  0  0  0  0  0
  -25.6880  -15.2030   20.0200 N   0  0  0  0  0  0  0  0  0  0  0  0
  -24.9710  -15.9010   20.1880 H   0  0  0  0  0  0  0  0  0  0  0  0
  -26.5370  -15.5940   19.6360 H   0  0  0  0  0  0  0  0  0  0  0  0
  -28.9540  -25.6760   19.2380 C   0  0  0  0  0  2  0  0  0  0  0  0
  -28.6060  -26.7600   20.1050 O   0  0  0  0  0  0  0  0  0  0  0  0
  -24.5800  -31.7310   23.1590 C   0  0  0  0  0  0  0  0  0  0  0  0
  -27.3620  -27.3630   20.0750 C   0  0  0  0  0  0  0  0  0  0  0  0
  -23.4020  -30.3060   21.5050 C   0  0  0  0  0  3  0  0  0  0  0  0
  -24.8970  -28.7640   20.1030 C   0  0  0  0  0  0  0  0  0  0  0  0
  -25.9190  -30.7040   21.3270 C   0  0  0  0  0  2  0  0  0  0  0  0
  -26.0330  -29.3370   20.6860 C   0  0  0  0  0  0  0  0  0  0  0  0
  -27.2600  -28.6390   20.6690 C   0  0  0  0  0  3  0  0  0  0  0  0
  -26.2080  -26.7890   19.4960 C   0  0  0  0  0  3  0  0  0  0  0  0
  -24.9800  -27.4840   19.5150 C   0  0  0  0  0  3  0  0  0  0  0  0
  -23.6130  -29.5610   20.1520 C   0  0  0  0  0  2  0  0  0  0  0  0
  -24.6510  -30.9300   22.0560 N   0  0  0  0  0  0  0  0  0  0  0  0
  -23.4920  -32.0030   23.6850 O   0  0  0  0  0  0  0  0  0  0  0  0
  -22.7330  -29.3120   22.4770 C   0  0  0  0  0  0  0  0  0  0  0  0
  -21.4120  -29.1320   22.3220 N   0  0  0  0  0  0  0  0  0  0  0  0
  -23.4020  -28.6880   23.3020 O   0  0  0  0  0  0  0  0  0  0  0  0
  -20.9300  -29.6900   21.6280 H   0  0  0  0  0  0  0  0  0  0  0  0
  -18.0280  -27.9390   22.7510 C   0  0  0  0  0  0  0  0  0  0  0  0
  -20.5790  -28.1910   23.0710 C   0  0  0  0  0  3  0  0  0  0  0  0
  -20.6910  -26.7630   22.4840 C   0  0  0  0  0  2  0  0  0  0  0  0
  -19.6030  -26.4450   21.4500 C   0  0  0  0  0  2  0  0  0  0  0  0
  -18.2140  -26.5930   22.0720 C   0  0  0  0  0  2  0  0  0  0  0  0
  -19.1410  -28.6980   23.1990 C   0  0  0  0  0  0  0  0  0  0  0  0
  -18.9160  -29.9650   23.7800 C   0  0  0  0  0  3  0  0  0  0  0  0
  -17.6140  -30.4730   23.9210 C   0  0  0  0  0  3  0  0  0  0  0  0
  -16.5140  -29.7060   23.4970 C   0  0  0  0  0  3  0  0  0  0  0  0
  -16.7220  -28.4410   22.9200 C   0  0  0  0  0  3  0  0  0  0  0  0
  -25.8590  -32.3640   23.7980 C   0  0  0  0  0  3  0  0  0  0  0  0
  -25.5380  -33.7580   24.1300 N   0  0  0  0  0  0  0  0  0  0  0  0
  -25.8710  -34.8190   23.3850 C   0  0  0  0  0  0  0  0  0  0  0  0
  -26.5520  -34.7300   22.3600 O   0  0  0  0  0  0  0  0  0  0  0  0
  -24.9280  -33.8970   24.9220 H   0  0  0  0  0  0  0  0  0  0  0  0
  -24.1260  -36.6030   23.0350 C   0  0  0  0  0  1  0  0  0  0  0  0
  -25.3650  -36.1980   23.8480 C   0  0  0  0  0  3  0  0  0  0  0  0
  -27.4900  -37.1000   24.6840 C   0  0  0  0  0  1  0  0  0  0  0  0
  -26.3820  -37.2680   23.7490 N   0  0  0  0  0  0  0  0  0  0  0  0
  -25.9600  -38.1760   23.9260 H   0  0  0  0  0  0  0  0  0  0  0  0
  -26.3620  -31.5920   25.0790 C   0  0  1  0  0  0  0  0  0  0  0  0
  -25.2580  -31.3420   26.1320 C   0  0  0  0  0  1  0  0  0  0  0  0
  -26.9660  -30.2200   24.6960 C   0  0  0  0  0  1  0  0  0  0  0  0
  -27.4900  -32.3950   25.7670 C   0  0  0  0  0  1  0  0  0  0  0  0
  1  5  1  0
  2  7  1  0
  2  1  2  0
  3  6  1  0
  5  6  2  0
  5 10  1  0
  6  8  1  0
  7  3  2  0
  8 13  1  0
  8  4  2  0
  9  4  1  0
  9 12  1  0
 10  9  2  0
 11  7  1  0
 14 13  1  0
 14 15  1  0
 16 15  1  0
 16 17  1  0
 18 26  1  0
 19 24  1  0
 20 21  1  0
 20 19  1  0
 22 21  1  0
 22 31  1  0
 22 23  1  0
 24 18  1  0
 24 23  1  0
 25 18  2  0
 26 27  1  0
 26 17  1  0
 28 29  2  0
 29 48  1  0
 30 29  1  0
 30 33  1  0
 31 28  1  0
 31 32  1  0
 32 30  2  0
 33 34  1  0
 34 35  2  0
 36 39  1  0
 36 35  1  0
 37 36  2  0
 38 37  1  0
 38 33  2  0
 39 40  1  0
 40 41  1  0
 41 42  2  0
 43 42  1  0
 43 47  1  0
 44 43  2  0
 45 40  2  0
 45 44  1  0
 46 45  1  0
 48 49  1  0
 49 52  1  0
 49 51  1  0
 50 48  2  0
 53 54  1  0
 53 28  1  0
 55 53  1  0
 56 10  1  0
 56 57  1  0
 58 69  2  0
 59 57  1  0
 59 64  1  0
 60 68  1  0
 60 70  1  0
 61 67  1  0
 61 63  1  0
 62 68  1  0
 63 62  1  0
 64 63  2  0
 65 66  1  0
 65 59  2  0
 66 61  2  0
 67 60  1  0
 68 58  1  0
 70 72  2  0
 71 70  1  0
 73 71  1  0
 74 83  2  0
 74 79  1  0
 75 71  1  0
 75 79  1  0
 76 75  1  0
 77 78  1  0
 77 76  1  0
 78 74  1  0
 79 80  2  0
 80 81  1  0
 82 81  2  0
 83 82  1  0
 84 58  1  0
 84 85  1  0
 84 94  1  0
 85 88  1  0
 86 90  1  0
 86 85  1  0
 87 86  2  0
 90 89  1  0
 92 90  1  0
 92 93  1  0
 92 91  1  0
 94 97  1  1
 94 95  1  0
 96 94  1  0
M  ISO  4  18 100  26 100  56 101  57 101
M  END
>  <TORSDO>  (15) 
F 22

>  <SCORE>  (15) 
-11.324

>  <name>  (15) 
15

>  <ligand_id>  (15) 
15

>  <original_smiles>  (15) 
[H]c1c([H])c([H])c2c(c1[H])C([H])([H])C([H])([H])C([H])([H])C2([H])N([H])C(=O)C1([H])N(C(=O)C([H])(N([H])C(=O)C([H])(N([H])C([H])([H])[H])C([H])([H])[H])C(C([H])([H])[H])(C([H])([H])[H])C([H])([H])[H])C([H])([H])c2c([H])c(OC([H])([H])c3c(C([H])([H])[H])c([H])c(C([H])([H])C([H])([H])C([H])([H])C([H])([H])C([H])([H])N([H])C(=O)N4C([H])([H])C([H])([H])C([H])([H])C([H])(n5nc(-c6c([H])c([H])c(Oc7c([H])c([H])c(F)c([H])c7F)c([H])c6[H])c(C(=O)N([H])[H])c5N([H])[H])C4([H])[H])c4c([H])c(C([H])([H])[H])c([H])c([H])c34)c([H])c([H])c2C1([H])[H]

>  <smiles>  (15) 
[H]c1c([H])c([H])c2c(c1[H])C([H])([H])C([H])([H])C([H])([H])C2([H])N([H])C(=O)C1([H])N(C(=O)C([H])(N([H])C(=O)C([H])(N([H])C([H])([H])[H])C([H])([H])[H])C(C([H])([H])[H])(C([H])([H])[H])C([H])([H])[H])C([H])([H])c2c([H])c(OC([H])([H])c3c(C([H])([H])[H])c([H])c(C([H])([H])C([H])([H])C([H])([H])C([H])([H])C([H])([H])N([H])C(=O)N4C([H])([H])C([H])([H])C([H])([H])C([H])(n5nc(-c6c([H])c([H])c(Oc7c([H])c([H])c(F)c([H])c7F)c([H])c6[H])c(C(=O)N([H])[H])c5N([H])[H])C4([H])[H])c4c([H])c(C([H])([H])[H])c([H])c([H])c34)c([H])c([H])c2C1([H])[H]

$$$$
16:0:0
     RDKit          3D

 95104  0  0  1  0  0  0  0  0999 V2000
  -28.6410  -23.7000   19.6090 C   0  0  0  0  0  3  0  0  0  0  0  0
  -28.9980  -24.6600   20.5900 C   0  0  0  0  0  0  0  0  0  0  0  0
  -30.1420  -24.3790   21.2350 C   0  0  0  0  0  0  0  0  0  0  0  0
  -29.5740  -22.6940   19.5290 C   0  0  0  0  0  0  0  0  0  0  0  0
  -30.5320  -25.3710   22.2560 C   0  0  0  0  0  3  0  0  0  0  0  0
  -29.4600  -26.4790   22.0560 C   0  0  0  0  0  3  0  0  0  0  0  0
  -28.3950  -25.9250   21.0620 C   0  0  0  0  0  3  0  0  0  0  0  0
  -30.8990  -22.9280   20.6660 S   0  0  0  0  0  0  0  0  0  0  0  0
  -28.2140  -26.8100   19.9670 O   0  0  0  0  0  0  0  0  0  0  0  0
  -24.4990  -31.9190   23.1860 C   0  0  0  0  0  0  0  0  0  0  0  0
  -27.0520  -27.5220   20.0280 C   0  0  0  0  0  0  0  0  0  0  0  0
  -23.2440  -30.5310   21.5630 C   0  0  0  0  0  3  0  0  0  0  0  0
  -24.6590  -28.9910   20.1030 C   0  0  0  0  0  0  0  0  0  0  0  0
  -25.7620  -30.8910   21.3050 C   0  0  0  0  0  2  0  0  0  0  0  0
  -25.8270  -29.5230   20.6660 C   0  0  0  0  0  0  0  0  0  0  0  0
  -27.0300  -28.7930   20.6290 C   0  0  0  0  0  3  0  0  0  0  0  0
  -25.8760  -26.9860   19.4660 C   0  0  0  0  0  3  0  0  0  0  0  0
  -24.6740  -27.7180   19.5050 C   0  0  0  0  0  3  0  0  0  0  0  0
  -23.4180  -29.8510   20.1770 C   0  0  0  0  0  2  0  0  0  0  0  0
  -24.5210  -31.1270   22.0770 N   0  0  0  0  0  0  0  0  0  0  0  0
  -23.4320  -32.1940   23.7530 O   0  0  0  0  0  0  0  0  0  0  0  0
  -22.6120  -29.5100   22.5340 C   0  0  0  0  0  0  0  0  0  0  0  0
  -21.2870  -29.3280   22.4260 N   0  0  0  0  0  0  0  0  0  0  0  0
  -23.3090  -28.8830   23.3370 O   0  0  0  0  0  0  0  0  0  0  0  0
  -20.7870  -29.8860   21.7480 H   0  0  0  0  0  0  0  0  0  0  0  0
  -17.9200  -28.1320   22.9590 C   0  0  0  0  0  0  0  0  0  0  0  0
  -20.4800  -28.3910   23.2080 C   0  0  0  0  0  3  0  0  0  0  0  0
  -20.5790  -26.9590   22.6340 C   0  0  0  0  0  2  0  0  0  0  0  0
  -19.4670  -26.6320   21.6310 C   0  0  0  0  0  2  0  0  0  0  0  0
  -18.0920  -26.7800   22.2880 C   0  0  0  0  0  2  0  0  0  0  0  0
  -19.0420  -28.8960   23.3770 C   0  0  0  0  0  0  0  0  0  0  0  0
  -18.8300  -30.1620   23.9640 C   0  0  0  0  0  3  0  0  0  0  0  0
  -17.5270  -30.6640   24.1390 C   0  0  0  0  0  3  0  0  0  0  0  0
  -16.4190  -29.8980   23.7390 C   0  0  0  0  0  3  0  0  0  0  0  0
  -16.6170  -28.6330   23.1540 C   0  0  0  0  0  3  0  0  0  0  0  0
  -25.8040  -32.5360   23.7780 C   0  0  0  0  0  3  0  0  0  0  0  0
  -25.5090  -33.9260   24.1440 N   0  0  0  0  0  0  0  0  0  0  0  0
  -25.8410  -34.9940   23.4050 C   0  0  0  0  0  0  0  0  0  0  0  0
  -26.5000  -34.9100   22.3660 O   0  0  0  0  0  0  0  0  0  0  0  0
  -24.9240  -34.0680   24.9550 H   0  0  0  0  0  0  0  0  0  0  0  0
  -24.1300  -36.8100   23.0920 C   0  0  0  0  0  1  0  0  0  0  0  0
  -25.3650  -36.3730   23.8980 C   0  0  0  0  0  3  0  0  0  0  0  0
  -27.5060  -37.2110   24.7570 C   0  0  0  0  0  1  0  0  0  0  0  0
  -26.4070  -37.4190   23.8170 N   0  0  0  0  0  0  0  0  0  0  0  0
  -26.0100  -38.3380   23.9910 H   0  0  0  0  0  0  0  0  0  0  0  0
  -26.3630  -31.7370   25.0180 C   0  0  1  0  0  0  0  0  0  0  0  0
  -25.3070  -31.4740   26.1160 C   0  0  0  0  0  1  0  0  0  0  0  0
  -26.9310  -30.3690   24.5710 C   0  0  0  0  0  1  0  0  0  0  0  0
  -27.5360  -32.5150   25.6580 C   0  0  0  0  0  1  0  0  0  0  0  0
  -29.5330  -21.5150   18.6220 C   0  0  0  0  0  2  0  0  0  0  0  0
  -29.0460  -20.3280   19.3430 N   0  0  0  0  0  4  0  0  0  0  0  0
  -28.2020  -20.0180   18.8920 H   0  0  0  0  0  0  0  0  0  0  0  0
  -28.8120  -20.6070   20.2820 H   0  0  0  0  0  0  0  0  0  0  0  0
  -30.0270  -19.2310   19.3760 C   0  0  0  0  0  2  0  0  0  0  0  0
  -29.5100  -17.9670   20.0920 C   0  0  0  0  0  2  0  0  0  0  0  0
  -30.8080  -16.3770   18.5700 C   0  0  0  0  0  1  0  0  0  0  0  0
  -30.5370  -16.8210   20.0310 C   0  0  0  0  0  3  0  0  0  0  0  0
  -30.8840  -14.6010   21.0270 C   0  0  0  0  0  0  0  0  0  0  0  0
  -30.6730  -12.4110   19.9890 C   0  0  0  0  0  2  0  0  0  0  0  0
  -29.8520  -12.6010   18.6960 C   0  0  0  0  0  2  0  0  0  0  0  0
  -28.3440  -12.4850   18.9870 C   0  0  0  0  0  2  0  0  0  0  0  0
  -27.8870  -13.3530   20.1900 C   0  0  0  0  0  3  0  0  0  0  0  0
  -28.8400  -13.1880   21.4010 C   0  0  0  0  0  2  0  0  0  0  0  0
  -30.2160  -13.4270   20.9440 N   0  0  0  0  0  0  0  0  0  0  0  0
  -32.1020  -14.7110   20.8740 O   0  0  0  0  0  0  0  0  0  0  0  0
  -30.0970  -15.6660   20.8240 N   0  0  0  0  0  0  0  0  0  0  0  0
  -29.1060  -15.5170   20.9300 H   0  0  0  0  0  0  0  0  0  0  0  0
  -25.4300  -13.9560   20.6630 C   0  0  0  0  0  0  0  0  0  0  0  0
  -24.3380  -13.1820   20.9470 C   0  0  0  0  0  0  0  0  0  0  0  0
  -24.8100  -11.8340   20.9900 C   0  0  0  0  0  0  0  0  0  0  0  0
  -26.4990  -13.0790   20.5510 N   0  0  0  0  0  0  0  0  0  0  0  0
  -26.1240  -11.8000   20.8070 N   0  0  0  0  0  0  0  0  0  0  0  0
  -24.0810  -10.5680   21.1350 C   0  0  0  0  0  0  0  0  0  0  0  0
  -24.4470   -9.6120   22.1090 C   0  0  0  0  0  3  0  0  0  0  0  0
  -23.7190   -8.4100   22.2420 C   0  0  0  0  0  3  0  0  0  0  0  0
  -22.6100   -8.1560   21.4010 C   0  0  0  0  0  0  0  0  0  0  0  0
  -22.2620   -9.1010   20.4190 C   0  0  0  0  0  3  0  0  0  0  0  0
  -22.9910  -10.2940   20.2840 C   0  0  0  0  0  3  0  0  0  0  0  0
  -21.8600   -7.0060   21.4420 O   0  0  0  0  0  0  0  0  0  0  0  0
  -21.7400   -6.2650   22.5900 C   0  0  0  0  0  0  0  0  0  0  0  0
  -21.2360   -6.8210   23.7860 C   0  0  0  0  0  3  0  0  0  0  0  0
  -21.0650   -6.0060   24.9240 C   0  0  0  0  0  3  0  0  0  0  0  0
  -21.3870   -4.6370   24.8650 C   0  0  0  0  0  0  0  0  0  0  0  0
  -21.8830   -4.0810   23.6720 C   0  0  0  0  0  3  0  0  0  0  0  0
  -22.0560   -4.8930   22.5370 C   0  0  0  0  0  0  0  0  0  0  0  0
  -22.5150   -4.3470   21.3850 F   0  0  0  0  0  0  0  0  0  0  0  0
  -21.2130   -3.8520   25.9530 F   0  0  0  0  0  0  0  0  0  0  0  0
  -22.9170  -13.6500   21.0750 C   0  0  0  0  0  0  0  0  0  0  0  0
  -22.1190  -12.9670   21.8890 N   0  0  0  0  0  0  0  0  0  0  0  0
  -22.5200  -14.6560   20.4900 O   0  0  0  0  0  0  0  0  0  0  0  0
  -22.4520  -12.1520   22.3830 H   0  0  0  0  0  0  0  0  0  0  0  0
  -21.1630  -13.2640   22.0210 H   0  0  0  0  0  0  0  0  0  0  0  0
  -25.5990  -15.3250   20.4690 N   0  0  0  0  0  0  0  0  0  0  0  0
  -24.8180  -15.9690   20.4870 H   0  0  0  0  0  0  0  0  0  0  0  0
  -26.4660  -15.7640   20.1900 H   0  0  0  0  0  0  0  0  0  0  0  0
  1  2  1  0
  2  7  1  0
  2  3  2  0
  3  5  1  0
  4  1  2  0
  4  8  1  0
  6  5  2  0
  7  9  1  0
  7  6  1  0
  8  3  1  0
  9 11  1  0
 10 21  2  0
 11 16  1  0
 12 20  1  0
 12 22  1  0
 13 19  1  0
 13 15  1  0
 14 20  1  0
 15 14  1  0
 16 15  2  0
 17 18  1  0
 17 11  2  0
 18 13  2  0
 19 12  1  0
 20 10  1  0
 22 24  2  0
 23 22  1  0
 25 23  1  0
 26 35  2  0
 26 31  1  0
 27 23  1  0
 27 31  1  0
 28 27  1  0
 29 30  1  0
 29 28  1  0
 30 26  1  0
 31 32  2  0
 32 33  1  0
 34 33  2  0
 35 34  1  0
 36 10  1  0
 36 37  1  0
 36 46  1  0
 37 40  1  0
 38 42  1  0
 38 37  1  0
 39 38  2  0
 42 41  1  0
 44 42  1  0
 44 45  1  0
 44 43  1  0
 46 49  1  1
 46 47  1  0
 48 46  1  0
 50 51  1  0
 50  4  1  0
 51 54  1  0
 51 53  1  0
 52 51  1  0
 54 55  1  0
 57 56  1  0
 57 55  1  0
 57 66  1  0
 59 64  1  0
 60 61  1  0
 60 59  1  0
 62 61  1  0
 62 71  1  0
 62 63  1  0
 64 58  1  0
 64 63  1  0
 65 58  2  0
 66 67  1  0
 66 58  1  0
 68 69  2  0
 69 70  1  0
 69 88  1  0
 70 73  1  0
 71 68  1  0
 71 72  1  0
 72 70  2  0
 73 74  1  0
 74 75  2  0
 76 79  1  0
 76 75  1  0
 77 76  2  0
 78 77  1  0
 78 73  2  0
 79 80  1  0
 80 81  1  0
 81 82  2  0
 83 82  1  0
 83 87  1  0
 84 83  2  0
 85 80  2  0
 85 84  1  0
 86 85  1  0
 88 89  1  0
 89 92  1  0
 89 91  1  0
 90 88  2  0
 93 94  1  0
 93 68  1  0
 95 93  1  0
M  ISO  4   7 101   9 101  58 100  66 100
M  END
>  <TORSDO>  (16) 
F 21

>  <SCORE>  (16) 
-13.052

>  <name>  (16) 
16

>  <ligand_id>  (16) 
16

>  <original_smiles>  (16) 
[H]c1c([H])c([H])c2c(c1[H])C([H])([H])C([H])([H])C([H])([H])C2([H])N([H])C(=O)C1([H])N(C(=O)C([H])(N([H])C(=O)C([H])(N([H])C([H])([H])[H])C([H])([H])[H])C(C([H])([H])[H])(C([H])([H])[H])C([H])([H])[H])C([H])([H])c2c([H])c(OC3([H])c4c(sc(C([H])([H])[N+]([H])([H])C([H])([H])C([H])([H])C([H])(N([H])C(=O)N5C([H])([H])C([H])([H])C([H])([H])C([H])(n6nc(-c7c([H])c([H])c(Oc8c([H])c([H])c(F)c([H])c8F)c([H])c7[H])c(C(=O)N([H])[H])c6N([H])[H])C5([H])[H])C([H])([H])[H])c4[H])C([H])([H])C3([H])[H])c([H])c([H])c2C1([H])[H]

>  <smiles>  (16) 
[H]c1c([H])c([H])c2c(c1[H])C([H])([H])C([H])([H])C([H])([H])C2([H])N([H])C(=O)C1([H])N(C(=O)C([H])(N([H])C(=O)C([H])(N([H])C([H])([H])[H])C([H])([H])[H])C(C([H])([H])[H])(C([H])([H])[H])C([H])([H])[H])C([H])([H])c2c([H])c(OC3([H])c4c(sc(C([H])([H])[N+]([H])([H])C([H])([H])C([H])([H])C([H])(N([H])C(=O)N5C([H])([H])C([H])([H])C([H])([H])C([H])(n6nc(-c7c([H])c([H])c(Oc8c([H])c([H])c(F)c([H])c8F)c([H])c7[H])c(C(=O)N([H])[H])c6N([H])[H])C5([H])[H])C([H])([H])[H])c4[H])C([H])([H])C3([H])[H])c([H])c([H])c2C1([H])[H]

$$$$
17:0:0
     RDKit          3D

 94102  0  0  1  0  0  0  0  0999 V2000
  -26.6630  -20.2810   19.0410 C   0  0  0  0  0  2  0  0  0  0  0  0
  -27.2460  -19.4660   20.2140 C   0  0  0  0  0  2  0  0  0  0  0  0
  -27.3240  -21.6640   19.0840 C   0  0  0  0  0  2  0  0  0  0  0  0
  -28.5250  -20.1910   20.6990 C   0  0  0  0  0  3  0  0  0  0  0  0
  -28.1010  -21.6990   20.3980 C   0  0  0  0  0  3  0  0  0  0  0  0
  -29.0620  -22.8540   20.4760 N   0  0  0  0  0  4  0  0  0  0  0  0
  -29.6200  -22.8960   19.6380 H   0  0  0  0  0  0  0  0  0  0  0  0
  -29.6970  -22.6720   21.2370 H   0  0  0  0  0  0  0  0  0  0  0  0
  -28.4580  -24.2160   20.7720 C   0  0  0  0  0  2  0  0  0  0  0  0
  -28.5670  -25.3080   19.6490 C   0  0  0  0  0  2  0  0  0  0  0  0
  -28.4410  -26.6850   20.1210 O   0  0  0  0  0  0  0  0  0  0  0  0
  -24.5730  -31.8430   23.2410 C   0  0  0  0  0  0  0  0  0  0  0  0
  -27.2460  -27.4040   20.1020 C   0  0  0  0  0  0  0  0  0  0  0  0
  -23.3810  -30.4720   21.5640 C   0  0  0  0  0  3  0  0  0  0  0  0
  -24.8470  -28.9470   20.1290 C   0  0  0  0  0  0  0  0  0  0  0  0
  -25.9140  -30.8210   21.3920 C   0  0  0  0  0  2  0  0  0  0  0  0
  -26.0070  -29.4560   20.7260 C   0  0  0  0  0  0  0  0  0  0  0  0
  -27.2050  -28.6950   20.7000 C   0  0  0  0  0  3  0  0  0  0  0  0
  -26.0570  -26.9190   19.5100 C   0  0  0  0  0  3  0  0  0  0  0  0
  -24.8690  -27.6820   19.5230 C   0  0  0  0  0  3  0  0  0  0  0  0
  -23.6050  -29.8110   20.1780 C   0  0  0  0  0  2  0  0  0  0  0  0
  -24.6400  -31.0610   22.1250 N   0  0  0  0  0  0  0  0  0  0  0  0
  -23.4870  -32.1060   23.7790 O   0  0  0  0  0  0  0  0  0  0  0  0
  -22.7150  -29.4390   22.5050 C   0  0  0  0  0  0  0  0  0  0  0  0
  -21.3860  -29.2760   22.3800 N   0  0  0  0  0  0  0  0  0  0  0  0
  -23.3920  -28.7840   23.2980 O   0  0  0  0  0  0  0  0  0  0  0  0
  -20.8930  -29.8610   21.7200 H   0  0  0  0  0  0  0  0  0  0  0  0
  -18.0010  -28.1110   22.8790 C   0  0  0  0  0  0  0  0  0  0  0  0
  -20.5660  -28.3240   23.1310 C   0  0  0  0  0  3  0  0  0  0  0  0
  -20.6400  -26.9080   22.5130 C   0  0  0  0  0  2  0  0  0  0  0  0
  -19.5240  -26.6340   21.5000 C   0  0  0  0  0  2  0  0  0  0  0  0
  -18.1510  -26.7800   22.1620 C   0  0  0  0  0  2  0  0  0  0  0  0
  -19.1350  -28.8430   23.3210 C   0  0  0  0  0  0  0  0  0  0  0  0
  -18.9410  -30.0930   23.9490 C   0  0  0  0  0  3  0  0  0  0  0  0
  -17.6470  -30.6100   24.1390 C   0  0  0  0  0  3  0  0  0  0  0  0
  -16.5270  -29.8720   23.7170 C   0  0  0  0  0  3  0  0  0  0  0  0
  -16.7050  -28.6260   23.0910 C   0  0  0  0  0  3  0  0  0  0  0  0
  -25.8540  -32.4640   23.8800 C   0  0  0  0  0  3  0  0  0  0  0  0
  -25.5450  -33.8560   24.2380 N   0  0  0  0  0  0  0  0  0  0  0  0
  -25.8710  -34.9220   23.4960 C   0  0  0  0  0  0  0  0  0  0  0  0
  -26.5390  -34.8390   22.4600 O   0  0  0  0  0  0  0  0  0  0  0  0
  -24.9550  -33.9910   25.0460 H   0  0  0  0  0  0  0  0  0  0  0  0
  -24.1400  -36.7190   23.1750 C   0  0  0  0  0  1  0  0  0  0  0  0
  -25.3820  -36.3010   23.9800 C   0  0  0  0  0  3  0  0  0  0  0  0
  -27.5140  -37.1780   24.8270 C   0  0  0  0  0  1  0  0  0  0  0  0
  -26.4110  -37.3590   23.8870 N   0  0  0  0  0  0  0  0  0  0  0  0
  -26.0010  -38.2740   24.0550 H   0  0  0  0  0  0  0  0  0  0  0  0
  -26.3690  -31.6660   25.1410 C   0  0  1  0  0  0  0  0  0  0  0  0
  -25.2770  -31.4080   26.2050 C   0  0  0  0  0  1  0  0  0  0  0  0
  -26.9530  -30.2960   24.7250 C   0  0  0  0  0  1  0  0  0  0  0  0
  -27.5160  -32.4480   25.8250 C   0  0  0  0  0  1  0  0  0  0  0  0
  -29.8640  -19.1930   18.6340 C   0  0  0  0  0  1  0  0  0  0  0  0
  -29.8390  -19.4920   20.1480 C   0  0  0  0  0  3  0  0  0  0  0  0
  -30.3470  -18.3250   20.9750 N   0  0  0  0  0  4  0  0  0  0  0  0
  -31.3110  -18.1700   20.7230 H   0  0  0  0  0  0  0  0  0  0  0  0
  -30.3770  -18.6580   21.9270 H   0  0  0  0  0  0  0  0  0  0  0  0
  -29.6940  -16.9660   21.0470 C   0  0  0  0  0  2  0  0  0  0  0  0
  -30.0250  -15.9540   19.9000 C   0  0  0  0  0  2  0  0  0  0  0  0
  -30.8110  -14.6300   20.1960 C   0  0  0  0  0  0  0  0  0  0  0  0
  -30.5550  -12.3740   19.2600 C   0  0  0  0  0  2  0  0  0  0  0  0
  -29.6200  -12.4950   18.0370 C   0  0  0  0  0  2  0  0  0  0  0  0
  -28.1490  -12.3460   18.4730 C   0  0  0  0  0  2  0  0  0  0  0  0
  -27.7870  -13.2580   19.6720 C   0  0  0  0  0  3  0  0  0  0  0  0
  -28.8460  -13.1700   20.7940 C   0  0  0  0  0  2  0  0  0  0  0  0
  -30.1680  -13.4290   20.2130 N   0  0  0  0  0  0  0  0  0  0  0  0
  -32.0300  -14.6950   20.0180 O   0  0  0  0  0  0  0  0  0  0  0  0
  -25.4110  -13.9100   20.3900 C   0  0  0  0  0  0  0  0  0  0  0  0
  -24.3340  -13.1550   20.7700 C   0  0  0  0  0  0  0  0  0  0  0  0
  -24.7820  -11.7990   20.7570 C   0  0  0  0  0  0  0  0  0  0  0  0
  -26.4420  -13.0100   20.1740 N   0  0  0  0  0  0  0  0  0  0  0  0
  -26.0740  -11.7400   20.4600 N   0  0  0  0  0  0  0  0  0  0  0  0
  -24.0450  -10.5470   20.9570 C   0  0  0  0  0  0  0  0  0  0  0  0
  -24.4600   -9.5940   21.9120 C   0  0  0  0  0  3  0  0  0  0  0  0
  -23.7250   -8.4050   22.1000 C   0  0  0  0  0  3  0  0  0  0  0  0
  -22.5590   -8.1620   21.3320 C   0  0  0  0  0  0  0  0  0  0  0  0
  -22.1640   -9.1050   20.3660 C   0  0  0  0  0  3  0  0  0  0  0  0
  -22.9010  -10.2860   20.1780 C   0  0  0  0  0  3  0  0  0  0  0  0
  -21.7990   -7.0190   21.4260 O   0  0  0  0  0  0  0  0  0  0  0  0
  -21.7210   -6.3020   22.5910 C   0  0  0  0  0  0  0  0  0  0  0  0
  -21.2720   -6.8870   23.7960 C   0  0  0  0  0  3  0  0  0  0  0  0
  -21.1390   -6.0990   24.9550 C   0  0  0  0  0  3  0  0  0  0  0  0
  -21.4480   -4.7250   24.9100 C   0  0  0  0  0  0  0  0  0  0  0  0
  -21.8910   -4.1400   23.7110 C   0  0  0  0  0  3  0  0  0  0  0  0
  -22.0260   -4.9260   22.5550 C   0  0  0  0  0  0  0  0  0  0  0  0
  -22.4310   -4.3550   21.3940 F   0  0  0  0  0  0  0  0  0  0  0  0
  -21.3140   -3.9650   26.0220 F   0  0  0  0  0  0  0  0  0  0  0  0
  -22.9390  -13.6510   21.0260 C   0  0  0  0  0  0  0  0  0  0  0  0
  -22.1990  -12.9730   21.8970 N   0  0  0  0  0  0  0  0  0  0  0  0
  -22.5130  -14.6730   20.4920 O   0  0  0  0  0  0  0  0  0  0  0  0
  -22.5560  -12.1480   22.3570 H   0  0  0  0  0  0  0  0  0  0  0  0
  -21.2670  -13.2940   22.1170 H   0  0  0  0  0  0  0  0  0  0  0  0
  -25.5900  -15.2730   20.1790 N   0  0  0  0  0  0  0  0  0  0  0  0
  -24.8250  -15.9330   20.2610 H   0  0  0  0  0  0  0  0  0  0  0  0
  -26.4250  -15.6780   19.7780 H   0  0  0  0  0  0  0  0  0  0  0  0
  1  3  1  0
  1  2  1  0
  2  4  1  0
  3  5  1  0
  4 53  1  0
  5  6  1  0
  5  4  1  0
  6  9  1  0
  6  8  1  0
  7  6  1  0
 10 11  1  0
 10  9  1  0
 12 23  2  0
 13 11  1  0
 13 18  1  0
 14 22  1  0
 14 24  1  0
 15 21  1  0
 15 17  1  0
 16 22  1  0
 17 16  1  0
 18 17  2  0
 19 20  1  0
 19 13  2  0
 20 15  2  0
 21 14  1  0
 22 12  1  0
 24 26  2  0
 25 24  1  0
 27 25  1  0
 28 37  2  0
 28 33  1  0
 29 25  1  0
 29 33  1  0
 30 29  1  0
 31 32  1  0
 31 30  1  0
 32 28  1  0
 33 34  2  0
 34 35  1  0
 36 35  2  0
 37 36  1  0
 38 12  1  0
 38 39  1  0
 38 48  1  0
 39 42  1  0
 40 44  1  0
 40 39  1  0
 41 40  2  0
 44 43  1  0
 46 44  1  0
 46 47  1  0
 46 45  1  0
 48 51  1  1
 48 49  1  0
 50 48  1  0
 53 52  1  0
 53 54  1  0
 54 57  1  0
 54 56  1  0
 55 54  1  0
 58 59  1  0
 58 57  1  0
 59 65  1  0
 60 65  1  0
 61 62  1  0
 61 60  1  0
 63 62  1  0
 63 70  1  0
 63 64  1  0
 65 64  1  0
 66 59  2  0
 67 68  2  0
 68 87  1  0
 69 68  1  0
 69 72  1  0
 70 67  1  0
 70 71  1  0
 71 69  2  0
 72 73  1  0
 73 74  2  0
 75 78  1  0
 75 74  1  0
 76 75  2  0
 77 76  1  0
 77 72  2  0
 78 79  1  0
 79 80  1  0
 80 81  2  0
 82 81  1  0
 82 86  1  0
 83 82  2  0
 84 79  2  0
 84 83  1  0
 85 84  1  0
 87 88  1  0
 88 91  1  0
 88 90  1  0
 89 87  2  0
 92 93  1  0
 92 67  1  0
 94 92  1  0
M  ISO  4  10 101  11 101  58 100  59 100
M  END
>  <TORSDO>  (17) 
F 23

>  <SCORE>  (17) 
-12.394

>  <name>  (17) 
17

>  <ligand_id>  (17) 
17

>  <original_smiles>  (17) 
[H]c1c([H])c([H])c2c(c1[H])C([H])([H])C([H])([H])C([H])([H])C2([H])N([H])C(=O)C1([H])N(C(=O)C([H])(N([H])C(=O)C([H])(N([H])C([H])([H])[H])C([H])([H])[H])C(C([H])([H])[H])(C([H])([H])[H])C([H])([H])[H])C([H])([H])c2c([H])c(OC([H])([H])C([H])([H])[N+]([H])([H])C3([H])C([H])([H])C([H])([H])C([H])([H])C3([H])C([H])(C([H])([H])[H])[N+]([H])([H])C([H])([H])C([H])([H])C(=O)N3C([H])([H])C([H])([H])C([H])([H])C([H])(n4nc(-c5c([H])c([H])c(Oc6c([H])c([H])c(F)c([H])c6F)c([H])c5[H])c(C(=O)N([H])[H])c4N([H])[H])C3([H])[H])c([H])c([H])c2C1([H])[H]

>  <smiles>  (17) 
[H]c1c([H])c([H])c2c(c1[H])C([H])([H])C([H])([H])C([H])([H])C2([H])N([H])C(=O)C1([H])N(C(=O)C([H])(N([H])C(=O)C([H])(N([H])C([H])([H])[H])C([H])([H])[H])C(C([H])([H])[H])(C([H])([H])[H])C([H])([H])[H])C([H])([H])c2c([H])c(OC([H])([H])C([H])([H])[N+]([H])([H])C3([H])C([H])([H])C([H])([H])C([H])([H])C3([H])C([H])(C([H])([H])[H])[N+]([H])([H])C([H])([H])C([H])([H])C(=O)N3C([H])([H])C([H])([H])C([H])([H])C([H])(n4nc(-c5c([H])c([H])c(Oc6c([H])c([H])c(F)c([H])c6F)c([H])c5[H])c(C(=O)N([H])[H])c4N([H])[H])C3([H])[H])c([H])c([H])c2C1([H])[H]

$$$$
18:0:0
     RDKit          3D

 95101  0  0  1  0  0  0  0  0999 V2000
  -20.6720  -25.6280   22.2210 C   0  0  0  0  0  1  0  0  0  0  0  0
  -20.6000  -27.1310   20.7400 C   0  0  0  0  0  2  0  0  0  0  0  0
  -21.9510  -24.5120   21.8730 C   0  0  0  0  0  3  0  0  0  0  0  0
  -21.8120  -26.9430   19.5890 C   0  0  0  0  0  3  0  0  0  0  0  0
  -23.0770  -24.5950   20.6350 C   0  0  0  0  0  0  0  0  0  0  0  0
  -23.0730  -25.8840   19.6730 C   0  0  0  0  0  3  0  0  0  0  0  0
  -21.4890  -27.5800   18.2460 C   0  0  0  0  0  1  0  0  0  0  0  0
  -24.9170  -23.2030   21.9570 C   0  0  0  0  0  1  0  0  0  0  0  0
  -24.5400  -23.4890   20.4990 C   0  0  0  0  0  3  0  0  0  0  0  0
  -25.1050  -22.1600   19.5370 N   0  0  0  0  0  4  0  0  0  0  0  0
  -24.3840  -21.4620   19.6240 H   0  0  0  0  0  0  0  0  0  0  0  0
  -25.0070  -22.5070   18.5980 H   0  0  0  0  0  0  0  0  0  0  0  0
  -26.6100  -21.2920   19.4590 C   0  0  0  0  0  3  0  0  0  0  0  0
  -27.1770  -19.4860   19.2530 C   0  0  0  0  0  3  0  0  0  0  0  0
  -28.8170  -18.5200   19.2560 C   0  0  0  0  0  2  0  0  0  0  0  0
  -30.5490  -15.9220   19.6270 C   0  0  0  0  0  0  0  0  0  0  0  0
  -31.1550  -13.3450   19.4190 C   0  0  0  0  0  2  0  0  0  0  0  0
  -30.3560  -12.6830   18.2580 C   0  0  0  0  0  2  0  0  0  0  0  0
  -28.9020  -12.4220   18.6860 C   0  0  0  0  0  2  0  0  0  0  0  0
  -28.3280  -13.6410   19.4510 C   0  0  0  0  0  3  0  0  0  0  0  0
  -29.2290  -14.0350   20.6180 C   0  0  0  0  0  2  0  0  0  0  0  0
  -30.3940  -14.5500   19.9510 N   0  0  0  0  0  0  0  0  0  0  0  0
  -31.7410  -16.1250   19.2820 O   0  0  0  0  0  0  0  0  0  0  0  0
  -29.3600  -16.9010   19.5990 N   0  0  0  0  0  0  0  0  0  0  0  0
  -28.5730  -16.4070   19.9910 H   0  0  0  0  0  0  0  0  0  0  0  0
  -26.0510  -14.4420   20.2010 C   0  0  0  0  0  0  0  0  0  0  0  0
  -24.9370  -13.7610   20.5980 C   0  0  0  0  0  0  0  0  0  0  0  0
  -25.2880  -12.3760   20.5680 C   0  0  0  0  0  0  0  0  0  0  0  0
  -26.9880  -13.4660   19.9270 N   0  0  0  0  0  0  0  0  0  0  0  0
  -26.5550  -12.2220   20.2250 N   0  0  0  0  0  0  0  0  0  0  0  0
  -24.4740  -11.1780   20.7650 C   0  0  0  0  0  0  0  0  0  0  0  0
  -24.8410  -10.1770   21.6890 C   0  0  0  0  0  3  0  0  0  0  0  0
  -24.0240   -9.0410   21.8690 C   0  0  0  0  0  3  0  0  0  0  0  0
  -22.8300   -8.9010   21.1200 C   0  0  0  0  0  0  0  0  0  0  0  0
  -22.4870   -9.8890   20.1810 C   0  0  0  0  0  3  0  0  0  0  0  0
  -23.3040  -11.0160   19.9980 C   0  0  0  0  0  3  0  0  0  0  0  0
  -21.9870   -7.8220   21.2120 O   0  0  0  0  0  0  0  0  0  0  0  0
  -21.7640   -7.1880   22.4070 C   0  0  0  0  0  0  0  0  0  0  0  0
  -21.2970   -7.8810   23.5440 C   0  0  0  0  0  3  0  0  0  0  0  0
  -21.0080   -7.1750   24.7290 C   0  0  0  0  0  3  0  0  0  0  0  0
  -21.1830   -5.7790   24.7780 C   0  0  0  0  0  0  0  0  0  0  0  0
  -21.6450   -5.0870   23.6440 C   0  0  0  0  0  3  0  0  0  0  0  0
  -21.9290   -5.7890   22.4600 C   0  0  0  0  0  0  0  0  0  0  0  0
  -22.3540   -5.1160   21.3640 F   0  0  0  0  0  0  0  0  0  0  0  0
  -20.8990   -5.0980   25.9120 F   0  0  0  0  0  0  0  0  0  0  0  0
  -23.5930  -14.3600   20.8760 C   0  0  0  0  0  0  0  0  0  0  0  0
  -22.8480  -13.7770   21.8070 N   0  0  0  0  0  0  0  0  0  0  0  0
  -23.2130  -15.3750   20.2940 O   0  0  0  0  0  0  0  0  0  0  0  0
  -23.1690  -12.9580   22.2990 H   0  0  0  0  0  0  0  0  0  0  0  0
  -21.9450  -14.1620   22.0410 H   0  0  0  0  0  0  0  0  0  0  0  0
  -26.3270  -15.7960   20.0130 N   0  0  0  0  0  0  0  0  0  0  0  0
  -25.5820  -16.4770   20.1140 H   0  0  0  0  0  0  0  0  0  0  0  0
  -27.0880  -16.1490   19.4490 H   0  0  0  0  0  0  0  0  0  0  0  0
  -24.5790  -26.2280   18.8700 C   0  0  0  0  0  2  0  0  0  0  0  0
  -26.1400  -26.6210   19.3420 O   0  0  0  0  0  0  0  0  0  0  0  0
  -24.5710  -31.8410   23.0150 C   0  0  0  0  0  0  0  0  0  0  0  0
  -26.7590  -27.8450   19.0710 C   0  0  0  0  0  3  0  0  0  0  0  0
  -23.4600  -30.9540   21.0510 C   0  0  0  0  0  3  0  0  0  0  0  0
  -24.8930  -29.7930   19.2780 C   0  0  0  0  0  0  0  0  0  0  0  0
  -26.0040  -31.0550   21.1110 C   0  0  0  0  0  2  0  0  0  0  0  0
  -25.9830  -29.8770   20.1450 C   0  0  0  0  0  0  0  0  0  0  0  0
  -26.9560  -28.8460   20.0750 C   0  0  0  0  0  3  0  0  0  0  0  0
  -26.1650  -28.2550   17.9080 C   0  0  0  0  0  2  0  0  0  0  0  0
  -25.0210  -29.0370   18.1070 C   0  0  0  0  0  3  0  0  0  0  0  0
  -23.6980  -30.6620   19.5550 C   0  0  0  0  0  2  0  0  0  0  0  0
  -24.7000  -31.3430   21.7540 N   0  0  0  0  0  0  0  0  0  0  0  0
  -23.4540  -32.0270   23.5330 O   0  0  0  0  0  0  0  0  0  0  0  0
  -22.8670  -29.7720   21.8090 C   0  0  0  0  0  0  0  0  0  0  0  0
  -21.6080  -29.8290   22.1830 N   0  0  0  0  0  0  0  0  0  0  0  0
  -23.5800  -28.8140   22.1310 O   0  0  0  0  0  0  0  0  0  0  0  0
  -21.0290  -30.6260   21.9720 H   0  0  0  0  0  0  0  0  0  0  0  0
  -17.9750  -28.9240   22.3830 C   0  0  0  0  0  0  0  0  0  0  0  0
  -21.0020  -28.6050   22.6500 C   0  0  0  0  0  3  0  0  0  0  0  0
  -21.5360  -27.3070   21.2930 C   0  0  0  0  0  2  0  0  0  0  0  0
  -18.7510  -26.7950   19.7280 C   0  0  0  0  0 15  0  0  0  0  0  0
  -17.4950  -27.9040   20.9200 C   0  0  0  0  0  1  0  0  0  0  0  0
  -19.3760  -29.1880   23.0350 C   0  0  0  0  0  0  0  0  0  0  0  0
  -19.4490  -30.1720   24.0890 C   0  0  0  0  0  3  0  0  0  0  0  0
  -18.3540  -30.8690   24.6330 C   0  0  0  0  0  3  0  0  0  0  0  0
  -17.0790  -30.5780   24.1430 C   0  0  0  0  0  3  0  0  0  0  0  0
  -16.9150  -29.6480   23.0700 C   0  0  0  0  0  3  0  0  0  0  0  0
  -25.8140  -32.2110   23.8490 C   0  0  0  0  0  3  0  0  0  0  0  0
  -25.6070  -33.6000   24.2660 N   0  0  0  0  0  0  0  0  0  0  0  0
  -26.0840  -34.6570   23.6030 C   0  0  0  0  0  0  0  0  0  0  0  0
  -26.8360  -34.5510   22.6320 O   0  0  0  0  0  0  0  0  0  0  0  0
  -24.9470  -33.7550   25.0150 H   0  0  0  0  0  0  0  0  0  0  0  0
  -24.5850  -36.6360   23.2010 C   0  0  0  0  0  1  0  0  0  0  0  0
  -25.6760  -36.0520   24.1110 C   0  0  0  0  0  3  0  0  0  0  0  0
  -27.7800  -36.6230   25.2390 C   0  0  0  0  0  1  0  0  0  0  0  0
  -26.8150  -36.9900   24.2050 N   0  0  0  0  0  0  0  0  0  0  0  0
  -26.4880  -37.9340   24.3970 H   0  0  0  0  0  0  0  0  0  0  0  0
  -26.0350  -31.2740   25.0960 C   0  0  1  0  0  0  0  0  0  0  0  0
  -24.7740  -31.0620   25.9640 C   0  0  0  0  0  1  0  0  0  0  0  0
  -26.5390  -29.8780   24.6640 C   0  0  0  0  0  1  0  0  0  0  0  0
  -27.1400  -31.8810   25.9880 C   0  0  0  0  0  1  0  0  0  0  0  0
  2 74  1  0
  3  1  1  0
  4  7  1  0
  4  6  1  0
  4  2  1  0
  5  3  2  0
  6  5  1  0
  9  5  1  0
  9  8  1  0
 10 11  1  0
 10  9  1  0
 12 10  1  0
 13 10  1  0
 14 15  1  0
 14 13  2  0
 15 24  1  0
 16 22  1  0
 17 22  1  0
 18 19  1  0
 18 17  1  0
 20 19  1  0
 20 29  1  0
 20 21  1  0
 22 21  1  0
 23 16  2  0
 24 16  1  0
 24 25  1  0
 26 27  2  0
 27 46  1  0
 28 27  1  0
 28 31  1  0
 29 26  1  0
 29 30  1  0
 30 28  2  0
 31 32  1  0
 32 33  2  0
 34 37  1  0
 34 33  1  0
 35 34  2  0
 36 35  1  0
 36 31  2  0
 37 38  1  0
 38 43  2  0
 38 39  1  0
 39 40  2  0
 40 41  1  0
 41 45  1  0
 42 41  2  0
 43 42  1  0
 44 43  1  0
 46 47  1  0
 47 50  1  0
 47 49  1  0
 48 46  2  0
 51 52  1  0
 51 26  1  0
 53 51  1  0
 54 55  1  0
 54  6  1  0
 56 67  2  0
 57 63  1  0
 57 55  1  0
 57 62  1  0
 58 65  1  0
 58 66  1  0
 58 68  1  0
 59 65  1  0
 59 61  1  0
 60 66  1  0
 61 60  1  0
 62 61  2  0
 63 64  1  0
 64 59  2  0
 66 56  1  0
 68 70  2  0
 68 69  1  0
 69 73  1  0
 71 69  1  0
 72 77  2  0
 72 81  1  0
 73 77  1  0
 74 73  1  0
 76 72  1  0
 77 78  1  0
 78 79  2  0
 80 79  1  0
 81 80  2  0
 82 56  1  0
 82 83  1  0
 82 92  1  0
 83 86  1  0
 84 88  1  0
 84 83  1  0
 85 84  2  0
 88 87  1  0
 88 90  1  0
 90 91  1  0
 90 89  1  0
 92 93  1  1
 92 95  1  0
 94 92  1  0
M  ISO  4  16 100  24 100  54 101  55 101
M  END
>  <TORSDO>  (18) 
F 22

>  <SCORE>  (18) 
-12.325

>  <name>  (18) 
18

>  <ligand_id>  (18) 
18

>  <original_smiles>  (18) 
[H]c1c([H])c([H])c2c(c1[H])C([H])([H])C([H])([H])C([H])([H])C2([H])N([H])C(=O)C1([H])N(C(=O)C([H])(N([H])C(=O)C([H])(N([H])C([H])([H])[H])C([H])([H])[H])C(C([H])([H])[H])(C([H])([H])[H])C([H])([H])[H])C([H])([H])c2c([H])c(OC([H])([H])c3c(C([H])([H])[H])c([H])c([H])c([H])c3C([H])(C([H])([H])[H])[N+]([H])([H])C([H])([H])C([H])([H])C([H])([H])N([H])C(=O)N3C([H])([H])C([H])([H])C([H])([H])C([H])(n4nc(-c5c([H])c([H])c(Oc6c([H])c([H])c(F)c([H])c6F)c([H])c5[H])c(C(=O)N([H])[H])c4N([H])[H])C3([H])[H])c([H])c([H])c2C1([H])[H]

>  <smiles>  (18) 
[H]c1c([H])c([H])c2c(c1[H])C([H])([H])C([H])([H])C([H])([H])C2([H])N([H])C(=O)C1([H])N(C(=O)C([H])(N([H])C(=O)C([H])(N([H])C([H])([H])[H])C([H])([H])[H])C(C([H])([H])[H])(C([H])([H])[H])C([H])([H])[H])C([H])([H])c2c([H])c(OC([H])([H])c3c(C([H])([H])[H])c([H])c([H])c([H])c3C([H])(C([H])([H])[H])[N+]([H])([H])C([H])([H])C([H])([H])C([H])([H])N([H])C(=O)N3C([H])([H])C([H])([H])C([H])([H])C([H])(n4nc(-c5c([H])c([H])c(Oc6c([H])c([H])c(F)c([H])c6F)c([H])c5[H])c(C(=O)N([H])[H])c4N([H])[H])C3([H])[H])c([H])c([H])c2C1([H])[H]

$$$$
19:0:0
     RDKit          3D

 94103  0  0  1  0  0  0  0  0999 V2000
  -30.9890  -20.4300   19.6150 C   0  0  0  0  0  0  0  0  0  0  0  0
  -29.6150  -20.0340   19.0810 C   0  0  0  0  0  2  0  0  0  0  0  0
  -31.6000  -21.6030   18.8660 C   0  0  0  0  0  2  0  0  0  0  0  0
  -28.6010  -21.1960   19.0560 C   0  0  0  0  0  2  0  0  0  0  0  0
  -30.5550  -22.5700   18.2540 C   0  0  0  0  0  2  0  0  0  0  0  0
  -28.4260  -25.0320   18.3950 C   0  0  0  0  0  2  0  0  0  0  0  0
  -29.5440  -24.6930   20.5820 C   0  0  0  0  0  2  0  0  0  0  0  0
  -28.1940  -23.5210   18.2300 C   0  0  0  0  0  2  0  0  0  0  0  0
  -29.3720  -23.1700   20.4730 C   0  0  0  0  0  2  0  0  0  0  0  0
  -28.3680  -25.3800   19.8900 C   0  0  0  0  0  3  0  0  0  0  0  0
  -29.2010  -22.6320   19.0130 C   0  0  1  0  0  0  0  0  0  0  0  0
  -31.6120  -19.9240   20.6070 N   0  0  0  0  0  0  0  0  0  0  0  0
  -28.4000  -26.7830   20.1310 O   0  0  0  0  0  0  0  0  0  0  0  0
  -24.5750  -31.8920   23.2510 C   0  0  0  0  0  0  0  0  0  0  0  0
  -27.1980  -27.4630   20.1450 C   0  0  0  0  0  0  0  0  0  0  0  0
  -23.3550  -30.4910   21.6200 C   0  0  0  0  0  3  0  0  0  0  0  0
  -24.7950  -28.9540   20.1910 C   0  0  0  0  0  0  0  0  0  0  0  0
  -25.8790  -30.8510   21.4030 C   0  0  0  0  0  2  0  0  0  0  0  0
  -25.9580  -29.4820   20.7630 C   0  0  0  0  0  0  0  0  0  0  0  0
  -27.1620  -28.7450   20.7350 C   0  0  0  0  0  3  0  0  0  0  0  0
  -26.0030  -26.9390   19.5930 C   0  0  0  0  0  3  0  0  0  0  0  0
  -24.8110  -27.6790   19.6070 C   0  0  0  0  0  3  0  0  0  0  0  0
  -23.5520  -29.8100   20.2400 C   0  0  0  0  0  2  0  0  0  0  0  0
  -24.6220  -31.0920   22.1500 N   0  0  0  0  0  0  0  0  0  0  0  0
  -23.4970  -32.1660   23.7970 O   0  0  0  0  0  0  0  0  0  0  0  0
  -22.7100  -29.4690   22.5840 C   0  0  0  0  0  0  0  0  0  0  0  0
  -21.3860  -29.2850   22.4600 N   0  0  0  0  0  0  0  0  0  0  0  0
  -23.3980  -28.8450   23.3970 O   0  0  0  0  0  0  0  0  0  0  0  0
  -20.8950  -29.8390   21.7730 H   0  0  0  0  0  0  0  0  0  0  0  0
  -18.0120  -28.0970   22.9650 C   0  0  0  0  0  0  0  0  0  0  0  0
  -20.5700  -28.3520   23.2350 C   0  0  0  0  0  3  0  0  0  0  0  0
  -20.6720  -26.9180   22.6640 C   0  0  0  0  0  2  0  0  0  0  0  0
  -19.5680  -26.5930   21.6520 C   0  0  0  0  0  2  0  0  0  0  0  0
  -18.1870  -26.7440   22.2970 C   0  0  0  0  0  2  0  0  0  0  0  0
  -19.1320  -28.8580   23.3910 C   0  0  0  0  0  0  0  0  0  0  0  0
  -18.9170  -30.1270   23.9740 C   0  0  0  0  0  3  0  0  0  0  0  0
  -17.6130  -30.6320   24.1370 C   0  0  0  0  0  3  0  0  0  0  0  0
  -16.5080  -29.8660   23.7290 C   0  0  0  0  0  3  0  0  0  0  0  0
  -16.7080  -28.6010   23.1470 C   0  0  0  0  0  3  0  0  0  0  0  0
  -25.8670  -32.5190   23.8620 C   0  0  0  0  0  3  0  0  0  0  0  0
  -26.3930  -31.7470   25.1330 C   0  0  1  0  0  0  0  0  0  0  0  0
  -25.3090  -31.5090   26.2090 C   0  0  0  0  0  1  0  0  0  0  0  0
  -26.9720  -30.3700   24.7340 C   0  0  0  0  0  1  0  0  0  0  0  0
  -27.5510  -32.5380   25.7870 C   0  0  0  0  0  1  0  0  0  0  0  0
  -25.5650  -33.9180   24.1920 N   0  0  0  0  0  0  0  0  0  0  0  0
  -25.9000  -34.9670   23.4280 C   0  0  0  0  0  0  0  0  0  0  0  0
  -26.5680  -34.8590   22.3970 O   0  0  0  0  0  0  0  0  0  0  0  0
  -24.9720  -34.0770   24.9930 H   0  0  0  0  0  0  0  0  0  0  0  0
  -24.1790  -36.7630   23.0650 C   0  0  0  0  0  1  0  0  0  0  0  0
  -25.4160  -36.3580   23.8820 C   0  0  0  0  0  3  0  0  0  0  0  0
  -27.5520  -37.2320   24.7180 C   0  0  0  0  0  1  0  0  0  0  0  0
  -26.4530  -37.4050   23.7720 N   0  0  0  0  0  0  0  0  0  0  0  0
  -26.0510  -38.3280   23.9180 H   0  0  0  0  0  0  0  0  0  0  0  0
  -31.0010  -18.9400   21.4840 C   0  0  0  0  0  2  0  0  0  0  0  0
  -31.0350  -17.5150   20.8970 C   0  0  0  0  0  2  0  0  0  0  0  0
  -30.7450  -16.4540   21.9780 C   0  0  0  0  0  2  0  0  0  0  0  0
  -30.7290  -14.3860   20.5280 C   0  0  0  0  0  0  0  0  0  0  0  0
  -30.3480  -12.3450   19.1960 C   0  0  0  0  0  2  0  0  0  0  0  0
  -29.3890  -12.6160   18.0200 C   0  0  0  0  0  2  0  0  0  0  0  0
  -27.9210  -12.4770   18.4650 C   0  0  0  0  0  2  0  0  0  0  0  0
  -27.6120  -13.2700   19.7640 C   0  0  0  0  0  3  0  0  0  0  0  0
  -28.6690  -12.9620   20.8460 C   0  0  0  0  0  2  0  0  0  0  0  0
  -30.0020  -13.2640   20.2890 N   0  0  0  0  0  0  0  0  0  0  0  0
  -31.7750  -14.6610   19.9340 O   0  0  0  0  0  0  0  0  0  0  0  0
  -30.2110  -15.1930   21.4620 N   0  0  0  0  0  0  0  0  0  0  0  0
  -29.3470  -14.8750   21.8760 H   0  0  0  0  0  0  0  0  0  0  0  0
  -25.2120  -13.8880   20.4700 C   0  0  0  0  0  0  0  0  0  0  0  0
  -24.1430  -13.1170   20.8470 C   0  0  0  0  0  0  0  0  0  0  0  0
  -24.6030  -11.7650   20.8220 C   0  0  0  0  0  0  0  0  0  0  0  0
  -26.2570  -13.0040   20.2430 N   0  0  0  0  0  0  0  0  0  0  0  0
  -25.8920  -11.7230   20.5090 N   0  0  0  0  0  0  0  0  0  0  0  0
  -23.8760  -10.5040   21.0220 C   0  0  0  0  0  0  0  0  0  0  0  0
  -24.3140   -9.5380   21.9540 C   0  0  0  0  0  3  0  0  0  0  0  0
  -23.5880   -8.3420   22.1410 C   0  0  0  0  0  3  0  0  0  0  0  0
  -22.4090   -8.1040   21.3940 C   0  0  0  0  0  0  0  0  0  0  0  0
  -21.9900   -9.0590   20.4520 C   0  0  0  0  0  3  0  0  0  0  0  0
  -22.7170  -10.2470   20.2640 C   0  0  0  0  0  3  0  0  0  0  0  0
  -21.6550   -6.9580   21.4890 O   0  0  0  0  0  0  0  0  0  0  0  0
  -21.6210   -6.2120   22.6400 C   0  0  0  0  0  0  0  0  0  0  0  0
  -21.2250   -6.7670   23.8760 C   0  0  0  0  0  3  0  0  0  0  0  0
  -21.1370   -5.9480   25.0190 C   0  0  0  0  0  3  0  0  0  0  0  0
  -21.4360   -4.5760   24.9280 C   0  0  0  0  0  0  0  0  0  0  0  0
  -21.8290   -4.0210   23.6980 C   0  0  0  0  0  3  0  0  0  0  0  0
  -21.9170   -4.8370   22.5560 C   0  0  0  0  0  0  0  0  0  0  0  0
  -22.2730   -4.2920   21.3670 F   0  0  0  0  0  0  0  0  0  0  0  0
  -21.3450   -3.7880   26.0250 F   0  0  0  0  0  0  0  0  0  0  0  0
  -22.7460  -13.5980   21.1220 C   0  0  0  0  0  0  0  0  0  0  0  0
  -22.0190  -12.9070   21.9940 N   0  0  0  0  0  0  0  0  0  0  0  0
  -22.3080  -14.6200   20.5960 O   0  0  0  0  0  0  0  0  0  0  0  0
  -22.3860  -12.0810   22.4430 H   0  0  0  0  0  0  0  0  0  0  0  0
  -21.0820  -13.2110   22.2160 H   0  0  0  0  0  0  0  0  0  0  0  0
  -25.3790  -15.2560   20.2860 N   0  0  0  0  0  0  0  0  0  0  0  0
  -24.6180  -15.9170   20.3920 H   0  0  0  0  0  0  0  0  0  0  0  0
  -26.2390  -15.6900   19.9710 H   0  0  0  0  0  0  0  0  0  0  0  0
  1 12  2  0
  2  1  1  0
  3  1  1  0
  4  2  1  0
  5  3  1  0
 11  5  1  6
  6 10  1  0
  8  6  1  0
  9  7  1  0
 10 13  1  0
 10  7  1  0
 11  8  1  0
 11  4  1  0
 11  9  1  0
 12 54  1  0
 13 15  1  0
 14 25  2  0
 15 20  1  0
 16 24  1  0
 16 26  1  0
 17 23  1  0
 17 19  1  0
 18 24  1  0
 19 18  1  0
 20 19  2  0
 21 22  1  0
 21 15  2  0
 22 17  2  0
 23 16  1  0
 24 14  1  0
 26 28  2  0
 27 26  1  0
 29 27  1  0
 30 39  2  0
 30 35  1  0
 31 27  1  0
 31 35  1  0
 32 31  1  0
 33 34  1  0
 33 32  1  0
 34 30  1  0
 35 36  2  0
 36 37  1  0
 38 37  2  0
 39 38  1  0
 40 14  1  0
 40 45  1  0
 40 41  1  0
 41 44  1  1
 41 42  1  0
 43 41  1  0
 45 48  1  0
 46 50  1  0
 46 45  1  0
 47 46  2  0
 50 49  1  0
 52 50  1  0
 52 53  1  0
 52 51  1  0
 55 54  1  0
 55 56  1  0
 57 65  1  0
 58 63  1  0
 59 60  1  0
 59 58  1  0
 61 60  1  0
 61 70  1  0
 61 62  1  0
 63 57  1  0
 63 62  1  0
 64 57  2  0
 65 66  1  0
 65 56  1  0
 67 68  2  0
 68 87  1  0
 69 68  1  0
 69 72  1  0
 70 67  1  0
 70 71  1  0
 71 69  2  0
 72 73  1  0
 73 74  2  0
 75 78  1  0
 75 74  1  0
 76 75  2  0
 77 76  1  0
 77 72  2  0
 78 79  1  0
 79 80  1  0
 80 81  2  0
 82 81  1  0
 82 86  1  0
 83 82  2  0
 84 79  2  0
 84 83  1  0
 85 84  1  0
 87 88  1  0
 88 91  1  0
 88 90  1  0
 89 87  2  0
 92 93  1  0
 92 67  1  0
 94 92  1  0
M  ISO  4  10 101  13 101  57 100  65 100
M  END
>  <TORSDO>  (19) 
F 19

>  <SCORE>  (19) 
-14.423

>  <name>  (19) 
19

>  <ligand_id>  (19) 
19

>  <original_smiles>  (19) 
[H]c1c([H])c([H])c2c(c1[H])C([H])([H])C([H])([H])C([H])([H])C2([H])N([H])C(=O)C1([H])N(C(=O)C([H])(N([H])C(=O)C([H])(N([H])C([H])([H])[H])C([H])([H])[H])C(C([H])([H])[H])(C([H])([H])[H])C([H])([H])[H])C([H])([H])c2c([H])c(OC3([H])C([H])([H])C([H])([H])C4(C([H])([H])C([H])([H])C(=NC([H])([H])C([H])([H])C([H])([H])N([H])C(=O)N5C([H])([H])C([H])([H])C([H])([H])C([H])(n6nc(-c7c([H])c([H])c(Oc8c([H])c([H])c(F)c([H])c8F)c([H])c7[H])c(C(=O)N([H])[H])c6N([H])[H])C5([H])[H])C([H])([H])C4([H])[H])C([H])([H])C3([H])[H])c([H])c([H])c2C1([H])[H]

>  <smiles>  (19) 
[H]c1c([H])c([H])c2c(c1[H])C([H])([H])C([H])([H])C([H])([H])C2([H])N([H])C(=O)C1([H])N(C(=O)C([H])(N([H])C(=O)C([H])(N([H])C([H])([H])[H])C([H])([H])[H])C(C([H])([H])[H])(C([H])([H])[H])C([H])([H])[H])C([H])([H])c2c([H])c(OC3([H])C([H])([H])C([H])([H])C4(C([H])([H])C([H])([H])C(=NC([H])([H])C([H])([H])C([H])([H])N([H])C(=O)N5C([H])([H])C([H])([H])C([H])([H])C([H])(n6nc(-c7c([H])c([H])c(Oc8c([H])c([H])c(F)c([H])c8F)c([H])c7[H])c(C(=O)N([H])[H])c6N([H])[H])C5([H])[H])C([H])([H])C4([H])[H])C([H])([H])C3([H])[H])c([H])c([H])c2C1([H])[H]

$$$$
20:0:0
     RDKit          3D

 99107  0  0  1  0  0  0  0  0999 V2000
  -27.2860  -21.0680   17.0220 C   0  0  0  0  0  3  0  0  0  0  0  0
  -27.3940  -19.6690   17.1220 C   0  0  0  0  0  3  0  0  0  0  0  0
  -29.6740  -21.2690   17.4630 C   0  0  0  0  0  3  0  0  0  0  0  0
  -28.4310  -21.8740   17.1820 C   0  0  0  0  0  0  0  0  0  0  0  0
  -28.6370  -19.0570   17.3990 C   0  0  0  0  0  0  0  0  0  0  0  0
  -29.7880  -19.8680   17.6020 C   0  0  0  0  0  0  0  0  0  0  0  0
  -28.6880  -17.5370   17.4260 C   0  0  0  0  0  1  0  0  0  0  0  0
  -28.3290  -23.3850   17.1070 C   0  0  0  0  0  2  0  0  0  0  0  0
  -28.2520  -23.9150   18.4770 N   0  0  0  0  0  4  0  0  0  0  0  0
  -28.9250  -23.4120   19.0300 H   0  0  0  0  0  0  0  0  0  0  0  0
  -27.3370  -23.6940   18.8370 H   0  0  0  0  0  0  0  0  0  0  0  0
  -28.5110  -25.3640   18.6130 C   0  0  0  0  0  2  0  0  0  0  0  0
  -28.5390  -25.7680   20.1000 C   0  0  0  0  0  2  0  0  0  0  0  0
  -28.5390  -27.1820   20.2720 O   0  0  0  0  0  0  0  0  0  0  0  0
  -24.6840  -32.1640   23.5330 C   0  0  0  0  0  0  0  0  0  0  0  0
  -27.3280  -27.8380   20.3070 C   0  0  0  0  0  0  0  0  0  0  0  0
  -23.4650  -30.7850   21.8820 C   0  0  0  0  0  3  0  0  0  0  0  0
  -24.9090  -29.2990   20.4030 C   0  0  0  0  0  0  0  0  0  0  0  0
  -25.9830  -31.1810   21.6500 C   0  0  0  0  0  2  0  0  0  0  0  0
  -26.0700  -29.8280   20.9780 C   0  0  0  0  0  0  0  0  0  0  0  0
  -27.2810  -29.1060   20.9260 C   0  0  0  0  0  3  0  0  0  0  0  0
  -26.1380  -27.3110   19.7470 C   0  0  0  0  0  3  0  0  0  0  0  0
  -24.9370  -28.0400   19.7850 C   0  0  0  0  0  3  0  0  0  0  0  0
  -23.6570  -30.1390   20.4840 C   0  0  0  0  0  2  0  0  0  0  0  0
  -24.7300  -31.3890   22.4130 N   0  0  0  0  0  0  0  0  0  0  0  0
  -23.6090  -32.4120   24.0960 O   0  0  0  0  0  0  0  0  0  0  0  0
  -22.8440  -29.7330   22.8270 C   0  0  0  0  0  0  0  0  0  0  0  0
  -21.5470  -29.4450   22.6320 N   0  0  0  0  0  0  0  0  0  0  0  0
  -23.5270  -29.1770   23.6920 O   0  0  0  0  0  0  0  0  0  0  0  0
  -21.0550  -29.9510   21.9070 H   0  0  0  0  0  0  0  0  0  0  0  0
  -18.2880  -27.9080   22.8720 C   0  0  0  0  0  0  0  0  0  0  0  0
  -20.7600  -28.4630   23.3760 C   0  0  0  0  0  3  0  0  0  0  0  0
  -21.0750  -27.0240   22.9040 C   0  0  0  0  0  2  0  0  0  0  0  0
  -20.1250  -26.5270   21.8090 C   0  0  0  0  0  2  0  0  0  0  0  0
  -18.6760  -26.5530   22.3040 C   0  0  0  0  0  2  0  0  0  0  0  0
  -19.2690  -28.8120   23.3600 C   0  0  0  0  0  0  0  0  0  0  0  0
  -18.8590  -30.0740   23.8430 C   0  0  0  0  0  3  0  0  0  0  0  0
  -17.5000  -30.4370   23.8430 C   0  0  0  0  0  3  0  0  0  0  0  0
  -16.5310  -29.5320   23.3760 C   0  0  0  0  0  3  0  0  0  0  0  0
  -16.9240  -28.2700   22.8960 C   0  0  0  0  0  3  0  0  0  0  0  0
  -25.9740  -32.7940   24.1450 C   0  0  0  0  0  3  0  0  0  0  0  0
  -26.4810  -32.0420   25.4350 C   0  0  1  0  0  0  0  0  0  0  0  0
  -25.3780  -31.8040   26.4930 C   0  0  0  0  0  1  0  0  0  0  0  0
  -27.0810  -30.6680   25.0630 C   0  0  0  0  0  1  0  0  0  0  0  0
  -27.6170  -32.8540   26.1020 C   0  0  0  0  0  1  0  0  0  0  0  0
  -25.6790  -34.2010   24.4440 N   0  0  0  0  0  0  0  0  0  0  0  0
  -26.0350  -35.2350   23.6700 C   0  0  0  0  0  0  0  0  0  0  0  0
  -26.7170  -35.1030   22.6500 O   0  0  0  0  0  0  0  0  0  0  0  0
  -25.0760  -34.3790   25.2340 H   0  0  0  0  0  0  0  0  0  0  0  0
  -24.3350  -37.0370   23.2460 C   0  0  0  0  0  1  0  0  0  0  0  0
  -25.5540  -36.6350   24.0920 C   0  0  0  0  0  3  0  0  0  0  0  0
  -27.6790  -37.5100   24.9530 C   0  0  0  0  0  1  0  0  0  0  0  0
  -26.6010  -37.6740   23.9810 N   0  0  0  0  0  0  0  0  0  0  0  0
  -26.2030  -38.6020   24.1010 H   0  0  0  0  0  0  0  0  0  0  0  0
  -31.1670  -19.2850   17.9240 C   0  0  0  0  0  2  0  0  0  0  0  0
  -31.7110  -19.7060   19.2400 N   0  0  0  0  0  4  0  0  0  0  0  0
  -31.7980  -20.7080   19.2470 H   0  0  0  0  0  0  0  0  0  0  0  0
  -32.6500  -19.3440   19.2980 H   0  0  0  0  0  0  0  0  0  0  0  0
  -30.9880  -19.2840   20.4670 C   0  0  0  0  0  2  0  0  0  0  0  0
  -30.6180  -17.7900   20.4610 C   0  0  0  0  0  2  0  0  0  0  0  0
  -30.5900  -17.0910   21.8400 C   0  0  0  0  0  2  0  0  0  0  0  0
  -30.8800  -14.7790   20.9810 C   0  0  0  0  0  0  0  0  0  0  0  0
  -30.5860  -12.8020   19.5540 C   0  0  0  0  0  2  0  0  0  0  0  0
  -29.6820  -13.1650   18.3580 C   0  0  0  0  0  2  0  0  0  0  0  0
  -28.1970  -12.9850   18.7250 C   0  0  0  0  0  2  0  0  0  0  0  0
  -27.8230  -13.6760   20.0640 C   0  0  0  0  0  3  0  0  0  0  0  0
  -28.8400  -13.3120   21.1700 C   0  0  0  0  0  2  0  0  0  0  0  0
  -30.1880  -13.6520   20.6840 N   0  0  0  0  0  0  0  0  0  0  0  0
  -31.9930  -15.0360   20.5140 O   0  0  0  0  0  0  0  0  0  0  0  0
  -30.2060  -15.6850   21.7010 N   0  0  0  0  0  0  0  0  0  0  0  0
  -29.3080  -15.4020   22.0640 H   0  0  0  0  0  0  0  0  0  0  0  0
  -25.3810  -14.2030   20.6940 C   0  0  0  0  0  0  0  0  0  0  0  0
  -24.3150  -13.3900   20.9760 C   0  0  0  0  0  0  0  0  0  0  0  0
  -24.8060  -12.0520   20.8910 C   0  0  0  0  0  0  0  0  0  0  0  0
  -26.4540  -13.3550   20.4650 N   0  0  0  0  0  0  0  0  0  0  0  0
  -26.1070  -12.0540   20.6370 N   0  0  0  0  0  0  0  0  0  0  0  0
  -24.1000  -10.7670   20.9840 C   0  0  0  0  0  0  0  0  0  0  0  0
  -24.5030   -9.7670   21.8970 C   0  0  0  0  0  3  0  0  0  0  0  0
  -23.7980   -8.5470   21.9780 C   0  0  0  0  0  3  0  0  0  0  0  0
  -22.6770   -8.3180   21.1460 C   0  0  0  0  0  0  0  0  0  0  0  0
  -22.2950   -9.3070   20.2230 C   0  0  0  0  0  3  0  0  0  0  0  0
  -23.0010  -10.5190   20.1390 C   0  0  0  0  0  3  0  0  0  0  0  0
  -21.9490   -7.1520   21.1380 O   0  0  0  0  0  0  0  0  0  0  0  0
  -21.8160   -6.3790   22.2630 C   0  0  0  0  0  0  0  0  0  0  0  0
  -21.2510   -6.8860   23.4540 C   0  0  0  0  0  3  0  0  0  0  0  0
  -21.0680   -6.0380   24.5640 C   0  0  0  0  0  3  0  0  0  0  0  0
  -21.4390   -4.6820   24.4840 C   0  0  0  0  0  0  0  0  0  0  0  0
  -21.9960   -4.1730   23.2970 C   0  0  0  0  0  3  0  0  0  0  0  0
  -22.1800   -5.0190   22.1890 C   0  0  0  0  0  0  0  0  0  0  0  0
  -22.6980   -4.5190   21.0410 F   0  0  0  0  0  0  0  0  0  0  0  0
  -21.2560   -3.8650   25.5480 F   0  0  0  0  0  0  0  0  0  0  0  0
  -22.8970  -13.8250   21.2180 C   0  0  0  0  0  0  0  0  0  0  0  0
  -22.1590  -13.0790   22.0320 N   0  0  0  0  0  0  0  0  0  0  0  0
  -22.4520  -14.8580   20.7220 O   0  0  0  0  0  0  0  0  0  0  0  0
  -22.5320  -12.2420   22.4550 H   0  0  0  0  0  0  0  0  0  0  0  0
  -21.2070  -13.3500   22.2360 H   0  0  0  0  0  0  0  0  0  0  0  0
  -25.5260  -15.5830   20.5970 N   0  0  0  0  0  0  0  0  0  0  0  0
  -24.7460  -16.2220   20.7080 H   0  0  0  0  0  0  0  0  0  0  0  0
  -26.3870  -16.0520   20.3420 H   0  0  0  0  0  0  0  0  0  0  0  0
  1  2  2  0
  1  4  1  0
  2  5  1  0
  3  6  1  0
  4  3  2  0
  5  7  1  0
  5  6  2  0
  6 55  1  0
  8  4  1  0
  8  9  1  0
  9 12  1  0
  9 11  1  0
  9 10  1  0
 12 13  1  0
 13 14  1  0
 14 16  1  0
 15 26  2  0
 16 21  1  0
 17 25  1  0
 17 27  1  0
 18 24  1  0
 18 20  1  0
 19 25  1  0
 20 19  1  0
 21 20  2  0
 22 23  1  0
 22 16  2  0
 23 18  2  0
 24 17  1  0
 25 15  1  0
 27 29  2  0
 28 27  1  0
 30 28  1  0
 31 40  2  0
 31 36  1  0
 32 28  1  0
 33 32  1  0
 34 35  1  0
 34 33  1  0
 35 31  1  0
 36 32  1  0
 36 37  2  0
 37 38  1  0
 39 38  2  0
 40 39  1  0
 41 15  1  0
 41 46  1  0
 41 42  1  0
 42 45  1  1
 42 43  1  0
 44 42  1  0
 46 49  1  0
 47 51  1  0
 47 46  1  0
 48 47  2  0
 51 50  1  0
 53 51  1  0
 53 54  1  0
 53 52  1  0
 55 56  1  0
 56 57  1  0
 56 58  1  0
 56 59  1  0
 60 59  1  0
 60 61  1  0
 62 70  1  0
 63 68  1  0
 64 65  1  0
 64 63  1  0
 66 65  1  0
 66 75  1  0
 66 67  1  0
 68 62  1  0
 68 67  1  0
 69 62  2  0
 70 61  1  0
 70 71  1  0
 72 73  2  0
 73 92  1  0
 74 73  1  0
 74 77  1  0
 75 76  1  0
 75 72  1  0
 76 74  2  0
 77 78  1  0
 78 79  2  0
 80 79  1  0
 81 80  2  0
 82 81  1  0
 82 77  2  0
 83 80  1  0
 83 84  1  0
 84 85  1  0
 85 86  2  0
 87 86  1  0
 87 91  1  0
 88 87  2  0
 89 84  2  0
 89 88  1  0
 90 89  1  0
 92 93  1  0
 93 96  1  0
 93 95  1  0
 94 92  2  0
 97 72  1  0
 97 98  1  0
 99 97  1  0
M  ISO  4  13 101  14 101  62 100  70 100
M  END
>  <TORSDO>  (20) 
F 25

>  <SCORE>  (20) 
-10.613

>  <name>  (20) 
20

>  <ligand_id>  (20) 
20

>  <original_smiles>  (20) 
[H]c1c([H])c([H])c2c(c1[H])C([H])([H])C([H])([H])C([H])([H])C2([H])N([H])C(=O)C1([H])N(C(=O)C([H])(N([H])C(=O)C([H])(N([H])C([H])([H])[H])C([H])([H])[H])C(C([H])([H])[H])(C([H])([H])[H])C([H])([H])[H])C([H])([H])c2c([H])c(OC([H])([H])C([H])([H])[N+]([H])([H])C([H])([H])c3c([H])c([H])c(C([H])([H])[H])c(C([H])([H])[N+]([H])([H])C([H])([H])C([H])([H])C([H])([H])N([H])C(=O)N4C([H])([H])C([H])([H])C([H])([H])C([H])(n5nc(-c6c([H])c([H])c(Oc7c([H])c([H])c(F)c([H])c7F)c([H])c6[H])c(C(=O)N([H])[H])c5N([H])[H])C4([H])[H])c3[H])c([H])c([H])c2C1([H])[H]

>  <smiles>  (20) 
[H]c1c([H])c([H])c2c(c1[H])C([H])([H])C([H])([H])C([H])([H])C2([H])N([H])C(=O)C1([H])N(C(=O)C([H])(N([H])C(=O)C([H])(N([H])C([H])([H])[H])C([H])([H])[H])C(C([H])([H])[H])(C([H])([H])[H])C([H])([H])[H])C([H])([H])c2c([H])c(OC([H])([H])C([H])([H])[N+]([H])([H])C([H])([H])c3c([H])c([H])c(C([H])([H])[H])c(C([H])([H])[N+]([H])([H])C([H])([H])C([H])([H])C([H])([H])N([H])C(=O)N4C([H])([H])C([H])([H])C([H])([H])C([H])(n5nc(-c6c([H])c([H])c(Oc7c([H])c([H])c(F)c([H])c7F)c([H])c6[H])c(C(=O)N([H])[H])c5N([H])[H])C4([H])[H])c3[H])c([H])c([H])c2C1([H])[H]

$$$$
21:0:0
     RDKit          3D

 91100  0  0  1  0  0  0  0  0999 V2000
  -30.7070  -14.6620   20.4710 C   0  0  0  0  0  0  0  0  0  0  0  0
  -30.4270  -12.4010   19.4600 C   0  0  0  0  0  2  0  0  0  0  0  0
  -29.5230  -12.4540   18.2110 C   0  0  0  0  0  2  0  0  0  0  0  0
  -28.0420  -12.2970   18.6070 C   0  0  0  0  0  2  0  0  0  0  0  0
  -27.6490  -13.2170   19.7890 C   0  0  0  0  0  3  0  0  0  0  0  0
  -28.6840  -13.1270   20.9400 C   0  0  0  0  0  2  0  0  0  0  0  0
  -29.9890  -13.4880   20.3700 N   0  0  0  0  0  0  0  0  0  0  0  0
  -31.9050  -14.6280   20.1750 O   0  0  0  0  0  0  0  0  0  0  0  0
  -28.6650  -20.1150   20.4170 C   0  0  0  0  0  3  0  0  0  0  0  0
  -31.3980  -19.5770   20.3520 C   0  0  0  0  0  3  0  0  0  0  0  0
  -29.1470  -18.8070   20.7080 C   0  0  0  0  0  0  0  0  0  0  0  0
  -30.5160  -18.5160   20.6660 C   0  0  0  0  0  0  0  0  0  0  0  0
  -30.9300  -20.8860   20.0440 C   0  0  0  0  0  0  0  0  0  0  0  0
  -29.5370  -21.1840   20.0570 C   0  0  0  0  0  0  0  0  0  0  0  0
  -28.2290  -17.6620   21.0760 C   0  0  0  0  0  2  0  0  0  0  0  0
  -31.0290  -17.0870   20.9930 C   0  0  0  0  0  2  0  0  0  0  0  0
  -28.7070  -16.2790   20.5490 C   0  0  0  0  0  2  0  0  0  0  0  0
  -31.9480  -21.9470   19.6710 C   0  0  0  0  0  1  0  0  0  0  0  0
  -30.1280  -15.9000   20.7680 N   0  0  0  0  0  0  0  0  0  0  0  0
  -25.2490  -13.8790   20.4220 C   0  0  0  0  0  0  0  0  0  0  0  0
  -24.1610  -13.1330   20.7830 C   0  0  0  0  0  0  0  0  0  0  0  0
  -24.6080  -11.7770   20.8090 C   0  0  0  0  0  0  0  0  0  0  0  0
  -26.2860  -12.9770   20.2490 N   0  0  0  0  0  0  0  0  0  0  0  0
  -25.9050  -11.7100   20.5440 N   0  0  0  0  0  0  0  0  0  0  0  0
  -23.8610  -10.5300   21.0110 C   0  0  0  0  0  0  0  0  0  0  0  0
  -24.2770   -9.5670   21.9560 C   0  0  0  0  0  3  0  0  0  0  0  0
  -23.5330   -8.3820   22.1430 C   0  0  0  0  0  3  0  0  0  0  0  0
  -22.3590   -8.1540   21.3870 C   0  0  0  0  0  0  0  0  0  0  0  0
  -21.9640   -9.1070   20.4320 C   0  0  0  0  0  3  0  0  0  0  0  0
  -22.7080  -10.2820   20.2420 C   0  0  0  0  0  3  0  0  0  0  0  0
  -21.5860   -7.0230   21.4840 O   0  0  0  0  0  0  0  0  0  0  0  0
  -21.5470   -6.2780   22.6340 C   0  0  0  0  0  0  0  0  0  0  0  0
  -21.1890   -6.8450   23.8780 C   0  0  0  0  0  3  0  0  0  0  0  0
  -21.0920   -6.0280   25.0210 C   0  0  0  0  0  3  0  0  0  0  0  0
  -21.3440   -4.6460   24.9250 C   0  0  0  0  0  0  0  0  0  0  0  0
  -21.6990   -4.0790   23.6880 C   0  0  0  0  0  3  0  0  0  0  0  0
  -21.7970   -4.8940   22.5460 C   0  0  0  0  0  0  0  0  0  0  0  0
  -22.1170   -4.3390   21.3520 F   0  0  0  0  0  0  0  0  0  0  0  0
  -21.2430   -3.8610   26.0230 F   0  0  0  0  0  0  0  0  0  0  0  0
  -22.7630  -13.6360   20.9910 C   0  0  0  0  0  0  0  0  0  0  0  0
  -22.0000  -12.9830   21.8600 N   0  0  0  0  0  0  0  0  0  0  0  0
  -22.3550  -14.6450   20.4150 O   0  0  0  0  0  0  0  0  0  0  0  0
  -22.3420  -12.1680   22.3470 H   0  0  0  0  0  0  0  0  0  0  0  0
  -21.0590  -13.3030   22.0410 H   0  0  0  0  0  0  0  0  0  0  0  0
  -25.4270  -15.2410   20.2000 N   0  0  0  0  0  0  0  0  0  0  0  0
  -24.6570  -15.8960   20.2660 H   0  0  0  0  0  0  0  0  0  0  0  0
  -26.2730  -15.6590   19.8380 H   0  0  0  0  0  0  0  0  0  0  0  0
  -28.9260  -22.5230   19.5160 C   0  0  0  0  0  2  0  0  0  0  0  0
  -29.2450  -23.9580   20.1110 C   0  0  0  0  0  2  0  0  0  0  0  0
  -28.2160  -25.0530   19.6090 C   0  0  0  0  0  2  0  0  0  0  0  0
  -28.3940  -26.4890   19.8880 O   0  0  0  0  0  0  0  0  0  0  0  0
  -24.5490  -31.7080   23.0140 C   0  0  0  0  0  0  0  0  0  0  0  0
  -27.2490  -27.3020   19.8370 C   0  0  0  0  0  0  0  0  0  0  0  0
  -23.3660  -30.3200   21.3490 C   0  0  0  0  0  3  0  0  0  0  0  0
  -24.8420  -28.8440   19.8760 C   0  0  0  0  0  0  0  0  0  0  0  0
  -25.8940  -30.7070   21.1550 C   0  0  0  0  0  2  0  0  0  0  0  0
  -26.0010  -29.3470   20.4800 C   0  0  0  0  0  0  0  0  0  0  0  0
  -27.2050  -28.5850   20.4580 C   0  0  0  0  0  3  0  0  0  0  0  0
  -26.0660  -26.8580   19.1960 C   0  0  0  0  0  3  0  0  0  0  0  0
  -24.8770  -27.6040   19.2250 C   0  0  0  0  0  3  0  0  0  0  0  0
  -23.5850  -29.6840   19.9510 C   0  0  0  0  0  2  0  0  0  0  0  0
  -24.6220  -30.9270   21.8970 N   0  0  0  0  0  0  0  0  0  0  0  0
  -23.4640  -31.9480   23.5610 O   0  0  0  0  0  0  0  0  0  0  0  0
  -22.7340  -29.2660   22.2880 C   0  0  0  0  0  0  0  0  0  0  0  0
  -21.4090  -29.0780   22.1800 N   0  0  0  0  0  0  0  0  0  0  0  0
  -23.4360  -28.6210   23.0730 O   0  0  0  0  0  0  0  0  0  0  0  0
  -20.9030  -29.6530   21.5210 H   0  0  0  0  0  0  0  0  0  0  0  0
  -18.0510  -27.8380   22.7060 C   0  0  0  0  0  0  0  0  0  0  0  0
  -20.6120  -28.1110   22.9360 C   0  0  0  0  0  3  0  0  0  0  0  0
  -20.7150  -26.6990   22.3130 C   0  0  0  0  0  2  0  0  0  0  0  0
  -19.5950  -26.3980   21.3120 C   0  0  0  0  0  2  0  0  0  0  0  0
  -18.2250  -26.5120   21.9850 C   0  0  0  0  0  2  0  0  0  0  0  0
  -19.1720  -28.5960   23.1380 C   0  0  0  0  0  0  0  0  0  0  0  0
  -18.9550  -29.8380   23.7730 C   0  0  0  0  0  3  0  0  0  0  0  0
  -17.6490  -30.3240   23.9790 C   0  0  0  0  0  3  0  0  0  0  0  0
  -16.5430  -29.5630   23.5610 C   0  0  0  0  0  3  0  0  0  0  0  0
  -16.7450  -28.3210   22.9310 C   0  0  0  0  0  3  0  0  0  0  0  0
  -25.8230  -32.3530   23.6430 C   0  0  0  0  0  3  0  0  0  0  0  0
  -25.4750  -33.7220   24.0450 N   0  0  0  0  0  0  0  0  0  0  0  0
  -25.7550  -34.8200   23.3310 C   0  0  0  0  0  0  0  0  0  0  0  0
  -26.4070  -34.7880   22.2830 O   0  0  0  0  0  0  0  0  0  0  0  0
  -24.8910  -33.8190   24.8640 H   0  0  0  0  0  0  0  0  0  0  0  0
  -23.9580  -36.5650   23.1000 C   0  0  0  0  0  1  0  0  0  0  0  0
  -25.2320  -36.1680   23.8630 C   0  0  0  0  0  3  0  0  0  0  0  0
  -27.3600  -37.0880   24.6750 C   0  0  0  0  0  1  0  0  0  0  0  0
  -26.2240  -37.2610   23.7720 N   0  0  0  0  0  0  0  0  0  0  0  0
  -25.7920  -38.1590   23.9770 H   0  0  0  0  0  0  0  0  0  0  0  0
  -26.3880  -31.5400   24.8720 C   0  0  1  0  0  0  0  0  0  0  0  0
  -25.3250  -31.2210   25.9500 C   0  0  0  0  0  1  0  0  0  0  0  0
  -27.0020  -30.1990   24.4040 C   0  0  0  0  0  1  0  0  0  0  0  0
  -27.5290  -32.3370   25.5480 C   0  0  0  0  0  1  0  0  0  0  0  0
  1 19  1  0
  2  7  1  0
  3  4  1  0
  3  2  1  0
  5  4  1  0
  5 23  1  0
  5  6  1  0
  7  1  1  0
  7  6  1  0
  8  1  2  0
  9 11  1  0
 10 12  1  0
 11 15  1  0
 12 11  2  0
 12 16  1  0
 13 14  1  0
 13 10  2  0
 14  9  2  0
 17 19  1  0
 17 15  1  0
 18 13  1  0
 19 16  1  0
 20 21  2  0
 21 22  1  0
 21 40  1  0
 22 25  1  0
 23 20  1  0
 23 24  1  0
 24 22  2  0
 25 26  1  0
 26 27  2  0
 28 31  1  0
 28 27  1  0
 29 28  2  0
 30 29  1  0
 30 25  2  0
 31 32  1  0
 32 33  1  0
 33 34  2  0
 35 34  1  0
 35 39  1  0
 36 35  2  0
 37 32  2  0
 37 36  1  0
 38 37  1  0
 40 41  1  0
 41 44  1  0
 41 43  1  0
 42 40  2  0
 45 46  1  0
 45 20  1  0
 47 45  1  0
 48 14  1  0
 48 49  1  0
 50 51  1  0
 50 49  1  0
 52 63  2  0
 53 51  1  0
 53 58  1  0
 54 62  1  0
 54 64  1  0
 55 61  1  0
 55 57  1  0
 56 62  1  0
 57 56  1  0
 58 57  2  0
 59 60  1  0
 59 53  2  0
 60 55  2  0
 61 54  1  0
 62 52  1  0
 64 66  2  0
 65 64  1  0
 67 65  1  0
 68 77  2  0
 68 73  1  0
 69 65  1  0
 69 73  1  0
 70 69  1  0
 71 72  1  0
 71 70  1  0
 72 68  1  0
 73 74  2  0
 74 75  1  0
 76 75  2  0
 77 76  1  0
 78 52  1  0
 78 79  1  0
 78 88  1  0
 79 82  1  0
 80 84  1  0
 80 79  1  0
 81 80  2  0
 84 83  1  0
 86 84  1  0
 86 87  1  0
 86 85  1  0
 88 91  1  1
 88 89  1  0
 90 88  1  0
M  ISO  4   1 100  19 100  50 101  51 101
M  END
>  <TORSDO>  (21) 
F 18

>  <SCORE>  (21) 
-13.809

>  <name>  (21) 
21

>  <ligand_id>  (21) 
21

>  <original_smiles>  (21) 
[H]c1c([H])c([H])c2c(c1[H])C([H])([H])C([H])([H])C([H])([H])C2([H])N([H])C(=O)C1([H])N(C(=O)C([H])(N([H])C(=O)C([H])(N([H])C([H])([H])[H])C([H])([H])[H])C(C([H])([H])[H])(C([H])([H])[H])C([H])([H])[H])C([H])([H])c2c([H])c(OC([H])([H])C([H])([H])C([H])([H])c3c([H])c4c(c([H])c3C([H])([H])[H])C([H])([H])N(C(=O)N3C([H])([H])C([H])([H])C([H])([H])C([H])(n5nc(-c6c([H])c([H])c(Oc7c([H])c([H])c(F)c([H])c7F)c([H])c6[H])c(C(=O)N([H])[H])c5N([H])[H])C3([H])[H])C([H])([H])C4([H])[H])c([H])c([H])c2C1([H])[H]

>  <smiles>  (21) 
[H]c1c([H])c([H])c2c(c1[H])C([H])([H])C([H])([H])C([H])([H])C2([H])N([H])C(=O)C1([H])N(C(=O)C([H])(N([H])C(=O)C([H])(N([H])C([H])([H])[H])C([H])([H])[H])C(C([H])([H])[H])(C([H])([H])[H])C([H])([H])[H])C([H])([H])c2c([H])c(OC([H])([H])C([H])([H])C([H])([H])c3c([H])c4c(c([H])c3C([H])([H])[H])C([H])([H])N(C(=O)N3C([H])([H])C([H])([H])C([H])([H])C([H])(n5nc(-c6c([H])c([H])c(Oc7c([H])c([H])c(F)c([H])c7F)c([H])c6[H])c(C(=O)N([H])[H])c5N([H])[H])C3([H])[H])C([H])([H])C4([H])[H])c([H])c([H])c2C1([H])[H]

$$$$
22:0:0
     RDKit          3D

 95103  0  0  1  0  0  0  0  0999 V2000
  -27.8170  -22.1410   19.0080 C   0  0  0  0  0  3  0  0  0  0  0  0
  -27.6910  -20.7670   18.6810 C   0  0  0  0  0  3  0  0  0  0  0  0
  -29.1450  -22.4030   19.1860 C   0  0  0  0  0  0  0  0  0  0  0  0
  -28.9420  -20.2150   18.6650 C   0  0  0  0  0  0  0  0  0  0  0  0
  -31.3290  -21.0950   18.7870 C   0  0  0  0  0  1  0  0  0  0  0  0
  -29.8680  -21.2410   18.8670 N   0  0  0  0  0  0  0  0  0  0  0  0
  -29.7590  -23.6680   19.6500 C   0  0  0  0  0  0  0  0  0  0  0  0
  -29.2880  -24.1000   20.8280 N   0  0  0  0  0  0  0  0  0  0  0  0
  -30.6700  -24.2160   19.0300 O   0  0  0  0  0  0  0  0  0  0  0  0
  -28.5920  -23.5100   21.2650 H   0  0  0  0  0  0  0  0  0  0  0  0
  -29.7800  -25.2490   21.5960 C   0  0  0  0  0  2  0  0  0  0  0  0
  -28.7910  -26.4380   21.5870 C   0  0  0  0  0  2  0  0  0  0  0  0
  -28.3700  -26.6990   20.2440 O   0  0  0  0  0  0  0  0  0  0  0  0
  -24.5880  -31.8750   23.2350 C   0  0  0  0  0  0  0  0  0  0  0  0
  -27.2340  -27.4640   20.1890 C   0  0  0  0  0  0  0  0  0  0  0  0
  -23.3720  -30.4680   21.5940 C   0  0  0  0  0  3  0  0  0  0  0  0
  -24.8310  -28.9430   20.1490 C   0  0  0  0  0  0  0  0  0  0  0  0
  -25.8920  -30.8480   21.3890 C   0  0  0  0  0  2  0  0  0  0  0  0
  -25.9780  -29.4820   20.7470 C   0  0  0  0  0  0  0  0  0  0  0  0
  -27.1820  -28.7520   20.7620 C   0  0  0  0  0  3  0  0  0  0  0  0
  -26.0840  -26.9330   19.5720 C   0  0  0  0  0  3  0  0  0  0  0  0
  -24.8840  -27.6720   19.5440 C   0  0  0  0  0  3  0  0  0  0  0  0
  -23.5740  -29.7830   20.2110 C   0  0  0  0  0  2  0  0  0  0  0  0
  -24.6320  -31.0820   22.1280 N   0  0  0  0  0  0  0  0  0  0  0  0
  -23.5110  -32.1480   23.7810 O   0  0  0  0  0  0  0  0  0  0  0  0
  -22.7310  -29.4490   22.5640 C   0  0  0  0  0  0  0  0  0  0  0  0
  -21.4060  -29.2640   22.4440 N   0  0  0  0  0  0  0  0  0  0  0  0
  -23.4210  -28.8290   23.3770 O   0  0  0  0  0  0  0  0  0  0  0  0
  -20.9110  -29.8160   21.7570 H   0  0  0  0  0  0  0  0  0  0  0  0
  -18.0350  -28.0770   22.9590 C   0  0  0  0  0  0  0  0  0  0  0  0
  -20.5930  -28.3320   23.2220 C   0  0  0  0  0  3  0  0  0  0  0  0
  -20.6920  -26.8980   22.6490 C   0  0  0  0  0  2  0  0  0  0  0  0
  -19.5860  -26.5740   21.6380 C   0  0  0  0  0  2  0  0  0  0  0  0
  -18.2080  -26.7230   22.2880 C   0  0  0  0  0  2  0  0  0  0  0  0
  -19.1550  -28.8400   23.3840 C   0  0  0  0  0  0  0  0  0  0  0  0
  -18.9410  -30.1080   23.9660 C   0  0  0  0  0  3  0  0  0  0  0  0
  -17.6380  -30.6100   24.1350 C   0  0  0  0  0  3  0  0  0  0  0  0
  -16.5320  -29.8430   23.7310 C   0  0  0  0  0  3  0  0  0  0  0  0
  -16.7310  -28.5780   23.1480 C   0  0  0  0  0  3  0  0  0  0  0  0
  -25.8820  -32.5010   23.8490 C   0  0  0  0  0  3  0  0  0  0  0  0
  -25.5770  -33.8970   24.1850 N   0  0  0  0  0  0  0  0  0  0  0  0
  -25.9070  -34.9500   23.4240 C   0  0  0  0  0  0  0  0  0  0  0  0
  -26.5710  -34.8470   22.3880 O   0  0  0  0  0  0  0  0  0  0  0  0
  -24.9800  -34.0560   24.9850 H   0  0  0  0  0  0  0  0  0  0  0  0
  -24.1720  -36.7380   23.0880 C   0  0  0  0  0  1  0  0  0  0  0  0
  -25.4220  -36.3370   23.8870 C   0  0  0  0  0  3  0  0  0  0  0  0
  -27.5650  -37.2170   24.6990 C   0  0  0  0  0  1  0  0  0  0  0  0
  -26.4520  -37.3910   23.7670 N   0  0  0  0  0  0  0  0  0  0  0  0
  -26.0460  -38.3100   23.9220 H   0  0  0  0  0  0  0  0  0  0  0  0
  -26.4170  -31.7230   25.1140 C   0  0  1  0  0  0  0  0  0  0  0  0
  -25.3340  -31.4810   26.1920 C   0  0  0  0  0  1  0  0  0  0  0  0
  -26.9990  -30.3480   24.7080 C   0  0  0  0  0  1  0  0  0  0  0  0
  -27.5780  -32.5140   25.7630 C   0  0  0  0  0  1  0  0  0  0  0  0
  -29.3080  -18.7720   18.4550 C   0  0  0  0  0  2  0  0  0  0  0  0
  -29.4480  -18.0190   19.7250 N   0  0  0  0  0  4  0  0  0  0  0  0
  -30.2830  -18.3240   20.1960 H   0  0  0  0  0  0  0  0  0  0  0  0
  -28.6660  -18.2370   20.3200 H   0  0  0  0  0  0  0  0  0  0  0  0
  -29.5220  -16.5510   19.5320 C   0  0  0  0  0  2  0  0  0  0  0  0
  -29.9240  -15.7680   20.8140 C   0  0  0  0  0  2  0  0  0  0  0  0
  -30.6750  -14.4670   20.4640 C   0  0  0  0  0  0  0  0  0  0  0  0
  -30.3880  -12.2800   19.3960 C   0  0  0  0  0  2  0  0  0  0  0  0
  -29.4570  -12.4910   18.1820 C   0  0  0  0  0  2  0  0  0  0  0  0
  -27.9760  -12.3740   18.5930 C   0  0  0  0  0  2  0  0  0  0  0  0
  -27.6310  -13.2210   19.8460 C   0  0  0  0  0  3  0  0  0  0  0  0
  -28.6820  -13.0100   20.9610 C   0  0  0  0  0  2  0  0  0  0  0  0
  -30.0150  -13.2810   20.4050 N   0  0  0  0  0  0  0  0  0  0  0  0
  -31.8380  -14.5920   20.0670 O   0  0  0  0  0  0  0  0  0  0  0  0
  -25.2280  -13.8550   20.5260 C   0  0  0  0  0  0  0  0  0  0  0  0
  -24.1550  -13.0910   20.8890 C   0  0  0  0  0  0  0  0  0  0  0  0
  -24.6120  -11.7370   20.8780 C   0  0  0  0  0  0  0  0  0  0  0  0
  -26.2730  -12.9660   20.3160 N   0  0  0  0  0  0  0  0  0  0  0  0
  -25.9040  -11.6890   20.5880 N   0  0  0  0  0  0  0  0  0  0  0  0
  -23.8850  -10.4770   21.0670 C   0  0  0  0  0  0  0  0  0  0  0  0
  -24.3160   -9.5050   21.9940 C   0  0  0  0  0  3  0  0  0  0  0  0
  -23.5840   -8.3130   22.1730 C   0  0  0  0  0  3  0  0  0  0  0  0
  -22.4060   -8.0820   21.4230 C   0  0  0  0  0  0  0  0  0  0  0  0
  -21.9950   -9.0440   20.4850 C   0  0  0  0  0  3  0  0  0  0  0  0
  -22.7270  -10.2280   20.3040 C   0  0  0  0  0  3  0  0  0  0  0  0
  -21.6450   -6.9420   21.5120 O   0  0  0  0  0  0  0  0  0  0  0  0
  -21.6130   -6.1870   22.6560 C   0  0  0  0  0  0  0  0  0  0  0  0
  -21.2330   -6.7370   23.9010 C   0  0  0  0  0  3  0  0  0  0  0  0
  -21.1520   -5.9100   25.0390 C   0  0  0  0  0  3  0  0  0  0  0  0
  -21.4320   -4.5340   24.9330 C   0  0  0  0  0  0  0  0  0  0  0  0
  -21.8070   -3.9860   23.6920 C   0  0  0  0  0  3  0  0  0  0  0  0
  -21.8940   -4.8100   22.5580 C   0  0  0  0  0  0  0  0  0  0  0  0
  -22.2320   -4.2720   21.3610 F   0  0  0  0  0  0  0  0  0  0  0  0
  -21.3470   -3.7370   26.0230 F   0  0  0  0  0  0  0  0  0  0  0  0
  -22.7560  -13.5700   21.1400 C   0  0  0  0  0  0  0  0  0  0  0  0
  -22.0190  -12.8830   22.0050 N   0  0  0  0  0  0  0  0  0  0  0  0
  -22.3270  -14.5940   20.6040 O   0  0  0  0  0  0  0  0  0  0  0  0
  -22.3780  -12.0500   22.4490 H   0  0  0  0  0  0  0  0  0  0  0  0
  -21.0810  -13.1930   22.2240 H   0  0  0  0  0  0  0  0  0  0  0  0
  -25.4000  -15.2250   20.3320 N   0  0  0  0  0  0  0  0  0  0  0  0
  -24.6350  -15.8830   20.4260 H   0  0  0  0  0  0  0  0  0  0  0  0
  -26.2430  -15.6560   19.9840 H   0  0  0  0  0  0  0  0  0  0  0  0
  1  3  2  0
  2  1  1  0
  3  7  1  0
  4  2  2  0
  4  6  1  0
  5  6  1  0
  6  3  1  0
  7  8  1  0
  8 10  1  0
  8 11  1  0
  9  7  2  0
 12 11  1  0
 13 12  1  0
 14 25  2  0
 15 13  1  0
 15 20  1  0
 16 24  1  0
 16 26  1  0
 17 23  1  0
 17 19  1  0
 18 24  1  0
 19 20  2  0
 19 18  1  0
 21 15  2  0
 22 21  1  0
 22 17  2  0
 23 16  1  0
 24 14  1  0
 26 28  2  0
 27 26  1  0
 29 27  1  0
 30 39  2  0
 30 35  1  0
 31 27  1  0
 31 35  1  0
 32 31  1  0
 33 34  1  0
 33 32  1  0
 34 30  1  0
 35 36  2  0
 36 37  1  0
 38 37  2  0
 39 38  1  0
 40 14  1  0
 40 41  1  0
 40 50  1  0
 41 44  1  0
 42 46  1  0
 42 41  1  0
 43 42  2  0
 46 45  1  0
 48 46  1  0
 48 49  1  0
 48 47  1  0
 50 53  1  1
 50 51  1  0
 52 50  1  0
 54  4  1  0
 54 55  1  0
 55 56  1  0
 55 57  1  0
 58 55  1  0
 58 59  1  0
 60 59  1  0
 61 66  1  0
 62 63  1  0
 62 61  1  0
 64 63  1  0
 64 71  1  0
 64 65  1  0
 66 60  1  0
 66 65  1  0
 67 60  2  0
 68 69  2  0
 69 88  1  0
 70 69  1  0
 70 73  1  0
 71 68  1  0
 71 72  1  0
 72 70  2  0
 73 74  1  0
 74 75  2  0
 76 79  1  0
 76 75  1  0
 77 76  2  0
 78 77  1  0
 78 73  2  0
 79 80  1  0
 80 81  1  0
 81 82  2  0
 83 82  1  0
 83 87  1  0
 84 83  2  0
 85 80  2  0
 85 84  1  0
 86 85  1  0
 88 89  1  0
 89 92  1  0
 89 91  1  0
 90 88  2  0
 93 94  1  0
 93 68  1  0
 95 93  1  0
M  ISO  4  12 101  13 101  59 100  60 100
M  END
>  <TORSDO>  (22) 
F 23

>  <SCORE>  (22) 
-12.854

>  <name>  (22) 
22

>  <ligand_id>  (22) 
22

>  <original_smiles>  (22) 
[H]c1c([H])c([H])c2c(c1[H])C([H])([H])C([H])([H])C([H])([H])C2([H])N([H])C(=O)C1([H])N(C(=O)C([H])(N([H])C(=O)C([H])(N([H])C([H])([H])[H])C([H])([H])[H])C(C([H])([H])[H])(C([H])([H])[H])C([H])([H])[H])C([H])([H])c2c([H])c(OC([H])([H])C([H])([H])N([H])C(=O)c3c([H])c([H])c(C([H])([H])[N+]([H])([H])C([H])([H])C([H])([H])C(=O)N4C([H])([H])C([H])([H])C([H])([H])C([H])(n5nc(-c6c([H])c([H])c(Oc7c([H])c([H])c(F)c([H])c7F)c([H])c6[H])c(C(=O)N([H])[H])c5N([H])[H])C4([H])[H])n3C([H])([H])[H])c([H])c([H])c2C1([H])[H]

>  <smiles>  (22) 
[H]c1c([H])c([H])c2c(c1[H])C([H])([H])C([H])([H])C([H])([H])C2([H])N([H])C(=O)C1([H])N(C(=O)C([H])(N([H])C(=O)C([H])(N([H])C([H])([H])[H])C([H])([H])[H])C(C([H])([H])[H])(C([H])([H])[H])C([H])([H])[H])C([H])([H])c2c([H])c(OC([H])([H])C([H])([H])N([H])C(=O)c3c([H])c([H])c(C([H])([H])[N+]([H])([H])C([H])([H])C([H])([H])C(=O)N4C([H])([H])C([H])([H])C([H])([H])C([H])(n5nc(-c6c([H])c([H])c(Oc7c([H])c([H])c(F)c([H])c7F)c([H])c6[H])c(C(=O)N([H])[H])c5N([H])[H])C4([H])[H])n3C([H])([H])[H])c([H])c([H])c2C1([H])[H]

$$$$
23:0:0
     RDKit          3D

 99107  0  0  1  0  0  0  0  0999 V2000
  -28.8480  -21.0320   19.4980 C   0  0  0  0  0  3  0  0  0  0  0  0
  -26.7940  -20.4520   18.3670 C   0  0  0  0  0  3  0  0  0  0  0  0
  -27.8870  -20.0620   19.1660 C   0  0  0  0  0  0  0  0  0  0  0  0
  -28.7810  -22.3470   18.9800 C   0  0  0  0  0  0  0  0  0  0  0  0
  -26.7000  -21.7650   17.8440 C   0  0  0  0  0  0  0  0  0  0  0  0
  -27.7050  -22.7380   18.1270 C   0  0  0  0  0  0  0  0  0  0  0  0
  -29.9300  -23.2770   19.3380 C   0  0  0  0  0  1  0  0  0  0  0  0
  -25.5270  -22.0690   16.9220 C   0  0  0  0  0  1  0  0  0  0  0  0
  -28.0720  -18.5990   19.5890 C   0  0  0  0  0  2  0  0  0  0  0  0
  -29.4160  -18.0130   19.0880 C   0  0  0  0  0  2  0  0  0  0  0  0
  -29.5510  -16.4690   18.9420 C   0  0  0  0  0  2  0  0  0  0  0  0
  -30.3440  -14.4290   19.9590 C   0  0  0  0  0  0  0  0  0  0  0  0
  -29.9990  -12.2150   18.9380 C   0  0  0  0  0  2  0  0  0  0  0  0
  -28.9610  -12.3650   17.8060 C   0  0  0  0  0  2  0  0  0  0  0  0
  -27.5340  -12.1920   18.3650 C   0  0  0  0  0  2  0  0  0  0  0  0
  -27.2750  -13.0390   19.6430 C   0  0  0  0  0  3  0  0  0  0  0  0
  -28.4370  -12.9130   20.6530 C   0  0  0  0  0  2  0  0  0  0  0  0
  -29.6790  -13.2410   19.9440 N   0  0  0  0  0  0  0  0  0  0  0  0
  -31.4780  -14.5310   19.4770 O   0  0  0  0  0  0  0  0  0  0  0  0
  -29.6000  -15.5570   20.1290 N   0  0  0  0  0  0  0  0  0  0  0  0
  -24.9590  -13.5440   20.6300 C   0  0  0  0  0  0  0  0  0  0  0  0
  -23.9520  -12.7290   21.0700 C   0  0  0  0  0  0  0  0  0  0  0  0
  -24.4320  -11.3950   20.9330 C   0  0  0  0  0  0  0  0  0  0  0  0
  -25.9910  -12.7020   20.2510 N   0  0  0  0  0  0  0  0  0  0  0  0
  -25.6860  -11.3970   20.4930 N   0  0  0  0  0  0  0  0  0  0  0  0
  -23.7530  -10.1090   21.1390 C   0  0  0  0  0  0  0  0  0  0  0  0
  -24.2360   -9.1600   22.0650 C   0  0  0  0  0  3  0  0  0  0  0  0
  -23.5580   -7.9380   22.2610 C   0  0  0  0  0  3  0  0  0  0  0  0
  -22.3790   -7.6540   21.5310 C   0  0  0  0  0  0  0  0  0  0  0  0
  -21.9130   -8.5920   20.5930 C   0  0  0  0  0  3  0  0  0  0  0  0
  -22.5930   -9.8060   20.3950 C   0  0  0  0  0  3  0  0  0  0  0  0
  -21.6620   -6.4850   21.6460 O   0  0  0  0  0  0  0  0  0  0  0  0
  -21.6100   -5.7850   22.8250 C   0  0  0  0  0  0  0  0  0  0  0  0
  -21.0900   -6.3580   24.0060 C   0  0  0  0  0  3  0  0  0  0  0  0
  -20.9840   -5.5820   25.1780 C   0  0  0  0  0  3  0  0  0  0  0  0
  -21.3830   -4.2320   25.1680 C   0  0  0  0  0  0  0  0  0  0  0  0
  -21.9040   -3.6580   23.9930 C   0  0  0  0  0  3  0  0  0  0  0  0
  -22.0100   -4.4320   22.8240 C   0  0  0  0  0  0  0  0  0  0  0  0
  -22.4830   -3.8660   21.6870 F   0  0  0  0  0  0  0  0  0  0  0  0
  -21.2730   -3.4870   26.2920 F   0  0  0  0  0  0  0  0  0  0  0  0
  -22.5800  -13.1560   21.5040 C   0  0  0  0  0  0  0  0  0  0  0  0
  -21.9560  -12.4130   22.4100 N   0  0  0  0  0  0  0  0  0  0  0  0
  -22.0710  -14.1870   21.0690 O   0  0  0  0  0  0  0  0  0  0  0  0
  -22.3770  -11.5690   22.7710 H   0  0  0  0  0  0  0  0  0  0  0  0
  -21.0380  -12.6790   22.7360 H   0  0  0  0  0  0  0  0  0  0  0  0
  -25.0750  -14.9250   20.5080 N   0  0  0  0  0  0  0  0  0  0  0  0
  -24.3050  -15.5450   20.7370 H   0  0  0  0  0  0  0  0  0  0  0  0
  -25.9120  -15.4220   20.2270 H   0  0  0  0  0  0  0  0  0  0  0  0
  -29.4820  -16.1650   21.4700 C   0  0  0  0  0  2  0  0  0  0  0  0
  -30.6660  -17.7350   23.1390 C   0  0  0  0  0  1  0  0  0  0  0  0
  -30.8280  -16.7120   22.0080 C   0  0  0  0  0  2  0  0  0  0  0  0
  -27.6740  -24.1150   17.4160 C   0  0  0  0  0  2  0  0  0  0  0  0
  -28.0330  -25.2860   18.2510 N   0  0  0  0  0  4  0  0  0  0  0  0
  -28.4230  -24.9180   19.1050 H   0  0  0  0  0  0  0  0  0  0  0  0
  -27.1900  -25.7920   18.4760 H   0  0  0  0  0  0  0  0  0  0  0  0
  -29.0310  -26.1940   17.6270 C   0  0  0  0  0  2  0  0  0  0  0  0
  -29.2910  -27.5090   18.4030 C   0  0  0  0  0  2  0  0  0  0  0  0
  -29.7250  -27.3740   19.8770 C   0  0  0  0  0  2  0  0  0  0  0  0
  -28.6940  -26.7940   20.6780 O   0  0  0  0  0  0  0  0  0  0  0  0
  -24.7110  -32.0300   23.4770 C   0  0  0  0  0  0  0  0  0  0  0  0
  -27.5220  -27.5080   20.7040 C   0  0  0  0  0  0  0  0  0  0  0  0
  -23.5760  -30.5230   21.8710 C   0  0  0  0  0  3  0  0  0  0  0  0
  -25.0980  -28.9390   20.5800 C   0  0  0  0  0  0  0  0  0  0  0  0
  -26.0970  -30.9240   21.7320 C   0  0  0  0  0  2  0  0  0  0  0  0
  -26.2270  -29.5260   21.1710 C   0  0  0  0  0  0  0  0  0  0  0  0
  -27.4410  -28.8160   21.2390 C   0  0  0  0  0  3  0  0  0  0  0  0
  -26.3710  -26.9150   20.1490 C   0  0  0  0  0  3  0  0  0  0  0  0
  -25.1620  -27.6300   20.0710 C   0  0  0  0  0  3  0  0  0  0  0  0
  -23.8400  -29.7710   20.5390 C   0  0  0  0  0  2  0  0  0  0  0  0
  -24.8110  -31.1760   22.4210 N   0  0  0  0  0  0  0  0  0  0  0  0
  -23.6110  -32.3110   23.9680 O   0  0  0  0  0  0  0  0  0  0  0  0
  -22.9090  -29.5440   22.8650 C   0  0  0  0  0  0  0  0  0  0  0  0
  -21.6160  -29.2590   22.6410 N   0  0  0  0  0  0  0  0  0  0  0  0
  -23.5530  -29.0420   23.7880 O   0  0  0  0  0  0  0  0  0  0  0  0
  -21.1550  -29.7180   21.8690 H   0  0  0  0  0  0  0  0  0  0  0  0
  -18.3170  -27.8110   22.9030 C   0  0  0  0  0  0  0  0  0  0  0  0
  -20.7930  -28.3370   23.4250 C   0  0  0  0  0  3  0  0  0  0  0  0
  -21.0820  -26.8710   23.0330 C   0  0  0  0  0  2  0  0  0  0  0  0
  -20.1400  -26.3380   21.9480 C   0  0  0  0  0  2  0  0  0  0  0  0
  -18.6840  -26.4220   22.4140 C   0  0  0  0  0  2  0  0  0  0  0  0
  -19.3100  -28.7170   23.3620 C   0  0  0  0  0  0  0  0  0  0  0  0
  -18.9200  -30.0130   23.7660 C   0  0  0  0  0  3  0  0  0  0  0  0
  -17.5680  -30.4050   23.7240 C   0  0  0  0  0  3  0  0  0  0  0  0
  -16.5870  -29.4960   23.2860 C   0  0  0  0  0  3  0  0  0  0  0  0
  -16.9620  -28.2030   22.8790 C   0  0  0  0  0  3  0  0  0  0  0  0
  -25.9690  -32.7110   24.1020 C   0  0  0  0  0  3  0  0  0  0  0  0
  -26.4740  -32.0020   25.4160 C   0  0  1  0  0  0  0  0  0  0  0  0
  -25.3530  -31.7210   26.4420 C   0  0  0  0  0  1  0  0  0  0  0  0
  -27.1530  -30.6560   25.0780 C   0  0  0  0  0  1  0  0  0  0  0  0
  -27.5430  -32.8820   26.1070 C   0  0  0  0  0  1  0  0  0  0  0  0
  -25.6300  -34.1150   24.3630 N   0  0  0  0  0  0  0  0  0  0  0  0
  -25.9490  -35.1380   23.5590 C   0  0  0  0  0  0  0  0  0  0  0  0
  -26.6350  -35.0010   22.5410 O   0  0  0  0  0  0  0  0  0  0  0  0
  -25.0250  -34.2970   25.1530 H   0  0  0  0  0  0  0  0  0  0  0  0
  -24.1810  -36.8630   23.1070 C   0  0  0  0  0  1  0  0  0  0  0  0
  -25.4260  -36.5340   23.9450 C   0  0  0  0  0  3  0  0  0  0  0  0
  -27.5320  -37.5110   24.7400 C   0  0  0  0  0  1  0  0  0  0  0  0
  -26.4320  -37.6060   23.7830 N   0  0  0  0  0  0  0  0  0  0  0  0
  -26.0020  -38.5210   23.8840 H   0  0  0  0  0  0  0  0  0  0  0  0
  2  3  2  0
  3  1  1  0
  3  9  1  0
  4  7  1  0
  4  1  2  0
  5  6  2  0
  5  2  1  0
  6  4  1  0
  8  5  1  0
 10  9  1  0
 11 10  1  0
 11 20  1  0
 12 20  1  0
 13 18  1  0
 14 15  1  0
 14 13  1  0
 16 15  1  0
 16 24  1  0
 16 17  1  0
 18 12  1  0
 18 17  1  0
 19 12  2  0
 20 49  1  0
 21 22  2  0
 22 41  1  0
 23 22  1  0
 23 26  1  0
 24 25  1  0
 24 21  1  0
 25 23  2  0
 26 27  1  0
 27 28  2  0
 29 32  1  0
 29 28  1  0
 30 29  2  0
 31 30  1  0
 31 26  2  0
 32 33  1  0
 33 34  1  0
 34 35  2  0
 36 35  1  0
 36 40  1  0
 37 36  2  0
 38 33  2  0
 38 37  1  0
 39 38  1  0
 41 42  1  0
 42 45  1  0
 42 44  1  0
 43 41  2  0
 46 21  1  0
 46 47  1  0
 48 46  1  0
 49 51  1  0
 51 50  1  0
 52  6  1  0
 52 53  1  0
 53 55  1  0
 53 54  1  0
 56 53  1  0
 56 57  1  0
 57 58  1  0
 58 59  1  0
 59 61  1  0
 60 71  2  0
 61 66  1  0
 62 70  1  0
 62 72  1  0
 63 65  1  0
 64 70  1  0
 65 66  2  0
 65 64  1  0
 67 61  2  0
 68 67  1  0
 68 63  2  0
 69 63  1  0
 69 62  1  0
 70 60  1  0
 72 74  2  0
 73 72  1  0
 75 73  1  0
 76 81  1  0
 77 73  1  0
 78 77  1  0
 79 80  1  0
 79 78  1  0
 80 76  1  0
 81 77  1  0
 81 82  2  0
 83 82  1  0
 84 83  2  0
 85 76  2  0
 85 84  1  0
 86 60  1  0
 86 91  1  0
 86 87  1  0
 87 90  1  1
 87 88  1  0
 89 87  1  0
 91 94  1  0
 92 96  1  0
 92 91  1  0
 93 92  2  0
 96 95  1  0
 98 99  1  0
 98 96  1  0
 98 97  1  0
M  ISO  4  12 100  20 100  58 101  59 101
M  END
>  <TORSDO>  (23) 
F 26

>  <SCORE>  (23) 
-10.556

>  <name>  (23) 
23

>  <ligand_id>  (23) 
23

>  <original_smiles>  (23) 
[H]c1c([H])c([H])c2c(c1[H])C([H])([H])C([H])([H])C([H])([H])C2([H])N([H])C(=O)C1([H])N(C(=O)C([H])(N([H])C(=O)C([H])(N([H])C([H])([H])[H])C([H])([H])[H])C(C([H])([H])[H])(C([H])([H])[H])C([H])([H])[H])C([H])([H])c2c([H])c(OC([H])([H])C([H])([H])C([H])([H])[N+]([H])([H])C([H])([H])c3c(C([H])([H])[H])c([H])c(C([H])([H])C([H])([H])C([H])([H])N(C(=O)N4C([H])([H])C([H])([H])C([H])([H])C([H])(n5nc(-c6c([H])c([H])c(Oc7c([H])c([H])c(F)c([H])c7F)c([H])c6[H])c(C(=O)N([H])[H])c5N([H])[H])C4([H])[H])C([H])([H])C([H])([H])C([H])([H])[H])c([H])c3C([H])([H])[H])c([H])c([H])c2C1([H])[H]

>  <smiles>  (23) 
[H]c1c([H])c([H])c2c(c1[H])C([H])([H])C([H])([H])C([H])([H])C2([H])N([H])C(=O)C1([H])N(C(=O)C([H])(N([H])C(=O)C([H])(N([H])C([H])([H])[H])C([H])([H])[H])C(C([H])([H])[H])(C([H])([H])[H])C([H])([H])[H])C([H])([H])c2c([H])c(OC([H])([H])C([H])([H])C([H])([H])[N+]([H])([H])C([H])([H])c3c(C([H])([H])[H])c([H])c(C([H])([H])C([H])([H])C([H])([H])N(C(=O)N4C([H])([H])C([H])([H])C([H])([H])C([H])(n5nc(-c6c([H])c([H])c(Oc7c([H])c([H])c(F)c([H])c7F)c([H])c6[H])c(C(=O)N([H])[H])c5N([H])[H])C4([H])[H])C([H])([H])C([H])([H])C([H])([H])[H])c([H])c3C([H])([H])[H])c([H])c([H])c2C1([H])[H]

$$$$
24:0:0
     RDKit          3D

 89 97  0  0  1  0  0  0  0  0999 V2000
  -28.5810  -19.6160   19.6280 C   0  0  0  0  0  0  0  0  0  0  0  0
  -30.6150  -20.7930   21.4160 C   0  0  0  0  0  2  0  0  0  0  0  0
  -30.2100  -19.2370   21.5190 C   0  0  0  0  0  2  0  0  0  0  0  0
  -29.5910  -22.0320   21.5280 C   0  0  0  0  0  2  0  0  0  0  0  0
  -29.7270  -18.4970   20.2120 C   0  0  0  0  0  3  0  0  0  0  0  0
  -28.8880  -22.5330   20.2100 C   0  0  0  0  0  3  0  0  0  0  0  0
  -28.3700  -21.0780   19.6840 N   0  0  0  0  0  0  0  0  0  0  0  0
  -27.6960  -19.0370   19.0000 O   0  0  0  0  0  0  0  0  0  0  0  0
  -27.5220  -21.2470   19.1600 H   0  0  0  0  0  0  0  0  0  0  0  0
  -30.4080  -15.5040   20.1510 C   0  0  0  0  0  0  0  0  0  0  0  0
  -30.4370  -13.0230   19.2960 C   0  0  0  0  0  2  0  0  0  0  0  0
  -29.4950  -12.7360   18.0970 C   0  0  0  0  0  2  0  0  0  0  0  0
  -28.0700  -12.4230   18.5810 C   0  0  0  0  0  2  0  0  0  0  0  0
  -27.6170  -13.3950   19.6980 C   0  0  0  0  0  3  0  0  0  0  0  0
  -28.6890  -13.6100   20.7900 C   0  0  0  0  0  2  0  0  0  0  0  0
  -29.8740  -14.1710   20.1120 N   0  0  0  0  0  0  0  0  0  0  0  0
  -31.6260  -15.5010   19.9100 O   0  0  0  0  0  0  0  0  0  0  0  0
  -29.6210  -16.7850   20.2650 N   0  0  0  0  0  0  0  0  0  0  0  0
  -28.6500  -16.5390   20.3870 H   0  0  0  0  0  0  0  0  0  0  0  0
  -25.2770  -13.9170   20.5510 C   0  0  0  0  0  0  0  0  0  0  0  0
  -24.2310  -13.1250   20.9350 C   0  0  0  0  0  0  0  0  0  0  0  0
  -24.7020  -11.7790   20.8520 C   0  0  0  0  0  0  0  0  0  0  0  0
  -26.3130  -13.0540   20.2470 N   0  0  0  0  0  0  0  0  0  0  0  0
  -25.9830  -11.7590   20.4970 N   0  0  0  0  0  0  0  0  0  0  0  0
  -23.9840  -10.5090   21.0320 C   0  0  0  0  0  0  0  0  0  0  0  0
  -24.4210   -9.5370   21.9570 C   0  0  0  0  0  3  0  0  0  0  0  0
  -23.7000   -8.3340   22.1270 C   0  0  0  0  0  3  0  0  0  0  0  0
  -22.5270   -8.0970   21.3720 C   0  0  0  0  0  0  0  0  0  0  0  0
  -22.1090   -9.0590   20.4340 C   0  0  0  0  0  3  0  0  0  0  0  0
  -22.8310  -10.2510   20.2630 C   0  0  0  0  0  3  0  0  0  0  0  0
  -21.7770   -6.9480   21.4510 O   0  0  0  0  0  0  0  0  0  0  0  0
  -21.6920   -6.2240   22.6130 C   0  0  0  0  0  0  0  0  0  0  0  0
  -21.1680   -6.7790   23.8010 C   0  0  0  0  0  3  0  0  0  0  0  0
  -21.0340   -5.9780   24.9530 C   0  0  0  0  0  3  0  0  0  0  0  0
  -21.4130   -4.6230   24.9170 C   0  0  0  0  0  0  0  0  0  0  0  0
  -21.9300   -4.0670   23.7330 C   0  0  0  0  0  3  0  0  0  0  0  0
  -22.0660   -4.8650   22.5840 C   0  0  0  0  0  0  0  0  0  0  0  0
  -22.5440   -4.3190   21.4400 F   0  0  0  0  0  0  0  0  0  0  0  0
  -21.2780   -3.8510   26.0210 F   0  0  0  0  0  0  0  0  0  0  0  0
  -22.8420  -13.5910   21.2570 C   0  0  0  0  0  0  0  0  0  0  0  0
  -22.1460  -12.8790   22.1360 N   0  0  0  0  0  0  0  0  0  0  0  0
  -22.3840  -14.6220   20.7650 O   0  0  0  0  0  0  0  0  0  0  0  0
  -22.5310  -12.0450   22.5550 H   0  0  0  0  0  0  0  0  0  0  0  0
  -21.2150  -13.1720   22.3950 H   0  0  0  0  0  0  0  0  0  0  0  0
  -25.4240  -15.2920   20.4010 N   0  0  0  0  0  0  0  0  0  0  0  0
  -24.6500  -15.9320   20.5460 H   0  0  0  0  0  0  0  0  0  0  0  0
  -26.2380  -15.7430   20.0020 H   0  0  0  0  0  0  0  0  0  0  0  0
  -27.9460  -24.1440   20.2030 C   0  0  0  0  0  2  0  0  0  0  0  0
  -28.1980  -25.8130   20.3240 O   0  0  0  0  0  0  0  0  0  0  0  0
  -24.6750  -31.9010   23.2890 C   0  0  0  0  0  0  0  0  0  0  0  0
  -27.2050  -26.9560   20.2690 C   0  0  0  0  0  0  0  0  0  0  0  0
  -23.4820  -30.5200   21.6390 C   0  0  0  0  0  3  0  0  0  0  0  0
  -24.9260  -28.9010   20.2170 C   0  0  0  0  0  0  0  0  0  0  0  0
  -26.0550  -30.6950   21.5120 C   0  0  0  0  0  2  0  0  0  0  0  0
  -26.1170  -29.2800   20.8480 C   0  0  0  0  0  0  0  0  0  0  0  0
  -27.2490  -28.3320   20.8440 C   0  0  0  0  0  3  0  0  0  0  0  0
  -25.9820  -26.7470   19.5900 C   0  0  0  0  0  3  0  0  0  0  0  0
  -24.8890  -27.6560   19.5670 C   0  0  0  0  0  3  0  0  0  0  0  0
  -23.7160  -29.8380   20.2620 C   0  0  0  0  0  2  0  0  0  0  0  0
  -24.7600  -31.0670   22.2000 N   0  0  0  0  0  0  0  0  0  0  0  0
  -23.5850  -32.1980   23.8040 O   0  0  0  0  0  0  0  0  0  0  0  0
  -22.7700  -29.5300   22.5990 C   0  0  0  0  0  0  0  0  0  0  0  0
  -21.4430  -29.3560   22.4490 N   0  0  0  0  0  0  0  0  0  0  0  0
  -23.4210  -28.9170   23.4490 O   0  0  0  0  0  0  0  0  0  0  0  0
  -20.9700  -29.9000   21.7420 H   0  0  0  0  0  0  0  0  0  0  0  0
  -18.0610  -28.1170   22.9010 C   0  0  0  0  0  0  0  0  0  0  0  0
  -20.6130  -28.4160   23.2100 C   0  0  0  0  0  3  0  0  0  0  0  0
  -20.7410  -26.9800   22.6490 C   0  0  0  0  0  2  0  0  0  0  0  0
  -19.6620  -26.6390   21.6160 C   0  0  0  0  0  2  0  0  0  0  0  0
  -18.2670  -26.7690   22.2330 C   0  0  0  0  0  2  0  0  0  0  0  0
  -19.1620  -28.8970   23.3460 C   0  0  0  0  0  0  0  0  0  0  0  0
  -18.9140  -30.1560   23.9350 C   0  0  0  0  0  3  0  0  0  0  0  0
  -17.5990  -30.6360   24.0810 C   0  0  0  0  0  3  0  0  0  0  0  0
  -16.5130  -29.8550   23.6510 C   0  0  0  0  0  3  0  0  0  0  0  0
  -16.7450  -28.5970   23.0670 C   0  0  0  0  0  3  0  0  0  0  0  0
  -25.9450  -32.5360   23.9340 C   0  0  0  0  0  3  0  0  0  0  0  0
  -25.6390  -33.9430   24.2520 N   0  0  0  0  0  0  0  0  0  0  0  0
  -25.9580  -34.9930   23.4820 C   0  0  0  0  0  0  0  0  0  0  0  0
  -26.5990  -34.8780   22.4340 O   0  0  0  0  0  0  0  0  0  0  0  0
  -25.0650  -34.1050   25.0650 H   0  0  0  0  0  0  0  0  0  0  0  0
  -24.2180  -36.7910   23.1860 C   0  0  0  0  0  1  0  0  0  0  0  0
  -25.4950  -36.3900   23.9440 C   0  0  0  0  0  3  0  0  0  0  0  0
  -27.6590  -37.2950   24.6740 C   0  0  0  0  0  1  0  0  0  0  0  0
  -26.5220  -37.4420   23.7690 N   0  0  0  0  0  0  0  0  0  0  0  0
  -26.1210  -38.3640   23.9110 H   0  0  0  0  0  0  0  0  0  0  0  0
  -26.4200  -31.7800   25.2360 C   0  0  1  0  0  0  0  0  0  0  0  0
  -25.3010  -31.5760   26.2840 C   0  0  0  0  0  1  0  0  0  0  0  0
  -26.9940  -30.3880   24.8900 C   0  0  0  0  0  1  0  0  0  0  0  0
  -27.5670  -32.5700   25.9110 C   0  0  0  0  0  1  0  0  0  0  0  0
  1  7  1  0
  1  5  1  0
  2  3  1  0
  2  4  1  0
  5 18  1  0
  5  3  1  0
  6 48  1  0
  6  4  1  0
  7  6  1  0
  8  1  2  0
  9  7  1  0
 10 18  1  0
 11 16  1  0
 12 13  1  0
 12 11  1  0
 14 13  1  0
 14 23  1  0
 14 15  1  0
 16 10  1  0
 16 15  1  0
 17 10  2  0
 18 19  1  0
 20 21  2  0
 21 40  1  0
 22 21  1  0
 22 25  1  0
 23 24  1  0
 23 20  1  0
 24 22  2  0
 25 26  1  0
 26 27  2  0
 28 31  1  0
 28 27  1  0
 29 28  2  0
 30 29  1  0
 30 25  2  0
 31 32  1  0
 32 33  1  0
 33 34  2  0
 35 34  1  0
 35 39  1  0
 36 35  2  0
 37 32  2  0
 37 36  1  0
 38 37  1  0
 40 41  1  0
 41 44  1  0
 41 43  1  0
 42 40  2  0
 45 46  1  0
 45 20  1  0
 47 45  1  0
 48 49  1  0
 50 61  2  0
 51 49  1  0
 51 56  1  0
 52 60  1  0
 52 62  1  0
 53 59  1  0
 53 55  1  0
 54 60  1  0
 55 54  1  0
 56 55  2  0
 57 51  2  0
 58 57  1  0
 58 53  2  0
 59 52  1  0
 60 50  1  0
 62 64  2  0
 63 62  1  0
 65 63  1  0
 66 75  2  0
 66 71  1  0
 67 63  1  0
 67 71  1  0
 68 67  1  0
 69 70  1  0
 69 68  1  0
 70 66  1  0
 71 72  2  0
 72 73  1  0
 74 73  2  0
 75 74  1  0
 76 50  1  0
 76 77  1  0
 76 86  1  0
 77 80  1  0
 78 82  1  0
 78 77  1  0
 79 78  2  0
 82 81  1  0
 84 85  1  0
 84 82  1  0
 84 83  1  0
 86 89  1  1
 86 87  1  0
 88 86  1  0
M  ISO  4  10 100  18 100  48 101  49 101
M  END
>  <TORSDO>  (24) 
F 17

>  <SCORE>  (24) 
-16.642

>  <name>  (24) 
24

>  <ligand_id>  (24) 
24

>  <original_smiles>  (24) 
[H]c1c([H])c([H])c2c(c1[H])C([H])([H])C([H])([H])C([H])([H])C2([H])N([H])C(=O)C1([H])N(C(=O)C([H])(N([H])C(=O)C([H])(N([H])C([H])([H])[H])C([H])([H])[H])C(C([H])([H])[H])(C([H])([H])[H])C([H])([H])[H])C([H])([H])c2c([H])c(OC([H])([H])C3([H])N([H])C(=O)C([H])(N([H])C(=O)N4C([H])([H])C([H])([H])C([H])([H])C([H])(n5nc(-c6c([H])c([H])c(Oc7c([H])c([H])c(F)c([H])c7F)c([H])c6[H])c(C(=O)N([H])[H])c5N([H])[H])C4([H])[H])C([H])([H])C([H])([H])C3([H])[H])c([H])c([H])c2C1([H])[H]

>  <smiles>  (24) 
[H]c1c([H])c([H])c2c(c1[H])C([H])([H])C([H])([H])C([H])([H])C2([H])N([H])C(=O)C1([H])N(C(=O)C([H])(N([H])C(=O)C([H])(N([H])C([H])([H])[H])C([H])([H])[H])C(C([H])([H])[H])(C([H])([H])[H])C([H])([H])[H])C([H])([H])c2c([H])c(OC([H])([H])C3([H])N([H])C(=O)C([H])(N([H])C(=O)N4C([H])([H])C([H])([H])C([H])([H])C([H])(n5nc(-c6c([H])c([H])c(Oc7c([H])c([H])c(F)c([H])c7F)c([H])c6[H])c(C(=O)N([H])[H])c5N([H])[H])C4([H])[H])C([H])([H])C([H])([H])C3([H])[H])c([H])c([H])c2C1([H])[H]

$$$$
25:0:0
     RDKit          3D

 98108  0  0  1  0  0  0  0  0999 V2000
  -31.1280  -22.3550   18.8220 C   0  0  0  0  0  2  0  0  0  0  0  0
  -30.7220  -17.2520   19.1250 C   0  0  0  0  0  2  0  0  0  0  0  0
  -28.4950  -17.4970   20.1310 C   0  0  0  0  0  2  0  0  0  0  0  0
  -28.8440  -21.1180   18.3000 C   0  0  0  0  0  2  0  0  0  0  0  0
  -30.0750  -18.4910   18.5360 C   0  0  0  0  0  3  0  0  0  0  0  0
  -28.6570  -18.5870   19.0730 C   0  0  0  0  0  3  0  0  0  0  0  0
  -30.3660  -19.8770   19.1280 C   0  0  0  0  0  3  0  0  0  0  0  0
  -30.3790  -21.1470   18.2700 C   0  0  0  0  0  3  0  0  0  0  0  0
  -29.9040  -16.9080   20.3970 C   0  0  0  0  0  3  0  0  0  0  0  0
  -28.8750  -20.0730   19.4330 C   0  0  1  0  0  0  0  0  0  0  0  0
  -28.4490  -20.5550   20.8180 C   0  0  0  0  0  1  0  0  0  0  0  0
  -30.6270  -14.4670   20.4370 C   0  0  0  0  0  0  0  0  0  0  0  0
  -30.3490  -12.3080   19.3110 C   0  0  0  0  0  2  0  0  0  0  0  0
  -29.4220  -12.5550   18.1030 C   0  0  0  0  0  2  0  0  0  0  0  0
  -27.9410  -12.4220   18.5170 C   0  0  0  0  0  2  0  0  0  0  0  0
  -27.6000  -13.2420   19.7900 C   0  0  0  0  0  3  0  0  0  0  0  0
  -28.6450  -12.9930   20.9040 C   0  0  0  0  0  2  0  0  0  0  0  0
  -29.9790  -13.2780   20.3470 N   0  0  0  0  0  0  0  0  0  0  0  0
  -31.7780  -14.6500   20.0330 O   0  0  0  0  0  0  0  0  0  0  0  0
  -29.8120  -15.4850   20.7530 N   0  0  0  0  0  0  0  0  0  0  0  0
  -28.9150  -15.1910   21.1090 H   0  0  0  0  0  0  0  0  0  0  0  0
  -25.1950  -13.8710   20.4650 C   0  0  0  0  0  0  0  0  0  0  0  0
  -24.1220  -13.1060   20.8330 C   0  0  0  0  0  0  0  0  0  0  0  0
  -24.5780  -11.7530   20.8200 C   0  0  0  0  0  0  0  0  0  0  0  0
  -26.2390  -12.9820   20.2540 N   0  0  0  0  0  0  0  0  0  0  0  0
  -25.8700  -11.7050   20.5240 N   0  0  0  0  0  0  0  0  0  0  0  0
  -23.8460  -10.4960   21.0150 C   0  0  0  0  0  0  0  0  0  0  0  0
  -24.2710   -9.5340   21.9590 C   0  0  0  0  0  3  0  0  0  0  0  0
  -23.5410   -8.3400   22.1420 C   0  0  0  0  0  3  0  0  0  0  0  0
  -22.3730   -8.1000   21.3800 C   0  0  0  0  0  0  0  0  0  0  0  0
  -21.9680   -9.0480   20.4250 C   0  0  0  0  0  3  0  0  0  0  0  0
  -22.6980  -10.2340   20.2400 C   0  0  0  0  0  3  0  0  0  0  0  0
  -21.6150   -6.9560   21.4700 O   0  0  0  0  0  0  0  0  0  0  0  0
  -21.5620   -6.2190   22.6270 C   0  0  0  0  0  0  0  0  0  0  0  0
  -21.1380   -6.7800   23.8510 C   0  0  0  0  0  3  0  0  0  0  0  0
  -21.0310   -5.9700   24.9980 C   0  0  0  0  0  3  0  0  0  0  0  0
  -21.3370   -4.5970   24.9230 C   0  0  0  0  0  0  0  0  0  0  0  0
  -21.7530   -4.0350   23.7030 C   0  0  0  0  0  3  0  0  0  0  0  0
  -21.8620   -4.8430   22.5580 C   0  0  0  0  0  0  0  0  0  0  0  0
  -22.2420   -4.2920   21.3800 F   0  0  0  0  0  0  0  0  0  0  0  0
  -21.2280   -3.8160   26.0220 F   0  0  0  0  0  0  0  0  0  0  0  0
  -22.7240  -13.5910   21.0890 C   0  0  0  0  0  0  0  0  0  0  0  0
  -21.9840  -12.9040   21.9530 N   0  0  0  0  0  0  0  0  0  0  0  0
  -22.2950  -14.6140   20.5570 O   0  0  0  0  0  0  0  0  0  0  0  0
  -22.3430  -12.0780   22.4080 H   0  0  0  0  0  0  0  0  0  0  0  0
  -21.0450  -13.2110   22.1630 H   0  0  0  0  0  0  0  0  0  0  0  0
  -25.3660  -15.2380   20.2730 N   0  0  0  0  0  0  0  0  0  0  0  0
  -24.5960  -15.8940   20.3500 H   0  0  0  0  0  0  0  0  0  0  0  0
  -26.2030  -15.6600   19.8930 H   0  0  0  0  0  0  0  0  0  0  0  0
  -31.2330  -23.5280   17.8280 C   0  0  0  0  0  2  0  0  0  0  0  0
  -33.3350  -24.4510   19.0210 C   0  0  0  0  0  1  0  0  0  0  0  0
  -31.9790  -24.7720   18.3700 C   0  0  0  0  0  3  0  0  0  0  0  0
  -31.1330  -25.5610   19.2940 N   0  0  0  0  0  4  0  0  0  0  0  0
  -30.5090  -24.9530   19.8020 H   0  0  0  0  0  0  0  0  0  0  0  0
  -31.7430  -25.9940   19.9700 H   0  0  0  0  0  0  0  0  0  0  0  0
  -30.3530  -26.6320   18.6320 C   0  0  0  0  0  2  0  0  0  0  0  0
  -29.5750  -27.4940   19.6340 C   0  0  0  0  0  2  0  0  0  0  0  0
  -28.4450  -26.7550   20.0900 O   0  0  0  0  0  0  0  0  0  0  0  0
  -24.6000  -31.8930   23.2370 C   0  0  0  0  0  0  0  0  0  0  0  0
  -27.2790  -27.4770   20.1790 C   0  0  0  0  0  0  0  0  0  0  0  0
  -23.3960  -30.4720   21.6040 C   0  0  0  0  0  3  0  0  0  0  0  0
  -24.8590  -28.9270   20.2000 C   0  0  0  0  0  0  0  0  0  0  0  0
  -25.9140  -30.8550   21.3970 C   0  0  0  0  0  2  0  0  0  0  0  0
  -26.0100  -29.4790   20.7780 C   0  0  0  0  0  0  0  0  0  0  0  0
  -27.2220  -28.7600   20.7740 C   0  0  0  0  0  3  0  0  0  0  0  0
  -26.1090  -26.9190   19.6300 C   0  0  0  0  0  3  0  0  0  0  0  0
  -24.8990  -27.6410   19.6290 C   0  0  0  0  0  3  0  0  0  0  0  0
  -23.6100  -29.7760   20.2320 C   0  0  0  0  0  2  0  0  0  0  0  0
  -24.6550  -31.0870   22.1400 N   0  0  0  0  0  0  0  0  0  0  0  0
  -23.5180  -32.1650   23.7750 O   0  0  0  0  0  0  0  0  0  0  0  0
  -22.7510  -29.4570   22.5730 C   0  0  0  0  0  0  0  0  0  0  0  0
  -21.4260  -29.2750   22.4490 N   0  0  0  0  0  0  0  0  0  0  0  0
  -23.4390  -28.8360   23.3870 O   0  0  0  0  0  0  0  0  0  0  0  0
  -20.9340  -29.8280   21.7620 H   0  0  0  0  0  0  0  0  0  0  0  0
  -18.0530  -28.0950   22.9640 C   0  0  0  0  0  0  0  0  0  0  0  0
  -20.6130  -28.3400   23.2250 C   0  0  0  0  0  3  0  0  0  0  0  0
  -20.7070  -26.9090   22.6510 C   0  0  0  0  0  2  0  0  0  0  0  0
  -19.6010  -26.5890   21.6410 C   0  0  0  0  0  2  0  0  0  0  0  0
  -18.2220  -26.7420   22.2900 C   0  0  0  0  0  2  0  0  0  0  0  0
  -19.1770  -28.8510   23.3880 C   0  0  0  0  0  0  0  0  0  0  0  0
  -18.9670  -30.1180   23.9760 C   0  0  0  0  0  3  0  0  0  0  0  0
  -17.6660  -30.6280   24.1430 C   0  0  0  0  0  3  0  0  0  0  0  0
  -16.5570  -29.8670   23.7370 C   0  0  0  0  0  3  0  0  0  0  0  0
  -16.7510  -28.6030   23.1540 C   0  0  0  0  0  3  0  0  0  0  0  0
  -25.8860  -32.5310   23.8510 C   0  0  0  0  0  3  0  0  0  0  0  0
  -25.5710  -33.9290   24.1750 N   0  0  0  0  0  0  0  0  0  0  0  0
  -25.9010  -34.9790   23.4120 C   0  0  0  0  0  0  0  0  0  0  0  0
  -26.5740  -34.8750   22.3820 O   0  0  0  0  0  0  0  0  0  0  0  0
  -24.9760  -34.0830   24.9760 H   0  0  0  0  0  0  0  0  0  0  0  0
  -24.1700  -36.7650   23.0410 C   0  0  0  0  0  1  0  0  0  0  0  0
  -25.4060  -36.3670   23.8620 C   0  0  0  0  0  3  0  0  0  0  0  0
  -27.5320  -37.2580   24.7070 C   0  0  0  0  0  1  0  0  0  0  0  0
  -26.4350  -37.4220   23.7560 N   0  0  0  0  0  0  0  0  0  0  0  0
  -26.0260  -38.3400   23.9030 H   0  0  0  0  0  0  0  0  0  0  0  0
  -26.4130  -31.7650   25.1250 C   0  0  1  0  0  0  0  0  0  0  0  0
  -25.3240  -31.5190   26.1950 C   0  0  0  0  0  1  0  0  0  0  0  0
  -27.0040  -30.3910   24.7310 C   0  0  0  0  0  1  0  0  0  0  0  0
  -27.5600  -32.5660   25.7850 C   0  0  0  0  0  1  0  0  0  0  0  0
  2  9  1  0
  3  9  1  0
  4 10  1  0
  5  6  1  0
  5  2  1  0
  5  7  1  0
  6 10  1  0
  6  3  1  0
  7 10  1  0
  8  4  1  0
  8  1  1  0
  8  7  1  0
  9 20  1  0
 10 11  1  1
 12 20  1  0
 13 18  1  0
 14 15  1  0
 14 13  1  0
 15 16  1  0
 16 25  1  0
 16 17  1  0
 18 12  1  0
 18 17  1  0
 19 12  2  0
 20 21  1  0
 22 23  2  0
 23 42  1  0
 24 23  1  0
 24 27  1  0
 25 22  1  0
 25 26  1  0
 26 24  2  0
 27 28  1  0
 28 29  2  0
 30 33  1  0
 30 29  1  0
 31 30  2  0
 32 31  1  0
 32 27  2  0
 33 34  1  0
 34 35  1  0
 35 36  2  0
 37 36  1  0
 37 41  1  0
 38 37  2  0
 39 34  2  0
 39 38  1  0
 40 39  1  0
 42 43  1  0
 43 46  1  0
 43 45  1  0
 44 42  2  0
 47 48  1  0
 47 22  1  0
 49 47  1  0
 50 52  1  0
 50  1  1  0
 52 51  1  0
 52 53  1  0
 53 54  1  0
 53 55  1  0
 56 53  1  0
 56 57  1  0
 57 58  1  0
 58 60  1  0
 59 70  2  0
 59 85  1  0
 60 65  1  0
 61 69  1  0
 61 71  1  0
 62 68  1  0
 62 64  1  0
 63 69  1  0
 64 63  1  0
 65 64  2  0
 66 60  2  0
 67 66  1  0
 67 62  2  0
 68 61  1  0
 69 59  1  0
 71 73  2  0
 72 71  1  0
 72 76  1  0
 74 72  1  0
 75 84  2  0
 75 80  1  0
 76 80  1  0
 77 76  1  0
 78 79  1  0
 78 77  1  0
 79 75  1  0
 80 81  2  0
 81 82  1  0
 83 82  2  0
 84 83  1  0
 85 86  1  0
 85 95  1  0
 86 89  1  0
 87 91  1  0
 87 86  1  0
 88 87  2  0
 90 91  1  0
 93 91  1  0
 93 94  1  0
 93 92  1  0
 95 98  1  1
 95 96  1  0
 97 95  1  0
M  ISO  4  12 100  20 100  57 101  58 101
M  END
>  <TORSDO>  (25) 
F 22

>  <SCORE>  (25) 
-13.333

>  <name>  (25) 
25

>  <ligand_id>  (25) 
25

>  <original_smiles>  (25) 
[H]c1c([H])c([H])c2c(c1[H])C([H])([H])C([H])([H])C([H])([H])C2([H])N([H])C(=O)C1([H])N(C(=O)C([H])(N([H])C(=O)C([H])(N([H])C([H])([H])[H])C([H])([H])[H])C(C([H])([H])[H])(C([H])([H])[H])C([H])([H])[H])C([H])([H])c2c([H])c(OC([H])([H])C([H])([H])[N+]([H])([H])C([H])(C([H])([H])[H])C([H])([H])C([H])([H])C3([H])C([H])([H])C4(C([H])([H])[H])C5([H])C([H])([H])C([H])(N([H])C(=O)N6C([H])([H])C([H])([H])C([H])([H])C([H])(n7nc(-c8c([H])c([H])c(Oc9c([H])c([H])c(F)c([H])c9F)c([H])c8[H])c(C(=O)N([H])[H])c7N([H])[H])C6([H])[H])C([H])([H])C5([H])C34[H])c([H])c([H])c2C1([H])[H]

>  <smiles>  (25) 
[H]c1c([H])c([H])c2c(c1[H])C([H])([H])C([H])([H])C([H])([H])C2([H])N([H])C(=O)C1([H])N(C(=O)C([H])(N([H])C(=O)C([H])(N([H])C([H])([H])[H])C([H])([H])[H])C(C([H])([H])[H])(C([H])([H])[H])C([H])([H])[H])C([H])([H])c2c([H])c(OC([H])([H])C([H])([H])[N+]([H])([H])C([H])(C([H])([H])[H])C([H])([H])C([H])([H])C3([H])C([H])([H])C4(C([H])([H])[H])C5([H])C([H])([H])C([H])(N([H])C(=O)N6C([H])([H])C([H])([H])C([H])([H])C([H])(n7nc(-c8c([H])c([H])c(Oc9c([H])c([H])c(F)c([H])c9F)c([H])c8[H])c(C(=O)N([H])[H])c7N([H])[H])C6([H])[H])C([H])([H])C5([H])C34[H])c([H])c([H])c2C1([H])[H]

$$$$
26:0:0
     RDKit          3D

 95103  0  0  1  0  0  0  0  0999 V2000
  -26.4890  -23.9990   16.4980 C   0  0  0  0  0  3  0  0  0  0  0  0
  -26.8960  -22.6590   16.5670 C   0  0  0  0  0  3  0  0  0  0  0  0
  -27.2250  -24.9780   17.1790 C   0  0  0  0  0  3  0  0  0  0  0  0
  -28.0120  -22.2770   17.3420 C   0  0  0  0  0  0  0  0  0  0  0  0
  -28.3760  -24.6350   17.9180 C   0  0  0  0  0  0  0  0  0  0  0  0
  -28.7900  -23.2750   18.0060 C   0  0  0  0  0  0  0  0  0  0  0  0
  -30.0280  -22.9040   18.8280 C   0  0  0  0  0  1  0  0  0  0  0  0
  -28.2540  -20.8020   17.4910 C   0  0  0  0  0  0  0  0  0  0  0  0
  -28.1250  -20.3620   18.7460 N   0  0  0  0  0  0  0  0  0  0  0  0
  -28.4320  -20.0680   16.5170 O   0  0  0  0  0  0  0  0  0  0  0  0
  -27.9170  -21.0700   19.4360 H   0  0  0  0  0  0  0  0  0  0  0  0
  -28.0770  -18.9760   19.1820 C   0  0  0  0  0  2  0  0  0  0  0  0
  -29.1990  -18.7010   20.1990 C   0  0  0  0  0  2  0  0  0  0  0  0
  -29.1420  -17.2640   20.7280 C   0  0  0  0  0  2  0  0  0  0  0  0
  -30.3000  -16.9020   21.6760 C   0  0  0  0  0  2  0  0  0  0  0  0
  -30.3740  -15.3890   21.9980 C   0  0  0  0  0  2  0  0  0  0  0  0
  -30.9380  -14.5130   20.8510 C   0  0  0  0  0  0  0  0  0  0  0  0
  -30.5910  -12.7410   19.1570 C   0  0  0  0  0  2  0  0  0  0  0  0
  -29.6220  -13.2180   18.0530 C   0  0  0  0  0  2  0  0  0  0  0  0
  -28.1490  -13.0320   18.4750 C   0  0  0  0  0  2  0  0  0  0  0  0
  -27.8620  -13.5590   19.9060 C   0  0  0  0  0  3  0  0  0  0  0  0
  -28.9180  -12.9960   20.8820 C   0  0  0  0  0  2  0  0  0  0  0  0
  -30.2420  -13.4300   20.4090 N   0  0  0  0  0  0  0  0  0  0  0  0
  -32.0110  -14.8500   20.3320 O   0  0  0  0  0  0  0  0  0  0  0  0
  -25.4140  -14.0750   20.5180 C   0  0  0  0  0  0  0  0  0  0  0  0
  -24.3600  -13.2620   20.8430 C   0  0  0  0  0  0  0  0  0  0  0  0
  -24.8710  -11.9290   20.8190 C   0  0  0  0  0  0  0  0  0  0  0  0
  -26.5000  -13.2340   20.3290 N   0  0  0  0  0  0  0  0  0  0  0  0
  -26.1730  -11.9380   20.5610 N   0  0  0  0  0  0  0  0  0  0  0  0
  -24.1840  -10.6380   20.9700 C   0  0  0  0  0  0  0  0  0  0  0  0
  -24.5760   -9.6990   21.9500 C   0  0  0  0  0  3  0  0  0  0  0  0
  -23.8870   -8.4740   22.0870 C   0  0  0  0  0  3  0  0  0  0  0  0
  -22.7930   -8.1810   21.2400 C   0  0  0  0  0  0  0  0  0  0  0  0
  -22.4190   -9.1070   20.2510 C   0  0  0  0  0  3  0  0  0  0  0  0
  -23.1100  -10.3240   20.1130 C   0  0  0  0  0  3  0  0  0  0  0  0
  -22.0790   -7.0090   21.2880 O   0  0  0  0  0  0  0  0  0  0  0  0
  -21.8710   -6.3370   22.4640 C   0  0  0  0  0  0  0  0  0  0  0  0
  -21.2010   -6.9340   23.5530 C   0  0  0  0  0  3  0  0  0  0  0  0
  -20.9530   -6.1870   24.7210 C   0  0  0  0  0  3  0  0  0  0  0  0
  -21.3630   -4.8420   24.7990 C   0  0  0  0  0  0  0  0  0  0  0  0
  -22.0230   -4.2430   23.7100 C   0  0  0  0  0  3  0  0  0  0  0  0
  -22.2770   -4.9890   22.5460 C   0  0  0  0  0  0  0  0  0  0  0  0
  -22.8990   -4.4020   21.4950 F   0  0  0  0  0  0  0  0  0  0  0  0
  -21.1150   -4.1190   25.9170 F   0  0  0  0  0  0  0  0  0  0  0  0
  -22.9350  -13.6900   21.0610 C   0  0  0  0  0  0  0  0  0  0  0  0
  -22.2070  -12.9750   21.9110 N   0  0  0  0  0  0  0  0  0  0  0  0
  -22.4710  -14.6890   20.5130 O   0  0  0  0  0  0  0  0  0  0  0  0
  -22.5930  -12.1670   22.3790 H   0  0  0  0  0  0  0  0  0  0  0  0
  -21.2520  -13.2420   22.1030 H   0  0  0  0  0  0  0  0  0  0  0  0
  -25.5410  -15.4520   20.3560 N   0  0  0  0  0  0  0  0  0  0  0  0
  -24.7560  -16.0900   20.4150 H   0  0  0  0  0  0  0  0  0  0  0  0
  -26.4020  -15.9040   20.0830 H   0  0  0  0  0  0  0  0  0  0  0  0
  -29.0890  -25.7740   18.6430 C   0  0  0  0  0  2  0  0  0  0  0  0
  -28.8870  -25.7210   20.1690 C   0  0  0  0  0  2  0  0  0  0  0  0
  -28.7720  -27.0330   20.7250 O   0  0  0  0  0  0  0  0  0  0  0  0
  -24.7640  -32.1330   23.6330 C   0  0  0  0  0  0  0  0  0  0  0  0
  -27.5590  -27.6930   20.6720 C   0  0  0  0  0  0  0  0  0  0  0  0
  -23.6240  -30.6930   21.9810 C   0  0  0  0  0  3  0  0  0  0  0  0
  -25.1340  -29.1570   20.6170 C   0  0  0  0  0  0  0  0  0  0  0  0
  -26.1510  -31.0730   21.8580 C   0  0  0  0  0  2  0  0  0  0  0  0
  -26.2670  -29.6990   21.2360 C   0  0  0  0  0  0  0  0  0  0  0  0
  -27.4750  -28.9710   21.2690 C   0  0  0  0  0  3  0  0  0  0  0  0
  -26.4030  -27.1630   20.0480 C   0  0  0  0  0  3  0  0  0  0  0  0
  -25.1970  -27.8840   20.0260 C   0  0  0  0  0  3  0  0  0  0  0  0
  -23.8780  -29.9970   20.6180 C   0  0  0  0  0  2  0  0  0  0  0  0
  -24.8620  -31.3180   22.5470 N   0  0  0  0  0  0  0  0  0  0  0  0
  -23.6650  -32.4030   24.1350 O   0  0  0  0  0  0  0  0  0  0  0  0
  -22.9570  -29.6760   22.9350 C   0  0  0  0  0  0  0  0  0  0  0  0
  -21.6780  -29.3620   22.6750 N   0  0  0  0  0  0  0  0  0  0  0  0
  -23.5940  -29.1700   23.8630 O   0  0  0  0  0  0  0  0  0  0  0  0
  -21.2250  -29.8250   21.9000 H   0  0  0  0  0  0  0  0  0  0  0  0
  -18.4160  -27.8190   22.8210 C   0  0  0  0  0  0  0  0  0  0  0  0
  -20.8610  -28.4060   23.4190 C   0  0  0  0  0  3  0  0  0  0  0  0
  -21.2010  -26.9520   23.0160 C   0  0  0  0  0  2  0  0  0  0  0  0
  -20.3050  -26.4110   21.8980 C   0  0  0  0  0  2  0  0  0  0  0  0
  -18.8330  -26.4460   22.3220 C   0  0  0  0  0  2  0  0  0  0  0  0
  -19.3690  -28.7460   23.3220 C   0  0  0  0  0  0  0  0  0  0  0  0
  -18.9310  -30.0220   23.7380 C   0  0  0  0  0  3  0  0  0  0  0  0
  -17.5710  -30.3760   23.6650 C   0  0  0  0  0  3  0  0  0  0  0  0
  -16.6300  -29.4500   23.1840 C   0  0  0  0  0  3  0  0  0  0  0  0
  -17.0510  -28.1750   22.7670 C   0  0  0  0  0  3  0  0  0  0  0  0
  -26.0240  -32.7890   24.2790 C   0  0  0  0  0  3  0  0  0  0  0  0
  -25.7290  -34.2150   24.4710 N   0  0  0  0  0  0  0  0  0  0  0  0
  -26.1450  -35.1940   23.6570 C   0  0  0  0  0  0  0  0  0  0  0  0
  -26.8880  -34.9930   22.6920 O   0  0  0  0  0  0  0  0  0  0  0  0
  -25.0790  -34.4480   25.2080 H   0  0  0  0  0  0  0  0  0  0  0  0
  -24.5070  -36.9890   23.0130 C   0  0  0  0  0  1  0  0  0  0  0  0
  -25.6600  -36.6240   23.9610 C   0  0  0  0  0  3  0  0  0  0  0  0
  -27.7360  -37.5260   24.9130 C   0  0  0  0  0  1  0  0  0  0  0  0
  -26.7310  -37.6410   23.8600 N   0  0  0  0  0  0  0  0  0  0  0  0
  -26.3410  -38.5810   23.8960 H   0  0  0  0  0  0  0  0  0  0  0  0
  -26.4450  -32.1180   25.6440 C   0  0  1  0  0  0  0  0  0  0  0  0
  -25.2710  -31.9300   26.6340 C   0  0  0  0  0  1  0  0  0  0  0  0
  -27.0770  -30.7280   25.3960 C   0  0  0  0  0  1  0  0  0  0  0  0
  -27.5290  -32.9780   26.3370 C   0  0  0  0  0  1  0  0  0  0  0  0
  1  2  2  0
  1  3  1  0
  2  4  1  0
  3  5  2  0
  4  8  1  0
  4  6  2  0
  5  6  1  0
  5 53  1  0
  6  7  1  0
  8  9  1  0
  9 12  1  0
  9 11  1  0
 10  8  2  0
 12 13  1  0
 13 14  1  0
 14 15  1  0
 15 16  1  0
 17 16  1  0
 18 23  1  0
 19 20  1  0
 19 18  1  0
 21 20  1  0
 21 28  1  0
 21 22  1  0
 23 17  1  0
 23 22  1  0
 24 17  2  0
 25 26  2  0
 26 45  1  0
 27 26  1  0
 27 30  1  0
 28 25  1  0
 28 29  1  0
 29 27  2  0
 30 31  1  0
 31 32  2  0
 33 36  1  0
 33 32  1  0
 34 33  2  0
 35 34  1  0
 35 30  2  0
 36 37  1  0
 37 42  2  0
 37 38  1  0
 38 39  2  0
 39 40  1  0
 40 44  1  0
 41 40  2  0
 42 41  1  0
 43 42  1  0
 45 46  1  0
 46 49  1  0
 46 48  1  0
 47 45  2  0
 50 51  1  0
 50 25  1  0
 52 50  1  0
 53 54  1  0
 54 55  1  0
 56 67  2  0
 57 55  1  0
 57 62  1  0
 58 66  1  0
 58 68  1  0
 59 65  1  0
 59 61  1  0
 60 66  1  0
 61 62  2  0
 61 60  1  0
 63 57  2  0
 64 63  1  0
 64 59  2  0
 65 58  1  0
 66 56  1  0
 68 70  2  0
 69 68  1  0
 71 69  1  0
 72 77  1  0
 73 69  1  0
 74 73  1  0
 75 76  1  0
 75 74  1  0
 76 72  1  0
 77 73  1  0
 77 78  2  0
 79 78  1  0
 80 79  2  0
 81 72  2  0
 81 80  1  0
 82 56  1  0
 82 83  1  0
 82 92  1  0
 83 86  1  0
 84 88  1  0
 84 83  1  0
 85 84  2  0
 88 87  1  0
 90 91  1  0
 90 88  1  0
 90 89  1  0
 92 95  1  1
 92 93  1  0
 94 92  1  0
M  ISO  4  16 100  17 100  54 101  55 101
M  END
>  <TORSDO>  (26) 
F 24

>  <SCORE>  (26) 
-9.516

>  <name>  (26) 
26

>  <ligand_id>  (26) 
26

>  <original_smiles>  (26) 
[H]c1c([H])c(C(=O)N([H])C([H])([H])C([H])([H])C([H])([H])C([H])([H])C([H])([H])C(=O)N2C([H])([H])C([H])([H])C([H])([H])C([H])(n3nc(-c4c([H])c([H])c(Oc5c([H])c([H])c(F)c([H])c5F)c([H])c4[H])c(C(=O)N([H])[H])c3N([H])[H])C2([H])[H])c(C([H])([H])[H])c(C([H])([H])C([H])([H])Oc2c([H])c([H])c3c(c2[H])C([H])([H])N(C(=O)C([H])(N([H])C(=O)C([H])(N([H])C([H])([H])[H])C([H])([H])[H])C(C([H])([H])[H])(C([H])([H])[H])C([H])([H])[H])C([H])(C(=O)N([H])C2([H])c4c([H])c([H])c([H])c([H])c4C([H])([H])C([H])([H])C2([H])[H])C3([H])[H])c1[H]

>  <smiles>  (26) 
[H]c1c([H])c(C(=O)N([H])C([H])([H])C([H])([H])C([H])([H])C([H])([H])C([H])([H])C(=O)N2C([H])([H])C([H])([H])C([H])([H])C([H])(n3nc(-c4c([H])c([H])c(Oc5c([H])c([H])c(F)c([H])c5F)c([H])c4[H])c(C(=O)N([H])[H])c3N([H])[H])C2([H])[H])c(C([H])([H])[H])c(C([H])([H])C([H])([H])Oc2c([H])c([H])c3c(c2[H])C([H])([H])N(C(=O)C([H])(N([H])C(=O)C([H])(N([H])C([H])([H])[H])C([H])([H])[H])C(C([H])([H])[H])(C([H])([H])[H])C([H])([H])[H])C([H])(C(=O)N([H])C2([H])c4c([H])c([H])c([H])c([H])c4C([H])([H])C([H])([H])C2([H])[H])C3([H])[H])c1[H]

$$$$
27:0:0
     RDKit          3D

 92101  0  0  1  0  0  0  0  0999 V2000
  -29.4780  -20.6330   19.6190 N   0  0  0  0  0  4  0  0  0  0  0  0
  -28.4820  -20.4880   19.6640 H   0  0  0  0  0  0  0  0  0  0  0  0
  -29.7080  -20.5910   18.6390 H   0  0  0  0  0  0  0  0  0  0  0  0
  -28.8500  -16.6930   19.7890 C   0  0  0  0  0  0  0  0  0  0  0  0
  -28.1280  -17.8050   20.5770 C   0  0  0  0  0  2  0  0  0  0  0  0
  -29.9010  -17.8360   22.3220 C   0  0  0  0  0  2  0  0  0  0  0  0
  -30.6720  -16.6840   21.6150 C   0  0  0  0  0  2  0  0  0  0  0  0
  -30.7670  -18.0360   19.5080 C   0  0  0  0  0  2  0  0  0  0  0  0
  -29.1400  -18.7220   21.3110 C   0  0  0  0  0  3  0  0  0  0  0  0
  -30.1350  -19.3700   20.3070 C   0  0  0  0  0  3  0  0  0  0  0  0
  -30.3530  -16.5290   20.0950 C   0  0  2  0  0  0  0  0  0  0  0  0
  -28.3280  -16.2310   18.7750 O   0  0  0  0  0  0  0  0  0  0  0  0
  -30.9640  -15.0450   19.5630 C   0  0  0  0  0  0  0  0  0  0  0  0
  -30.6060  -12.7550   18.4980 C   0  0  0  0  0  2  0  0  0  0  0  0
  -29.5150  -12.8180   17.4000 C   0  0  0  0  0  2  0  0  0  0  0  0
  -28.1120  -12.5990   18.0010 C   0  0  0  0  0  2  0  0  0  0  0  0
  -27.8940  -13.4330   19.2850 C   0  0  0  0  0  3  0  0  0  0  0  0
  -29.0990  -13.3880   20.2540 C   0  0  0  0  0  2  0  0  0  0  0  0
  -30.3010  -13.8060   19.5140 N   0  0  0  0  0  0  0  0  0  0  0  0
  -32.1070  -15.0420   19.0880 O   0  0  0  0  0  0  0  0  0  0  0  0
  -25.6780  -14.0650   20.3910 C   0  0  0  0  0  0  0  0  0  0  0  0
  -24.6380  -13.3140   20.8560 C   0  0  0  0  0  0  0  0  0  0  0  0
  -25.0190  -11.9520   20.6520 C   0  0  0  0  0  0  0  0  0  0  0  0
  -26.6280  -13.1620   19.9440 N   0  0  0  0  0  0  0  0  0  0  0  0
  -26.2500  -11.8820   20.1610 N   0  0  0  0  0  0  0  0  0  0  0  0
  -24.2560  -10.7170   20.8310 C   0  0  0  0  0  0  0  0  0  0  0  0
  -24.6880   -9.7090   21.7210 C   0  0  0  0  0  3  0  0  0  0  0  0
  -23.9270   -8.5330   21.8910 C   0  0  0  0  0  3  0  0  0  0  0  0
  -22.7190   -8.3610   21.1740 C   0  0  0  0  0  0  0  0  0  0  0  0
  -22.3060   -9.3570   20.2720 C   0  0  0  0  0  3  0  0  0  0  0  0
  -23.0680  -10.5240   20.0990 C   0  0  0  0  0  3  0  0  0  0  0  0
  -21.9260   -7.2430   21.2610 O   0  0  0  0  0  0  0  0  0  0  0  0
  -21.8010   -6.5410   22.4330 C   0  0  0  0  0  0  0  0  0  0  0  0
  -21.3170   -7.1450   23.6150 C   0  0  0  0  0  3  0  0  0  0  0  0
  -21.1410   -6.3710   24.7780 C   0  0  0  0  0  3  0  0  0  0  0  0
  -21.4300   -4.9930   24.7590 C   0  0  0  0  0  0  0  0  0  0  0  0
  -21.9040   -4.3900   23.5820 C   0  0  0  0  0  3  0  0  0  0  0  0
  -22.0860   -5.1610   22.4210 C   0  0  0  0  0  0  0  0  0  0  0  0
  -22.5250   -4.5690   21.2840 F   0  0  0  0  0  0  0  0  0  0  0  0
  -21.2500   -4.2470   25.8750 F   0  0  0  0  0  0  0  0  0  0  0  0
  -23.3200  -13.8290   21.3550 C   0  0  0  0  0  0  0  0  0  0  0  0
  -22.6840  -13.1090   22.2700 N   0  0  0  0  0  0  0  0  0  0  0  0
  -22.8730  -14.9110   20.9680 O   0  0  0  0  0  0  0  0  0  0  0  0
  -23.0550  -12.2290   22.5990 H   0  0  0  0  0  0  0  0  0  0  0  0
  -21.8040  -13.4390   22.6470 H   0  0  0  0  0  0  0  0  0  0  0  0
  -25.8720  -15.4350   20.2690 N   0  0  0  0  0  0  0  0  0  0  0  0
  -25.0650  -16.0330   20.4080 H   0  0  0  0  0  0  0  0  0  0  0  0
  -26.4770  -15.7720   19.5320 H   0  0  0  0  0  0  0  0  0  0  0  0
  -29.7150  -22.1340   20.0560 C   0  0  0  0  0  2  0  0  0  0  0  0
  -28.5330  -23.3310   20.0890 C   0  0  0  0  0  2  0  0  0  0  0  0
  -28.6220  -24.8660   19.4300 C   0  0  0  0  0  2  0  0  0  0  0  0
  -28.4390  -26.2580   20.0670 O   0  0  0  0  0  0  0  0  0  0  0  0
  -24.6030  -31.7040   23.0800 C   0  0  0  0  0  0  0  0  0  0  0  0
  -27.3150  -27.1410   19.9690 C   0  0  0  0  0  0  0  0  0  0  0  0
  -23.4360  -30.2930   21.4230 C   0  0  0  0  0  3  0  0  0  0  0  0
  -24.9250  -28.7800   19.9720 C   0  0  0  0  0  0  0  0  0  0  0  0
  -25.9800  -30.6350   21.2720 C   0  0  0  0  0  2  0  0  0  0  0  0
  -26.0860  -29.2660   20.5830 C   0  0  0  0  0  0  0  0  0  0  0  0
  -27.2760  -28.4590   20.5670 C   0  0  0  0  0  3  0  0  0  0  0  0
  -26.1210  -26.7320   19.3360 C   0  0  0  0  0  3  0  0  0  0  0  0
  -24.9490  -27.5240   19.3430 C   0  0  0  0  0  3  0  0  0  0  0  0
  -23.6690  -29.6380   20.0360 C   0  0  0  0  0  2  0  0  0  0  0  0
  -24.6880  -30.9020   21.9760 N   0  0  0  0  0  0  0  0  0  0  0  0
  -23.5130  -31.9550   23.6160 O   0  0  0  0  0  0  0  0  0  0  0  0
  -22.7920  -29.2560   22.3750 C   0  0  0  0  0  0  0  0  0  0  0  0
  -21.4690  -29.0450   22.2450 N   0  0  0  0  0  0  0  0  0  0  0  0
  -23.4820  -28.6440   23.1950 O   0  0  0  0  0  0  0  0  0  0  0  0
  -20.9660  -29.5930   21.5600 H   0  0  0  0  0  0  0  0  0  0  0  0
  -18.1280  -27.7330   22.7310 C   0  0  0  0  0  0  0  0  0  0  0  0
  -20.6770  -28.0800   23.0100 C   0  0  0  0  0  3  0  0  0  0  0  0
  -20.8270  -26.6540   22.4320 C   0  0  0  0  0  2  0  0  0  0  0  0
  -19.7420  -26.2970   21.4110 C   0  0  0  0  0  2  0  0  0  0  0  0
  -18.3520  -26.3950   22.0480 C   0  0  0  0  0  2  0  0  0  0  0  0
  -19.2180  -28.5300   23.1690 C   0  0  0  0  0  0  0  0  0  0  0  0
  -18.9550  -29.7820   23.7680 C   0  0  0  0  0  3  0  0  0  0  0  0
  -17.6340  -30.2380   23.9300 C   0  0  0  0  0  3  0  0  0  0  0  0
  -16.5570  -29.4370   23.5110 C   0  0  0  0  0  3  0  0  0  0  0  0
  -16.8050  -28.1860   22.9200 C   0  0  0  0  0  3  0  0  0  0  0  0
  -25.8700  -32.3650   23.7090 C   0  0  0  0  0  3  0  0  0  0  0  0
  -26.4440  -31.5680   24.9460 C   0  0  1  0  0  0  0  0  0  0  0  0
  -25.3810  -31.2370   26.0200 C   0  0  0  0  0  1  0  0  0  0  0  0
  -27.0900  -30.2360   24.5030 C   0  0  0  0  0  1  0  0  0  0  0  0
  -27.5640  -32.3930   25.6250 C   0  0  0  0  0  1  0  0  0  0  0  0
  -25.5090  -33.7330   24.1090 N   0  0  0  0  0  0  0  0  0  0  0  0
  -25.7860  -34.8350   23.4010 C   0  0  0  0  0  0  0  0  0  0  0  0
  -26.4380  -34.8110   22.3530 O   0  0  0  0  0  0  0  0  0  0  0  0
  -24.9240  -33.8260   24.9270 H   0  0  0  0  0  0  0  0  0  0  0  0
  -23.9780  -36.5720   23.1780 C   0  0  0  0  0  1  0  0  0  0  0  0
  -25.2530  -36.1780   23.9390 C   0  0  0  0  0  3  0  0  0  0  0  0
  -27.3640  -37.1100   24.7800 C   0  0  0  0  0  1  0  0  0  0  0  0
  -26.2390  -37.2790   23.8630 N   0  0  0  0  0  0  0  0  0  0  0  0
  -25.7980  -38.1720   24.0650 H   0  0  0  0  0  0  0  0  0  0  0  0
  1  2  1  0
  1 49  1  0
  3  1  1  0
  4 11  1  0
  4  5  1  0
  7  6  1  0
  8 11  1  0
  8 10  1  0
  9  5  1  0
  9  6  1  0
 10  1  1  0
 10  9  1  0
 11 13  1  6
 11  7  1  0
 12  4  2  0
 14 19  1  0
 15 16  1  0
 15 14  1  0
 17 16  1  0
 17 24  1  0
 17 18  1  0
 19 13  1  0
 19 18  1  0
 20 13  2  0
 21 22  2  0
 22 41  1  0
 23 26  1  0
 23 22  1  0
 24 25  1  0
 24 21  1  0
 25 23  2  0
 26 27  1  0
 27 28  2  0
 29 32  1  0
 29 28  1  0
 30 29  2  0
 31 30  1  0
 31 26  2  0
 32 33  1  0
 33 34  1  0
 34 35  2  0
 36 35  1  0
 36 40  1  0
 37 36  2  0
 38 33  2  0
 38 37  1  0
 39 38  1  0
 41 42  1  0
 42 44  1  0
 42 45  1  0
 43 41  2  0
 46 21  1  0
 46 47  1  0
 48 46  1  0
 49 50  1  0
 51 52  1  0
 51 50  1  0
 53 64  2  0
 54 52  1  0
 54 59  1  0
 55 63  1  0
 55 65  1  0
 56 62  1  0
 56 58  1  0
 57 63  1  0
 58 57  1  0
 59 58  2  0
 60 61  1  0
 60 54  2  0
 61 56  2  0
 62 55  1  0
 63 53  1  0
 65 67  2  0
 66 65  1  0
 68 66  1  0
 69 78  2  0
 69 74  1  0
 70 66  1  0
 70 74  1  0
 71 70  1  0
 72 73  1  0
 72 71  1  0
 73 69  1  0
 74 75  2  0
 75 76  1  0
 77 76  2  0
 78 77  1  0
 79 53  1  0
 79 84  1  0
 79 80  1  0
 80 83  1  1
 80 81  1  0
 82 80  1  0
 84 87  1  0
 85 89  1  0
 85 84  1  0
 86 85  2  0
 89 88  1  0
 91 89  1  0
 91 92  1  0
 91 90  1  0
M  ISO  4  11 100  13 100  51 101  52 101
M  END
>  <TORSDO>  (27) 
F 20

>  <SCORE>  (27) 
-11.672

>  <name>  (27) 
27

>  <ligand_id>  (27) 
27

>  <original_smiles>  (27) 
[H]c1c([H])c([H])c2c(c1[H])C([H])([H])C([H])([H])C([H])([H])C2([H])N([H])C(=O)C1([H])N(C(=O)C([H])(N([H])C(=O)C([H])(N([H])C([H])([H])[H])C([H])([H])[H])C(C([H])([H])[H])(C([H])([H])[H])C([H])([H])[H])C([H])([H])c2c([H])c(OC([H])([H])C([H])([H])C([H])([H])[N+]([H])([H])C3([H])C([H])([H])C4(C(=O)N5C([H])([H])C([H])([H])C([H])([H])C([H])(n6nc(-c7c([H])c([H])c(Oc8c([H])c([H])c(F)c([H])c8F)c([H])c7[H])c(C(=O)N([H])[H])c6N([H])[H])C5([H])[H])C(=O)C([H])([H])C3([H])C([H])([H])C4([H])[H])c([H])c([H])c2C1([H])[H]

>  <smiles>  (27) 
[H]c1c([H])c([H])c2c(c1[H])C([H])([H])C([H])([H])C([H])([H])C2([H])N([H])C(=O)C1([H])N(C(=O)C([H])(N([H])C(=O)C([H])(N([H])C([H])([H])[H])C([H])([H])[H])C(C([H])([H])[H])(C([H])([H])[H])C([H])([H])[H])C([H])([H])c2c([H])c(OC([H])([H])C([H])([H])C([H])([H])[N+]([H])([H])C3([H])C([H])([H])C4(C(=O)N5C([H])([H])C([H])([H])C([H])([H])C([H])(n6nc(-c7c([H])c([H])c(Oc8c([H])c([H])c(F)c([H])c8F)c([H])c7[H])c(C(=O)N([H])[H])c6N([H])[H])C5([H])[H])C(=O)C([H])([H])C3([H])C([H])([H])C4([H])[H])c([H])c([H])c2C1([H])[H]

$$$$
28:0:0
     RDKit          3D

 99107  0  0  1  0  0  0  0  0999 V2000
  -30.6480  -19.0990   22.3090 C   0  0  0  0  0  3  0  0  0  0  0  0
  -29.1640  -18.6490   20.4630 C   0  0  0  0  0  3  0  0  0  0  0  0
  -30.1710  -18.1910   21.3430 C   0  0  0  0  0  0  0  0  0  0  0  0
  -30.1630  -20.4240   22.4080 C   0  0  0  0  0  0  0  0  0  0  0  0
  -29.1580  -20.8850   21.5090 C   0  0  0  0  0  0  0  0  0  0  0  0
  -28.6860  -19.9800   20.5230 C   0  0  0  0  0  0  0  0  0  0  0  0
  -27.7470  -20.3890   19.5720 N   0  0  0  0  0  0  0  0  0  0  0  0
  -27.5100  -19.6860   18.8780 H   0  0  0  0  0  0  0  0  0  0  0  0
  -26.8860  -20.7730   19.9450 H   0  0  0  0  0  0  0  0  0  0  0  0
  -30.7400  -21.2970   23.5180 C   0  0  0  0  0  2  0  0  0  0  0  0
  -29.8020  -19.7870   25.3910 C   0  0  0  0  0  1  0  0  0  0  0  0
  -29.9380  -21.2120   24.8310 C   0  0  0  0  0  2  0  0  0  0  0  0
  -30.7490  -16.7550   21.3540 C   0  0  0  0  0  2  0  0  0  0  0  0
  -31.4870  -14.7230   20.2670 C   0  0  0  0  0  0  0  0  0  0  0  0
  -31.0170  -12.4690   19.3850 C   0  0  0  0  0  2  0  0  0  0  0  0
  -30.1460  -12.5020   18.1030 C   0  0  0  0  0  2  0  0  0  0  0  0
  -28.6780  -12.9190   18.3620 C   0  0  0  0  0  2  0  0  0  0  0  0
  -28.3510  -12.9760   19.8550 C   0  0  0  0  0  3  0  0  0  0  0  0
  -29.3400  -13.5850   20.8380 C   0  0  0  0  0  2  0  0  0  0  0  0
  -30.6720  -13.6390   20.2210 N   0  0  0  0  0  0  0  0  0  0  0  0
  -32.6960  -14.6220   20.0550 O   0  0  0  0  0  0  0  0  0  0  0  0
  -30.8950  -15.9470   20.1120 N   0  0  0  0  0  0  0  0  0  0  0  0
  -25.9990  -14.0900   20.3820 C   0  0  0  0  0  0  0  0  0  0  0  0
  -24.8370  -13.4250   20.7100 C   0  0  0  0  0  0  0  0  0  0  0  0
  -25.1580  -12.0400   20.6770 C   0  0  0  0  0  0  0  0  0  0  0  0
  -26.9460  -13.0750   20.2050 N   0  0  0  0  0  0  0  0  0  0  0  0
  -26.4200  -11.8620   20.4120 N   0  0  0  0  0  0  0  0  0  0  0  0
  -24.3670  -10.8300   20.8250 C   0  0  0  0  0  0  0  0  0  0  0  0
  -24.6700   -9.8810   21.8270 C   0  0  0  0  0  3  0  0  0  0  0  0
  -23.9010   -8.7080   21.9460 C   0  0  0  0  0  3  0  0  0  0  0  0
  -22.8200   -8.4840   21.0640 C   0  0  0  0  0  0  0  0  0  0  0  0
  -22.5480   -9.4170   20.0470 C   0  0  0  0  0  3  0  0  0  0  0  0
  -23.3180  -10.5820   19.9240 C   0  0  0  0  0  3  0  0  0  0  0  0
  -22.0190   -7.3700   21.0960 O   0  0  0  0  0  0  0  0  0  0  0  0
  -21.6900   -6.7640   22.2790 C   0  0  0  0  0  0  0  0  0  0  0  0
  -21.0020   -7.4470   23.3030 C   0  0  0  0  0  3  0  0  0  0  0  0
  -20.6210   -6.7610   24.4740 C   0  0  0  0  0  3  0  0  0  0  0  0
  -20.9230   -5.3930   24.6180 C   0  0  0  0  0  0  0  0  0  0  0  0
  -21.6070   -4.7110   23.5940 C   0  0  0  0  0  3  0  0  0  0  0  0
  -21.9860   -5.3950   22.4260 C   0  0  0  0  0  0  0  0  0  0  0  0
  -22.6270   -4.7310   21.4350 F   0  0  0  0  0  0  0  0  0  0  0  0
  -20.5560   -4.7300   25.7380 F   0  0  0  0  0  0  0  0  0  0  0  0
  -23.4710  -14.0000   20.9590 C   0  0  0  0  0  0  0  0  0  0  0  0
  -22.6890  -13.3460   21.8140 N   0  0  0  0  0  0  0  0  0  0  0  0
  -23.0990  -15.0410   20.4290 O   0  0  0  0  0  0  0  0  0  0  0  0
  -22.9950  -12.4980   22.2690 H   0  0  0  0  0  0  0  0  0  0  0  0
  -21.7690  -13.7110   22.0220 H   0  0  0  0  0  0  0  0  0  0  0  0
  -26.3100  -15.4350   20.2170 N   0  0  0  0  0  0  0  0  0  0  0  0
  -25.6390  -16.1830   20.3500 H   0  0  0  0  0  0  0  0  0  0  0  0
  -27.2080  -15.7580   19.8780 H   0  0  0  0  0  0  0  0  0  0  0  0
  -30.2270  -16.6090   17.7780 C   0  0  0  0  0  1  0  0  0  0  0  0
  -31.2910  -16.6900   18.8860 C   0  0  0  0  0  2  0  0  0  0  0  0
  -28.5510  -22.3050   21.5970 C   0  0  0  0  0  2  0  0  0  0  0  0
  -28.8350  -23.1240   20.3930 N   0  0  0  0  0  4  0  0  0  0  0  0
  -28.5340  -22.5630   19.6080 H   0  0  0  0  0  0  0  0  0  0  0  0
  -29.8360  -23.2360   20.3240 H   0  0  0  0  0  0  0  0  0  0  0  0
  -28.1750  -24.4660   20.3470 C   0  0  0  0  0  2  0  0  0  0  0  0
  -28.5070  -25.2600   19.0530 C   0  0  0  0  0  2  0  0  0  0  0  0
  -28.4690  -26.6930   19.2110 O   0  0  0  0  0  0  0  0  0  0  0  0
  -24.7420  -31.4460   22.9450 C   0  0  0  0  0  0  0  0  0  0  0  0
  -27.2700  -27.3760   19.3020 C   0  0  0  0  0  0  0  0  0  0  0  0
  -23.4800  -30.2420   21.1930 C   0  0  0  0  0  3  0  0  0  0  0  0
  -24.8790  -28.8800   19.5550 C   0  0  0  0  0  0  0  0  0  0  0  0
  -26.0000  -30.6210   20.9600 C   0  0  0  0  0  2  0  0  0  0  0  0
  -26.0570  -29.3380   20.1560 C   0  0  0  0  0  0  0  0  0  0  0  0
  -27.2510  -28.5950   20.0220 C   0  0  0  0  0  3  0  0  0  0  0  0
  -26.0680  -26.9270   18.7090 C   0  0  0  0  0  3  0  0  0  0  0  0
  -24.8790  -27.6730   18.8350 C   0  0  0  0  0  3  0  0  0  0  0  0
  -23.6430  -29.7290   19.7380 C   0  0  0  0  0  2  0  0  0  0  0  0
  -24.7600  -30.7780   21.7570 N   0  0  0  0  0  0  0  0  0  0  0  0
  -23.6800  -31.6530   23.5460 O   0  0  0  0  0  0  0  0  0  0  0  0
  -22.8580  -29.1150   22.0470 C   0  0  0  0  0  0  0  0  0  0  0  0
  -21.5210  -28.9940   21.9950 N   0  0  0  0  0  0  0  0  0  0  0  0
  -23.5710  -28.3640   22.7150 O   0  0  0  0  0  0  0  0  0  0  0  0
  -21.0050  -29.6480   21.4250 H   0  0  0  0  0  0  0  0  0  0  0  0
  -18.1420  -27.8670   22.5970 C   0  0  0  0  0  0  0  0  0  0  0  0
  -20.7230  -27.9830   22.6890 C   0  0  0  0  0  3  0  0  0  0  0  0
  -20.7110  -26.6520   21.9030 C   0  0  0  0  0  2  0  0  0  0  0  0
  -19.5180  -26.5270   20.9500 C   0  0  0  0  0  2  0  0  0  0  0  0
  -18.1990  -26.6270   21.7220 C   0  0  0  0  0  2  0  0  0  0  0  0
  -19.3260  -28.5120   23.0390 C   0  0  0  0  0  0  0  0  0  0  0  0
  -19.2180  -29.6830   23.8220 C   0  0  0  0  0  3  0  0  0  0  0  0
  -17.9570  -30.2030   24.1680 C   0  0  0  0  0  3  0  0  0  0  0  0
  -16.7880  -29.5490   23.7440 C   0  0  0  0  0  3  0  0  0  0  0  0
  -16.8810  -28.3830   22.9640 C   0  0  0  0  0  3  0  0  0  0  0  0
  -26.0490  -32.0020   23.5910 C   0  0  0  0  0  3  0  0  0  0  0  0
  -26.5700  -31.1230   24.7940 C   0  0  1  0  0  0  0  0  0  0  0  0
  -25.4920  -30.8380   25.8670 C   0  0  0  0  0  1  0  0  0  0  0  0
  -27.1050  -29.7630   24.2900 C   0  0  0  0  0  1  0  0  0  0  0  0
  -27.7580  -31.8350   25.4850 C   0  0  0  0  0  1  0  0  0  0  0  0
  -25.7760  -33.3760   24.0310 N   0  0  0  0  0  0  0  0  0  0  0  0
  -26.1580  -34.4760   23.3680 C   0  0  0  0  0  0  0  0  0  0  0  0
  -26.8470  -34.4370   22.3450 O   0  0  0  0  0  0  0  0  0  0  0  0
  -25.1660  -33.4840   24.8280 H   0  0  0  0  0  0  0  0  0  0  0  0
  -24.5070  -36.3550   23.1120 C   0  0  0  0  0  1  0  0  0  0  0  0
  -25.7010  -35.8370   23.9290 C   0  0  0  0  0  3  0  0  0  0  0  0
  -27.8270  -36.5660   24.9150 C   0  0  0  0  0  1  0  0  0  0  0  0
  -26.7740  -36.8550   23.9460 N   0  0  0  0  0  0  0  0  0  0  0  0
  -26.3940  -37.7750   24.1560 H   0  0  0  0  0  0  0  0  0  0  0  0
  1  4  1  0
  2  6  2  0
  2  3  1  0
  3 13  1  0
  3  1  2  0
  4 10  1  0
  5 53  1  0
  5  4  2  0
  6  5  1  0
  7  9  1  0
  7  6  1  0
  8  7  1  0
 10 12  1  0
 12 11  1  0
 15 20  1  0
 16 17  1  0
 16 15  1  0
 18 17  1  0
 18 26  1  0
 18 19  1  0
 20 14  1  0
 20 19  1  0
 21 14  2  0
 22 14  1  0
 22 13  1  0
 23 24  2  0
 24 43  1  0
 25 24  1  0
 25 28  1  0
 26 23  1  0
 26 27  1  0
 27 25  2  0
 28 29  1  0
 29 30  2  0
 31 34  1  0
 31 30  1  0
 32 31  2  0
 33 32  1  0
 33 28  2  0
 34 35  1  0
 35 40  2  0
 35 36  1  0
 36 37  2  0
 37 38  1  0
 38 42  1  0
 39 38  2  0
 40 39  1  0
 41 40  1  0
 43 44  1  0
 44 47  1  0
 44 46  1  0
 45 43  2  0
 48 49  1  0
 48 23  1  0
 50 48  1  0
 51 52  1  0
 52 22  1  0
 54 53  1  0
 55 54  1  0
 56 54  1  0
 57 54  1  0
 58 59  1  0
 58 57  1  0
 59 61  1  0
 60 71  2  0
 61 66  1  0
 62 70  1  0
 62 72  1  0
 63 69  1  0
 63 65  1  0
 64 70  1  0
 65 64  1  0
 66 65  2  0
 67 68  1  0
 67 61  2  0
 68 63  2  0
 69 62  1  0
 70 60  1  0
 72 74  2  0
 73 72  1  0
 75 73  1  0
 76 85  2  0
 76 81  1  0
 77 73  1  0
 77 81  1  0
 78 77  1  0
 79 80  1  0
 79 78  1  0
 80 76  1  0
 81 82  2  0
 82 83  1  0
 84 83  2  0
 85 84  1  0
 86 60  1  0
 86 91  1  0
 86 87  1  0
 87 90  1  1
 87 88  1  0
 89 87  1  0
 91 94  1  0
 92 96  1  0
 92 91  1  0
 93 92  2  0
 96 95  1  0
 96 98  1  0
 98 99  1  0
 98 97  1  0
M  ISO  4  14 100  22 100  58 101  59 101
M  END
>  <TORSDO>  (28) 
F 25

>  <SCORE>  (28) 
-8.822

>  <name>  (28) 
28

>  <ligand_id>  (28) 
28

>  <original_smiles>  (28) 
[H]c1c([H])c([H])c2c(c1[H])C([H])([H])C([H])([H])C([H])([H])C2([H])N([H])C(=O)C1([H])N(C(=O)C([H])(N([H])C(=O)C([H])(N([H])C([H])([H])[H])C([H])([H])[H])C(C([H])([H])[H])(C([H])([H])[H])C([H])([H])[H])C([H])([H])c2c([H])c(OC([H])([H])C([H])([H])[N+]([H])([H])C([H])([H])c3c(N([H])[H])c([H])c(C([H])([H])N(C(=O)N4C([H])([H])C([H])([H])C([H])([H])C([H])(n5nc(-c6c([H])c([H])c(Oc7c([H])c([H])c(F)c([H])c7F)c([H])c6[H])c(C(=O)N([H])[H])c5N([H])[H])C4([H])[H])C([H])([H])C([H])([H])[H])c([H])c3C([H])([H])C([H])([H])C([H])([H])[H])c([H])c([H])c2C1([H])[H]

>  <smiles>  (28) 
[H]c1c([H])c([H])c2c(c1[H])C([H])([H])C([H])([H])C([H])([H])C2([H])N([H])C(=O)C1([H])N(C(=O)C([H])(N([H])C(=O)C([H])(N([H])C([H])([H])[H])C([H])([H])[H])C(C([H])([H])[H])(C([H])([H])[H])C([H])([H])[H])C([H])([H])c2c([H])c(OC([H])([H])C([H])([H])[N+]([H])([H])C([H])([H])c3c(N([H])[H])c([H])c(C([H])([H])N(C(=O)N4C([H])([H])C([H])([H])C([H])([H])C([H])(n5nc(-c6c([H])c([H])c(Oc7c([H])c([H])c(F)c([H])c7F)c([H])c6[H])c(C(=O)N([H])[H])c5N([H])[H])C4([H])[H])C([H])([H])C([H])([H])[H])c([H])c3C([H])([H])C([H])([H])C([H])([H])[H])c([H])c([H])c2C1([H])[H]

$$$$
29:0:0
     RDKit          3D

 96104  0  0  1  0  0  0  0  0999 V2000
  -31.5500  -20.1460   20.1740 C   0  0  0  0  0  3  0  0  0  0  0  0
  -29.3120  -18.5800   20.7470 C   0  0  0  0  0  3  0  0  0  0  0  0
  -30.2710  -20.7310   20.0210 C   0  0  0  0  0  0  0  0  0  0  0  0
  -31.7250  -18.8210   20.6330 C   0  0  0  0  0  0  0  0  0  0  0  0
  -29.1360  -19.9030   20.2620 C   0  0  0  0  0  0  0  0  0  0  0  0
  -30.5950  -18.0280   20.9680 C   0  0  0  0  0  0  0  0  0  0  0  0
  -33.1420  -18.2850   20.7670 C   0  0  0  0  0  1  0  0  0  0  0  0
  -30.2000  -22.1790   19.5610 C   0  0  0  0  0  0  0  0  0  0  0  0
  -29.5270  -23.0500   20.3370 N   0  0  0  0  0  0  0  0  0  0  0  0
  -30.8400  -22.5420   18.5720 O   0  0  0  0  0  0  0  0  0  0  0  0
  -29.0670  -22.6540   21.1460 H   0  0  0  0  0  0  0  0  0  0  0  0
  -29.6110  -24.5260   20.2760 C   0  0  0  0  0  2  0  0  0  0  0  0
  -28.3160  -25.2390   19.8000 C   0  0  0  0  0  2  0  0  0  0  0  0
  -28.4030  -26.6750   19.9730 O   0  0  0  0  0  0  0  0  0  0  0  0
  -24.5980  -31.8350   23.1230 C   0  0  0  0  0  0  0  0  0  0  0  0
  -27.2280  -27.4130   19.9660 C   0  0  0  0  0  0  0  0  0  0  0  0
  -23.3870  -30.4600   21.4640 C   0  0  0  0  0  3  0  0  0  0  0  0
  -24.8340  -28.9430   20.0110 C   0  0  0  0  0  0  0  0  0  0  0  0
  -25.9150  -30.8130   21.2650 C   0  0  0  0  0  2  0  0  0  0  0  0
  -25.9960  -29.4500   20.6040 C   0  0  0  0  0  0  0  0  0  0  0  0
  -27.1940  -28.6930   20.5770 C   0  0  0  0  0  3  0  0  0  0  0  0
  -26.0410  -26.9270   19.3690 C   0  0  0  0  0  3  0  0  0  0  0  0
  -24.8530  -27.6820   19.3930 C   0  0  0  0  0  3  0  0  0  0  0  0
  -23.5940  -29.8060   20.0720 C   0  0  0  0  0  2  0  0  0  0  0  0
  -24.6510  -31.0500   22.0110 N   0  0  0  0  0  0  0  0  0  0  0  0
  -23.5170  -32.0990   23.6710 O   0  0  0  0  0  0  0  0  0  0  0  0
  -22.7370  -29.4230   22.4100 C   0  0  0  0  0  0  0  0  0  0  0  0
  -21.4080  -29.2600   22.3020 N   0  0  0  0  0  0  0  0  0  0  0  0
  -23.4250  -28.7700   23.1970 O   0  0  0  0  0  0  0  0  0  0  0  0
  -20.9120  -29.8410   21.6410 H   0  0  0  0  0  0  0  0  0  0  0  0
  -18.0280  -28.1090   22.8520 C   0  0  0  0  0  0  0  0  0  0  0  0
  -20.5960  -28.3130   23.0650 C   0  0  0  0  0  3  0  0  0  0  0  0
  -20.6580  -26.8980   22.4450 C   0  0  0  0  0  2  0  0  0  0  0  0
  -19.5260  -26.6260   21.4490 C   0  0  0  0  0  2  0  0  0  0  0  0
  -18.1630  -26.7780   22.1300 C   0  0  0  0  0  2  0  0  0  0  0  0
  -19.1710  -28.8360   23.2770 C   0  0  0  0  0  0  0  0  0  0  0  0
  -18.9910  -30.0850   23.9110 C   0  0  0  0  0  3  0  0  0  0  0  0
  -17.7010  -30.6050   24.1250 C   0  0  0  0  0  3  0  0  0  0  0  0
  -16.5720  -29.8730   23.7150 C   0  0  0  0  0  3  0  0  0  0  0  0
  -16.7370  -28.6290   23.0830 C   0  0  0  0  0  3  0  0  0  0  0  0
  -25.8850  -32.4590   23.7460 C   0  0  0  0  0  3  0  0  0  0  0  0
  -25.5720  -33.8480   24.1080 N   0  0  0  0  0  0  0  0  0  0  0  0
  -25.8920  -34.9180   23.3680 C   0  0  0  0  0  0  0  0  0  0  0  0
  -26.5520  -34.8400   22.3280 O   0  0  0  0  0  0  0  0  0  0  0  0
  -24.9870  -33.9820   24.9190 H   0  0  0  0  0  0  0  0  0  0  0  0
  -24.1510  -36.7100   23.0670 C   0  0  0  0  0  1  0  0  0  0  0  0
  -25.4010  -36.2940   23.8590 C   0  0  0  0  0  3  0  0  0  0  0  0
  -27.5350  -37.1760   24.6930 C   0  0  0  0  0  1  0  0  0  0  0  0
  -26.4270  -37.3550   23.7600 N   0  0  0  0  0  0  0  0  0  0  0  0
  -26.0160  -38.2690   23.9280 H   0  0  0  0  0  0  0  0  0  0  0  0
  -26.4170  -31.6630   25.0020 C   0  0  1  0  0  0  0  0  0  0  0  0
  -25.3340  -31.3980   26.0740 C   0  0  0  0  0  1  0  0  0  0  0  0
  -27.0030  -30.2980   24.5720 C   0  0  0  0  0  1  0  0  0  0  0  0
  -27.5680  -32.4470   25.6730 C   0  0  0  0  0  1  0  0  0  0  0  0
  -27.7170  -20.3630   19.9470 C   0  0  0  0  0  2  0  0  0  0  0  0
  -26.0540  -20.8160   18.0530 C   0  0  0  0  0  1  0  0  0  0  0  0
  -27.4270  -20.2630   18.4390 C   0  0  0  0  0  2  0  0  0  0  0  0
  -30.7390  -16.6600   21.6690 C   0  0  0  0  0  2  0  0  0  0  0  0
  -30.6520  -14.5360   20.3390 C   0  0  0  0  0  0  0  0  0  0  0  0
  -30.2870  -12.4220   19.1080 C   0  0  0  0  0  2  0  0  0  0  0  0
  -29.3040  -12.6580   17.9470 C   0  0  0  0  0  2  0  0  0  0  0  0
  -27.8480  -12.4950   18.4230 C   0  0  0  0  0  2  0  0  0  0  0  0
  -27.5540  -13.2960   19.7200 C   0  0  0  0  0  3  0  0  0  0  0  0
  -28.6500  -13.0520   20.7830 C   0  0  0  0  0  2  0  0  0  0  0  0
  -29.9490  -13.3800   20.1720 N   0  0  0  0  0  0  0  0  0  0  0  0
  -31.7460  -14.7320   19.8060 O   0  0  0  0  0  0  0  0  0  0  0  0
  -30.0610  -15.4910   21.0820 N   0  0  0  0  0  0  0  0  0  0  0  0
  -29.1400  -15.2750   21.4300 H   0  0  0  0  0  0  0  0  0  0  0  0
  -25.1710  -13.8780   20.5060 C   0  0  0  0  0  0  0  0  0  0  0  0
  -24.1210  -13.0940   20.8980 C   0  0  0  0  0  0  0  0  0  0  0  0
  -24.5910  -11.7450   20.8370 C   0  0  0  0  0  0  0  0  0  0  0  0
  -26.2180  -13.0080   20.2360 N   0  0  0  0  0  0  0  0  0  0  0  0
  -25.8720  -11.7200   20.4900 N   0  0  0  0  0  0  0  0  0  0  0  0
  -23.8770  -10.4780   21.0320 C   0  0  0  0  0  0  0  0  0  0  0  0
  -24.3380   -9.5050   21.9470 C   0  0  0  0  0  3  0  0  0  0  0  0
  -23.6260   -8.3020   22.1340 C   0  0  0  0  0  3  0  0  0  0  0  0
  -22.4380   -8.0600   21.4040 C   0  0  0  0  0  0  0  0  0  0  0  0
  -21.9930   -9.0200   20.4770 C   0  0  0  0  0  3  0  0  0  0  0  0
  -22.7070  -10.2160   20.2890 C   0  0  0  0  0  3  0  0  0  0  0  0
  -21.6950   -6.9080   21.5020 O   0  0  0  0  0  0  0  0  0  0  0  0
  -21.6790   -6.1570   22.6500 C   0  0  0  0  0  0  0  0  0  0  0  0
  -21.2720   -6.6970   23.8890 C   0  0  0  0  0  3  0  0  0  0  0  0
  -21.2040   -5.8710   25.0300 C   0  0  0  0  0  3  0  0  0  0  0  0
  -21.5320   -4.5050   24.9320 C   0  0  0  0  0  0  0  0  0  0  0  0
  -21.9290   -3.9640   23.6980 C   0  0  0  0  0  3  0  0  0  0  0  0
  -22.0000   -4.7870   22.5600 C   0  0  0  0  0  0  0  0  0  0  0  0
  -22.3650   -4.2550   21.3690 F   0  0  0  0  0  0  0  0  0  0  0  0
  -21.4600   -3.7100   26.0260 F   0  0  0  0  0  0  0  0  0  0  0  0
  -22.7290  -13.5540   21.2180 C   0  0  0  0  0  0  0  0  0  0  0  0
  -22.0340  -12.8390   22.0950 N   0  0  0  0  0  0  0  0  0  0  0  0
  -22.2650  -14.5840   20.7270 O   0  0  0  0  0  0  0  0  0  0  0  0
  -22.4210  -12.0070   22.5150 H   0  0  0  0  0  0  0  0  0  0  0  0
  -21.1000  -13.1280   22.3490 H   0  0  0  0  0  0  0  0  0  0  0  0
  -25.3140  -15.2530   20.3410 N   0  0  0  0  0  0  0  0  0  0  0  0
  -24.5350  -15.8930   20.4550 H   0  0  0  0  0  0  0  0  0  0  0  0
  -26.1500  -15.7070   19.9940 H   0  0  0  0  0  0  0  0  0  0  0  0
  1  4  1  0
  2  6  1  0
  3  1  2  0
  3  5  1  0
  4  7  1  0
  4  6  2  0
  5  2  2  0
  6 58  1  0
  8  3  1  0
  8  9  1  0
  9 11  1  0
 10  8  2  0
 12  9  1  0
 13 14  1  0
 13 12  1  0
 15 26  2  0
 16 14  1  0
 16 21  1  0
 17 25  1  0
 17 27  1  0
 18 24  1  0
 18 20  1  0
 19 25  1  0
 20 19  1  0
 21 20  2  0
 22 23  1  0
 22 16  2  0
 23 18  2  0
 24 17  1  0
 25 15  1  0
 27 29  2  0
 28 27  1  0
 30 28  1  0
 31 40  2  0
 31 36  1  0
 32 28  1  0
 32 36  1  0
 33 32  1  0
 34 35  1  0
 34 33  1  0
 35 31  1  0
 36 37  2  0
 37 38  1  0
 39 38  2  0
 40 39  1  0
 41 15  1  0
 41 42  1  0
 41 51  1  0
 42 45  1  0
 43 47  1  0
 43 42  1  0
 44 43  2  0
 47 46  1  0
 49 47  1  0
 49 50  1  0
 49 48  1  0
 51 54  1  1
 51 52  1  0
 53 51  1  0
 55  5  1  0
 56 57  1  0
 57 55  1  0
 59 67  1  0
 60 65  1  0
 61 62  1  0
 61 60  1  0
 63 62  1  0
 63 72  1  0
 63 64  1  0
 65 59  1  0
 65 64  1  0
 66 59  2  0
 67 68  1  0
 67 58  1  0
 69 70  2  0
 70 89  1  0
 71 70  1  0
 71 74  1  0
 72 73  1  0
 72 69  1  0
 73 71  2  0
 74 75  1  0
 75 76  2  0
 77 80  1  0
 77 76  1  0
 78 77  2  0
 79 78  1  0
 79 74  2  0
 80 81  1  0
 81 82  1  0
 82 83  2  0
 84 83  1  0
 84 88  1  0
 85 84  2  0
 86 81  2  0
 86 85  1  0
 87 86  1  0
 89 90  1  0
 90 93  1  0
 90 92  1  0
 91 89  2  0
 94 95  1  0
 94 69  1  0
 96 94  1  0
M  ISO  4  13 101  14 101  59 100  67 100
M  END
>  <TORSDO>  (29) 
F 22

>  <SCORE>  (29) 
-13.389

>  <name>  (29) 
29

>  <ligand_id>  (29) 
29

>  <original_smiles>  (29) 
[H]c1c([H])c([H])c2c(c1[H])C([H])([H])C([H])([H])C([H])([H])C2([H])N([H])C(=O)C1([H])N(C(=O)C([H])(N([H])C(=O)C([H])(N([H])C([H])([H])[H])C([H])([H])[H])C(C([H])([H])[H])(C([H])([H])[H])C([H])([H])[H])C([H])([H])c2c([H])c(OC([H])([H])C([H])([H])N([H])C(=O)c3c([H])c(C([H])([H])[H])c(C([H])([H])N([H])C(=O)N4C([H])([H])C([H])([H])C([H])([H])C([H])(n5nc(-c6c([H])c([H])c(Oc7c([H])c([H])c(F)c([H])c7F)c([H])c6[H])c(C(=O)N([H])[H])c5N([H])[H])C4([H])[H])c([H])c3C([H])([H])C([H])([H])C([H])([H])[H])c([H])c([H])c2C1([H])[H]

>  <smiles>  (29) 
[H]c1c([H])c([H])c2c(c1[H])C([H])([H])C([H])([H])C([H])([H])C2([H])N([H])C(=O)C1([H])N(C(=O)C([H])(N([H])C(=O)C([H])(N([H])C([H])([H])[H])C([H])([H])[H])C(C([H])([H])[H])(C([H])([H])[H])C([H])([H])[H])C([H])([H])c2c([H])c(OC([H])([H])C([H])([H])N([H])C(=O)c3c([H])c(C([H])([H])[H])c(C([H])([H])N([H])C(=O)N4C([H])([H])C([H])([H])C([H])([H])C([H])(n5nc(-c6c([H])c([H])c(Oc7c([H])c([H])c(F)c([H])c7F)c([H])c6[H])c(C(=O)N([H])[H])c5N([H])[H])C4([H])[H])c([H])c3C([H])([H])C([H])([H])C([H])([H])[H])c([H])c([H])c2C1([H])[H]

$$$$
30:0:0
     RDKit          3D

 92100  0  0  1  0  0  0  0  0999 V2000
  -29.8690  -21.7650   20.8470 N   0  0  0  0  0  4  0  0  0  0  0  0
  -30.8230  -21.9960   21.0720 H   0  0  0  0  0  0  0  0  0  0  0  0
  -29.3430  -21.8240   21.7050 H   0  0  0  0  0  0  0  0  0  0  0  0
  -27.8800  -18.5010   20.0220 C   0  0  0  0  0  2  0  0  0  0  0  0
  -28.8130  -17.3100   19.7470 C   0  0  0  0  0  2  0  0  0  0  0  0
  -30.8380  -17.9160   21.1440 C   0  0  0  0  0  2  0  0  0  0  0  0
  -28.4310  -19.9350   19.8570 C   0  0  0  0  0  2  0  0  0  0  0  0
  -30.4120  -19.3810   21.5100 C   0  0  0  0  0  2  0  0  0  0  0  0
  -29.6480  -16.9450   20.9880 C   0  0  0  0  0  3  0  0  0  0  0  0
  -29.8430  -20.3250   20.3930 C   0  0  0  0  0  3  0  0  0  0  0  0
  -30.6350  -14.5610   20.4870 C   0  0  0  0  0  0  0  0  0  0  0  0
  -30.4140  -12.3870   19.3190 C   0  0  0  0  0  2  0  0  0  0  0  0
  -29.4540  -12.5820   18.1240 C   0  0  0  0  0  2  0  0  0  0  0  0
  -27.9800  -12.4280   18.5550 C   0  0  0  0  0  2  0  0  0  0  0  0
  -27.6440  -13.2460   19.8290 C   0  0  0  0  0  3  0  0  0  0  0  0
  -28.7060  -12.9940   20.9260 C   0  0  0  0  0  2  0  0  0  0  0  0
  -30.0300  -13.3420   20.3710 N   0  0  0  0  0  0  0  0  0  0  0  0
  -31.7170  -14.8310   19.9550 O   0  0  0  0  0  0  0  0  0  0  0  0
  -29.8680  -15.4810   21.1120 N   0  0  0  0  0  0  0  0  0  0  0  0
  -29.1080  -15.0260   21.5960 H   0  0  0  0  0  0  0  0  0  0  0  0
  -25.2460  -13.8670   20.5440 C   0  0  0  0  0  0  0  0  0  0  0  0
  -24.1750  -13.0980   20.9100 C   0  0  0  0  0  0  0  0  0  0  0  0
  -24.6280  -11.7440   20.8660 C   0  0  0  0  0  0  0  0  0  0  0  0
  -26.2870  -12.9800   20.3040 N   0  0  0  0  0  0  0  0  0  0  0  0
  -25.9160  -11.6990   20.5520 N   0  0  0  0  0  0  0  0  0  0  0  0
  -23.8950  -10.4840   21.0480 C   0  0  0  0  0  0  0  0  0  0  0  0
  -24.3160   -9.5150   21.9840 C   0  0  0  0  0  3  0  0  0  0  0  0
  -23.5860   -8.3190   22.1530 C   0  0  0  0  0  3  0  0  0  0  0  0
  -22.4220   -8.0830   21.3840 C   0  0  0  0  0  0  0  0  0  0  0  0
  -22.0200   -9.0420   20.4370 C   0  0  0  0  0  3  0  0  0  0  0  0
  -22.7500  -10.2300   20.2660 C   0  0  0  0  0  3  0  0  0  0  0  0
  -21.6650   -6.9400   21.4620 O   0  0  0  0  0  0  0  0  0  0  0  0
  -21.5850   -6.2070   22.6190 C   0  0  0  0  0  0  0  0  0  0  0  0
  -21.0920   -6.7630   23.8200 C   0  0  0  0  0  3  0  0  0  0  0  0
  -20.9620   -5.9550   24.9680 C   0  0  0  0  0  3  0  0  0  0  0  0
  -21.3150   -4.5930   24.9140 C   0  0  0  0  0  0  0  0  0  0  0  0
  -21.8000   -4.0370   23.7170 C   0  0  0  0  0  3  0  0  0  0  0  0
  -21.9320   -4.8420   22.5730 C   0  0  0  0  0  0  0  0  0  0  0  0
  -22.3810   -4.2970   21.4170 F   0  0  0  0  0  0  0  0  0  0  0  0
  -21.1820   -3.8140   26.0130 F   0  0  0  0  0  0  0  0  0  0  0  0
  -22.7810  -13.5810   21.1930 C   0  0  0  0  0  0  0  0  0  0  0  0
  -22.0480  -12.8760   22.0480 N   0  0  0  0  0  0  0  0  0  0  0  0
  -22.3480  -14.6180   20.6910 O   0  0  0  0  0  0  0  0  0  0  0  0
  -22.4090  -12.0380   22.4810 H   0  0  0  0  0  0  0  0  0  0  0  0
  -21.1140  -13.1830   22.2800 H   0  0  0  0  0  0  0  0  0  0  0  0
  -25.4170  -15.2380   20.3770 N   0  0  0  0  0  0  0  0  0  0  0  0
  -24.6510  -15.8920   20.4890 H   0  0  0  0  0  0  0  0  0  0  0  0
  -26.2670  -15.6760   20.0440 H   0  0  0  0  0  0  0  0  0  0  0  0
  -29.3450  -22.8280   19.9220 C   0  0  0  0  0  2  0  0  0  0  0  0
  -29.3620  -24.2890   20.5010 C   0  0  0  0  0  2  0  0  0  0  0  0
  -28.3450  -25.2520   19.8090 C   0  0  0  0  0  2  0  0  0  0  0  0
  -28.3930  -26.6450   20.2290 O   0  0  0  0  0  0  0  0  0  0  0  0
  -24.5740  -31.8960   23.2370 C   0  0  0  0  0  0  0  0  0  0  0  0
  -27.2270  -27.4070   20.1730 C   0  0  0  0  0  0  0  0  0  0  0  0
  -23.3750  -30.4880   21.5970 C   0  0  0  0  0  3  0  0  0  0  0  0
  -24.8340  -28.9510   20.1740 C   0  0  0  0  0  0  0  0  0  0  0  0
  -25.9060  -30.8350   21.4120 C   0  0  0  0  0  2  0  0  0  0  0  0
  -25.9930  -29.4610   20.7700 C   0  0  0  0  0  0  0  0  0  0  0  0
  -27.1880  -28.6960   20.7700 C   0  0  0  0  0  3  0  0  0  0  0  0
  -26.0450  -26.9380   19.5480 C   0  0  0  0  0  3  0  0  0  0  0  0
  -24.8570  -27.6910   19.5590 C   0  0  0  0  0  3  0  0  0  0  0  0
  -23.5890  -29.8090   20.2190 C   0  0  0  0  0  2  0  0  0  0  0  0
  -24.6370  -31.0890   22.1390 N   0  0  0  0  0  0  0  0  0  0  0  0
  -23.4900  -32.1690   23.7720 O   0  0  0  0  0  0  0  0  0  0  0  0
  -22.7210  -29.4680   22.5590 C   0  0  0  0  0  0  0  0  0  0  0  0
  -21.3940  -29.2880   22.4350 N   0  0  0  0  0  0  0  0  0  0  0  0
  -23.4030  -28.8430   23.3760 O   0  0  0  0  0  0  0  0  0  0  0  0
  -20.9060  -29.8440   21.7480 H   0  0  0  0  0  0  0  0  0  0  0  0
  -18.0160  -28.1120   22.9520 C   0  0  0  0  0  0  0  0  0  0  0  0
  -20.5770  -28.3530   23.2080 C   0  0  0  0  0  3  0  0  0  0  0  0
  -20.6660  -26.9230   22.6250 C   0  0  0  0  0  2  0  0  0  0  0  0
  -19.5550  -26.6130   21.6160 C   0  0  0  0  0  2  0  0  0  0  0  0
  -18.1790  -26.7640   22.2700 C   0  0  0  0  0  2  0  0  0  0  0  0
  -19.1420  -28.8640   23.3770 C   0  0  0  0  0  0  0  0  0  0  0  0
  -18.9350  -30.1270   23.9740 C   0  0  0  0  0  3  0  0  0  0  0  0
  -17.6350  -30.6370   24.1510 C   0  0  0  0  0  3  0  0  0  0  0  0
  -16.5220  -29.8800   23.7410 C   0  0  0  0  0  3  0  0  0  0  0  0
  -16.7150  -28.6190   23.1470 C   0  0  0  0  0  3  0  0  0  0  0  0
  -25.8570  -32.5310   23.8570 C   0  0  0  0  0  3  0  0  0  0  0  0
  -26.3680  -31.7730   25.1430 C   0  0  1  0  0  0  0  0  0  0  0  0
  -25.2700  -31.5480   26.2080 C   0  0  0  0  0  1  0  0  0  0  0  0
  -26.9530  -30.3910   24.7680 C   0  0  0  0  0  1  0  0  0  0  0  0
  -27.5150  -32.5750   25.8010 C   0  0  0  0  0  1  0  0  0  0  0  0
  -25.5500  -33.9330   24.1690 N   0  0  0  0  0  0  0  0  0  0  0  0
  -25.8930  -34.9760   23.4010 C   0  0  0  0  0  0  0  0  0  0  0  0
  -26.5700  -34.8590   22.3760 O   0  0  0  0  0  0  0  0  0  0  0  0
  -24.9510  -34.0990   24.9640 H   0  0  0  0  0  0  0  0  0  0  0  0
  -24.1830  -36.7760   23.0010 C   0  0  0  0  0  1  0  0  0  0  0  0
  -25.4060  -36.3710   23.8390 C   0  0  0  0  0  3  0  0  0  0  0  0
  -27.5260  -37.2500   24.7090 C   0  0  0  0  0  1  0  0  0  0  0  0
  -26.4470  -37.4160   23.7390 N   0  0  0  0  0  0  0  0  0  0  0  0
  -26.0440  -38.3400   23.8690 H   0  0  0  0  0  0  0  0  0  0  0  0
  1  2  1  0
  1  3  1  0
  5  4  1  0
  5  9  1  0
  6  8  1  0
  7  4  1  0
  7 10  1  0
  9 19  1  0
  9  6  1  0
 10  1  1  0
 10  8  1  0
 11 19  1  0
 12 17  1  0
 13 14  1  0
 13 12  1  0
 15 14  1  0
 15 24  1  0
 15 16  1  0
 17 11  1  0
 17 16  1  0
 18 11  2  0
 19 20  1  0
 21 22  2  0
 22 41  1  0
 23 22  1  0
 23 26  1  0
 24 21  1  0
 24 25  1  0
 25 23  2  0
 26 27  1  0
 27 28  2  0
 29 32  1  0
 29 28  1  0
 30 29  2  0
 31 30  1  0
 31 26  2  0
 32 33  1  0
 33 34  1  0
 34 35  2  0
 36 35  1  0
 36 40  1  0
 37 36  2  0
 38 33  2  0
 38 37  1  0
 39 38  1  0
 41 42  1  0
 42 45  1  0
 42 44  1  0
 43 41  2  0
 46 47  1  0
 46 21  1  0
 48 46  1  0
 49 50  1  0
 49  1  1  0
 51 52  1  0
 51 50  1  0
 53 64  2  0
 54 52  1  0
 54 59  1  0
 55 63  1  0
 55 65  1  0
 56 62  1  0
 56 58  1  0
 57 63  1  0
 58 59  2  0
 58 57  1  0
 60 61  1  0
 60 54  2  0
 61 56  2  0
 62 55  1  0
 63 53  1  0
 65 67  2  0
 66 65  1  0
 68 66  1  0
 69 78  2  0
 69 74  1  0
 70 66  1  0
 70 74  1  0
 71 70  1  0
 72 73  1  0
 72 71  1  0
 73 69  1  0
 74 75  2  0
 75 76  1  0
 77 76  2  0
 78 77  1  0
 79 53  1  0
 79 84  1  0
 79 80  1  0
 80 83  1  1
 80 81  1  0
 82 80  1  0
 84 87  1  0
 85 89  1  0
 85 84  1  0
 86 85  2  0
 89 88  1  0
 91 89  1  0
 91 92  1  0
 91 90  1  0
M  ISO  4  11 100  19 100  51 101  52 101
M  END
>  <TORSDO>  (30) 
F 20

>  <SCORE>  (30) 
-14.097

>  <name>  (30) 
30

>  <ligand_id>  (30) 
30

>  <original_smiles>  (30) 
[H]c1c([H])c([H])c2c(c1[H])C([H])([H])C([H])([H])C([H])([H])C2([H])N([H])C(=O)C1([H])N(C(=O)C([H])(N([H])C(=O)C([H])(N([H])C([H])([H])[H])C([H])([H])[H])C(C([H])([H])[H])(C([H])([H])[H])C([H])([H])[H])C([H])([H])c2c([H])c(OC([H])([H])C([H])([H])C([H])([H])[N+]([H])([H])C3([H])C([H])([H])C([H])([H])C([H])([H])C([H])(N([H])C(=O)N4C([H])([H])C([H])([H])C([H])([H])C([H])(n5nc(-c6c([H])c([H])c(Oc7c([H])c([H])c(F)c([H])c7F)c([H])c6[H])c(C(=O)N([H])[H])c5N([H])[H])C4([H])[H])C([H])([H])C3([H])[H])c([H])c([H])c2C1([H])[H]

>  <smiles>  (30) 
[H]c1c([H])c([H])c2c(c1[H])C([H])([H])C([H])([H])C([H])([H])C2([H])N([H])C(=O)C1([H])N(C(=O)C([H])(N([H])C(=O)C([H])(N([H])C([H])([H])[H])C([H])([H])[H])C(C([H])([H])[H])(C([H])([H])[H])C([H])([H])[H])C([H])([H])c2c([H])c(OC([H])([H])C([H])([H])C([H])([H])[N+]([H])([H])C3([H])C([H])([H])C([H])([H])C([H])([H])C([H])(N([H])C(=O)N4C([H])([H])C([H])([H])C([H])([H])C([H])(n5nc(-c6c([H])c([H])c(Oc7c([H])c([H])c(F)c([H])c7F)c([H])c6[H])c(C(=O)N([H])[H])c5N([H])[H])C4([H])[H])C([H])([H])C3([H])[H])c([H])c([H])c2C1([H])[H]

$$$$
31:0:0
     RDKit          3D

 97105  0  0  1  0  0  0  0  0999 V2000
  -31.1140  -21.2090   17.4170 C   0  0  0  0  0  3  0  0  0  0  0  0
  -32.1780  -20.2980   17.4960 C   0  0  0  0  0  3  0  0  0  0  0  0
  -30.5570  -20.7840   19.7480 C   0  0  0  0  0  3  0  0  0  0  0  0
  -30.3070  -21.4760   18.5400 C   0  0  0  0  0  0  0  0  0  0  0  0
  -31.6280  -19.8600   19.8430 C   0  0  0  0  0  0  0  0  0  0  0  0
  -32.4480  -19.6220   18.7040 C   0  0  0  0  0  0  0  0  0  0  0  0
  -33.5790  -18.6060   18.7100 C   0  0  0  0  0  1  0  0  0  0  0  0
  -31.8780  -19.1540   21.1470 C   0  0  0  0  0  0  0  0  0  0  0  0
  -30.8510  -18.4380   21.6160 N   0  0  0  0  0  0  0  0  0  0  0  0
  -32.9770  -19.2090   21.7020 O   0  0  0  0  0  0  0  0  0  0  0  0
  -29.9870  -18.4740   21.0930 H   0  0  0  0  0  0  0  0  0  0  0  0
  -30.9340  -17.5140   22.7460 C   0  0  0  0  0  2  0  0  0  0  0  0
  -31.3090  -16.0970   22.2690 C   0  0  0  0  0  2  0  0  0  0  0  0
  -30.1660  -15.3960   21.4920 C   0  0  0  0  0  2  0  0  0  0  0  0
  -30.6140  -14.4190   20.3820 C   0  0  0  0  0  0  0  0  0  0  0  0
  -30.2380  -12.3790   19.0250 C   0  0  0  0  0  2  0  0  0  0  0  0
  -29.2600  -12.6200   17.8600 C   0  0  0  0  0  2  0  0  0  0  0  0
  -27.7970  -12.4570   18.3190 C   0  0  0  0  0  2  0  0  0  0  0  0
  -27.4960  -13.2530   19.6160 C   0  0  0  0  0  3  0  0  0  0  0  0
  -28.5690  -12.9650   20.6870 C   0  0  0  0  0  2  0  0  0  0  0  0
  -29.8910  -13.2940   20.1250 N   0  0  0  0  0  0  0  0  0  0  0  0
  -31.6220  -14.7060   19.7270 O   0  0  0  0  0  0  0  0  0  0  0  0
  -25.0920  -13.8430   20.3400 C   0  0  0  0  0  0  0  0  0  0  0  0
  -24.0420  -13.0610   20.7400 C   0  0  0  0  0  0  0  0  0  0  0  0
  -24.5230  -11.7160   20.7290 C   0  0  0  0  0  0  0  0  0  0  0  0
  -26.1500  -12.9720   20.1170 N   0  0  0  0  0  0  0  0  0  0  0  0
  -25.8090  -11.6890   20.4030 N   0  0  0  0  0  0  0  0  0  0  0  0
  -23.8190  -10.4460   20.9520 C   0  0  0  0  0  0  0  0  0  0  0  0
  -24.2650   -9.5130   21.9140 C   0  0  0  0  0  3  0  0  0  0  0  0
  -23.5620   -8.3070   22.1210 C   0  0  0  0  0  3  0  0  0  0  0  0
  -22.3990   -8.0250   21.3670 C   0  0  0  0  0  0  0  0  0  0  0  0
  -21.9720   -8.9470   20.3940 C   0  0  0  0  0  3  0  0  0  0  0  0
  -22.6780  -10.1440   20.1850 C   0  0  0  0  0  3  0  0  0  0  0  0
  -21.6660   -6.8700   21.4840 O   0  0  0  0  0  0  0  0  0  0  0  0
  -21.6200   -6.1610   22.6570 C   0  0  0  0  0  0  0  0  0  0  0  0
  -21.1430   -6.7340   23.8560 C   0  0  0  0  0  3  0  0  0  0  0  0
  -21.0490   -5.9500   25.0230 C   0  0  0  0  0  3  0  0  0  0  0  0
  -21.4210   -4.5930   24.9930 C   0  0  0  0  0  0  0  0  0  0  0  0
  -21.8910   -4.0190   23.7980 C   0  0  0  0  0  3  0  0  0  0  0  0
  -21.9870   -4.8000   22.6330 C   0  0  0  0  0  0  0  0  0  0  0  0
  -22.4200   -4.2350   21.4810 F   0  0  0  0  0  0  0  0  0  0  0  0
  -21.3230   -3.8370   26.1120 F   0  0  0  0  0  0  0  0  0  0  0  0
  -22.6410  -13.5190   21.0220 C   0  0  0  0  0  0  0  0  0  0  0  0
  -21.9360  -12.8250   21.9100 N   0  0  0  0  0  0  0  0  0  0  0  0
  -22.1770  -14.5280   20.4900 O   0  0  0  0  0  0  0  0  0  0  0  0
  -22.3220  -12.0090   22.3630 H   0  0  0  0  0  0  0  0  0  0  0  0
  -20.9940  -13.1110   22.1400 H   0  0  0  0  0  0  0  0  0  0  0  0
  -25.2420  -15.2100   20.1340 N   0  0  0  0  0  0  0  0  0  0  0  0
  -24.4810  -15.8730   20.2420 H   0  0  0  0  0  0  0  0  0  0  0  0
  -26.0930  -15.6390   19.7940 H   0  0  0  0  0  0  0  0  0  0  0  0
  -29.1880  -22.4660   18.4080 C   0  0  0  0  0  0  0  0  0  0  0  0
  -29.0290  -23.3150   19.4270 N   0  0  0  0  0  0  0  0  0  0  0  0
  -28.5290  -22.5360   17.3670 O   0  0  0  0  0  0  0  0  0  0  0  0
  -29.6400  -23.2190   20.2270 H   0  0  0  0  0  0  0  0  0  0  0  0
  -28.1180  -24.4540   19.3850 C   0  0  0  0  0  2  0  0  0  0  0  0
  -28.3430  -25.4240   20.5560 C   0  0  0  0  0  2  0  0  0  0  0  0
  -28.3730  -26.7870   20.1360 O   0  0  0  0  0  0  0  0  0  0  0  0
  -24.5730  -31.8830   23.2820 C   0  0  0  0  0  0  0  0  0  0  0  0
  -27.1820  -27.4730   20.1560 C   0  0  0  0  0  0  0  0  0  0  0  0
  -23.3480  -30.4960   21.6400 C   0  0  0  0  0  3  0  0  0  0  0  0
  -24.7850  -28.9670   20.1920 C   0  0  0  0  0  0  0  0  0  0  0  0
  -25.8730  -30.8550   21.4230 C   0  0  0  0  0  2  0  0  0  0  0  0
  -25.9470  -29.4900   20.7720 C   0  0  0  0  0  0  0  0  0  0  0  0
  -27.1500  -28.7540   20.7420 C   0  0  0  0  0  3  0  0  0  0  0  0
  -26.0030  -26.9540   19.5770 C   0  0  0  0  0  3  0  0  0  0  0  0
  -24.8070  -27.6970   19.5920 C   0  0  0  0  0  3  0  0  0  0  0  0
  -23.5420  -29.8260   20.2530 C   0  0  0  0  0  2  0  0  0  0  0  0
  -24.6170  -31.0910   22.1740 N   0  0  0  0  0  0  0  0  0  0  0  0
  -23.4960  -32.1560   23.8300 O   0  0  0  0  0  0  0  0  0  0  0  0
  -22.7040  -29.4670   22.5960 C   0  0  0  0  0  0  0  0  0  0  0  0
  -21.3790  -29.2860   22.4700 N   0  0  0  0  0  0  0  0  0  0  0  0
  -23.3900  -28.8400   23.4070 O   0  0  0  0  0  0  0  0  0  0  0  0
  -20.8910  -29.8440   21.7820 H   0  0  0  0  0  0  0  0  0  0  0  0
  -18.0030  -28.0970   22.9590 C   0  0  0  0  0  0  0  0  0  0  0  0
  -20.5600  -28.3480   23.2340 C   0  0  0  0  0  3  0  0  0  0  0  0
  -20.6620  -26.9200   22.6500 C   0  0  0  0  0  2  0  0  0  0  0  0
  -19.5590  -26.6030   21.6350 C   0  0  0  0  0  2  0  0  0  0  0  0
  -18.1760  -26.7500   22.2780 C   0  0  0  0  0  2  0  0  0  0  0  0
  -19.1220  -28.8550   23.3930 C   0  0  0  0  0  0  0  0  0  0  0  0
  -18.9050  -30.1170   23.9870 C   0  0  0  0  0  3  0  0  0  0  0  0
  -17.6010  -30.6210   24.1490 C   0  0  0  0  0  3  0  0  0  0  0  0
  -16.4950  -29.8580   23.7330 C   0  0  0  0  0  3  0  0  0  0  0  0
  -16.6980  -28.5980   23.1430 C   0  0  0  0  0  3  0  0  0  0  0  0
  -25.8660  -32.4980   23.9000 C   0  0  0  0  0  3  0  0  0  0  0  0
  -25.5820  -33.9050   24.2060 N   0  0  0  0  0  0  0  0  0  0  0  0
  -25.9410  -34.9370   23.4310 C   0  0  0  0  0  0  0  0  0  0  0  0
  -26.6210  -34.8050   22.4100 O   0  0  0  0  0  0  0  0  0  0  0  0
  -24.9790  -34.0840   24.9960 H   0  0  0  0  0  0  0  0  0  0  0  0
  -24.2590  -36.7580   23.0170 C   0  0  0  0  0  1  0  0  0  0  0  0
  -25.4750  -36.3410   23.8590 C   0  0  0  0  0  3  0  0  0  0  0  0
  -27.6080  -37.1920   24.7250 C   0  0  0  0  0  1  0  0  0  0  0  0
  -26.5320  -37.3700   23.7520 N   0  0  0  0  0  0  0  0  0  0  0  0
  -26.1410  -38.3010   23.8760 H   0  0  0  0  0  0  0  0  0  0  0  0
  -26.3680  -31.7330   25.1860 C   0  0  1  0  0  0  0  0  0  0  0  0
  -25.2650  -31.5230   26.2510 C   0  0  0  0  0  1  0  0  0  0  0  0
  -26.9330  -30.3430   24.8070 C   0  0  0  0  0  1  0  0  0  0  0  0
  -27.5320  -32.5180   25.8370 C   0  0  0  0  0  1  0  0  0  0  0  0
  1  2  2  0
  1  4  1  0
  2  6  1  0
  3  5  1  0
  4  3  2  0
  5  8  1  0
  6  7  1  0
  6  5  2  0
  8  9  1  0
  8 10  2  0
  9 12  1  0
 11  9  1  0
 13 12  1  0
 14 13  1  0
 15 14  1  0
 16 21  1  0
 17 18  1  0
 17 16  1  0
 19 18  1  0
 19 26  1  0
 19 20  1  0
 21 15  1  0
 21 20  1  0
 22 15  2  0
 23 24  2  0
 24 43  1  0
 25 24  1  0
 25 28  1  0
 26 23  1  0
 26 27  1  0
 27 25  2  0
 28 29  1  0
 29 30  2  0
 31 34  1  0
 31 30  1  0
 32 31  2  0
 33 32  1  0
 33 28  2  0
 34 35  1  0
 35 36  1  0
 36 37  2  0
 38 37  1  0
 38 42  1  0
 39 38  2  0
 40 35  2  0
 40 39  1  0
 41 40  1  0
 43 44  1  0
 44 47  1  0
 44 46  1  0
 45 43  2  0
 48 49  1  0
 48 23  1  0
 50 48  1  0
 51  4  1  0
 51 52  1  0
 52 54  1  0
 53 51  2  0
 55 52  1  0
 55 56  1  0
 57 59  1  0
 57 56  1  0
 58 69  2  0
 59 64  1  0
 60 68  1  0
 60 70  1  0
 61 67  1  0
 61 63  1  0
 62 68  1  0
 63 62  1  0
 64 63  2  0
 65 66  1  0
 65 59  2  0
 66 61  2  0
 67 60  1  0
 68 58  1  0
 70 72  2  0
 71 70  1  0
 73 71  1  0
 74 83  2  0
 74 79  1  0
 75 71  1  0
 75 79  1  0
 76 75  1  0
 77 78  1  0
 77 76  1  0
 78 74  1  0
 79 80  2  0
 80 81  1  0
 82 81  2  0
 83 82  1  0
 84 58  1  0
 84 85  1  0
 84 94  1  0
 85 88  1  0
 86 90  1  0
 86 85  1  0
 87 86  2  0
 90 89  1  0
 92 90  1  0
 92 93  1  0
 92 91  1  0
 94 97  1  1
 94 95  1  0
 96 94  1  0
M  ISO  4  14 100  15 100  56 101  57 101
M  END
>  <TORSDO>  (31) 
F 23

>  <SCORE>  (31) 
-12.280

>  <name>  (31) 
31

>  <ligand_id>  (31) 
31

>  <original_smiles>  (31) 
[H]c1c([H])c([H])c2c(c1[H])C([H])([H])C([H])([H])C([H])([H])C2([H])N([H])C(=O)C1([H])N(C(=O)C([H])(N([H])C(=O)C([H])(N([H])C([H])([H])[H])C([H])([H])[H])C(C([H])([H])[H])(C([H])([H])[H])C([H])([H])[H])C([H])([H])c2c([H])c(OC([H])([H])C([H])([H])N([H])C(=O)c3c([H])c([H])c(C([H])([H])[H])c(C(=O)N([H])C([H])([H])C([H])([H])C([H])([H])C(=O)N4C([H])([H])C([H])([H])C([H])([H])C([H])(n5nc(-c6c([H])c([H])c(Oc7c([H])c([H])c(F)c([H])c7F)c([H])c6[H])c(C(=O)N([H])[H])c5N([H])[H])C4([H])[H])c3[H])c([H])c([H])c2C1([H])[H]

>  <smiles>  (31) 
[H]c1c([H])c([H])c2c(c1[H])C([H])([H])C([H])([H])C([H])([H])C2([H])N([H])C(=O)C1([H])N(C(=O)C([H])(N([H])C(=O)C([H])(N([H])C([H])([H])[H])C([H])([H])[H])C(C([H])([H])[H])(C([H])([H])[H])C([H])([H])[H])C([H])([H])c2c([H])c(OC([H])([H])C([H])([H])N([H])C(=O)c3c([H])c([H])c(C([H])([H])[H])c(C(=O)N([H])C([H])([H])C([H])([H])C([H])([H])C(=O)N4C([H])([H])C([H])([H])C([H])([H])C([H])(n5nc(-c6c([H])c([H])c(Oc7c([H])c([H])c(F)c([H])c7F)c([H])c6[H])c(C(=O)N([H])[H])c5N([H])[H])C4([H])[H])c3[H])c([H])c([H])c2C1([H])[H]

$$$$
32:0:0
     RDKit          3D

 94101  0  0  1  0  0  0  0  0999 V2000
  -29.1160  -23.0590   20.9350 C   0  0  0  0  0  3  0  0  0  0  0  0
  -28.5430  -21.8420   20.2600 N   0  0  0  0  0  4  0  0  0  0  0  0
  -27.7430  -21.4980   20.7650 H   0  0  0  0  0  0  0  0  0  0  0  0
  -28.1890  -22.1680   19.3740 H   0  0  0  0  0  0  0  0  0  0  0  0
  -29.4390  -20.6920   19.9010 C   0  0  0  0  0  2  0  0  0  0  0  0
  -29.6960  -19.6530   21.0380 C   0  0  0  0  0  2  0  0  0  0  0  0
  -29.2370  -18.1810   20.8180 C   0  0  0  0  0  2  0  0  0  0  0  0
  -30.3080  -17.1330   20.3870 C   0  0  0  0  0  2  0  0  0  0  0  0
  -29.8870  -15.6830   20.7830 C   0  0  0  0  0  2  0  0  0  0  0  0
  -30.6340  -14.4990   20.1050 C   0  0  0  0  0  0  0  0  0  0  0  0
  -30.3430  -12.3290   18.9490 C   0  0  0  0  0  2  0  0  0  0  0  0
  -29.3410  -12.5140   17.7890 C   0  0  0  0  0  2  0  0  0  0  0  0
  -27.8860  -12.3670   18.2810 C   0  0  0  0  0  2  0  0  0  0  0  0
  -27.5990  -13.2100   19.5510 C   0  0  0  0  0  3  0  0  0  0  0  0
  -28.7000  -12.9840   20.6120 C   0  0  0  0  0  2  0  0  0  0  0  0
  -29.9970  -13.3000   19.9960 N   0  0  0  0  0  0  0  0  0  0  0  0
  -31.7370  -14.7050   19.5870 O   0  0  0  0  0  0  0  0  0  0  0  0
  -25.2340  -13.8340   20.3530 C   0  0  0  0  0  0  0  0  0  0  0  0
  -24.1800  -13.0660   20.7710 C   0  0  0  0  0  0  0  0  0  0  0  0
  -24.6380  -11.7140   20.7330 C   0  0  0  0  0  0  0  0  0  0  0  0
  -26.2660  -12.9470   20.0870 N   0  0  0  0  0  0  0  0  0  0  0  0
  -25.9130  -11.6680   20.3730 N   0  0  0  0  0  0  0  0  0  0  0  0
  -23.9200  -10.4530   20.9610 C   0  0  0  0  0  0  0  0  0  0  0  0
  -24.3760   -9.5020   21.9010 C   0  0  0  0  0  3  0  0  0  0  0  0
  -23.6590   -8.3070   22.1140 C   0  0  0  0  0  3  0  0  0  0  0  0
  -22.4720   -8.0520   21.3870 C   0  0  0  0  0  0  0  0  0  0  0  0
  -22.0340   -8.9900   20.4370 C   0  0  0  0  0  3  0  0  0  0  0  0
  -22.7520  -10.1790   20.2210 C   0  0  0  0  0  3  0  0  0  0  0  0
  -21.7230   -6.9060   21.5100 O   0  0  0  0  0  0  0  0  0  0  0  0
  -21.6880   -6.1920   22.6810 C   0  0  0  0  0  0  0  0  0  0  0  0
  -21.2740   -6.7770   23.8980 C   0  0  0  0  0  3  0  0  0  0  0  0
  -21.1860   -5.9890   25.0620 C   0  0  0  0  0  3  0  0  0  0  0  0
  -21.5000   -4.6170   25.0120 C   0  0  0  0  0  0  0  0  0  0  0  0
  -21.9070   -4.0330   23.8000 C   0  0  0  0  0  3  0  0  0  0  0  0
  -21.9980   -4.8180   22.6370 C   0  0  0  0  0  0  0  0  0  0  0  0
  -22.3690   -4.2450   21.4670 F   0  0  0  0  0  0  0  0  0  0  0  0
  -21.4080   -3.8590   26.1290 F   0  0  0  0  0  0  0  0  0  0  0  0
  -22.7950  -13.5470   21.0950 C   0  0  0  0  0  0  0  0  0  0  0  0
  -22.1010  -12.8550   21.9930 N   0  0  0  0  0  0  0  0  0  0  0  0
  -22.3360  -14.5680   20.5860 O   0  0  0  0  0  0  0  0  0  0  0  0
  -22.4850  -12.0270   22.4250 H   0  0  0  0  0  0  0  0  0  0  0  0
  -21.1710  -13.1570   22.2520 H   0  0  0  0  0  0  0  0  0  0  0  0
  -25.3950  -15.2030   20.1590 N   0  0  0  0  0  0  0  0  0  0  0  0
  -24.6380  -15.8620   20.2950 H   0  0  0  0  0  0  0  0  0  0  0  0
  -26.2370  -15.6350   19.8030 H   0  0  0  0  0  0  0  0  0  0  0  0
  -29.4020  -22.8260   22.4540 C   0  0  0  0  0  2  0  0  0  0  0  0
  -30.7050  -22.0940   22.8050 C   0  0  0  0  0  0  0  0  0  0  0  0
  -30.7530  -21.4680   23.9760 N   0  0  0  0  0  0  0  0  0  0  0  0
  -31.6650  -22.0840   22.0390 O   0  0  0  0  0  0  0  0  0  0  0  0
  -29.9650  -21.4860   24.6110 H   0  0  0  0  0  0  0  0  0  0  0  0
  -31.5830  -20.9660   24.2550 H   0  0  0  0  0  0  0  0  0  0  0  0
  -28.1750  -24.3170   20.7650 C   0  0  0  0  0  2  0  0  0  0  0  0
  -28.6010  -25.3880   19.7160 C   0  0  0  0  0  2  0  0  0  0  0  0
  -28.4720  -26.7470   20.1840 O   0  0  0  0  0  0  0  0  0  0  0  0
  -24.6000  -31.8850   23.2360 C   0  0  0  0  0  0  0  0  0  0  0  0
  -27.2670  -27.4300   20.1610 C   0  0  0  0  0  0  0  0  0  0  0  0
  -23.4040  -30.4870   21.5820 C   0  0  0  0  0  3  0  0  0  0  0  0
  -24.8660  -28.9440   20.1660 C   0  0  0  0  0  0  0  0  0  0  0  0
  -25.9330  -30.8380   21.4060 C   0  0  0  0  0  2  0  0  0  0  0  0
  -26.0200  -29.4660   20.7610 C   0  0  0  0  0  0  0  0  0  0  0  0
  -27.2180  -28.7150   20.7520 C   0  0  0  0  0  3  0  0  0  0  0  0
  -26.0890  -26.9170   19.5720 C   0  0  0  0  0  3  0  0  0  0  0  0
  -24.8950  -27.6690   19.5730 C   0  0  0  0  0  3  0  0  0  0  0  0
  -23.6240  -29.8070   20.2040 C   0  0  0  0  0  2  0  0  0  0  0  0
  -24.6630  -31.0850   22.1330 N   0  0  0  0  0  0  0  0  0  0  0  0
  -23.5170  -32.1570   23.7700 O   0  0  0  0  0  0  0  0  0  0  0  0
  -22.7450  -29.4660   22.5360 C   0  0  0  0  0  0  0  0  0  0  0  0
  -21.4210  -29.2900   22.4010 N   0  0  0  0  0  0  0  0  0  0  0  0
  -23.4200  -28.8350   23.3550 O   0  0  0  0  0  0  0  0  0  0  0  0
  -20.9370  -29.8470   21.7100 H   0  0  0  0  0  0  0  0  0  0  0  0
  -18.0400  -28.1020   22.8660 C   0  0  0  0  0  0  0  0  0  0  0  0
  -20.5960  -28.3510   23.1590 C   0  0  0  0  0  3  0  0  0  0  0  0
  -20.7000  -26.9210   22.5780 C   0  0  0  0  0  2  0  0  0  0  0  0
  -19.6040  -26.6070   21.5530 C   0  0  0  0  0  2  0  0  0  0  0  0
  -18.2180  -26.7540   22.1870 C   0  0  0  0  0  2  0  0  0  0  0  0
  -19.1580  -28.8590   23.3090 C   0  0  0  0  0  0  0  0  0  0  0  0
  -18.9410  -30.1220   23.9020 C   0  0  0  0  0  3  0  0  0  0  0  0
  -17.6360  -30.6270   24.0600 C   0  0  0  0  0  3  0  0  0  0  0  0
  -16.5320  -29.8670   23.6360 C   0  0  0  0  0  3  0  0  0  0  0  0
  -16.7350  -28.6070   23.0450 C   0  0  0  0  0  3  0  0  0  0  0  0
  -25.8840  -32.5120   23.8660 C   0  0  0  0  0  3  0  0  0  0  0  0
  -26.3900  -31.7390   25.1460 C   0  0  1  0  0  0  0  0  0  0  0  0
  -25.2890  -31.5030   26.2070 C   0  0  0  0  0  1  0  0  0  0  0  0
  -26.9740  -30.3620   24.7550 C   0  0  0  0  0  1  0  0  0  0  0  0
  -27.5370  -32.5320   25.8160 C   0  0  0  0  0  1  0  0  0  0  0  0
  -25.5750  -33.9100   24.1940 N   0  0  0  0  0  0  0  0  0  0  0  0
  -25.9170  -34.9610   23.4380 C   0  0  0  0  0  0  0  0  0  0  0  0
  -26.5940  -34.8570   22.4110 O   0  0  0  0  0  0  0  0  0  0  0  0
  -24.9690  -34.0670   24.9870 H   0  0  0  0  0  0  0  0  0  0  0  0
  -24.1920  -36.7540   23.0740 C   0  0  0  0  0  1  0  0  0  0  0  0
  -25.4310  -36.3500   23.8910 C   0  0  0  0  0  3  0  0  0  0  0  0
  -27.5650  -37.2330   24.7240 C   0  0  0  0  0  1  0  0  0  0  0  0
  -26.4650  -37.4030   23.7770 N   0  0  0  0  0  0  0  0  0  0  0  0
  -26.0600  -38.3230   23.9270 H   0  0  0  0  0  0  0  0  0  0  0  0
  1 52  1  0
  1 46  1  0
  2  3  1  0
  2  1  1  0
  4  2  1  0
  5  2  1  0
  5  6  1  0
  7  6  1  0
  8  9  1  0
  8  7  1  0
 10  9  1  0
 11 16  1  0
 12 13  1  0
 12 11  1  0
 14 13  1  0
 14 21  1  0
 14 15  1  0
 16 10  1  0
 16 15  1  0
 17 10  2  0
 18 19  2  0
 19 38  1  0
 20 19  1  0
 20 23  1  0
 21 18  1  0
 21 22  1  0
 22 20  2  0
 23 24  1  0
 24 25  2  0
 26 29  1  0
 26 25  1  0
 27 26  2  0
 28 27  1  0
 28 23  2  0
 29 30  1  0
 30 31  1  0
 31 32  2  0
 33 32  1  0
 33 37  1  0
 34 33  2  0
 35 30  2  0
 35 34  1  0
 36 35  1  0
 38 39  1  0
 39 42  1  0
 39 41  1  0
 40 38  2  0
 43 44  1  0
 43 18  1  0
 45 43  1  0
 46 47  1  0
 47 48  1  0
 48 51  1  0
 48 50  1  0
 49 47  2  0
 53 54  1  0
 53 52  1  0
 55 66  2  0
 56 54  1  0
 56 61  1  0
 57 65  1  0
 57 67  1  0
 58 64  1  0
 58 60  1  0
 59 65  1  0
 60 59  1  0
 61 60  2  0
 62 63  1  0
 62 56  2  0
 63 58  2  0
 64 57  1  0
 65 55  1  0
 67 69  2  0
 68 67  1  0
 70 68  1  0
 71 80  2  0
 71 76  1  0
 72 68  1  0
 72 76  1  0
 73 72  1  0
 74 75  1  0
 74 73  1  0
 75 71  1  0
 76 77  2  0
 77 78  1  0
 79 78  2  0
 80 79  1  0
 81 55  1  0
 81 86  1  0
 81 82  1  0
 82 85  1  1
 82 83  1  0
 84 82  1  0
 86 89  1  0
 87 91  1  0
 87 86  1  0
 88 87  2  0
 91 90  1  0
 93 91  1  0
 93 94  1  0
 93 92  1  0
M  ISO  4   9 100  10 100  53 101  54 101
M  END
>  <TORSDO>  (32) 
F 26

>  <SCORE>  (32) 
-11.856

>  <name>  (32) 
32

>  <ligand_id>  (32) 
32

>  <original_smiles>  (32) 
[H]c1c([H])c([H])c2c(c1[H])C([H])([H])C([H])([H])C([H])([H])C2([H])N([H])C(=O)C1([H])N(C(=O)C([H])(N([H])C(=O)C([H])(N([H])C([H])([H])[H])C([H])([H])[H])C(C([H])([H])[H])(C([H])([H])[H])C([H])([H])[H])C([H])([H])c2c([H])c(OC([H])([H])C([H])([H])C([H])(C([H])([H])C(=O)N([H])[H])[N+]([H])([H])C([H])([H])C([H])([H])C([H])([H])C([H])([H])C([H])([H])C(=O)N3C([H])([H])C([H])([H])C([H])([H])C([H])(n4nc(-c5c([H])c([H])c(Oc6c([H])c([H])c(F)c([H])c6F)c([H])c5[H])c(C(=O)N([H])[H])c4N([H])[H])C3([H])[H])c([H])c([H])c2C1([H])[H]

>  <smiles>  (32) 
[H]c1c([H])c([H])c2c(c1[H])C([H])([H])C([H])([H])C([H])([H])C2([H])N([H])C(=O)C1([H])N(C(=O)C([H])(N([H])C(=O)C([H])(N([H])C([H])([H])[H])C([H])([H])[H])C(C([H])([H])[H])(C([H])([H])[H])C([H])([H])[H])C([H])([H])c2c([H])c(OC([H])([H])C([H])([H])C([H])(C([H])([H])C(=O)N([H])[H])[N+]([H])([H])C([H])([H])C([H])([H])C([H])([H])C([H])([H])C([H])([H])C(=O)N3C([H])([H])C([H])([H])C([H])([H])C([H])(n4nc(-c5c([H])c([H])c(Oc6c([H])c([H])c(F)c([H])c6F)c([H])c5[H])c(C(=O)N([H])[H])c4N([H])[H])C3([H])[H])c([H])c([H])c2C1([H])[H]

$$$$
33:0:0
     RDKit          3D

 96104  0  0  1  0  0  0  0  0999 V2000
  -28.4700  -24.3660   17.7460 C   0  0  0  0  0  3  0  0  0  0  0  0
  -27.6070  -23.2550   17.6600 C   0  0  0  0  0  3  0  0  0  0  0  0
  -30.1530  -22.9630   18.7870 C   0  0  0  0  0  3  0  0  0  0  0  0
  -29.7540  -24.2280   18.3130 C   0  0  0  0  0  0  0  0  0  0  0  0
  -28.0100  -21.9870   18.1380 C   0  0  0  0  0  0  0  0  0  0  0  0
  -29.2970  -21.8400   18.7170 C   0  0  0  0  0  0  0  0  0  0  0  0
  -27.0490  -20.8170   17.9860 C   0  0  0  0  0  1  0  0  0  0  0  0
  -30.7590  -25.3800   18.3710 C   0  0  0  0  0  2  0  0  0  0  0  0
  -30.2080  -26.8240   18.3940 C   0  0  0  0  0  2  0  0  0  0  0  0
  -29.6710  -27.3120   19.7530 C   0  0  0  0  0  2  0  0  0  0  0  0
  -28.4260  -26.6880   20.0450 O   0  0  0  0  0  0  0  0  0  0  0  0
  -24.6570  -31.8840   23.2250 C   0  0  0  0  0  0  0  0  0  0  0  0
  -27.2970  -27.4690   20.1110 C   0  0  0  0  0  0  0  0  0  0  0  0
  -23.4390  -30.4770   21.5940 C   0  0  0  0  0  3  0  0  0  0  0  0
  -24.8860  -28.9400   20.1620 C   0  0  0  0  0  0  0  0  0  0  0  0
  -25.9590  -30.8470   21.3750 C   0  0  0  0  0  2  0  0  0  0  0  0
  -26.0440  -29.4750   20.7370 C   0  0  0  0  0  0  0  0  0  0  0  0
  -27.2530  -28.7480   20.7180 C   0  0  0  0  0  3  0  0  0  0  0  0
  -26.1170  -26.9290   19.5660 C   0  0  0  0  0  3  0  0  0  0  0  0
  -24.9130  -27.6620   19.5780 C   0  0  0  0  0  3  0  0  0  0  0  0
  -23.6390  -29.7930   20.2140 C   0  0  0  0  0  2  0  0  0  0  0  0
  -24.7030  -31.0830   22.1240 N   0  0  0  0  0  0  0  0  0  0  0  0
  -23.5810  -32.1580   23.7720 O   0  0  0  0  0  0  0  0  0  0  0  0
  -22.7960  -29.4580   22.5620 C   0  0  0  0  0  0  0  0  0  0  0  0
  -21.4720  -29.2720   22.4390 N   0  0  0  0  0  0  0  0  0  0  0  0
  -23.4860  -28.8370   23.3760 O   0  0  0  0  0  0  0  0  0  0  0  0
  -20.9780  -29.8250   21.7510 H   0  0  0  0  0  0  0  0  0  0  0  0
  -18.1020  -28.0710   22.9440 C   0  0  0  0  0  0  0  0  0  0  0  0
  -20.6580  -28.3360   23.2160 C   0  0  0  0  0  3  0  0  0  0  0  0
  -20.7660  -26.9020   22.6450 C   0  0  0  0  0  2  0  0  0  0  0  0
  -19.6640  -26.5720   21.6330 C   0  0  0  0  0  2  0  0  0  0  0  0
  -18.2820  -26.7180   22.2780 C   0  0  0  0  0  2  0  0  0  0  0  0
  -19.2180  -28.8370   23.3700 C   0  0  0  0  0  0  0  0  0  0  0  0
  -18.9970  -30.1050   23.9510 C   0  0  0  0  0  3  0  0  0  0  0  0
  -17.6910  -30.6040   24.1150 C   0  0  0  0  0  3  0  0  0  0  0  0
  -16.5880  -29.8330   23.7070 C   0  0  0  0  0  3  0  0  0  0  0  0
  -16.7950  -28.5690   23.1260 C   0  0  0  0  0  3  0  0  0  0  0  0
  -25.9490  -32.5150   23.8330 C   0  0  0  0  0  3  0  0  0  0  0  0
  -25.6410  -33.9100   24.1720 N   0  0  0  0  0  0  0  0  0  0  0  0
  -25.9670  -34.9670   23.4160 C   0  0  0  0  0  0  0  0  0  0  0  0
  -26.6320  -34.8700   22.3800 O   0  0  0  0  0  0  0  0  0  0  0  0
  -25.0520  -34.0600   24.9780 H   0  0  0  0  0  0  0  0  0  0  0  0
  -24.2390  -36.7590   23.0710 C   0  0  0  0  0  1  0  0  0  0  0  0
  -25.4780  -36.3500   23.8800 C   0  0  0  0  0  3  0  0  0  0  0  0
  -27.6130  -37.2300   24.7160 C   0  0  0  0  0  1  0  0  0  0  0  0
  -26.5110  -37.4050   23.7750 N   0  0  0  0  0  0  0  0  0  0  0  0
  -26.1040  -38.3250   23.9300 H   0  0  0  0  0  0  0  0  0  0  0  0
  -26.4850  -31.7360   25.0970 C   0  0  1  0  0  0  0  0  0  0  0  0
  -25.4070  -31.4920   26.1780 C   0  0  0  0  0  1  0  0  0  0  0  0
  -27.0660  -30.3620   24.6870 C   0  0  0  0  0  1  0  0  0  0  0  0
  -27.6420  -32.5300   25.7490 C   0  0  0  0  0  1  0  0  0  0  0  0
  -29.8080  -20.5050   19.2760 C   0  0  0  0  0  2  0  0  0  0  0  0
  -29.5460  -21.4810   21.5660 C   0  0  0  0  0  1  0  0  0  0  0  0
  -29.4850  -20.2620   20.7170 N   0  0  2  0  0  4  0  0  0  0  0  0
  -28.5160  -19.9790   20.7510 H   0  0  0  0  0  0  0  0  0  0  0  0
  -30.2790  -19.1470   21.3130 C   0  0  0  0  0  2  0  0  0  0  0  0
  -29.8850  -17.7370   20.8110 C   0  0  0  0  0  2  0  0  0  0  0  0
  -30.7010  -16.6200   21.5030 C   0  0  0  0  0  2  0  0  0  0  0  0
  -30.7840  -14.3680   20.3940 C   0  0  0  0  0  0  0  0  0  0  0  0
  -30.4100  -12.2740   19.1450 C   0  0  0  0  0  2  0  0  0  0  0  0
  -29.4470  -12.5200   17.9650 C   0  0  0  0  0  2  0  0  0  0  0  0
  -27.9770  -12.4160   18.4170 C   0  0  0  0  0  2  0  0  0  0  0  0
  -27.6810  -13.2390   19.6980 C   0  0  0  0  0  3  0  0  0  0  0  0
  -28.7410  -12.9450   20.7820 C   0  0  0  0  0  2  0  0  0  0  0  0
  -30.0720  -13.2260   20.2120 N   0  0  0  0  0  0  0  0  0  0  0  0
  -31.8590  -14.5930   19.8290 O   0  0  0  0  0  0  0  0  0  0  0  0
  -30.2020  -15.2790   21.1830 N   0  0  0  0  0  0  0  0  0  0  0  0
  -29.3270  -15.0040   21.6030 H   0  0  0  0  0  0  0  0  0  0  0  0
  -25.2960  -13.9020   20.4110 C   0  0  0  0  0  0  0  0  0  0  0  0
  -24.2110  -13.1560   20.7950 C   0  0  0  0  0  0  0  0  0  0  0  0
  -24.6430  -11.7940   20.7710 C   0  0  0  0  0  0  0  0  0  0  0  0
  -26.3220  -12.9980   20.1840 N   0  0  0  0  0  0  0  0  0  0  0  0
  -25.9320  -11.7260   20.4560 N   0  0  0  0  0  0  0  0  0  0  0  0
  -23.8920  -10.5470   20.9790 C   0  0  0  0  0  0  0  0  0  0  0  0
  -24.3210   -9.5740   21.9080 C   0  0  0  0  0  3  0  0  0  0  0  0
  -23.5770   -8.3910   22.1050 C   0  0  0  0  0  3  0  0  0  0  0  0
  -22.3870   -8.1730   21.3750 C   0  0  0  0  0  0  0  0  0  0  0  0
  -21.9730   -9.1320   20.4360 C   0  0  0  0  0  3  0  0  0  0  0  0
  -22.7180  -10.3080   20.2360 C   0  0  0  0  0  3  0  0  0  0  0  0
  -21.6130   -7.0430   21.4810 O   0  0  0  0  0  0  0  0  0  0  0  0
  -21.5860   -6.2980   22.6320 C   0  0  0  0  0  0  0  0  0  0  0  0
  -21.2200   -6.8600   23.8750 C   0  0  0  0  0  3  0  0  0  0  0  0
  -21.1340   -6.0410   25.0180 C   0  0  0  0  0  3  0  0  0  0  0  0
  -21.4050   -4.6620   24.9200 C   0  0  0  0  0  0  0  0  0  0  0  0
  -21.7670   -4.1030   23.6820 C   0  0  0  0  0  3  0  0  0  0  0  0
  -21.8540   -4.9180   22.5410 C   0  0  0  0  0  0  0  0  0  0  0  0
  -22.1820   -4.3690   21.3460 F   0  0  0  0  0  0  0  0  0  0  0  0
  -21.3140   -3.8750   26.0160 F   0  0  0  0  0  0  0  0  0  0  0  0
  -22.8240  -13.6640   21.0720 C   0  0  0  0  0  0  0  0  0  0  0  0
  -22.0900  -12.9910   21.9510 N   0  0  0  0  0  0  0  0  0  0  0  0
  -22.4010  -14.6890   20.5410 O   0  0  0  0  0  0  0  0  0  0  0  0
  -22.4430  -12.1630   22.4090 H   0  0  0  0  0  0  0  0  0  0  0  0
  -21.1580  -13.3110   22.1750 H   0  0  0  0  0  0  0  0  0  0  0  0
  -25.4850  -15.2670   20.2150 N   0  0  0  0  0  0  0  0  0  0  0  0
  -24.7330  -15.9370   20.3400 H   0  0  0  0  0  0  0  0  0  0  0  0
  -26.3270  -15.6820   19.8380 H   0  0  0  0  0  0  0  0  0  0  0  0
  1  4  1  0
  2  1  2  0
  2  5  1  0
  4  8  1  0
  4  3  2  0
  5  6  2  0
  6  3  1  0
  6 52  1  0
  7  5  1  0
  8  9  1  0
  9 10  1  0
 10 11  1  0
 11 13  1  0
 12 23  2  0
 13 18  1  0
 14 22  1  0
 14 24  1  0
 15 21  1  0
 15 17  1  0
 16 22  1  0
 17 16  1  0
 18 17  2  0
 19 20  1  0
 19 13  2  0
 20 15  2  0
 21 14  1  0
 22 12  1  0
 24 26  2  0
 25 24  1  0
 27 25  1  0
 28 37  2  0
 28 33  1  0
 29 25  1  0
 29 33  1  0
 30 29  1  0
 31 32  1  0
 31 30  1  0
 32 28  1  0
 33 34  2  0
 34 35  1  0
 36 35  2  0
 37 36  1  0
 38 12  1  0
 38 39  1  0
 38 48  1  0
 39 42  1  0
 40 44  1  0
 40 39  1  0
 41 40  2  0
 44 43  1  0
 46 44  1  0
 46 47  1  0
 46 45  1  0
 48 51  1  1
 48 49  1  0
 50 48  1  0
 52 54  1  0
 54 55  1  6
 54 56  1  0
 54 53  1  0
 57 56  1  0
 57 58  1  0
 59 67  1  0
 60 65  1  0
 61 62  1  0
 61 60  1  0
 63 62  1  0
 63 72  1  0
 63 64  1  0
 65 59  1  0
 65 64  1  0
 66 59  2  0
 67 58  1  0
 67 68  1  0
 69 70  2  0
 70 89  1  0
 71 70  1  0
 71 74  1  0
 72 69  1  0
 72 73  1  0
 73 71  2  0
 74 75  1  0
 75 76  2  0
 77 80  1  0
 77 76  1  0
 78 77  2  0
 79 78  1  0
 79 74  2  0
 80 81  1  0
 81 82  1  0
 82 83  2  0
 84 83  1  0
 84 88  1  0
 85 84  2  0
 86 81  2  0
 86 85  1  0
 87 86  1  0
 89 90  1  0
 90 93  1  0
 90 92  1  0
 91 89  2  0
 94 95  1  0
 94 69  1  0
 96 94  1  0
M  ISO  4  10 101  11 101  59 100  67 100
M  END
>  <TORSDO>  (33) 
F 24

>  <SCORE>  (33) 
-12.675

>  <name>  (33) 
33

>  <ligand_id>  (33) 
33

>  <original_smiles>  (33) 
[H]c1c([H])c([H])c2c(c1[H])C([H])([H])C([H])([H])C([H])([H])C2([H])N([H])C(=O)C1([H])N(C(=O)C([H])(N([H])C(=O)C([H])(N([H])C([H])([H])[H])C([H])([H])[H])C(C([H])([H])[H])(C([H])([H])[H])C([H])([H])[H])C([H])([H])c2c([H])c(OC([H])([H])C([H])([H])C([H])([H])c3c([H])c([H])c(C([H])([H])[H])c(C([H])([H])[N+]([H])(C([H])([H])[H])C([H])([H])C([H])([H])C([H])([H])N([H])C(=O)N4C([H])([H])C([H])([H])C([H])([H])C([H])(n5nc(-c6c([H])c([H])c(Oc7c([H])c([H])c(F)c([H])c7F)c([H])c6[H])c(C(=O)N([H])[H])c5N([H])[H])C4([H])[H])c3[H])c([H])c([H])c2C1([H])[H]

>  <smiles>  (33) 
[H]c1c([H])c([H])c2c(c1[H])C([H])([H])C([H])([H])C([H])([H])C2([H])N([H])C(=O)C1([H])N(C(=O)C([H])(N([H])C(=O)C([H])(N([H])C([H])([H])[H])C([H])([H])[H])C(C([H])([H])[H])(C([H])([H])[H])C([H])([H])[H])C([H])([H])c2c([H])c(OC([H])([H])C([H])([H])C([H])([H])c3c([H])c([H])c(C([H])([H])[H])c(C([H])([H])[N+]([H])(C([H])([H])[H])C([H])([H])C([H])([H])C([H])([H])N([H])C(=O)N4C([H])([H])C([H])([H])C([H])([H])C([H])(n5nc(-c6c([H])c([H])c(Oc7c([H])c([H])c(F)c([H])c7F)c([H])c6[H])c(C(=O)N([H])[H])c5N([H])[H])C4([H])[H])c3[H])c([H])c([H])c2C1([H])[H]

$$$$
34:0:0
     RDKit          3D

 97105  0  0  1  0  0  0  0  0999 V2000
  -33.0510  -26.2870   18.4850 C   0  0  0  0  0  3  0  0  0  0  0  0
  -32.1350  -27.1020   17.8020 C   0  0  0  0  0  3  0  0  0  0  0  0
  -32.5820  -25.2800   19.3440 C   0  0  0  0  0  3  0  0  0  0  0  0
  -30.7490  -26.9200   17.9800 C   0  0  0  0  0  0  0  0  0  0  0  0
  -31.1970  -25.0680   19.5340 C   0  0  0  0  0  0  0  0  0  0  0  0
  -30.2650  -25.9040   18.8520 C   0  0  0  0  0  0  0  0  0  0  0  0
  -29.8040  -27.8510   17.2350 C   0  0  0  0  0  1  0  0  0  0  0  0
  -30.7840  -23.9770   20.5240 C   0  0  0  0  0  2  0  0  0  0  0  0
  -31.9670  -22.1130   19.1910 C   0  0  0  0  0  1  0  0  0  0  0  0
  -30.6810  -22.5480   19.9250 C   0  0  0  0  0  3  0  0  0  0  0  0
  -30.4060  -21.6110   21.0160 N   0  0  0  0  0  0  0  0  0  0  0  0
  -31.2250  -21.5370   21.6120 H   0  0  0  0  0  0  0  0  0  0  0  0
  -29.9530  -20.2880   20.5730 C   0  0  0  0  0  2  0  0  0  0  0  0
  -30.6910  -19.1610   21.3360 C   0  0  0  0  0  2  0  0  0  0  0  0
  -30.3230  -17.8080   20.8550 N   0  0  0  0  0  4  0  0  0  0  0  0
  -29.3200  -17.7360   20.9020 H   0  0  0  0  0  0  0  0  0  0  0  0
  -30.5980  -17.7210   19.8890 H   0  0  0  0  0  0  0  0  0  0  0  0
  -30.9290  -16.7000   21.6430 C   0  0  0  0  0  2  0  0  0  0  0  0
  -30.2060  -15.3360   21.4900 C   0  0  0  0  0  2  0  0  0  0  0  0
  -30.7230  -14.3710   20.4030 C   0  0  0  0  0  0  0  0  0  0  0  0
  -30.3490  -12.3150   19.0640 C   0  0  0  0  0  2  0  0  0  0  0  0
  -29.3490  -12.5820   17.9200 C   0  0  0  0  0  2  0  0  0  0  0  0
  -27.8960  -12.4250   18.4120 C   0  0  0  0  0  2  0  0  0  0  0  0
  -27.6270  -13.2140   19.7210 C   0  0  0  0  0  3  0  0  0  0  0  0
  -28.7200  -12.9020   20.7670 C   0  0  0  0  0  2  0  0  0  0  0  0
  -30.0260  -13.2270   20.1710 N   0  0  0  0  0  0  0  0  0  0  0  0
  -31.7410  -14.6650   19.7650 O   0  0  0  0  0  0  0  0  0  0  0  0
  -25.2520  -13.8360   20.5010 C   0  0  0  0  0  0  0  0  0  0  0  0
  -24.1910  -13.0670   20.9000 C   0  0  0  0  0  0  0  0  0  0  0  0
  -24.6430  -11.7130   20.8490 C   0  0  0  0  0  0  0  0  0  0  0  0
  -26.2850  -12.9490   20.2370 N   0  0  0  0  0  0  0  0  0  0  0  0
  -25.9230  -11.6680   20.5000 N   0  0  0  0  0  0  0  0  0  0  0  0
  -23.9180  -10.4540   21.0580 C   0  0  0  0  0  0  0  0  0  0  0  0
  -24.3850   -9.4750   21.9600 C   0  0  0  0  0  3  0  0  0  0  0  0
  -23.6610   -8.2790   22.1570 C   0  0  0  0  0  3  0  0  0  0  0  0
  -22.4570   -8.0550   21.4490 C   0  0  0  0  0  0  0  0  0  0  0  0
  -22.0090   -9.0230   20.5350 C   0  0  0  0  0  3  0  0  0  0  0  0
  -22.7330  -10.2100   20.3350 C   0  0  0  0  0  3  0  0  0  0  0  0
  -21.7000   -6.9130   21.5570 O   0  0  0  0  0  0  0  0  0  0  0  0
  -21.7090   -6.1490   22.6950 C   0  0  0  0  0  0  0  0  0  0  0  0
  -21.3710   -6.6870   23.9570 C   0  0  0  0  0  3  0  0  0  0  0  0
  -21.3220   -5.8510   25.0900 C   0  0  0  0  0  3  0  0  0  0  0  0
  -21.6040   -4.4770   24.9640 C   0  0  0  0  0  0  0  0  0  0  0  0
  -21.9340   -3.9370   23.7080 C   0  0  0  0  0  3  0  0  0  0  0  0
  -21.9830   -4.7710   22.5780 C   0  0  0  0  0  0  0  0  0  0  0  0
  -22.2830   -4.2430   21.3660 F   0  0  0  0  0  0  0  0  0  0  0  0
  -21.5490   -3.6710   26.0500 F   0  0  0  0  0  0  0  0  0  0  0  0
  -22.8050  -13.5500   21.2210 C   0  0  0  0  0  0  0  0  0  0  0  0
  -22.1050  -12.8550   22.1110 N   0  0  0  0  0  0  0  0  0  0  0  0
  -22.3540  -14.5790   20.7190 O   0  0  0  0  0  0  0  0  0  0  0  0
  -22.4830  -12.0220   22.5380 H   0  0  0  0  0  0  0  0  0  0  0  0
  -21.1770  -13.1600   22.3680 H   0  0  0  0  0  0  0  0  0  0  0  0
  -25.4170  -15.2060   20.3230 N   0  0  0  0  0  0  0  0  0  0  0  0
  -24.6500  -15.8590   20.4420 H   0  0  0  0  0  0  0  0  0  0  0  0
  -26.2550  -15.6410   19.9600 H   0  0  0  0  0  0  0  0  0  0  0  0
  -28.7630  -25.8220   19.1210 C   0  0  0  0  0  2  0  0  0  0  0  0
  -28.4480  -26.7710   20.1310 O   0  0  0  0  0  0  0  0  0  0  0  0
  -24.6210  -31.8570   23.2080 C   0  0  0  0  0  0  0  0  0  0  0  0
  -27.2450  -27.4360   20.1050 C   0  0  0  0  0  0  0  0  0  0  0  0
  -23.3990  -30.4570   21.5710 C   0  0  0  0  0  3  0  0  0  0  0  0
  -24.8420  -28.9170   20.1360 C   0  0  0  0  0  0  0  0  0  0  0  0
  -25.9190  -30.8180   21.3520 C   0  0  0  0  0  2  0  0  0  0  0  0
  -25.9980  -29.4460   20.7200 C   0  0  0  0  0  0  0  0  0  0  0  0
  -27.1960  -28.7060   20.7120 C   0  0  0  0  0  3  0  0  0  0  0  0
  -26.0710  -26.9040   19.5250 C   0  0  0  0  0  3  0  0  0  0  0  0
  -24.8700  -27.6420   19.5410 C   0  0  0  0  0  3  0  0  0  0  0  0
  -23.5980  -29.7750   20.1890 C   0  0  0  0  0  2  0  0  0  0  0  0
  -24.6650  -31.0590   22.1030 N   0  0  0  0  0  0  0  0  0  0  0  0
  -23.5440  -32.1290   23.7570 O   0  0  0  0  0  0  0  0  0  0  0  0
  -22.7570  -29.4350   22.5360 C   0  0  0  0  0  0  0  0  0  0  0  0
  -21.4300  -29.2620   22.4250 N   0  0  0  0  0  0  0  0  0  0  0  0
  -23.4490  -28.8030   23.3380 O   0  0  0  0  0  0  0  0  0  0  0  0
  -20.9350  -29.8280   21.7500 H   0  0  0  0  0  0  0  0  0  0  0  0
  -18.0560  -28.0880   22.9510 C   0  0  0  0  0  0  0  0  0  0  0  0
  -20.6180  -28.3260   23.2000 C   0  0  0  0  0  3  0  0  0  0  0  0
  -20.7050  -26.8960   22.6160 C   0  0  0  0  0  2  0  0  0  0  0  0
  -19.5910  -26.5870   21.6110 C   0  0  0  0  0  2  0  0  0  0  0  0
  -18.2180  -26.7390   22.2700 C   0  0  0  0  0  2  0  0  0  0  0  0
  -19.1850  -28.8410   23.3740 C   0  0  0  0  0  0  0  0  0  0  0  0
  -18.9830  -30.1050   23.9700 C   0  0  0  0  0  3  0  0  0  0  0  0
  -17.6840  -30.6160   24.1480 C   0  0  0  0  0  3  0  0  0  0  0  0
  -16.5690  -29.8610   23.7410 C   0  0  0  0  0  3  0  0  0  0  0  0
  -16.7570  -28.6000   23.1480 C   0  0  0  0  0  3  0  0  0  0  0  0
  -25.9130  -32.4830   23.8190 C   0  0  0  0  0  3  0  0  0  0  0  0
  -26.4490  -31.7010   25.0790 C   0  0  1  0  0  0  0  0  0  0  0  0
  -25.3710  -31.4530   26.1590 C   0  0  0  0  0  1  0  0  0  0  0  0
  -27.0250  -30.3280   24.6600 C   0  0  0  0  0  1  0  0  0  0  0  0
  -27.6080  -32.4880   25.7330 C   0  0  0  0  0  1  0  0  0  0  0  0
  -25.6070  -33.8780   24.1630 N   0  0  0  0  0  0  0  0  0  0  0  0
  -25.9380  -34.9370   23.4110 C   0  0  0  0  0  0  0  0  0  0  0  0
  -26.6030  -34.8410   22.3750 O   0  0  0  0  0  0  0  0  0  0  0  0
  -25.0180  -34.0280   24.9680 H   0  0  0  0  0  0  0  0  0  0  0  0
  -24.2070  -36.7290   23.0780 C   0  0  0  0  0  1  0  0  0  0  0  0
  -25.4520  -36.3210   23.8830 C   0  0  0  0  0  3  0  0  0  0  0  0
  -27.5920  -37.1950   24.7070 C   0  0  0  0  0  1  0  0  0  0  0  0
  -26.4840  -37.3740   23.7740 N   0  0  0  0  0  0  0  0  0  0  0  0
  -26.0800  -38.2940   23.9350 H   0  0  0  0  0  0  0  0  0  0  0  0
  1  3  1  0
  2  4  1  0
  2  1  2  0
  3  5  2  0
  4  6  2  0
  5  8  1  0
  6 56  1  0
  6  5  1  0
  7  4  1  0
 10  9  1  0
 10  8  1  0
 10 11  1  0
 11 12  1  0
 13 11  1  0
 13 14  1  0
 15 16  1  0
 15 14  1  0
 15 18  1  0
 17 15  1  0
 19 18  1  0
 20 19  1  0
 21 26  1  0
 22 23  1  0
 22 21  1  0
 24 23  1  0
 24 31  1  0
 24 25  1  0
 26 20  1  0
 26 25  1  0
 27 20  2  0
 28 29  2  0
 29 48  1  0
 30 29  1  0
 30 33  1  0
 31 32  1  0
 31 28  1  0
 32 30  2  0
 33 34  1  0
 34 35  2  0
 36 39  1  0
 36 35  1  0
 37 36  2  0
 38 37  1  0
 38 33  2  0
 39 40  1  0
 40 41  1  0
 41 42  2  0
 43 42  1  0
 43 47  1  0
 44 43  2  0
 45 40  2  0
 45 44  1  0
 46 45  1  0
 48 49  1  0
 49 52  1  0
 49 51  1  0
 50 48  2  0
 53 54  1  0
 53 28  1  0
 55 53  1  0
 56 57  1  0
 58 69  2  0
 59 57  1  0
 59 64  1  0
 60 68  1  0
 60 70  1  0
 61 67  1  0
 61 63  1  0
 62 68  1  0
 63 62  1  0
 64 63  2  0
 65 66  1  0
 65 59  2  0
 66 61  2  0
 67 60  1  0
 68 58  1  0
 70 72  2  0
 71 70  1  0
 73 71  1  0
 74 83  2  0
 74 79  1  0
 75 71  1  0
 75 79  1  0
 76 75  1  0
 77 78  1  0
 77 76  1  0
 78 74  1  0
 79 80  2  0
 80 81  1  0
 82 81  2  0
 83 82  1  0
 84 58  1  0
 84 89  1  0
 84 85  1  0
 85 88  1  1
 85 86  1  0
 87 85  1  0
 89 92  1  0
 90 94  1  0
 90 89  1  0
 91 90  2  0
 94 93  1  0
 96 94  1  0
 96 97  1  0
 96 95  1  0
M  ISO  4  19 100  20 100  56 101  57 101
M  END
>  <TORSDO>  (34) 
F 25

>  <SCORE>  (34) 
-12.181

>  <name>  (34) 
34

>  <ligand_id>  (34) 
34

>  <original_smiles>  (34) 
[H]c1c([H])c([H])c2c(c1[H])C([H])([H])C([H])([H])C([H])([H])C2([H])N([H])C(=O)C1([H])N(C(=O)C([H])(N([H])C(=O)C([H])(N([H])C([H])([H])[H])C([H])([H])[H])C(C([H])([H])[H])(C([H])([H])[H])C([H])([H])[H])C([H])([H])c2c([H])c(OC([H])([H])c3c(C([H])([H])[H])c([H])c([H])c([H])c3C([H])([H])C([H])(N([H])C([H])([H])C([H])([H])[N+]([H])([H])C([H])([H])C([H])([H])C(=O)N3C([H])([H])C([H])([H])C([H])([H])C([H])(n4nc(-c5c([H])c([H])c(Oc6c([H])c([H])c(F)c([H])c6F)c([H])c5[H])c(C(=O)N([H])[H])c4N([H])[H])C3([H])[H])C([H])([H])[H])c([H])c([H])c2C1([H])[H]

>  <smiles>  (34) 
[H]c1c([H])c([H])c2c(c1[H])C([H])([H])C([H])([H])C([H])([H])C2([H])N([H])C(=O)C1([H])N(C(=O)C([H])(N([H])C(=O)C([H])(N([H])C([H])([H])[H])C([H])([H])[H])C(C([H])([H])[H])(C([H])([H])[H])C([H])([H])[H])C([H])([H])c2c([H])c(OC([H])([H])c3c(C([H])([H])[H])c([H])c([H])c([H])c3C([H])([H])C([H])(N([H])C([H])([H])C([H])([H])[N+]([H])([H])C([H])([H])C([H])([H])C(=O)N3C([H])([H])C([H])([H])C([H])([H])C([H])(n4nc(-c5c([H])c([H])c(Oc6c([H])c([H])c(F)c([H])c6F)c([H])c5[H])c(C(=O)N([H])[H])c4N([H])[H])C3([H])[H])C([H])([H])[H])c([H])c([H])c2C1([H])[H]

$$$$
35:0:0
     RDKit          3D

 92100  0  0  1  0  0  0  0  0999 V2000
  -30.3160  -21.7620   22.2110 C   0  0  0  0  0  2  0  0  0  0  0  0
  -28.0250  -21.1180   21.3490 C   0  0  0  0  0  2  0  0  0  0  0  0
  -30.3510  -22.8900   21.1540 C   0  0  0  0  0  2  0  0  0  0  0  0
  -28.1410  -22.2610   20.3180 C   0  0  0  0  0  2  0  0  0  0  0  0
  -29.3870  -20.5790   21.8440 C   0  0  0  0  0  3  0  0  0  0  0  0
  -28.9780  -23.3750   20.8370 N   0  0  2  0  0  4  0  0  0  0  0  0
  -28.5560  -23.6500   21.7110 H   0  0  0  0  0  0  0  0  0  0  0  0
  -30.0230  -19.5770   20.8590 C   0  0  0  0  0  0  0  0  0  0  0  0
  -30.0990  -18.2960   21.2550 N   0  0  0  0  0  0  0  0  0  0  0  0
  -30.4430  -19.9600   19.7650 O   0  0  0  0  0  0  0  0  0  0  0  0
  -29.7430  -18.0750   22.1750 H   0  0  0  0  0  0  0  0  0  0  0  0
  -30.7180  -17.2050   20.4940 C   0  0  0  0  0  2  0  0  0  0  0  0
  -30.2780  -15.8050   20.9970 C   0  0  0  0  0  2  0  0  0  0  0  0
  -30.8870  -14.6470   20.1740 C   0  0  0  0  0  0  0  0  0  0  0  0
  -30.5430  -12.5290   18.9490 C   0  0  0  0  0  2  0  0  0  0  0  0
  -29.5620  -12.7750   17.7860 C   0  0  0  0  0  2  0  0  0  0  0  0
  -28.1020  -12.6310   18.2610 C   0  0  0  0  0  2  0  0  0  0  0  0
  -27.8140  -13.4350   19.5580 C   0  0  0  0  0  3  0  0  0  0  0  0
  -28.9030  -13.1610   20.6200 C   0  0  0  0  0  2  0  0  0  0  0  0
  -30.2070  -13.4790   20.0200 N   0  0  0  0  0  0  0  0  0  0  0  0
  -31.9640  -14.8500   19.6040 O   0  0  0  0  0  0  0  0  0  0  0  0
  -25.4310  -14.0370   20.3260 C   0  0  0  0  0  0  0  0  0  0  0  0
  -24.3750  -13.2620   20.7220 C   0  0  0  0  0  0  0  0  0  0  0  0
  -24.8390  -11.9110   20.6760 C   0  0  0  0  0  0  0  0  0  0  0  0
  -26.4730  -13.1600   20.0690 N   0  0  0  0  0  0  0  0  0  0  0  0
  -26.1190  -11.8750   20.3330 N   0  0  0  0  0  0  0  0  0  0  0  0
  -24.1210  -10.6460   20.8800 C   0  0  0  0  0  0  0  0  0  0  0  0
  -24.5590   -9.6980   21.8310 C   0  0  0  0  0  3  0  0  0  0  0  0
  -23.8430   -8.4960   22.0240 C   0  0  0  0  0  3  0  0  0  0  0  0
  -22.6770   -8.2350   21.2650 C   0  0  0  0  0  0  0  0  0  0  0  0
  -22.2610   -9.1720   20.3050 C   0  0  0  0  0  3  0  0  0  0  0  0
  -22.9760  -10.3660   20.1100 C   0  0  0  0  0  3  0  0  0  0  0  0
  -21.9330   -7.0850   21.3670 O   0  0  0  0  0  0  0  0  0  0  0  0
  -21.8480   -6.3850   22.5450 C   0  0  0  0  0  0  0  0  0  0  0  0
  -21.3700   -6.9790   23.7330 C   0  0  0  0  0  3  0  0  0  0  0  0
  -21.2340   -6.2040   24.9030 C   0  0  0  0  0  3  0  0  0  0  0  0
  -21.5640   -4.8350   24.8830 C   0  0  0  0  0  0  0  0  0  0  0  0
  -22.0340   -4.2410   23.6990 C   0  0  0  0  0  3  0  0  0  0  0  0
  -22.1720   -5.0130   22.5330 C   0  0  0  0  0  0  0  0  0  0  0  0
  -22.6060   -4.4300   21.3880 F   0  0  0  0  0  0  0  0  0  0  0  0
  -21.4250   -4.0890   26.0030 F   0  0  0  0  0  0  0  0  0  0  0  0
  -22.9850  -13.7330   21.0350 C   0  0  0  0  0  0  0  0  0  0  0  0
  -22.2870  -13.0360   21.9260 N   0  0  0  0  0  0  0  0  0  0  0  0
  -22.5250  -14.7550   20.5260 O   0  0  0  0  0  0  0  0  0  0  0  0
  -22.6730  -12.2100   22.3580 H   0  0  0  0  0  0  0  0  0  0  0  0
  -21.3550  -13.3320   22.1790 H   0  0  0  0  0  0  0  0  0  0  0  0
  -25.5880  -15.4080   20.1440 N   0  0  0  0  0  0  0  0  0  0  0  0
  -24.8230  -16.0630   20.2630 H   0  0  0  0  0  0  0  0  0  0  0  0
  -26.4310  -15.8440   19.7890 H   0  0  0  0  0  0  0  0  0  0  0  0
  -28.9530  -24.5880   19.9650 C   0  0  0  0  0  2  0  0  0  0  0  0
  -29.0430  -25.9060   20.7690 C   0  0  0  0  0  2  0  0  0  0  0  0
  -28.8980  -27.0630   19.9390 O   0  0  0  0  0  0  0  0  0  0  0  0
  -24.6750  -31.8130   23.1620 C   0  0  0  0  0  0  0  0  0  0  0  0
  -27.6730  -27.6850   19.9880 C   0  0  0  0  0  0  0  0  0  0  0  0
  -23.5950  -30.3900   21.4490 C   0  0  0  0  0  3  0  0  0  0  0  0
  -25.1760  -29.0040   20.0070 C   0  0  0  0  0  0  0  0  0  0  0  0
  -26.0900  -30.9330   21.3100 C   0  0  0  0  0  2  0  0  0  0  0  0
  -26.2830  -29.5920   20.6330 C   0  0  0  0  0  0  0  0  0  0  0  0
  -27.5350  -28.9400   20.6240 C   0  0  0  0  0  3  0  0  0  0  0  0
  -26.5550  -27.1050   19.3560 C   0  0  0  0  0  3  0  0  0  0  0  0
  -25.3060  -27.7570   19.3680 C   0  0  0  0  0  3  0  0  0  0  0  0
  -23.8760  -29.7720   20.0530 C   0  0  0  0  0  2  0  0  0  0  0  0
  -24.8020  -31.0600   22.0330 N   0  0  0  0  0  0  0  0  0  0  0  0
  -23.5680  -31.9920   23.6900 O   0  0  0  0  0  0  0  0  0  0  0  0
  -23.0010  -29.2960   22.3620 C   0  0  0  0  0  0  0  0  0  0  0  0
  -21.6900  -29.0420   22.2140 N   0  0  0  0  0  0  0  0  0  0  0  0
  -23.7140  -28.6790   23.1570 O   0  0  0  0  0  0  0  0  0  0  0  0
  -21.1740  -29.5980   21.5470 H   0  0  0  0  0  0  0  0  0  0  0  0
  -18.3800  -27.6630   22.6540 C   0  0  0  0  0  0  0  0  0  0  0  0
  -20.9240  -28.0280   22.9370 C   0  0  0  0  0  3  0  0  0  0  0  0
  -21.0930  -26.6350   22.2880 C   0  0  0  0  0  2  0  0  0  0  0  0
  -20.0030  -26.3130   21.2610 C   0  0  0  0  0  2  0  0  0  0  0  0
  -18.6190  -26.3590   21.9130 C   0  0  0  0  0  2  0  0  0  0  0  0
  -19.4630  -28.4550   23.1220 C   0  0  0  0  0  0  0  0  0  0  0  0
  -19.1870  -29.6760   23.7750 C   0  0  0  0  0  3  0  0  0  0  0  0
  -17.8610  -30.1050   23.9670 C   0  0  0  0  0  3  0  0  0  0  0  0
  -16.7930  -29.3110   23.5170 C   0  0  0  0  0  3  0  0  0  0  0  0
  -17.0530  -28.0910   22.8650 C   0  0  0  0  0  3  0  0  0  0  0  0
  -25.9060  -32.5060   23.8280 C   0  0  0  0  0  3  0  0  0  0  0  0
  -25.5120  -33.8830   24.1570 N   0  0  0  0  0  0  0  0  0  0  0  0
  -25.8110  -34.9550   23.4120 C   0  0  0  0  0  0  0  0  0  0  0  0
  -26.5170  -34.8930   22.4020 O   0  0  0  0  0  0  0  0  0  0  0  0
  -24.8820  -33.9980   24.9370 H   0  0  0  0  0  0  0  0  0  0  0  0
  -23.9920  -36.6470   23.0190 C   0  0  0  0  0  1  0  0  0  0  0  0
  -25.2340  -36.3110   23.8610 C   0  0  0  0  0  3  0  0  0  0  0  0
  -27.2920  -37.3120   24.7480 C   0  0  0  0  0  1  0  0  0  0  0  0
  -26.2080  -37.4210   23.7750 N   0  0  0  0  0  0  0  0  0  0  0  0
  -25.7470  -38.3160   23.9130 H   0  0  0  0  0  0  0  0  0  0  0  0
  -26.4220  -31.7500   25.1130 C   0  0  1  0  0  0  0  0  0  0  0  0
  -25.3090  -31.4420   26.1430 C   0  0  0  0  0  1  0  0  0  0  0  0
  -27.0910  -30.4100   24.7260 C   0  0  0  0  0  1  0  0  0  0  0  0
  -27.5070  -32.5960   25.8210 C   0  0  0  0  0  1  0  0  0  0  0  0
  2  5  1  0
  3  1  1  0
  4  6  1  0
  4  2  1  0
  5  8  1  0
  5  1  1  0
  6  3  1  0
  6  7  1  1
  8  9  1  0
  9 11  1  0
 10  8  2  0
 12 13  1  0
 12  9  1  0
 14 13  1  0
 15 20  1  0
 16 17  1  0
 16 15  1  0
 18 17  1  0
 18 25  1  0
 18 19  1  0
 20 14  1  0
 20 19  1  0
 21 14  2  0
 22 23  2  0
 23 42  1  0
 24 23  1  0
 24 27  1  0
 25 22  1  0
 25 26  1  0
 26 24  2  0
 27 28  1  0
 28 29  2  0
 30 33  1  0
 30 29  1  0
 31 30  2  0
 32 31  1  0
 32 27  2  0
 33 34  1  0
 34 35  1  0
 35 36  2  0
 37 36  1  0
 37 41  1  0
 38 37  2  0
 39 34  2  0
 39 38  1  0
 40 39  1  0
 42 43  1  0
 43 46  1  0
 43 45  1  0
 44 42  2  0
 47 48  1  0
 47 22  1  0
 49 47  1  0
 50 51  1  0
 50  6  1  0
 52 54  1  0
 52 51  1  0
 53 64  2  0
 54 59  1  0
 55 63  1  0
 55 65  1  0
 56 62  1  0
 56 58  1  0
 57 63  1  0
 58 57  1  0
 59 58  2  0
 60 61  1  0
 60 54  2  0
 61 56  2  0
 62 55  1  0
 63 53  1  0
 65 67  2  0
 66 65  1  0
 68 66  1  0
 69 78  2  0
 69 74  1  0
 70 66  1  0
 70 74  1  0
 71 70  1  0
 72 73  1  0
 72 71  1  0
 73 69  1  0
 74 75  2  0
 75 76  1  0
 77 76  2  0
 78 77  1  0
 79 53  1  0
 79 80  1  0
 79 89  1  0
 80 83  1  0
 81 85  1  0
 81 80  1  0
 82 81  2  0
 85 84  1  0
 87 85  1  0
 87 88  1  0
 87 86  1  0
 89 92  1  1
 89 90  1  0
 91 89  1  0
M  ISO  4  13 100  14 100  51 101  52 101
M  END
>  <TORSDO>  (35) 
F 21

>  <SCORE>  (35) 
-12.587

>  <name>  (35) 
35

>  <ligand_id>  (35) 
35

>  <original_smiles>  (35) 
[H]c1c([H])c([H])c2c(c1[H])C([H])([H])C([H])([H])C([H])([H])C2([H])N([H])C(=O)C1([H])N(C(=O)C([H])(N([H])C(=O)C([H])(N([H])C([H])([H])[H])C([H])([H])[H])C(C([H])([H])[H])(C([H])([H])[H])C([H])([H])[H])C([H])([H])c2c([H])c(OC([H])([H])C([H])([H])[N+]3([H])C([H])([H])C([H])([H])C([H])(C(=O)N([H])C([H])([H])C([H])([H])C(=O)N4C([H])([H])C([H])([H])C([H])([H])C([H])(n5nc(-c6c([H])c([H])c(Oc7c([H])c([H])c(F)c([H])c7F)c([H])c6[H])c(C(=O)N([H])[H])c5N([H])[H])C4([H])[H])C([H])([H])C3([H])[H])c([H])c([H])c2C1([H])[H]

>  <smiles>  (35) 
[H]c1c([H])c([H])c2c(c1[H])C([H])([H])C([H])([H])C([H])([H])C2([H])N([H])C(=O)C1([H])N(C(=O)C([H])(N([H])C(=O)C([H])(N([H])C([H])([H])[H])C([H])([H])[H])C(C([H])([H])[H])(C([H])([H])[H])C([H])([H])[H])C([H])([H])c2c([H])c(OC([H])([H])C([H])([H])[N+]3([H])C([H])([H])C([H])([H])C([H])(C(=O)N([H])C([H])([H])C([H])([H])C(=O)N4C([H])([H])C([H])([H])C([H])([H])C([H])(n5nc(-c6c([H])c([H])c(Oc7c([H])c([H])c(F)c([H])c7F)c([H])c6[H])c(C(=O)N([H])[H])c5N([H])[H])C4([H])[H])C([H])([H])C3([H])[H])c([H])c([H])c2C1([H])[H]

$$$$
36:0:0
     RDKit          3D

 99104  0  0  1  0  0  0  0  0999 V2000
  -22.6570  -26.6260   19.9010 C   0  0  0  0  0  1  0  0  0  0  0  0
  -20.5000  -25.8630   20.7460 C   0  0  0  0  0  2  0  0  0  0  0  0
  -21.7070  -27.9340   21.1100 C   0  0  0  0  0  2  0  0  0  0  0  0
  -23.0870  -24.7650   19.8040 C   0  0  0  0  0  2  0  0  0  0  0  0
  -21.5310  -24.8110   20.0070 C   0  0  0  0  0  3  0  0  0  0  0  0
  -21.4940  -28.6180   22.6970 C   0  0  1  0  0  0  0  0  0  0  0  0
  -20.5840  -27.1970   22.2850 C   0  0  2  0  0  0  0  0  0  0  0  0
  -21.8540  -27.8690   23.9540 C   0  0  0  0  0  3  0  0  0  0  0  0
  -20.7910  -23.6770   19.3170 C   0  0  0  0  0  1  0  0  0  0  0  0
  -21.1180  -30.0430   23.2120 C   0  0  0  0  0  1  0  0  0  0  0  0
  -20.2350  -27.4810   24.0870 S   0  0  0  0  0  0  0  0  0  0  0  0
  -22.5860  -26.4030   26.1510 C   0  0  0  0  0  1  0  0  0  0  0  0
  -23.1440  -27.0710   24.8770 C   0  0  0  0  0  3  0  0  0  0  0  0
  -24.4960  -26.1860   24.4260 N   0  0  0  0  0  4  0  0  0  0  0  0
  -24.7260  -25.7070   25.2780 H   0  0  0  0  0  0  0  0  0  0  0  0
  -24.1580  -25.4800   23.8080 H   0  0  0  0  0  0  0  0  0  0  0  0
  -26.0100  -26.5540   23.8960 C   0  0  0  0  0  2  0  0  0  0  0  0
  -26.9860  -25.6450   22.8530 C   0  0  0  0  0  2  0  0  0  0  0  0
  -28.0720  -26.0630   21.8010 O   0  0  0  0  0  0  0  0  0  0  0  0
  -24.5520  -31.3640   22.5590 C   0  0  0  0  0  0  0  0  0  0  0  0
  -27.6180  -26.8360   20.7780 C   0  0  0  0  0  0  0  0  0  0  0  0
  -23.9380  -29.4700   20.9240 C   0  0  0  0  0  3  0  0  0  0  0  0
  -25.6540  -28.3600   19.6220 C   0  0  0  0  0  0  0  0  0  0  0  0
  -26.2800  -30.3520   21.0700 C   0  0  0  0  0  2  0  0  0  0  0  0
  -26.5780  -28.9660   20.4980 C   0  0  0  0  0  0  0  0  0  0  0  0
  -27.6330  -28.2140   21.0130 C   0  0  0  0  0  3  0  0  0  0  0  0
  -26.8370  -26.2660   19.7600 C   0  0  0  0  0  3  0  0  0  0  0  0
  -25.8640  -27.0560   19.1300 C   0  0  0  0  0  3  0  0  0  0  0  0
  -24.3400  -29.0710   19.4940 C   0  0  0  0  0  2  0  0  0  0  0  0
  -24.8770  -30.5370   21.4940 N   0  0  0  0  0  0  0  0  0  0  0  0
  -23.3740  -31.6120   22.8520 O   0  0  0  0  0  0  0  0  0  0  0  0
  -24.0970  -28.2380   21.9430 C   0  0  0  0  0  0  0  0  0  0  0  0
  -23.8540  -26.8000   22.0470 N   0  0  0  0  0  0  0  0  0  0  0  0
  -24.1740  -28.6870   23.0370 O   0  0  0  0  0  0  0  0  0  0  0  0
  -24.6090  -26.4370   22.5900 H   0  0  0  0  0  0  0  0  0  0  0  0
  -18.3260  -26.3000   21.4800 C   0  0  0  0  0  3  0  0  0  0  0  0
  -22.6480  -25.5110   21.9230 C   0  0  0  0  0  2  0  0  0  0  0  0
  -21.7650  -24.2640   22.7860 C   0  0  0  0  0  3  0  0  0  0  0  0
  -19.9370  -24.0720   22.6390 C   0  0  0  0  0  3  0  0  0  0  0  0
  -18.5560  -24.8010   21.8770 C   0  0  0  0  0  2  0  0  0  0  0  0
  -19.4780  -27.0430   20.8340 C   0  0  2  0  0  0  0  0  0  0  0  0
  -19.0780  -28.3770   21.5310 C   0  0  0  0  0  3  0  0  0  0  0  0
  -18.0200  -28.8330   22.4540 C   0  0  0  0  0  3  0  0  0  0  0  0
  -16.9160  -28.0260   22.6580 C   0  0  0  0  0  2  0  0  0  0  0  0
  -17.0860  -26.7770   22.0770 C   0  0  0  0  0  2  0  0  0  0  0  0
  -25.6450  -32.0080   23.4950 C   0  0  0  0  0  3  0  0  0  0  0  0
  -25.2200  -33.3850   23.7420 N   0  0  0  0  0  0  0  0  0  0  0  0
  -25.7290  -34.4360   23.1010 C   0  0  0  0  0  0  0  0  0  0  0  0
  -26.6450  -34.3440   22.2810 O   0  0  0  0  0  0  0  0  0  0  0  0
  -24.4400  -33.5170   24.3670 H   0  0  0  0  0  0  0  0  0  0  0  0
  -24.1190  -36.1850   22.3140 C   0  0  0  0  0  1  0  0  0  0  0  0
  -25.1170  -35.8080   23.4200 C   0  0  0  0  0  3  0  0  0  0  0  0
  -26.9650  -36.7190   24.7560 C   0  0  0  0  0  1  0  0  0  0  0  0
  -26.1330  -36.8710   23.5650 N   0  0  0  0  0  0  0  0  0  0  0  0
  -25.6880  -37.7850   23.5990 H   0  0  0  0  0  0  0  0  0  0  0  0
  -25.8980  -31.2880   24.8880 C   0  0  1  0  0  0  0  0  0  0  0  0
  -24.5970  -30.9400   25.6510 C   0  0  0  0  0  1  0  0  0  0  0  0
  -26.7480  -30.0300   24.6930 C   0  0  0  0  0  1  0  0  0  0  0  0
  -26.7700  -32.1600   25.8070 C   0  0  0  0  0  1  0  0  0  0  0  0
  -24.6860  -22.8440   19.3810 C   0  0  0  0  0 15  0  0  0  0  0  0
  -25.9530  -20.4280   19.4300 C   0  0  0  0  0 15  0  0  0  0  0  0
  -28.7730  -17.0580   19.2560 C   0  0  0  0  0  2  0  0  0  0  0  0
  -30.0000  -14.3330   18.5190 C   0  0  0  0  0  2  0  0  0  0  0  0
  -29.5040  -13.0440   17.6690 C   0  0  0  0  0  2  0  0  0  0  0  0
  -28.3470  -12.2980   18.3410 C   0  0  0  0  0  2  0  0  0  0  0  0
  -27.6510  -13.3560   19.1950 C   0  0  0  0  0  3  0  0  0  0  0  0
  -28.5130  -14.2570   20.1080 C   0  0  0  0  0  2  0  0  0  0  0  0
  -28.9400  -15.4050   19.2200 N   0  0  0  0  0  0  0  0  0  0  0  0
  -30.0830  -17.0140   19.0900 O   0  0  0  0  0  1  0  0  0  0  0  0
  -27.5570  -18.6360   19.3180 N   0  0  0  0  0  1  0  0  0  0  0  0
  -28.3410  -19.2610   19.2830 H   0  0  0  0  0  0  0  0  0  0  0  0
  -25.5830  -13.9120   20.3640 C   0  0  0  0  0  0  0  0  0  0  0  0
  -24.5740  -13.1650   20.8650 C   0  0  0  0  0  0  0  0  0  0  0  0
  -24.9450  -11.8020   20.6500 C   0  0  0  0  0  0  0  0  0  0  0  0
  -26.4880  -12.9930   19.8920 N   0  0  0  0  0  0  0  0  0  0  0  0
  -26.1530  -11.7130   20.1120 N   0  0  0  0  0  0  0  0  0  0  0  0
  -24.1820  -10.5820   20.8660 C   0  0  0  0  0  0  0  0  0  0  0  0
  -24.6150   -9.5910   21.7710 C   0  0  0  0  0  3  0  0  0  0  0  0
  -23.8360   -8.4330   21.9750 C   0  0  0  0  0  3  0  0  0  0  0  0
  -22.6220   -8.2630   21.2670 C   0  0  0  0  0  0  0  0  0  0  0  0
  -22.2170   -9.2420   20.3450 C   0  0  0  0  0  3  0  0  0  0  0  0
  -22.9950  -10.3900   20.1400 C   0  0  0  0  0  3  0  0  0  0  0  0
  -21.8120   -7.1640   21.3840 O   0  0  0  0  0  0  0  0  0  0  0  0
  -21.6630   -6.5080   22.5790 C   0  0  0  0  0  0  0  0  0  0  0  0
  -21.1820   -7.1610   23.7340 C   0  0  0  0  0  3  0  0  0  0  0  0
  -20.9760   -6.4300   24.9200 C   0  0  0  0  0  3  0  0  0  0  0  0
  -21.2460   -5.0480   24.9530 C   0  0  0  0  0  0  0  0  0  0  0  0
  -21.7220   -4.3960   23.8000 C   0  0  0  0  0  3  0  0  0  0  0  0
  -21.9280   -5.1250   22.6160 C   0  0  0  0  0  0  0  0  0  0  0  0
  -22.3660   -4.4900   21.5020 F   0  0  0  0  0  0  0  0  0  0  0  0
  -21.0420   -4.3420   26.0880 F   0  0  0  0  0  0  0  0  0  0  0  0
  -23.2890  -13.7140   21.3870 C   0  0  0  0  0  0  0  0  0  0  0  0
  -22.6740  -13.0130   22.3250 N   0  0  0  0  0  0  0  0  0  0  0  0
  -22.8690  -14.8060   21.0050 O   0  0  0  0  0  0  0  0  0  0  0  0
  -23.0530  -12.1290   22.6310 H   0  0  0  0  0  0  0  0  0  0  0  0
  -21.8130  -13.3500   22.7320 H   0  0  0  0  0  0  0  0  0  0  0  0
  -25.8010  -15.2880   20.2300 N   0  0  0  0  0  0  0  0  0  0  0  0
  -25.1120  -15.9900   20.4890 H   0  0  0  0  0  0  0  0  0  0  0  0
  -26.5740  -15.6650   19.7020 H   0  0  0  0  0  0  0  0  0  0  0  0
  3  6  1  0
  4  1  1  0
  4  5  1  0
  5  9  1  0
  5  2  1  0
  6 10  1  6
  6  8  1  0
  7  3  1  1
  7  6  1  0
  7 11  1  0
  8 11  1  0
  8 13  1  0
 13 12  1  0
 14 13  1  0
 14 15  1  0
 16 14  1  0
 17 14  1  0
 18 17  1  0
 19 18  1  0
 20 31  2  0
 21 26  1  0
 21 19  1  0
 22 29  1  0
 22 30  1  0
 22 32  1  0
 23 25  1  0
 24 30  1  0
 25 26  2  0
 25 24  1  0
 27 21  2  0
 28 23  2  0
 28 27  1  0
 29 23  1  0
 30 20  1  0
 32 33  1  0
 32 34  2  0
 33 35  1  0
 36 40  1  0
 36 45  1  0
 37 33  1  0
 37 38  1  0
 39 38  2  0
 40 39  1  0
 41  2  1  1
 41 36  1  0
 41 42  1  0
 41  7  1  0
 42 43  2  0
 43 44  1  0
 45 44  1  0
 46 20  1  0
 46 47  1  0
 46 56  1  0
 47 50  1  0
 48 52  1  0
 48 47  1  0
 49 48  2  0
 52 51  1  0
 52 54  1  0
 54 55  1  0
 54 53  1  0
 56 57  1  1
 56 59  1  0
 58 56  1  0
 63 68  1  0
 64 65  1  0
 64 63  1  0
 66 65  1  0
 66 75  1  0
 66 67  1  0
 68 62  1  0
 68 67  1  0
 69 62  1  0
 71 70  1  0
 72 73  2  0
 73 92  1  0
 74 73  1  0
 74 77  1  0
 75 76  1  0
 75 72  1  0
 76 74  2  0
 77 78  1  0
 78 79  2  0
 80 83  1  0
 80 79  1  0
 81 80  2  0
 82 81  1  0
 82 77  2  0
 83 84  1  0
 84 89  2  0
 84 85  1  0
 85 86  2  0
 86 87  1  0
 87 91  1  0
 88 87  2  0
 89 88  1  0
 90 89  1  0
 92 93  1  0
 93 95  1  0
 93 96  1  0
 94 92  2  0
 97 72  1  0
 97 98  1  0
 99 97  1  0
M  ISO  4  18 101  19 101  62 100  70 100
M  END
>  <TORSDO>  (36) 
F 22

>  <SCORE>  (36) 
-5.533

>  <name>  (36) 
36

>  <ligand_id>  (36) 
36

>  <original_smiles>  (36) 
[H]c1c([H])c([H])c2c(c1[H])C([H])([H])C([H])([H])C([H])([H])C2([H])N([H])C(=O)C1([H])N(C(=O)C([H])(N([H])C(=O)C([H])(N([H])C([H])([H])[H])C([H])([H])[H])C(C([H])([H])[H])(C([H])([H])[H])C([H])([H])[H])C([H])([H])c2c([H])c(OC([H])([H])C([H])([H])[N+]([H])([H])C([H])(c3sc4c([H])c(C([H])([H])[H])c(C([H])([H])C([H])([H])N([H])C(=O)N5C([H])([H])C([H])([H])C([H])([H])C([H])(n6nc(-c7c([H])c([H])c(Oc8c([H])c([H])c(F)c([H])c8F)c([H])c7[H])c(C(=O)N([H])[H])c6N([H])[H])C5([H])[H])c([H])c4c3C([H])([H])[H])C([H])([H])[H])c([H])c([H])c2C1([H])[H]

>  <smiles>  (36) 
[H]c1c([H])c([H])c2c(c1[H])C([H])([H])C([H])([H])C([H])([H])C2([H])N([H])C(=O)C1([H])N(C(=O)C([H])(N([H])C(=O)C([H])(N([H])C([H])([H])[H])C([H])([H])[H])C(C([H])([H])[H])(C([H])([H])[H])C([H])([H])[H])C([H])([H])c2c([H])c(OC([H])([H])C([H])([H])[N+]([H])([H])C([H])(c3sc4c([H])c(C([H])([H])[H])c(C([H])([H])C([H])([H])N([H])C(=O)N5C([H])([H])C([H])([H])C([H])([H])C([H])(n6nc(-c7c([H])c([H])c(Oc8c([H])c([H])c(F)c([H])c8F)c([H])c7[H])c(C(=O)N([H])[H])c6N([H])[H])C5([H])[H])c([H])c4c3C([H])([H])[H])C([H])([H])[H])c([H])c([H])c2C1([H])[H]

$$$$
37:0:0
     RDKit          3D

 93100  0  0  1  0  0  0  0  0999 V2000
  -29.1500  -23.8450   20.1510 C   0  0  0  0  0  3  0  0  0  0  0  0
  -29.1060  -22.4410   20.9240 C   0  0  0  0  0  0  0  0  0  0  0  0
  -29.3400  -21.2210   20.3160 N   0  0  0  0  0  0  0  0  0  0  0  0
  -28.9460  -22.4820   22.1450 O   0  0  0  0  0  0  0  0  0  0  0  0
  -29.4220  -21.2280   19.3070 H   0  0  0  0  0  0  0  0  0  0  0  0
  -29.7770  -19.9340   21.0070 C   0  0  0  0  0  2  0  0  0  0  0  0
  -29.5090  -18.4850   20.3550 C   0  0  0  0  0  3  0  0  0  0  0  0
  -30.2990  -17.2310   20.9940 C   0  0  0  0  0  3  0  0  0  0  0  0
  -30.6180  -14.6930   20.4110 C   0  0  0  0  0  0  0  0  0  0  0  0
  -30.3980  -12.4440   19.3540 C   0  0  0  0  0  2  0  0  0  0  0  0
  -29.4590  -12.5440   18.1340 C   0  0  0  0  0  2  0  0  0  0  0  0
  -27.9890  -12.3730   18.5660 C   0  0  0  0  0  2  0  0  0  0  0  0
  -27.6200  -13.2510   19.7920 C   0  0  0  0  0  3  0  0  0  0  0  0
  -28.6790  -13.1370   20.9100 C   0  0  0  0  0  2  0  0  0  0  0  0
  -29.9770  -13.4820   20.3190 N   0  0  0  0  0  0  0  0  0  0  0  0
  -31.7970  -14.8090   20.0690 O   0  0  0  0  0  0  0  0  0  0  0  0
  -29.8590  -15.8010   20.7210 N   0  0  0  0  0  0  0  0  0  0  0  0
  -28.8900  -15.6000   20.9170 H   0  0  0  0  0  0  0  0  0  0  0  0
  -25.2280  -13.8410   20.5160 C   0  0  0  0  0  0  0  0  0  0  0  0
  -24.1650  -13.0650   20.8890 C   0  0  0  0  0  0  0  0  0  0  0  0
  -24.6300  -11.7150   20.8590 C   0  0  0  0  0  0  0  0  0  0  0  0
  -26.2740  -12.9630   20.2820 N   0  0  0  0  0  0  0  0  0  0  0  0
  -25.9210  -11.6800   20.5530 N   0  0  0  0  0  0  0  0  0  0  0  0
  -23.9070  -10.4510   21.0520 C   0  0  0  0  0  0  0  0  0  0  0  0
  -24.3520   -9.4780   21.9730 C   0  0  0  0  0  3  0  0  0  0  0  0
  -23.6300   -8.2790   22.1540 C   0  0  0  0  0  3  0  0  0  0  0  0
  -22.4460   -8.0450   21.4150 C   0  0  0  0  0  0  0  0  0  0  0  0
  -22.0190   -9.0060   20.4810 C   0  0  0  0  0  3  0  0  0  0  0  0
  -22.7430  -10.1960   20.2980 C   0  0  0  0  0  3  0  0  0  0  0  0
  -21.6930   -6.8990   21.5050 O   0  0  0  0  0  0  0  0  0  0  0  0
  -21.6740   -6.1390   22.6470 C   0  0  0  0  0  0  0  0  0  0  0  0
  -21.2910   -6.6770   23.8950 C   0  0  0  0  0  3  0  0  0  0  0  0
  -21.2210   -5.8430   25.0290 C   0  0  0  0  0  3  0  0  0  0  0  0
  -21.5220   -4.4720   24.9170 C   0  0  0  0  0  0  0  0  0  0  0  0
  -21.8970   -3.9340   23.6740 C   0  0  0  0  0  3  0  0  0  0  0  0
  -21.9720   -4.7650   22.5420 C   0  0  0  0  0  0  0  0  0  0  0  0
  -22.3130   -4.2360   21.3420 F   0  0  0  0  0  0  0  0  0  0  0  0
  -21.4460   -3.6700   26.0040 F   0  0  0  0  0  0  0  0  0  0  0  0
  -22.7660  -13.5390   21.1560 C   0  0  0  0  0  0  0  0  0  0  0  0
  -22.0390  -12.8430   22.0240 N   0  0  0  0  0  0  0  0  0  0  0  0
  -22.3250  -14.5600   20.6310 O   0  0  0  0  0  0  0  0  0  0  0  0
  -22.4100  -12.0180   22.4710 H   0  0  0  0  0  0  0  0  0  0  0  0
  -21.0980  -13.1400   22.2440 H   0  0  0  0  0  0  0  0  0  0  0  0
  -25.3900  -15.2120   20.3340 N   0  0  0  0  0  0  0  0  0  0  0  0
  -24.6200  -15.8620   20.4320 H   0  0  0  0  0  0  0  0  0  0  0  0
  -26.2310  -15.6470   19.9770 H   0  0  0  0  0  0  0  0  0  0  0  0
  -30.5960  -24.4090   20.2030 C   0  0  0  0  0  2  0  0  0  0  0  0
  -31.0120  -24.9300   21.5260 N   0  0  0  0  0  4  0  0  0  0  0  0
  -30.4810  -25.7450   21.7790 H   0  0  0  0  0  0  0  0  0  0  0  0
  -31.9800  -25.2000   21.4950 H   0  0  0  0  0  0  0  0  0  0  0  0
  -30.9070  -24.2370   22.2460 H   0  0  0  0  0  0  0  0  0  0  0  0
  -28.1030  -24.9970   20.5830 C   0  0  0  0  0  2  0  0  0  0  0  0
  -28.3170  -26.4300   20.1900 O   0  0  0  0  0  0  0  0  0  0  0  0
  -24.6150  -31.8760   23.2250 C   0  0  0  0  0  0  0  0  0  0  0  0
  -27.2050  -27.2940   20.1700 C   0  0  0  0  0  0  0  0  0  0  0  0
  -23.4030  -30.4730   21.5940 C   0  0  0  0  0  3  0  0  0  0  0  0
  -24.8460  -28.9190   20.1620 C   0  0  0  0  0  0  0  0  0  0  0  0
  -25.9420  -30.7880   21.3980 C   0  0  0  0  0  2  0  0  0  0  0  0
  -26.0180  -29.4060   20.7540 C   0  0  0  0  0  0  0  0  0  0  0  0
  -27.2020  -28.6050   20.7450 C   0  0  0  0  0  3  0  0  0  0  0  0
  -26.0130  -26.8710   19.5410 C   0  0  0  0  0  3  0  0  0  0  0  0
  -24.8460  -27.6580   19.5450 C   0  0  0  0  0  3  0  0  0  0  0  0
  -23.6100  -29.7960   20.2140 C   0  0  0  0  0  2  0  0  0  0  0  0
  -24.6730  -31.0630   22.1280 N   0  0  0  0  0  0  0  0  0  0  0  0
  -23.5350  -32.1540   23.7650 O   0  0  0  0  0  0  0  0  0  0  0  0
  -22.7450  -29.4590   22.5600 C   0  0  0  0  0  0  0  0  0  0  0  0
  -21.4180  -29.2840   22.4420 N   0  0  0  0  0  0  0  0  0  0  0  0
  -23.4270  -28.8330   23.3750 O   0  0  0  0  0  0  0  0  0  0  0  0
  -20.9260  -29.8400   21.7560 H   0  0  0  0  0  0  0  0  0  0  0  0
  -18.0420  -28.0870   22.9560 C   0  0  0  0  0  0  0  0  0  0  0  0
  -20.6010  -28.3480   23.2180 C   0  0  0  0  0  3  0  0  0  0  0  0
  -20.7020  -26.9150   22.6450 C   0  0  0  0  0  2  0  0  0  0  0  0
  -19.5970  -26.5890   21.6360 C   0  0  0  0  0  2  0  0  0  0  0  0
  -18.2170  -26.7360   22.2840 C   0  0  0  0  0  2  0  0  0  0  0  0
  -19.1630  -28.8510   23.3810 C   0  0  0  0  0  0  0  0  0  0  0  0
  -18.9450  -30.1140   23.9700 C   0  0  0  0  0  3  0  0  0  0  0  0
  -17.6390  -30.6160   24.1390 C   0  0  0  0  0  3  0  0  0  0  0  0
  -16.5350  -29.8490   23.7320 C   0  0  0  0  0  3  0  0  0  0  0  0
  -16.7370  -28.5860   23.1470 C   0  0  0  0  0  3  0  0  0  0  0  0
  -25.9010  -32.5080   23.8390 C   0  0  0  0  0  3  0  0  0  0  0  0
  -26.4260  -31.7340   25.1110 C   0  0  1  0  0  0  0  0  0  0  0  0
  -25.3410  -31.4980   26.1870 C   0  0  0  0  0  1  0  0  0  0  0  0
  -27.0030  -30.3570   24.7130 C   0  0  0  0  0  1  0  0  0  0  0  0
  -27.5850  -32.5250   25.7640 C   0  0  0  0  0  1  0  0  0  0  0  0
  -25.5920  -33.9050   24.1750 N   0  0  0  0  0  0  0  0  0  0  0  0
  -25.9210  -34.9620   23.4200 C   0  0  0  0  0  0  0  0  0  0  0  0
  -26.5860  -34.8620   22.3860 O   0  0  0  0  0  0  0  0  0  0  0  0
  -24.9980  -34.0570   24.9770 H   0  0  0  0  0  0  0  0  0  0  0  0
  -24.1920  -36.7570   23.0820 C   0  0  0  0  0  1  0  0  0  0  0  0
  -25.4380  -36.3490   23.8850 C   0  0  0  0  0  3  0  0  0  0  0  0
  -27.5790  -37.2280   24.7060 C   0  0  0  0  0  1  0  0  0  0  0  0
  -26.4700  -37.4020   23.7710 N   0  0  0  0  0  0  0  0  0  0  0  0
  -26.0660  -38.3210   23.9270 H   0  0  0  0  0  0  0  0  0  0  0  0
  1 47  1  0
  1 52  1  0
  1  2  1  0
  2  4  2  0
  3  2  1  0
  3  6  1  0
  5  3  1  0
  7  8  2  0
  7  6  1  0
  9 17  1  0
 10 15  1  0
 11 12  1  0
 11 10  1  0
 13 12  1  0
 13 22  1  0
 13 14  1  0
 15  9  1  0
 15 14  1  0
 16  9  2  0
 17 18  1  0
 17  8  1  0
 19 20  2  0
 20 39  1  0
 21 20  1  0
 21 24  1  0
 22 19  1  0
 22 23  1  0
 23 21  2  0
 24 25  1  0
 25 26  2  0
 27 30  1  0
 27 26  1  0
 28 27  2  0
 29 28  1  0
 29 24  2  0
 30 31  1  0
 31 32  1  0
 32 33  2  0
 34 33  1  0
 34 38  1  0
 35 34  2  0
 36 31  2  0
 36 35  1  0
 37 36  1  0
 39 40  1  0
 40 43  1  0
 40 42  1  0
 41 39  2  0
 44 45  1  0
 44 19  1  0
 46 44  1  0
 47 48  1  0
 48 49  1  0
 48 51  1  0
 50 48  1  0
 53 52  1  0
 54 65  2  0
 55 53  1  0
 55 60  1  0
 56 64  1  0
 56 66  1  0
 57 63  1  0
 57 59  1  0
 58 64  1  0
 59 58  1  0
 60 59  2  0
 61 62  1  0
 61 55  2  0
 62 57  2  0
 63 56  1  0
 64 54  1  0
 66 68  2  0
 67 66  1  0
 69 67  1  0
 70 79  2  0
 70 75  1  0
 71 67  1  0
 71 75  1  0
 72 71  1  0
 73 74  1  0
 73 72  1  0
 74 70  1  0
 75 76  2  0
 76 77  1  0
 78 77  2  0
 79 78  1  0
 80 54  1  0
 80 85  1  0
 80 81  1  0
 81 84  1  1
 81 82  1  0
 83 81  1  0
 85 88  1  0
 86 90  1  0
 86 85  1  0
 87 86  2  0
 90 89  1  0
 92 90  1  0
 92 93  1  0
 92 91  1  0
M  ISO  4   9 100  17 100  52 101  53 101
M  END
>  <TORSDO>  (37) 
F 23

>  <SCORE>  (37) 
-13.089

>  <name>  (37) 
37

>  <ligand_id>  (37) 
37

>  <original_smiles>  (37) 
[H]c1c([H])c([H])c2c(c1[H])C([H])([H])C([H])([H])C([H])([H])C2([H])N([H])C(=O)C1([H])N(C(=O)C([H])(N([H])C(=O)C([H])(N([H])C([H])([H])[H])C([H])([H])[H])C(C([H])([H])[H])(C([H])([H])[H])C([H])([H])[H])C([H])([H])c2c([H])c(OC([H])([H])C([H])(C(=O)N([H])C([H])([H])C([H])([H])C([H])([H])N([H])C(=O)N3C([H])([H])C([H])([H])C([H])([H])C([H])(n4nc(-c5c([H])c([H])c(Oc6c([H])c([H])c(F)c([H])c6F)c([H])c5[H])c(C(=O)N([H])[H])c4N([H])[H])C3([H])[H])C([H])([H])[N+]([H])([H])[H])c([H])c([H])c2C1([H])[H]

>  <smiles>  (37) 
[H]c1c([H])c([H])c2c(c1[H])C([H])([H])C([H])([H])C([H])([H])C2([H])N([H])C(=O)C1([H])N(C(=O)C([H])(N([H])C(=O)C([H])(N([H])C([H])([H])[H])C([H])([H])[H])C(C([H])([H])[H])(C([H])([H])[H])C([H])([H])[H])C([H])([H])c2c([H])c(OC([H])([H])C([H])(C(=O)N([H])C([H])([H])C([H])([H])C([H])([H])N([H])C(=O)N3C([H])([H])C([H])([H])C([H])([H])C([H])(n4nc(-c5c([H])c([H])c(Oc6c([H])c([H])c(F)c([H])c6F)c([H])c5[H])c(C(=O)N([H])[H])c4N([H])[H])C3([H])[H])C([H])([H])[N+]([H])([H])[H])c([H])c([H])c2C1([H])[H]

$$$$
38:0:0
     RDKit          3D

 92100  0  0  1  0  0  0  0  0999 V2000
  -29.0630  -22.9570   19.7780 C   0  0  0  0  0  3  0  0  0  0  0  0
  -28.7530  -24.3140   19.4700 C   0  0  0  0  0  3  0  0  0  0  0  0
  -28.8640  -23.4770   22.1200 C   0  0  0  0  0  3  0  0  0  0  0  0
  -29.1390  -22.5070   21.1190 C   0  0  0  0  0  0  0  0  0  0  0  0
  -28.5560  -24.8380   21.8180 C   0  0  0  0  0  0  0  0  0  0  0  0
  -28.5060  -25.2890   20.4700 C   0  0  0  0  0  0  0  0  0  0  0  0
  -26.9100  -25.8240   23.4970 C   0  0  0  0  0  1  0  0  0  0  0  0
  -28.3540  -25.8090   22.9720 C   0  0  0  0  0  2  0  0  0  0  0  0
  -28.4150  -26.6430   20.1130 O   0  0  0  0  0  0  0  0  0  0  0  0
  -24.6200  -31.8860   23.2010 C   0  0  0  0  0  0  0  0  0  0  0  0
  -27.2350  -27.3820   20.1480 C   0  0  0  0  0  0  0  0  0  0  0  0
  -23.4050  -30.4870   21.5640 C   0  0  0  0  0  3  0  0  0  0  0  0
  -24.8490  -28.9340   20.1370 C   0  0  0  0  0  0  0  0  0  0  0  0
  -25.9310  -30.8280   21.3570 C   0  0  0  0  0  2  0  0  0  0  0  0
  -26.0120  -29.4480   20.7260 C   0  0  0  0  0  0  0  0  0  0  0  0
  -27.2050  -28.6790   20.7230 C   0  0  0  0  0  3  0  0  0  0  0  0
  -26.0570  -26.8960   19.5430 C   0  0  0  0  0  3  0  0  0  0  0  0
  -24.8700  -27.6590   19.5410 C   0  0  0  0  0  3  0  0  0  0  0  0
  -23.6100  -29.8020   20.1870 C   0  0  0  0  0  2  0  0  0  0  0  0
  -24.6710  -31.0830   22.0990 N   0  0  0  0  0  0  0  0  0  0  0  0
  -23.5410  -32.1620   23.7450 O   0  0  0  0  0  0  0  0  0  0  0  0
  -22.7520  -29.4730   22.5310 C   0  0  0  0  0  0  0  0  0  0  0  0
  -21.4250  -29.2940   22.4110 N   0  0  0  0  0  0  0  0  0  0  0  0
  -23.4350  -28.8450   23.3460 O   0  0  0  0  0  0  0  0  0  0  0  0
  -20.9270  -29.8500   21.7290 H   0  0  0  0  0  0  0  0  0  0  0  0
  -18.0540  -28.0940   22.9140 C   0  0  0  0  0  0  0  0  0  0  0  0
  -20.6110  -28.3570   23.1860 C   0  0  0  0  0  3  0  0  0  0  0  0
  -20.7180  -26.9250   22.6120 C   0  0  0  0  0  2  0  0  0  0  0  0
  -19.6160  -26.5990   21.5990 C   0  0  0  0  0  2  0  0  0  0  0  0
  -18.2330  -26.7440   22.2430 C   0  0  0  0  0  2  0  0  0  0  0  0
  -19.1710  -28.8580   23.3430 C   0  0  0  0  0  0  0  0  0  0  0  0
  -18.9480  -30.1230   23.9310 C   0  0  0  0  0  3  0  0  0  0  0  0
  -17.6420  -30.6210   24.1010 C   0  0  0  0  0  3  0  0  0  0  0  0
  -16.5410  -29.8500   23.6900 C   0  0  0  0  0  3  0  0  0  0  0  0
  -16.7470  -28.5920   23.0980 C   0  0  0  0  0  3  0  0  0  0  0  0
  -25.9060  -32.5180   23.8180 C   0  0  0  0  0  3  0  0  0  0  0  0
  -25.5970  -33.9110   24.1680 N   0  0  0  0  0  0  0  0  0  0  0  0
  -25.9170  -34.9730   23.4170 C   0  0  0  0  0  0  0  0  0  0  0  0
  -26.5740  -34.8850   22.3760 O   0  0  0  0  0  0  0  0  0  0  0  0
  -25.0060  -34.0540   24.9720 H   0  0  0  0  0  0  0  0  0  0  0  0
  -24.1730  -36.7620   23.1170 C   0  0  0  0  0  1  0  0  0  0  0  0
  -25.4320  -36.3530   23.8980 C   0  0  0  0  0  3  0  0  0  0  0  0
  -27.5800  -37.2410   24.6950 C   0  0  0  0  0  1  0  0  0  0  0  0
  -26.4550  -37.4160   23.7780 N   0  0  0  0  0  0  0  0  0  0  0  0
  -26.0450  -38.3290   23.9530 H   0  0  0  0  0  0  0  0  0  0  0  0
  -26.4450  -31.7320   25.0770 C   0  0  1  0  0  0  0  0  0  0  0  0
  -25.3680  -31.4750   26.1570 C   0  0  0  0  0  1  0  0  0  0  0  0
  -27.0240  -30.3570   24.6610 C   0  0  0  0  0  1  0  0  0  0  0  0
  -27.6050  -32.5180   25.7360 C   0  0  0  0  0  1  0  0  0  0  0  0
  -29.5680  -21.0570   21.5390 C   0  0  0  0  0  2  0  0  0  0  0  0
  -29.5400  -19.8390   20.5180 C   0  0  0  0  0  2  0  0  0  0  0  0
  -29.9440  -18.5190   21.1420 N   0  0  0  0  0  4  0  0  0  0  0  0
  -29.3270  -18.3630   21.9250 H   0  0  0  0  0  0  0  0  0  0  0  0
  -30.8760  -18.6280   21.5190 H   0  0  0  0  0  0  0  0  0  0  0  0
  -29.9350  -17.2600   20.2970 C   0  0  0  0  0  2  0  0  0  0  0  0
  -29.9260  -15.8920   21.1160 C   0  0  0  0  0  2  0  0  0  0  0  0
  -30.6410  -14.6260   20.4930 C   0  0  0  0  0  0  0  0  0  0  0  0
  -30.4230  -12.4190   19.3610 C   0  0  0  0  0  2  0  0  0  0  0  0
  -29.4950  -12.6000   18.1410 C   0  0  0  0  0  2  0  0  0  0  0  0
  -28.0080  -12.4690   18.5400 C   0  0  0  0  0  2  0  0  0  0  0  0
  -27.6550  -13.2910   19.8100 C   0  0  0  0  0  3  0  0  0  0  0  0
  -28.6970  -13.0630   20.9260 C   0  0  0  0  0  2  0  0  0  0  0  0
  -30.0140  -13.4110   20.3790 N   0  0  0  0  0  0  0  0  0  0  0  0
  -31.7790  -14.7820   20.0410 O   0  0  0  0  0  0  0  0  0  0  0  0
  -25.2460  -13.9050   20.4750 C   0  0  0  0  0  0  0  0  0  0  0  0
  -24.1690  -13.1360   20.8290 C   0  0  0  0  0  0  0  0  0  0  0  0
  -24.6260  -11.7860   20.8220 C   0  0  0  0  0  0  0  0  0  0  0  0
  -26.2920  -13.0180   20.2670 N   0  0  0  0  0  0  0  0  0  0  0  0
  -25.9200  -11.7390   20.5330 N   0  0  0  0  0  0  0  0  0  0  0  0
  -23.8930  -10.5270   21.0200 C   0  0  0  0  0  0  0  0  0  0  0  0
  -24.3230   -9.5580   21.9560 C   0  0  0  0  0  3  0  0  0  0  0  0
  -23.5900   -8.3640   22.1360 C   0  0  0  0  0  3  0  0  0  0  0  0
  -22.4140   -8.1320   21.3820 C   0  0  0  0  0  0  0  0  0  0  0  0
  -22.0070   -9.0870   20.4350 C   0  0  0  0  0  3  0  0  0  0  0  0
  -22.7380  -10.2730   20.2530 C   0  0  0  0  0  3  0  0  0  0  0  0
  -21.6530   -6.9930   21.4730 O   0  0  0  0  0  0  0  0  0  0  0  0
  -21.6140   -6.2420   22.6210 C   0  0  0  0  0  0  0  0  0  0  0  0
  -21.2250   -6.7970   23.8600 C   0  0  0  0  0  3  0  0  0  0  0  0
  -21.1350   -5.9760   25.0020 C   0  0  0  0  0  3  0  0  0  0  0  0
  -21.4210   -4.5990   24.9050 C   0  0  0  0  0  0  0  0  0  0  0  0
  -21.8000   -4.0430   23.6700 C   0  0  0  0  0  3  0  0  0  0  0  0
  -21.8940   -4.8630   22.5320 C   0  0  0  0  0  0  0  0  0  0  0  0
  -22.2430   -4.3180   21.3410 F   0  0  0  0  0  0  0  0  0  0  0  0
  -21.3250   -3.8100   26.0000 F   0  0  0  0  0  0  0  0  0  0  0  0
  -22.7700  -13.6220   21.0750 C   0  0  0  0  0  0  0  0  0  0  0  0
  -22.0290  -12.9350   21.9360 N   0  0  0  0  0  0  0  0  0  0  0  0
  -22.3440  -14.6440   20.5360 O   0  0  0  0  0  0  0  0  0  0  0  0
  -22.3920  -12.1120   22.3930 H   0  0  0  0  0  0  0  0  0  0  0  0
  -21.0850  -13.2330   22.1470 H   0  0  0  0  0  0  0  0  0  0  0  0
  -25.4230  -15.2740   20.2890 N   0  0  0  0  0  0  0  0  0  0  0  0
  -24.6690  -15.9470   20.3720 H   0  0  0  0  0  0  0  0  0  0  0  0
  -26.2950  -15.6900   19.9810 H   0  0  0  0  0  0  0  0  0  0  0  0
  1  4  1  0
  2  1  2  0
  2  6  1  0
  4 50  1  0
  4  3  2  0
  5  3  1  0
  5  8  1  0
  6  5  2  0
  8  7  1  0
  9 11  1  0
  9  6  1  0
 10 21  2  0
 11 16  1  0
 12 20  1  0
 12 22  1  0
 13 19  1  0
 13 15  1  0
 14 20  1  0
 15 14  1  0
 16 15  2  0
 17 11  2  0
 18 17  1  0
 18 13  2  0
 19 12  1  0
 20 10  1  0
 22 24  2  0
 23 22  1  0
 25 23  1  0
 26 35  2  0
 26 31  1  0
 27 23  1  0
 27 31  1  0
 28 27  1  0
 29 30  1  0
 29 28  1  0
 30 26  1  0
 31 32  2  0
 32 33  1  0
 34 33  2  0
 35 34  1  0
 36 10  1  0
 36 37  1  0
 36 46  1  0
 37 40  1  0
 38 42  1  0
 38 37  1  0
 39 38  2  0
 42 41  1  0
 44 42  1  0
 44 45  1  0
 44 43  1  0
 46 49  1  1
 46 47  1  0
 48 46  1  0
 51 52  1  0
 51 50  1  0
 52 54  1  0
 52 53  1  0
 55 56  1  0
 55 52  1  0
 57 56  1  0
 58 63  1  0
 59 60  1  0
 59 58  1  0
 61 60  1  0
 61 68  1  0
 61 62  1  0
 63 57  1  0
 63 62  1  0
 64 57  2  0
 65 66  2  0
 66 85  1  0
 67 66  1  0
 67 70  1  0
 68 65  1  0
 68 69  1  0
 69 67  2  0
 70 71  1  0
 71 72  2  0
 73 76  1  0
 73 72  1  0
 74 73  2  0
 75 74  1  0
 75 70  2  0
 76 77  1  0
 77 78  1  0
 78 79  2  0
 80 79  1  0
 80 84  1  0
 81 80  2  0
 82 77  2  0
 82 81  1  0
 83 82  1  0
 85 86  1  0
 86 89  1  0
 86 88  1  0
 87 85  2  0
 90 91  1  0
 90 65  1  0
 92 90  1  0
M  ISO  4   6 101   9 101  56 100  57 100
M  END
>  <TORSDO>  (38) 
F 22

>  <SCORE>  (38) 
-13.266

>  <name>  (38) 
38

>  <ligand_id>  (38) 
38

>  <original_smiles>  (38) 
[H]c1c([H])c([H])c2c(c1[H])C([H])([H])C([H])([H])C([H])([H])C2([H])N([H])C(=O)C1([H])N(C(=O)C([H])(N([H])C(=O)C([H])(N([H])C([H])([H])[H])C([H])([H])[H])C(C([H])([H])[H])(C([H])([H])[H])C([H])([H])[H])C([H])([H])c2c([H])c(Oc3c([H])c([H])c(C([H])([H])C([H])([H])[N+]([H])([H])C([H])([H])C([H])([H])C(=O)N4C([H])([H])C([H])([H])C([H])([H])C([H])(n5nc(-c6c([H])c([H])c(Oc7c([H])c([H])c(F)c([H])c7F)c([H])c6[H])c(C(=O)N([H])[H])c5N([H])[H])C4([H])[H])c([H])c3C([H])([H])C([H])([H])[H])c([H])c([H])c2C1([H])[H]

>  <smiles>  (38) 
[H]c1c([H])c([H])c2c(c1[H])C([H])([H])C([H])([H])C([H])([H])C2([H])N([H])C(=O)C1([H])N(C(=O)C([H])(N([H])C(=O)C([H])(N([H])C([H])([H])[H])C([H])([H])[H])C(C([H])([H])[H])(C([H])([H])[H])C([H])([H])[H])C([H])([H])c2c([H])c(Oc3c([H])c([H])c(C([H])([H])C([H])([H])[N+]([H])([H])C([H])([H])C([H])([H])C(=O)N4C([H])([H])C([H])([H])C([H])([H])C([H])(n5nc(-c6c([H])c([H])c(Oc7c([H])c([H])c(F)c([H])c7F)c([H])c6[H])c(C(=O)N([H])[H])c5N([H])[H])C4([H])[H])c([H])c3C([H])([H])C([H])([H])[H])c([H])c([H])c2C1([H])[H]

$$$$
39:0:0
     RDKit          3D

 94102  0  0  1  0  0  0  0  0999 V2000
  -32.4280  -20.5960   17.9460 C   0  0  0  0  0  2  0  0  0  0  0  0
  -32.9000  -21.8180   18.7110 C   0  0  0  0  0  2  0  0  0  0  0  0
  -31.5380  -19.7590   18.8580 C   0  0  0  0  0  2  0  0  0  0  0  0
  -31.6910  -22.6950   19.0010 C   0  0  0  0  0  2  0  0  0  0  0  0
  -30.2880  -20.4780   19.4640 C   0  0  0  0  0  3  0  0  0  0  0  0
  -30.5660  -22.0250   19.8450 C   0  0  0  0  0  3  0  0  0  0  0  0
  -29.3360  -22.8990   19.7630 N   0  0  0  0  0  4  0  0  0  0  0  0
  -28.6330  -22.5050   20.3660 H   0  0  0  0  0  0  0  0  0  0  0  0
  -28.9850  -22.8150   18.8200 H   0  0  0  0  0  0  0  0  0  0  0  0
  -29.4700  -24.3770   20.0780 C   0  0  0  0  0  2  0  0  0  0  0  0
  -28.2060  -25.2350   19.7470 C   0  0  0  0  0  2  0  0  0  0  0  0
  -28.3430  -26.6670   19.9980 O   0  0  0  0  0  0  0  0  0  0  0  0
  -24.5970  -31.8930   23.1730 C   0  0  0  0  0  0  0  0  0  0  0  0
  -27.1830  -27.4400   19.9980 C   0  0  0  0  0  0  0  0  0  0  0  0
  -23.3680  -30.5100   21.5390 C   0  0  0  0  0  3  0  0  0  0  0  0
  -24.7960  -28.9920   20.0680 C   0  0  0  0  0  0  0  0  0  0  0  0
  -25.8960  -30.8580   21.3070 C   0  0  0  0  0  2  0  0  0  0  0  0
  -25.9700  -29.4920   20.6450 C   0  0  0  0  0  0  0  0  0  0  0  0
  -27.1650  -28.7250   20.6050 C   0  0  0  0  0  3  0  0  0  0  0  0
  -25.9810  -26.9730   19.4090 C   0  0  0  0  0  3  0  0  0  0  0  0
  -24.8010  -27.7350   19.4470 C   0  0  0  0  0  3  0  0  0  0  0  0
  -23.5550  -29.8550   20.1470 C   0  0  0  0  0  2  0  0  0  0  0  0
  -24.6400  -31.1020   22.0640 N   0  0  0  0  0  0  0  0  0  0  0  0
  -23.5240  -32.1590   23.7310 O   0  0  0  0  0  0  0  0  0  0  0  0
  -22.7330  -29.4740   22.4960 C   0  0  0  0  0  0  0  0  0  0  0  0
  -21.4070  -29.2880   22.3860 N   0  0  0  0  0  0  0  0  0  0  0  0
  -23.4300  -28.8440   23.2950 O   0  0  0  0  0  0  0  0  0  0  0  0
  -20.9060  -29.8470   21.7100 H   0  0  0  0  0  0  0  0  0  0  0  0
  -18.0480  -28.0650   22.9140 C   0  0  0  0  0  0  0  0  0  0  0  0
  -20.6060  -28.3400   23.1590 C   0  0  0  0  0  3  0  0  0  0  0  0
  -20.7130  -26.9130   22.5710 C   0  0  0  0  0  2  0  0  0  0  0  0
  -19.6020  -26.5900   21.5680 C   0  0  0  0  0  2  0  0  0  0  0  0
  -18.2260  -26.7210   22.2270 C   0  0  0  0  0  2  0  0  0  0  0  0
  -19.1640  -28.8320   23.3360 C   0  0  0  0  0  0  0  0  0  0  0  0
  -18.9420  -30.0900   23.9380 C   0  0  0  0  0  3  0  0  0  0  0  0
  -17.6350  -30.5820   24.1180 C   0  0  0  0  0  3  0  0  0  0  0  0
  -16.5320  -29.8100   23.7100 C   0  0  0  0  0  3  0  0  0  0  0  0
  -16.7400  -28.5540   23.1150 C   0  0  0  0  0  3  0  0  0  0  0  0
  -25.8920  -32.5210   23.7800 C   0  0  0  0  0  3  0  0  0  0  0  0
  -25.5820  -33.9120   24.1370 N   0  0  0  0  0  0  0  0  0  0  0  0
  -25.8870  -34.9760   23.3840 C   0  0  0  0  0  0  0  0  0  0  0  0
  -26.5300  -34.8900   22.3330 O   0  0  0  0  0  0  0  0  0  0  0  0
  -25.0080  -34.0510   24.9560 H   0  0  0  0  0  0  0  0  0  0  0  0
  -24.1350  -36.7570   23.1020 C   0  0  0  0  0  1  0  0  0  0  0  0
  -25.4030  -36.3540   23.8720 C   0  0  0  0  0  3  0  0  0  0  0  0
  -27.5550  -37.2430   24.6480 C   0  0  0  0  0  1  0  0  0  0  0  0
  -26.4240  -37.4170   23.7410 N   0  0  0  0  0  0  0  0  0  0  0  0
  -26.0160  -38.3310   23.9140 H   0  0  0  0  0  0  0  0  0  0  0  0
  -26.4370  -31.7310   25.0320 C   0  0  1  0  0  0  0  0  0  0  0  0
  -25.3660  -31.4700   26.1170 C   0  0  0  0  0  1  0  0  0  0  0  0
  -27.0170  -30.3630   24.6020 C   0  0  0  0  0  1  0  0  0  0  0  0
  -27.6020  -32.5170   25.6800 C   0  0  0  0  0  1  0  0  0  0  0  0
  -28.9170  -20.1270   21.5220 C   0  0  0  0  0  1  0  0  0  0  0  0
  -29.9100  -19.5780   20.6010 N   0  0  0  0  0  0  0  0  0  0  0  0
  -29.5140  -18.1780   20.2630 C   0  0  0  0  0  2  0  0  0  0  0  0
  -30.3540  -17.1070   21.0400 C   0  0  0  0  0  2  0  0  0  0  0  0
  -30.6120  -14.6360   20.4790 C   0  0  0  0  0  0  0  0  0  0  0  0
  -30.3510  -12.4340   19.3830 C   0  0  0  0  0  2  0  0  0  0  0  0
  -29.4350  -12.5930   18.1530 C   0  0  0  0  0  2  0  0  0  0  0  0
  -27.9530  -12.4510   18.5550 C   0  0  0  0  0  2  0  0  0  0  0  0
  -27.5810  -13.3140   19.7920 C   0  0  0  0  0  3  0  0  0  0  0  0
  -28.6180  -13.1460   20.9260 C   0  0  0  0  0  2  0  0  0  0  0  0
  -29.9440  -13.4510   20.3670 N   0  0  0  0  0  0  0  0  0  0  0  0
  -31.7710  -14.7760   20.0790 O   0  0  0  0  0  0  0  0  0  0  0  0
  -29.8880  -15.7020   20.8960 N   0  0  0  0  0  0  0  0  0  0  0  0
  -28.9390  -15.5080   21.1780 H   0  0  0  0  0  0  0  0  0  0  0  0
  -25.1670  -13.9170   20.4420 C   0  0  0  0  0  0  0  0  0  0  0  0
  -24.0950  -13.1470   20.8000 C   0  0  0  0  0  0  0  0  0  0  0  0
  -24.5640  -11.7980   20.8060 C   0  0  0  0  0  0  0  0  0  0  0  0
  -26.2210  -13.0380   20.2510 N   0  0  0  0  0  0  0  0  0  0  0  0
  -25.8600  -11.7600   20.5270 N   0  0  0  0  0  0  0  0  0  0  0  0
  -23.8380  -10.5360   21.0020 C   0  0  0  0  0  0  0  0  0  0  0  0
  -24.2600   -9.5810   21.9540 C   0  0  0  0  0  3  0  0  0  0  0  0
  -23.5350   -8.3850   22.1390 C   0  0  0  0  0  3  0  0  0  0  0  0
  -22.3740   -8.1340   21.3700 C   0  0  0  0  0  0  0  0  0  0  0  0
  -21.9710   -9.0750   20.4070 C   0  0  0  0  0  3  0  0  0  0  0  0
  -22.6960  -10.2630   20.2220 C   0  0  0  0  0  3  0  0  0  0  0  0
  -21.6220   -6.9870   21.4630 O   0  0  0  0  0  0  0  0  0  0  0  0
  -21.5660   -6.2530   22.6210 C   0  0  0  0  0  0  0  0  0  0  0  0
  -21.1370   -6.8190   23.8410 C   0  0  0  0  0  3  0  0  0  0  0  0
  -21.0290   -6.0130   24.9920 C   0  0  0  0  0  3  0  0  0  0  0  0
  -21.3380   -4.6410   24.9230 C   0  0  0  0  0  0  0  0  0  0  0  0
  -21.7590   -4.0740   23.7070 C   0  0  0  0  0  3  0  0  0  0  0  0
  -21.8690   -4.8780   22.5580 C   0  0  0  0  0  0  0  0  0  0  0  0
  -22.2560   -4.3230   21.3840 F   0  0  0  0  0  0  0  0  0  0  0  0
  -21.2260   -3.8640   26.0240 F   0  0  0  0  0  0  0  0  0  0  0  0
  -22.6900  -13.6220   21.0310 C   0  0  0  0  0  0  0  0  0  0  0  0
  -21.9460  -12.9360   21.8920 N   0  0  0  0  0  0  0  0  0  0  0  0
  -22.2590  -14.6340   20.4820 O   0  0  0  0  0  0  0  0  0  0  0  0
  -22.3050  -12.1150   22.3530 H   0  0  0  0  0  0  0  0  0  0  0  0
  -21.0010  -13.2370   22.0910 H   0  0  0  0  0  0  0  0  0  0  0  0
  -25.3290  -15.2850   20.2420 N   0  0  0  0  0  0  0  0  0  0  0  0
  -24.5520  -15.9330   20.3070 H   0  0  0  0  0  0  0  0  0  0  0  0
  -26.1770  -15.7190   19.9020 H   0  0  0  0  0  0  0  0  0  0  0  0
  1  2  1  0
  1  3  1  0
  2  4  1  0
  3  5  1  0
  4  6  1  0
  5  6  1  0
  5 54  1  0
  6  7  1  0
  7 10  1  0
  7  8  1  0
  9  7  1  0
 11 12  1  0
 11 10  1  0
 13 24  2  0
 14 12  1  0
 14 19  1  0
 15 23  1  0
 15 25  1  0
 16 22  1  0
 16 18  1  0
 17 23  1  0
 18 17  1  0
 19 18  2  0
 20 21  1  0
 20 14  2  0
 21 16  2  0
 22 15  1  0
 23 13  1  0
 25 27  2  0
 26 25  1  0
 28 26  1  0
 29 38  2  0
 29 34  1  0
 30 26  1  0
 30 34  1  0
 31 30  1  0
 32 33  1  0
 32 31  1  0
 33 29  1  0
 34 35  2  0
 35 36  1  0
 37 36  2  0
 38 37  1  0
 39 13  1  0
 39 40  1  0
 39 49  1  0
 40 43  1  0
 41 45  1  0
 41 40  1  0
 42 41  2  0
 45 44  1  0
 47 45  1  0
 47 48  1  0
 47 46  1  0
 49 52  1  1
 49 50  1  0
 51 49  1  0
 54 53  1  0
 55 54  1  0
 55 56  1  0
 57 65  1  0
 58 63  1  0
 59 60  1  0
 59 58  1  0
 61 60  1  0
 61 70  1  0
 61 62  1  0
 63 57  1  0
 63 62  1  0
 64 57  2  0
 65 56  1  0
 65 66  1  0
 67 68  2  0
 68 69  1  0
 68 87  1  0
 69 72  1  0
 70 67  1  0
 70 71  1  0
 71 69  2  0
 72 73  1  0
 73 74  2  0
 75 78  1  0
 75 74  1  0
 76 75  2  0
 77 76  1  0
 77 72  2  0
 78 79  1  0
 79 80  1  0
 80 81  2  0
 82 81  1  0
 82 86  1  0
 83 82  2  0
 84 79  2  0
 84 83  1  0
 85 84  1  0
 87 88  1  0
 88 91  1  0
 88 90  1  0
 89 87  2  0
 92 93  1  0
 92 67  1  0
 94 92  1  0
M  ISO  4  11 101  12 101  57 100  65 100
M  END
>  <TORSDO>  (39) 
F 22

>  <SCORE>  (39) 
-12.553

>  <name>  (39) 
39

>  <ligand_id>  (39) 
39

>  <original_smiles>  (39) 
[H]c1c([H])c([H])c2c(c1[H])C([H])([H])C([H])([H])C([H])([H])C2([H])N([H])C(=O)C1([H])N(C(=O)C([H])(N([H])C(=O)C([H])(N([H])C([H])([H])[H])C([H])([H])[H])C(C([H])([H])[H])(C([H])([H])[H])C([H])([H])[H])C([H])([H])c2c([H])c(OC([H])([H])C([H])([H])[N+]([H])([H])C3([H])C([H])([H])C([H])([H])C([H])([H])C([H])([H])C3([H])N(C([H])([H])[H])C([H])([H])C([H])([H])N([H])C(=O)N3C([H])([H])C([H])([H])C([H])([H])C([H])(n4nc(-c5c([H])c([H])c(Oc6c([H])c([H])c(F)c([H])c6F)c([H])c5[H])c(C(=O)N([H])[H])c4N([H])[H])C3([H])[H])c([H])c([H])c2C1([H])[H]

>  <smiles>  (39) 
[H]c1c([H])c([H])c2c(c1[H])C([H])([H])C([H])([H])C([H])([H])C2([H])N([H])C(=O)C1([H])N(C(=O)C([H])(N([H])C(=O)C([H])(N([H])C([H])([H])[H])C([H])([H])[H])C(C([H])([H])[H])(C([H])([H])[H])C([H])([H])[H])C([H])([H])c2c([H])c(OC([H])([H])C([H])([H])[N+]([H])([H])C3([H])C([H])([H])C([H])([H])C([H])([H])C([H])([H])C3([H])N(C([H])([H])[H])C([H])([H])C([H])([H])N([H])C(=O)N3C([H])([H])C([H])([H])C([H])([H])C([H])(n4nc(-c5c([H])c([H])c(Oc6c([H])c([H])c(F)c([H])c6F)c([H])c5[H])c(C(=O)N([H])[H])c4N([H])[H])C3([H])[H])c([H])c([H])c2C1([H])[H]

$$$$
40:0:0
     RDKit          3D

 97 97  0  0  1  0  0  0  0  0999 V2000
  -23.7700  -28.1250   22.0540 C   0  0  0  0  0  3  0  0  0  0  0  0
  -23.5900  -28.4220   20.6450 C   0  0  0  0  0  2  0  0  0  0  0  0
  -24.3530  -26.9580   22.6670 C   0  0  0  0  0  3  0  0  0  0  0  0
  -23.8480  -27.5110   19.5780 C   0  0  0  0  0  3  0  0  0  0  0  0
  -23.9080  -26.0940   20.2680 C   0  0  0  0  0  3  0  0  0  0  0  0
  -24.6130  -25.7770   21.9260 C   0  0  1  0  0  0  0  0  0  0  0  0
  -24.1710  -27.9720   17.7850 C   0  0  0  0  0  0  0  0  0  0  0  0
  -23.4840  -23.7450   18.5470 C   0  0  0  0  0  1  0  0  0  0  0  0
  -24.9040  -26.9120   16.3580 C   0  0  0  0  0  1  0  0  0  0  0  0
  -24.4970  -23.7850   16.7940 C   0  0  0  0  0 15  0  0  0  0  0  0
  -25.8410  -25.1350   16.2650 C   0  0  0  0  0 15  0  0  0  0  0  0
  -23.9240  -29.1340   17.4620 O   0  0  0  0  0  0  0  0  0  0  0  0
  -26.1920  -24.2400   22.4500 C   0  0  0  0  0 15  0  0  0  0  0  0
  -27.8000  -22.8230   21.6000 C   0  0  0  0  0 15  0  0  0  0  0  0
  -29.9110  -22.0010   21.2650 C   0  0  0  0  0 15  0  0  0  0  0  0
  -31.4480  -20.5610   20.3640 C   0  0  0  0  0 15  0  0  0  0  0  0
  -33.5560  -19.7070   20.1270 C   0  0  0  0  0 15  0  0  0  0  0  0
  -36.6970  -18.1670   18.7240 C   0  0  0  0  0  0  0  0  0  0  0  0
  -38.8840  -17.2250   17.0870 C   0  0  0  0  0  2  0  0  0  0  0  0
  -39.2710  -17.7680   15.6430 C   0  0  0  0  0  2  0  0  0  0  0  0
  -38.2660  -17.3140   14.5800 C   0  0  0  0  0  2  0  0  0  0  0  0
  -36.8780  -17.3080   15.2390 C   0  0  0  0  0  3  0  0  0  0  0  0
  -36.7710  -16.5380   16.5640 C   0  0  0  0  0  2  0  0  0  0  0  0
  -37.3620  -17.4200   17.5590 N   0  0  0  0  0  0  0  0  0  0  0  0
  -37.7790  -18.2960   19.3980 O   0  0  0  0  0  0  0  0  0  0  0  0
  -35.1130  -18.7990   19.1280 N   0  0  0  0  0  2  0  0  0  0  0  0
  -35.6580  -19.0880   19.9330 H   0  0  0  0  0  0  0  0  0  0  0  0
  -34.4930  -17.3040   14.5460 C   0  0  0  0  0  0  0  0  0  0  0  0
  -33.8270  -16.6780   13.5400 C   0  0  0  0  0  0  0  0  0  0  0  0
  -34.7990  -15.8890   12.8460 C   0  0  0  0  0  0  0  0  0  0  0  0
  -35.8020  -16.9040   14.4030 N   0  0  0  0  0  0  0  0  0  0  0  0
  -35.9870  -15.9880   13.4290 N   0  0  0  0  0  0  0  0  0  0  0  0
  -34.6780  -15.1040   11.6200 C   0  0  0  0  0  0  0  0  0  0  0  0
  -34.9000  -13.7100   11.6060 C   0  0  0  0  0  3  0  0  0  0  0  0
  -34.7540  -12.9800   10.4080 C   0  0  0  0  0  3  0  0  0  0  0  0
  -34.3790  -13.6440    9.2160 C   0  0  0  0  0  0  0  0  0  0  0  0
  -34.1840  -15.0360    9.2340 C   0  0  0  0  0  3  0  0  0  0  0  0
  -34.3350  -15.7620   10.4250 C   0  0  0  0  0  3  0  0  0  0  0  0
  -34.2320  -13.0230    8.0000 O   0  0  0  0  0  0  0  0  0  0  0  0
  -33.9500  -11.6840    7.9080 C   0  0  0  0  0  0  0  0  0  0  0  0
  -32.7230  -11.1490    8.3570 C   0  0  0  0  0  3  0  0  0  0  0  0
  -32.4480   -9.7780    8.1780 C   0  0  0  0  0  3  0  0  0  0  0  0
  -33.3910   -8.9470    7.5430 C   0  0  0  0  0  0  0  0  0  0  0  0
  -34.6100   -9.4810    7.0920 C   0  0  0  0  0  3  0  0  0  0  0  0
  -34.8880  -10.8470    7.2730 C   0  0  0  0  0  0  0  0  0  0  0  0
  -36.0560  -11.3630    6.8170 F   0  0  0  0  0  0  0  0  0  0  0  0
  -33.1230   -7.6320    7.3640 F   0  0  0  0  0  0  0  0  0  0  0  0
  -32.3880  -16.8860   13.1930 C   0  0  0  0  0  0  0  0  0  0  0  0
  -31.6580  -15.8070   12.9490 N   0  0  0  0  0  0  0  0  0  0  0  0
  -31.8940  -18.0130   13.1880 O   0  0  0  0  0  0  0  0  0  0  0  0
  -32.0610  -14.8830   12.9770 H   0  0  0  0  0  0  0  0  0  0  0  0
  -30.6760  -15.9060   12.7310 H   0  0  0  0  0  0  0  0  0  0  0  0
  -34.1090  -18.1860   15.5560 N   0  0  0  0  0  0  0  0  0  0  0  0
  -33.1560  -18.5170   15.6470 H   0  0  0  0  0  0  0  0  0  0  0  0
  -34.7290  -18.5770   16.2540 H   0  0  0  0  0  0  0  0  0  0  0  0
  -27.6890  -24.9150   16.9870 C   0  0  0  0  0  1  0  0  0  0  0  0
  -28.8630  -24.6390   18.3510 O   0  0  0  0  0  0  0  0  0  0  0  0
  -27.3640  -28.6560   22.6750 C   0  0  0  0  0  0  0  0  0  0  0  0
  -30.1660  -25.1520   18.7680 C   0  0  0  0  0  3  0  0  0  0  0  0
  -26.9160  -27.4680   20.4820 C   0  0  0  0  0  3  0  0  0  0  0  0
  -28.8330  -27.3410   18.9180 C   0  0  0  0  0  3  0  0  0  0  0  0
  -29.2620  -28.0040   21.2300 C   0  0  0  0  0  2  0  0  0  0  0  0
  -29.5500  -27.0910   20.0600 C   0  0  0  0  0  3  0  0  0  0  0  0
  -30.3260  -25.9170   19.9960 C   0  0  0  0  0  2  0  0  0  0  0  0
  -30.3500  -25.9250   17.6830 C   0  0  0  0  0  2  0  0  0  0  0  0
  -29.3580  -26.9240   17.6880 C   0  0  0  0  0  2  0  0  0  0  0  0
  -27.5040  -27.9040   19.1080 C   0  0  0  0  0  2  0  0  0  0  0  0
  -27.8160  -28.0910   21.5170 N   0  0  0  0  0  0  0  0  0  0  0  0
  -26.1690  -28.8710   22.8960 O   0  0  0  0  0  0  0  0  0  0  0  0
  -26.6370  -25.8650   20.8330 C   0  0  0  0  0  0  0  0  0  0  0  0
  -25.5010  -24.8890   20.7080 N   0  0  1  0  0  4  0  0  0  0  0  0
  -27.5900  -25.4130   21.4210 O   0  0  0  0  0  0  0  0  0  0  0  0
  -25.1070  -25.0900   19.8030 H   0  0  0  0  0  0  0  0  0  0  0  0
  -20.9720  -25.3420   20.9480 C   0  0  0  0  0  3  0  0  0  0  0  0
  -24.0090  -24.0080   21.6520 C   0  0  0  0  0  2  0  0  0  0  0  0
  -24.5900  -23.7380   20.2000 C   0  0  0  0  0  3  0  0  0  0  0  0
  -23.7350  -24.8280   19.1530 C   0  0  0  0  0  3  0  0  0  0  0  0
  -21.6400  -25.4470   19.3590 C   0  0  0  0  0  1  0  0  0  0  0  0
  -21.9180  -24.8900   22.1290 C   0  0  0  0  0  2  0  0  0  0  0  0
  -21.6270  -26.2530   22.8120 C   0  0  0  0  0  2  0  0  0  0  0  0
  -20.6560  -27.3350   22.5600 C   0  0  0  0  0  2  0  0  0  0  0  0
  -19.5400  -27.0840   21.7640 C   0  0  0  0  0  2  0  0  0  0  0  0
  -19.6590  -25.9040   21.0370 C   0  0  0  0  0  2  0  0  0  0  0  0
  -28.3550  -29.0610   23.8070 C   0  0  0  0  0  3  0  0  0  0  0  0
  -27.7270  -30.1320   24.6010 N   0  0  0  0  0  0  0  0  0  0  0  0
  -27.9440  -31.4430   24.4370 C   0  0  0  0  0  0  0  0  0  0  0  0
  -28.7550  -31.8860   23.6210 O   0  0  0  0  0  0  0  0  0  0  0  0
  -27.0030  -29.8460   25.2440 H   0  0  0  0  0  0  0  0  0  0  0  0
  -25.9730  -33.0110   24.5230 C   0  0  0  0  0  1  0  0  0  0  0  0
  -27.1420  -32.4190   25.3260 C   0  0  0  0  0  3  0  0  0  0  0  0
  -28.9750  -33.0520   26.8360 C   0  0  0  0  0  1  0  0  0  0  0  0
  -27.9610  -33.5150   25.8910 N   0  0  0  0  0  0  0  0  0  0  0  0
  -27.3730  -34.1940   26.3680 H   0  0  0  0  0  0  0  0  0  0  0  0
  -28.7370  -27.8470   24.7470 C   0  0  1  0  0  0  0  0  0  0  0  0
  -27.5540  -26.8870   25.0290 C   0  0  0  0  0  1  0  0  0  0  0  0
  -29.8910  -26.9970   24.1690 C   0  0  0  0  0  1  0  0  0  0  0  0
  -29.2560  -28.3900   26.0970 C   0  0  0  0  0  1  0  0  0  0  0  0
  1  3  2  0
  2  1  1  0
  4  7  1  0
  4  5  1  0
  4  2  1  0
  5  6  1  0
  6  3  1  0
  8 77  1  0
  9  7  1  0
 12  7  2  0
 18 26  1  0
 18 25  2  0
 19 24  1  0
 20 19  1  0
 21 22  1  0
 21 20  1  0
 22 23  1  0
 23 24  1  0
 24 18  1  0
 26 27  1  0
 28 53  1  0
 29 28  2  0
 30 32  2  0
 30 29  1  0
 31 28  1  0
 31 22  1  0
 32 31  1  0
 33 30  1  0
 34 33  1  0
 35 34  2  0
 36 37  2  0
 36 35  1  0
 37 38  1  0
 38 33  2  0
 39 36  1  0
 40 39  1  0
 40 41  1  0
 42 41  2  0
 43 42  1  0
 44 45  1  0
 44 43  2  0
 45 40  2  0
 46 45  1  0
 47 43  1  0
 48 29  1  0
 49 51  1  0
 49 48  1  0
 50 48  2  0
 52 49  1  0
 53 54  1  0
 53 55  1  0
 56 57  1  0
 57 59  1  0
 58 69  2  0
 58 84  1  0
 59 64  1  0
 60 70  1  0
 60 68  1  0
 61 67  1  0
 61 63  1  0
 62 68  1  0
 63 62  1  0
 64 63  1  0
 65 66  1  0
 65 59  1  0
 66 61  1  0
 67 60  1  0
 68 58  1  0
 70 72  2  0
 71 70  1  0
 71  6  1  0
 71 73  1  6
 74 83  1  0
 74 79  1  0
  6 75  1  1
 76 71  1  0
 76 75  1  0
 77 76  1  0
 77  5  1  0
 78 74  1  0
 79 80  1  0
 81 80  1  0
 82 81  1  0
 83 82  1  0
 84 85  1  0
 84 94  1  0
 85 88  1  0
 86 85  1  0
 86 90  1  0
 87 86  2  0
 89 90  1  0
 90 92  1  0
 92 93  1  0
 92 91  1  0
 94 95  1  1
 94 97  1  0
 96 94  1  0
M  ISO  4  18 100  26 100  56 101  57 101
M  END
>  <TORSDO>  (40) 
F 22

>  <SCORE>  (40) 
-5.452

>  <name>  (40) 
40

>  <ligand_id>  (40) 
40

>  <original_smiles>  (40) 
[H]c1c([H])c([H])c2c(c1[H])C([H])([H])C([H])([H])C([H])([H])C2([H])N([H])C(=O)C1([H])N(C(=O)C([H])(N([H])C(=O)C([H])(N([H])C([H])([H])[H])C([H])([H])[H])C(C([H])([H])[H])(C([H])([H])[H])C([H])([H])[H])C([H])([H])c2c([H])c(OC([H])([H])C3([H])C([H])([H])C(=O)c4c([H])c([H])c([H])c(C([H])([H])C([H])([H])C([H])([H])C([H])([H])C([H])([H])N([H])C(=O)N5C([H])([H])C([H])([H])C([H])([H])C([H])(n6nc(-c7c([H])c([H])c(Oc8c([H])c([H])c(F)c([H])c8F)c([H])c7[H])c(C(=O)N([H])[H])c6N([H])[H])C5([H])[H])c4C([H])([H])C3([H])[H])c([H])c([H])c2C1([H])[H]

>  <smiles>  (40) 
[H]c1c([H])c([H])c2c(c1[H])C([H])([H])C([H])([H])C([H])([H])C2([H])N([H])C(=O)C1([H])N(C(=O)C([H])(N([H])C(=O)C([H])(N([H])C([H])([H])[H])C([H])([H])[H])C(C([H])([H])[H])(C([H])([H])[H])C([H])([H])[H])C([H])([H])c2c([H])c(OC([H])([H])C3([H])C([H])([H])C(=O)c4c([H])c([H])c([H])c(C([H])([H])C([H])([H])C([H])([H])C([H])([H])C([H])([H])N([H])C(=O)N5C([H])([H])C([H])([H])C([H])([H])C([H])(n6nc(-c7c([H])c([H])c(Oc8c([H])c([H])c(F)c([H])c8F)c([H])c7[H])c(C(=O)N([H])[H])c6N([H])[H])C5([H])[H])c4C([H])([H])C3([H])[H])c([H])c([H])c2C1([H])[H]

$$$$
41:0:0
     RDKit          3D

100 97  0  0  1  0  0  0  0  0999 V2000
  -27.0030  -13.1040   18.6430 C   0  0  0  0  0  1  0  0  0  0  0  0
  -26.1860  -12.3910   22.4230 C   0  0  0  0  0 15  0  0  0  0  0  0
  -26.2880  -15.2720   18.9200 C   0  0  0  0  0  1  0  0  0  0  0  0
  -25.4470  -15.8910   20.6790 C   0  0  0  0  0  1  0  0  0  0  0  0
  -26.9900  -11.5180   20.3720 C   0  0  0  0  0  1  0  0  0  0  0  0
  -25.3960  -14.5040   22.4480 C   0  0  0  0  0  1  0  0  0  0  0  0
  -26.9680  -17.0150   18.5030 C   0  0  0  0  0  0  0  0  0  0  0  0
  -25.9350  -17.7050   20.5600 C   0  0  0  0  0  2  0  0  0  0  0  0
  -26.8820  -18.8050   19.2580 C   0  0  0  0  0  2  0  0  0  0  0  0
  -24.9990  -15.0850   23.7830 C   0  0  0  0  0  1  0  0  0  0  0  0
  -27.6750  -17.0120   17.4930 O   0  0  0  0  0  0  0  0  0  0  0  0
  -26.7690   -9.0530   19.5650 C   0  0  0  0  0  1  0  0  0  0  0  0
  -27.5100  -10.0630   20.4630 C   0  0  0  0  0  3  0  0  0  0  0  0
  -29.0110   -9.9260   20.4480 N   0  0  0  0  0  4  0  0  0  0  0  0
  -29.2640   -9.2300   21.1330 H   0  0  0  0  0  0  0  0  0  0  0  0
  -29.2870   -9.5730   19.5470 H   0  0  0  0  0  0  0  0  0  0  0  0
  -29.8650  -11.1880   20.6830 C   0  0  0  0  0  1  0  0  0  0  0  0
  -30.4020  -13.3560   19.0090 C   0  0  0  0  0  1  0  0  0  0  0  0
  -30.5100  -14.9930   19.2490 C   0  0  0  0  0  2  0  0  0  0  0  0
  -31.4370  -15.6630   20.3250 C   0  0  0  0  0  2  0  0  0  0  0  0
  -32.0170  -13.6410   21.2310 C   0  0  0  0  0  0  0  0  0  0  0  0
  -31.6650  -11.4520   19.8030 C   0  0  0  0  0  1  0  0  0  0  0  0
  -30.5160  -11.1390   18.1990 C   0  0  0  0  0 15  0  0  0  0  0  0
  -28.7290  -12.0010   18.1530 C   0  0  0  0  0  1  0  0  0  0  0  0
  -28.3390  -13.1800   19.6780 C   0  0  1  0  0  0  0  0  0  0  0  0
  -29.5240  -13.2950   21.1850 C   0  0  0  0  0  2  0  0  0  0  0  0
  -31.1240  -12.6180   21.0930 N   0  0  0  0  0  0  0  0  0  0  0  0
  -33.0940  -13.6450   20.6700 O   0  0  0  0  0  0  0  0  0  0  0  0
  -31.5660  -14.8470   21.5290 N   0  0  0  0  0  0  0  0  0  0  0  0
  -30.7460  -14.8520   22.1210 H   0  0  0  0  0  0  0  0  0  0  0  0
  -26.2790  -13.9390   20.6040 C   0  0  0  0  0  0  0  0  0  0  0  0
  -24.5320  -13.4030   20.6140 C   0  0  0  0  0  0  0  0  0  0  0  0
  -24.3900  -12.0790   20.7380 C   0  0  0  0  0  2  0  0  0  0  0  0
  -27.1900  -13.5000   20.5460 N   0  0  0  0  0  2  0  0  0  0  0  0
  -25.3500  -13.2850   20.5910 N   0  0  0  0  0  2  0  0  0  0  0  0
  -23.9960  -10.5000   20.8970 C   0  0  0  0  0  3  0  0  0  0  0  0
  -24.5410   -9.4550   21.7590 C   0  0  0  0  0  3  0  0  0  0  0  0
  -23.9230   -8.1640   21.9650 C   0  0  0  0  0  3  0  0  0  0  0  0
  -22.7110   -7.8280   21.3110 C   0  0  0  0  0  0  0  0  0  0  0  0
  -22.2410   -8.7740   20.3800 C   0  0  0  0  0  3  0  0  0  0  0  0
  -22.8640  -10.0380   20.1820 C   0  0  0  0  0  3  0  0  0  0  0  0
  -21.9790   -6.6480   21.4430 O   0  0  0  0  0  0  0  0  0  0  0  0
  -21.8560   -5.9150   22.6110 C   0  0  0  0  0  0  0  0  0  0  0  0
  -21.3400   -6.4640   23.8080 C   0  0  0  0  0  3  0  0  0  0  0  0
  -21.1880   -5.6570   24.9580 C   0  0  0  0  0  3  0  0  0  0  0  0
  -21.5410   -4.2940   24.9220 C   0  0  0  0  0  0  0  0  0  0  0  0
  -22.0230   -3.7320   23.7280 C   0  0  0  0  0  3  0  0  0  0  0  0
  -22.1670   -4.5330   22.5790 C   0  0  0  0  0  0  0  0  0  0  0  0
  -22.6050   -3.9630   21.4310 F   0  0  0  0  0  0  0  0  0  0  0  0
  -21.4140   -3.5240   26.0300 F   0  0  0  0  0  0  0  0  0  0  0  0
  -22.9950  -13.8210   20.7290 C   0  0  0  0  0  0  0  0  0  0  0  0
  -22.2220  -13.1630   21.6280 N   0  0  0  0  0  0  0  0  0  0  0  0
  -22.5180  -14.5780   19.9170 O   0  0  0  0  0  0  0  0  0  0  0  0
  -22.6270  -12.5300   22.3020 H   0  0  0  0  0  0  0  0  0  0  0  0
  -21.2320  -13.3610   21.6780 H   0  0  0  0  0  0  0  0  0  0  0  0
  -27.3250  -15.0250   20.7850 N   0  0  0  0  0  4  0  0  0  0  0  0
  -26.7220  -15.7660   21.1140 H   0  0  0  0  0  0  0  0  0  0  0  0
  -27.7020  -15.2740   19.8860 H   0  0  0  0  0  0  0  0  0  0  0  0
  -27.5660  -21.1760   18.8380 C   0  0  0  0  0 15  0  0  0  0  0  0
  -28.5820  -23.1470   18.8420 O   0  0  0  0  0  1  0  0  0  0  0  0
  -27.3950  -29.8420   23.7560 C   0  0  0  0  0  0  0  0  0  0  0  0
  -28.5160  -24.8640   19.2740 C   0  0  0  0  0  0  0  0  0  0  0  0
  -26.1260  -29.1750   21.7870 C   0  0  0  0  0  3  0  0  0  0  0  0
  -27.2930  -27.7620   19.8860 C   0  0  0  0  0  0  0  0  0  0  0  0
  -28.6500  -28.6380   21.7390 C   0  0  0  0  0  2  0  0  0  0  0  0
  -28.4050  -27.4260   20.6490 C   0  0  0  0  0  0  0  0  0  0  0  0
  -29.0180  -26.0200   20.3140 C   0  0  0  0  0  3  0  0  0  0  0  0
  -27.6860  -25.6910   18.4740 C   0  0  0  0  0  3  0  0  0  0  0  0
  -27.0640  -26.9520   18.7660 C   0  0  0  0  0  3  0  0  0  0  0  0
  -26.3530  -28.9310   20.2620 C   0  0  0  0  0  2  0  0  0  0  0  0
  -27.4410  -29.2630   22.4890 N   0  0  0  0  0  0  0  0  0  0  0  0
  -26.3170  -30.1580   24.3000 O   0  0  0  0  0  0  0  0  0  0  0  0
  -25.2340  -28.0640   22.4080 C   0  0  0  0  0  0  0  0  0  0  0  0
  -23.9220  -28.0420   22.1080 N   0  0  0  0  0  0  0  0  0  0  0  0
  -25.7430  -27.2270   23.1580 O   0  0  0  0  0  0  0  0  0  0  0  0
  -23.5530  -28.7680   21.5100 H   0  0  0  0  0  0  0  0  0  0  0  0
  -20.4980  -26.8510   21.8220 C   0  0  0  0  0  0  0  0  0  0  0  0
  -22.9770  -27.0050   22.5470 C   0  0  0  0  0  3  0  0  0  0  0  0
  -23.1790  -25.6990   21.7440 C   0  0  0  0  0  2  0  0  0  0  0  0
  -22.2700  -25.6020   20.5150 C   0  0  0  0  0  2  0  0  0  0  0  0
  -20.7980  -25.6550   20.9340 C   0  0  0  0  0  2  0  0  0  0  0  0
  -21.5230  -27.4960   22.5660 C   0  0  0  0  0  0  0  0  0  0  0  0
  -21.1900  -28.6180   23.3550 C   0  0  0  0  0  3  0  0  0  0  0  0
  -19.8670  -29.0990   23.4040 C   0  0  0  0  0  3  0  0  0  0  0  0
  -18.8570  -28.4510   22.6730 C   0  0  0  0  0  3  0  0  0  0  0  0
  -19.1710  -27.3280   21.8890 C   0  0  0  0  0  3  0  0  0  0  0  0
  -28.6680  -30.1540   24.6040 C   0  0  0  0  0  3  0  0  0  0  0  0
  -28.3160  -31.1400   25.6600 N   0  0  0  0  0  0  0  0  0  0  0  0
  -28.7630  -32.4020   25.7490 C   0  0  0  0  0  0  0  0  0  0  0  0
  -29.5640  -32.8710   24.9390 O   0  0  0  0  0  0  0  0  0  0  0  0
  -27.6150  -30.8440   26.3220 H   0  0  0  0  0  0  0  0  0  0  0  0
  -27.2140  -34.2930   26.3950 C   0  0  0  0  0  1  0  0  0  0  0  0
  -28.2530  -33.2840   26.9150 C   0  0  0  0  0  3  0  0  0  0  0  0
  -30.1900  -33.1520   28.4250 C   0  0  0  0  0  1  0  0  0  0  0  0
  -29.3270  -34.0160   27.6250 N   0  0  0  0  0  0  0  0  0  0  0  0
  -28.9350  -34.7270   28.2370 H   0  0  0  0  0  0  0  0  0  0  0  0
  -29.2740  -28.8700   25.3000 C   0  0  1  0  0  0  0  0  0  0  0  0
  -28.2410  -28.0490   26.1110 C   0  0  0  0  0  1  0  0  0  0  0  0
  -29.9030  -27.9140   24.2690 C   0  0  0  0  0  1  0  0  0  0  0  0
  -30.4200  -29.2810   26.2550 C   0  0  0  0  0  1  0  0  0  0  0  0
 25  1  1  6
  5 13  1  0
  6 10  1  0
  7  3  1  0
  7  9  1  0
  8  4  1  0
  9  8  1  0
 11  7  2  0
 12 13  1  0
 14 13  1  0
 14 17  1  0
 14 15  1  0
 16 14  1  0
 18 19  1  0
 19 20  1  0
 20 29  1  0
 21 29  1  0
 22 27  1  0
 24 25  1  0
 25 34  1  0
 25 26  1  0
 27 26  1  0
 27 21  1  0
 28 21  2  0
 29 30  1  0
 31 56  2  0
 32 51  1  0
 32 33  2  0
 34 31  1  0
 35 31  1  0
 35 32  1  0
 36 37  1  0
 37 38  2  0
 39 42  1  0
 39 38  1  0
 40 39  2  0
 41 40  1  0
 41 36  2  0
 42 43  1  0
 43 44  1  0
 44 45  2  0
 46 45  1  0
 46 50  1  0
 47 46  2  0
 48 43  2  0
 48 47  1  0
 49 48  1  0
 51 52  1  0
 52 55  1  0
 52 54  1  0
 53 51  2  0
 56 57  1  0
 58 56  1  0
 60 62  1  0
 61 72  2  0
 62 67  1  0
 63 73  1  0
 63 71  1  0
 64 70  1  0
 64 66  1  0
 65 71  1  0
 66 65  1  0
 67 66  2  0
 68 69  1  0
 68 62  2  0
 69 64  2  0
 70 63  1  0
 71 61  1  0
 73 75  2  0
 74 73  1  0
 76 74  1  0
 77 86  2  0
 77 82  1  0
 78 74  1  0
 78 82  1  0
 79 78  1  0
 80 81  1  0
 80 79  1  0
 81 77  1  0
 82 83  2  0
 83 84  1  0
 85 84  2  0
 86 85  1  0
 87 61  1  0
 87 97  1  0
 87 88  1  0
 88 89  1  0
 88 91  1  0
 89 93  1  0
 90 89  2  0
 93 92  1  0
 93 95  1  0
 95 96  1  0
 95 94  1  0
 97 98  1  1
 97100  1  0
 99 97  1  0
M  ISO  4  21 100  29 100  59 101  60 101
M  END
>  <TORSDO>  (41) 
F 23

>  <SCORE>  (41) 
-2.656

>  <name>  (41) 
41

>  <ligand_id>  (41) 
41

>  <original_smiles>  (41) 
[H]c1c([H])c([H])c2c(c1[H])C([H])([H])C([H])([H])C([H])([H])C2([H])N([H])C(=O)C1([H])N(C(=O)C([H])(N([H])C(=O)C([H])(N([H])C([H])([H])[H])C([H])([H])[H])C(C([H])([H])[H])(C([H])([H])[H])C([H])([H])[H])C([H])([H])c2c([H])c(OC([H])([H])C3([H])C(=O)c4c([H])c(C([H])(C([H])([H])[H])[N+]([H])([H])C([H])([H])C([H])([H])C([H])([H])C([H])([H])N([H])C(=O)N5C([H])([H])C([H])([H])C([H])([H])C([H])(n6nc(-c7c([H])c([H])c(Oc8c([H])c([H])c(F)c([H])c8F)c([H])c7[H])c(C(=O)N([H])[H])c6N([H])[H])C5([H])[H])c([H])c(C([H])([H])[H])c4C3([H])[H])c([H])c([H])c2C1([H])[H]

>  <smiles>  (41) 
[H]c1c([H])c([H])c2c(c1[H])C([H])([H])C([H])([H])C([H])([H])C2([H])N([H])C(=O)C1([H])N(C(=O)C([H])(N([H])C(=O)C([H])(N([H])C([H])([H])[H])C([H])([H])[H])C(C([H])([H])[H])(C([H])([H])[H])C([H])([H])[H])C([H])([H])c2c([H])c(OC([H])([H])C3([H])C(=O)c4c([H])c(C([H])(C([H])([H])[H])[N+]([H])([H])C([H])([H])C([H])([H])C([H])([H])C([H])([H])N([H])C(=O)N5C([H])([H])C([H])([H])C([H])([H])C([H])(n6nc(-c7c([H])c([H])c(Oc8c([H])c([H])c(F)c([H])c8F)c([H])c7[H])c(C(=O)N([H])[H])c6N([H])[H])C5([H])[H])c([H])c(C([H])([H])[H])c4C3([H])[H])c([H])c([H])c2C1([H])[H]

$$$$
42:0:0
     RDKit          3D

 91 99  0  0  1  0  0  0  0  0999 V2000
  -29.3730  -23.1670   20.6860 C   0  0  0  0  0  3  0  0  0  0  0  0
  -28.9150  -21.8800   20.1990 C   0  0  0  0  0  0  0  0  0  0  0  0
  -28.4370  -24.1890   20.6330 C   0  0  0  0  0  0  0  0  0  0  0  0
  -27.6150  -21.9670   19.7410 C   0  0  0  0  0  0  0  0  0  0  0  0
  -26.7710  -20.9220   19.0760 C   0  0  0  0  0  1  0  0  0  0  0  0
  -26.9500  -23.5720   19.9700 S   0  0  0  0  0  0  0  0  0  0  0  0
  -29.7710  -20.6220   20.0940 C   0  0  0  0  0  0  0  0  0  0  0  0
  -29.1850  -19.4490   20.4290 N   0  0  0  0  0  0  0  0  0  0  0  0
  -30.9350  -20.6710   19.6970 O   0  0  0  0  0  0  0  0  0  0  0  0
  -28.2610  -19.5490   20.8300 H   0  0  0  0  0  0  0  0  0  0  0  0
  -29.5620  -18.0720   20.0070 C   0  0  0  0  0  2  0  0  0  0  0  0
  -30.3670  -17.2140   21.0430 C   0  0  0  0  0  2  0  0  0  0  0  0
  -29.9630  -15.6990   21.2040 C   0  0  0  0  0  2  0  0  0  0  0  0
  -30.6570  -14.5760   20.3600 C   0  0  0  0  0  0  0  0  0  0  0  0
  -30.4000  -12.4210   19.1400 C   0  0  0  0  0  2  0  0  0  0  0  0
  -29.4270  -12.6150   17.9560 C   0  0  0  0  0  2  0  0  0  0  0  0
  -27.9590  -12.4720   18.4060 C   0  0  0  0  0  2  0  0  0  0  0  0
  -27.6430  -13.2970   19.6840 C   0  0  0  0  0  3  0  0  0  0  0  0
  -28.7130  -13.0350   20.7670 C   0  0  0  0  0  2  0  0  0  0  0  0
  -30.0230  -13.3780   20.1920 N   0  0  0  0  0  0  0  0  0  0  0  0
  -31.7510  -14.8050   19.8290 O   0  0  0  0  0  0  0  0  0  0  0  0
  -25.2580  -13.9320   20.4090 C   0  0  0  0  0  0  0  0  0  0  0  0
  -24.1870  -13.1720   20.7980 C   0  0  0  0  0  0  0  0  0  0  0  0
  -24.6360  -11.8160   20.7740 C   0  0  0  0  0  0  0  0  0  0  0  0
  -26.2930  -13.0390   20.1760 N   0  0  0  0  0  0  0  0  0  0  0  0
  -25.9220  -11.7620   20.4520 N   0  0  0  0  0  0  0  0  0  0  0  0
  -23.9020  -10.5630   20.9810 C   0  0  0  0  0  0  0  0  0  0  0  0
  -24.3450   -9.5930   21.9070 C   0  0  0  0  0  3  0  0  0  0  0  0
  -23.6120   -8.4030   22.1030 C   0  0  0  0  0  3  0  0  0  0  0  0
  -22.4230   -8.1730   21.3730 C   0  0  0  0  0  0  0  0  0  0  0  0
  -21.9980   -9.1310   20.4350 C   0  0  0  0  0  3  0  0  0  0  0  0
  -22.7310  -10.3120   20.2380 C   0  0  0  0  0  3  0  0  0  0  0  0
  -21.6610   -7.0340   21.4800 O   0  0  0  0  0  0  0  0  0  0  0  0
  -21.6370   -6.2880   22.6310 C   0  0  0  0  0  0  0  0  0  0  0  0
  -21.2640   -6.8460   23.8720 C   0  0  0  0  0  3  0  0  0  0  0  0
  -21.1840   -6.0270   25.0170 C   0  0  0  0  0  3  0  0  0  0  0  0
  -21.4710   -4.6520   24.9220 C   0  0  0  0  0  0  0  0  0  0  0  0
  -21.8400   -4.0940   23.6850 C   0  0  0  0  0  3  0  0  0  0  0  0
  -21.9210   -4.9100   22.5420 C   0  0  0  0  0  0  0  0  0  0  0  0
  -22.2570   -4.3630   21.3490 F   0  0  0  0  0  0  0  0  0  0  0  0
  -21.3890   -3.8640   26.0190 F   0  0  0  0  0  0  0  0  0  0  0  0
  -22.7960  -13.6630   21.0820 C   0  0  0  0  0  0  0  0  0  0  0  0
  -22.0730  -12.9810   21.9650 N   0  0  0  0  0  0  0  0  0  0  0  0
  -22.3590  -14.6860   20.5560 O   0  0  0  0  0  0  0  0  0  0  0  0
  -22.4390  -12.1570   22.4140 H   0  0  0  0  0  0  0  0  0  0  0  0
  -21.1420  -13.2950   22.1990 H   0  0  0  0  0  0  0  0  0  0  0  0
  -25.4300  -15.2990   20.2130 N   0  0  0  0  0  0  0  0  0  0  0  0
  -24.6670  -15.9580   20.3120 H   0  0  0  0  0  0  0  0  0  0  0  0
  -26.2790  -15.7250   19.8650 H   0  0  0  0  0  0  0  0  0  0  0  0
  -28.5230  -25.6200   21.1790 C   0  0  0  0  0  2  0  0  0  0  0  0
  -28.3890  -26.6320   20.1480 O   0  0  0  0  0  0  0  0  0  0  0  0
  -24.5970  -31.8890   23.2590 C   0  0  0  0  0  0  0  0  0  0  0  0
  -27.2490  -27.4180   20.1900 C   0  0  0  0  0  0  0  0  0  0  0  0
  -23.3990  -30.4950   21.6040 C   0  0  0  0  0  3  0  0  0  0  0  0
  -24.8630  -28.9560   20.1840 C   0  0  0  0  0  0  0  0  0  0  0  0
  -25.9300  -30.8400   21.4290 C   0  0  0  0  0  2  0  0  0  0  0  0
  -26.0190  -29.4650   20.7910 C   0  0  0  0  0  0  0  0  0  0  0  0
  -27.2160  -28.7000   20.7970 C   0  0  0  0  0  3  0  0  0  0  0  0
  -26.0810  -26.9450   19.5590 C   0  0  0  0  0  3  0  0  0  0  0  0
  -24.8910  -27.6960   19.5630 C   0  0  0  0  0  3  0  0  0  0  0  0
  -23.6200  -29.8210   20.2240 C   0  0  0  0  0  2  0  0  0  0  0  0
  -24.6600  -31.0910   22.1540 N   0  0  0  0  0  0  0  0  0  0  0  0
  -23.5110  -32.1590   23.7940 O   0  0  0  0  0  0  0  0  0  0  0  0
  -22.7410  -29.4710   22.5570 C   0  0  0  0  0  0  0  0  0  0  0  0
  -21.4150  -29.2990   22.4290 N   0  0  0  0  0  0  0  0  0  0  0  0
  -23.4200  -28.8360   23.3690 O   0  0  0  0  0  0  0  0  0  0  0  0
  -20.9280  -29.8640   21.7470 H   0  0  0  0  0  0  0  0  0  0  0  0
  -18.0330  -28.1240   22.9280 C   0  0  0  0  0  0  0  0  0  0  0  0
  -20.5940  -28.3610   23.1930 C   0  0  0  0  0  3  0  0  0  0  0  0
  -20.6830  -26.9350   22.6010 C   0  0  0  0  0  2  0  0  0  0  0  0
  -19.5750  -26.6310   21.5880 C   0  0  0  0  0  2  0  0  0  0  0  0
  -18.1960  -26.7800   22.2390 C   0  0  0  0  0  2  0  0  0  0  0  0
  -19.1590  -28.8720   23.3630 C   0  0  0  0  0  0  0  0  0  0  0  0
  -18.9530  -30.1300   23.9690 C   0  0  0  0  0  3  0  0  0  0  0  0
  -17.6530  -30.6410   24.1440 C   0  0  0  0  0  3  0  0  0  0  0  0
  -16.5410  -29.8900   23.7240 C   0  0  0  0  0  3  0  0  0  0  0  0
  -16.7320  -28.6320   23.1240 C   0  0  0  0  0  3  0  0  0  0  0  0
  -25.8800  -32.5170   23.8880 C   0  0  0  0  0  3  0  0  0  0  0  0
  -25.5730  -33.9160   24.2130 N   0  0  0  0  0  0  0  0  0  0  0  0
  -25.9120  -34.9660   23.4510 C   0  0  0  0  0  0  0  0  0  0  0  0
  -26.5860  -34.8570   22.4230 O   0  0  0  0  0  0  0  0  0  0  0  0
  -24.9770  -34.0760   25.0120 H   0  0  0  0  0  0  0  0  0  0  0  0
  -24.1860  -36.7590   23.0880 C   0  0  0  0  0  1  0  0  0  0  0  0
  -25.4260  -36.3570   23.9020 C   0  0  0  0  0  3  0  0  0  0  0  0
  -27.5620  -37.2420   24.7270 C   0  0  0  0  0  1  0  0  0  0  0  0
  -26.4610  -37.4080   23.7820 N   0  0  0  0  0  0  0  0  0  0  0  0
  -26.0560  -38.3300   23.9240 H   0  0  0  0  0  0  0  0  0  0  0  0
  -26.3860  -31.7450   25.1690 C   0  0  1  0  0  0  0  0  0  0  0  0
  -25.2860  -31.5130   26.2290 C   0  0  0  0  0  1  0  0  0  0  0  0
  -26.9660  -30.3650   24.7810 C   0  0  0  0  0  1  0  0  0  0  0  0
  -27.5330  -32.5370   25.8370 C   0  0  0  0  0  1  0  0  0  0  0  0
  2  1  1  0
  3  1  2  0
  3 50  1  0
  4  6  1  0
  4  2  2  0
  5  4  1  0
  6  3  1  0
  7  2  1  0
  7  8  1  0
  8 10  1  0
  9  7  2  0
 11  8  1  0
 11 12  1  0
 12 13  1  0
 14 13  1  0
 15 20  1  0
 16 17  1  0
 16 15  1  0
 18 17  1  0
 18 25  1  0
 18 19  1  0
 20 14  1  0
 20 19  1  0
 21 14  2  0
 22 23  2  0
 23 42  1  0
 24 23  1  0
 24 27  1  0
 25 22  1  0
 25 26  1  0
 26 24  2  0
 27 28  1  0
 28 29  2  0
 30 33  1  0
 30 29  1  0
 31 30  2  0
 32 31  1  0
 32 27  2  0
 33 34  1  0
 34 35  1  0
 35 36  2  0
 37 36  1  0
 37 41  1  0
 38 37  2  0
 39 34  2  0
 39 38  1  0
 40 39  1  0
 42 43  1  0
 43 46  1  0
 43 45  1  0
 44 42  2  0
 47 48  1  0
 47 22  1  0
 49 47  1  0
 51 53  1  0
 51 50  1  0
 52 63  2  0
 53 58  1  0
 54 62  1  0
 54 64  1  0
 55 61  1  0
 55 57  1  0
 56 62  1  0
 57 58  2  0
 57 56  1  0
 59 60  1  0
 59 53  2  0
 60 55  2  0
 61 54  1  0
 62 52  1  0
 64 66  2  0
 65 64  1  0
 67 65  1  0
 68 77  2  0
 68 73  1  0
 69 65  1  0
 69 73  1  0
 70 69  1  0
 71 72  1  0
 71 70  1  0
 72 68  1  0
 73 74  2  0
 74 75  1  0
 76 75  2  0
 77 76  1  0
 78 52  1  0
 78 79  1  0
 78 88  1  0
 79 82  1  0
 80 84  1  0
 80 79  1  0
 81 80  2  0
 84 83  1  0
 86 84  1  0
 86 87  1  0
 86 85  1  0
 88 91  1  1
 88 89  1  0
 90 88  1  0
M  ISO  4  13 100  14 100  50 101  51 101
M  END
>  <TORSDO>  (42) 
F 21

>  <SCORE>  (42) 
-13.482

>  <name>  (42) 
42

>  <ligand_id>  (42) 
42

>  <original_smiles>  (42) 
[H]c1c([H])c([H])c2c(c1[H])C([H])([H])C([H])([H])C([H])([H])C2([H])N([H])C(=O)C1([H])N(C(=O)C([H])(N([H])C(=O)C([H])(N([H])C([H])([H])[H])C([H])([H])[H])C(C([H])([H])[H])(C([H])([H])[H])C([H])([H])[H])C([H])([H])c2c([H])c(OC([H])([H])c3sc(C([H])([H])[H])c(C(=O)N([H])C([H])([H])C([H])([H])C([H])([H])C(=O)N4C([H])([H])C([H])([H])C([H])([H])C([H])(n5nc(-c6c([H])c([H])c(Oc7c([H])c([H])c(F)c([H])c7F)c([H])c6[H])c(C(=O)N([H])[H])c5N([H])[H])C4([H])[H])c3[H])c([H])c([H])c2C1([H])[H]

>  <smiles>  (42) 
[H]c1c([H])c([H])c2c(c1[H])C([H])([H])C([H])([H])C([H])([H])C2([H])N([H])C(=O)C1([H])N(C(=O)C([H])(N([H])C(=O)C([H])(N([H])C([H])([H])[H])C([H])([H])[H])C(C([H])([H])[H])(C([H])([H])[H])C([H])([H])[H])C([H])([H])c2c([H])c(OC([H])([H])c3sc(C([H])([H])[H])c(C(=O)N([H])C([H])([H])C([H])([H])C([H])([H])C(=O)N4C([H])([H])C([H])([H])C([H])([H])C([H])(n5nc(-c6c([H])c([H])c(Oc7c([H])c([H])c(F)c([H])c7F)c([H])c6[H])c(C(=O)N([H])[H])c5N([H])[H])C4([H])[H])c3[H])c([H])c([H])c2C1([H])[H]

$$$$
43:0:0
     RDKit          3D

100109  0  0  1  0  0  0  0  0999 V2000
  -26.1340  -22.0220   23.1610 C   0  0  0  0  0  3  0  0  0  0  0  0
  -27.4990  -22.0400   23.5070 C   0  0  0  0  0  3  0  0  0  0  0  0
  -25.7260  -22.4390   21.8800 C   0  0  0  0  0  3  0  0  0  0  0  0
  -28.0510  -22.8790   21.2880 C   0  0  0  0  0  3  0  0  0  0  0  0
  -28.4690  -22.4680   22.5740 C   0  0  0  0  0  0  0  0  0  0  0  0
  -26.6840  -22.8650   20.9390 C   0  0  0  0  0  0  0  0  0  0  0  0
  -29.9290  -22.5230   23.0140 C   0  0  0  0  0  2  0  0  0  0  0  0
  -31.0080  -22.6680   21.9130 C   0  0  0  0  0  2  0  0  0  0  0  0
  -31.8580  -20.2860   22.2340 C   0  0  0  0  0  3  0  0  0  0  0  0
  -31.8670  -21.2380   19.9920 C   0  0  0  0  0  3  0  0  0  0  0  0
  -32.4060  -19.0890   21.7330 C   0  0  0  0  0  3  0  0  0  0  0  0
  -32.4210  -20.0430   19.4930 C   0  0  0  0  0  3  0  0  0  0  0  0
  -31.5770  -21.3640   21.3680 C   0  0  0  0  0  0  0  0  0  0  0  0
  -32.6910  -18.9600   20.3560 C   0  0  0  0  0  0  0  0  0  0  0  0
  -33.3320  -17.7070   19.7750 C   0  0  0  0  0  2  0  0  0  0  0  0
  -33.1990  -15.2480   19.7950 C   0  0  0  0  0  0  0  0  0  0  0  0
  -33.0580  -12.8020   20.0660 C   0  0  0  0  0  2  0  0  0  0  0  0
  -32.2040  -12.1420   18.9680 C   0  0  0  0  0  2  0  0  0  0  0  0
  -30.7170  -12.1420   19.3680 C   0  0  0  0  0  2  0  0  0  0  0  0
  -30.2280  -13.5380   19.8310 C   0  0  0  0  0  3  0  0  0  0  0  0
  -31.1940  -14.1520   20.8680 C   0  0  0  0  0  2  0  0  0  0  0  0
  -32.5540  -14.1650   20.2970 N   0  0  0  0  0  0  0  0  0  0  0  0
  -34.2320  -15.1680   19.1210 O   0  0  0  0  0  0  0  0  0  0  0  0
  -32.6930  -16.4410   20.1310 N   0  0  0  0  0  0  0  0  0  0  0  0
  -31.8530  -16.4610   20.6870 H   0  0  0  0  0  0  0  0  0  0  0  0
  -28.0120  -14.5090   20.7180 C   0  0  0  0  0  0  0  0  0  0  0  0
  -26.8240  -13.9170   21.0500 C   0  0  0  0  0  0  0  0  0  0  0  0
  -27.0090  -12.5160   20.8430 C   0  0  0  0  0  0  0  0  0  0  0  0
  -28.8590  -13.4780   20.3390 N   0  0  0  0  0  0  0  0  0  0  0  0
  -28.2570  -12.2660   20.4690 N   0  0  0  0  0  0  0  0  0  0  0  0
  -26.0540  -11.4020   20.9220 C   0  0  0  0  0  0  0  0  0  0  0  0
  -26.2820  -10.2930   21.7670 C   0  0  0  0  0  3  0  0  0  0  0  0
  -25.3400   -9.2440   21.8420 C   0  0  0  0  0  3  0  0  0  0  0  0
  -24.1540   -9.2990   21.0710 C   0  0  0  0  0  0  0  0  0  0  0  0
  -23.9410  -10.3950   20.2170 C   0  0  0  0  0  3  0  0  0  0  0  0
  -24.8810  -11.4360   20.1390 C   0  0  0  0  0  3  0  0  0  0  0  0
  -23.1930   -8.3170   21.0630 O   0  0  0  0  0  0  0  0  0  0  0  0
  -22.8050   -7.6800   22.2140 C   0  0  0  0  0  0  0  0  0  0  0  0
  -22.2560   -8.3840   23.3070 C   0  0  0  0  0  3  0  0  0  0  0  0
  -21.8040   -7.6810   24.4410 C   0  0  0  0  0  3  0  0  0  0  0  0
  -21.8920   -6.2770   24.4840 C   0  0  0  0  0  0  0  0  0  0  0  0
  -22.4340   -5.5740   23.3930 C   0  0  0  0  0  3  0  0  0  0  0  0
  -22.8860   -6.2740   22.2610 C   0  0  0  0  0  0  0  0  0  0  0  0
  -23.3870   -5.5880   21.2040 F   0  0  0  0  0  0  0  0  0  0  0  0
  -21.4520   -5.6010   25.5700 F   0  0  0  0  0  0  0  0  0  0  0  0
  -25.5530  -14.6170   21.4430 C   0  0  0  0  0  0  0  0  0  0  0  0
  -24.7090  -13.9590   22.2290 N   0  0  0  0  0  0  0  0  0  0  0  0
  -25.3250  -15.7740   21.0910 O   0  0  0  0  0  0  0  0  0  0  0  0
  -24.9040  -13.0180   22.5370 H   0  0  0  0  0  0  0  0  0  0  0  0
  -23.8520  -14.4040   22.5280 H   0  0  0  0  0  0  0  0  0  0  0  0
  -28.4370  -15.8340   20.6870 N   0  0  0  0  0  0  0  0  0  0  0  0
  -27.8180  -16.6050   20.9140 H   0  0  0  0  0  0  0  0  0  0  0  0
  -29.3540  -16.1400   20.3900 H   0  0  0  0  0  0  0  0  0  0  0  0
  -26.2500  -23.3410   19.5620 C   0  0  0  0  0  2  0  0  0  0  0  0
  -27.0290  -24.5340   19.1870 N   0  0  0  0  0  4  0  0  0  0  0  0
  -28.0000  -24.3280   19.3510 H   0  0  0  0  0  0  0  0  0  0  0  0
  -26.7650  -25.2730   19.8190 H   0  0  0  0  0  0  0  0  0  0  0  0
  -26.8390  -24.9930   17.7900 C   0  0  0  0  0  2  0  0  0  0  0  0
  -27.8520  -26.0910   17.4130 C   0  0  0  0  0  2  0  0  0  0  0  0
  -27.2030  -27.2540   16.8910 O   0  0  0  0  0  0  0  0  0  0  0  0
  -26.4300  -29.5070   23.5840 C   0  0  0  0  0  0  0  0  0  0  0  0
  -26.3930  -27.8720   17.8100 C   0  0  0  0  0  0  0  0  0  0  0  0
  -24.3720  -29.4730   22.2090 C   0  0  0  0  0  3  0  0  0  0  0  0
  -24.7180  -29.1040   19.7100 C   0  0  0  0  0  0  0  0  0  0  0  0
  -26.6640  -29.7920   21.1220 C   0  0  0  0  0  2  0  0  0  0  0  0
  -26.1070  -29.1140   19.8910 C   0  0  0  0  0  0  0  0  0  0  0  0
  -26.9520  -28.5010   18.9420 C   0  0  0  0  0  3  0  0  0  0  0  0
  -24.9950  -27.8730   17.6330 C   0  0  0  0  0  3  0  0  0  0  0  0
  -24.1540  -28.4840   18.5820 C   0  0  0  0  0  3  0  0  0  0  0  0
  -23.8870  -29.7910   20.7680 C   0  0  0  0  0  2  0  0  0  0  0  0
  -25.8620  -29.5650   22.3460 N   0  0  0  0  0  0  0  0  0  0  0  0
  -25.7330  -29.4230   24.6050 O   0  0  0  0  0  0  0  0  0  0  0  0
  -23.8040  -28.0980   22.6310 C   0  0  0  0  0  0  0  0  0  0  0  0
  -22.5450  -27.8300   22.2510 N   0  0  0  0  0  0  0  0  0  0  0  0
  -24.4960  -27.2940   23.2620 O   0  0  0  0  0  0  0  0  0  0  0  0
  -22.0430  -28.5470   21.7440 H   0  0  0  0  0  0  0  0  0  0  0  0
  -19.8280  -25.7610   21.0720 C   0  0  0  0  0  0  0  0  0  0  0  0
  -21.8160  -26.5870   22.5020 C   0  0  0  0  0  3  0  0  0  0  0  0
  -22.5890  -25.3670   21.9490 C   0  0  0  0  0  2  0  0  0  0  0  0
  -22.1740  -24.9840   20.5250 C   0  0  0  0  0  2  0  0  0  0  0  0
  -20.6800  -24.6550   20.4710 C   0  0  0  0  0  2  0  0  0  0  0  0
  -20.3660  -26.6770   22.0130 C   0  0  0  0  0  0  0  0  0  0  0  0
  -19.5420  -27.7080   22.5140 C   0  0  0  0  0  3  0  0  0  0  0  0
  -18.2040  -27.8280   22.0950 C   0  0  0  0  0  3  0  0  0  0  0  0
  -17.6720  -26.9090   21.1730 C   0  0  0  0  0  3  0  0  0  0  0  0
  -18.4820  -25.8770   20.6670 C   0  0  0  0  0  3  0  0  0  0  0  0
  -27.9770  -29.5710   23.7780 C   0  0  0  0  0  3  0  0  0  0  0  0
  -28.2460  -30.5230   24.8650 N   0  0  0  0  0  0  0  0  0  0  0  0
  -28.7090  -31.7670   24.6880 C   0  0  0  0  0  0  0  0  0  0  0  0
  -29.0270  -32.2130   23.5810 O   0  0  0  0  0  0  0  0  0  0  0  0
  -27.9590  -30.2430   25.7910 H   0  0  0  0  0  0  0  0  0  0  0  0
  -27.6740  -33.6590   25.9820 C   0  0  0  0  0  1  0  0  0  0  0  0
  -28.8420  -32.6600   25.9360 C   0  0  0  0  0  3  0  0  0  0  0  0
  -31.2780  -32.5210   26.2150 C   0  0  0  0  0  1  0  0  0  0  0  0
  -30.1260  -33.3920   26.0020 N   0  0  0  0  0  0  0  0  0  0  0  0
  -30.1080  -34.0840   26.7480 H   0  0  0  0  0  0  0  0  0  0  0  0
  -28.6250  -28.1660   24.0910 C   0  0  1  0  0  0  0  0  0  0  0  0
  -27.9460  -27.4120   25.2580 C   0  0  0  0  0  1  0  0  0  0  0  0
  -28.5720  -27.2510   22.8440 C   0  0  0  0  0  1  0  0  0  0  0  0
  -30.1210  -28.3460   24.4420 C   0  0  0  0  0  1  0  0  0  0  0  0
  1  2  1  0
  3  1  2  0
  4  5  1  0
  5  7  1  0
  5  2  2  0
  6  4  2  0
  6  3  1  0
  8  7  1  0
 10 13  1  0
 11  9  1  0
 12 10  2  0
 12 14  1  0
 13  8  1  0
 13  9  2  0
 14 11  2  0
 15 24  1  0
 15 14  1  0
 16 24  1  0
 16 22  1  0
 17 22  1  0
 18 19  1  0
 18 17  1  0
 20 19  1  0
 20 29  1  0
 20 21  1  0
 22 21  1  0
 23 16  2  0
 24 25  1  0
 26 27  2  0
 27 46  1  0
 28 31  1  0
 28 27  1  0
 29 30  1  0
 29 26  1  0
 30 28  2  0
 31 32  1  0
 32 33  2  0
 34 33  1  0
 35 34  2  0
 36 35  1  0
 36 31  2  0
 37 34  1  0
 37 38  1  0
 38 43  2  0
 38 39  1  0
 39 40  2  0
 40 41  1  0
 41 45  1  0
 42 41  2  0
 43 42  1  0
 44 43  1  0
 46 47  1  0
 47 50  1  0
 47 49  1  0
 48 46  2  0
 51 26  1  0
 51 52  1  0
 53 51  1  0
 54  6  1  0
 55 56  1  0
 55 54  1  0
 55 57  1  0
 58 55  1  0
 59 58  1  0
 60 59  1  0
 60 62  1  0
 61 72  2  0
 62 67  1  0
 63 71  1  0
 63 73  1  0
 64 66  1  0
 64 70  1  0
 65 71  1  0
 66 65  1  0
 67 66  2  0
 68 62  2  0
 68 69  1  0
 69 64  2  0
 70 63  1  0
 71 61  1  0
 73 75  2  0
 74 73  1  0
 76 74  1  0
 77 82  1  0
 78 74  1  0
 79 78  1  0
 80 79  1  0
 81 80  1  0
 81 77  1  0
 82 78  1  0
 82 83  2  0
 84 83  1  0
 85 84  2  0
 86 77  2  0
 86 85  1  0
 87 61  1  0
 87 97  1  0
 87 88  1  0
 88 91  1  0
 89 88  1  0
 89 93  1  0
 90 89  2  0
 93 92  1  0
 93 95  1  0
 95 94  1  0
 95 96  1  0
 97100  1  1
 97 98  1  0
 99 97  1  0
M  ISO  4  16 100  24 100  59 101  60 101
M  END
>  <TORSDO>  (43) 
F 24

>  <SCORE>  (43) 
2.712

>  <name>  (43) 
43

>  <ligand_id>  (43) 
43

>  <original_smiles>  (43) 
[H]c1c([H])c([H])c2c(c1[H])C([H])([H])C([H])([H])C([H])([H])C2([H])N([H])C(=O)C1([H])N(C(=O)C([H])(N([H])C(=O)C([H])(N([H])C([H])([H])[H])C([H])([H])[H])C(C([H])([H])[H])(C([H])([H])[H])C([H])([H])[H])C([H])([H])c2c([H])c(OC([H])([H])C([H])([H])[N+]([H])([H])C([H])([H])c3c([H])c([H])c([H])c(C([H])([H])C([H])([H])c4c([H])c([H])c(C([H])([H])N([H])C(=O)N5C([H])([H])C([H])([H])C([H])([H])C([H])(n6nc(-c7c([H])c([H])c(Oc8c([H])c([H])c(F)c([H])c8F)c([H])c7[H])c(C(=O)N([H])[H])c6N([H])[H])C5([H])[H])c([H])c4[H])c3[H])c([H])c([H])c2C1([H])[H]

>  <smiles>  (43) 
[H]c1c([H])c([H])c2c(c1[H])C([H])([H])C([H])([H])C([H])([H])C2([H])N([H])C(=O)C1([H])N(C(=O)C([H])(N([H])C(=O)C([H])(N([H])C([H])([H])[H])C([H])([H])[H])C(C([H])([H])[H])(C([H])([H])[H])C([H])([H])[H])C([H])([H])c2c([H])c(OC([H])([H])C([H])([H])[N+]([H])([H])C([H])([H])c3c([H])c([H])c([H])c(C([H])([H])C([H])([H])c4c([H])c([H])c(C([H])([H])N([H])C(=O)N5C([H])([H])C([H])([H])C([H])([H])C([H])(n6nc(-c7c([H])c([H])c(Oc8c([H])c([H])c(F)c([H])c8F)c([H])c7[H])c(C(=O)N([H])[H])c6N([H])[H])C5([H])[H])c([H])c4[H])c3[H])c([H])c([H])c2C1([H])[H]

$$$$
44:0:0
     RDKit          3D

 94102  0  0  1  0  0  0  0  0999 V2000
  -31.2510  -22.3350   20.2620 C   0  0  0  0  0  3  0  0  0  0  0  0
  -30.3580  -23.4420   20.2290 C   0  0  0  0  0  3  0  0  0  0  0  0
  -30.8240  -20.9860   20.1510 C   0  0  0  0  0  3  0  0  0  0  0  0
  -28.5680  -21.8290   19.9660 C   0  0  0  0  0  3  0  0  0  0  0  0
  -28.9670  -23.2620   20.0680 C   0  0  0  0  0  0  0  0  0  0  0  0
  -29.4620  -20.6370   20.0110 C   0  0  0  0  0  0  0  0  0  0  0  0
  -27.9630  -24.5780   19.9770 C   0  0  0  0  0  2  0  0  0  0  0  0
  -28.3070  -26.1040   20.1360 O   0  0  0  0  0  0  0  0  0  0  0  0
  -24.6210  -31.8110   23.1340 C   0  0  0  0  0  0  0  0  0  0  0  0
  -27.2600  -27.1090   20.0870 C   0  0  0  0  0  0  0  0  0  0  0  0
  -23.4570  -30.4290   21.4670 C   0  0  0  0  0  3  0  0  0  0  0  0
  -24.9320  -28.8700   20.0520 C   0  0  0  0  0  0  0  0  0  0  0  0
  -26.0170  -30.6900   21.3530 C   0  0  0  0  0  2  0  0  0  0  0  0
  -26.1060  -29.3040   20.6820 C   0  0  0  0  0  0  0  0  0  0  0  0
  -27.2710  -28.4410   20.6790 C   0  0  0  0  0  3  0  0  0  0  0  0
  -26.0520  -26.7860   19.4300 C   0  0  0  0  0  3  0  0  0  0  0  0
  -24.9170  -27.6240   19.4170 C   0  0  0  0  0  3  0  0  0  0  0  0
  -23.7030  -29.7670   20.0880 C   0  0  0  0  0  2  0  0  0  0  0  0
  -24.7180  -30.9970   22.0390 N   0  0  0  0  0  0  0  0  0  0  0  0
  -23.5220  -32.0930   23.6430 O   0  0  0  0  0  0  0  0  0  0  0  0
  -22.7580  -29.4110   22.4050 C   0  0  0  0  0  0  0  0  0  0  0  0
  -21.4290  -29.2630   22.2710 N   0  0  0  0  0  0  0  0  0  0  0  0
  -23.4190  -28.7570   23.2160 O   0  0  0  0  0  0  0  0  0  0  0  0
  -20.9520  -29.8350   21.5890 H   0  0  0  0  0  0  0  0  0  0  0  0
  -18.0230  -28.1330   22.7850 C   0  0  0  0  0  0  0  0  0  0  0  0
  -20.5920  -28.3250   23.0270 C   0  0  0  0  0  3  0  0  0  0  0  0
  -20.6490  -26.9080   22.4110 C   0  0  0  0  0  2  0  0  0  0  0  0
  -19.5300  -26.6410   21.4010 C   0  0  0  0  0  2  0  0  0  0  0  0
  -18.1590  -26.8010   22.0630 C   0  0  0  0  0  2  0  0  0  0  0  0
  -19.1650  -28.8560   23.2210 C   0  0  0  0  0  0  0  0  0  0  0  0
  -18.9830  -30.1020   23.8560 C   0  0  0  0  0  3  0  0  0  0  0  0
  -17.6930  -30.6280   24.0560 C   0  0  0  0  0  3  0  0  0  0  0  0
  -16.5660  -29.9040   23.6330 C   0  0  0  0  0  3  0  0  0  0  0  0
  -16.7320  -28.6560   23.0050 C   0  0  0  0  0  3  0  0  0  0  0  0
  -25.8840  -32.4470   23.7920 C   0  0  0  0  0  3  0  0  0  0  0  0
  -26.3720  -31.6690   25.0750 C   0  0  1  0  0  0  0  0  0  0  0  0
  -25.2620  -31.4250   26.1250 C   0  0  0  0  0  1  0  0  0  0  0  0
  -26.9590  -30.2920   24.6910 C   0  0  0  0  0  1  0  0  0  0  0  0
  -27.5170  -32.4550   25.7620 C   0  0  0  0  0  1  0  0  0  0  0  0
  -25.5580  -33.8430   24.1340 N   0  0  0  0  0  0  0  0  0  0  0  0
  -25.9180  -34.9130   23.4110 C   0  0  0  0  0  0  0  0  0  0  0  0
  -26.6270  -34.8290   22.4050 O   0  0  0  0  0  0  0  0  0  0  0  0
  -24.9340  -33.9790   24.9150 H   0  0  0  0  0  0  0  0  0  0  0  0
  -24.2160  -36.7250   23.0100 C   0  0  0  0  0  1  0  0  0  0  0  0
  -25.4120  -36.2940   23.8760 C   0  0  0  0  0  3  0  0  0  0  0  0
  -27.5010  -37.1480   24.8400 C   0  0  0  0  0  1  0  0  0  0  0  0
  -26.4550  -37.3440   23.8400 N   0  0  0  0  0  0  0  0  0  0  0  0
  -26.0460  -38.2630   23.9890 H   0  0  0  0  0  0  0  0  0  0  0  0
  -29.0310  -19.0330   19.8930 C   0  0  0  0  0  3  0  0  0  0  0  0
  -29.6690  -16.3290   20.4550 C   0  0  0  0  0  3  0  0  0  0  0  0
  -29.9830  -17.6840   20.1200 C   0  0  0  0  0  3  0  0  0  0  0  0
  -30.5660  -15.0520   20.5870 C   0  0  0  0  0  0  0  0  0  0  0  0
  -30.5600  -12.6080   19.9220 C   0  0  0  0  0  2  0  0  0  0  0  0
  -29.7350  -12.4540   18.6230 C   0  0  0  0  0  2  0  0  0  0  0  0
  -28.2380  -12.2600   18.9470 C   0  0  0  0  0  2  0  0  0  0  0  0
  -27.7300  -13.2670   20.0140 C   0  0  0  0  0  3  0  0  0  0  0  0
  -28.6960  -13.4020   21.2060 C   0  0  0  0  0  2  0  0  0  0  0  0
  -30.0110  -13.7730   20.6710 N   0  0  0  0  0  0  0  0  0  0  0  0
  -31.7940  -15.0860   20.4550 O   0  0  0  0  0  0  0  0  0  0  0  0
  -25.3160  -13.8740   20.5980 C   0  0  0  0  0  0  0  0  0  0  0  0
  -24.2240  -13.1200   20.9220 C   0  0  0  0  0  0  0  0  0  0  0  0
  -24.6810  -11.7670   20.9700 C   0  0  0  0  0  0  0  0  0  0  0  0
  -26.3660  -12.9860   20.4470 N   0  0  0  0  0  0  0  0  0  0  0  0
  -25.9890  -11.7140   20.7380 N   0  0  0  0  0  0  0  0  0  0  0  0
  -23.9330  -10.5170   21.1550 C   0  0  0  0  0  0  0  0  0  0  0  0
  -24.3490   -9.5380   22.0880 C   0  0  0  0  0  3  0  0  0  0  0  0
  -23.6040   -8.3520   22.2630 C   0  0  0  0  0  3  0  0  0  0  0  0
  -22.4260   -8.1360   21.5050 C   0  0  0  0  0  0  0  0  0  0  0  0
  -22.0280   -9.1010   20.5640 C   0  0  0  0  0  3  0  0  0  0  0  0
  -22.7730  -10.2810   20.3870 C   0  0  0  0  0  3  0  0  0  0  0  0
  -21.6470   -7.0070   21.5920 O   0  0  0  0  0  0  0  0  0  0  0  0
  -21.6450   -6.2190   22.7150 C   0  0  0  0  0  0  0  0  0  0  0  0
  -21.2900   -6.7290   23.9830 C   0  0  0  0  0  3  0  0  0  0  0  0
  -21.2330   -5.8660   25.0980 C   0  0  0  0  0  3  0  0  0  0  0  0
  -21.5190   -4.4960   24.9430 C   0  0  0  0  0  0  0  0  0  0  0  0
  -21.8690   -3.9870   23.6800 C   0  0  0  0  0  3  0  0  0  0  0  0
  -21.9280   -4.8460   22.5700 C   0  0  0  0  0  0  0  0  0  0  0  0
  -22.2450   -4.3450   21.3520 F   0  0  0  0  0  0  0  0  0  0  0  0
  -21.4580   -3.6670   26.0110 F   0  0  0  0  0  0  0  0  0  0  0  0
  -22.8150  -13.6140   21.0780 C   0  0  0  0  0  0  0  0  0  0  0  0
  -22.0240  -12.9720   21.9310 N   0  0  0  0  0  0  0  0  0  0  0  0
  -22.4240  -14.6100   20.4740 O   0  0  0  0  0  0  0  0  0  0  0  0
  -22.3520  -12.1670   22.4430 H   0  0  0  0  0  0  0  0  0  0  0  0
  -21.0750  -13.2920   22.0680 H   0  0  0  0  0  0  0  0  0  0  0  0
  -25.4950  -15.2390   20.3910 N   0  0  0  0  0  0  0  0  0  0  0  0
  -24.7170  -15.8890   20.4380 H   0  0  0  0  0  0  0  0  0  0  0  0
  -26.3660  -15.6800   20.1240 H   0  0  0  0  0  0  0  0  0  0  0  0
  -28.1990  -18.8410   18.5860 C   0  0  0  0  0  2  0  0  0  0  0  0
  -28.8960  -19.1970   17.2420 C   0  0  0  0  0  2  0  0  0  0  0  0
  -28.1620  -18.6080   16.0050 C   0  0  0  0  0  2  0  0  0  0  0  0
  -28.6180  -19.1760   14.7190 N   0  0  0  0  0  4  0  0  0  0  0  0
  -28.3060  -20.1250   14.6110 H   0  0  0  0  0  0  0  0  0  0  0  0
  -28.2330  -18.6430   13.9590 H   0  0  0  0  0  0  0  0  0  0  0  0
  -29.6180  -19.1510   14.6340 H   0  0  0  0  0  0  0  0  0  0  0  0
  2  1  1  0
  3  1  2  0
  4  6  2  0
  4  5  1  0
  5  2  2  0
  6  3  1  0
  7  5  1  0
  7  8  1  0
  9 20  2  0
 10  8  1  0
 10 15  1  0
 11 19  1  0
 11 21  1  0
 12 18  1  0
 12 14  1  0
 13 19  1  0
 14 13  1  0
 15 14  2  0
 16 10  2  0
 17 16  1  0
 17 12  2  0
 18 11  1  0
 19  9  1  0
 21 23  2  0
 22 21  1  0
 24 22  1  0
 25 34  2  0
 25 30  1  0
 26 22  1  0
 26 30  1  0
 27 26  1  0
 28 29  1  0
 28 27  1  0
 29 25  1  0
 30 31  2  0
 31 32  1  0
 33 32  2  0
 34 33  1  0
 35  9  1  0
 35 40  1  0
 35 36  1  0
 36 39  1  1
 36 37  1  0
 38 36  1  0
 40 43  1  0
 41 45  1  0
 41 40  1  0
 42 41  2  0
 45 44  1  0
 47 45  1  0
 47 48  1  0
 47 46  1  0
 49 88  1  0
 49  6  1  0
 49 51  1  0
 50 52  1  0
 51 50  2  0
 52 58  1  0
 53 58  1  0
 54 55  1  0
 54 53  1  0
 56 55  1  0
 56 63  1  0
 56 57  1  0
 58 57  1  0
 59 52  2  0
 60 61  2  0
 61 62  1  0
 61 80  1  0
 62 65  1  0
 63 60  1  0
 63 64  1  0
 64 62  2  0
 65 66  1  0
 66 67  2  0
 68 71  1  0
 68 67  1  0
 69 68  2  0
 70 69  1  0
 70 65  2  0
 71 72  1  0
 72 73  1  0
 73 74  2  0
 75 74  1  0
 75 79  1  0
 76 75  2  0
 77 72  2  0
 77 76  1  0
 78 77  1  0
 80 81  1  0
 81 84  1  0
 81 83  1  0
 82 80  2  0
 85 86  1  0
 85 60  1  0
 87 85  1  0
 89 88  1  0
 90 89  1  0
 91 90  1  0
 92 91  1  0
 93 91  1  0
 94 91  1  0
M  ISO  4   7 101   8 101  50 100  52 100
M  END
>  <TORSDO>  (44) 
F 23

>  <SCORE>  (44) 
-12.781

>  <name>  (44) 
44

>  <ligand_id>  (44) 
44

>  <original_smiles>  (44) 
[H]C(C(=O)N1C([H])([H])C([H])([H])C([H])([H])C([H])(n2nc(-c3c([H])c([H])c(Oc4c([H])c([H])c(F)c([H])c4F)c([H])c3[H])c(C(=O)N([H])[H])c2N([H])[H])C1([H])[H])=C([H])C([H])(c1c([H])c([H])c([H])c(C([H])([H])Oc2c([H])c([H])c3c(c2[H])C([H])([H])N(C(=O)C([H])(N([H])C(=O)C([H])(N([H])C([H])([H])[H])C([H])([H])[H])C(C([H])([H])[H])(C([H])([H])[H])C([H])([H])[H])C([H])(C(=O)N([H])C2([H])c4c([H])c([H])c([H])c([H])c4C([H])([H])C([H])([H])C2([H])[H])C3([H])[H])c1[H])C([H])([H])C([H])([H])C([H])([H])[N+]([H])([H])[H]

>  <smiles>  (44) 
[H]C(C(=O)N1C([H])([H])C([H])([H])C([H])([H])C([H])(n2nc(-c3c([H])c([H])c(Oc4c([H])c([H])c(F)c([H])c4F)c([H])c3[H])c(C(=O)N([H])[H])c2N([H])[H])C1([H])[H])=C([H])C([H])(c1c([H])c([H])c([H])c(C([H])([H])Oc2c([H])c([H])c3c(c2[H])C([H])([H])N(C(=O)C([H])(N([H])C(=O)C([H])(N([H])C([H])([H])[H])C([H])([H])[H])C(C([H])([H])[H])(C([H])([H])[H])C([H])([H])[H])C([H])(C(=O)N([H])C2([H])c4c([H])c([H])c([H])c([H])c4C([H])([H])C([H])([H])C2([H])[H])C3([H])[H])c1[H])C([H])([H])C([H])([H])C([H])([H])[N+]([H])([H])[H]

$$$$
45:0:0
     RDKit          3D

 93102  0  0  1  0  0  0  0  0999 V2000
  -29.4410  -18.1790   17.7760 C   0  0  0  0  0  2  0  0  0  0  0  0
  -29.5460  -16.8790   18.5670 C   0  0  0  0  0  2  0  0  0  0  0  0
  -28.5150  -19.1720   18.4880 C   0  0  0  0  0  2  0  0  0  0  0  0
  -27.8970  -20.5450   20.4770 C   0  0  0  0  0  2  0  0  0  0  0  0
  -30.3410  -20.4960   19.6170 C   0  0  0  0  0  2  0  0  0  0  0  0
  -29.2870  -18.2930   20.7110 C   0  0  0  0  0  2  0  0  0  0  0  0
  -28.2190  -21.9740   21.0190 C   0  0  0  0  0  2  0  0  0  0  0  0
  -30.4620  -21.9200   20.2410 C   0  0  0  0  0  2  0  0  0  0  0  0
  -30.0470  -17.0790   20.0140 C   0  0  0  0  0  3  0  0  0  0  0  0
  -29.0450  -19.6390   19.8720 C   0  0  2  0  0  0  0  0  0  0  0  0
  -29.1990  -22.7070   20.1760 N   0  0  2  0  0  4  0  0  0  0  0  0
  -28.8800  -22.6590   19.2180 H   0  0  0  0  0  0  0  0  0  0  0  0
  -30.6980  -14.6560   20.4780 C   0  0  0  0  0  0  0  0  0  0  0  0
  -30.4690  -12.4250   19.4480 C   0  0  0  0  0  2  0  0  0  0  0  0
  -29.5410  -12.5740   18.2220 C   0  0  0  0  0  2  0  0  0  0  0  0
  -28.0620  -12.4320   18.6350 C   0  0  0  0  0  2  0  0  0  0  0  0
  -27.7000  -13.2930   19.8730 C   0  0  0  0  0  3  0  0  0  0  0  0
  -28.7470  -13.1390   21.0000 C   0  0  0  0  0  2  0  0  0  0  0  0
  -30.0660  -13.4470   20.4330 N   0  0  0  0  0  0  0  0  0  0  0  0
  -31.8620  -14.7950   20.0920 O   0  0  0  0  0  0  0  0  0  0  0  0
  -29.9000  -15.7450   20.6850 N   0  0  0  0  0  0  0  0  0  0  0  0
  -28.9820  -15.5310   21.0440 H   0  0  0  0  0  0  0  0  0  0  0  0
  -25.3040  -13.9000   20.5780 C   0  0  0  0  0  0  0  0  0  0  0  0
  -24.2300  -13.1320   20.9360 C   0  0  0  0  0  0  0  0  0  0  0  0
  -24.6860  -11.7780   20.8980 C   0  0  0  0  0  0  0  0  0  0  0  0
  -26.3450  -13.0170   20.3440 N   0  0  0  0  0  0  0  0  0  0  0  0
  -25.9770  -11.7330   20.5960 N   0  0  0  0  0  0  0  0  0  0  0  0
  -23.9520  -10.5180   21.0760 C   0  0  0  0  0  0  0  0  0  0  0  0
  -24.3660   -9.5470   22.0140 C   0  0  0  0  0  3  0  0  0  0  0  0
  -23.6330   -8.3510   22.1780 C   0  0  0  0  0  3  0  0  0  0  0  0
  -22.4690   -8.1200   21.4060 C   0  0  0  0  0  0  0  0  0  0  0  0
  -22.0740   -9.0790   20.4580 C   0  0  0  0  0  3  0  0  0  0  0  0
  -22.8080  -10.2670   20.2910 C   0  0  0  0  0  3  0  0  0  0  0  0
  -21.7110   -6.9780   21.4800 O   0  0  0  0  0  0  0  0  0  0  0  0
  -21.6270   -6.2420   22.6360 C   0  0  0  0  0  0  0  0  0  0  0  0
  -21.1430   -6.8000   23.8390 C   0  0  0  0  0  3  0  0  0  0  0  0
  -21.0070   -5.9910   24.9850 C   0  0  0  0  0  3  0  0  0  0  0  0
  -21.3450   -4.6250   24.9280 C   0  0  0  0  0  0  0  0  0  0  0  0
  -21.8220   -4.0680   23.7280 C   0  0  0  0  0  3  0  0  0  0  0  0
  -21.9600   -4.8750   22.5850 C   0  0  0  0  0  0  0  0  0  0  0  0
  -22.4000   -4.3270   21.4260 F   0  0  0  0  0  0  0  0  0  0  0  0
  -21.2070   -3.8460   26.0250 F   0  0  0  0  0  0  0  0  0  0  0  0
  -22.8350  -13.6150   21.2020 C   0  0  0  0  0  0  0  0  0  0  0  0
  -22.0960  -12.9140   22.0550 N   0  0  0  0  0  0  0  0  0  0  0  0
  -22.4090  -14.6510   20.6930 O   0  0  0  0  0  0  0  0  0  0  0  0
  -22.4530  -12.0760   22.4890 H   0  0  0  0  0  0  0  0  0  0  0  0
  -21.1610  -13.2220   22.2770 H   0  0  0  0  0  0  0  0  0  0  0  0
  -25.4780  -15.2710   20.4120 N   0  0  0  0  0  0  0  0  0  0  0  0
  -24.7090  -15.9250   20.5120 H   0  0  0  0  0  0  0  0  0  0  0  0
  -26.3260  -15.7060   20.0720 H   0  0  0  0  0  0  0  0  0  0  0  0
  -29.3780  -24.1850   20.4990 C   0  0  0  0  0  3  0  0  0  0  0  0
  -28.2210  -25.1520   20.0470 C   0  0  0  0  0  3  0  0  0  0  0  0
  -28.4150  -26.5930   20.2700 O   0  0  0  0  0  0  0  0  0  0  0  0
  -24.6410  -31.9070   23.2870 C   0  0  0  0  0  0  0  0  0  0  0  0
  -27.2860  -27.4140   20.2030 C   0  0  0  0  0  0  0  0  0  0  0  0
  -23.4520  -30.5260   21.6200 C   0  0  0  0  0  3  0  0  0  0  0  0
  -24.9150  -28.9990   20.1910 C   0  0  0  0  0  0  0  0  0  0  0  0
  -25.9890  -30.8580   21.4610 C   0  0  0  0  0  2  0  0  0  0  0  0
  -26.0760  -29.4900   20.8010 C   0  0  0  0  0  0  0  0  0  0  0  0
  -27.2650  -28.7090   20.7990 C   0  0  0  0  0  3  0  0  0  0  0  0
  -26.1020  -26.9730   19.5630 C   0  0  0  0  0  3  0  0  0  0  0  0
  -24.9280  -27.7460   19.5640 C   0  0  0  0  0  3  0  0  0  0  0  0
  -23.6790  -29.8690   20.2340 C   0  0  0  0  0  2  0  0  0  0  0  0
  -24.7120  -31.1130   22.1800 N   0  0  0  0  0  0  0  0  0  0  0  0
  -23.5530  -32.1780   23.8160 O   0  0  0  0  0  0  0  0  0  0  0  0
  -22.7840  -29.4960   22.5620 C   0  0  0  0  0  0  0  0  0  0  0  0
  -21.4630  -29.3040   22.4060 N   0  0  0  0  0  0  0  0  0  0  0  0
  -23.4520  -28.8750   23.3920 O   0  0  0  0  0  0  0  0  0  0  0  0
  -20.9830  -29.8570   21.7100 H   0  0  0  0  0  0  0  0  0  0  0  0
  -18.0910  -28.0630   22.8150 C   0  0  0  0  0  0  0  0  0  0  0  0
  -20.6370  -28.3580   23.1580 C   0  0  0  0  0  3  0  0  0  0  0  0
  -20.7750  -26.9250   22.5900 C   0  0  0  0  0  2  0  0  0  0  0  0
  -19.7060  -26.5840   21.5470 C   0  0  0  0  0  2  0  0  0  0  0  0
  -18.3050  -26.7130   22.1510 C   0  0  0  0  0  2  0  0  0  0  0  0
  -19.1860  -28.8410   23.2740 C   0  0  0  0  0  0  0  0  0  0  0  0
  -18.9330  -30.1030   23.8540 C   0  0  0  0  0  3  0  0  0  0  0  0
  -17.6170  -30.5860   23.9820 C   0  0  0  0  0  3  0  0  0  0  0  0
  -16.5360  -29.8050   23.5390 C   0  0  0  0  0  3  0  0  0  0  0  0
  -16.7730  -28.5450   22.9610 C   0  0  0  0  0  3  0  0  0  0  0  0
  -25.9190  -32.5310   23.9270 C   0  0  0  0  0  3  0  0  0  0  0  0
  -25.6190  -33.9350   24.2400 N   0  0  0  0  0  0  0  0  0  0  0  0
  -25.9540  -34.9760   23.4660 C   0  0  0  0  0  0  0  0  0  0  0  0
  -26.6210  -34.8560   22.4350 O   0  0  0  0  0  0  0  0  0  0  0  0
  -25.0330  -34.1040   25.0440 H   0  0  0  0  0  0  0  0  0  0  0  0
  -24.2320  -36.7700   23.0930 C   0  0  0  0  0  1  0  0  0  0  0  0
  -25.4740  -36.3730   23.9050 C   0  0  0  0  0  3  0  0  0  0  0  0
  -27.6130  -37.2640   24.7190 C   0  0  0  0  0  1  0  0  0  0  0  0
  -26.5110  -37.4200   23.7730 N   0  0  0  0  0  0  0  0  0  0  0  0
  -26.1090  -38.3440   23.9040 H   0  0  0  0  0  0  0  0  0  0  0  0
  -26.4060  -31.7650   25.2180 C   0  0  1  0  0  0  0  0  0  0  0  0
  -25.2920  -31.5420   26.2670 C   0  0  0  0  0  1  0  0  0  0  0  0
  -26.9840  -30.3790   24.8440 C   0  0  0  0  0  1  0  0  0  0  0  0
  -27.5510  -32.5540   25.8950 C   0  0  0  0  0  1  0  0  0  0  0  0
  1  3  1  0
  1  2  1  0
  2  9  1  0
  4  7  1  0
 10  5  1  6
  5  8  1  0
  9 21  1  0
  9  6  1  0
 10  3  1  0
 10  4  1  0
 10  6  1  0
 11  8  1  0
 11 51  1  0
 11  7  1  0
 11 12  1  6
 13 21  1  0
 14 19  1  0
 15 16  1  0
 15 14  1  0
 17 16  1  0
 17 26  1  0
 17 18  1  0
 19 13  1  0
 19 18  1  0
 20 13  2  0
 21 22  1  0
 23 24  2  0
 24 43  1  0
 25 24  1  0
 25 28  1  0
 26 23  1  0
 26 27  1  0
 27 25  2  0
 28 29  1  0
 29 30  2  0
 31 34  1  0
 31 30  1  0
 32 31  2  0
 33 32  1  0
 33 28  2  0
 34 35  1  0
 35 36  1  0
 36 37  2  0
 38 37  1  0
 38 42  1  0
 39 38  2  0
 40 35  2  0
 40 39  1  0
 41 40  1  0
 43 44  1  0
 44 47  1  0
 44 46  1  0
 45 43  2  0
 48 49  1  0
 48 23  1  0
 50 48  1  0
 52 53  1  0
 52 51  2  0
 54 65  2  0
 55 53  1  0
 55 60  1  0
 56 64  1  0
 56 66  1  0
 57 63  1  0
 57 59  1  0
 58 64  1  0
 59 58  1  0
 60 59  2  0
 61 62  1  0
 61 55  2  0
 62 57  2  0
 63 56  1  0
 64 54  1  0
 66 68  2  0
 67 66  1  0
 69 67  1  0
 70 79  2  0
 70 75  1  0
 71 67  1  0
 71 75  1  0
 72 71  1  0
 73 74  1  0
 73 72  1  0
 74 70  1  0
 75 76  2  0
 76 77  1  0
 78 77  2  0
 79 78  1  0
 80 54  1  0
 80 81  1  0
 80 90  1  0
 81 84  1  0
 82 86  1  0
 82 81  1  0
 83 82  2  0
 86 85  1  0
 88 89  1  0
 88 86  1  0
 88 87  1  0
 90 93  1  1
 90 91  1  0
 92 90  1  0
M  ISO  4  13 100  21 100  52 101  53 101
M  END
>  <TORSDO>  (45) 
F 18

>  <SCORE>  (45) 
-14.489

>  <name>  (45) 
45

>  <ligand_id>  (45) 
45

>  <original_smiles>  (45) 
[H]c1c([H])c([H])c2c(c1[H])C([H])([H])C([H])([H])C([H])([H])C2([H])N([H])C(=O)C1([H])N(C(=O)C([H])(N([H])C(=O)C([H])(N([H])C([H])([H])[H])C([H])([H])[H])C(C([H])([H])[H])(C([H])([H])[H])C([H])([H])[H])C([H])([H])c2c([H])c(OC([H])([H])C([H])([H])[N+]3([H])C([H])([H])C([H])([H])C4(C([H])([H])C([H])([H])C([H])([H])C([H])(N([H])C(=O)N5C([H])([H])C([H])([H])C([H])([H])C([H])(n6nc(-c7c([H])c([H])c(Oc8c([H])c([H])c(F)c([H])c8F)c([H])c7[H])c(C(=O)N([H])[H])c6N([H])[H])C5([H])[H])C4([H])[H])C([H])([H])C3([H])[H])c([H])c([H])c2C1([H])[H]

>  <smiles>  (45) 
[H]c1c([H])c([H])c2c(c1[H])C([H])([H])C([H])([H])C([H])([H])C2([H])N([H])C(=O)C1([H])N(C(=O)C([H])(N([H])C(=O)C([H])(N([H])C([H])([H])[H])C([H])([H])[H])C(C([H])([H])[H])(C([H])([H])[H])C([H])([H])[H])C([H])([H])c2c([H])c(OC([H])([H])C([H])([H])[N+]3([H])C([H])([H])C([H])([H])C4(C([H])([H])C([H])([H])C([H])([H])C([H])(N([H])C(=O)N5C([H])([H])C([H])([H])C([H])([H])C([H])(n6nc(-c7c([H])c([H])c(Oc8c([H])c([H])c(F)c([H])c8F)c([H])c7[H])c(C(=O)N([H])[H])c6N([H])[H])C5([H])[H])C4([H])[H])C([H])([H])C3([H])[H])c([H])c([H])c2C1([H])[H]

$$$$
46:0:0
     RDKit          3D

 93101  0  0  1  0  0  0  0  0999 V2000
  -28.2330  -21.8260   20.9130 C   0  0  0  0  0  2  0  0  0  0  0  0
  -27.5350  -18.8290   18.5930 C   0  0  0  0  0  3  0  0  0  0  0  0
  -28.2090  -17.7620   19.2170 C   0  0  0  0  0  3  0  0  0  0  0  0
  -27.5840  -20.1300   19.1330 C   0  0  0  0  0  3  0  0  0  0  0  0
  -29.0130  -19.3030   20.9240 C   0  0  0  0  0  3  0  0  0  0  0  0
  -28.9600  -17.9720   20.3970 C   0  0  0  0  0  0  0  0  0  0  0  0
  -28.3180  -20.3960   20.3060 C   0  0  0  0  0  0  0  0  0  0  0  0
  -29.6790  -16.7550   21.0700 C   0  0  0  0  0  2  0  0  0  0  0  0
  -31.1600  -14.7110   20.6510 C   0  0  0  0  0  0  0  0  0  0  0  0
  -30.8480  -12.4730   19.6450 C   0  0  0  0  0  2  0  0  0  0  0  0
  -29.9920  -12.5790   18.3720 C   0  0  0  0  0  2  0  0  0  0  0  0
  -28.5050  -12.4650   18.7450 C   0  0  0  0  0  2  0  0  0  0  0  0
  -28.0970  -13.4090   19.9110 C   0  0  0  0  0  3  0  0  0  0  0  0
  -29.0890  -13.3010   21.0860 C   0  0  0  0  0  2  0  0  0  0  0  0
  -30.4180  -13.5690   20.5320 N   0  0  0  0  0  0  0  0  0  0  0  0
  -32.3900  -14.6200   20.5910 O   0  0  0  0  0  0  0  0  0  0  0  0
  -30.5900  -15.9020   20.2300 N   0  0  0  0  0  0  0  0  0  0  0  0
  -25.6890  -14.0860   20.4890 C   0  0  0  0  0  0  0  0  0  0  0  0
  -24.5840  -13.3470   20.8170 C   0  0  0  0  0  0  0  0  0  0  0  0
  -25.0130  -11.9850   20.8470 C   0  0  0  0  0  0  0  0  0  0  0  0
  -26.7200  -13.1740   20.3370 N   0  0  0  0  0  0  0  0  0  0  0  0
  -26.3170  -11.9080   20.6160 N   0  0  0  0  0  0  0  0  0  0  0  0
  -24.2460  -10.7480   21.0270 C   0  0  0  0  0  0  0  0  0  0  0  0
  -24.6080   -9.7880   21.9970 C   0  0  0  0  0  3  0  0  0  0  0  0
  -23.8410   -8.6140   22.1630 C   0  0  0  0  0  3  0  0  0  0  0  0
  -22.7000   -8.3910   21.3540 C   0  0  0  0  0  0  0  0  0  0  0  0
  -22.3610   -9.3400   20.3720 C   0  0  0  0  0  3  0  0  0  0  0  0
  -23.1290  -10.5040   20.2050 C   0  0  0  0  0  3  0  0  0  0  0  0
  -21.9130   -7.2670   21.4250 O   0  0  0  0  0  0  0  0  0  0  0  0
  -21.7800   -6.5550   22.5900 C   0  0  0  0  0  0  0  0  0  0  0  0
  -21.2900   -7.1430   23.7770 C   0  0  0  0  0  3  0  0  0  0  0  0
  -21.1080   -6.3570   24.9300 C   0  0  0  0  0  3  0  0  0  0  0  0
  -21.4020   -4.9790   24.8990 C   0  0  0  0  0  0  0  0  0  0  0  0
  -21.8830   -4.3890   23.7170 C   0  0  0  0  0  3  0  0  0  0  0  0
  -22.0710   -5.1760   22.5650 C   0  0  0  0  0  0  0  0  0  0  0  0
  -22.5160   -4.5970   21.4240 F   0  0  0  0  0  0  0  0  0  0  0  0
  -21.2190   -4.2190   26.0040 F   0  0  0  0  0  0  0  0  0  0  0  0
  -23.1890  -13.8680   20.9910 C   0  0  0  0  0  0  0  0  0  0  0  0
  -22.3960  -13.2170   21.8370 N   0  0  0  0  0  0  0  0  0  0  0  0
  -22.8070  -14.8850   20.4160 O   0  0  0  0  0  0  0  0  0  0  0  0
  -22.7160  -12.3950   22.3280 H   0  0  0  0  0  0  0  0  0  0  0  0
  -21.4560  -13.5500   21.9960 H   0  0  0  0  0  0  0  0  0  0  0  0
  -25.8940  -15.4440   20.2880 N   0  0  0  0  0  0  0  0  0  0  0  0
  -25.1230  -16.1020   20.3250 H   0  0  0  0  0  0  0  0  0  0  0  0
  -26.7700  -15.8730   20.0210 H   0  0  0  0  0  0  0  0  0  0  0  0
  -31.6010  -16.0750   17.9170 C   0  0  0  0  0  1  0  0  0  0  0  0
  -31.4140  -16.7250   19.2980 C   0  0  0  0  0  2  0  0  0  0  0  0
  -28.8570  -22.9060   20.0900 N   0  0  0  0  0  4  0  0  0  0  0  0
  -29.0880  -22.4770   19.2100 H   0  0  0  0  0  0  0  0  0  0  0  0
  -29.7310  -23.1550   20.5230 H   0  0  0  0  0  0  0  0  0  0  0  0
  -28.0810  -24.1660   19.7850 C   0  0  0  0  0  2  0  0  0  0  0  0
  -28.3780  -25.3830   20.7220 C   0  0  0  0  0  2  0  0  0  0  0  0
  -28.3830  -26.7140   20.1310 O   0  0  0  0  0  0  0  0  0  0  0  0
  -24.5650  -31.9230   23.2540 C   0  0  0  0  0  0  0  0  0  0  0  0
  -27.2160  -27.4580   20.1660 C   0  0  0  0  0  0  0  0  0  0  0  0
  -23.3690  -30.5210   21.6070 C   0  0  0  0  0  3  0  0  0  0  0  0
  -24.8280  -28.9900   20.1790 C   0  0  0  0  0  0  0  0  0  0  0  0
  -25.9000  -30.8810   21.4140 C   0  0  0  0  0  2  0  0  0  0  0  0
  -25.9900  -29.5080   20.7660 C   0  0  0  0  0  0  0  0  0  0  0  0
  -27.1920  -28.7550   20.7440 C   0  0  0  0  0  3  0  0  0  0  0  0
  -26.0370  -26.9620   19.5730 C   0  0  0  0  0  3  0  0  0  0  0  0
  -24.8480  -27.7190   19.5790 C   0  0  0  0  0  3  0  0  0  0  0  0
  -23.5840  -29.8500   20.2250 C   0  0  0  0  0  2  0  0  0  0  0  0
  -24.6290  -31.1230   22.1510 N   0  0  0  0  0  0  0  0  0  0  0  0
  -23.4800  -32.1870   23.7930 O   0  0  0  0  0  0  0  0  0  0  0  0
  -22.7210  -29.4940   22.5620 C   0  0  0  0  0  0  0  0  0  0  0  0
  -21.3970  -29.3070   22.4360 N   0  0  0  0  0  0  0  0  0  0  0  0
  -23.4060  -28.8650   23.3740 O   0  0  0  0  0  0  0  0  0  0  0  0
  -20.9060  -29.8620   21.7500 H   0  0  0  0  0  0  0  0  0  0  0  0
  -18.0230  -28.1050   22.9350 C   0  0  0  0  0  0  0  0  0  0  0  0
  -20.5830  -28.3630   23.2000 C   0  0  0  0  0  3  0  0  0  0  0  0
  -20.6840  -26.9370   22.6110 C   0  0  0  0  0  2  0  0  0  0  0  0
  -19.5790  -26.6220   21.5980 C   0  0  0  0  0  2  0  0  0  0  0  0
  -18.2000  -26.7610   22.2470 C   0  0  0  0  0  2  0  0  0  0  0  0
  -19.1430  -28.8630   23.3680 C   0  0  0  0  0  0  0  0  0  0  0  0
  -18.9250  -30.1230   23.9700 C   0  0  0  0  0  3  0  0  0  0  0  0
  -17.6220  -30.6220   24.1430 C   0  0  0  0  0  3  0  0  0  0  0  0
  -16.5160  -29.8590   23.7270 C   0  0  0  0  0  3  0  0  0  0  0  0
  -16.7180  -28.6020   23.1290 C   0  0  0  0  0  3  0  0  0  0  0  0
  -25.8450  -32.5590   23.8790 C   0  0  0  0  0  3  0  0  0  0  0  0
  -25.5380  -33.9610   24.1890 N   0  0  0  0  0  0  0  0  0  0  0  0
  -25.8890  -35.0040   23.4250 C   0  0  0  0  0  0  0  0  0  0  0  0
  -26.5800  -34.8860   22.4080 O   0  0  0  0  0  0  0  0  0  0  0  0
  -24.9320  -34.1270   24.9800 H   0  0  0  0  0  0  0  0  0  0  0  0
  -24.1860  -36.8040   23.0050 C   0  0  0  0  0  1  0  0  0  0  0  0
  -25.3990  -36.3980   23.8590 C   0  0  0  0  0  3  0  0  0  0  0  0
  -27.5100  -37.2720   24.7510 C   0  0  0  0  0  1  0  0  0  0  0  0
  -26.4410  -37.4450   23.7720 N   0  0  0  0  0  0  0  0  0  0  0  0
  -26.0370  -38.3680   23.9040 H   0  0  0  0  0  0  0  0  0  0  0  0
  -26.3490  -31.8020   25.1690 C   0  0  1  0  0  0  0  0  0  0  0  0
  -25.2460  -31.5760   26.2290 C   0  0  0  0  0  1  0  0  0  0  0  0
  -26.9350  -30.4210   24.7970 C   0  0  0  0  0  1  0  0  0  0  0  0
  -27.4980  -32.6020   25.8290 C   0  0  0  0  0  1  0  0  0  0  0  0
  2  4  2  0
  2  3  1  0
  3  6  2  0
  4  7  1  0
  6  5  1  0
  6  8  1  0
  7  1  1  0
  7  5  2  0
 10 15  1  0
 11 12  1  0
 11 10  1  0
 13 12  1  0
 13 21  1  0
 13 14  1  0
 15  9  1  0
 15 14  1  0
 16  9  2  0
 17  9  1  0
 17  8  1  0
 18 19  2  0
 19 20  1  0
 19 38  1  0
 20 23  1  0
 21 18  1  0
 21 22  1  0
 22 20  2  0
 23 24  1  0
 24 25  2  0
 26 29  1  0
 26 25  1  0
 27 26  2  0
 28 27  1  0
 28 23  2  0
 29 30  1  0
 30 31  1  0
 31 32  2  0
 33 32  1  0
 33 37  1  0
 34 33  2  0
 35 30  2  0
 35 34  1  0
 36 35  1  0
 38 39  1  0
 39 42  1  0
 39 41  1  0
 40 38  2  0
 43 44  1  0
 43 18  1  0
 45 43  1  0
 46 47  1  0
 47 17  1  0
 48 50  1  0
 48  1  1  0
 49 48  1  0
 51 48  1  0
 51 52  1  0
 53 55  1  0
 53 52  1  0
 54 65  2  0
 55 60  1  0
 56 64  1  0
 56 66  1  0
 57 63  1  0
 57 59  1  0
 58 64  1  0
 59 58  1  0
 60 59  2  0
 61 62  1  0
 61 55  2  0
 62 57  2  0
 63 56  1  0
 64 54  1  0
 66 68  2  0
 67 66  1  0
 69 67  1  0
 70 79  2  0
 70 75  1  0
 71 67  1  0
 71 75  1  0
 72 71  1  0
 73 74  1  0
 73 72  1  0
 74 70  1  0
 75 76  2  0
 76 77  1  0
 78 77  2  0
 79 78  1  0
 80 54  1  0
 80 81  1  0
 80 90  1  0
 81 84  1  0
 82 86  1  0
 82 81  1  0
 83 82  2  0
 86 85  1  0
 88 86  1  0
 88 89  1  0
 88 87  1  0
 90 93  1  1
 90 91  1  0
 92 90  1  0
M  ISO  4   9 100  17 100  52 101  53 101
M  END
>  <TORSDO>  (46) 
F 22

>  <SCORE>  (46) 
-13.022

>  <name>  (46) 
46

>  <ligand_id>  (46) 
46

>  <original_smiles>  (46) 
[H]c1c([H])c([H])c2c(c1[H])C([H])([H])C([H])([H])C([H])([H])C2([H])N([H])C(=O)C1([H])N(C(=O)C([H])(N([H])C(=O)C([H])(N([H])C([H])([H])[H])C([H])([H])[H])C(C([H])([H])[H])(C([H])([H])[H])C([H])([H])[H])C([H])([H])c2c([H])c(OC([H])([H])C([H])([H])[N+]([H])([H])C([H])([H])c3c([H])c([H])c([H])c(C([H])([H])N(C(=O)N4C([H])([H])C([H])([H])C([H])([H])C([H])(n5nc(-c6c([H])c([H])c(Oc7c([H])c([H])c(F)c([H])c7F)c([H])c6[H])c(C(=O)N([H])[H])c5N([H])[H])C4([H])[H])C([H])([H])C([H])([H])[H])c3[H])c([H])c([H])c2C1([H])[H]

>  <smiles>  (46) 
[H]c1c([H])c([H])c2c(c1[H])C([H])([H])C([H])([H])C([H])([H])C2([H])N([H])C(=O)C1([H])N(C(=O)C([H])(N([H])C(=O)C([H])(N([H])C([H])([H])[H])C([H])([H])[H])C(C([H])([H])[H])(C([H])([H])[H])C([H])([H])[H])C([H])([H])c2c([H])c(OC([H])([H])C([H])([H])[N+]([H])([H])C([H])([H])c3c([H])c([H])c([H])c(C([H])([H])N(C(=O)N4C([H])([H])C([H])([H])C([H])([H])C([H])(n5nc(-c6c([H])c([H])c(Oc7c([H])c([H])c(F)c([H])c7F)c([H])c6[H])c(C(=O)N([H])[H])c5N([H])[H])C4([H])[H])C([H])([H])C([H])([H])[H])c3[H])c([H])c([H])c2C1([H])[H]

$$$$
47:0:0
     RDKit          3D

 94102  0  0  1  0  0  0  0  0999 V2000
  -26.8610  -21.6420   21.2180 C   0  0  0  0  0  2  0  0  0  0  0  0
  -27.8460  -20.5060   20.9290 C   0  0  0  0  0  2  0  0  0  0  0  0
  -27.5960  -22.9440   20.8730 C   0  0  0  0  0  2  0  0  0  0  0  0
  -29.0660  -21.1610   20.2530 C   0  0  0  0  0  3  0  0  0  0  0  0
  -29.1060  -22.6260   20.8430 C   0  0  2  0  0  0  0  0  0  0  0  0
  -29.6540  -22.6690   22.2860 C   0  0  0  0  0  1  0  0  0  0  0  0
  -30.3220  -20.2330   20.2400 C   0  0  0  0  0  0  0  0  0  0  0  0
  -30.1030  -18.8990   20.3580 N   0  0  0  0  0  0  0  0  0  0  0  0
  -31.4450  -20.6980   20.0420 O   0  0  0  0  0  0  0  0  0  0  0  0
  -29.1450  -18.6440   20.5590 H   0  0  0  0  0  0  0  0  0  0  0  0
  -30.8800  -17.6010   18.4480 C   0  0  0  0  0  1  0  0  0  0  0  0
  -31.0080  -17.7870   19.9770 C   0  0  0  0  0  3  0  0  0  0  0  0
  -30.7100  -16.4640   20.7820 C   0  0  0  0  0  2  0  0  0  0  0  0
  -31.4770  -15.1750   20.3290 C   0  0  0  0  0  0  0  0  0  0  0  0
  -31.2320  -12.9530   19.2670 C   0  0  0  0  0  2  0  0  0  0  0  0
  -30.3140  -13.1040   18.0350 C   0  0  0  0  0  2  0  0  0  0  0  0
  -28.8280  -12.9780   18.4360 C   0  0  0  0  0  2  0  0  0  0  0  0
  -28.4620  -13.8650   19.6560 C   0  0  0  0  0  3  0  0  0  0  0  0
  -29.4950  -13.6980   20.7930 C   0  0  0  0  0  2  0  0  0  0  0  0
  -30.8270  -13.9770   20.2440 N   0  0  0  0  0  0  0  0  0  0  0  0
  -32.6370  -15.2990   19.9290 O   0  0  0  0  0  0  0  0  0  0  0  0
  -26.0790  -14.5210   20.3700 C   0  0  0  0  0  0  0  0  0  0  0  0
  -24.9870  -13.7700   20.7140 C   0  0  0  0  0  0  0  0  0  0  0  0
  -25.4100  -12.4080   20.6480 C   0  0  0  0  0  0  0  0  0  0  0  0
  -27.0990  -13.6160   20.1200 N   0  0  0  0  0  0  0  0  0  0  0  0
  -26.6990  -12.3380   20.3440 N   0  0  0  0  0  0  0  0  0  0  0  0
  -24.6470  -11.1630   20.7990 C   0  0  0  0  0  0  0  0  0  0  0  0
  -24.9800  -10.2080   21.7840 C   0  0  0  0  0  3  0  0  0  0  0  0
  -24.2210   -9.0250   21.9190 C   0  0  0  0  0  3  0  0  0  0  0  0
  -23.1150   -8.7900   21.0690 C   0  0  0  0  0  0  0  0  0  0  0  0
  -22.8030   -9.7330   20.0740 C   0  0  0  0  0  3  0  0  0  0  0  0
  -23.5620  -10.9070   19.9370 C   0  0  0  0  0  3  0  0  0  0  0  0
  -22.3360   -7.6590   21.1120 O   0  0  0  0  0  0  0  0  0  0  0  0
  -22.0690   -7.0130   22.2930 C   0  0  0  0  0  0  0  0  0  0  0  0
  -21.4140   -7.6580   23.3650 C   0  0  0  0  0  3  0  0  0  0  0  0
  -21.0980   -6.9360   24.5340 C   0  0  0  0  0  3  0  0  0  0  0  0
  -21.4270   -5.5700   24.6290 C   0  0  0  0  0  0  0  0  0  0  0  0
  -22.0750   -4.9250   23.5600 C   0  0  0  0  0  3  0  0  0  0  0  0
  -22.3920   -5.6440   22.3940 C   0  0  0  0  0  0  0  0  0  0  0  0
  -22.9960   -5.0130   21.3600 F   0  0  0  0  0  0  0  0  0  0  0  0
  -21.1170   -4.8740   25.7470 F   0  0  0  0  0  0  0  0  0  0  0  0
  -23.6030  -14.2810   20.9930 C   0  0  0  0  0  0  0  0  0  0  0  0
  -22.8500  -13.5880   21.8420 N   0  0  0  0  0  0  0  0  0  0  0  0
  -23.1970  -15.3290   20.4930 O   0  0  0  0  0  0  0  0  0  0  0  0
  -23.1860  -12.7370   22.2710 H   0  0  0  0  0  0  0  0  0  0  0  0
  -21.9210  -13.9130   22.0670 H   0  0  0  0  0  0  0  0  0  0  0  0
  -26.2810  -15.8910   20.2280 N   0  0  0  0  0  0  0  0  0  0  0  0
  -25.5270  -16.5560   20.3530 H   0  0  0  0  0  0  0  0  0  0  0  0
  -27.1380  -16.3200   19.9020 H   0  0  0  0  0  0  0  0  0  0  0  0
  -29.9230  -23.6260   19.9950 C   0  0  0  0  0  3  0  0  0  0  0  0
  -29.7970  -24.9730   19.8240 C   0  0  0  0  0  0  0  0  0  0  0  0
  -30.7750  -25.7150   18.9270 C   0  0  0  0  0  1  0  0  0  0  0  0
  -28.7470  -25.8820   20.4790 C   0  0  0  0  0  2  0  0  0  0  0  0
  -28.8300  -27.2710   20.0720 O   0  0  0  0  0  0  0  0  0  0  0  0
  -24.7410  -32.0260   23.4660 C   0  0  0  0  0  0  0  0  0  0  0  0
  -27.6430  -27.9800   20.0880 C   0  0  0  0  0  0  0  0  0  0  0  0
  -23.6390  -30.7350   21.6690 C   0  0  0  0  0  3  0  0  0  0  0  0
  -25.1920  -29.4000   20.1510 C   0  0  0  0  0  0  0  0  0  0  0  0
  -26.1510  -31.2120   21.5780 C   0  0  0  0  0  2  0  0  0  0  0  0
  -26.3140  -29.9090   20.8200 C   0  0  0  0  0  0  0  0  0  0  0  0
  -27.5440  -29.2090   20.7840 C   0  0  0  0  0  3  0  0  0  0  0  0
  -26.5100  -27.5020   19.3940 C   0  0  0  0  0  3  0  0  0  0  0  0
  -25.2870  -28.1970   19.4330 C   0  0  0  0  0  3  0  0  0  0  0  0
  -23.9120  -30.1990   20.2400 C   0  0  0  0  0  2  0  0  0  0  0  0
  -24.8610  -31.3330   22.2990 N   0  0  0  0  0  0  0  0  0  0  0  0
  -23.6350  -32.2030   23.9960 O   0  0  0  0  0  0  0  0  0  0  0  0
  -23.0090  -29.6030   22.5120 C   0  0  0  0  0  0  0  0  0  0  0  0
  -21.7020  -29.3650   22.3150 N   0  0  0  0  0  0  0  0  0  0  0  0
  -23.6940  -28.9450   23.3000 O   0  0  0  0  0  0  0  0  0  0  0  0
  -21.2080  -29.9490   21.6530 H   0  0  0  0  0  0  0  0  0  0  0  0
  -18.3800  -27.9710   22.5770 C   0  0  0  0  0  0  0  0  0  0  0  0
  -20.9080  -28.3270   22.9720 C   0  0  0  0  0  3  0  0  0  0  0  0
  -21.1070  -26.9580   22.2810 C   0  0  0  0  0  2  0  0  0  0  0  0
  -20.0590  -26.6720   21.2000 C   0  0  0  0  0  2  0  0  0  0  0  0
  -18.6490  -26.6960   21.7970 C   0  0  0  0  0  2  0  0  0  0  0  0
  -19.4410  -28.7450   23.1160 C   0  0  0  0  0  0  0  0  0  0  0  0
  -19.1360  -29.9410   23.8020 C   0  0  0  0  0  3  0  0  0  0  0  0
  -17.8020  -30.3620   23.9580 C   0  0  0  0  0  3  0  0  0  0  0  0
  -16.7550  -29.5830   23.4370 C   0  0  0  0  0  3  0  0  0  0  0  0
  -17.0430  -28.3900   22.7500 C   0  0  0  0  0  3  0  0  0  0  0  0
  -25.9820  -32.6500   24.1790 C   0  0  0  0  0  3  0  0  0  0  0  0
  -25.6430  -34.0370   24.5220 N   0  0  0  0  0  0  0  0  0  0  0  0
  -26.0090  -35.1080   23.8050 C   0  0  0  0  0  0  0  0  0  0  0  0
  -26.7370  -35.0330   22.8110 O   0  0  0  0  0  0  0  0  0  0  0  0
  -25.0020  -34.1690   25.2910 H   0  0  0  0  0  0  0  0  0  0  0  0
  -24.2830  -36.8910   23.3950 C   0  0  0  0  0  1  0  0  0  0  0  0
  -25.4830  -36.4830   24.2630 C   0  0  0  0  0  3  0  0  0  0  0  0
  -27.5590  -37.3760   25.2250 C   0  0  0  0  0  1  0  0  0  0  0  0
  -26.5100  -37.5470   24.2240 N   0  0  0  0  0  0  0  0  0  0  0  0
  -26.0870  -38.4610   24.3600 H   0  0  0  0  0  0  0  0  0  0  0  0
  -26.4290  -31.8490   25.4630 C   0  0  1  0  0  0  0  0  0  0  0  0
  -25.2760  -31.5640   26.4540 C   0  0  0  0  0  1  0  0  0  0  0  0
  -27.0570  -30.4930   25.0690 C   0  0  0  0  0  1  0  0  0  0  0  0
  -27.5230  -32.6410   26.2180 C   0  0  0  0  0  1  0  0  0  0  0  0
  2  1  1  0
  3  1  1  0
  4  7  1  0
  4  5  1  0
  4  2  1  0
  5  3  1  0
  5  6  1  1
  7  8  1  0
  8 10  1  0
  9  7  2  0
 12 11  1  0
 12  8  1  0
 12 13  1  0
 14 13  1  0
 15 20  1  0
 16 17  1  0
 16 15  1  0
 18 17  1  0
 18 25  1  0
 18 19  1  0
 20 14  1  0
 20 19  1  0
 21 14  2  0
 22 23  2  0
 23 42  1  0
 24 23  1  0
 24 27  1  0
 25 26  1  0
 25 22  1  0
 26 24  2  0
 27 28  1  0
 28 29  2  0
 30 33  1  0
 30 29  1  0
 31 30  2  0
 32 31  1  0
 32 27  2  0
 33 34  1  0
 34 39  2  0
 34 35  1  0
 35 36  2  0
 36 37  1  0
 37 41  1  0
 38 37  2  0
 39 38  1  0
 40 39  1  0
 42 43  1  0
 43 46  1  0
 43 45  1  0
 44 42  2  0
 47 48  1  0
 47 22  1  0
 49 47  1  0
 50  5  1  0
 51 50  2  0
 51 53  1  0
 52 51  1  0
 54 56  1  0
 54 53  1  0
 55 66  2  0
 56 61  1  0
 57 65  1  0
 57 67  1  0
 58 64  1  0
 58 60  1  0
 59 65  1  0
 60 59  1  0
 61 60  2  0
 62 63  1  0
 62 56  2  0
 63 58  2  0
 64 57  1  0
 65 55  1  0
 67 69  2  0
 68 67  1  0
 70 68  1  0
 71 80  2  0
 71 76  1  0
 72 68  1  0
 72 76  1  0
 73 72  1  0
 74 75  1  0
 74 73  1  0
 75 71  1  0
 76 77  2  0
 77 78  1  0
 79 78  2  0
 80 79  1  0
 81 55  1  0
 81 82  1  0
 81 91  1  0
 82 85  1  0
 83 87  1  0
 83 82  1  0
 84 83  2  0
 87 86  1  0
 89 87  1  0
 89 90  1  0
 89 88  1  0
 91 94  1  1
 91 92  1  0
 93 91  1  0
M  ISO  4  13 100  14 100  53 101  54 101
M  END
>  <TORSDO>  (47) 
F 21

>  <SCORE>  (47) 
-10.529

>  <name>  (47) 
47

>  <ligand_id>  (47) 
47

>  <original_smiles>  (47) 
[H]C(=C(C([H])([H])[H])C([H])([H])Oc1c([H])c([H])c2c(c1[H])C([H])([H])N(C(=O)C([H])(N([H])C(=O)C([H])(N([H])C([H])([H])[H])C([H])([H])[H])C(C([H])([H])[H])(C([H])([H])[H])C([H])([H])[H])C([H])(C(=O)N([H])C1([H])c3c([H])c([H])c([H])c([H])c3C([H])([H])C([H])([H])C1([H])[H])C2([H])[H])C1(C([H])([H])[H])C([H])([H])C([H])([H])C([H])([H])C1([H])C(=O)N([H])C([H])(C([H])([H])[H])C([H])([H])C(=O)N1C([H])([H])C([H])([H])C([H])([H])C([H])(n2nc(-c3c([H])c([H])c(Oc4c([H])c([H])c(F)c([H])c4F)c([H])c3[H])c(C(=O)N([H])[H])c2N([H])[H])C1([H])[H]

>  <smiles>  (47) 
[H]C(=C(C([H])([H])[H])C([H])([H])Oc1c([H])c([H])c2c(c1[H])C([H])([H])N(C(=O)C([H])(N([H])C(=O)C([H])(N([H])C([H])([H])[H])C([H])([H])[H])C(C([H])([H])[H])(C([H])([H])[H])C([H])([H])[H])C([H])(C(=O)N([H])C1([H])c3c([H])c([H])c([H])c([H])c3C([H])([H])C([H])([H])C1([H])[H])C2([H])[H])C1(C([H])([H])[H])C([H])([H])C([H])([H])C([H])([H])C1([H])C(=O)N([H])C([H])(C([H])([H])[H])C([H])([H])C(=O)N1C([H])([H])C([H])([H])C([H])([H])C([H])(n2nc(-c3c([H])c([H])c(Oc4c([H])c([H])c(F)c([H])c4F)c([H])c3[H])c(C(=O)N([H])[H])c2N([H])[H])C1([H])[H]

$$$$
48:0:0
     RDKit          3D

 94103  0  0  1  0  0  0  0  0999 V2000
  -30.8730  -23.7600   22.4100 C   0  0  0  0  0  3  0  0  0  0  0  0
  -30.0210  -24.6490   21.7190 C   0  0  0  0  0  3  0  0  0  0  0  0
  -30.9330  -22.3920   22.0640 C   0  0  0  0  0  3  0  0  0  0  0  0
  -29.2930  -22.7950   20.3210 C   0  0  0  0  0  3  0  0  0  0  0  0
  -29.2150  -24.1770   20.6640 C   0  0  0  0  0  0  0  0  0  0  0  0
  -30.1450  -21.8830   21.0060 C   0  0  0  0  0  0  0  0  0  0  0  0
  -30.1880  -20.5230   20.6000 N   0  0  0  0  0  0  0  0  0  0  0  0
  -29.5010  -20.2280   19.9120 H   0  0  0  0  0  0  0  0  0  0  0  0
  -30.1870  -18.7230   22.3610 C   0  0  0  0  0  2  0  0  0  0  0  0
  -30.7660  -17.2930   22.4460 C   0  0  0  0  0  2  0  0  0  0  0  0
  -31.3450  -18.2830   20.2690 C   0  0  0  0  0  2  0  0  0  0  0  0
  -30.9600  -19.4350   21.2420 C   0  0  0  0  0  3  0  0  0  0  0  0
  -31.2920  -16.9190   21.0380 C   0  0  0  0  0  3  0  0  0  0  0  0
  -31.1050  -14.6330   19.9500 C   0  0  0  0  0  0  0  0  0  0  0  0
  -30.7370  -12.3790   18.9520 C   0  0  0  0  0  2  0  0  0  0  0  0
  -29.7220  -12.4220   17.7910 C   0  0  0  0  0  2  0  0  0  0  0  0
  -28.2800  -12.2720   18.3180 C   0  0  0  0  0  2  0  0  0  0  0  0
  -27.9900  -13.1960   19.5250 C   0  0  0  0  0  3  0  0  0  0  0  0
  -29.1260  -13.1410   20.5800 C   0  0  0  0  0  2  0  0  0  0  0  0
  -30.3880  -13.4600   19.8990 N   0  0  0  0  0  0  0  0  0  0  0  0
  -32.2660  -14.6620   19.5330 O   0  0  0  0  0  0  0  0  0  0  0  0
  -30.5110  -15.8060   20.3920 N   0  0  0  0  0  0  0  0  0  0  0  0
  -25.6980  -13.8920   20.4580 C   0  0  0  0  0  0  0  0  0  0  0  0
  -24.6270  -13.1520   20.8800 C   0  0  0  0  0  0  0  0  0  0  0  0
  -25.0240  -11.7860   20.7600 C   0  0  0  0  0  0  0  0  0  0  0  0
  -26.6770  -12.9710   20.1100 N   0  0  0  0  0  0  0  0  0  0  0  0
  -26.2820  -11.7000   20.3530 N   0  0  0  0  0  0  0  0  0  0  0  0
  -24.2610  -10.5510   20.9480 C   0  0  0  0  0  0  0  0  0  0  0  0
  -24.6710   -9.5670   21.8720 C   0  0  0  0  0  3  0  0  0  0  0  0
  -23.9110   -8.3910   22.0480 C   0  0  0  0  0  3  0  0  0  0  0  0
  -22.7260   -8.1950   21.2980 C   0  0  0  0  0  0  0  0  0  0  0  0
  -22.3370   -9.1690   20.3610 C   0  0  0  0  0  3  0  0  0  0  0  0
  -23.0970  -10.3350   20.1830 C   0  0  0  0  0  3  0  0  0  0  0  0
  -21.9370   -7.0750   21.3850 O   0  0  0  0  0  0  0  0  0  0  0  0
  -21.7940   -6.3850   22.5620 C   0  0  0  0  0  0  0  0  0  0  0  0
  -21.2890   -6.9990   23.7290 C   0  0  0  0  0  3  0  0  0  0  0  0
  -21.0960   -6.2370   24.8980 C   0  0  0  0  0  3  0  0  0  0  0  0
  -21.3930   -4.8600   24.9000 C   0  0  0  0  0  0  0  0  0  0  0  0
  -21.8910   -4.2460   23.7370 C   0  0  0  0  0  3  0  0  0  0  0  0
  -22.0880   -5.0070   22.5700 C   0  0  0  0  0  0  0  0  0  0  0  0
  -22.5480   -4.4060   21.4470 F   0  0  0  0  0  0  0  0  0  0  0  0
  -21.2000   -4.1260   26.0200 F   0  0  0  0  0  0  0  0  0  0  0  0
  -23.2780  -13.6780   21.2760 C   0  0  0  0  0  0  0  0  0  0  0  0
  -22.5930  -12.9850   22.1800 N   0  0  0  0  0  0  0  0  0  0  0  0
  -22.8440  -14.7350   20.8220 O   0  0  0  0  0  0  0  0  0  0  0  0
  -22.9560  -12.1260   22.5640 H   0  0  0  0  0  0  0  0  0  0  0  0
  -21.6910  -13.3190   22.4890 H   0  0  0  0  0  0  0  0  0  0  0  0
  -25.9010  -15.2600   20.3210 N   0  0  0  0  0  0  0  0  0  0  0  0
  -25.1700  -15.9360   20.5150 H   0  0  0  0  0  0  0  0  0  0  0  0
  -26.7430  -15.6810   19.9520 H   0  0  0  0  0  0  0  0  0  0  0  0
  -29.0410  -16.4420   18.4020 C   0  0  0  0  0  1  0  0  0  0  0  0
  -29.1850  -16.2790   19.9350 C   0  0  0  0  0  2  0  0  0  0  0  0
  -28.2060  -25.1020   19.9500 C   0  0  0  0  0  2  0  0  0  0  0  0
  -28.3600  -26.5420   20.1200 O   0  0  0  0  0  0  0  0  0  0  0  0
  -24.5490  -31.7900   23.1090 C   0  0  0  0  0  0  0  0  0  0  0  0
  -27.2080  -27.3230   20.0340 C   0  0  0  0  0  0  0  0  0  0  0  0
  -23.3500  -30.3860   21.4680 C   0  0  0  0  0  3  0  0  0  0  0  0
  -24.8110  -28.8630   20.0290 C   0  0  0  0  0  0  0  0  0  0  0  0
  -25.8770  -30.7500   21.2670 C   0  0  0  0  0  2  0  0  0  0  0  0
  -25.9710  -29.3780   20.6240 C   0  0  0  0  0  0  0  0  0  0  0  0
  -27.1700  -28.6180   20.6190 C   0  0  0  0  0  3  0  0  0  0  0  0
  -26.0300  -26.8530   19.4020 C   0  0  0  0  0  3  0  0  0  0  0  0
  -24.8410  -27.6040   19.4100 C   0  0  0  0  0  3  0  0  0  0  0  0
  -23.5610  -29.7150   20.0840 C   0  0  0  0  0  2  0  0  0  0  0  0
  -24.6110  -30.9890   22.0060 N   0  0  0  0  0  0  0  0  0  0  0  0
  -23.4670  -32.0550   23.6500 O   0  0  0  0  0  0  0  0  0  0  0  0
  -22.7030  -29.3590   22.4260 C   0  0  0  0  0  0  0  0  0  0  0  0
  -21.3720  -29.1980   22.3260 N   0  0  0  0  0  0  0  0  0  0  0  0
  -23.3950  -28.7110   23.2160 O   0  0  0  0  0  0  0  0  0  0  0  0
  -20.8750  -29.7740   21.6610 H   0  0  0  0  0  0  0  0  0  0  0  0
  -17.9920  -28.0550   22.9010 C   0  0  0  0  0  0  0  0  0  0  0  0
  -20.5610  -28.2590   23.1010 C   0  0  0  0  0  3  0  0  0  0  0  0
  -20.6180  -26.8390   22.4920 C   0  0  0  0  0  2  0  0  0  0  0  0
  -19.4810  -26.5600   21.5050 C   0  0  0  0  0  2  0  0  0  0  0  0
  -18.1220  -26.7180   22.1920 C   0  0  0  0  0  2  0  0  0  0  0  0
  -19.1370  -28.7860   23.3140 C   0  0  0  0  0  0  0  0  0  0  0  0
  -18.9620  -30.0400   23.9380 C   0  0  0  0  0  3  0  0  0  0  0  0
  -17.6730  -30.5630   24.1530 C   0  0  0  0  0  3  0  0  0  0  0  0
  -16.5420  -29.8290   23.7560 C   0  0  0  0  0  3  0  0  0  0  0  0
  -16.7030  -28.5770   23.1370 C   0  0  0  0  0  3  0  0  0  0  0  0
  -25.8310  -32.4280   23.7280 C   0  0  0  0  0  3  0  0  0  0  0  0
  -26.3730  -31.6410   24.9850 C   0  0  1  0  0  0  0  0  0  0  0  0
  -25.2930  -31.3620   26.0570 C   0  0  0  0  0  1  0  0  0  0  0  0
  -26.9740  -30.2820   24.5580 C   0  0  0  0  0  1  0  0  0  0  0  0
  -27.5180  -32.4400   25.6520 C   0  0  0  0  0  1  0  0  0  0  0  0
  -25.5080  -33.8170   24.0850 N   0  0  0  0  0  0  0  0  0  0  0  0
  -25.8430  -34.8870   23.3510 C   0  0  0  0  0  0  0  0  0  0  0  0
  -26.5250  -34.8090   22.3270 O   0  0  0  0  0  0  0  0  0  0  0  0
  -24.9030  -33.9510   24.8820 H   0  0  0  0  0  0  0  0  0  0  0  0
  -24.1240  -36.6870   22.9880 C   0  0  0  0  0  1  0  0  0  0  0  0
  -25.3370  -36.2620   23.8300 C   0  0  0  0  0  3  0  0  0  0  0  0
  -27.4380  -37.1250   24.7620 C   0  0  0  0  0  1  0  0  0  0  0  0
  -26.3720  -37.3170   23.7830 N   0  0  0  0  0  0  0  0  0  0  0  0
  -25.9600  -38.2330   23.9400 H   0  0  0  0  0  0  0  0  0  0  0  0
  2  1  2  0
  3  1  1  0
  4  5  2  0
  4  6  1  0
  5  2  1  0
  6  3  2  0
  7  6  1  0
  8  7  1  0
  9 10  1  0
 11 13  1  0
 11 12  1  0
 12  7  1  0
 12  9  1  0
 13 22  1  0
 13 10  1  0
 14 22  1  0
 15 20  1  0
 16 17  1  0
 16 15  1  0
 18 17  1  0
 18 26  1  0
 18 19  1  0
 20 14  1  0
 20 19  1  0
 21 14  2  0
 23 24  2  0
 24 43  1  0
 25 24  1  0
 25 28  1  0
 26 27  1  0
 26 23  1  0
 27 25  2  0
 28 29  1  0
 29 30  2  0
 31 34  1  0
 31 30  1  0
 32 31  2  0
 33 32  1  0
 33 28  2  0
 34 35  1  0
 35 40  2  0
 35 36  1  0
 36 37  2  0
 37 38  1  0
 38 42  1  0
 39 38  2  0
 40 39  1  0
 41 40  1  0
 43 44  1  0
 44 47  1  0
 44 46  1  0
 45 43  2  0
 48 23  1  0
 48 49  1  0
 50 48  1  0
 51 52  1  0
 52 22  1  0
 53 54  1  0
 53  5  1  0
 55 66  2  0
 56 54  1  0
 56 61  1  0
 57 65  1  0
 57 67  1  0
 58 64  1  0
 58 60  1  0
 59 65  1  0
 60 59  1  0
 61 60  2  0
 62 63  1  0
 62 56  2  0
 63 58  2  0
 64 57  1  0
 65 55  1  0
 67 69  2  0
 68 67  1  0
 70 68  1  0
 71 80  2  0
 71 76  1  0
 72 68  1  0
 72 76  1  0
 73 72  1  0
 74 75  1  0
 74 73  1  0
 75 71  1  0
 76 77  2  0
 77 78  1  0
 79 78  2  0
 80 79  1  0
 81 55  1  0
 81 86  1  0
 81 82  1  0
 82 85  1  1
 82 83  1  0
 84 82  1  0
 86 89  1  0
 87 91  1  0
 87 86  1  0
 88 87  2  0
 91 90  1  0
 93 91  1  0
 93 94  1  0
 93 92  1  0
M  ISO  4  14 100  22 100  53 101  54 101
M  END
>  <TORSDO>  (48) 
F 20

>  <SCORE>  (48) 
-12.022

>  <name>  (48) 
48

>  <ligand_id>  (48) 
48

>  <original_smiles>  (48) 
[H]c1c([H])c(N([H])C2([H])C([H])([H])C([H])([H])C([H])(N(C(=O)N3C([H])([H])C([H])([H])C([H])([H])C([H])(n4nc(-c5c([H])c([H])c(Oc6c([H])c([H])c(F)c([H])c6F)c([H])c5[H])c(C(=O)N([H])[H])c4N([H])[H])C3([H])[H])C([H])([H])C([H])([H])[H])C2([H])[H])c([H])c(C([H])([H])Oc2c([H])c([H])c3c(c2[H])C([H])([H])N(C(=O)C([H])(N([H])C(=O)C([H])(N([H])C([H])([H])[H])C([H])([H])[H])C(C([H])([H])[H])(C([H])([H])[H])C([H])([H])[H])C([H])(C(=O)N([H])C2([H])c4c([H])c([H])c([H])c([H])c4C([H])([H])C([H])([H])C2([H])[H])C3([H])[H])c1[H]

>  <smiles>  (48) 
[H]c1c([H])c(N([H])C2([H])C([H])([H])C([H])([H])C([H])(N(C(=O)N3C([H])([H])C([H])([H])C([H])([H])C([H])(n4nc(-c5c([H])c([H])c(Oc6c([H])c([H])c(F)c([H])c6F)c([H])c5[H])c(C(=O)N([H])[H])c4N([H])[H])C3([H])[H])C([H])([H])C([H])([H])[H])C2([H])[H])c([H])c(C([H])([H])Oc2c([H])c([H])c3c(c2[H])C([H])([H])N(C(=O)C([H])(N([H])C(=O)C([H])(N([H])C([H])([H])[H])C([H])([H])[H])C(C([H])([H])[H])(C([H])([H])[H])C([H])([H])[H])C([H])(C(=O)N([H])C2([H])c4c([H])c([H])c([H])c([H])c4C([H])([H])C([H])([H])C2([H])[H])C3([H])[H])c1[H]

$$$$
49:0:0
     RDKit          3D

 96104  0  0  1  0  0  0  0  0999 V2000
  -30.7040  -23.0660   21.7150 C   0  0  0  0  0  3  0  0  0  0  0  0
  -29.7620  -22.2520   21.0540 C   0  0  0  0  0  3  0  0  0  0  0  0
  -30.4980  -24.4570   21.7990 C   0  0  0  0  0  3  0  0  0  0  0  0
  -28.3780  -24.2050   20.6180 C   0  0  0  0  0  3  0  0  0  0  0  0
  -28.5950  -22.8220   20.4960 C   0  0  0  0  0  0  0  0  0  0  0  0
  -29.3420  -25.0310   21.2310 C   0  0  0  0  0  0  0  0  0  0  0  0
  -27.5920  -21.9770   19.7810 C   0  0  0  0  0  0  0  0  0  0  0  0
  -28.1000  -21.2420   18.7890 N   0  0  0  0  0  0  0  0  0  0  0  0
  -26.4010  -21.9820   20.0990 O   0  0  0  0  0  0  0  0  0  0  0  0
  -29.0790  -21.3850   18.5800 H   0  0  0  0  0  0  0  0  0  0  0  0
  -27.4390  -20.1200   18.1350 C   0  0  0  0  0  2  0  0  0  0  0  0
  -27.6860  -18.8240   18.9280 C   0  0  0  0  0  2  0  0  0  0  0  0
  -29.1820  -18.5300   19.1470 C   0  0  0  0  0  2  0  0  0  0  0  0
  -29.4500  -17.5570   20.2940 C   0  0  0  0  0  2  0  0  0  0  0  0
  -30.9460  -17.5330   20.6580 C   0  0  0  0  0  2  0  0  0  0  0  0
  -31.3090  -16.5030   21.7420 C   0  0  0  0  0  2  0  0  0  0  0  0
  -31.0950  -14.4680   20.3290 C   0  0  0  0  0  0  0  0  0  0  0  0
  -30.6580  -12.3620   19.1300 C   0  0  0  0  0  2  0  0  0  0  0  0
  -29.6890  -12.5480   17.9490 C   0  0  0  0  0  2  0  0  0  0  0  0
  -28.2280  -12.4390   18.4230 C   0  0  0  0  0  2  0  0  0  0  0  0
  -27.9350  -13.3410   19.6480 C   0  0  0  0  0  3  0  0  0  0  0  0
  -29.0010  -13.1340   20.7460 C   0  0  0  0  0  2  0  0  0  0  0  0
  -30.3390  -13.3560   20.1620 N   0  0  0  0  0  0  0  0  0  0  0  0
  -32.0400  -14.7750   19.5930 O   0  0  0  0  0  0  0  0  0  0  0  0
  -30.7850  -15.1850   21.4130 N   0  0  0  0  0  0  0  0  0  0  0  0
  -30.0520  -14.8160   22.0020 H   0  0  0  0  0  0  0  0  0  0  0  0
  -25.5830  -14.0310   20.4490 C   0  0  0  0  0  0  0  0  0  0  0  0
  -24.4950  -13.2930   20.8320 C   0  0  0  0  0  0  0  0  0  0  0  0
  -24.8970  -11.9250   20.7460 C   0  0  0  0  0  0  0  0  0  0  0  0
  -26.5830  -13.1150   20.1600 N   0  0  0  0  0  0  0  0  0  0  0  0
  -26.1720  -11.8410   20.3920 N   0  0  0  0  0  0  0  0  0  0  0  0
  -24.1250  -10.6880   20.9260 C   0  0  0  0  0  0  0  0  0  0  0  0
  -24.5210   -9.6990   21.8530 C   0  0  0  0  0  3  0  0  0  0  0  0
  -23.7540   -8.5270   22.0200 C   0  0  0  0  0  3  0  0  0  0  0  0
  -22.5750   -8.3350   21.2610 C   0  0  0  0  0  0  0  0  0  0  0  0
  -22.1980   -9.3120   20.3230 C   0  0  0  0  0  3  0  0  0  0  0  0
  -22.9660  -10.4760   20.1530 C   0  0  0  0  0  3  0  0  0  0  0  0
  -21.7820   -7.2170   21.3370 O   0  0  0  0  0  0  0  0  0  0  0  0
  -21.6700   -6.4910   22.4950 C   0  0  0  0  0  0  0  0  0  0  0  0
  -21.2190   -7.0740   23.6990 C   0  0  0  0  0  3  0  0  0  0  0  0
  -21.0540   -6.2760   24.8500 C   0  0  0  0  0  3  0  0  0  0  0  0
  -21.3290   -4.8970   24.7960 C   0  0  0  0  0  0  0  0  0  0  0  0
  -21.7720   -4.3130   23.5960 C   0  0  0  0  0  3  0  0  0  0  0  0
  -21.9390   -5.1070   22.4480 C   0  0  0  0  0  0  0  0  0  0  0  0
  -22.3470   -4.5370   21.2890 F   0  0  0  0  0  0  0  0  0  0  0  0
  -21.1620   -4.1280   25.8980 F   0  0  0  0  0  0  0  0  0  0  0  0
  -23.1280  -13.8190   21.1690 C   0  0  0  0  0  0  0  0  0  0  0  0
  -22.4150  -13.1430   22.0630 N   0  0  0  0  0  0  0  0  0  0  0  0
  -22.7050  -14.8630   20.6740 O   0  0  0  0  0  0  0  0  0  0  0  0
  -22.7710  -12.2980   22.4840 H   0  0  0  0  0  0  0  0  0  0  0  0
  -21.5000  -13.4770   22.3300 H   0  0  0  0  0  0  0  0  0  0  0  0
  -25.8010  -15.3980   20.3080 N   0  0  0  0  0  0  0  0  0  0  0  0
  -25.0730  -16.0830   20.4750 H   0  0  0  0  0  0  0  0  0  0  0  0
  -26.6710  -15.8070   19.9960 H   0  0  0  0  0  0  0  0  0  0  0  0
  -29.1270  -26.5280   21.2250 C   0  0  0  0  0  2  0  0  0  0  0  0
  -28.5440  -26.9070   19.9830 O   0  0  0  0  0  0  0  0  0  0  0  0
  -24.6180  -31.8750   23.2330 C   0  0  0  0  0  0  0  0  0  0  0  0
  -27.3690  -27.6030   20.0610 C   0  0  0  0  0  0  0  0  0  0  0  0
  -23.4450  -30.5000   21.5390 C   0  0  0  0  0  3  0  0  0  0  0  0
  -24.9380  -29.0220   20.0950 C   0  0  0  0  0  0  0  0  0  0  0  0
  -25.9600  -30.9150   21.3730 C   0  0  0  0  0  2  0  0  0  0  0  0
  -26.0750  -29.5610   20.7120 C   0  0  0  0  0  0  0  0  0  0  0  0
  -27.2930  -28.8540   20.7050 C   0  0  0  0  0  3  0  0  0  0  0  0
  -26.2260  -27.0680   19.4350 C   0  0  0  0  0  3  0  0  0  0  0  0
  -25.0040  -27.7690   19.4590 C   0  0  0  0  0  3  0  0  0  0  0  0
  -23.6780  -29.8540   20.1450 C   0  0  0  0  0  2  0  0  0  0  0  0
  -24.6920  -31.1090   22.1080 N   0  0  0  0  0  0  0  0  0  0  0  0
  -23.5300  -32.1170   23.7700 O   0  0  0  0  0  0  0  0  0  0  0  0
  -22.8030  -29.4450   22.4660 C   0  0  0  0  0  0  0  0  0  0  0  0
  -21.4780  -29.2680   22.3380 N   0  0  0  0  0  0  0  0  0  0  0  0
  -23.4900  -28.7900   23.2530 O   0  0  0  0  0  0  0  0  0  0  0  0
  -20.9850  -29.8490   21.6750 H   0  0  0  0  0  0  0  0  0  0  0  0
  -18.0980  -28.0980   22.8390 C   0  0  0  0  0  0  0  0  0  0  0  0
  -20.6640  -28.3050   23.0780 C   0  0  0  0  0  3  0  0  0  0  0  0
  -20.7360  -26.9030   22.4300 C   0  0  0  0  0  2  0  0  0  0  0  0
  -19.6120  -26.6450   21.4220 C   0  0  0  0  0  2  0  0  0  0  0  0
  -18.2440  -26.7800   22.0960 C   0  0  0  0  0  2  0  0  0  0  0  0
  -19.2360  -28.8220   23.2850 C   0  0  0  0  0  0  0  0  0  0  0  0
  -19.0470  -30.0600   23.9380 C   0  0  0  0  0  3  0  0  0  0  0  0
  -17.7540  -30.5720   24.1480 C   0  0  0  0  0  3  0  0  0  0  0  0
  -16.6310  -29.8440   23.7190 C   0  0  0  0  0  3  0  0  0  0  0  0
  -16.8050  -28.6080   23.0700 C   0  0  0  0  0  3  0  0  0  0  0  0
  -25.8930  -32.5040   23.8800 C   0  0  0  0  0  3  0  0  0  0  0  0
  -25.5770  -33.8990   24.2120 N   0  0  0  0  0  0  0  0  0  0  0  0
  -25.9280  -34.9550   23.4660 C   0  0  0  0  0  0  0  0  0  0  0  0
  -26.6260  -34.8570   22.4520 O   0  0  0  0  0  0  0  0  0  0  0  0
  -24.9620  -34.0490   24.9990 H   0  0  0  0  0  0  0  0  0  0  0  0
  -24.2150  -36.7510   23.0650 C   0  0  0  0  0  1  0  0  0  0  0  0
  -25.4270  -36.3400   23.9160 C   0  0  0  0  0  3  0  0  0  0  0  0
  -27.5300  -37.2150   24.8300 C   0  0  0  0  0  1  0  0  0  0  0  0
  -26.4640  -37.3920   23.8480 N   0  0  0  0  0  0  0  0  0  0  0  0
  -26.0540  -38.3120   23.9880 H   0  0  0  0  0  0  0  0  0  0  0  0
  -26.3910  -31.7230   25.1570 C   0  0  1  0  0  0  0  0  0  0  0  0
  -25.2820  -31.4700   26.2030 C   0  0  0  0  0  1  0  0  0  0  0  0
  -26.9870  -30.3530   24.7590 C   0  0  0  0  0  1  0  0  0  0  0  0
  -27.5260  -32.5160   25.8470 C   0  0  0  0  0  1  0  0  0  0  0  0
  1  3  1  0
  2  1  2  0
  4  6  1  0
  5  4  2  0
  5  2  1  0
  6  3  2  0
  7  9  2  0
  7  5  1  0
  8  7  1  0
 10  8  1  0
 11  8  1  0
 11 12  1  0
 12 13  1  0
 13 14  1  0
 14 15  1  0
 15 16  1  0
 17 25  1  0
 18 23  1  0
 19 20  1  0
 19 18  1  0
 21 20  1  0
 21 30  1  0
 21 22  1  0
 23 17  1  0
 23 22  1  0
 24 17  2  0
 25 16  1  0
 25 26  1  0
 27 28  2  0
 28 47  1  0
 29 28  1  0
 29 32  1  0
 30 31  1  0
 30 27  1  0
 31 29  2  0
 32 33  1  0
 33 34  2  0
 35 38  1  0
 35 34  1  0
 36 35  2  0
 37 36  1  0
 37 32  2  0
 38 39  1  0
 39 40  1  0
 40 41  2  0
 42 41  1  0
 42 46  1  0
 43 42  2  0
 44 39  2  0
 44 43  1  0
 45 44  1  0
 47 48  1  0
 48 51  1  0
 48 50  1  0
 49 47  2  0
 52 27  1  0
 52 53  1  0
 54 52  1  0
 55  6  1  0
 56 58  1  0
 56 55  1  0
 57 68  2  0
 58 63  1  0
 59 67  1  0
 59 69  1  0
 60 66  1  0
 60 62  1  0
 61 67  1  0
 62 61  1  0
 63 62  2  0
 64 65  1  0
 64 58  2  0
 65 60  2  0
 66 59  1  0
 67 57  1  0
 69 71  2  0
 70 69  1  0
 72 70  1  0
 73 82  2  0
 73 78  1  0
 74 70  1  0
 74 78  1  0
 75 74  1  0
 76 77  1  0
 76 75  1  0
 77 73  1  0
 78 79  2  0
 79 80  1  0
 81 80  2  0
 82 81  1  0
 83 57  1  0
 83 84  1  0
 83 93  1  0
 84 87  1  0
 85 89  1  0
 85 84  1  0
 86 85  2  0
 89 88  1  0
 91 89  1  0
 91 92  1  0
 91 90  1  0
 93 96  1  1
 93 94  1  0
 95 93  1  0
M  ISO  4  17 100  25 100  55 101  56 101
M  END
>  <TORSDO>  (49) 
F 24

>  <SCORE>  (49) 
-12.337

>  <name>  (49) 
49

>  <ligand_id>  (49) 
49

>  <original_smiles>  (49) 
[H]c1c([H])c(C(=O)N([H])C([H])([H])C([H])([H])C([H])([H])C([H])([H])C([H])([H])C([H])([H])N([H])C(=O)N2C([H])([H])C([H])([H])C([H])([H])C([H])(n3nc(-c4c([H])c([H])c(Oc5c([H])c([H])c(F)c([H])c5F)c([H])c4[H])c(C(=O)N([H])[H])c3N([H])[H])C2([H])[H])c([H])c(C([H])([H])Oc2c([H])c([H])c3c(c2[H])C([H])([H])N(C(=O)C([H])(N([H])C(=O)C([H])(N([H])C([H])([H])[H])C([H])([H])[H])C(C([H])([H])[H])(C([H])([H])[H])C([H])([H])[H])C([H])(C(=O)N([H])C2([H])c4c([H])c([H])c([H])c([H])c4C([H])([H])C([H])([H])C2([H])[H])C3([H])[H])c1[H]

>  <smiles>  (49) 
[H]c1c([H])c(C(=O)N([H])C([H])([H])C([H])([H])C([H])([H])C([H])([H])C([H])([H])C([H])([H])N([H])C(=O)N2C([H])([H])C([H])([H])C([H])([H])C([H])(n3nc(-c4c([H])c([H])c(Oc5c([H])c([H])c(F)c([H])c5F)c([H])c4[H])c(C(=O)N([H])[H])c3N([H])[H])C2([H])[H])c([H])c(C([H])([H])Oc2c([H])c([H])c3c(c2[H])C([H])([H])N(C(=O)C([H])(N([H])C(=O)C([H])(N([H])C([H])([H])[H])C([H])([H])[H])C(C([H])([H])[H])(C([H])([H])[H])C([H])([H])[H])C([H])(C(=O)N([H])C2([H])c4c([H])c([H])c([H])c([H])c4C([H])([H])C([H])([H])C2([H])[H])C3([H])[H])c1[H]

$$$$
50:0:0
     RDKit          3D

 98106  0  0  1  0  0  0  0  0999 V2000
  -27.3100  -22.4320   19.8270 C   0  0  0  0  0  2  0  0  0  0  0  0
  -28.2590  -18.5150   18.2610 C   0  0  0  0  0  3  0  0  0  0  0  0
  -27.1950  -19.2400   17.6920 C   0  0  0  0  0  3  0  0  0  0  0  0
  -28.5290  -20.2300   19.9570 C   0  0  0  0  0  3  0  0  0  0  0  0
  -28.8980  -18.9780   19.4240 C   0  0  0  0  0  0  0  0  0  0  0  0
  -26.8130  -20.4840   18.2290 C   0  0  0  0  0  0  0  0  0  0  0  0
  -27.5260  -21.0080   19.3390 C   0  0  0  0  0  0  0  0  0  0  0  0
  -25.6710  -21.2430   17.5720 C   0  0  0  0  0  1  0  0  0  0  0  0
  -30.0600  -18.1890   20.0040 C   0  0  0  0  0  2  0  0  0  0  0  0
  -29.7610  -16.6960   20.3380 C   0  0  0  0  0  2  0  0  0  0  0  0
  -31.2320  -14.7530   20.7510 C   0  0  0  0  0  0  0  0  0  0  0  0
  -30.9660  -12.4440   20.0150 C   0  0  0  0  0  2  0  0  0  0  0  0
  -30.1840  -12.4150   18.6870 C   0  0  0  0  0  2  0  0  0  0  0  0
  -28.6660  -12.3900   18.9410 C   0  0  0  0  0  2  0  0  0  0  0  0
  -28.1880  -13.4290   19.9850 C   0  0  0  0  0  3  0  0  0  0  0  0
  -29.1110  -13.4590   21.2260 C   0  0  0  0  0  2  0  0  0  0  0  0
  -30.4910  -13.6150   20.7540 N   0  0  0  0  0  0  0  0  0  0  0  0
  -32.4460  -14.7210   20.9490 O   0  0  0  0  0  0  0  0  0  0  0  0
  -30.7810  -15.7080   19.8870 N   0  0  0  0  0  0  0  0  0  0  0  0
  -25.7580  -14.1480   20.4320 C   0  0  0  0  0  0  0  0  0  0  0  0
  -24.6210  -13.4340   20.6770 C   0  0  0  0  0  0  0  0  0  0  0  0
  -25.0300  -12.0680   20.7410 C   0  0  0  0  0  0  0  0  0  0  0  0
  -26.7860  -13.2250   20.3410 N   0  0  0  0  0  0  0  0  0  0  0  0
  -26.3450  -11.9690   20.5990 N   0  0  0  0  0  0  0  0  0  0  0  0
  -24.2380  -10.8430   20.8760 C   0  0  0  0  0  0  0  0  0  0  0  0
  -24.6100   -9.8220   21.7780 C   0  0  0  0  0  3  0  0  0  0  0  0
  -23.8230   -8.6590   21.9040 C   0  0  0  0  0  3  0  0  0  0  0  0
  -22.6490   -8.5110   21.1250 C   0  0  0  0  0  0  0  0  0  0  0  0
  -22.2970   -9.5180   20.2110 C   0  0  0  0  0  3  0  0  0  0  0  0
  -23.0860  -10.6740   20.0830 C   0  0  0  0  0  3  0  0  0  0  0  0
  -21.8360   -7.4060   21.1620 O   0  0  0  0  0  0  0  0  0  0  0  0
  -21.6780   -6.6660   22.3070 C   0  0  0  0  0  0  0  0  0  0  0  0
  -21.3010   -7.2600   23.5310 C   0  0  0  0  0  3  0  0  0  0  0  0
  -21.0860   -6.4540   24.6660 C   0  0  0  0  0  3  0  0  0  0  0  0
  -21.2350   -5.0560   24.5770 C   0  0  0  0  0  0  0  0  0  0  0  0
  -21.6020   -4.4640   23.3560 C   0  0  0  0  0  3  0  0  0  0  0  0
  -21.8220   -5.2670   22.2230 C   0  0  0  0  0  0  0  0  0  0  0  0
  -22.1560   -4.6890   21.0440 F   0  0  0  0  0  0  0  0  0  0  0  0
  -21.0190   -4.2800   25.6650 F   0  0  0  0  0  0  0  0  0  0  0  0
  -23.2220  -13.9770   20.7590 C   0  0  0  0  0  0  0  0  0  0  0  0
  -22.3790  -13.3600   21.5800 N   0  0  0  0  0  0  0  0  0  0  0  0
  -22.8840  -14.9780   20.1290 O   0  0  0  0  0  0  0  0  0  0  0  0
  -22.6670  -12.5490   22.1050 H   0  0  0  0  0  0  0  0  0  0  0  0
  -21.4320  -13.6970   21.6820 H   0  0  0  0  0  0  0  0  0  0  0  0
  -25.9930  -15.5020   20.2710 N   0  0  0  0  0  0  0  0  0  0  0  0
  -25.2550  -16.1870   20.3890 H   0  0  0  0  0  0  0  0  0  0  0  0
  -26.9160  -15.9090   20.2440 H   0  0  0  0  0  0  0  0  0  0  0  0
  -31.1830  -15.7490   17.3720 C   0  0  0  0  0  1  0  0  0  0  0  0
  -31.6850  -16.1370   18.7750 C   0  0  0  0  0  2  0  0  0  0  0  0
  -26.4930  -22.5370   21.1210 C   0  0  0  0  0  2  0  0  0  0  0  0
  -25.0090  -24.0740   22.4790 C   0  0  0  0  0  1  0  0  0  0  0  0
  -26.2270  -23.9980   21.5460 C   0  0  0  0  0  3  0  0  0  0  0  0
  -27.4010  -24.6250   22.2050 N   0  0  0  0  0  4  0  0  0  0  0  0
  -27.1340  -24.7530   23.1700 H   0  0  0  0  0  0  0  0  0  0  0  0
  -28.1900  -23.9970   22.2230 H   0  0  0  0  0  0  0  0  0  0  0  0
  -27.8080  -25.9680   21.7040 C   0  0  0  0  0  2  0  0  0  0  0  0
  -28.4450  -25.9590   20.2920 C   0  0  0  0  0  2  0  0  0  0  0  0
  -28.5040  -27.2870   19.7460 O   0  0  0  0  0  0  0  0  0  0  0  0
  -24.5220  -32.0290   23.1950 C   0  0  0  0  0  0  0  0  0  0  0  0
  -27.3140  -27.9730   19.7740 C   0  0  0  0  0  0  0  0  0  0  0  0
  -23.3560  -30.7060   21.4580 C   0  0  0  0  0  3  0  0  0  0  0  0
  -24.8580  -29.3540   19.9040 C   0  0  0  0  0  0  0  0  0  0  0  0
  -25.8580  -31.1980   21.2650 C   0  0  0  0  0  2  0  0  0  0  0  0
  -25.9950  -29.8870   20.5260 C   0  0  0  0  0  0  0  0  0  0  0  0
  -27.2280  -29.2060   20.4540 C   0  0  0  0  0  3  0  0  0  0  0  0
  -26.1660  -27.4540   19.1370 C   0  0  0  0  0  3  0  0  0  0  0  0
  -24.9390  -28.1390   19.2030 C   0  0  0  0  0  3  0  0  0  0  0  0
  -23.5780  -30.1480   20.0260 C   0  0  0  0  0  2  0  0  0  0  0  0
  -24.5960  -31.3210   22.0340 N   0  0  0  0  0  0  0  0  0  0  0  0
  -23.4360  -32.2080   23.7670 O   0  0  0  0  0  0  0  0  0  0  0  0
  -22.7650  -29.5850   22.3440 C   0  0  0  0  0  0  0  0  0  0  0  0
  -21.4440  -29.3700   22.2310 N   0  0  0  0  0  0  0  0  0  0  0  0
  -23.4900  -28.9140   23.0820 O   0  0  0  0  0  0  0  0  0  0  0  0
  -20.9170  -29.9680   21.6090 H   0  0  0  0  0  0  0  0  0  0  0  0
  -18.1170  -28.0570   22.7220 C   0  0  0  0  0  0  0  0  0  0  0  0
  -20.6760  -28.3410   22.9320 C   0  0  0  0  0  3  0  0  0  0  0  0
  -20.7860  -26.9750   22.2150 C   0  0  0  0  0  2  0  0  0  0  0  0
  -19.6540  -26.7230   21.2120 C   0  0  0  0  0  2  0  0  0  0  0  0
  -18.2930  -26.7820   21.9130 C   0  0  0  0  0  2  0  0  0  0  0  0
  -19.2350  -28.7950   23.1890 C   0  0  0  0  0  0  0  0  0  0  0  0
  -19.0180  -29.9890   23.9090 C   0  0  0  0  0  3  0  0  0  0  0  0
  -17.7110  -30.4450   24.1730 C   0  0  0  0  0  3  0  0  0  0  0  0
  -16.6060  -29.7010   23.7230 C   0  0  0  0  0  3  0  0  0  0  0  0
  -16.8090  -28.5120   23.0000 C   0  0  0  0  0  3  0  0  0  0  0  0
  -25.7890  -32.6650   23.8500 C   0  0  0  0  0  3  0  0  0  0  0  0
  -26.2920  -31.8800   25.1230 C   0  0  1  0  0  0  0  0  0  0  0  0
  -25.1690  -31.5520   26.1350 C   0  0  0  0  0  1  0  0  0  0  0  0
  -26.9610  -30.5480   24.7140 C   0  0  0  0  0  1  0  0  0  0  0  0
  -27.3700  -32.7110   25.8600 C   0  0  0  0  0  1  0  0  0  0  0  0
  -25.4600  -34.0550   24.1910 N   0  0  0  0  0  0  0  0  0  0  0  0
  -25.7790  -35.1170   23.4380 C   0  0  0  0  0  0  0  0  0  0  0  0
  -26.4550  -35.0300   22.4090 O   0  0  0  0  0  0  0  0  0  0  0  0
  -24.8620  -34.1980   24.9920 H   0  0  0  0  0  0  0  0  0  0  0  0
  -24.0070  -36.8700   23.1030 C   0  0  0  0  0  1  0  0  0  0  0  0
  -25.2660  -36.4950   23.9010 C   0  0  0  0  0  3  0  0  0  0  0  0
  -27.3920  -37.4230   24.7050 C   0  0  0  0  0  1  0  0  0  0  0  0
  -26.2730  -37.5700   23.7760 N   0  0  0  0  0  0  0  0  0  0  0  0
  -25.8500  -38.4810   23.9290 H   0  0  0  0  0  0  0  0  0  0  0  0
  1 50  1  0
  2  5  1  0
  3  6  1  0
  3  2  2  0
  5  4  2  0
  5  9  1  0
  6  7  2  0
  7  1  1  0
  7  4  1  0
  8  6  1  0
  9 10  1  0
 11 17  1  0
 11 18  2  0
 12 17  1  0
 13 14  1  0
 13 12  1  0
 15 14  1  0
 15 23  1  0
 15 16  1  0
 17 16  1  0
 19 10  1  0
 19 11  1  0
 20 21  2  0
 21 22  1  0
 21 40  1  0
 22 25  1  0
 23 20  1  0
 23 24  1  0
 24 22  2  0
 25 26  1  0
 26 27  2  0
 28 31  1  0
 28 27  1  0
 29 28  2  0
 30 29  1  0
 30 25  2  0
 31 32  1  0
 32 33  1  0
 33 34  2  0
 35 34  1  0
 35 39  1  0
 36 35  2  0
 37 32  2  0
 37 36  1  0
 38 37  1  0
 40 41  1  0
 41 44  1  0
 41 43  1  0
 42 40  2  0
 45 46  1  0
 45 20  1  0
 47 45  1  0
 48 49  1  0
 49 19  1  0
 50 52  1  0
 52 53  1  0
 52 51  1  0
 53 55  1  0
 53 54  1  0
 56 53  1  0
 57 56  1  0
 58 60  1  0
 58 57  1  0
 59 70  2  0
 60 65  1  0
 61 69  1  0
 61 71  1  0
 62 68  1  0
 62 64  1  0
 63 69  1  0
 64 63  1  0
 65 64  2  0
 66 67  1  0
 66 60  2  0
 67 62  2  0
 68 61  1  0
 69 59  1  0
 71 73  2  0
 72 71  1  0
 74 72  1  0
 75 84  2  0
 75 80  1  0
 76 72  1  0
 76 80  1  0
 77 76  1  0
 78 79  1  0
 78 77  1  0
 79 75  1  0
 80 81  2  0
 81 82  1  0
 83 82  2  0
 84 83  1  0
 85 59  1  0
 85 90  1  0
 85 86  1  0
 86 89  1  1
 86 87  1  0
 88 86  1  0
 90 93  1  0
 91 95  1  0
 91 90  1  0
 92 91  2  0
 95 94  1  0
 97 95  1  0
 97 98  1  0
 97 96  1  0
M  ISO  4  11 100  19 100  57 101  58 101
M  END
>  <TORSDO>  (50) 
F 25

>  <SCORE>  (50) 
-11.077

>  <name>  (50) 
50

>  <ligand_id>  (50) 
50

>  <original_smiles>  (50) 
[H]c1c([H])c([H])c2c(c1[H])C([H])([H])C([H])([H])C([H])([H])C2([H])N([H])C(=O)C1([H])N(C(=O)C([H])(N([H])C(=O)C([H])(N([H])C([H])([H])[H])C([H])([H])[H])C(C([H])([H])[H])(C([H])([H])[H])C([H])([H])[H])C([H])([H])c2c([H])c(OC([H])([H])C([H])([H])[N+]([H])([H])C([H])(C([H])([H])[H])C([H])([H])C([H])([H])c3c([H])c(C([H])([H])C([H])([H])N(C(=O)N4C([H])([H])C([H])([H])C([H])([H])C([H])(n5nc(-c6c([H])c([H])c(Oc7c([H])c([H])c(F)c([H])c7F)c([H])c6[H])c(C(=O)N([H])[H])c5N([H])[H])C4([H])[H])C([H])([H])C([H])([H])[H])c([H])c([H])c3C([H])([H])[H])c([H])c([H])c2C1([H])[H]

>  <smiles>  (50) 
[H]c1c([H])c([H])c2c(c1[H])C([H])([H])C([H])([H])C([H])([H])C2([H])N([H])C(=O)C1([H])N(C(=O)C([H])(N([H])C(=O)C([H])(N([H])C([H])([H])[H])C([H])([H])[H])C(C([H])([H])[H])(C([H])([H])[H])C([H])([H])[H])C([H])([H])c2c([H])c(OC([H])([H])C([H])([H])[N+]([H])([H])C([H])(C([H])([H])[H])C([H])([H])C([H])([H])c3c([H])c(C([H])([H])C([H])([H])N(C(=O)N4C([H])([H])C([H])([H])C([H])([H])C([H])(n5nc(-c6c([H])c([H])c(Oc7c([H])c([H])c(F)c([H])c7F)c([H])c6[H])c(C(=O)N([H])[H])c5N([H])[H])C4([H])[H])C([H])([H])C([H])([H])[H])c([H])c([H])c3C([H])([H])[H])c([H])c([H])c2C1([H])[H]

$$$$
51:0:0
     RDKit          3D

 96104  0  0  1  0  0  0  0  0999 V2000
  -29.1180  -25.9110   13.6840 C   0  0  0  0  0  3  0  0  0  0  0  0
  -28.9970  -25.2140   14.9000 C   0  0  0  0  0  3  0  0  0  0  0  0
  -29.9340  -27.0540   13.6100 C   0  0  0  0  0  3  0  0  0  0  0  0
  -30.5910  -26.7400   15.9400 C   0  0  0  0  0  3  0  0  0  0  0  0
  -29.7460  -25.6110   16.0300 C   0  0  0  0  0  0  0  0  0  0  0  0
  -30.6370  -27.5010   14.7480 C   0  0  0  0  0  0  0  0  0  0  0  0
  -29.5970  -24.8450   17.3430 C   0  0  0  0  0  2  0  0  0  0  0  0
  -28.4200  -23.9540   17.3350 N   0  0  0  0  0  4  0  0  0  0  0  0
  -28.6350  -23.1620   16.7520 H   0  0  0  0  0  0  0  0  0  0  0  0
  -27.6710  -24.4620   16.8950 H   0  0  0  0  0  0  0  0  0  0  0  0
  -27.9770  -23.4630   18.6600 C   0  0  0  0  0  2  0  0  0  0  0  0
  -27.6960  -21.9470   18.6390 C   0  0  0  0  0  2  0  0  0  0  0  0
  -28.5230  -21.1680   19.6850 C   0  0  0  0  0  2  0  0  0  0  0  0
  -29.9940  -20.9220   19.2700 C   0  0  0  0  0  2  0  0  0  0  0  0
  -30.1100  -19.9610   18.0660 C   0  0  0  0  0  2  0  0  0  0  0  0
  -31.4410  -19.1740   17.9710 C   0  0  0  0  0  2  0  0  0  0  0  0
  -32.4450  -20.2710   15.9210 C   0  0  0  0  0  0  0  0  0  0  0  0
  -34.6180  -21.0260   15.0450 C   0  0  0  0  0  2  0  0  0  0  0  0
  -35.4320  -19.8010   14.5790 C   0  0  0  0  0  2  0  0  0  0  0  0
  -36.2120  -19.1690   15.7520 C   0  0  0  0  0  2  0  0  0  0  0  0
  -35.3320  -18.9510   17.0120 C   0  0  0  0  0  3  0  0  0  0  0  0
  -34.5370  -20.2330   17.3350 C   0  0  0  0  0  2  0  0  0  0  0  0
  -33.7480  -20.5870   16.1480 N   0  0  0  0  0  0  0  0  0  0  0  0
  -31.8410  -20.6250   14.9060 O   0  0  0  0  0  0  0  0  0  0  0  0
  -31.9700  -19.2150   16.6010 N   0  0  0  0  0  0  0  0  0  0  0  0
  -31.3700  -18.6800   15.9880 H   0  0  0  0  0  0  0  0  0  0  0  0
  -36.5100  -17.2270   18.5150 C   0  0  0  0  0  0  0  0  0  0  0  0
  -37.2920  -17.3690   19.6280 C   0  0  0  0  0  0  0  0  0  0  0  0
  -37.3600  -18.7730   19.8870 C   0  0  0  0  0  0  0  0  0  0  0  0
  -36.1250  -18.5080   18.1530 N   0  0  0  0  0  0  0  0  0  0  0  0
  -36.6070  -19.4360   19.0180 N   0  0  0  0  0  0  0  0  0  0  0  0
  -38.1490  -19.5260   20.8700 C   0  0  0  0  0  0  0  0  0  0  0  0
  -37.7910  -19.5560   22.2370 C   0  0  0  0  0  3  0  0  0  0  0  0
  -38.5730  -20.2760   23.1670 C   0  0  0  0  0  3  0  0  0  0  0  0
  -39.7280  -20.9660   22.7350 C   0  0  0  0  0  0  0  0  0  0  0  0
  -40.0690  -20.9530   21.3710 C   0  0  0  0  0  3  0  0  0  0  0  0
  -39.2840  -20.2460   20.4460 C   0  0  0  0  0  3  0  0  0  0  0  0
  -40.5390  -21.7060   23.5630 O   0  0  0  0  0  0  0  0  0  0  0  0
  -41.1620  -21.1470   24.6500 C   0  0  0  0  0  0  0  0  0  0  0  0
  -41.7800  -19.8780   24.5840 C   0  0  0  0  0  3  0  0  0  0  0  0
  -42.4690  -19.3720   25.7030 C   0  0  0  0  0  3  0  0  0  0  0  0
  -42.5460  -20.1300   26.8850 C   0  0  0  0  0  0  0  0  0  0  0  0
  -41.9350  -21.3930   26.9540 C   0  0  0  0  0  3  0  0  0  0  0  0
  -41.2450  -21.9000   25.8370 C   0  0  0  0  0  0  0  0  0  0  0  0
  -40.6750  -23.1290   25.9010 F   0  0  0  0  0  0  0  0  0  0  0  0
  -43.2130  -19.6450   27.9570 F   0  0  0  0  0  0  0  0  0  0  0  0
  -38.0210  -16.2750   20.3560 C   0  0  0  0  0  0  0  0  0  0  0  0
  -37.8220  -16.1700   21.6630 N   0  0  0  0  0  0  0  0  0  0  0  0
  -38.7390  -15.4790   19.7530 O   0  0  0  0  0  0  0  0  0  0  0  0
  -37.2100  -16.8110   22.1510 H   0  0  0  0  0  0  0  0  0  0  0  0
  -38.2820  -15.4360   22.1820 H   0  0  0  0  0  0  0  0  0  0  0  0
  -36.1200  -16.1160   17.7730 N   0  0  0  0  0  0  0  0  0  0  0  0
  -36.4050  -15.1770   18.0230 H   0  0  0  0  0  0  0  0  0  0  0  0
  -35.5680  -16.1530   16.9240 H   0  0  0  0  0  0  0  0  0  0  0  0
  -31.2780  -28.8910   14.7060 C   0  0  0  0  0  2  0  0  0  0  0  0
  -32.5520  -28.9890   14.0480 O   0  0  0  0  0  0  0  0  0  0  0  0
  -37.7880  -25.2500   17.1220 C   0  0  0  0  0  0  0  0  0  0  0  0
  -33.3650  -27.8720   13.9650 C   0  0  0  0  0  0  0  0  0  0  0  0
  -37.2520  -24.6460   14.7900 C   0  0  0  0  0  3  0  0  0  0  0  0
  -35.1070  -25.6400   13.8540 C   0  0  0  0  0  0  0  0  0  0  0  0
  -35.4720  -25.6690   16.3190 C   0  0  0  0  0  2  0  0  0  0  0  0
  -34.8290  -26.2550   15.0800 C   0  0  0  0  0  0  0  0  0  0  0  0
  -33.9740  -27.3800   15.1410 C   0  0  0  0  0  3  0  0  0  0  0  0
  -33.6260  -27.1940   12.7480 C   0  0  0  0  0  3  0  0  0  0  0  0
  -34.5150  -26.1150   12.6800 C   0  0  0  0  0  3  0  0  0  0  0  0
  -36.0310  -24.4470   13.8590 C   0  0  0  0  0  2  0  0  0  0  0  0
  -36.8690  -25.2190   16.1180 N   0  0  0  0  0  0  0  0  0  0  0  0
  -38.9260  -24.7900   16.9660 O   0  0  0  0  0  0  0  0  0  0  0  0
  -38.3090  -25.4910   14.0440 C   0  0  0  0  0  0  0  0  0  0  0  0
  -39.0850  -24.8380   13.1660 N   0  0  0  0  0  0  0  0  0  0  0  0
  -38.4050  -26.7050   14.2390 O   0  0  0  0  0  0  0  0  0  0  0  0
  -38.9460  -23.8440   13.0550 H   0  0  0  0  0  0  0  0  0  0  0  0
  -42.0280  -24.0820   11.2180 C   0  0  0  0  0  0  0  0  0  0  0  0
  -40.1320  -25.4330   12.3390 C   0  0  0  0  0  3  0  0  0  0  0  0
  -39.6210  -25.7110   10.9060 C   0  0  0  0  0  2  0  0  0  0  0  0
  -39.9000  -24.5640    9.9320 C   0  0  0  0  0  2  0  0  0  0  0  0
  -41.4040  -24.2870    9.8480 C   0  0  0  0  0  2  0  0  0  0  0  0
  -41.4230  -24.6070   12.3910 C   0  0  0  0  0  0  0  0  0  0  0  0
  -42.0230  -24.3560   13.6440 C   0  0  0  0  0  3  0  0  0  0  0  0
  -43.2070  -23.6000   13.7350 C   0  0  0  0  0  3  0  0  0  0  0  0
  -43.8120  -23.0970   12.5690 C   0  0  0  0  0  3  0  0  0  0  0  0
  -43.2240  -23.3410   11.3150 C   0  0  0  0  0  3  0  0  0  0  0  0
  -37.4420  -25.8510   18.5190 C   0  0  0  0  0  3  0  0  0  0  0  0
  -38.4320  -26.9970   18.9650 C   0  0  1  0  0  0  0  0  0  0  0  0
  -39.8000  -26.4730   19.4610 C   0  0  0  0  0  1  0  0  0  0  0  0
  -38.7020  -27.9750   17.7980 C   0  0  0  0  0  1  0  0  0  0  0  0
  -37.7940  -27.8290   20.1030 C   0  0  0  0  0  1  0  0  0  0  0  0
  -37.4530  -24.7480   19.4880 N   0  0  0  0  0  0  0  0  0  0  0  0
  -36.3910  -24.3480   20.1980 C   0  0  0  0  0  0  0  0  0  0  0  0
  -35.3030  -24.9300   20.1640 O   0  0  0  0  0  0  0  0  0  0  0  0
  -38.2950  -24.1910   19.5220 H   0  0  0  0  0  0  0  0  0  0  0  0
  -35.4320  -22.1010   20.7980 C   0  0  0  0  0  1  0  0  0  0  0  0
  -36.5600  -23.1040   21.0940 C   0  0  0  0  0  3  0  0  0  0  0  0
  -37.7440  -24.2160   22.9340 C   0  0  0  0  0  1  0  0  0  0  0  0
  -36.5860  -23.4190   22.5400 N   0  0  0  0  0  0  0  0  0  0  0  0
  -36.5820  -22.5650   23.0960 H   0  0  0  0  0  0  0  0  0  0  0  0
  1  2  1  0
  2  5  2  0
  3  1  2  0
  3  6  1  0
  4  5  1  0
  5  7  1  0
  6  4  2  0
  8  7  1  0
  8 11  1  0
  9  8  1  0
 10  8  1  0
 12 11  1  0
 12 13  1  0
 14 13  1  0
 15 14  1  0
 16 15  1  0
 17 23  1  0
 17 25  1  0
 18 23  1  0
 19 18  1  0
 19 20  1  0
 21 20  1  0
 21 22  1  0
 21 30  1  0
 23 22  1  0
 24 17  2  0
 25 16  1  0
 26 25  1  0
 27 28  2  0
 28 29  1  0
 28 47  1  0
 29 32  1  0
 30 27  1  0
 30 31  1  0
 31 29  2  0
 32 33  1  0
 33 34  2  0
 35 34  1  0
 35 38  1  0
 36 35  2  0
 37 32  2  0
 37 36  1  0
 38 39  1  0
 39 44  1  0
 40 39  2  0
 40 41  1  0
 41 42  2  0
 42 43  1  0
 42 46  1  0
 44 45  1  0
 44 43  2  0
 47 48  1  0
 48 50  1  0
 48 51  1  0
 49 47  2  0
 52 53  1  0
 52 27  1  0
 54 52  1  0
 55  6  1  0
 56 55  1  0
 58 56  1  0
 58 63  1  0
 59 69  1  0
 59 67  1  0
 60 66  1  0
 60 62  1  0
 62 63  2  0
 62 61  1  0
 64 58  2  0
 65 64  1  0
 65 60  2  0
 66 59  1  0
 67 61  1  0
 67 57  1  0
 68 57  2  0
 69 71  2  0
 70 69  1  0
 72 70  1  0
 73 82  2  0
 73 78  1  0
 74 78  1  0
 74 70  1  0
 75 74  1  0
 76 75  1  0
 77 76  1  0
 77 73  1  0
 78 79  2  0
 79 80  1  0
 81 80  2  0
 82 81  1  0
 83 57  1  0
 83 84  1  0
 83 88  1  0
 84 85  1  1
 84 87  1  0
 86 84  1  0
 88 91  1  0
 88 89  1  0
 89 93  1  0
 90 89  2  0
 93 92  1  0
 93 95  1  0
 95 94  1  0
 95 96  1  0
M  ISO  4  17 100  25 100  55 101  56 101
M  END
>  <TORSDO>  (51) 
F 25

>  <SCORE>  (51) 
-1.995

>  <name>  (51) 
51

>  <ligand_id>  (51) 
51

>  <original_smiles>  (51) 
[H]c1c([H])c([H])c2c(c1[H])C([H])([H])C([H])([H])C([H])([H])C2([H])N([H])C(=O)C1([H])N(C(=O)C([H])(N([H])C(=O)C([H])(N([H])C([H])([H])[H])C([H])([H])[H])C(C([H])([H])[H])(C([H])([H])[H])C([H])([H])[H])C([H])([H])c2c([H])c(OC([H])([H])c3c([H])c([H])c([H])c(C([H])([H])[N+]([H])([H])C([H])([H])C([H])([H])C([H])([H])C([H])([H])C([H])([H])C([H])([H])N([H])C(=O)N4C([H])([H])C([H])([H])C([H])([H])C([H])(n5nc(-c6c([H])c([H])c(Oc7c([H])c([H])c(F)c([H])c7F)c([H])c6[H])c(C(=O)N([H])[H])c5N([H])[H])C4([H])[H])c3[H])c([H])c([H])c2C1([H])[H]

>  <smiles>  (51) 
[H]c1c([H])c([H])c2c(c1[H])C([H])([H])C([H])([H])C([H])([H])C2([H])N([H])C(=O)C1([H])N(C(=O)C([H])(N([H])C(=O)C([H])(N([H])C([H])([H])[H])C([H])([H])[H])C(C([H])([H])[H])(C([H])([H])[H])C([H])([H])[H])C([H])([H])c2c([H])c(OC([H])([H])c3c([H])c([H])c([H])c(C([H])([H])[N+]([H])([H])C([H])([H])C([H])([H])C([H])([H])C([H])([H])C([H])([H])C([H])([H])N([H])C(=O)N4C([H])([H])C([H])([H])C([H])([H])C([H])(n5nc(-c6c([H])c([H])c(Oc7c([H])c([H])c(F)c([H])c7F)c([H])c6[H])c(C(=O)N([H])[H])c5N([H])[H])C4([H])[H])c3[H])c([H])c([H])c2C1([H])[H]

$$$$
52:0:0
     RDKit          3D

 96104  0  0  1  0  0  0  0  0999 V2000
  -30.7580  -22.7670   20.5510 C   0  0  0  0  0  3  0  0  0  0  0  0
  -28.1420  -23.5130   19.8850 C   0  0  0  0  0  3  0  0  0  0  0  0
  -30.2520  -24.0020   21.0090 C   0  0  0  0  0  0  0  0  0  0  0  0
  -28.6470  -22.2830   19.4170 C   0  0  0  0  0  0  0  0  0  0  0  0
  -29.9710  -21.9050   19.7570 C   0  0  0  0  0  0  0  0  0  0  0  0
  -28.9280  -24.3770   20.6730 C   0  0  0  0  0  0  0  0  0  0  0  0
  -31.1440  -24.8930   21.8550 C   0  0  0  0  0  1  0  0  0  0  0  0
  -27.7400  -21.4020   18.5710 C   0  0  0  0  0  1  0  0  0  0  0  0
  -30.5750  -20.5840   19.2990 C   0  0  0  0  0  2  0  0  0  0  0  0
  -30.0040  -19.4610   20.0650 N   0  0  0  0  0  4  0  0  0  0  0  0
  -29.3450  -18.9970   19.4640 H   0  0  0  0  0  0  0  0  0  0  0  0
  -29.4980  -19.8440   20.8460 H   0  0  0  0  0  0  0  0  0  0  0  0
  -30.9760  -18.4690   20.5620 C   0  0  0  0  0  2  0  0  0  0  0  0
  -30.3320  -17.0790   20.7040 C   0  0  0  0  0  2  0  0  0  0  0  0
  -31.3360  -16.0190   21.2030 C   0  0  0  0  0  2  0  0  0  0  0  0
  -30.8550  -14.1790   19.6620 C   0  0  0  0  0  0  0  0  0  0  0  0
  -30.0870  -12.3910   18.1520 C   0  0  0  0  0  2  0  0  0  0  0  0
  -28.9840  -12.8270   17.1740 C   0  0  0  0  0  2  0  0  0  0  0  0
  -27.5980  -12.6570   17.8150 C   0  0  0  0  0  2  0  0  0  0  0  0
  -27.5130  -13.3300   19.2080 C   0  0  0  0  0  3  0  0  0  0  0  0
  -28.7050  -12.9240   20.1000 C   0  0  0  0  0  2  0  0  0  0  0  0
  -29.9760  -13.1780   19.3900 N   0  0  0  0  0  0  0  0  0  0  0  0
  -31.6050  -14.6510   18.8000 O   0  0  0  0  0  0  0  0  0  0  0  0
  -30.8920  -14.6380   20.9410 N   0  0  0  0  0  0  0  0  0  0  0  0
  -25.2470  -13.9150   20.2860 C   0  0  0  0  0  0  0  0  0  0  0  0
  -24.2320  -13.1310   20.7650 C   0  0  0  0  0  0  0  0  0  0  0  0
  -24.6650  -11.7800   20.5980 C   0  0  0  0  0  0  0  0  0  0  0  0
  -26.2370  -13.0420   19.8610 N   0  0  0  0  0  0  0  0  0  0  0  0
  -25.8960  -11.7500   20.1030 N   0  0  0  0  0  0  0  0  0  0  0  0
  -23.9550  -10.5150   20.8240 C   0  0  0  0  0  0  0  0  0  0  0  0
  -24.4910   -9.5070   21.6570 C   0  0  0  0  0  3  0  0  0  0  0  0
  -23.7820   -8.3060   21.8740 C   0  0  0  0  0  3  0  0  0  0  0  0
  -22.5240   -8.1030   21.2590 C   0  0  0  0  0  0  0  0  0  0  0  0
  -22.0060   -9.0980   20.4120 C   0  0  0  0  0  3  0  0  0  0  0  0
  -22.7150  -10.2920   20.1930 C   0  0  0  0  0  3  0  0  0  0  0  0
  -21.7760   -6.9570   21.3910 O   0  0  0  0  0  0  0  0  0  0  0  0
  -21.8570   -6.1700   22.5110 C   0  0  0  0  0  0  0  0  0  0  0  0
  -21.6110   -6.6840   23.8030 C   0  0  0  0  0  3  0  0  0  0  0  0
  -21.6360   -5.8250   24.9200 C   0  0  0  0  0  3  0  0  0  0  0  0
  -21.8980   -4.4530   24.7480 C   0  0  0  0  0  0  0  0  0  0  0  0
  -22.1360   -3.9380   23.4620 C   0  0  0  0  0  3  0  0  0  0  0  0
  -22.1140   -4.7930   22.3460 C   0  0  0  0  0  0  0  0  0  0  0  0
  -22.3250   -4.2890   21.1070 F   0  0  0  0  0  0  0  0  0  0  0  0
  -21.9140   -3.6260   25.8190 F   0  0  0  0  0  0  0  0  0  0  0  0
  -22.8950  -13.6010   21.2620 C   0  0  0  0  0  0  0  0  0  0  0  0
  -22.2980  -12.8710   22.2000 N   0  0  0  0  0  0  0  0  0  0  0  0
  -22.3930  -14.6480   20.8550 O   0  0  0  0  0  0  0  0  0  0  0  0
  -22.7200  -12.0240   22.5490 H   0  0  0  0  0  0  0  0  0  0  0  0
  -21.4080  -13.1680   22.5750 H   0  0  0  0  0  0  0  0  0  0  0  0
  -25.4060  -15.2910   20.1600 N   0  0  0  0  0  0  0  0  0  0  0  0
  -24.6760  -15.9490   20.4140 H   0  0  0  0  0  0  0  0  0  0  0  0
  -26.2140  -15.7370   19.7430 H   0  0  0  0  0  0  0  0  0  0  0  0
  -32.5830  -13.2300   22.1340 C   0  0  0  0  0  1  0  0  0  0  0  0
  -31.1280  -13.7260   22.0760 C   0  0  0  0  0  2  0  0  0  0  0  0
  -28.3050  -25.6870   21.1280 C   0  0  0  0  0  2  0  0  0  0  0  0
  -28.2360  -26.6190   20.0540 O   0  0  0  0  0  0  0  0  0  0  0  0
  -24.5520  -31.8140   23.1940 C   0  0  0  0  0  0  0  0  0  0  0  0
  -27.0960  -27.3700   20.0760 C   0  0  0  0  0  0  0  0  0  0  0  0
  -23.3060  -30.4370   21.5570 C   0  0  0  0  0  3  0  0  0  0  0  0
  -24.7230  -28.8810   20.1170 C   0  0  0  0  0  0  0  0  0  0  0  0
  -25.8330  -30.7640   21.3360 C   0  0  0  0  0  2  0  0  0  0  0  0
  -25.8910  -29.3940   20.6970 C   0  0  0  0  0  0  0  0  0  0  0  0
  -27.0830  -28.6430   20.6810 C   0  0  0  0  0  3  0  0  0  0  0  0
  -25.9200  -26.8590   19.4930 C   0  0  0  0  0  3  0  0  0  0  0  0
  -24.7290  -27.6090   19.5160 C   0  0  0  0  0  3  0  0  0  0  0  0
  -23.4920  -29.7540   20.1750 C   0  0  0  0  0  2  0  0  0  0  0  0
  -24.5820  -31.0190   22.0880 N   0  0  0  0  0  0  0  0  0  0  0  0
  -23.4810  -32.1030   23.7460 O   0  0  0  0  0  0  0  0  0  0  0  0
  -22.6470  -29.4250   22.5200 C   0  0  0  0  0  0  0  0  0  0  0  0
  -21.3180  -29.2750   22.4100 N   0  0  0  0  0  0  0  0  0  0  0  0
  -23.3270  -28.7780   23.3200 O   0  0  0  0  0  0  0  0  0  0  0  0
  -20.8330  -29.8490   21.7330 H   0  0  0  0  0  0  0  0  0  0  0  0
  -17.9210  -28.1660   22.9410 C   0  0  0  0  0  0  0  0  0  0  0  0
  -20.4870  -28.3540   23.1840 C   0  0  0  0  0  3  0  0  0  0  0  0
  -20.5450  -26.9260   22.5950 C   0  0  0  0  0  2  0  0  0  0  0  0
  -19.4230  -26.6400   21.5930 C   0  0  0  0  0  2  0  0  0  0  0  0
  -18.0540  -26.8170   22.2540 C   0  0  0  0  0  2  0  0  0  0  0  0
  -19.0640  -28.8950   23.3620 C   0  0  0  0  0  0  0  0  0  0  0  0
  -18.8870  -30.1610   23.9620 C   0  0  0  0  0  3  0  0  0  0  0  0
  -17.5980  -30.6970   24.1460 C   0  0  0  0  0  3  0  0  0  0  0  0
  -16.4680  -29.9630   23.7430 C   0  0  0  0  0  3  0  0  0  0  0  0
  -16.6310  -28.7000   23.1460 C   0  0  0  0  0  3  0  0  0  0  0  0
  -25.8560  -32.4180   23.8050 C   0  0  0  0  0  3  0  0  0  0  0  0
  -25.5730  -33.8150   24.1590 N   0  0  0  0  0  0  0  0  0  0  0  0
  -25.9090  -34.8720   23.4070 C   0  0  0  0  0  0  0  0  0  0  0  0
  -26.5610  -34.7710   22.3640 O   0  0  0  0  0  0  0  0  0  0  0  0
  -24.9970  -33.9670   24.9730 H   0  0  0  0  0  0  0  0  0  0  0  0
  -24.1990  -36.6870   23.0960 C   0  0  0  0  0  1  0  0  0  0  0  0
  -25.4450  -36.2590   23.8870 C   0  0  0  0  0  3  0  0  0  0  0  0
  -27.6050  -37.1020   24.6950 C   0  0  0  0  0  1  0  0  0  0  0  0
  -26.4890  -37.3000   23.7740 N   0  0  0  0  0  0  0  0  0  0  0  0
  -26.0990  -38.2240   23.9420 H   0  0  0  0  0  0  0  0  0  0  0  0
  -26.3830  -31.6190   25.0600 C   0  0  1  0  0  0  0  0  0  0  0  0
  -25.3040  -31.3770   26.1420 C   0  0  0  0  0  1  0  0  0  0  0  0
  -26.9410  -30.2410   24.6330 C   0  0  0  0  0  1  0  0  0  0  0  0
  -27.5550  -32.3870   25.7160 C   0  0  0  0  0  1  0  0  0  0  0  0
  1  3  1  0
  2  6  1  0
  3  7  1  0
  4  5  1  0
  4  2  2  0
  5  1  2  0
  6  3  2  0
  6 55  1  0
  8  4  1  0
  9  5  1  0
  9 10  1  0
 10 13  1  0
 10 12  1  0
 11 10  1  0
 13 14  1  0
 14 15  1  0
 16 24  1  0
 17 22  1  0
 18 19  1  0
 18 17  1  0
 20 19  1  0
 20 28  1  0
 20 21  1  0
 22 16  1  0
 22 21  1  0
 23 16  2  0
 24 15  1  0
 24 54  1  0
 25 26  2  0
 26 45  1  0
 27 26  1  0
 27 30  1  0
 28 29  1  0
 28 25  1  0
 29 27  2  0
 30 31  1  0
 31 32  2  0
 33 36  1  0
 33 32  1  0
 34 33  2  0
 35 34  1  0
 35 30  2  0
 36 37  1  0
 37 38  1  0
 38 39  2  0
 40 39  1  0
 40 44  1  0
 41 40  2  0
 42 37  2  0
 42 41  1  0
 43 42  1  0
 45 46  1  0
 46 48  1  0
 46 49  1  0
 47 45  2  0
 50 25  1  0
 50 51  1  0
 52 50  1  0
 54 53  1  0
 56 58  1  0
 56 55  1  0
 57 68  2  0
 58 63  1  0
 59 67  1  0
 59 69  1  0
 60 66  1  0
 60 62  1  0
 61 67  1  0
 62 61  1  0
 63 62  2  0
 64 65  1  0
 64 58  2  0
 65 60  2  0
 66 59  1  0
 67 57  1  0
 69 71  2  0
 70 69  1  0
 72 70  1  0
 73 82  2  0
 73 78  1  0
 74 70  1  0
 74 78  1  0
 75 74  1  0
 76 77  1  0
 76 75  1  0
 77 73  1  0
 78 79  2  0
 79 80  1  0
 81 80  2  0
 82 81  1  0
 83 57  1  0
 83 84  1  0
 83 93  1  0
 84 87  1  0
 85 89  1  0
 85 84  1  0
 86 85  2  0
 89 88  1  0
 91 89  1  0
 91 92  1  0
 91 90  1  0
 93 96  1  1
 93 94  1  0
 95 93  1  0
M  ISO  4  16 100  24 100  55 101  56 101
M  END
>  <TORSDO>  (52) 
F 23

>  <SCORE>  (52) 
-9.836

>  <name>  (52) 
52

>  <ligand_id>  (52) 
52

>  <original_smiles>  (52) 
[H]c1c([H])c([H])c2c(c1[H])C([H])([H])C([H])([H])C([H])([H])C2([H])N([H])C(=O)C1([H])N(C(=O)C([H])(N([H])C(=O)C([H])(N([H])C([H])([H])[H])C([H])([H])[H])C(C([H])([H])[H])(C([H])([H])[H])C([H])([H])[H])C([H])([H])c2c([H])c(OC([H])([H])c3c([H])c(C([H])([H])[H])c(C([H])([H])[N+]([H])([H])C([H])([H])C([H])([H])C([H])([H])N(C(=O)N4C([H])([H])C([H])([H])C([H])([H])C([H])(n5nc(-c6c([H])c([H])c(Oc7c([H])c([H])c(F)c([H])c7F)c([H])c6[H])c(C(=O)N([H])[H])c5N([H])[H])C4([H])[H])C([H])([H])C([H])([H])[H])c([H])c3C([H])([H])[H])c([H])c([H])c2C1([H])[H]

>  <smiles>  (52) 
[H]c1c([H])c([H])c2c(c1[H])C([H])([H])C([H])([H])C([H])([H])C2([H])N([H])C(=O)C1([H])N(C(=O)C([H])(N([H])C(=O)C([H])(N([H])C([H])([H])[H])C([H])([H])[H])C(C([H])([H])[H])(C([H])([H])[H])C([H])([H])[H])C([H])([H])c2c([H])c(OC([H])([H])c3c([H])c(C([H])([H])[H])c(C([H])([H])[N+]([H])([H])C([H])([H])C([H])([H])C([H])([H])N(C(=O)N4C([H])([H])C([H])([H])C([H])([H])C([H])(n5nc(-c6c([H])c([H])c(Oc7c([H])c([H])c(F)c([H])c7F)c([H])c6[H])c(C(=O)N([H])[H])c5N([H])[H])C4([H])[H])C([H])([H])C([H])([H])[H])c([H])c3C([H])([H])[H])c([H])c([H])c2C1([H])[H]

$$$$
53:0:0
     RDKit          3D

 88 96  0  0  1  0  0  0  0  0999 V2000
  -28.9570  -21.2660   19.8120 N   0  0  0  0  0  4  0  0  0  0  0  0
  -27.9880  -21.0860   19.5990 H   0  0  0  0  0  0  0  0  0  0  0  0
  -29.3970  -21.3800   18.9130 H   0  0  0  0  0  0  0  0  0  0  0  0
  -28.5880  -18.8850   21.1810 C   0  0  0  0  0  2  0  0  0  0  0  0
  -29.1440  -17.3790   21.2590 C   0  0  0  0  0  2  0  0  0  0  0  0
  -30.1890  -18.4680   19.5010 C   0  0  0  0  0  2  0  0  0  0  0  0
  -29.5540  -19.8110   20.3710 C   0  0  0  0  0  3  0  0  0  0  0  0
  -29.6450  -16.8770   19.8610 C   0  0  2  0  0  0  0  0  0  0  0  0
  -28.4360  -16.7300   18.9160 C   0  0  0  0  0  1  0  0  0  0  0  0
  -30.4720  -15.3090   19.7810 C   0  0  0  0  0  0  0  0  0  0  0  0
  -30.3940  -12.8560   18.9150 C   0  0  0  0  0  2  0  0  0  0  0  0
  -29.3820  -12.6620   17.7540 C   0  0  0  0  0  2  0  0  0  0  0  0
  -27.9720  -12.3750   18.2970 C   0  0  0  0  0  2  0  0  0  0  0  0
  -27.5950  -13.3250   19.4560 C   0  0  0  0  0  3  0  0  0  0  0  0
  -28.7270  -13.4920   20.4940 C   0  0  0  0  0  2  0  0  0  0  0  0
  -29.9220  -13.9910   19.7880 N   0  0  0  0  0  0  0  0  0  0  0  0
  -31.6750  -15.2990   19.4840 O   0  0  0  0  0  0  0  0  0  0  0  0
  -25.2970  -13.8750   20.4260 C   0  0  0  0  0  0  0  0  0  0  0  0
  -24.2630  -13.0920   20.8500 C   0  0  0  0  0  0  0  0  0  0  0  0
  -24.7190  -11.7440   20.7340 C   0  0  0  0  0  0  0  0  0  0  0  0
  -26.3130  -13.0050   20.0660 N   0  0  0  0  0  0  0  0  0  0  0  0
  -25.9820  -11.7130   20.3210 N   0  0  0  0  0  0  0  0  0  0  0  0
  -24.0000  -10.4820   20.9360 C   0  0  0  0  0  0  0  0  0  0  0  0
  -24.4570   -9.5120   21.8530 C   0  0  0  0  0  3  0  0  0  0  0  0
  -23.7340   -8.3160   22.0460 C   0  0  0  0  0  3  0  0  0  0  0  0
  -22.5400   -8.0830   21.3220 C   0  0  0  0  0  0  0  0  0  0  0  0
  -22.1030   -9.0440   20.3940 C   0  0  0  0  0  3  0  0  0  0  0  0
  -22.8270  -10.2310   20.1980 C   0  0  0  0  0  3  0  0  0  0  0  0
  -21.7850   -6.9410   21.4270 O   0  0  0  0  0  0  0  0  0  0  0  0
  -21.7120   -6.2330   22.5990 C   0  0  0  0  0  0  0  0  0  0  0  0
  -21.2490   -6.8200   23.7970 C   0  0  0  0  0  3  0  0  0  0  0  0
  -21.1260   -6.0380   24.9620 C   0  0  0  0  0  3  0  0  0  0  0  0
  -21.4500   -4.6680   24.9300 C   0  0  0  0  0  0  0  0  0  0  0  0
  -21.9040   -4.0800   23.7360 C   0  0  0  0  0  3  0  0  0  0  0  0
  -22.0320   -4.8600   22.5740 C   0  0  0  0  0  0  0  0  0  0  0  0
  -22.4510   -4.2830   21.4210 F   0  0  0  0  0  0  0  0  0  0  0  0
  -21.3240   -3.9150   26.0470 F   0  0  0  0  0  0  0  0  0  0  0  0
  -22.8960  -13.5700   21.2410 C   0  0  0  0  0  0  0  0  0  0  0  0
  -22.2360  -12.8610   22.1500 N   0  0  0  0  0  0  0  0  0  0  0  0
  -22.4260  -14.6100   20.7790 O   0  0  0  0  0  0  0  0  0  0  0  0
  -22.6290  -12.0190   22.5440 H   0  0  0  0  0  0  0  0  0  0  0  0
  -21.3230  -13.1670   22.4580 H   0  0  0  0  0  0  0  0  0  0  0  0
  -25.4350  -15.2500   20.2950 N   0  0  0  0  0  0  0  0  0  0  0  0
  -24.6790  -15.8880   20.5190 H   0  0  0  0  0  0  0  0  0  0  0  0
  -26.2590  -15.7200   19.9470 H   0  0  0  0  0  0  0  0  0  0  0  0
  -28.9970  -22.7990   20.4660 C   0  0  0  0  0  3  0  0  0  0  0  0
  -28.1130  -24.2910   19.9910 C   0  0  0  0  0  3  0  0  0  0  0  0
  -28.2360  -25.8860   20.3830 O   0  0  0  0  0  0  0  0  0  0  0  0
  -24.6210  -31.8140   23.2780 C   0  0  0  0  0  0  0  0  0  0  0  0
  -27.2160  -26.9650   20.2760 C   0  0  0  0  0  0  0  0  0  0  0  0
  -23.4480  -30.4320   21.6120 C   0  0  0  0  0  3  0  0  0  0  0  0
  -24.9150  -28.8340   20.2000 C   0  0  0  0  0  0  0  0  0  0  0  0
  -26.0150  -30.6410   21.5070 C   0  0  0  0  0  2  0  0  0  0  0  0
  -26.0910  -29.2370   20.8450 C   0  0  0  0  0  0  0  0  0  0  0  0
  -27.2350  -28.3230   20.8580 C   0  0  0  0  0  3  0  0  0  0  0  0
  -26.0120  -26.7080   19.5800 C   0  0  0  0  0  3  0  0  0  0  0  0
  -24.8990  -27.5900   19.5480 C   0  0  0  0  0  3  0  0  0  0  0  0
  -23.6970  -29.7550   20.2350 C   0  0  0  0  0  2  0  0  0  0  0  0
  -24.7150  -30.9890   22.1860 N   0  0  0  0  0  0  0  0  0  0  0  0
  -23.5250  -32.1040   23.7850 O   0  0  0  0  0  0  0  0  0  0  0  0
  -22.7350  -29.4350   22.5610 C   0  0  0  0  0  0  0  0  0  0  0  0
  -21.4090  -29.2680   22.4060 N   0  0  0  0  0  0  0  0  0  0  0  0
  -23.3830  -28.8090   23.4040 O   0  0  0  0  0  0  0  0  0  0  0  0
  -20.9390  -29.8230   21.7050 H   0  0  0  0  0  0  0  0  0  0  0  0
  -18.0190  -28.0460   22.8330 C   0  0  0  0  0  0  0  0  0  0  0  0
  -20.5700  -28.3280   23.1590 C   0  0  0  0  0  3  0  0  0  0  0  0
  -20.6940  -26.8950   22.5890 C   0  0  0  0  0  2  0  0  0  0  0  0
  -19.6200  -26.5640   21.5480 C   0  0  0  0  0  2  0  0  0  0  0  0
  -18.2220  -26.6980   22.1580 C   0  0  0  0  0  2  0  0  0  0  0  0
  -19.1220  -28.8170   23.2880 C   0  0  0  0  0  0  0  0  0  0  0  0
  -18.8770  -30.0740   23.8810 C   0  0  0  0  0  3  0  0  0  0  0  0
  -17.5640  -30.5620   24.0230 C   0  0  0  0  0  3  0  0  0  0  0  0
  -16.4770  -29.7890   23.5820 C   0  0  0  0  0  3  0  0  0  0  0  0
  -16.7040  -28.5330   22.9930 C   0  0  0  0  0  3  0  0  0  0  0  0
  -25.8850  -32.4480   23.9340 C   0  0  0  0  0  3  0  0  0  0  0  0
  -26.3380  -31.7020   25.2510 C   0  0  1  0  0  0  0  0  0  0  0  0
  -25.2020  -31.5140   26.2840 C   0  0  0  0  0  1  0  0  0  0  0  0
  -26.9090  -30.3030   24.9270 C   0  0  0  0  0  1  0  0  0  0  0  0
  -27.4800  -32.4930   25.9340 C   0  0  0  0  0  1  0  0  0  0  0  0
  -25.5840  -33.8590   24.2310 N   0  0  0  0  0  0  0  0  0  0  0  0
  -25.9340  -34.8980   23.4620 C   0  0  0  0  0  0  0  0  0  0  0  0
  -26.6100  -34.7690   22.4370 O   0  0  0  0  0  0  0  0  0  0  0  0
  -24.9840  -34.0330   25.0240 H   0  0  0  0  0  0  0  0  0  0  0  0
  -24.2210  -36.7080   23.0890 C   0  0  0  0  0  1  0  0  0  0  0  0
  -25.4660  -36.3040   23.8950 C   0  0  0  0  0  3  0  0  0  0  0  0
  -27.6170  -37.1910   24.6860 C   0  0  0  0  0  1  0  0  0  0  0  0
  -26.5080  -37.3450   23.7480 N   0  0  0  0  0  0  0  0  0  0  0  0
  -26.1100  -38.2710   23.8820 H   0  0  0  0  0  0  0  0  0  0  0  0
  1 46  1  0
  2  1  1  0
  3  1  1  0
  4  5  1  0
  6  8  1  0
  6  7  1  0
  7  1  1  0
  7  4  1  0
  8  9  1  6
  8  5  1  0
 10 16  1  0
 10  8  1  0
 11 16  1  0
 12 13  1  0
 12 11  1  0
 14 13  1  0
 14 21  1  0
 14 15  1  0
 16 15  1  0
 17 10  2  0
 18 19  2  0
 19 38  1  0
 20 19  1  0
 20 23  1  0
 21 22  1  0
 21 18  1  0
 22 20  2  0
 23 24  1  0
 24 25  2  0
 26 29  1  0
 26 25  1  0
 27 26  2  0
 28 27  1  0
 28 23  2  0
 29 30  1  0
 30 31  1  0
 31 32  2  0
 33 32  1  0
 33 37  1  0
 34 33  2  0
 35 30  2  0
 35 34  1  0
 36 35  1  0
 38 39  1  0
 39 42  1  0
 39 41  1  0
 40 38  2  0
 43 18  1  0
 43 44  1  0
 45 43  1  0
 47 48  1  0
 47 46  2  0
 49 60  2  0
 50 48  1  0
 50 55  1  0
 51 59  1  0
 51 61  1  0
 52 58  1  0
 52 54  1  0
 53 59  1  0
 54 55  2  0
 54 53  1  0
 56 50  2  0
 57 56  1  0
 57 52  2  0
 58 51  1  0
 59 49  1  0
 61 63  2  0
 62 61  1  0
 64 62  1  0
 65 74  2  0
 65 70  1  0
 66 62  1  0
 66 70  1  0
 67 66  1  0
 68 69  1  0
 68 67  1  0
 69 65  1  0
 70 71  2  0
 71 72  1  0
 73 72  2  0
 74 73  1  0
 75 49  1  0
 75 80  1  0
 75 76  1  0
 76 79  1  1
 76 77  1  0
 78 76  1  0
 80 83  1  0
 81 85  1  0
 81 80  1  0
 82 81  2  0
 85 84  1  0
 87 88  1  0
 87 85  1  0
 87 86  1  0
M  ISO  4   8 100  10 100  47 101  48 101
M  END
>  <TORSDO>  (53) 
F 19

>  <SCORE>  (53) 
-14.326

>  <name>  (53) 
53

>  <ligand_id>  (53) 
53

>  <original_smiles>  (53) 
[H]c1c([H])c([H])c2c(c1[H])C([H])([H])C([H])([H])C([H])([H])C2([H])N([H])C(=O)C1([H])N(C(=O)C([H])(N([H])C(=O)C([H])(N([H])C([H])([H])[H])C([H])([H])[H])C(C([H])([H])[H])(C([H])([H])[H])C([H])([H])[H])C([H])([H])c2c([H])c(OC([H])([H])C([H])([H])[N+]([H])([H])C3([H])C([H])([H])C([H])([H])C(C(=O)N4C([H])([H])C([H])([H])C([H])([H])C([H])(n5nc(-c6c([H])c([H])c(Oc7c([H])c([H])c(F)c([H])c7F)c([H])c6[H])c(C(=O)N([H])[H])c5N([H])[H])C4([H])[H])(C([H])([H])[H])C3([H])[H])c([H])c([H])c2C1([H])[H]

>  <smiles>  (53) 
[H]c1c([H])c([H])c2c(c1[H])C([H])([H])C([H])([H])C([H])([H])C2([H])N([H])C(=O)C1([H])N(C(=O)C([H])(N([H])C(=O)C([H])(N([H])C([H])([H])[H])C([H])([H])[H])C(C([H])([H])[H])(C([H])([H])[H])C([H])([H])[H])C([H])([H])c2c([H])c(OC([H])([H])C([H])([H])[N+]([H])([H])C3([H])C([H])([H])C([H])([H])C(C(=O)N4C([H])([H])C([H])([H])C([H])([H])C([H])(n5nc(-c6c([H])c([H])c(Oc7c([H])c([H])c(F)c([H])c7F)c([H])c6[H])c(C(=O)N([H])[H])c5N([H])[H])C4([H])[H])(C([H])([H])[H])C3([H])[H])c([H])c([H])c2C1([H])[H]

$$$$
54:0:0
     RDKit          3D

 95103  0  0  1  0  0  0  0  0999 V2000
  -31.8390  -23.0040   20.1270 C   0  0  0  0  0  3  0  0  0  0  0  0
  -31.7300  -24.2300   20.8080 C   0  0  0  0  0  3  0  0  0  0  0  0
  -30.9610  -22.7140   19.0670 C   0  0  0  0  0  3  0  0  0  0  0  0
  -30.7490  -25.1650   20.4190 C   0  0  0  0  0  3  0  0  0  0  0  0
  -29.9650  -23.6360   18.6740 C   0  0  0  0  0  0  0  0  0  0  0  0
  -29.8490  -24.8790   19.3640 C   0  0  0  0  0  0  0  0  0  0  0  0
  -29.0560  -23.2380   17.5100 C   0  0  0  0  0  2  0  0  0  0  0  0
  -27.9940  -22.3040   17.9480 N   0  0  0  0  0  4  0  0  0  0  0  0
  -27.1760  -22.5200   17.4040 H   0  0  0  0  0  0  0  0  0  0  0  0
  -27.7770  -22.4810   18.9140 H   0  0  0  0  0  0  0  0  0  0  0  0
  -28.2790  -20.8640   17.7550 C   0  0  0  0  0  2  0  0  0  0  0  0
  -28.3960  -20.0840   19.0820 C   0  0  0  0  0  2  0  0  0  0  0  0
  -29.1230  -18.7540   18.8550 C   0  0  0  0  0  2  0  0  0  0  0  0
  -29.1690  -17.7930   20.0550 C   0  0  0  0  0  2  0  0  0  0  0  0
  -30.3190  -16.7900   19.8500 C   0  0  0  0  0  2  0  0  0  0  0  0
  -30.8650  -14.4670   20.1140 C   0  0  0  0  0  0  0  0  0  0  0  0
  -30.4510  -12.3410   18.9380 C   0  0  0  0  0  2  0  0  0  0  0  0
  -29.4640  -12.5710   17.7750 C   0  0  0  0  0  2  0  0  0  0  0  0
  -28.0060  -12.4700   18.2640 C   0  0  0  0  0  2  0  0  0  0  0  0
  -27.7390  -13.2890   19.5580 C   0  0  0  0  0  3  0  0  0  0  0  0
  -28.8360  -13.0430   20.6140 C   0  0  0  0  0  2  0  0  0  0  0  0
  -30.1390  -13.3230   19.9900 N   0  0  0  0  0  0  0  0  0  0  0  0
  -31.9520  -14.6260   19.5450 O   0  0  0  0  0  0  0  0  0  0  0  0
  -30.2370  -15.7370   22.0770 C   0  0  0  0  0  1  0  0  0  0  0  0
  -30.2170  -15.5390   20.6250 N   0  0  0  0  0  0  0  0  0  0  0  0
  -25.3760  -13.9070   20.3740 C   0  0  0  0  0  0  0  0  0  0  0  0
  -24.3180  -13.1400   20.7780 C   0  0  0  0  0  0  0  0  0  0  0  0
  -24.7630  -11.7840   20.7140 C   0  0  0  0  0  0  0  0  0  0  0  0
  -26.4030  -13.0200   20.0910 N   0  0  0  0  0  0  0  0  0  0  0  0
  -26.0390  -11.7370   20.3510 N   0  0  0  0  0  0  0  0  0  0  0  0
  -24.0340  -10.5260   20.9280 C   0  0  0  0  0  0  0  0  0  0  0  0
  -24.4780   -9.5640   21.8610 C   0  0  0  0  0  3  0  0  0  0  0  0
  -23.7550   -8.3680   22.0560 C   0  0  0  0  0  3  0  0  0  0  0  0
  -22.5720   -8.1280   21.3200 C   0  0  0  0  0  0  0  0  0  0  0  0
  -22.1460   -9.0780   20.3730 C   0  0  0  0  0  3  0  0  0  0  0  0
  -22.8710  -10.2650   20.1770 C   0  0  0  0  0  3  0  0  0  0  0  0
  -21.8150   -6.9840   21.4240 O   0  0  0  0  0  0  0  0  0  0  0  0
  -21.7490   -6.2700   22.5940 C   0  0  0  0  0  0  0  0  0  0  0  0
  -21.3240   -6.8560   23.8040 C   0  0  0  0  0  3  0  0  0  0  0  0
  -21.2080   -6.0670   24.9670 C   0  0  0  0  0  3  0  0  0  0  0  0
  -21.5080   -4.6910   24.9190 C   0  0  0  0  0  0  0  0  0  0  0  0
  -21.9260   -4.1060   23.7120 C   0  0  0  0  0  3  0  0  0  0  0  0
  -22.0460   -4.8920   22.5530 C   0  0  0  0  0  0  0  0  0  0  0  0
  -22.4310   -4.3170   21.3880 F   0  0  0  0  0  0  0  0  0  0  0  0
  -21.3910   -3.9320   26.0330 F   0  0  0  0  0  0  0  0  0  0  0  0
  -22.9350  -13.6280   21.1150 C   0  0  0  0  0  0  0  0  0  0  0  0
  -22.2380  -12.9360   22.0090 N   0  0  0  0  0  0  0  0  0  0  0  0
  -22.4850  -14.6600   20.6180 O   0  0  0  0  0  0  0  0  0  0  0  0
  -22.6130  -12.0990   22.4340 H   0  0  0  0  0  0  0  0  0  0  0  0
  -21.3180  -13.2530   22.2770 H   0  0  0  0  0  0  0  0  0  0  0  0
  -25.5480  -15.2760   20.2050 N   0  0  0  0  0  0  0  0  0  0  0  0
  -24.7950  -15.9410   20.3500 H   0  0  0  0  0  0  0  0  0  0  0  0
  -26.3990  -15.7100   19.8630 H   0  0  0  0  0  0  0  0  0  0  0  0
  -28.7860  -25.9190   18.9900 C   0  0  0  0  0  2  0  0  0  0  0  0
  -28.4750  -26.8190   20.0590 O   0  0  0  0  0  0  0  0  0  0  0  0
  -24.6240  -31.8980   23.2080 C   0  0  0  0  0  0  0  0  0  0  0  0
  -27.2730  -27.5030   20.0510 C   0  0  0  0  0  0  0  0  0  0  0  0
  -23.4120  -30.5020   21.5690 C   0  0  0  0  0  3  0  0  0  0  0  0
  -24.8590  -28.9860   20.1210 C   0  0  0  0  0  0  0  0  0  0  0  0
  -25.9370  -30.8730   21.3540 C   0  0  0  0  0  2  0  0  0  0  0  0
  -26.0190  -29.5110   20.7000 C   0  0  0  0  0  0  0  0  0  0  0  0
  -27.2220  -28.7730   20.6680 C   0  0  0  0  0  3  0  0  0  0  0  0
  -26.0780  -26.9750   19.5010 C   0  0  0  0  0  3  0  0  0  0  0  0
  -24.8800  -27.7150   19.5250 C   0  0  0  0  0  3  0  0  0  0  0  0
  -23.6120  -29.8380   20.1830 C   0  0  0  0  0  2  0  0  0  0  0  0
  -24.6770  -31.1040   22.1020 N   0  0  0  0  0  0  0  0  0  0  0  0
  -23.5470  -32.1610   23.7590 O   0  0  0  0  0  0  0  0  0  0  0  0
  -22.7740  -29.4680   22.5270 C   0  0  0  0  0  0  0  0  0  0  0  0
  -21.4480  -29.2860   22.4130 N   0  0  0  0  0  0  0  0  0  0  0  0
  -23.4670  -28.8370   23.3280 O   0  0  0  0  0  0  0  0  0  0  0  0
  -20.9490  -29.8440   21.7350 H   0  0  0  0  0  0  0  0  0  0  0  0
  -18.0800  -28.0870   22.9390 C   0  0  0  0  0  0  0  0  0  0  0  0
  -20.6400  -28.3400   23.1850 C   0  0  0  0  0  3  0  0  0  0  0  0
  -20.7360  -26.9150   22.5940 C   0  0  0  0  0  2  0  0  0  0  0  0
  -19.6210  -26.6020   21.5910 C   0  0  0  0  0  2  0  0  0  0  0  0
  -18.2470  -26.7420   22.2510 C   0  0  0  0  0  2  0  0  0  0  0  0
  -19.2030  -28.8440   23.3640 C   0  0  0  0  0  0  0  0  0  0  0  0
  -18.9910  -30.1040   23.9660 C   0  0  0  0  0  3  0  0  0  0  0  0
  -17.6890  -30.6040   24.1490 C   0  0  0  0  0  3  0  0  0  0  0  0
  -16.5790  -29.8430   23.7430 C   0  0  0  0  0  3  0  0  0  0  0  0
  -16.7760  -28.5860   23.1430 C   0  0  0  0  0  3  0  0  0  0  0  0
  -25.9120  -32.5320   23.8210 C   0  0  0  0  0  3  0  0  0  0  0  0
  -25.5960  -33.9260   24.1640 N   0  0  0  0  0  0  0  0  0  0  0  0
  -25.9130  -34.9860   23.4080 C   0  0  0  0  0  0  0  0  0  0  0  0
  -26.5720  -34.8930   22.3690 O   0  0  0  0  0  0  0  0  0  0  0  0
  -25.0110  -34.0700   24.9740 H   0  0  0  0  0  0  0  0  0  0  0  0
  -24.1650  -36.7640   23.0810 C   0  0  0  0  0  1  0  0  0  0  0  0
  -25.4190  -36.3670   23.8780 C   0  0  0  0  0  3  0  0  0  0  0  0
  -27.5590  -37.2610   24.6860 C   0  0  0  0  0  1  0  0  0  0  0  0
  -26.4430  -37.4280   23.7590 N   0  0  0  0  0  0  0  0  0  0  0  0
  -26.0330  -38.3440   23.9160 H   0  0  0  0  0  0  0  0  0  0  0  0
  -26.4470  -31.7530   25.0850 C   0  0  1  0  0  0  0  0  0  0  0  0
  -25.3680  -31.4990   26.1630 C   0  0  0  0  0  1  0  0  0  0  0  0
  -27.0360  -30.3840   24.6730 C   0  0  0  0  0  1  0  0  0  0  0  0
  -27.6000  -32.5500   25.7390 C   0  0  0  0  0  1  0  0  0  0  0  0
  1  2  1  0
  3  1  2  0
  4  2  2  0
  5  3  1  0
  5  6  2  0
  6  4  1  0
  7  8  1  0
  7  5  1  0
  8 10  1  0
  9  8  1  0
 11  8  1  0
 11 12  1  0
 13 12  1  0
 13 14  1  0
 15 14  1  0
 15 25  1  0
 16 25  1  0
 17 22  1  0
 18 19  1  0
 18 17  1  0
 20 19  1  0
 20 29  1  0
 20 21  1  0
 22 16  1  0
 22 21  1  0
 23 16  2  0
 25 24  1  0
 26 27  2  0
 27 46  1  0
 28 27  1  0
 28 31  1  0
 29 30  1  0
 29 26  1  0
 30 28  2  0
 31 32  1  0
 32 33  2  0
 34 37  1  0
 34 33  1  0
 35 34  2  0
 36 35  1  0
 36 31  2  0
 37 38  1  0
 38 39  1  0
 39 40  2  0
 41 40  1  0
 41 45  1  0
 42 41  2  0
 43 38  2  0
 43 42  1  0
 44 43  1  0
 46 47  1  0
 47 50  1  0
 47 49  1  0
 48 46  2  0
 51 52  1  0
 51 26  1  0
 53 51  1  0
 54  6  1  0
 54 55  1  0
 56 67  2  0
 57 55  1  0
 57 62  1  0
 58 66  1  0
 58 68  1  0
 59 65  1  0
 59 61  1  0
 60 66  1  0
 61 60  1  0
 62 61  2  0
 63 64  1  0
 63 57  2  0
 64 59  2  0
 65 58  1  0
 66 56  1  0
 68 70  2  0
 69 68  1  0
 71 69  1  0
 72 81  2  0
 72 77  1  0
 73 69  1  0
 73 77  1  0
 74 73  1  0
 75 76  1  0
 75 74  1  0
 76 72  1  0
 77 78  2  0
 78 79  1  0
 80 79  2  0
 81 80  1  0
 82 56  1  0
 82 83  1  0
 82 92  1  0
 83 86  1  0
 84 88  1  0
 84 83  1  0
 85 84  2  0
 88 87  1  0
 90 88  1  0
 90 91  1  0
 90 89  1  0
 92 95  1  1
 92 93  1  0
 94 92  1  0
M  ISO  4  16 100  25 100  54 101  55 101
M  END
>  <TORSDO>  (54) 
F 24

>  <SCORE>  (54) 
-12.015

>  <name>  (54) 
54

>  <ligand_id>  (54) 
54

>  <original_smiles>  (54) 
[H]c1c([H])c([H])c(C([H])([H])[N+]([H])([H])C([H])([H])C([H])([H])C([H])([H])C([H])([H])C([H])([H])N(C(=O)N2C([H])([H])C([H])([H])C([H])([H])C([H])(n3nc(-c4c([H])c([H])c(Oc5c([H])c([H])c(F)c([H])c5F)c([H])c4[H])c(C(=O)N([H])[H])c3N([H])[H])C2([H])[H])C([H])([H])[H])c(C([H])([H])Oc2c([H])c([H])c3c(c2[H])C([H])([H])N(C(=O)C([H])(N([H])C(=O)C([H])(N([H])C([H])([H])[H])C([H])([H])[H])C(C([H])([H])[H])(C([H])([H])[H])C([H])([H])[H])C([H])(C(=O)N([H])C2([H])c4c([H])c([H])c([H])c([H])c4C([H])([H])C([H])([H])C2([H])[H])C3([H])[H])c1[H]

>  <smiles>  (54) 
[H]c1c([H])c([H])c(C([H])([H])[N+]([H])([H])C([H])([H])C([H])([H])C([H])([H])C([H])([H])C([H])([H])N(C(=O)N2C([H])([H])C([H])([H])C([H])([H])C([H])(n3nc(-c4c([H])c([H])c(Oc5c([H])c([H])c(F)c([H])c5F)c([H])c4[H])c(C(=O)N([H])[H])c3N([H])[H])C2([H])[H])C([H])([H])[H])c(C([H])([H])Oc2c([H])c([H])c3c(c2[H])C([H])([H])N(C(=O)C([H])(N([H])C(=O)C([H])(N([H])C([H])([H])[H])C([H])([H])[H])C(C([H])([H])[H])(C([H])([H])[H])C([H])([H])[H])C([H])(C(=O)N([H])C2([H])c4c([H])c([H])c([H])c([H])c4C([H])([H])C([H])([H])C2([H])[H])C3([H])[H])c1[H]

$$$$
55:0:0
     RDKit          3D

 94102  0  0  1  0  0  0  0  0999 V2000
  -26.2170  -23.9900   23.0170 C   0  0  0  0  0  3  0  0  0  0  0  0
  -26.7840  -25.2360   23.3020 C   0  0  0  0  0  3  0  0  0  0  0  0
  -26.7700  -23.2030   21.9970 C   0  0  0  0  0  3  0  0  0  0  0  0
  -27.7900  -25.7590   22.4710 C   0  0  0  0  0  0  0  0  0  0  0  0
  -27.8760  -23.6350   21.2270 C   0  0  0  0  0  0  0  0  0  0  0  0
  -28.2210  -25.0390   21.3110 C   0  0  0  0  0  0  0  0  0  0  0  0
  -28.3910  -27.0830   22.9190 C   0  0  0  0  0  1  0  0  0  0  0  0
  -28.6040  -22.5590   20.3480 C   0  0  0  0  0  2  0  0  0  0  0  0
  -27.9180  -20.3580   21.6450 C   0  0  0  0  0  1  0  0  0  0  0  0
  -29.0830  -21.1970   21.0590 C   0  0  0  0  0  3  0  0  0  0  0  0
  -29.9980  -20.2230   20.2050 C   0  0  0  0  0  2  0  0  0  0  0  0
  -30.4130  -18.9850   20.9620 N   0  0  0  0  0  4  0  0  0  0  0  0
  -31.1260  -19.2470   21.6230 H   0  0  0  0  0  0  0  0  0  0  0  0
  -29.6030  -18.7100   21.4950 H   0  0  0  0  0  0  0  0  0  0  0  0
  -30.8840  -17.7690   20.2110 C   0  0  0  0  0  2  0  0  0  0  0  0
  -30.8230  -16.4390   21.0600 C   0  0  0  0  0  2  0  0  0  0  0  0
  -31.5500  -15.1780   20.4740 C   0  0  0  0  0  0  0  0  0  0  0  0
  -31.3340  -12.9490   19.4050 C   0  0  0  0  0  2  0  0  0  0  0  0
  -30.4290  -13.1060   18.1640 C   0  0  0  0  0  2  0  0  0  0  0  0
  -28.9390  -12.9880   18.5470 C   0  0  0  0  0  2  0  0  0  0  0  0
  -28.5680  -13.8650   19.7750 C   0  0  0  0  0  3  0  0  0  0  0  0
  -29.5850  -13.6530   20.9180 C   0  0  0  0  0  2  0  0  0  0  0  0
  -30.9200  -13.9670   20.3870 N   0  0  0  0  0  0  0  0  0  0  0  0
  -32.6890  -15.3300   20.0220 O   0  0  0  0  0  0  0  0  0  0  0  0
  -26.1750  -14.5390   20.4390 C   0  0  0  0  0  0  0  0  0  0  0  0
  -25.0730  -13.7970   20.7680 C   0  0  0  0  0  0  0  0  0  0  0  0
  -25.4880  -12.4300   20.7140 C   0  0  0  0  0  0  0  0  0  0  0  0
  -27.1950  -13.6270   20.2130 N   0  0  0  0  0  0  0  0  0  0  0  0
  -26.7830  -12.3530   20.4340 N   0  0  0  0  0  0  0  0  0  0  0  0
  -24.7150  -11.1910   20.8580 C   0  0  0  0  0  0  0  0  0  0  0  0
  -25.0310  -10.2360   21.8490 C   0  0  0  0  0  3  0  0  0  0  0  0
  -24.2610   -9.0600   21.9790 C   0  0  0  0  0  3  0  0  0  0  0  0
  -23.1620   -8.8310   21.1180 C   0  0  0  0  0  0  0  0  0  0  0  0
  -22.8660   -9.7740   20.1180 C   0  0  0  0  0  3  0  0  0  0  0  0
  -23.6360  -10.9430   19.9860 C   0  0  0  0  0  3  0  0  0  0  0  0
  -22.3750   -7.7060   21.1540 O   0  0  0  0  0  0  0  0  0  0  0  0
  -22.1020   -7.0570   22.3320 C   0  0  0  0  0  0  0  0  0  0  0  0
  -21.4970   -7.7150   23.4240 C   0  0  0  0  0  3  0  0  0  0  0  0
  -21.1700   -6.9930   24.5880 C   0  0  0  0  0  3  0  0  0  0  0  0
  -21.4390   -5.6130   24.6600 C   0  0  0  0  0  0  0  0  0  0  0  0
  -22.0380   -4.9540   23.5720 C   0  0  0  0  0  3  0  0  0  0  0  0
  -22.3650   -5.6740   22.4100 C   0  0  0  0  0  0  0  0  0  0  0  0
  -22.9220   -5.0310   21.3560 F   0  0  0  0  0  0  0  0  0  0  0  0
  -21.1200   -4.9170   25.7760 F   0  0  0  0  0  0  0  0  0  0  0  0
  -23.6880  -14.3170   21.0220 C   0  0  0  0  0  0  0  0  0  0  0  0
  -22.9230  -13.6350   21.8680 N   0  0  0  0  0  0  0  0  0  0  0  0
  -23.2930  -15.3610   20.5060 O   0  0  0  0  0  0  0  0  0  0  0  0
  -23.2530  -12.7890   22.3070 H   0  0  0  0  0  0  0  0  0  0  0  0
  -21.9930  -13.9670   22.0800 H   0  0  0  0  0  0  0  0  0  0  0  0
  -26.3890  -15.9080   20.2960 N   0  0  0  0  0  0  0  0  0  0  0  0
  -25.6270  -16.5730   20.3780 H   0  0  0  0  0  0  0  0  0  0  0  0
  -27.2430  -16.3220   19.9490 H   0  0  0  0  0  0  0  0  0  0  0  0
  -28.9760  -25.7780   20.1720 C   0  0  0  0  0  2  0  0  0  0  0  0
  -28.8600  -27.2380   20.0960 O   0  0  0  0  0  0  0  0  0  0  0  0
  -24.6620  -31.9980   23.3400 C   0  0  0  0  0  0  0  0  0  0  0  0
  -27.6300  -27.8860   20.0700 C   0  0  0  0  0  0  0  0  0  0  0  0
  -23.5650  -30.5940   21.6250 C   0  0  0  0  0  3  0  0  0  0  0  0
  -25.1290  -29.2400   20.1250 C   0  0  0  0  0  0  0  0  0  0  0  0
  -26.0580  -31.1500   21.4500 C   0  0  0  0  0  2  0  0  0  0  0  0
  -26.2480  -29.8230   20.7320 C   0  0  0  0  0  0  0  0  0  0  0  0
  -27.5010  -29.1650   20.6750 C   0  0  0  0  0  3  0  0  0  0  0  0
  -26.4880  -27.3250   19.4550 C   0  0  0  0  0  3  0  0  0  0  0  0
  -25.2490  -27.9980   19.4730 C   0  0  0  0  0  3  0  0  0  0  0  0
  -23.8240  -30.0010   20.2130 C   0  0  0  0  0  2  0  0  0  0  0  0
  -24.7800  -31.2610   22.1970 N   0  0  0  0  0  0  0  0  0  0  0  0
  -23.5640  -32.1590   23.8900 O   0  0  0  0  0  0  0  0  0  0  0  0
  -22.9920  -29.4820   22.5340 C   0  0  0  0  0  0  0  0  0  0  0  0
  -21.7000  -29.1660   22.3530 N   0  0  0  0  0  0  0  0  0  0  0  0
  -23.7090  -28.9070   23.3570 O   0  0  0  0  0  0  0  0  0  0  0  0
  -21.1770  -29.6920   21.6650 H   0  0  0  0  0  0  0  0  0  0  0  0
  -18.4690  -27.5690   22.6490 C   0  0  0  0  0  0  0  0  0  0  0  0
  -20.9610  -28.1210   23.0620 C   0  0  0  0  0  3  0  0  0  0  0  0
  -21.2620  -26.7260   22.4680 C   0  0  0  0  0  2  0  0  0  0  0  0
  -20.2600  -26.3000   21.3920 C   0  0  0  0  0  2  0  0  0  0  0  0
  -18.8400  -26.2660   21.9630 C   0  0  0  0  0  2  0  0  0  0  0  0
  -19.4660  -28.4490   23.1510 C   0  0  0  0  0  0  0  0  0  0  0  0
  -19.0690  -29.6620   23.7500 C   0  0  0  0  0  3  0  0  0  0  0  0
  -17.7070  -30.0040   23.8540 C   0  0  0  0  0  3  0  0  0  0  0  0
  -16.7240  -29.1240   23.3690 C   0  0  0  0  0  3  0  0  0  0  0  0
  -17.1050  -27.9090   22.7720 C   0  0  0  0  0  3  0  0  0  0  0  0
  -25.8960  -32.6940   23.9980 C   0  0  0  0  0  3  0  0  0  0  0  0
  -25.5190  -34.0840   24.2880 N   0  0  0  0  0  0  0  0  0  0  0  0
  -25.8460  -35.1360   23.5250 C   0  0  0  0  0  0  0  0  0  0  0  0
  -26.5650  -35.0390   22.5270 O   0  0  0  0  0  0  0  0  0  0  0  0
  -24.8860  -34.2300   25.0610 H   0  0  0  0  0  0  0  0  0  0  0  0
  -24.0690  -36.8500   23.0590 C   0  0  0  0  0  1  0  0  0  0  0  0
  -25.2870  -36.5120   23.9330 C   0  0  0  0  0  3  0  0  0  0  0  0
  -27.3500  -37.4910   24.8360 C   0  0  0  0  0  1  0  0  0  0  0  0
  -26.2830  -37.6020   23.8440 N   0  0  0  0  0  0  0  0  0  0  0  0
  -25.8380  -38.5080   23.9590 H   0  0  0  0  0  0  0  0  0  0  0  0
  -26.3930  -31.9660   25.3070 C   0  0  1  0  0  0  0  0  0  0  0  0
  -25.2660  -31.6780   26.3270 C   0  0  0  0  0  1  0  0  0  0  0  0
  -27.0690  -30.6190   24.9580 C   0  0  0  0  0  1  0  0  0  0  0  0
  -27.4660  -32.8300   26.0110 C   0  0  0  0  0  1  0  0  0  0  0  0
  1  2  1  0
  3  1  2  0
  4  7  1  0
  4  2  2  0
  5  6  2  0
  5  3  1  0
  6  4  1  0
  8 10  1  0
  8  5  1  0
 10  9  1  0
 11 12  1  0
 11 10  1  0
 12 14  1  0
 12 13  1  0
 15 12  1  0
 15 16  1  0
 17 16  1  0
 18 23  1  0
 19 20  1  0
 19 18  1  0
 21 20  1  0
 21 28  1  0
 21 22  1  0
 23 17  1  0
 23 22  1  0
 24 17  2  0
 25 26  2  0
 26 45  1  0
 27 26  1  0
 27 30  1  0
 28 29  1  0
 28 25  1  0
 29 27  2  0
 30 31  1  0
 31 32  2  0
 33 36  1  0
 33 32  1  0
 34 33  2  0
 35 34  1  0
 35 30  2  0
 36 37  1  0
 37 42  2  0
 37 38  1  0
 38 39  2  0
 39 40  1  0
 40 44  1  0
 41 40  2  0
 42 41  1  0
 43 42  1  0
 45 46  1  0
 46 49  1  0
 46 48  1  0
 47 45  2  0
 50 51  1  0
 50 25  1  0
 52 50  1  0
 53  6  1  0
 54 53  1  0
 55 66  2  0
 56 54  1  0
 56 61  1  0
 57 65  1  0
 57 67  1  0
 58 64  1  0
 58 60  1  0
 59 65  1  0
 60 59  1  0
 61 60  2  0
 62 63  1  0
 62 56  2  0
 63 58  2  0
 64 57  1  0
 65 55  1  0
 67 69  2  0
 68 67  1  0
 70 68  1  0
 71 80  2  0
 71 76  1  0
 72 68  1  0
 72 76  1  0
 73 72  1  0
 74 75  1  0
 74 73  1  0
 75 71  1  0
 76 77  2  0
 77 78  1  0
 79 78  2  0
 80 79  1  0
 81 55  1  0
 81 82  1  0
 81 91  1  0
 82 85  1  0
 83 87  1  0
 83 82  1  0
 84 83  2  0
 87 86  1  0
 89 87  1  0
 89 90  1  0
 89 88  1  0
 91 94  1  1
 91 92  1  0
 93 91  1  0
M  ISO  4  16 100  17 100  53 101  54 101
M  END
>  <TORSDO>  (55) 
F 23

>  <SCORE>  (55) 
-8.527

>  <name>  (55) 
55

>  <ligand_id>  (55) 
55

>  <original_smiles>  (55) 
[H]c1c([H])c([H])c2c(c1[H])C([H])([H])C([H])([H])C([H])([H])C2([H])N([H])C(=O)C1([H])N(C(=O)C([H])(N([H])C(=O)C([H])(N([H])C([H])([H])[H])C([H])([H])[H])C(C([H])([H])[H])(C([H])([H])[H])C([H])([H])[H])C([H])([H])c2c([H])c(OC([H])([H])c3c(C([H])([H])[H])c([H])c([H])c([H])c3C([H])([H])C([H])(C([H])([H])[H])C([H])([H])[N+]([H])([H])C([H])([H])C([H])([H])C(=O)N3C([H])([H])C([H])([H])C([H])([H])C([H])(n4nc(-c5c([H])c([H])c(Oc6c([H])c([H])c(F)c([H])c6F)c([H])c5[H])c(C(=O)N([H])[H])c4N([H])[H])C3([H])[H])c([H])c([H])c2C1([H])[H]

>  <smiles>  (55) 
[H]c1c([H])c([H])c2c(c1[H])C([H])([H])C([H])([H])C([H])([H])C2([H])N([H])C(=O)C1([H])N(C(=O)C([H])(N([H])C(=O)C([H])(N([H])C([H])([H])[H])C([H])([H])[H])C(C([H])([H])[H])(C([H])([H])[H])C([H])([H])[H])C([H])([H])c2c([H])c(OC([H])([H])c3c(C([H])([H])[H])c([H])c([H])c([H])c3C([H])([H])C([H])(C([H])([H])[H])C([H])([H])[N+]([H])([H])C([H])([H])C([H])([H])C(=O)N3C([H])([H])C([H])([H])C([H])([H])C([H])(n4nc(-c5c([H])c([H])c(Oc6c([H])c([H])c(F)c([H])c6F)c([H])c5[H])c(C(=O)N([H])[H])c4N([H])[H])C3([H])[H])c([H])c([H])c2C1([H])[H]

$$$$
56:0:0
     RDKit          3D

 96104  0  0  1  0  0  0  0  0999 V2000
  -31.2980  -22.2950   18.3070 C   0  0  0  0  0  2  0  0  0  0  0  0
  -31.1670  -21.2250   19.4130 C   0  0  0  0  0  2  0  0  0  0  0  0
  -31.0650  -19.8670   18.8250 N   0  0  0  0  0  4  0  0  0  0  0  0
  -30.3440  -19.8950   18.1240 H   0  0  0  0  0  0  0  0  0  0  0  0
  -31.9240  -19.6360   18.3500 H   0  0  0  0  0  0  0  0  0  0  0  0
  -31.8630  -18.3200   20.6760 C   0  0  0  0  0  2  0  0  0  0  0  0
  -30.1440  -17.5870   18.9410 C   0  0  0  0  0  2  0  0  0  0  0  0
  -32.1790  -16.7990   20.6390 C   0  0  0  0  0  2  0  0  0  0  0  0
  -29.7840  -16.4040   19.8470 C   0  0  0  0  0  2  0  0  0  0  0  0
  -30.7050  -18.7640   19.7490 C   0  0  0  0  0  3  0  0  0  0  0  0
  -30.9650  -15.7790   20.6650 C   0  0  1  0  0  0  0  0  0  0  0  0
  -31.4050  -14.4230   19.9570 C   0  0  0  0  0  0  0  0  0  0  0  0
  -30.7860  -12.4720   18.5780 C   0  0  0  0  0  2  0  0  0  0  0  0
  -29.7570  -12.9070   17.5090 C   0  0  0  0  0  2  0  0  0  0  0  0
  -28.3100  -12.8540   18.0480 C   0  0  0  0  0  2  0  0  0  0  0  0
  -28.1710  -13.4890   19.4550 C   0  0  0  0  0  3  0  0  0  0  0  0
  -29.3010  -12.9860   20.3780 C   0  0  0  0  0  2  0  0  0  0  0  0
  -30.5940  -13.3320   19.7640 N   0  0  0  0  0  0  0  0  0  0  0  0
  -32.5070  -14.4380   19.4080 O   0  0  0  0  0  0  0  0  0  0  0  0
  -25.8930  -14.2000   20.4010 C   0  0  0  0  0  0  0  0  0  0  0  0
  -24.8050  -13.4700   20.7960 C   0  0  0  0  0  0  0  0  0  0  0  0
  -25.1690  -12.0990   20.6270 C   0  0  0  0  0  0  0  0  0  0  0  0
  -26.8510  -13.2700   20.0240 N   0  0  0  0  0  0  0  0  0  0  0  0
  -26.4240  -11.9990   20.2150 N   0  0  0  0  0  0  0  0  0  0  0  0
  -24.3780  -10.8740   20.7780 C   0  0  0  0  0  0  0  0  0  0  0  0
  -24.7970   -9.8290   21.6290 C   0  0  0  0  0  3  0  0  0  0  0  0
  -24.0110   -8.6650   21.7740 C   0  0  0  0  0  3  0  0  0  0  0  0
  -22.7920   -8.5420   21.0640 C   0  0  0  0  0  0  0  0  0  0  0  0
  -22.3920   -9.5760   20.1990 C   0  0  0  0  0  3  0  0  0  0  0  0
  -23.1790  -10.7300   20.0540 C   0  0  0  0  0  3  0  0  0  0  0  0
  -21.9810   -7.4350   21.1150 O   0  0  0  0  0  0  0  0  0  0  0  0
  -21.9140   -6.6450   22.2350 C   0  0  0  0  0  0  0  0  0  0  0  0
  -21.5780   -7.1740   23.5000 C   0  0  0  0  0  3  0  0  0  0  0  0
  -21.4520   -6.3150   24.6100 C   0  0  0  0  0  3  0  0  0  0  0  0
  -21.6570   -4.9310   24.4540 C   0  0  0  0  0  0  0  0  0  0  0  0
  -21.9900   -4.4040   23.1950 C   0  0  0  0  0  3  0  0  0  0  0  0
  -22.1140   -5.2580   22.0860 C   0  0  0  0  0  0  0  0  0  0  0  0
  -22.4140   -4.7450   20.8690 F   0  0  0  0  0  0  0  0  0  0  0  0
  -21.5290   -4.1030   25.5180 F   0  0  0  0  0  0  0  0  0  0  0  0
  -23.4700  -14.0110   21.2170 C   0  0  0  0  0  0  0  0  0  0  0  0
  -22.7780  -13.3010   22.0990 N   0  0  0  0  0  0  0  0  0  0  0  0
  -23.0570  -15.0930   20.8010 O   0  0  0  0  0  0  0  0  0  0  0  0
  -23.1340  -12.4250   22.4510 H   0  0  0  0  0  0  0  0  0  0  0  0
  -21.8840  -13.6400   22.4290 H   0  0  0  0  0  0  0  0  0  0  0  0
  -26.1410  -15.5640   20.3120 N   0  0  0  0  0  0  0  0  0  0  0  0
  -25.4370  -16.2630   20.5200 H   0  0  0  0  0  0  0  0  0  0  0  0
  -27.0010  -15.9530   19.9500 H   0  0  0  0  0  0  0  0  0  0  0  0
  -30.5330  -16.6990   23.1340 C   0  0  0  0  0  1  0  0  0  0  0  0
  -30.5070  -15.5310   22.1370 C   0  0  0  0  0  2  0  0  0  0  0  0
  -31.4550  -23.7480   18.8110 C   0  0  0  0  0  2  0  0  0  0  0  0
  -30.1890  -24.5180   18.8060 N   0  0  0  0  0  4  0  0  0  0  0  0
  -29.6320  -24.2620   19.6070 H   0  0  0  0  0  0  0  0  0  0  0  0
  -29.6630  -24.2700   17.9810 H   0  0  0  0  0  0  0  0  0  0  0  0
  -30.3820  -25.9910   18.8020 C   0  0  0  0  0  2  0  0  0  0  0  0
  -29.0530  -26.7570   18.7180 C   0  0  0  0  0  2  0  0  0  0  0  0
  -28.4210  -26.7350   19.9920 O   0  0  0  0  0  0  0  0  0  0  0  0
  -24.6110  -31.8360   23.1690 C   0  0  0  0  0  0  0  0  0  0  0  0
  -27.2520  -27.4470   20.0290 C   0  0  0  0  0  0  0  0  0  0  0  0
  -23.3980  -30.4400   21.5230 C   0  0  0  0  0  3  0  0  0  0  0  0
  -24.8480  -28.9130   20.0830 C   0  0  0  0  0  0  0  0  0  0  0  0
  -25.9200  -30.8100   21.3160 C   0  0  0  0  0  2  0  0  0  0  0  0
  -26.0050  -29.4430   20.6710 C   0  0  0  0  0  0  0  0  0  0  0  0
  -27.2090  -28.7100   20.6530 C   0  0  0  0  0  3  0  0  0  0  0  0
  -26.0810  -26.9140   19.4500 C   0  0  0  0  0  3  0  0  0  0  0  0
  -24.8780  -27.6440   19.4760 C   0  0  0  0  0  3  0  0  0  0  0  0
  -23.6030  -29.7700   20.1370 C   0  0  0  0  0  2  0  0  0  0  0  0
  -24.6610  -31.0440   22.0600 N   0  0  0  0  0  0  0  0  0  0  0  0
  -23.5320  -32.1030   23.7180 O   0  0  0  0  0  0  0  0  0  0  0  0
  -22.7570  -29.4120   22.4800 C   0  0  0  0  0  0  0  0  0  0  0  0
  -21.4340  -29.2260   22.3560 N   0  0  0  0  0  0  0  0  0  0  0  0
  -23.4470  -28.7850   23.2880 O   0  0  0  0  0  0  0  0  0  0  0  0
  -20.9390  -29.7870   21.6750 H   0  0  0  0  0  0  0  0  0  0  0  0
  -18.0640  -28.0280   22.8600 C   0  0  0  0  0  0  0  0  0  0  0  0
  -20.6210  -28.2830   23.1250 C   0  0  0  0  0  3  0  0  0  0  0  0
  -20.7210  -26.8570   22.5380 C   0  0  0  0  0  2  0  0  0  0  0  0
  -19.6150  -26.5390   21.5260 C   0  0  0  0  0  2  0  0  0  0  0  0
  -18.2350  -26.6830   22.1760 C   0  0  0  0  0  2  0  0  0  0  0  0
  -19.1830  -28.7860   23.2910 C   0  0  0  0  0  0  0  0  0  0  0  0
  -18.9680  -30.0450   23.8910 C   0  0  0  0  0  3  0  0  0  0  0  0
  -17.6650  -30.5470   24.0650 C   0  0  0  0  0  3  0  0  0  0  0  0
  -16.5580  -29.7850   23.6520 C   0  0  0  0  0  3  0  0  0  0  0  0
  -16.7590  -28.5290   23.0540 C   0  0  0  0  0  3  0  0  0  0  0  0
  -25.9010  -32.4620   23.7860 C   0  0  0  0  0  3  0  0  0  0  0  0
  -25.5900  -33.8510   24.1430 N   0  0  0  0  0  0  0  0  0  0  0  0
  -25.9160  -34.9190   23.4020 C   0  0  0  0  0  0  0  0  0  0  0  0
  -26.5840  -34.8370   22.3670 O   0  0  0  0  0  0  0  0  0  0  0  0
  -24.9950  -33.9890   24.9460 H   0  0  0  0  0  0  0  0  0  0  0  0
  -24.1810  -36.7110   23.0800 C   0  0  0  0  0  1  0  0  0  0  0  0
  -25.4220  -36.2940   23.8850 C   0  0  0  0  0  3  0  0  0  0  0  0
  -27.5530  -37.1670   24.7390 C   0  0  0  0  0  1  0  0  0  0  0  0
  -26.4500  -37.3520   23.7990 N   0  0  0  0  0  0  0  0  0  0  0  0
  -26.0390  -38.2660   23.9680 H   0  0  0  0  0  0  0  0  0  0  0  0
  -26.4420  -31.6700   25.0400 C   0  0  1  0  0  0  0  0  0  0  0  0
  -25.3660  -31.4020   26.1180 C   0  0  0  0  0  1  0  0  0  0  0  0
  -27.0330  -30.3050   24.6120 C   0  0  0  0  0  1  0  0  0  0  0  0
  -27.5920  -32.4650   25.7030 C   0  0  0  0  0  1  0  0  0  0  0  0
  1 50  1  0
  1  2  1  0
  3  2  1  0
  4  3  1  0
  5  3  1  0
  7 10  1  0
  7  9  1  0
  8 11  1  0
  8  6  1  0
  9 11  1  0
 10  3  1  0
 10  6  1  0
 11 49  1  1
 12 11  1  0
 13 18  1  0
 14 15  1  0
 14 13  1  0
 16 15  1  0
 16 23  1  0
 16 17  1  0
 18 12  1  0
 18 17  1  0
 19 12  2  0
 20 21  2  0
 21 40  1  0
 22 25  1  0
 22 21  1  0
 23 24  1  0
 23 20  1  0
 24 22  2  0
 25 26  1  0
 26 27  2  0
 28 31  1  0
 28 27  1  0
 29 28  2  0
 30 29  1  0
 30 25  2  0
 31 32  1  0
 32 33  1  0
 33 34  2  0
 35 34  1  0
 35 39  1  0
 36 35  2  0
 37 32  2  0
 37 36  1  0
 38 37  1  0
 40 41  1  0
 41 44  1  0
 41 43  1  0
 42 40  2  0
 45 20  1  0
 45 46  1  0
 47 45  1  0
 49 48  1  0
 51 50  1  0
 51 52  1  0
 53 51  1  0
 54 51  1  0
 55 54  1  0
 55 56  1  0
 56 58  1  0
 57 68  2  0
 58 63  1  0
 59 67  1  0
 59 69  1  0
 60 66  1  0
 60 62  1  0
 61 67  1  0
 62 61  1  0
 63 62  2  0
 64 65  1  0
 64 58  2  0
 65 60  2  0
 66 59  1  0
 67 57  1  0
 69 71  2  0
 70 69  1  0
 72 70  1  0
 73 82  2  0
 73 78  1  0
 74 70  1  0
 74 78  1  0
 75 74  1  0
 76 77  1  0
 76 75  1  0
 77 73  1  0
 78 79  2  0
 79 80  1  0
 81 80  2  0
 82 81  1  0
 83 57  1  0
 83 84  1  0
 83 93  1  0
 84 87  1  0
 85 89  1  0
 85 84  1  0
 86 85  2  0
 89 88  1  0
 91 89  1  0
 91 92  1  0
 91 90  1  0
 93 96  1  1
 93 94  1  0
 95 93  1  0
M  ISO  4  11 100  12 100  55 101  56 101
M  END
>  <TORSDO>  (56) 
F 24

>  <SCORE>  (56) 
-10.403

>  <name>  (56) 
56

>  <ligand_id>  (56) 
56

>  <original_smiles>  (56) 
[H]c1c([H])c([H])c2c(c1[H])C([H])([H])C([H])([H])C([H])([H])C2([H])N([H])C(=O)C1([H])N(C(=O)C([H])(N([H])C(=O)C([H])(N([H])C([H])([H])[H])C([H])([H])[H])C(C([H])([H])[H])(C([H])([H])[H])C([H])([H])[H])C([H])([H])c2c([H])c(OC([H])([H])C([H])([H])[N+]([H])([H])C([H])([H])C([H])([H])C([H])([H])[N+]([H])([H])C3([H])C([H])([H])C([H])([H])C(C(=O)N4C([H])([H])C([H])([H])C([H])([H])C([H])(n5nc(-c6c([H])c([H])c(Oc7c([H])c([H])c(F)c([H])c7F)c([H])c6[H])c(C(=O)N([H])[H])c5N([H])[H])C4([H])[H])(C([H])([H])C([H])([H])[H])C([H])([H])C3([H])[H])c([H])c([H])c2C1([H])[H]

>  <smiles>  (56) 
[H]c1c([H])c([H])c2c(c1[H])C([H])([H])C([H])([H])C([H])([H])C2([H])N([H])C(=O)C1([H])N(C(=O)C([H])(N([H])C(=O)C([H])(N([H])C([H])([H])[H])C([H])([H])[H])C(C([H])([H])[H])(C([H])([H])[H])C([H])([H])[H])C([H])([H])c2c([H])c(OC([H])([H])C([H])([H])[N+]([H])([H])C([H])([H])C([H])([H])C([H])([H])[N+]([H])([H])C3([H])C([H])([H])C([H])([H])C(C(=O)N4C([H])([H])C([H])([H])C([H])([H])C([H])(n5nc(-c6c([H])c([H])c(Oc7c([H])c([H])c(F)c([H])c7F)c([H])c6[H])c(C(=O)N([H])[H])c5N([H])[H])C4([H])[H])(C([H])([H])C([H])([H])[H])C([H])([H])C3([H])[H])c([H])c([H])c2C1([H])[H]

$$$$
57:0:0
     RDKit          3D

 99107  0  0  1  0  0  0  0  0999 V2000
  -29.0170  -24.3630   21.0430 C   0  0  0  0  0  3  0  0  0  0  0  0
  -27.7040  -22.3240   21.3040 C   0  0  0  0  0  3  0  0  0  0  0  0
  -27.2130  -23.8710   19.4800 C   0  0  0  0  0  3  0  0  0  0  0  0
  -28.7600  -23.1610   21.7380 C   0  0  0  0  0  0  0  0  0  0  0  0
  -28.2470  -24.7230   19.9190 C   0  0  0  0  0  0  0  0  0  0  0  0
  -26.9360  -22.6790   20.1770 C   0  0  0  0  0  0  0  0  0  0  0  0
  -29.5830  -22.8110   22.9450 C   0  0  0  0  0  0  0  0  0  0  0  0
  -29.8490  -21.5120   23.1140 N   0  0  0  0  0  0  0  0  0  0  0  0
  -30.0320  -23.6890   23.6840 O   0  0  0  0  0  0  0  0  0  0  0  0
  -29.4650  -20.8680   22.4370 H   0  0  0  0  0  0  0  0  0  0  0  0
  -30.6970  -20.9680   24.1680 C   0  0  0  0  0  2  0  0  0  0  0  0
  -30.6920  -19.4300   24.1560 C   0  0  0  0  0  2  0  0  0  0  0  0
  -31.0640  -18.8280   22.7910 C   0  0  0  0  0  2  0  0  0  0  0  0
  -31.1670  -17.2920   22.8320 C   0  0  0  0  0  2  0  0  0  0  0  0
  -31.5990  -16.6870   21.4880 C   0  0  0  0  0  2  0  0  0  0  0  0
  -30.4310  -16.4700   20.5060 C   0  0  0  0  0  2  0  0  0  0  0  0
  -30.5140  -14.1180   19.7190 C   0  0  0  0  0  0  0  0  0  0  0  0
  -30.1890  -11.8680   18.7760 C   0  0  0  0  0  2  0  0  0  0  0  0
  -29.1430  -11.9170   17.6450 C   0  0  0  0  0  2  0  0  0  0  0  0
  -27.7190  -11.7650   18.2140 C   0  0  0  0  0  2  0  0  0  0  0  0
  -27.4460  -12.7140   19.4110 C   0  0  0  0  0  3  0  0  0  0  0  0
  -28.5960  -12.6450   20.4410 C   0  0  0  0  0  2  0  0  0  0  0  0
  -29.8630  -12.9280   19.7410 N   0  0  0  0  0  0  0  0  0  0  0  0
  -31.5000  -14.3390   19.0090 O   0  0  0  0  0  0  0  0  0  0  0  0
  -29.9890  -15.0780   20.4900 N   0  0  0  0  0  0  0  0  0  0  0  0
  -29.1820  -14.8320   21.0430 H   0  0  0  0  0  0  0  0  0  0  0  0
  -25.1310  -13.3120   20.3690 C   0  0  0  0  0  0  0  0  0  0  0  0
  -24.1110  -12.5340   20.8480 C   0  0  0  0  0  0  0  0  0  0  0  0
  -24.5720  -11.1830   20.7620 C   0  0  0  0  0  0  0  0  0  0  0  0
  -26.1500  -12.4350   20.0270 N   0  0  0  0  0  0  0  0  0  0  0  0
  -25.8210  -11.1500   20.3170 N   0  0  0  0  0  0  0  0  0  0  0  0
  -23.8750   -9.9180   21.0250 C   0  0  0  0  0  0  0  0  0  0  0  0
  -24.3670   -8.9860   21.9650 C   0  0  0  0  0  3  0  0  0  0  0  0
  -23.6710   -7.7840   22.2150 C   0  0  0  0  0  3  0  0  0  0  0  0
  -22.4680   -7.5050   21.5220 C   0  0  0  0  0  0  0  0  0  0  0  0
  -21.9940   -8.4260   20.5720 C   0  0  0  0  0  3  0  0  0  0  0  0
  -22.6920   -9.6190   20.3210 C   0  0  0  0  0  3  0  0  0  0  0  0
  -21.7380   -6.3510   21.6800 O   0  0  0  0  0  0  0  0  0  0  0  0
  -21.7120   -5.6740   22.8730 C   0  0  0  0  0  0  0  0  0  0  0  0
  -21.2740   -6.2860   24.0680 C   0  0  0  0  0  3  0  0  0  0  0  0
  -21.1970   -5.5340   25.2570 C   0  0  0  0  0  3  0  0  0  0  0  0
  -21.5440   -4.1690   25.2520 C   0  0  0  0  0  0  0  0  0  0  0  0
  -21.9740   -3.5560   24.0610 C   0  0  0  0  0  3  0  0  0  0  0  0
  -22.0540   -4.3060   22.8750 C   0  0  0  0  0  0  0  0  0  0  0  0
  -22.4480   -3.7060   21.7260 F   0  0  0  0  0  0  0  0  0  0  0  0
  -21.4620   -3.4440   26.3920 F   0  0  0  0  0  0  0  0  0  0  0  0
  -22.7490  -13.0030   21.2710 C   0  0  0  0  0  0  0  0  0  0  0  0
  -22.1330  -12.3160   22.2270 N   0  0  0  0  0  0  0  0  0  0  0  0
  -22.2430  -14.0160   20.7900 O   0  0  0  0  0  0  0  0  0  0  0  0
  -22.5570  -11.4980   22.6380 H   0  0  0  0  0  0  0  0  0  0  0  0
  -21.2250  -12.6130   22.5530 H   0  0  0  0  0  0  0  0  0  0  0  0
  -25.2700  -14.6840   20.1790 N   0  0  0  0  0  0  0  0  0  0  0  0
  -24.5200  -15.3370   20.3750 H   0  0  0  0  0  0  0  0  0  0  0  0
  -26.0880  -15.1280   19.7770 H   0  0  0  0  0  0  0  0  0  0  0  0
  -25.8970  -21.8550   19.7500 N   0  0  0  0  0  0  0  0  0  0  0  0
  -25.8440  -20.8930   20.0690 H   0  0  0  0  0  0  0  0  0  0  0  0
  -25.4820  -22.0030   18.8340 H   0  0  0  0  0  0  0  0  0  0  0  0
  -28.5580  -26.0110   19.1790 C   0  0  0  0  0  2  0  0  0  0  0  0
  -28.4050  -27.1700   19.9980 O   0  0  0  0  0  0  0  0  0  0  0  0
  -24.5450  -32.0310   23.4530 C   0  0  0  0  0  0  0  0  0  0  0  0
  -27.1830  -27.8070   20.0740 C   0  0  0  0  0  0  0  0  0  0  0  0
  -23.3240  -30.7190   21.7490 C   0  0  0  0  0  3  0  0  0  0  0  0
  -24.7660  -29.2700   20.2260 C   0  0  0  0  0  0  0  0  0  0  0  0
  -25.8440  -31.1020   21.5440 C   0  0  0  0  0  2  0  0  0  0  0  0
  -25.9260  -29.7710   20.8270 C   0  0  0  0  0  0  0  0  0  0  0  0
  -27.1320  -29.0430   20.7550 C   0  0  0  0  0  3  0  0  0  0  0  0
  -25.9960  -27.3080   19.4860 C   0  0  0  0  0  3  0  0  0  0  0  0
  -24.7930  -28.0340   19.5600 C   0  0  0  0  0  3  0  0  0  0  0  0
  -23.5170  -30.1150   20.3330 C   0  0  0  0  0  2  0  0  0  0  0  0
  -24.5900  -31.2960   22.3070 N   0  0  0  0  0  0  0  0  0  0  0  0
  -23.4700  -32.2700   24.0180 O   0  0  0  0  0  0  0  0  0  0  0  0
  -22.6910  -29.6420   22.6580 C   0  0  0  0  0  0  0  0  0  0  0  0
  -21.3830  -29.3990   22.4720 N   0  0  0  0  0  0  0  0  0  0  0  0
  -23.3720  -29.0300   23.4830 O   0  0  0  0  0  0  0  0  0  0  0  0
  -20.8920  -29.9460   21.7790 H   0  0  0  0  0  0  0  0  0  0  0  0
  -18.0810  -27.9570   22.7230 C   0  0  0  0  0  0  0  0  0  0  0  0
  -20.5840  -28.4030   23.1840 C   0  0  0  0  0  3  0  0  0  0  0  0
  -20.8360  -26.9840   22.6230 C   0  0  0  0  0  2  0  0  0  0  0  0
  -19.8390  -26.5830   21.5300 C   0  0  0  0  0  2  0  0  0  0  0  0
  -18.4050  -26.6250   22.0690 C   0  0  0  0  0  2  0  0  0  0  0  0
  -19.1040  -28.7990   23.2310 C   0  0  0  0  0  0  0  0  0  0  0  0
  -18.7520  -30.0440   23.7960 C   0  0  0  0  0  3  0  0  0  0  0  0
  -17.4060  -30.4490   23.8610 C   0  0  0  0  0  3  0  0  0  0  0  0
  -16.3930  -29.6050   23.3730 C   0  0  0  0  0  3  0  0  0  0  0  0
  -16.7310  -28.3610   22.8090 C   0  0  0  0  0  3  0  0  0  0  0  0
  -25.8380  -32.6300   24.0920 C   0  0  0  0  0  3  0  0  0  0  0  0
  -26.3240  -31.8400   25.3690 C   0  0  1  0  0  0  0  0  0  0  0  0
  -25.2120  -31.6110   26.4180 C   0  0  0  0  0  1  0  0  0  0  0  0
  -26.8970  -30.4570   24.9770 C   0  0  0  0  0  1  0  0  0  0  0  0
  -27.4740  -32.6150   26.0560 C   0  0  0  0  0  1  0  0  0  0  0  0
  -25.5590  -34.0340   24.4210 N   0  0  0  0  0  0  0  0  0  0  0  0
  -25.9240  -35.0780   23.6640 C   0  0  0  0  0  0  0  0  0  0  0  0
  -26.6020  -34.9590   22.6410 O   0  0  0  0  0  0  0  0  0  0  0  0
  -24.9620  -34.2010   25.2160 H   0  0  0  0  0  0  0  0  0  0  0  0
  -24.2310  -36.9020   23.2990 C   0  0  0  0  0  1  0  0  0  0  0  0
  -25.4610  -36.4760   24.1160 C   0  0  0  0  0  3  0  0  0  0  0  0
  -27.6080  -37.3230   24.9550 C   0  0  0  0  0  1  0  0  0  0  0  0
  -26.5140  -37.5080   24.0050 N   0  0  0  0  0  0  0  0  0  0  0  0
  -26.1250  -38.4360   24.1480 H   0  0  0  0  0  0  0  0  0  0  0  0
  1  4  1  0
  2  4  2  0
  3  5  1  0
  3  6  2  0
  4  7  1  0
  5  1  2  0
  6  2  1  0
  7  8  1  0
  7  9  2  0
  8 11  1  0
 10  8  1  0
 12 11  1  0
 13 14  1  0
 13 12  1  0
 15 14  1  0
 16 15  1  0
 17 23  1  0
 17 25  1  0
 18 23  1  0
 19 20  1  0
 19 18  1  0
 21 20  1  0
 21 30  1  0
 21 22  1  0
 23 22  1  0
 24 17  2  0
 25 16  1  0
 25 26  1  0
 27 28  2  0
 28 47  1  0
 29 28  1  0
 29 32  1  0
 30 31  1  0
 30 27  1  0
 31 29  2  0
 32 33  1  0
 33 34  2  0
 35 38  1  0
 35 34  1  0
 36 35  2  0
 37 36  1  0
 37 32  2  0
 38 39  1  0
 39 44  2  0
 39 40  1  0
 40 41  2  0
 42 41  1  0
 42 46  1  0
 43 42  2  0
 44 43  1  0
 45 44  1  0
 47 48  1  0
 48 51  1  0
 48 50  1  0
 49 47  2  0
 52 27  1  0
 52 53  1  0
 54 52  1  0
 55 56  1  0
 55  6  1  0
 57 55  1  0
 58  5  1  0
 58 59  1  0
 59 61  1  0
 60 71  2  0
 61 66  1  0
 62 70  1  0
 62 72  1  0
 63 69  1  0
 63 65  1  0
 64 70  1  0
 65 64  1  0
 66 65  2  0
 67 68  1  0
 67 61  2  0
 68 63  2  0
 69 62  1  0
 70 60  1  0
 72 74  2  0
 73 72  1  0
 75 73  1  0
 76 85  2  0
 76 81  1  0
 77 73  1  0
 77 81  1  0
 78 77  1  0
 79 80  1  0
 79 78  1  0
 80 76  1  0
 81 82  2  0
 82 83  1  0
 84 83  2  0
 85 84  1  0
 86 60  1  0
 86 91  1  0
 86 87  1  0
 87 90  1  1
 87 88  1  0
 89 87  1  0
 91 94  1  0
 92 96  1  0
 92 91  1  0
 93 92  2  0
 96 95  1  0
 98 96  1  0
 98 99  1  0
 98 97  1  0
M  ISO  4  17 100  25 100  58 101  59 101
M  END
>  <TORSDO>  (57) 
F 25

>  <SCORE>  (57) 
-10.349

>  <name>  (57) 
57

>  <ligand_id>  (57) 
57

>  <original_smiles>  (57) 
[H]c1c([H])c([H])c2c(c1[H])C([H])([H])C([H])([H])C([H])([H])C2([H])N([H])C(=O)C1([H])N(C(=O)C([H])(N([H])C(=O)C([H])(N([H])C([H])([H])[H])C([H])([H])[H])C(C([H])([H])[H])(C([H])([H])[H])C([H])([H])[H])C([H])([H])c2c([H])c(OC([H])([H])c3c([H])c(C(=O)N([H])C([H])([H])C([H])([H])C([H])([H])C([H])([H])C([H])([H])C([H])([H])N([H])C(=O)N4C([H])([H])C([H])([H])C([H])([H])C([H])(n5nc(-c6c([H])c([H])c(Oc7c([H])c([H])c(F)c([H])c7F)c([H])c6[H])c(C(=O)N([H])[H])c5N([H])[H])C4([H])[H])c([H])c(N([H])[H])c3[H])c([H])c([H])c2C1([H])[H]

>  <smiles>  (57) 
[H]c1c([H])c([H])c2c(c1[H])C([H])([H])C([H])([H])C([H])([H])C2([H])N([H])C(=O)C1([H])N(C(=O)C([H])(N([H])C(=O)C([H])(N([H])C([H])([H])[H])C([H])([H])[H])C(C([H])([H])[H])(C([H])([H])[H])C([H])([H])[H])C([H])([H])c2c([H])c(OC([H])([H])c3c([H])c(C(=O)N([H])C([H])([H])C([H])([H])C([H])([H])C([H])([H])C([H])([H])C([H])([H])N([H])C(=O)N4C([H])([H])C([H])([H])C([H])([H])C([H])(n5nc(-c6c([H])c([H])c(Oc7c([H])c([H])c(F)c([H])c7F)c([H])c6[H])c(C(=O)N([H])[H])c5N([H])[H])C4([H])[H])c([H])c(N([H])[H])c3[H])c([H])c([H])c2C1([H])[H]

$$$$
58:0:0
     RDKit          3D

 92100  0  0  1  0  0  0  0  0999 V2000
  -29.1360  -23.6530   18.2330 C   0  0  0  0  0  3  0  0  0  0  0  0
  -28.2720  -23.0970   20.4410 C   0  0  0  0  0  3  0  0  0  0  0  0
  -29.0020  -25.0250   18.5260 C   0  0  0  0  0  3  0  0  0  0  0  0
  -28.1460  -24.4700   20.7350 C   0  0  0  0  0  3  0  0  0  0  0  0
  -28.7760  -22.6780   19.1900 C   0  0  0  0  0  0  0  0  0  0  0  0
  -28.5090  -25.4420   19.7800 C   0  0  0  0  0  0  0  0  0  0  0  0
  -28.4480  -26.7830   20.0790 O   0  0  0  0  0  0  0  0  0  0  0  0
  -24.6140  -31.8810   23.2320 C   0  0  0  0  0  0  0  0  0  0  0  0
  -27.2440  -27.4540   20.1190 C   0  0  0  0  0  0  0  0  0  0  0  0
  -23.3940  -30.4820   21.5960 C   0  0  0  0  0  3  0  0  0  0  0  0
  -24.8370  -28.9390   20.1640 C   0  0  0  0  0  0  0  0  0  0  0  0
  -25.9180  -30.8390   21.3840 C   0  0  0  0  0  2  0  0  0  0  0  0
  -25.9970  -29.4680   20.7460 C   0  0  0  0  0  0  0  0  0  0  0  0
  -27.1990  -28.7300   20.7220 C   0  0  0  0  0  3  0  0  0  0  0  0
  -26.0640  -26.9290   19.5430 C   0  0  0  0  0  3  0  0  0  0  0  0
  -24.8650  -27.6660   19.5630 C   0  0  0  0  0  3  0  0  0  0  0  0
  -23.5930  -29.7960   20.2180 C   0  0  0  0  0  2  0  0  0  0  0  0
  -24.6600  -31.0830   22.1290 N   0  0  0  0  0  0  0  0  0  0  0  0
  -23.5370  -32.1570   23.7780 O   0  0  0  0  0  0  0  0  0  0  0  0
  -22.7460  -29.4650   22.5620 C   0  0  0  0  0  0  0  0  0  0  0  0
  -21.4200  -29.2880   22.4380 N   0  0  0  0  0  0  0  0  0  0  0  0
  -23.4300  -28.8380   23.3740 O   0  0  0  0  0  0  0  0  0  0  0  0
  -20.9310  -29.8440   21.7510 H   0  0  0  0  0  0  0  0  0  0  0  0
  -18.0420  -28.1100   22.9450 C   0  0  0  0  0  0  0  0  0  0  0  0
  -20.6010  -28.3550   23.2120 C   0  0  0  0  0  3  0  0  0  0  0  0
  -20.6960  -26.9230   22.6350 C   0  0  0  0  0  2  0  0  0  0  0  0
  -19.5890  -26.6080   21.6230 C   0  0  0  0  0  2  0  0  0  0  0  0
  -18.2080  -26.7610   22.2680 C   0  0  0  0  0  2  0  0  0  0  0  0
  -19.1650  -28.8660   23.3740 C   0  0  0  0  0  0  0  0  0  0  0  0
  -18.9530  -30.1300   23.9640 C   0  0  0  0  0  3  0  0  0  0  0  0
  -17.6500  -30.6380   24.1340 C   0  0  0  0  0  3  0  0  0  0  0  0
  -16.5430  -29.8770   23.7230 C   0  0  0  0  0  3  0  0  0  0  0  0
  -16.7390  -28.6160   23.1330 C   0  0  0  0  0  3  0  0  0  0  0  0
  -25.9070  -32.5060   23.8470 C   0  0  0  0  0  3  0  0  0  0  0  0
  -25.6050  -33.9040   24.1800 N   0  0  0  0  0  0  0  0  0  0  0  0
  -25.9400  -34.9560   23.4230 C   0  0  0  0  0  0  0  0  0  0  0  0
  -26.6070  -34.8510   22.3890 O   0  0  0  0  0  0  0  0  0  0  0  0
  -25.0080  -34.0590   24.9800 H   0  0  0  0  0  0  0  0  0  0  0  0
  -24.2170  -36.7540   23.0810 C   0  0  0  0  0  1  0  0  0  0  0  0
  -25.4620  -36.3450   23.8840 C   0  0  0  0  0  3  0  0  0  0  0  0
  -27.6080  -37.2160   24.6990 C   0  0  0  0  0  1  0  0  0  0  0  0
  -26.4970  -37.3950   23.7680 N   0  0  0  0  0  0  0  0  0  0  0  0
  -26.0960  -38.3150   23.9260 H   0  0  0  0  0  0  0  0  0  0  0  0
  -26.4280  -31.7260   25.1160 C   0  0  1  0  0  0  0  0  0  0  0  0
  -25.3400  -31.4920   26.1880 C   0  0  0  0  0  1  0  0  0  0  0  0
  -26.9990  -30.3470   24.7130 C   0  0  0  0  0  1  0  0  0  0  0  0
  -27.5890  -32.5120   25.7690 C   0  0  0  0  0  1  0  0  0  0  0  0
  -28.8830  -21.1940   18.8470 C   0  0  0  0  0  2  0  0  0  0  0  0
  -29.6460  -20.3270   19.8850 C   0  0  0  0  0  2  0  0  0  0  0  0
  -30.8980  -18.6710   18.3700 C   0  0  0  0  0  1  0  0  0  0  0  0
  -29.8000  -18.8490   19.4370 C   0  0  0  0  0  3  0  0  0  0  0  0
  -30.0990  -17.9560   20.5850 N   0  0  0  0  0  4  0  0  0  0  0  0
  -31.0990  -17.8260   20.6220 H   0  0  0  0  0  0  0  0  0  0  0  0
  -29.8220  -18.4040   21.4460 H   0  0  0  0  0  0  0  0  0  0  0  0
  -29.4290  -16.6320   20.5180 C   0  0  0  0  0  2  0  0  0  0  0  0
  -30.1070  -15.5480   21.3940 C   0  0  0  0  0  2  0  0  0  0  0  0
  -30.6940  -14.4040   20.5450 C   0  0  0  0  0  0  0  0  0  0  0  0
  -30.3630  -12.3140   19.2730 C   0  0  0  0  0  2  0  0  0  0  0  0
  -29.4220  -12.5880   18.0800 C   0  0  0  0  0  2  0  0  0  0  0  0
  -27.9450  -12.4630   18.5020 C   0  0  0  0  0  2  0  0  0  0  0  0
  -27.6280  -13.2690   19.7900 C   0  0  0  0  0  3  0  0  0  0  0  0
  -28.6670  -12.9400   20.8830 C   0  0  0  0  0  2  0  0  0  0  0  0
  -30.0030  -13.2500   20.3490 N   0  0  0  0  0  0  0  0  0  0  0  0
  -31.7750  -14.6270   19.9880 O   0  0  0  0  0  0  0  0  0  0  0  0
  -25.2300  -13.9190   20.4720 C   0  0  0  0  0  0  0  0  0  0  0  0
  -24.1510  -13.1600   20.8370 C   0  0  0  0  0  0  0  0  0  0  0  0
  -24.5940  -11.8030   20.8130 C   0  0  0  0  0  0  0  0  0  0  0  0
  -26.2650  -13.0210   20.2530 N   0  0  0  0  0  0  0  0  0  0  0  0
  -25.8840  -11.7450   20.5120 N   0  0  0  0  0  0  0  0  0  0  0  0
  -23.8480  -10.5520   21.0040 C   0  0  0  0  0  0  0  0  0  0  0  0
  -24.2740   -9.5680   21.9230 C   0  0  0  0  0  3  0  0  0  0  0  0
  -23.5300   -8.3810   22.0960 C   0  0  0  0  0  3  0  0  0  0  0  0
  -22.3460   -8.1730   21.3510 C   0  0  0  0  0  0  0  0  0  0  0  0
  -21.9410   -9.1450   20.4180 C   0  0  0  0  0  3  0  0  0  0  0  0
  -22.6880  -10.3230   20.2430 C   0  0  0  0  0  3  0  0  0  0  0  0
  -21.5720   -7.0420   21.4370 O   0  0  0  0  0  0  0  0  0  0  0  0
  -21.5340   -6.2820   22.5780 C   0  0  0  0  0  0  0  0  0  0  0  0
  -21.1590   -6.8250   23.8260 C   0  0  0  0  0  3  0  0  0  0  0  0
  -21.0660   -5.9940   24.9580 C   0  0  0  0  0  3  0  0  0  0  0  0
  -21.3400   -4.6160   24.8470 C   0  0  0  0  0  0  0  0  0  0  0  0
  -21.7100   -4.0720   23.6040 C   0  0  0  0  0  3  0  0  0  0  0  0
  -21.8050   -4.9010   22.4740 C   0  0  0  0  0  0  0  0  0  0  0  0
  -22.1400   -4.3650   21.2760 F   0  0  0  0  0  0  0  0  0  0  0  0
  -21.2450   -3.8140   25.9330 F   0  0  0  0  0  0  0  0  0  0  0  0
  -22.7590  -13.6570   21.1030 C   0  0  0  0  0  0  0  0  0  0  0  0
  -22.0220  -12.9710   21.9690 N   0  0  0  0  0  0  0  0  0  0  0  0
  -22.3360  -14.6860   20.5800 O   0  0  0  0  0  0  0  0  0  0  0  0
  -22.3790  -12.1300   22.4010 H   0  0  0  0  0  0  0  0  0  0  0  0
  -21.0910  -13.2850   22.2030 H   0  0  0  0  0  0  0  0  0  0  0  0
  -25.4100  -15.2870   20.2860 N   0  0  0  0  0  0  0  0  0  0  0  0
  -24.6300  -15.9320   20.3360 H   0  0  0  0  0  0  0  0  0  0  0  0
  -26.2380  -15.7040   19.8800 H   0  0  0  0  0  0  0  0  0  0  0  0
  1  3  2  0
  1  5  1  0
  2  4  1  0
  3  6  1  0
  5  2  2  0
  6  7  1  0
  6  4  2  0
  7  9  1  0
  8 19  2  0
  9 14  1  0
 10 18  1  0
 10 20  1  0
 11 17  1  0
 11 13  1  0
 12 18  1  0
 13 12  1  0
 14 13  2  0
 15 16  1  0
 15  9  2  0
 16 11  2  0
 17 10  1  0
 18  8  1  0
 20 22  2  0
 21 20  1  0
 23 21  1  0
 24 33  2  0
 24 29  1  0
 25 21  1  0
 25 29  1  0
 26 25  1  0
 27 28  1  0
 27 26  1  0
 28 24  1  0
 29 30  2  0
 30 31  1  0
 32 31  2  0
 33 32  1  0
 34  8  1  0
 34 35  1  0
 34 44  1  0
 35 38  1  0
 36 40  1  0
 36 35  1  0
 37 36  2  0
 40 39  1  0
 42 40  1  0
 42 43  1  0
 42 41  1  0
 44 47  1  1
 44 45  1  0
 46 44  1  0
 48  5  1  0
 48 49  1  0
 51 50  1  0
 51 49  1  0
 51 52  1  0
 52 53  1  0
 52 54  1  0
 55 52  1  0
 55 56  1  0
 57 56  1  0
 58 63  1  0
 59 60  1  0
 59 58  1  0
 61 60  1  0
 61 68  1  0
 61 62  1  0
 63 57  1  0
 63 62  1  0
 64 57  2  0
 65 66  2  0
 66 85  1  0
 67 66  1  0
 67 70  1  0
 68 65  1  0
 68 69  1  0
 69 67  2  0
 70 71  1  0
 71 72  2  0
 73 76  1  0
 73 72  1  0
 74 73  2  0
 75 74  1  0
 75 70  2  0
 76 77  1  0
 77 78  1  0
 78 79  2  0
 80 79  1  0
 80 84  1  0
 81 80  2  0
 82 77  2  0
 82 81  1  0
 83 82  1  0
 85 86  1  0
 86 89  1  0
 86 88  1  0
 87 85  2  0
 90 91  1  0
 90 65  1  0
 92 90  1  0
M  ISO  4   6 101   7 101  56 100  57 100
M  END
>  <TORSDO>  (58) 
F 22

>  <SCORE>  (58) 
-13.053

>  <name>  (58) 
58

>  <ligand_id>  (58) 
58

>  <original_smiles>  (58) 
[H]c1c([H])c([H])c2c(c1[H])C([H])([H])C([H])([H])C([H])([H])C2([H])N([H])C(=O)C1([H])N(C(=O)C([H])(N([H])C(=O)C([H])(N([H])C([H])([H])[H])C([H])([H])[H])C(C([H])([H])[H])(C([H])([H])[H])C([H])([H])[H])C([H])([H])c2c([H])c(Oc3c([H])c([H])c(C([H])([H])C([H])([H])C([H])(C([H])([H])[H])[N+]([H])([H])C([H])([H])C([H])([H])C(=O)N4C([H])([H])C([H])([H])C([H])([H])C([H])(n5nc(-c6c([H])c([H])c(Oc7c([H])c([H])c(F)c([H])c7F)c([H])c6[H])c(C(=O)N([H])[H])c5N([H])[H])C4([H])[H])c([H])c3[H])c([H])c([H])c2C1([H])[H]

>  <smiles>  (58) 
[H]c1c([H])c([H])c2c(c1[H])C([H])([H])C([H])([H])C([H])([H])C2([H])N([H])C(=O)C1([H])N(C(=O)C([H])(N([H])C(=O)C([H])(N([H])C([H])([H])[H])C([H])([H])[H])C(C([H])([H])[H])(C([H])([H])[H])C([H])([H])[H])C([H])([H])c2c([H])c(Oc3c([H])c([H])c(C([H])([H])C([H])([H])C([H])(C([H])([H])[H])[N+]([H])([H])C([H])([H])C([H])([H])C(=O)N4C([H])([H])C([H])([H])C([H])([H])C([H])(n5nc(-c6c([H])c([H])c(Oc7c([H])c([H])c(F)c([H])c7F)c([H])c6[H])c(C(=O)N([H])[H])c5N([H])[H])C4([H])[H])c([H])c3[H])c([H])c([H])c2C1([H])[H]

$$$$
59:0:0
     RDKit          3D

 96104  0  0  1  0  0  0  0  0999 V2000
  -32.5030  -22.7190   19.2420 C   0  0  0  0  0  3  0  0  0  0  0  0
  -32.5730  -21.5230   19.9810 C   0  0  0  0  0  3  0  0  0  0  0  0
  -31.7340  -23.7920   19.7250 C   0  0  0  0  0  3  0  0  0  0  0  0
  -31.1430  -22.4910   21.7040 C   0  0  0  0  0  3  0  0  0  0  0  0
  -31.8750  -21.4020   21.2000 C   0  0  0  0  0  0  0  0  0  0  0  0
  -31.0710  -23.6890   20.9700 C   0  0  0  0  0  0  0  0  0  0  0  0
  -31.8400  -20.0760   21.9250 C   0  0  0  0  0  2  0  0  0  0  0  0
  -30.9160  -19.1080   21.1760 C   0  0  0  0  0  2  0  0  0  0  0  0
  -30.9310  -17.7450   21.7340 N   0  0  0  0  0  4  0  0  0  0  0  0
  -30.5560  -17.7730   22.6700 H   0  0  0  0  0  0  0  0  0  0  0  0
  -31.8840  -17.4250   21.7810 H   0  0  0  0  0  0  0  0  0  0  0  0
  -30.1370  -16.8100   20.9090 C   0  0  0  0  0  2  0  0  0  0  0  0
  -30.1270  -15.3700   21.4580 C   0  0  0  0  0  2  0  0  0  0  0  0
  -30.6800  -14.3350   20.4520 C   0  0  0  0  0  0  0  0  0  0  0  0
  -30.3390  -12.2880   19.1040 C   0  0  0  0  0  2  0  0  0  0  0  0
  -29.3600  -12.5690   17.9470 C   0  0  0  0  0  2  0  0  0  0  0  0
  -27.8910  -12.4440   18.4050 C   0  0  0  0  0  2  0  0  0  0  0  0
  -27.6080  -13.2080   19.7270 C   0  0  0  0  0  3  0  0  0  0  0  0
  -28.6790  -12.8370   20.7750 C   0  0  0  0  0  2  0  0  0  0  0  0
  -29.9940  -13.1860   20.2140 N   0  0  0  0  0  0  0  0  0  0  0  0
  -31.7310  -14.6080   19.8570 O   0  0  0  0  0  0  0  0  0  0  0  0
  -25.2170  -13.8380   20.4600 C   0  0  0  0  0  0  0  0  0  0  0  0
  -24.1500  -13.0710   20.8480 C   0  0  0  0  0  0  0  0  0  0  0  0
  -24.6050  -11.7180   20.8140 C   0  0  0  0  0  0  0  0  0  0  0  0
  -26.2560  -12.9500   20.2190 N   0  0  0  0  0  0  0  0  0  0  0  0
  -25.8890  -11.6700   20.4820 N   0  0  0  0  0  0  0  0  0  0  0  0
  -23.8790  -10.4590   21.0190 C   0  0  0  0  0  0  0  0  0  0  0  0
  -24.3350   -9.4870   21.9360 C   0  0  0  0  0  3  0  0  0  0  0  0
  -23.6100   -8.2910   22.1310 C   0  0  0  0  0  3  0  0  0  0  0  0
  -22.4170   -8.0580   21.4060 C   0  0  0  0  0  0  0  0  0  0  0  0
  -21.9810   -9.0180   20.4760 C   0  0  0  0  0  3  0  0  0  0  0  0
  -22.7050  -10.2050   20.2800 C   0  0  0  0  0  3  0  0  0  0  0  0
  -21.6620   -6.9150   21.5090 O   0  0  0  0  0  0  0  0  0  0  0  0
  -21.6530   -6.1600   22.6540 C   0  0  0  0  0  0  0  0  0  0  0  0
  -21.2880   -6.7050   23.9040 C   0  0  0  0  0  3  0  0  0  0  0  0
  -21.2220   -5.8760   25.0420 C   0  0  0  0  0  3  0  0  0  0  0  0
  -21.5140   -4.5040   24.9310 C   0  0  0  0  0  0  0  0  0  0  0  0
  -21.8720   -3.9570   23.6860 C   0  0  0  0  0  3  0  0  0  0  0  0
  -21.9380   -4.7830   22.5500 C   0  0  0  0  0  0  0  0  0  0  0  0
  -22.2630   -4.2470   21.3490 F   0  0  0  0  0  0  0  0  0  0  0  0
  -21.4430   -3.7070   26.0230 F   0  0  0  0  0  0  0  0  0  0  0  0
  -22.7580  -13.5550   21.1420 C   0  0  0  0  0  0  0  0  0  0  0  0
  -22.0420  -12.8650   22.0260 N   0  0  0  0  0  0  0  0  0  0  0  0
  -22.3120  -14.5770   20.6260 O   0  0  0  0  0  0  0  0  0  0  0  0
  -22.4110  -12.0380   22.4720 H   0  0  0  0  0  0  0  0  0  0  0  0
  -21.1100  -13.1690   22.2620 H   0  0  0  0  0  0  0  0  0  0  0  0
  -25.3810  -15.2060   20.2750 N   0  0  0  0  0  0  0  0  0  0  0  0
  -24.6170  -15.8630   20.3890 H   0  0  0  0  0  0  0  0  0  0  0  0
  -26.2240  -15.6400   19.9200 H   0  0  0  0  0  0  0  0  0  0  0  0
  -30.2270  -24.8330   21.4880 C   0  0  0  0  0  2  0  0  0  0  0  0
  -31.0190  -26.0790   21.5300 N   0  0  0  0  0  4  0  0  0  0  0  0
  -31.7180  -26.0090   20.8090 H   0  0  0  0  0  0  0  0  0  0  0  0
  -31.5070  -26.1060   22.4100 H   0  0  0  0  0  0  0  0  0  0  0  0
  -30.2680  -27.3420   21.3480 C   0  0  0  0  0  2  0  0  0  0  0  0
  -29.6070  -27.4300   19.9620 C   0  0  0  0  0  2  0  0  0  0  0  0
  -28.3610  -26.7440   20.0030 O   0  0  0  0  0  0  0  0  0  0  0  0
  -24.5660  -31.8950   23.2420 C   0  0  0  0  0  0  0  0  0  0  0  0
  -27.2140  -27.4820   20.1480 C   0  0  0  0  0  0  0  0  0  0  0  0
  -23.3560  -30.4890   21.6040 C   0  0  0  0  0  3  0  0  0  0  0  0
  -24.8050  -28.9360   20.1990 C   0  0  0  0  0  0  0  0  0  0  0  0
  -25.8780  -30.8490   21.4070 C   0  0  0  0  0  2  0  0  0  0  0  0
  -25.9580  -29.4760   20.7810 C   0  0  0  0  0  0  0  0  0  0  0  0
  -27.1650  -28.7550   20.7610 C   0  0  0  0  0  3  0  0  0  0  0  0
  -26.0360  -26.9280   19.6130 C   0  0  0  0  0  3  0  0  0  0  0  0
  -24.8310  -27.6530   19.6260 C   0  0  0  0  0  3  0  0  0  0  0  0
  -23.5640  -29.7960   20.2330 C   0  0  0  0  0  2  0  0  0  0  0  0
  -24.6190  -31.0920   22.1420 N   0  0  0  0  0  0  0  0  0  0  0  0
  -23.4860  -32.1750   23.7790 O   0  0  0  0  0  0  0  0  0  0  0  0
  -22.7010  -29.4750   22.5680 C   0  0  0  0  0  0  0  0  0  0  0  0
  -21.3750  -29.3060   22.4440 N   0  0  0  0  0  0  0  0  0  0  0  0
  -23.3820  -28.8440   23.3810 O   0  0  0  0  0  0  0  0  0  0  0  0
  -20.8860  -29.8670   21.7600 H   0  0  0  0  0  0  0  0  0  0  0  0
  -17.9910  -28.1540   22.9440 C   0  0  0  0  0  0  0  0  0  0  0  0
  -20.5520  -28.3780   23.2140 C   0  0  0  0  0  3  0  0  0  0  0  0
  -20.6350  -26.9450   22.6370 C   0  0  0  0  0  2  0  0  0  0  0  0
  -19.5280  -26.6370   21.6240 C   0  0  0  0  0  2  0  0  0  0  0  0
  -18.1490  -26.8010   22.2700 C   0  0  0  0  0  2  0  0  0  0  0  0
  -19.1190  -28.9010   23.3730 C   0  0  0  0  0  0  0  0  0  0  0  0
  -18.9180  -30.1680   23.9610 C   0  0  0  0  0  3  0  0  0  0  0  0
  -17.6190  -30.6880   24.1250 C   0  0  0  0  0  3  0  0  0  0  0  0
  -16.5050  -29.9380   23.7100 C   0  0  0  0  0  3  0  0  0  0  0  0
  -16.6920  -28.6730   23.1260 C   0  0  0  0  0  3  0  0  0  0  0  0
  -25.8550  -32.5210   23.8620 C   0  0  0  0  0  3  0  0  0  0  0  0
  -26.3750  -31.7430   25.1340 C   0  0  1  0  0  0  0  0  0  0  0  0
  -25.2840  -31.5080   26.2030 C   0  0  0  0  0  1  0  0  0  0  0  0
  -26.9480  -30.3640   24.7340 C   0  0  0  0  0  1  0  0  0  0  0  0
  -27.5320  -32.5290   25.7930 C   0  0  0  0  0  1  0  0  0  0  0  0
  -25.5520  -33.9210   24.1870 N   0  0  0  0  0  0  0  0  0  0  0  0
  -25.9010  -34.9710   23.4310 C   0  0  0  0  0  0  0  0  0  0  0  0
  -26.5820  -34.8610   22.4050 O   0  0  0  0  0  0  0  0  0  0  0  0
  -24.9370  -34.0780   24.9750 H   0  0  0  0  0  0  0  0  0  0  0  0
  -24.1840  -36.7700   23.0590 C   0  0  0  0  0  1  0  0  0  0  0  0
  -25.4190  -36.3620   23.8830 C   0  0  0  0  0  3  0  0  0  0  0  0
  -27.5550  -37.2300   24.7230 C   0  0  0  0  0  1  0  0  0  0  0  0
  -26.4590  -37.4060   23.7740 N   0  0  0  0  0  0  0  0  0  0  0  0
  -26.0610  -38.3280   23.9200 H   0  0  0  0  0  0  0  0  0  0  0  0
  1  3  2  0
  1  2  1  0
  2  5  2  0
  3  6  1  0
  5  4  1  0
  5  7  1  0
  6 50  1  0
  6  4  2  0
  8  9  1  0
  8  7  1  0
  9 11  1  0
  9 10  1  0
 12 13  1  0
 12  9  1  0
 14 13  1  0
 15 20  1  0
 16 17  1  0
 16 15  1  0
 18 17  1  0
 18 25  1  0
 18 19  1  0
 20 14  1  0
 20 19  1  0
 21 14  2  0
 22 23  2  0
 23 42  1  0
 24 23  1  0
 24 27  1  0
 25 22  1  0
 25 26  1  0
 26 24  2  0
 27 28  1  0
 28 29  2  0
 30 33  1  0
 30 29  1  0
 31 30  2  0
 32 31  1  0
 32 27  2  0
 33 34  1  0
 34 35  1  0
 35 36  2  0
 37 36  1  0
 37 41  1  0
 38 37  2  0
 39 34  2  0
 39 38  1  0
 40 39  1  0
 42 43  1  0
 43 46  1  0
 43 45  1  0
 44 42  2  0
 47 48  1  0
 47 22  1  0
 49 47  1  0
 50 51  1  0
 51 53  1  0
 52 51  1  0
 54 51  1  0
 55 56  1  0
 55 54  1  0
 56 58  1  0
 57 68  2  0
 58 63  1  0
 59 67  1  0
 59 69  1  0
 60 66  1  0
 60 62  1  0
 61 67  1  0
 62 61  1  0
 63 62  2  0
 64 65  1  0
 64 58  2  0
 65 60  2  0
 66 59  1  0
 67 57  1  0
 69 71  2  0
 70 69  1  0
 72 70  1  0
 73 82  2  0
 73 78  1  0
 74 70  1  0
 74 78  1  0
 75 74  1  0
 76 77  1  0
 76 75  1  0
 77 73  1  0
 78 79  2  0
 79 80  1  0
 81 80  2  0
 82 81  1  0
 83 57  1  0
 83 88  1  0
 83 84  1  0
 84 87  1  1
 84 85  1  0
 86 84  1  0
 88 91  1  0
 89 93  1  0
 89 88  1  0
 90 89  2  0
 93 92  1  0
 95 93  1  0
 95 96  1  0
 95 94  1  0
M  ISO  4  13 100  14 100  55 101  56 101
M  END
>  <TORSDO>  (59) 
F 25

>  <SCORE>  (59) 
-12.407

>  <name>  (59) 
59

>  <ligand_id>  (59) 
59

>  <original_smiles>  (59) 
[H]c1c([H])c([H])c2c(c1[H])C([H])([H])C([H])([H])C([H])([H])C2([H])N([H])C(=O)C1([H])N(C(=O)C([H])(N([H])C(=O)C([H])(N([H])C([H])([H])[H])C([H])([H])[H])C(C([H])([H])[H])(C([H])([H])[H])C([H])([H])[H])C([H])([H])c2c([H])c(OC([H])([H])C([H])([H])[N+]([H])([H])C([H])([H])c3c([H])c([H])c([H])c(C([H])([H])C([H])([H])[N+]([H])([H])C([H])([H])C([H])([H])C(=O)N4C([H])([H])C([H])([H])C([H])([H])C([H])(n5nc(-c6c([H])c([H])c(Oc7c([H])c([H])c(F)c([H])c7F)c([H])c6[H])c(C(=O)N([H])[H])c5N([H])[H])C4([H])[H])c3[H])c([H])c([H])c2C1([H])[H]

>  <smiles>  (59) 
[H]c1c([H])c([H])c2c(c1[H])C([H])([H])C([H])([H])C([H])([H])C2([H])N([H])C(=O)C1([H])N(C(=O)C([H])(N([H])C(=O)C([H])(N([H])C([H])([H])[H])C([H])([H])[H])C(C([H])([H])[H])(C([H])([H])[H])C([H])([H])[H])C([H])([H])c2c([H])c(OC([H])([H])C([H])([H])[N+]([H])([H])C([H])([H])c3c([H])c([H])c([H])c(C([H])([H])C([H])([H])[N+]([H])([H])C([H])([H])C([H])([H])C(=O)N4C([H])([H])C([H])([H])C([H])([H])C([H])(n5nc(-c6c([H])c([H])c(Oc7c([H])c([H])c(F)c([H])c7F)c([H])c6[H])c(C(=O)N([H])[H])c5N([H])[H])C4([H])[H])c3[H])c([H])c([H])c2C1([H])[H]

$$$$
60:0:0
     RDKit          3D

 96101  0  0  1  0  0  0  0  0999 V2000
  -24.5840  -22.2060   19.3400 C   0  0  0  0  0  2  0  0  0  0  0  0
  -28.2100  -19.3480   18.3890 C   0  0  0  0  0  0  0  0  0  0  0  0
  -26.8700  -19.9400   19.1300 C   0  0  0  0  0  0  0  0  0  0  0  0
  -28.2690  -20.2880   17.3590 C   0  0  0  0  0  0  0  0  0  0  0  0
  -26.0220  -21.1570   18.7350 C   0  0  0  0  0  0  0  0  0  0  0  0
  -26.4250  -19.2150   20.3620 C   0  0  0  0  0  1  0  0  0  0  0  0
  -29.2370  -20.3130   16.2220 C   0  0  0  0  0  1  0  0  0  0  0  0
  -27.0000  -21.6120   17.3390 S   0  0  0  0  0  0  0  0  0  0  0  0
  -31.6490  -16.2940   19.4380 C   0  0  0  0  0  0  0  0  0  0  0  0
  -32.4670  -13.7510   19.6820 C   0  0  0  0  0  2  0  0  0  0  0  0
  -31.8750  -12.7710   18.6270 C   0  0  0  0  0  2  0  0  0  0  0  0
  -30.4060  -12.4440   18.9520 C   0  0  0  0  0  2  0  0  0  0  0  0
  -29.6570  -13.7130   19.4270 C   0  0  0  0  0  3  0  0  0  0  0  0
  -30.3800  -14.4320   20.5550 C   0  0  0  0  0  2  0  0  0  0  0  0
  -31.5300  -14.9450   19.8840 N   0  0  0  0  0  0  0  0  0  0  0  0
  -32.8820  -16.4680   19.2270 O   0  0  0  0  0  0  0  0  0  0  0  0
  -29.3270  -17.8700   18.4820 C   0  0  0  0  0  0  0  0  0  0  0  0
  -30.5450  -17.3950   19.3030 N   0  0  0  0  0  0  0  0  0  0  0  0
  -29.0600  -17.0590   17.5920 O   0  0  0  0  0  0  0  0  0  0  0  0
  -30.8790  -18.2160   19.7830 H   0  0  0  0  0  0  0  0  0  0  0  0
  -27.2920  -14.4180   19.9220 C   0  0  0  0  0  0  0  0  0  0  0  0
  -26.2010  -13.7260   20.3320 C   0  0  0  0  0  0  0  0  0  0  0  0
  -26.6370  -12.3790   20.5020 C   0  0  0  0  0  0  0  0  0  0  0  0
  -28.3070  -13.4900   19.8350 N   0  0  0  0  0  0  0  0  0  0  0  0
  -27.9340  -12.2660   20.2660 N   0  0  0  0  0  0  0  0  0  0  0  0
  -25.8740  -11.1750   20.8020 C   0  0  0  0  0  0  0  0  0  0  0  0
  -26.0170  -10.4980   22.0310 C   0  0  0  0  0  3  0  0  0  0  0  0
  -25.2500   -9.3460   22.2960 C   0  0  0  0  0  3  0  0  0  0  0  0
  -24.3320   -8.8700   21.3300 C   0  0  0  0  0  0  0  0  0  0  0  0
  -24.2150   -9.5370   20.0980 C   0  0  0  0  0  3  0  0  0  0  0  0
  -24.9830  -10.6790   19.8320 C   0  0  0  0  0  3  0  0  0  0  0  0
  -23.5590   -7.7480   21.4910 O   0  0  0  0  0  0  0  0  0  0  0  0
  -22.7310   -7.6000   22.5720 C   0  0  0  0  0  0  0  0  0  0  0  0
  -21.7330   -8.5500   22.8840 C   0  0  0  0  0  3  0  0  0  0  0  0
  -20.8580   -8.3200   23.9640 C   0  0  0  0  0  3  0  0  0  0  0  0
  -20.9740   -7.1420   24.7250 C   0  0  0  0  0  0  0  0  0  0  0  0
  -21.9660   -6.1950   24.4150 C   0  0  0  0  0  3  0  0  0  0  0  0
  -22.8400   -6.4230   23.3390 C   0  0  0  0  0  0  0  0  0  0  0  0
  -23.7810   -5.4990   23.0290 F   0  0  0  0  0  0  0  0  0  0  0  0
  -20.1280   -6.9170   25.7570 F   0  0  0  0  0  0  0  0  0  0  0  0
  -24.8150  -14.2770   20.4470 C   0  0  0  0  0  0  0  0  0  0  0  0
  -24.0460  -13.7890   21.4110 N   0  0  0  0  0  0  0  0  0  0  0  0
  -24.4280  -15.1850   19.7120 O   0  0  0  0  0  0  0  0  0  0  0  0
  -24.3790  -13.0570   22.0220 H   0  0  0  0  0  0  0  0  0  0  0  0
  -23.1110  -14.1480   21.5400 H   0  0  0  0  0  0  0  0  0  0  0  0
  -27.4700  -15.7480   19.5930 N   0  0  0  0  0  0  0  0  0  0  0  0
  -26.6700  -16.3660   19.5410 H   0  0  0  0  0  0  0  0  0  0  0  0
  -28.3100  -16.1630   19.1910 H   0  0  0  0  0  0  0  0  0  0  0  0
  -23.1170  -23.3180   18.7440 C   0  0  0  0  0  2  0  0  0  0  0  0
  -21.3410  -23.2990   18.0440 C   0  0  0  0  0  0  0  0  0  0  0  0
  -20.4980  -24.3710   17.1450 N   0  0  0  0  0  0  0  0  0  0  0  0
  -20.7100  -22.2920   18.3650 O   0  0  0  0  0  0  0  0  0  0  0  0
  -19.5430  -24.1180   16.9300 H   0  0  0  0  0  0  0  0  0  0  0  0
  -21.3340  -26.3990   15.8280 C   0  0  0  0  0  1  0  0  0  0  0  0
  -23.3590  -26.9500   15.9650 C   0  0  0  0  0  1  0  0  0  0  0  0
  -24.9120  -26.7580   16.9610 O   0  0  0  0  0  0  0  0  0  0  0  0
  -24.3810  -28.9450   21.9430 C   0  0  0  0  0  0  0  0  0  0  0  0
  -26.3250  -27.1260   16.9130 C   0  0  0  0  0  3  0  0  0  0  0  0
  -23.5120  -29.1970   19.6840 C   0  0  0  0  0  3  0  0  0  0  0  0
  -25.2300  -29.2770   17.7350 C   0  0  0  0  0  3  0  0  0  0  0  0
  -26.0290  -29.1260   20.0820 C   0  0  0  0  0  2  0  0  0  0  0  0
  -26.1020  -28.6770   18.6450 C   0  0  0  0  0  3  0  0  0  0  0  0
  -26.8580  -27.6000   18.1540 C   0  0  0  0  0  2  0  0  0  0  0  0
  -26.3520  -28.0670   15.9270 C   0  0  0  0  0  2  0  0  0  0  0  0
  -25.5170  -29.1210   16.3410 C   0  0  0  0  0  2  0  0  0  0  0  0
  -23.9610  -29.8600   18.3260 C   0  0  0  0  0  2  0  0  0  0  0  0
  -24.6520  -29.1260   20.6270 N   0  0  0  0  0  0  0  0  0  0  0  0
  -23.2160  -28.9390   22.3690 O   0  0  0  0  0  0  0  0  0  0  0  0
  -22.9300  -27.7540   19.6370 C   0  0  0  0  0  0  0  0  0  0  0  0
  -21.7470  -27.4860   20.1230 N   0  0  0  0  0  0  0  0  0  0  0  0
  -23.5840  -26.7970   19.2540 O   0  0  0  0  0  0  0  0  0  0  0  0
  -21.2240  -28.2110   20.5930 H   0  0  0  0  0  0  0  0  0  0  0  0
  -18.1160  -26.9570   20.3680 C   0  0  0  0  0  0  0  0  0  0  0  0
  -20.9870  -26.2940   19.6600 C   0  0  0  0  0  2  0  0  0  0  0  0
  -20.8620  -26.1530   17.5360 C   0  0  0  0  0  2  0  0  0  0  0  0
  -18.5860  -26.8840   16.8790 C   0  0  0  0  0 15  0  0  0  0  0  0
  -17.4460  -27.1480   18.6530 C   0  0  0  0  0  1  0  0  0  0  0  0
  -19.5870  -26.6420   20.7520 C   0  0  0  0  0  0  0  0  0  0  0  0
  -19.9250  -26.7840   22.1640 C   0  0  0  0  0  3  0  0  0  0  0  0
  -19.0210  -27.0340   23.2280 C   0  0  0  0  0  3  0  0  0  0  0  0
  -17.6580  -27.1100   22.9240 C   0  0  0  0  0  3  0  0  0  0  0  0
  -17.2420  -27.0720   21.5490 C   0  0  0  0  0  3  0  0  0  0  0  0
  -25.5300  -28.7650   22.9660 C   0  0  0  0  0  3  0  0  0  0  0  0
  -25.4790  -29.9370   23.8420 N   0  0  0  0  0  0  0  0  0  0  0  0
  -26.3250  -30.9710   23.7600 C   0  0  0  0  0  0  0  0  0  0  0  0
  -27.2910  -30.9860   22.9930 O   0  0  0  0  0  0  0  0  0  0  0  0
  -24.6810  -30.0150   24.4550 H   0  0  0  0  0  0  0  0  0  0  0  0
  -25.5000  -33.3440   23.8600 C   0  0  0  0  0  1  0  0  0  0  0  0
  -26.0580  -32.1730   24.6830 C   0  0  0  0  0  3  0  0  0  0  0  0
  -27.6960  -31.6410   26.4310 C   0  0  0  0  0  1  0  0  0  0  0  0
  -27.2550  -32.6100   25.4310 N   0  0  0  0  0  0  0  0  0  0  0  0
  -27.0820  -33.4940   25.9030 H   0  0  0  0  0  0  0  0  0  0  0  0
  -25.4180  -27.4300   23.7980 C   0  0  1  0  0  0  0  0  0  0  0  0
  -24.0320  -27.2070   24.4450 C   0  0  0  0  0  1  0  0  0  0  0  0
  -25.7260  -26.1960   22.9190 C   0  0  0  0  0  1  0  0  0  0  0  0
  -26.4810  -27.4450   24.9210 C   0  0  0  0  0  1  0  0  0  0  0  0
  2 17  1  0
  2  3  1  0
  3  6  1  0
  4  2  2  0
  5  3  2  0
  5  1  1  0
  7  4  1  0
  8  4  1  0
  8  5  1  0
  9 15  1  0
 10 15  1  0
 11 12  1  0
 11 10  1  0
 13 12  1  0
 13 24  1  0
 13 14  1  0
 15 14  1  0
 16  9  2  0
 17 18  1  0
 18  9  1  0
 18 20  1  0
 19 17  2  0
 21 22  2  0
 22 41  1  0
 22 23  1  0
 23 26  1  0
 24 21  1  0
 24 25  1  0
 25 23  2  0
 26 27  1  0
 27 28  2  0
 29 32  1  0
 29 28  1  0
 30 29  2  0
 31 30  1  0
 31 26  2  0
 32 33  1  0
 33 34  2  0
 33 38  1  0
 34 35  1  0
 35 36  2  0
 36 40  1  0
 37 36  1  0
 38 37  2  0
 39 38  1  0
 41 42  1  0
 42 45  1  0
 42 44  1  0
 43 41  2  0
 46 21  1  0
 47 46  1  0
 48 46  1  0
 49  1  1  0
 50 52  2  0
 50 49  1  0
 51 75  1  0
 51 50  1  0
 53 51  1  0
 54 75  1  0
 55 56  1  0
 57 68  2  0
 58 56  1  0
 58 63  1  0
 59 69  1  0
 59 67  1  0
 60 65  1  0
 60 66  1  0
 60 62  1  0
 61 67  1  0
 62 63  1  0
 62 61  1  0
 64 65  1  0
 64 58  1  0
 66 59  1  0
 67 57  1  0
 69 70  1  0
 70 72  1  0
 71 69  2  0
 73 78  2  0
 73 82  1  0
 74 70  1  0
 74 78  1  0
 77 73  1  0
 78 79  1  0
 79 80  2  0
 81 80  1  0
 82 81  2  0
 83 57  1  0
 83 93  1  0
 83 84  1  0
 84 87  1  0
 85 84  1  0
 85 89  1  0
 86 85  2  0
 89 88  1  0
 89 91  1  0
 91 92  1  0
 91 90  1  0
 93 94  1  1
 93 96  1  0
 95 93  1  0
M  ISO  4   9 100  18 100  55 101  56 101
M  END
>  <TORSDO>  (60) 
F 21

>  <SCORE>  (60) 
-4.831

>  <name>  (60) 
60

>  <ligand_id>  (60) 
60

>  <original_smiles>  (60) 
[H]c1c([H])c([H])c2c(c1[H])C([H])([H])C([H])([H])C([H])([H])C2([H])N([H])C(=O)C1([H])N(C(=O)C([H])(N([H])C(=O)C([H])(N([H])C([H])([H])[H])C([H])([H])[H])C(C([H])([H])[H])(C([H])([H])[H])C([H])([H])[H])C([H])([H])c2c([H])c(OC([H])([H])C([H])([H])N([H])C(=O)C([H])([H])C([H])([H])c3sc(C([H])([H])[H])c(C(=O)N([H])C(=O)N4C([H])([H])C([H])([H])C([H])([H])C([H])(n5nc(-c6c([H])c([H])c(Oc7c([H])c([H])c(F)c([H])c7F)c([H])c6[H])c(C(=O)N([H])[H])c5N([H])[H])C4([H])[H])c3C([H])([H])[H])c([H])c([H])c2C1([H])[H]

>  <smiles>  (60) 
[H]c1c([H])c([H])c2c(c1[H])C([H])([H])C([H])([H])C([H])([H])C2([H])N([H])C(=O)C1([H])N(C(=O)C([H])(N([H])C(=O)C([H])(N([H])C([H])([H])[H])C([H])([H])[H])C(C([H])([H])[H])(C([H])([H])[H])C([H])([H])[H])C([H])([H])c2c([H])c(OC([H])([H])C([H])([H])N([H])C(=O)C([H])([H])C([H])([H])c3sc(C([H])([H])[H])c(C(=O)N([H])C(=O)N4C([H])([H])C([H])([H])C([H])([H])C([H])(n5nc(-c6c([H])c([H])c(Oc7c([H])c([H])c(F)c([H])c7F)c([H])c6[H])c(C(=O)N([H])[H])c5N([H])[H])C4([H])[H])c3C([H])([H])[H])c([H])c([H])c2C1([H])[H]

$$$$
61:0:0
     RDKit          3D

104112  0  0  1  0  0  0  0  0999 V2000
  -31.1980  -17.1030   20.3300 N   0  0  0  0  0  4  0  0  0  0  0  0
  -30.8650  -17.2790   21.2640 H   0  0  0  0  0  0  0  0  0  0  0  0
  -30.6090  -16.3870   19.9220 H   0  0  0  0  0  0  0  0  0  0  0  0
  -33.3970  -13.2420   20.3800 C   0  0  0  0  0  2  0  0  0  0  0  0
  -33.7920  -13.7590   18.9850 C   0  0  0  0  0  2  0  0  0  0  0  0
  -32.6210  -15.4290   21.5100 C   0  0  0  0  0  2  0  0  0  0  0  0
  -33.2500  -16.3410   19.0730 C   0  0  0  0  0  2  0  0  0  0  0  0
  -32.2670  -13.9710   21.1360 C   0  0  0  0  0  3  0  0  0  0  0  0
  -34.3210  -15.2180   18.8880 C   0  0  0  0  0  3  0  0  0  0  0  0
  -32.5790  -16.5670   20.4600 C   0  0  0  0  0  3  0  0  0  0  0  0
  -30.3770  -13.7350   19.4490 C   0  0  0  0  0  0  0  0  0  0  0  0
  -29.4830  -12.0440   17.9250 C   0  0  0  0  0  2  0  0  0  0  0  0
  -28.3020  -12.5020   17.0590 C   0  0  0  0  0  2  0  0  0  0  0  0
  -26.9810  -12.2910   17.8100 C   0  0  0  0  0  2  0  0  0  0  0  0
  -27.0060  -12.9260   19.2230 C   0  0  0  0  0  3  0  0  0  0  0  0
  -28.2700  -12.5080   20.0150 C   0  0  0  0  0  2  0  0  0  0  0  0
  -29.4680  -12.7690   19.2010 N   0  0  0  0  0  0  0  0  0  0  0  0
  -30.9130  -14.4050   18.5740 O   0  0  0  0  0  0  0  0  0  0  0  0
  -30.8930  -13.6680   20.6820 N   0  0  0  0  0  0  0  0  0  0  0  0
  -30.3700  -13.0690   21.3050 H   0  0  0  0  0  0  0  0  0  0  0  0
  -24.7970  -13.4710   20.4340 C   0  0  0  0  0  0  0  0  0  0  0  0
  -23.8250  -12.6690   20.9700 C   0  0  0  0  0  0  0  0  0  0  0  0
  -24.2700  -11.3250   20.7720 C   0  0  0  0  0  0  0  0  0  0  0  0
  -25.7760  -12.6150   19.9520 N   0  0  0  0  0  0  0  0  0  0  0  0
  -25.4700  -11.3160   20.2050 N   0  0  0  0  0  0  0  0  0  0  0  0
  -23.5970  -10.0450   21.0360 C   0  0  0  0  0  0  0  0  0  0  0  0
  -24.1350   -9.1030   21.9390 C   0  0  0  0  0  3  0  0  0  0  0  0
  -23.4620   -7.8890   22.1930 C   0  0  0  0  0  3  0  0  0  0  0  0
  -22.2390   -7.6060   21.5420 C   0  0  0  0  0  0  0  0  0  0  0  0
  -21.7190   -8.5370   20.6260 C   0  0  0  0  0  3  0  0  0  0  0  0
  -22.3910   -9.7450   20.3720 C   0  0  0  0  0  3  0  0  0  0  0  0
  -21.5290   -6.4410   21.7060 O   0  0  0  0  0  0  0  0  0  0  0  0
  -21.5440   -5.7500   22.8910 C   0  0  0  0  0  0  0  0  0  0  0  0
  -21.1060   -6.3340   24.0990 C   0  0  0  0  0  3  0  0  0  0  0  0
  -21.0720   -5.5670   25.2800 C   0  0  0  0  0  3  0  0  0  0  0  0
  -21.4650   -4.2150   25.2550 C   0  0  0  0  0  0  0  0  0  0  0  0
  -21.8950   -3.6300   24.0510 C   0  0  0  0  0  3  0  0  0  0  0  0
  -21.9310   -4.3960   22.8720 C   0  0  0  0  0  0  0  0  0  0  0  0
  -22.3260   -3.8210   21.7100 F   0  0  0  0  0  0  0  0  0  0  0  0
  -21.4240   -3.4750   26.3870 F   0  0  0  0  0  0  0  0  0  0  0  0
  -22.5150  -13.1150   21.5500 C   0  0  0  0  0  0  0  0  0  0  0  0
  -22.0120  -12.4000   22.5510 N   0  0  0  0  0  0  0  0  0  0  0  0
  -21.9510  -14.1320   21.1500 O   0  0  0  0  0  0  0  0  0  0  0  0
  -22.4810  -11.5740   22.8900 H   0  0  0  0  0  0  0  0  0  0  0  0
  -21.1430  -12.6810   22.9820 H   0  0  0  0  0  0  0  0  0  0  0  0
  -24.9250  -14.8490   20.2970 N   0  0  0  0  0  0  0  0  0  0  0  0
  -24.2030  -15.5010   20.5900 H   0  0  0  0  0  0  0  0  0  0  0  0
  -25.7010  -15.3040   19.8320 H   0  0  0  0  0  0  0  0  0  0  0  0
  -35.0310  -15.3640   17.5730 N   0  0  1  0  0  4  0  0  0  0  0  0
  -35.4990  -14.4790   17.4440 H   0  0  0  0  0  0  0  0  0  0  0  0
  -34.8110  -15.0540   15.0730 C   0  0  0  0  0  1  0  0  0  0  0  0
  -34.1360  -15.4890   16.3840 C   0  0  0  0  0  2  0  0  0  0  0  0
  -37.4860  -15.7060   17.8670 C   0  0  0  0  0  1  0  0  0  0  0  0
  -36.1280  -16.3680   17.5980 C   0  0  0  0  0  2  0  0  0  0  0  0
  -31.0480  -18.3710   19.5740 C   0  0  0  0  0  2  0  0  0  0  0  0
  -29.8250  -19.1800   20.0600 C   0  0  0  0  0  2  0  0  0  0  0  0
  -29.5370  -20.4320   19.2030 C   0  0  0  0  0  2  0  0  0  0  0  0
  -28.5800  -21.4490   19.8700 C   0  0  0  0  0  2  0  0  0  0  0  0
  -28.3780  -22.6480   19.0230 N   0  0  0  0  0  4  0  0  0  0  0  0
  -27.8090  -22.3960   18.2280 H   0  0  0  0  0  0  0  0  0  0  0  0
  -29.2820  -22.9250   18.6670 H   0  0  0  0  0  0  0  0  0  0  0  0
  -27.7830  -23.8230   19.7110 C   0  0  0  0  0  2  0  0  0  0  0  0
  -27.9230  -25.1120   18.8710 C   0  0  0  0  0  2  0  0  0  0  0  0
  -27.8600  -26.2840   19.6860 O   0  0  0  0  0  0  0  0  0  0  0  0
  -24.5760  -31.5920   23.0650 C   0  0  0  0  0  0  0  0  0  0  0  0
  -26.7030  -27.0270   19.7650 C   0  0  0  0  0  0  0  0  0  0  0  0
  -23.1710  -30.3090   21.4810 C   0  0  0  0  0  3  0  0  0  0  0  0
  -24.4180  -28.6860   19.9590 C   0  0  0  0  0  0  0  0  0  0  0  0
  -25.6990  -30.4810   21.1390 C   0  0  0  0  0  2  0  0  0  0  0  0
  -25.6410  -29.1160   20.4840 C   0  0  0  0  0  0  0  0  0  0  0  0
  -26.7810  -28.2890   20.3950 C   0  0  0  0  0  3  0  0  0  0  0  0
  -25.4560  -26.5960   19.2570 C   0  0  0  0  0  3  0  0  0  0  0  0
  -24.3180  -27.4230   19.3510 C   0  0  0  0  0  3  0  0  0  0  0  0
  -23.2470  -29.6350   20.0850 C   0  0  0  0  0  2  0  0  0  0  0  0
  -24.5040  -30.8070   21.9520 N   0  0  0  0  0  0  0  0  0  0  0  0
  -23.5520  -31.9380   23.6710 O   0  0  0  0  0  0  0  0  0  0  0  0
  -22.5020  -29.3250   22.4680 C   0  0  0  0  0  0  0  0  0  0  0  0
  -21.1720  -29.1740   22.3550 N   0  0  0  0  0  0  0  0  0  0  0  0
  -23.1780  -28.6990   23.2890 O   0  0  0  0  0  0  0  0  0  0  0  0
  -20.6890  -29.7340   21.6670 H   0  0  0  0  0  0  0  0  0  0  0  0
  -17.7830  -28.0350   22.8580 C   0  0  0  0  0  0  0  0  0  0  0  0
  -20.3400  -28.2730   23.1510 C   0  0  0  0  0  3  0  0  0  0  0  0
  -20.4340  -26.8210   22.6300 C   0  0  0  0  0  2  0  0  0  0  0  0
  -19.3400  -26.4720   21.6160 C   0  0  0  0  0  2  0  0  0  0  0  0
  -17.9520  -26.6580   22.2370 C   0  0  0  0  0  2  0  0  0  0  0  0
  -18.9060  -28.7990   23.2730 C   0  0  0  0  0  0  0  0  0  0  0  0
  -18.6970  -30.0870   23.8100 C   0  0  0  0  0  3  0  0  0  0  0  0
  -17.3980  -30.6090   23.9440 C   0  0  0  0  0  3  0  0  0  0  0  0
  -16.2890  -29.8430   23.5450 C   0  0  0  0  0  3  0  0  0  0  0  0
  -16.4820  -28.5590   23.0060 C   0  0  0  0  0  3  0  0  0  0  0  0
  -25.9430  -32.1130   23.6120 C   0  0  0  0  0  3  0  0  0  0  0  0
  -25.7350  -33.4900   24.0780 N   0  0  0  0  0  0  0  0  0  0  0  0
  -26.0380  -34.5860   23.3700 C   0  0  0  0  0  0  0  0  0  0  0  0
  -26.5950  -34.5400   22.2690 O   0  0  0  0  0  0  0  0  0  0  0  0
  -25.2350  -33.6060   24.9460 H   0  0  0  0  0  0  0  0  0  0  0  0
  -24.3610  -36.4600   23.3380 C   0  0  0  0  0  1  0  0  0  0  0  0
  -25.6610  -35.9500   23.9790 C   0  0  0  0  0  3  0  0  0  0  0  0
  -27.9030  -36.6920   24.6480 C   0  0  0  0  0  1  0  0  0  0  0  0
  -26.7220  -36.9710   23.8360 N   0  0  0  0  0  0  0  0  0  0  0  0
  -26.3730  -37.8920   24.0910 H   0  0  0  0  0  0  0  0  0  0  0  0
  -26.5340  -31.2160   24.7670 C   0  0  1  0  0  0  0  0  0  0  0  0
  -25.5180  -30.8990   25.8890 C   0  0  0  0  0  1  0  0  0  0  0  0
  -27.0510  -29.8720   24.2020 C   0  0  0  0  0  1  0  0  0  0  0  0
  -27.7520  -31.9220   25.4080 C   0  0  0  0  0  1  0  0  0  0  0  0
  1  2  1  0
  3  1  1  0
  4  8  1  0
  5  4  1  0
  7 10  1  0
  8 19  1  0
  8  6  1  0
  9 49  1  0
  9  5  1  0
  9  7  1  0
 10  1  1  0
 10  6  1  0
 11 19  1  0
 12 17  1  0
 13 14  1  0
 13 12  1  0
 15 14  1  0
 15 24  1  0
 15 16  1  0
 17 11  1  0
 17 16  1  0
 18 11  2  0
 19 20  1  0
 21 22  2  0
 22 41  1  0
 23 22  1  0
 23 26  1  0
 24 25  1  0
 24 21  1  0
 25 23  2  0
 26 27  1  0
 27 28  2  0
 29 32  1  0
 29 28  1  0
 30 29  2  0
 31 30  1  0
 31 26  2  0
 32 33  1  0
 33 34  1  0
 34 35  2  0
 36 35  1  0
 36 40  1  0
 37 36  2  0
 38 33  2  0
 38 37  1  0
 39 38  1  0
 41 42  1  0
 42 44  1  0
 42 45  1  0
 43 41  2  0
 46 21  1  0
 46 47  1  0
 48 46  1  0
 49 54  1  0
 49 50  1  6
 51 52  1  0
 52 49  1  0
 54 53  1  0
 55 56  1  0
 55  1  1  0
 57 58  1  0
 57 56  1  0
 59 62  1  0
 59 58  1  0
 60 59  1  0
 61 59  1  0
 63 64  1  0
 63 62  1  0
 64 66  1  0
 65 76  2  0
 66 71  1  0
 67 75  1  0
 67 77  1  0
 68 74  1  0
 68 70  1  0
 69 75  1  0
 70 69  1  0
 71 70  2  0
 72 73  1  0
 72 66  2  0
 73 68  2  0
 74 67  1  0
 75 65  1  0
 77 79  2  0
 78 77  1  0
 80 78  1  0
 81 90  2  0
 81 86  1  0
 82 78  1  0
 82 86  1  0
 83 82  1  0
 84 85  1  0
 84 83  1  0
 85 81  1  0
 86 87  2  0
 87 88  1  0
 89 88  2  0
 90 89  1  0
 91 65  1  0
 91 92  1  0
 91101  1  0
 92 95  1  0
 93 97  1  0
 93 92  1  0
 94 93  2  0
 97 96  1  0
 99 97  1  0
 99100  1  0
 99 98  1  0
101104  1  1
101102  1  0
103101  1  0
M  ISO  4  11 100  19 100  63 101  64 101
M  END
>  <TORSDO>  (61) 
F 27

>  <SCORE>  (61) 
-7.766

>  <name>  (61) 
61

>  <ligand_id>  (61) 
61

>  <original_smiles>  (61) 
[H]c1c([H])c([H])c2c(c1[H])C([H])([H])C([H])([H])C([H])([H])C2([H])N([H])C(=O)C1([H])N(C(=O)C([H])(N([H])C(=O)C([H])(N([H])C([H])([H])[H])C([H])([H])[H])C(C([H])([H])[H])(C([H])([H])[H])C([H])([H])[H])C([H])([H])c2c([H])c(OC([H])([H])C([H])([H])[N+]([H])([H])C([H])([H])C([H])([H])C([H])([H])C([H])([H])[N+]([H])([H])C3([H])C([H])([H])C([H])(N([H])C(=O)N4C([H])([H])C([H])([H])C([H])([H])C([H])(n5nc(-c6c([H])c([H])c(Oc7c([H])c([H])c(F)c([H])c7F)c([H])c6[H])c(C(=O)N([H])[H])c5N([H])[H])C4([H])[H])C([H])([H])C([H])([H])C([H])([N+]([H])(C([H])([H])C([H])([H])[H])C([H])([H])C([H])([H])[H])C3([H])[H])c([H])c([H])c2C1([H])[H]

>  <smiles>  (61) 
[H]c1c([H])c([H])c2c(c1[H])C([H])([H])C([H])([H])C([H])([H])C2([H])N([H])C(=O)C1([H])N(C(=O)C([H])(N([H])C(=O)C([H])(N([H])C([H])([H])[H])C([H])([H])[H])C(C([H])([H])[H])(C([H])([H])[H])C([H])([H])[H])C([H])([H])c2c([H])c(OC([H])([H])C([H])([H])[N+]([H])([H])C([H])([H])C([H])([H])C([H])([H])C([H])([H])[N+]([H])([H])C3([H])C([H])([H])C([H])(N([H])C(=O)N4C([H])([H])C([H])([H])C([H])([H])C([H])(n5nc(-c6c([H])c([H])c(Oc7c([H])c([H])c(F)c([H])c7F)c([H])c6[H])c(C(=O)N([H])[H])c5N([H])[H])C4([H])[H])C([H])([H])C([H])([H])C([H])([N+]([H])(C([H])([H])C([H])([H])[H])C([H])([H])C([H])([H])[H])C3([H])[H])c([H])c([H])c2C1([H])[H]

$$$$
62:0:0
     RDKit          3D

 92101  0  0  1  0  0  0  0  0999 V2000
  -29.0410  -24.0430   19.0460 C   0  0  0  0  0  2  0  0  0  0  0  0
  -28.6840  -23.8500   21.4140 C   0  0  0  0  0  2  0  0  0  0  0  0
  -28.9000  -22.4670   18.9000 C   0  0  0  0  0  2  0  0  0  0  0  0
  -28.6410  -22.2320   21.3070 C   0  0  0  0  0  2  0  0  0  0  0  0
  -28.1960  -24.7130   20.1810 C   0  0  0  0  0  3  0  0  0  0  0  0
  -29.2720  -21.5900   20.0840 N   0  0  1  0  0  4  0  0  0  0  0  0
  -30.2710  -21.6940   20.2060 H   0  0  0  0  0  0  0  0  0  0  0  0
  -27.4120  -18.3500   18.8990 C   0  0  0  0  0  2  0  0  0  0  0  0
  -28.1680  -17.1400   19.4910 C   0  0  0  0  0  2  0  0  0  0  0  0
  -27.5800  -19.6620   19.6930 C   0  0  0  0  0  2  0  0  0  0  0  0
  -29.8190  -18.7990   20.5030 C   0  0  0  0  0  2  0  0  0  0  0  0
  -29.6820  -17.3000   19.8020 C   0  0  0  0  0  3  0  0  0  0  0  0
  -29.0650  -20.0550   19.7660 C   0  0  0  0  0  3  0  0  0  0  0  0
  -30.7730  -14.8180   19.9710 C   0  0  0  0  0  0  0  0  0  0  0  0
  -30.5050  -12.5240   18.9370 C   0  0  0  0  0  2  0  0  0  0  0  0
  -29.5010  -12.6050   17.7630 C   0  0  0  0  0  2  0  0  0  0  0  0
  -28.0640  -12.4060   18.2830 C   0  0  0  0  0  2  0  0  0  0  0  0
  -27.7690  -13.2770   19.5300 C   0  0  0  0  0  3  0  0  0  0  0  0
  -28.8910  -13.1920   20.5870 C   0  0  0  0  0  2  0  0  0  0  0  0
  -30.1440  -13.5770   19.9250 N   0  0  0  0  0  0  0  0  0  0  0  0
  -31.8720  -14.9280   19.4100 O   0  0  0  0  0  0  0  0  0  0  0  0
  -30.0230  -16.0600   21.9530 C   0  0  0  0  0  1  0  0  0  0  0  0
  -30.1090  -15.9580   20.4900 N   0  0  0  0  0  0  0  0  0  0  0  0
  -25.4500  -13.9110   20.4320 C   0  0  0  0  0  0  0  0  0  0  0  0
  -24.3930  -13.1580   20.8490 C   0  0  0  0  0  0  0  0  0  0  0  0
  -24.8120  -11.7960   20.7450 C   0  0  0  0  0  0  0  0  0  0  0  0
  -26.4500  -13.0130   20.0960 N   0  0  0  0  0  0  0  0  0  0  0  0
  -26.0760  -11.7330   20.3420 N   0  0  0  0  0  0  0  0  0  0  0  0
  -24.0650  -10.5490   20.9430 C   0  0  0  0  0  0  0  0  0  0  0  0
  -24.5010   -9.5660   21.8580 C   0  0  0  0  0  3  0  0  0  0  0  0
  -23.7520   -8.3860   22.0500 C   0  0  0  0  0  3  0  0  0  0  0  0
  -22.5520   -8.1830   21.3280 C   0  0  0  0  0  0  0  0  0  0  0  0
  -22.1330   -9.1540   20.4020 C   0  0  0  0  0  3  0  0  0  0  0  0
  -22.8840  -10.3260   20.2090 C   0  0  0  0  0  3  0  0  0  0  0  0
  -21.7780   -7.0530   21.4280 O   0  0  0  0  0  0  0  0  0  0  0  0
  -21.7050   -6.3320   22.5930 C   0  0  0  0  0  0  0  0  0  0  0  0
  -21.2790   -6.9180   23.8050 C   0  0  0  0  0  3  0  0  0  0  0  0
  -21.1510   -6.1260   24.9630 C   0  0  0  0  0  3  0  0  0  0  0  0
  -21.4370   -4.7490   24.9100 C   0  0  0  0  0  0  0  0  0  0  0  0
  -21.8580   -4.1630   23.7020 C   0  0  0  0  0  3  0  0  0  0  0  0
  -21.9860   -4.9510   22.5460 C   0  0  0  0  0  0  0  0  0  0  0  0
  -22.3720   -4.3790   21.3800 F   0  0  0  0  0  0  0  0  0  0  0  0
  -21.3030   -3.9840   26.0180 F   0  0  0  0  0  0  0  0  0  0  0  0
  -23.0320  -13.6640   21.2330 C   0  0  0  0  0  0  0  0  0  0  0  0
  -22.3490  -12.9680   22.1320 N   0  0  0  0  0  0  0  0  0  0  0  0
  -22.5900  -14.7160   20.7710 O   0  0  0  0  0  0  0  0  0  0  0  0
  -22.7150  -12.1130   22.5280 H   0  0  0  0  0  0  0  0  0  0  0  0
  -21.4440  -13.2990   22.4370 H   0  0  0  0  0  0  0  0  0  0  0  0
  -25.6280  -15.2830   20.2960 N   0  0  0  0  0  0  0  0  0  0  0  0
  -24.8770  -15.9310   20.5110 H   0  0  0  0  0  0  0  0  0  0  0  0
  -26.4590  -15.7360   19.9460 H   0  0  0  0  0  0  0  0  0  0  0  0
  -28.3100  -26.2430   20.2850 O   0  0  0  0  0  0  0  0  0  0  0  0
  -24.5130  -31.7750   23.1610 C   0  0  0  0  0  0  0  0  0  0  0  0
  -27.2020  -27.1390   20.1920 C   0  0  0  0  0  0  0  0  0  0  0  0
  -23.3510  -30.3550   21.5130 C   0  0  0  0  0  3  0  0  0  0  0  0
  -24.8390  -28.8030   20.1140 C   0  0  0  0  0  0  0  0  0  0  0  0
  -25.8940  -30.6800   21.3660 C   0  0  0  0  0  2  0  0  0  0  0  0
  -26.0000  -29.2880   20.7270 C   0  0  0  0  0  0  0  0  0  0  0  0
  -27.1840  -28.4720   20.7500 C   0  0  0  0  0  3  0  0  0  0  0  0
  -26.0210  -26.7390   19.5330 C   0  0  0  0  0  3  0  0  0  0  0  0
  -24.8560  -27.5380   19.5040 C   0  0  0  0  0  3  0  0  0  0  0  0
  -23.5930  -29.6720   20.1430 C   0  0  0  0  0  2  0  0  0  0  0  0
  -24.6050  -30.9580   22.0690 N   0  0  0  0  0  0  0  0  0  0  0  0
  -23.4200  -32.0450   23.6770 O   0  0  0  0  0  0  0  0  0  0  0  0
  -22.6810  -29.3400   22.4720 C   0  0  0  0  0  0  0  0  0  0  0  0
  -21.3560  -29.1550   22.3330 N   0  0  0  0  0  0  0  0  0  0  0  0
  -23.3550  -28.7150   23.2970 O   0  0  0  0  0  0  0  0  0  0  0  0
  -20.8710  -29.7020   21.6350 H   0  0  0  0  0  0  0  0  0  0  0  0
  -17.9810  -27.9390   22.8120 C   0  0  0  0  0  0  0  0  0  0  0  0
  -20.5350  -28.2150   23.1010 C   0  0  0  0  0  3  0  0  0  0  0  0
  -20.6520  -26.7840   22.5270 C   0  0  0  0  0  2  0  0  0  0  0  0
  -19.5610  -26.4540   21.5030 C   0  0  0  0  0  2  0  0  0  0  0  0
  -18.1730  -26.5910   22.1360 C   0  0  0  0  0  2  0  0  0  0  0  0
  -19.0920  -28.7090   23.2500 C   0  0  0  0  0  0  0  0  0  0  0  0
  -18.8620  -29.9680   23.8420 C   0  0  0  0  0  3  0  0  0  0  0  0
  -17.5530  -30.4610   24.0010 C   0  0  0  0  0  3  0  0  0  0  0  0
  -16.4550  -29.6900   23.5800 C   0  0  0  0  0  3  0  0  0  0  0  0
  -16.6700  -28.4310   22.9920 C   0  0  0  0  0  3  0  0  0  0  0  0
  -25.7780  -32.4300   23.7980 C   0  0  0  0  0  3  0  0  0  0  0  0
  -25.4360  -33.8210   24.1290 N   0  0  0  0  0  0  0  0  0  0  0  0
  -25.7590  -34.8870   23.3820 C   0  0  0  0  0  0  0  0  0  0  0  0
  -26.4440  -34.8010   22.3590 O   0  0  0  0  0  0  0  0  0  0  0  0
  -24.8260  -33.9590   24.9220 H   0  0  0  0  0  0  0  0  0  0  0  0
  -24.0050  -36.6550   23.0240 C   0  0  0  0  0  1  0  0  0  0  0  0
  -25.2460  -36.2640   23.8440 C   0  0  0  0  0  3  0  0  0  0  0  0
  -27.3570  -37.1810   24.7030 C   0  0  0  0  0  1  0  0  0  0  0  0
  -26.2620  -37.3350   23.7480 N   0  0  0  0  0  0  0  0  0  0  0  0
  -25.8390  -38.2480   23.8950 H   0  0  0  0  0  0  0  0  0  0  0  0
  -26.2940  -31.6650   25.0780 C   0  0  1  0  0  0  0  0  0  0  0  0
  -25.1930  -31.4070   26.1330 C   0  0  0  0  0  1  0  0  0  0  0  0
  -26.9060  -30.2970   24.6920 C   0  0  0  0  0  1  0  0  0  0  0  0
  -27.4240  -32.4760   25.7540 C   0  0  0  0  0  1  0  0  0  0  0  0
  1  5  1  0
  3  1  1  0
  3  6  1  0
  4  2  1  0
  5 52  1  0
  5  2  1  0
  6  7  1  1
  6  4  1  0
  8  9  1  0
  8 10  1  0
  9 12  1  0
 12 23  1  0
 12 11  1  0
 13 10  1  0
 13  6  1  0
 13 11  1  0
 14 23  1  0
 15 20  1  0
 16 17  1  0
 16 15  1  0
 18 17  1  0
 18 27  1  0
 18 19  1  0
 20 14  1  0
 20 19  1  0
 21 14  2  0
 23 22  1  0
 24 25  2  0
 25 44  1  0
 26 25  1  0
 26 29  1  0
 27 28  1  0
 27 24  1  0
 28 26  2  0
 29 30  1  0
 30 31  2  0
 32 35  1  0
 32 31  1  0
 33 32  2  0
 34 33  1  0
 34 29  2  0
 35 36  1  0
 36 37  1  0
 37 38  2  0
 39 38  1  0
 39 43  1  0
 40 39  2  0
 41 36  2  0
 41 40  1  0
 42 41  1  0
 44 45  1  0
 45 48  1  0
 45 47  1  0
 46 44  2  0
 49 24  1  0
 49 50  1  0
 51 49  1  0
 53 64  2  0
 54 52  1  0
 54 59  1  0
 55 63  1  0
 55 65  1  0
 56 62  1  0
 56 58  1  0
 57 63  1  0
 58 59  2  0
 58 57  1  0
 60 54  2  0
 61 60  1  0
 61 56  2  0
 62 55  1  0
 63 53  1  0
 65 67  2  0
 66 65  1  0
 68 66  1  0
 69 78  2  0
 69 74  1  0
 70 66  1  0
 70 74  1  0
 71 70  1  0
 72 73  1  0
 72 71  1  0
 73 69  1  0
 74 75  2  0
 75 76  1  0
 77 76  2  0
 78 77  1  0
 79 53  1  0
 79 80  1  0
 79 89  1  0
 80 83  1  0
 81 85  1  0
 81 80  1  0
 82 81  2  0
 85 84  1  0
 87 85  1  0
 87 88  1  0
 87 86  1  0
 89 92  1  1
 89 90  1  0
 91 89  1  0
M  ISO  4   5 101  14 100  23 100  52 101
M  END
>  <TORSDO>  (62) 
F 17

>  <SCORE>  (62) 
-14.839

>  <name>  (62) 
62

>  <ligand_id>  (62) 
62

>  <original_smiles>  (62) 
[H]c1c([H])c([H])c2c(c1[H])C([H])([H])C([H])([H])C([H])([H])C2([H])N([H])C(=O)C1([H])N(C(=O)C([H])(N([H])C(=O)C([H])(N([H])C([H])([H])[H])C([H])([H])[H])C(C([H])([H])[H])(C([H])([H])[H])C([H])([H])[H])C([H])([H])c2c([H])c(OC3([H])C([H])([H])C([H])([H])[N+]([H])(C4([H])C([H])([H])C([H])([H])C([H])([H])C([H])(N(C(=O)N5C([H])([H])C([H])([H])C([H])([H])C([H])(n6nc(-c7c([H])c([H])c(Oc8c([H])c([H])c(F)c([H])c8F)c([H])c7[H])c(C(=O)N([H])[H])c6N([H])[H])C5([H])[H])C([H])([H])[H])C4([H])[H])C([H])([H])C3([H])[H])c([H])c([H])c2C1([H])[H]

>  <smiles>  (62) 
[H]c1c([H])c([H])c2c(c1[H])C([H])([H])C([H])([H])C([H])([H])C2([H])N([H])C(=O)C1([H])N(C(=O)C([H])(N([H])C(=O)C([H])(N([H])C([H])([H])[H])C([H])([H])[H])C(C([H])([H])[H])(C([H])([H])[H])C([H])([H])[H])C([H])([H])c2c([H])c(OC3([H])C([H])([H])C([H])([H])[N+]([H])(C4([H])C([H])([H])C([H])([H])C([H])([H])C([H])(N(C(=O)N5C([H])([H])C([H])([H])C([H])([H])C([H])(n6nc(-c7c([H])c([H])c(Oc8c([H])c([H])c(F)c([H])c8F)c([H])c7[H])c(C(=O)N([H])[H])c6N([H])[H])C5([H])[H])C([H])([H])[H])C4([H])[H])C([H])([H])C3([H])[H])c([H])c([H])c2C1([H])[H]

$$$$
63:0:0
     RDKit          3D

 95103  0  0  1  0  0  0  0  0999 V2000
  -31.8350  -23.3450   21.0250 C   0  0  0  0  0  2  0  0  0  0  0  0
  -30.6660  -22.3290   20.9340 C   0  0  0  0  0  2  0  0  0  0  0  0
  -31.8810  -20.0260   18.0850 C   0  0  0  0  0  3  0  0  0  0  0  0
  -31.7030  -21.1650   18.8910 C   0  0  0  0  0  3  0  0  0  0  0  0
  -31.2760  -18.8120   18.4430 C   0  0  0  0  0  3  0  0  0  0  0  0
  -30.2810  -19.8870   20.3970 C   0  0  0  0  0  3  0  0  0  0  0  0
  -30.9030  -21.1060   20.0530 C   0  0  0  0  0  0  0  0  0  0  0  0
  -30.4740  -18.7390   19.6000 C   0  0  0  0  0  0  0  0  0  0  0  0
  -29.8210  -17.4220   19.9620 C   0  0  0  0  0  2  0  0  0  0  0  0
  -30.4260  -16.7680   21.2180 C   0  0  0  0  0  2  0  0  0  0  0  0
  -30.6670  -14.4090   20.5500 C   0  0  0  0  0  0  0  0  0  0  0  0
  -30.3230  -12.2920   19.3440 C   0  0  0  0  0  2  0  0  0  0  0  0
  -29.3910  -12.5170   18.1370 C   0  0  0  0  0  2  0  0  0  0  0  0
  -27.9160  -12.3710   18.5590 C   0  0  0  0  0  2  0  0  0  0  0  0
  -27.5740  -13.2210   19.8100 C   0  0  0  0  0  3  0  0  0  0  0  0
  -28.6150  -12.9980   20.9310 C   0  0  0  0  0  2  0  0  0  0  0  0
  -29.9590  -13.2640   20.3850 N   0  0  0  0  0  0  0  0  0  0  0  0
  -31.7420  -14.6320   19.9840 O   0  0  0  0  0  0  0  0  0  0  0  0
  -30.0600  -15.3550   21.2730 N   0  0  0  0  0  0  0  0  0  0  0  0
  -29.1910  -15.1100   21.7210 H   0  0  0  0  0  0  0  0  0  0  0  0
  -25.1740  -13.8440   20.5080 C   0  0  0  0  0  0  0  0  0  0  0  0
  -24.1060  -13.0720   20.8850 C   0  0  0  0  0  0  0  0  0  0  0  0
  -24.5690  -11.7210   20.8620 C   0  0  0  0  0  0  0  0  0  0  0  0
  -26.2180  -12.9570   20.2870 N   0  0  0  0  0  0  0  0  0  0  0  0
  -25.8550  -11.6780   20.5580 N   0  0  0  0  0  0  0  0  0  0  0  0
  -23.8460  -10.4590   21.0560 C   0  0  0  0  0  0  0  0  0  0  0  0
  -24.2940   -9.4920   21.9840 C   0  0  0  0  0  3  0  0  0  0  0  0
  -23.5760   -8.2940   22.1680 C   0  0  0  0  0  3  0  0  0  0  0  0
  -22.3930   -8.0520   21.4270 C   0  0  0  0  0  0  0  0  0  0  0  0
  -21.9670   -9.0070   20.4860 C   0  0  0  0  0  3  0  0  0  0  0  0
  -22.6850  -10.2000   20.2990 C   0  0  0  0  0  3  0  0  0  0  0  0
  -21.6460   -6.9040   21.5200 O   0  0  0  0  0  0  0  0  0  0  0  0
  -21.6290   -6.1450   22.6640 C   0  0  0  0  0  0  0  0  0  0  0  0
  -21.2490   -6.6850   23.9100 C   0  0  0  0  0  3  0  0  0  0  0  0
  -21.1770   -5.8560   25.0470 C   0  0  0  0  0  3  0  0  0  0  0  0
  -21.4730   -4.4840   24.9380 C   0  0  0  0  0  0  0  0  0  0  0  0
  -21.8450   -3.9410   23.6950 C   0  0  0  0  0  3  0  0  0  0  0  0
  -21.9180   -4.7690   22.5610 C   0  0  0  0  0  0  0  0  0  0  0  0
  -22.2580   -4.2370   21.3620 F   0  0  0  0  0  0  0  0  0  0  0  0
  -21.3970   -3.6840   26.0280 F   0  0  0  0  0  0  0  0  0  0  0  0
  -22.7080  -13.5490   21.1540 C   0  0  0  0  0  0  0  0  0  0  0  0
  -21.9800  -12.8510   22.0200 N   0  0  0  0  0  0  0  0  0  0  0  0
  -22.2650  -14.5680   20.6250 O   0  0  0  0  0  0  0  0  0  0  0  0
  -22.3520  -12.0260   22.4670 H   0  0  0  0  0  0  0  0  0  0  0  0
  -21.0380  -13.1430   22.2430 H   0  0  0  0  0  0  0  0  0  0  0  0
  -25.3500  -15.2100   20.3150 N   0  0  0  0  0  0  0  0  0  0  0  0
  -24.5980  -15.8860   20.3810 H   0  0  0  0  0  0  0  0  0  0  0  0
  -26.2090  -15.6220   19.9720 H   0  0  0  0  0  0  0  0  0  0  0  0
  -31.8630  -24.4580   19.9420 C   0  0  0  0  0  2  0  0  0  0  0  0
  -30.5700  -25.1710   19.8840 N   0  0  0  0  0  4  0  0  0  0  0  0
  -30.3870  -25.6040   20.7780 H   0  0  0  0  0  0  0  0  0  0  0  0
  -29.8530  -24.4790   19.7270 H   0  0  0  0  0  0  0  0  0  0  0  0
  -30.4020  -26.2020   18.8350 C   0  0  0  0  0  2  0  0  0  0  0  0
  -28.9130  -26.5740   18.7250 C   0  0  0  0  0  2  0  0  0  0  0  0
  -28.4390  -26.8530   20.0430 O   0  0  0  0  0  0  0  0  0  0  0  0
  -24.5880  -31.8930   23.2280 C   0  0  0  0  0  0  0  0  0  0  0  0
  -27.2380  -27.5110   20.0950 C   0  0  0  0  0  0  0  0  0  0  0  0
  -23.3670  -30.4870   21.5960 C   0  0  0  0  0  3  0  0  0  0  0  0
  -24.8170  -28.9540   20.1590 C   0  0  0  0  0  0  0  0  0  0  0  0
  -25.8840  -30.8630   21.3730 C   0  0  0  0  0  2  0  0  0  0  0  0
  -25.9690  -29.4910   20.7450 C   0  0  0  0  0  0  0  0  0  0  0  0
  -27.1770  -28.7660   20.7330 C   0  0  0  0  0  3  0  0  0  0  0  0
  -26.0690  -26.9660   19.5200 C   0  0  0  0  0  3  0  0  0  0  0  0
  -24.8560  -27.6820   19.5560 C   0  0  0  0  0  3  0  0  0  0  0  0
  -23.5660  -29.8020   20.2160 C   0  0  0  0  0  2  0  0  0  0  0  0
  -24.6310  -31.0950   22.1260 N   0  0  0  0  0  0  0  0  0  0  0  0
  -23.5120  -32.1630   23.7790 O   0  0  0  0  0  0  0  0  0  0  0  0
  -22.7320  -29.4650   22.5630 C   0  0  0  0  0  0  0  0  0  0  0  0
  -21.4080  -29.2780   22.4420 N   0  0  0  0  0  0  0  0  0  0  0  0
  -23.4240  -28.8430   23.3710 O   0  0  0  0  0  0  0  0  0  0  0  0
  -20.9110  -29.8280   21.7560 H   0  0  0  0  0  0  0  0  0  0  0  0
  -18.0430  -28.0790   22.9590 C   0  0  0  0  0  0  0  0  0  0  0  0
  -20.6000  -28.3380   23.2170 C   0  0  0  0  0  3  0  0  0  0  0  0
  -20.7030  -26.9080   22.6380 C   0  0  0  0  0  2  0  0  0  0  0  0
  -19.5970  -26.5850   21.6300 C   0  0  0  0  0  2  0  0  0  0  0  0
  -18.2180  -26.7290   22.2810 C   0  0  0  0  0  2  0  0  0  0  0  0
  -19.1620  -28.8410   23.3830 C   0  0  0  0  0  0  0  0  0  0  0  0
  -18.9460  -30.1070   23.9720 C   0  0  0  0  0  3  0  0  0  0  0  0
  -17.6430  -30.6070   24.1430 C   0  0  0  0  0  3  0  0  0  0  0  0
  -16.5370  -29.8420   23.7360 C   0  0  0  0  0  3  0  0  0  0  0  0
  -16.7370  -28.5790   23.1500 C   0  0  0  0  0  3  0  0  0  0  0  0
  -25.8820  -32.5230   23.8360 C   0  0  0  0  0  3  0  0  0  0  0  0
  -25.5750  -33.9180   24.1750 N   0  0  0  0  0  0  0  0  0  0  0  0
  -25.9040  -34.9730   23.4180 C   0  0  0  0  0  0  0  0  0  0  0  0
  -26.5700  -34.8740   22.3830 O   0  0  0  0  0  0  0  0  0  0  0  0
  -24.9860  -34.0710   24.9800 H   0  0  0  0  0  0  0  0  0  0  0  0
  -24.1740  -36.7640   23.0720 C   0  0  0  0  0  1  0  0  0  0  0  0
  -25.4170  -36.3590   23.8810 C   0  0  0  0  0  3  0  0  0  0  0  0
  -27.5550  -37.2370   24.7090 C   0  0  0  0  0  1  0  0  0  0  0  0
  -26.4480  -37.4130   23.7720 N   0  0  0  0  0  0  0  0  0  0  0  0
  -26.0440  -38.3320   23.9250 H   0  0  0  0  0  0  0  0  0  0  0  0
  -26.4200  -31.7450   25.0980 C   0  0  1  0  0  0  0  0  0  0  0  0
  -25.3430  -31.4970   26.1790 C   0  0  0  0  0  1  0  0  0  0  0  0
  -27.0000  -30.3710   24.6860 C   0  0  0  0  0  1  0  0  0  0  0  0
  -27.5790  -32.5350   25.7480 C   0  0  0  0  0  1  0  0  0  0  0  0
  2  1  1  0
  3  5  2  0
  3  4  1  0
  4  7  2  0
  5  8  1  0
  7  6  1  0
  7  2  1  0
  8  9  1  0
  8  6  2  0
  9 10  1  0
 10 19  1  0
 11 19  1  0
 12 17  1  0
 13 14  1  0
 13 12  1  0
 15 14  1  0
 15 24  1  0
 15 16  1  0
 17 11  1  0
 17 16  1  0
 18 11  2  0
 19 20  1  0
 21 22  2  0
 22 41  1  0
 23 22  1  0
 23 26  1  0
 24 21  1  0
 24 25  1  0
 25 23  2  0
 26 27  1  0
 27 28  2  0
 29 32  1  0
 29 28  1  0
 30 29  2  0
 31 30  1  0
 31 26  2  0
 32 33  1  0
 33 34  1  0
 34 35  2  0
 36 35  1  0
 36 40  1  0
 37 36  2  0
 38 33  2  0
 38 37  1  0
 39 38  1  0
 41 42  1  0
 42 45  1  0
 42 44  1  0
 43 41  2  0
 46 47  1  0
 46 21  1  0
 48 46  1  0
 49  1  1  0
 50 49  1  0
 50 51  1  0
 52 50  1  0
 53 50  1  0
 54 53  1  0
 54 55  1  0
 55 57  1  0
 56 67  2  0
 57 62  1  0
 58 66  1  0
 58 68  1  0
 59 65  1  0
 59 61  1  0
 60 66  1  0
 61 60  1  0
 62 61  2  0
 63 64  1  0
 63 57  2  0
 64 59  2  0
 65 58  1  0
 66 56  1  0
 68 70  2  0
 69 68  1  0
 71 69  1  0
 72 81  2  0
 72 77  1  0
 73 69  1  0
 73 77  1  0
 74 73  1  0
 75 76  1  0
 75 74  1  0
 76 72  1  0
 77 78  2  0
 78 79  1  0
 80 79  2  0
 81 80  1  0
 82 56  1  0
 82 83  1  0
 82 92  1  0
 83 86  1  0
 84 88  1  0
 84 83  1  0
 85 84  2  0
 88 87  1  0
 90 88  1  0
 90 91  1  0
 90 89  1  0
 92 95  1  1
 92 93  1  0
 94 92  1  0
M  ISO  4  11 100  19 100  54 101  55 101
M  END
>  <TORSDO>  (63) 
F 24

>  <SCORE>  (63) 
-12.234

>  <name>  (63) 
63

>  <ligand_id>  (63) 
63

>  <original_smiles>  (63) 
[H]c1c([H])c([H])c2c(c1[H])C([H])([H])C([H])([H])C([H])([H])C2([H])N([H])C(=O)C1([H])N(C(=O)C([H])(N([H])C(=O)C([H])(N([H])C([H])([H])[H])C([H])([H])[H])C(C([H])([H])[H])(C([H])([H])[H])C([H])([H])[H])C([H])([H])c2c([H])c(OC([H])([H])C([H])([H])[N+]([H])([H])C([H])([H])C([H])([H])C([H])([H])c3c([H])c([H])c([H])c(C([H])([H])C([H])([H])N([H])C(=O)N4C([H])([H])C([H])([H])C([H])([H])C([H])(n5nc(-c6c([H])c([H])c(Oc7c([H])c([H])c(F)c([H])c7F)c([H])c6[H])c(C(=O)N([H])[H])c5N([H])[H])C4([H])[H])c3[H])c([H])c([H])c2C1([H])[H]

>  <smiles>  (63) 
[H]c1c([H])c([H])c2c(c1[H])C([H])([H])C([H])([H])C([H])([H])C2([H])N([H])C(=O)C1([H])N(C(=O)C([H])(N([H])C(=O)C([H])(N([H])C([H])([H])[H])C([H])([H])[H])C(C([H])([H])[H])(C([H])([H])[H])C([H])([H])[H])C([H])([H])c2c([H])c(OC([H])([H])C([H])([H])[N+]([H])([H])C([H])([H])C([H])([H])C([H])([H])c3c([H])c([H])c([H])c(C([H])([H])C([H])([H])N([H])C(=O)N4C([H])([H])C([H])([H])C([H])([H])C([H])(n5nc(-c6c([H])c([H])c(Oc7c([H])c([H])c(F)c([H])c7F)c([H])c6[H])c(C(=O)N([H])[H])c5N([H])[H])C4([H])[H])c3[H])c([H])c([H])c2C1([H])[H]

$$$$
64:0:0
     RDKit          3D

 95105  0  0  1  0  0  0  0  0999 V2000
  -32.3560  -19.3480   19.9760 C   0  0  0  0  0  3  0  0  0  0  0  0
  -32.1670  -18.1370   20.6670 C   0  0  0  0  0  3  0  0  0  0  0  0
  -29.7880  -18.6150   20.8400 C   0  0  0  0  0  3  0  0  0  0  0  0
  -31.2670  -20.2070   19.7180 C   0  0  0  0  0  0  0  0  0  0  0  0
  -29.9700  -19.8390   20.1460 C   0  0  0  0  0  0  0  0  0  0  0  0
  -30.8850  -17.7650   21.1170 C   0  0  0  0  0  0  0  0  0  0  0  0
  -31.5150  -21.5120   18.9760 C   0  0  0  0  0  2  0  0  0  0  0  0
  -28.7680  -20.7300   19.8350 C   0  0  0  0  0  2  0  0  0  0  0  0
  -31.1970  -22.7660   19.8170 C   0  0  0  0  0  2  0  0  0  0  0  0
  -28.8010  -22.1470   20.4640 C   0  0  0  0  0  2  0  0  0  0  0  0
  -28.3110  -24.8250   18.4920 C   0  0  0  0  0  2  0  0  0  0  0  0
  -29.2550  -23.6170   18.3770 C   0  0  0  0  0  2  0  0  0  0  0  0
  -29.5670  -24.5780   20.5420 C   0  0  0  0  0  2  0  0  0  0  0  0
  -28.3250  -25.2740   19.9620 C   0  0  0  0  0  3  0  0  0  0  0  0
  -29.7160  -23.2230   19.8010 C   0  0  2  0  0  0  0  0  0  0  0  0
  -28.3830  -26.7040   20.1380 O   0  0  0  0  0  0  0  0  0  0  0  0
  -24.5830  -31.8860   23.2240 C   0  0  0  0  0  0  0  0  0  0  0  0
  -27.2020  -27.4260   20.1310 C   0  0  0  0  0  0  0  0  0  0  0  0
  -23.3690  -30.4930   21.5830 C   0  0  0  0  0  3  0  0  0  0  0  0
  -24.8120  -28.9530   20.1560 C   0  0  0  0  0  0  0  0  0  0  0  0
  -25.8980  -30.8390   21.3820 C   0  0  0  0  0  2  0  0  0  0  0  0
  -25.9770  -29.4690   20.7370 C   0  0  0  0  0  0  0  0  0  0  0  0
  -27.1740  -28.7150   20.7170 C   0  0  0  0  0  3  0  0  0  0  0  0
  -26.0080  -26.9260   19.5570 C   0  0  0  0  0  3  0  0  0  0  0  0
  -24.8240  -27.6800   19.5650 C   0  0  0  0  0  3  0  0  0  0  0  0
  -23.5730  -29.8170   20.2020 C   0  0  0  0  0  2  0  0  0  0  0  0
  -24.6360  -31.0870   22.1210 N   0  0  0  0  0  0  0  0  0  0  0  0
  -23.5040  -32.1620   23.7650 O   0  0  0  0  0  0  0  0  0  0  0  0
  -22.7160  -29.4720   22.5430 C   0  0  0  0  0  0  0  0  0  0  0  0
  -21.3890  -29.2970   22.4190 N   0  0  0  0  0  0  0  0  0  0  0  0
  -23.3980  -28.8390   23.3550 O   0  0  0  0  0  0  0  0  0  0  0  0
  -20.9010  -29.8600   21.7370 H   0  0  0  0  0  0  0  0  0  0  0  0
  -18.0080  -28.1320   22.9300 C   0  0  0  0  0  0  0  0  0  0  0  0
  -20.5690  -28.3620   23.1890 C   0  0  0  0  0  3  0  0  0  0  0  0
  -20.6540  -26.9330   22.6040 C   0  0  0  0  0  2  0  0  0  0  0  0
  -19.5430  -26.6280   21.5940 C   0  0  0  0  0  2  0  0  0  0  0  0
  -18.1660  -26.7840   22.2460 C   0  0  0  0  0  2  0  0  0  0  0  0
  -19.1370  -28.8800   23.3580 C   0  0  0  0  0  0  0  0  0  0  0  0
  -18.9350  -30.1420   23.9570 C   0  0  0  0  0  3  0  0  0  0  0  0
  -17.6360  -30.6570   24.1310 C   0  0  0  0  0  3  0  0  0  0  0  0
  -16.5220  -29.9050   23.7200 C   0  0  0  0  0  3  0  0  0  0  0  0
  -16.7090  -28.6440   23.1260 C   0  0  0  0  0  3  0  0  0  0  0  0
  -25.8720  -32.5110   23.8430 C   0  0  0  0  0  3  0  0  0  0  0  0
  -25.5680  -33.9090   24.1760 N   0  0  0  0  0  0  0  0  0  0  0  0
  -25.9050  -34.9620   23.4180 C   0  0  0  0  0  0  0  0  0  0  0  0
  -26.5750  -34.8580   22.3870 O   0  0  0  0  0  0  0  0  0  0  0  0
  -24.9730  -34.0650   24.9770 H   0  0  0  0  0  0  0  0  0  0  0  0
  -24.1850  -36.7620   23.0610 C   0  0  0  0  0  1  0  0  0  0  0  0
  -25.4210  -36.3500   23.8770 C   0  0  0  0  0  3  0  0  0  0  0  0
  -27.5550  -37.2240   24.7200 C   0  0  0  0  0  1  0  0  0  0  0  0
  -26.4580  -37.4000   23.7710 N   0  0  0  0  0  0  0  0  0  0  0  0
  -26.0550  -38.3210   23.9210 H   0  0  0  0  0  0  0  0  0  0  0  0
  -26.3910  -31.7340   25.1150 C   0  0  1  0  0  0  0  0  0  0  0  0
  -25.3010  -31.4930   26.1850 C   0  0  0  0  0  1  0  0  0  0  0  0
  -26.9710  -30.3580   24.7140 C   0  0  0  0  0  1  0  0  0  0  0  0
  -27.5430  -32.5250   25.7770 C   0  0  0  0  0  1  0  0  0  0  0  0
  -30.7310  -16.5040   21.9670 C   0  0  0  0  0  2  0  0  0  0  0  0
  -30.6990  -14.4460   20.5320 C   0  0  0  0  0  0  0  0  0  0  0  0
  -30.3620  -12.3480   19.2660 C   0  0  0  0  0  2  0  0  0  0  0  0
  -29.4200  -12.5790   18.0680 C   0  0  0  0  0  2  0  0  0  0  0  0
  -27.9450  -12.4430   18.4950 C   0  0  0  0  0  2  0  0  0  0  0  0
  -27.6140  -13.2600   19.7720 C   0  0  0  0  0  3  0  0  0  0  0  0
  -28.6610  -12.9940   20.8750 C   0  0  0  0  0  2  0  0  0  0  0  0
  -29.9910  -13.3040   20.3210 N   0  0  0  0  0  0  0  0  0  0  0  0
  -31.8000  -14.6630   20.0160 O   0  0  0  0  0  0  0  0  0  0  0  0
  -30.1020  -15.3470   21.3270 N   0  0  0  0  0  0  0  0  0  0  0  0
  -29.1820  -15.1010   21.6540 H   0  0  0  0  0  0  0  0  0  0  0  0
  -25.2100  -13.8800   20.4500 C   0  0  0  0  0  0  0  0  0  0  0  0
  -24.1360  -13.1130   20.8170 C   0  0  0  0  0  0  0  0  0  0  0  0
  -24.5950  -11.7610   20.8050 C   0  0  0  0  0  0  0  0  0  0  0  0
  -26.2550  -12.9940   20.2410 N   0  0  0  0  0  0  0  0  0  0  0  0
  -25.8880  -11.7150   20.5100 N   0  0  0  0  0  0  0  0  0  0  0  0
  -23.8660  -10.5010   21.0010 C   0  0  0  0  0  0  0  0  0  0  0  0
  -24.2860   -9.5440   21.9500 C   0  0  0  0  0  3  0  0  0  0  0  0
  -23.5570   -8.3490   22.1340 C   0  0  0  0  0  3  0  0  0  0  0  0
  -22.3940   -8.1030   21.3660 C   0  0  0  0  0  0  0  0  0  0  0  0
  -21.9930   -9.0490   20.4060 C   0  0  0  0  0  3  0  0  0  0  0  0
  -22.7220  -10.2350   20.2220 C   0  0  0  0  0  3  0  0  0  0  0  0
  -21.6380   -6.9600   21.4570 O   0  0  0  0  0  0  0  0  0  0  0  0
  -21.5730   -6.2310   22.6170 C   0  0  0  0  0  0  0  0  0  0  0  0
  -21.1310   -6.7990   23.8320 C   0  0  0  0  0  3  0  0  0  0  0  0
  -21.0140   -5.9960   24.9830 C   0  0  0  0  0  3  0  0  0  0  0  0
  -21.3290   -4.6240   24.9230 C   0  0  0  0  0  0  0  0  0  0  0  0
  -21.7630   -4.0560   23.7130 C   0  0  0  0  0  3  0  0  0  0  0  0
  -21.8820   -4.8560   22.5620 C   0  0  0  0  0  0  0  0  0  0  0  0
  -22.2810   -4.2980   21.3940 F   0  0  0  0  0  0  0  0  0  0  0  0
  -21.2080   -3.8510   26.0260 F   0  0  0  0  0  0  0  0  0  0  0  0
  -22.7370  -13.5960   21.0710 C   0  0  0  0  0  0  0  0  0  0  0  0
  -21.9980  -12.9060   21.9320 N   0  0  0  0  0  0  0  0  0  0  0  0
  -22.3070  -14.6190   20.5400 O   0  0  0  0  0  0  0  0  0  0  0  0
  -22.3580  -12.0780   22.3830 H   0  0  0  0  0  0  0  0  0  0  0  0
  -21.0580  -13.2100   22.1460 H   0  0  0  0  0  0  0  0  0  0  0  0
  -25.3790  -15.2490   20.2590 N   0  0  0  0  0  0  0  0  0  0  0  0
  -24.6140  -15.9080   20.3510 H   0  0  0  0  0  0  0  0  0  0  0  0
  -26.2360  -15.6810   19.9370 H   0  0  0  0  0  0  0  0  0  0  0  0
  1  2  1  0
  2  6  2  0
  3  6  1  0
  4  1  2  0
  4  5  1  0
  5  3  2  0
  6 57  1  0
  7  4  1  0
  7  9  1  0
  8  5  1  0
  8 10  1  0
 11 14  1  0
 12 11  1  0
 14 16  1  0
 14 13  1  0
 15 12  1  6
 15  9  1  0
 15 10  1  0
 15 13  1  0
 17 28  2  0
 18 16  1  0
 18 23  1  0
 19 27  1  0
 19 29  1  0
 20 26  1  0
 20 22  1  0
 21 27  1  0
 22 21  1  0
 23 22  2  0
 24 25  1  0
 24 18  2  0
 25 20  2  0
 26 19  1  0
 27 17  1  0
 29 31  2  0
 30 29  1  0
 32 30  1  0
 33 42  2  0
 33 38  1  0
 34 30  1  0
 34 38  1  0
 35 34  1  0
 36 37  1  0
 36 35  1  0
 37 33  1  0
 38 39  2  0
 39 40  1  0
 41 40  2  0
 42 41  1  0
 43 17  1  0
 43 44  1  0
 43 53  1  0
 44 47  1  0
 45 49  1  0
 45 44  1  0
 46 45  2  0
 49 48  1  0
 51 49  1  0
 51 52  1  0
 51 50  1  0
 53 56  1  1
 53 54  1  0
 55 53  1  0
 58 66  1  0
 59 64  1  0
 60 61  1  0
 60 59  1  0
 62 61  1  0
 62 71  1  0
 62 63  1  0
 64 58  1  0
 64 63  1  0
 65 58  2  0
 66 67  1  0
 66 57  1  0
 68 69  2  0
 69 88  1  0
 70 69  1  0
 70 73  1  0
 71 68  1  0
 71 72  1  0
 72 70  2  0
 73 74  1  0
 74 75  2  0
 76 79  1  0
 76 75  1  0
 77 76  2  0
 78 77  1  0
 78 73  2  0
 79 80  1  0
 80 81  1  0
 81 82  2  0
 83 82  1  0
 83 87  1  0
 84 83  2  0
 85 80  2  0
 85 84  1  0
 86 85  1  0
 88 89  1  0
 89 92  1  0
 89 91  1  0
 90 88  2  0
 93 94  1  0
 93 68  1  0
 95 93  1  0
M  ISO  4  14 101  16 101  58 100  66 100
M  END
>  <TORSDO>  (64) 
F 17

>  <SCORE>  (64) 
-15.464

>  <name>  (64) 
64

>  <ligand_id>  (64) 
64

>  <original_smiles>  (64) 
[H]c1c([H])c([H])c2c(c1[H])C([H])([H])C([H])([H])C([H])([H])C2([H])N([H])C(=O)C1([H])N(C(=O)C([H])(N([H])C(=O)C([H])(N([H])C([H])([H])[H])C([H])([H])[H])C(C([H])([H])[H])(C([H])([H])[H])C([H])([H])[H])C([H])([H])c2c([H])c(OC3([H])C([H])([H])C([H])([H])C4(C([H])([H])C([H])([H])c5c([H])c([H])c(C([H])([H])N([H])C(=O)N6C([H])([H])C([H])([H])C([H])([H])C([H])(n7nc(-c8c([H])c([H])c(Oc9c([H])c([H])c(F)c([H])c9F)c([H])c8[H])c(C(=O)N([H])[H])c7N([H])[H])C6([H])[H])c([H])c5C([H])([H])C4([H])[H])C3([H])[H])c([H])c([H])c2C1([H])[H]

>  <smiles>  (64) 
[H]c1c([H])c([H])c2c(c1[H])C([H])([H])C([H])([H])C([H])([H])C2([H])N([H])C(=O)C1([H])N(C(=O)C([H])(N([H])C(=O)C([H])(N([H])C([H])([H])[H])C([H])([H])[H])C(C([H])([H])[H])(C([H])([H])[H])C([H])([H])[H])C([H])([H])c2c([H])c(OC3([H])C([H])([H])C([H])([H])C4(C([H])([H])C([H])([H])c5c([H])c([H])c(C([H])([H])N([H])C(=O)N6C([H])([H])C([H])([H])C([H])([H])C([H])(n7nc(-c8c([H])c([H])c(Oc9c([H])c([H])c(F)c([H])c9F)c([H])c8[H])c(C(=O)N([H])[H])c7N([H])[H])C6([H])[H])c([H])c5C([H])([H])C4([H])[H])C3([H])[H])c([H])c([H])c2C1([H])[H]

$$$$
65:0:0
     RDKit          3D

 93101  0  0  1  0  0  0  0  0999 V2000
  -29.7330  -22.6650   19.3490 C   0  0  0  0  0  2  0  0  0  0  0  0
  -30.9980  -21.1730   21.0680 C   0  0  0  0  0  3  0  0  0  0  0  0
  -31.2520  -19.7930   21.3390 C   0  0  0  0  0  0  0  0  0  0  0  0
  -30.1740  -21.3840   19.9910 C   0  0  0  0  0  0  0  0  0  0  0  0
  -30.5980  -18.9640   20.4580 C   0  0  0  0  0  0  0  0  0  0  0  0
  -32.1470  -19.3390   22.4490 C   0  0  0  0  0  1  0  0  0  0  0  0
  -29.6220  -19.8710   19.3360 S   0  0  0  0  0  0  0  0  0  0  0  0
  -30.6380  -17.4740   20.3210 C   0  0  0  0  0  2  0  0  0  0  0  0
  -30.4790  -16.6580   21.6200 C   0  0  0  0  0  2  0  0  0  0  0  0
  -30.7430  -14.3930   20.5600 C   0  0  0  0  0  0  0  0  0  0  0  0
  -30.4180  -12.3260   19.2630 C   0  0  0  0  0  2  0  0  0  0  0  0
  -29.4730  -12.5930   18.0760 C   0  0  0  0  0  2  0  0  0  0  0  0
  -27.9930  -12.4700   18.4930 C   0  0  0  0  0  2  0  0  0  0  0  0
  -27.6700  -13.2580   19.7920 C   0  0  0  0  0  3  0  0  0  0  0  0
  -28.7130  -12.9370   20.8850 C   0  0  0  0  0  2  0  0  0  0  0  0
  -30.0520  -13.2460   20.3470 N   0  0  0  0  0  0  0  0  0  0  0  0
  -31.8180  -14.6540   20.0100 O   0  0  0  0  0  0  0  0  0  0  0  0
  -30.1180  -15.2670   21.3570 N   0  0  0  0  0  0  0  0  0  0  0  0
  -29.2500  -14.9420   21.7570 H   0  0  0  0  0  0  0  0  0  0  0  0
  -25.2630  -13.8870   20.4560 C   0  0  0  0  0  0  0  0  0  0  0  0
  -24.1870  -13.1230   20.8240 C   0  0  0  0  0  0  0  0  0  0  0  0
  -24.6420  -11.7700   20.8140 C   0  0  0  0  0  0  0  0  0  0  0  0
  -26.3080  -12.9990   20.2520 N   0  0  0  0  0  0  0  0  0  0  0  0
  -25.9360  -11.7210   20.5190 N   0  0  0  0  0  0  0  0  0  0  0  0
  -23.9090  -10.5120   21.0110 C   0  0  0  0  0  0  0  0  0  0  0  0
  -24.3380   -9.5510   21.9520 C   0  0  0  0  0  3  0  0  0  0  0  0
  -23.6100   -8.3560   22.1360 C   0  0  0  0  0  3  0  0  0  0  0  0
  -22.4360   -8.1170   21.3810 C   0  0  0  0  0  0  0  0  0  0  0  0
  -22.0280   -9.0670   20.4290 C   0  0  0  0  0  3  0  0  0  0  0  0
  -22.7580  -10.2530   20.2410 C   0  0  0  0  0  3  0  0  0  0  0  0
  -21.6780   -6.9730   21.4750 O   0  0  0  0  0  0  0  0  0  0  0  0
  -21.6290   -6.2350   22.6310 C   0  0  0  0  0  0  0  0  0  0  0  0
  -21.2190   -6.7970   23.8600 C   0  0  0  0  0  3  0  0  0  0  0  0
  -21.1190   -5.9850   25.0070 C   0  0  0  0  0  3  0  0  0  0  0  0
  -21.4160   -4.6110   24.9260 C   0  0  0  0  0  0  0  0  0  0  0  0
  -21.8180   -4.0490   23.7030 C   0  0  0  0  0  3  0  0  0  0  0  0
  -21.9220   -4.8570   22.5580 C   0  0  0  0  0  0  0  0  0  0  0  0
  -22.2890   -4.3060   21.3760 F   0  0  0  0  0  0  0  0  0  0  0  0
  -21.3110   -3.8280   26.0260 F   0  0  0  0  0  0  0  0  0  0  0  0
  -22.7890  -13.6080   21.0780 C   0  0  0  0  0  0  0  0  0  0  0  0
  -22.0490  -12.9240   21.9450 N   0  0  0  0  0  0  0  0  0  0  0  0
  -22.3570  -14.6280   20.5420 O   0  0  0  0  0  0  0  0  0  0  0  0
  -22.4060  -12.1000   22.4040 H   0  0  0  0  0  0  0  0  0  0  0  0
  -21.1100  -13.2320   22.1520 H   0  0  0  0  0  0  0  0  0  0  0  0
  -25.4350  -15.2550   20.2640 N   0  0  0  0  0  0  0  0  0  0  0  0
  -24.6690  -15.9140   20.3430 H   0  0  0  0  0  0  0  0  0  0  0  0
  -26.2940  -15.6860   19.9460 H   0  0  0  0  0  0  0  0  0  0  0  0
  -30.3190  -23.8690   19.9740 N   0  0  0  0  0  4  0  0  0  0  0  0
  -31.3210  -23.7620   19.9400 H   0  0  0  0  0  0  0  0  0  0  0  0
  -30.0460  -23.9050   20.9440 H   0  0  0  0  0  0  0  0  0  0  0  0
  -29.9860  -25.1520   19.3090 C   0  0  0  0  0  2  0  0  0  0  0  0
  -28.5060  -25.5570   19.4460 C   0  0  0  0  0  2  0  0  0  0  0  0
  -28.4190  -26.8180   20.1020 O   0  0  0  0  0  0  0  0  0  0  0  0
  -24.5720  -31.8990   23.2220 C   0  0  0  0  0  0  0  0  0  0  0  0
  -27.2070  -27.4740   20.1200 C   0  0  0  0  0  0  0  0  0  0  0  0
  -23.3540  -30.4970   21.5860 C   0  0  0  0  0  3  0  0  0  0  0  0
  -24.7980  -28.9570   20.1580 C   0  0  0  0  0  0  0  0  0  0  0  0
  -25.8750  -30.8600   21.3700 C   0  0  0  0  0  2  0  0  0  0  0  0
  -25.9570  -29.4880   20.7400 C   0  0  0  0  0  0  0  0  0  0  0  0
  -27.1600  -28.7490   20.7240 C   0  0  0  0  0  3  0  0  0  0  0  0
  -26.0210  -26.9420   19.5580 C   0  0  0  0  0  3  0  0  0  0  0  0
  -24.8230  -27.6810   19.5730 C   0  0  0  0  0  3  0  0  0  0  0  0
  -23.5540  -29.8130   20.2070 C   0  0  0  0  0  2  0  0  0  0  0  0
  -24.6200  -31.0990   22.1180 N   0  0  0  0  0  0  0  0  0  0  0  0
  -23.4960  -32.1710   23.7690 O   0  0  0  0  0  0  0  0  0  0  0  0
  -22.7100  -29.4760   22.5500 C   0  0  0  0  0  0  0  0  0  0  0  0
  -21.3850  -29.2990   22.4320 N   0  0  0  0  0  0  0  0  0  0  0  0
  -23.3990  -28.8470   23.3570 O   0  0  0  0  0  0  0  0  0  0  0  0
  -20.8900  -29.8570   21.7510 H   0  0  0  0  0  0  0  0  0  0  0  0
  -18.0090  -28.1270   22.9500 C   0  0  0  0  0  0  0  0  0  0  0  0
  -20.5700  -28.3630   23.2050 C   0  0  0  0  0  3  0  0  0  0  0  0
  -20.6580  -26.9340   22.6220 C   0  0  0  0  0  2  0  0  0  0  0  0
  -19.5460  -26.6230   21.6150 C   0  0  0  0  0  2  0  0  0  0  0  0
  -18.1700  -26.7770   22.2700 C   0  0  0  0  0  2  0  0  0  0  0  0
  -19.1360  -28.8780   23.3750 C   0  0  0  0  0  0  0  0  0  0  0  0
  -18.9320  -30.1420   23.9700 C   0  0  0  0  0  3  0  0  0  0  0  0
  -17.6330  -30.6550   24.1440 C   0  0  0  0  0  3  0  0  0  0  0  0
  -16.5190  -29.8990   23.7350 C   0  0  0  0  0  3  0  0  0  0  0  0
  -16.7090  -28.6370   23.1460 C   0  0  0  0  0  3  0  0  0  0  0  0
  -25.8650  -32.5250   23.8320 C   0  0  0  0  0  3  0  0  0  0  0  0
  -25.5600  -33.9220   24.1700 N   0  0  0  0  0  0  0  0  0  0  0  0
  -25.8960  -34.9760   23.4140 C   0  0  0  0  0  0  0  0  0  0  0  0
  -26.5640  -34.8760   22.3820 O   0  0  0  0  0  0  0  0  0  0  0  0
  -24.9620  -34.0740   24.9690 H   0  0  0  0  0  0  0  0  0  0  0  0
  -24.1730  -36.7740   23.0640 C   0  0  0  0  0  1  0  0  0  0  0  0
  -25.4110  -36.3630   23.8770 C   0  0  0  0  0  3  0  0  0  0  0  0
  -27.5480  -37.2350   24.7160 C   0  0  0  0  0  1  0  0  0  0  0  0
  -26.4480  -37.4130   23.7720 N   0  0  0  0  0  0  0  0  0  0  0  0
  -26.0440  -38.3340   23.9260 H   0  0  0  0  0  0  0  0  0  0  0  0
  -26.3940  -31.7470   25.0980 C   0  0  1  0  0  0  0  0  0  0  0  0
  -25.3100  -31.5050   26.1740 C   0  0  0  0  0  1  0  0  0  0  0  0
  -26.9700  -30.3710   24.6890 C   0  0  0  0  0  1  0  0  0  0  0  0
  -27.5510  -32.5350   25.7550 C   0  0  0  0  0  1  0  0  0  0  0  0
  1 48  1  0
  1  4  1  0
  2  3  1  0
  3  6  1  0
  4  2  2  0
  5  3  2  0
  7  4  1  0
  7  5  1  0
  8  5  1  0
  8  9  1  0
 10 18  1  0
 11 16  1  0
 12 13  1  0
 12 11  1  0
 14 13  1  0
 14 23  1  0
 14 15  1  0
 16 10  1  0
 16 15  1  0
 17 10  2  0
 18  9  1  0
 18 19  1  0
 20 21  2  0
 21 40  1  0
 22 21  1  0
 22 25  1  0
 23 20  1  0
 23 24  1  0
 24 22  2  0
 25 26  1  0
 26 27  2  0
 28 31  1  0
 28 27  1  0
 29 28  2  0
 30 29  1  0
 30 25  2  0
 31 32  1  0
 32 33  1  0
 33 34  2  0
 35 34  1  0
 35 39  1  0
 36 35  2  0
 37 32  2  0
 37 36  1  0
 38 37  1  0
 40 41  1  0
 41 44  1  0
 41 43  1  0
 42 40  2  0
 45 46  1  0
 45 20  1  0
 47 45  1  0
 48 50  1  0
 49 48  1  0
 51 52  1  0
 51 48  1  0
 52 53  1  0
 53 55  1  0
 54 65  2  0
 55 60  1  0
 56 64  1  0
 56 66  1  0
 57 63  1  0
 57 59  1  0
 58 64  1  0
 59 58  1  0
 60 59  2  0
 61 62  1  0
 61 55  2  0
 62 57  2  0
 63 56  1  0
 64 54  1  0
 66 68  2  0
 67 66  1  0
 69 67  1  0
 70 79  2  0
 70 75  1  0
 71 67  1  0
 71 75  1  0
 72 71  1  0
 73 74  1  0
 73 72  1  0
 74 70  1  0
 75 76  2  0
 76 77  1  0
 78 77  2  0
 79 78  1  0
 80 54  1  0
 80 81  1  0
 80 90  1  0
 81 84  1  0
 82 86  1  0
 82 81  1  0
 83 82  2  0
 86 85  1  0
 88 86  1  0
 88 89  1  0
 88 87  1  0
 90 93  1  1
 90 91  1  0
 92 90  1  0
M  ISO  4  10 100  18 100  52 101  53 101
M  END
>  <TORSDO>  (65) 
F 22

>  <SCORE>  (65) 
-13.150

>  <name>  (65) 
65

>  <ligand_id>  (65) 
65

>  <original_smiles>  (65) 
[H]c1c([H])c([H])c2c(c1[H])C([H])([H])C([H])([H])C([H])([H])C2([H])N([H])C(=O)C1([H])N(C(=O)C([H])(N([H])C(=O)C([H])(N([H])C([H])([H])[H])C([H])([H])[H])C(C([H])([H])[H])(C([H])([H])[H])C([H])([H])[H])C([H])([H])c2c([H])c(OC([H])([H])C([H])([H])[N+]([H])([H])C([H])([H])c3sc(C([H])([H])C([H])([H])N([H])C(=O)N4C([H])([H])C([H])([H])C([H])([H])C([H])(n5nc(-c6c([H])c([H])c(Oc7c([H])c([H])c(F)c([H])c7F)c([H])c6[H])c(C(=O)N([H])[H])c5N([H])[H])C4([H])[H])c(C([H])([H])[H])c3[H])c([H])c([H])c2C1([H])[H]

>  <smiles>  (65) 
[H]c1c([H])c([H])c2c(c1[H])C([H])([H])C([H])([H])C([H])([H])C2([H])N([H])C(=O)C1([H])N(C(=O)C([H])(N([H])C(=O)C([H])(N([H])C([H])([H])[H])C([H])([H])[H])C(C([H])([H])[H])(C([H])([H])[H])C([H])([H])[H])C([H])([H])c2c([H])c(OC([H])([H])C([H])([H])[N+]([H])([H])C([H])([H])c3sc(C([H])([H])C([H])([H])N([H])C(=O)N4C([H])([H])C([H])([H])C([H])([H])C([H])(n5nc(-c6c([H])c([H])c(Oc7c([H])c([H])c(F)c([H])c7F)c([H])c6[H])c(C(=O)N([H])[H])c5N([H])[H])C4([H])[H])c(C([H])([H])[H])c3[H])c([H])c([H])c2C1([H])[H]

$$$$
66:0:0
     RDKit          3D

 94102  0  0  1  0  0  0  0  0999 V2000
  -31.7870  -24.1180   20.3970 C   0  0  0  0  0  3  0  0  0  0  0  0
  -31.8720  -22.9960   19.5490 C   0  0  0  0  0  3  0  0  0  0  0  0
  -30.6460  -24.9440   20.3730 C   0  0  0  0  0  3  0  0  0  0  0  0
  -29.6640  -23.5040   18.6680 C   0  0  0  0  0  3  0  0  0  0  0  0
  -30.8030  -22.6750   18.6810 C   0  0  0  0  0  0  0  0  0  0  0  0
  -29.5830  -24.6370   19.5030 C   0  0  0  0  0  0  0  0  0  0  0  0
  -30.8490  -21.4550   17.7590 C   0  0  0  0  0  2  0  0  0  0  0  0
  -31.3670  -18.9720   17.4660 C   0  0  0  0  0  1  0  0  0  0  0  0
  -31.4330  -20.1860   18.4130 C   0  0  0  0  0  3  0  0  0  0  0  0
  -30.7290  -19.9360   19.6900 N   0  0  0  0  0  4  0  0  0  0  0  0
  -30.7530  -20.8100   20.1930 H   0  0  0  0  0  0  0  0  0  0  0  0
  -29.7600  -19.7250   19.5210 H   0  0  0  0  0  0  0  0  0  0  0  0
  -31.3160  -18.9150   20.5750 C   0  0  0  0  0  2  0  0  0  0  0  0
  -30.4810  -17.6280   20.5730 C   0  0  0  0  0  2  0  0  0  0  0  0
  -30.9750  -16.6330   21.6330 C   0  0  0  0  0  2  0  0  0  0  0  0
  -30.2420  -15.2820   21.5720 C   0  0  0  0  0  2  0  0  0  0  0  0
  -30.6990  -14.3530   20.4340 C   0  0  0  0  0  0  0  0  0  0  0  0
  -30.2970  -12.3330   19.0630 C   0  0  0  0  0  2  0  0  0  0  0  0
  -29.3160  -12.6250   17.9110 C   0  0  0  0  0  2  0  0  0  0  0  0
  -27.8580  -12.4840   18.3820 C   0  0  0  0  0  2  0  0  0  0  0  0
  -27.5840  -13.2640   19.6940 C   0  0  0  0  0  3  0  0  0  0  0  0
  -28.6560  -12.9320   20.7570 C   0  0  0  0  0  2  0  0  0  0  0  0
  -29.9750  -13.2370   20.1760 N   0  0  0  0  0  0  0  0  0  0  0  0
  -31.7150  -14.6430   19.7910 O   0  0  0  0  0  0  0  0  0  0  0  0
  -25.2000  -13.8940   20.4480 C   0  0  0  0  0  0  0  0  0  0  0  0
  -24.1320  -13.1250   20.8290 C   0  0  0  0  0  0  0  0  0  0  0  0
  -24.5830  -11.7700   20.7750 C   0  0  0  0  0  0  0  0  0  0  0  0
  -26.2350  -13.0040   20.1930 N   0  0  0  0  0  0  0  0  0  0  0  0
  -25.8660  -11.7220   20.4400 N   0  0  0  0  0  0  0  0  0  0  0  0
  -23.8540  -10.5100   20.9640 C   0  0  0  0  0  0  0  0  0  0  0  0
  -24.3190   -9.5140   21.8530 C   0  0  0  0  0  3  0  0  0  0  0  0
  -23.5900   -8.3190   22.0300 C   0  0  0  0  0  3  0  0  0  0  0  0
  -22.3830   -8.1120   21.3200 C   0  0  0  0  0  0  0  0  0  0  0  0
  -21.9400   -9.0960   20.4180 C   0  0  0  0  0  3  0  0  0  0  0  0
  -22.6680  -10.2830   20.2390 C   0  0  0  0  0  3  0  0  0  0  0  0
  -21.6220   -6.9710   21.4080 O   0  0  0  0  0  0  0  0  0  0  0  0
  -21.6380   -6.1820   22.5310 C   0  0  0  0  0  0  0  0  0  0  0  0
  -21.3190   -6.6980   23.8060 C   0  0  0  0  0  3  0  0  0  0  0  0
  -21.2780   -5.8390   24.9220 C   0  0  0  0  0  3  0  0  0  0  0  0
  -21.5460   -4.4660   24.7620 C   0  0  0  0  0  0  0  0  0  0  0  0
  -21.8600   -3.9500   23.4930 C   0  0  0  0  0  3  0  0  0  0  0  0
  -21.9010   -4.8070   22.3800 C   0  0  0  0  0  0  0  0  0  0  0  0
  -22.1830   -4.3010   21.1550 F   0  0  0  0  0  0  0  0  0  0  0  0
  -21.5000   -3.6380   25.8320 F   0  0  0  0  0  0  0  0  0  0  0  0
  -22.7450  -13.6080   21.1330 C   0  0  0  0  0  0  0  0  0  0  0  0
  -22.0330  -12.9040   22.0080 N   0  0  0  0  0  0  0  0  0  0  0  0
  -22.3000  -14.6420   20.6360 O   0  0  0  0  0  0  0  0  0  0  0  0
  -22.4060  -12.0640   22.4250 H   0  0  0  0  0  0  0  0  0  0  0  0
  -21.1030  -13.2050   22.2590 H   0  0  0  0  0  0  0  0  0  0  0  0
  -25.3780  -15.2610   20.2820 N   0  0  0  0  0  0  0  0  0  0  0  0
  -24.6320  -15.9350   20.4160 H   0  0  0  0  0  0  0  0  0  0  0  0
  -26.2420  -15.6890   19.9690 H   0  0  0  0  0  0  0  0  0  0  0  0
  -28.3110  -25.4520   19.4660 C   0  0  0  0  0  2  0  0  0  0  0  0
  -28.3790  -26.7430   20.0730 O   0  0  0  0  0  0  0  0  0  0  0  0
  -24.6100  -31.8890   23.2460 C   0  0  0  0  0  0  0  0  0  0  0  0
  -27.1940  -27.4560   20.1030 C   0  0  0  0  0  0  0  0  0  0  0  0
  -23.3780  -30.4970   21.6200 C   0  0  0  0  0  3  0  0  0  0  0  0
  -24.8040  -28.9690   20.1730 C   0  0  0  0  0  0  0  0  0  0  0  0
  -25.9040  -30.8480   21.3910 C   0  0  0  0  0  2  0  0  0  0  0  0
  -25.9750  -29.4810   20.7460 C   0  0  0  0  0  0  0  0  0  0  0  0
  -27.1730  -28.7320   20.7090 C   0  0  0  0  0  3  0  0  0  0  0  0
  -25.9920  -26.9590   19.5370 C   0  0  0  0  0  3  0  0  0  0  0  0
  -24.8060  -27.7050   19.5700 C   0  0  0  0  0  3  0  0  0  0  0  0
  -23.5670  -29.8320   20.2340 C   0  0  0  0  0  2  0  0  0  0  0  0
  -24.6510  -31.0910   22.1440 N   0  0  0  0  0  0  0  0  0  0  0  0
  -23.5360  -32.1630   23.8010 O   0  0  0  0  0  0  0  0  0  0  0  0
  -22.7400  -29.4680   22.5820 C   0  0  0  0  0  0  0  0  0  0  0  0
  -21.4150  -29.2830   22.4650 N   0  0  0  0  0  0  0  0  0  0  0  0
  -23.4320  -28.8420   23.3880 O   0  0  0  0  0  0  0  0  0  0  0  0
  -20.9170  -29.8430   21.7880 H   0  0  0  0  0  0  0  0  0  0  0  0
  -18.0480  -28.0750   22.9730 C   0  0  0  0  0  0  0  0  0  0  0  0
  -20.6040  -28.3460   23.2440 C   0  0  0  0  0  3  0  0  0  0  0  0
  -20.7120  -26.9110   22.6790 C   0  0  0  0  0  2  0  0  0  0  0  0
  -19.6140  -26.5770   21.6660 C   0  0  0  0  0  2  0  0  0  0  0  0
  -18.2310  -26.7220   22.3070 C   0  0  0  0  0  2  0  0  0  0  0  0
  -19.1630  -28.8450   23.3990 C   0  0  0  0  0  0  0  0  0  0  0  0
  -18.9390  -30.1130   23.9780 C   0  0  0  0  0  3  0  0  0  0  0  0
  -17.6310  -30.6110   24.1380 C   0  0  0  0  0  3  0  0  0  0  0  0
  -16.5310  -29.8370   23.7300 C   0  0  0  0  0  3  0  0  0  0  0  0
  -16.7400  -28.5720   23.1540 C   0  0  0  0  0  3  0  0  0  0  0  0
  -25.9060  -32.5150   23.8470 C   0  0  0  0  0  3  0  0  0  0  0  0
  -25.6030  -33.9100   24.1920 N   0  0  0  0  0  0  0  0  0  0  0  0
  -25.9180  -34.9670   23.4310 C   0  0  0  0  0  0  0  0  0  0  0  0
  -26.5670  -34.8700   22.3860 O   0  0  0  0  0  0  0  0  0  0  0  0
  -25.0270  -34.0600   25.0080 H   0  0  0  0  0  0  0  0  0  0  0  0
  -24.1740  -36.7520   23.1250 C   0  0  0  0  0  1  0  0  0  0  0  0
  -25.4370  -36.3520   23.9050 C   0  0  0  0  0  3  0  0  0  0  0  0
  -27.5900  -37.2360   24.6840 C   0  0  0  0  0  1  0  0  0  0  0  0
  -26.4620  -37.4080   23.7730 N   0  0  0  0  0  0  0  0  0  0  0  0
  -26.0580  -38.3240   23.9380 H   0  0  0  0  0  0  0  0  0  0  0  0
  -26.4470  -31.7320   25.1050 C   0  0  1  0  0  0  0  0  0  0  0  0
  -25.3760  -31.4870   26.1930 C   0  0  0  0  0  1  0  0  0  0  0  0
  -27.0210  -30.3580   24.6880 C   0  0  0  0  0  1  0  0  0  0  0  0
  -27.6090  -32.5210   25.7530 C   0  0  0  0  0  1  0  0  0  0  0  0
  2  1  2  0
  3  1  1  0
  4  5  2  0
  4  6  1  0
  5  2  1  0
  6  3  2  0
  7  9  1  0
  7  5  1  0
  9  8  1  0
  9 10  1  0
 10 11  1  0
 10 13  1  0
 12 10  1  0
 14 13  1  0
 14 15  1  0
 16 15  1  0
 17 16  1  0
 18 23  1  0
 19 20  1  0
 19 18  1  0
 21 20  1  0
 21 28  1  0
 21 22  1  0
 23 17  1  0
 23 22  1  0
 24 17  2  0
 25 26  2  0
 26 45  1  0
 27 26  1  0
 27 30  1  0
 28 29  1  0
 28 25  1  0
 29 27  2  0
 30 31  1  0
 31 32  2  0
 33 36  1  0
 33 32  1  0
 34 33  2  0
 35 34  1  0
 35 30  2  0
 36 37  1  0
 37 38  1  0
 38 39  2  0
 40 39  1  0
 40 44  1  0
 41 40  2  0
 42 37  2  0
 42 41  1  0
 43 42  1  0
 45 46  1  0
 46 49  1  0
 46 48  1  0
 47 45  2  0
 50 51  1  0
 50 25  1  0
 52 50  1  0
 53  6  1  0
 53 54  1  0
 54 56  1  0
 55 66  2  0
 56 61  1  0
 57 65  1  0
 57 67  1  0
 58 64  1  0
 58 60  1  0
 59 65  1  0
 60 59  1  0
 61 60  2  0
 62 63  1  0
 62 56  2  0
 63 58  2  0
 64 57  1  0
 65 55  1  0
 67 69  2  0
 68 67  1  0
 70 68  1  0
 71 80  2  0
 71 76  1  0
 72 68  1  0
 72 76  1  0
 73 72  1  0
 74 75  1  0
 74 73  1  0
 75 71  1  0
 76 77  2  0
 77 78  1  0
 79 78  2  0
 80 79  1  0
 81 55  1  0
 81 82  1  0
 81 91  1  0
 82 85  1  0
 83 87  1  0
 83 82  1  0
 84 83  2  0
 87 86  1  0
 89 87  1  0
 89 90  1  0
 89 88  1  0
 91 94  1  1
 91 92  1  0
 93 91  1  0
M  ISO  4  16 100  17 100  53 101  54 101
M  END
>  <TORSDO>  (66) 
F 24

>  <SCORE>  (66) 
-12.295

>  <name>  (66) 
66

>  <ligand_id>  (66) 
66

>  <original_smiles>  (66) 
[H]c1c([H])c([H])c2c(c1[H])C([H])([H])C([H])([H])C([H])([H])C2([H])N([H])C(=O)C1([H])N(C(=O)C([H])(N([H])C(=O)C([H])(N([H])C([H])([H])[H])C([H])([H])[H])C(C([H])([H])[H])(C([H])([H])[H])C([H])([H])[H])C([H])([H])c2c([H])c(OC([H])([H])c3c([H])c([H])c([H])c(C([H])([H])C([H])(C([H])([H])[H])[N+]([H])([H])C([H])([H])C([H])([H])C([H])([H])C([H])([H])C(=O)N4C([H])([H])C([H])([H])C([H])([H])C([H])(n5nc(-c6c([H])c([H])c(Oc7c([H])c([H])c(F)c([H])c7F)c([H])c6[H])c(C(=O)N([H])[H])c5N([H])[H])C4([H])[H])c3[H])c([H])c([H])c2C1([H])[H]

>  <smiles>  (66) 
[H]c1c([H])c([H])c2c(c1[H])C([H])([H])C([H])([H])C([H])([H])C2([H])N([H])C(=O)C1([H])N(C(=O)C([H])(N([H])C(=O)C([H])(N([H])C([H])([H])[H])C([H])([H])[H])C(C([H])([H])[H])(C([H])([H])[H])C([H])([H])[H])C([H])([H])c2c([H])c(OC([H])([H])c3c([H])c([H])c([H])c(C([H])([H])C([H])(C([H])([H])[H])[N+]([H])([H])C([H])([H])C([H])([H])C([H])([H])C([H])([H])C(=O)N4C([H])([H])C([H])([H])C([H])([H])C([H])(n5nc(-c6c([H])c([H])c(Oc7c([H])c([H])c(F)c([H])c7F)c([H])c6[H])c(C(=O)N([H])[H])c5N([H])[H])C4([H])[H])c3[H])c([H])c([H])c2C1([H])[H]

$$$$
67:0:0
     RDKit          3D

 93102  0  0  1  0  0  0  0  0999 V2000
  -29.8010  -20.1790   20.7450 C   0  0  0  0  0  3  0  0  0  0  0  0
  -29.3550  -21.4170   18.7180 C   0  0  0  0  0  3  0  0  0  0  0  0
  -30.1510  -19.0790   18.5720 C   0  0  0  0  0  0  0  0  0  0  0  0
  -30.1840  -19.0090   19.9960 C   0  0  0  0  0  0  0  0  0  0  0  0
  -29.3890  -21.4070   20.1220 C   0  0  0  0  0  0  0  0  0  0  0  0
  -29.7100  -20.2900   17.9470 C   0  0  0  0  0  0  0  0  0  0  0  0
  -30.5750  -17.8790   17.7590 C   0  0  0  0  0  0  0  0  0  0  0  0
  -30.6170  -17.6660   20.6990 C   0  0  0  0  0  2  0  0  0  0  0  0
  -30.9160  -16.5730   18.4770 C   0  0  0  0  0  2  0  0  0  0  0  0
  -30.3060  -16.3400   19.8820 C   0  0  2  0  0  0  0  0  0  0  0  0
  -29.5680  -20.4580   16.4350 C   0  0  0  0  0  1  0  0  0  0  0  0
  -28.7690  -16.2810   19.7740 C   0  0  0  0  0  1  0  0  0  0  0  0
  -30.7030  -17.8740   16.5320 O   0  0  0  0  0  0  0  0  0  0  0  0
  -31.0000  -14.9580   20.3560 C   0  0  0  0  0  0  0  0  0  0  0  0
  -30.7810  -12.6280   19.5390 C   0  0  0  0  0  2  0  0  0  0  0  0
  -29.9160  -12.6180   18.2500 C   0  0  0  0  0  2  0  0  0  0  0  0
  -28.4170  -12.9270   18.4900 C   0  0  0  0  0  2  0  0  0  0  0  0
  -28.0540  -12.9840   19.9820 C   0  0  0  0  0  3  0  0  0  0  0  0
  -29.0550  -13.4860   21.0330 C   0  0  0  0  0  2  0  0  0  0  0  0
  -30.3430  -13.7550   20.3930 N   0  0  0  0  0  0  0  0  0  0  0  0
  -32.2310  -14.9500   20.3170 O   0  0  0  0  0  0  0  0  0  0  0  0
  -25.6330  -14.0050   20.4350 C   0  0  0  0  0  0  0  0  0  0  0  0
  -24.4970  -13.3090   20.7730 C   0  0  0  0  0  0  0  0  0  0  0  0
  -24.8800  -11.9390   20.8090 C   0  0  0  0  0  0  0  0  0  0  0  0
  -26.6370  -13.0350   20.3200 N   0  0  0  0  0  0  0  0  0  0  0  0
  -26.1530  -11.8080   20.5670 N   0  0  0  0  0  0  0  0  0  0  0  0
  -24.1360  -10.7060   20.9980 C   0  0  0  0  0  0  0  0  0  0  0  0
  -24.5280   -9.7640   21.9760 C   0  0  0  0  0  3  0  0  0  0  0  0
  -23.8020   -8.5690   22.1370 C   0  0  0  0  0  3  0  0  0  0  0  0
  -22.6760   -8.3160   21.3190 C   0  0  0  0  0  0  0  0  0  0  0  0
  -22.3140   -9.2460   20.3280 C   0  0  0  0  0  3  0  0  0  0  0  0
  -23.0420  -10.4310   20.1620 C   0  0  0  0  0  3  0  0  0  0  0  0
  -21.9150   -7.1770   21.3970 O   0  0  0  0  0  0  0  0  0  0  0  0
  -21.7750   -6.4940   22.5770 C   0  0  0  0  0  0  0  0  0  0  0  0
  -21.2460   -7.1010   23.7370 C   0  0  0  0  0  3  0  0  0  0  0  0
  -21.0530   -6.3370   24.9050 C   0  0  0  0  0  3  0  0  0  0  0  0
  -21.3820   -4.9680   24.9130 C   0  0  0  0  0  0  0  0  0  0  0  0
  -21.9050   -4.3620   23.7560 C   0  0  0  0  0  3  0  0  0  0  0  0
  -22.1000   -5.1230   22.5920 C   0  0  0  0  0  0  0  0  0  0  0  0
  -22.5880   -4.5320   21.4760 F   0  0  0  0  0  0  0  0  0  0  0  0
  -21.1830   -4.2300   26.0300 F   0  0  0  0  0  0  0  0  0  0  0  0
  -23.1080  -13.8400   20.9750 C   0  0  0  0  0  0  0  0  0  0  0  0
  -22.3260  -13.1850   21.8300 N   0  0  0  0  0  0  0  0  0  0  0  0
  -22.7180  -14.8610   20.4100 O   0  0  0  0  0  0  0  0  0  0  0  0
  -22.6540  -12.3560   22.3060 H   0  0  0  0  0  0  0  0  0  0  0  0
  -21.3900  -13.5200   22.0130 H   0  0  0  0  0  0  0  0  0  0  0  0
  -25.8580  -15.3590   20.2250 N   0  0  0  0  0  0  0  0  0  0  0  0
  -25.1220  -16.0550   20.2530 H   0  0  0  0  0  0  0  0  0  0  0  0
  -26.7610  -15.7490   19.9860 H   0  0  0  0  0  0  0  0  0  0  0  0
  -28.9280  -22.6840   20.9140 C   0  0  0  0  0  2  0  0  0  0  0  0
  -28.8340  -24.0930   20.1660 C   0  0  0  0  0  3  0  0  0  0  0  0
  -28.3110  -25.3350   21.0000 C   0  0  0  0  0  3  0  0  0  0  0  0
  -28.3910  -26.6740   20.3980 O   0  0  0  0  0  0  0  0  0  0  0  0
  -24.5370  -32.0020   23.3330 C   0  0  0  0  0  0  0  0  0  0  0  0
  -27.2410  -27.4650   20.3810 C   0  0  0  0  0  0  0  0  0  0  0  0
  -23.3650  -30.5790   21.6840 C   0  0  0  0  0  3  0  0  0  0  0  0
  -24.8520  -29.0180   20.3070 C   0  0  0  0  0  0  0  0  0  0  0  0
  -25.8980  -30.9270   21.5330 C   0  0  0  0  0  2  0  0  0  0  0  0
  -26.0030  -29.5410   20.9110 C   0  0  0  0  0  0  0  0  0  0  0  0
  -27.2020  -28.7770   20.9350 C   0  0  0  0  0  3  0  0  0  0  0  0
  -26.0710  -26.9760   19.7600 C   0  0  0  0  0  3  0  0  0  0  0  0
  -24.8860  -27.7400   19.7220 C   0  0  0  0  0  3  0  0  0  0  0  0
  -23.6060  -29.8810   20.3180 C   0  0  0  0  0  2  0  0  0  0  0  0
  -24.6170  -31.1870   22.2410 N   0  0  0  0  0  0  0  0  0  0  0  0
  -23.4450  -32.2780   23.8490 O   0  0  0  0  0  0  0  0  0  0  0  0
  -22.6910  -29.5740   22.6460 C   0  0  0  0  0  0  0  0  0  0  0  0
  -21.3690  -29.3890   22.4960 N   0  0  0  0  0  0  0  0  0  0  0  0
  -23.3580  -28.9590   23.4820 O   0  0  0  0  0  0  0  0  0  0  0  0
  -20.8920  -29.9340   21.7920 H   0  0  0  0  0  0  0  0  0  0  0  0
  -17.9860  -28.2050   22.9590 C   0  0  0  0  0  0  0  0  0  0  0  0
  -20.5400  -28.4590   23.2610 C   0  0  0  0  0  3  0  0  0  0  0  0
  -20.6460  -27.0230   22.6950 C   0  0  0  0  0  2  0  0  0  0  0  0
  -19.5560  -26.6990   21.6680 C   0  0  0  0  0  2  0  0  0  0  0  0
  -18.1670  -26.8510   22.2920 C   0  0  0  0  0  2  0  0  0  0  0  0
  -19.1000  -28.9670   23.4000 C   0  0  0  0  0  0  0  0  0  0  0  0
  -18.8760  -30.2330   23.9820 C   0  0  0  0  0  3  0  0  0  0  0  0
  -17.5710  -30.7380   24.1290 C   0  0  0  0  0  3  0  0  0  0  0  0
  -16.4710  -29.9740   23.7040 C   0  0  0  0  0  3  0  0  0  0  0  0
  -16.6780  -28.7100   23.1240 C   0  0  0  0  0  3  0  0  0  0  0  0
  -25.8080  -32.6430   23.9720 C   0  0  0  0  0  3  0  0  0  0  0  0
  -26.2870  -31.9030   25.2810 C   0  0  1  0  0  0  0  0  0  0  0  0
  -25.1630  -31.6940   26.3230 C   0  0  0  0  0  1  0  0  0  0  0  0
  -26.8790  -30.5160   24.9420 C   0  0  0  0  0  1  0  0  0  0  0  0
  -27.4190  -32.7130   25.9570 C   0  0  0  0  0  1  0  0  0  0  0  0
  -25.5000  -34.0520   24.2540 N   0  0  0  0  0  0  0  0  0  0  0  0
  -25.8660  -35.0820   23.4790 C   0  0  0  0  0  0  0  0  0  0  0  0
  -26.5650  -34.9440   22.4710 O   0  0  0  0  0  0  0  0  0  0  0  0
  -24.8830  -34.2320   25.0310 H   0  0  0  0  0  0  0  0  0  0  0  0
  -24.1670  -36.8800   23.0200 C   0  0  0  0  0  1  0  0  0  0  0  0
  -25.3780  -36.4860   23.8830 C   0  0  0  0  0  3  0  0  0  0  0  0
  -27.4890  -37.3770   24.7630 C   0  0  0  0  0  1  0  0  0  0  0  0
  -26.4230  -37.5250   23.7770 N   0  0  0  0  0  0  0  0  0  0  0  0
  -26.0210  -38.4530   23.8810 H   0  0  0  0  0  0  0  0  0  0  0  0
  2  5  2  0
  3  4  1  0
  4  8  1  0
  4  1  2  0
  5  1  1  0
  5 50  1  0
  6  3  2  0
  6  2  1  0
  7  9  1  0
  7  3  1  0
  9 10  1  0
 10 12  1  6
 10 14  1  0
 10  8  1  0
 11  6  1  0
 13  7  2  0
 14 20  1  0
 15 20  1  0
 16 17  1  0
 16 15  1  0
 18 17  1  0
 18 25  1  0
 18 19  1  0
 20 19  1  0
 21 14  2  0
 22 23  2  0
 23 24  1  0
 23 42  1  0
 24 27  1  0
 25 22  1  0
 25 26  1  0
 26 24  2  0
 27 28  1  0
 28 29  2  0
 30 33  1  0
 30 29  1  0
 31 30  2  0
 32 31  1  0
 32 27  2  0
 33 34  1  0
 34 39  2  0
 34 35  1  0
 35 36  2  0
 36 37  1  0
 37 41  1  0
 38 37  2  0
 39 38  1  0
 40 39  1  0
 42 43  1  0
 43 46  1  0
 43 45  1  0
 44 42  2  0
 47 48  1  0
 47 22  1  0
 49 47  1  0
 51 50  1  0
 51 52  2  0
 53 52  1  0
 54 65  2  0
 55 53  1  0
 55 60  1  0
 56 64  1  0
 56 66  1  0
 57 63  1  0
 57 59  1  0
 58 64  1  0
 59 60  2  0
 59 58  1  0
 61 55  2  0
 62 61  1  0
 62 57  2  0
 63 56  1  0
 64 54  1  0
 66 68  2  0
 67 66  1  0
 69 67  1  0
 70 79  2  0
 70 75  1  0
 71 67  1  0
 71 75  1  0
 72 71  1  0
 73 74  1  0
 73 72  1  0
 74 70  1  0
 75 76  2  0
 76 77  1  0
 78 77  2  0
 79 78  1  0
 80 54  1  0
 80 85  1  0
 80 81  1  0
 81 84  1  1
 81 82  1  0
 83 81  1  0
 85 88  1  0
 86 90  1  0
 86 85  1  0
 87 86  2  0
 90 89  1  0
 92 93  1  0
 92 90  1  0
 92 91  1  0
M  ISO  4  10 100  14 100  52 101  53 101
M  END
>  <TORSDO>  (67) 
F 19

>  <SCORE>  (67) 
-14.034

>  <name>  (67) 
67

>  <ligand_id>  (67) 
67

>  <original_smiles>  (67) 
[H]c1c([H])c([H])c2c(c1[H])C([H])([H])C([H])([H])C([H])([H])C2([H])N([H])C(=O)C1([H])N(C(=O)C([H])(N([H])C(=O)C([H])(N([H])C([H])([H])[H])C([H])([H])[H])C(C([H])([H])[H])(C([H])([H])[H])C([H])([H])[H])C([H])([H])c2c([H])c(OC([H])([H])C([H])([H])C([H])([H])c3c([H])c(C([H])([H])[H])c4c(c3[H])C([H])([H])C(C(=O)N3C([H])([H])C([H])([H])C([H])([H])C([H])(n5nc(-c6c([H])c([H])c(Oc7c([H])c([H])c(F)c([H])c7F)c([H])c6[H])c(C(=O)N([H])[H])c5N([H])[H])C3([H])[H])(C([H])([H])[H])C([H])([H])C4=O)c([H])c([H])c2C1([H])[H]

>  <smiles>  (67) 
[H]c1c([H])c([H])c2c(c1[H])C([H])([H])C([H])([H])C([H])([H])C2([H])N([H])C(=O)C1([H])N(C(=O)C([H])(N([H])C(=O)C([H])(N([H])C([H])([H])[H])C([H])([H])[H])C(C([H])([H])[H])(C([H])([H])[H])C([H])([H])[H])C([H])([H])c2c([H])c(OC([H])([H])C([H])([H])C([H])([H])c3c([H])c(C([H])([H])[H])c4c(c3[H])C([H])([H])C(C(=O)N3C([H])([H])C([H])([H])C([H])([H])C([H])(n5nc(-c6c([H])c([H])c(Oc7c([H])c([H])c(F)c([H])c7F)c([H])c6[H])c(C(=O)N([H])[H])c5N([H])[H])C3([H])[H])(C([H])([H])[H])C([H])([H])C4=O)c([H])c([H])c2C1([H])[H]

$$$$
68:0:0
     RDKit          3D

 96103  0  0  1  0  0  0  0  0999 V2000
  -28.2490  -22.6820   21.8110 C   0  0  0  0  0  2  0  0  0  0  0  0
  -27.0460  -21.7990   21.4190 C   0  0  0  0  0  2  0  0  0  0  0  0
  -26.7720  -20.6170   22.3670 C   0  0  0  0  0  2  0  0  0  0  0  0
  -28.0110  -18.5130   21.8580 C   0  0  0  0  0  0  0  0  0  0  0  0
  -27.8960  -19.6900   22.4860 N   0  0  0  0  0  0  0  0  0  0  0  0
  -27.2270  -18.1450   20.9810 O   0  0  0  0  0  0  0  0  0  0  0  0
  -28.5930  -19.9110   23.1860 H   0  0  0  0  0  0  0  0  0  0  0  0
  -29.1700  -17.6140   22.3060 C   0  0  0  0  0  2  0  0  0  0  0  0
  -29.3860  -16.3650   21.4150 C   0  0  0  0  0  2  0  0  0  0  0  0
  -31.8140  -16.2070   22.1180 C   0  0  0  0  0  1  0  0  0  0  0  0
  -30.1880  -14.6870   23.2180 C   0  0  0  0  0  1  0  0  0  0  0  0
  -30.5140  -15.3880   21.8690 C   0  0  1  0  0  0  0  0  0  0  0  0
  -30.8010  -14.3720   20.7070 C   0  0  0  0  0  0  0  0  0  0  0  0
  -30.4050  -12.2990   19.4130 C   0  0  0  0  0  2  0  0  0  0  0  0
  -29.4850  -12.5300   18.2000 C   0  0  0  0  0  2  0  0  0  0  0  0
  -28.0090  -12.3770   18.6080 C   0  0  0  0  0  2  0  0  0  0  0  0
  -27.6620  -13.2060   19.8690 C   0  0  0  0  0  3  0  0  0  0  0  0
  -28.6960  -12.9730   20.9910 C   0  0  0  0  0  2  0  0  0  0  0  0
  -30.0430  -13.2610   20.4710 N   0  0  0  0  0  0  0  0  0  0  0  0
  -31.7840  -14.6100   19.9970 O   0  0  0  0  0  0  0  0  0  0  0  0
  -25.2590  -13.8160   20.5680 C   0  0  0  0  0  0  0  0  0  0  0  0
  -24.1840  -13.0430   20.9150 C   0  0  0  0  0  0  0  0  0  0  0  0
  -24.6400  -11.6900   20.8720 C   0  0  0  0  0  0  0  0  0  0  0  0
  -26.3020  -12.9340   20.3320 N   0  0  0  0  0  0  0  0  0  0  0  0
  -25.9320  -11.6490   20.5720 N   0  0  0  0  0  0  0  0  0  0  0  0
  -23.9070  -10.4290   21.0400 C   0  0  0  0  0  0  0  0  0  0  0  0
  -24.3620   -9.4210   21.9180 C   0  0  0  0  0  3  0  0  0  0  0  0
  -23.6300   -8.2250   22.0760 C   0  0  0  0  0  3  0  0  0  0  0  0
  -22.4280   -8.0280   21.3550 C   0  0  0  0  0  0  0  0  0  0  0  0
  -21.9910   -9.0250   20.4650 C   0  0  0  0  0  3  0  0  0  0  0  0
  -22.7240  -10.2130   20.3050 C   0  0  0  0  0  3  0  0  0  0  0  0
  -21.6640   -6.8880   21.4240 O   0  0  0  0  0  0  0  0  0  0  0  0
  -21.6850   -6.0730   22.5280 C   0  0  0  0  0  0  0  0  0  0  0  0
  -21.4020   -6.5640   23.8210 C   0  0  0  0  0  3  0  0  0  0  0  0
  -21.3660   -5.6790   24.9180 C   0  0  0  0  0  3  0  0  0  0  0  0
  -21.6050   -4.3050   24.7230 C   0  0  0  0  0  0  0  0  0  0  0  0
  -21.8820   -3.8150   23.4350 C   0  0  0  0  0  3  0  0  0  0  0  0
  -21.9200   -4.6960   22.3400 C   0  0  0  0  0  0  0  0  0  0  0  0
  -22.1660   -4.2150   21.0980 F   0  0  0  0  0  0  0  0  0  0  0  0
  -21.5630   -3.4540   25.7740 F   0  0  0  0  0  0  0  0  0  0  0  0
  -22.7870  -13.5230   21.1840 C   0  0  0  0  0  0  0  0  0  0  0  0
  -22.0520  -12.8220   22.0400 N   0  0  0  0  0  0  0  0  0  0  0  0
  -22.3540  -14.5540   20.6700 O   0  0  0  0  0  0  0  0  0  0  0  0
  -22.4130  -11.9870   22.4770 H   0  0  0  0  0  0  0  0  0  0  0  0
  -21.1140  -13.1250   22.2630 H   0  0  0  0  0  0  0  0  0  0  0  0
  -25.4310  -15.1880   20.4170 N   0  0  0  0  0  0  0  0  0  0  0  0
  -24.6740  -15.8460   20.5670 H   0  0  0  0  0  0  0  0  0  0  0  0
  -26.3050  -15.6480   20.1880 H   0  0  0  0  0  0  0  0  0  0  0  0
  -28.1470  -24.0910   21.1930 C   0  0  0  0  0  2  0  0  0  0  0  0
  -29.3720  -25.0030   21.4490 C   0  0  0  0  0  3  0  0  0  0  0  0
  -30.4980  -24.6660   20.5500 N   0  0  0  0  0  4  0  0  0  0  0  0
  -30.2550  -24.8440   19.5900 H   0  0  0  0  0  0  0  0  0  0  0  0
  -30.7640  -23.7010   20.6400 H   0  0  0  0  0  0  0  0  0  0  0  0
  -31.3060  -25.2260   20.7670 H   0  0  0  0  0  0  0  0  0  0  0  0
  -29.0090  -26.4990   21.3260 C   0  0  0  0  0  2  0  0  0  0  0  0
  -28.3880  -26.7150   20.0590 O   0  0  0  0  0  0  0  0  0  0  0  0
  -24.6090  -31.8720   23.2130 C   0  0  0  0  0  0  0  0  0  0  0  0
  -27.2440  -27.4750   20.0950 C   0  0  0  0  0  0  0  0  0  0  0  0
  -23.3960  -30.4920   21.5520 C   0  0  0  0  0  3  0  0  0  0  0  0
  -24.8480  -28.9620   20.1150 C   0  0  0  0  0  0  0  0  0  0  0  0
  -25.9180  -30.8490   21.3600 C   0  0  0  0  0  2  0  0  0  0  0  0
  -26.0000  -29.4840   20.7150 C   0  0  0  0  0  0  0  0  0  0  0  0
  -27.2020  -28.7460   20.7100 C   0  0  0  0  0  3  0  0  0  0  0  0
  -26.0820  -26.9630   19.4840 C   0  0  0  0  0  3  0  0  0  0  0  0
  -24.8800  -27.6960   19.5000 C   0  0  0  0  0  3  0  0  0  0  0  0
  -23.6040  -29.8210   20.1670 C   0  0  0  0  0  2  0  0  0  0  0  0
  -24.6590  -31.0840   22.1010 N   0  0  0  0  0  0  0  0  0  0  0  0
  -23.5300  -32.1450   23.7560 O   0  0  0  0  0  0  0  0  0  0  0  0
  -22.7380  -29.4660   22.5010 C   0  0  0  0  0  0  0  0  0  0  0  0
  -21.4120  -29.3020   22.3750 N   0  0  0  0  0  0  0  0  0  0  0  0
  -23.4180  -28.8210   23.3040 O   0  0  0  0  0  0  0  0  0  0  0  0
  -20.9280  -29.8760   21.6990 H   0  0  0  0  0  0  0  0  0  0  0  0
  -18.0260  -28.1370   22.8480 C   0  0  0  0  0  0  0  0  0  0  0  0
  -20.5850  -28.3650   23.1330 C   0  0  0  0  0  3  0  0  0  0  0  0
  -20.6750  -26.9390   22.5420 C   0  0  0  0  0  2  0  0  0  0  0  0
  -19.5740  -26.6380   21.5210 C   0  0  0  0  0  2  0  0  0  0  0  0
  -18.1920  -26.7920   22.1610 C   0  0  0  0  0  2  0  0  0  0  0  0
  -19.1510  -28.8820   23.2900 C   0  0  0  0  0  0  0  0  0  0  0  0
  -18.9450  -30.1430   23.8910 C   0  0  0  0  0  3  0  0  0  0  0  0
  -17.6460  -30.6580   24.0560 C   0  0  0  0  0  3  0  0  0  0  0  0
  -16.5350  -29.9080   23.6330 C   0  0  0  0  0  3  0  0  0  0  0  0
  -16.7260  -28.6500   23.0330 C   0  0  0  0  0  3  0  0  0  0  0  0
  -25.9010  -32.4840   23.8410 C   0  0  0  0  0  3  0  0  0  0  0  0
  -26.4460  -31.6610   25.0720 C   0  0  1  0  0  0  0  0  0  0  0  0
  -25.3740  -31.3700   26.1480 C   0  0  0  0  0  1  0  0  0  0  0  0
  -27.0290  -30.3060   24.6060 C   0  0  0  0  0  1  0  0  0  0  0  0
  -27.6040  -32.4310   25.7480 C   0  0  0  0  0  1  0  0  0  0  0  0
  -25.5880  -33.8640   24.2350 N   0  0  0  0  0  0  0  0  0  0  0  0
  -25.9030  -34.9490   23.5140 C   0  0  0  0  0  0  0  0  0  0  0  0
  -26.5580  -34.8930   22.4700 O   0  0  0  0  0  0  0  0  0  0  0  0
  -25.0050  -33.9810   25.0500 H   0  0  0  0  0  0  0  0  0  0  0  0
  -24.1490  -36.7320   23.2640 C   0  0  0  0  0  1  0  0  0  0  0  0
  -25.4100  -36.3120   24.0340 C   0  0  0  0  0  3  0  0  0  0  0  0
  -27.5580  -37.1810   24.8460 C   0  0  0  0  0  1  0  0  0  0  0  0
  -26.4300  -37.3800   23.9400 N   0  0  0  0  0  0  0  0  0  0  0  0
  -26.0200  -38.2880   24.1410 H   0  0  0  0  0  0  0  0  0  0  0  0
  2  1  1  0
  2  3  1  0
  3  5  1  0
  4  8  1  0
  4  5  1  0
  5  7  1  0
  6  4  2  0
  9 12  1  0
  9  8  1  0
 12 10  1  1
 12 11  1  0
 13 12  1  0
 14 19  1  0
 15 16  1  0
 15 14  1  0
 17 16  1  0
 17 24  1  0
 17 18  1  0
 19 13  1  0
 19 18  1  0
 20 13  2  0
 21 22  2  0
 22 41  1  0
 23 22  1  0
 23 26  1  0
 24 21  1  0
 24 25  1  0
 25 23  2  0
 26 27  1  0
 27 28  2  0
 29 32  1  0
 29 28  1  0
 30 29  2  0
 31 30  1  0
 31 26  2  0
 32 33  1  0
 33 34  1  0
 34 35  2  0
 36 35  1  0
 36 40  1  0
 37 36  2  0
 38 33  2  0
 38 37  1  0
 39 38  1  0
 41 42  1  0
 42 45  1  0
 42 44  1  0
 43 41  2  0
 46 47  1  0
 46 21  1  0
 48 46  1  0
 49  1  1  0
 50 49  1  0
 51 53  1  0
 51 54  1  0
 51 50  1  0
 52 51  1  0
 55 50  1  0
 56 58  1  0
 56 55  1  0
 57 68  2  0
 58 63  1  0
 59 67  1  0
 59 69  1  0
 60 66  1  0
 60 62  1  0
 61 67  1  0
 62 61  1  0
 63 62  2  0
 64 65  1  0
 64 58  2  0
 65 60  2  0
 66 59  1  0
 67 57  1  0
 69 71  2  0
 70 69  1  0
 72 70  1  0
 73 82  2  0
 73 78  1  0
 74 70  1  0
 74 78  1  0
 75 74  1  0
 76 77  1  0
 76 75  1  0
 77 73  1  0
 78 79  2  0
 79 80  1  0
 81 80  2  0
 82 81  1  0
 83 57  1  0
 83 88  1  0
 83 84  1  0
 84 87  1  1
 84 85  1  0
 86 84  1  0
 88 91  1  0
 89 93  1  0
 89 88  1  0
 90 89  2  0
 93 92  1  0
 95 93  1  0
 95 96  1  0
 95 94  1  0
M  ISO  4  12 100  13 100  55 101  56 101
M  END
>  <TORSDO>  (68) 
F 26

>  <SCORE>  (68) 
6.187

>  <name>  (68) 
68

>  <ligand_id>  (68) 
68

>  <original_smiles>  (68) 
[H]c1c([H])c([H])c2c(c1[H])C([H])([H])C([H])([H])C([H])([H])C2([H])N([H])C(=O)C1([H])N(C(=O)C([H])(N([H])C(=O)C([H])(N([H])C([H])([H])[H])C([H])([H])[H])C(C([H])([H])[H])(C([H])([H])[H])C([H])([H])[H])C([H])([H])c2c([H])c(OC([H])([H])C([H])(C([H])([H])C([H])([H])C([H])([H])C([H])([H])N([H])C(=O)C([H])([H])C([H])([H])C(C(=O)N3C([H])([H])C([H])([H])C([H])([H])C([H])(n4nc(-c5c([H])c([H])c(Oc6c([H])c([H])c(F)c([H])c6F)c([H])c5[H])c(C(=O)N([H])[H])c4N([H])[H])C3([H])[H])(C([H])([H])[H])C([H])([H])[H])[N+]([H])([H])[H])c([H])c([H])c2C1([H])[H]

>  <smiles>  (68) 
[H]c1c([H])c([H])c2c(c1[H])C([H])([H])C([H])([H])C([H])([H])C2([H])N([H])C(=O)C1([H])N(C(=O)C([H])(N([H])C(=O)C([H])(N([H])C([H])([H])[H])C([H])([H])[H])C(C([H])([H])[H])(C([H])([H])[H])C([H])([H])[H])C([H])([H])c2c([H])c(OC([H])([H])C([H])(C([H])([H])C([H])([H])C([H])([H])C([H])([H])N([H])C(=O)C([H])([H])C([H])([H])C(C(=O)N3C([H])([H])C([H])([H])C([H])([H])C([H])(n4nc(-c5c([H])c([H])c(Oc6c([H])c([H])c(F)c([H])c6F)c([H])c5[H])c(C(=O)N([H])[H])c4N([H])[H])C3([H])[H])(C([H])([H])[H])C([H])([H])[H])[N+]([H])([H])[H])c([H])c([H])c2C1([H])[H]

$$$$
69:0:0
     RDKit          3D

 94103  0  0  1  0  0  0  0  0999 V2000
  -26.7730  -23.2590   22.2490 C   0  0  0  0  0  3  0  0  0  0  0  0
  -27.3270  -22.1020   21.6700 C   0  0  0  0  0  3  0  0  0  0  0  0
  -27.3060  -24.5320   21.9670 C   0  0  0  0  0  3  0  0  0  0  0  0
  -28.9670  -23.4920   20.5200 C   0  0  0  0  0  3  0  0  0  0  0  0
  -28.4270  -22.1890   20.7880 C   0  0  0  0  0  0  0  0  0  0  0  0
  -28.4100  -24.6790   21.1030 C   0  0  0  0  0  0  0  0  0  0  0  0
  -28.8470  -20.9130   20.0010 C   0  0  0  0  0  2  0  0  0  0  0  0
  -29.2940  -19.6650   20.7290 N   0  0  0  0  0  4  0  0  0  0  0  0
  -30.3000  -19.6620   20.7170 H   0  0  0  0  0  0  0  0  0  0  0  0
  -29.0230  -19.7540   21.6940 H   0  0  0  0  0  0  0  0  0  0  0  0
  -30.2000  -17.8940   18.1440 C   0  0  0  0  0  2  0  0  0  0  0  0
  -30.6700  -16.5270   18.6430 C   0  0  0  0  0  2  0  0  0  0  0  0
  -28.7980  -18.1820   18.6730 C   0  0  0  0  0  2  0  0  0  0  0  0
  -29.3830  -16.9920   20.8670 C   0  0  0  0  0  2  0  0  0  0  0  0
  -30.6740  -16.3850   20.1830 C   0  0  0  0  0  3  0  0  0  0  0  0
  -28.7830  -18.3250   20.2170 C   0  0  0  0  0  3  0  0  0  0  0  0
  -31.2980  -14.9650   20.5290 C   0  0  0  0  0  0  0  0  0  0  0  0
  -31.0520  -12.6580   19.6850 C   0  0  0  0  0  2  0  0  0  0  0  0
  -30.2000  -12.6910   18.3990 C   0  0  0  0  0  2  0  0  0  0  0  0
  -28.7010  -12.5970   18.7440 C   0  0  0  0  0  2  0  0  0  0  0  0
  -28.2770  -13.5680   19.8790 C   0  0  0  0  0  3  0  0  0  0  0  0
  -29.2640  -13.5340   21.0610 C   0  0  0  0  0  2  0  0  0  0  0  0
  -30.6080  -13.7820   20.5370 N   0  0  0  0  0  0  0  0  0  0  0  0
  -32.5240  -14.9390   20.4040 O   0  0  0  0  0  0  0  0  0  0  0  0
  -25.8790  -14.2370   20.5060 C   0  0  0  0  0  0  0  0  0  0  0  0
  -24.7740  -13.4960   20.8300 C   0  0  0  0  0  0  0  0  0  0  0  0
  -25.1960  -12.1330   20.8170 C   0  0  0  0  0  0  0  0  0  0  0  0
  -26.9040  -13.3260   20.3120 N   0  0  0  0  0  0  0  0  0  0  0  0
  -26.4980  -12.0550   20.5650 N   0  0  0  0  0  0  0  0  0  0  0  0
  -24.4230  -10.8930   20.9720 C   0  0  0  0  0  0  0  0  0  0  0  0
  -24.7670   -9.9260   21.9430 C   0  0  0  0  0  3  0  0  0  0  0  0
  -23.9970   -8.7510   22.0860 C   0  0  0  0  0  3  0  0  0  0  0  0
  -22.8710   -8.5360   21.2550 C   0  0  0  0  0  0  0  0  0  0  0  0
  -22.5470   -9.4920   20.2760 C   0  0  0  0  0  3  0  0  0  0  0  0
  -23.3180  -10.6570   20.1320 C   0  0  0  0  0  3  0  0  0  0  0  0
  -22.0830   -7.4120   21.3040 O   0  0  0  0  0  0  0  0  0  0  0  0
  -21.8950   -6.7130   22.4690 C   0  0  0  0  0  0  0  0  0  0  0  0
  -21.3430   -7.3190   23.6200 C   0  0  0  0  0  3  0  0  0  0  0  0
  -21.0990   -6.5480   24.7740 C   0  0  0  0  0  3  0  0  0  0  0  0
  -21.4000   -5.1720   24.7790 C   0  0  0  0  0  0  0  0  0  0  0  0
  -21.9450   -4.5670   23.6330 C   0  0  0  0  0  3  0  0  0  0  0  0
  -22.1880   -5.3350   22.4800 C   0  0  0  0  0  0  0  0  0  0  0  0
  -22.6910   -4.7410   21.3710 F   0  0  0  0  0  0  0  0  0  0  0  0
  -21.1620   -4.4300   25.8850 F   0  0  0  0  0  0  0  0  0  0  0  0
  -23.3820  -14.0160   21.0370 C   0  0  0  0  0  0  0  0  0  0  0  0
  -22.6020  -13.3560   21.8870 N   0  0  0  0  0  0  0  0  0  0  0  0
  -22.9920  -15.0420   20.4830 O   0  0  0  0  0  0  0  0  0  0  0  0
  -22.9280  -12.5240   22.3560 H   0  0  0  0  0  0  0  0  0  0  0  0
  -21.6670  -13.6890   22.0720 H   0  0  0  0  0  0  0  0  0  0  0  0
  -26.0850  -15.6020   20.3310 N   0  0  0  0  0  0  0  0  0  0  0  0
  -25.3180  -16.2640   20.3670 H   0  0  0  0  0  0  0  0  0  0  0  0
  -26.9300  -15.9920   19.9370 H   0  0  0  0  0  0  0  0  0  0  0  0
  -29.0250  -26.1000   20.9580 C   0  0  0  0  0  2  0  0  0  0  0  0
  -28.5700  -26.9650   19.8900 O   0  0  0  0  0  0  0  0  0  0  0  0
  -24.6720  -31.9800   23.3080 C   0  0  0  0  0  0  0  0  0  0  0  0
  -27.4080  -27.6990   20.0450 C   0  0  0  0  0  0  0  0  0  0  0  0
  -23.4980  -30.6140   21.6160 C   0  0  0  0  0  3  0  0  0  0  0  0
  -24.9840  -29.1740   20.1210 C   0  0  0  0  0  0  0  0  0  0  0  0
  -26.0140  -31.0390   21.4230 C   0  0  0  0  0  2  0  0  0  0  0  0
  -26.1350  -29.6920   20.7320 C   0  0  0  0  0  0  0  0  0  0  0  0
  -27.3510  -28.9600   20.6940 C   0  0  0  0  0  3  0  0  0  0  0  0
  -26.2440  -27.2110   19.4190 C   0  0  0  0  0  3  0  0  0  0  0  0
  -25.0350  -27.9340   19.4590 C   0  0  0  0  0  3  0  0  0  0  0  0
  -23.7210  -30.0010   20.2080 C   0  0  0  0  0  2  0  0  0  0  0  0
  -24.7480  -31.2240   22.1740 N   0  0  0  0  0  0  0  0  0  0  0  0
  -23.5880  -32.1980   23.8650 O   0  0  0  0  0  0  0  0  0  0  0  0
  -22.8800  -29.5370   22.5370 C   0  0  0  0  0  0  0  0  0  0  0  0
  -21.5640  -29.3060   22.3960 N   0  0  0  0  0  0  0  0  0  0  0  0
  -23.5840  -28.9110   23.3340 O   0  0  0  0  0  0  0  0  0  0  0  0
  -21.0540  -29.8650   21.7250 H   0  0  0  0  0  0  0  0  0  0  0  0
  -18.2420  -27.9560   22.8350 C   0  0  0  0  0  0  0  0  0  0  0  0
  -20.7860  -28.3060   23.1260 C   0  0  0  0  0  3  0  0  0  0  0  0
  -20.9460  -26.9040   22.4930 C   0  0  0  0  0  2  0  0  0  0  0  0
  -19.8610  -26.5800   21.4630 C   0  0  0  0  0  2  0  0  0  0  0  0
  -18.4740  -26.6410   22.1090 C   0  0  0  0  0  2  0  0  0  0  0  0
  -19.3290  -28.7440   23.3000 C   0  0  0  0  0  0  0  0  0  0  0  0
  -19.0600  -29.9740   23.9400 C   0  0  0  0  0  3  0  0  0  0  0  0
  -17.7360  -30.4180   24.1180 C   0  0  0  0  0  3  0  0  0  0  0  0
  -16.6630  -29.6270   23.6720 C   0  0  0  0  0  3  0  0  0  0  0  0
  -16.9170  -28.3980   23.0380 C   0  0  0  0  0  3  0  0  0  0  0  0
  -25.9450  -32.6210   23.9460 C   0  0  0  0  0  3  0  0  0  0  0  0
  -26.4380  -31.8650   25.2400 C   0  0  1  0  0  0  0  0  0  0  0  0
  -25.3210  -31.6060   26.2790 C   0  0  0  0  0  1  0  0  0  0  0  0
  -27.0620  -30.4990   24.8700 C   0  0  0  0  0  1  0  0  0  0  0  0
  -27.5530  -32.6860   25.9310 C   0  0  0  0  0  1  0  0  0  0  0  0
  -25.6270  -34.0220   24.2520 N   0  0  0  0  0  0  0  0  0  0  0  0
  -25.9750  -35.0650   23.4860 C   0  0  0  0  0  0  0  0  0  0  0  0
  -26.6650  -34.9480   22.4700 O   0  0  0  0  0  0  0  0  0  0  0  0
  -25.0160  -34.1890   25.0380 H   0  0  0  0  0  0  0  0  0  0  0  0
  -24.2470  -36.8460   23.0780 C   0  0  0  0  0  1  0  0  0  0  0  0
  -25.4770  -36.4590   23.9150 C   0  0  0  0  0  3  0  0  0  0  0  0
  -27.5950  -37.3630   24.7660 C   0  0  0  0  0  1  0  0  0  0  0  0
  -26.5090  -37.5130   23.8010 N   0  0  0  0  0  0  0  0  0  0  0  0
  -26.0990  -38.4360   23.9250 H   0  0  0  0  0  0  0  0  0  0  0  0
  2  1  2  0
  3  1  1  0
  4  5  2  0
  4  6  1  0
  5  2  1  0
  6  3  2  0
  7  8  1  0
  7  5  1  0
  8 10  1  0
  9  8  1  0
 11 12  1  0
 11 13  1  0
 12 15  1  0
 13 16  1  0
 15 17  1  0
 15 14  1  0
 16  8  1  0
 16 14  1  0
 17 23  1  0
 18 23  1  0
 19 20  1  0
 19 18  1  0
 21 20  1  0
 21 28  1  0
 21 22  1  0
 23 22  1  0
 24 17  2  0
 25 26  2  0
 26 45  1  0
 27 26  1  0
 27 30  1  0
 28 25  1  0
 28 29  1  0
 29 27  2  0
 30 31  1  0
 31 32  2  0
 33 36  1  0
 33 32  1  0
 34 33  2  0
 35 34  1  0
 35 30  2  0
 36 37  1  0
 37 42  2  0
 37 38  1  0
 38 39  2  0
 39 40  1  0
 40 44  1  0
 41 40  2  0
 42 41  1  0
 43 42  1  0
 45 46  1  0
 46 49  1  0
 46 48  1  0
 47 45  2  0
 50 51  1  0
 50 25  1  0
 52 50  1  0
 53  6  1  0
 54 56  1  0
 54 53  1  0
 55 66  2  0
 56 61  1  0
 57 65  1  0
 57 67  1  0
 58 64  1  0
 58 60  1  0
 59 65  1  0
 60 59  1  0
 61 60  2  0
 62 63  1  0
 62 56  2  0
 63 58  2  0
 64 57  1  0
 65 55  1  0
 67 69  2  0
 68 67  1  0
 70 68  1  0
 71 80  2  0
 71 76  1  0
 72 68  1  0
 72 76  1  0
 73 72  1  0
 74 75  1  0
 74 73  1  0
 75 71  1  0
 76 77  2  0
 77 78  1  0
 79 78  2  0
 80 79  1  0
 81 55  1  0
 81 86  1  0
 81 82  1  0
 82 85  1  1
 82 83  1  0
 84 82  1  0
 86 89  1  0
 87 91  1  0
 87 86  1  0
 88 87  2  0
 91 90  1  0
 93 91  1  0
 93 94  1  0
 93 92  1  0
M  ISO  4  15 100  17 100  53 101  54 101
M  END
>  <TORSDO>  (69) 
F 20

>  <SCORE>  (69) 
-12.726

>  <name>  (69) 
69

>  <ligand_id>  (69) 
69

>  <original_smiles>  (69) 
[H]c1c([H])c([H])c2c(c1[H])C([H])([H])C([H])([H])C([H])([H])C2([H])N([H])C(=O)C1([H])N(C(=O)C([H])(N([H])C(=O)C([H])(N([H])C([H])([H])[H])C([H])([H])[H])C(C([H])([H])[H])(C([H])([H])[H])C([H])([H])[H])C([H])([H])c2c([H])c(OC([H])([H])c3c([H])c([H])c([H])c(C([H])([H])[N+]([H])([H])C4([H])C([H])([H])C([H])([H])C([H])([H])C([H])(C(=O)N5C([H])([H])C([H])([H])C([H])([H])C([H])(n6nc(-c7c([H])c([H])c(Oc8c([H])c([H])c(F)c([H])c8F)c([H])c7[H])c(C(=O)N([H])[H])c6N([H])[H])C5([H])[H])C4([H])[H])c3[H])c([H])c([H])c2C1([H])[H]

>  <smiles>  (69) 
[H]c1c([H])c([H])c2c(c1[H])C([H])([H])C([H])([H])C([H])([H])C2([H])N([H])C(=O)C1([H])N(C(=O)C([H])(N([H])C(=O)C([H])(N([H])C([H])([H])[H])C([H])([H])[H])C(C([H])([H])[H])(C([H])([H])[H])C([H])([H])[H])C([H])([H])c2c([H])c(OC([H])([H])c3c([H])c([H])c([H])c(C([H])([H])[N+]([H])([H])C4([H])C([H])([H])C([H])([H])C([H])([H])C([H])(C(=O)N5C([H])([H])C([H])([H])C([H])([H])C([H])(n6nc(-c7c([H])c([H])c(Oc8c([H])c([H])c(F)c([H])c8F)c([H])c7[H])c(C(=O)N([H])[H])c6N([H])[H])C5([H])[H])C4([H])[H])c3[H])c([H])c([H])c2C1([H])[H]

$$$$
70:0:0
     RDKit          3D

100109  0  0  1  0  0  0  0  0999 V2000
  -26.9280  -20.4450   19.2280 C   0  0  0  0  0  2  0  0  0  0  0  0
  -27.4980  -19.5000   18.2420 N   0  0  0  0  0  4  0  0  0  0  0  0
  -26.7570  -19.1600   17.6470 H   0  0  0  0  0  0  0  0  0  0  0  0
  -28.1420  -20.0000   17.6500 H   0  0  0  0  0  0  0  0  0  0  0  0
  -31.6170  -19.2160   22.2470 C   0  0  0  0  0  2  0  0  0  0  0  0
  -31.6920  -17.7910   22.8060 C   0  0  0  0  0  2  0  0  0  0  0  0
  -32.0500  -19.3600   20.7830 C   0  0  0  0  0  2  0  0  0  0  0  0
  -30.3950  -17.0040   22.5530 C   0  0  0  0  0  2  0  0  0  0  0  0
  -29.1180  -17.6920   17.7500 C   0  0  0  0  0  2  0  0  0  0  0  0
  -31.6750  -18.2210   19.8090 C   0  0  0  0  0  2  0  0  0  0  0  0
  -30.0050  -16.7890   18.5900 C   0  0  0  0  0  2  0  0  0  0  0  0
  -29.1460  -18.5860   19.9800 C   0  0  0  0  0  2  0  0  0  0  0  0
  -30.1690  -16.4630   21.1220 C   0  0  0  0  0  3  0  0  0  0  0  0
  -28.2010  -18.3190   18.7900 C   0  0  0  0  0  3  0  0  0  0  0  0
  -30.2810  -17.5170   19.9400 C   0  0  2  0  0  0  0  0  0  0  0  0
  -30.9760  -15.1490   20.8860 C   0  0  0  0  0  0  0  0  0  0  0  0
  -30.8310  -12.9160   19.8710 C   0  0  0  0  0  2  0  0  0  0  0  0
  -30.0020  -13.0060   18.5740 C   0  0  0  0  0  2  0  0  0  0  0  0
  -28.4950  -12.8630   18.8720 C   0  0  0  0  0  2  0  0  0  0  0  0
  -28.0130  -13.7510   20.0520 C   0  0  0  0  0  3  0  0  0  0  0  0
  -28.9780  -13.6500   21.2560 C   0  0  0  0  0  2  0  0  0  0  0  0
  -30.3380  -13.9520   20.7900 N   0  0  0  0  0  0  0  0  0  0  0  0
  -32.1680  -15.2580   20.6000 O   0  0  0  0  0  0  0  0  0  0  0  0
  -25.5510  -14.2940   20.5690 C   0  0  0  0  0  0  0  0  0  0  0  0
  -24.4790  -13.4940   20.8580 C   0  0  0  0  0  0  0  0  0  0  0  0
  -24.9810  -12.1580   20.8820 C   0  0  0  0  0  0  0  0  0  0  0  0
  -26.6370  -13.4430   20.4310 N   0  0  0  0  0  0  0  0  0  0  0  0
  -26.2920  -12.1530   20.6780 N   0  0  0  0  0  0  0  0  0  0  0  0
  -24.2810  -10.8750   21.0270 C   0  0  0  0  0  0  0  0  0  0  0  0
  -24.6450   -9.9450   22.0250 C   0  0  0  0  0  3  0  0  0  0  0  0
  -23.9450   -8.7270   22.1570 C   0  0  0  0  0  3  0  0  0  0  0  0
  -22.8680   -8.4300   21.2900 C   0  0  0  0  0  0  0  0  0  0  0  0
  -22.5250   -9.3490   20.2830 C   0  0  0  0  0  3  0  0  0  0  0  0
  -23.2250  -10.5590   20.1490 C   0  0  0  0  0  3  0  0  0  0  0  0
  -22.1470   -7.2610   21.3280 O   0  0  0  0  0  0  0  0  0  0  0  0
  -21.9590   -6.5690   22.4970 C   0  0  0  0  0  0  0  0  0  0  0  0
  -21.3080   -7.1480   23.6100 C   0  0  0  0  0  3  0  0  0  0  0  0
  -21.0740   -6.3790   24.7670 C   0  0  0  0  0  3  0  0  0  0  0  0
  -21.4800   -5.0310   24.8120 C   0  0  0  0  0  0  0  0  0  0  0  0
  -22.1230   -4.4520   23.7040 C   0  0  0  0  0  3  0  0  0  0  0  0
  -22.3590   -5.2190   22.5480 C   0  0  0  0  0  0  0  0  0  0  0  0
  -22.9600   -4.6490   21.4760 F   0  0  0  0  0  0  0  0  0  0  0  0
  -21.2480   -4.2900   25.9200 F   0  0  0  0  0  0  0  0  0  0  0  0
  -23.0510  -13.9320   21.0120 C   0  0  0  0  0  0  0  0  0  0  0  0
  -22.2790  -13.2270   21.8320 N   0  0  0  0  0  0  0  0  0  0  0  0
  -22.6230  -14.9330   20.4400 O   0  0  0  0  0  0  0  0  0  0  0  0
  -22.6350  -12.4170   22.3180 H   0  0  0  0  0  0  0  0  0  0  0  0
  -21.3180  -13.5020   21.9770 H   0  0  0  0  0  0  0  0  0  0  0  0
  -25.6910  -15.6680   20.3950 N   0  0  0  0  0  0  0  0  0  0  0  0
  -24.9040  -16.3040   20.4610 H   0  0  0  0  0  0  0  0  0  0  0  0
  -26.5680  -16.1310   20.2100 H   0  0  0  0  0  0  0  0  0  0  0  0
  -26.1330  -21.5760   18.5440 C   0  0  0  0  0  2  0  0  0  0  0  0
  -24.9010  -23.7450   18.9750 C   0  0  0  0  0  1  0  0  0  0  0  0
  -26.1450  -22.9050   19.3330 C   0  0  0  0  0  3  0  0  0  0  0  0
  -27.3970  -23.6570   19.0480 N   0  0  0  0  0  4  0  0  0  0  0  0
  -28.1710  -23.0160   18.9560 H   0  0  0  0  0  0  0  0  0  0  0  0
  -27.2920  -24.1090   18.1530 H   0  0  0  0  0  0  0  0  0  0  0  0
  -27.7980  -24.6680   20.0560 C   0  0  0  0  0  2  0  0  0  0  0  0
  -28.5750  -25.8260   19.3880 C   0  0  0  0  0  2  0  0  0  0  0  0
  -28.4700  -27.0460   20.1210 O   0  0  0  0  0  0  0  0  0  0  0  0
  -24.6360  -32.0220   23.4100 C   0  0  0  0  0  0  0  0  0  0  0  0
  -27.2690  -27.7260   20.1290 C   0  0  0  0  0  0  0  0  0  0  0  0
  -23.4180  -30.6830   21.7250 C   0  0  0  0  0  3  0  0  0  0  0  0
  -24.8620  -29.2090   20.2320 C   0  0  0  0  0  0  0  0  0  0  0  0
  -25.9400  -31.0550   21.5240 C   0  0  0  0  0  2  0  0  0  0  0  0
  -26.0210  -29.7100   20.8360 C   0  0  0  0  0  0  0  0  0  0  0  0
  -27.2210  -28.9700   20.7950 C   0  0  0  0  0  3  0  0  0  0  0  0
  -26.0870  -27.2440   19.5100 C   0  0  0  0  0  3  0  0  0  0  0  0
  -24.8870  -27.9700   19.5720 C   0  0  0  0  0  3  0  0  0  0  0  0
  -23.6180  -30.0610   20.3190 C   0  0  0  0  0  2  0  0  0  0  0  0
  -24.6830  -31.2650   22.2780 N   0  0  0  0  0  0  0  0  0  0  0  0
  -23.5590  -32.2720   23.9680 O   0  0  0  0  0  0  0  0  0  0  0  0
  -22.7790  -29.6210   22.6480 C   0  0  0  0  0  0  0  0  0  0  0  0
  -21.4600  -29.4190   22.5000 N   0  0  0  0  0  0  0  0  0  0  0  0
  -23.4660  -28.9850   23.4510 O   0  0  0  0  0  0  0  0  0  0  0  0
  -20.9680  -29.9880   21.8240 H   0  0  0  0  0  0  0  0  0  0  0  0
  -18.1050  -28.1430   22.9090 C   0  0  0  0  0  0  0  0  0  0  0  0
  -20.6510  -28.4460   23.2330 C   0  0  0  0  0  3  0  0  0  0  0  0
  -20.7950  -27.0310   22.6280 C   0  0  0  0  0  2  0  0  0  0  0  0
  -19.7180  -26.7080   21.5870 C   0  0  0  0  0  2  0  0  0  0  0  0
  -18.3220  -26.8120   22.2090 C   0  0  0  0  0  2  0  0  0  0  0  0
  -19.1990  -28.9180   23.3760 C   0  0  0  0  0  0  0  0  0  0  0  0
  -18.9440  -30.1640   23.9890 C   0  0  0  0  0  3  0  0  0  0  0  0
  -17.6270  -30.6360   24.1400 C   0  0  0  0  0  3  0  0  0  0  0  0
  -16.5460  -29.8570   23.6900 C   0  0  0  0  0  3  0  0  0  0  0  0
  -16.7860  -28.6120   23.0810 C   0  0  0  0  0  3  0  0  0  0  0  0
  -25.9270  -32.6290   24.0430 C   0  0  0  0  0  3  0  0  0  0  0  0
  -25.6440  -34.0350   24.3550 N   0  0  0  0  0  0  0  0  0  0  0  0
  -26.0170  -35.0720   23.5910 C   0  0  0  0  0  0  0  0  0  0  0  0
  -26.7080  -34.9440   22.5770 O   0  0  0  0  0  0  0  0  0  0  0  0
  -25.0370  -34.2120   25.1410 H   0  0  0  0  0  0  0  0  0  0  0  0
  -24.3480  -36.9040   23.1720 C   0  0  0  0  0  1  0  0  0  0  0  0
  -25.5520  -36.4740   24.0250 C   0  0  0  0  0  3  0  0  0  0  0  0
  -27.6780  -37.3140   24.9220 C   0  0  0  0  0  1  0  0  0  0  0  0
  -26.6150  -37.5000   23.9380 N   0  0  0  0  0  0  0  0  0  0  0  0
  -26.2280  -38.4310   24.0620 H   0  0  0  0  0  0  0  0  0  0  0  0
  -26.4110  -31.8560   25.3300 C   0  0  1  0  0  0  0  0  0  0  0  0
  -25.2980  -31.6420   26.3820 C   0  0  0  0  0  1  0  0  0  0  0  0
  -26.9770  -30.4670   24.9490 C   0  0  0  0  0  1  0  0  0  0  0  0
  -27.5670  -32.6330   26.0040 C   0  0  0  0  0  1  0  0  0  0  0  0
  2  1  1  0
  3  2  1  0
  4  2  1  0
  5  6  1  0
  7  5  1  0
  8  6  1  0
  9 11  1  0
  9 14  1  0
 15 10  1  6
 10  7  1  0
 13 16  1  0
 13  8  1  0
 14  2  1  0
 14 12  1  0
 15 11  1  0
 15 12  1  0
 15 13  1  0
 17 22  1  0
 18 19  1  0
 18 17  1  0
 20 19  1  0
 20 27  1  0
 20 21  1  0
 22 16  1  0
 22 21  1  0
 23 16  2  0
 24 25  2  0
 25 26  1  0
 25 44  1  0
 26 29  1  0
 27 24  1  0
 27 28  1  0
 28 26  2  0
 29 30  1  0
 30 31  2  0
 32 35  1  0
 32 31  1  0
 33 32  2  0
 34 33  1  0
 34 29  2  0
 35 36  1  0
 36 41  2  0
 36 37  1  0
 37 38  2  0
 38 39  1  0
 39 43  1  0
 40 39  2  0
 41 40  1  0
 42 41  1  0
 44 45  1  0
 45 48  1  0
 45 47  1  0
 46 44  2  0
 49 50  1  0
 49 24  1  0
 51 49  1  0
 52  1  1  0
 52 54  1  0
 54 53  1  0
 55 54  1  0
 55 58  1  0
 56 55  1  0
 57 55  1  0
 59 58  1  0
 59 60  1  0
 60 62  1  0
 61 72  2  0
 62 67  1  0
 63 71  1  0
 63 73  1  0
 64 70  1  0
 64 66  1  0
 65 71  1  0
 66 65  1  0
 67 66  2  0
 68 69  1  0
 68 62  2  0
 69 64  2  0
 70 63  1  0
 71 61  1  0
 73 75  2  0
 74 73  1  0
 76 74  1  0
 77 86  2  0
 77 82  1  0
 78 74  1  0
 78 82  1  0
 79 78  1  0
 80 81  1  0
 80 79  1  0
 81 77  1  0
 82 83  2  0
 83 84  1  0
 85 84  2  0
 86 85  1  0
 87 61  1  0
 87 88  1  0
 87 97  1  0
 88 91  1  0
 89 93  1  0
 89 88  1  0
 90 89  2  0
 93 92  1  0
 95 93  1  0
 95 96  1  0
 95 94  1  0
 97100  1  1
 97 98  1  0
 99 97  1  0
M  ISO  4  13 100  16 100  59 101  60 101
M  END
>  <TORSDO>  (70) 
F 23

>  <SCORE>  (70) 
-11.517

>  <name>  (70) 
70

>  <ligand_id>  (70) 
70

>  <original_smiles>  (70) 
[H]c1c([H])c([H])c2c(c1[H])C([H])([H])C([H])([H])C([H])([H])C2([H])N([H])C(=O)C1([H])N(C(=O)C([H])(N([H])C(=O)C([H])(N([H])C([H])([H])[H])C([H])([H])[H])C(C([H])([H])[H])(C([H])([H])[H])C([H])([H])[H])C([H])([H])c2c([H])c(OC([H])([H])C([H])([H])[N+]([H])([H])C([H])(C([H])([H])[H])C([H])([H])C([H])([H])[N+]([H])([H])C3([H])C([H])([H])C([H])([H])C4(C([H])([H])C([H])([H])C([H])([H])C([H])([H])C([H])([H])C4([H])C(=O)N4C([H])([H])C([H])([H])C([H])([H])C([H])(n5nc(-c6c([H])c([H])c(Oc7c([H])c([H])c(F)c([H])c7F)c([H])c6[H])c(C(=O)N([H])[H])c5N([H])[H])C4([H])[H])C3([H])[H])c([H])c([H])c2C1([H])[H]

>  <smiles>  (70) 
[H]c1c([H])c([H])c2c(c1[H])C([H])([H])C([H])([H])C([H])([H])C2([H])N([H])C(=O)C1([H])N(C(=O)C([H])(N([H])C(=O)C([H])(N([H])C([H])([H])[H])C([H])([H])[H])C(C([H])([H])[H])(C([H])([H])[H])C([H])([H])[H])C([H])([H])c2c([H])c(OC([H])([H])C([H])([H])[N+]([H])([H])C([H])(C([H])([H])[H])C([H])([H])C([H])([H])[N+]([H])([H])C3([H])C([H])([H])C([H])([H])C4(C([H])([H])C([H])([H])C([H])([H])C([H])([H])C([H])([H])C4([H])C(=O)N4C([H])([H])C([H])([H])C([H])([H])C([H])(n5nc(-c6c([H])c([H])c(Oc7c([H])c([H])c(F)c([H])c7F)c([H])c6[H])c(C(=O)N([H])[H])c5N([H])[H])C4([H])[H])C3([H])[H])c([H])c([H])c2C1([H])[H]

$$$$
71:0:0
     RDKit          3D

 93101  0  0  1  0  0  0  0  0999 V2000
  -28.4250  -22.5750   20.0560 C   0  0  0  0  0  3  0  0  0  0  0  0
  -27.4300  -22.4860   18.9670 N   0  0  0  0  0  4  0  0  0  0  0  0
  -27.7500  -21.8990   18.2160 H   0  0  0  0  0  0  0  0  0  0  0  0
  -27.2360  -23.3950   18.5920 H   0  0  0  0  0  0  0  0  0  0  0  0
  -26.5680  -22.1020   19.3220 H   0  0  0  0  0  0  0  0  0  0  0  0
  -28.5580  -21.0920   20.7390 C   0  0  0  0  0  2  0  0  0  0  0  0
  -29.0360  -18.3560   17.8200 C   0  0  0  0  0  2  0  0  0  0  0  0
  -28.4020  -19.5160   18.6000 C   0  0  0  0  0  2  0  0  0  0  0  0
  -28.9400  -17.0360   18.5930 C   0  0  0  0  0  2  0  0  0  0  0  0
  -29.2310  -18.3900   20.7310 C   0  0  0  0  0  2  0  0  0  0  0  0
  -29.1300  -19.7950   19.9360 C   0  0  0  0  0  3  0  0  0  0  0  0
  -29.7510  -17.1170   19.9070 C   0  0  0  0  0  3  0  0  0  0  0  0
  -30.5570  -14.6910   20.3640 C   0  0  0  0  0  0  0  0  0  0  0  0
  -30.3650  -12.4350   19.3520 C   0  0  0  0  0  2  0  0  0  0  0  0
  -29.4110  -12.5690   18.1440 C   0  0  0  0  0  2  0  0  0  0  0  0
  -27.9460  -12.3990   18.5970 C   0  0  0  0  0  2  0  0  0  0  0  0
  -27.5980  -13.2820   19.8240 C   0  0  0  0  0  3  0  0  0  0  0  0
  -28.6570  -13.1410   20.9380 C   0  0  0  0  0  2  0  0  0  0  0  0
  -29.9660  -13.4580   20.3480 N   0  0  0  0  0  0  0  0  0  0  0  0
  -31.7210  -14.8540   19.9850 O   0  0  0  0  0  0  0  0  0  0  0  0
  -29.7110  -15.7540   20.5650 N   0  0  0  0  0  0  0  0  0  0  0  0
  -28.8170  -15.4840   20.9510 H   0  0  0  0  0  0  0  0  0  0  0  0
  -25.2170  -13.8890   20.5660 C   0  0  0  0  0  0  0  0  0  0  0  0
  -24.1520  -13.1180   20.9290 C   0  0  0  0  0  0  0  0  0  0  0  0
  -24.6080  -11.7640   20.8890 C   0  0  0  0  0  0  0  0  0  0  0  0
  -26.2550  -13.0070   20.3190 N   0  0  0  0  0  0  0  0  0  0  0  0
  -25.8960  -11.7260   20.5790 N   0  0  0  0  0  0  0  0  0  0  0  0
  -23.8840  -10.5030   21.0760 C   0  0  0  0  0  0  0  0  0  0  0  0
  -24.3210   -9.5280   22.0010 C   0  0  0  0  0  3  0  0  0  0  0  0
  -23.5920   -8.3310   22.1740 C   0  0  0  0  0  3  0  0  0  0  0  0
  -22.4170   -8.1000   21.4190 C   0  0  0  0  0  0  0  0  0  0  0  0
  -22.0020   -9.0630   20.4820 C   0  0  0  0  0  3  0  0  0  0  0  0
  -22.7290  -10.2510   20.3060 C   0  0  0  0  0  3  0  0  0  0  0  0
  -21.6630   -6.9540   21.5010 O   0  0  0  0  0  0  0  0  0  0  0  0
  -21.6120   -6.2050   22.6500 C   0  0  0  0  0  0  0  0  0  0  0  0
  -21.1660   -6.7480   23.8740 C   0  0  0  0  0  3  0  0  0  0  0  0
  -21.0650   -5.9260   25.0140 C   0  0  0  0  0  3  0  0  0  0  0  0
  -21.4010   -4.5630   24.9310 C   0  0  0  0  0  0  0  0  0  0  0  0
  -21.8410   -4.0180   23.7110 C   0  0  0  0  0  3  0  0  0  0  0  0
  -21.9420   -4.8360   22.5730 C   0  0  0  0  0  0  0  0  0  0  0  0
  -22.3460   -4.3010   21.3960 F   0  0  0  0  0  0  0  0  0  0  0  0
  -21.2950   -3.7720   26.0240 F   0  0  0  0  0  0  0  0  0  0  0  0
  -22.7540  -13.5920   21.2160 C   0  0  0  0  0  0  0  0  0  0  0  0
  -22.0300  -12.8880   22.0770 N   0  0  0  0  0  0  0  0  0  0  0  0
  -22.3170  -14.6270   20.7130 O   0  0  0  0  0  0  0  0  0  0  0  0
  -22.4010  -12.0570   22.5200 H   0  0  0  0  0  0  0  0  0  0  0  0
  -21.0920  -13.1840   22.3130 H   0  0  0  0  0  0  0  0  0  0  0  0
  -25.3930  -15.2620   20.4140 N   0  0  0  0  0  0  0  0  0  0  0  0
  -24.6490  -15.9290   20.6010 H   0  0  0  0  0  0  0  0  0  0  0  0
  -26.2580  -15.7080   20.1390 H   0  0  0  0  0  0  0  0  0  0  0  0
  -27.9470  -23.8170   20.9850 C   0  0  0  0  0  2  0  0  0  0  0  0
  -28.5590  -25.3190   21.0610 C   0  0  0  0  0  2  0  0  0  0  0  0
  -28.3690  -26.4750   20.1460 O   0  0  0  0  0  0  0  0  0  0  0  0
  -24.6000  -31.8920   23.2400 C   0  0  0  0  0  0  0  0  0  0  0  0
  -27.2490  -27.3190   20.2260 C   0  0  0  0  0  0  0  0  0  0  0  0
  -23.4190  -30.4910   21.5880 C   0  0  0  0  0  3  0  0  0  0  0  0
  -24.8870  -28.9410   20.1800 C   0  0  0  0  0  0  0  0  0  0  0  0
  -25.9580  -30.8080   21.4320 C   0  0  0  0  0  2  0  0  0  0  0  0
  -26.0510  -29.4290   20.7850 C   0  0  0  0  0  0  0  0  0  0  0  0
  -27.2420  -28.6390   20.7860 C   0  0  0  0  0  3  0  0  0  0  0  0
  -26.0620  -26.8750   19.6170 C   0  0  0  0  0  3  0  0  0  0  0  0
  -24.8950  -27.6650   19.5910 C   0  0  0  0  0  3  0  0  0  0  0  0
  -23.6530  -29.8310   20.2080 C   0  0  0  0  0  2  0  0  0  0  0  0
  -24.6770  -31.0810   22.1440 N   0  0  0  0  0  0  0  0  0  0  0  0
  -23.5090  -32.1710   23.7580 O   0  0  0  0  0  0  0  0  0  0  0  0
  -22.7490  -29.4640   22.5320 C   0  0  0  0  0  0  0  0  0  0  0  0
  -21.4280  -29.2680   22.3800 N   0  0  0  0  0  0  0  0  0  0  0  0
  -23.4170  -28.8450   23.3630 O   0  0  0  0  0  0  0  0  0  0  0  0
  -20.9530  -29.7980   21.6660 H   0  0  0  0  0  0  0  0  0  0  0  0
  -18.0450  -28.0970   22.8720 C   0  0  0  0  0  0  0  0  0  0  0  0
  -20.6050  -28.3330   23.1520 C   0  0  0  0  0  3  0  0  0  0  0  0
  -20.6950  -26.8970   22.5850 C   0  0  0  0  0  2  0  0  0  0  0  0
  -19.5930  -26.5810   21.5720 C   0  0  0  0  0  2  0  0  0  0  0  0
  -18.2190  -26.7370   22.2180 C   0  0  0  0  0  2  0  0  0  0  0  0
  -19.1680  -28.8460   23.3080 C   0  0  0  0  0  0  0  0  0  0  0  0
  -18.9550  -30.1000   23.9210 C   0  0  0  0  0  3  0  0  0  0  0  0
  -17.6500  -30.6020   24.0940 C   0  0  0  0  0  3  0  0  0  0  0  0
  -16.5410  -29.8510   23.6620 C   0  0  0  0  0  3  0  0  0  0  0  0
  -16.7420  -28.5990   23.0570 C   0  0  0  0  0  3  0  0  0  0  0  0
  -25.8740  -32.5260   23.8760 C   0  0  0  0  0  3  0  0  0  0  0  0
  -25.5630  -33.9260   24.1990 N   0  0  0  0  0  0  0  0  0  0  0  0
  -25.8980  -34.9780   23.4370 C   0  0  0  0  0  0  0  0  0  0  0  0
  -26.5720  -34.8690   22.4110 O   0  0  0  0  0  0  0  0  0  0  0  0
  -24.9720  -34.0870   25.0010 H   0  0  0  0  0  0  0  0  0  0  0  0
  -24.1710  -36.7670   23.0670 C   0  0  0  0  0  1  0  0  0  0  0  0
  -25.4060  -36.3650   23.8890 C   0  0  0  0  0  3  0  0  0  0  0  0
  -27.5290  -37.2580   24.7390 C   0  0  0  0  0  1  0  0  0  0  0  0
  -26.4370  -37.4190   23.7820 N   0  0  0  0  0  0  0  0  0  0  0  0
  -26.0300  -38.3400   23.9180 H   0  0  0  0  0  0  0  0  0  0  0  0
  -26.3760  -31.7570   25.1600 C   0  0  1  0  0  0  0  0  0  0  0  0
  -25.2670  -31.5220   26.2120 C   0  0  0  0  0  1  0  0  0  0  0  0
  -26.9680  -30.3780   24.7820 C   0  0  0  0  0  1  0  0  0  0  0  0
  -27.5180  -32.5540   25.8360 C   0  0  0  0  0  1  0  0  0  0  0  0
  1  6  1  0
  1 51  1  0
  2  5  1  0
  2  1  1  0
  3  2  1  0
  4  2  1  0
  7  9  1  0
  7  8  1  0
  8 11  1  0
  9 12  1  0
 11 10  1  0
 11  6  1  0
 12 21  1  0
 12 10  1  0
 13 21  1  0
 14 19  1  0
 15 16  1  0
 15 14  1  0
 17 16  1  0
 17 26  1  0
 17 18  1  0
 19 13  1  0
 19 18  1  0
 20 13  2  0
 21 22  1  0
 23 24  2  0
 24 43  1  0
 25 24  1  0
 25 28  1  0
 26 23  1  0
 26 27  1  0
 27 25  2  0
 28 29  1  0
 29 30  2  0
 31 34  1  0
 31 30  1  0
 32 31  2  0
 33 32  1  0
 33 28  2  0
 34 35  1  0
 35 36  1  0
 36 37  2  0
 38 37  1  0
 38 42  1  0
 39 38  2  0
 40 35  2  0
 40 39  1  0
 41 40  1  0
 43 44  1  0
 44 47  1  0
 44 46  1  0
 45 43  2  0
 48 23  1  0
 48 49  1  0
 50 48  1  0
 51 52  1  0
 53 55  1  0
 53 52  1  0
 54 65  2  0
 55 60  1  0
 56 64  1  0
 56 66  1  0
 57 63  1  0
 57 59  1  0
 58 64  1  0
 59 60  2  0
 59 58  1  0
 61 55  2  0
 62 61  1  0
 62 57  2  0
 63 56  1  0
 64 54  1  0
 66 68  2  0
 67 66  1  0
 69 67  1  0
 70 79  2  0
 70 75  1  0
 71 67  1  0
 71 75  1  0
 72 71  1  0
 73 74  1  0
 73 72  1  0
 74 70  1  0
 75 76  2  0
 76 77  1  0
 78 77  2  0
 79 78  1  0
 80 54  1  0
 80 81  1  0
 80 90  1  0
 81 84  1  0
 82 86  1  0
 82 81  1  0
 83 82  2  0
 86 85  1  0
 88 86  1  0
 88 89  1  0
 88 87  1  0
 90 93  1  1
 90 91  1  0
 92 90  1  0
M  ISO  4  13 100  21 100  52 101  53 101
M  END
>  <TORSDO>  (71) 
F 21

>  <SCORE>  (71) 
-13.721

>  <name>  (71) 
71

>  <ligand_id>  (71) 
71

>  <original_smiles>  (71) 
[H]c1c([H])c([H])c2c(c1[H])C([H])([H])C([H])([H])C([H])([H])C2([H])N([H])C(=O)C1([H])N(C(=O)C([H])(N([H])C(=O)C([H])(N([H])C([H])([H])[H])C([H])([H])[H])C(C([H])([H])[H])(C([H])([H])[H])C([H])([H])[H])C([H])([H])c2c([H])c(OC([H])([H])C([H])([H])C([H])(C([H])([H])C3([H])C([H])([H])C([H])([H])C([H])([H])C([H])(N([H])C(=O)N4C([H])([H])C([H])([H])C([H])([H])C([H])(n5nc(-c6c([H])c([H])c(Oc7c([H])c([H])c(F)c([H])c7F)c([H])c6[H])c(C(=O)N([H])[H])c5N([H])[H])C4([H])[H])C3([H])[H])[N+]([H])([H])[H])c([H])c([H])c2C1([H])[H]

>  <smiles>  (71) 
[H]c1c([H])c([H])c2c(c1[H])C([H])([H])C([H])([H])C([H])([H])C2([H])N([H])C(=O)C1([H])N(C(=O)C([H])(N([H])C(=O)C([H])(N([H])C([H])([H])[H])C([H])([H])[H])C(C([H])([H])[H])(C([H])([H])[H])C([H])([H])[H])C([H])([H])c2c([H])c(OC([H])([H])C([H])([H])C([H])(C([H])([H])C3([H])C([H])([H])C([H])([H])C([H])([H])C([H])(N([H])C(=O)N4C([H])([H])C([H])([H])C([H])([H])C([H])(n5nc(-c6c([H])c([H])c(Oc7c([H])c([H])c(F)c([H])c7F)c([H])c6[H])c(C(=O)N([H])[H])c5N([H])[H])C4([H])[H])C3([H])[H])[N+]([H])([H])[H])c([H])c([H])c2C1([H])[H]

$$$$
72:0:0
     RDKit          3D

 95103  0  0  1  0  0  0  0  0999 V2000
  -28.4110  -20.6070   20.4730 C   0  0  0  0  0  2  0  0  0  0  0  0
  -28.9680  -19.3550   21.0570 N   0  0  0  0  0  4  0  0  0  0  0  0
  -29.8240  -19.5670   21.5420 H   0  0  0  0  0  0  0  0  0  0  0  0
  -28.3070  -19.0200   21.7390 H   0  0  0  0  0  0  0  0  0  0  0  0
  -29.2920  -16.8270   20.5660 C   0  0  0  0  0  2  0  0  0  0  0  0
  -30.5450  -18.5380   19.3010 C   0  0  0  0  0  2  0  0  0  0  0  0
  -29.2230  -18.2920   20.0490 C   0  0  0  0  0  3  0  0  0  0  0  0
  -30.2450  -16.1010   19.5790 C   0  0  2  0  0  0  0  0  0  0  0  0
  -31.3620  -17.2280   19.4000 C   0  0  2  0  0  0  0  0  0  0  0  0
  -29.5740  -15.9200   18.1820 C   0  0  0  0  0  1  0  0  0  0  0  0
  -32.3170  -17.3940   20.6160 C   0  0  0  0  0  1  0  0  0  0  0  0
  -32.2580  -17.0960   18.1350 C   0  0  0  0  0  1  0  0  0  0  0  0
  -30.8020  -14.6800   20.0220 C   0  0  0  0  0  0  0  0  0  0  0  0
  -30.3900  -12.4280   19.1590 C   0  0  0  0  0  2  0  0  0  0  0  0
  -29.4180  -12.4890   17.9670 C   0  0  0  0  0  2  0  0  0  0  0  0
  -27.9590  -12.4100   18.4500 C   0  0  0  0  0  2  0  0  0  0  0  0
  -27.6430  -13.3160   19.6740 C   0  0  0  0  0  3  0  0  0  0  0  0
  -28.7630  -13.2970   20.7340 C   0  0  0  0  0  2  0  0  0  0  0  0
  -30.0480  -13.5380   20.0640 N   0  0  0  0  0  0  0  0  0  0  0  0
  -32.0140  -14.5710   19.9140 O   0  0  0  0  0  0  0  0  0  0  0  0
  -25.2980  -13.9080   20.5240 C   0  0  0  0  0  0  0  0  0  0  0  0
  -24.2430  -13.1300   20.9180 C   0  0  0  0  0  0  0  0  0  0  0  0
  -24.7000  -11.7790   20.8410 C   0  0  0  0  0  0  0  0  0  0  0  0
  -26.3280  -13.0280   20.2330 N   0  0  0  0  0  0  0  0  0  0  0  0
  -25.9790  -11.7430   20.4880 N   0  0  0  0  0  0  0  0  0  0  0  0
  -23.9790  -10.5150   21.0260 C   0  0  0  0  0  0  0  0  0  0  0  0
  -24.4200   -9.5440   21.9520 C   0  0  0  0  0  3  0  0  0  0  0  0
  -23.6980   -8.3440   22.1270 C   0  0  0  0  0  3  0  0  0  0  0  0
  -22.5210   -8.1070   21.3760 C   0  0  0  0  0  0  0  0  0  0  0  0
  -22.1010   -9.0660   20.4360 C   0  0  0  0  0  3  0  0  0  0  0  0
  -22.8240  -10.2580   20.2600 C   0  0  0  0  0  3  0  0  0  0  0  0
  -21.7670   -6.9620   21.4630 O   0  0  0  0  0  0  0  0  0  0  0  0
  -21.7010   -6.2320   22.6220 C   0  0  0  0  0  0  0  0  0  0  0  0
  -21.2170   -6.7860   23.8280 C   0  0  0  0  0  3  0  0  0  0  0  0
  -21.1020   -5.9790   24.9780 C   0  0  0  0  0  3  0  0  0  0  0  0
  -21.4610   -4.6190   24.9230 C   0  0  0  0  0  0  0  0  0  0  0  0
  -21.9380   -4.0640   23.7220 C   0  0  0  0  0  3  0  0  0  0  0  0
  -22.0530   -4.8680   22.5750 C   0  0  0  0  0  0  0  0  0  0  0  0
  -22.4930   -4.3230   21.4160 F   0  0  0  0  0  0  0  0  0  0  0  0
  -21.3410   -3.8410   26.0250 F   0  0  0  0  0  0  0  0  0  0  0  0
  -22.8580  -13.6050   21.2500 C   0  0  0  0  0  0  0  0  0  0  0  0
  -22.1570  -12.8860   22.1220 N   0  0  0  0  0  0  0  0  0  0  0  0
  -22.4060  -14.6450   20.7740 O   0  0  0  0  0  0  0  0  0  0  0  0
  -22.5340  -12.0440   22.5310 H   0  0  0  0  0  0  0  0  0  0  0  0
  -21.2310  -13.1850   22.3890 H   0  0  0  0  0  0  0  0  0  0  0  0
  -25.4580  -15.2820   20.3630 N   0  0  0  0  0  0  0  0  0  0  0  0
  -24.6960  -15.9370   20.5040 H   0  0  0  0  0  0  0  0  0  0  0  0
  -26.2800  -15.7110   19.9610 H   0  0  0  0  0  0  0  0  0  0  0  0
  -28.9100  -22.2030   22.4110 C   0  0  0  0  0  1  0  0  0  0  0  0
  -29.1360  -21.9110   20.9160 C   0  0  0  0  0  3  0  0  0  0  0  0
  -28.5940  -23.0000   20.0940 N   0  0  0  0  0  0  0  0  0  0  0  0
  -27.5890  -23.0540   20.2300 H   0  0  0  0  0  0  0  0  0  0  0  0
  -29.1620  -24.3480   20.2470 C   0  0  0  0  0  2  0  0  0  0  0  0
  -28.2000  -25.3250   19.5300 C   0  0  0  0  0  2  0  0  0  0  0  0
  -28.3600  -26.7410   19.7880 O   0  0  0  0  0  0  0  0  0  0  0  0
  -24.5310  -31.7590   23.1120 C   0  0  0  0  0  0  0  0  0  0  0  0
  -27.1960  -27.5020   19.7760 C   0  0  0  0  0  0  0  0  0  0  0  0
  -23.3200  -30.3960   21.4470 C   0  0  0  0  0  3  0  0  0  0  0  0
  -24.7760  -28.9790   19.9060 C   0  0  0  0  0  0  0  0  0  0  0  0
  -25.8360  -30.8250   21.2070 C   0  0  0  0  0  2  0  0  0  0  0  0
  -25.9390  -29.4880   20.4990 C   0  0  0  0  0  0  0  0  0  0  0  0
  -27.1510  -28.7540   20.4380 C   0  0  0  0  0  3  0  0  0  0  0  0
  -26.0160  -27.0480   19.1360 C   0  0  0  0  0  3  0  0  0  0  0  0
  -24.8110  -27.7600   19.2210 C   0  0  0  0  0  3  0  0  0  0  0  0
  -23.5110  -29.7970   20.0300 C   0  0  0  0  0  2  0  0  0  0  0  0
  -24.5820  -31.0050   21.9790 N   0  0  0  0  0  0  0  0  0  0  0  0
  -23.4560  -31.9770   23.6900 O   0  0  0  0  0  0  0  0  0  0  0  0
  -22.7270  -29.3090   22.3730 C   0  0  0  0  0  0  0  0  0  0  0  0
  -21.4100  -29.0720   22.2490 N   0  0  0  0  0  0  0  0  0  0  0  0
  -23.4450  -28.6860   23.1590 O   0  0  0  0  0  0  0  0  0  0  0  0
  -20.8890  -29.6290   21.5880 H   0  0  0  0  0  0  0  0  0  0  0  0
  -18.1020  -27.6890   22.7000 C   0  0  0  0  0  0  0  0  0  0  0  0
  -20.6420  -28.0750   22.9950 C   0  0  0  0  0  3  0  0  0  0  0  0
  -20.8250  -26.6640   22.3870 C   0  0  0  0  0  2  0  0  0  0  0  0
  -19.7450  -26.3060   21.3600 C   0  0  0  0  0  2  0  0  0  0  0  0
  -18.3540  -26.3650   21.9980 C   0  0  0  0  0  2  0  0  0  0  0  0
  -19.1770  -28.4990   23.1530 C   0  0  0  0  0  0  0  0  0  0  0  0
  -18.8900  -29.7370   23.7700 C   0  0  0  0  0  3  0  0  0  0  0  0
  -17.5590  -30.1650   23.9370 C   0  0  0  0  0  3  0  0  0  0  0  0
  -16.4990  -29.3520   23.5030 C   0  0  0  0  0  3  0  0  0  0  0  0
  -16.7720  -28.1160   22.8900 C   0  0  0  0  0  3  0  0  0  0  0  0
  -25.8140  -32.4010   23.7220 C   0  0  0  0  0  3  0  0  0  0  0  0
  -25.4820  -33.7830   24.0930 N   0  0  0  0  0  0  0  0  0  0  0  0
  -25.7810  -34.8610   23.3550 C   0  0  0  0  0  0  0  0  0  0  0  0
  -26.4370  -34.7990   22.3120 O   0  0  0  0  0  0  0  0  0  0  0  0
  -24.8980  -33.9030   24.9070 H   0  0  0  0  0  0  0  0  0  0  0  0
  -24.0110  -36.6240   23.0680 C   0  0  0  0  0  1  0  0  0  0  0  0
  -25.2690  -36.2250   23.8560 C   0  0  0  0  0  3  0  0  0  0  0  0
  -27.3870  -37.1370   24.6970 C   0  0  0  0  0  1  0  0  0  0  0  0
  -26.2770  -37.3030   23.7620 N   0  0  0  0  0  0  0  0  0  0  0  0
  -25.8520  -38.2090   23.9370 H   0  0  0  0  0  0  0  0  0  0  0  0
  -26.3750  -31.6070   24.9650 C   0  0  1  0  0  0  0  0  0  0  0  0
  -25.3070  -31.3180   26.0450 C   0  0  0  0  0  1  0  0  0  0  0  0
  -26.9790  -30.2550   24.5240 C   0  0  0  0  0  1  0  0  0  0  0  0
  -27.5170  -32.4100   25.6300 C   0  0  0  0  0  1  0  0  0  0  0  0
  1 50  1  0
  1  2  1  0
  2  3  1  0
  2  4  1  0
  6  9  1  0
  6  7  1  0
  7  5  1  0
  7  2  1  0
  8 10  1  6
  8 13  1  0
  8  5  1  0
  9  8  1  0
  9 11  1  1
 12  9  1  0
 13 19  1  0
 14 19  1  0
 15 16  1  0
 15 14  1  0
 17 16  1  0
 17 24  1  0
 17 18  1  0
 19 18  1  0
 20 13  2  0
 21 22  2  0
 22 41  1  0
 23 22  1  0
 23 26  1  0
 24 25  1  0
 24 21  1  0
 25 23  2  0
 26 27  1  0
 27 28  2  0
 29 32  1  0
 29 28  1  0
 30 29  2  0
 31 30  1  0
 31 26  2  0
 32 33  1  0
 33 34  1  0
 34 35  2  0
 36 35  1  0
 36 40  1  0
 37 36  2  0
 38 33  2  0
 38 37  1  0
 39 38  1  0
 41 42  1  0
 42 45  1  0
 42 44  1  0
 43 41  2  0
 46 47  1  0
 46 21  1  0
 48 46  1  0
 50 49  1  0
 51 52  1  0
 51 53  1  0
 51 50  1  0
 54 55  1  0
 54 53  1  0
 56 67  2  0
 57 55  1  0
 57 62  1  0
 58 66  1  0
 58 68  1  0
 59 65  1  0
 59 61  1  0
 60 66  1  0
 61 60  1  0
 62 61  2  0
 63 64  1  0
 63 57  2  0
 64 59  2  0
 65 58  1  0
 66 56  1  0
 68 70  2  0
 69 68  1  0
 71 69  1  0
 72 81  2  0
 72 77  1  0
 73 69  1  0
 73 77  1  0
 74 73  1  0
 75 76  1  0
 75 74  1  0
 76 72  1  0
 77 78  2  0
 78 79  1  0
 80 79  2  0
 81 80  1  0
 82 56  1  0
 82 83  1  0
 82 92  1  0
 83 86  1  0
 84 88  1  0
 84 83  1  0
 85 84  2  0
 88 87  1  0
 90 88  1  0
 90 91  1  0
 90 89  1  0
 92 95  1  1
 92 93  1  0
 94 92  1  0
M  ISO  4   8 100  13 100  54 101  55 101
M  END
>  <TORSDO>  (72) 
F 22

>  <SCORE>  (72) 
-12.400

>  <name>  (72) 
72

>  <ligand_id>  (72) 
72

>  <original_smiles>  (72) 
[H]c1c([H])c([H])c2c(c1[H])C([H])([H])C([H])([H])C([H])([H])C2([H])N([H])C(=O)C1([H])N(C(=O)C([H])(N([H])C(=O)C([H])(N([H])C([H])([H])[H])C([H])([H])[H])C(C([H])([H])[H])(C([H])([H])[H])C([H])([H])[H])C([H])([H])c2c([H])c(OC([H])([H])C([H])([H])N([H])C([H])(C([H])([H])[H])C([H])([H])[N+]([H])([H])C3([H])C([H])([H])C(C(=O)N4C([H])([H])C([H])([H])C([H])([H])C([H])(n5nc(-c6c([H])c([H])c(Oc7c([H])c([H])c(F)c([H])c7F)c([H])c6[H])c(C(=O)N([H])[H])c5N([H])[H])C4([H])[H])(C([H])([H])[H])C(C([H])([H])[H])(C([H])([H])[H])C3([H])[H])c([H])c([H])c2C1([H])[H]

>  <smiles>  (72) 
[H]c1c([H])c([H])c2c(c1[H])C([H])([H])C([H])([H])C([H])([H])C2([H])N([H])C(=O)C1([H])N(C(=O)C([H])(N([H])C(=O)C([H])(N([H])C([H])([H])[H])C([H])([H])[H])C(C([H])([H])[H])(C([H])([H])[H])C([H])([H])[H])C([H])([H])c2c([H])c(OC([H])([H])C([H])([H])N([H])C([H])(C([H])([H])[H])C([H])([H])[N+]([H])([H])C3([H])C([H])([H])C(C(=O)N4C([H])([H])C([H])([H])C([H])([H])C([H])(n5nc(-c6c([H])c([H])c(Oc7c([H])c([H])c(F)c([H])c7F)c([H])c6[H])c(C(=O)N([H])[H])c5N([H])[H])C4([H])[H])(C([H])([H])[H])C(C([H])([H])[H])(C([H])([H])[H])C3([H])[H])c([H])c([H])c2C1([H])[H]

$$$$
73:0:0
     RDKit          3D

 93102  0  0  1  0  0  0  0  0999 V2000
  -28.6400  -21.9980   20.5090 C   0  0  0  0  0  2  0  0  0  0  0  0
  -30.6490  -19.6950   22.8470 C   0  0  0  0  0  3  0  0  0  0  0  0
  -30.0510  -20.8340   22.2710 C   0  0  0  0  0  3  0  0  0  0  0  0
  -29.4000  -19.5030   20.3430 C   0  0  0  0  0  3  0  0  0  0  0  0
  -30.6190  -18.4470   22.1910 C   0  0  0  0  0  0  0  0  0  0  0  0
  -30.0100  -18.3440   20.9110 C   0  0  0  0  0  0  0  0  0  0  0  0
  -29.3990  -20.7540   21.0240 C   0  0  0  0  0  0  0  0  0  0  0  0
  -31.2640  -17.2460   22.8900 C   0  0  0  0  0  2  0  0  0  0  0  0
  -30.0040  -16.9940   20.1590 C   0  0  0  0  0  2  0  0  0  0  0  0
  -30.8940  -15.8810   22.2750 C   0  0  0  0  0  2  0  0  0  0  0  0
  -31.0100  -15.9660   20.7480 C   0  0  0  0  0  3  0  0  0  0  0  0
  -31.3180  -14.6800   19.9080 C   0  0  0  0  0  0  0  0  0  0  0  0
  -30.7760  -12.5570   18.7540 C   0  0  0  0  0  2  0  0  0  0  0  0
  -29.7750  -12.8240   17.6120 C   0  0  0  0  0  2  0  0  0  0  0  0
  -28.3310  -12.7380   18.1390 C   0  0  0  0  0  2  0  0  0  0  0  0
  -28.1210  -13.5620   19.4390 C   0  0  0  0  0  3  0  0  0  0  0  0
  -29.2460  -13.3010   20.4650 C   0  0  0  0  0  2  0  0  0  0  0  0
  -30.5370  -13.5590   19.8140 N   0  0  0  0  0  0  0  0  0  0  0  0
  -32.3530  -14.7560   19.2420 O   0  0  0  0  0  0  0  0  0  0  0  0
  -25.8290  -14.2390   20.3910 C   0  0  0  0  0  0  0  0  0  0  0  0
  -24.7510  -13.5020   20.8010 C   0  0  0  0  0  0  0  0  0  0  0  0
  -25.1260  -12.1330   20.6460 C   0  0  0  0  0  0  0  0  0  0  0  0
  -26.7980  -13.3220   20.0160 N   0  0  0  0  0  0  0  0  0  0  0  0
  -26.3830  -12.0450   20.2270 N   0  0  0  0  0  0  0  0  0  0  0  0
  -24.3430  -10.9010   20.8190 C   0  0  0  0  0  0  0  0  0  0  0  0
  -24.7640   -9.8750   21.6910 C   0  0  0  0  0  3  0  0  0  0  0  0
  -23.9840   -8.7100   21.8550 C   0  0  0  0  0  3  0  0  0  0  0  0
  -22.7680   -8.5640   21.1470 C   0  0  0  0  0  0  0  0  0  0  0  0
  -22.3640   -9.5790   20.2620 C   0  0  0  0  0  3  0  0  0  0  0  0
  -23.1450  -10.7360   20.0970 C   0  0  0  0  0  3  0  0  0  0  0  0
  -21.9580   -7.4560   21.2240 O   0  0  0  0  0  0  0  0  0  0  0  0
  -21.8860   -6.6950   22.3630 C   0  0  0  0  0  0  0  0  0  0  0  0
  -21.5280   -7.2520   23.6110 C   0  0  0  0  0  3  0  0  0  0  0  0
  -21.3970   -6.4210   24.7410 C   0  0  0  0  0  3  0  0  0  0  0  0
  -21.6130   -5.0340   24.6250 C   0  0  0  0  0  0  0  0  0  0  0  0
  -21.9640   -4.4780   23.3830 C   0  0  0  0  0  3  0  0  0  0  0  0
  -22.0960   -5.3060   22.2550 C   0  0  0  0  0  0  0  0  0  0  0  0
  -22.4140   -4.7610   21.0560 F   0  0  0  0  0  0  0  0  0  0  0  0
  -21.4810   -4.2340   25.7090 F   0  0  0  0  0  0  0  0  0  0  0  0
  -23.4100  -14.0350   21.2200 C   0  0  0  0  0  0  0  0  0  0  0  0
  -22.7280  -13.3450   22.1260 N   0  0  0  0  0  0  0  0  0  0  0  0
  -22.9790  -15.0980   20.7750 O   0  0  0  0  0  0  0  0  0  0  0  0
  -23.0870  -12.4850   22.5150 H   0  0  0  0  0  0  0  0  0  0  0  0
  -21.8300  -13.6870   22.4420 H   0  0  0  0  0  0  0  0  0  0  0  0
  -26.0610  -15.6080   20.2870 N   0  0  0  0  0  0  0  0  0  0  0  0
  -25.3520  -16.2970   20.5170 H   0  0  0  0  0  0  0  0  0  0  0  0
  -26.9170  -16.0210   19.9420 H   0  0  0  0  0  0  0  0  0  0  0  0
  -29.5090  -23.0380   19.8920 N   0  0  0  0  0  4  0  0  0  0  0  0
  -29.3980  -22.9890   18.8920 H   0  0  0  0  0  0  0  0  0  0  0  0
  -30.4550  -22.7490   20.0840 H   0  0  0  0  0  0  0  0  0  0  0  0
  -29.3720  -24.4660   20.3460 C   0  0  0  0  0  2  0  0  0  0  0  0
  -28.1440  -25.2530   19.8040 C   0  0  0  0  0  2  0  0  0  0  0  0
  -28.2640  -26.6920   19.9870 O   0  0  0  0  0  0  0  0  0  0  0  0
  -24.5570  -31.9240   23.1390 C   0  0  0  0  0  0  0  0  0  0  0  0
  -27.1040  -27.4580   19.9720 C   0  0  0  0  0  0  0  0  0  0  0  0
  -23.3090  -30.5360   21.5200 C   0  0  0  0  0  3  0  0  0  0  0  0
  -24.7220  -29.0070   20.0450 C   0  0  0  0  0  0  0  0  0  0  0  0
  -25.8350  -30.8790   21.2660 C   0  0  0  0  0  2  0  0  0  0  0  0
  -25.8990  -29.5120   20.6110 C   0  0  0  0  0  0  0  0  0  0  0  0
  -27.0930  -28.7460   20.5710 C   0  0  0  0  0  3  0  0  0  0  0  0
  -25.9060  -26.9870   19.3840 C   0  0  0  0  0  3  0  0  0  0  0  0
  -24.7240  -27.7470   19.4280 C   0  0  0  0  0  3  0  0  0  0  0  0
  -23.4820  -29.8690   20.1310 C   0  0  0  0  0  2  0  0  0  0  0  0
  -24.5880  -31.1280   22.0320 N   0  0  0  0  0  0  0  0  0  0  0  0
  -23.4880  -32.1980   23.7020 O   0  0  0  0  0  0  0  0  0  0  0  0
  -22.6750  -29.5130   22.4880 C   0  0  0  0  0  0  0  0  0  0  0  0
  -21.3540  -29.3060   22.3630 N   0  0  0  0  0  0  0  0  0  0  0  0
  -23.3690  -28.9030   23.3080 O   0  0  0  0  0  0  0  0  0  0  0  0
  -20.8540  -29.8480   21.6710 H   0  0  0  0  0  0  0  0  0  0  0  0
  -18.0130  -28.0060   22.8270 C   0  0  0  0  0  0  0  0  0  0  0  0
  -20.5550  -28.3580   23.1390 C   0  0  0  0  0  3  0  0  0  0  0  0
  -20.7170  -26.9190   22.5960 C   0  0  0  0  0  2  0  0  0  0  0  0
  -19.6460  -26.5360   21.5710 C   0  0  0  0  0  2  0  0  0  0  0  0
  -18.2470  -26.6490   22.1880 C   0  0  0  0  0  2  0  0  0  0  0  0
  -19.0980  -28.8150   23.2600 C   0  0  0  0  0  0  0  0  0  0  0  0
  -18.8270  -30.0830   23.8170 C   0  0  0  0  0  3  0  0  0  0  0  0
  -17.5050  -30.5460   23.9450 C   0  0  0  0  0  3  0  0  0  0  0  0
  -16.4330  -29.7350   23.5300 C   0  0  0  0  0  3  0  0  0  0  0  0
  -16.6890  -28.4680   22.9790 C   0  0  0  0  0  3  0  0  0  0  0  0
  -25.8580  -32.5480   23.7340 C   0  0  0  0  0  3  0  0  0  0  0  0
  -26.4160  -31.7520   24.9780 C   0  0  1  0  0  0  0  0  0  0  0  0
  -25.3540  -31.4900   26.0730 C   0  0  0  0  0  1  0  0  0  0  0  0
  -26.9920  -30.3850   24.5410 C   0  0  0  0  0  1  0  0  0  0  0  0
  -27.5850  -32.5370   25.6190 C   0  0  0  0  0  1  0  0  0  0  0  0
  -25.5550  -33.9380   24.1010 N   0  0  0  0  0  0  0  0  0  0  0  0
  -25.8830  -35.0080   23.3630 C   0  0  0  0  0  0  0  0  0  0  0  0
  -26.5430  -34.9260   22.3230 O   0  0  0  0  0  0  0  0  0  0  0  0
  -24.9700  -34.0760   24.9120 H   0  0  0  0  0  0  0  0  0  0  0  0
  -24.1640  -36.8150   23.0530 C   0  0  0  0  0  1  0  0  0  0  0  0
  -25.4030  -36.3870   23.8550 C   0  0  0  0  0  3  0  0  0  0  0  0
  -27.5450  -37.2330   24.7040 C   0  0  0  0  0  1  0  0  0  0  0  0
  -26.4420  -37.4370   23.7690 N   0  0  0  0  0  0  0  0  0  0  0  0
  -26.0430  -38.3550   23.9410 H   0  0  0  0  0  0  0  0  0  0  0  0
  1  7  1  0
  3  2  1  0
  4  6  2  0
  4  7  1  0
  5  2  2  0
  5  8  1  0
  6  5  1  0
  7  3  2  0
  9 11  1  0
  9  6  1  0
 10  8  1  0
 11 12  1  0
 11 10  1  0
 13 18  1  0
 14 15  1  0
 14 13  1  0
 16 15  1  0
 16 23  1  0
 16 17  1  0
 18 12  1  0
 18 17  1  0
 19 12  2  0
 20 21  2  0
 21 40  1  0
 22 21  1  0
 22 25  1  0
 23 24  1  0
 23 20  1  0
 24 22  2  0
 25 26  1  0
 26 27  2  0
 28 31  1  0
 28 27  1  0
 29 28  2  0
 30 29  1  0
 30 25  2  0
 31 32  1  0
 32 33  1  0
 33 34  2  0
 35 34  1  0
 35 39  1  0
 36 35  2  0
 37 32  2  0
 37 36  1  0
 38 37  1  0
 40 41  1  0
 41 44  1  0
 41 43  1  0
 42 40  2  0
 45 20  1  0
 45 46  1  0
 47 45  1  0
 48 50  1  0
 48 51  1  0
 48  1  1  0
 49 48  1  0
 52 53  1  0
 52 51  1  0
 54 65  2  0
 55 53  1  0
 55 60  1  0
 56 64  1  0
 56 66  1  0
 57 63  1  0
 57 59  1  0
 58 64  1  0
 59 58  1  0
 60 59  2  0
 61 62  1  0
 61 55  2  0
 62 57  2  0
 63 56  1  0
 64 54  1  0
 66 68  2  0
 67 66  1  0
 69 67  1  0
 70 79  2  0
 70 75  1  0
 71 67  1  0
 71 75  1  0
 72 71  1  0
 73 74  1  0
 73 72  1  0
 74 70  1  0
 75 76  2  0
 76 77  1  0
 78 77  2  0
 79 78  1  0
 80 54  1  0
 80 85  1  0
 80 81  1  0
 81 84  1  1
 81 82  1  0
 83 81  1  0
 85 88  1  0
 86 90  1  0
 86 85  1  0
 87 86  2  0
 90 89  1  0
 92 90  1  0
 92 93  1  0
 92 91  1  0
M  ISO  4  11 100  12 100  52 101  53 101
M  END
>  <TORSDO>  (73) 
F 20

>  <SCORE>  (73) 
-11.991

>  <name>  (73) 
73

>  <ligand_id>  (73) 
73

>  <original_smiles>  (73) 
[H]c1c([H])c([H])c2c(c1[H])C([H])([H])C([H])([H])C([H])([H])C2([H])N([H])C(=O)C1([H])N(C(=O)C([H])(N([H])C(=O)C([H])(N([H])C([H])([H])[H])C([H])([H])[H])C(C([H])([H])[H])(C([H])([H])[H])C([H])([H])[H])C([H])([H])c2c([H])c(OC([H])([H])C([H])([H])[N+]([H])([H])C([H])([H])c3c([H])c([H])c4c(c3[H])C([H])([H])C([H])(C(=O)N3C([H])([H])C([H])([H])C([H])([H])C([H])(n5nc(-c6c([H])c([H])c(Oc7c([H])c([H])c(F)c([H])c7F)c([H])c6[H])c(C(=O)N([H])[H])c5N([H])[H])C3([H])[H])C([H])([H])C4([H])[H])c([H])c([H])c2C1([H])[H]

>  <smiles>  (73) 
[H]c1c([H])c([H])c2c(c1[H])C([H])([H])C([H])([H])C([H])([H])C2([H])N([H])C(=O)C1([H])N(C(=O)C([H])(N([H])C(=O)C([H])(N([H])C([H])([H])[H])C([H])([H])[H])C(C([H])([H])[H])(C([H])([H])[H])C([H])([H])[H])C([H])([H])c2c([H])c(OC([H])([H])C([H])([H])[N+]([H])([H])C([H])([H])c3c([H])c([H])c4c(c3[H])C([H])([H])C([H])(C(=O)N3C([H])([H])C([H])([H])C([H])([H])C([H])(n5nc(-c6c([H])c([H])c(Oc7c([H])c([H])c(F)c([H])c7F)c([H])c6[H])c(C(=O)N([H])[H])c5N([H])[H])C3([H])[H])C([H])([H])C4([H])[H])c([H])c([H])c2C1([H])[H]

$$$$
74:0:0
     RDKit          3D

 90 99  0  0  1  0  0  0  0  0999 V2000
  -30.2300  -20.1420   20.8260 C   0  0  0  0  0  0  0  0  0  0  0  0
  -30.9230  -19.3730   21.9410 C   0  0  0  0  0  2  0  0  0  0  0  0
  -29.9490  -19.0720   19.7350 C   0  0  0  0  0  2  0  0  0  0  0  0
  -29.7490  -17.0420   22.2550 C   0  0  0  0  0  2  0  0  0  0  0  0
  -28.9490  -16.4340   21.0890 C   0  0  0  0  0  2  0  0  0  0  0  0
  -30.8960  -17.8520   21.6210 C   0  0  0  0  0  3  0  0  0  0  0  0
  -30.6840  -17.6860   20.1160 C   0  0  0  0  0  3  0  0  0  0  0  0
  -29.9270  -16.2740   19.8970 C   0  0  2  0  0  0  0  0  0  0  0  0
  -29.2490  -16.4180   18.5080 C   0  0  0  0  0  1  0  0  0  0  0  0
  -29.9950  -21.4310   20.9540 N   0  0  0  0  0  0  0  0  0  0  0  0
  -30.7750  -14.8660   19.8890 C   0  0  0  0  0  0  0  0  0  0  0  0
  -30.5800  -12.5830   18.8880 C   0  0  0  0  0  2  0  0  0  0  0  0
  -29.5330  -12.6310   17.7470 C   0  0  0  0  0  2  0  0  0  0  0  0
  -28.0900  -12.4810   18.2790 C   0  0  0  0  0  2  0  0  0  0  0  0
  -27.8140  -13.3110   19.5630 C   0  0  0  0  0  3  0  0  0  0  0  0
  -28.9740  -13.1430   20.5660 C   0  0  0  0  0  2  0  0  0  0  0  0
  -30.2020  -13.6020   19.8970 N   0  0  0  0  0  0  0  0  0  0  0  0
  -31.9660  -14.9480   19.5730 O   0  0  0  0  0  0  0  0  0  0  0  0
  -25.5010  -13.9000   20.4980 C   0  0  0  0  0  0  0  0  0  0  0  0
  -24.4560  -13.1190   20.9100 C   0  0  0  0  0  0  0  0  0  0  0  0
  -24.8950  -11.7680   20.7720 C   0  0  0  0  0  0  0  0  0  0  0  0
  -26.5120  -13.0190   20.1430 N   0  0  0  0  0  0  0  0  0  0  0  0
  -26.1580  -11.7290   20.3640 N   0  0  0  0  0  0  0  0  0  0  0  0
  -24.1690  -10.5050   20.9510 C   0  0  0  0  0  0  0  0  0  0  0  0
  -24.6020   -9.5310   21.8760 C   0  0  0  0  0  3  0  0  0  0  0  0
  -23.8760   -8.3330   22.0450 C   0  0  0  0  0  3  0  0  0  0  0  0
  -22.7030   -8.1020   21.2880 C   0  0  0  0  0  0  0  0  0  0  0  0
  -22.2910   -9.0650   20.3500 C   0  0  0  0  0  3  0  0  0  0  0  0
  -23.0180  -10.2540   20.1800 C   0  0  0  0  0  3  0  0  0  0  0  0
  -21.9490   -6.9570   21.3670 O   0  0  0  0  0  0  0  0  0  0  0  0
  -21.8000   -6.2730   22.5460 C   0  0  0  0  0  0  0  0  0  0  0  0
  -21.2370   -6.8780   23.6920 C   0  0  0  0  0  3  0  0  0  0  0  0
  -21.0410   -6.1180   24.8630 C   0  0  0  0  0  3  0  0  0  0  0  0
  -21.3940   -4.7560   24.8870 C   0  0  0  0  0  0  0  0  0  0  0  0
  -21.9480   -4.1510   23.7440 C   0  0  0  0  0  3  0  0  0  0  0  0
  -22.1470   -4.9080   22.5770 C   0  0  0  0  0  0  0  0  0  0  0  0
  -22.6630   -4.3160   21.4730 F   0  0  0  0  0  0  0  0  0  0  0  0
  -21.1970   -4.0230   26.0080 F   0  0  0  0  0  0  0  0  0  0  0  0
  -23.0900  -13.5970   21.3150 C   0  0  0  0  0  0  0  0  0  0  0  0
  -22.4310  -12.8730   22.2120 N   0  0  0  0  0  0  0  0  0  0  0  0
  -22.6220  -14.6440   20.8730 O   0  0  0  0  0  0  0  0  0  0  0  0
  -22.8250  -12.0240   22.5920 H   0  0  0  0  0  0  0  0  0  0  0  0
  -21.5190  -13.1720   22.5270 H   0  0  0  0  0  0  0  0  0  0  0  0
  -25.6660  -15.2760   20.3740 N   0  0  0  0  0  0  0  0  0  0  0  0
  -24.9180  -15.9300   20.5820 H   0  0  0  0  0  0  0  0  0  0  0  0
  -26.4940  -15.7260   20.0040 H   0  0  0  0  0  0  0  0  0  0  0  0
  -29.2380  -22.3810   20.0730 C   0  0  0  0  0  2  0  0  0  0  0  0
  -29.3640  -23.9350   20.5130 C   0  0  0  0  0  3  0  0  0  0  0  0
  -28.3020  -25.0240   19.9950 C   0  0  0  0  0  3  0  0  0  0  0  0
  -28.4470  -26.4750   20.3350 O   0  0  0  0  0  0  0  0  0  0  0  0
  -24.6240  -31.8870   23.2550 C   0  0  0  0  0  0  0  0  0  0  0  0
  -27.3220  -27.3260   20.2490 C   0  0  0  0  0  0  0  0  0  0  0  0
  -23.4540  -30.4720   21.6040 C   0  0  0  0  0  3  0  0  0  0  0  0
  -24.9390  -28.9280   20.2020 C   0  0  0  0  0  0  0  0  0  0  0  0
  -25.9940  -30.8090   21.4530 C   0  0  0  0  0  2  0  0  0  0  0  0
  -26.0960  -29.4260   20.8140 C   0  0  0  0  0  0  0  0  0  0  0  0
  -27.2880  -28.6360   20.8290 C   0  0  0  0  0  3  0  0  0  0  0  0
  -26.1410  -26.8930   19.6020 C   0  0  0  0  0  3  0  0  0  0  0  0
  -24.9650  -27.6680   19.5860 C   0  0  0  0  0  3  0  0  0  0  0  0
  -23.6930  -29.7930   20.2310 C   0  0  0  0  0  2  0  0  0  0  0  0
  -24.7090  -31.0730   22.1620 N   0  0  0  0  0  0  0  0  0  0  0  0
  -23.5320  -32.1570   23.7740 O   0  0  0  0  0  0  0  0  0  0  0  0
  -22.7880  -29.4540   22.5610 C   0  0  0  0  0  0  0  0  0  0  0  0
  -21.4720  -29.2370   22.3930 N   0  0  0  0  0  0  0  0  0  0  0  0
  -23.4540  -28.8610   23.4130 O   0  0  0  0  0  0  0  0  0  0  0  0
  -20.9910  -29.7700   21.6810 H   0  0  0  0  0  0  0  0  0  0  0  0
  -18.1140  -27.9510   22.8010 C   0  0  0  0  0  0  0  0  0  0  0  0
  -20.6530  -28.2910   23.1540 C   0  0  0  0  0  3  0  0  0  0  0  0
  -20.8150  -26.8520   22.6110 C   0  0  0  0  0  2  0  0  0  0  0  0
  -19.7590  -26.4790   21.5660 C   0  0  0  0  0  2  0  0  0  0  0  0
  -18.3520  -26.5950   22.1580 C   0  0  0  0  0  2  0  0  0  0  0  0
  -19.1950  -28.7540   23.2540 C   0  0  0  0  0  0  0  0  0  0  0  0
  -18.9200  -30.0210   23.8140 C   0  0  0  0  0  3  0  0  0  0  0  0
  -17.5970  -30.4870   23.9250 C   0  0  0  0  0  3  0  0  0  0  0  0
  -16.5300  -29.6820   23.4890 C   0  0  0  0  0  3  0  0  0  0  0  0
  -16.7880  -28.4170   22.9330 C   0  0  0  0  0  3  0  0  0  0  0  0
  -25.8930  -32.5340   23.8910 C   0  0  0  0  0  3  0  0  0  0  0  0
  -26.4030  -31.7690   25.1730 C   0  0  1  0  0  0  0  0  0  0  0  0
  -25.2950  -31.4900   26.2160 C   0  0  0  0  0  1  0  0  0  0  0  0
  -27.0360  -30.4120   24.7850 C   0  0  0  0  0  1  0  0  0  0  0  0
  -27.5160  -32.5920   25.8650 C   0  0  0  0  0  1  0  0  0  0  0  0
  -25.5640  -33.9300   24.2180 N   0  0  0  0  0  0  0  0  0  0  0  0
  -25.8760  -34.9860   23.4550 C   0  0  0  0  0  0  0  0  0  0  0  0
  -26.5430  -34.8890   22.4210 O   0  0  0  0  0  0  0  0  0  0  0  0
  -24.9720  -34.0780   25.0240 H   0  0  0  0  0  0  0  0  0  0  0  0
  -24.1230  -36.7550   23.1020 C   0  0  0  0  0  1  0  0  0  0  0  0
  -25.3710  -36.3700   23.9110 C   0  0  0  0  0  3  0  0  0  0  0  0
  -27.4900  -37.2920   24.7420 C   0  0  0  0  0  1  0  0  0  0  0  0
  -26.3890  -37.4360   23.7940 N   0  0  0  0  0  0  0  0  0  0  0  0
  -25.9690  -38.3520   23.9320 H   0  0  0  0  0  0  0  0  0  0  0  0
  1 10  2  0
  1  2  1  0
  3  1  1  0
  5  4  1  0
  6  2  1  0
  6  4  1  0
  7  3  1  0
  7  6  1  0
  8  9  1  6
  8  7  1  0
  8  5  1  0
 11 17  1  0
 11  8  1  0
 12 17  1  0
 13 14  1  0
 13 12  1  0
 15 14  1  0
 15 22  1  0
 15 16  1  0
 17 16  1  0
 18 11  2  0
 19 20  2  0
 20 39  1  0
 21 20  1  0
 21 24  1  0
 22 23  1  0
 22 19  1  0
 23 21  2  0
 24 25  1  0
 25 26  2  0
 27 30  1  0
 27 26  1  0
 28 27  2  0
 29 28  1  0
 29 24  2  0
 30 31  1  0
 31 36  2  0
 31 32  1  0
 32 33  2  0
 33 34  1  0
 34 38  1  0
 35 34  2  0
 36 35  1  0
 37 36  1  0
 39 40  1  0
 40 43  1  0
 40 42  1  0
 41 39  2  0
 44 19  1  0
 44 45  1  0
 46 44  1  0
 47 48  1  0
 47 10  1  0
 49 50  1  0
 49 48  2  0
 51 62  2  0
 52 50  1  0
 52 57  1  0
 53 61  1  0
 53 63  1  0
 54 60  1  0
 54 56  1  0
 55 61  1  0
 56 57  2  0
 56 55  1  0
 58 52  2  0
 59 58  1  0
 59 54  2  0
 60 53  1  0
 61 51  1  0
 63 65  2  0
 64 63  1  0
 66 64  1  0
 67 76  2  0
 67 72  1  0
 68 64  1  0
 68 72  1  0
 69 68  1  0
 70 71  1  0
 70 69  1  0
 71 67  1  0
 72 73  2  0
 73 74  1  0
 75 74  2  0
 76 75  1  0
 77 51  1  0
 77 82  1  0
 77 78  1  0
 78 81  1  1
 78 79  1  0
 80 78  1  0
 82 85  1  0
 83 87  1  0
 83 82  1  0
 84 83  2  0
 87 86  1  0
 89 87  1  0
 89 90  1  0
 89 88  1  0
M  ISO  4   8 100  11 100  49 101  50 101
M  END
>  <TORSDO>  (74) 
F 19

>  <SCORE>  (74) 
-13.117

>  <name>  (74) 
74

>  <ligand_id>  (74) 
74

>  <original_smiles>  (74) 
[H]c1c([H])c([H])c2c(c1[H])C([H])([H])C([H])([H])C([H])([H])C2([H])N([H])C(=O)C1([H])N(C(=O)C([H])(N([H])C(=O)C([H])(N([H])C([H])([H])[H])C([H])([H])[H])C(C([H])([H])[H])(C([H])([H])[H])C([H])([H])[H])C([H])([H])c2c([H])c(OC([H])([H])C([H])([H])C([H])([H])N=C3C([H])([H])C4([H])C([H])([H])C([H])([H])C(C(=O)N5C([H])([H])C([H])([H])C([H])([H])C([H])(n6nc(-c7c([H])c([H])c(Oc8c([H])c([H])c(F)c([H])c8F)c([H])c7[H])c(C(=O)N([H])[H])c6N([H])[H])C5([H])[H])(C([H])([H])[H])C4([H])C3([H])[H])c([H])c([H])c2C1([H])[H]

>  <smiles>  (74) 
[H]c1c([H])c([H])c2c(c1[H])C([H])([H])C([H])([H])C([H])([H])C2([H])N([H])C(=O)C1([H])N(C(=O)C([H])(N([H])C(=O)C([H])(N([H])C([H])([H])[H])C([H])([H])[H])C(C([H])([H])[H])(C([H])([H])[H])C([H])([H])[H])C([H])([H])c2c([H])c(OC([H])([H])C([H])([H])C([H])([H])N=C3C([H])([H])C4([H])C([H])([H])C([H])([H])C(C(=O)N5C([H])([H])C([H])([H])C([H])([H])C([H])(n6nc(-c7c([H])c([H])c(Oc8c([H])c([H])c(F)c([H])c8F)c([H])c7[H])c(C(=O)N([H])[H])c6N([H])[H])C5([H])[H])(C([H])([H])[H])C4([H])C3([H])[H])c([H])c([H])c2C1([H])[H]

$$$$
75:0:0
     RDKit          3D

 93101  0  0  1  0  0  0  0  0999 V2000
  -29.8970  -23.4010   20.0710 C   0  0  0  0  0  3  0  0  0  0  0  0
  -27.5140  -24.7600   20.6030 C   0  0  0  0  0  3  0  0  0  0  0  0
  -28.8400  -22.6480   20.6410 C   0  0  0  0  0  0  0  0  0  0  0  0
  -29.7740  -24.7950   19.7760 C   0  0  0  0  0  0  0  0  0  0  0  0
  -27.6220  -23.3640   20.8730 C   0  0  0  0  0  0  0  0  0  0  0  0
  -28.5740  -25.5200   20.0480 C   0  0  0  0  0  0  0  0  0  0  0  0
  -26.3810  -22.6760   21.4300 C   0  0  0  0  0  1  0  0  0  0  0  0
  -29.0460  -21.2080   21.1540 C   0  0  0  0  0  0  0  0  0  0  0  0
  -29.4880  -20.1850   20.3630 N   0  0  0  0  0  0  0  0  0  0  0  0
  -28.7620  -20.9760   22.3310 O   0  0  0  0  0  0  0  0  0  0  0  0
  -29.7100  -20.3850   19.3960 H   0  0  0  0  0  0  0  0  0  0  0  0
  -29.4640  -18.7530   20.8280 C   0  0  0  0  0  2  0  0  0  0  0  0
  -30.3260  -17.6500   20.0940 C   0  0  0  0  0  2  0  0  0  0  0  0
  -30.1650  -16.1970   20.7170 C   0  0  0  0  0  2  0  0  0  0  0  0
  -30.9020  -14.9670   20.0580 C   0  0  0  0  0  0  0  0  0  0  0  0
  -30.6590  -12.7450   18.9570 C   0  0  0  0  0  2  0  0  0  0  0  0
  -29.6530  -12.8800   17.7930 C   0  0  0  0  0  2  0  0  0  0  0  0
  -28.2020  -12.7160   18.2910 C   0  0  0  0  0  2  0  0  0  0  0  0
  -27.9050  -13.5710   19.5510 C   0  0  0  0  0  3  0  0  0  0  0  0
  -29.0140  -13.3900   20.6110 C   0  0  0  0  0  2  0  0  0  0  0  0
  -30.2940  -13.7420   19.9820 N   0  0  0  0  0  0  0  0  0  0  0  0
  -32.0070  -15.1540   19.5390 O   0  0  0  0  0  0  0  0  0  0  0  0
  -25.5580  -14.1760   20.4100 C   0  0  0  0  0  0  0  0  0  0  0  0
  -24.5030  -13.4040   20.8120 C   0  0  0  0  0  0  0  0  0  0  0  0
  -24.9460  -12.0480   20.7140 C   0  0  0  0  0  0  0  0  0  0  0  0
  -26.5790  -13.2920   20.0950 N   0  0  0  0  0  0  0  0  0  0  0  0
  -26.2180  -12.0060   20.3360 N   0  0  0  0  0  0  0  0  0  0  0  0
  -24.2170  -10.7880   20.9040 C   0  0  0  0  0  0  0  0  0  0  0  0
  -24.6040   -9.8520   21.8880 C   0  0  0  0  0  3  0  0  0  0  0  0
  -23.8770   -8.6550   22.0630 C   0  0  0  0  0  3  0  0  0  0  0  0
  -22.7470   -8.3860   21.2550 C   0  0  0  0  0  0  0  0  0  0  0  0
  -22.3780   -9.3110   20.2620 C   0  0  0  0  0  3  0  0  0  0  0  0
  -23.1060  -10.5000   20.0850 C   0  0  0  0  0  3  0  0  0  0  0  0
  -21.9960   -7.2380   21.3370 O   0  0  0  0  0  0  0  0  0  0  0  0
  -21.7950   -6.5940   22.5300 C   0  0  0  0  0  0  0  0  0  0  0  0
  -21.1630   -7.2270   23.6240 C   0  0  0  0  0  3  0  0  0  0  0  0
  -20.9140   -6.5060   24.8080 C   0  0  0  0  0  3  0  0  0  0  0  0
  -21.2880   -5.1510   24.8990 C   0  0  0  0  0  0  0  0  0  0  0  0
  -21.9130   -4.5170   23.8110 C   0  0  0  0  0  3  0  0  0  0  0  0
  -22.1630   -5.2370   22.6290 C   0  0  0  0  0  0  0  0  0  0  0  0
  -22.7450   -4.6150   21.5760 F   0  0  0  0  0  0  0  0  0  0  0  0
  -21.0420   -4.4560   26.0330 F   0  0  0  0  0  0  0  0  0  0  0  0
  -23.1270  -13.8850   21.1730 C   0  0  0  0  0  0  0  0  0  0  0  0
  -22.4370  -13.1670   22.0520 N   0  0  0  0  0  0  0  0  0  0  0  0
  -22.6750  -14.9320   20.7110 O   0  0  0  0  0  0  0  0  0  0  0  0
  -22.8160  -12.3200   22.4480 H   0  0  0  0  0  0  0  0  0  0  0  0
  -21.5150  -13.4690   22.3350 H   0  0  0  0  0  0  0  0  0  0  0  0
  -25.7310  -15.5500   20.2650 N   0  0  0  0  0  0  0  0  0  0  0  0
  -24.9790  -16.2100   20.4330 H   0  0  0  0  0  0  0  0  0  0  0  0
  -26.5700  -15.9840   19.9030 H   0  0  0  0  0  0  0  0  0  0  0  0
  -31.2770  -25.0950   17.7520 C   0  0  0  0  0  1  0  0  0  0  0  0
  -30.9870  -25.5110   19.2000 C   0  0  0  0  0  2  0  0  0  0  0  0
  -28.5060  -26.9110   19.8100 O   0  0  0  0  0  0  0  0  0  0  0  0
  -24.6180  -31.9560   23.1530 C   0  0  0  0  0  0  0  0  0  0  0  0
  -27.3310  -27.6640   19.8560 C   0  0  0  0  0  0  0  0  0  0  0  0
  -23.4360  -30.6120   21.4470 C   0  0  0  0  0  3  0  0  0  0  0  0
  -24.9150  -29.1760   19.9340 C   0  0  0  0  0  0  0  0  0  0  0  0
  -25.9570  -31.0140   21.2650 C   0  0  0  0  0  2  0  0  0  0  0  0
  -26.0670  -29.6730   20.5570 C   0  0  0  0  0  0  0  0  0  0  0  0
  -27.2740  -28.9250   20.5170 C   0  0  0  0  0  3  0  0  0  0  0  0
  -26.1670  -27.2180   19.1920 C   0  0  0  0  0  3  0  0  0  0  0  0
  -24.9650  -27.9520   19.2450 C   0  0  0  0  0  3  0  0  0  0  0  0
  -23.6540  -30.0100   20.0330 C   0  0  0  0  0  2  0  0  0  0  0  0
  -24.6890  -31.2100   22.0120 N   0  0  0  0  0  0  0  0  0  0  0  0
  -23.5340  -32.1780   23.7110 O   0  0  0  0  0  0  0  0  0  0  0  0
  -22.8100  -29.5310   22.3590 C   0  0  0  0  0  0  0  0  0  0  0  0
  -21.4870  -29.3320   22.2360 N   0  0  0  0  0  0  0  0  0  0  0  0
  -23.5130  -28.8770   23.1340 O   0  0  0  0  0  0  0  0  0  0  0  0
  -20.9810  -29.9140   21.5820 H   0  0  0  0  0  0  0  0  0  0  0  0
  -18.1300  -28.1000   22.7670 C   0  0  0  0  0  0  0  0  0  0  0  0
  -20.6960  -28.3380   22.9620 C   0  0  0  0  0  3  0  0  0  0  0  0
  -20.7740  -26.9560   22.2740 C   0  0  0  0  0  2  0  0  0  0  0  0
  -19.6340  -26.7110   21.2810 C   0  0  0  0  0  2  0  0  0  0  0  0
  -18.2780  -26.8060   21.9840 C   0  0  0  0  0  2  0  0  0  0  0  0
  -19.2650  -28.8280   23.2130 C   0  0  0  0  0  0  0  0  0  0  0  0
  -19.0700  -30.0420   23.9050 C   0  0  0  0  0  3  0  0  0  0  0  0
  -17.7740  -30.5280   24.1580 C   0  0  0  0  0  3  0  0  0  0  0  0
  -16.6540  -29.7970   23.7270 C   0  0  0  0  0  3  0  0  0  0  0  0
  -16.8320  -28.5830   23.0380 C   0  0  0  0  0  3  0  0  0  0  0  0
  -25.8930  -32.5840   23.7980 C   0  0  0  0  0  3  0  0  0  0  0  0
  -25.5640  -33.9690   24.1670 N   0  0  0  0  0  0  0  0  0  0  0  0
  -25.8580  -35.0440   23.4240 C   0  0  0  0  0  0  0  0  0  0  0  0
  -26.5050  -34.9760   22.3750 O   0  0  0  0  0  0  0  0  0  0  0  0
  -24.9880  -34.0940   24.9860 H   0  0  0  0  0  0  0  0  0  0  0  0
  -24.0760  -36.7990   23.1650 C   0  0  0  0  0  1  0  0  0  0  0  0
  -25.3560  -36.4130   23.9220 C   0  0  0  0  0  3  0  0  0  0  0  0
  -27.4910  -37.3430   24.6990 C   0  0  0  0  0  1  0  0  0  0  0  0
  -26.3580  -37.4910   23.7900 N   0  0  0  0  0  0  0  0  0  0  0  0
  -25.9340  -38.4000   23.9560 H   0  0  0  0  0  0  0  0  0  0  0  0
  -26.4140  -31.7820   25.0540 C   0  0  1  0  0  0  0  0  0  0  0  0
  -25.3170  -31.4970   26.1070 C   0  0  0  0  0  1  0  0  0  0  0  0
  -27.0210  -30.4260   24.6240 C   0  0  0  0  0  1  0  0  0  0  0  0
  -27.5460  -32.5750   25.7480 C   0  0  0  0  0  1  0  0  0  0  0  0
  1  3  1  0
  2  5  1  0
  3  5  2  0
  3  8  1  0
  4  6  1  0
  4  1  2  0
  5  7  1  0
  6  2  2  0
  8 10  2  0
  9 12  1  0
  9  8  1  0
 11  9  1  0
 13 14  1  0
 13 12  1  0
 15 14  1  0
 16 21  1  0
 17 18  1  0
 17 16  1  0
 19 18  1  0
 19 26  1  0
 19 20  1  0
 21 15  1  0
 21 20  1  0
 22 15  2  0
 23 24  2  0
 24 43  1  0
 25 24  1  0
 25 28  1  0
 26 27  1  0
 26 23  1  0
 27 25  2  0
 28 29  1  0
 29 30  2  0
 31 34  1  0
 31 30  1  0
 32 31  2  0
 33 32  1  0
 33 28  2  0
 34 35  1  0
 35 40  2  0
 35 36  1  0
 36 37  2  0
 37 38  1  0
 38 42  1  0
 39 38  2  0
 40 39  1  0
 41 40  1  0
 43 44  1  0
 44 47  1  0
 44 46  1  0
 45 43  2  0
 48 23  1  0
 48 49  1  0
 50 48  1  0
 51 52  1  0
 52  4  1  0
 53 55  1  0
 53  6  1  0
 54 65  2  0
 55 60  1  0
 56 64  1  0
 56 66  1  0
 57 63  1  0
 57 59  1  0
 58 64  1  0
 59 58  1  0
 60 59  2  0
 61 62  1  0
 61 55  2  0
 62 57  2  0
 63 56  1  0
 64 54  1  0
 66 68  2  0
 67 66  1  0
 69 67  1  0
 70 79  2  0
 70 75  1  0
 71 67  1  0
 71 75  1  0
 72 71  1  0
 73 74  1  0
 73 72  1  0
 74 70  1  0
 75 76  2  0
 76 77  1  0
 78 77  2  0
 79 78  1  0
 80 54  1  0
 80 81  1  0
 80 90  1  0
 81 84  1  0
 82 86  1  0
 82 81  1  0
 83 82  2  0
 86 85  1  0
 88 86  1  0
 88 89  1  0
 88 87  1  0
 90 93  1  1
 90 91  1  0
 92 90  1  0
M  ISO  4   6 101  14 100  15 100  53 101
M  END
>  <TORSDO>  (75) 
F 21

>  <SCORE>  (75) 
-12.180

>  <name>  (75) 
75

>  <ligand_id>  (75) 
75

>  <original_smiles>  (75) 
[H]c1c([H])c([H])c2c(c1[H])C([H])([H])C([H])([H])C([H])([H])C2([H])N([H])C(=O)C1([H])N(C(=O)C([H])(N([H])C(=O)C([H])(N([H])C([H])([H])[H])C([H])([H])[H])C(C([H])([H])[H])(C([H])([H])[H])C([H])([H])[H])C([H])([H])c2c([H])c(Oc3c([H])c(C([H])([H])[H])c(C(=O)N([H])C([H])([H])C([H])([H])C([H])([H])C(=O)N4C([H])([H])C([H])([H])C([H])([H])C([H])(n5nc(-c6c([H])c([H])c(Oc7c([H])c([H])c(F)c([H])c7F)c([H])c6[H])c(C(=O)N([H])[H])c5N([H])[H])C4([H])[H])c([H])c3C([H])([H])C([H])([H])[H])c([H])c([H])c2C1([H])[H]

>  <smiles>  (75) 
[H]c1c([H])c([H])c2c(c1[H])C([H])([H])C([H])([H])C([H])([H])C2([H])N([H])C(=O)C1([H])N(C(=O)C([H])(N([H])C(=O)C([H])(N([H])C([H])([H])[H])C([H])([H])[H])C(C([H])([H])[H])(C([H])([H])[H])C([H])([H])[H])C([H])([H])c2c([H])c(Oc3c([H])c(C([H])([H])[H])c(C(=O)N([H])C([H])([H])C([H])([H])C([H])([H])C(=O)N4C([H])([H])C([H])([H])C([H])([H])C([H])(n5nc(-c6c([H])c([H])c(Oc7c([H])c([H])c(F)c([H])c7F)c([H])c6[H])c(C(=O)N([H])[H])c5N([H])[H])C4([H])[H])c([H])c3C([H])([H])C([H])([H])[H])c([H])c([H])c2C1([H])[H]

$$$$
76:0:0
     RDKit          3D

 95103  0  0  1  0  0  0  0  0999 V2000
  -25.8030  -23.5650   22.7110 C   0  0  0  0  0  3  0  0  0  0  0  0
  -25.6230  -24.9420   22.9380 C   0  0  0  0  0  3  0  0  0  0  0  0
  -26.8900  -23.1230   21.9360 C   0  0  0  0  0  3  0  0  0  0  0  0
  -26.5260  -25.8640   22.3760 C   0  0  0  0  0  3  0  0  0  0  0  0
  -27.8140  -24.0380   21.3800 C   0  0  0  0  0  0  0  0  0  0  0  0
  -27.6190  -25.4320   21.5900 C   0  0  0  0  0  0  0  0  0  0  0  0
  -28.9620  -23.4930   20.5750 C   0  0  0  0  0  0  0  0  0  0  0  0
  -29.7300  -22.6060   21.2220 N   0  0  0  0  0  0  0  0  0  0  0  0
  -29.1760  -23.8620   19.4190 O   0  0  0  0  0  0  0  0  0  0  0  0
  -29.4900  -22.4270   22.1880 H   0  0  0  0  0  0  0  0  0  0  0  0
  -30.9080  -21.9300   20.6740 C   0  0  0  0  0  2  0  0  0  0  0  0
  -30.5840  -20.5090   20.1620 C   0  0  0  0  0  2  0  0  0  0  0  0
  -30.8550  -19.4020   21.1960 C   0  0  0  0  0  2  0  0  0  0  0  0
  -30.5440  -17.9860   20.6670 C   0  0  0  0  0  2  0  0  0  0  0  0
  -30.8390  -16.8950   21.7150 C   0  0  0  0  0  2  0  0  0  0  0  0
  -30.9330  -14.7060   20.4830 C   0  0  0  0  0  0  0  0  0  0  0  0
  -30.6800  -12.5440   19.3230 C   0  0  0  0  0  2  0  0  0  0  0  0
  -29.7480  -12.7000   18.1080 C   0  0  0  0  0  2  0  0  0  0  0  0
  -28.2750  -12.5150   18.5230 C   0  0  0  0  0  2  0  0  0  0  0  0
  -27.8970  -13.3890   19.7520 C   0  0  0  0  0  3  0  0  0  0  0  0
  -28.9380  -13.2090   20.8790 C   0  0  0  0  0  2  0  0  0  0  0  0
  -30.2710  -13.5280   20.3310 N   0  0  0  0  0  0  0  0  0  0  0  0
  -31.9800  -14.9760   19.8850 O   0  0  0  0  0  0  0  0  0  0  0  0
  -30.3530  -15.5720   21.3210 N   0  0  0  0  0  0  0  0  0  0  0  0
  -29.4930  -15.2530   21.7470 H   0  0  0  0  0  0  0  0  0  0  0  0
  -25.4830  -13.9810   20.4220 C   0  0  0  0  0  0  0  0  0  0  0  0
  -24.4230  -13.2030   20.8060 C   0  0  0  0  0  0  0  0  0  0  0  0
  -24.9010  -11.8560   20.8090 C   0  0  0  0  0  0  0  0  0  0  0  0
  -26.5390  -13.1060   20.2220 N   0  0  0  0  0  0  0  0  0  0  0  0
  -26.1930  -11.8250   20.5070 N   0  0  0  0  0  0  0  0  0  0  0  0
  -24.1920  -10.5880   21.0290 C   0  0  0  0  0  0  0  0  0  0  0  0
  -24.6100   -9.6750   22.0200 C   0  0  0  0  0  3  0  0  0  0  0  0
  -23.9090   -8.4690   22.2270 C   0  0  0  0  0  3  0  0  0  0  0  0
  -22.7720   -8.1650   21.4420 C   0  0  0  0  0  0  0  0  0  0  0  0
  -22.3700   -9.0660   20.4420 C   0  0  0  0  0  3  0  0  0  0  0  0
  -23.0730  -10.2660   20.2350 C   0  0  0  0  0  3  0  0  0  0  0  0
  -22.0440   -7.0040   21.5540 O   0  0  0  0  0  0  0  0  0  0  0  0
  -21.9400   -6.3310   22.7450 C   0  0  0  0  0  0  0  0  0  0  0  0
  -21.4120   -6.9420   23.9040 C   0  0  0  0  0  3  0  0  0  0  0  0
  -21.2610   -6.1920   25.0880 C   0  0  0  0  0  3  0  0  0  0  0  0
  -21.6250   -4.8330   25.1110 C   0  0  0  0  0  0  0  0  0  0  0  0
  -22.1420   -4.2200   23.9570 C   0  0  0  0  0  3  0  0  0  0  0  0
  -22.2980   -4.9680   22.7760 C   0  0  0  0  0  0  0  0  0  0  0  0
  -22.7790   -4.3690   21.6610 F   0  0  0  0  0  0  0  0  0  0  0  0
  -21.4700   -4.1090   26.2450 F   0  0  0  0  0  0  0  0  0  0  0  0
  -23.0170  -13.6640   21.0610 C   0  0  0  0  0  0  0  0  0  0  0  0
  -22.2920  -12.9810   21.9410 N   0  0  0  0  0  0  0  0  0  0  0  0
  -22.5630  -14.6630   20.5070 O   0  0  0  0  0  0  0  0  0  0  0  0
  -22.6640  -12.1700   22.4150 H   0  0  0  0  0  0  0  0  0  0  0  0
  -21.3460  -13.2710   22.1420 H   0  0  0  0  0  0  0  0  0  0  0  0
  -25.6430  -15.3460   20.2100 N   0  0  0  0  0  0  0  0  0  0  0  0
  -24.8870  -16.0190   20.2830 H   0  0  0  0  0  0  0  0  0  0  0  0
  -26.5100  -15.7570   19.8830 H   0  0  0  0  0  0  0  0  0  0  0  0
  -28.5660  -26.4890   21.0090 C   0  0  0  0  0  2  0  0  0  0  0  0
  -28.1550  -26.9640   19.7220 O   0  0  0  0  0  0  0  0  0  0  0  0
  -24.4940  -31.9890   23.1470 C   0  0  0  0  0  0  0  0  0  0  0  0
  -27.0210  -27.7330   19.7680 C   0  0  0  0  0  0  0  0  0  0  0  0
  -23.2260  -30.6740   21.4750 C   0  0  0  0  0  3  0  0  0  0  0  0
  -24.6280  -29.2130   19.9250 C   0  0  0  0  0  0  0  0  0  0  0  0
  -25.7410  -31.0450   21.2120 C   0  0  0  0  0  2  0  0  0  0  0  0
  -25.8000  -29.7090   20.5080 C   0  0  0  0  0  0  0  0  0  0  0  0
  -26.9990  -28.9740   20.4390 C   0  0  0  0  0  3  0  0  0  0  0  0
  -25.8450  -27.2520   19.1580 C   0  0  0  0  0  3  0  0  0  0  0  0
  -24.6430  -27.9790   19.2490 C   0  0  0  0  0  3  0  0  0  0  0  0
  -23.3920  -30.0750   20.0530 C   0  0  0  0  0  2  0  0  0  0  0  0
  -24.5070  -31.2480   22.0040 N   0  0  0  0  0  0  0  0  0  0  0  0
  -23.4340  -32.2330   23.7390 O   0  0  0  0  0  0  0  0  0  0  0  0
  -22.6060  -29.6060   22.4000 C   0  0  0  0  0  0  0  0  0  0  0  0
  -21.2820  -29.4160   22.2930 N   0  0  0  0  0  0  0  0  0  0  0  0
  -23.3120  -28.9500   23.1720 O   0  0  0  0  0  0  0  0  0  0  0  0
  -20.7700  -30.0010   21.6470 H   0  0  0  0  0  0  0  0  0  0  0  0
  -17.9320  -28.1510   22.7700 C   0  0  0  0  0  0  0  0  0  0  0  0
  -20.4870  -28.4420   23.0410 C   0  0  0  0  0  3  0  0  0  0  0  0
  -20.6140  -27.0310   22.4220 C   0  0  0  0  0  2  0  0  0  0  0  0
  -19.5120  -26.7190   21.4040 C   0  0  0  0  0  2  0  0  0  0  0  0
  -18.1310  -26.8250   22.0570 C   0  0  0  0  0  2  0  0  0  0  0  0
  -19.0390  -28.9190   23.2190 C   0  0  0  0  0  0  0  0  0  0  0  0
  -18.8040  -30.1610   23.8460 C   0  0  0  0  0  3  0  0  0  0  0  0
  -17.4920  -30.6360   24.0320 C   0  0  0  0  0  3  0  0  0  0  0  0
  -16.3980  -29.8650   23.6010 C   0  0  0  0  0  3  0  0  0  0  0  0
  -16.6190  -28.6260   22.9740 C   0  0  0  0  0  3  0  0  0  0  0  0
  -25.8040  -32.5860   23.7490 C   0  0  0  0  0  3  0  0  0  0  0  0
  -25.5330  -33.9840   24.1070 N   0  0  0  0  0  0  0  0  0  0  0  0
  -25.8940  -35.0420   23.3690 C   0  0  0  0  0  0  0  0  0  0  0  0
  -26.5630  -34.9430   22.3360 O   0  0  0  0  0  0  0  0  0  0  0  0
  -24.9510  -34.1400   24.9190 H   0  0  0  0  0  0  0  0  0  0  0  0
  -24.2230  -36.8890   23.0290 C   0  0  0  0  0  1  0  0  0  0  0  0
  -25.4400  -36.4340   23.8500 C   0  0  0  0  0  3  0  0  0  0  0  0
  -27.5860  -37.2370   24.7320 C   0  0  0  0  0  1  0  0  0  0  0  0
  -26.5020  -37.4600   23.7780 N   0  0  0  0  0  0  0  0  0  0  0  0
  -26.1170  -38.3840   23.9490 H   0  0  0  0  0  0  0  0  0  0  0  0
  -26.3410  -31.7790   24.9940 C   0  0  1  0  0  0  0  0  0  0  0  0
  -25.2750  -31.5340   26.0860 C   0  0  0  0  0  1  0  0  0  0  0  0
  -26.8910  -30.4020   24.5540 C   0  0  0  0  0  1  0  0  0  0  0  0
  -27.5190  -32.5390   25.6460 C   0  0  0  0  0  1  0  0  0  0  0  0
  1  2  1  0
  3  1  2  0
  4  2  2  0
  5  6  2  0
  5  3  1  0
  6  4  1  0
  7  8  1  0
  7  5  1  0
  8 10  1  0
  9  7  2  0
 11  8  1  0
 12 11  1  0
 12 13  1  0
 14 13  1  0
 14 15  1  0
 16 24  1  0
 17 22  1  0
 18 19  1  0
 18 17  1  0
 20 19  1  0
 20 29  1  0
 20 21  1  0
 22 16  1  0
 22 21  1  0
 23 16  2  0
 24 15  1  0
 24 25  1  0
 26 27  2  0
 27 28  1  0
 27 46  1  0
 28 31  1  0
 29 26  1  0
 29 30  1  0
 30 28  2  0
 31 32  1  0
 32 33  2  0
 34 37  1  0
 34 33  1  0
 35 34  2  0
 36 35  1  0
 36 31  2  0
 37 38  1  0
 38 43  2  0
 38 39  1  0
 39 40  2  0
 40 41  1  0
 41 45  1  0
 42 41  2  0
 43 42  1  0
 44 43  1  0
 46 47  1  0
 47 50  1  0
 47 49  1  0
 48 46  2  0
 51 52  1  0
 51 26  1  0
 53 51  1  0
 54  6  1  0
 55 57  1  0
 55 54  1  0
 56 67  2  0
 57 62  1  0
 58 66  1  0
 58 68  1  0
 59 65  1  0
 59 61  1  0
 60 66  1  0
 61 60  1  0
 62 61  2  0
 63 64  1  0
 63 57  2  0
 64 59  2  0
 65 58  1  0
 66 56  1  0
 68 70  2  0
 69 68  1  0
 71 69  1  0
 72 81  2  0
 72 77  1  0
 73 69  1  0
 73 77  1  0
 74 73  1  0
 75 76  1  0
 75 74  1  0
 76 72  1  0
 77 78  2  0
 78 79  1  0
 80 79  2  0
 81 80  1  0
 82 56  1  0
 82 83  1  0
 82 92  1  0
 83 86  1  0
 84 88  1  0
 84 83  1  0
 85 84  2  0
 88 87  1  0
 90 88  1  0
 90 91  1  0
 90 89  1  0
 92 95  1  1
 92 93  1  0
 94 92  1  0
M  ISO  4  16 100  24 100  54 101  55 101
M  END
>  <TORSDO>  (76) 
F 23

>  <SCORE>  (76) 
-11.860

>  <name>  (76) 
76

>  <ligand_id>  (76) 
76

>  <original_smiles>  (76) 
[H]c1c([H])c([H])c(C([H])([H])Oc2c([H])c([H])c3c(c2[H])C([H])([H])N(C(=O)C([H])(N([H])C(=O)C([H])(N([H])C([H])([H])[H])C([H])([H])[H])C(C([H])([H])[H])(C([H])([H])[H])C([H])([H])[H])C([H])(C(=O)N([H])C2([H])c4c([H])c([H])c([H])c([H])c4C([H])([H])C([H])([H])C2([H])[H])C3([H])[H])c(C(=O)N([H])C([H])([H])C([H])([H])C([H])([H])C([H])([H])C([H])([H])N([H])C(=O)N2C([H])([H])C([H])([H])C([H])([H])C([H])(n3nc(-c4c([H])c([H])c(Oc5c([H])c([H])c(F)c([H])c5F)c([H])c4[H])c(C(=O)N([H])[H])c3N([H])[H])C2([H])[H])c1[H]

>  <smiles>  (76) 
[H]c1c([H])c([H])c(C([H])([H])Oc2c([H])c([H])c3c(c2[H])C([H])([H])N(C(=O)C([H])(N([H])C(=O)C([H])(N([H])C([H])([H])[H])C([H])([H])[H])C(C([H])([H])[H])(C([H])([H])[H])C([H])([H])[H])C([H])(C(=O)N([H])C2([H])c4c([H])c([H])c([H])c([H])c4C([H])([H])C([H])([H])C2([H])[H])C3([H])[H])c(C(=O)N([H])C([H])([H])C([H])([H])C([H])([H])C([H])([H])C([H])([H])N([H])C(=O)N2C([H])([H])C([H])([H])C([H])([H])C([H])(n3nc(-c4c([H])c([H])c(Oc5c([H])c([H])c(F)c([H])c5F)c([H])c4[H])c(C(=O)N([H])[H])c3N([H])[H])C2([H])[H])c1[H]

$$$$
77:0:0
     RDKit          3D

 92100  0  0  1  0  0  0  0  0999 V2000
  -30.1910  -21.9950   19.1140 C   0  0  0  0  0  3  0  0  0  0  0  0
  -29.0810  -23.0940   20.9790 C   0  0  0  0  0  3  0  0  0  0  0  0
  -29.5780  -24.3610   18.9630 C   0  0  0  0  0  3  0  0  0  0  0  0
  -29.6470  -21.9230   20.4180 C   0  0  0  0  0  0  0  0  0  0  0  0
  -30.1530  -23.2060   18.3870 C   0  0  0  0  0  0  0  0  0  0  0  0
  -29.0440  -24.3160   20.2670 C   0  0  0  0  0  0  0  0  0  0  0  0
  -30.7400  -23.2770   16.9920 C   0  0  0  0  0  1  0  0  0  0  0  0
  -29.7100  -20.6520   21.2330 C   0  0  0  0  0  0  0  0  0  0  0  0
  -29.6870  -19.4840   20.5660 N   0  0  0  0  0  0  0  0  0  0  0  0
  -29.7130  -20.7080   22.4650 O   0  0  0  0  0  0  0  0  0  0  0  0
  -29.6450  -19.5370   19.5590 H   0  0  0  0  0  0  0  0  0  0  0  0
  -29.5400  -18.1620   21.1880 C   0  0  0  0  0  2  0  0  0  0  0  0
  -30.3930  -17.0660   20.5100 C   0  0  0  0  0  2  0  0  0  0  0  0
  -30.1390  -15.6650   21.1240 C   0  0  0  0  0  2  0  0  0  0  0  0
  -30.7980  -14.5030   20.3440 C   0  0  0  0  0  0  0  0  0  0  0  0
  -30.4760  -12.3990   19.0920 C   0  0  0  0  0  2  0  0  0  0  0  0
  -29.5030  -12.6530   17.9220 C   0  0  0  0  0  2  0  0  0  0  0  0
  -28.0340  -12.5230   18.3770 C   0  0  0  0  0  2  0  0  0  0  0  0
  -27.7410  -13.3110   19.6820 C   0  0  0  0  0  3  0  0  0  0  0  0
  -28.8160  -13.0030   20.7470 C   0  0  0  0  0  2  0  0  0  0  0  0
  -30.1290  -13.3320   20.1720 N   0  0  0  0  0  0  0  0  0  0  0  0
  -31.8960  -14.7130   19.8150 O   0  0  0  0  0  0  0  0  0  0  0  0
  -25.3530  -13.9350   20.4210 C   0  0  0  0  0  0  0  0  0  0  0  0
  -24.2850  -13.1680   20.8030 C   0  0  0  0  0  0  0  0  0  0  0  0
  -24.7390  -11.8140   20.7650 C   0  0  0  0  0  0  0  0  0  0  0  0
  -26.3910  -13.0470   20.1780 N   0  0  0  0  0  0  0  0  0  0  0  0
  -26.0230  -11.7670   20.4400 N   0  0  0  0  0  0  0  0  0  0  0  0
  -24.0110  -10.5540   20.9640 C   0  0  0  0  0  0  0  0  0  0  0  0
  -24.4500   -9.5890   21.8960 C   0  0  0  0  0  3  0  0  0  0  0  0
  -23.7230   -8.3930   22.0850 C   0  0  0  0  0  3  0  0  0  0  0  0
  -22.5440   -8.1550   21.3400 C   0  0  0  0  0  0  0  0  0  0  0  0
  -22.1230   -9.1090   20.3970 C   0  0  0  0  0  3  0  0  0  0  0  0
  -22.8500  -10.2970   20.2070 C   0  0  0  0  0  3  0  0  0  0  0  0
  -21.7880   -7.0120   21.4370 O   0  0  0  0  0  0  0  0  0  0  0  0
  -21.7390   -6.2760   22.5930 C   0  0  0  0  0  0  0  0  0  0  0  0
  -21.3010   -6.8360   23.8130 C   0  0  0  0  0  3  0  0  0  0  0  0
  -21.2030   -6.0260   24.9630 C   0  0  0  0  0  3  0  0  0  0  0  0
  -21.5310   -4.6590   24.8920 C   0  0  0  0  0  0  0  0  0  0  0  0
  -21.9620   -4.1000   23.6760 C   0  0  0  0  0  3  0  0  0  0  0  0
  -22.0630   -4.9060   22.5290 C   0  0  0  0  0  0  0  0  0  0  0  0
  -22.4580   -4.3580   21.3560 F   0  0  0  0  0  0  0  0  0  0  0  0
  -21.4270   -3.8790   25.9940 F   0  0  0  0  0  0  0  0  0  0  0  0
  -22.8930  -13.6500   21.0940 C   0  0  0  0  0  0  0  0  0  0  0  0
  -22.1750  -12.9570   21.9700 N   0  0  0  0  0  0  0  0  0  0  0  0
  -22.4520  -14.6780   20.5810 O   0  0  0  0  0  0  0  0  0  0  0  0
  -22.5480  -12.1270   22.4080 H   0  0  0  0  0  0  0  0  0  0  0  0
  -21.2410  -13.2590   22.2050 H   0  0  0  0  0  0  0  0  0  0  0  0
  -25.5240  -15.3040   20.2400 N   0  0  0  0  0  0  0  0  0  0  0  0
  -24.7670  -15.9670   20.3600 H   0  0  0  0  0  0  0  0  0  0  0  0
  -26.3760  -15.7340   19.9020 H   0  0  0  0  0  0  0  0  0  0  0  0
  -28.4310  -25.5490   20.9290 C   0  0  0  0  0  2  0  0  0  0  0  0
  -28.5000  -26.7560   20.1550 O   0  0  0  0  0  0  0  0  0  0  0  0
  -24.6150  -31.8850   23.2260 C   0  0  0  0  0  0  0  0  0  0  0  0
  -27.3360  -27.4890   20.1590 C   0  0  0  0  0  0  0  0  0  0  0  0
  -23.4430  -30.4830   21.5600 C   0  0  0  0  0  3  0  0  0  0  0  0
  -24.9280  -28.9640   20.1470 C   0  0  0  0  0  0  0  0  0  0  0  0
  -25.9670  -30.8660   21.3960 C   0  0  0  0  0  2  0  0  0  0  0  0
  -26.0740  -29.5000   20.7500 C   0  0  0  0  0  0  0  0  0  0  0  0
  -27.2850  -28.7710   20.7480 C   0  0  0  0  0  3  0  0  0  0  0  0
  -26.1760  -26.9620   19.5540 C   0  0  0  0  0  3  0  0  0  0  0  0
  -24.9730  -27.6930   19.5460 C   0  0  0  0  0  3  0  0  0  0  0  0
  -23.6750  -29.8100   20.1810 C   0  0  0  0  0  2  0  0  0  0  0  0
  -24.6930  -31.0930   22.1200 N   0  0  0  0  0  0  0  0  0  0  0  0
  -23.5250  -32.1470   23.7520 O   0  0  0  0  0  0  0  0  0  0  0  0
  -22.7860  -29.4520   22.5060 C   0  0  0  0  0  0  0  0  0  0  0  0
  -21.4620  -29.2750   22.3700 N   0  0  0  0  0  0  0  0  0  0  0  0
  -23.4650  -28.8170   23.3170 O   0  0  0  0  0  0  0  0  0  0  0  0
  -20.9790  -29.8370   21.6850 H   0  0  0  0  0  0  0  0  0  0  0  0
  -18.0790  -28.1000   22.8490 C   0  0  0  0  0  0  0  0  0  0  0  0
  -20.6380  -28.3300   23.1240 C   0  0  0  0  0  3  0  0  0  0  0  0
  -20.7290  -26.9090   22.5210 C   0  0  0  0  0  2  0  0  0  0  0  0
  -19.6230  -26.6150   21.5030 C   0  0  0  0  0  2  0  0  0  0  0  0
  -18.2430  -26.7600   22.1510 C   0  0  0  0  0  2  0  0  0  0  0  0
  -19.2040  -28.8440   23.2930 C   0  0  0  0  0  0  0  0  0  0  0  0
  -18.9970  -30.1000   23.9040 C   0  0  0  0  0  3  0  0  0  0  0  0
  -17.6970  -30.6100   24.0780 C   0  0  0  0  0  3  0  0  0  0  0  0
  -16.5860  -29.8620   23.6540 C   0  0  0  0  0  3  0  0  0  0  0  0
  -16.7780  -28.6080   23.0440 C   0  0  0  0  0  3  0  0  0  0  0  0
  -25.8880  -32.5200   23.8670 C   0  0  0  0  0  3  0  0  0  0  0  0
  -25.5680  -33.9140   24.1980 N   0  0  0  0  0  0  0  0  0  0  0  0
  -25.9060  -34.9720   23.4480 C   0  0  0  0  0  0  0  0  0  0  0  0
  -26.5910  -34.8750   22.4260 O   0  0  0  0  0  0  0  0  0  0  0  0
  -24.9600  -34.0640   24.9910 H   0  0  0  0  0  0  0  0  0  0  0  0
  -24.1740  -36.7550   23.0680 C   0  0  0  0  0  1  0  0  0  0  0  0
  -25.4030  -36.3550   23.9010 C   0  0  0  0  0  3  0  0  0  0  0  0
  -27.5140  -37.2480   24.7780 C   0  0  0  0  0  1  0  0  0  0  0  0
  -26.4320  -37.4140   23.8120 N   0  0  0  0  0  0  0  0  0  0  0  0
  -26.0180  -38.3320   23.9530 H   0  0  0  0  0  0  0  0  0  0  0  0
  -26.3940  -31.7450   25.1450 C   0  0  1  0  0  0  0  0  0  0  0  0
  -25.2890  -31.4920   26.1970 C   0  0  0  0  0  1  0  0  0  0  0  0
  -26.9920  -30.3750   24.7480 C   0  0  0  0  0  1  0  0  0  0  0  0
  -27.5310  -32.5430   25.8260 C   0  0  0  0  0  1  0  0  0  0  0  0
  1  4  1  0
  3  6  2  0
  4  2  2  0
  4  8  1  0
  5  3  1  0
  5  1  2  0
  6 51  1  0
  6  2  1  0
  7  5  1  0
  8 10  2  0
  9 12  1  0
  9  8  1  0
 11  9  1  0
 13 14  1  0
 13 12  1  0
 15 14  1  0
 16 21  1  0
 17 18  1  0
 17 16  1  0
 19 18  1  0
 19 26  1  0
 19 20  1  0
 21 15  1  0
 21 20  1  0
 22 15  2  0
 23 24  2  0
 24 43  1  0
 25 24  1  0
 25 28  1  0
 26 23  1  0
 26 27  1  0
 27 25  2  0
 28 29  1  0
 29 30  2  0
 31 34  1  0
 31 30  1  0
 32 31  2  0
 33 32  1  0
 33 28  2  0
 34 35  1  0
 35 36  1  0
 36 37  2  0
 38 37  1  0
 38 42  1  0
 39 38  2  0
 40 35  2  0
 40 39  1  0
 41 40  1  0
 43 44  1  0
 44 47  1  0
 44 46  1  0
 45 43  2  0
 48 49  1  0
 48 23  1  0
 50 48  1  0
 52 54  1  0
 52 51  1  0
 53 64  2  0
 54 59  1  0
 55 63  1  0
 55 65  1  0
 56 62  1  0
 56 58  1  0
 57 63  1  0
 58 57  1  0
 59 58  2  0
 60 54  2  0
 61 60  1  0
 61 56  2  0
 62 55  1  0
 63 53  1  0
 65 67  2  0
 66 65  1  0
 68 66  1  0
 69 78  2  0
 69 74  1  0
 70 66  1  0
 70 74  1  0
 71 70  1  0
 72 73  1  0
 72 71  1  0
 73 69  1  0
 74 75  2  0
 75 76  1  0
 77 76  2  0
 78 77  1  0
 79 53  1  0
 79 80  1  0
 79 89  1  0
 80 83  1  0
 81 85  1  0
 81 80  1  0
 82 81  2  0
 85 84  1  0
 87 85  1  0
 87 88  1  0
 87 86  1  0
 89 92  1  1
 89 90  1  0
 91 89  1  0
M  ISO  4  14 100  15 100  51 101  52 101
M  END
>  <TORSDO>  (77) 
F 21

>  <SCORE>  (77) 
-13.240

>  <name>  (77) 
77

>  <ligand_id>  (77) 
77

>  <original_smiles>  (77) 
[H]c1c([H])c([H])c2c(c1[H])C([H])([H])C([H])([H])C([H])([H])C2([H])N([H])C(=O)C1([H])N(C(=O)C([H])(N([H])C(=O)C([H])(N([H])C([H])([H])[H])C([H])([H])[H])C(C([H])([H])[H])(C([H])([H])[H])C([H])([H])[H])C([H])([H])c2c([H])c(OC([H])([H])c3c([H])c(C(=O)N([H])C([H])([H])C([H])([H])C([H])([H])C(=O)N4C([H])([H])C([H])([H])C([H])([H])C([H])(n5nc(-c6c([H])c([H])c(Oc7c([H])c([H])c(F)c([H])c7F)c([H])c6[H])c(C(=O)N([H])[H])c5N([H])[H])C4([H])[H])c([H])c(C([H])([H])[H])c3[H])c([H])c([H])c2C1([H])[H]

>  <smiles>  (77) 
[H]c1c([H])c([H])c2c(c1[H])C([H])([H])C([H])([H])C([H])([H])C2([H])N([H])C(=O)C1([H])N(C(=O)C([H])(N([H])C(=O)C([H])(N([H])C([H])([H])[H])C([H])([H])[H])C(C([H])([H])[H])(C([H])([H])[H])C([H])([H])[H])C([H])([H])c2c([H])c(OC([H])([H])c3c([H])c(C(=O)N([H])C([H])([H])C([H])([H])C([H])([H])C(=O)N4C([H])([H])C([H])([H])C([H])([H])C([H])(n5nc(-c6c([H])c([H])c(Oc7c([H])c([H])c(F)c([H])c7F)c([H])c6[H])c(C(=O)N([H])[H])c5N([H])[H])C4([H])[H])c([H])c(C([H])([H])[H])c3[H])c([H])c([H])c2C1([H])[H]

$$$$
78:0:0
     RDKit          3D

 99108  0  0  1  0  0  0  0  0999 V2000
  -30.4440  -23.8400   19.7390 C   0  0  0  0  0  3  0  0  0  0  0  0
  -30.7240  -22.5410   20.2210 C   0  0  0  0  0  3  0  0  0  0  0  0
  -28.3050  -23.0660   18.9220 C   0  0  0  0  0  0  0  0  0  0  0  0
  -28.5250  -21.7430   19.4820 C   0  0  0  0  0  0  0  0  0  0  0  0
  -29.2120  -24.1510   19.1320 C   0  0  0  0  0  0  0  0  0  0  0  0
  -29.7800  -21.4730   20.1570 C   0  0  0  0  0  0  0  0  0  0  0  0
  -26.2170  -22.2350   17.5950 C   0  0  0  0  0  0  0  0  0  0  0  0
  -27.0450  -23.4040   18.1030 C   0  0  0  0  0  2  0  0  0  0  0  0
  -26.7450  -20.8570   17.9090 C   0  0  0  0  0  2  0  0  0  0  0  0
  -27.2910  -20.7700   19.3570 C   0  0  2  0  0  0  0  0  0  0  0  0
  -26.2370  -21.2220   20.4010 C   0  0  0  0  0  1  0  0  0  0  0  0
  -27.4190  -19.2380   19.5990 C   0  0  0  0  0  1  0  0  0  0  0  0
  -25.1690  -22.3910   16.9670 O   0  0  0  0  0  0  0  0  0  0  0  0
  -30.1950  -20.1660   20.9140 C   0  0  0  0  0  2  0  0  0  0  0  0
  -30.0780  -18.8910   20.1330 N   0  0  0  0  0  4  0  0  0  0  0  0
  -30.2810  -19.0380   19.1500 H   0  0  0  0  0  0  0  0  0  0  0  0
  -29.0960  -18.6550   20.1900 H   0  0  0  0  0  0  0  0  0  0  0  0
  -30.8410  -17.7060   20.6380 C   0  0  0  0  0  2  0  0  0  0  0  0
  -30.0280  -16.3680   20.6490 C   0  0  0  0  0  2  0  0  0  0  0  0
  -31.1720  -14.2860   20.0510 C   0  0  0  0  0  0  0  0  0  0  0  0
  -30.6900  -12.1200   18.9770 C   0  0  0  0  0  2  0  0  0  0  0  0
  -29.7040  -12.2550   17.8000 C   0  0  0  0  0  2  0  0  0  0  0  0
  -28.2590  -12.1450   18.3120 C   0  0  0  0  0  2  0  0  0  0  0  0
  -27.9910  -13.1050   19.5020 C   0  0  0  0  0  3  0  0  0  0  0  0
  -29.0820  -12.9670   20.5900 C   0  0  0  0  0  2  0  0  0  0  0  0
  -30.3990  -13.1720   19.9620 N   0  0  0  0  0  0  0  0  0  0  0  0
  -32.1820  -14.4650   19.3720 O   0  0  0  0  0  0  0  0  0  0  0  0
  -30.8270  -15.1770   20.9890 N   0  0  0  0  0  0  0  0  0  0  0  0
  -31.5950  -15.3910   21.6080 H   0  0  0  0  0  0  0  0  0  0  0  0
  -25.6780  -13.8530   20.3320 C   0  0  0  0  0  0  0  0  0  0  0  0
  -24.5930  -13.1530   20.7640 C   0  0  0  0  0  0  0  0  0  0  0  0
  -24.9590  -11.7730   20.6950 C   0  0  0  0  0  0  0  0  0  0  0  0
  -26.6530  -12.9110   20.0440 N   0  0  0  0  0  0  0  0  0  0  0  0
  -26.2260  -11.6560   20.3150 N   0  0  0  0  0  0  0  0  0  0  0  0
  -24.1720  -10.5570   20.9120 C   0  0  0  0  0  0  0  0  0  0  0  0
  -24.5780   -9.5700   21.8350 C   0  0  0  0  0  3  0  0  0  0  0  0
  -23.7970   -8.4140   22.0380 C   0  0  0  0  0  3  0  0  0  0  0  0
  -22.5930   -8.2330   21.3130 C   0  0  0  0  0  0  0  0  0  0  0  0
  -22.2060   -9.2110   20.3750 C   0  0  0  0  0  3  0  0  0  0  0  0
  -22.9900  -10.3590   20.1740 C   0  0  0  0  0  3  0  0  0  0  0  0
  -21.7820   -7.1320   21.4250 O   0  0  0  0  0  0  0  0  0  0  0  0
  -21.6990   -6.4150   22.5950 C   0  0  0  0  0  0  0  0  0  0  0  0
  -21.3100   -7.0180   23.8080 C   0  0  0  0  0  3  0  0  0  0  0  0
  -21.1670   -6.2300   24.9700 C   0  0  0  0  0  3  0  0  0  0  0  0
  -21.4040   -4.8440   24.9130 C   0  0  0  0  0  0  0  0  0  0  0  0
  -21.7850   -4.2420   23.7020 C   0  0  0  0  0  3  0  0  0  0  0  0
  -21.9280   -5.0280   22.5410 C   0  0  0  0  0  0  0  0  0  0  0  0
  -22.2760   -4.4390   21.3720 F   0  0  0  0  0  0  0  0  0  0  0  0
  -21.2640   -4.0830   26.0260 F   0  0  0  0  0  0  0  0  0  0  0  0
  -23.2430  -13.7130   21.1240 C   0  0  0  0  0  0  0  0  0  0  0  0
  -22.5310  -13.0480   22.0250 N   0  0  0  0  0  0  0  0  0  0  0  0
  -22.8340  -14.7680   20.6400 O   0  0  0  0  0  0  0  0  0  0  0  0
  -22.8800  -12.1910   22.4280 H   0  0  0  0  0  0  0  0  0  0  0  0
  -21.6290  -13.3980   22.3190 H   0  0  0  0  0  0  0  0  0  0  0  0
  -25.9200  -15.2110   20.1350 N   0  0  0  0  0  0  0  0  0  0  0  0
  -25.1580  -15.8770   20.1820 H   0  0  0  0  0  0  0  0  0  0  0  0
  -26.7140  -15.5550   19.6120 H   0  0  0  0  0  0  0  0  0  0  0  0
  -28.9170  -25.6260   18.6710 C   0  0  0  0  0  2  0  0  0  0  0  0
  -28.6520  -26.6270   19.7060 O   0  0  0  0  0  0  0  0  0  0  0  0
  -24.6370  -31.6460   22.9680 C   0  0  0  0  0  0  0  0  0  0  0  0
  -27.4550  -27.3540   19.7280 C   0  0  0  0  0  0  0  0  0  0  0  0
  -23.4920  -30.2470   21.2870 C   0  0  0  0  0  3  0  0  0  0  0  0
  -25.0060  -28.8140   19.8250 C   0  0  0  0  0  0  0  0  0  0  0  0
  -26.0150  -30.6850   21.1230 C   0  0  0  0  0  2  0  0  0  0  0  0
  -26.1520  -29.3380   20.4350 C   0  0  0  0  0  0  0  0  0  0  0  0
  -27.3730  -28.6110   20.3960 C   0  0  0  0  0  3  0  0  0  0  0  0
  -26.2720  -26.8660   19.1210 C   0  0  0  0  0  3  0  0  0  0  0  0
  -25.0600  -27.5720   19.1870 C   0  0  0  0  0  3  0  0  0  0  0  0
  -23.7290  -29.6250   19.8910 C   0  0  0  0  0  2  0  0  0  0  0  0
  -24.7330  -30.8710   21.8500 N   0  0  0  0  0  0  0  0  0  0  0  0
  -23.5390  -31.8660   23.5040 O   0  0  0  0  0  0  0  0  0  0  0  0
  -22.8760  -29.1730   22.2120 C   0  0  0  0  0  0  0  0  0  0  0  0
  -21.5500  -28.9810   22.1100 N   0  0  0  0  0  0  0  0  0  0  0  0
  -23.5900  -28.5160   22.9740 O   0  0  0  0  0  0  0  0  0  0  0  0
  -21.0310  -29.5660   21.4710 H   0  0  0  0  0  0  0  0  0  0  0  0
  -18.1970  -27.7740   22.6710 C   0  0  0  0  0  0  0  0  0  0  0  0
  -20.7640  -27.9980   22.8460 C   0  0  0  0  0  3  0  0  0  0  0  0
  -20.8400  -26.6160   22.1550 C   0  0  0  0  0  2  0  0  0  0  0  0
  -19.6910  -26.3670   21.1800 C   0  0  0  0  0  2  0  0  0  0  0  0
  -18.3380  -26.4680   21.9070 C   0  0  0  0  0  2  0  0  0  0  0  0
  -19.3390  -28.5010   23.0940 C   0  0  0  0  0  0  0  0  0  0  0  0
  -19.1610  -29.7270   23.7720 C   0  0  0  0  0  3  0  0  0  0  0  0
  -17.8700  -30.2270   24.0270 C   0  0  0  0  0  3  0  0  0  0  0  0
  -16.7400  -29.4960   23.6250 C   0  0  0  0  0  3  0  0  0  0  0  0
  -16.9040  -28.2740   22.9450 C   0  0  0  0  0  3  0  0  0  0  0  0
  -25.8960  -32.3020   23.6110 C   0  0  0  0  0  3  0  0  0  0  0  0
  -25.5300  -33.6660   24.0080 N   0  0  0  0  0  0  0  0  0  0  0  0
  -25.8200  -34.7670   23.3050 C   0  0  0  0  0  0  0  0  0  0  0  0
  -26.5040  -34.7440   22.2770 O   0  0  0  0  0  0  0  0  0  0  0  0
  -24.9090  -33.7590   24.8000 H   0  0  0  0  0  0  0  0  0  0  0  0
  -24.0160  -36.4920   23.0330 C   0  0  0  0  0  1  0  0  0  0  0  0
  -25.2740  -36.1070   23.8270 C   0  0  0  0  0  3  0  0  0  0  0  0
  -27.3600  -37.0450   24.7120 C   0  0  0  0  0  1  0  0  0  0  0  0
  -26.2560  -37.2130   23.7700 N   0  0  0  0  0  0  0  0  0  0  0  0
  -25.8060  -38.1030   23.9710 H   0  0  0  0  0  0  0  0  0  0  0  0
  -26.4570  -31.4960   24.8460 C   0  0  1  0  0  0  0  0  0  0  0  0
  -25.3850  -31.1660   25.9090 C   0  0  0  0  0  1  0  0  0  0  0  0
  -27.0980  -30.1650   24.3880 C   0  0  0  0  0  1  0  0  0  0  0  0
  -27.5720  -32.3110   25.5410 C   0  0  0  0  0  1  0  0  0  0  0  0
  1  2  1  0
  3  5  1  0
  3  4  2  0
  4  6  1  0
  5  1  2  0
  6  2  2  0
  6 14  1  0
  7  9  1  0
  7  8  1  0
  8  3  1  0
  9 10  1  0
 10  4  1  0
 10 12  1  1
 10 11  1  0
 13  7  2  0
 15 17  1  0
 15 18  1  0
 15 14  1  0
 16 15  1  0
 18 19  1  0
 19 28  1  0
 20 28  1  0
 21 26  1  0
 22 23  1  0
 22 21  1  0
 24 23  1  0
 24 33  1  0
 24 25  1  0
 26 20  1  0
 26 25  1  0
 27 20  2  0
 28 29  1  0
 30 31  2  0
 31 50  1  0
 32 31  1  0
 32 35  1  0
 33 34  1  0
 33 30  1  0
 34 32  2  0
 35 36  1  0
 36 37  2  0
 38 41  1  0
 38 37  1  0
 39 38  2  0
 40 39  1  0
 40 35  2  0
 41 42  1  0
 42 43  1  0
 43 44  2  0
 45 44  1  0
 45 49  1  0
 46 45  2  0
 47 42  2  0
 47 46  1  0
 48 47  1  0
 50 51  1  0
 51 54  1  0
 51 53  1  0
 52 50  2  0
 55 56  1  0
 55 30  1  0
 57 55  1  0
 58  5  1  0
 58 59  1  0
 59 61  1  0
 60 71  2  0
 61 66  1  0
 62 70  1  0
 62 72  1  0
 63 69  1  0
 63 65  1  0
 64 70  1  0
 65 64  1  0
 66 65  2  0
 67 68  1  0
 67 61  2  0
 68 63  2  0
 69 62  1  0
 70 60  1  0
 72 74  2  0
 73 72  1  0
 75 73  1  0
 76 85  2  0
 76 81  1  0
 77 73  1  0
 77 81  1  0
 78 77  1  0
 79 80  1  0
 79 78  1  0
 80 76  1  0
 81 82  2  0
 82 83  1  0
 84 83  2  0
 85 84  1  0
 86 60  1  0
 86 87  1  0
 86 96  1  0
 87 90  1  0
 88 92  1  0
 88 87  1  0
 89 88  2  0
 92 91  1  0
 94 92  1  0
 94 95  1  0
 94 93  1  0
 96 99  1  1
 96 97  1  0
 98 96  1  0
M  ISO  4  20 100  28 100  58 101  59 101
M  END
>  <TORSDO>  (78) 
F 21

>  <SCORE>  (78) 
-11.488

>  <name>  (78) 
78

>  <ligand_id>  (78) 
78

>  <original_smiles>  (78) 
[H]c1c([H])c([H])c2c(c1[H])C([H])([H])C([H])([H])C([H])([H])C2([H])N([H])C(=O)C1([H])N(C(=O)C([H])(N([H])C(=O)C([H])(N([H])C([H])([H])[H])C([H])([H])[H])C(C([H])([H])[H])(C([H])([H])[H])C([H])([H])[H])C([H])([H])c2c([H])c(OC([H])([H])c3c([H])c([H])c(C([H])([H])[N+]([H])([H])C([H])([H])C([H])([H])N([H])C(=O)N4C([H])([H])C([H])([H])C([H])([H])C([H])(n5nc(-c6c([H])c([H])c(Oc7c([H])c([H])c(F)c([H])c7F)c([H])c6[H])c(C(=O)N([H])[H])c5N([H])[H])C4([H])[H])c4c3C([H])([H])C(=O)C([H])([H])C4(C([H])([H])[H])C([H])([H])[H])c([H])c([H])c2C1([H])[H]

>  <smiles>  (78) 
[H]c1c([H])c([H])c2c(c1[H])C([H])([H])C([H])([H])C([H])([H])C2([H])N([H])C(=O)C1([H])N(C(=O)C([H])(N([H])C(=O)C([H])(N([H])C([H])([H])[H])C([H])([H])[H])C(C([H])([H])[H])(C([H])([H])[H])C([H])([H])[H])C([H])([H])c2c([H])c(OC([H])([H])c3c([H])c([H])c(C([H])([H])[N+]([H])([H])C([H])([H])C([H])([H])N([H])C(=O)N4C([H])([H])C([H])([H])C([H])([H])C([H])(n5nc(-c6c([H])c([H])c(Oc7c([H])c([H])c(F)c([H])c7F)c([H])c6[H])c(C(=O)N([H])[H])c5N([H])[H])C4([H])[H])c4c3C([H])([H])C(=O)C([H])([H])C4(C([H])([H])[H])C([H])([H])[H])c([H])c([H])c2C1([H])[H]

$$$$
79:0:0
     RDKit          3D

 94102  0  0  1  0  0  0  0  0999 V2000
  -28.8830  -24.9150   21.7790 C   0  0  0  0  0  0  0  0  0  0  0  0
  -28.3960  -23.6310   22.4550 C   0  0  0  0  0  2  0  0  0  0  0  0
  -29.1480  -22.3510   22.0220 C   0  0  0  0  0  2  0  0  0  0  0  0
  -28.7680  -24.3310   19.2770 C   0  0  0  0  0  2  0  0  0  0  0  0
  -29.5930  -23.0310   19.5920 C   0  0  0  0  0  2  0  0  0  0  0  0
  -28.2440  -25.2480   20.4260 C   0  0  0  0  0  3  0  0  0  0  0  0
  -28.9770  -21.9390   20.5300 C   0  0  0  0  0  3  0  0  0  0  0  0
  -29.7480  -25.6230   22.2970 O   0  0  0  0  0  0  0  0  0  0  0  0
  -29.5690  -20.5790   20.2450 N   0  0  0  0  0  4  0  0  0  0  0  0
  -30.5700  -20.6240   20.3550 H   0  0  0  0  0  0  0  0  0  0  0  0
  -29.3890  -20.3820   19.2730 H   0  0  0  0  0  0  0  0  0  0  0  0
  -29.0460  -19.4090   21.0270 C   0  0  0  0  0  2  0  0  0  0  0  0
  -29.2530  -17.9800   20.3920 C   0  0  0  0  0  2  0  0  0  0  0  0
  -31.7340  -17.4630   20.7210 C   0  0  0  0  0  1  0  0  0  0  0  0
  -30.2980  -17.0280   21.0720 C   0  0  0  0  0  3  0  0  0  0  0  0
  -30.7260  -14.5400   20.3500 C   0  0  0  0  0  0  0  0  0  0  0  0
  -30.4310  -12.3470   19.2420 C   0  0  0  0  0  2  0  0  0  0  0  0
  -29.4930  -12.5250   18.0310 C   0  0  0  0  0  2  0  0  0  0  0  0
  -28.0160  -12.4030   18.4590 C   0  0  0  0  0  2  0  0  0  0  0  0
  -27.6820  -13.2660   19.7060 C   0  0  0  0  0  3  0  0  0  0  0  0
  -28.7330  -13.0620   20.8210 C   0  0  0  0  0  2  0  0  0  0  0  0
  -30.0560  -13.3570   20.2490 N   0  0  0  0  0  0  0  0  0  0  0  0
  -31.8630  -14.6820   19.8910 O   0  0  0  0  0  0  0  0  0  0  0  0
  -30.0020  -15.5760   20.8490 N   0  0  0  0  0  0  0  0  0  0  0  0
  -29.0890  -15.2830   21.1670 H   0  0  0  0  0  0  0  0  0  0  0  0
  -25.2920  -13.9160   20.3960 C   0  0  0  0  0  0  0  0  0  0  0  0
  -24.2140  -13.1620   20.7740 C   0  0  0  0  0  0  0  0  0  0  0  0
  -24.6570  -11.8050   20.7680 C   0  0  0  0  0  0  0  0  0  0  0  0
  -26.3250  -13.0160   20.1840 N   0  0  0  0  0  0  0  0  0  0  0  0
  -25.9470  -11.7420   20.4670 N   0  0  0  0  0  0  0  0  0  0  0  0
  -23.9160  -10.5540   20.9730 C   0  0  0  0  0  0  0  0  0  0  0  0
  -24.3410   -9.5900   21.9140 C   0  0  0  0  0  3  0  0  0  0  0  0
  -23.5990   -8.4060   22.1070 C   0  0  0  0  0  3  0  0  0  0  0  0
  -22.4180   -8.1750   21.3600 C   0  0  0  0  0  0  0  0  0  0  0  0
  -22.0120   -9.1290   20.4100 C   0  0  0  0  0  3  0  0  0  0  0  0
  -22.7540  -10.3050   20.2140 C   0  0  0  0  0  3  0  0  0  0  0  0
  -21.6490   -7.0420   21.4610 O   0  0  0  0  0  0  0  0  0  0  0  0
  -21.6010   -6.3060   22.6190 C   0  0  0  0  0  0  0  0  0  0  0  0
  -21.2150   -6.8780   23.8510 C   0  0  0  0  0  3  0  0  0  0  0  0
  -21.1150   -6.0690   25.0010 C   0  0  0  0  0  3  0  0  0  0  0  0
  -21.3890   -4.6900   24.9200 C   0  0  0  0  0  0  0  0  0  0  0  0
  -21.7690   -4.1190   23.6930 C   0  0  0  0  0  3  0  0  0  0  0  0
  -21.8710   -4.9250   22.5450 C   0  0  0  0  0  0  0  0  0  0  0  0
  -22.2160   -4.3640   21.3600 F   0  0  0  0  0  0  0  0  0  0  0  0
  -21.2850   -3.9110   26.0220 F   0  0  0  0  0  0  0  0  0  0  0  0
  -22.8230  -13.6630   21.0350 C   0  0  0  0  0  0  0  0  0  0  0  0
  -22.0840  -12.9890   21.9100 N   0  0  0  0  0  0  0  0  0  0  0  0
  -22.3990  -14.6840   20.4950 O   0  0  0  0  0  0  0  0  0  0  0  0
  -22.4370  -12.1600   22.3670 H   0  0  0  0  0  0  0  0  0  0  0  0
  -21.1510  -13.3060   22.1290 H   0  0  0  0  0  0  0  0  0  0  0  0
  -25.4770  -15.2800   20.1940 N   0  0  0  0  0  0  0  0  0  0  0  0
  -24.7160  -15.9450   20.2820 H   0  0  0  0  0  0  0  0  0  0  0  0
  -26.3270  -15.6950   19.8320 H   0  0  0  0  0  0  0  0  0  0  0  0
  -28.3920  -26.6670   20.1330 O   0  0  0  0  0  0  0  0  0  0  0  0
  -24.6220  -31.8900   23.2250 C   0  0  0  0  0  0  0  0  0  0  0  0
  -27.2340  -27.4290   20.1270 C   0  0  0  0  0  0  0  0  0  0  0  0
  -23.4040  -30.4900   21.5920 C   0  0  0  0  0  3  0  0  0  0  0  0
  -24.8440  -28.9560   20.1510 C   0  0  0  0  0  0  0  0  0  0  0  0
  -25.9300  -30.8490   21.3730 C   0  0  0  0  0  2  0  0  0  0  0  0
  -26.0090  -29.4750   20.7320 C   0  0  0  0  0  0  0  0  0  0  0  0
  -27.2090  -28.7180   20.7150 C   0  0  0  0  0  3  0  0  0  0  0  0
  -26.0530  -26.9410   19.5240 C   0  0  0  0  0  3  0  0  0  0  0  0
  -24.8610  -27.6910   19.5420 C   0  0  0  0  0  3  0  0  0  0  0  0
  -23.6020  -29.8160   20.2080 C   0  0  0  0  0  2  0  0  0  0  0  0
  -24.6710  -31.0930   22.1200 N   0  0  0  0  0  0  0  0  0  0  0  0
  -23.5450  -32.1580   23.7760 O   0  0  0  0  0  0  0  0  0  0  0  0
  -22.7620  -29.4660   22.5570 C   0  0  0  0  0  0  0  0  0  0  0  0
  -21.4360  -29.2830   22.4410 N   0  0  0  0  0  0  0  0  0  0  0  0
  -23.4540  -28.8400   23.3630 O   0  0  0  0  0  0  0  0  0  0  0  0
  -20.9390  -29.8390   21.7610 H   0  0  0  0  0  0  0  0  0  0  0  0
  -18.0690  -28.0720   22.9520 C   0  0  0  0  0  0  0  0  0  0  0  0
  -20.6280  -28.3410   23.2150 C   0  0  0  0  0  3  0  0  0  0  0  0
  -20.7340  -26.9110   22.6370 C   0  0  0  0  0  2  0  0  0  0  0  0
  -19.6280  -26.5830   21.6280 C   0  0  0  0  0  2  0  0  0  0  0  0
  -18.2490  -26.7230   22.2760 C   0  0  0  0  0  2  0  0  0  0  0  0
  -19.1870  -28.8390   23.3780 C   0  0  0  0  0  0  0  0  0  0  0  0
  -18.9640  -30.1020   23.9680 C   0  0  0  0  0  3  0  0  0  0  0  0
  -17.6580  -30.5970   24.1400 C   0  0  0  0  0  3  0  0  0  0  0  0
  -16.5550  -29.8270   23.7320 C   0  0  0  0  0  3  0  0  0  0  0  0
  -16.7620  -28.5670   23.1430 C   0  0  0  0  0  3  0  0  0  0  0  0
  -25.9110  -32.5230   23.8370 C   0  0  0  0  0  3  0  0  0  0  0  0
  -26.4480  -31.7430   25.1010 C   0  0  1  0  0  0  0  0  0  0  0  0
  -25.3690  -31.4930   26.1800 C   0  0  0  0  0  1  0  0  0  0  0  0
  -27.0290  -30.3700   24.6880 C   0  0  0  0  0  1  0  0  0  0  0  0
  -27.6050  -32.5360   25.7520 C   0  0  0  0  0  1  0  0  0  0  0  0
  -25.6030  -33.9180   24.1800 N   0  0  0  0  0  0  0  0  0  0  0  0
  -25.9230  -34.9770   23.4240 C   0  0  0  0  0  0  0  0  0  0  0  0
  -26.5830  -34.8810   22.3850 O   0  0  0  0  0  0  0  0  0  0  0  0
  -25.0200  -34.0680   24.9910 H   0  0  0  0  0  0  0  0  0  0  0  0
  -24.1810  -36.7610   23.0990 C   0  0  0  0  0  1  0  0  0  0  0  0
  -25.4350  -36.3600   23.8940 C   0  0  0  0  0  3  0  0  0  0  0  0
  -27.5760  -37.2460   24.7020 C   0  0  0  0  0  1  0  0  0  0  0  0
  -26.4610  -37.4170   23.7750 N   0  0  0  0  0  0  0  0  0  0  0  0
  -26.0530  -38.3340   23.9350 H   0  0  0  0  0  0  0  0  0  0  0  0
  1  8  2  0
  1  2  1  0
  3  2  1  0
  4  5  1  0
  4  6  1  0
  5  7  1  0
  6 54  1  0
  6  1  1  0
  7  9  1  0
  7  3  1  0
  9 10  1  0
  9 12  1  0
 11  9  1  0
 13 12  1  0
 13 15  1  0
 15 14  1  0
 16 24  1  0
 17 22  1  0
 18 19  1  0
 18 17  1  0
 20 19  1  0
 20 29  1  0
 20 21  1  0
 22 16  1  0
 22 21  1  0
 23 16  2  0
 24 15  1  0
 24 25  1  0
 26 27  2  0
 27 46  1  0
 28 27  1  0
 28 31  1  0
 29 26  1  0
 29 30  1  0
 30 28  2  0
 31 32  1  0
 32 33  2  0
 34 37  1  0
 34 33  1  0
 35 34  2  0
 36 35  1  0
 36 31  2  0
 37 38  1  0
 38 39  1  0
 39 40  2  0
 41 40  1  0
 41 45  1  0
 42 41  2  0
 43 38  2  0
 43 42  1  0
 44 43  1  0
 46 47  1  0
 47 50  1  0
 47 49  1  0
 48 46  2  0
 51 52  1  0
 51 26  1  0
 53 51  1  0
 55 66  2  0
 56 54  1  0
 56 61  1  0
 57 65  1  0
 57 67  1  0
 58 64  1  0
 58 60  1  0
 59 65  1  0
 60 59  1  0
 61 60  2  0
 62 63  1  0
 62 56  2  0
 63 58  2  0
 64 57  1  0
 65 55  1  0
 67 69  2  0
 68 67  1  0
 70 68  1  0
 71 80  2  0
 71 76  1  0
 72 68  1  0
 72 76  1  0
 73 72  1  0
 74 75  1  0
 74 73  1  0
 75 71  1  0
 76 77  2  0
 77 78  1  0
 79 78  2  0
 80 79  1  0
 81 55  1  0
 81 86  1  0
 81 82  1  0
 82 85  1  1
 82 83  1  0
 84 82  1  0
 86 89  1  0
 87 91  1  0
 87 86  1  0
 88 87  2  0
 91 90  1  0
 93 91  1  0
 93 94  1  0
 93 92  1  0
M  ISO  4   6 101  16 100  24 100  54 101
M  END
>  <TORSDO>  (79) 
F 20

>  <SCORE>  (79) 
-13.616

>  <name>  (79) 
79

>  <ligand_id>  (79) 
79

>  <original_smiles>  (79) 
[H]c1c([H])c([H])c2c(c1[H])C([H])([H])C([H])([H])C([H])([H])C2([H])N([H])C(=O)C1([H])N(C(=O)C([H])(N([H])C(=O)C([H])(N([H])C([H])([H])[H])C([H])([H])[H])C(C([H])([H])[H])(C([H])([H])[H])C([H])([H])[H])C([H])([H])c2c([H])c(OC3([H])C(=O)C([H])([H])C([H])([H])C([H])([N+]([H])([H])C([H])([H])C([H])([H])C([H])(N([H])C(=O)N4C([H])([H])C([H])([H])C([H])([H])C([H])(n5nc(-c6c([H])c([H])c(Oc7c([H])c([H])c(F)c([H])c7F)c([H])c6[H])c(C(=O)N([H])[H])c5N([H])[H])C4([H])[H])C([H])([H])[H])C([H])([H])C3([H])[H])c([H])c([H])c2C1([H])[H]

>  <smiles>  (79) 
[H]c1c([H])c([H])c2c(c1[H])C([H])([H])C([H])([H])C([H])([H])C2([H])N([H])C(=O)C1([H])N(C(=O)C([H])(N([H])C(=O)C([H])(N([H])C([H])([H])[H])C([H])([H])[H])C(C([H])([H])[H])(C([H])([H])[H])C([H])([H])[H])C([H])([H])c2c([H])c(OC3([H])C(=O)C([H])([H])C([H])([H])C([H])([N+]([H])([H])C([H])([H])C([H])([H])C([H])(N([H])C(=O)N4C([H])([H])C([H])([H])C([H])([H])C([H])(n5nc(-c6c([H])c([H])c(Oc7c([H])c([H])c(F)c([H])c7F)c([H])c6[H])c(C(=O)N([H])[H])c5N([H])[H])C4([H])[H])C([H])([H])[H])C([H])([H])C3([H])[H])c([H])c([H])c2C1([H])[H]

$$$$
80:0:0
     RDKit          3D

 85 93  0  0  1  0  0  0  0  0999 V2000
  -29.2860  -20.6940   20.2710 C   0  0  0  0  0  0  0  0  0  0  0  0
  -28.9670  -22.2230   20.4010 C   0  0  0  0  0  3  0  0  0  0  0  0
  -30.1320  -19.9640   21.3600 C   0  0  0  0  0  3  0  0  0  0  0  0
  -29.1640  -19.1330   19.4440 C   0  0  0  0  0  2  0  0  0  0  0  0
  -30.6300  -18.4400   21.0310 C   0  0  0  0  0  2  0  0  0  0  0  0
  -29.6400  -17.5140   20.2090 C   0  0  1  0  0  0  0  0  0  0  0  0
  -28.4560  -17.1750   21.1240 C   0  0  0  0  0  1  0  0  0  0  0  0
  -30.3370  -15.7940   19.7630 C   0  0  0  0  0  0  0  0  0  0  0  0
  -30.4270  -13.2340   18.9280 C   0  0  0  0  0  2  0  0  0  0  0  0
  -29.4550  -12.8430   17.7740 C   0  0  0  0  0  2  0  0  0  0  0  0
  -28.0710  -12.4610   18.3190 C   0  0  0  0  0  2  0  0  0  0  0  0
  -27.6310  -13.4330   19.4350 C   0  0  0  0  0  3  0  0  0  0  0  0
  -28.7370  -13.7330   20.4740 C   0  0  0  0  0  2  0  0  0  0  0  0
  -29.8620  -14.3970   19.7660 N   0  0  0  0  0  0  0  0  0  0  0  0
  -31.5220  -15.7300   19.3790 O   0  0  0  0  0  0  0  0  0  0  0  0
  -25.3340  -13.9110   20.4080 C   0  0  0  0  0  0  0  0  0  0  0  0
  -24.3160  -13.1100   20.8370 C   0  0  0  0  0  0  0  0  0  0  0  0
  -24.7910  -11.7680   20.7180 C   0  0  0  0  0  0  0  0  0  0  0  0
  -26.3620  -13.0610   20.0470 N   0  0  0  0  0  0  0  0  0  0  0  0
  -26.0540  -11.7610   20.2990 N   0  0  0  0  0  0  0  0  0  0  0  0
  -24.0860  -10.4930   20.9210 C   0  0  0  0  0  0  0  0  0  0  0  0
  -24.5270   -9.5460   21.8710 C   0  0  0  0  0  3  0  0  0  0  0  0
  -23.8160   -8.3410   22.0630 C   0  0  0  0  0  3  0  0  0  0  0  0
  -22.6510   -8.0750   21.3070 C   0  0  0  0  0  0  0  0  0  0  0  0
  -22.2290   -9.0110   20.3460 C   0  0  0  0  0  3  0  0  0  0  0  0
  -22.9410  -10.2070   20.1520 C   0  0  0  0  0  3  0  0  0  0  0  0
  -21.9120   -6.9210   21.4070 O   0  0  0  0  0  0  0  0  0  0  0  0
  -21.7670   -6.2600   22.6010 C   0  0  0  0  0  0  0  0  0  0  0  0
  -21.1750   -6.8760   23.7250 C   0  0  0  0  0  3  0  0  0  0  0  0
  -20.9820   -6.1390   24.9110 C   0  0  0  0  0  3  0  0  0  0  0  0
  -21.3700   -4.7880   24.9720 C   0  0  0  0  0  0  0  0  0  0  0  0
  -21.9550   -4.1720   23.8510 C   0  0  0  0  0  3  0  0  0  0  0  0
  -22.1490   -4.9060   22.6680 C   0  0  0  0  0  0  0  0  0  0  0  0
  -22.6930   -4.3000   21.5850 F   0  0  0  0  0  0  0  0  0  0  0  0
  -21.1790   -4.0780   26.1080 F   0  0  0  0  0  0  0  0  0  0  0  0
  -22.9430  -13.5660   21.2340 C   0  0  0  0  0  0  0  0  0  0  0  0
  -22.2950  -12.8430   22.1390 N   0  0  0  0  0  0  0  0  0  0  0  0
  -22.4580  -14.6010   20.7770 O   0  0  0  0  0  0  0  0  0  0  0  0
  -22.7030  -12.0060   22.5290 H   0  0  0  0  0  0  0  0  0  0  0  0
  -21.3770  -13.1300   22.4480 H   0  0  0  0  0  0  0  0  0  0  0  0
  -25.4590  -15.2880   20.2590 N   0  0  0  0  0  0  0  0  0  0  0  0
  -24.6920  -15.9210   20.4530 H   0  0  0  0  0  0  0  0  0  0  0  0
  -26.2610  -15.7490   19.8500 H   0  0  0  0  0  0  0  0  0  0  0  0
  -28.1610  -23.8330   19.8920 C   0  0  0  0  0  3  0  0  0  0  0  0
  -28.2530  -25.5480   20.3480 O   0  0  0  0  0  0  0  0  0  0  0  0
  -24.7320  -31.8250   23.3250 C   0  0  0  0  0  0  0  0  0  0  0  0
  -27.2930  -26.7810   20.2700 C   0  0  0  0  0  0  0  0  0  0  0  0
  -23.5640  -30.4580   21.6490 C   0  0  0  0  0  3  0  0  0  0  0  0
  -25.0270  -28.8310   20.2220 C   0  0  0  0  0  0  0  0  0  0  0  0
  -26.1440  -30.5930   21.5630 C   0  0  0  0  0  2  0  0  0  0  0  0
  -26.2150  -29.1700   20.8800 C   0  0  0  0  0  0  0  0  0  0  0  0
  -27.3290  -28.1730   20.8740 C   0  0  0  0  0  3  0  0  0  0  0  0
  -26.0730  -26.6620   19.5530 C   0  0  0  0  0  3  0  0  0  0  0  0
  -24.9970  -27.6040   19.5350 C   0  0  0  0  0  3  0  0  0  0  0  0
  -23.8200  -29.7840   20.2690 C   0  0  0  0  0  2  0  0  0  0  0  0
  -24.8370  -30.9910   22.2320 N   0  0  0  0  0  0  0  0  0  0  0  0
  -23.6340  -32.1180   23.8280 O   0  0  0  0  0  0  0  0  0  0  0  0
  -22.8320  -29.4670   22.5950 C   0  0  0  0  0  0  0  0  0  0  0  0
  -21.5020  -29.3120   22.4470 N   0  0  0  0  0  0  0  0  0  0  0  0
  -23.4750  -28.8340   23.4360 O   0  0  0  0  0  0  0  0  0  0  0  0
  -21.0330  -29.8730   21.7490 H   0  0  0  0  0  0  0  0  0  0  0  0
  -18.1080  -28.0930   22.8990 C   0  0  0  0  0  0  0  0  0  0  0  0
  -20.6660  -28.3620   23.1930 C   0  0  0  0  0  3  0  0  0  0  0  0
  -20.7730  -26.9400   22.5960 C   0  0  0  0  0  2  0  0  0  0  0  0
  -19.6840  -26.6340   21.5630 C   0  0  0  0  0  2  0  0  0  0  0  0
  -18.2950  -26.7610   22.1940 C   0  0  0  0  0  2  0  0  0  0  0  0
  -19.2200  -28.8530   23.3530 C   0  0  0  0  0  0  0  0  0  0  0  0
  -18.9870  -30.0970   23.9780 C   0  0  0  0  0  3  0  0  0  0  0  0
  -17.6770  -30.5840   24.1500 C   0  0  0  0  0  3  0  0  0  0  0  0
  -16.5810  -29.8230   23.7080 C   0  0  0  0  0  3  0  0  0  0  0  0
  -16.7970  -28.5790   23.0900 C   0  0  0  0  0  3  0  0  0  0  0  0
  -25.9880  -32.4630   23.9940 C   0  0  0  0  0  3  0  0  0  0  0  0
  -25.6800  -33.8730   24.3040 N   0  0  0  0  0  0  0  0  0  0  0  0
  -26.0110  -34.9230   23.5400 C   0  0  0  0  0  0  0  0  0  0  0  0
  -26.6660  -34.8070   22.5010 O   0  0  0  0  0  0  0  0  0  0  0  0
  -25.0950  -34.0370   25.1100 H   0  0  0  0  0  0  0  0  0  0  0  0
  -24.2740  -36.7250   23.2360 C   0  0  0  0  0  1  0  0  0  0  0  0
  -25.5490  -36.3240   23.9980 C   0  0  0  0  0  3  0  0  0  0  0  0
  -27.7110  -37.2330   24.7320 C   0  0  0  0  0  1  0  0  0  0  0  0
  -26.5780  -37.3740   23.8220 N   0  0  0  0  0  0  0  0  0  0  0  0
  -26.1760  -38.2980   23.9560 H   0  0  0  0  0  0  0  0  0  0  0  0
  -26.4340  -31.7140   25.3120 C   0  0  1  0  0  0  0  0  0  0  0  0
  -25.2930  -31.5220   26.3380 C   0  0  0  0  0  1  0  0  0  0  0  0
  -27.0080  -30.3160   24.9900 C   0  0  0  0  0  1  0  0  0  0  0  0
  -27.5710  -32.5030   26.0040 C   0  0  0  0  0  1  0  0  0  0  0  0
  1  2  1  0
  1  3  2  0
  4  6  1  0
  4  1  1  0
  5  3  1  0
  6  5  1  0
  6  7  1  1
  8 14  1  0
  8  6  1  0
  9 14  1  0
 10 11  1  0
 10  9  1  0
 12 11  1  0
 12 19  1  0
 12 13  1  0
 14 13  1  0
 15  8  2  0
 16 17  2  0
 17 36  1  0
 18 17  1  0
 18 21  1  0
 19 20  1  0
 19 16  1  0
 20 18  2  0
 21 22  1  0
 22 23  2  0
 24 27  1  0
 24 23  1  0
 25 24  2  0
 26 25  1  0
 26 21  2  0
 27 28  1  0
 28 33  2  0
 28 29  1  0
 29 30  2  0
 30 31  1  0
 31 35  1  0
 32 31  2  0
 33 32  1  0
 34 33  1  0
 36 37  1  0
 37 40  1  0
 37 39  1  0
 38 36  2  0
 41 16  1  0
 41 42  1  0
 43 41  1  0
 44 45  1  0
 44  2  2  0
 46 57  2  0
 47 45  1  0
 47 52  1  0
 48 56  1  0
 48 58  1  0
 49 55  1  0
 49 51  1  0
 50 56  1  0
 51 50  1  0
 52 51  2  0
 53 47  2  0
 54 53  1  0
 54 49  2  0
 55 48  1  0
 56 46  1  0
 58 60  2  0
 59 58  1  0
 61 59  1  0
 62 71  2  0
 62 67  1  0
 63 59  1  0
 63 67  1  0
 64 63  1  0
 65 66  1  0
 65 64  1  0
 66 62  1  0
 67 68  2  0
 68 69  1  0
 70 69  2  0
 71 70  1  0
 72 46  1  0
 72 73  1  0
 72 82  1  0
 73 76  1  0
 74 78  1  0
 74 73  1  0
 75 74  2  0
 78 77  1  0
 80 81  1  0
 80 78  1  0
 80 79  1  0
 82 85  1  1
 82 83  1  0
 84 82  1  0
M  ISO  4   6 100   8 100  44 101  45 101
M  END
>  <TORSDO>  (80) 
F 17

>  <SCORE>  (80) 
-15.647

>  <name>  (80) 
80

>  <ligand_id>  (80) 
80

>  <original_smiles>  (80) 
[H]C(=C1C([H])([H])C([H])([H])C(C(=O)N2C([H])([H])C([H])([H])C([H])([H])C([H])(n3nc(-c4c([H])c([H])c(Oc5c([H])c([H])c(F)c([H])c5F)c([H])c4[H])c(C(=O)N([H])[H])c3N([H])[H])C2([H])[H])(C([H])([H])[H])C1([H])[H])C([H])([H])Oc1c([H])c([H])c2c(c1[H])C([H])([H])N(C(=O)C([H])(N([H])C(=O)C([H])(N([H])C([H])([H])[H])C([H])([H])[H])C(C([H])([H])[H])(C([H])([H])[H])C([H])([H])[H])C([H])(C(=O)N([H])C1([H])c3c([H])c([H])c([H])c([H])c3C([H])([H])C([H])([H])C1([H])[H])C2([H])[H]

>  <smiles>  (80) 
[H]C(=C1C([H])([H])C([H])([H])C(C(=O)N2C([H])([H])C([H])([H])C([H])([H])C([H])(n3nc(-c4c([H])c([H])c(Oc5c([H])c([H])c(F)c([H])c5F)c([H])c4[H])c(C(=O)N([H])[H])c3N([H])[H])C2([H])[H])(C([H])([H])[H])C1([H])[H])C([H])([H])Oc1c([H])c([H])c2c(c1[H])C([H])([H])N(C(=O)C([H])(N([H])C(=O)C([H])(N([H])C([H])([H])[H])C([H])([H])[H])C(C([H])([H])[H])(C([H])([H])[H])C([H])([H])[H])C([H])(C(=O)N([H])C1([H])c3c([H])c([H])c([H])c([H])c3C([H])([H])C([H])([H])C1([H])[H])C2([H])[H]

$$$$
81:0:0
     RDKit          3D

 95103  0  0  1  0  0  0  0  0999 V2000
  -30.3340  -21.7980   19.5590 C   0  0  0  0  0  2  0  0  0  0  0  0
  -30.1890  -19.2850   19.9790 C   0  0  0  0  0  3  0  0  0  0  0  0
  -28.1950  -18.0150   19.4030 C   0  0  0  0  0  3  0  0  0  0  0  0
  -28.2260  -20.4390   19.1120 C   0  0  0  0  0  3  0  0  0  0  0  0
  -29.5230  -18.0420   19.8870 C   0  0  0  0  0  0  0  0  0  0  0  0
  -29.5620  -20.4820   19.5710 C   0  0  0  0  0  0  0  0  0  0  0  0
  -27.5380  -19.2080   19.0280 C   0  0  0  0  0  0  0  0  0  0  0  0
  -26.1050  -19.1460   18.5080 C   0  0  0  0  0  3  0  0  0  0  0  0
  -25.6870  -20.3230   18.0410 F   0  0  0  0  0  0  0  0  0  0  0  0
  -25.2850  -18.7590   19.4870 F   0  0  0  0  0  0  0  0  0  0  0  0
  -30.3040  -16.8230   20.1880 C   0  0  0  0  0  3  0  0  0  0  0  0
  -29.8290  -15.5640   20.3120 C   0  0  0  0  0  3  0  0  0  0  0  0
  -30.7510  -14.4300   20.4430 C   0  0  0  0  0  0  0  0  0  0  0  0
  -30.6930  -12.0030   20.0670 C   0  0  0  0  0  2  0  0  0  0  0  0
  -29.8720  -11.7490   18.7820 C   0  0  0  0  0  2  0  0  0  0  0  0
  -28.3640  -11.6510   19.1020 C   0  0  0  0  0  2  0  0  0  0  0  0
  -27.8600  -12.8140   20.0010 C   0  0  0  0  0  3  0  0  0  0  0  0
  -28.8060  -13.0100   21.2100 C   0  0  0  0  0  2  0  0  0  0  0  0
  -30.1650  -13.2250   20.6910 N   0  0  0  0  0  0  0  0  0  0  0  0
  -31.9430  -14.5190   20.1310 O   0  0  0  0  0  0  0  0  0  0  0  0
  -25.4650  -13.5500   20.5870 C   0  0  0  0  0  0  0  0  0  0  0  0
  -24.3470  -12.8350   20.9260 C   0  0  0  0  0  0  0  0  0  0  0  0
  -24.7480  -11.4640   20.9480 C   0  0  0  0  0  0  0  0  0  0  0  0
  -26.4760  -12.6160   20.4220 N   0  0  0  0  0  0  0  0  0  0  0  0
  -26.0460  -11.3580   20.6970 N   0  0  0  0  0  0  0  0  0  0  0  0
  -23.9590  -10.2400   21.1320 C   0  0  0  0  0  0  0  0  0  0  0  0
  -24.3480   -9.2440   22.0530 C   0  0  0  0  0  3  0  0  0  0  0  0
  -23.5620   -8.0840   22.2270 C   0  0  0  0  0  3  0  0  0  0  0  0
  -22.3730   -7.9140   21.4790 C   0  0  0  0  0  0  0  0  0  0  0  0
  -22.0020   -8.8970   20.5450 C   0  0  0  0  0  3  0  0  0  0  0  0
  -22.7890  -10.0490   20.3690 C   0  0  0  0  0  3  0  0  0  0  0  0
  -21.5650   -6.8060   21.5590 O   0  0  0  0  0  0  0  0  0  0  0  0
  -21.5160   -6.0350   22.6920 C   0  0  0  0  0  0  0  0  0  0  0  0
  -21.1780   -6.5780   23.9510 C   0  0  0  0  0  3  0  0  0  0  0  0
  -21.0760   -5.7370   25.0770 C   0  0  0  0  0  3  0  0  0  0  0  0
  -21.2940   -4.3520   24.9460 C   0  0  0  0  0  0  0  0  0  0  0  0
  -21.6220   -3.8090   23.6910 C   0  0  0  0  0  3  0  0  0  0  0  0
  -21.7300   -4.6480   22.5690 C   0  0  0  0  0  0  0  0  0  0  0  0
  -22.0250   -4.1170   21.3580 F   0  0  0  0  0  0  0  0  0  0  0  0
  -21.1880   -3.5400   26.0240 F   0  0  0  0  0  0  0  0  0  0  0  0
  -22.9630  -13.3820   21.1210 C   0  0  0  0  0  0  0  0  0  0  0  0
  -22.1720  -12.7520   21.9840 N   0  0  0  0  0  0  0  0  0  0  0  0
  -22.5900  -14.4030   20.5430 O   0  0  0  0  0  0  0  0  0  0  0  0
  -22.4830  -11.9300   22.4770 H   0  0  0  0  0  0  0  0  0  0  0  0
  -21.2380  -13.1010   22.1500 H   0  0  0  0  0  0  0  0  0  0  0  0
  -25.6960  -14.9060   20.3790 N   0  0  0  0  0  0  0  0  0  0  0  0
  -24.9350  -15.5760   20.4050 H   0  0  0  0  0  0  0  0  0  0  0  0
  -26.5590  -15.2930   20.0190 H   0  0  0  0  0  0  0  0  0  0  0  0
  -30.0280  -22.6020   20.7580 N   0  0  0  0  0  4  0  0  0  0  0  0
  -30.5660  -22.2300   21.5250 H   0  0  0  0  0  0  0  0  0  0  0  0
  -29.0550  -22.4590   20.9690 H   0  0  0  0  0  0  0  0  0  0  0  0
  -30.2860  -24.0600   20.6330 C   0  0  0  0  0  2  0  0  0  0  0  0
  -29.5960  -24.8600   21.7670 C   0  0  0  0  0  2  0  0  0  0  0  0
  -28.1550  -25.3140   21.4420 C   0  0  0  0  0  2  0  0  0  0  0  0
  -28.1960  -26.3310   20.4390 O   0  0  0  0  0  0  0  0  0  0  0  0
  -24.5020  -31.6800   23.3090 C   0  0  0  0  0  0  0  0  0  0  0  0
  -27.0620  -27.1000   20.4030 C   0  0  0  0  0  0  0  0  0  0  0  0
  -23.2900  -30.2890   21.6570 C   0  0  0  0  0  3  0  0  0  0  0  0
  -24.7240  -28.6710   20.3060 C   0  0  0  0  0  0  0  0  0  0  0  0
  -25.8260  -30.5600   21.5220 C   0  0  0  0  0  2  0  0  0  0  0  0
  -25.8790  -29.1740   20.9170 C   0  0  0  0  0  0  0  0  0  0  0  0
  -27.0530  -28.3920   20.9670 C   0  0  0  0  0  3  0  0  0  0  0  0
  -25.8960  -26.5990   19.7890 C   0  0  0  0  0  3  0  0  0  0  0  0
  -24.7250  -27.3810   19.7390 C   0  0  0  0  0  3  0  0  0  0  0  0
  -23.5090  -29.5710   20.2980 C   0  0  0  0  0  2  0  0  0  0  0  0
  -24.5570  -30.8560   22.2230 N   0  0  0  0  0  0  0  0  0  0  0  0
  -23.4180  -32.0010   23.8160 O   0  0  0  0  0  0  0  0  0  0  0  0
  -22.5730  -29.3160   22.6170 C   0  0  0  0  0  0  0  0  0  0  0  0
  -21.2450  -29.1880   22.4580 N   0  0  0  0  0  0  0  0  0  0  0  0
  -23.2090  -28.6770   23.4600 O   0  0  0  0  0  0  0  0  0  0  0  0
  -20.7960  -29.7490   21.7460 H   0  0  0  0  0  0  0  0  0  0  0  0
  -17.8090  -28.1630   22.8970 C   0  0  0  0  0  0  0  0  0  0  0  0
  -20.3700  -28.2980   23.2220 C   0  0  0  0  0  3  0  0  0  0  0  0
  -20.4170  -26.8590   22.6600 C   0  0  0  0  0  2  0  0  0  0  0  0
  -19.3220  -26.5780   21.6270 C   0  0  0  0  0  2  0  0  0  0  0  0
  -17.9350  -26.7990   22.2380 C   0  0  0  0  0  2  0  0  0  0  0  0
  -18.9550  -28.8740   23.3450 C   0  0  0  0  0  0  0  0  0  0  0  0
  -18.7870  -30.1520   23.9180 C   0  0  0  0  0  3  0  0  0  0  0  0
  -17.5060  -30.7200   24.0490 C   0  0  0  0  0  3  0  0  0  0  0  0
  -16.3740  -30.0060   23.6210 C   0  0  0  0  0  3  0  0  0  0  0  0
  -16.5260  -28.7300   23.0520 C   0  0  0  0  0  3  0  0  0  0  0  0
  -25.7960  -32.2730   23.9520 C   0  0  0  0  0  3  0  0  0  0  0  0
  -25.5350  -33.6870   24.2510 N   0  0  0  0  0  0  0  0  0  0  0  0
  -25.9210  -34.7120   23.4780 C   0  0  0  0  0  0  0  0  0  0  0  0
  -26.6060  -34.5640   22.4620 O   0  0  0  0  0  0  0  0  0  0  0  0
  -24.9290  -33.8780   25.0360 H   0  0  0  0  0  0  0  0  0  0  0  0
  -24.2550  -36.5500   23.0620 C   0  0  0  0  0  1  0  0  0  0  0  0
  -25.4740  -36.1260   23.8970 C   0  0  0  0  0  3  0  0  0  0  0  0
  -27.6340  -36.9500   24.7240 C   0  0  0  0  0  1  0  0  0  0  0  0
  -26.5400  -37.1450   23.7740 N   0  0  0  0  0  0  0  0  0  0  0  0
  -26.1640  -38.0770   23.9160 H   0  0  0  0  0  0  0  0  0  0  0  0
  -26.2540  -31.5040   25.2510 C   0  0  1  0  0  0  0  0  0  0  0  0
  -25.1290  -31.3240   26.2950 C   0  0  0  0  0  1  0  0  0  0  0  0
  -26.7980  -30.1020   24.8930 C   0  0  0  0  0  1  0  0  0  0  0  0
  -27.4120  -32.2690   25.9320 C   0  0  0  0  0  1  0  0  0  0  0  0
  1  6  1  0
  1 49  1  0
  3  5  2  0
  4  6  1  0
  5  2  1  0
  5 11  1  0
  6  2  2  0
  7  4  2  0
  7  3  1  0
  8  7  1  0
  8 10  1  0
  9  8  1  0
 11 12  2  0
 12 13  1  0
 13 19  1  0
 14 19  1  0
 15 16  1  0
 15 14  1  0
 17 16  1  0
 17 24  1  0
 17 18  1  0
 19 18  1  0
 20 13  2  0
 21 22  2  0
 22 23  1  0
 22 41  1  0
 23 26  1  0
 24 21  1  0
 24 25  1  0
 25 23  2  0
 26 27  1  0
 27 28  2  0
 29 32  1  0
 29 28  1  0
 30 29  2  0
 31 30  1  0
 31 26  2  0
 32 33  1  0
 33 34  1  0
 34 35  2  0
 36 35  1  0
 36 40  1  0
 37 36  2  0
 38 33  2  0
 38 37  1  0
 39 38  1  0
 41 42  1  0
 42 45  1  0
 42 44  1  0
 43 41  2  0
 46 47  1  0
 46 21  1  0
 48 46  1  0
 49 51  1  0
 49 50  1  0
 52 49  1  0
 52 53  1  0
 54 53  1  0
 55 54  1  0
 56 67  2  0
 57 55  1  0
 57 62  1  0
 58 66  1  0
 58 68  1  0
 59 61  1  0
 60 66  1  0
 61 62  2  0
 61 60  1  0
 63 57  2  0
 64 63  1  0
 64 59  2  0
 65 59  1  0
 65 58  1  0
 66 56  1  0
 68 70  2  0
 69 68  1  0
 71 69  1  0
 72 81  2  0
 72 77  1  0
 73 69  1  0
 73 77  1  0
 74 73  1  0
 75 76  1  0
 75 74  1  0
 76 72  1  0
 77 78  2  0
 78 79  1  0
 80 79  2  0
 81 80  1  0
 82 56  1  0
 82 83  1  0
 82 92  1  0
 83 86  1  0
 84 88  1  0
 84 83  1  0
 85 84  2  0
 88 87  1  0
 90 88  1  0
 90 91  1  0
 90 89  1  0
 92 95  1  1
 92 93  1  0
 94 92  1  0
M  ISO  4  12 100  13 100  54 101  55 101
M  END
>  <TORSDO>  (81) 
F 23

>  <SCORE>  (81) 
-11.832

>  <name>  (81) 
81

>  <ligand_id>  (81) 
81

>  <original_smiles>  (81) 
[H]C(C(=O)N1C([H])([H])C([H])([H])C([H])([H])C([H])(n2nc(-c3c([H])c([H])c(Oc4c([H])c([H])c(F)c([H])c4F)c([H])c3[H])c(C(=O)N([H])[H])c2N([H])[H])C1([H])[H])=C([H])c1c([H])c(C([H])(F)F)c([H])c(C([H])([H])[N+]([H])([H])C([H])([H])C([H])([H])C([H])([H])Oc2c([H])c([H])c3c(c2[H])C([H])([H])N(C(=O)C([H])(N([H])C(=O)C([H])(N([H])C([H])([H])[H])C([H])([H])[H])C(C([H])([H])[H])(C([H])([H])[H])C([H])([H])[H])C([H])(C(=O)N([H])C2([H])c4c([H])c([H])c([H])c([H])c4C([H])([H])C([H])([H])C2([H])[H])C3([H])[H])c1[H]

>  <smiles>  (81) 
[H]C(C(=O)N1C([H])([H])C([H])([H])C([H])([H])C([H])(n2nc(-c3c([H])c([H])c(Oc4c([H])c([H])c(F)c([H])c4F)c([H])c3[H])c(C(=O)N([H])[H])c2N([H])[H])C1([H])[H])=C([H])c1c([H])c(C([H])(F)F)c([H])c(C([H])([H])[N+]([H])([H])C([H])([H])C([H])([H])C([H])([H])Oc2c([H])c([H])c3c(c2[H])C([H])([H])N(C(=O)C([H])(N([H])C(=O)C([H])(N([H])C([H])([H])[H])C([H])([H])[H])C(C([H])([H])[H])(C([H])([H])[H])C([H])([H])[H])C([H])(C(=O)N([H])C2([H])c4c([H])c([H])c([H])c([H])c4C([H])([H])C([H])([H])C2([H])[H])C3([H])[H])c1[H]

$$$$
82:0:0
     RDKit          3D

 90 98  0  0  1  0  0  0  0  0999 V2000
  -30.4540  -20.5280   19.0530 C   0  0  0  0  0  0  0  0  0  0  0  0
  -29.2020  -19.0160   20.4090 C   0  0  0  0  0  0  0  0  0  0  0  0
  -31.2670  -19.3410   18.4880 C   0  0  0  0  0  2  0  0  0  0  0  0
  -30.5700  -17.9720   18.5750 C   0  0  0  0  0  2  0  0  0  0  0  0
  -30.1370  -17.7020   20.0180 C   0  0  0  0  0  3  0  0  0  0  0  0
  -29.4450  -20.3600   19.9590 N   0  0  0  0  0  0  0  0  0  0  0  0
  -30.7860  -21.6370   18.6280 O   0  0  0  0  0  0  0  0  0  0  0  0
  -28.2390  -18.7890   21.1490 O   0  0  0  0  0  0  0  0  0  0  0  0
  -30.4960  -14.9740   20.0060 C   0  0  0  0  0  0  0  0  0  0  0  0
  -30.2920  -12.6650   18.9780 C   0  0  0  0  0  2  0  0  0  0  0  0
  -29.2990  -12.6870   17.7940 C   0  0  0  0  0  2  0  0  0  0  0  0
  -27.8570  -12.4770   18.2930 C   0  0  0  0  0  2  0  0  0  0  0  0
  -27.5220  -13.3520   19.5290 C   0  0  0  0  0  3  0  0  0  0  0  0
  -28.6340  -13.3020   20.5970 C   0  0  0  0  0  2  0  0  0  0  0  0
  -29.8760  -13.7280   19.9400 N   0  0  0  0  0  0  0  0  0  0  0  0
  -31.6840  -15.0240   19.6720 O   0  0  0  0  0  0  0  0  0  0  0  0
  -29.7570  -16.1730   20.2190 N   0  0  0  0  0  0  0  0  0  0  0  0
  -28.7930  -16.0270   20.4820 H   0  0  0  0  0  0  0  0  0  0  0  0
  -25.1700  -13.9020   20.3730 C   0  0  0  0  0  0  0  0  0  0  0  0
  -24.1300  -13.1160   20.7830 C   0  0  0  0  0  0  0  0  0  0  0  0
  -24.6040  -11.7700   20.7250 C   0  0  0  0  0  0  0  0  0  0  0  0
  -26.2100  -13.0360   20.0830 N   0  0  0  0  0  0  0  0  0  0  0  0
  -25.8820  -11.7480   20.3620 N   0  0  0  0  0  0  0  0  0  0  0  0
  -23.8970  -10.4990   20.9360 C   0  0  0  0  0  0  0  0  0  0  0  0
  -24.3550   -9.5420   21.8690 C   0  0  0  0  0  3  0  0  0  0  0  0
  -23.6430   -8.3390   22.0670 C   0  0  0  0  0  3  0  0  0  0  0  0
  -22.4600   -8.0850   21.3350 C   0  0  0  0  0  0  0  0  0  0  0  0
  -22.0210   -9.0300   20.3910 C   0  0  0  0  0  3  0  0  0  0  0  0
  -22.7330  -10.2240   20.1900 C   0  0  0  0  0  3  0  0  0  0  0  0
  -21.7180   -6.9330   21.4440 O   0  0  0  0  0  0  0  0  0  0  0  0
  -21.6770   -6.2100   22.6080 C   0  0  0  0  0  0  0  0  0  0  0  0
  -21.2140   -6.7730   23.8180 C   0  0  0  0  0  3  0  0  0  0  0  0
  -21.1220   -5.9760   24.9760 C   0  0  0  0  0  3  0  0  0  0  0  0
  -21.4840   -4.6160   24.9260 C   0  0  0  0  0  0  0  0  0  0  0  0
  -21.9410   -4.0530   23.7220 C   0  0  0  0  0  3  0  0  0  0  0  0
  -22.0330   -4.8470   22.5650 C   0  0  0  0  0  0  0  0  0  0  0  0
  -22.4550   -4.2940   21.4030 F   0  0  0  0  0  0  0  0  0  0  0  0
  -21.3870   -3.8470   26.0360 F   0  0  0  0  0  0  0  0  0  0  0  0
  -22.7390  -13.5800   21.1090 C   0  0  0  0  0  0  0  0  0  0  0  0
  -22.0480  -12.8750   21.9980 N   0  0  0  0  0  0  0  0  0  0  0  0
  -22.2760  -14.6060   20.6110 O   0  0  0  0  0  0  0  0  0  0  0  0
  -22.4330  -12.0450   22.4240 H   0  0  0  0  0  0  0  0  0  0  0  0
  -21.1190  -13.1730   22.2610 H   0  0  0  0  0  0  0  0  0  0  0  0
  -25.3100  -15.2760   20.1980 N   0  0  0  0  0  0  0  0  0  0  0  0
  -24.5360  -15.9140   20.3500 H   0  0  0  0  0  0  0  0  0  0  0  0
  -26.1190  -15.7310   19.7970 H   0  0  0  0  0  0  0  0  0  0  0  0
  -28.5940  -21.6640   20.3630 C   0  0  0  0  0  2  0  0  0  0  0  0
  -28.9280  -23.3110   20.0370 C   0  0  0  0  0  3  0  0  0  0  0  0
  -27.9590  -24.6390   20.4220 C   0  0  0  0  0  3  0  0  0  0  0  0
  -28.2470  -26.1630   20.2070 O   0  0  0  0  0  0  0  0  0  0  0  0
  -24.6290  -31.8510   23.2290 C   0  0  0  0  0  0  0  0  0  0  0  0
  -27.1950  -27.1510   20.1770 C   0  0  0  0  0  0  0  0  0  0  0  0
  -23.4270  -30.4700   21.5780 C   0  0  0  0  0  3  0  0  0  0  0  0
  -24.8750  -28.9030   20.1460 C   0  0  0  0  0  0  0  0  0  0  0  0
  -25.9810  -30.7330   21.4170 C   0  0  0  0  0  2  0  0  0  0  0  0
  -26.0530  -29.3420   20.7610 C   0  0  0  0  0  0  0  0  0  0  0  0
  -27.2150  -28.4820   20.7600 C   0  0  0  0  0  3  0  0  0  0  0  0
  -25.9970  -26.8230   19.5050 C   0  0  0  0  0  3  0  0  0  0  0  0
  -24.8580  -27.6570   19.5010 C   0  0  0  0  0  3  0  0  0  0  0  0
  -23.6530  -29.8060   20.1920 C   0  0  0  0  0  2  0  0  0  0  0  0
  -24.6990  -31.0380   22.1310 N   0  0  0  0  0  0  0  0  0  0  0  0
  -23.5440  -32.1310   23.7600 O   0  0  0  0  0  0  0  0  0  0  0  0
  -22.7480  -29.4540   22.5300 C   0  0  0  0  0  0  0  0  0  0  0  0
  -21.4180  -29.2940   22.4090 N   0  0  0  0  0  0  0  0  0  0  0  0
  -23.4190  -28.8150   23.3440 O   0  0  0  0  0  0  0  0  0  0  0  0
  -20.9340  -29.8620   21.7280 H   0  0  0  0  0  0  0  0  0  0  0  0
  -18.0290  -28.1230   22.9200 C   0  0  0  0  0  0  0  0  0  0  0  0
  -20.5930  -28.3540   23.1720 C   0  0  0  0  0  3  0  0  0  0  0  0
  -20.6750  -26.9290   22.5760 C   0  0  0  0  0  2  0  0  0  0  0  0
  -19.5630  -26.6330   21.5650 C   0  0  0  0  0  2  0  0  0  0  0  0
  -18.1880  -26.7830   22.2210 C   0  0  0  0  0  2  0  0  0  0  0  0
  -19.1590  -28.8670   23.3520 C   0  0  0  0  0  0  0  0  0  0  0  0
  -18.9570  -30.1240   23.9660 C   0  0  0  0  0  3  0  0  0  0  0  0
  -17.6580  -30.6340   24.1510 C   0  0  0  0  0  3  0  0  0  0  0  0
  -16.5430  -29.8860   23.7360 C   0  0  0  0  0  3  0  0  0  0  0  0
  -16.7300  -28.6320   23.1270 C   0  0  0  0  0  3  0  0  0  0  0  0
  -25.9080  -32.4810   23.8590 C   0  0  0  0  0  3  0  0  0  0  0  0
  -26.4100  -31.7080   25.1400 C   0  0  1  0  0  0  0  0  0  0  0  0
  -25.3100  -31.4760   26.2020 C   0  0  0  0  0  1  0  0  0  0  0  0
  -26.9900  -30.3270   24.7560 C   0  0  0  0  0  1  0  0  0  0  0  0
  -27.5590  -32.4970   25.8130 C   0  0  0  0  0  1  0  0  0  0  0  0
  -25.6020  -33.8790   24.1910 N   0  0  0  0  0  0  0  0  0  0  0  0
  -25.9290  -34.9360   23.4340 C   0  0  0  0  0  0  0  0  0  0  0  0
  -26.5900  -34.8340   22.3970 O   0  0  0  0  0  0  0  0  0  0  0  0
  -25.0180  -34.0330   25.0000 H   0  0  0  0  0  0  0  0  0  0  0  0
  -24.2030  -36.7390   23.1010 C   0  0  0  0  0  1  0  0  0  0  0  0
  -25.4510  -36.3250   23.9000 C   0  0  0  0  0  3  0  0  0  0  0  0
  -27.5910  -37.2080   24.7220 C   0  0  0  0  0  1  0  0  0  0  0  0
  -26.4850  -37.3770   23.7820 N   0  0  0  0  0  0  0  0  0  0  0  0
  -26.0800  -38.2980   23.9330 H   0  0  0  0  0  0  0  0  0  0  0  0
  1  6  1  0
  2  8  2  0
  3  4  1  0
  3  1  1  0
  4  5  1  0
  5 17  1  0
  5  2  1  0
  6 47  1  0
  6  2  1  0
  7  1  2  0
  9 17  1  0
 10 15  1  0
 11 12  1  0
 11 10  1  0
 13 12  1  0
 13 22  1  0
 13 14  1  0
 15  9  1  0
 15 14  1  0
 16  9  2  0
 17 18  1  0
 19 20  2  0
 20 39  1  0
 21 20  1  0
 21 24  1  0
 22 23  1  0
 22 19  1  0
 23 21  2  0
 24 25  1  0
 25 26  2  0
 27 30  1  0
 27 26  1  0
 28 27  2  0
 29 28  1  0
 29 24  2  0
 30 31  1  0
 31 32  1  0
 32 33  2  0
 34 33  1  0
 34 38  1  0
 35 34  2  0
 36 31  2  0
 36 35  1  0
 37 36  1  0
 39 40  1  0
 40 43  1  0
 40 42  1  0
 41 39  2  0
 44 45  1  0
 44 19  1  0
 46 44  1  0
 48 47  1  0
 48 49  2  0
 50 49  1  0
 51 62  2  0
 52 50  1  0
 52 57  1  0
 53 61  1  0
 53 63  1  0
 54 60  1  0
 54 56  1  0
 55 61  1  0
 56 55  1  0
 57 56  2  0
 58 52  2  0
 59 58  1  0
 59 54  2  0
 60 53  1  0
 61 51  1  0
 63 65  2  0
 64 63  1  0
 66 64  1  0
 67 76  2  0
 67 72  1  0
 68 64  1  0
 68 72  1  0
 69 68  1  0
 70 71  1  0
 70 69  1  0
 71 67  1  0
 72 73  2  0
 73 74  1  0
 75 74  2  0
 76 75  1  0
 77 51  1  0
 77 82  1  0
 77 78  1  0
 78 81  1  1
 78 79  1  0
 80 78  1  0
 82 85  1  0
 83 87  1  0
 83 82  1  0
 84 83  2  0
 87 86  1  0
 89 87  1  0
 89 90  1  0
 89 88  1  0
M  ISO  4   9 100  17 100  49 101  50 101
M  END
>  <TORSDO>  (82) 
F 19

>  <SCORE>  (82) 
-14.620

>  <name>  (82) 
82

>  <ligand_id>  (82) 
82

>  <original_smiles>  (82) 
[H]c1c([H])c([H])c2c(c1[H])C([H])([H])C([H])([H])C([H])([H])C2([H])N([H])C(=O)C1([H])N(C(=O)C([H])(N([H])C(=O)C([H])(N([H])C([H])([H])[H])C([H])([H])[H])C(C([H])([H])[H])(C([H])([H])[H])C([H])([H])[H])C([H])([H])c2c([H])c(OC([H])([H])C([H])([H])C([H])([H])N3C(=O)C([H])([H])C([H])([H])C([H])(N([H])C(=O)N4C([H])([H])C([H])([H])C([H])([H])C([H])(n5nc(-c6c([H])c([H])c(Oc7c([H])c([H])c(F)c([H])c7F)c([H])c6[H])c(C(=O)N([H])[H])c5N([H])[H])C4([H])[H])C3=O)c([H])c([H])c2C1([H])[H]

>  <smiles>  (82) 
[H]c1c([H])c([H])c2c(c1[H])C([H])([H])C([H])([H])C([H])([H])C2([H])N([H])C(=O)C1([H])N(C(=O)C([H])(N([H])C(=O)C([H])(N([H])C([H])([H])[H])C([H])([H])[H])C(C([H])([H])[H])(C([H])([H])[H])C([H])([H])[H])C([H])([H])c2c([H])c(OC([H])([H])C([H])([H])C([H])([H])N3C(=O)C([H])([H])C([H])([H])C([H])(N([H])C(=O)N4C([H])([H])C([H])([H])C([H])([H])C([H])(n5nc(-c6c([H])c([H])c(Oc7c([H])c([H])c(F)c([H])c7F)c([H])c6[H])c(C(=O)N([H])[H])c5N([H])[H])C4([H])[H])C3=O)c([H])c([H])c2C1([H])[H]

$$$$
83:0:0
     RDKit          3D

 97105  0  0  1  0  0  0  0  0999 V2000
  -29.0030  -22.4820   18.1470 N   0  0  0  0  0  4  0  0  0  0  0  0
  -29.9890  -22.5790   17.9610 H   0  0  0  0  0  0  0  0  0  0  0  0
  -28.5270  -23.0370   17.4480 H   0  0  0  0  0  0  0  0  0  0  0  0
  -28.5570  -24.6060   19.1810 C   0  0  0  0  0  0  0  0  0  0  0  0
  -29.5750  -23.6680   21.7950 C   0  0  0  0  0  2  0  0  0  0  0  0
  -29.8040  -22.8550   20.5070 C   0  0  0  0  0  2  0  0  0  0  0  0
  -29.4620  -25.1670   21.4810 C   0  0  0  0  0  2  0  0  0  0  0  0
  -28.7020  -23.1120   19.4460 C   0  0  0  0  0  3  0  0  0  0  0  0
  -28.3630  -25.4540   20.4430 C   0  0  0  0  0  3  0  0  0  0  0  0
  -28.5540  -25.1060   18.0490 O   0  0  0  0  0  0  0  0  0  0  0  0
  -28.4170  -26.8320   20.1140 O   0  0  0  0  0  0  0  0  0  0  0  0
  -24.5950  -31.8830   23.2270 C   0  0  0  0  0  0  0  0  0  0  0  0
  -27.2170  -27.4900   20.1250 C   0  0  0  0  0  0  0  0  0  0  0  0
  -23.3710  -30.4830   21.5900 C   0  0  0  0  0  3  0  0  0  0  0  0
  -24.8130  -28.9480   20.1600 C   0  0  0  0  0  0  0  0  0  0  0  0
  -25.8870  -30.8560   21.3690 C   0  0  0  0  0  2  0  0  0  0  0  0
  -25.9690  -29.4870   20.7350 C   0  0  0  0  0  0  0  0  0  0  0  0
  -27.1760  -28.7650   20.7150 C   0  0  0  0  0  3  0  0  0  0  0  0
  -26.0450  -26.9460   19.5520 C   0  0  0  0  0  3  0  0  0  0  0  0
  -24.8400  -27.6740   19.5700 C   0  0  0  0  0  3  0  0  0  0  0  0
  -23.5690  -29.8030   20.2100 C   0  0  0  0  0  2  0  0  0  0  0  0
  -24.6360  -31.0870   22.1220 N   0  0  0  0  0  0  0  0  0  0  0  0
  -23.5190  -32.1560   23.7770 O   0  0  0  0  0  0  0  0  0  0  0  0
  -22.7300  -29.4600   22.5540 C   0  0  0  0  0  0  0  0  0  0  0  0
  -21.4050  -29.2810   22.4370 N   0  0  0  0  0  0  0  0  0  0  0  0
  -23.4200  -28.8320   23.3610 O   0  0  0  0  0  0  0  0  0  0  0  0
  -20.9100  -29.8450   21.7600 H   0  0  0  0  0  0  0  0  0  0  0  0
  -18.0350  -28.0880   22.9390 C   0  0  0  0  0  0  0  0  0  0  0  0
  -20.5920  -28.3450   23.2110 C   0  0  0  0  0  3  0  0  0  0  0  0
  -20.6960  -26.9120   22.6400 C   0  0  0  0  0  2  0  0  0  0  0  0
  -19.5930  -26.5850   21.6270 C   0  0  0  0  0  2  0  0  0  0  0  0
  -18.2110  -26.7350   22.2700 C   0  0  0  0  0  2  0  0  0  0  0  0
  -19.1530  -28.8510   23.3660 C   0  0  0  0  0  0  0  0  0  0  0  0
  -18.9370  -30.1180   23.9490 C   0  0  0  0  0  3  0  0  0  0  0  0
  -17.6330  -30.6220   24.1120 C   0  0  0  0  0  3  0  0  0  0  0  0
  -16.5290  -29.8570   23.7020 C   0  0  0  0  0  3  0  0  0  0  0  0
  -16.7300  -28.5920   23.1200 C   0  0  0  0  0  3  0  0  0  0  0  0
  -25.8900  -32.5090   23.8360 C   0  0  0  0  0  3  0  0  0  0  0  0
  -25.5890  -33.9050   24.1740 N   0  0  0  0  0  0  0  0  0  0  0  0
  -25.9160  -34.9570   23.4140 C   0  0  0  0  0  0  0  0  0  0  0  0
  -26.5730  -34.8560   22.3740 O   0  0  0  0  0  0  0  0  0  0  0  0
  -25.0090  -34.0580   24.9860 H   0  0  0  0  0  0  0  0  0  0  0  0
  -24.1830  -36.7500   23.0810 C   0  0  0  0  0  1  0  0  0  0  0  0
  -25.4320  -36.3440   23.8790 C   0  0  0  0  0  3  0  0  0  0  0  0
  -27.5780  -37.2230   24.6870 C   0  0  0  0  0  1  0  0  0  0  0  0
  -26.4630  -37.3980   23.7590 N   0  0  0  0  0  0  0  0  0  0  0  0
  -26.0600  -38.3160   23.9180 H   0  0  0  0  0  0  0  0  0  0  0  0
  -26.4240  -31.7270   25.0970 C   0  0  1  0  0  0  0  0  0  0  0  0
  -25.3480  -31.4840   26.1790 C   0  0  0  0  0  1  0  0  0  0  0  0
  -27.0010  -30.3530   24.6820 C   0  0  0  0  0  1  0  0  0  0  0  0
  -27.5850  -32.5170   25.7500 C   0  0  0  0  0  1  0  0  0  0  0  0
  -28.5750  -21.0740   18.0520 C   0  0  0  0  0  2  0  0  0  0  0  0
  -29.5450  -20.2280   17.2070 C   0  0  0  0  0  2  0  0  0  0  0  0
  -29.4320  -18.7240   17.5170 C   0  0  0  0  0  2  0  0  0  0  0  0
  -29.9690  -18.4010   18.8610 N   0  0  0  0  0  4  0  0  0  0  0  0
  -29.5140  -18.9680   19.5570 H   0  0  0  0  0  0  0  0  0  0  0  0
  -30.9560  -18.6080   18.8850 H   0  0  0  0  0  0  0  0  0  0  0  0
  -29.7820  -16.9990   19.2630 C   0  0  0  0  0  2  0  0  0  0  0  0
  -30.1720  -16.7650   20.7420 C   0  0  0  0  0  2  0  0  0  0  0  0
  -30.6900  -14.3720   20.5800 C   0  0  0  0  0  0  0  0  0  0  0  0
  -30.3760  -12.2600   19.3830 C   0  0  0  0  0  2  0  0  0  0  0  0
  -29.4500  -12.5120   18.1750 C   0  0  0  0  0  2  0  0  0  0  0  0
  -27.9680  -12.3920   18.5840 C   0  0  0  0  0  2  0  0  0  0  0  0
  -27.6280  -13.2160   19.8540 C   0  0  0  0  0  3  0  0  0  0  0  0
  -28.6610  -12.9400   20.9740 C   0  0  0  0  0  2  0  0  0  0  0  0
  -30.0080  -13.2120   20.4370 N   0  0  0  0  0  0  0  0  0  0  0  0
  -31.7950  -14.5930   20.0780 O   0  0  0  0  0  0  0  0  0  0  0  0
  -29.9660  -15.3680   21.1000 N   0  0  0  0  0  0  0  0  0  0  0  0
  -29.0820  -15.1150   21.5160 H   0  0  0  0  0  0  0  0  0  0  0  0
  -25.2150  -13.8530   20.4990 C   0  0  0  0  0  0  0  0  0  0  0  0
  -24.1360  -13.0900   20.8600 C   0  0  0  0  0  0  0  0  0  0  0  0
  -24.5910  -11.7360   20.8550 C   0  0  0  0  0  0  0  0  0  0  0  0
  -26.2610  -12.9630   20.3040 N   0  0  0  0  0  0  0  0  0  0  0  0
  -25.8860  -11.6860   20.5720 N   0  0  0  0  0  0  0  0  0  0  0  0
  -23.8570  -10.4800   21.0490 C   0  0  0  0  0  0  0  0  0  0  0  0
  -24.2850   -9.5130   21.9830 C   0  0  0  0  0  3  0  0  0  0  0  0
  -23.5530   -8.3180   22.1620 C   0  0  0  0  0  3  0  0  0  0  0  0
  -22.3780   -8.0860   21.4090 C   0  0  0  0  0  0  0  0  0  0  0  0
  -21.9700   -9.0430   20.4630 C   0  0  0  0  0  3  0  0  0  0  0  0
  -22.7010  -10.2290   20.2830 C   0  0  0  0  0  3  0  0  0  0  0  0
  -21.6170   -6.9450   21.4980 O   0  0  0  0  0  0  0  0  0  0  0  0
  -21.5830   -6.1930   22.6450 C   0  0  0  0  0  0  0  0  0  0  0  0
  -21.1990   -6.7450   23.8860 C   0  0  0  0  0  3  0  0  0  0  0  0
  -21.1090   -5.9190   25.0250 C   0  0  0  0  0  3  0  0  0  0  0  0
  -21.3910   -4.5440   24.9220 C   0  0  0  0  0  0  0  0  0  0  0  0
  -21.7680   -3.9930   23.6850 C   0  0  0  0  0  3  0  0  0  0  0  0
  -21.8600   -4.8160   22.5490 C   0  0  0  0  0  0  0  0  0  0  0  0
  -22.2040   -4.2760   21.3550 F   0  0  0  0  0  0  0  0  0  0  0  0
  -21.2970   -3.7500   26.0150 F   0  0  0  0  0  0  0  0  0  0  0  0
  -22.7380  -13.5780   21.1030 C   0  0  0  0  0  0  0  0  0  0  0  0
  -21.9920  -12.8960   21.9660 N   0  0  0  0  0  0  0  0  0  0  0  0
  -22.3130  -14.5990   20.5620 O   0  0  0  0  0  0  0  0  0  0  0  0
  -22.3460  -12.0690   22.4240 H   0  0  0  0  0  0  0  0  0  0  0  0
  -21.0530  -13.2070   22.1720 H   0  0  0  0  0  0  0  0  0  0  0  0
  -25.3880  -15.2190   20.3030 N   0  0  0  0  0  0  0  0  0  0  0  0
  -24.6100  -15.8670   20.3670 H   0  0  0  0  0  0  0  0  0  0  0  0
  -26.2380  -15.6510   19.9670 H   0  0  0  0  0  0  0  0  0  0  0  0
  2  1  1  0
  3  1  1  0
  4  8  1  0
  4  9  1  0
  6  5  1  0
  7  5  1  0
  8  1  1  0
  8  6  1  0
  9 11  1  0
  9  7  1  0
 10  4  2  0
 11 13  1  0
 12 23  2  0
 13 18  1  0
 14 22  1  0
 14 24  1  0
 15 21  1  0
 15 17  1  0
 16 22  1  0
 17 16  1  0
 18 17  2  0
 19 20  1  0
 19 13  2  0
 20 15  2  0
 21 14  1  0
 22 12  1  0
 24 26  2  0
 25 24  1  0
 27 25  1  0
 28 37  2  0
 28 33  1  0
 29 25  1  0
 29 33  1  0
 30 29  1  0
 31 32  1  0
 31 30  1  0
 32 28  1  0
 33 34  2  0
 34 35  1  0
 36 35  2  0
 37 36  1  0
 38 12  1  0
 38 39  1  0
 38 48  1  0
 39 42  1  0
 40 44  1  0
 40 39  1  0
 41 40  2  0
 44 43  1  0
 46 44  1  0
 46 47  1  0
 46 45  1  0
 48 51  1  1
 48 49  1  0
 50 48  1  0
 52  1  1  0
 53 54  1  0
 53 52  1  0
 54 55  1  0
 55 57  1  0
 55 58  1  0
 55 56  1  0
 58 59  1  0
 59 68  1  0
 60 68  1  0
 61 66  1  0
 62 63  1  0
 62 61  1  0
 64 63  1  0
 64 73  1  0
 64 65  1  0
 66 60  1  0
 66 65  1  0
 67 60  2  0
 68 69  1  0
 70 71  2  0
 71 90  1  0
 72 71  1  0
 72 75  1  0
 73 70  1  0
 73 74  1  0
 74 72  2  0
 75 76  1  0
 76 77  2  0
 78 81  1  0
 78 77  1  0
 79 78  2  0
 80 79  1  0
 80 75  2  0
 81 82  1  0
 82 83  1  0
 83 84  2  0
 85 84  1  0
 85 89  1  0
 86 85  2  0
 87 82  2  0
 87 86  1  0
 88 87  1  0
 90 91  1  0
 91 94  1  0
 91 93  1  0
 92 90  2  0
 95 96  1  0
 95 70  1  0
 97 95  1  0
M  ISO  4   9 101  11 101  60 100  68 100
M  END
>  <TORSDO>  (83) 
F 23

>  <SCORE>  (83) 
-12.845

>  <name>  (83) 
83

>  <ligand_id>  (83) 
83

>  <original_smiles>  (83) 
[H]c1c([H])c([H])c2c(c1[H])C([H])([H])C([H])([H])C([H])([H])C2([H])N([H])C(=O)C1([H])N(C(=O)C([H])(N([H])C(=O)C([H])(N([H])C([H])([H])[H])C([H])([H])[H])C(C([H])([H])[H])(C([H])([H])[H])C([H])([H])[H])C([H])([H])c2c([H])c(OC3([H])C(=O)C([H])([N+]([H])([H])C([H])([H])C([H])([H])C([H])([H])[N+]([H])([H])C([H])([H])C([H])([H])N([H])C(=O)N4C([H])([H])C([H])([H])C([H])([H])C([H])(n5nc(-c6c([H])c([H])c(Oc7c([H])c([H])c(F)c([H])c7F)c([H])c6[H])c(C(=O)N([H])[H])c5N([H])[H])C4([H])[H])C([H])([H])C([H])([H])C3([H])[H])c([H])c([H])c2C1([H])[H]

>  <smiles>  (83) 
[H]c1c([H])c([H])c2c(c1[H])C([H])([H])C([H])([H])C([H])([H])C2([H])N([H])C(=O)C1([H])N(C(=O)C([H])(N([H])C(=O)C([H])(N([H])C([H])([H])[H])C([H])([H])[H])C(C([H])([H])[H])(C([H])([H])[H])C([H])([H])[H])C([H])([H])c2c([H])c(OC3([H])C(=O)C([H])([N+]([H])([H])C([H])([H])C([H])([H])C([H])([H])[N+]([H])([H])C([H])([H])C([H])([H])N([H])C(=O)N4C([H])([H])C([H])([H])C([H])([H])C([H])(n5nc(-c6c([H])c([H])c(Oc7c([H])c([H])c(F)c([H])c7F)c([H])c6[H])c(C(=O)N([H])[H])c5N([H])[H])C4([H])[H])C([H])([H])C([H])([H])C3([H])[H])c([H])c([H])c2C1([H])[H]

$$$$
84:0:0
     RDKit          3D

 92100  0  0  1  0  0  0  0  0999 V2000
  -30.7640  -22.8530   19.6440 C   0  0  0  0  0  0  0  0  0  0  0  0
  -31.6470  -22.6880   18.4210 C   0  0  0  0  0  1  0  0  0  0  0  0
  -30.1140  -23.9540   19.7470 N   0  0  0  0  0  0  0  0  0  0  0  0
  -30.8420  -21.6770   20.6510 C   0  0  0  0  0  2  0  0  0  0  0  0
  -29.2020  -18.6750   18.5920 C   0  0  0  0  0  2  0  0  0  0  0  0
  -30.1680  -19.8160   18.9450 C   0  0  0  0  0  2  0  0  0  0  0  0
  -30.3050  -19.3180   21.4610 C   0  0  0  0  0  2  0  0  0  0  0  0
  -29.7180  -17.2540   18.8830 C   0  0  0  0  0  2  0  0  0  0  0  0
  -29.6170  -17.9230   21.3890 C   0  0  0  0  0  2  0  0  0  0  0  0
  -29.9860  -20.3870   20.3730 C   0  0  0  0  0  3  0  0  0  0  0  0
  -30.2110  -16.9610   20.3220 C   0  0  0  0  0  3  0  0  0  0  0  0
  -30.6780  -14.4910   20.2070 C   0  0  0  0  0  0  0  0  0  0  0  0
  -30.3320  -12.3550   19.0370 C   0  0  0  0  0  2  0  0  0  0  0  0
  -29.3490  -12.6040   17.8740 C   0  0  0  0  0  2  0  0  0  0  0  0
  -27.8920  -12.4600   18.3520 C   0  0  0  0  0  2  0  0  0  0  0  0
  -27.6050  -13.2610   19.6520 C   0  0  0  0  0  3  0  0  0  0  0  0
  -28.7010  -13.0090   20.7140 C   0  0  0  0  0  2  0  0  0  0  0  0
  -30.0050  -13.3140   20.1030 N   0  0  0  0  0  0  0  0  0  0  0  0
  -31.8060  -14.6580   19.7380 O   0  0  0  0  0  0  0  0  0  0  0  0
  -29.9440  -15.5410   20.6340 N   0  0  0  0  0  0  0  0  0  0  0  0
  -29.0290  -15.3160   20.9960 H   0  0  0  0  0  0  0  0  0  0  0  0
  -25.2310  -13.8590   20.4440 C   0  0  0  0  0  0  0  0  0  0  0  0
  -24.1760  -13.0810   20.8400 C   0  0  0  0  0  0  0  0  0  0  0  0
  -24.6360  -11.7320   20.7820 C   0  0  0  0  0  0  0  0  0  0  0  0
  -26.2690  -12.9800   20.1720 N   0  0  0  0  0  0  0  0  0  0  0  0
  -25.9160  -11.6950   20.4320 N   0  0  0  0  0  0  0  0  0  0  0  0
  -23.9180  -10.4660   20.9820 C   0  0  0  0  0  0  0  0  0  0  0  0
  -24.3700   -9.4980   21.9060 C   0  0  0  0  0  3  0  0  0  0  0  0
  -23.6510   -8.2970   22.0940 C   0  0  0  0  0  3  0  0  0  0  0  0
  -22.4660   -8.0570   21.3600 C   0  0  0  0  0  0  0  0  0  0  0  0
  -22.0330   -9.0140   20.4240 C   0  0  0  0  0  3  0  0  0  0  0  0
  -22.7510  -10.2070   20.2360 C   0  0  0  0  0  3  0  0  0  0  0  0
  -21.7170   -6.9110   21.4570 O   0  0  0  0  0  0  0  0  0  0  0  0
  -21.6820   -6.1710   22.6130 C   0  0  0  0  0  0  0  0  0  0  0  0
  -21.2560   -6.7240   23.8400 C   0  0  0  0  0  3  0  0  0  0  0  0
  -21.1710   -5.9100   24.9870 C   0  0  0  0  0  3  0  0  0  0  0  0
  -21.4990   -4.5430   24.9080 C   0  0  0  0  0  0  0  0  0  0  0  0
  -21.9150   -3.9890   23.6840 C   0  0  0  0  0  3  0  0  0  0  0  0
  -22.0040   -4.8010   22.5390 C   0  0  0  0  0  0  0  0  0  0  0  0
  -22.3870   -4.2570   21.3580 F   0  0  0  0  0  0  0  0  0  0  0  0
  -21.4090   -3.7590   26.0070 F   0  0  0  0  0  0  0  0  0  0  0  0
  -22.7880  -13.5550   21.1640 C   0  0  0  0  0  0  0  0  0  0  0  0
  -22.0880  -12.8470   22.0410 N   0  0  0  0  0  0  0  0  0  0  0  0
  -22.3360  -14.5890   20.6740 O   0  0  0  0  0  0  0  0  0  0  0  0
  -22.4690  -12.0120   22.4590 H   0  0  0  0  0  0  0  0  0  0  0  0
  -21.1560  -13.1430   22.2980 H   0  0  0  0  0  0  0  0  0  0  0  0
  -25.3930  -15.2310   20.2750 N   0  0  0  0  0  0  0  0  0  0  0  0
  -24.6320  -15.8880   20.4120 H   0  0  0  0  0  0  0  0  0  0  0  0
  -26.2350  -15.6720   19.9260 H   0  0  0  0  0  0  0  0  0  0  0  0
  -29.3160  -24.3050   20.9150 C   0  0  0  0  0  2  0  0  0  0  0  0
  -28.1200  -25.2110   20.5330 C   0  0  0  0  0  2  0  0  0  0  0  0
  -28.3970  -26.6060   20.2610 O   0  0  0  0  0  0  0  0  0  0  0  0
  -24.5950  -31.8580   23.2380 C   0  0  0  0  0  0  0  0  0  0  0  0
  -27.2580  -27.3950   20.1880 C   0  0  0  0  0  0  0  0  0  0  0  0
  -23.4020  -30.4560   21.5880 C   0  0  0  0  0  3  0  0  0  0  0  0
  -24.8680  -28.9240   20.1740 C   0  0  0  0  0  0  0  0  0  0  0  0
  -25.9350  -30.8090   21.4170 C   0  0  0  0  0  2  0  0  0  0  0  0
  -26.0260  -29.4410   20.7690 C   0  0  0  0  0  0  0  0  0  0  0  0
  -27.2260  -28.6870   20.7680 C   0  0  0  0  0  3  0  0  0  0  0  0
  -26.0810  -26.9090   19.5690 C   0  0  0  0  0  3  0  0  0  0  0  0
  -24.8930  -27.6600   19.5670 C   0  0  0  0  0  3  0  0  0  0  0  0
  -23.6230  -29.7780   20.2110 C   0  0  0  0  0  2  0  0  0  0  0  0
  -24.6620  -31.0550   22.1380 N   0  0  0  0  0  0  0  0  0  0  0  0
  -23.5090  -32.1320   23.7670 O   0  0  0  0  0  0  0  0  0  0  0  0
  -22.7420  -29.4340   22.5430 C   0  0  0  0  0  0  0  0  0  0  0  0
  -21.4180  -29.2560   22.4070 N   0  0  0  0  0  0  0  0  0  0  0  0
  -23.4180  -28.8060   23.3610 O   0  0  0  0  0  0  0  0  0  0  0  0
  -20.9340  -29.8160   21.7180 H   0  0  0  0  0  0  0  0  0  0  0  0
  -18.0330  -28.0860   22.8980 C   0  0  0  0  0  0  0  0  0  0  0  0
  -20.5940  -28.3220   23.1720 C   0  0  0  0  0  3  0  0  0  0  0  0
  -20.6840  -26.8930   22.5890 C   0  0  0  0  0  2  0  0  0  0  0  0
  -19.5810  -26.5840   21.5720 C   0  0  0  0  0  2  0  0  0  0  0  0
  -18.1980  -26.7400   22.2120 C   0  0  0  0  0  2  0  0  0  0  0  0
  -19.1590  -28.8360   23.3320 C   0  0  0  0  0  0  0  0  0  0  0  0
  -18.9510  -30.0990   23.9290 C   0  0  0  0  0  3  0  0  0  0  0  0
  -17.6520  -30.6130   24.0930 C   0  0  0  0  0  3  0  0  0  0  0  0
  -16.5410  -29.8590   23.6770 C   0  0  0  0  0  3  0  0  0  0  0  0
  -16.7320  -28.5970   23.0880 C   0  0  0  0  0  3  0  0  0  0  0  0
  -25.8760  -32.4900   23.8660 C   0  0  0  0  0  3  0  0  0  0  0  0
  -26.3830  -31.7240   25.1490 C   0  0  1  0  0  0  0  0  0  0  0  0
  -25.2820  -31.4850   26.2080 C   0  0  0  0  0  1  0  0  0  0  0  0
  -26.9750  -30.3460   24.7680 C   0  0  0  0  0  1  0  0  0  0  0  0
  -27.5260  -32.5230   25.8190 C   0  0  0  0  0  1  0  0  0  0  0  0
  -25.5660  -33.8900   24.1860 N   0  0  0  0  0  0  0  0  0  0  0  0
  -25.9080  -34.9380   23.4260 C   0  0  0  0  0  0  0  0  0  0  0  0
  -26.5900  -34.8280   22.4030 O   0  0  0  0  0  0  0  0  0  0  0  0
  -24.9630  -34.0500   24.9810 H   0  0  0  0  0  0  0  0  0  0  0  0
  -24.1900  -36.7340   23.0360 C   0  0  0  0  0  1  0  0  0  0  0  0
  -25.4170  -36.3290   23.8700 C   0  0  0  0  0  3  0  0  0  0  0  0
  -27.5390  -37.2100   24.7360 C   0  0  0  0  0  1  0  0  0  0  0  0
  -26.4550  -37.3780   23.7730 N   0  0  0  0  0  0  0  0  0  0  0  0
  -26.0470  -38.2990   23.9120 H   0  0  0  0  0  0  0  0  0  0  0  0
  1  3  2  0
  1  4  1  0
  2  1  1  0
  3 50  1  0
  5  8  1  0
  5  6  1  0
  6 10  1  0
  8 11  1  0
  9  7  1  0
 10  4  1  0
 10  7  1  0
 11 20  1  0
 11  9  1  0
 12 20  1  0
 13 18  1  0
 14 15  1  0
 14 13  1  0
 16 15  1  0
 16 25  1  0
 16 17  1  0
 18 12  1  0
 18 17  1  0
 19 12  2  0
 20 21  1  0
 22 23  2  0
 23 42  1  0
 24 23  1  0
 24 27  1  0
 25 26  1  0
 25 22  1  0
 26 24  2  0
 27 28  1  0
 28 29  2  0
 30 33  1  0
 30 29  1  0
 31 30  2  0
 32 31  1  0
 32 27  2  0
 33 34  1  0
 34 35  1  0
 35 36  2  0
 37 36  1  0
 37 41  1  0
 38 37  2  0
 39 34  2  0
 39 38  1  0
 40 39  1  0
 42 43  1  0
 43 46  1  0
 43 45  1  0
 44 42  2  0
 47 48  1  0
 47 22  1  0
 49 47  1  0
 51 50  1  0
 52 51  1  0
 53 64  2  0
 54 52  1  0
 54 59  1  0
 55 63  1  0
 55 65  1  0
 56 62  1  0
 56 58  1  0
 57 63  1  0
 58 57  1  0
 59 58  2  0
 60 54  2  0
 61 60  1  0
 61 56  2  0
 62 55  1  0
 63 53  1  0
 65 67  2  0
 66 65  1  0
 68 66  1  0
 69 78  2  0
 69 74  1  0
 70 66  1  0
 70 74  1  0
 71 70  1  0
 72 73  1  0
 72 71  1  0
 73 69  1  0
 74 75  2  0
 75 76  1  0
 77 76  2  0
 78 77  1  0
 79 53  1  0
 79 84  1  0
 79 80  1  0
 80 83  1  1
 80 81  1  0
 82 80  1  0
 84 87  1  0
 85 89  1  0
 85 84  1  0
 86 85  2  0
 89 88  1  0
 91 89  1  0
 91 92  1  0
 91 90  1  0
M  ISO  4  12 100  20 100  51 101  52 101
M  END
>  <TORSDO>  (84) 
F 20

>  <SCORE>  (84) 
-13.635

>  <name>  (84) 
84

>  <ligand_id>  (84) 
84

>  <original_smiles>  (84) 
[H]c1c([H])c([H])c2c(c1[H])C([H])([H])C([H])([H])C([H])([H])C2([H])N([H])C(=O)C1([H])N(C(=O)C([H])(N([H])C(=O)C([H])(N([H])C([H])([H])[H])C([H])([H])[H])C(C([H])([H])[H])(C([H])([H])[H])C([H])([H])[H])C([H])([H])c2c([H])c(OC([H])([H])C([H])([H])N=C(C([H])([H])[H])C([H])([H])C3([H])C([H])([H])C([H])([H])C([H])([H])C([H])(N([H])C(=O)N4C([H])([H])C([H])([H])C([H])([H])C([H])(n5nc(-c6c([H])c([H])c(Oc7c([H])c([H])c(F)c([H])c7F)c([H])c6[H])c(C(=O)N([H])[H])c5N([H])[H])C4([H])[H])C([H])([H])C3([H])[H])c([H])c([H])c2C1([H])[H]

>  <smiles>  (84) 
[H]c1c([H])c([H])c2c(c1[H])C([H])([H])C([H])([H])C([H])([H])C2([H])N([H])C(=O)C1([H])N(C(=O)C([H])(N([H])C(=O)C([H])(N([H])C([H])([H])[H])C([H])([H])[H])C(C([H])([H])[H])(C([H])([H])[H])C([H])([H])[H])C([H])([H])c2c([H])c(OC([H])([H])C([H])([H])N=C(C([H])([H])[H])C([H])([H])C3([H])C([H])([H])C([H])([H])C([H])([H])C([H])(N([H])C(=O)N4C([H])([H])C([H])([H])C([H])([H])C([H])(n5nc(-c6c([H])c([H])c(Oc7c([H])c([H])c(F)c([H])c7F)c([H])c6[H])c(C(=O)N([H])[H])c5N([H])[H])C4([H])[H])C([H])([H])C3([H])[H])c([H])c([H])c2C1([H])[H]

$$$$
85:0:0
     RDKit          3D

100109  0  0  1  0  0  0  0  0999 V2000
  -32.2790  -20.6420   22.0730 C   0  0  0  0  0  3  0  0  0  0  0  0
  -32.2190  -19.5320   21.2090 C   0  0  0  0  0  3  0  0  0  0  0  0
  -31.2590  -21.6200   22.0500 C   0  0  0  0  0  3  0  0  0  0  0  0
  -30.1180  -20.3730   20.3060 C   0  0  0  0  0  3  0  0  0  0  0  0
  -31.1150  -19.3820   20.3490 C   0  0  0  0  0  0  0  0  0  0  0  0
  -30.1900  -21.5060   21.1290 C   0  0  0  0  0  0  0  0  0  0  0  0
  -31.9450  -17.3180   18.9320 C   0  0  0  0  0  2  0  0  0  0  0  0
  -31.4130  -15.8670   18.8830 C   0  0  0  0  0  2  0  0  0  0  0  0
  -30.3350  -17.0820   20.6630 C   0  0  0  0  0  2  0  0  0  0  0  0
  -30.8280  -18.0870   19.6400 C   0  0  0  0  0  3  0  0  0  0  0  0
  -30.1840  -15.7770   19.8760 C   0  0  2  0  0  0  0  0  0  0  0  0
  -30.4430  -14.6210   20.9240 C   0  0  0  0  0  0  0  0  0  0  0  0
  -30.2460  -12.3670   20.1430 C   0  0  0  0  0  2  0  0  0  0  0  0
  -29.3960  -12.3380   18.8680 C   0  0  0  0  0  2  0  0  0  0  0  0
  -27.8890  -12.2480   19.2280 C   0  0  0  0  0  2  0  0  0  0  0  0
  -27.4000  -13.1640   20.3990 C   0  0  0  0  0  3  0  0  0  0  0  0
  -28.4200  -13.1960   21.5540 C   0  0  0  0  0  2  0  0  0  0  0  0
  -29.7480  -13.4600   20.9720 N   0  0  0  0  0  0  0  0  0  0  0  0
  -31.5590  -14.6740   21.4270 O   0  0  0  0  0  0  0  0  0  0  0  0
  -24.9520  -13.6820   20.9310 C   0  0  0  0  0  0  0  0  0  0  0  0
  -23.8860  -12.8640   21.1890 C   0  0  0  0  0  0  0  0  0  0  0  0
  -24.4040  -11.5370   21.1910 C   0  0  0  0  0  0  0  0  0  0  0  0
  -26.0450  -12.8400   20.8040 N   0  0  0  0  0  0  0  0  0  0  0  0
  -25.7170  -11.5460   21.0170 N   0  0  0  0  0  0  0  0  0  0  0  0
  -23.7210  -10.2480   21.2980 C   0  0  0  0  0  0  0  0  0  0  0  0
  -24.1260   -9.2840   22.2460 C   0  0  0  0  0  3  0  0  0  0  0  0
  -23.4390   -8.0560   22.3450 C   0  0  0  0  0  3  0  0  0  0  0  0
  -22.3410   -7.7860   21.4960 C   0  0  0  0  0  0  0  0  0  0  0  0
  -21.9640   -8.7400   20.5340 C   0  0  0  0  0  3  0  0  0  0  0  0
  -22.6500   -9.9600   20.4330 C   0  0  0  0  0  3  0  0  0  0  0  0
  -21.6280   -6.6140   21.5080 O   0  0  0  0  0  0  0  0  0  0  0  0
  -21.5290   -5.8490   22.6420 C   0  0  0  0  0  0  0  0  0  0  0  0
  -20.9680   -6.3510   23.8370 C   0  0  0  0  0  3  0  0  0  0  0  0
  -20.8260   -5.5070   24.9540 C   0  0  0  0  0  3  0  0  0  0  0  0
  -21.2340   -4.1620   24.8790 C   0  0  0  0  0  0  0  0  0  0  0  0
  -21.7900   -3.6580   23.6900 C   0  0  0  0  0  3  0  0  0  0  0  0
  -21.9350   -4.5010   22.5720 C   0  0  0  0  0  0  0  0  0  0  0  0
  -22.4540   -4.0080   21.4230 F   0  0  0  0  0  0  0  0  0  0  0  0
  -21.0860   -3.3460   25.9490 F   0  0  0  0  0  0  0  0  0  0  0  0
  -22.4560  -13.2900   21.3250 C   0  0  0  0  0  0  0  0  0  0  0  0
  -21.6760  -12.5620   22.1180 N   0  0  0  0  0  0  0  0  0  0  0  0
  -22.0340  -14.3010   20.7690 O   0  0  0  0  0  0  0  0  0  0  0  0
  -22.0260  -11.7430   22.5950 H   0  0  0  0  0  0  0  0  0  0  0  0
  -20.7100  -12.8270   22.2460 H   0  0  0  0  0  0  0  0  0  0  0  0
  -25.0620  -15.0600   20.7750 N   0  0  0  0  0  0  0  0  0  0  0  0
  -24.2420  -15.6550   20.8210 H   0  0  0  0  0  0  0  0  0  0  0  0
  -25.9190  -15.5780   20.6390 H   0  0  0  0  0  0  0  0  0  0  0  0
  -28.8030  -15.8680   19.1060 C   0  0  0  0  0  2  0  0  0  0  0  0
  -28.7720  -16.5750   17.7960 N   0  0  0  0  0  4  0  0  0  0  0  0
  -29.1000  -17.5240   17.8370 H   0  0  0  0  0  0  0  0  0  0  0  0
  -27.8250  -16.5950   17.4530 H   0  0  0  0  0  0  0  0  0  0  0  0
  -29.3050  -16.0790   17.1020 H   0  0  0  0  0  0  0  0  0  0  0  0
  -28.5170  -23.0970   22.2600 C   0  0  0  0  0  1  0  0  0  0  0  0
  -29.1140  -22.5670   20.9440 C   0  0  0  0  0  3  0  0  0  0  0  0
  -29.6560  -23.6080   20.0400 N   0  0  0  0  0  4  0  0  0  0  0  0
  -30.5490  -23.9280   20.3840 H   0  0  0  0  0  0  0  0  0  0  0  0
  -29.8560  -23.1410   19.1680 H   0  0  0  0  0  0  0  0  0  0  0  0
  -28.7870  -24.7640   19.7150 C   0  0  0  0  0  2  0  0  0  0  0  0
  -28.8140  -25.8590   20.7960 C   0  0  0  0  0  2  0  0  0  0  0  0
  -28.6070  -27.1290   20.2110 O   0  0  0  0  0  0  0  0  0  0  0  0
  -24.5770  -32.0410   23.3620 C   0  0  0  0  0  0  0  0  0  0  0  0
  -27.3630  -27.6950   20.3040 C   0  0  0  0  0  0  0  0  0  0  0  0
  -23.4120  -30.6070   21.7140 C   0  0  0  0  0  3  0  0  0  0  0  0
  -24.9130  -29.0890   20.3150 C   0  0  0  0  0  0  0  0  0  0  0  0
  -25.9220  -31.0340   21.5250 C   0  0  0  0  0  2  0  0  0  0  0  0
  -26.0460  -29.6600   20.9020 C   0  0  0  0  0  0  0  0  0  0  0  0
  -27.2710  -28.9690   20.9000 C   0  0  0  0  0  3  0  0  0  0  0  0
  -26.2090  -27.1130   19.7300 C   0  0  0  0  0  3  0  0  0  0  0  0
  -24.9850  -27.8110   19.7310 C   0  0  0  0  0  3  0  0  0  0  0  0
  -23.6460  -29.9160   20.3420 C   0  0  0  0  0  2  0  0  0  0  0  0
  -24.6560  -31.2400   22.2620 N   0  0  0  0  0  0  0  0  0  0  0  0
  -23.4850  -32.2930   23.8910 O   0  0  0  0  0  0  0  0  0  0  0  0
  -22.7690  -29.5790   22.6700 C   0  0  0  0  0  0  0  0  0  0  0  0
  -21.4490  -29.3780   22.5240 N   0  0  0  0  0  0  0  0  0  0  0  0
  -23.4530  -28.9660   23.4900 O   0  0  0  0  0  0  0  0  0  0  0  0
  -20.9640  -29.9280   21.8300 H   0  0  0  0  0  0  0  0  0  0  0  0
  -18.0810  -28.1510   22.9660 C   0  0  0  0  0  0  0  0  0  0  0  0
  -20.6300  -28.4290   23.2790 C   0  0  0  0  0  3  0  0  0  0  0  0
  -20.7560  -27.0010   22.6990 C   0  0  0  0  0  2  0  0  0  0  0  0
  -19.6710  -26.6720   21.6690 C   0  0  0  0  0  2  0  0  0  0  0  0
  -18.2790  -26.8030   22.2910 C   0  0  0  0  0  2  0  0  0  0  0  0
  -19.1850  -28.9220   23.4120 C   0  0  0  0  0  0  0  0  0  0  0  0
  -18.9440  -30.1860   23.9940 C   0  0  0  0  0  3  0  0  0  0  0  0
  -17.6320  -30.6760   24.1380 C   0  0  0  0  0  3  0  0  0  0  0  0
  -16.5410  -29.9000   23.7120 C   0  0  0  0  0  3  0  0  0  0  0  0
  -16.7660  -28.6390   23.1310 C   0  0  0  0  0  3  0  0  0  0  0  0
  -25.8430  -32.6930   23.9970 C   0  0  0  0  0  3  0  0  0  0  0  0
  -25.5170  -34.0900   24.3120 N   0  0  0  0  0  0  0  0  0  0  0  0
  -25.8590  -35.1360   23.5500 C   0  0  0  0  0  0  0  0  0  0  0  0
  -26.5530  -35.0300   22.5340 O   0  0  0  0  0  0  0  0  0  0  0  0
  -24.8950  -34.2480   25.0920 H   0  0  0  0  0  0  0  0  0  0  0  0
  -24.1290  -36.9160   23.1360 C   0  0  0  0  0  1  0  0  0  0  0  0
  -25.3510  -36.5240   23.9820 C   0  0  0  0  0  3  0  0  0  0  0  0
  -27.4500  -37.4280   24.8730 C   0  0  0  0  0  1  0  0  0  0  0  0
  -26.3760  -37.5840   23.8950 N   0  0  0  0  0  0  0  0  0  0  0  0
  -25.9600  -38.5020   24.0330 H   0  0  0  0  0  0  0  0  0  0  0  0
  -26.3510  -31.9370   25.2850 C   0  0  1  0  0  0  0  0  0  0  0  0
  -25.2460  -31.6800   26.3380 C   0  0  0  0  0  1  0  0  0  0  0  0
  -26.9590  -30.5710   24.8920 C   0  0  0  0  0  1  0  0  0  0  0  0
  -27.4890  -32.7440   25.9560 C   0  0  0  0  0  1  0  0  0  0  0  0
  2  1  2  0
  3  1  1  0
  4  5  2  0
  4  6  1  0
  5  2  1  0
  6  3  2  0
  7 10  1  0
  8  7  1  0
  8 11  1  0
 10  5  1  0
 10  9  1  0
 11 48  1  6
 11  9  1  0
 11 12  1  0
 12 18  1  0
 12 19  2  0
 13 18  1  0
 14 15  1  0
 14 13  1  0
 16 15  1  0
 16 23  1  0
 16 17  1  0
 18 17  1  0
 20 21  2  0
 21 22  1  0
 21 40  1  0
 22 25  1  0
 23 20  1  0
 23 24  1  0
 24 22  2  0
 25 26  1  0
 26 27  2  0
 28 31  1  0
 28 27  1  0
 29 28  2  0
 30 29  1  0
 30 25  2  0
 31 32  1  0
 32 33  1  0
 33 34  2  0
 35 34  1  0
 35 39  1  0
 36 35  2  0
 37 32  2  0
 37 36  1  0
 38 37  1  0
 40 41  1  0
 41 44  1  0
 41 43  1  0
 42 40  2  0
 45 46  1  0
 45 20  1  0
 47 45  1  0
 49 50  1  0
 49 48  1  0
 51 49  1  0
 52 49  1  0
 54  6  1  0
 54 53  1  0
 55 56  1  0
 55 54  1  0
 57 55  1  0
 58 55  1  0
 58 59  1  0
 60 62  1  0
 60 59  1  0
 61 72  2  0
 62 67  1  0
 63 71  1  0
 63 73  1  0
 64 70  1  0
 64 66  1  0
 65 71  1  0
 66 65  1  0
 67 66  2  0
 68 69  1  0
 68 62  2  0
 69 64  2  0
 70 63  1  0
 71 61  1  0
 73 75  2  0
 74 73  1  0
 76 74  1  0
 77 86  2  0
 77 82  1  0
 78 74  1  0
 78 82  1  0
 79 78  1  0
 80 81  1  0
 80 79  1  0
 81 77  1  0
 82 83  2  0
 83 84  1  0
 85 84  2  0
 86 85  1  0
 87 61  1  0
 87 88  1  0
 87 97  1  0
 88 91  1  0
 89 93  1  0
 89 88  1  0
 90 89  2  0
 93 92  1  0
 95 93  1  0
 95 96  1  0
 95 94  1  0
 97100  1  1
 97 98  1  0
 99 97  1  0
M  ISO  4  11 100  12 100  59 101  60 101
M  END
>  <TORSDO>  (85) 
F 23

>  <SCORE>  (85) 
-11.711

>  <name>  (85) 
85

>  <ligand_id>  (85) 
85

>  <original_smiles>  (85) 
[H]c1c([H])c([H])c2c(c1[H])C([H])([H])C([H])([H])C([H])([H])C2([H])N([H])C(=O)C1([H])N(C(=O)C([H])(N([H])C(=O)C([H])(N([H])C([H])([H])[H])C([H])([H])[H])C(C([H])([H])[H])(C([H])([H])[H])C([H])([H])[H])C([H])([H])c2c([H])c(OC([H])([H])C([H])([H])[N+]([H])([H])C([H])(c3c([H])c([H])c([H])c(C4([H])C([H])([H])C([H])([H])C(C(=O)N5C([H])([H])C([H])([H])C([H])([H])C([H])(n6nc(-c7c([H])c([H])c(Oc8c([H])c([H])c(F)c([H])c8F)c([H])c7[H])c(C(=O)N([H])[H])c6N([H])[H])C5([H])[H])(C([H])([H])[N+]([H])([H])[H])C4([H])[H])c3[H])C([H])([H])[H])c([H])c([H])c2C1([H])[H]

>  <smiles>  (85) 
[H]c1c([H])c([H])c2c(c1[H])C([H])([H])C([H])([H])C([H])([H])C2([H])N([H])C(=O)C1([H])N(C(=O)C([H])(N([H])C(=O)C([H])(N([H])C([H])([H])[H])C([H])([H])[H])C(C([H])([H])[H])(C([H])([H])[H])C([H])([H])[H])C([H])([H])c2c([H])c(OC([H])([H])C([H])([H])[N+]([H])([H])C([H])(c3c([H])c([H])c([H])c(C4([H])C([H])([H])C([H])([H])C(C(=O)N5C([H])([H])C([H])([H])C([H])([H])C([H])(n6nc(-c7c([H])c([H])c(Oc8c([H])c([H])c(F)c([H])c8F)c([H])c7[H])c(C(=O)N([H])[H])c6N([H])[H])C5([H])[H])(C([H])([H])[N+]([H])([H])[H])C4([H])[H])c3[H])C([H])([H])[H])c([H])c([H])c2C1([H])[H]

$$$$
86:0:0
     RDKit          3D

 91 99  0  0  1  0  0  0  0  0999 V2000
  -29.3090  -22.6290   18.8960 C   0  0  0  0  0  3  0  0  0  0  0  0
  -29.6400  -21.2370   19.1350 C   0  0  0  0  0  3  0  0  0  0  0  0
  -29.2220  -23.0260   21.2190 C   0  0  0  0  0  3  0  0  0  0  0  0
  -29.0700  -23.5980   19.9270 C   0  0  0  0  0  0  0  0  0  0  0  0
  -29.7440  -20.6450   20.4370 C   0  0  0  0  0  0  0  0  0  0  0  0
  -29.5190  -21.6290   21.4710 C   0  0  0  0  0  0  0  0  0  0  0  0
  -29.4660  -21.1980   22.9290 C   0  0  0  0  0  1  0  0  0  0  0  0
  -29.8830  -19.0400   20.7940 C   0  0  0  0  0  2  0  0  0  0  0  0
  -32.2850  -18.2410   20.3090 C   0  0  0  0  0  1  0  0  0  0  0  0
  -30.5050  -17.8620   18.5760 C   0  0  0  0  0  1  0  0  0  0  0  0
  -30.8070  -17.8550   20.0860 C   0  0  2  0  0  0  0  0  0  0  0  0
  -31.3030  -15.1720   20.3390 C   0  0  0  0  0  0  0  0  0  0  0  0
  -31.1060  -12.8490   19.4050 C   0  0  0  0  0  2  0  0  0  0  0  0
  -30.2060  -12.9040   18.1500 C   0  0  0  0  0  2  0  0  0  0  0  0
  -28.7300  -12.7190   18.5530 C   0  0  0  0  0  2  0  0  0  0  0  0
  -28.3240  -13.6300   19.7410 C   0  0  0  0  0  3  0  0  0  0  0  0
  -29.3600  -13.6060   20.8910 C   0  0  0  0  0  2  0  0  0  0  0  0
  -30.6640  -13.9430   20.3120 N   0  0  0  0  0  0  0  0  0  0  0  0
  -32.4920  -15.2020   20.0140 O   0  0  0  0  0  0  0  0  0  0  0  0
  -30.5590  -16.3600   20.5050 N   0  0  0  0  0  0  0  0  0  0  0  0
  -29.6070  -16.1720   20.7770 H   0  0  0  0  0  0  0  0  0  0  0  0
  -25.9400  -14.2410   20.4610 C   0  0  0  0  0  0  0  0  0  0  0  0
  -24.8530  -13.4780   20.7940 C   0  0  0  0  0  0  0  0  0  0  0  0
  -25.2840  -12.1170   20.7200 C   0  0  0  0  0  0  0  0  0  0  0  0
  -26.9670  -13.3460   20.2030 N   0  0  0  0  0  0  0  0  0  0  0  0
  -26.5770  -12.0620   20.4190 N   0  0  0  0  0  0  0  0  0  0  0  0
  -24.5220  -10.8670   20.8490 C   0  0  0  0  0  0  0  0  0  0  0  0
  -24.8820   -9.8770   21.7890 C   0  0  0  0  0  3  0  0  0  0  0  0
  -24.1170   -8.6970   21.9120 C   0  0  0  0  0  3  0  0  0  0  0  0
  -22.9800   -8.4960   21.0950 C   0  0  0  0  0  0  0  0  0  0  0  0
  -22.6400   -9.4760   20.1460 C   0  0  0  0  0  3  0  0  0  0  0  0
  -23.4050  -10.6470   20.0190 C   0  0  0  0  0  3  0  0  0  0  0  0
  -22.1980   -7.3670   21.1230 O   0  0  0  0  0  0  0  0  0  0  0  0
  -21.9720   -6.6750   22.2860 C   0  0  0  0  0  0  0  0  0  0  0  0
  -21.3700   -7.2800   23.4090 C   0  0  0  0  0  3  0  0  0  0  0  0
  -21.0970   -6.5140   24.5600 C   0  0  0  0  0  3  0  0  0  0  0  0
  -21.4210   -5.1420   24.5870 C   0  0  0  0  0  0  0  0  0  0  0  0
  -22.0180   -4.5380   23.4670 C   0  0  0  0  0  3  0  0  0  0  0  0
  -22.2910   -5.3020   22.3190 C   0  0  0  0  0  0  0  0  0  0  0  0
  -22.8490   -4.7100   21.2360 F   0  0  0  0  0  0  0  0  0  0  0  0
  -21.1530   -4.4040   25.6900 F   0  0  0  0  0  0  0  0  0  0  0  0
  -23.4680  -13.9800   21.0720 C   0  0  0  0  0  0  0  0  0  0  0  0
  -22.7240  -13.2920   21.9300 N   0  0  0  0  0  0  0  0  0  0  0  0
  -23.0540  -15.0220   20.5660 O   0  0  0  0  0  0  0  0  0  0  0  0
  -23.0690  -12.4460   22.3610 H   0  0  0  0  0  0  0  0  0  0  0  0
  -21.7960  -13.6170   22.1630 H   0  0  0  0  0  0  0  0  0  0  0  0
  -26.1360  -15.6150   20.3440 N   0  0  0  0  0  0  0  0  0  0  0  0
  -25.3770  -16.2720   20.4910 H   0  0  0  0  0  0  0  0  0  0  0  0
  -26.9770  -16.0600   20.0010 H   0  0  0  0  0  0  0  0  0  0  0  0
  -28.2790  -24.9990   19.6730 C   0  0  0  0  0  2  0  0  0  0  0  0
  -28.6190  -26.4410   20.0730 O   0  0  0  0  0  0  0  0  0  0  0  0
  -24.7620  -31.7710   23.3380 C   0  0  0  0  0  0  0  0  0  0  0  0
  -27.5620  -27.4160   20.0230 C   0  0  0  0  0  0  0  0  0  0  0  0
  -23.6470  -30.4670   21.5710 C   0  0  0  0  0  3  0  0  0  0  0  0
  -25.1810  -29.0710   20.0670 C   0  0  0  0  0  0  0  0  0  0  0  0
  -26.1940  -30.8280   21.5010 C   0  0  0  0  0  2  0  0  0  0  0  0
  -26.3280  -29.4980   20.7490 C   0  0  0  0  0  0  0  0  0  0  0  0
  -27.5180  -28.6820   20.7250 C   0  0  0  0  0  3  0  0  0  0  0  0
  -26.3960  -27.1170   19.2750 C   0  0  0  0  0  3  0  0  0  0  0  0
  -25.2250  -27.8930   19.3200 C   0  0  0  0  0  3  0  0  0  0  0  0
  -23.9240  -29.9170   20.1510 C   0  0  0  0  0  2  0  0  0  0  0  0
  -24.8840  -31.0410   22.1920 N   0  0  0  0  0  0  0  0  0  0  0  0
  -23.6530  -31.9820   23.8550 O   0  0  0  0  0  0  0  0  0  0  0  0
  -22.9850  -29.3620   22.4310 C   0  0  0  0  0  0  0  0  0  0  0  0
  -21.6670  -29.1610   22.2600 N   0  0  0  0  0  0  0  0  0  0  0  0
  -23.6590  -28.6930   23.2200 O   0  0  0  0  0  0  0  0  0  0  0  0
  -21.1790  -29.7600   21.6100 H   0  0  0  0  0  0  0  0  0  0  0  0
  -18.3070  -27.8480   22.5980 C   0  0  0  0  0  0  0  0  0  0  0  0
  -20.8530  -28.1480   22.9400 C   0  0  0  0  0  3  0  0  0  0  0  0
  -21.0000  -26.7660   22.2620 C   0  0  0  0  0  2  0  0  0  0  0  0
  -19.9270  -26.4950   21.2030 C   0  0  0  0  0  2  0  0  0  0  0  0
  -18.5300  -26.5580   21.8260 C   0  0  0  0  0  2  0  0  0  0  0  0
  -19.3980  -28.6020   23.1060 C   0  0  0  0  0  0  0  0  0  0  0  0
  -19.1340  -29.8100   23.7880 C   0  0  0  0  0  3  0  0  0  0  0  0
  -17.8140  -30.2660   23.9630 C   0  0  0  0  0  3  0  0  0  0  0  0
  -16.7370  -29.5080   23.4680 C   0  0  0  0  0  3  0  0  0  0  0  0
  -16.9860  -28.3000   22.7930 C   0  0  0  0  0  3  0  0  0  0  0  0
  -26.0040  -32.3970   24.0400 C   0  0  0  0  0  3  0  0  0  0  0  0
  -26.4500  -31.6030   25.3290 C   0  0  1  0  0  0  0  0  0  0  0  0
  -25.3000  -31.3460   26.3330 C   0  0  0  0  0  1  0  0  0  0  0  0
  -27.0580  -30.2330   24.9510 C   0  0  0  0  0  1  0  0  0  0  0  0
  -27.5590  -32.3910   26.0670 C   0  0  0  0  0  1  0  0  0  0  0  0
  -25.6700  -33.7880   24.3780 N   0  0  0  0  0  0  0  0  0  0  0  0
  -26.0300  -34.8580   23.6550 C   0  0  0  0  0  0  0  0  0  0  0  0
  -26.7450  -34.7770   22.6540 O   0  0  0  0  0  0  0  0  0  0  0  0
  -25.0420  -33.9250   25.1560 H   0  0  0  0  0  0  0  0  0  0  0  0
  -24.3140  -36.6540   23.2550 C   0  0  0  0  0  1  0  0  0  0  0  0
  -25.5150  -36.2360   24.1170 C   0  0  0  0  0  3  0  0  0  0  0  0
  -27.5980  -37.1150   25.0740 C   0  0  0  0  0  1  0  0  0  0  0  0
  -26.5470  -37.2950   24.0750 N   0  0  0  0  0  0  0  0  0  0  0  0
  -26.1300  -38.2100   24.2180 H   0  0  0  0  0  0  0  0  0  0  0  0
  1  2  2  0
  1  4  1  0
  2  5  1  0
  3  6  1  0
  4  3  2  0
  5  8  1  0
  5  6  2  0
  6  7  1  0
 11 10  1  6
 11  9  1  0
 11 20  1  0
 11  8  1  0
 12 20  1  0
 13 18  1  0
 14 15  1  0
 14 13  1  0
 16 15  1  0
 16 25  1  0
 16 17  1  0
 18 12  1  0
 18 17  1  0
 19 12  2  0
 20 21  1  0
 22 23  2  0
 23 42  1  0
 24 23  1  0
 24 27  1  0
 25 26  1  0
 25 22  1  0
 26 24  2  0
 27 28  1  0
 28 29  2  0
 30 33  1  0
 30 29  1  0
 31 30  2  0
 32 31  1  0
 32 27  2  0
 33 34  1  0
 34 39  2  0
 34 35  1  0
 35 36  2  0
 36 37  1  0
 37 41  1  0
 38 37  2  0
 39 38  1  0
 40 39  1  0
 42 43  1  0
 43 46  1  0
 43 45  1  0
 44 42  2  0
 47 22  1  0
 47 48  1  0
 49 47  1  0
 50  4  1  0
 50 51  1  0
 52 63  2  0
 53 51  1  0
 53 58  1  0
 54 62  1  0
 54 64  1  0
 55 61  1  0
 55 57  1  0
 56 62  1  0
 57 56  1  0
 58 57  2  0
 59 60  1  0
 59 53  2  0
 60 55  2  0
 61 54  1  0
 62 52  1  0
 64 66  2  0
 65 64  1  0
 67 65  1  0
 68 77  2  0
 68 73  1  0
 69 65  1  0
 69 73  1  0
 70 69  1  0
 71 72  1  0
 71 70  1  0
 72 68  1  0
 73 74  2  0
 74 75  1  0
 76 75  2  0
 77 76  1  0
 78 52  1  0
 78 83  1  0
 78 79  1  0
 79 82  1  1
 79 80  1  0
 81 79  1  0
 83 86  1  0
 84 88  1  0
 84 83  1  0
 85 84  2  0
 88 87  1  0
 90 88  1  0
 90 91  1  0
 90 89  1  0
M  ISO  4  12 100  20 100  50 101  51 101
M  END
>  <TORSDO>  (86) 
F 19

>  <SCORE>  (86) 
-12.984

>  <name>  (86) 
86

>  <ligand_id>  (86) 
86

>  <original_smiles>  (86) 
[H]c1c([H])c([H])c2c(c1[H])C([H])([H])C([H])([H])C([H])([H])C2([H])N([H])C(=O)C1([H])N(C(=O)C([H])(N([H])C(=O)C([H])(N([H])C([H])([H])[H])C([H])([H])[H])C(C([H])([H])[H])(C([H])([H])[H])C([H])([H])[H])C([H])([H])c2c([H])c(OC([H])([H])c3c([H])c([H])c(C([H])([H])C(N([H])C(=O)N4C([H])([H])C([H])([H])C([H])([H])C([H])(n5nc(-c6c([H])c([H])c(Oc7c([H])c([H])c(F)c([H])c7F)c([H])c6[H])c(C(=O)N([H])[H])c5N([H])[H])C4([H])[H])(C([H])([H])[H])C([H])([H])[H])c(C([H])([H])[H])c3[H])c([H])c([H])c2C1([H])[H]

>  <smiles>  (86) 
[H]c1c([H])c([H])c2c(c1[H])C([H])([H])C([H])([H])C([H])([H])C2([H])N([H])C(=O)C1([H])N(C(=O)C([H])(N([H])C(=O)C([H])(N([H])C([H])([H])[H])C([H])([H])[H])C(C([H])([H])[H])(C([H])([H])[H])C([H])([H])[H])C([H])([H])c2c([H])c(OC([H])([H])c3c([H])c([H])c(C([H])([H])C(N([H])C(=O)N4C([H])([H])C([H])([H])C([H])([H])C([H])(n5nc(-c6c([H])c([H])c(Oc7c([H])c([H])c(F)c([H])c7F)c([H])c6[H])c(C(=O)N([H])[H])c5N([H])[H])C4([H])[H])(C([H])([H])[H])C([H])([H])[H])c(C([H])([H])[H])c3[H])c([H])c([H])c2C1([H])[H]

$$$$
87:0:0
     RDKit          3D

 96105  0  0  1  0  0  0  0  0999 V2000
  -29.9220  -18.8290   19.9720 C   0  0  0  0  0  0  0  0  0  0  0  0
  -31.6670  -18.9150   22.4600 C   0  0  0  0  0  2  0  0  0  0  0  0
  -31.0140  -17.5960   21.9990 C   0  0  0  0  0  2  0  0  0  0  0  0
  -31.3620  -20.1600   21.5930 C   0  0  0  0  0  2  0  0  0  0  0  0
  -30.7170  -17.5090   20.4880 C   0  0  0  0  0  3  0  0  0  0  0  0
  -30.0040  -20.1840   20.8400 C   0  0  1  0  0  0  0  0  0  0  0  0
  -29.1970  -18.7850   18.9740 O   0  0  0  0  0  0  0  0  0  0  0  0
  -30.9020  -14.9510   19.9190 C   0  0  0  0  0  0  0  0  0  0  0  0
  -30.5990  -12.6690   18.9490 C   0  0  0  0  0  2  0  0  0  0  0  0
  -29.6020  -12.7240   17.7720 C   0  0  0  0  0  2  0  0  0  0  0  0
  -28.1530  -12.5840   18.2790 C   0  0  0  0  0  2  0  0  0  0  0  0
  -27.8490  -13.5110   19.4870 C   0  0  0  0  0  3  0  0  0  0  0  0
  -28.9610  -13.4380   20.5550 C   0  0  0  0  0  2  0  0  0  0  0  0
  -30.2310  -13.7510   19.8880 N   0  0  0  0  0  0  0  0  0  0  0  0
  -32.0780  -15.0140   19.5530 O   0  0  0  0  0  0  0  0  0  0  0  0
  -30.1910  -16.1030   20.1920 N   0  0  0  0  0  0  0  0  0  0  0  0
  -29.2020  -15.9710   20.3370 H   0  0  0  0  0  0  0  0  0  0  0  0
  -25.5320  -14.1620   20.3770 C   0  0  0  0  0  0  0  0  0  0  0  0
  -24.4610  -13.4140   20.7840 C   0  0  0  0  0  0  0  0  0  0  0  0
  -24.8700  -12.0490   20.6790 C   0  0  0  0  0  0  0  0  0  0  0  0
  -26.5270  -13.2550   20.0480 N   0  0  0  0  0  0  0  0  0  0  0  0
  -26.1380  -11.9770   20.2930 N   0  0  0  0  0  0  0  0  0  0  0  0
  -24.1080  -10.8070   20.8660 C   0  0  0  0  0  0  0  0  0  0  0  0
  -24.5410   -9.8010   21.7580 C   0  0  0  0  0  3  0  0  0  0  0  0
  -23.7800   -8.6260   21.9360 C   0  0  0  0  0  3  0  0  0  0  0  0
  -22.5720   -8.4480   21.2210 C   0  0  0  0  0  0  0  0  0  0  0  0
  -22.1570   -9.4420   20.3160 C   0  0  0  0  0  3  0  0  0  0  0  0
  -22.9190  -10.6090   20.1360 C   0  0  0  0  0  3  0  0  0  0  0  0
  -21.7810   -7.3280   21.3090 O   0  0  0  0  0  0  0  0  0  0  0  0
  -21.7330   -6.5690   22.4520 C   0  0  0  0  0  0  0  0  0  0  0  0
  -21.2850   -7.1000   23.6800 C   0  0  0  0  0  3  0  0  0  0  0  0
  -21.1870   -6.2670   24.8130 C   0  0  0  0  0  3  0  0  0  0  0  0
  -21.5270   -4.9040   24.7170 C   0  0  0  0  0  0  0  0  0  0  0  0
  -21.9680   -4.3730   23.4920 C   0  0  0  0  0  3  0  0  0  0  0  0
  -22.0680   -5.2030   22.3620 C   0  0  0  0  0  0  0  0  0  0  0  0
  -22.4740   -4.6810   21.1800 F   0  0  0  0  0  0  0  0  0  0  0  0
  -21.4260   -4.1020   25.8020 F   0  0  0  0  0  0  0  0  0  0  0  0
  -23.1010  -13.9320   21.1510 C   0  0  0  0  0  0  0  0  0  0  0  0
  -22.4020  -13.2380   22.0430 N   0  0  0  0  0  0  0  0  0  0  0  0
  -22.6690  -14.9840   20.6830 O   0  0  0  0  0  0  0  0  0  0  0  0
  -22.7650  -12.3860   22.4430 H   0  0  0  0  0  0  0  0  0  0  0  0
  -21.4910  -13.5660   22.3310 H   0  0  0  0  0  0  0  0  0  0  0  0
  -25.7370  -15.5320   20.2340 N   0  0  0  0  0  0  0  0  0  0  0  0
  -24.9880  -16.1990   20.3900 H   0  0  0  0  0  0  0  0  0  0  0  0
  -26.5500  -15.9460   19.8000 H   0  0  0  0  0  0  0  0  0  0  0  0
  -28.8630  -22.6520   20.2860 C   0  0  0  0  0  3  0  0  0  0  0  0
  -30.8720  -22.1430   19.3020 C   0  0  0  0  0  3  0  0  0  0  0  0
  -29.8860  -21.6050   20.1030 C   0  0  0  0  0  0  0  0  0  0  0  0
  -29.0790  -23.9070   19.6930 C   0  0  0  0  0  0  0  0  0  0  0  0
  -30.5930  -23.8240   18.8360 S   0  0  0  0  0  0  0  0  0  0  0  0
  -28.0520  -25.0810   19.5130 C   0  0  0  0  0  2  0  0  0  0  0  0
  -28.4050  -26.5220   19.7690 O   0  0  0  0  0  0  0  0  0  0  0  0
  -24.5800  -31.7260   23.1520 C   0  0  0  0  0  0  0  0  0  0  0  0
  -27.3010  -27.4210   19.7740 C   0  0  0  0  0  0  0  0  0  0  0  0
  -23.4070  -30.3900   21.4460 C   0  0  0  0  0  3  0  0  0  0  0  0
  -24.8920  -28.9980   19.9040 C   0  0  0  0  0  0  0  0  0  0  0  0
  -25.9400  -30.7980   21.2580 C   0  0  0  0  0  2  0  0  0  0  0  0
  -26.0600  -29.4660   20.5190 C   0  0  0  0  0  0  0  0  0  0  0  0
  -27.2670  -28.6910   20.4470 C   0  0  0  0  0  3  0  0  0  0  0  0
  -26.0980  -27.0430   19.1240 C   0  0  0  0  0  3  0  0  0  0  0  0
  -24.9170  -27.7940   19.1960 C   0  0  0  0  0  3  0  0  0  0  0  0
  -23.6270  -29.8230   20.0230 C   0  0  0  0  0  2  0  0  0  0  0  0
  -24.6620  -30.9860   22.0080 N   0  0  0  0  0  0  0  0  0  0  0  0
  -23.4940  -31.9300   23.7140 O   0  0  0  0  0  0  0  0  0  0  0  0
  -22.7960  -29.2870   22.3450 C   0  0  0  0  0  0  0  0  0  0  0  0
  -21.4810  -29.0470   22.2030 N   0  0  0  0  0  0  0  0  0  0  0  0
  -23.5050  -28.6540   23.1320 O   0  0  0  0  0  0  0  0  0  0  0  0
  -20.9640  -29.6140   21.5470 H   0  0  0  0  0  0  0  0  0  0  0  0
  -18.1660  -27.6620   22.6430 C   0  0  0  0  0  0  0  0  0  0  0  0
  -20.7110  -28.0300   22.9230 C   0  0  0  0  0  3  0  0  0  0  0  0
  -20.8780  -26.6380   22.2700 C   0  0  0  0  0  2  0  0  0  0  0  0
  -19.7890  -26.3180   21.2420 C   0  0  0  0  0  2  0  0  0  0  0  0
  -18.4040  -26.3610   21.8940 C   0  0  0  0  0  2  0  0  0  0  0  0
  -19.2480  -28.4520   23.1130 C   0  0  0  0  0  0  0  0  0  0  0  0
  -18.9700  -29.6680   23.7740 C   0  0  0  0  0  3  0  0  0  0  0  0
  -17.6430  -30.0950   23.9700 C   0  0  0  0  0  3  0  0  0  0  0  0
  -16.5760  -29.3010   23.5170 C   0  0  0  0  0  3  0  0  0  0  0  0
  -16.8380  -28.0860   22.8580 C   0  0  0  0  0  3  0  0  0  0  0  0
  -25.8450  -32.3710   23.7960 C   0  0  0  0  0  3  0  0  0  0  0  0
  -26.3540  -31.5940   25.0720 C   0  0  1  0  0  0  0  0  0  0  0  0
  -25.2480  -31.3300   26.1210 C   0  0  0  0  0  1  0  0  0  0  0  0
  -26.9630  -30.2290   24.6790 C   0  0  0  0  0  1  0  0  0  0  0  0
  -27.4820  -32.3990   25.7580 C   0  0  0  0  0  1  0  0  0  0  0  0
  -25.5100  -33.7610   24.1360 N   0  0  0  0  0  0  0  0  0  0  0  0
  -25.8230  -34.8250   23.3850 C   0  0  0  0  0  0  0  0  0  0  0  0
  -26.4910  -34.7410   22.3510 O   0  0  0  0  0  0  0  0  0  0  0  0
  -24.9150  -33.9000   24.9390 H   0  0  0  0  0  0  0  0  0  0  0  0
  -24.0670  -36.5950   23.0450 C   0  0  0  0  0  1  0  0  0  0  0  0
  -25.3130  -36.2020   23.8540 C   0  0  0  0  0  3  0  0  0  0  0  0
  -27.4210  -37.1230   24.7130 C   0  0  0  0  0  1  0  0  0  0  0  0
  -26.3290  -37.2720   23.7550 N   0  0  0  0  0  0  0  0  0  0  0  0
  -25.9060  -38.1850   23.8950 H   0  0  0  0  0  0  0  0  0  0  0  0
  -28.8950  -20.0740   21.8030 N   0  0  0  0  0  4  0  0  0  0  0  0
  -28.0270  -20.0680   21.2980 H   0  0  0  0  0  0  0  0  0  0  0  0
  -28.9030  -20.8460   22.4430 H   0  0  0  0  0  0  0  0  0  0  0  0
  -28.9570  -19.2210   22.3260 H   0  0  0  0  0  0  0  0  0  0  0  0
  1  5  1  0
  1  6  1  0
  3  2  1  0
  4  2  1  0
  5 16  1  0
  5  3  1  0
  6  4  1  0
  6 93  1  1
  7  1  2  0
  8 16  1  0
  9 14  1  0
 10 11  1  0
 10  9  1  0
 12 11  1  0
 12 21  1  0
 12 13  1  0
 14  8  1  0
 14 13  1  0
 15  8  2  0
 16 17  1  0
 18 19  2  0
 19 38  1  0
 20 19  1  0
 20 23  1  0
 21 22  1  0
 21 18  1  0
 22 20  2  0
 23 24  1  0
 24 25  2  0
 26 29  1  0
 26 25  1  0
 27 26  2  0
 28 27  1  0
 28 23  2  0
 29 30  1  0
 30 31  1  0
 31 32  2  0
 33 32  1  0
 33 37  1  0
 34 33  2  0
 35 30  2  0
 35 34  1  0
 36 35  1  0
 38 39  1  0
 39 42  1  0
 39 41  1  0
 40 38  2  0
 43 18  1  0
 43 44  1  0
 45 43  1  0
 47 48  2  0
 48 46  1  0
 48  6  1  0
 49 46  2  0
 50 47  1  0
 50 49  1  0
 51 49  1  0
 51 52  1  0
 52 54  1  0
 53 64  2  0
 54 59  1  0
 55 63  1  0
 55 65  1  0
 56 62  1  0
 56 58  1  0
 57 63  1  0
 58 57  1  0
 59 58  2  0
 60 61  1  0
 60 54  2  0
 61 56  2  0
 62 55  1  0
 63 53  1  0
 65 67  2  0
 66 65  1  0
 68 66  1  0
 69 78  2  0
 69 74  1  0
 70 66  1  0
 70 74  1  0
 71 70  1  0
 72 73  1  0
 72 71  1  0
 73 69  1  0
 74 75  2  0
 75 76  1  0
 77 76  2  0
 78 77  1  0
 79 53  1  0
 79 84  1  0
 79 80  1  0
 80 83  1  1
 80 81  1  0
 82 80  1  0
 84 87  1  0
 85 89  1  0
 85 84  1  0
 86 85  2  0
 89 88  1  0
 91 89  1  0
 91 92  1  0
 91 90  1  0
 93 96  1  0
 93 95  1  0
 94 93  1  0
M  ISO  4   8 100  16 100  51 101  52 101
M  END
>  <TORSDO>  (87) 
F 19

>  <SCORE>  (87) 
-13.417

>  <name>  (87) 
87

>  <ligand_id>  (87) 
87

>  <original_smiles>  (87) 
[H]c1sc(C([H])([H])Oc2c([H])c([H])c3c(c2[H])C([H])([H])N(C(=O)C([H])(N([H])C(=O)C([H])(N([H])C([H])([H])[H])C([H])([H])[H])C(C([H])([H])[H])(C([H])([H])[H])C([H])([H])[H])C([H])(C(=O)N([H])C2([H])c4c([H])c([H])c([H])c([H])c4C([H])([H])C([H])([H])C2([H])[H])C3([H])[H])c([H])c1C1([N+]([H])([H])[H])C(=O)C([H])(N([H])C(=O)N2C([H])([H])C([H])([H])C([H])([H])C([H])(n3nc(-c4c([H])c([H])c(Oc5c([H])c([H])c(F)c([H])c5F)c([H])c4[H])c(C(=O)N([H])[H])c3N([H])[H])C2([H])[H])C([H])([H])C([H])([H])C1([H])[H]

>  <smiles>  (87) 
[H]c1sc(C([H])([H])Oc2c([H])c([H])c3c(c2[H])C([H])([H])N(C(=O)C([H])(N([H])C(=O)C([H])(N([H])C([H])([H])[H])C([H])([H])[H])C(C([H])([H])[H])(C([H])([H])[H])C([H])([H])[H])C([H])(C(=O)N([H])C2([H])c4c([H])c([H])c([H])c([H])c4C([H])([H])C([H])([H])C2([H])[H])C3([H])[H])c([H])c1C1([N+]([H])([H])[H])C(=O)C([H])(N([H])C(=O)N2C([H])([H])C([H])([H])C([H])([H])C([H])(n3nc(-c4c([H])c([H])c(Oc5c([H])c([H])c(F)c([H])c5F)c([H])c4[H])c(C(=O)N([H])[H])c3N([H])[H])C2([H])[H])C([H])([H])C([H])([H])C1([H])[H]

$$$$
88:0:0
     RDKit          3D

 98106  0  0  1  0  0  0  0  0999 V2000
  -27.3000  -23.6890   21.6390 C   0  0  0  0  0  0  0  0  0  0  0  0
  -26.7280  -24.7820   20.9050 C   0  0  0  0  0  0  0  0  0  0  0  0
  -28.3410  -23.0930   20.9790 C   0  0  0  0  0  0  0  0  0  0  0  0
  -27.3370  -24.9990   19.6750 C   0  0  0  0  0  0  0  0  0  0  0  0
  -26.7790  -23.2130   22.9720 C   0  0  0  0  0  1  0  0  0  0  0  0
  -25.5530  -25.5270   21.4670 C   0  0  0  0  0  1  0  0  0  0  0  0
  -28.6920  -23.9090   19.4820 S   0  0  0  0  0  0  0  0  0  0  0  0
  -29.1040  -21.8780   21.4030 C   0  0  0  0  0  2  0  0  0  0  0  0
  -30.4660  -22.1890   22.0530 C   0  0  0  0  0  2  0  0  0  0  0  0
  -31.3580  -21.1850   24.1120 C   0  0  0  0  0  1  0  0  0  0  0  0
  -31.0850  -20.9790   22.6690 N   0  0  2  0  0  4  0  0  0  0  0  0
  -30.3840  -20.2520   22.6530 H   0  0  0  0  0  0  0  0  0  0  0  0
  -32.3020  -20.4770   21.9650 C   0  0  0  0  0  2  0  0  0  0  0  0
  -32.0570  -19.3530   20.9270 C   0  0  0  0  0  2  0  0  0  0  0  0
  -32.1030  -17.9140   21.4960 C   0  0  0  0  0  2  0  0  0  0  0  0
  -31.9550  -16.8810   20.4390 N   0  0  0  0  0  4  0  0  0  0  0  0
  -31.0530  -16.9960   20.0060 H   0  0  0  0  0  0  0  0  0  0  0  0
  -32.6530  -17.0270   19.7260 H   0  0  0  0  0  0  0  0  0  0  0  0
  -32.0700  -15.4750   20.9100 C   0  0  0  0  0  2  0  0  0  0  0  0
  -31.3770  -14.4720   19.9610 C   0  0  0  0  0  2  0  0  0  0  0  0
  -31.9630  -13.0490   20.0050 C   0  0  0  0  0  0  0  0  0  0  0  0
  -31.5210  -10.6210   20.0500 C   0  0  0  0  0  2  0  0  0  0  0  0
  -30.6060  -10.2520   18.8660 C   0  0  0  0  0  2  0  0  0  0  0  0
  -29.1220  -10.4290   19.2460 C   0  0  0  0  0  2  0  0  0  0  0  0
  -28.8330  -11.8110   19.8900 C   0  0  0  0  0  3  0  0  0  0  0  0
  -29.8560  -12.1150   21.0060 C   0  0  0  0  0  2  0  0  0  0  0  0
  -31.2070  -12.0070   20.4330 N   0  0  0  0  0  0  0  0  0  0  0  0
  -33.0850  -12.8930   19.5110 O   0  0  0  0  0  0  0  0  0  0  0  0
  -26.7100  -13.0190   20.7030 C   0  0  0  0  0  0  0  0  0  0  0  0
  -25.4680  -12.5560   21.0440 C   0  0  0  0  0  0  0  0  0  0  0  0
  -25.5230  -11.1350   20.8980 C   0  0  0  0  0  0  0  0  0  0  0  0
  -27.4600  -11.8990   20.3800 N   0  0  0  0  0  0  0  0  0  0  0  0
  -26.7480  -10.7570   20.5540 N   0  0  0  0  0  0  0  0  0  0  0  0
  -24.4690  -10.1210   21.0160 C   0  0  0  0  0  0  0  0  0  0  0  0
  -24.5760   -9.0450   21.9260 C   0  0  0  0  0  3  0  0  0  0  0  0
  -23.5410   -8.0910   22.0310 C   0  0  0  0  0  3  0  0  0  0  0  0
  -22.3830   -8.2080   21.2260 C   0  0  0  0  0  0  0  0  0  0  0  0
  -22.2940   -9.2650   20.3030 C   0  0  0  0  0  3  0  0  0  0  0  0
  -23.3260  -10.2110   20.1950 C   0  0  0  0  0  3  0  0  0  0  0  0
  -21.3410   -7.3130   21.2420 O   0  0  0  0  0  0  0  0  0  0  0  0
  -21.0070   -6.6180   22.3770 C   0  0  0  0  0  0  0  0  0  0  0  0
  -20.6430   -7.2730   23.5740 C   0  0  0  0  0  3  0  0  0  0  0  0
  -20.2380   -6.5180   24.6930 C   0  0  0  0  0  3  0  0  0  0  0  0
  -20.1900   -5.1140   24.6170 C   0  0  0  0  0  0  0  0  0  0  0  0
  -20.5450   -4.4600   23.4240 C   0  0  0  0  0  3  0  0  0  0  0  0
  -20.9510   -5.2120   22.3070 C   0  0  0  0  0  0  0  0  0  0  0  0
  -21.2740   -4.5780   21.1530 F   0  0  0  0  0  0  0  0  0  0  0  0
  -19.7940   -4.3880   25.6890 F   0  0  0  0  0  0  0  0  0  0  0  0
  -24.2640  -13.3860   21.3890 C   0  0  0  0  0  0  0  0  0  0  0  0
  -23.3990  -12.8820   22.2620 N   0  0  0  0  0  0  0  0  0  0  0  0
  -24.1100  -14.5130   20.9200 O   0  0  0  0  0  0  0  0  0  0  0  0
  -23.5350  -11.9680   22.6670 H   0  0  0  0  0  0  0  0  0  0  0  0
  -22.5870  -13.4200   22.5290 H   0  0  0  0  0  0  0  0  0  0  0  0
  -27.2580  -14.2970   20.6220 N   0  0  0  0  0  0  0  0  0  0  0  0
  -26.7060  -15.1320   20.7780 H   0  0  0  0  0  0  0  0  0  0  0  0
  -28.1940  -14.4980   20.2910 H   0  0  0  0  0  0  0  0  0  0  0  0
  -26.9820  -25.8700   18.4700 C   0  0  0  0  0  2  0  0  0  0  0  0
  -27.1930  -27.2780   18.6950 O   0  0  0  0  0  0  0  0  0  0  0  0
  -24.7160  -31.9190   23.4370 C   0  0  0  0  0  0  0  0  0  0  0  0
  -26.1260  -28.1000   19.0030 C   0  0  0  0  0  0  0  0  0  0  0  0
  -23.0400  -30.9700   21.8880 C   0  0  0  0  0  3  0  0  0  0  0  0
  -23.9710  -29.7230   19.8650 C   0  0  0  0  0  0  0  0  0  0  0  0
  -25.4850  -31.2190   21.1720 C   0  0  0  0  0  2  0  0  0  0  0  0
  -25.2760  -30.0230   20.2680 C   0  0  0  0  0  0  0  0  0  0  0  0
  -26.3550  -29.2160   19.8390 C   0  0  0  0  0  3  0  0  0  0  0  0
  -24.8060  -27.8580   18.5510 C   0  0  0  0  0  3  0  0  0  0  0  0
  -23.7330  -28.6450   19.0000 C   0  0  0  0  0  3  0  0  0  0  0  0
  -22.8630  -30.6050   20.3890 C   0  0  0  0  0  2  0  0  0  0  0  0
  -24.4450  -31.3700   22.2200 N   0  0  0  0  0  0  0  0  0  0  0  0
  -23.8130  -32.1290   24.2600 O   0  0  0  0  0  0  0  0  0  0  0  0
  -22.5180  -29.8000   22.7510 C   0  0  0  0  0  0  0  0  0  0  0  0
  -21.2080  -29.5190   22.6430 N   0  0  0  0  0  0  0  0  0  0  0  0
  -23.2810  -29.1560   23.4720 O   0  0  0  0  0  0  0  0  0  0  0  0
  -20.6500  -30.0970   22.0310 H   0  0  0  0  0  0  0  0  0  0  0  0
  -18.0650  -27.7440   22.8000 C   0  0  0  0  0  0  0  0  0  0  0  0
  -20.4960  -28.4450   23.3310 C   0  0  0  0  0  3  0  0  0  0  0  0
  -20.9110  -27.0620   22.7750 C   0  0  0  0  0  2  0  0  0  0  0  0
  -19.9900  -26.5620   21.6600 C   0  0  0  0  0  2  0  0  0  0  0  0
  -18.5460  -26.4550   22.1560 C   0  0  0  0  0  2  0  0  0  0  0  0
  -18.9820  -28.6860   23.3360 C   0  0  0  0  0  0  0  0  0  0  0  0
  -18.4830  -29.8860   23.8910 C   0  0  0  0  0  3  0  0  0  0  0  0
  -17.1000  -30.1450   23.9200 C   0  0  0  0  0  3  0  0  0  0  0  0
  -16.1970  -29.2000   23.4030 C   0  0  0  0  0  3  0  0  0  0  0  0
  -16.6800  -28.0030   22.8470 C   0  0  0  0  0  3  0  0  0  0  0  0
  -26.1650  -32.3300   23.8470 C   0  0  0  0  0  3  0  0  0  0  0  0
  -26.8110  -31.3520   24.9030 C   0  0  1  0  0  0  0  0  0  0  0  0
  -25.9100  -31.0750   26.1280 C   0  0  0  0  0  1  0  0  0  0  0  0
  -27.1420  -29.9910   24.2500 C   0  0  0  0  0  1  0  0  0  0  0  0
  -28.1510  -31.9370   25.4100 C   0  0  0  0  0  1  0  0  0  0  0  0
  -26.1090  -33.7000   24.3710 N   0  0  0  0  0  0  0  0  0  0  0  0
  -26.4510  -34.7930   23.6740 C   0  0  0  0  0  0  0  0  0  0  0  0
  -26.9160  -34.7430   22.5330 O   0  0  0  0  0  0  0  0  0  0  0  0
  -25.6860  -33.8260   25.2790 H   0  0  0  0  0  0  0  0  0  0  0  0
  -24.9400  -36.7950   23.8280 C   0  0  0  0  0  1  0  0  0  0  0  0
  -26.2390  -36.1600   24.3520 C   0  0  0  0  0  3  0  0  0  0  0  0
  -28.5800  -36.6870   24.8630 C   0  0  0  0  0  1  0  0  0  0  0  0
  -27.3680  -37.0960   24.1580 N   0  0  0  0  0  0  0  0  0  0  0  0
  -27.1200  -38.0310   24.4690 H   0  0  0  0  0  0  0  0  0  0  0  0
  1  5  1  0
  2  6  1  0
  2  1  1  0
  3  8  1  0
  3  1  2  0
  4  2  2  0
  7  4  1  0
  7  3  1  0
  8  9  1  0
  9 11  1  0
 11 10  1  0
 11 12  1  1
 13 11  1  0
 14 15  1  0
 14 13  1  0
 16 19  1  0
 16 15  1  0
 17 16  1  0
 18 16  1  0
 20 21  1  0
 20 19  1  0
 21 27  1  0
 22 27  1  0
 23 24  1  0
 23 22  1  0
 25 24  1  0
 25 32  1  0
 25 26  1  0
 27 26  1  0
 28 21  2  0
 29 30  2  0
 30 49  1  0
 31 34  1  0
 31 30  1  0
 32 33  1  0
 32 29  1  0
 33 31  2  0
 34 35  1  0
 35 36  2  0
 37 40  1  0
 37 36  1  0
 38 37  2  0
 39 38  1  0
 39 34  2  0
 40 41  1  0
 41 42  1  0
 42 43  2  0
 44 43  1  0
 44 48  1  0
 45 44  2  0
 46 41  2  0
 46 45  1  0
 47 46  1  0
 49 50  1  0
 50 53  1  0
 50 52  1  0
 51 49  2  0
 54 29  1  0
 54 55  1  0
 56 54  1  0
 57 58  1  0
 57  4  1  0
 58 60  1  0
 59 70  2  0
 60 65  1  0
 61 69  1  0
 61 71  1  0
 62 64  1  0
 62 68  1  0
 63 69  1  0
 64 63  1  0
 65 64  2  0
 66 67  1  0
 66 60  2  0
 67 62  2  0
 68 61  1  0
 69 59  1  0
 71 73  2  0
 72 71  1  0
 74 72  1  0
 75 84  2  0
 75 80  1  0
 76 72  1  0
 76 80  1  0
 77 76  1  0
 78 79  1  0
 78 77  1  0
 79 75  1  0
 80 81  2  0
 81 82  1  0
 83 82  2  0
 84 83  1  0
 85 59  1  0
 85 90  1  0
 85 86  1  0
 86 89  1  1
 86 87  1  0
 88 86  1  0
 90 93  1  0
 91 95  1  0
 91 90  1  0
 92 91  2  0
 95 94  1  0
 97 95  1  0
 97 98  1  0
 97 96  1  0
M  ISO  4  20 100  21 100  57 101  58 101
M  END
>  <TORSDO>  (88) 
F 26

>  <SCORE>  (88) 
-7.573

>  <name>  (88) 
88

>  <ligand_id>  (88) 
88

>  <original_smiles>  (88) 
[H]c1c([H])c([H])c2c(c1[H])C([H])([H])C([H])([H])C([H])([H])C2([H])N([H])C(=O)C1([H])N(C(=O)C([H])(N([H])C(=O)C([H])(N([H])C([H])([H])[H])C([H])([H])[H])C(C([H])([H])[H])(C([H])([H])[H])C([H])([H])[H])C([H])([H])c2c([H])c(OC([H])([H])c3sc(C([H])([H])C([H])([H])[N+]([H])(C([H])([H])[H])C([H])([H])C([H])([H])C([H])([H])[N+]([H])([H])C([H])([H])C([H])([H])C(=O)N4C([H])([H])C([H])([H])C([H])([H])C([H])(n5nc(-c6c([H])c([H])c(Oc7c([H])c([H])c(F)c([H])c7F)c([H])c6[H])c(C(=O)N([H])[H])c5N([H])[H])C4([H])[H])c(C([H])([H])[H])c3C([H])([H])[H])c([H])c([H])c2C1([H])[H]

>  <smiles>  (88) 
[H]c1c([H])c([H])c2c(c1[H])C([H])([H])C([H])([H])C([H])([H])C2([H])N([H])C(=O)C1([H])N(C(=O)C([H])(N([H])C(=O)C([H])(N([H])C([H])([H])[H])C([H])([H])[H])C(C([H])([H])[H])(C([H])([H])[H])C([H])([H])[H])C([H])([H])c2c([H])c(OC([H])([H])c3sc(C([H])([H])C([H])([H])[N+]([H])(C([H])([H])[H])C([H])([H])C([H])([H])C([H])([H])[N+]([H])([H])C([H])([H])C([H])([H])C(=O)N4C([H])([H])C([H])([H])C([H])([H])C([H])(n5nc(-c6c([H])c([H])c(Oc7c([H])c([H])c(F)c([H])c7F)c([H])c6[H])c(C(=O)N([H])[H])c5N([H])[H])C4([H])[H])c(C([H])([H])[H])c3C([H])([H])[H])c([H])c([H])c2C1([H])[H]

$$$$
89:0:0
     RDKit          3D

 93100  0  0  1  0  0  0  0  0999 V2000
  -28.7230  -21.5970   21.8820 C   0  0  0  0  0  2  0  0  0  0  0  0
  -30.2090  -21.5750   22.2920 C   0  0  0  0  0  2  0  0  0  0  0  0
  -30.7110  -19.1990   23.0840 C   0  0  0  0  0  3  0  0  0  0  0  0
  -30.5430  -20.5150   23.3340 C   0  0  0  0  0  0  0  0  0  0  0  0
  -30.6710  -21.0560   24.7460 C   0  0  0  0  0  1  0  0  0  0  0  0
  -30.6220  -18.4840   21.7440 C   0  0  0  0  0  2  0  0  0  0  0  0
  -31.6980  -17.4800   21.6030 N   0  0  0  0  0  4  0  0  0  0  0  0
  -31.9490  -17.1510   22.5210 H   0  0  0  0  0  0  0  0  0  0  0  0
  -32.5080  -17.9310   21.2070 H   0  0  0  0  0  0  0  0  0  0  0  0
  -31.3200  -16.3110   20.7720 C   0  0  0  0  0  2  0  0  0  0  0  0
  -32.2510  -15.1050   20.9940 C   0  0  0  0  0  2  0  0  0  0  0  0
  -32.3140  -14.1760   19.7720 C   0  0  0  0  0  0  0  0  0  0  0  0
  -31.6560  -12.0680   18.6630 C   0  0  0  0  0  2  0  0  0  0  0  0
  -30.5940  -12.2710   17.5710 C   0  0  0  0  0  2  0  0  0  0  0  0
  -29.1770  -12.2490   18.1760 C   0  0  0  0  0  2  0  0  0  0  0  0
  -29.0470  -13.1860   19.4040 C   0  0  0  0  0  3  0  0  0  0  0  0
  -30.2020  -12.9590   20.4040 C   0  0  0  0  0  2  0  0  0  0  0  0
  -31.4790  -13.1080   19.6870 N   0  0  0  0  0  0  0  0  0  0  0  0
  -33.2020  -14.3900   18.9390 O   0  0  0  0  0  0  0  0  0  0  0  0
  -26.9180  -14.0180   20.5920 C   0  0  0  0  0  0  0  0  0  0  0  0
  -25.7850  -13.3680   21.0010 C   0  0  0  0  0  0  0  0  0  0  0  0
  -25.9770  -11.9920   20.6650 C   0  0  0  0  0  0  0  0  0  0  0  0
  -27.7400  -13.0450   20.0450 N   0  0  0  0  0  0  0  0  0  0  0  0
  -27.1830  -11.8110   20.1400 N   0  0  0  0  0  0  0  0  0  0  0  0
  -25.0630  -10.8480   20.7590 C   0  0  0  0  0  0  0  0  0  0  0  0
  -25.4340   -9.6590   21.4260 C   0  0  0  0  0  3  0  0  0  0  0  0
  -24.5300   -8.5780   21.5210 C   0  0  0  0  0  3  0  0  0  0  0  0
  -23.2400   -8.6810   20.9470 C   0  0  0  0  0  0  0  0  0  0  0  0
  -22.8840   -9.8570   20.2630 C   0  0  0  0  0  3  0  0  0  0  0  0
  -23.7870  -10.9300   20.1680 C   0  0  0  0  0  3  0  0  0  0  0  0
  -22.3060   -7.6730   20.9650 O   0  0  0  0  0  0  0  0  0  0  0  0
  -22.1430   -6.8620   22.0590 C   0  0  0  0  0  0  0  0  0  0  0  0
  -21.9380   -7.3880   23.3540 C   0  0  0  0  0  3  0  0  0  0  0  0
  -21.7080   -6.5190   24.4390 C   0  0  0  0  0  3  0  0  0  0  0  0
  -21.6710   -5.1270   24.2320 C   0  0  0  0  0  0  0  0  0  0  0  0
  -21.8680   -4.6020   22.9420 C   0  0  0  0  0  3  0  0  0  0  0  0
  -22.1010   -5.4670   21.8590 C   0  0  0  0  0  0  0  0  0  0  0  0
  -22.2700   -4.9570   20.6160 F   0  0  0  0  0  0  0  0  0  0  0  0
  -21.4420   -4.2910   25.2710 F   0  0  0  0  0  0  0  0  0  0  0  0
  -24.5510  -13.9950   21.5830 C   0  0  0  0  0  0  0  0  0  0  0  0
  -23.8320  -13.2660   22.4290 N   0  0  0  0  0  0  0  0  0  0  0  0
  -24.2430  -15.1590   21.3260 O   0  0  0  0  0  0  0  0  0  0  0  0
  -24.0960  -12.3180   22.6570 H   0  0  0  0  0  0  0  0  0  0  0  0
  -23.0050  -13.6610   22.8550 H   0  0  0  0  0  0  0  0  0  0  0  0
  -27.3100  -15.3530   20.6210 N   0  0  0  0  0  0  0  0  0  0  0  0
  -26.6830  -16.0850   20.9350 H   0  0  0  0  0  0  0  0  0  0  0  0
  -28.1370  -15.7120   20.1620 H   0  0  0  0  0  0  0  0  0  0  0  0
  -28.2220  -22.9930   21.4650 C   0  0  0  0  0  2  0  0  0  0  0  0
  -27.5850  -23.9940   19.2350 C   0  0  0  0  0  3  0  0  0  0  0  0
  -27.4520  -23.0110   20.1470 C   0  0  0  0  0  0  0  0  0  0  0  0
  -26.4990  -21.8520   19.8990 C   0  0  0  0  0  1  0  0  0  0  0  0
  -28.3980  -25.2700   19.3940 C   0  0  0  0  0  2  0  0  0  0  0  0
  -27.9870  -26.3140   18.5080 O   0  0  0  0  0  0  0  0  0  0  0  0
  -24.1720  -30.6580   22.6740 C   0  0  0  0  0  0  0  0  0  0  0  0
  -26.7780  -26.9200   18.7580 C   0  0  0  0  0  0  0  0  0  0  0  0
  -22.9160  -29.5000   20.8830 C   0  0  0  0  0  3  0  0  0  0  0  0
  -24.3340  -28.2830   19.1530 C   0  0  0  0  0  0  0  0  0  0  0  0
  -25.4130  -29.9950   20.6180 C   0  0  0  0  0  2  0  0  0  0  0  0
  -25.5050  -28.7530   19.7600 C   0  0  0  0  0  0  0  0  0  0  0  0
  -26.7300  -28.0800   19.5590 C   0  0  0  0  0  3  0  0  0  0  0  0
  -25.5890  -26.4580   18.1520 C   0  0  0  0  0  3  0  0  0  0  0  0
  -24.3690  -27.1320   18.3490 C   0  0  0  0  0  3  0  0  0  0  0  0
  -23.0670  -29.0690   19.4020 C   0  0  0  0  0  2  0  0  0  0  0  0
  -24.1880  -30.0580   21.4510 N   0  0  0  0  0  0  0  0  0  0  0  0
  -23.1160  -30.7910   23.3080 O   0  0  0  0  0  0  0  0  0  0  0  0
  -22.3590  -28.3060   21.6890 C   0  0  0  0  0  0  0  0  0  0  0  0
  -21.0480  -28.0530   21.5460 N   0  0  0  0  0  0  0  0  0  0  0  0
  -23.0980  -27.6160   22.3940 O   0  0  0  0  0  0  0  0  0  0  0  0
  -20.5090  -28.6710   20.9560 H   0  0  0  0  0  0  0  0  0  0  0  0
  -17.7780  -26.5430   21.8460 C   0  0  0  0  0  0  0  0  0  0  0  0
  -20.3080  -26.9600   22.1760 C   0  0  0  0  0  3  0  0  0  0  0  0
  -20.5240  -25.6300   21.4160 C   0  0  0  0  0  2  0  0  0  0  0  0
  -19.4500  -25.3620   20.3570 C   0  0  0  0  0  2  0  0  0  0  0  0
  -18.0600  -25.3130   21.0000 C   0  0  0  0  0  2  0  0  0  0  0  0
  -18.8340  -27.3250   22.3840 C   0  0  0  0  0  0  0  0  0  0  0  0
  -18.5170  -28.4790   23.1340 C   0  0  0  0  0  3  0  0  0  0  0  0
  -17.1770  -28.8510   23.3510 C   0  0  0  0  0  3  0  0  0  0  0  0
  -16.1360  -28.0640   22.8290 C   0  0  0  0  0  3  0  0  0  0  0  0
  -16.4370  -26.9120   22.0810 C   0  0  0  0  0  3  0  0  0  0  0  0
  -25.4730  -31.2260   23.3240 C   0  0  0  0  0  3  0  0  0  0  0  0
  -26.0800  -30.2800   24.4310 C   0  0  1  0  0  0  0  0  0  0  0  0
  -25.0530  -29.8280   25.4950 C   0  0  0  0  0  1  0  0  0  0  0  0
  -26.6860  -29.0100   23.7890 C   0  0  0  0  0  1  0  0  0  0  0  0
  -27.2380  -31.0020   25.1580 C   0  0  0  0  0  1  0  0  0  0  0  0
  -25.1460  -32.5430   23.8860 N   0  0  0  0  0  0  0  0  0  0  0  0
  -25.5330  -33.7120   23.3560 C   0  0  0  0  0  0  0  0  0  0  0  0
  -26.2710  -33.7890   22.3710 O   0  0  0  0  0  0  0  0  0  0  0  0
  -24.4980  -32.5570   24.6600 H   0  0  0  0  0  0  0  0  0  0  0  0
  -23.9090  -35.6210   23.1630 C   0  0  0  0  0  1  0  0  0  0  0  0
  -25.0160  -34.9990   24.0270 C   0  0  0  0  0  3  0  0  0  0  0  0
  -27.0340  -35.5840   25.2980 C   0  0  0  0  0  1  0  0  0  0  0  0
  -26.0780  -35.9990   24.2740 N   0  0  0  0  0  0  0  0  0  0  0  0
  -25.6760  -36.8890   24.5570 H   0  0  0  0  0  0  0  0  0  0  0  0
  1  2  1  0
  2  4  1  0
  3  4  2  0
  4  5  1  0
  6  3  1  0
  7  6  1  0
  7  8  1  0
  9  7  1  0
 10 11  1  0
 10  7  1  0
 12 11  1  0
 13 18  1  0
 14 15  1  0
 14 13  1  0
 16 15  1  0
 16 23  1  0
 16 17  1  0
 18 12  1  0
 18 17  1  0
 19 12  2  0
 20 45  1  0
 20 21  2  0
 21 40  1  0
 22 25  1  0
 22 21  1  0
 23 24  1  0
 23 20  1  0
 24 22  2  0
 25 26  1  0
 26 27  2  0
 28 31  1  0
 28 27  1  0
 29 28  2  0
 30 29  1  0
 30 25  2  0
 31 32  1  0
 32 33  1  0
 33 34  2  0
 35 34  1  0
 35 39  1  0
 36 35  2  0
 37 32  2  0
 37 36  1  0
 38 37  1  0
 40 41  1  0
 41 43  1  0
 41 44  1  0
 42 40  2  0
 45 46  1  0
 47 45  1  0
 48  1  1  0
 49 52  1  0
 49 50  2  0
 50 48  1  0
 51 50  1  0
 53 55  1  0
 53 52  1  0
 54 65  2  0
 55 60  1  0
 56 64  1  0
 56 66  1  0
 57 63  1  0
 57 59  1  0
 58 64  1  0
 59 58  1  0
 60 59  2  0
 61 62  1  0
 61 55  2  0
 62 57  2  0
 63 56  1  0
 64 54  1  0
 66 68  2  0
 67 66  1  0
 69 67  1  0
 70 79  2  0
 70 75  1  0
 71 67  1  0
 71 75  1  0
 72 71  1  0
 73 74  1  0
 73 72  1  0
 74 70  1  0
 75 76  2  0
 76 77  1  0
 78 77  2  0
 79 78  1  0
 80 54  1  0
 80 85  1  0
 80 81  1  0
 81 84  1  1
 81 82  1  0
 83 81  1  0
 85 88  1  0
 86 85  1  0
 86 90  1  0
 87 86  2  0
 90 89  1  0
 90 92  1  0
 92 93  1  0
 92 91  1  0
M  ISO  4  11 100  12 100  52 101  53 101
M  END
>  <TORSDO>  (89) 
F 25

>  <SCORE>  (89) 
-7.075

>  <name>  (89) 
89

>  <ligand_id>  (89) 
89

>  <original_smiles>  (89) 
[H]C(=C(C([H])([H])[H])C([H])([H])C([H])([H])C([H])([H])C(=C([H])C([H])([H])[N+]([H])([H])C([H])([H])C([H])([H])C(=O)N1C([H])([H])C([H])([H])C([H])([H])C([H])(n2nc(-c3c([H])c([H])c(Oc4c([H])c([H])c(F)c([H])c4F)c([H])c3[H])c(C(=O)N([H])[H])c2N([H])[H])C1([H])[H])C([H])([H])[H])C([H])([H])Oc1c([H])c([H])c2c(c1[H])C([H])([H])N(C(=O)C([H])(N([H])C(=O)C([H])(N([H])C([H])([H])[H])C([H])([H])[H])C(C([H])([H])[H])(C([H])([H])[H])C([H])([H])[H])C([H])(C(=O)N([H])C1([H])c3c([H])c([H])c([H])c([H])c3C([H])([H])C([H])([H])C1([H])[H])C2([H])[H]

>  <smiles>  (89) 
[H]C(=C(C([H])([H])[H])C([H])([H])C([H])([H])C([H])([H])C(=C([H])C([H])([H])[N+]([H])([H])C([H])([H])C([H])([H])C(=O)N1C([H])([H])C([H])([H])C([H])([H])C([H])(n2nc(-c3c([H])c([H])c(Oc4c([H])c([H])c(F)c([H])c4F)c([H])c3[H])c(C(=O)N([H])[H])c2N([H])[H])C1([H])[H])C([H])([H])[H])C([H])([H])Oc1c([H])c([H])c2c(c1[H])C([H])([H])N(C(=O)C([H])(N([H])C(=O)C([H])(N([H])C([H])([H])[H])C([H])([H])[H])C(C([H])([H])[H])(C([H])([H])[H])C([H])([H])[H])C([H])(C(=O)N([H])C1([H])c3c([H])c([H])c([H])c([H])c3C([H])([H])C([H])([H])C1([H])[H])C2([H])[H]

$$$$
90:0:0
     RDKit          3D

 87 95  0  0  1  0  0  0  0  0999 V2000
  -28.4970  -21.9920   20.3060 C   0  0  0  0  0  3  0  0  0  0  0  0
  -30.7690  -21.2760   20.5600 C   0  0  0  0  0  3  0  0  0  0  0  0
  -30.2770  -23.5920   20.4290 C   0  0  0  0  0  3  0  0  0  0  0  0
  -29.4310  -20.8540   20.4400 C   0  0  0  0  0  0  0  0  0  0  0  0
  -28.8900  -23.4170   20.2960 C   0  0  0  0  0  0  0  0  0  0  0  0
  -31.1710  -22.5730   20.5550 N   0  0  0  0  0  0  0  0  0  0  0  0
  -29.0540  -19.2530   20.5180 C   0  0  0  0  0  3  0  0  0  0  0  0
  -30.0970  -17.9380   20.4030 C   0  0  0  0  0  3  0  0  0  0  0  0
  -29.6390  -16.3460   20.6940 C   0  0  0  0  0  2  0  0  0  0  0  0
  -30.4920  -14.9650   20.3650 C   0  0  0  0  0  0  0  0  0  0  0  0
  -30.3760  -12.6350   19.3720 C   0  0  0  0  0  2  0  0  0  0  0  0
  -29.4320  -12.6500   18.1450 C   0  0  0  0  0  2  0  0  0  0  0  0
  -27.9660  -12.4420   18.5760 C   0  0  0  0  0  2  0  0  0  0  0  0
  -27.5760  -13.3380   19.7810 C   0  0  0  0  0  3  0  0  0  0  0  0
  -28.6370  -13.2980   20.9000 C   0  0  0  0  0  2  0  0  0  0  0  0
  -29.9230  -13.6950   20.3130 N   0  0  0  0  0  0  0  0  0  0  0  0
  -31.6760  -15.0620   20.0230 O   0  0  0  0  0  0  0  0  0  0  0  0
  -25.1950  -13.9170   20.5270 C   0  0  0  0  0  0  0  0  0  0  0  0
  -24.1310  -13.1410   20.8950 C   0  0  0  0  0  0  0  0  0  0  0  0
  -24.5950  -11.7900   20.8580 C   0  0  0  0  0  0  0  0  0  0  0  0
  -26.2370  -13.0390   20.2790 N   0  0  0  0  0  0  0  0  0  0  0  0
  -25.8850  -11.7540   20.5430 N   0  0  0  0  0  0  0  0  0  0  0  0
  -23.8670  -10.5270   21.0430 C   0  0  0  0  0  0  0  0  0  0  0  0
  -24.2960   -9.5580   21.9770 C   0  0  0  0  0  3  0  0  0  0  0  0
  -23.5700   -8.3600   22.1500 C   0  0  0  0  0  3  0  0  0  0  0  0
  -22.3990   -8.1240   21.3910 C   0  0  0  0  0  0  0  0  0  0  0  0
  -21.9890   -9.0810   20.4460 C   0  0  0  0  0  3  0  0  0  0  0  0
  -22.7170  -10.2700   20.2710 C   0  0  0  0  0  3  0  0  0  0  0  0
  -21.6440   -6.9790   21.4740 O   0  0  0  0  0  0  0  0  0  0  0  0
  -21.5820   -6.2390   22.6280 C   0  0  0  0  0  0  0  0  0  0  0  0
  -21.1320   -6.7940   23.8450 C   0  0  0  0  0  3  0  0  0  0  0  0
  -21.0180   -5.9800   24.9900 C   0  0  0  0  0  3  0  0  0  0  0  0
  -21.3470   -4.6120   24.9190 C   0  0  0  0  0  0  0  0  0  0  0  0
  -21.7910   -4.0570   23.7060 C   0  0  0  0  0  3  0  0  0  0  0  0
  -21.9060   -4.8680   22.5630 C   0  0  0  0  0  0  0  0  0  0  0  0
  -22.3150   -4.3240   21.3920 F   0  0  0  0  0  0  0  0  0  0  0  0
  -21.2310   -3.8290   26.0170 F   0  0  0  0  0  0  0  0  0  0  0  0
  -22.7340  -13.6170   21.1720 C   0  0  0  0  0  0  0  0  0  0  0  0
  -22.0080  -12.9190   22.0380 N   0  0  0  0  0  0  0  0  0  0  0  0
  -22.2950  -14.6440   20.6550 O   0  0  0  0  0  0  0  0  0  0  0  0
  -22.3760  -12.0880   22.4780 H   0  0  0  0  0  0  0  0  0  0  0  0
  -21.0720  -13.2200   22.2660 H   0  0  0  0  0  0  0  0  0  0  0  0
  -25.3590  -15.2890   20.3590 N   0  0  0  0  0  0  0  0  0  0  0  0
  -24.5950  -15.9440   20.4840 H   0  0  0  0  0  0  0  0  0  0  0  0
  -26.2110  -15.7310   20.0410 H   0  0  0  0  0  0  0  0  0  0  0  0
  -27.8940  -24.7050   20.0880 C   0  0  0  0  0  2  0  0  0  0  0  0
  -28.2370  -26.2110   20.2530 O   0  0  0  0  0  0  0  0  0  0  0  0
  -24.6300  -31.8980   23.2430 C   0  0  0  0  0  0  0  0  0  0  0  0
  -27.1870  -27.1990   20.1870 C   0  0  0  0  0  0  0  0  0  0  0  0
  -23.4210  -30.5130   21.6030 C   0  0  0  0  0  3  0  0  0  0  0  0
  -24.8610  -28.9440   20.1690 C   0  0  0  0  0  0  0  0  0  0  0  0
  -25.9750  -30.7740   21.4310 C   0  0  0  0  0  2  0  0  0  0  0  0
  -26.0430  -29.3860   20.7750 C   0  0  0  0  0  0  0  0  0  0  0  0
  -27.2080  -28.5300   20.7680 C   0  0  0  0  0  3  0  0  0  0  0  0
  -25.9750  -26.8600   19.5410 C   0  0  0  0  0  3  0  0  0  0  0  0
  -24.8390  -27.6940   19.5370 C   0  0  0  0  0  3  0  0  0  0  0  0
  -23.6350  -29.8420   20.2210 C   0  0  0  0  0  2  0  0  0  0  0  0
  -24.6960  -31.0820   22.1480 N   0  0  0  0  0  0  0  0  0  0  0  0
  -23.5460  -32.1840   23.7740 O   0  0  0  0  0  0  0  0  0  0  0  0
  -22.7420  -29.5030   22.5620 C   0  0  0  0  0  0  0  0  0  0  0  0
  -21.4130  -29.3360   22.4380 N   0  0  0  0  0  0  0  0  0  0  0  0
  -23.4130  -28.8720   23.3820 O   0  0  0  0  0  0  0  0  0  0  0  0
  -20.9280  -29.8970   21.7500 H   0  0  0  0  0  0  0  0  0  0  0  0
  -18.0290  -28.1490   22.9450 C   0  0  0  0  0  0  0  0  0  0  0  0
  -20.5890  -28.4020   23.2080 C   0  0  0  0  0  3  0  0  0  0  0  0
  -20.6840  -26.9700   22.6320 C   0  0  0  0  0  2  0  0  0  0  0  0
  -19.5790  -26.6530   21.6190 C   0  0  0  0  0  2  0  0  0  0  0  0
  -18.2000  -26.8010   22.2660 C   0  0  0  0  0  2  0  0  0  0  0  0
  -19.1510  -28.9070   23.3740 C   0  0  0  0  0  0  0  0  0  0  0  0
  -18.9360  -30.1680   23.9720 C   0  0  0  0  0  3  0  0  0  0  0  0
  -17.6330  -30.6720   24.1430 C   0  0  0  0  0  3  0  0  0  0  0  0
  -16.5250  -29.9110   23.7290 C   0  0  0  0  0  3  0  0  0  0  0  0
  -16.7240  -28.6510   23.1360 C   0  0  0  0  0  3  0  0  0  0  0  0
  -25.9110  -32.5280   23.8680 C   0  0  0  0  0  3  0  0  0  0  0  0
  -26.4220  -31.7520   25.1450 C   0  0  1  0  0  0  0  0  0  0  0  0
  -25.3280  -31.5170   26.2110 C   0  0  0  0  0  1  0  0  0  0  0  0
  -27.0010  -30.3720   24.7540 C   0  0  0  0  0  1  0  0  0  0  0  0
  -27.5760  -32.5390   25.8080 C   0  0  0  0  0  1  0  0  0  0  0  0
  -25.6040  -33.9250   24.2080 N   0  0  0  0  0  0  0  0  0  0  0  0
  -25.9160  -34.9830   23.4490 C   0  0  0  0  0  0  0  0  0  0  0  0
  -26.5620  -34.8850   22.4010 O   0  0  0  0  0  0  0  0  0  0  0  0
  -25.0270  -34.0750   25.0240 H   0  0  0  0  0  0  0  0  0  0  0  0
  -24.1680  -36.7710   23.1580 C   0  0  0  0  0  1  0  0  0  0  0  0
  -25.4390  -36.3710   23.9240 C   0  0  0  0  0  3  0  0  0  0  0  0
  -27.5970  -37.2690   24.6800 C   0  0  0  0  0  1  0  0  0  0  0  0
  -26.4630  -37.4290   23.7740 N   0  0  0  0  0  0  0  0  0  0  0  0
  -26.0570  -38.3470   23.9320 H   0  0  0  0  0  0  0  0  0  0  0  0
  1  4  1  0
  3  6  2  0
  4  7  1  0
  4  2  2  0
  5  1  2  0
  5  3  1  0
  6  2  1  0
  8  7  2  0
  8  9  1  0
 10  9  1  0
 11 16  1  0
 12 13  1  0
 12 11  1  0
 14 13  1  0
 14 21  1  0
 14 15  1  0
 16 10  1  0
 16 15  1  0
 17 10  2  0
 18 19  2  0
 19 38  1  0
 20 19  1  0
 20 23  1  0
 21 18  1  0
 21 22  1  0
 22 20  2  0
 23 24  1  0
 24 25  2  0
 26 29  1  0
 26 25  1  0
 27 26  2  0
 28 27  1  0
 28 23  2  0
 29 30  1  0
 30 31  1  0
 31 32  2  0
 33 32  1  0
 33 37  1  0
 34 33  2  0
 35 30  2  0
 35 34  1  0
 36 35  1  0
 38 39  1  0
 39 42  1  0
 39 41  1  0
 40 38  2  0
 43 44  1  0
 43 18  1  0
 45 43  1  0
 46 47  1  0
 46  5  1  0
 48 59  2  0
 49 47  1  0
 49 54  1  0
 50 58  1  0
 50 60  1  0
 51 57  1  0
 51 53  1  0
 52 58  1  0
 53 52  1  0
 54 53  2  0
 55 49  2  0
 56 55  1  0
 56 51  2  0
 57 50  1  0
 58 48  1  0
 60 62  2  0
 61 60  1  0
 63 61  1  0
 64 73  2  0
 64 69  1  0
 65 61  1  0
 65 69  1  0
 66 65  1  0
 67 68  1  0
 67 66  1  0
 68 64  1  0
 69 70  2  0
 70 71  1  0
 72 71  2  0
 73 72  1  0
 74 48  1  0
 74 79  1  0
 74 75  1  0
 75 78  1  1
 75 76  1  0
 77 75  1  0
 79 82  1  0
 80 84  1  0
 80 79  1  0
 81 80  2  0
 84 83  1  0
 86 84  1  0
 86 87  1  0
 86 85  1  0
M  ISO  4   9 100  10 100  46 101  47 101
M  END
>  <TORSDO>  (90) 
F 20

>  <SCORE>  (90) 
-13.756

>  <name>  (90) 
90

>  <ligand_id>  (90) 
90

>  <original_smiles>  (90) 
[H]c1nc([H])c(C([H])([H])C([H])([H])C([H])([H])C(=O)N2C([H])([H])C([H])([H])C([H])([H])C([H])(n3nc(-c4c([H])c([H])c(Oc5c([H])c([H])c(F)c([H])c5F)c([H])c4[H])c(C(=O)N([H])[H])c3N([H])[H])C2([H])[H])c([H])c1C([H])([H])Oc1c([H])c([H])c2c(c1[H])C([H])([H])N(C(=O)C([H])(N([H])C(=O)C([H])(N([H])C([H])([H])[H])C([H])([H])[H])C(C([H])([H])[H])(C([H])([H])[H])C([H])([H])[H])C([H])(C(=O)N([H])C1([H])c3c([H])c([H])c([H])c([H])c3C([H])([H])C([H])([H])C1([H])[H])C2([H])[H]

>  <smiles>  (90) 
[H]c1nc([H])c(C([H])([H])C([H])([H])C([H])([H])C(=O)N2C([H])([H])C([H])([H])C([H])([H])C([H])(n3nc(-c4c([H])c([H])c(Oc5c([H])c([H])c(F)c([H])c5F)c([H])c4[H])c(C(=O)N([H])[H])c3N([H])[H])C2([H])[H])c([H])c1C([H])([H])Oc1c([H])c([H])c2c(c1[H])C([H])([H])N(C(=O)C([H])(N([H])C(=O)C([H])(N([H])C([H])([H])[H])C([H])([H])[H])C(C([H])([H])[H])(C([H])([H])[H])C([H])([H])[H])C([H])(C(=O)N([H])C1([H])c3c([H])c([H])c([H])c([H])c3C([H])([H])C([H])([H])C1([H])[H])C2([H])[H]

$$$$
91:0:0
     RDKit          3D

 93101  0  0  1  0  0  0  0  0999 V2000
  -28.5840  -21.0450   19.4670 C   0  0  0  0  0  3  0  0  0  0  0  0
  -29.5890  -21.2070   21.5950 C   0  0  0  0  0  3  0  0  0  0  0  0
  -29.1840  -20.3210   20.5460 C   0  0  0  0  0  0  0  0  0  0  0  0
  -28.3300  -22.4760   19.4670 C   0  0  0  0  0  0  0  0  0  0  0  0
  -28.6490  -23.3470   20.5740 C   0  0  0  0  0  0  0  0  0  0  0  0
  -29.3430  -22.6350   21.6140 C   0  0  0  0  0  0  0  0  0  0  0  0
  -29.7400  -23.3050   22.7370 O   0  0  0  0  0  0  0  0  0  0  0  0
  -29.7200  -24.2520   22.6410 H   0  0  0  0  0  0  0  0  0  0  0  0
  -29.1170  -18.6980   20.7340 C   0  0  0  0  0  3  0  0  0  0  0  0
  -30.1220  -17.5070   20.1560 C   0  0  0  0  0  3  0  0  0  0  0  0
  -30.6380  -14.8600   20.0760 C   0  0  0  0  0  0  0  0  0  0  0  0
  -30.4210  -12.6040   18.9440 C   0  0  0  0  0  2  0  0  0  0  0  0
  -29.4150  -12.6710   17.7690 C   0  0  0  0  0  2  0  0  0  0  0  0
  -27.9650  -12.4720   18.2580 C   0  0  0  0  0  2  0  0  0  0  0  0
  -27.6580  -13.2990   19.5320 C   0  0  0  0  0  3  0  0  0  0  0  0
  -28.7670  -13.1370   20.5830 C   0  0  0  0  0  2  0  0  0  0  0  0
  -30.0210  -13.6120   19.9680 N   0  0  0  0  0  0  0  0  0  0  0  0
  -31.7470  -14.9910   19.5400 O   0  0  0  0  0  0  0  0  0  0  0  0
  -29.4720  -15.9280   21.9620 C   0  0  0  0  0  1  0  0  0  0  0  0
  -29.9470  -16.0000   20.5730 N   0  0  0  0  0  0  0  0  0  0  0  0
  -25.3080  -13.8560   20.3900 C   0  0  0  0  0  0  0  0  0  0  0  0
  -24.2720  -13.0670   20.8090 C   0  0  0  0  0  0  0  0  0  0  0  0
  -24.7450  -11.7210   20.7370 C   0  0  0  0  0  0  0  0  0  0  0  0
  -26.3440  -12.9890   20.0840 N   0  0  0  0  0  0  0  0  0  0  0  0
  -26.0170  -11.7000   20.3530 N   0  0  0  0  0  0  0  0  0  0  0  0
  -24.0410  -10.4510   20.9500 C   0  0  0  0  0  0  0  0  0  0  0  0
  -24.5010   -9.4970   21.8840 C   0  0  0  0  0  3  0  0  0  0  0  0
  -23.7920   -8.2930   22.0830 C   0  0  0  0  0  3  0  0  0  0  0  0
  -22.6090   -8.0360   21.3500 C   0  0  0  0  0  0  0  0  0  0  0  0
  -22.1690   -8.9790   20.4050 C   0  0  0  0  0  3  0  0  0  0  0  0
  -22.8790  -10.1730   20.2030 C   0  0  0  0  0  3  0  0  0  0  0  0
  -21.8680   -6.8830   21.4600 O   0  0  0  0  0  0  0  0  0  0  0  0
  -21.8120   -6.1730   22.6330 C   0  0  0  0  0  0  0  0  0  0  0  0
  -21.3620   -6.7580   23.8370 C   0  0  0  0  0  3  0  0  0  0  0  0
  -21.2540   -5.9730   25.0030 C   0  0  0  0  0  3  0  0  0  0  0  0
  -21.5850   -4.6040   24.9640 C   0  0  0  0  0  0  0  0  0  0  0  0
  -22.0290   -4.0200   23.7650 C   0  0  0  0  0  3  0  0  0  0  0  0
  -22.1390   -4.8020   22.6030 C   0  0  0  0  0  0  0  0  0  0  0  0
  -22.5460   -4.2280   21.4440 F   0  0  0  0  0  0  0  0  0  0  0  0
  -21.4740   -3.8490   26.0830 F   0  0  0  0  0  0  0  0  0  0  0  0
  -22.8880  -13.5300   21.1620 C   0  0  0  0  0  0  0  0  0  0  0  0
  -22.2150  -12.8200   22.0600 N   0  0  0  0  0  0  0  0  0  0  0  0
  -22.4150  -14.5560   20.6760 O   0  0  0  0  0  0  0  0  0  0  0  0
  -22.6080  -11.9840   22.4660 H   0  0  0  0  0  0  0  0  0  0  0  0
  -21.2920  -13.1150   22.3460 H   0  0  0  0  0  0  0  0  0  0  0  0
  -25.4530  -15.2310   20.2290 N   0  0  0  0  0  0  0  0  0  0  0  0
  -24.6910  -15.8790   20.4090 H   0  0  0  0  0  0  0  0  0  0  0  0
  -26.2860  -15.6870   19.8790 H   0  0  0  0  0  0  0  0  0  0  0  0
  -27.6220  -23.0420   18.2430 C   0  0  0  0  0  2  0  0  0  0  0  0
  -29.6930  -24.3230   17.4040 C   0  0  0  0  0  1  0  0  0  0  0  0
  -28.5790  -23.3190   17.0720 C   0  0  0  0  0  2  0  0  0  0  0  0
  -27.9530  -24.8150   20.8250 C   0  0  0  0  0  2  0  0  0  0  0  0
  -28.3790  -26.2200   20.3690 O   0  0  0  0  0  0  0  0  0  0  0  0
  -24.6660  -31.8710   23.2230 C   0  0  0  0  0  0  0  0  0  0  0  0
  -27.3410  -27.2030   20.2810 C   0  0  0  0  0  0  0  0  0  0  0  0
  -23.5100  -30.4610   21.5660 C   0  0  0  0  0  3  0  0  0  0  0  0
  -24.9980  -28.8990   20.1800 C   0  0  0  0  0  0  0  0  0  0  0  0
  -26.0600  -30.7610   21.4440 C   0  0  0  0  0  2  0  0  0  0  0  0
  -26.1590  -29.3660   20.8120 C   0  0  0  0  0  0  0  0  0  0  0  0
  -27.3370  -28.5350   20.8500 C   0  0  0  0  0  3  0  0  0  0  0  0
  -26.1660  -26.8400   19.5890 C   0  0  0  0  0  3  0  0  0  0  0  0
  -25.0090  -27.6450   19.5550 C   0  0  0  0  0  3  0  0  0  0  0  0
  -23.7630  -29.7850   20.1940 C   0  0  0  0  0  2  0  0  0  0  0  0
  -24.7640  -31.0530   22.1320 N   0  0  0  0  0  0  0  0  0  0  0  0
  -23.5680  -32.1420   23.7330 O   0  0  0  0  0  0  0  0  0  0  0  0
  -22.8270  -29.4470   22.5190 C   0  0  0  0  0  0  0  0  0  0  0  0
  -21.5000  -29.2740   22.3850 N   0  0  0  0  0  0  0  0  0  0  0  0
  -23.4940  -28.8170   23.3450 O   0  0  0  0  0  0  0  0  0  0  0  0
  -21.0170  -29.8340   21.6960 H   0  0  0  0  0  0  0  0  0  0  0  0
  -18.1150  -28.0810   22.8660 C   0  0  0  0  0  0  0  0  0  0  0  0
  -20.6720  -28.3380   23.1490 C   0  0  0  0  0  3  0  0  0  0  0  0
  -20.7740  -26.9060   22.5750 C   0  0  0  0  0  2  0  0  0  0  0  0
  -19.6770  -26.5840   21.5540 C   0  0  0  0  0  2  0  0  0  0  0  0
  -18.2920  -26.7330   22.1860 C   0  0  0  0  0  2  0  0  0  0  0  0
  -19.2320  -28.8410   23.3040 C   0  0  0  0  0  0  0  0  0  0  0  0
  -19.0090  -30.1020   23.8960 C   0  0  0  0  0  3  0  0  0  0  0  0
  -17.7030  -30.6030   24.0550 C   0  0  0  0  0  3  0  0  0  0  0  0
  -16.6010  -29.8420   23.6300 C   0  0  0  0  0  3  0  0  0  0  0  0
  -16.8070  -28.5820   23.0410 C   0  0  0  0  0  3  0  0  0  0  0  0
  -25.9260  -32.5220   23.8680 C   0  0  0  0  0  3  0  0  0  0  0  0
  -25.5940  -33.9190   24.1900 N   0  0  0  0  0  0  0  0  0  0  0  0
  -25.9260  -34.9740   23.4360 C   0  0  0  0  0  0  0  0  0  0  0  0
  -26.6120  -34.8760   22.4150 O   0  0  0  0  0  0  0  0  0  0  0  0
  -24.9890  -34.0670   24.9850 H   0  0  0  0  0  0  0  0  0  0  0  0
  -24.1840  -36.7490   23.0540 C   0  0  0  0  0  1  0  0  0  0  0  0
  -25.4180  -36.3600   23.8840 C   0  0  0  0  0  3  0  0  0  0  0  0
  -27.5320  -37.2670   24.7420 C   0  0  0  0  0  1  0  0  0  0  0  0
  -26.4410  -37.4240   23.7850 N   0  0  0  0  0  0  0  0  0  0  0  0
  -26.0210  -38.3400   23.9280 H   0  0  0  0  0  0  0  0  0  0  0  0
  -26.4200  -31.7630   25.1600 C   0  0  1  0  0  0  0  0  0  0  0  0
  -25.3080  -31.5240   26.2080 C   0  0  0  0  0  1  0  0  0  0  0  0
  -27.0210  -30.3890   24.7910 C   0  0  0  0  0  1  0  0  0  0  0  0
  -27.5530  -32.5690   25.8390 C   0  0  0  0  0  1  0  0  0  0  0  0
  1  4  2  0
  1  3  1  0
  2  6  1  0
  3  9  1  0
  3  2  2  0
  4  5  1  0
  5 52  1  0
  5  6  2  0
  6  7  1  0
  8  7  1  0
 10 20  1  0
 10  9  2  0
 11 20  1  0
 12 17  1  0
 13 14  1  0
 13 12  1  0
 15 14  1  0
 15 24  1  0
 15 16  1  0
 17 11  1  0
 17 16  1  0
 18 11  2  0
 20 19  1  0
 21 22  2  0
 22 41  1  0
 23 22  1  0
 23 26  1  0
 24 25  1  0
 24 21  1  0
 25 23  2  0
 26 27  1  0
 27 28  2  0
 29 32  1  0
 29 28  1  0
 30 29  2  0
 31 30  1  0
 31 26  2  0
 32 33  1  0
 33 34  1  0
 34 35  2  0
 36 35  1  0
 36 40  1  0
 37 36  2  0
 38 33  2  0
 38 37  1  0
 39 38  1  0
 41 42  1  0
 42 45  1  0
 42 44  1  0
 43 41  2  0
 46 21  1  0
 46 47  1  0
 48 46  1  0
 49  4  1  0
 51 50  1  0
 51 49  1  0
 53 52  1  0
 54 65  2  0
 55 53  1  0
 55 60  1  0
 56 64  1  0
 56 66  1  0
 57 63  1  0
 57 59  1  0
 58 64  1  0
 59 60  2  0
 59 58  1  0
 61 55  2  0
 62 61  1  0
 62 57  2  0
 63 56  1  0
 64 54  1  0
 66 68  2  0
 67 66  1  0
 69 67  1  0
 70 79  2  0
 70 75  1  0
 71 67  1  0
 71 75  1  0
 72 71  1  0
 73 74  1  0
 73 72  1  0
 74 70  1  0
 75 76  2  0
 76 77  1  0
 78 77  2  0
 79 78  1  0
 80 54  1  0
 80 81  1  0
 80 90  1  0
 81 84  1  0
 82 86  1  0
 82 81  1  0
 83 82  2  0
 86 85  1  0
 88 86  1  0
 88 89  1  0
 88 87  1  0
 90 93  1  1
 90 91  1  0
 92 90  1  0
M  ISO  4  11 100  20 100  52 101  53 101
M  END
>  <TORSDO>  (91) 
F 22

>  <SCORE>  (91) 
-12.614

>  <name>  (91) 
91

>  <ligand_id>  (91) 
91

>  <original_smiles>  (91) 
[H]Oc1c([H])c(C([H])([H])C([H])([H])N(C(=O)N2C([H])([H])C([H])([H])C([H])([H])C([H])(n3nc(-c4c([H])c([H])c(Oc5c([H])c([H])c(F)c([H])c5F)c([H])c4[H])c(C(=O)N([H])[H])c3N([H])[H])C2([H])[H])C([H])([H])[H])c([H])c(C([H])([H])C([H])([H])C([H])([H])[H])c1C([H])([H])Oc1c([H])c([H])c2c(c1[H])C([H])([H])N(C(=O)C([H])(N([H])C(=O)C([H])(N([H])C([H])([H])[H])C([H])([H])[H])C(C([H])([H])[H])(C([H])([H])[H])C([H])([H])[H])C([H])(C(=O)N([H])C1([H])c3c([H])c([H])c([H])c([H])c3C([H])([H])C([H])([H])C1([H])[H])C2([H])[H]

>  <smiles>  (91) 
[H]Oc1c([H])c(C([H])([H])C([H])([H])N(C(=O)N2C([H])([H])C([H])([H])C([H])([H])C([H])(n3nc(-c4c([H])c([H])c(Oc5c([H])c([H])c(F)c([H])c5F)c([H])c4[H])c(C(=O)N([H])[H])c3N([H])[H])C2([H])[H])C([H])([H])[H])c([H])c(C([H])([H])C([H])([H])C([H])([H])[H])c1C([H])([H])Oc1c([H])c([H])c2c(c1[H])C([H])([H])N(C(=O)C([H])(N([H])C(=O)C([H])(N([H])C([H])([H])[H])C([H])([H])[H])C(C([H])([H])[H])(C([H])([H])[H])C([H])([H])[H])C([H])(C(=O)N([H])C1([H])c3c([H])c([H])c([H])c([H])c3C([H])([H])C([H])([H])C1([H])[H])C2([H])[H]

$$$$
92:0:0
     RDKit          3D

 94102  0  0  1  0  0  0  0  0999 V2000
  -26.5760  -23.4370   21.6430 C   0  0  0  0  0  3  0  0  0  0  0  0
  -26.2150  -22.4660   20.6900 C   0  0  0  0  0  3  0  0  0  0  0  0
  -27.4610  -24.4740   21.2920 C   0  0  0  0  0  3  0  0  0  0  0  0
  -27.6580  -23.5460   19.0460 C   0  0  0  0  0  3  0  0  0  0  0  0
  -26.7740  -22.5040   19.3910 C   0  0  0  0  0  0  0  0  0  0  0  0
  -27.9780  -24.5500   19.9810 C   0  0  0  0  0  0  0  0  0  0  0  0
  -26.4240  -21.4430   18.3570 C   0  0  0  0  0  2  0  0  0  0  0  0
  -26.6320  -20.0660   18.8420 N   0  0  0  0  0  4  0  0  0  0  0  0
  -26.4540  -19.4540   18.0630 H   0  0  0  0  0  0  0  0  0  0  0  0
  -25.9300  -19.8680   19.5370 H   0  0  0  0  0  0  0  0  0  0  0  0
  -27.9660  -19.7570   19.4020 C   0  0  0  0  0  2  0  0  0  0  0  0
  -28.0310  -18.2730   19.7870 C   0  0  0  0  0  2  0  0  0  0  0  0
  -29.3210  -17.8140   20.4910 C   0  0  0  0  0  2  0  0  0  0  0  0
  -29.2920  -16.2840   20.5610 C   0  0  0  0  0  2  0  0  0  0  0  0
  -31.0480  -14.6020   20.5770 C   0  0  0  0  0  0  0  0  0  0  0  0
  -30.7150  -12.4380   19.4470 C   0  0  0  0  0  2  0  0  0  0  0  0
  -29.8030  -12.5980   18.2150 C   0  0  0  0  0  2  0  0  0  0  0  0
  -28.3220  -12.4460   18.6120 C   0  0  0  0  0  2  0  0  0  0  0  0
  -27.9450  -13.3340   19.8230 C   0  0  0  0  0  3  0  0  0  0  0  0
  -28.9780  -13.1850   20.9710 C   0  0  0  0  0  2  0  0  0  0  0  0
  -30.3210  -13.4580   20.4300 N   0  0  0  0  0  0  0  0  0  0  0  0
  -32.1910  -14.7380   20.1440 O   0  0  0  0  0  0  0  0  0  0  0  0
  -30.4560  -15.6490   21.1710 N   0  0  0  0  0  0  0  0  0  0  0  0
  -31.1270  -16.3160   21.5260 H   0  0  0  0  0  0  0  0  0  0  0  0
  -25.5500  -14.0110   20.4700 C   0  0  0  0  0  0  0  0  0  0  0  0
  -24.4590  -13.2650   20.8220 C   0  0  0  0  0  0  0  0  0  0  0  0
  -24.8960  -11.9060   20.8180 C   0  0  0  0  0  0  0  0  0  0  0  0
  -26.5810  -13.1030   20.2760 N   0  0  0  0  0  0  0  0  0  0  0  0
  -26.1900  -11.8350   20.5460 N   0  0  0  0  0  0  0  0  0  0  0  0
  -24.1460  -10.6590   20.9980 C   0  0  0  0  0  0  0  0  0  0  0  0
  -24.5430   -9.6960   21.9520 C   0  0  0  0  0  3  0  0  0  0  0  0
  -23.7980   -8.5100   22.1190 C   0  0  0  0  0  3  0  0  0  0  0  0
  -22.6440   -8.2810   21.3330 C   0  0  0  0  0  0  0  0  0  0  0  0
  -22.2690   -9.2330   20.3680 C   0  0  0  0  0  3  0  0  0  0  0  0
  -23.0150  -10.4100   20.1990 C   0  0  0  0  0  3  0  0  0  0  0  0
  -21.8730   -7.1460   21.4100 O   0  0  0  0  0  0  0  0  0  0  0  0
  -21.7750   -6.4220   22.5690 C   0  0  0  0  0  0  0  0  0  0  0  0
  -21.3150   -6.9990   23.7730 C   0  0  0  0  0  3  0  0  0  0  0  0
  -21.1620   -6.2010   24.9240 C   0  0  0  0  0  3  0  0  0  0  0  0
  -21.4590   -4.8260   24.8720 C   0  0  0  0  0  0  0  0  0  0  0  0
  -21.9120   -4.2480   23.6730 C   0  0  0  0  0  3  0  0  0  0  0  0
  -22.0660   -5.0440   22.5240 C   0  0  0  0  0  0  0  0  0  0  0  0
  -22.4830   -4.4790   21.3670 F   0  0  0  0  0  0  0  0  0  0  0  0
  -21.3060   -4.0560   25.9750 F   0  0  0  0  0  0  0  0  0  0  0  0
  -23.0620  -13.7700   21.0480 C   0  0  0  0  0  0  0  0  0  0  0  0
  -22.3060  -13.1100   21.9180 N   0  0  0  0  0  0  0  0  0  0  0  0
  -22.6500  -14.7850   20.4890 O   0  0  0  0  0  0  0  0  0  0  0  0
  -22.6520  -12.2880   22.3920 H   0  0  0  0  0  0  0  0  0  0  0  0
  -21.3690  -13.4290   22.1120 H   0  0  0  0  0  0  0  0  0  0  0  0
  -25.7380  -15.3760   20.2730 N   0  0  0  0  0  0  0  0  0  0  0  0
  -24.9680  -16.0330   20.3360 H   0  0  0  0  0  0  0  0  0  0  0  0
  -26.5880  -15.7850   19.9100 H   0  0  0  0  0  0  0  0  0  0  0  0
  -28.8310  -25.7300   19.5400 C   0  0  0  0  0  2  0  0  0  0  0  0
  -28.6230  -26.9240   20.2910 O   0  0  0  0  0  0  0  0  0  0  0  0
  -24.6210  -31.9430   23.2960 C   0  0  0  0  0  0  0  0  0  0  0  0
  -27.4020  -27.5700   20.2460 C   0  0  0  0  0  0  0  0  0  0  0  0
  -23.4640  -30.5200   21.6360 C   0  0  0  0  0  3  0  0  0  0  0  0
  -24.9650  -29.0090   20.2360 C   0  0  0  0  0  0  0  0  0  0  0  0
  -25.9830  -30.9240   21.4810 C   0  0  0  0  0  2  0  0  0  0  0  0
  -26.1010  -29.5550   20.8480 C   0  0  0  0  0  0  0  0  0  0  0  0
  -27.3130  -28.8360   20.8640 C   0  0  0  0  0  3  0  0  0  0  0  0
  -26.2480  -27.0380   19.6230 C   0  0  0  0  0  3  0  0  0  0  0  0
  -25.0310  -27.7440   19.6290 C   0  0  0  0  0  3  0  0  0  0  0  0
  -23.7060  -29.8410   20.2610 C   0  0  0  0  0  2  0  0  0  0  0  0
  -24.7050  -31.1440   22.1960 N   0  0  0  0  0  0  0  0  0  0  0  0
  -23.5280  -32.1980   23.8200 O   0  0  0  0  0  0  0  0  0  0  0  0
  -22.8160  -29.4880   22.5870 C   0  0  0  0  0  0  0  0  0  0  0  0
  -21.4960  -29.2920   22.4450 N   0  0  0  0  0  0  0  0  0  0  0  0
  -23.4980  -28.8660   23.4060 O   0  0  0  0  0  0  0  0  0  0  0  0
  -21.0060  -29.8470   21.7580 H   0  0  0  0  0  0  0  0  0  0  0  0
  -18.1210  -28.0970   22.9300 C   0  0  0  0  0  0  0  0  0  0  0  0
  -20.6790  -28.3460   23.2040 C   0  0  0  0  0  3  0  0  0  0  0  0
  -20.7790  -26.9230   22.6070 C   0  0  0  0  0  2  0  0  0  0  0  0
  -19.6750  -26.6170   21.5890 C   0  0  0  0  0  2  0  0  0  0  0  0
  -18.2950  -26.7570   22.2370 C   0  0  0  0  0  2  0  0  0  0  0  0
  -19.2420  -28.8510   23.3700 C   0  0  0  0  0  0  0  0  0  0  0  0
  -19.0290  -30.1080   23.9770 C   0  0  0  0  0  3  0  0  0  0  0  0
  -17.7250  -30.6110   24.1490 C   0  0  0  0  0  3  0  0  0  0  0  0
  -16.6180  -29.8540   23.7270 C   0  0  0  0  0  3  0  0  0  0  0  0
  -16.8180  -28.5990   23.1230 C   0  0  0  0  0  3  0  0  0  0  0  0
  -25.8890  -32.5930   23.9350 C   0  0  0  0  0  3  0  0  0  0  0  0
  -25.5610  -33.9920   24.2400 N   0  0  0  0  0  0  0  0  0  0  0  0
  -25.9070  -35.0370   23.4760 C   0  0  0  0  0  0  0  0  0  0  0  0
  -26.6090  -34.9250   22.4660 O   0  0  0  0  0  0  0  0  0  0  0  0
  -24.9430  -34.1530   25.0210 H   0  0  0  0  0  0  0  0  0  0  0  0
  -24.1790  -36.8100   23.0380 C   0  0  0  0  0  1  0  0  0  0  0  0
  -25.3950  -36.4260   23.8980 C   0  0  0  0  0  3  0  0  0  0  0  0
  -27.4930  -37.3370   24.7900 C   0  0  0  0  0  1  0  0  0  0  0  0
  -26.4220  -37.4870   23.8080 N   0  0  0  0  0  0  0  0  0  0  0  0
  -26.0040  -38.4050   23.9310 H   0  0  0  0  0  0  0  0  0  0  0  0
  -26.3880  -31.8420   25.2300 C   0  0  1  0  0  0  0  0  0  0  0  0
  -25.2740  -31.5950   26.2740 C   0  0  0  0  0  1  0  0  0  0  0  0
  -27.0030  -30.4720   24.8620 C   0  0  0  0  0  1  0  0  0  0  0  0
  -27.5100  -32.6600   25.9120 C   0  0  0  0  0  1  0  0  0  0  0  0
  2  1  2  0
  3  1  1  0
  4  5  2  0
  4  6  1  0
  5  2  1  0
  6  3  2  0
  7  8  1  0
  7  5  1  0
  8 11  1  0
  8 10  1  0
  9  8  1  0
 11 12  1  0
 12 13  1  0
 13 14  1  0
 14 23  1  0
 15 23  1  0
 16 21  1  0
 17 18  1  0
 17 16  1  0
 19 18  1  0
 19 28  1  0
 19 20  1  0
 21 15  1  0
 21 20  1  0
 22 15  2  0
 23 24  1  0
 25 26  2  0
 26 45  1  0
 27 26  1  0
 27 30  1  0
 28 25  1  0
 28 29  1  0
 29 27  2  0
 30 31  1  0
 31 32  2  0
 33 36  1  0
 33 32  1  0
 34 33  2  0
 35 34  1  0
 35 30  2  0
 36 37  1  0
 37 38  1  0
 38 39  2  0
 40 39  1  0
 40 44  1  0
 41 40  2  0
 42 37  2  0
 42 41  1  0
 43 42  1  0
 45 46  1  0
 46 49  1  0
 46 48  1  0
 47 45  2  0
 50 51  1  0
 50 25  1  0
 52 50  1  0
 53  6  1  0
 53 54  1  0
 55 66  2  0
 56 54  1  0
 56 61  1  0
 57 65  1  0
 57 67  1  0
 58 64  1  0
 58 60  1  0
 59 65  1  0
 60 61  2  0
 60 59  1  0
 62 63  1  0
 62 56  2  0
 63 58  2  0
 64 57  1  0
 65 55  1  0
 67 69  2  0
 68 67  1  0
 70 68  1  0
 71 80  2  0
 71 76  1  0
 72 68  1  0
 72 76  1  0
 73 72  1  0
 74 75  1  0
 74 73  1  0
 75 71  1  0
 76 77  2  0
 77 78  1  0
 79 78  2  0
 80 79  1  0
 81 55  1  0
 81 82  1  0
 81 91  1  0
 82 85  1  0
 83 87  1  0
 83 82  1  0
 84 83  2  0
 87 86  1  0
 89 87  1  0
 89 90  1  0
 89 88  1  0
 91 94  1  1
 91 92  1  0
 93 91  1  0
M  ISO  4  15 100  23 100  53 101  54 101
M  END
>  <TORSDO>  (92) 
F 23

>  <SCORE>  (92) 
-12.714

>  <name>  (92) 
92

>  <ligand_id>  (92) 
92

>  <original_smiles>  (92) 
[H]c1c([H])c([H])c2c(c1[H])C([H])([H])C([H])([H])C([H])([H])C2([H])N([H])C(=O)C1([H])N(C(=O)C([H])(N([H])C(=O)C([H])(N([H])C([H])([H])[H])C([H])([H])[H])C(C([H])([H])[H])(C([H])([H])[H])C([H])([H])[H])C([H])([H])c2c([H])c(OC([H])([H])c3c([H])c([H])c([H])c(C([H])([H])[N+]([H])([H])C([H])([H])C([H])([H])C([H])([H])C([H])([H])N([H])C(=O)N4C([H])([H])C([H])([H])C([H])([H])C([H])(n5nc(-c6c([H])c([H])c(Oc7c([H])c([H])c(F)c([H])c7F)c([H])c6[H])c(C(=O)N([H])[H])c5N([H])[H])C4([H])[H])c3[H])c([H])c([H])c2C1([H])[H]

>  <smiles>  (92) 
[H]c1c([H])c([H])c2c(c1[H])C([H])([H])C([H])([H])C([H])([H])C2([H])N([H])C(=O)C1([H])N(C(=O)C([H])(N([H])C(=O)C([H])(N([H])C([H])([H])[H])C([H])([H])[H])C(C([H])([H])[H])(C([H])([H])[H])C([H])([H])[H])C([H])([H])c2c([H])c(OC([H])([H])c3c([H])c([H])c([H])c(C([H])([H])[N+]([H])([H])C([H])([H])C([H])([H])C([H])([H])C([H])([H])N([H])C(=O)N4C([H])([H])C([H])([H])C([H])([H])C([H])(n5nc(-c6c([H])c([H])c(Oc7c([H])c([H])c(F)c([H])c7F)c([H])c6[H])c(C(=O)N([H])[H])c5N([H])[H])C4([H])[H])c3[H])c([H])c([H])c2C1([H])[H]

$$$$
93:0:0
     RDKit          3D

 91 99  0  0  1  0  0  0  0  0999 V2000
  -28.4600  -23.8690   22.9000 C   0  0  0  0  0  2  0  0  0  0  0  0
  -28.2530  -22.5970   22.0420 C   0  0  0  0  0  2  0  0  0  0  0  0
  -28.8090  -25.1490   22.1060 C   0  0  0  0  0  2  0  0  0  0  0  0
  -28.7590  -23.8880   19.8970 C   0  0  0  0  0  2  0  0  0  0  0  0
  -29.1140  -22.5720   20.7600 C   0  0  0  0  0  3  0  0  0  0  0  0
  -28.2000  -25.1630   20.6990 C   0  0  0  0  0  3  0  0  0  0  0  0
  -29.0370  -21.2090   20.0630 N   0  0  0  0  0  4  0  0  0  0  0  0
  -29.3850  -21.3260   19.1240 H   0  0  0  0  0  0  0  0  0  0  0  0
  -28.0660  -20.9560   19.9810 H   0  0  0  0  0  0  0  0  0  0  0  0
  -29.8000  -20.0230   20.6610 C   0  0  0  0  0  2  0  0  0  0  0  0
  -29.4270  -18.5250   20.1970 C   0  0  0  0  0  3  0  0  0  0  0  0
  -30.3560  -17.3230   20.7210 C   0  0  0  0  0  3  0  0  0  0  0  0
  -30.6700  -14.7630   20.3180 C   0  0  0  0  0  0  0  0  0  0  0  0
  -30.4430  -12.5120   19.2830 C   0  0  0  0  0  2  0  0  0  0  0  0
  -29.5020  -12.6120   18.0640 C   0  0  0  0  0  2  0  0  0  0  0  0
  -28.0310  -12.4570   18.4960 C   0  0  0  0  0  2  0  0  0  0  0  0
  -27.6680  -13.3400   19.7220 C   0  0  0  0  0  3  0  0  0  0  0  0
  -28.7270  -13.2200   20.8380 C   0  0  0  0  0  2  0  0  0  0  0  0
  -30.0270  -13.5540   20.2430 N   0  0  0  0  0  0  0  0  0  0  0  0
  -31.8550  -14.8690   19.9930 O   0  0  0  0  0  0  0  0  0  0  0  0
  -29.9050  -15.8820   20.5670 N   0  0  0  0  0  0  0  0  0  0  0  0
  -28.9290  -15.6990   20.7420 H   0  0  0  0  0  0  0  0  0  0  0  0
  -25.2800  -13.9460   20.4410 C   0  0  0  0  0  0  0  0  0  0  0  0
  -24.2120  -13.1780   20.8160 C   0  0  0  0  0  0  0  0  0  0  0  0
  -24.6710  -11.8260   20.7970 C   0  0  0  0  0  0  0  0  0  0  0  0
  -26.3210  -13.0610   20.2120 N   0  0  0  0  0  0  0  0  0  0  0  0
  -25.9620  -11.7820   20.4890 N   0  0  0  0  0  0  0  0  0  0  0  0
  -23.9420  -10.5670   20.9970 C   0  0  0  0  0  0  0  0  0  0  0  0
  -24.3740   -9.6020   21.9330 C   0  0  0  0  0  3  0  0  0  0  0  0
  -23.6460   -8.4080   22.1210 C   0  0  0  0  0  3  0  0  0  0  0  0
  -22.4690   -8.1700   21.3710 C   0  0  0  0  0  0  0  0  0  0  0  0
  -22.0550   -9.1220   20.4230 C   0  0  0  0  0  3  0  0  0  0  0  0
  -22.7850  -10.3080   20.2340 C   0  0  0  0  0  3  0  0  0  0  0  0
  -21.7110   -7.0280   21.4670 O   0  0  0  0  0  0  0  0  0  0  0  0
  -21.6680   -6.2880   22.6210 C   0  0  0  0  0  0  0  0  0  0  0  0
  -21.2580   -6.8480   23.8500 C   0  0  0  0  0  3  0  0  0  0  0  0
  -21.1610   -6.0350   24.9980 C   0  0  0  0  0  3  0  0  0  0  0  0
  -21.4640   -4.6620   24.9150 C   0  0  0  0  0  0  0  0  0  0  0  0
  -21.8690   -4.1020   23.6910 C   0  0  0  0  0  3  0  0  0  0  0  0
  -21.9670   -4.9120   22.5470 C   0  0  0  0  0  0  0  0  0  0  0  0
  -22.3360   -4.3630   21.3650 F   0  0  0  0  0  0  0  0  0  0  0  0
  -21.3650   -3.8800   26.0160 F   0  0  0  0  0  0  0  0  0  0  0  0
  -22.8150  -13.6610   21.0790 C   0  0  0  0  0  0  0  0  0  0  0  0
  -22.0820  -12.9740   21.9490 N   0  0  0  0  0  0  0  0  0  0  0  0
  -22.3810  -14.6830   20.5490 O   0  0  0  0  0  0  0  0  0  0  0  0
  -22.4460  -12.1490   22.4010 H   0  0  0  0  0  0  0  0  0  0  0  0
  -21.1450  -13.2790   22.1670 H   0  0  0  0  0  0  0  0  0  0  0  0
  -25.4450  -15.3150   20.2520 N   0  0  0  0  0  0  0  0  0  0  0  0
  -24.6750  -15.9660   20.3560 H   0  0  0  0  0  0  0  0  0  0  0  0
  -26.2840  -15.7490   19.8890 H   0  0  0  0  0  0  0  0  0  0  0  0
  -28.3670  -26.5410   20.1570 O   0  0  0  0  0  0  0  0  0  0  0  0
  -24.6280  -31.9100   23.2500 C   0  0  0  0  0  0  0  0  0  0  0  0
  -27.2490  -27.3890   20.1600 C   0  0  0  0  0  0  0  0  0  0  0  0
  -23.4230  -30.5170   21.6050 C   0  0  0  0  0  3  0  0  0  0  0  0
  -24.8760  -28.9810   20.1640 C   0  0  0  0  0  0  0  0  0  0  0  0
  -25.9580  -30.8530   21.4090 C   0  0  0  0  0  2  0  0  0  0  0  0
  -26.0440  -29.4780   20.7570 C   0  0  0  0  0  0  0  0  0  0  0  0
  -27.2370  -28.6950   20.7420 C   0  0  0  0  0  3  0  0  0  0  0  0
  -26.0620  -26.9450   19.5410 C   0  0  0  0  0  3  0  0  0  0  0  0
  -24.8860  -27.7210   19.5460 C   0  0  0  0  0  3  0  0  0  0  0  0
  -23.6350  -29.8480   20.2210 C   0  0  0  0  0  2  0  0  0  0  0  0
  -24.6880  -31.1120   22.1450 N   0  0  0  0  0  0  0  0  0  0  0  0
  -23.5460  -32.1770   23.7940 O   0  0  0  0  0  0  0  0  0  0  0  0
  -22.7710  -29.4910   22.5640 C   0  0  0  0  0  0  0  0  0  0  0  0
  -21.4450  -29.3110   22.4450 N   0  0  0  0  0  0  0  0  0  0  0  0
  -23.4580  -28.8610   23.3710 O   0  0  0  0  0  0  0  0  0  0  0  0
  -20.9490  -29.8720   21.7670 H   0  0  0  0  0  0  0  0  0  0  0  0
  -18.0760  -28.0970   22.9540 C   0  0  0  0  0  0  0  0  0  0  0  0
  -20.6340  -28.3650   23.2120 C   0  0  0  0  0  3  0  0  0  0  0  0
  -20.7390  -26.9370   22.6260 C   0  0  0  0  0  2  0  0  0  0  0  0
  -19.6320  -26.6180   21.6150 C   0  0  0  0  0  2  0  0  0  0  0  0
  -18.2530  -26.7540   22.2670 C   0  0  0  0  0  2  0  0  0  0  0  0
  -19.1930  -28.8600   23.3840 C   0  0  0  0  0  0  0  0  0  0  0  0
  -18.9720  -30.1180   23.9860 C   0  0  0  0  0  3  0  0  0  0  0  0
  -17.6670  -30.6140   24.1630 C   0  0  0  0  0  3  0  0  0  0  0  0
  -16.5640  -29.8480   23.7490 C   0  0  0  0  0  3  0  0  0  0  0  0
  -16.7680  -28.5910   23.1510 C   0  0  0  0  0  3  0  0  0  0  0  0
  -25.9110  -32.5440   23.8720 C   0  0  0  0  0  3  0  0  0  0  0  0
  -26.4370  -31.7670   25.1420 C   0  0  1  0  0  0  0  0  0  0  0  0
  -25.3490  -31.5190   26.2140 C   0  0  0  0  0  1  0  0  0  0  0  0
  -27.0220  -30.3940   24.7370 C   0  0  0  0  0  1  0  0  0  0  0  0
  -27.5880  -32.5600   25.8040 C   0  0  0  0  0  1  0  0  0  0  0  0
  -25.5970  -33.9390   24.2140 N   0  0  0  0  0  0  0  0  0  0  0  0
  -25.9230  -35.0000   23.4620 C   0  0  0  0  0  0  0  0  0  0  0  0
  -26.5880  -34.9060   22.4260 O   0  0  0  0  0  0  0  0  0  0  0  0
  -25.0090  -34.0860   25.0200 H   0  0  0  0  0  0  0  0  0  0  0  0
  -24.1870  -36.7890   23.1280 C   0  0  0  0  0  1  0  0  0  0  0  0
  -25.4330  -36.3830   23.9320 C   0  0  0  0  0  3  0  0  0  0  0  0
  -27.5690  -37.2680   24.7590 C   0  0  0  0  0  1  0  0  0  0  0  0
  -26.4610  -37.4410   23.8220 N   0  0  0  0  0  0  0  0  0  0  0  0
  -26.0520  -38.3580   23.9790 H   0  0  0  0  0  0  0  0  0  0  0  0
  2  1  1  0
  3  1  1  0
  4  6  1  0
  4  5  1  0
  5  7  1  0
  5  2  1  0
  6 51  1  0
  6  3  1  0
  7 10  1  0
  8  7  1  0
  9  7  1  0
 11 10  1  0
 11 12  2  0
 13 21  1  0
 14 19  1  0
 15 16  1  0
 15 14  1  0
 17 16  1  0
 17 26  1  0
 17 18  1  0
 19 13  1  0
 19 18  1  0
 20 13  2  0
 21 12  1  0
 21 22  1  0
 23 24  2  0
 24 43  1  0
 25 24  1  0
 25 28  1  0
 26 23  1  0
 26 27  1  0
 27 25  2  0
 28 29  1  0
 29 30  2  0
 31 34  1  0
 31 30  1  0
 32 31  2  0
 33 32  1  0
 33 28  2  0
 34 35  1  0
 35 36  1  0
 36 37  2  0
 38 37  1  0
 38 42  1  0
 39 38  2  0
 40 35  2  0
 40 39  1  0
 41 40  1  0
 43 44  1  0
 44 47  1  0
 44 46  1  0
 45 43  2  0
 48 49  1  0
 48 23  1  0
 50 48  1  0
 51 53  1  0
 52 63  2  0
 53 58  1  0
 54 62  1  0
 54 64  1  0
 55 61  1  0
 55 57  1  0
 56 62  1  0
 57 56  1  0
 58 57  2  0
 59 60  1  0
 59 53  2  0
 60 55  2  0
 61 54  1  0
 62 52  1  0
 64 66  2  0
 65 64  1  0
 67 65  1  0
 68 77  2  0
 68 73  1  0
 69 65  1  0
 69 73  1  0
 70 69  1  0
 71 72  1  0
 71 70  1  0
 72 68  1  0
 73 74  2  0
 74 75  1  0
 76 75  2  0
 77 76  1  0
 78 52  1  0
 78 83  1  0
 78 79  1  0
 79 82  1  1
 79 80  1  0
 81 79  1  0
 83 86  1  0
 84 88  1  0
 84 83  1  0
 85 84  2  0
 88 87  1  0
 90 88  1  0
 90 91  1  0
 90 89  1  0
M  ISO  4   6 101  13 100  21 100  51 101
M  END
>  <TORSDO>  (93) 
F 20

>  <SCORE>  (93) 
-13.316

>  <name>  (93) 
93

>  <ligand_id>  (93) 
93

>  <original_smiles>  (93) 
[H]c1c([H])c([H])c2c(c1[H])C([H])([H])C([H])([H])C([H])([H])C2([H])N([H])C(=O)C1([H])N(C(=O)C([H])(N([H])C(=O)C([H])(N([H])C([H])([H])[H])C([H])([H])[H])C(C([H])([H])[H])(C([H])([H])[H])C([H])([H])[H])C([H])([H])c2c([H])c(OC3([H])C([H])([H])C([H])([H])C([H])([H])C([H])([N+]([H])([H])C([H])([H])C([H])([H])C([H])([H])N([H])C(=O)N4C([H])([H])C([H])([H])C([H])([H])C([H])(n5nc(-c6c([H])c([H])c(Oc7c([H])c([H])c(F)c([H])c7F)c([H])c6[H])c(C(=O)N([H])[H])c5N([H])[H])C4([H])[H])C3([H])[H])c([H])c([H])c2C1([H])[H]

>  <smiles>  (93) 
[H]c1c([H])c([H])c2c(c1[H])C([H])([H])C([H])([H])C([H])([H])C2([H])N([H])C(=O)C1([H])N(C(=O)C([H])(N([H])C(=O)C([H])(N([H])C([H])([H])[H])C([H])([H])[H])C(C([H])([H])[H])(C([H])([H])[H])C([H])([H])[H])C([H])([H])c2c([H])c(OC3([H])C([H])([H])C([H])([H])C([H])([H])C([H])([N+]([H])([H])C([H])([H])C([H])([H])C([H])([H])N([H])C(=O)N4C([H])([H])C([H])([H])C([H])([H])C([H])(n5nc(-c6c([H])c([H])c(Oc7c([H])c([H])c(F)c([H])c7F)c([H])c6[H])c(C(=O)N([H])[H])c5N([H])[H])C4([H])[H])C3([H])[H])c([H])c([H])c2C1([H])[H]

$$$$
94:0:0
     RDKit          3D

 94102  0  0  1  0  0  0  0  0999 V2000
  -29.0570  -23.7750   18.1610 C   0  0  0  0  0  3  0  0  0  0  0  0
  -29.2130  -22.4740   18.7220 C   0  0  0  0  0  0  0  0  0  0  0  0
  -29.0020  -24.7680   19.1000 C   0  0  0  0  0  0  0  0  0  0  0  0
  -29.3220  -22.4930   20.0990 C   0  0  0  0  0  0  0  0  0  0  0  0
  -29.5330  -21.3610   21.0560 C   0  0  0  0  0  1  0  0  0  0  0  0
  -29.1820  -24.1190   20.7110 S   0  0  0  0  0  0  0  0  0  0  0  0
  -29.2550  -21.2530   17.8780 C   0  0  0  0  0  0  0  0  0  0  0  0
  -28.5040  -20.2630   18.3550 N   0  0  0  0  0  0  0  0  0  0  0  0
  -29.8600  -21.1940   16.8050 O   0  0  0  0  0  0  0  0  0  0  0  0
  -28.0110  -20.4570   19.2140 H   0  0  0  0  0  0  0  0  0  0  0  0
  -28.2720  -18.9840   17.7200 C   0  0  0  0  0  2  0  0  0  0  0  0
  -27.9650  -17.9210   18.7750 C   0  0  0  0  0  2  0  0  0  0  0  0
  -29.1490  -17.5750   19.7090 C   0  0  0  0  0  2  0  0  0  0  0  0
  -28.9870  -16.1260   20.1700 C   0  0  0  0  0  2  0  0  0  0  0  0
  -30.7060  -14.4690   20.5670 C   0  0  0  0  0  0  0  0  0  0  0  0
  -30.3630  -12.3070   19.4420 C   0  0  0  0  0  2  0  0  0  0  0  0
  -29.4370  -12.4740   18.2210 C   0  0  0  0  0  2  0  0  0  0  0  0
  -27.9620  -12.3060   18.6420 C   0  0  0  0  0  2  0  0  0  0  0  0
  -27.5860  -13.1770   19.8660 C   0  0  0  0  0  3  0  0  0  0  0  0
  -28.6430  -13.0570   20.9950 C   0  0  0  0  0  2  0  0  0  0  0  0
  -29.9780  -13.3240   20.4290 N   0  0  0  0  0  0  0  0  0  0  0  0
  -31.8700  -14.5860   20.1920 O   0  0  0  0  0  0  0  0  0  0  0  0
  -30.0580  -15.5650   20.9880 N   0  0  0  0  0  0  0  0  0  0  0  0
  -30.6850  -16.2690   21.3480 H   0  0  0  0  0  0  0  0  0  0  0  0
  -25.1990  -13.8250   20.5560 C   0  0  0  0  0  0  0  0  0  0  0  0
  -24.1230  -13.0630   20.9220 C   0  0  0  0  0  0  0  0  0  0  0  0
  -24.5820  -11.7110   20.9110 C   0  0  0  0  0  0  0  0  0  0  0  0
  -26.2380  -12.9280   20.3460 N   0  0  0  0  0  0  0  0  0  0  0  0
  -25.8720  -11.6550   20.6190 N   0  0  0  0  0  0  0  0  0  0  0  0
  -23.8540  -10.4530   21.0990 C   0  0  0  0  0  0  0  0  0  0  0  0
  -24.2950   -9.4790   22.0200 C   0  0  0  0  0  3  0  0  0  0  0  0
  -23.5690   -8.2810   22.1940 C   0  0  0  0  0  3  0  0  0  0  0  0
  -22.3870   -8.0550   21.4490 C   0  0  0  0  0  0  0  0  0  0  0  0
  -21.9660   -9.0190   20.5160 C   0  0  0  0  0  3  0  0  0  0  0  0
  -22.6950  -10.2070   20.3380 C   0  0  0  0  0  3  0  0  0  0  0  0
  -21.6300   -6.9130   21.5360 O   0  0  0  0  0  0  0  0  0  0  0  0
  -21.6120   -6.1500   22.6750 C   0  0  0  0  0  0  0  0  0  0  0  0
  -21.2450   -6.6880   23.9280 C   0  0  0  0  0  3  0  0  0  0  0  0
  -21.1690   -5.8510   25.0590 C   0  0  0  0  0  3  0  0  0  0  0  0
  -21.4540   -4.4780   24.9380 C   0  0  0  0  0  0  0  0  0  0  0  0
  -21.8170   -3.9400   23.6900 C   0  0  0  0  0  3  0  0  0  0  0  0
  -21.8930   -4.7730   22.5620 C   0  0  0  0  0  0  0  0  0  0  0  0
  -22.2190   -4.2470   21.3570 F   0  0  0  0  0  0  0  0  0  0  0  0
  -21.3740   -3.6710   26.0220 F   0  0  0  0  0  0  0  0  0  0  0  0
  -22.7230  -13.5470   21.1680 C   0  0  0  0  0  0  0  0  0  0  0  0
  -21.9800  -12.8620   22.0310 N   0  0  0  0  0  0  0  0  0  0  0  0
  -22.2940  -14.5680   20.6310 O   0  0  0  0  0  0  0  0  0  0  0  0
  -22.3360  -12.0350   22.4870 H   0  0  0  0  0  0  0  0  0  0  0  0
  -21.0430  -13.1730   22.2400 H   0  0  0  0  0  0  0  0  0  0  0  0
  -25.3660  -15.1930   20.3620 N   0  0  0  0  0  0  0  0  0  0  0  0
  -24.6070  -15.8580   20.4750 H   0  0  0  0  0  0  0  0  0  0  0  0
  -26.2150  -15.6220   20.0180 H   0  0  0  0  0  0  0  0  0  0  0  0
  -28.8480  -26.2290   18.8400 C   0  0  0  0  0  2  0  0  0  0  0  0
  -28.4690  -26.8450   20.0650 O   0  0  0  0  0  0  0  0  0  0  0  0
  -24.6270  -31.8830   23.2240 C   0  0  0  0  0  0  0  0  0  0  0  0
  -27.2600  -27.4930   20.0930 C   0  0  0  0  0  0  0  0  0  0  0  0
  -23.4020  -30.4770   21.5930 C   0  0  0  0  0  3  0  0  0  0  0  0
  -24.8430  -28.9390   20.1560 C   0  0  0  0  0  0  0  0  0  0  0  0
  -25.9180  -30.8520   21.3650 C   0  0  0  0  0  2  0  0  0  0  0  0
  -26.0000  -29.4800   20.7330 C   0  0  0  0  0  0  0  0  0  0  0  0
  -27.2050  -28.7530   20.7160 C   0  0  0  0  0  3  0  0  0  0  0  0
  -26.0860  -26.9410   19.5350 C   0  0  0  0  0  3  0  0  0  0  0  0
  -24.8770  -27.6640   19.5640 C   0  0  0  0  0  3  0  0  0  0  0  0
  -23.5960  -29.7880   20.2130 C   0  0  0  0  0  2  0  0  0  0  0  0
  -24.6680  -31.0850   22.1190 N   0  0  0  0  0  0  0  0  0  0  0  0
  -23.5520  -32.1520   23.7790 O   0  0  0  0  0  0  0  0  0  0  0  0
  -22.7650  -29.4570   22.5620 C   0  0  0  0  0  0  0  0  0  0  0  0
  -21.4400  -29.2730   22.4480 N   0  0  0  0  0  0  0  0  0  0  0  0
  -23.4590  -28.8310   23.3670 O   0  0  0  0  0  0  0  0  0  0  0  0
  -20.9430  -29.8300   21.7670 H   0  0  0  0  0  0  0  0  0  0  0  0
  -18.0720  -28.0750   22.9660 C   0  0  0  0  0  0  0  0  0  0  0  0
  -20.6310  -28.3360   23.2250 C   0  0  0  0  0  3  0  0  0  0  0  0
  -20.7330  -26.9040   22.6490 C   0  0  0  0  0  2  0  0  0  0  0  0
  -19.6260  -26.5770   21.6420 C   0  0  0  0  0  2  0  0  0  0  0  0
  -18.2480  -26.7230   22.2930 C   0  0  0  0  0  2  0  0  0  0  0  0
  -19.1920  -28.8400   23.3880 C   0  0  0  0  0  0  0  0  0  0  0  0
  -18.9740  -30.1060   23.9740 C   0  0  0  0  0  3  0  0  0  0  0  0
  -17.6710  -30.6060   24.1420 C   0  0  0  0  0  3  0  0  0  0  0  0
  -16.5650  -29.8380   23.7370 C   0  0  0  0  0  3  0  0  0  0  0  0
  -16.7670  -28.5740   23.1560 C   0  0  0  0  0  3  0  0  0  0  0  0
  -25.9230  -32.5110   23.8280 C   0  0  0  0  0  3  0  0  0  0  0  0
  -25.6160  -33.9050   24.1770 N   0  0  0  0  0  0  0  0  0  0  0  0
  -25.9360  -34.9640   23.4230 C   0  0  0  0  0  0  0  0  0  0  0  0
  -26.5930  -34.8710   22.3800 O   0  0  0  0  0  0  0  0  0  0  0  0
  -25.0360  -34.0490   24.9910 H   0  0  0  0  0  0  0  0  0  0  0  0
  -24.1990  -36.7520   23.1040 C   0  0  0  0  0  1  0  0  0  0  0  0
  -25.4510  -36.3460   23.8980 C   0  0  0  0  0  3  0  0  0  0  0  0
  -27.5940  -37.2260   24.7080 C   0  0  0  0  0  1  0  0  0  0  0  0
  -26.4780  -37.4020   23.7820 N   0  0  0  0  0  0  0  0  0  0  0  0
  -26.0720  -38.3200   23.9470 H   0  0  0  0  0  0  0  0  0  0  0  0
  -26.4680  -31.7280   25.0850 C   0  0  1  0  0  0  0  0  0  0  0  0
  -25.3960  -31.4760   26.1710 C   0  0  0  0  0  1  0  0  0  0  0  0
  -27.0470  -30.3580   24.6620 C   0  0  0  0  0  1  0  0  0  0  0  0
  -27.6280  -32.5190   25.7330 C   0  0  0  0  0  1  0  0  0  0  0  0
  1  2  1  0
  1  3  2  0
  2  4  2  0
  3  6  1  0
  4  6  1  0
  4  5  1  0
  7  8  1  0
  7  2  1  0
  8 10  1  0
  9  7  2  0
 11  8  1  0
 11 12  1  0
 12 13  1  0
 13 14  1  0
 14 23  1  0
 15 23  1  0
 16 21  1  0
 17 18  1  0
 17 16  1  0
 19 18  1  0
 19 28  1  0
 19 20  1  0
 21 15  1  0
 21 20  1  0
 22 15  2  0
 23 24  1  0
 25 26  2  0
 26 45  1  0
 27 26  1  0
 27 30  1  0
 28 25  1  0
 28 29  1  0
 29 27  2  0
 30 31  1  0
 31 32  2  0
 33 36  1  0
 33 32  1  0
 34 33  2  0
 35 34  1  0
 35 30  2  0
 36 37  1  0
 37 38  1  0
 38 39  2  0
 40 39  1  0
 40 44  1  0
 41 40  2  0
 42 37  2  0
 42 41  1  0
 43 42  1  0
 45 46  1  0
 46 49  1  0
 46 48  1  0
 47 45  2  0
 50 51  1  0
 50 25  1  0
 52 50  1  0
 53  3  1  0
 53 54  1  0
 54 56  1  0
 55 66  2  0
 56 61  1  0
 57 65  1  0
 57 67  1  0
 58 64  1  0
 58 60  1  0
 59 65  1  0
 60 59  1  0
 61 60  2  0
 62 63  1  0
 62 56  2  0
 63 58  2  0
 64 57  1  0
 65 55  1  0
 67 69  2  0
 68 67  1  0
 70 68  1  0
 71 80  2  0
 71 76  1  0
 72 68  1  0
 72 76  1  0
 73 72  1  0
 74 75  1  0
 74 73  1  0
 75 71  1  0
 76 77  2  0
 77 78  1  0
 79 78  2  0
 80 79  1  0
 81 55  1  0
 81 82  1  0
 81 91  1  0
 82 85  1  0
 83 87  1  0
 83 82  1  0
 84 83  2  0
 87 86  1  0
 89 87  1  0
 89 90  1  0
 89 88  1  0
 91 94  1  1
 91 92  1  0
 93 91  1  0
M  ISO  4  15 100  23 100  53 101  54 101
M  END
>  <TORSDO>  (94) 
F 22

>  <SCORE>  (94) 
-13.266

>  <name>  (94) 
94

>  <ligand_id>  (94) 
94

>  <original_smiles>  (94) 
[H]c1c([H])c([H])c2c(c1[H])C([H])([H])C([H])([H])C([H])([H])C2([H])N([H])C(=O)C1([H])N(C(=O)C([H])(N([H])C(=O)C([H])(N([H])C([H])([H])[H])C([H])([H])[H])C(C([H])([H])[H])(C([H])([H])[H])C([H])([H])[H])C([H])([H])c2c([H])c(OC([H])([H])c3sc(C([H])([H])[H])c(C(=O)N([H])C([H])([H])C([H])([H])C([H])([H])C([H])([H])N([H])C(=O)N4C([H])([H])C([H])([H])C([H])([H])C([H])(n5nc(-c6c([H])c([H])c(Oc7c([H])c([H])c(F)c([H])c7F)c([H])c6[H])c(C(=O)N([H])[H])c5N([H])[H])C4([H])[H])c3[H])c([H])c([H])c2C1([H])[H]

>  <smiles>  (94) 
[H]c1c([H])c([H])c2c(c1[H])C([H])([H])C([H])([H])C([H])([H])C2([H])N([H])C(=O)C1([H])N(C(=O)C([H])(N([H])C(=O)C([H])(N([H])C([H])([H])[H])C([H])([H])[H])C(C([H])([H])[H])(C([H])([H])[H])C([H])([H])[H])C([H])([H])c2c([H])c(OC([H])([H])c3sc(C([H])([H])[H])c(C(=O)N([H])C([H])([H])C([H])([H])C([H])([H])C([H])([H])N([H])C(=O)N4C([H])([H])C([H])([H])C([H])([H])C([H])(n5nc(-c6c([H])c([H])c(Oc7c([H])c([H])c(F)c([H])c7F)c([H])c6[H])c(C(=O)N([H])[H])c5N([H])[H])C4([H])[H])c3[H])c([H])c([H])c2C1([H])[H]

$$$$
95:0:0
     RDKit          3D

 94102  0  0  1  0  0  0  0  0999 V2000
  -27.0920  -23.6390   21.6700 C   0  0  0  0  0  3  0  0  0  0  0  0
  -28.9840  -23.8400   19.6420 C   0  0  0  0  0  3  0  0  0  0  0  0
  -27.1720  -22.6150   20.7060 C   0  0  0  0  0  0  0  0  0  0  0  0
  -27.9370  -24.7680   21.6310 C   0  0  0  0  0  0  0  0  0  0  0  0
  -28.1760  -22.6800   19.7040 C   0  0  0  0  0  0  0  0  0  0  0  0
  -28.8550  -24.9110   20.5560 C   0  0  0  0  0  0  0  0  0  0  0  0
  -26.1380  -21.5010   20.7710 C   0  0  0  0  0  1  0  0  0  0  0  0
  -27.8090  -25.7730   22.7620 C   0  0  0  0  0  1  0  0  0  0  0  0
  -28.3570  -21.6300   18.5980 C   0  0  0  0  0  2  0  0  0  0  0  0
  -28.4330  -20.1240   18.9630 C   0  0  0  0  0  2  0  0  0  0  0  0
  -29.5390  -19.7110   19.8660 N   0  0  0  0  0  4  0  0  0  0  0  0
  -29.4670  -20.2280   20.7290 H   0  0  0  0  0  0  0  0  0  0  0  0
  -30.4200  -19.9450   19.4350 H   0  0  0  0  0  0  0  0  0  0  0  0
  -29.5010  -18.2480   20.1380 C   0  0  0  0  0  2  0  0  0  0  0  0
  -30.6900  -17.6760   20.9650 C   0  0  0  0  0  2  0  0  0  0  0  0
  -30.5290  -16.1490   21.2710 C   0  0  0  0  0  2  0  0  0  0  0  0
  -31.3230  -14.9480   20.6820 C   0  0  0  0  0  0  0  0  0  0  0  0
  -31.1210  -12.7000   19.6700 C   0  0  0  0  0  2  0  0  0  0  0  0
  -30.2510  -12.8300   18.4010 C   0  0  0  0  0  2  0  0  0  0  0  0
  -28.7480  -12.7290   18.7440 C   0  0  0  0  0  2  0  0  0  0  0  0
  -28.3440  -13.6570   19.9210 C   0  0  0  0  0  3  0  0  0  0  0  0
  -29.3280  -13.4990   21.1050 C   0  0  0  0  0  2  0  0  0  0  0  0
  -30.6920  -13.7440   20.6100 N   0  0  0  0  0  0  0  0  0  0  0  0
  -32.4530  -15.1290   20.2010 O   0  0  0  0  0  0  0  0  0  0  0  0
  -25.9450  -14.3560   20.5550 C   0  0  0  0  0  0  0  0  0  0  0  0
  -24.8290  -13.6240   20.8540 C   0  0  0  0  0  0  0  0  0  0  0  0
  -25.2270  -12.2540   20.7850 C   0  0  0  0  0  0  0  0  0  0  0  0
  -26.9580  -13.4340   20.3310 N   0  0  0  0  0  0  0  0  0  0  0  0
  -26.5250  -12.1630   20.5230 N   0  0  0  0  0  0  0  0  0  0  0  0
  -24.4360  -11.0240   20.8960 C   0  0  0  0  0  0  0  0  0  0  0  0
  -24.7660  -10.0160   21.8290 C   0  0  0  0  0  3  0  0  0  0  0  0
  -23.9800   -8.8470   21.9290 C   0  0  0  0  0  3  0  0  0  0  0  0
  -22.8500   -8.6790   21.0940 C   0  0  0  0  0  0  0  0  0  0  0  0
  -22.5400   -9.6740   20.1510 C   0  0  0  0  0  3  0  0  0  0  0  0
  -23.3250  -10.8340   20.0490 C   0  0  0  0  0  3  0  0  0  0  0  0
  -22.0430   -7.5670   21.1030 O   0  0  0  0  0  0  0  0  0  0  0  0
  -21.8350   -6.8380   22.2470 C   0  0  0  0  0  0  0  0  0  0  0  0
  -21.2860   -7.4200   23.4120 C   0  0  0  0  0  3  0  0  0  0  0  0
  -21.0250   -6.6200   24.5420 C   0  0  0  0  0  3  0  0  0  0  0  0
  -21.3020   -5.2390   24.5070 C   0  0  0  0  0  0  0  0  0  0  0  0
  -21.8440   -4.6590   23.3460 C   0  0  0  0  0  3  0  0  0  0  0  0
  -22.1080   -5.4570   22.2200 C   0  0  0  0  0  0  0  0  0  0  0  0
  -22.6100   -4.8880   21.0970 F   0  0  0  0  0  0  0  0  0  0  0  0
  -21.0440   -4.4690   25.5890 F   0  0  0  0  0  0  0  0  0  0  0  0
  -23.4450  -14.1570   21.0910 C   0  0  0  0  0  0  0  0  0  0  0  0
  -22.6550  -13.4730   21.9110 N   0  0  0  0  0  0  0  0  0  0  0  0
  -23.0730  -15.2140   20.5840 O   0  0  0  0  0  0  0  0  0  0  0  0
  -22.9680  -12.6150   22.3440 H   0  0  0  0  0  0  0  0  0  0  0  0
  -21.7250  -13.8110   22.1100 H   0  0  0  0  0  0  0  0  0  0  0  0
  -26.1810  -15.7230   20.4320 N   0  0  0  0  0  0  0  0  0  0  0  0
  -25.4240  -16.3950   20.4910 H   0  0  0  0  0  0  0  0  0  0  0  0
  -27.0290  -16.1010   20.0380 H   0  0  0  0  0  0  0  0  0  0  0  0
  -29.7580  -26.1350   20.3120 C   0  0  0  0  0  2  0  0  0  0  0  0
  -29.4400  -27.3660   20.9690 O   0  0  0  0  0  0  0  0  0  0  0  0
  -24.9120  -32.0360   23.7710 C   0  0  0  0  0  0  0  0  0  0  0  0
  -28.2110  -27.9720   20.8060 C   0  0  0  0  0  0  0  0  0  0  0  0
  -24.0040  -30.6480   21.9360 C   0  0  0  0  0  3  0  0  0  0  0  0
  -25.7170  -29.2960   20.6160 C   0  0  0  0  0  0  0  0  0  0  0  0
  -26.5000  -31.1920   22.0480 C   0  0  0  0  0  2  0  0  0  0  0  0
  -26.7560  -29.8680   21.3570 C   0  0  0  0  0  0  0  0  0  0  0  0
  -28.0020  -29.2110   21.4530 C   0  0  0  0  0  3  0  0  0  0  0  0
  -27.1530  -27.4100   20.0560 C   0  0  0  0  0  3  0  0  0  0  0  0
  -25.9100  -28.0660   19.9640 C   0  0  0  0  0  3  0  0  0  0  0  0
  -24.4140  -30.0600   20.5580 C   0  0  0  0  0  2  0  0  0  0  0  0
  -25.1500  -31.3040   22.6450 N   0  0  0  0  0  0  0  0  0  0  0  0
  -23.7610  -32.2040   24.1950 O   0  0  0  0  0  0  0  0  0  0  0  0
  -23.3280  -29.5330   22.7660 C   0  0  0  0  0  0  0  0  0  0  0  0
  -22.0430  -29.2670   22.4760 N   0  0  0  0  0  0  0  0  0  0  0  0
  -23.9580  -28.9120   23.6250 O   0  0  0  0  0  0  0  0  0  0  0  0
  -21.5910  -29.8270   21.7660 H   0  0  0  0  0  0  0  0  0  0  0  0
  -18.7170  -27.8630   22.5620 C   0  0  0  0  0  0  0  0  0  0  0  0
  -21.2170  -28.2370   23.1030 C   0  0  0  0  0  3  0  0  0  0  0  0
  -21.4600  -26.8560   22.4490 C   0  0  0  0  0  2  0  0  0  0  0  0
  -20.4790  -26.5410   21.3160 C   0  0  0  0  0  2  0  0  0  0  0  0
  -19.0360  -26.5720   21.8270 C   0  0  0  0  0  2  0  0  0  0  0  0
  -19.7420  -28.6510   23.1490 C   0  0  0  0  0  0  0  0  0  0  0  0
  -19.3930  -29.8600   23.7900 C   0  0  0  0  0  3  0  0  0  0  0  0
  -18.0510  -30.2810   23.8550 C   0  0  0  0  0  3  0  0  0  0  0  0
  -17.0390  -29.4870   23.2890 C   0  0  0  0  0  3  0  0  0  0  0  0
  -17.3720  -28.2800   22.6480 C   0  0  0  0  0  3  0  0  0  0  0  0
  -26.0720  -32.7180   24.5640 C   0  0  0  0  0  3  0  0  0  0  0  0
  -25.6870  -34.1160   24.7960 N   0  0  0  0  0  0  0  0  0  0  0  0
  -26.0930  -35.1500   24.0480 C   0  0  0  0  0  0  0  0  0  0  0  0
  -26.8990  -35.0310   23.1210 O   0  0  0  0  0  0  0  0  0  0  0  0
  -24.9850  -34.2820   25.5030 H   0  0  0  0  0  0  0  0  0  0  0  0
  -24.3720  -36.8660   23.4040 C   0  0  0  0  0  1  0  0  0  0  0  0
  -25.5120  -36.5380   24.3800 C   0  0  0  0  0  3  0  0  0  0  0  0
  -27.5030  -37.5220   25.4260 C   0  0  0  0  0  1  0  0  0  0  0  0
  -26.5200  -37.6210   24.3510 N   0  0  0  0  0  0  0  0  0  0  0  0
  -26.0710  -38.5320   24.4130 H   0  0  0  0  0  0  0  0  0  0  0  0
  -26.3990  -31.9940   25.9280 C   0  0  1  0  0  0  0  0  0  0  0  0
  -25.1520  -31.6960   26.7900 C   0  0  0  0  0  1  0  0  0  0  0  0
  -27.1280  -30.6540   25.6720 C   0  0  0  0  0  1  0  0  0  0  0  0
  -27.3580  -32.8710   26.7670 C   0  0  0  0  0  1  0  0  0  0  0  0
  2  5  2  0
  2  6  1  0
  3  7  1  0
  3  1  2  0
  4  1  1  0
  4  8  1  0
  5  3  1  0
  6  4  2  0
  9 10  1  0
  9  5  1  0
 10 11  1  0
 11 14  1  0
 11 12  1  0
 13 11  1  0
 14 15  1  0
 15 16  1  0
 17 16  1  0
 18 23  1  0
 19 20  1  0
 19 18  1  0
 21 20  1  0
 21 28  1  0
 21 22  1  0
 23 17  1  0
 23 22  1  0
 24 17  2  0
 25 26  2  0
 26 45  1  0
 27 26  1  0
 27 30  1  0
 28 29  1  0
 28 25  1  0
 29 27  2  0
 30 31  1  0
 31 32  2  0
 33 36  1  0
 33 32  1  0
 34 33  2  0
 35 34  1  0
 35 30  2  0
 36 37  1  0
 37 38  1  0
 38 39  2  0
 40 39  1  0
 40 44  1  0
 41 40  2  0
 42 37  2  0
 42 41  1  0
 43 42  1  0
 45 46  1  0
 46 49  1  0
 46 48  1  0
 47 45  2  0
 50 51  1  0
 50 25  1  0
 52 50  1  0
 53  6  1  0
 53 54  1  0
 55 66  2  0
 56 54  1  0
 56 61  1  0
 57 65  1  0
 57 67  1  0
 58 60  1  0
 59 65  1  0
 60 61  2  0
 60 59  1  0
 62 56  2  0
 63 62  1  0
 63 58  2  0
 64 58  1  0
 64 57  1  0
 65 55  1  0
 67 69  2  0
 68 67  1  0
 70 68  1  0
 71 80  2  0
 71 76  1  0
 72 68  1  0
 72 76  1  0
 73 72  1  0
 74 75  1  0
 74 73  1  0
 75 71  1  0
 76 77  2  0
 77 78  1  0
 79 78  2  0
 80 79  1  0
 81 55  1  0
 81 82  1  0
 81 91  1  0
 82 85  1  0
 83 87  1  0
 83 82  1  0
 84 83  2  0
 87 86  1  0
 89 87  1  0
 89 90  1  0
 89 88  1  0
 91 94  1  1
 91 92  1  0
 93 91  1  0
M  ISO  4  16 100  17 100  53 101  54 101
M  END
>  <TORSDO>  (95) 
F 23

>  <SCORE>  (95) 
-9.385

>  <name>  (95) 
95

>  <ligand_id>  (95) 
95

>  <original_smiles>  (95) 
[H]c1c([H])c([H])c2c(c1[H])C([H])([H])C([H])([H])C([H])([H])C2([H])N([H])C(=O)C1([H])N(C(=O)C([H])(N([H])C(=O)C([H])(N([H])C([H])([H])[H])C([H])([H])[H])C(C([H])([H])[H])(C([H])([H])[H])C([H])([H])[H])C([H])([H])c2c([H])c(OC([H])([H])c3c([H])c(C([H])([H])C([H])([H])[N+]([H])([H])C([H])([H])C([H])([H])C([H])([H])C(=O)N4C([H])([H])C([H])([H])C([H])([H])C([H])(n5nc(-c6c([H])c([H])c(Oc7c([H])c([H])c(F)c([H])c7F)c([H])c6[H])c(C(=O)N([H])[H])c5N([H])[H])C4([H])[H])c(C([H])([H])[H])c([H])c3C([H])([H])[H])c([H])c([H])c2C1([H])[H]

>  <smiles>  (95) 
[H]c1c([H])c([H])c2c(c1[H])C([H])([H])C([H])([H])C([H])([H])C2([H])N([H])C(=O)C1([H])N(C(=O)C([H])(N([H])C(=O)C([H])(N([H])C([H])([H])[H])C([H])([H])[H])C(C([H])([H])[H])(C([H])([H])[H])C([H])([H])[H])C([H])([H])c2c([H])c(OC([H])([H])c3c([H])c(C([H])([H])C([H])([H])[N+]([H])([H])C([H])([H])C([H])([H])C([H])([H])C(=O)N4C([H])([H])C([H])([H])C([H])([H])C([H])(n5nc(-c6c([H])c([H])c(Oc7c([H])c([H])c(F)c([H])c7F)c([H])c6[H])c(C(=O)N([H])[H])c5N([H])[H])C4([H])[H])c(C([H])([H])[H])c([H])c3C([H])([H])[H])c([H])c([H])c2C1([H])[H]

$$$$
96:0:0
     RDKit          3D

 95104  0  0  1  0  0  0  0  0999 V2000
  -26.4860  -24.5660   22.1110 C   0  0  0  0  0  3  0  0  0  0  0  0
  -27.0200  -23.2970   22.3880 C   0  0  0  0  0  3  0  0  0  0  0  0
  -26.9940  -25.3330   21.0460 C   0  0  0  0  0  3  0  0  0  0  0  0
  -28.5640  -23.5500   20.5180 C   0  0  0  0  0  3  0  0  0  0  0  0
  -28.0810  -22.7870   21.6080 C   0  0  0  0  0  0  0  0  0  0  0  0
  -28.0290  -24.8290   20.2180 C   0  0  0  0  0  0  0  0  0  0  0  0
  -28.1080  -20.2750   21.1260 C   0  0  0  0  0  2  0  0  0  0  0  0
  -30.2290  -21.4310   22.1570 C   0  0  0  0  0  2  0  0  0  0  0  0
  -29.1410  -19.1940   20.7710 C   0  0  0  0  0  2  0  0  0  0  0  0
  -31.0990  -20.8080   21.0380 C   0  0  0  0  0  2  0  0  0  0  0  0
  -28.6820  -21.4290   21.9810 C   0  0  0  0  0  3  0  0  0  0  0  0
  -30.3360  -19.8680   20.0840 C   0  0  0  0  0  3  0  0  0  0  0  0
  -31.2170  -18.9330   19.3400 N   0  0  0  0  0  4  0  0  0  0  0  0
  -30.6530  -18.5450   18.6020 H   0  0  0  0  0  0  0  0  0  0  0  0
  -31.9370  -19.4760   18.8890 H   0  0  0  0  0  0  0  0  0  0  0  0
  -31.8510  -17.7980   20.0650 C   0  0  0  0  0  2  0  0  0  0  0  0
  -32.1030  -16.6490   19.0720 C   0  0  0  0  0  2  0  0  0  0  0  0
  -32.7960  -15.3740   19.5890 C   0  0  0  0  0  0  0  0  0  0  0  0
  -32.3400  -13.1150   18.8150 C   0  0  0  0  0  2  0  0  0  0  0  0
  -31.3770  -13.2440   17.6160 C   0  0  0  0  0  2  0  0  0  0  0  0
  -29.9160  -13.2030   18.1030 C   0  0  0  0  0  2  0  0  0  0  0  0
  -29.6390  -14.1990   19.2560 C   0  0  0  0  0  3  0  0  0  0  0  0
  -30.7380  -14.1400   20.3440 C   0  0  0  0  0  2  0  0  0  0  0  0
  -32.0630  -14.2410   19.7140 N   0  0  0  0  0  0  0  0  0  0  0  0
  -34.0160  -15.3610   19.4260 O   0  0  0  0  0  0  0  0  0  0  0  0
  -27.3520  -15.0120   20.0910 C   0  0  0  0  0  0  0  0  0  0  0  0
  -26.2360  -14.3300   20.4970 C   0  0  0  0  0  0  0  0  0  0  0  0
  -26.5770  -12.9450   20.4330 C   0  0  0  0  0  0  0  0  0  0  0  0
  -28.3020  -14.0400   19.8070 N   0  0  0  0  0  0  0  0  0  0  0  0
  -27.8440  -12.7940   20.0760 N   0  0  0  0  0  0  0  0  0  0  0  0
  -25.7510  -11.7480   20.6360 C   0  0  0  0  0  0  0  0  0  0  0  0
  -26.0480  -10.8150   21.6530 C   0  0  0  0  0  3  0  0  0  0  0  0
  -25.2320   -9.6790   21.8410 C   0  0  0  0  0  3  0  0  0  0  0  0
  -24.1050   -9.4720   21.0100 C   0  0  0  0  0  0  0  0  0  0  0  0
  -23.8270  -10.3930   19.9850 C   0  0  0  0  0  3  0  0  0  0  0  0
  -24.6450  -11.5190   19.7960 C   0  0  0  0  0  3  0  0  0  0  0  0
  -23.2680   -8.3860   21.1060 O   0  0  0  0  0  0  0  0  0  0  0  0
  -22.8310   -7.9190   22.3190 C   0  0  0  0  0  0  0  0  0  0  0  0
  -22.2190   -8.7670   23.2680 C   0  0  0  0  0  3  0  0  0  0  0  0
  -21.7230   -8.2330   24.4730 C   0  0  0  0  0  3  0  0  0  0  0  0
  -21.8250   -6.8520   24.7260 C   0  0  0  0  0  0  0  0  0  0  0  0
  -22.4290   -6.0050   23.7810 C   0  0  0  0  0  3  0  0  0  0  0  0
  -22.9280   -6.5370   22.5780 C   0  0  0  0  0  0  0  0  0  0  0  0
  -23.4900   -5.7140   21.6610 F   0  0  0  0  0  0  0  0  0  0  0  0
  -21.3420   -6.3370   25.8800 F   0  0  0  0  0  0  0  0  0  0  0  0
  -24.8950  -14.9230   20.8260 C   0  0  0  0  0  0  0  0  0  0  0  0
  -24.1660  -14.3110   21.7530 N   0  0  0  0  0  0  0  0  0  0  0  0
  -24.5060  -15.9630   20.2970 O   0  0  0  0  0  0  0  0  0  0  0  0
  -24.4950  -13.4670   22.2010 H   0  0  0  0  0  0  0  0  0  0  0  0
  -23.2690  -14.6910   22.0210 H   0  0  0  0  0  0  0  0  0  0  0  0
  -27.6300  -16.3640   19.9170 N   0  0  0  0  0  0  0  0  0  0  0  0
  -26.9250  -17.0800   20.0560 H   0  0  0  0  0  0  0  0  0  0  0  0
  -28.4920  -16.7250   19.5300 H   0  0  0  0  0  0  0  0  0  0  0  0
  -28.5620  -25.5690   18.9730 C   0  0  0  0  0  2  0  0  0  0  0  0
  -28.6110  -27.0070   19.0140 O   0  0  0  0  0  0  0  0  0  0  0  0
  -24.8340  -31.2720   23.1940 C   0  0  0  0  0  0  0  0  0  0  0  0
  -27.4290  -27.7070   19.1140 C   0  0  0  0  0  0  0  0  0  0  0  0
  -23.5860  -30.2040   21.3460 C   0  0  0  0  0  3  0  0  0  0  0  0
  -25.0010  -29.0830   19.5480 C   0  0  0  0  0  0  0  0  0  0  0  0
  -26.0870  -30.7050   21.1130 C   0  0  0  0  0  2  0  0  0  0  0  0
  -26.1740  -29.5150   20.1830 C   0  0  0  0  0  0  0  0  0  0  0  0
  -27.3890  -28.8340   19.9640 C   0  0  0  0  0  3  0  0  0  0  0  0
  -26.2420  -27.2990   18.4610 C   0  0  0  0  0  3  0  0  0  0  0  0
  -25.0310  -27.9790   18.6810 C   0  0  0  0  0  3  0  0  0  0  0  0
  -23.7320  -29.8450   19.8460 C   0  0  0  0  0  2  0  0  0  0  0  0
  -24.8570  -30.7300   21.9420 N   0  0  0  0  0  0  0  0  0  0  0  0
  -23.7760  -31.3750   23.8300 O   0  0  0  0  0  0  0  0  0  0  0  0
  -23.0180  -28.9800   22.0960 C   0  0  0  0  0  0  0  0  0  0  0  0
  -21.7130  -28.7190   21.9070 N   0  0  0  0  0  0  0  0  0  0  0  0
  -23.7450  -28.2740   22.7980 O   0  0  0  0  0  0  0  0  0  0  0  0
  -21.1830  -29.3500   21.3230 H   0  0  0  0  0  0  0  0  0  0  0  0
  -18.4980  -27.0780   21.9550 C   0  0  0  0  0  0  0  0  0  0  0  0
  -20.9780  -27.5850   22.4620 C   0  0  0  0  0  3  0  0  0  0  0  0
  -21.2980  -26.2870   21.6850 C   0  0  0  0  0  2  0  0  0  0  0  0
  -20.3050  -26.0030   20.5540 C   0  0  0  0  0  2  0  0  0  0  0  0
  -18.8850  -25.8750   21.1130 C   0  0  0  0  0  2  0  0  0  0  0  0
  -19.4820  -27.8950   22.5700 C   0  0  0  0  0  0  0  0  0  0  0  0
  -19.0680  -29.0310   23.3000 C   0  0  0  0  0  3  0  0  0  0  0  0
  -17.7020  -29.3460   23.4270 C   0  0  0  0  0  3  0  0  0  0  0  0
  -16.7340  -28.5250   22.8310 C   0  0  0  0  0  3  0  0  0  0  0  0
  -17.1310  -27.3900   22.1030 C   0  0  0  0  0  3  0  0  0  0  0  0
  -26.1340  -31.8040   23.8780 C   0  0  0  0  0  3  0  0  0  0  0  0
  -25.8600  -33.1710   24.3410 N   0  0  0  0  0  0  0  0  0  0  0  0
  -26.2280  -34.2800   23.6880 C   0  0  0  0  0  0  0  0  0  0  0  0
  -26.9020  -34.2590   22.6540 O   0  0  0  0  0  0  0  0  0  0  0  0
  -25.2590  -33.2660   25.1480 H   0  0  0  0  0  0  0  0  0  0  0  0
  -24.5390  -36.1350   23.5070 C   0  0  0  0  0  1  0  0  0  0  0  0
  -25.7740  -35.6310   24.2720 C   0  0  0  0  0  3  0  0  0  0  0  0
  -27.9360  -36.3770   25.1680 C   0  0  0  0  0  1  0  0  0  0  0  0
  -26.8320  -36.6650   24.2530 N   0  0  0  0  0  0  0  0  0  0  0  0
  -26.4510  -37.5760   24.4910 H   0  0  0  0  0  0  0  0  0  0  0  0
  -26.6290  -30.8950   25.0700 C   0  0  1  0  0  0  0  0  0  0  0  0
  -25.5180  -30.5400   26.0840 C   0  0  0  0  0  1  0  0  0  0  0  0
  -27.2190  -29.5690   24.5380 C   0  0  0  0  0  1  0  0  0  0  0  0
  -27.7700  -31.6080   25.8330 C   0  0  0  0  0  1  0  0  0  0  0  0
  1  2  1  0
  3  1  2  0
  4  5  1  0
  5  2  2  0
  6  4  2  0
  6  3  1  0
  7 11  1  0
  9  7  1  0
 10  8  1  0
 11  5  1  0
 11  8  1  0
 12 13  1  0
 12  9  1  0
 12 10  1  0
 13 16  1  0
 14 13  1  0
 15 13  1  0
 17 18  1  0
 17 16  1  0
 18 24  1  0
 19 24  1  0
 20 21  1  0
 20 19  1  0
 22 21  1  0
 22 29  1  0
 22 23  1  0
 24 23  1  0
 25 18  2  0
 26 27  2  0
 27 46  1  0
 28 27  1  0
 28 31  1  0
 29 30  1  0
 29 26  1  0
 30 28  2  0
 31 32  1  0
 32 33  2  0
 34 37  1  0
 34 33  1  0
 35 34  2  0
 36 35  1  0
 36 31  2  0
 37 38  1  0
 38 43  2  0
 38 39  1  0
 39 40  2  0
 40 41  1  0
 41 45  1  0
 42 41  2  0
 43 42  1  0
 44 43  1  0
 46 47  1  0
 47 50  1  0
 47 49  1  0
 48 46  2  0
 51 52  1  0
 51 26  1  0
 53 51  1  0
 54 55  1  0
 54  6  1  0
 55 57  1  0
 56 67  2  0
 57 62  1  0
 58 66  1  0
 58 68  1  0
 59 65  1  0
 59 61  1  0
 60 66  1  0
 61 60  1  0
 62 61  2  0
 63 64  1  0
 63 57  2  0
 64 59  2  0
 65 58  1  0
 66 56  1  0
 68 70  2  0
 69 68  1  0
 71 69  1  0
 72 81  2  0
 72 77  1  0
 73 69  1  0
 73 77  1  0
 74 73  1  0
 75 76  1  0
 75 74  1  0
 76 72  1  0
 77 78  2  0
 78 79  1  0
 80 79  2  0
 81 80  1  0
 82 56  1  0
 82 83  1  0
 82 92  1  0
 83 86  1  0
 84 88  1  0
 84 83  1  0
 85 84  2  0
 88 87  1  0
 90 88  1  0
 90 91  1  0
 90 89  1  0
 92 95  1  1
 92 93  1  0
 94 92  1  0
M  ISO  4  17 100  18 100  54 101  55 101
M  END
>  <TORSDO>  (96) 
F 21

>  <SCORE>  (96) 
-7.458

>  <name>  (96) 
96

>  <ligand_id>  (96) 
96

>  <original_smiles>  (96) 
[H]c1c([H])c([H])c2c(c1[H])C([H])([H])C([H])([H])C([H])([H])C2([H])N([H])C(=O)C1([H])N(C(=O)C([H])(N([H])C(=O)C([H])(N([H])C([H])([H])[H])C([H])([H])[H])C(C([H])([H])[H])(C([H])([H])[H])C([H])([H])[H])C([H])([H])c2c([H])c(OC([H])([H])c3c([H])c([H])c([H])c(C4([H])C([H])([H])C([H])([H])C([H])([N+]([H])([H])C([H])([H])C([H])([H])C(=O)N5C([H])([H])C([H])([H])C([H])([H])C([H])(n6nc(-c7c([H])c([H])c(Oc8c([H])c([H])c(F)c([H])c8F)c([H])c7[H])c(C(=O)N([H])[H])c6N([H])[H])C5([H])[H])C([H])([H])C4([H])[H])c3[H])c([H])c([H])c2C1([H])[H]

>  <smiles>  (96) 
[H]c1c([H])c([H])c2c(c1[H])C([H])([H])C([H])([H])C([H])([H])C2([H])N([H])C(=O)C1([H])N(C(=O)C([H])(N([H])C(=O)C([H])(N([H])C([H])([H])[H])C([H])([H])[H])C(C([H])([H])[H])(C([H])([H])[H])C([H])([H])[H])C([H])([H])c2c([H])c(OC([H])([H])c3c([H])c([H])c([H])c(C4([H])C([H])([H])C([H])([H])C([H])([N+]([H])([H])C([H])([H])C([H])([H])C(=O)N5C([H])([H])C([H])([H])C([H])([H])C([H])(n6nc(-c7c([H])c([H])c(Oc8c([H])c([H])c(F)c([H])c8F)c([H])c7[H])c(C(=O)N([H])[H])c6N([H])[H])C5([H])[H])C([H])([H])C4([H])[H])c3[H])c([H])c([H])c2C1([H])[H]

$$$$
97:0:0
     RDKit          3D

104113  0  0  1  0  0  0  0  0999 V2000
  -29.8640  -18.8360   20.7910 C   0  0  0  0  0  3  0  0  0  0  0  0
  -30.7790  -19.8540   18.6180 C   0  0  0  0  0  3  0  0  0  0  0  0
  -30.7410  -19.9960   17.2150 C   0  0  0  0  0  3  0  0  0  0  0  0
  -28.6790  -18.6480   18.5490 C   0  0  0  0  0  3  0  0  0  0  0  0
  -29.7580  -19.1540   19.2960 C   0  0  0  0  0  0  0  0  0  0  0  0
  -29.6940  -19.4220   16.4650 C   0  0  0  0  0  0  0  0  0  0  0  0
  -28.6600  -18.7410   17.1430 C   0  0  0  0  0  0  0  0  0  0  0  0
  -27.6710  -18.0730   16.4220 N   0  0  0  0  0  0  0  0  0  0  0  0
  -27.2480  -17.3320   17.0000 H   0  0  0  0  0  0  0  0  0  0  0  0
  -26.8710  -18.6530   16.1970 H   0  0  0  0  0  0  0  0  0  0  0  0
  -29.7070  -19.4860   14.9430 C   0  0  0  0  0  2  0  0  0  0  0  0
  -29.8600  -18.1330   14.3970 N   0  0  0  0  0  4  0  0  0  0  0  0
  -30.7440  -17.7360   14.6560 H   0  0  0  0  0  0  0  0  0  0  0  0
  -29.7630  -18.1360   13.3990 H   0  0  0  0  0  0  0  0  0  0  0  0
  -29.1140  -17.5990   14.8210 H   0  0  0  0  0  0  0  0  0  0  0  0
  -29.9950  -20.1540   21.7190 C   0  0  0  0  0  2  0  0  0  0  0  0
  -27.1630  -22.6890   20.8820 C   0  0  0  0  0  3  0  0  0  0  0  0
  -27.8780  -21.4950   21.1140 C   0  0  0  0  0  3  0  0  0  0  0  0
  -27.8130  -23.9400   20.8370 C   0  0  0  0  0  3  0  0  0  0  0  0
  -29.2650  -21.5220   21.3730 C   0  0  0  0  0  0  0  0  0  0  0  0
  -29.2070  -24.0600   21.0450 C   0  0  0  0  0  0  0  0  0  0  0  0
  -29.9140  -22.8260   21.3680 C   0  0  0  0  0  0  0  0  0  0  0  0
  -31.3910  -22.8830   21.7270 C   0  0  0  0  0  1  0  0  0  0  0  0
  -29.8960  -25.4540   20.6850 C   0  0  0  0  0  2  0  0  0  0  0  0
  -29.5790  -26.7500   21.3620 O   0  0  0  0  0  0  0  0  0  0  0  0
  -24.9840  -31.9510   23.4510 C   0  0  0  0  0  0  0  0  0  0  0  0
  -28.4230  -27.5010   21.0800 C   0  0  0  0  0  0  0  0  0  0  0  0
  -24.1840  -30.3580   21.7500 C   0  0  0  0  0  3  0  0  0  0  0  0
  -25.9690  -28.9090   20.6340 C   0  0  0  0  0  0  0  0  0  0  0  0
  -26.6860  -30.9110   21.9330 C   0  0  0  0  0  2  0  0  0  0  0  0
  -26.9850  -29.5220   21.3780 C   0  0  0  0  0  0  0  0  0  0  0  0
  -28.2150  -28.8230   21.5960 C   0  0  0  0  0  3  0  0  0  0  0  0
  -27.3710  -26.9490   20.3130 C   0  0  0  0  0  3  0  0  0  0  0  0
  -26.1700  -27.6380   20.0870 C   0  0  0  0  0  3  0  0  0  0  0  0
  -24.6590  -29.6500   20.4560 C   0  0  0  0  0  2  0  0  0  0  0  0
  -25.2930  -31.0980   22.4300 N   0  0  0  0  0  0  0  0  0  0  0  0
  -23.8100  -32.1360   23.8040 O   0  0  0  0  0  0  0  0  0  0  0  0
  -23.4920  -29.3190   22.6670 C   0  0  0  0  0  0  0  0  0  0  0  0
  -22.2070  -29.0320   22.3970 N   0  0  0  0  0  0  0  0  0  0  0  0
  -24.1160  -28.7740   23.5820 O   0  0  0  0  0  0  0  0  0  0  0  0
  -21.7620  -29.5230   21.6360 H   0  0  0  0  0  0  0  0  0  0  0  0
  -18.8500  -27.7130   22.6800 C   0  0  0  0  0  0  0  0  0  0  0  0
  -21.3770  -28.0590   23.1080 C   0  0  0  0  0  3  0  0  0  0  0  0
  -21.5650  -26.6390   22.5260 C   0  0  0  0  0  2  0  0  0  0  0  0
  -20.5400  -26.2890   21.4440 C   0  0  0  0  0  2  0  0  0  0  0  0
  -19.1160  -26.3800   22.0000 C   0  0  0  0  0  2  0  0  0  0  0  0
  -19.9130  -28.5090   23.1840 C   0  0  0  0  0  0  0  0  0  0  0  0
  -19.6120  -29.7560   23.7750 C   0  0  0  0  0  3  0  0  0  0  0  0
  -18.2820  -30.2100   23.8630 C   0  0  0  0  0  3  0  0  0  0  0  0
  -17.2330  -29.4120   23.3760 C   0  0  0  0  0  3  0  0  0  0  0  0
  -17.5170  -28.1640   22.7900 C   0  0  0  0  0  3  0  0  0  0  0  0
  -26.0880  -32.7490   24.2090 C   0  0  0  0  0  3  0  0  0  0  0  0
  -26.4830  -32.1060   25.5980 C   0  0  1  0  0  0  0  0  0  0  0  0
  -25.2650  -31.7070   26.4630 C   0  0  0  0  0  1  0  0  0  0  0  0
  -27.3480  -30.8410   25.3920 C   0  0  0  0  0  1  0  0  0  0  0  0
  -27.3430  -33.1040   26.4100 C   0  0  0  0  0  1  0  0  0  0  0  0
  -25.5930  -34.1200   24.4020 N   0  0  0  0  0  0  0  0  0  0  0  0
  -25.8780  -35.1560   23.6030 C   0  0  0  0  0  0  0  0  0  0  0  0
  -26.6560  -35.0700   22.6490 O   0  0  0  0  0  0  0  0  0  0  0  0
  -24.9170  -34.2550   25.1410 H   0  0  0  0  0  0  0  0  0  0  0  0
  -23.9840  -36.6920   22.9880 C   0  0  0  0  0  1  0  0  0  0  0  0
  -25.1970  -36.5050   23.9130 C   0  0  0  0  0  3  0  0  0  0  0  0
  -27.1670  -37.6820   24.7890 C   0  0  0  0  0  1  0  0  0  0  0  0
  -26.1040  -37.6670   23.7880 N   0  0  0  0  0  0  0  0  0  0  0  0
  -25.5850  -38.5380   23.8670 H   0  0  0  0  0  0  0  0  0  0  0  0
  -30.9410  -17.6580   21.0160 C   0  0  0  0  0  2  0  0  0  0  0  0
  -31.2470  -15.0640   20.9450 C   0  0  0  0  0  0  0  0  0  0  0  0
  -31.0680  -12.7590   20.0260 C   0  0  0  0  0  2  0  0  0  0  0  0
  -30.2690  -12.8200   18.7070 C   0  0  0  0  0  2  0  0  0  0  0  0
  -28.7580  -12.7030   18.9850 C   0  0  0  0  0  2  0  0  0  0  0  0
  -28.2850  -13.6460   20.1250 C   0  0  0  0  0  3  0  0  0  0  0  0
  -29.2240  -13.5910   21.3500 C   0  0  0  0  0  2  0  0  0  0  0  0
  -30.5880  -13.8660   20.8810 N   0  0  0  0  0  0  0  0  0  0  0  0
  -32.4600  -15.1330   20.7360 O   0  0  0  0  0  0  0  0  0  0  0  0
  -30.4850  -16.2080   21.0400 N   0  0  0  0  0  0  0  0  0  0  0  0
  -29.4970  -16.0490   21.1510 H   0  0  0  0  0  0  0  0  0  0  0  0
  -25.8750  -14.3230   20.6820 C   0  0  0  0  0  0  0  0  0  0  0  0
  -24.7400  -13.5970   20.8910 C   0  0  0  0  0  0  0  0  0  0  0  0
  -25.1440  -12.2300   20.8680 C   0  0  0  0  0  0  0  0  0  0  0  0
  -26.8920  -13.4040   20.4900 N   0  0  0  0  0  0  0  0  0  0  0  0
  -26.4550  -12.1340   20.6800 N   0  0  0  0  0  0  0  0  0  0  0  0
  -24.3540  -11.0040   20.9730 C   0  0  0  0  0  0  0  0  0  0  0  0
  -24.6550  -10.0150   21.9330 C   0  0  0  0  0  3  0  0  0  0  0  0
  -23.8640   -8.8510   22.0290 C   0  0  0  0  0  3  0  0  0  0  0  0
  -22.7610   -8.6700   21.1610 C   0  0  0  0  0  0  0  0  0  0  0  0
  -22.4780   -9.6510   20.1950 C   0  0  0  0  0  3  0  0  0  0  0  0
  -23.2690  -10.8080   20.0970 C   0  0  0  0  0  3  0  0  0  0  0  0
  -21.9530   -7.5590   21.1610 O   0  0  0  0  0  0  0  0  0  0  0  0
  -21.7590   -6.8080   22.2930 C   0  0  0  0  0  0  0  0  0  0  0  0
  -21.2630   -7.3750   23.4880 C   0  0  0  0  0  3  0  0  0  0  0  0
  -21.0170   -6.5520   24.6050 C   0  0  0  0  0  3  0  0  0  0  0  0
  -21.2550   -5.1670   24.5270 C   0  0  0  0  0  0  0  0  0  0  0  0
  -21.7470   -4.6030   23.3370 C   0  0  0  0  0  3  0  0  0  0  0  0
  -21.9970   -5.4210   22.2230 C   0  0  0  0  0  0  0  0  0  0  0  0
  -22.4470   -4.8690   21.0710 F   0  0  0  0  0  0  0  0  0  0  0  0
  -21.0110   -4.3750   25.5980 F   0  0  0  0  0  0  0  0  0  0  0  0
  -23.3520  -14.1410   21.0360 C   0  0  0  0  0  0  0  0  0  0  0  0
  -22.5300  -13.5040   21.8600 N   0  0  0  0  0  0  0  0  0  0  0  0
  -22.9980  -15.1650   20.4530 O   0  0  0  0  0  0  0  0  0  0  0  0
  -22.8270  -12.6770   22.3560 H   0  0  0  0  0  0  0  0  0  0  0  0
  -21.5920  -13.8540   21.9980 H   0  0  0  0  0  0  0  0  0  0  0  0
  -26.1270  -15.6820   20.6530 N   0  0  0  0  0  0  0  0  0  0  0  0
  -25.4170  -16.3400   20.9530 H   0  0  0  0  0  0  0  0  0  0  0  0
  -27.0620  -15.9930   20.8750 H   0  0  0  0  0  0  0  0  0  0  0  0
  1 66  1  0
  1 16  1  0
  2  5  1  0
  3  2  2  0
  4  5  2  0
  5  1  1  0
  6  7  2  0
  6  3  1  0
  7  4  1  0
  8  9  1  0
  8  7  1  0
 10  8  1  0
 11  6  1  0
 12 13  1  0
 12 15  1  0
 12 11  1  0
 14 12  1  0
 17 18  1  0
 18 20  2  0
 19 17  2  0
 19 21  1  0
 20 16  1  0
 21 22  2  0
 22 20  1  0
 22 23  1  0
 24 21  1  0
 24 25  1  0
 26 37  2  0
 27 25  1  0
 27 32  1  0
 28 36  1  0
 28 38  1  0
 29 31  1  0
 30 36  1  0
 31 32  2  0
 31 30  1  0
 33 27  2  0
 34 33  1  0
 34 29  2  0
 35 29  1  0
 35 28  1  0
 36 26  1  0
 38 40  2  0
 39 38  1  0
 41 39  1  0
 42 51  2  0
 42 47  1  0
 43 39  1  0
 43 47  1  0
 44 43  1  0
 45 46  1  0
 45 44  1  0
 46 42  1  0
 47 48  2  0
 48 49  1  0
 50 49  2  0
 51 50  1  0
 52 26  1  0
 52 57  1  0
 52 53  1  0
 53 56  1  1
 53 54  1  0
 55 53  1  0
 57 60  1  0
 58 62  1  0
 58 57  1  0
 59 58  2  0
 62 61  1  0
 64 65  1  0
 64 62  1  0
 64 63  1  0
 66 75  1  0
 67 75  1  0
 68 73  1  0
 69 70  1  0
 69 68  1  0
 71 70  1  0
 71 80  1  0
 71 72  1  0
 73 67  1  0
 73 72  1  0
 74 67  2  0
 75 76  1  0
 77 78  2  0
 78 97  1  0
 79 78  1  0
 79 82  1  0
 80 81  1  0
 80 77  1  0
 81 79  2  0
 82 83  1  0
 83 84  2  0
 85 84  1  0
 86 85  2  0
 87 86  1  0
 87 82  2  0
 88 85  1  0
 88 89  1  0
 89 90  1  0
 90 91  2  0
 92 91  1  0
 92 96  1  0
 93 92  2  0
 94 89  2  0
 94 93  1  0
 95 94  1  0
 97 98  1  0
 98101  1  0
 98100  1  0
 99 97  2  0
102 77  1  0
102104  1  0
102103  1  0
M  ISO  4  24 101  25 101  67 100  75 100
M  END
>  <TORSDO>  (97) 
F 24

>  <SCORE>  (97) 
-11.069

>  <name>  (97) 
97

>  <ligand_id>  (97) 
97

>  <original_smiles>  (97) 
[H]c1c([H])c([H])c2c(c1[H])C([H])([H])C([H])([H])C([H])([H])C2([H])N([H])C(=O)C1([H])N(C(=O)C([H])(N([H])C(=O)C([H])(N([H])C([H])([H])[H])C([H])([H])[H])C(C([H])([H])[H])(C([H])([H])[H])C([H])([H])[H])C([H])([H])c2c([H])c(OC([H])([H])c3c([H])c([H])c([H])c(C([H])([H])C([H])(c4c([H])c([H])c(C([H])([H])[N+]([H])([H])[H])c(N([H])[H])c4[H])C([H])([H])N([H])C(=O)N4C([H])([H])C([H])([H])C([H])([H])C([H])(n5nc(-c6c([H])c([H])c(Oc7c([H])c([H])c(F)c([H])c7F)c([H])c6[H])c(C(=O)N([H])[H])c5N([H])[H])C4([H])[H])c3C([H])([H])[H])c([H])c([H])c2C1([H])[H]

>  <smiles>  (97) 
[H]c1c([H])c([H])c2c(c1[H])C([H])([H])C([H])([H])C([H])([H])C2([H])N([H])C(=O)C1([H])N(C(=O)C([H])(N([H])C(=O)C([H])(N([H])C([H])([H])[H])C([H])([H])[H])C(C([H])([H])[H])(C([H])([H])[H])C([H])([H])[H])C([H])([H])c2c([H])c(OC([H])([H])c3c([H])c([H])c([H])c(C([H])([H])C([H])(c4c([H])c([H])c(C([H])([H])[N+]([H])([H])[H])c(N([H])[H])c4[H])C([H])([H])N([H])C(=O)N4C([H])([H])C([H])([H])C([H])([H])C([H])(n5nc(-c6c([H])c([H])c(Oc7c([H])c([H])c(F)c([H])c7F)c([H])c6[H])c(C(=O)N([H])[H])c5N([H])[H])C4([H])[H])c3C([H])([H])[H])c([H])c([H])c2C1([H])[H]

$$$$
98:0:0
     RDKit          3D

 93 89  0  0  1  0  0  0  0  0999 V2000
  -18.1230  -27.9550   24.1790 C   0  0  0  0  0  1  0  0  0  0  0  0
  -18.7600  -29.4610   22.1990 C   0  0  0  0  0  1  0  0  0  0  0  0
  -18.9910  -26.5130   24.3250 C   0  0  0  0  0  2  0  0  0  0  0  0
  -20.0020  -28.9300   21.2070 C   0  0  0  0  0  2  0  0  0  0  0  0
  -20.2090  -26.0990   23.2380 C   0  0  0  0  0  2  0  0  0  0  0  0
  -20.8340  -27.5210   21.5340 C   0  0  0  0  0  1  0  0  0  0  0  0
  -20.8580  -24.3420   23.6020 C   0  0  0  0  0  0  0  0  0  0  0  0
  -22.1040  -23.4740   23.0720 N   0  0  0  0  0  0  0  0  0  0  0  0
  -20.1640  -23.7370   24.4190 O   0  0  0  0  0  0  0  0  0  0  0  0
  -22.6050  -24.0960   22.4490 H   0  0  0  0  0  0  0  0  0  0  0  0
  -22.9270  -21.8590   22.9280 C   0  0  0  0  0  1  0  0  0  0  0  0
  -24.6670  -20.9910   22.4850 C   0  0  0  0  0 15  0  0  0  0  0  0
  -25.5160  -19.2760   21.9160 C   0  0  0  0  0 15  0  0  0  0  0  0
  -27.2310  -18.2600   21.7970 C   0  0  0  0  0 15  0  0  0  0  0  0
  -28.0090  -16.5150   21.2370 C   0  0  0  0  0  1  0  0  0  0  0  0
  -29.5340  -15.4170   20.7870 C   0  0  0  0  0  0  0  0  0  0  0  0
  -30.3480  -13.0620   19.6790 C   0  0  0  0  0  2  0  0  0  0  0  0
  -29.5360  -12.6710   18.3980 C   0  0  0  0  0  2  0  0  0  0  0  0
  -28.0920  -12.2550   18.7470 C   0  0  0  0  0  2  0  0  0  0  0  0
  -27.5330  -13.1850   19.8420 C   0  0  0  0  0  3  0  0  0  0  0  0
  -28.4400  -13.2050   21.0650 C   0  0  0  0  0  2  0  0  0  0  0  0
  -29.5360  -13.9910   20.6010 N   0  0  0  0  0  0  0  0  0  0  0  0
  -30.7040  -15.7730   20.4680 O   0  0  0  0  0  0  0  0  0  0  0  0
  -25.1850  -13.7860   20.5310 C   0  0  0  0  0  0  0  0  0  0  0  0
  -24.1330  -13.0240   20.9170 C   0  0  0  0  0  0  0  0  0  0  0  0
  -24.5960  -11.6750   20.8760 C   0  0  0  0  0  0  0  0  0  0  0  0
  -26.2060  -12.8950   20.2730 N   0  0  0  0  0  0  0  0  0  0  0  0
  -25.8750  -11.6200   20.5520 N   0  0  0  0  0  0  0  0  0  0  0  0
  -23.8770  -10.4230   21.0470 C   0  0  0  0  0  0  0  0  0  0  0  0
  -24.3470   -9.4240   21.9230 C   0  0  0  0  0  3  0  0  0  0  0  0
  -23.6240   -8.2240   22.0780 C   0  0  0  0  0  3  0  0  0  0  0  0
  -22.4240   -8.0240   21.3540 C   0  0  0  0  0  0  0  0  0  0  0  0
  -21.9790   -9.0170   20.4640 C   0  0  0  0  0  3  0  0  0  0  0  0
  -22.7000  -10.2090   20.3070 C   0  0  0  0  0  3  0  0  0  0  0  0
  -21.6640   -6.8830   21.4230 O   0  0  0  0  0  0  0  0  0  0  0  0
  -21.6860   -6.0720   22.5280 C   0  0  0  0  0  0  0  0  0  0  0  0
  -21.4000   -6.5640   23.8200 C   0  0  0  0  0  3  0  0  0  0  0  0
  -21.3630   -5.6790   24.9170 C   0  0  0  0  0  3  0  0  0  0  0  0
  -21.6040   -4.3060   24.7230 C   0  0  0  0  0  0  0  0  0  0  0  0
  -21.8830   -3.8140   23.4360 C   0  0  0  0  0  3  0  0  0  0  0  0
  -21.9210   -4.6950   22.3410 C   0  0  0  0  0  0  0  0  0  0  0  0
  -22.1680   -4.2130   21.0990 F   0  0  0  0  0  0  0  0  0  0  0  0
  -21.5620   -3.4550   25.7750 F   0  0  0  0  0  0  0  0  0  0  0  0
  -22.7500  -13.5190   21.1880 C   0  0  0  0  0  0  0  0  0  0  0  0
  -22.0200  -12.8250   22.0470 N   0  0  0  0  0  0  0  0  0  0  0  0
  -22.3290  -14.5550   20.6750 O   0  0  0  0  0  0  0  0  0  0  0  0
  -22.3880  -11.9870   22.4730 H   0  0  0  0  0  0  0  0  0  0  0  0
  -21.0850  -13.1330   22.2710 H   0  0  0  0  0  0  0  0  0  0  0  0
  -25.3360  -15.1490   20.3400 N   0  0  0  0  0  0  0  0  0  0  0  0
  -24.5390  -15.7750   20.3490 H   0  0  0  0  0  0  0  0  0  0  0  0
  -26.1020  -15.4880   19.7750 H   0  0  0  0  0  0  0  0  0  0  0  0
  -22.6590  -27.4410   20.5590 C   0  0  0  0  0 15  0  0  0  0  0  0
  -24.5020  -27.1030   20.9550 O   0  0  0  0  0  1  0  0  0  0  0  0
  -24.6890  -31.9650   23.2280 C   0  0  0  0  0  0  0  0  0  0  0  0
  -25.8840  -27.2370   20.4220 C   0  0  0  0  0  3  0  0  0  0  0  0
  -23.5060  -30.6530   21.5760 C   0  0  0  0  0  3  0  0  0  0  0  0
  -24.8490  -29.4270   19.7460 C   0  0  0  0  0  3  0  0  0  0  0  0
  -26.0300  -30.8450   21.4290 C   0  0  0  0  0  2  0  0  0  0  0  0
  -25.9190  -29.5550   20.6390 C   0  0  0  0  0  3  0  0  0  0  0  0
  -26.6330  -28.3740   20.8890 C   0  0  0  0  0  2  0  0  0  0  0  0
  -25.7240  -27.2480   19.0710 C   0  0  0  0  0  2  0  0  0  0  0  0
  -24.8500  -28.3260   18.8300 C   0  0  0  0  0  2  0  0  0  0  0  0
  -23.6860  -30.3480   20.0400 C   0  0  0  0  0  2  0  0  0  0  0  0
  -24.7570  -31.2390   22.0860 N   0  0  0  0  0  0  0  0  0  0  0  0
  -23.6040  -32.2180   23.7780 O   0  0  0  0  0  0  0  0  0  0  0  0
  -23.2430  -29.4980   22.5770 C   0  0  0  0  0  0  0  0  0  0  0  0
  -22.0660  -29.2560   23.0150 N   0  0  0  0  0  0  0  0  0  0  0  0
  -24.1200  -28.8440   23.1160 O   0  0  0  0  0  0  0  0  0  0  0  0
  -21.2700  -29.7870   22.6850 H   0  0  0  0  0  0  0  0  0  0  0  0
  -18.5120  -27.2830   22.1180 C   0  0  0  0  0  3  0  0  0  0  0  0
  -21.7830  -27.9530   23.6440 C   0  0  0  0  0  2  0  0  0  0  0  0
  -22.4040  -26.2500   22.6470 C   0  0  0  0  0 15  0  0  0  0  0  0
  -20.9210  -25.2820   21.1610 C   0  0  0  0  0 15  0  0  0  0  0  0
  -19.0110  -25.9040   21.1610 C   0  0  0  0  0  1  0  0  0  0  0  0
  -20.1620  -28.4530   23.5640 C   0  0  0  0  0  3  0  0  0  0  0  0
  -19.4570  -29.8810   24.3820 C   0  0  0  0  0  3  0  0  0  0  0  0
  -17.7860  -30.3320   24.1900 C   0  0  0  0  0  3  0  0  0  0  0  0
  -16.6030  -29.5170   23.2200 C   0  0  0  0  0  3  0  0  0  0  0  0
  -16.8730  -28.0840   22.2280 C   0  0  0  0  0  3  0  0  0  0  0  0
  -25.9770  -32.5180   23.8710 C   0  0  0  0  0  3  0  0  0  0  0  0
  -25.6600  -33.8900   24.2670 N   0  0  0  0  0  0  0  0  0  0  0  0
  -25.9200  -34.9650   23.5170 C   0  0  0  0  0  0  0  0  0  0  0  0
  -26.5480  -34.9040   22.4570 O   0  0  0  0  0  0  0  0  0  0  0  0
  -25.1020  -34.0060   25.1010 H   0  0  0  0  0  0  0  0  0  0  0  0
  -24.1530  -36.7350   23.2580 C   0  0  0  0  0  1  0  0  0  0  0  0
  -25.4150  -36.3240   24.0330 C   0  0  0  0  0  3  0  0  0  0  0  0
  -27.5620  -37.1880   24.8450 C   0  0  0  0  0  1  0  0  0  0  0  0
  -26.4300  -37.3950   23.9450 N   0  0  0  0  0  0  0  0  0  0  0  0
  -26.0180  -38.3000   24.1570 H   0  0  0  0  0  0  0  0  0  0  0  0
  -26.4720  -31.6720   25.1040 C   0  0  1  0  0  0  0  0  0  0  0  0
  -25.3740  -31.3790   26.1530 C   0  0  0  0  0  1  0  0  0  0  0  0
  -27.0560  -30.3140   24.6530 C   0  0  0  0  0  1  0  0  0  0  0  0
  -27.6210  -32.4310   25.8020 C   0  0  0  0  0  1  0  0  0  0  0  0
  1  3  1  0
  4  6  1  0
  4  2  1  0
  5  7  1  0
  5  3  1  0
  7  9  2  0
  8  7  1  0
 10  8  1  0
 11  8  1  0
 16 15  1  0
 17 22  1  0
 18 19  1  0
 18 17  1  0
 20 19  1  0
 20 27  1  0
 20 21  1  0
 22 16  1  0
 22 21  1  0
 23 16  2  0
 24 25  2  0
 25 44  1  0
 26 25  1  0
 26 29  1  0
 27 24  1  0
 27 28  1  0
 28 26  2  0
 29 30  1  0
 30 31  2  0
 32 35  1  0
 32 31  1  0
 33 32  2  0
 34 33  1  0
 34 29  2  0
 35 36  1  0
 36 37  1  0
 37 38  2  0
 39 38  1  0
 39 43  1  0
 40 39  2  0
 41 36  2  0
 41 40  1  0
 42 41  1  0
 44 45  1  0
 45 48  1  0
 45 47  1  0
 46 44  2  0
 49 50  1  0
 49 24  1  0
 51 49  1  0
 54 65  2  0
 55 60  1  0
 55 53  1  0
 56 64  1  0
 56 66  1  0
 57 62  1  0
 57 63  1  0
 57 59  1  0
 58 64  1  0
 59 60  1  0
 59 58  1  0
 61 55  1  0
 62 61  1  0
 63 56  1  0
 64 54  1  0
 66 67  1  0
 66 68  2  0
 67 71  1  0
 69 67  1  0
 70 79  2  0
 74 70  1  0
 75 71  1  0
 75 76  2  0
 77 76  1  0
 78 77  2  0
 79 78  1  0
 80 54  1  0
 80 81  1  0
 80 90  1  0
 81 84  1  0
 82 86  1  0
 82 81  1  0
 83 82  2  0
 86 85  1  0
 88 86  1  0
 88 89  1  0
 88 87  1  0
 90 93  1  1
 90 91  1  0
 92 90  1  0
M  ISO  4  15 100  16 100  52 101  53 101
M  END
>  <TORSDO>  (98) 
F 23

>  <SCORE>  (98) 
39.895

>  <name>  (98) 
98

>  <ligand_id>  (98) 
98

>  <original_smiles>  (98) 
[H]c1c([H])c([H])c(C([H])([H])Oc2c([H])c([H])c3c(c2[H])C([H])([H])N(C(=O)C([H])(N([H])C(=O)C([H])(N([H])C([H])([H])[H])C([H])([H])[H])C(C([H])([H])[H])(C([H])([H])[H])C([H])([H])[H])C([H])(C(=O)N([H])C2([H])c4c([H])c([H])c([H])c([H])c4C([H])([H])C([H])([H])C2([H])[H])C3([H])[H])c(C(=O)N([H])C([H])([H])C([H])([H])C([H])([H])C([H])([H])C([H])([H])C(=O)N2C([H])([H])C([H])([H])C([H])([H])C([H])(n3nc(-c4c([H])c([H])c(Oc5c([H])c([H])c(F)c([H])c5F)c([H])c4[H])c(C(=O)N([H])[H])c3N([H])[H])C2([H])[H])c1[H]

>  <smiles>  (98) 
[H]c1c([H])c([H])c(C([H])([H])Oc2c([H])c([H])c3c(c2[H])C([H])([H])N(C(=O)C([H])(N([H])C(=O)C([H])(N([H])C([H])([H])[H])C([H])([H])[H])C(C([H])([H])[H])(C([H])([H])[H])C([H])([H])[H])C([H])(C(=O)N([H])C2([H])c4c([H])c([H])c([H])c([H])c4C([H])([H])C([H])([H])C2([H])[H])C3([H])[H])c(C(=O)N([H])C([H])([H])C([H])([H])C([H])([H])C([H])([H])C([H])([H])C(=O)N2C([H])([H])C([H])([H])C([H])([H])C([H])(n3nc(-c4c([H])c([H])c(Oc5c([H])c([H])c(F)c([H])c5F)c([H])c4[H])c(C(=O)N([H])[H])c3N([H])[H])C2([H])[H])c1[H]

$$$$
