0:0:0
     RDKit          3D

 96104  0  0  1  0  0  0  0  0999 V2000
  -29.8750  -22.4940   21.7070 C   0  0  0  0  0  3  0  0  0  0  0  0
  -28.6580  -25.5670   23.6810 C   0  0  0  0  0  3  0  0  0  0  0  0
  -29.0880  -24.2630   23.3840 C   0  0  0  0  0  3  0  0  0  0  0  0
  -28.5140  -26.5030   22.6470 C   0  0  0  0  0  3  0  0  0  0  0  0
  -29.2250  -24.8320   21.0320 C   0  0  0  0  0  3  0  0  0  0  0  0
  -29.3970  -23.8680   22.0550 C   0  0  0  0  0  0  0  0  0  0  0  0
  -28.7800  -26.1390   21.3050 C   0  0  0  0  0  0  0  0  0  0  0  0
  -28.6300  -27.0140   20.2540 O   0  0  0  0  0  0  0  0  0  0  0  0
  -24.5940  -31.9090   23.3600 C   0  0  0  0  0  0  0  0  0  0  0  0
  -27.4540  -27.7130   20.2000 C   0  0  0  0  0  0  0  0  0  0  0  0
  -23.4730  -30.5500   21.6180 C   0  0  0  0  0  3  0  0  0  0  0  0
  -25.0110  -29.1100   20.1810 C   0  0  0  0  0  0  0  0  0  0  0  0
  -25.9870  -30.9960   21.5120 C   0  0  0  0  0  2  0  0  0  0  0  0
  -26.1300  -29.6630   20.8170 C   0  0  0  0  0  0  0  0  0  0  0  0
  -27.3590  -28.9800   20.8080 C   0  0  0  0  0  3  0  0  0  0  0  0
  -26.3280  -27.1580   19.5590 C   0  0  0  0  0  3  0  0  0  0  0  0
  -25.1030  -27.8560   19.5450 C   0  0  0  0  0  3  0  0  0  0  0  0
  -23.7400  -29.9280   20.2200 C   0  0  0  0  0  2  0  0  0  0  0  0
  -24.7010  -31.1640   22.2230 N   0  0  0  0  0  0  0  0  0  0  0  0
  -23.4890  -32.1290   23.8780 O   0  0  0  0  0  0  0  0  0  0  0  0
  -22.8200  -29.4750   22.5160 C   0  0  0  0  0  0  0  0  0  0  0  0
  -21.5070  -29.2660   22.3330 N   0  0  0  0  0  0  0  0  0  0  0  0
  -23.4940  -28.8330   23.3260 O   0  0  0  0  0  0  0  0  0  0  0  0
  -21.0250  -29.8370   21.6530 H   0  0  0  0  0  0  0  0  0  0  0  0
  -18.1500  -27.9790   22.6430 C   0  0  0  0  0  0  0  0  0  0  0  0
  -20.6870  -28.2780   23.0320 C   0  0  0  0  0  3  0  0  0  0  0  0
  -20.8480  -26.8750   22.3990 C   0  0  0  0  0  2  0  0  0  0  0  0
  -19.7940  -26.5740   21.3290 C   0  0  0  0  0  2  0  0  0  0  0  0
  -18.3860  -26.6630   21.9210 C   0  0  0  0  0  2  0  0  0  0  0  0
  -19.2320  -28.7470   23.1500 C   0  0  0  0  0  0  0  0  0  0  0  0
  -18.9590  -29.9840   23.7760 C   0  0  0  0  0  3  0  0  0  0  0  0
  -17.6370  -30.4520   23.9020 C   0  0  0  0  0  3  0  0  0  0  0  0
  -16.5690  -29.6800   23.4140 C   0  0  0  0  0  3  0  0  0  0  0  0
  -16.8260  -28.4440   22.7940 C   0  0  0  0  0  3  0  0  0  0  0  0
  -25.8460  -32.5360   24.0510 C   0  0  0  0  0  3  0  0  0  0  0  0
  -25.5150  -33.9250   24.3920 N   0  0  0  0  0  0  0  0  0  0  0  0
  -25.8730  -34.9920   23.6650 C   0  0  0  0  0  0  0  0  0  0  0  0
  -26.5840  -34.9100   22.6600 O   0  0  0  0  0  0  0  0  0  0  0  0
  -24.8920  -34.0610   25.1740 H   0  0  0  0  0  0  0  0  0  0  0  0
  -24.1430  -36.7700   23.2680 C   0  0  0  0  0  1  0  0  0  0  0  0
  -25.3540  -36.3680   24.1240 C   0  0  0  0  0  3  0  0  0  0  0  0
  -27.4460  -37.2590   25.0560 C   0  0  0  0  0  1  0  0  0  0  0  0
  -26.3820  -37.4310   24.0690 N   0  0  0  0  0  0  0  0  0  0  0  0
  -25.9630  -38.3470   24.2080 H   0  0  0  0  0  0  0  0  0  0  0  0
  -26.3180  -31.7410   25.3290 C   0  0  1  0  0  0  0  0  0  0  0  0
  -25.1860  -31.4660   26.3440 C   0  0  0  0  0  1  0  0  0  0  0  0
  -26.9340  -30.3810   24.9220 C   0  0  0  0  0  1  0  0  0  0  0  0
  -27.4280  -32.5330   26.0600 C   0  0  0  0  0  1  0  0  0  0  0  0
  -28.9190  -21.4630   22.1650 N   0  0  0  0  0  4  0  0  0  0  0  0
  -29.1000  -21.2420   23.1280 H   0  0  0  0  0  0  0  0  0  0  0  0
  -28.0110  -21.8970   22.1310 H   0  0  0  0  0  0  0  0  0  0  0  0
  -28.8210  -20.2180   21.3640 C   0  0  0  0  0  2  0  0  0  0  0  0
  -30.1570  -19.4600   21.2390 C   0  0  0  0  0  2  0  0  0  0  0  0
  -30.0230  -17.9340   21.1480 C   0  0  0  0  0  2  0  0  0  0  0  0
  -31.4050  -17.2770   20.9800 C   0  0  0  0  0  2  0  0  0  0  0  0
  -31.5190  -15.8810   21.6080 C   0  0  0  0  0  2  0  0  0  0  0  0
  -30.8180  -14.2250   19.8810 C   0  0  0  0  0  0  0  0  0  0  0  0
  -30.3870  -12.0460   18.8080 C   0  0  0  0  0  2  0  0  0  0  0  0
  -29.3680  -12.1200   17.6610 C   0  0  0  0  0  2  0  0  0  0  0  0
  -27.9340  -11.9830   18.2050 C   0  0  0  0  0  2  0  0  0  0  0  0
  -27.6540  -12.9590   19.3750 C   0  0  0  0  0  3  0  0  0  0  0  0
  -28.7690  -12.8730   20.4390 C   0  0  0  0  0  2  0  0  0  0  0  0
  -30.0710  -13.0990   19.7820 N   0  0  0  0  0  0  0  0  0  0  0  0
  -31.7230  -14.5210   19.0940 O   0  0  0  0  0  0  0  0  0  0  0  0
  -30.6170  -14.9010   21.0160 N   0  0  0  0  0  0  0  0  0  0  0  0
  -29.8730  -14.5550   21.6050 H   0  0  0  0  0  0  0  0  0  0  0  0
  -25.3280  -13.6270   20.2560 C   0  0  0  0  0  0  0  0  0  0  0  0
  -24.2770  -12.8820   20.7200 C   0  0  0  0  0  0  0  0  0  0  0  0
  -24.7090  -11.5220   20.6750 C   0  0  0  0  0  0  0  0  0  0  0  0
  -26.3360  -12.7220   19.9600 N   0  0  0  0  0  0  0  0  0  0  0  0
  -25.9710  -11.4510   20.2690 N   0  0  0  0  0  0  0  0  0  0  0  0
  -23.9770  -10.2760   20.9420 C   0  0  0  0  0  0  0  0  0  0  0  0
  -24.4230   -9.3510   21.9120 C   0  0  0  0  0  3  0  0  0  0  0  0
  -23.6920   -8.1690   22.1630 C   0  0  0  0  0  3  0  0  0  0  0  0
  -22.5040   -7.9030   21.4420 C   0  0  0  0  0  0  0  0  0  0  0  0
  -22.0760   -8.8170   20.4630 C   0  0  0  0  0  3  0  0  0  0  0  0
  -22.8070   -9.9910   20.2100 C   0  0  0  0  0  3  0  0  0  0  0  0
  -21.7430   -6.7700   21.6000 O   0  0  0  0  0  0  0  0  0  0  0  0
  -21.6820   -6.1050   22.7980 C   0  0  0  0  0  0  0  0  0  0  0  0
  -21.2370   -6.7380   23.9790 C   0  0  0  0  0  3  0  0  0  0  0  0
  -21.1230   -5.9980   25.1730 C   0  0  0  0  0  3  0  0  0  0  0  0
  -21.4450   -4.6280   25.1870 C   0  0  0  0  0  0  0  0  0  0  0  0
  -21.8820   -3.9950   24.0110 C   0  0  0  0  0  3  0  0  0  0  0  0
  -21.9980   -4.7320   22.8180 C   0  0  0  0  0  0  0  0  0  0  0  0
  -22.4010   -4.1130   21.6820 F   0  0  0  0  0  0  0  0  0  0  0  0
  -21.3280   -3.9150   26.3320 F   0  0  0  0  0  0  0  0  0  0  0  0
  -22.9150  -13.3910   21.0930 C   0  0  0  0  0  0  0  0  0  0  0  0
  -22.2440  -12.7250   22.0270 N   0  0  0  0  0  0  0  0  0  0  0  0
  -22.4540  -14.4150   20.5900 O   0  0  0  0  0  0  0  0  0  0  0  0
  -22.6290  -11.8950   22.4550 H   0  0  0  0  0  0  0  0  0  0  0  0
  -21.3360  -13.0520   22.3220 H   0  0  0  0  0  0  0  0  0  0  0  0
  -25.5020  -14.9920   20.0470 N   0  0  0  0  0  0  0  0  0  0  0  0
  -24.7570  -15.6600   20.2090 H   0  0  0  0  0  0  0  0  0  0  0  0
  -26.3360  -15.4130   19.6570 H   0  0  0  0  0  0  0  0  0  0  0  0
  -31.2180  -22.3450   22.4500 C   0  0  0  0  0  3  0  0  0  0  0  0
  -32.2660  -21.9770   21.9130 O   0  0  0  0  0  0  0  0  0  0  0  0
  1  6  1  0
  1 49  1  0
  1 95  1  0
  3  2  1  0
  4  2  2  0
  5  7  2  0
  5  6  1  0
  6  3  2  0
  7  4  1  0
  8  7  1  0
  9 20  2  0
 10  8  1  0
 10 15  1  0
 11 19  1  0
 11 21  1  0
 12 18  1  0
 12 14  1  0
 13 19  1  0
 14 13  1  0
 15 14  2  0
 16 10  2  0
 17 16  1  0
 17 12  2  0
 18 11  1  0
 19  9  1  0
 21 23  2  0
 22 21  1  0
 24 22  1  0
 25 34  2  0
 25 30  1  0
 26 22  1  0
 26 30  1  0
 27 26  1  0
 28 29  1  0
 28 27  1  0
 29 25  1  0
 30 31  2  0
 31 32  1  0
 33 32  2  0
 34 33  1  0
 35  9  1  0
 35 36  1  0
 35 45  1  0
 36 39  1  0
 37 41  1  0
 37 36  1  0
 38 37  2  0
 41 40  1  0
 43 41  1  0
 43 44  1  0
 43 42  1  0
 45 48  1  1
 45 46  1  0
 47 45  1  0
 49 50  1  0
 51 49  1  0
 52 49  1  0
 53 52  1  0
 54 53  1  0
 55 54  1  0
 55 56  1  0
 57 65  1  0
 58 63  1  0
 59 60  1  0
 59 58  1  0
 61 60  1  0
 61 70  1  0
 61 62  1  0
 63 57  1  0
 63 62  1  0
 64 57  2  0
 65 66  1  0
 65 56  1  0
 67 68  2  0
 68 87  1  0
 69 68  1  0
 69 72  1  0
 70 67  1  0
 70 71  1  0
 71 69  2  0
 72 73  1  0
 73 74  2  0
 75 78  1  0
 75 74  1  0
 76 75  2  0
 77 76  1  0
 77 72  2  0
 78 79  1  0
 79 84  2  0
 79 80  1  0
 80 81  2  0
 81 82  1  0
 82 86  1  0
 83 82  2  0
 84 83  1  0
 85 84  1  0
 87 88  1  0
 88 91  1  0
 88 90  1  0
 89 87  2  0
 92 93  1  0
 92 67  1  0
 94 92  1  0
 96 95  2  0
M  ISO  4   7 101   8 101  57 100  65 100
M  END
>  <TORSDO>  (1) 
F 24

>  <SCORE>  (1) 
-11.100

>  <name>  (1) 
0

>  <ligand_id>  (1) 
0

>  <original_smiles>  (1) 
[H]C(=O)C([H])(c1c([H])c([H])c([H])c(Oc2c([H])c([H])c3c(c2[H])C([H])([H])N(C(=O)C([H])(N([H])C(=O)C([H])(N([H])C([H])([H])[H])C([H])([H])[H])C(C([H])([H])[H])(C([H])([H])[H])C([H])([H])[H])C([H])(C(=O)N([H])C2([H])c4c([H])c([H])c([H])c([H])c4C([H])([H])C([H])([H])C2([H])[H])C3([H])[H])c1[H])[N+]([H])([H])C([H])([H])C([H])([H])C([H])([H])C([H])([H])C([H])([H])N([H])C(=O)N1C([H])([H])C([H])([H])C([H])([H])C([H])(n2nc(-c3c([H])c([H])c(Oc4c([H])c([H])c(F)c([H])c4F)c([H])c3[H])c(C(=O)N([H])[H])c2N([H])[H])C1([H])[H]

>  <smiles>  (1) 
[H]C(=O)C([H])(c1c([H])c([H])c([H])c(Oc2c([H])c([H])c3c(c2[H])C([H])([H])N(C(=O)C([H])(N([H])C(=O)C([H])(N([H])C([H])([H])[H])C([H])([H])[H])C(C([H])([H])[H])(C([H])([H])[H])C([H])([H])[H])C([H])(C(=O)N([H])C2([H])c4c([H])c([H])c([H])c([H])c4C([H])([H])C([H])([H])C2([H])[H])C3([H])[H])c1[H])[N+]([H])([H])C([H])([H])C([H])([H])C([H])([H])C([H])([H])C([H])([H])N([H])C(=O)N1C([H])([H])C([H])([H])C([H])([H])C([H])(n2nc(-c3c([H])c([H])c(Oc4c([H])c([H])c(F)c([H])c4F)c([H])c3[H])c(C(=O)N([H])[H])c2N([H])[H])C1([H])[H]

$$$$
1:0:0
     RDKit          3D

 96105  0  0  1  0  0  0  0  0999 V2000
  -27.2880  -21.9790   20.4870 C   0  0  0  0  0  3  0  0  0  0  0  0
  -27.7350  -23.2020   21.0170 C   0  0  0  0  0  3  0  0  0  0  0  0
  -29.8590  -22.1400   21.4720 C   0  0  0  0  0  3  0  0  0  0  0  0
  -29.4520  -20.8630   20.8860 C   0  0  0  0  0  0  0  0  0  0  0  0
  -28.0700  -20.7920   20.5110 C   0  0  0  0  0  0  0  0  0  0  0  0
  -28.9990  -23.3090   21.6080 C   0  0  0  0  0  0  0  0  0  0  0  0
  -25.7260  -17.5300   18.6470 C   0  0  0  0  0  2  0  0  0  0  0  0
  -27.2310  -17.3320   18.8750 C   0  0  0  0  0  2  0  0  0  0  0  0
  -25.0970  -18.3150   19.8030 C   0  0  0  0  0  2  0  0  0  0  0  0
  -27.9650  -18.6680   19.0840 C   0  0  0  0  0  2  0  0  0  0  0  0
  -25.8130  -19.6620   19.9860 C   0  0  0  0  0  2  0  0  0  0  0  0
  -27.3330  -19.4700   20.2340 C   0  0  0  0  0  3  0  0  0  0  0  0
  -30.4330  -19.6330   20.8200 C   0  0  0  0  0  0  0  0  0  0  0  0
  -30.0190  -18.3120   20.7110 N   0  0  0  0  0  0  0  0  0  0  0  0
  -31.6400  -19.8750   20.8250 O   0  0  0  0  0  0  0  0  0  0  0  0
  -29.0180  -18.1810   20.6940 H   0  0  0  0  0  0  0  0  0  0  0  0
  -30.8800  -17.0430   20.5630 C   0  0  0  0  0  3  0  0  0  0  0  0
  -30.4460  -15.6370   21.2550 C   0  0  0  0  0  3  0  0  0  0  0  0
  -31.1960  -14.2510   20.8940 C   0  0  0  0  0  0  0  0  0  0  0  0
  -30.9560  -11.9310   19.9540 C   0  0  0  0  0  2  0  0  0  0  0  0
  -30.0860  -11.9960   18.6780 C   0  0  0  0  0  2  0  0  0  0  0  0
  -28.5890  -11.9010   19.0340 C   0  0  0  0  0  2  0  0  0  0  0  0
  -28.2000  -12.8640   20.1850 C   0  0  0  0  0  3  0  0  0  0  0  0
  -29.1910  -12.7790   21.3670 C   0  0  0  0  0  2  0  0  0  0  0  0
  -30.5370  -13.0390   20.8450 N   0  0  0  0  0  0  0  0  0  0  0  0
  -32.3780  -14.2970   20.5400 O   0  0  0  0  0  0  0  0  0  0  0  0
  -25.8560  -13.6260   20.8830 C   0  0  0  0  0  0  0  0  0  0  0  0
  -24.7100  -12.9400   21.1750 C   0  0  0  0  0  0  0  0  0  0  0  0
  -25.0430  -11.5560   21.0530 C   0  0  0  0  0  0  0  0  0  0  0  0
  -26.8190  -12.6700   20.6140 N   0  0  0  0  0  0  0  0  0  0  0  0
  -26.3340  -11.4120   20.7750 N   0  0  0  0  0  0  0  0  0  0  0  0
  -24.1920  -10.3620   21.1260 C   0  0  0  0  0  0  0  0  0  0  0  0
  -24.3520   -9.4040   22.1510 C   0  0  0  0  0  3  0  0  0  0  0  0
  -23.5090   -8.2730   22.2100 C   0  0  0  0  0  3  0  0  0  0  0  0
  -22.4930   -8.0930   21.2400 C   0  0  0  0  0  0  0  0  0  0  0  0
  -22.3550   -9.0380   20.2100 C   0  0  0  0  0  3  0  0  0  0  0  0
  -23.1970  -10.1610   20.1490 C   0  0  0  0  0  3  0  0  0  0  0  0
  -21.6460   -7.0130   21.2050 O   0  0  0  0  0  0  0  0  0  0  0  0
  -21.1240   -6.4710   22.3510 C   0  0  0  0  0  0  0  0  0  0  0  0
  -20.3280   -7.2290   23.2390 C   0  0  0  0  0  3  0  0  0  0  0  0
  -19.7520   -6.6140   24.3680 C   0  0  0  0  0  3  0  0  0  0  0  0
  -19.9600   -5.2430   24.6070 C   0  0  0  0  0  0  0  0  0  0  0  0
  -20.7450   -4.4850   23.7210 C   0  0  0  0  0  3  0  0  0  0  0  0
  -21.3220   -5.0970   22.5950 C   0  0  0  0  0  0  0  0  0  0  0  0
  -22.0610   -4.3580   21.7330 F   0  0  0  0  0  0  0  0  0  0  0  0
  -19.4000   -4.6500   25.6870 F   0  0  0  0  0  0  0  0  0  0  0  0
  -23.3590  -13.5320   21.4510 C   0  0  0  0  0  0  0  0  0  0  0  0
  -22.5540  -12.8650   22.2700 N   0  0  0  0  0  0  0  0  0  0  0  0
  -23.0300  -14.6200   20.9800 O   0  0  0  0  0  0  0  0  0  0  0  0
  -22.8330  -11.9820   22.6700 H   0  0  0  0  0  0  0  0  0  0  0  0
  -21.6450  -13.2430   22.4990 H   0  0  0  0  0  0  0  0  0  0  0  0
  -26.1530  -14.9800   20.7900 N   0  0  0  0  0  0  0  0  0  0  0  0
  -25.4370  -15.6870   20.9080 H   0  0  0  0  0  0  0  0  0  0  0  0
  -27.0480  -15.3580   20.5120 H   0  0  0  0  0  0  0  0  0  0  0  0
  -29.2450  -24.5430   22.5840 C   0  0  0  0  0  2  0  0  0  0  0  0
  -29.2420  -25.9690   22.1730 O   0  0  0  0  0  0  0  0  0  0  0  0
  -24.9540  -31.4930   24.2790 C   0  0  0  0  0  0  0  0  0  0  0  0
  -28.1030  -26.7840   22.0650 C   0  0  0  0  0  0  0  0  0  0  0  0
  -24.1090  -30.0270   22.4820 C   0  0  0  0  0  3  0  0  0  0  0  0
  -25.8110  -28.4020   21.4740 C   0  0  0  0  0  0  0  0  0  0  0  0
  -26.6330  -30.3320   22.8220 C   0  0  0  0  0  2  0  0  0  0  0  0
  -26.8310  -28.9170   22.2840 C   0  0  0  0  0  0  0  0  0  0  0  0
  -27.9840  -28.1200   22.5700 C   0  0  0  0  0  3  0  0  0  0  0  0
  -27.0660  -26.3220   21.2300 C   0  0  0  0  0  3  0  0  0  0  0  0
  -25.9310  -27.1080   20.9420 C   0  0  0  0  0  3  0  0  0  0  0  0
  -24.6060  -29.2850   21.2110 C   0  0  0  0  0  2  0  0  0  0  0  0
  -25.2400  -30.6390   23.2520 N   0  0  0  0  0  0  0  0  0  0  0  0
  -23.7850  -31.7930   24.5630 O   0  0  0  0  0  0  0  0  0  0  0  0
  -23.2490  -29.0530   23.3230 C   0  0  0  0  0  0  0  0  0  0  0  0
  -21.9940  -28.8300   22.8980 N   0  0  0  0  0  0  0  0  0  0  0  0
  -23.7210  -28.4990   24.3190 O   0  0  0  0  0  0  0  0  0  0  0  0
  -21.6770  -29.3260   22.0760 H   0  0  0  0  0  0  0  0  0  0  0  0
  -18.5770  -27.6530   22.7270 C   0  0  0  0  0  0  0  0  0  0  0  0
  -21.0270  -27.9170   23.5130 C   0  0  0  0  0  3  0  0  0  0  0  0
  -21.2370  -26.4680   23.0150 C   0  0  0  0  0  2  0  0  0  0  0  0
  -20.3630  -26.1160   21.8070 C   0  0  0  0  0  2  0  0  0  0  0  0
  -18.8790  -26.2830   22.1460 C   0  0  0  0  0  2  0  0  0  0  0  0
  -19.5890  -28.4270   23.3560 C   0  0  0  0  0  0  0  0  0  0  0  0
  -19.2610  -29.7060   23.8530 C   0  0  0  0  0  3  0  0  0  0  0  0
  -17.9550  -30.2130   23.7320 C   0  0  0  0  0  3  0  0  0  0  0  0
  -16.9520  -29.4350   23.1270 C   0  0  0  0  0  3  0  0  0  0  0  0
  -17.2650  -28.1590   22.6270 C   0  0  0  0  0  3  0  0  0  0  0  0
  -26.0830  -32.1520   25.1290 C   0  0  0  0  0  3  0  0  0  0  0  0
  -25.8890  -33.6080   25.0750 N   0  0  0  0  0  0  0  0  0  0  0  0
  -26.5470  -34.4330   24.2500 C   0  0  0  0  0  0  0  0  0  0  0  0
  -27.4410  -34.0480   23.4920 O   0  0  0  0  0  0  0  0  0  0  0  0
  -25.1360  -33.9850   25.6320 H   0  0  0  0  0  0  0  0  0  0  0  0
  -25.2360  -36.2250   23.0680 C   0  0  0  0  0  1  0  0  0  0  0  0
  -26.1500  -35.9220   24.2670 C   0  0  0  0  0  3  0  0  0  0  0  0
  -28.0870  -36.8100   25.4860 C   0  0  0  0  0  1  0  0  0  0  0  0
  -27.3080  -36.8410   24.2510 N   0  0  0  0  0  0  0  0  0  0  0  0
  -27.0080  -37.7990   24.0900 H   0  0  0  0  0  0  0  0  0  0  0  0
  -26.1020  -31.6510   26.6260 C   0  0  1  0  0  0  0  0  0  0  0  0
  -24.7160  -31.6860   27.3110 C   0  0  0  0  0  1  0  0  0  0  0  0
  -26.6340  -30.2010   26.7100 C   0  0  0  0  0  1  0  0  0  0  0  0
  -27.0660  -32.5270   27.4600 C   0  0  0  0  0  1  0  0  0  0  0  0
  1  5  2  0
  1  2  1  0
  2  6  2  0
  3  6  1  0
  4  3  2  0
  5  4  1  0
  6 55  1  0
  7  8  1  0
  7  9  1  0
  8 10  1  0
  9 11  1  0
 10 12  1  0
 11 12  1  0
 12  5  1  0
 13 15  2  0
 13  4  1  0
 14 13  1  0
 16 14  1  0
 17 14  1  0
 17 18  2  0
 19 18  1  0
 20 25  1  0
 21 22  1  0
 21 20  1  0
 23 22  1  0
 23 30  1  0
 23 24  1  0
 25 19  1  0
 25 24  1  0
 26 19  2  0
 27 28  2  0
 28 47  1  0
 29 32  1  0
 29 28  1  0
 30 31  1  0
 30 27  1  0
 31 29  2  0
 32 33  1  0
 33 34  2  0
 35 34  1  0
 36 35  2  0
 37 36  1  0
 37 32  2  0
 38 35  1  0
 38 39  1  0
 39 44  2  0
 39 40  1  0
 40 41  2  0
 41 42  1  0
 42 46  1  0
 43 42  2  0
 44 43  1  0
 45 44  1  0
 47 48  1  0
 48 51  1  0
 48 50  1  0
 49 47  2  0
 52 27  1  0
 52 53  1  0
 54 52  1  0
 56 55  1  0
 57 68  2  0
 58 56  1  0
 58 63  1  0
 59 67  1  0
 59 69  1  0
 60 62  1  0
 61 67  1  0
 62 63  2  0
 62 61  1  0
 64 58  2  0
 65 64  1  0
 65 60  2  0
 66 60  1  0
 66 59  1  0
 67 57  1  0
 69 71  2  0
 70 69  1  0
 72 70  1  0
 73 78  1  0
 74 70  1  0
 75 74  1  0
 76 77  1  0
 76 75  1  0
 77 73  1  0
 78 74  1  0
 78 79  2  0
 80 79  1  0
 81 80  2  0
 82 73  2  0
 82 81  1  0
 83 57  1  0
 83 93  1  0
 84 83  1  0
 84 87  1  0
 85 89  1  0
 85 84  1  0
 86 85  2  0
 89 88  1  0
 91 89  1  0
 91 90  1  0
 92 91  1  0
 93 95  1  6
 93 94  1  0
 93 96  1  0
M  ISO  4  18 100  19 100  55 101  56 101
M  END
>  <TORSDO>  (2) 
F 21

>  <SCORE>  (2) 
-4.766

>  <name>  (2) 
1

>  <ligand_id>  (2) 
1

>  <original_smiles>  (2) 
[H]c1c([H])c([H])c2c(c1[H])C([H])([H])C([H])([H])C([H])([H])C2([H])N([H])C(=O)C1([H])N(C(=O)C([H])(N([H])C(=O)C([H])(N([H])C([H])([H])[H])C([H])([H])[H])C(C([H])([H])[H])(C([H])([H])[H])C([H])([H])[H])C([H])([H])c2c([H])c(OC([H])([H])c3c([H])c([H])c(C4([H])C([H])([H])C([H])([H])C([H])([H])C([H])([H])C4([H])[H])c(C(=O)N([H])C([H])([H])C([H])([H])C(=O)N4C([H])([H])C([H])([H])C([H])([H])C([H])(n5nc(-c6c([H])c([H])c(Oc7c([H])c([H])c(F)c([H])c7F)c([H])c6[H])c(C(=O)N([H])[H])c5N([H])[H])C4([H])[H])c3[H])c([H])c([H])c2C1([H])[H]

>  <smiles>  (2) 
[H]c1c([H])c([H])c2c(c1[H])C([H])([H])C([H])([H])C([H])([H])C2([H])N([H])C(=O)C1([H])N(C(=O)C([H])(N([H])C(=O)C([H])(N([H])C([H])([H])[H])C([H])([H])[H])C(C([H])([H])[H])(C([H])([H])[H])C([H])([H])[H])C([H])([H])c2c([H])c(OC([H])([H])c3c([H])c([H])c(C4([H])C([H])([H])C([H])([H])C([H])([H])C([H])([H])C4([H])[H])c(C(=O)N([H])C([H])([H])C([H])([H])C(=O)N4C([H])([H])C([H])([H])C([H])([H])C([H])(n5nc(-c6c([H])c([H])c(Oc7c([H])c([H])c(F)c([H])c7F)c([H])c6[H])c(C(=O)N([H])[H])c5N([H])[H])C4([H])[H])c3[H])c([H])c([H])c2C1([H])[H]

$$$$
2:0:0
     RDKit          3D

 91100  0  0  1  0  0  0  0  0999 V2000
  -29.3250  -21.1020   20.3960 C   0  0  0  0  0  0  0  0  0  0  0  0
  -28.6120  -22.2810   20.4920 N   0  0  0  0  0  0  0  0  0  0  0  0
  -30.5240  -21.1070   20.1100 O   0  0  0  0  0  0  0  0  0  0  0  0
  -27.6370  -22.1730   20.7410 H   0  0  0  0  0  0  0  0  0  0  0  0
  -27.5050  -19.4320   19.6290 C   0  0  0  0  0  2  0  0  0  0  0  0
  -27.6060  -17.9510   19.2710 C   0  0  0  0  0  2  0  0  0  0  0  0
  -28.6000  -19.7180   20.6780 C   0  0  0  0  0  3  0  0  0  0  0  0
  -28.4530  -17.2980   20.3420 C   0  0  0  0  0  3  0  0  0  0  0  0
  -29.3190  -18.3210   21.0220 C   0  0  0  0  0  3  0  0  0  0  0  0
  -29.9420  -17.0790   20.2090 C   0  0  0  0  0  3  0  0  0  0  0  0
  -31.0280  -14.6660   20.2160 C   0  0  0  0  0  0  0  0  0  0  0  0
  -30.8300  -12.3770   19.2210 C   0  0  0  0  0  2  0  0  0  0  0  0
  -29.8920  -12.4920   17.9950 C   0  0  0  0  0  2  0  0  0  0  0  0
  -28.4130  -12.3920   18.4140 C   0  0  0  0  0  2  0  0  0  0  0  0
  -28.0830  -13.2870   19.6370 C   0  0  0  0  0  3  0  0  0  0  0  0
  -29.1250  -13.1030   20.7620 C   0  0  0  0  0  2  0  0  0  0  0  0
  -30.4440  -13.4220   20.1990 N   0  0  0  0  0  0  0  0  0  0  0  0
  -32.1320  -14.8510   19.6860 O   0  0  0  0  0  0  0  0  0  0  0  0
  -30.2450  -15.6960   20.7090 N   0  0  0  0  0  0  0  0  0  0  0  0
  -29.5120  -15.3420   21.3030 H   0  0  0  0  0  0  0  0  0  0  0  0
  -25.7250  -13.9950   20.3600 C   0  0  0  0  0  0  0  0  0  0  0  0
  -24.6240  -13.2810   20.7430 C   0  0  0  0  0  0  0  0  0  0  0  0
  -25.0170  -11.9070   20.7040 C   0  0  0  0  0  0  0  0  0  0  0  0
  -26.7260  -13.0690   20.1210 N   0  0  0  0  0  0  0  0  0  0  0  0
  -26.3040  -11.8050   20.3870 N   0  0  0  0  0  0  0  0  0  0  0  0
  -24.2270  -10.6870   20.9000 C   0  0  0  0  0  0  0  0  0  0  0  0
  -24.6000   -9.7140   21.8550 C   0  0  0  0  0  3  0  0  0  0  0  0
  -23.8160   -8.5560   22.0390 C   0  0  0  0  0  3  0  0  0  0  0  0
  -22.6450   -8.3630   21.2700 C   0  0  0  0  0  0  0  0  0  0  0  0
  -22.2870   -9.3220   20.3060 C   0  0  0  0  0  3  0  0  0  0  0  0
  -23.0720  -10.4740   20.1190 C   0  0  0  0  0  3  0  0  0  0  0  0
  -21.8360   -7.2580   21.3650 O   0  0  0  0  0  0  0  0  0  0  0  0
  -21.7120   -6.5520   22.5350 C   0  0  0  0  0  0  0  0  0  0  0  0
  -21.2550   -7.1600   23.7260 C   0  0  0  0  0  3  0  0  0  0  0  0
  -21.0720   -6.3850   24.8870 C   0  0  0  0  0  3  0  0  0  0  0  0
  -21.3380   -5.0020   24.8580 C   0  0  0  0  0  0  0  0  0  0  0  0
  -21.7900   -4.3940   23.6740 C   0  0  0  0  0  3  0  0  0  0  0  0
  -21.9710   -5.1680   22.5140 C   0  0  0  0  0  0  0  0  0  0  0  0
  -22.3850   -4.5730   21.3690 F   0  0  0  0  0  0  0  0  0  0  0  0
  -21.1570   -4.2540   25.9710 F   0  0  0  0  0  0  0  0  0  0  0  0
  -23.2570  -13.8280   21.0250 C   0  0  0  0  0  0  0  0  0  0  0  0
  -22.5050  -13.1890   21.9180 N   0  0  0  0  0  0  0  0  0  0  0  0
  -22.8610  -14.8620   20.4910 O   0  0  0  0  0  0  0  0  0  0  0  0
  -22.8330  -12.3550   22.3820 H   0  0  0  0  0  0  0  0  0  0  0  0
  -21.5860  -13.5450   22.1380 H   0  0  0  0  0  0  0  0  0  0  0  0
  -25.9490  -15.3500   20.1730 N   0  0  0  0  0  0  0  0  0  0  0  0
  -25.2070  -16.0330   20.2790 H   0  0  0  0  0  0  0  0  0  0  0  0
  -26.8210  -15.7540   19.8580 H   0  0  0  0  0  0  0  0  0  0  0  0
  -29.0620  -23.7090   20.2290 C   0  0  0  0  0  3  0  0  0  0  0  0
  -28.0590  -24.9040   20.6160 C   0  0  0  0  0  3  0  0  0  0  0  0
  -28.3730  -26.3350   20.2820 O   0  0  0  0  0  0  0  0  0  0  0  0
  -24.5420  -31.7220   23.1950 C   0  0  0  0  0  0  0  0  0  0  0  0
  -27.2890  -27.2250   20.1880 C   0  0  0  0  0  0  0  0  0  0  0  0
  -23.4140  -30.3360   21.5000 C   0  0  0  0  0  3  0  0  0  0  0  0
  -24.9250  -28.8310   20.1000 C   0  0  0  0  0  0  0  0  0  0  0  0
  -25.9540  -30.7000   21.3870 C   0  0  0  0  0  2  0  0  0  0  0  0
  -26.0740  -29.3300   20.7260 C   0  0  0  0  0  0  0  0  0  0  0  0
  -27.2710  -28.5450   20.7430 C   0  0  0  0  0  3  0  0  0  0  0  0
  -26.1200  -26.7930   19.5250 C   0  0  0  0  0  3  0  0  0  0  0  0
  -24.9490  -27.5700   19.4850 C   0  0  0  0  0  3  0  0  0  0  0  0
  -23.6790  -29.6910   20.1180 C   0  0  0  0  0  2  0  0  0  0  0  0
  -24.6560  -30.9350   22.0860 N   0  0  0  0  0  0  0  0  0  0  0  0
  -23.4370  -31.9660   23.7030 O   0  0  0  0  0  0  0  0  0  0  0  0
  -22.7410  -29.2890   22.4250 C   0  0  0  0  0  0  0  0  0  0  0  0
  -21.4170  -29.1070   22.2710 N   0  0  0  0  0  0  0  0  0  0  0  0
  -23.4080  -28.6490   23.2430 O   0  0  0  0  0  0  0  0  0  0  0  0
  -20.9370  -29.6810   21.5930 H   0  0  0  0  0  0  0  0  0  0  0  0
  -18.0320  -27.9000   22.7030 C   0  0  0  0  0  0  0  0  0  0  0  0
  -20.5890  -28.1480   23.0060 C   0  0  0  0  0  3  0  0  0  0  0  0
  -20.6940  -26.7310   22.3930 C   0  0  0  0  0  2  0  0  0  0  0  0
  -19.6000  -26.4380   21.3610 C   0  0  0  0  0  2  0  0  0  0  0  0
  -18.2130  -26.5690   21.9960 C   0  0  0  0  0  2  0  0  0  0  0  0
  -19.1480  -28.6480   23.1650 C   0  0  0  0  0  0  0  0  0  0  0  0
  -18.9230  -29.8940   23.7870 C   0  0  0  0  0  3  0  0  0  0  0  0
  -17.6140  -30.3860   23.9620 C   0  0  0  0  0  3  0  0  0  0  0  0
  -16.5160  -29.6360   23.5140 C   0  0  0  0  0  3  0  0  0  0  0  0
  -16.7250  -28.3980   22.8810 C   0  0  0  0  0  3  0  0  0  0  0  0
  -25.7900  -32.3700   23.8660 C   0  0  0  0  0  3  0  0  0  0  0  0
  -26.2520  -31.6140   25.1720 C   0  0  1  0  0  0  0  0  0  0  0  0
  -25.1190  -31.3780   26.1970 C   0  0  0  0  0  1  0  0  0  0  0  0
  -26.8550  -30.2360   24.8150 C   0  0  0  0  0  1  0  0  0  0  0  0
  -27.3540  -32.4310   25.8840 C   0  0  0  0  0  1  0  0  0  0  0  0
  -25.4480  -33.7680   24.1680 N   0  0  0  0  0  0  0  0  0  0  0  0
  -25.8090  -34.8230   23.4250 C   0  0  0  0  0  0  0  0  0  0  0  0
  -26.5260  -34.7220   22.4270 O   0  0  0  0  0  0  0  0  0  0  0  0
  -24.8050  -33.9140   24.9330 H   0  0  0  0  0  0  0  0  0  0  0  0
  -24.0830  -36.6060   23.0010 C   0  0  0  0  0  1  0  0  0  0  0  0
  -25.2930  -36.2090   23.8600 C   0  0  0  0  0  3  0  0  0  0  0  0
  -27.3860  -37.1190   24.7690 C   0  0  0  0  0  1  0  0  0  0  0  0
  -26.3190  -37.2710   23.7860 N   0  0  0  0  0  0  0  0  0  0  0  0
  -25.8970  -38.1870   23.9150 H   0  0  0  0  0  0  0  0  0  0  0  0
  1  2  1  0
  2  4  1  0
  3  1  2  0
  5  7  1  0
  6  5  1  0
  7  1  1  0
  7  9  1  0
  8  6  1  0
  8  9  1  0
 10  8  1  0
 10 19  1  0
 10  9  1  0
 11 19  1  0
 12 17  1  0
 13 14  1  0
 13 12  1  0
 14 15  1  0
 15 24  1  0
 15 16  1  0
 17 11  1  0
 17 16  1  0
 18 11  2  0
 19 20  1  0
 21 22  2  0
 22 41  1  0
 23 22  1  0
 23 26  1  0
 24 21  1  0
 24 25  1  0
 25 23  2  0
 26 27  1  0
 27 28  2  0
 29 32  1  0
 29 28  1  0
 30 29  2  0
 31 30  1  0
 31 26  2  0
 32 33  1  0
 33 34  1  0
 34 35  2  0
 36 35  1  0
 36 40  1  0
 37 36  2  0
 38 33  2  0
 38 37  1  0
 39 38  1  0
 41 42  1  0
 42 45  1  0
 42 44  1  0
 43 41  2  0
 46 47  1  0
 46 21  1  0
 48 46  1  0
 49  2  1  0
 49 50  2  0
 51 50  1  0
 52 63  2  0
 52 78  1  0
 53 51  1  0
 53 58  1  0
 54 62  1  0
 54 64  1  0
 55 61  1  0
 55 57  1  0
 56 62  1  0
 57 58  2  0
 57 56  1  0
 59 53  2  0
 60 59  1  0
 60 55  2  0
 61 54  1  0
 62 52  1  0
 64 66  2  0
 65 64  1  0
 65 69  1  0
 67 65  1  0
 68 77  2  0
 68 73  1  0
 69 73  1  0
 70 69  1  0
 71 72  1  0
 71 70  1  0
 72 68  1  0
 73 74  2  0
 74 75  1  0
 76 75  2  0
 77 76  1  0
 78 83  1  0
 78 79  1  0
 79 82  1  1
 79 80  1  0
 81 79  1  0
 83 86  1  0
 84 88  1  0
 84 83  1  0
 85 84  2  0
 87 88  1  0
 90 88  1  0
 90 91  1  0
 90 89  1  0
M  ISO  4  11 100  19 100  50 101  51 101
M  END
>  <TORSDO>  (3) 
F 19

>  <SCORE>  (3) 
-13.899

>  <name>  (3) 
2

>  <ligand_id>  (3) 
2

>  <original_smiles>  (3) 
[H]c1c([H])c([H])c2c(c1[H])C([H])([H])C([H])([H])C([H])([H])C2([H])N([H])C(=O)C1([H])N(C(=O)C([H])(N([H])C(=O)C([H])(N([H])C([H])([H])[H])C([H])([H])[H])C(C([H])([H])[H])(C([H])([H])[H])C([H])([H])[H])C([H])([H])c2c([H])c(OC([H])([H])C([H])([H])N([H])C(=O)C3([H])C([H])([H])C([H])([H])C4([H])C([H])(N([H])C(=O)N5C([H])([H])C([H])([H])C([H])([H])C([H])(n6nc(-c7c([H])c([H])c(Oc8c([H])c([H])c(F)c([H])c8F)c([H])c7[H])c(C(=O)N([H])[H])c6N([H])[H])C5([H])[H])C34[H])c([H])c([H])c2C1([H])[H]

>  <smiles>  (3) 
[H]c1c([H])c([H])c2c(c1[H])C([H])([H])C([H])([H])C([H])([H])C2([H])N([H])C(=O)C1([H])N(C(=O)C([H])(N([H])C(=O)C([H])(N([H])C([H])([H])[H])C([H])([H])[H])C(C([H])([H])[H])(C([H])([H])[H])C([H])([H])[H])C([H])([H])c2c([H])c(OC([H])([H])C([H])([H])N([H])C(=O)C3([H])C([H])([H])C([H])([H])C4([H])C([H])(N([H])C(=O)N5C([H])([H])C([H])([H])C([H])([H])C([H])(n6nc(-c7c([H])c([H])c(Oc8c([H])c([H])c(F)c([H])c8F)c([H])c7[H])c(C(=O)N([H])[H])c6N([H])[H])C5([H])[H])C34[H])c([H])c([H])c2C1([H])[H]

$$$$
3:0:0
     RDKit          3D

 96104  0  0  1  0  0  0  0  0999 V2000
  -32.4270  -21.0150   18.0450 C   0  0  0  0  0  3  0  0  0  0  0  0
  -33.2610  -21.8170   17.2420 C   0  0  0  0  0  3  0  0  0  0  0  0
  -31.8040  -23.7220   17.6450 C   0  0  0  0  0  3  0  0  0  0  0  0
  -31.2820  -21.5550   18.6810 C   0  0  0  0  0  0  0  0  0  0  0  0
  -32.9500  -23.1740   17.0380 C   0  0  0  0  0  0  0  0  0  0  0  0
  -30.9870  -22.9430   18.5010 C   0  0  0  0  0  0  0  0  0  0  0  0
  -33.8650  -24.0440   16.1940 C   0  0  0  0  0  1  0  0  0  0  0  0
  -30.4680  -20.6680   19.6010 C   0  0  0  0  0  0  0  0  0  0  0  0
  -30.2620  -19.3970   19.2240 N   0  0  0  0  0  0  0  0  0  0  0  0
  -29.9790  -21.1210   20.6420 O   0  0  0  0  0  0  0  0  0  0  0  0
  -30.6910  -19.0700   18.3680 H   0  0  0  0  0  0  0  0  0  0  0  0
  -29.5020  -18.4250   20.0120 C   0  0  0  0  0  2  0  0  0  0  0  0
  -30.3750  -17.2090   20.2990 C   0  0  0  0  0  2  0  0  0  0  0  0
  -29.7420  -16.2190   21.2980 C   0  0  0  0  0  2  0  0  0  0  0  0
  -30.6110  -14.9750   21.5700 C   0  0  0  0  0  2  0  0  0  0  0  0
  -30.8520  -14.1400   20.3060 C   0  0  0  0  0  0  0  0  0  0  0  0
  -30.3070  -12.2090   18.8760 C   0  0  0  0  0  2  0  0  0  0  0  0
  -29.3060  -12.5560   17.7620 C   0  0  0  0  0  2  0  0  0  0  0  0
  -27.8570  -12.4360   18.2670 C   0  0  0  0  0  2  0  0  0  0  0  0
  -27.6330  -13.1880   19.6040 C   0  0  0  0  0  3  0  0  0  0  0  0
  -28.7290  -12.8200   20.6260 C   0  0  0  0  0  2  0  0  0  0  0  0
  -30.0460  -13.0870   20.0230 N   0  0  0  0  0  0  0  0  0  0  0  0
  -31.8200  -14.4470   19.6010 O   0  0  0  0  0  0  0  0  0  0  0  0
  -25.2770  -13.8460   20.4240 C   0  0  0  0  0  0  0  0  0  0  0  0
  -24.2090  -13.0920   20.8370 C   0  0  0  0  0  0  0  0  0  0  0  0
  -24.6390  -11.7330   20.7730 C   0  0  0  0  0  0  0  0  0  0  0  0
  -26.2920  -12.9430   20.1410 N   0  0  0  0  0  0  0  0  0  0  0  0
  -25.9110  -11.6660   20.4030 N   0  0  0  0  0  0  0  0  0  0  0  0
  -23.8950  -10.4840   20.9890 C   0  0  0  0  0  0  0  0  0  0  0  0
  -24.3480   -9.5000   21.8960 C   0  0  0  0  0  3  0  0  0  0  0  0
  -23.6070   -8.3160   22.0990 C   0  0  0  0  0  3  0  0  0  0  0  0
  -22.3980   -8.1060   21.3940 C   0  0  0  0  0  0  0  0  0  0  0  0
  -21.9630   -9.0770   20.4750 C   0  0  0  0  0  3  0  0  0  0  0  0
  -22.7040  -10.2540   20.2710 C   0  0  0  0  0  3  0  0  0  0  0  0
  -21.6240   -6.9750   21.5080 O   0  0  0  0  0  0  0  0  0  0  0  0
  -21.6140   -6.2220   22.6550 C   0  0  0  0  0  0  0  0  0  0  0  0
  -21.2610   -6.7730   23.9070 C   0  0  0  0  0  3  0  0  0  0  0  0
  -21.1980   -5.9460   25.0460 C   0  0  0  0  0  3  0  0  0  0  0  0
  -21.4760   -4.5710   24.9370 C   0  0  0  0  0  0  0  0  0  0  0  0
  -21.8230   -4.0200   23.6890 C   0  0  0  0  0  3  0  0  0  0  0  0
  -21.8900   -4.8430   22.5520 C   0  0  0  0  0  0  0  0  0  0  0  0
  -22.2030   -4.3030   21.3490 F   0  0  0  0  0  0  0  0  0  0  0  0
  -21.4070   -3.7760   26.0290 F   0  0  0  0  0  0  0  0  0  0  0  0
  -22.8340  -13.5960   21.1760 C   0  0  0  0  0  0  0  0  0  0  0  0
  -22.1310  -12.9100   22.0720 N   0  0  0  0  0  0  0  0  0  0  0  0
  -22.3930  -14.6320   20.6830 O   0  0  0  0  0  0  0  0  0  0  0  0
  -22.4970  -12.0720   22.4990 H   0  0  0  0  0  0  0  0  0  0  0  0
  -21.2070  -13.2260   22.3300 H   0  0  0  0  0  0  0  0  0  0  0  0
  -25.4630  -15.2120   20.2510 N   0  0  0  0  0  0  0  0  0  0  0  0
  -24.7150  -15.8820   20.3990 H   0  0  0  0  0  0  0  0  0  0  0  0
  -26.3140  -15.6390   19.9100 H   0  0  0  0  0  0  0  0  0  0  0  0
  -29.8840  -23.5280   19.1470 N   0  0  0  0  0  0  0  0  0  0  0  0
  -29.4430  -22.8880   19.8120 H   0  0  0  0  0  0  0  0  0  0  0  0
  -29.9100  -24.8980   19.6470 C   0  0  0  0  0  2  0  0  0  0  0  0
  -28.4680  -25.4050   19.7260 C   0  0  0  0  0  2  0  0  0  0  0  0
  -28.4270  -26.7180   20.2630 O   0  0  0  0  0  0  0  0  0  0  0  0
  -24.5530  -31.8460   23.2560 C   0  0  0  0  0  0  0  0  0  0  0  0
  -27.2200  -27.3800   20.2470 C   0  0  0  0  0  0  0  0  0  0  0  0
  -23.3590  -30.4380   21.6090 C   0  0  0  0  0  3  0  0  0  0  0  0
  -24.8190  -28.8740   20.2310 C   0  0  0  0  0  0  0  0  0  0  0  0
  -25.8910  -30.7740   21.4500 C   0  0  0  0  0  2  0  0  0  0  0  0
  -25.9720  -29.4020   20.8230 C   0  0  0  0  0  0  0  0  0  0  0  0
  -27.1720  -28.6620   20.8280 C   0  0  0  0  0  3  0  0  0  0  0  0
  -26.0370  -26.8470   19.6720 C   0  0  0  0  0  3  0  0  0  0  0  0
  -24.8430  -27.5880   19.6640 C   0  0  0  0  0  3  0  0  0  0  0  0
  -23.5830  -29.7400   20.2420 C   0  0  0  0  0  2  0  0  0  0  0  0
  -24.6190  -31.0360   22.1630 N   0  0  0  0  0  0  0  0  0  0  0  0
  -23.4670  -32.1350   23.7770 O   0  0  0  0  0  0  0  0  0  0  0  0
  -22.6870  -29.4320   22.5680 C   0  0  0  0  0  0  0  0  0  0  0  0
  -21.3630  -29.2590   22.4230 N   0  0  0  0  0  0  0  0  0  0  0  0
  -23.3520  -28.8060   23.3980 O   0  0  0  0  0  0  0  0  0  0  0  0
  -20.8890  -29.8140   21.7250 H   0  0  0  0  0  0  0  0  0  0  0  0
  -17.9720  -28.1020   22.8850 C   0  0  0  0  0  0  0  0  0  0  0  0
  -20.5280  -28.3340   23.1890 C   0  0  0  0  0  3  0  0  0  0  0  0
  -20.6220  -26.8970   22.6250 C   0  0  0  0  0  2  0  0  0  0  0  0
  -19.5320  -26.5770   21.5980 C   0  0  0  0  0  2  0  0  0  0  0  0
  -18.1430  -26.7460   22.2230 C   0  0  0  0  0  2  0  0  0  0  0  0
  -19.0930  -28.8560   23.3230 C   0  0  0  0  0  0  0  0  0  0  0  0
  -18.8800  -30.1280   23.8990 C   0  0  0  0  0  3  0  0  0  0  0  0
  -17.5790  -30.6450   24.0400 C   0  0  0  0  0  3  0  0  0  0  0  0
  -16.4730  -29.8880   23.6190 C   0  0  0  0  0  3  0  0  0  0  0  0
  -16.6690  -28.6180   23.0500 C   0  0  0  0  0  3  0  0  0  0  0  0
  -25.8370  -32.4720   23.8880 C   0  0  0  0  0  3  0  0  0  0  0  0
  -25.5330  -33.8750   24.1990 N   0  0  0  0  0  0  0  0  0  0  0  0
  -25.8870  -34.9180   23.4350 C   0  0  0  0  0  0  0  0  0  0  0  0
  -26.5730  -34.8000   22.4150 O   0  0  0  0  0  0  0  0  0  0  0  0
  -24.9280  -34.0420   24.9890 H   0  0  0  0  0  0  0  0  0  0  0  0
  -24.1820  -36.7220   23.0320 C   0  0  0  0  0  1  0  0  0  0  0  0
  -25.4030  -36.3130   23.8720 C   0  0  0  0  0  3  0  0  0  0  0  0
  -27.5300  -37.1820   24.7390 C   0  0  0  0  0  1  0  0  0  0  0  0
  -26.4460  -37.3570   23.7740 N   0  0  0  0  0  0  0  0  0  0  0  0
  -26.0460  -38.2820   23.9110 H   0  0  0  0  0  0  0  0  0  0  0  0
  -26.3370  -31.7120   25.1780 C   0  0  1  0  0  0  0  0  0  0  0  0
  -25.2320  -31.4860   26.2360 C   0  0  0  0  0  1  0  0  0  0  0  0
  -26.9200  -30.3300   24.8070 C   0  0  0  0  0  1  0  0  0  0  0  0
  -27.4840  -32.5110   25.8440 C   0  0  0  0  0  1  0  0  0  0  0  0
  1  4  1  0
  2  1  2  0
  3  6  1  0
  4  8  1  0
  5  2  1  0
  5  3  2  0
  6  4  2  0
  6 52  1  0
  7  5  1  0
  8 10  2  0
  9  8  1  0
  9 12  1  0
 11  9  1  0
 12 13  1  0
 13 14  1  0
 14 15  1  0
 16 15  1  0
 17 22  1  0
 18 19  1  0
 18 17  1  0
 20 19  1  0
 20 27  1  0
 20 21  1  0
 22 16  1  0
 22 21  1  0
 23 16  2  0
 24 25  2  0
 25 44  1  0
 26 25  1  0
 26 29  1  0
 27 28  1  0
 27 24  1  0
 28 26  2  0
 29 30  1  0
 30 31  2  0
 32 35  1  0
 32 31  1  0
 33 32  2  0
 34 33  1  0
 34 29  2  0
 35 36  1  0
 36 37  1  0
 37 38  2  0
 39 38  1  0
 39 43  1  0
 40 39  2  0
 41 36  2  0
 41 40  1  0
 42 41  1  0
 44 45  1  0
 45 48  1  0
 45 47  1  0
 46 44  2  0
 49 50  1  0
 49 24  1  0
 51 49  1  0
 52 54  1  0
 52 53  1  0
 54 55  1  0
 55 56  1  0
 57 68  2  0
 58 56  1  0
 58 63  1  0
 59 67  1  0
 59 69  1  0
 60 66  1  0
 60 62  1  0
 61 67  1  0
 62 63  2  0
 62 61  1  0
 64 58  2  0
 65 64  1  0
 65 60  2  0
 66 59  1  0
 67 57  1  0
 69 71  2  0
 70 69  1  0
 72 70  1  0
 73 82  2  0
 73 78  1  0
 74 70  1  0
 74 78  1  0
 75 74  1  0
 76 77  1  0
 76 75  1  0
 77 73  1  0
 78 79  2  0
 79 80  1  0
 81 80  2  0
 82 81  1  0
 83 57  1  0
 83 84  1  0
 83 93  1  0
 84 87  1  0
 85 89  1  0
 85 84  1  0
 86 85  2  0
 89 88  1  0
 91 89  1  0
 91 92  1  0
 91 90  1  0
 93 96  1  1
 93 94  1  0
 95 93  1  0
M  ISO  4  15 100  16 100  55 101  56 101
M  END
>  <TORSDO>  (4) 
F 24

>  <SCORE>  (4) 
-12.260

>  <name>  (4) 
3

>  <ligand_id>  (4) 
3

>  <original_smiles>  (4) 
[H]c1c([H])c([H])c2c(c1[H])C([H])([H])C([H])([H])C([H])([H])C2([H])N([H])C(=O)C1([H])N(C(=O)C([H])(N([H])C(=O)C([H])(N([H])C([H])([H])[H])C([H])([H])[H])C(C([H])([H])[H])(C([H])([H])[H])C([H])([H])[H])C([H])([H])c2c([H])c(OC([H])([H])C([H])([H])N([H])c3c([H])c(C([H])([H])[H])c([H])c([H])c3C(=O)N([H])C([H])([H])C([H])([H])C([H])([H])C([H])([H])C(=O)N3C([H])([H])C([H])([H])C([H])([H])C([H])(n4nc(-c5c([H])c([H])c(Oc6c([H])c([H])c(F)c([H])c6F)c([H])c5[H])c(C(=O)N([H])[H])c4N([H])[H])C3([H])[H])c([H])c([H])c2C1([H])[H]

>  <smiles>  (4) 
[H]c1c([H])c([H])c2c(c1[H])C([H])([H])C([H])([H])C([H])([H])C2([H])N([H])C(=O)C1([H])N(C(=O)C([H])(N([H])C(=O)C([H])(N([H])C([H])([H])[H])C([H])([H])[H])C(C([H])([H])[H])(C([H])([H])[H])C([H])([H])[H])C([H])([H])c2c([H])c(OC([H])([H])C([H])([H])N([H])c3c([H])c(C([H])([H])[H])c([H])c([H])c3C(=O)N([H])C([H])([H])C([H])([H])C([H])([H])C([H])([H])C(=O)N3C([H])([H])C([H])([H])C([H])([H])C([H])(n4nc(-c5c([H])c([H])c(Oc6c([H])c([H])c(F)c([H])c6F)c([H])c5[H])c(C(=O)N([H])[H])c4N([H])[H])C3([H])[H])c([H])c([H])c2C1([H])[H]

$$$$
4:0:0
     RDKit          3D

 93 93  0  0  1  0  0  0  0  0999 V2000
  -28.0600  -16.0980   20.7100 C   0  0  0  0  0  2  0  0  0  0  0  0
  -28.3210  -17.8200   20.4490 N   0  0  0  0  0  2  0  0  0  0  0  0
  -27.1100  -16.1130   21.4810 O   0  0  0  0  0  1  0  0  0  0  0  0
  -29.1910  -17.8370   19.9310 H   0  0  0  0  0  0  0  0  0  0  0  0
  -30.4750  -11.2480   21.1660 C   0  0  0  0  0  2  0  0  0  0  0  0
  -29.4310  -11.9680   22.1500 C   0  0  0  0  0  3  0  0  0  0  0  0
  -29.9820  -12.9080   19.0040 C   0  0  0  0  0  1  0  0  0  0  0  0
  -28.5470  -14.0860   20.4430 C   0  0  0  0  0  1  0  0  0  0  0  0
  -30.7980  -11.6780   19.6550 C   0  0  0  0  0  3  0  0  0  0  0  0
  -28.5020  -13.2600   21.8590 C   0  0  0  0  0  0  0  0  0  0  0  0
  -27.7290  -13.7850   23.0480 C   0  0  0  0  0  1  0  0  0  0  0  0
  -32.0830  -11.3000   18.9540 C   0  0  0  0  0  2  0  0  0  0  0  0
  -33.1020  -12.4920   18.7720 C   0  0  0  0  0  2  0  0  0  0  0  0
  -32.9320  -13.9280   19.4170 C   0  0  0  0  0  2  0  0  0  0  0  0
  -31.7540  -14.8450   18.8960 C   0  0  0  0  0  0  0  0  0  0  0  0
  -30.6240  -14.0670   20.7380 C   0  0  0  0  0  1  0  0  0  0  0  0
  -28.3070  -12.0260   20.3170 C   0  0  0  0  0  1  0  0  0  0  0  0
  -27.7460  -11.9110   18.5990 C   0  0  0  0  0  2  0  0  0  0  0  0
  -27.4270  -13.4680   18.3160 C   0  0  0  0  0  2  0  0  0  0  0  0
  -28.9740  -14.8870   18.1460 C   0  0  0  0  0 15  0  0  0  0  0  0
  -30.5160  -15.0760   19.3420 N   0  0  0  0  0  2  0  0  0  0  0  0
  -31.9870  -15.2490   17.8160 O   0  0  0  0  0  0  0  0  0  0  0  0
  -25.1920  -14.0030   19.9200 C   0  0  0  0  0  0  0  0  0  0  0  0
  -24.2020  -13.2330   20.5300 C   0  0  0  0  0  0  0  0  0  0  0  0
  -24.5580  -11.8730   20.4640 C   0  0  0  0  0  0  0  0  0  0  0  0
  -26.1650  -13.2010   19.3750 N   0  0  0  0  0  0  0  0  0  0  0  0
  -25.6160  -11.9050   19.7380 N   0  0  0  0  0  0  0  0  0  0  0  0
  -23.8610  -10.5730   20.7540 C   0  0  0  0  0  0  0  0  0  0  0  0
  -24.3380   -9.5930   21.6680 C   0  0  0  0  0  3  0  0  0  0  0  0
  -23.6050   -8.4050   21.9240 C   0  0  0  0  0  3  0  0  0  0  0  0
  -22.3770   -8.1670   21.2610 C   0  0  0  0  0  0  0  0  0  0  0  0
  -21.9260   -9.1130   20.3250 C   0  0  0  0  0  3  0  0  0  0  0  0
  -22.6560  -10.2870   20.0730 C   0  0  0  0  0  3  0  0  0  0  0  0
  -21.5960   -7.0370   21.4160 O   0  0  0  0  0  0  0  0  0  0  0  0
  -21.5810   -6.3060   22.5770 C   0  0  0  0  0  0  0  0  0  0  0  0
  -21.2740   -6.8900   23.8250 C   0  0  0  0  0  3  0  0  0  0  0  0
  -21.2010   -6.0900   24.9830 C   0  0  0  0  0  3  0  0  0  0  0  0
  -21.4290   -4.7040   24.8970 C   0  0  0  0  0  0  0  0  0  0  0  0
  -21.7280   -4.1130   23.6570 C   0  0  0  0  0  3  0  0  0  0  0  0
  -21.7960   -4.9130   22.4990 C   0  0  0  0  0  0  0  0  0  0  0  0
  -22.0520   -4.3330   21.3020 F   0  0  0  0  0  0  0  0  0  0  0  0
  -21.3640   -3.9330   26.0090 F   0  0  0  0  0  0  0  0  0  0  0  0
  -22.8470  -13.7070   20.9280 C   0  0  0  0  0  0  0  0  0  0  0  0
  -22.1990  -13.0200   21.8650 N   0  0  0  0  0  0  0  0  0  0  0  0
  -22.3650  -14.7000   20.3990 O   0  0  0  0  0  0  0  0  0  0  0  0
  -22.6080  -12.1950   22.2840 H   0  0  0  0  0  0  0  0  0  0  0  0
  -21.2840  -13.3210   22.1730 H   0  0  0  0  0  0  0  0  0  0  0  0
  -25.2880  -15.3470   19.6490 N   0  0  0  0  0  0  0  0  0  0  0  0
  -24.6350  -16.0420   19.9940 H   0  0  0  0  0  0  0  0  0  0  0  0
  -26.0340  -15.7510   19.1050 H   0  0  0  0  0  0  0  0  0  0  0  0
  -27.7080  -19.8190   20.4500 C   0  0  0  0  0 15  0  0  0  0  0  0
  -27.7780  -22.1210   20.8450 C   0  0  0  0  0 15  0  0  0  0  0  0
  -27.8540  -24.1950   20.5430 O   0  0  0  0  0  1  0  0  0  0  0  0
  -24.6160  -31.4220   23.1000 C   0  0  0  0  0  0  0  0  0  0  0  0
  -27.0680  -25.7330   20.4720 C   0  0  0  0  0  0  0  0  0  0  0  0
  -23.5290  -29.9900   21.4360 C   0  0  0  0  0  3  0  0  0  0  0  0
  -25.0160  -28.2140   20.1500 C   0  0  0  0  0  0  0  0  0  0  0  0
  -26.1190  -29.9450   21.5110 C   0  0  0  0  0  2  0  0  0  0  0  0
  -26.1740  -28.4350   20.9030 C   0  0  0  0  0  0  0  0  0  0  0  0
  -27.1730  -27.2410   21.0030 C   0  0  0  0  0  3  0  0  0  0  0  0
  -25.9380  -25.9010   19.6020 C   0  0  0  0  0  3  0  0  0  0  0  0
  -24.9860  -26.9870   19.4580 C   0  0  0  0  0  3  0  0  0  0  0  0
  -23.8570  -29.2500   20.0990 C   0  0  0  0  0  2  0  0  0  0  0  0
  -24.7860  -30.5070   22.0660 N   0  0  0  0  0  0  0  0  0  0  0  0
  -23.4900  -31.7450   23.5250 O   0  0  0  0  0  0  0  0  0  0  0  0
  -22.7300  -29.0590   22.3930 C   0  0  0  0  0  0  0  0  0  0  0  0
  -21.3950  -28.9480   22.2370 N   0  0  0  0  0  0  0  0  0  0  0  0
  -23.3350  -28.4320   23.2640 O   0  0  0  0  0  0  0  0  0  0  0  0
  -20.9490  -29.5070   21.5220 H   0  0  0  0  0  0  0  0  0  0  0  0
  -17.9690  -27.7870   22.6970 C   0  0  0  0  0  0  0  0  0  0  0  0
  -20.5320  -28.0220   22.9870 C   0  0  0  0  0  3  0  0  0  0  0  0
  -20.6140  -26.5910   22.4040 C   0  0  0  0  0  2  0  0  0  0  0  0
  -19.5240  -26.2980   21.3680 C   0  0  0  0  0  2  0  0  0  0  0  0
  -18.1360  -26.4500   21.9970 C   0  0  0  0  0  2  0  0  0  0  0  0
  -19.0920  -28.5330   23.1470 C   0  0  0  0  0  0  0  0  0  0  0  0
  -18.8760  -29.7810   23.7720 C   0  0  0  0  0  3  0  0  0  0  0  0
  -17.5720  -30.2840   23.9460 C   0  0  0  0  0  3  0  0  0  0  0  0
  -16.4650  -29.5390   23.5050 C   0  0  0  0  0  3  0  0  0  0  0  0
  -16.6640  -28.2920   22.8860 C   0  0  0  0  0  3  0  0  0  0  0  0
  -25.8180  -32.1230   23.8070 C   0  0  0  0  0  3  0  0  0  0  0  0
  -25.4570  -33.5370   24.0810 N   0  0  0  0  0  0  0  0  0  0  0  0
  -25.8160  -34.5990   23.3430 C   0  0  0  0  0  0  0  0  0  0  0  0
  -26.5320  -34.4930   22.3450 O   0  0  0  0  0  0  0  0  0  0  0  0
  -24.8170  -33.6880   24.8470 H   0  0  0  0  0  0  0  0  0  0  0  0
  -24.0900  -36.3990   22.9270 C   0  0  0  0  0  1  0  0  0  0  0  0
  -25.3100  -35.9970   23.7740 C   0  0  0  0  0  3  0  0  0  0  0  0
  -27.4150  -36.9180   24.6560 C   0  0  0  0  0  1  0  0  0  0  0  0
  -26.3400  -37.0570   23.6770 N   0  0  0  0  0  0  0  0  0  0  0  0
  -25.9210  -37.9760   23.7930 H   0  0  0  0  0  0  0  0  0  0  0  0
  -26.2200  -31.4280   25.1680 C   0  0  1  0  0  0  0  0  0  0  0  0
  -25.0390  -31.2430   26.1500 C   0  0  0  0  0  1  0  0  0  0  0  0
  -26.8360  -30.0350   24.9250 C   0  0  0  0  0  1  0  0  0  0  0  0
  -27.3100  -32.2620   25.8820 C   0  0  0  0  0  1  0  0  0  0  0  0
  1  3  1  0
  2  1  1  0
  4  2  1  0
  5  6  1  0
  8 10  1  0
  9  7  1  0
  9  5  1  0
 10  6  2  0
 10 11  1  0
 12  9  1  0
 13 12  1  0
 13 14  1  0
 15 21  1  0
 15 14  1  0
 18 17  1  0
 19 18  1  0
 19 26  1  0
 21 16  1  0
 22 15  2  0
 23 24  2  0
 24 43  1  0
 25 24  1  0
 25 28  1  0
 26 27  1  0
 26 23  1  0
 27 25  2  0
 28 29  1  0
 29 30  2  0
 31 34  1  0
 31 30  1  0
 32 31  2  0
 33 32  1  0
 33 28  2  0
 34 35  1  0
 35 36  1  0
 36 37  2  0
 38 37  1  0
 38 42  1  0
 39 38  2  0
 40 35  2  0
 40 39  1  0
 41 40  1  0
 43 44  1  0
 44 47  1  0
 44 46  1  0
 45 43  2  0
 48 23  1  0
 48 49  1  0
 50 48  1  0
 54 65  2  0
 55 53  1  0
 55 60  1  0
 56 64  1  0
 56 66  1  0
 57 59  1  0
 58 64  1  0
 59 60  2  0
 59 58  1  0
 61 55  2  0
 62 61  1  0
 62 57  2  0
 63 57  1  0
 63 56  1  0
 64 54  1  0
 66 68  2  0
 67 66  1  0
 69 67  1  0
 70 79  2  0
 70 75  1  0
 71 67  1  0
 71 75  1  0
 72 71  1  0
 73 74  1  0
 73 72  1  0
 74 70  1  0
 75 76  2  0
 76 77  1  0
 78 77  2  0
 79 78  1  0
 80 54  1  0
 80 81  1  0
 80 90  1  0
 81 84  1  0
 82 86  1  0
 82 81  1  0
 83 82  2  0
 86 85  1  0
 88 86  1  0
 88 89  1  0
 88 87  1  0
 90 93  1  1
 90 91  1  0
 92 90  1  0
M  ISO  4  14 100  15 100  52 101  53 101
M  END
>  <TORSDO>  (5) 
F 22

>  <SCORE>  (5) 
-7.540

>  <name>  (5) 
4

>  <ligand_id>  (5) 
4

>  <original_smiles>  (5) 
[H]c1c([H])c([H])c2c(c1[H])C([H])([H])C([H])([H])C([H])([H])C2([H])N([H])C(=O)C1([H])N(C(=O)C([H])(N([H])C(=O)C([H])(N([H])C([H])([H])[H])C([H])([H])[H])C(C([H])([H])[H])(C([H])([H])[H])C([H])([H])[H])C([H])([H])c2c([H])c(OC([H])([H])C([H])([H])N([H])C(=O)c3c([H])c(C([H])([H])C([H])([H])C([H])([H])C(=O)N4C([H])([H])C([H])([H])C([H])([H])C([H])(n5nc(-c6c([H])c([H])c(Oc7c([H])c([H])c(F)c([H])c7F)c([H])c6[H])c(C(=O)N([H])[H])c5N([H])[H])C4([H])[H])c([H])c([H])c3C([H])([H])[H])c([H])c([H])c2C1([H])[H]

>  <smiles>  (5) 
[H]c1c([H])c([H])c2c(c1[H])C([H])([H])C([H])([H])C([H])([H])C2([H])N([H])C(=O)C1([H])N(C(=O)C([H])(N([H])C(=O)C([H])(N([H])C([H])([H])[H])C([H])([H])[H])C(C([H])([H])[H])(C([H])([H])[H])C([H])([H])[H])C([H])([H])c2c([H])c(OC([H])([H])C([H])([H])N([H])C(=O)c3c([H])c(C([H])([H])C([H])([H])C([H])([H])C(=O)N4C([H])([H])C([H])([H])C([H])([H])C([H])(n5nc(-c6c([H])c([H])c(Oc7c([H])c([H])c(F)c([H])c7F)c([H])c6[H])c(C(=O)N([H])[H])c5N([H])[H])C4([H])[H])c([H])c([H])c3C([H])([H])[H])c([H])c([H])c2C1([H])[H]

$$$$
5:0:0
     RDKit          3D

 94103  0  0  1  0  0  0  0  0999 V2000
  -30.7960  -14.5380   20.4240 C   0  0  0  0  0  0  0  0  0  0  0  0
  -30.3620  -12.3180   19.4640 C   0  0  0  0  0  2  0  0  0  0  0  0
  -29.4690  -12.4130   18.2160 C   0  0  0  0  0  2  0  0  0  0  0  0
  -27.9940  -12.2630   18.6250 C   0  0  0  0  0  2  0  0  0  0  0  0
  -27.6030  -13.1830   19.8090 C   0  0  0  0  0  3  0  0  0  0  0  0
  -28.6600  -13.1910   20.9460 C   0  0  0  0  0  2  0  0  0  0  0  0
  -29.9760  -13.4430   20.3400 N   0  0  0  0  0  0  0  0  0  0  0  0
  -32.0040  -14.3750   20.2680 O   0  0  0  0  0  0  0  0  0  0  0  0
  -28.6170  -17.6130   19.4590 C   0  0  0  0  0  2  0  0  0  0  0  0
  -31.5350  -21.0950   19.2650 C   0  0  0  0  0  2  0  0  0  0  0  0
  -28.8430  -18.7950   20.4200 C   0  0  0  0  0  2  0  0  0  0  0  0
  -30.7350  -19.8240   19.0420 C   0  0  0  0  0  2  0  0  0  0  0  0
  -31.1920  -18.1890   21.0060 C   0  0  0  0  0  2  0  0  0  0  0  0
  -30.4210  -20.5950   21.3250 C   0  0  0  0  0  2  0  0  0  0  0  0
  -28.9520  -16.1870   19.9650 C   0  0  0  0  0  2  0  0  0  0  0  0
  -31.3140  -16.9190   20.1330 C   0  0  0  0  0  2  0  0  0  0  0  0
  -30.7770  -21.7790   20.4010 C   0  0  0  0  0  3  0  0  0  0  0  0
  -30.2930  -19.3160   20.4430 C   0  0  2  0  0  0  0  0  0  0  0  0
  -30.3200  -15.8370   20.3840 N   0  0  0  0  0  0  0  0  0  0  0  0
  -25.2170  -13.8360   20.4680 C   0  0  0  0  0  0  0  0  0  0  0  0
  -24.1350  -13.0800   20.8200 C   0  0  0  0  0  0  0  0  0  0  0  0
  -24.5910  -11.7250   20.8330 C   0  0  0  0  0  0  0  0  0  0  0  0
  -26.2560  -12.9360   20.2870 N   0  0  0  0  0  0  0  0  0  0  0  0
  -25.8880  -11.6660   20.5720 N   0  0  0  0  0  0  0  0  0  0  0  0
  -23.8540  -10.4730   21.0240 C   0  0  0  0  0  0  0  0  0  0  0  0
  -24.2690   -9.5130   21.9710 C   0  0  0  0  0  3  0  0  0  0  0  0
  -23.5350   -8.3220   22.1510 C   0  0  0  0  0  3  0  0  0  0  0  0
  -22.3710   -8.0860   21.3820 C   0  0  0  0  0  0  0  0  0  0  0  0
  -21.9760   -9.0340   20.4220 C   0  0  0  0  0  3  0  0  0  0  0  0
  -22.7110  -10.2180   20.2410 C   0  0  0  0  0  3  0  0  0  0  0  0
  -21.6070   -6.9480   21.4730 O   0  0  0  0  0  0  0  0  0  0  0  0
  -21.5530   -6.2130   22.6290 C   0  0  0  0  0  0  0  0  0  0  0  0
  -21.1490   -6.7830   23.8570 C   0  0  0  0  0  3  0  0  0  0  0  0
  -21.0390   -5.9750   25.0050 C   0  0  0  0  0  3  0  0  0  0  0  0
  -21.3200   -4.5970   24.9260 C   0  0  0  0  0  0  0  0  0  0  0  0
  -21.7150   -4.0260   23.7030 C   0  0  0  0  0  3  0  0  0  0  0  0
  -21.8280   -4.8330   22.5570 C   0  0  0  0  0  0  0  0  0  0  0  0
  -22.1900   -4.2760   21.3750 F   0  0  0  0  0  0  0  0  0  0  0  0
  -21.2040   -3.8190   26.0260 F   0  0  0  0  0  0  0  0  0  0  0  0
  -22.7340  -13.5730   21.0320 C   0  0  0  0  0  0  0  0  0  0  0  0
  -21.9760  -12.9040   21.8930 N   0  0  0  0  0  0  0  0  0  0  0  0
  -22.3190  -14.5860   20.4720 O   0  0  0  0  0  0  0  0  0  0  0  0
  -22.3250  -12.0820   22.3610 H   0  0  0  0  0  0  0  0  0  0  0  0
  -21.0340  -13.2180   22.0810 H   0  0  0  0  0  0  0  0  0  0  0  0
  -25.3950  -15.2020   20.2590 N   0  0  0  0  0  0  0  0  0  0  0  0
  -24.6270  -15.8620   20.3210 H   0  0  0  0  0  0  0  0  0  0  0  0
  -26.2620  -15.6290   19.9590 H   0  0  0  0  0  0  0  0  0  0  0  0
  -31.5430  -22.9450   21.0770 C   0  0  0  0  0  2  0  0  0  0  0  0
  -31.6780  -24.1980   20.1910 C   0  0  0  0  0  0  0  0  0  0  0  0
  -32.8150  -24.1610   19.1910 C   0  0  0  0  0  1  0  0  0  0  0  0
  -30.9490  -25.2440   20.2260 N   0  0  0  0  0  0  0  0  0  0  0  0
  -29.8900  -25.3940   21.2080 C   0  0  0  0  0  2  0  0  0  0  0  0
  -29.1770  -26.7480   21.0320 C   0  0  0  0  0  2  0  0  0  0  0  0
  -28.3090  -26.7030   19.9000 O   0  0  0  0  0  0  0  0  0  0  0  0
  -24.5960  -31.8640   23.1500 C   0  0  0  0  0  0  0  0  0  0  0  0
  -27.1720  -27.4750   19.9690 C   0  0  0  0  0  0  0  0  0  0  0  0
  -23.3460  -30.4820   21.5190 C   0  0  0  0  0  3  0  0  0  0  0  0
  -24.7670  -28.9560   20.0460 C   0  0  0  0  0  0  0  0  0  0  0  0
  -25.8620  -30.8460   21.2630 C   0  0  0  0  0  2  0  0  0  0  0  0
  -25.9330  -29.4810   20.6180 C   0  0  0  0  0  0  0  0  0  0  0  0
  -27.1370  -28.7490   20.5840 C   0  0  0  0  0  3  0  0  0  0  0  0
  -25.9960  -26.9620   19.3880 C   0  0  0  0  0  3  0  0  0  0  0  0
  -24.7910  -27.6910   19.4300 C   0  0  0  0  0  3  0  0  0  0  0  0
  -23.5240  -29.8130   20.1280 C   0  0  0  0  0  2  0  0  0  0  0  0
  -24.6220  -31.0780   22.0370 N   0  0  0  0  0  0  0  0  0  0  0  0
  -23.5290  -32.1320   23.7200 O   0  0  0  0  0  0  0  0  0  0  0  0
  -22.7160  -29.4520   22.4830 C   0  0  0  0  0  0  0  0  0  0  0  0
  -21.3880  -29.2790   22.3850 N   0  0  0  0  0  0  0  0  0  0  0  0
  -23.4170  -28.8130   23.2730 O   0  0  0  0  0  0  0  0  0  0  0  0
  -20.8830  -29.8500   21.7210 H   0  0  0  0  0  0  0  0  0  0  0  0
  -18.0230  -28.0840   22.9330 C   0  0  0  0  0  0  0  0  0  0  0  0
  -20.5850  -28.3360   23.1630 C   0  0  0  0  0  3  0  0  0  0  0  0
  -20.6750  -26.9090   22.5750 C   0  0  0  0  0  2  0  0  0  0  0  0
  -19.5570  -26.5940   21.5780 C   0  0  0  0  0  2  0  0  0  0  0  0
  -18.1860  -26.7380   22.2460 C   0  0  0  0  0  2  0  0  0  0  0  0
  -19.1500  -28.8410   23.3500 C   0  0  0  0  0  0  0  0  0  0  0  0
  -18.9450  -30.1010   23.9530 C   0  0  0  0  0  3  0  0  0  0  0  0
  -17.6440  -30.6050   24.1420 C   0  0  0  0  0  3  0  0  0  0  0  0
  -16.5320  -29.8450   23.7400 C   0  0  0  0  0  3  0  0  0  0  0  0
  -16.7220  -28.5870   23.1430 C   0  0  0  0  0  3  0  0  0  0  0  0
  -25.8990  -32.4810   23.7460 C   0  0  0  0  0  3  0  0  0  0  0  0
  -26.4630  -31.6730   24.9790 C   0  0  1  0  0  0  0  0  0  0  0  0
  -25.4100  -31.3980   26.0780 C   0  0  0  0  0  1  0  0  0  0  0  0
  -27.0340  -30.3100   24.5220 C   0  0  0  0  0  1  0  0  0  0  0  0
  -27.6350  -32.4490   25.6250 C   0  0  0  0  0  1  0  0  0  0  0  0
  -25.5990  -33.8670   24.1260 N   0  0  0  0  0  0  0  0  0  0  0  0
  -25.9060  -34.9400   23.3840 C   0  0  0  0  0  0  0  0  0  0  0  0
  -26.5480  -34.8660   22.3320 O   0  0  0  0  0  0  0  0  0  0  0  0
  -25.0250  -33.9980   24.9450 H   0  0  0  0  0  0  0  0  0  0  0  0
  -24.1610  -36.7320   23.1260 C   0  0  0  0  0  1  0  0  0  0  0  0
  -25.4270  -36.3130   23.8910 C   0  0  0  0  0  3  0  0  0  0  0  0
  -27.5860  -37.1820   24.6750 C   0  0  0  0  0  1  0  0  0  0  0  0
  -26.4510  -37.3740   23.7740 N   0  0  0  0  0  0  0  0  0  0  0  0
  -26.0480  -38.2870   23.9650 H   0  0  0  0  0  0  0  0  0  0  0  0
  2  7  1  0
  3  4  1  0
  3  2  1  0
  5  4  1  0
  5 23  1  0
  5  6  1  0
  7  1  1  0
  7  6  1  0
  8  1  2  0
  9 15  1  0
  9 11  1  0
 10 17  1  0
 18 11  1  6
 12 10  1  0
 15 19  1  0
 16 19  1  0
 16 13  1  0
 17 48  1  0
 17 14  1  0
 18 12  1  0
 18 13  1  0
 18 14  1  0
 19  1  1  0
 20 21  2  0
 21 22  1  0
 21 40  1  0
 22 25  1  0
 23 20  1  0
 23 24  1  0
 24 22  2  0
 25 26  1  0
 26 27  2  0
 28 31  1  0
 28 27  1  0
 29 28  2  0
 30 29  1  0
 30 25  2  0
 31 32  1  0
 32 33  1  0
 33 34  2  0
 35 34  1  0
 35 39  1  0
 36 35  2  0
 37 32  2  0
 37 36  1  0
 38 37  1  0
 40 41  1  0
 41 44  1  0
 41 43  1  0
 42 40  2  0
 45 46  1  0
 45 20  1  0
 47 45  1  0
 49 51  2  0
 49 48  1  0
 50 49  1  0
 51 52  1  0
 53 52  1  0
 54 56  1  0
 54 53  1  0
 55 66  2  0
 56 61  1  0
 57 65  1  0
 57 67  1  0
 58 64  1  0
 58 60  1  0
 59 65  1  0
 60 59  1  0
 61 60  2  0
 62 63  1  0
 62 56  2  0
 63 58  2  0
 64 57  1  0
 65 55  1  0
 67 69  2  0
 68 67  1  0
 70 68  1  0
 71 80  2  0
 71 76  1  0
 72 68  1  0
 72 76  1  0
 73 72  1  0
 74 75  1  0
 74 73  1  0
 75 71  1  0
 76 77  2  0
 77 78  1  0
 79 78  2  0
 80 79  1  0
 81 55  1  0
 81 86  1  0
 81 82  1  0
 82 85  1  1
 82 83  1  0
 84 82  1  0
 86 89  1  0
 87 91  1  0
 87 86  1  0
 88 87  2  0
 91 90  1  0
 93 91  1  0
 93 94  1  0
 93 92  1  0
M  ISO  4   1 100  19 100  53 101  54 101
M  END
>  <TORSDO>  (6) 
F 19

>  <SCORE>  (6) 
-14.299

>  <name>  (6) 
5

>  <ligand_id>  (6) 
5

>  <original_smiles>  (6) 
[H]c1c([H])c([H])c2c(c1[H])C([H])([H])C([H])([H])C([H])([H])C2([H])N([H])C(=O)C1([H])N(C(=O)C([H])(N([H])C(=O)C([H])(N([H])C([H])([H])[H])C([H])([H])[H])C(C([H])([H])[H])(C([H])([H])[H])C([H])([H])[H])C([H])([H])c2c([H])c(OC([H])([H])C([H])([H])N=C(C([H])([H])[H])C([H])([H])C3([H])C([H])([H])C([H])([H])C4(C([H])([H])C([H])([H])N(C(=O)N5C([H])([H])C([H])([H])C([H])([H])C([H])(n6nc(-c7c([H])c([H])c(Oc8c([H])c([H])c(F)c([H])c8F)c([H])c7[H])c(C(=O)N([H])[H])c6N([H])[H])C5([H])[H])C([H])([H])C([H])([H])C4([H])[H])C3([H])[H])c([H])c([H])c2C1([H])[H]

>  <smiles>  (6) 
[H]c1c([H])c([H])c2c(c1[H])C([H])([H])C([H])([H])C([H])([H])C2([H])N([H])C(=O)C1([H])N(C(=O)C([H])(N([H])C(=O)C([H])(N([H])C([H])([H])[H])C([H])([H])[H])C(C([H])([H])[H])(C([H])([H])[H])C([H])([H])[H])C([H])([H])c2c([H])c(OC([H])([H])C([H])([H])N=C(C([H])([H])[H])C([H])([H])C3([H])C([H])([H])C([H])([H])C4(C([H])([H])C([H])([H])N(C(=O)N5C([H])([H])C([H])([H])C([H])([H])C([H])(n6nc(-c7c([H])c([H])c(Oc8c([H])c([H])c(F)c([H])c8F)c([H])c7[H])c(C(=O)N([H])[H])c6N([H])[H])C5([H])[H])C([H])([H])C([H])([H])C4([H])[H])C3([H])[H])c([H])c([H])c2C1([H])[H]

$$$$
6:0:0
     RDKit          3D

 98106  0  0  1  0  0  0  0  0999 V2000
  -28.5920  -23.9750   22.2520 C   0  0  0  0  0  0  0  0  0  0  0  0
  -27.4890  -23.0340   21.8130 C   0  0  0  0  0  2  0  0  0  0  0  0
  -28.3150  -25.3990   21.7970 C   0  0  0  0  0  3  0  0  0  0  0  0
  -26.4400  -23.9640   21.1750 C   0  0  0  0  0  3  0  0  0  0  0  0
  -26.8600  -25.3500   21.5010 N   0  0  0  0  0  4  0  0  0  0  0  0
  -29.5570  -23.6000   22.9230 O   0  0  0  0  0  0  0  0  0  0  0  0
  -26.5810  -26.0240   20.8050 H   0  0  0  0  0  0  0  0  0  0  0  0
  -26.3820  -25.6030   22.3530 H   0  0  0  0  0  0  0  0  0  0  0  0
  -26.2840  -23.7540   19.6460 C   0  0  0  0  0  2  0  0  0  0  0  0
  -25.5430  -22.4620   19.2730 C   0  0  0  0  0  0  0  0  0  0  0  0
  -26.2720  -21.4900   18.7140 N   0  0  0  0  0  0  0  0  0  0  0  0
  -24.3300  -22.3640   19.4600 O   0  0  0  0  0  0  0  0  0  0  0  0
  -27.2610  -21.6560   18.5830 H   0  0  0  0  0  0  0  0  0  0  0  0
  -25.7390  -20.2620   18.1410 C   0  0  0  0  0  2  0  0  0  0  0  0
  -26.8650  -19.2470   17.8890 C   0  0  0  0  0  2  0  0  0  0  0  0
  -27.3430  -18.4860   19.1450 C   0  0  0  0  0  2  0  0  0  0  0  0
  -28.5960  -17.6370   18.8440 C   0  0  0  0  0  2  0  0  0  0  0  0
  -28.9370  -16.5320   19.8650 C   0  0  0  0  0  2  0  0  0  0  0  0
  -30.9010  -14.7980   19.7880 C   0  0  0  0  0  0  0  0  0  0  0  0
  -30.7700  -12.3700   19.4370 C   0  0  0  0  0  2  0  0  0  0  0  0
  -29.8700  -12.0690   18.2220 C   0  0  0  0  0  2  0  0  0  0  0  0
  -28.3920  -11.9830   18.6520 C   0  0  0  0  0  2  0  0  0  0  0  0
  -27.9540  -13.1810   19.5350 C   0  0  0  0  0  3  0  0  0  0  0  0
  -28.9750  -13.4060   20.6770 C   0  0  0  0  0  2  0  0  0  0  0  0
  -30.2770  -13.6180   20.0440 N   0  0  0  0  0  0  0  0  0  0  0  0
  -32.0850  -14.8510   19.4520 O   0  0  0  0  0  0  0  0  0  0  0  0
  -30.1580  -15.8560   19.4070 N   0  0  0  0  0  0  0  0  0  0  0  0
  -30.7390  -16.4820   18.8680 H   0  0  0  0  0  0  0  0  0  0  0  0
  -25.6200  -13.9580   20.2800 C   0  0  0  0  0  0  0  0  0  0  0  0
  -24.5080  -13.2660   20.6730 C   0  0  0  0  0  0  0  0  0  0  0  0
  -24.8740  -11.8870   20.6320 C   0  0  0  0  0  0  0  0  0  0  0  0
  -26.5970  -13.0060   20.0410 N   0  0  0  0  0  0  0  0  0  0  0  0
  -26.1510  -11.7540   20.3060 N   0  0  0  0  0  0  0  0  0  0  0  0
  -24.0660  -10.6800   20.8310 C   0  0  0  0  0  0  0  0  0  0  0  0
  -24.5060   -9.6280   21.6640 C   0  0  0  0  0  3  0  0  0  0  0  0
  -23.7050   -8.4830   21.8520 C   0  0  0  0  0  3  0  0  0  0  0  0
  -22.4480   -8.3830   21.2110 C   0  0  0  0  0  0  0  0  0  0  0  0
  -22.0240   -9.4230   20.3650 C   0  0  0  0  0  3  0  0  0  0  0  0
  -22.8250  -10.5610   20.1740 C   0  0  0  0  0  3  0  0  0  0  0  0
  -21.6120   -7.2970   21.3150 O   0  0  0  0  0  0  0  0  0  0  0  0
  -21.6380   -6.4760   22.4120 C   0  0  0  0  0  0  0  0  0  0  0  0
  -21.4290   -6.9700   23.7180 C   0  0  0  0  0  3  0  0  0  0  0  0
  -21.3970   -6.0790   24.8090 C   0  0  0  0  0  3  0  0  0  0  0  0
  -21.5610   -4.6970   24.5970 C   0  0  0  0  0  0  0  0  0  0  0  0
  -21.7610   -4.2030   23.2950 C   0  0  0  0  0  3  0  0  0  0  0  0
  -21.7960   -5.0910   22.2060 C   0  0  0  0  0  0  0  0  0  0  0  0
  -21.9720   -4.6080   20.9520 F   0  0  0  0  0  0  0  0  0  0  0  0
  -21.5180   -3.8400   25.6440 F   0  0  0  0  0  0  0  0  0  0  0  0
  -23.1550  -13.8430   20.9720 C   0  0  0  0  0  0  0  0  0  0  0  0
  -22.4110  -13.2110   21.8740 N   0  0  0  0  0  0  0  0  0  0  0  0
  -22.7710  -14.8850   20.4440 O   0  0  0  0  0  0  0  0  0  0  0  0
  -22.7400  -12.3690   22.3230 H   0  0  0  0  0  0  0  0  0  0  0  0
  -21.5030  -13.5770   22.1220 H   0  0  0  0  0  0  0  0  0  0  0  0
  -25.8660  -15.3100   20.0850 N   0  0  0  0  0  0  0  0  0  0  0  0
  -25.1270  -15.9970   20.1680 H   0  0  0  0  0  0  0  0  0  0  0  0
  -26.7250  -15.6900   19.7150 H   0  0  0  0  0  0  0  0  0  0  0  0
  -29.1920  -25.7920   20.5820 C   0  0  0  0  0  2  0  0  0  0  0  0
  -29.1700  -27.2030   20.3620 O   0  0  0  0  0  0  0  0  0  0  0  0
  -24.7020  -31.8310   23.3330 C   0  0  0  0  0  0  0  0  0  0  0  0
  -27.9390  -27.8050   20.2770 C   0  0  0  0  0  0  0  0  0  0  0  0
  -23.7560  -30.4590   21.5040 C   0  0  0  0  0  3  0  0  0  0  0  0
  -25.4400  -29.1070   20.1510 C   0  0  0  0  0  0  0  0  0  0  0  0
  -26.2530  -31.0010   21.5730 C   0  0  0  0  0  2  0  0  0  0  0  0
  -26.4950  -29.6800   20.8720 C   0  0  0  0  0  0  0  0  0  0  0  0
  -27.7470  -29.0350   20.9320 C   0  0  0  0  0  3  0  0  0  0  0  0
  -26.8690  -27.2330   19.5500 C   0  0  0  0  0  3  0  0  0  0  0  0
  -25.6210  -27.8820   19.4860 C   0  0  0  0  0  3  0  0  0  0  0  0
  -24.1400  -29.8770   20.1200 C   0  0  0  0  0  2  0  0  0  0  0  0
  -24.9150  -31.1090   22.1970 N   0  0  0  0  0  0  0  0  0  0  0  0
  -23.5580  -31.9970   23.7790 O   0  0  0  0  0  0  0  0  0  0  0  0
  -23.0920  -29.3390   22.3360 C   0  0  0  0  0  0  0  0  0  0  0  0
  -21.7790  -29.1510   22.1360 N   0  0  0  0  0  0  0  0  0  0  0  0
  -23.7590  -28.6460   23.1100 O   0  0  0  0  0  0  0  0  0  0  0  0
  -21.3040  -29.7700   21.4930 H   0  0  0  0  0  0  0  0  0  0  0  0
  -18.3890  -27.9510   22.4810 C   0  0  0  0  0  0  0  0  0  0  0  0
  -20.9500  -28.1280   22.7750 C   0  0  0  0  0  3  0  0  0  0  0  0
  -21.0310  -26.7860   22.0110 C   0  0  0  0  0  2  0  0  0  0  0  0
  -19.9210  -26.6190   20.9680 C   0  0  0  0  0  2  0  0  0  0  0  0
  -18.5430  -26.7000   21.6300 C   0  0  0  0  0  2  0  0  0  0  0  0
  -19.5220  -28.6290   23.0050 C   0  0  0  0  0  0  0  0  0  0  0  0
  -19.3260  -29.8050   23.7620 C   0  0  0  0  0  3  0  0  0  0  0  0
  -18.0310  -30.3020   23.9980 C   0  0  0  0  0  3  0  0  0  0  0  0
  -16.9130  -29.6190   23.4890 C   0  0  0  0  0  3  0  0  0  0  0  0
  -17.0940  -28.4450   22.7370 C   0  0  0  0  0  3  0  0  0  0  0  0
  -25.8790  -32.4970   24.1110 C   0  0  0  0  0  3  0  0  0  0  0  0
  -25.5120  -33.9000   24.3470 N   0  0  0  0  0  0  0  0  0  0  0  0
  -25.9280  -34.9300   23.5980 C   0  0  0  0  0  0  0  0  0  0  0  0
  -26.7300  -34.8010   22.6680 O   0  0  0  0  0  0  0  0  0  0  0  0
  -24.8150  -34.0730   25.0580 H   0  0  0  0  0  0  0  0  0  0  0  0
  -24.2340  -36.6720   22.9520 C   0  0  0  0  0  1  0  0  0  0  0  0
  -25.3650  -36.3250   23.9330 C   0  0  0  0  0  3  0  0  0  0  0  0
  -27.3720  -37.2710   24.9830 C   0  0  0  0  0  1  0  0  0  0  0  0
  -26.3870  -37.3920   23.9100 N   0  0  0  0  0  0  0  0  0  0  0  0
  -25.9530  -38.3080   23.9800 H   0  0  0  0  0  0  0  0  0  0  0  0
  -26.2160  -31.7720   25.4710 C   0  0  1  0  0  0  0  0  0  0  0  0
  -24.9770  -31.4980   26.3550 C   0  0  0  0  0  1  0  0  0  0  0  0
  -26.9190  -30.4200   25.2070 C   0  0  0  0  0  1  0  0  0  0  0  0
  -27.2060  -32.6340   26.2930 C   0  0  0  0  0  1  0  0  0  0  0  0
  1  6  2  0
  2  1  1  0
  3 57  1  0
  3  1  1  0
  4  9  1  0
  4  5  1  0
  4  2  1  0
  5  3  1  0
  5  8  1  0
  7  5  1  0
 10 12  2  0
 10  9  1  0
 11 10  1  0
 13 11  1  0
 14 11  1  0
 15 14  1  0
 15 16  1  0
 17 16  1  0
 17 18  1  0
 19 25  1  0
 20 25  1  0
 21 22  1  0
 21 20  1  0
 23 22  1  0
 23 32  1  0
 23 24  1  0
 25 24  1  0
 26 19  2  0
 27 19  1  0
 27 18  1  0
 28 27  1  0
 29 30  2  0
 30 49  1  0
 31 30  1  0
 31 34  1  0
 32 29  1  0
 32 33  1  0
 33 31  2  0
 34 35  1  0
 35 36  2  0
 37 40  1  0
 37 36  1  0
 38 37  2  0
 39 38  1  0
 39 34  2  0
 40 41  1  0
 41 42  1  0
 42 43  2  0
 44 43  1  0
 44 48  1  0
 45 44  2  0
 46 41  2  0
 46 45  1  0
 47 46  1  0
 49 50  1  0
 50 53  1  0
 50 52  1  0
 51 49  2  0
 54 55  1  0
 54 29  1  0
 56 54  1  0
 58 57  1  0
 59 70  2  0
 60 58  1  0
 60 65  1  0
 61 69  1  0
 61 71  1  0
 62 64  1  0
 63 69  1  0
 64 65  2  0
 64 63  1  0
 66 60  2  0
 67 66  1  0
 67 62  2  0
 68 62  1  0
 68 61  1  0
 69 59  1  0
 71 73  2  0
 72 71  1  0
 74 72  1  0
 75 84  2  0
 75 80  1  0
 76 72  1  0
 76 80  1  0
 77 76  1  0
 78 79  1  0
 78 77  1  0
 79 75  1  0
 80 81  2  0
 81 82  1  0
 83 82  2  0
 84 83  1  0
 85 59  1  0
 85 86  1  0
 85 95  1  0
 86 89  1  0
 87 91  1  0
 87 86  1  0
 88 87  2  0
 91 90  1  0
 93 91  1  0
 93 94  1  0
 93 92  1  0
 95 98  1  1
 95 96  1  0
 97 95  1  0
M  ISO  4  19 100  27 100  57 101  58 101
M  END
>  <TORSDO>  (7) 
F 24

>  <SCORE>  (7) 
-11.836

>  <name>  (7) 
6

>  <ligand_id>  (7) 
6

>  <original_smiles>  (7) 
[H]c1c([H])c([H])c2c(c1[H])C([H])([H])C([H])([H])C([H])([H])C2([H])N([H])C(=O)C1([H])N(C(=O)C([H])(N([H])C(=O)C([H])(N([H])C([H])([H])[H])C([H])([H])[H])C(C([H])([H])[H])(C([H])([H])[H])C([H])([H])[H])C([H])([H])c2c([H])c(OC([H])([H])C3([H])C(=O)C([H])([H])C([H])(C([H])([H])C(=O)N([H])C([H])([H])C([H])([H])C([H])([H])C([H])([H])C([H])([H])N([H])C(=O)N4C([H])([H])C([H])([H])C([H])([H])C([H])(n5nc(-c6c([H])c([H])c(Oc7c([H])c([H])c(F)c([H])c7F)c([H])c6[H])c(C(=O)N([H])[H])c5N([H])[H])C4([H])[H])[N+]3([H])[H])c([H])c([H])c2C1([H])[H]

>  <smiles>  (7) 
[H]c1c([H])c([H])c2c(c1[H])C([H])([H])C([H])([H])C([H])([H])C2([H])N([H])C(=O)C1([H])N(C(=O)C([H])(N([H])C(=O)C([H])(N([H])C([H])([H])[H])C([H])([H])[H])C(C([H])([H])[H])(C([H])([H])[H])C([H])([H])[H])C([H])([H])c2c([H])c(OC([H])([H])C3([H])C(=O)C([H])([H])C([H])(C([H])([H])C(=O)N([H])C([H])([H])C([H])([H])C([H])([H])C([H])([H])C([H])([H])N([H])C(=O)N4C([H])([H])C([H])([H])C([H])([H])C([H])(n5nc(-c6c([H])c([H])c(Oc7c([H])c([H])c(F)c([H])c7F)c([H])c6[H])c(C(=O)N([H])[H])c5N([H])[H])C4([H])[H])[N+]3([H])[H])c([H])c([H])c2C1([H])[H]

$$$$
7:0:0
     RDKit          3D

 95103  0  0  1  0  0  0  0  0999 V2000
  -30.8150  -21.3770   21.1330 C   0  0  0  0  0  3  0  0  0  0  0  0
  -30.8700  -20.0640   19.2820 C   0  0  0  0  0  3  0  0  0  0  0  0
  -31.0120  -20.0570   20.6350 C   0  0  0  0  0  0  0  0  0  0  0  0
  -30.4820  -22.1660   20.0570 C   0  0  0  0  0  0  0  0  0  0  0  0
  -30.2340  -21.7120   17.5340 C   0  0  0  0  0  1  0  0  0  0  0  0
  -30.5190  -21.3520   18.9110 N   0  0  0  0  0  0  0  0  0  0  0  0
  -30.0910  -23.6110   20.0130 C   0  0  0  0  0  0  0  0  0  0  0  0
  -30.5150  -24.3700   21.0280 N   0  0  0  0  0  0  0  0  0  0  0  0
  -29.4730  -24.0860   19.0570 O   0  0  0  0  0  0  0  0  0  0  0  0
  -31.0290  -23.8950   21.7570 H   0  0  0  0  0  0  0  0  0  0  0  0
  -30.5010  -25.8370   21.0910 C   0  0  0  0  0  2  0  0  0  0  0  0
  -29.1220  -26.4900   21.3380 C   0  0  0  0  0  2  0  0  0  0  0  0
  -28.4320  -26.7200   20.1070 O   0  0  0  0  0  0  0  0  0  0  0  0
  -24.6070  -31.8910   23.2400 C   0  0  0  0  0  0  0  0  0  0  0  0
  -27.2810  -27.4730   20.1700 C   0  0  0  0  0  0  0  0  0  0  0  0
  -23.4030  -30.4830   21.5970 C   0  0  0  0  0  3  0  0  0  0  0  0
  -24.8670  -28.9450   20.1760 C   0  0  0  0  0  0  0  0  0  0  0  0
  -25.9250  -30.8510   21.4050 C   0  0  0  0  0  2  0  0  0  0  0  0
  -26.0160  -29.4800   20.7720 C   0  0  0  0  0  0  0  0  0  0  0  0
  -27.2250  -28.7510   20.7720 C   0  0  0  0  0  3  0  0  0  0  0  0
  -26.1230  -26.9560   19.5530 C   0  0  0  0  0  3  0  0  0  0  0  0
  -24.9140  -27.6810   19.5640 C   0  0  0  0  0  3  0  0  0  0  0  0
  -23.6160  -29.7960   20.2190 C   0  0  0  0  0  2  0  0  0  0  0  0
  -24.6620  -31.0920   22.1380 N   0  0  0  0  0  0  0  0  0  0  0  0
  -23.5260  -32.1620   23.7810 O   0  0  0  0  0  0  0  0  0  0  0  0
  -22.7580  -29.4620   22.5640 C   0  0  0  0  0  0  0  0  0  0  0  0
  -21.4330  -29.2740   22.4400 N   0  0  0  0  0  0  0  0  0  0  0  0
  -23.4450  -28.8410   23.3770 O   0  0  0  0  0  0  0  0  0  0  0  0
  -20.9430  -29.8290   21.7550 H   0  0  0  0  0  0  0  0  0  0  0  0
  -18.0640  -28.0770   22.9500 C   0  0  0  0  0  0  0  0  0  0  0  0
  -20.6210  -28.3360   23.2130 C   0  0  0  0  0  3  0  0  0  0  0  0
  -20.7230  -26.9060   22.6350 C   0  0  0  0  0  2  0  0  0  0  0  0
  -19.6190  -26.5840   21.6240 C   0  0  0  0  0  2  0  0  0  0  0  0
  -18.2390  -26.7290   22.2720 C   0  0  0  0  0  2  0  0  0  0  0  0
  -19.1830  -28.8400   23.3760 C   0  0  0  0  0  0  0  0  0  0  0  0
  -18.9670  -30.1030   23.9680 C   0  0  0  0  0  3  0  0  0  0  0  0
  -17.6640  -30.6050   24.1380 C   0  0  0  0  0  3  0  0  0  0  0  0
  -16.5580  -29.8390   23.7270 C   0  0  0  0  0  3  0  0  0  0  0  0
  -16.7590  -28.5780   23.1400 C   0  0  0  0  0  3  0  0  0  0  0  0
  -25.8930  -32.5250   23.8560 C   0  0  0  0  0  3  0  0  0  0  0  0
  -25.5810  -33.9220   24.1840 N   0  0  0  0  0  0  0  0  0  0  0  0
  -25.9140  -34.9750   23.4250 C   0  0  0  0  0  0  0  0  0  0  0  0
  -26.5880  -34.8720   22.3940 O   0  0  0  0  0  0  0  0  0  0  0  0
  -24.9760  -34.0750   24.9790 H   0  0  0  0  0  0  0  0  0  0  0  0
  -24.1790  -36.7640   23.0750 C   0  0  0  0  0  1  0  0  0  0  0  0
  -25.4240  -36.3640   23.8820 C   0  0  0  0  0  3  0  0  0  0  0  0
  -27.5610  -37.2520   24.7060 C   0  0  0  0  0  1  0  0  0  0  0  0
  -26.4540  -37.4200   23.7670 N   0  0  0  0  0  0  0  0  0  0  0  0
  -26.0470  -38.3380   23.9190 H   0  0  0  0  0  0  0  0  0  0  0  0
  -26.4210  -31.7550   25.1300 C   0  0  1  0  0  0  0  0  0  0  0  0
  -25.3350  -31.5200   26.2040 C   0  0  0  0  0  1  0  0  0  0  0  0
  -27.0060  -30.3780   24.7390 C   0  0  0  0  0  1  0  0  0  0  0  0
  -27.5710  -32.5550   25.7870 C   0  0  0  0  0  1  0  0  0  0  0  0
  -31.2900  -18.9260   21.4110 N   0  0  0  0  0  0  0  0  0  0  0  0
  -32.2520  -18.8680   21.7410 H   0  0  0  0  0  0  0  0  0  0  0  0
  -30.7390  -17.6700   20.9030 C   0  0  0  0  0  2  0  0  0  0  0  0
  -30.9260  -16.5070   21.8950 C   0  0  0  0  0  2  0  0  0  0  0  0
  -30.7030  -14.4270   20.5520 C   0  0  0  0  0  0  0  0  0  0  0  0
  -30.3170  -12.3440   19.2860 C   0  0  0  0  0  2  0  0  0  0  0  0
  -29.3760  -12.6020   18.0970 C   0  0  0  0  0  2  0  0  0  0  0  0
  -27.9020  -12.4770   18.5220 C   0  0  0  0  0  2  0  0  0  0  0  0
  -27.5790  -13.2750   19.8150 C   0  0  0  0  0  3  0  0  0  0  0  0
  -28.6360  -13.0120   20.9100 C   0  0  0  0  0  2  0  0  0  0  0  0
  -29.9720  -13.2980   20.3520 N   0  0  0  0  0  0  0  0  0  0  0  0
  -31.7460  -14.6720   19.9380 O   0  0  0  0  0  0  0  0  0  0  0  0
  -30.2350  -15.2870   21.4670 N   0  0  0  0  0  0  0  0  0  0  0  0
  -29.3690  -15.0540   21.9310 H   0  0  0  0  0  0  0  0  0  0  0  0
  -25.1720  -13.8700   20.5130 C   0  0  0  0  0  0  0  0  0  0  0  0
  -24.1080  -13.0930   20.8890 C   0  0  0  0  0  0  0  0  0  0  0  0
  -24.5760  -11.7440   20.8610 C   0  0  0  0  0  0  0  0  0  0  0  0
  -26.2230  -12.9950   20.2890 N   0  0  0  0  0  0  0  0  0  0  0  0
  -25.8670  -11.7110   20.5540 N   0  0  0  0  0  0  0  0  0  0  0  0
  -23.8540  -10.4800   21.0530 C   0  0  0  0  0  0  0  0  0  0  0  0
  -24.2980   -9.5130   21.9800 C   0  0  0  0  0  3  0  0  0  0  0  0
  -23.5800   -8.3110   22.1630 C   0  0  0  0  0  3  0  0  0  0  0  0
  -22.4010   -8.0680   21.4170 C   0  0  0  0  0  0  0  0  0  0  0  0
  -21.9760   -9.0240   20.4780 C   0  0  0  0  0  3  0  0  0  0  0  0
  -22.6950  -10.2170   20.2950 C   0  0  0  0  0  3  0  0  0  0  0  0
  -21.6520   -6.9190   21.5100 O   0  0  0  0  0  0  0  0  0  0  0  0
  -21.6230   -6.1680   22.6580 C   0  0  0  0  0  0  0  0  0  0  0  0
  -21.2240   -6.7130   23.8970 C   0  0  0  0  0  3  0  0  0  0  0  0
  -21.1440   -5.8870   25.0370 C   0  0  0  0  0  3  0  0  0  0  0  0
  -21.4490   -4.5160   24.9360 C   0  0  0  0  0  0  0  0  0  0  0  0
  -21.8430   -3.9720   23.7000 C   0  0  0  0  0  3  0  0  0  0  0  0
  -21.9280   -4.7950   22.5650 C   0  0  0  0  0  0  0  0  0  0  0  0
  -22.2840   -4.2600   21.3710 F   0  0  0  0  0  0  0  0  0  0  0  0
  -21.3670   -3.7200   26.0280 F   0  0  0  0  0  0  0  0  0  0  0  0
  -22.7100  -13.5630   21.1610 C   0  0  0  0  0  0  0  0  0  0  0  0
  -21.9820  -12.8680   22.0300 N   0  0  0  0  0  0  0  0  0  0  0  0
  -22.2660  -14.5820   20.6350 O   0  0  0  0  0  0  0  0  0  0  0  0
  -22.3480  -12.0430   22.4820 H   0  0  0  0  0  0  0  0  0  0  0  0
  -21.0420  -13.1680   22.2470 H   0  0  0  0  0  0  0  0  0  0  0  0
  -25.3320  -15.2420   20.3310 N   0  0  0  0  0  0  0  0  0  0  0  0
  -24.5600  -15.8910   20.4290 H   0  0  0  0  0  0  0  0  0  0  0  0
  -26.1850  -15.6840   20.0100 H   0  0  0  0  0  0  0  0  0  0  0  0
  2  3  2  0
  3  1  1  0
  3 54  1  0
  4  1  2  0
  5  6  1  0
  6  2  1  0
  6  4  1  0
  7  4  1  0
  7  8  1  0
  8 11  1  0
  8 10  1  0
  9  7  2  0
 11 12  1  0
 13 15  1  0
 13 12  1  0
 14 25  2  0
 15 20  1  0
 16 24  1  0
 16 26  1  0
 17 23  1  0
 17 19  1  0
 18 24  1  0
 19 18  1  0
 20 19  2  0
 21 22  1  0
 21 15  2  0
 22 17  2  0
 23 16  1  0
 24 14  1  0
 26 28  2  0
 27 26  1  0
 29 27  1  0
 30 39  2  0
 30 35  1  0
 31 27  1  0
 31 35  1  0
 32 31  1  0
 33 34  1  0
 33 32  1  0
 34 30  1  0
 35 36  2  0
 36 37  1  0
 38 37  2  0
 39 38  1  0
 40 14  1  0
 40 41  1  0
 40 50  1  0
 41 44  1  0
 42 46  1  0
 42 41  1  0
 43 42  2  0
 46 45  1  0
 48 46  1  0
 48 49  1  0
 48 47  1  0
 50 53  1  1
 50 51  1  0
 52 50  1  0
 54 55  1  0
 56 54  1  0
 56 57  1  0
 58 66  1  0
 59 64  1  0
 60 61  1  0
 60 59  1  0
 62 61  1  0
 62 71  1  0
 62 63  1  0
 64 58  1  0
 64 63  1  0
 65 58  2  0
 66 57  1  0
 66 67  1  0
 68 69  2  0
 69 88  1  0
 70 69  1  0
 70 73  1  0
 71 68  1  0
 71 72  1  0
 72 70  2  0
 73 74  1  0
 74 75  2  0
 76 79  1  0
 76 75  1  0
 77 76  2  0
 78 77  1  0
 78 73  2  0
 79 80  1  0
 80 81  1  0
 81 82  2  0
 83 82  1  0
 83 87  1  0
 84 83  2  0
 85 80  2  0
 85 84  1  0
 86 85  1  0
 88 89  1  0
 89 92  1  0
 89 91  1  0
 90 88  2  0
 93 94  1  0
 93 68  1  0
 95 93  1  0
M  ISO  4  12 101  13 101  58 100  66 100
M  END
>  <TORSDO>  (8) 
F 22

>  <SCORE>  (8) 
-13.331

>  <name>  (8) 
7

>  <ligand_id>  (8) 
7

>  <original_smiles>  (8) 
[H]c1c([H])c([H])c2c(c1[H])C([H])([H])C([H])([H])C([H])([H])C2([H])N([H])C(=O)C1([H])N(C(=O)C([H])(N([H])C(=O)C([H])(N([H])C([H])([H])[H])C([H])([H])[H])C(C([H])([H])[H])(C([H])([H])[H])C([H])([H])[H])C([H])([H])c2c([H])c(OC([H])([H])C([H])([H])N([H])C(=O)c3c([H])c(N([H])C([H])([H])C([H])([H])N([H])C(=O)N4C([H])([H])C([H])([H])C([H])([H])C([H])(n5nc(-c6c([H])c([H])c(Oc7c([H])c([H])c(F)c([H])c7F)c([H])c6[H])c(C(=O)N([H])[H])c5N([H])[H])C4([H])[H])c([H])n3C([H])([H])[H])c([H])c([H])c2C1([H])[H]

>  <smiles>  (8) 
[H]c1c([H])c([H])c2c(c1[H])C([H])([H])C([H])([H])C([H])([H])C2([H])N([H])C(=O)C1([H])N(C(=O)C([H])(N([H])C(=O)C([H])(N([H])C([H])([H])[H])C([H])([H])[H])C(C([H])([H])[H])(C([H])([H])[H])C([H])([H])[H])C([H])([H])c2c([H])c(OC([H])([H])C([H])([H])N([H])C(=O)c3c([H])c(N([H])C([H])([H])C([H])([H])N([H])C(=O)N4C([H])([H])C([H])([H])C([H])([H])C([H])(n5nc(-c6c([H])c([H])c(Oc7c([H])c([H])c(F)c([H])c7F)c([H])c6[H])c(C(=O)N([H])[H])c5N([H])[H])C4([H])[H])c([H])n3C([H])([H])[H])c([H])c([H])c2C1([H])[H]

$$$$
8:0:0
     RDKit          3D

100109  0  0  1  0  0  0  0  0999 V2000
  -31.6280  -23.0710   21.9450 C   0  0  0  0  0  3  0  0  0  0  0  0
  -31.3850  -23.7320   20.7220 C   0  0  0  0  0  3  0  0  0  0  0  0
  -30.9220  -21.5910   19.6200 C   0  0  0  0  0  3  0  0  0  0  0  0
  -31.5210  -21.6710   21.9800 C   0  0  0  0  0  0  0  0  0  0  0  0
  -31.1680  -20.9430   20.8490 C   0  0  0  0  0  0  0  0  0  0  0  0
  -31.0330  -23.0060   19.5550 C   0  0  0  0  0  0  0  0  0  0  0  0
  -31.8000  -20.7830   23.1600 C   0  0  0  0  0  3  0  0  0  0  0  0
  -31.4710  -19.3620   22.6500 C   0  0  0  0  0  3  0  0  0  0  0  0
  -31.1470  -19.4520   21.1290 C   0  0  0  0  0  3  0  0  0  0  0  0
  -29.8300  -18.8690   20.7990 N   0  0  0  0  0  4  0  0  0  0  0  0
  -29.4800  -19.3910   20.0140 H   0  0  0  0  0  0  0  0  0  0  0  0
  -29.1900  -19.0290   21.5590 H   0  0  0  0  0  0  0  0  0  0  0  0
  -29.8020  -17.4450   20.3930 C   0  0  0  0  0  2  0  0  0  0  0  0
  -30.2450  -16.4610   21.5030 C   0  0  0  0  0  2  0  0  0  0  0  0
  -30.4510  -14.2880   20.2550 C   0  0  0  0  0  0  0  0  0  0  0  0
  -30.0830  -12.2580   18.9020 C   0  0  0  0  0  2  0  0  0  0  0  0
  -29.0400  -12.5320   17.7990 C   0  0  0  0  0  2  0  0  0  0  0  0
  -27.6060  -12.3400   18.3300 C   0  0  0  0  0  2  0  0  0  0  0  0
  -27.3610  -13.0820   19.6700 C   0  0  0  0  0  3  0  0  0  0  0  0
  -28.4910  -12.7600   20.6710 C   0  0  0  0  0  2  0  0  0  0  0  0
  -29.7780  -13.1290   20.0460 N   0  0  0  0  0  0  0  0  0  0  0  0
  -31.4460  -14.6360   19.6130 O   0  0  0  0  0  0  0  0  0  0  0  0
  -29.9010  -15.0780   21.1850 N   0  0  0  0  0  0  0  0  0  0  0  0
  -29.1070  -14.6860   21.6700 H   0  0  0  0  0  0  0  0  0  0  0  0
  -24.9810  -13.6100   20.5110 C   0  0  0  0  0  0  0  0  0  0  0  0
  -23.9650  -12.8020   20.9450 C   0  0  0  0  0  0  0  0  0  0  0  0
  -24.4730  -11.4680   20.8920 C   0  0  0  0  0  0  0  0  0  0  0  0
  -26.0440  -12.7660   20.2240 N   0  0  0  0  0  0  0  0  0  0  0  0
  -25.7440  -11.4740   20.5070 N   0  0  0  0  0  0  0  0  0  0  0  0
  -23.8090  -10.1810   21.1290 C   0  0  0  0  0  0  0  0  0  0  0  0
  -24.2920   -9.2670   22.0930 C   0  0  0  0  0  3  0  0  0  0  0  0
  -23.6240   -8.0430   22.3140 C   0  0  0  0  0  3  0  0  0  0  0  0
  -22.4620   -7.7230   21.5730 C   0  0  0  0  0  0  0  0  0  0  0  0
  -22.0000   -8.6270   20.6000 C   0  0  0  0  0  3  0  0  0  0  0  0
  -22.6670   -9.8420   20.3760 C   0  0  0  0  0  3  0  0  0  0  0  0
  -21.7650   -6.5470   21.7030 O   0  0  0  0  0  0  0  0  0  0  0  0
  -21.7250   -5.8630   22.8910 C   0  0  0  0  0  0  0  0  0  0  0  0
  -21.1860   -6.4360   24.0640 C   0  0  0  0  0  3  0  0  0  0  0  0
  -21.0990   -5.6730   25.2460 C   0  0  0  0  0  3  0  0  0  0  0  0
  -21.5400   -4.3350   25.2540 C   0  0  0  0  0  0  0  0  0  0  0  0
  -22.0710   -3.7610   24.0860 C   0  0  0  0  0  3  0  0  0  0  0  0
  -22.1610   -4.5230   22.9080 C   0  0  0  0  0  0  0  0  0  0  0  0
  -22.6540   -3.9570   21.7800 F   0  0  0  0  0  0  0  0  0  0  0  0
  -21.4500   -3.6000   26.3870 F   0  0  0  0  0  0  0  0  0  0  0  0
  -22.5700  -13.2280   21.3000 C   0  0  0  0  0  0  0  0  0  0  0  0
  -21.9210  -12.5120   22.2110 N   0  0  0  0  0  0  0  0  0  0  0  0
  -22.0630  -14.2340   20.8050 O   0  0  0  0  0  0  0  0  0  0  0  0
  -22.3440  -11.6980   22.6350 H   0  0  0  0  0  0  0  0  0  0  0  0
  -20.9870  -12.7800   22.4900 H   0  0  0  0  0  0  0  0  0  0  0  0
  -25.0840  -14.9850   20.3200 N   0  0  0  0  0  0  0  0  0  0  0  0
  -24.3000  -15.6100   20.4690 H   0  0  0  0  0  0  0  0  0  0  0  0
  -25.8950  -15.4500   19.9310 H   0  0  0  0  0  0  0  0  0  0  0  0
  -31.6350  -23.1370   17.0850 C   0  0  0  0  0  1  0  0  0  0  0  0
  -30.8300  -23.7610   18.2380 C   0  0  0  0  0  3  0  0  0  0  0  0
  -29.3940  -23.8780   17.8800 N   0  0  0  0  0  4  0  0  0  0  0  0
  -29.3540  -23.7870   16.8780 H   0  0  0  0  0  0  0  0  0  0  0  0
  -28.8780  -23.1030   18.2630 H   0  0  0  0  0  0  0  0  0  0  0  0
  -28.7340  -25.1720   18.2090 C   0  0  0  0  0  2  0  0  0  0  0  0
  -28.2260  -25.2510   19.6590 C   0  0  0  0  0  2  0  0  0  0  0  0
  -28.1440  -26.6160   20.0600 O   0  0  0  0  0  0  0  0  0  0  0  0
  -24.4970  -31.7630   23.2510 C   0  0  0  0  0  0  0  0  0  0  0  0
  -26.9470  -27.2990   20.0590 C   0  0  0  0  0  0  0  0  0  0  0  0
  -23.2120  -30.4260   21.6100 C   0  0  0  0  0  3  0  0  0  0  0  0
  -24.5870  -28.8570   20.1430 C   0  0  0  0  0  0  0  0  0  0  0  0
  -25.7410  -30.7080   21.3710 C   0  0  0  0  0  2  0  0  0  0  0  0
  -25.7680  -29.3440   20.7160 C   0  0  0  0  0  0  0  0  0  0  0  0
  -26.9440  -28.5700   20.6730 C   0  0  0  0  0  3  0  0  0  0  0  0
  -25.7490  -26.8170   19.4820 C   0  0  0  0  0  3  0  0  0  0  0  0
  -24.5710  -27.5910   19.5280 C   0  0  0  0  0  3  0  0  0  0  0  0
  -23.3730  -29.7530   20.2200 C   0  0  0  0  0  2  0  0  0  0  0  0
  -24.5040  -30.9800   22.1370 N   0  0  0  0  0  0  0  0  0  0  0  0
  -23.4370  -32.0660   23.8150 O   0  0  0  0  0  0  0  0  0  0  0  0
  -22.5440  -29.4170   22.5690 C   0  0  0  0  0  0  0  0  0  0  0  0
  -21.2190  -29.2480   22.4300 N   0  0  0  0  0  0  0  0  0  0  0  0
  -23.2150  -28.7870   23.3920 O   0  0  0  0  0  0  0  0  0  0  0  0
  -20.7430  -29.8080   21.7370 H   0  0  0  0  0  0  0  0  0  0  0  0
  -17.8350  -28.0650   22.8610 C   0  0  0  0  0  0  0  0  0  0  0  0
  -20.3850  -28.3230   23.1930 C   0  0  0  0  0  3  0  0  0  0  0  0
  -20.4990  -26.8830   22.6400 C   0  0  0  0  0  2  0  0  0  0  0  0
  -19.4220  -26.5470   21.6030 C   0  0  0  0  0  2  0  0  0  0  0  0
  -18.0260  -26.7060   22.2110 C   0  0  0  0  0  2  0  0  0  0  0  0
  -18.9440  -28.8320   23.3080 C   0  0  0  0  0  0  0  0  0  0  0  0
  -18.7130  -30.1050   23.8720 C   0  0  0  0  0  3  0  0  0  0  0  0
  -17.4050  -30.6110   23.9960 C   0  0  0  0  0  3  0  0  0  0  0  0
  -16.3100  -29.8410   23.5660 C   0  0  0  0  0  3  0  0  0  0  0  0
  -16.5260  -28.5700   23.0040 C   0  0  0  0  0  3  0  0  0  0  0  0
  -25.8170  -32.3370   23.8590 C   0  0  0  0  0  3  0  0  0  0  0  0
  -25.5780  -33.7490   24.1780 N   0  0  0  0  0  0  0  0  0  0  0  0
  -25.9670  -34.7780   23.4140 C   0  0  0  0  0  0  0  0  0  0  0  0
  -26.6380  -34.6340   22.3880 O   0  0  0  0  0  0  0  0  0  0  0  0
  -24.9880  -33.9380   24.9760 H   0  0  0  0  0  0  0  0  0  0  0  0
  -24.3510  -36.6620   23.0150 C   0  0  0  0  0  1  0  0  0  0  0  0
  -25.5470  -36.1910   23.8590 C   0  0  0  0  0  3  0  0  0  0  0  0
  -27.7010  -36.9640   24.7500 C   0  0  0  0  0  1  0  0  0  0  0  0
  -26.6390  -37.1840   23.7710 N   0  0  0  0  0  0  0  0  0  0  0  0
  -26.2810  -38.1270   23.8980 H   0  0  0  0  0  0  0  0  0  0  0  0
  -26.3090  -31.5490   25.1340 C   0  0  1  0  0  0  0  0  0  0  0  0
  -25.2150  -31.3660   26.2120 C   0  0  0  0  0  1  0  0  0  0  0  0
  -26.8290  -30.1460   24.7410 C   0  0  0  0  0  1  0  0  0  0  0  0
  -27.4980  -32.2970   25.7840 C   0  0  0  0  0  1  0  0  0  0  0  0
  1  4  1  0
  2  1  2  0
  3  5  1  0
  4  7  1  0
  5  9  1  0
  5  4  2  0
  6  3  2  0
  6  2  1  0
  8  7  2  0
  9 10  1  0
  9  8  1  0
 10 12  1  0
 11 10  1  0
 13 10  1  0
 13 14  1  0
 15 23  1  0
 16 21  1  0
 17 18  1  0
 17 16  1  0
 19 18  1  0
 19 28  1  0
 19 20  1  0
 21 15  1  0
 21 20  1  0
 22 15  2  0
 23 14  1  0
 23 24  1  0
 25 26  2  0
 26 45  1  0
 27 26  1  0
 27 30  1  0
 28 29  1  0
 28 25  1  0
 29 27  2  0
 30 31  1  0
 31 32  2  0
 33 36  1  0
 33 32  1  0
 34 33  2  0
 35 34  1  0
 35 30  2  0
 36 37  1  0
 37 42  2  0
 37 38  1  0
 38 39  2  0
 39 40  1  0
 40 44  1  0
 41 40  2  0
 42 41  1  0
 43 42  1  0
 45 46  1  0
 46 49  1  0
 46 48  1  0
 47 45  2  0
 50 51  1  0
 50 25  1  0
 52 50  1  0
 54 53  1  0
 54  6  1  0
 55 58  1  0
 55 54  1  0
 55 57  1  0
 56 55  1  0
 58 59  1  0
 59 60  1  0
 61 72  2  0
 62 60  1  0
 62 67  1  0
 63 71  1  0
 63 73  1  0
 64 70  1  0
 64 66  1  0
 65 71  1  0
 66 65  1  0
 67 66  2  0
 68 69  1  0
 68 62  2  0
 69 64  2  0
 70 63  1  0
 71 61  1  0
 73 75  2  0
 74 73  1  0
 76 74  1  0
 77 86  2  0
 77 82  1  0
 78 74  1  0
 78 82  1  0
 79 78  1  0
 80 81  1  0
 80 79  1  0
 81 77  1  0
 82 83  2  0
 83 84  1  0
 85 84  2  0
 86 85  1  0
 87 61  1  0
 87 88  1  0
 87 97  1  0
 88 91  1  0
 89 93  1  0
 89 88  1  0
 90 89  2  0
 93 92  1  0
 95 93  1  0
 95 96  1  0
 95 94  1  0
 97100  1  1
 97 98  1  0
 99 97  1  0
M  ISO  4  15 100  23 100  59 101  60 101
M  END
>  <TORSDO>  (9) 
F 23

>  <SCORE>  (9) 
-11.809

>  <name>  (9) 
8

>  <ligand_id>  (9) 
8

>  <original_smiles>  (9) 
[H]c1c([H])c([H])c2c(c1[H])C([H])([H])C([H])([H])C([H])([H])C2([H])N([H])C(=O)C1([H])N(C(=O)C([H])(N([H])C(=O)C([H])(N([H])C([H])([H])[H])C([H])([H])[H])C(C([H])([H])[H])(C([H])([H])[H])C([H])([H])[H])C([H])([H])c2c([H])c(OC([H])([H])C([H])([H])[N+]([H])([H])C([H])(c3c([H])c([H])c4c(c3[H])C([H])([N+]([H])([H])C([H])([H])C([H])([H])N([H])C(=O)N3C([H])([H])C([H])([H])C([H])([H])C([H])(n5nc(-c6c([H])c([H])c(Oc7c([H])c([H])c(F)c([H])c7F)c([H])c6[H])c(C(=O)N([H])[H])c5N([H])[H])C3([H])[H])C([H])([H])C4([H])[H])C([H])([H])[H])c([H])c([H])c2C1([H])[H]

>  <smiles>  (9) 
[H]c1c([H])c([H])c2c(c1[H])C([H])([H])C([H])([H])C([H])([H])C2([H])N([H])C(=O)C1([H])N(C(=O)C([H])(N([H])C(=O)C([H])(N([H])C([H])([H])[H])C([H])([H])[H])C(C([H])([H])[H])(C([H])([H])[H])C([H])([H])[H])C([H])([H])c2c([H])c(OC([H])([H])C([H])([H])[N+]([H])([H])C([H])(c3c([H])c([H])c4c(c3[H])C([H])([N+]([H])([H])C([H])([H])C([H])([H])N([H])C(=O)N3C([H])([H])C([H])([H])C([H])([H])C([H])(n5nc(-c6c([H])c([H])c(Oc7c([H])c([H])c(F)c([H])c7F)c([H])c6[H])c(C(=O)N([H])[H])c5N([H])[H])C3([H])[H])C([H])([H])C4([H])[H])C([H])([H])[H])c([H])c([H])c2C1([H])[H]

$$$$
10:0:0
     RDKit          3D

 95104  0  0  1  0  0  0  0  0999 V2000
  -30.7590  -14.6320   20.4480 C   0  0  0  0  0  0  0  0  0  0  0  0
  -30.4300  -12.3990   19.4190 C   0  0  0  0  0  2  0  0  0  0  0  0
  -29.5210  -12.5090   18.1800 C   0  0  0  0  0  2  0  0  0  0  0  0
  -28.0420  -12.3720   18.5880 C   0  0  0  0  0  2  0  0  0  0  0  0
  -27.6730  -13.2810   19.7920 C   0  0  0  0  0  3  0  0  0  0  0  0
  -28.7150  -13.1590   20.9320 C   0  0  0  0  0  2  0  0  0  0  0  0
  -30.0320  -13.4680   20.3630 N   0  0  0  0  0  0  0  0  0  0  0  0
  -31.9160  -14.6470   20.0150 O   0  0  0  0  0  0  0  0  0  0  0  0
  -28.6720  -21.0960   21.5230 C   0  0  0  0  0  2  0  0  0  0  0  0
  -29.8780  -20.1210   21.4440 C   0  0  0  0  0  2  0  0  0  0  0  0
  -31.0540  -18.1050   20.4150 C   0  0  0  0  0  2  0  0  0  0  0  0
  -28.6550  -17.8610   21.0600 C   0  0  0  0  0  2  0  0  0  0  0  0
  -28.0560  -20.4330   19.1500 C   0  0  0  0  0  2  0  0  0  0  0  0
  -31.1540  -16.8900   21.3830 C   0  0  0  0  0  2  0  0  0  0  0  0
  -28.8840  -16.3520   20.6790 C   0  0  0  0  0  2  0  0  0  0  0  0
  -28.1380  -21.6130   20.1610 C   0  0  0  0  0  3  0  0  0  0  0  0
  -29.2720  -19.4620   19.1130 C   0  0  0  0  0  3  0  0  0  0  0  0
  -29.7020  -18.8820   20.5050 C   0  0  1  0  0  0  0  0  0  0  0  0
  -30.2320  -15.7960   20.9800 N   0  0  0  0  0  0  0  0  0  0  0  0
  -25.2820  -13.9410   20.4580 C   0  0  0  0  0  0  0  0  0  0  0  0
  -24.1950  -13.1930   20.8180 C   0  0  0  0  0  0  0  0  0  0  0  0
  -24.6330  -11.8320   20.8140 C   0  0  0  0  0  0  0  0  0  0  0  0
  -26.3130  -13.0360   20.2560 N   0  0  0  0  0  0  0  0  0  0  0  0
  -25.9260  -11.7650   20.5310 N   0  0  0  0  0  0  0  0  0  0  0  0
  -23.8810  -10.5880   21.0110 C   0  0  0  0  0  0  0  0  0  0  0  0
  -24.2970   -9.6150   21.9460 C   0  0  0  0  0  3  0  0  0  0  0  0
  -23.5470   -8.4330   22.1290 C   0  0  0  0  0  3  0  0  0  0  0  0
  -22.3680   -8.2170   21.3760 C   0  0  0  0  0  0  0  0  0  0  0  0
  -21.9730   -9.1790   20.4300 C   0  0  0  0  0  3  0  0  0  0  0  0
  -22.7220  -10.3520   20.2460 C   0  0  0  0  0  3  0  0  0  0  0  0
  -21.5920   -7.0860   21.4680 O   0  0  0  0  0  0  0  0  0  0  0  0
  -21.5440   -6.3390   22.6170 C   0  0  0  0  0  0  0  0  0  0  0  0
  -21.1640   -6.9020   23.8560 C   0  0  0  0  0  3  0  0  0  0  0  0
  -21.0580   -6.0820   24.9980 C   0  0  0  0  0  3  0  0  0  0  0  0
  -21.3230   -4.7030   24.9030 C   0  0  0  0  0  0  0  0  0  0  0  0
  -21.6980   -4.1400   23.6710 C   0  0  0  0  0  3  0  0  0  0  0  0
  -21.8060   -4.9570   22.5310 C   0  0  0  0  0  0  0  0  0  0  0  0
  -22.1460   -4.4080   21.3390 F   0  0  0  0  0  0  0  0  0  0  0  0
  -21.2170   -3.9140   25.9980 F   0  0  0  0  0  0  0  0  0  0  0  0
  -22.8030  -13.7000   21.0590 C   0  0  0  0  0  0  0  0  0  0  0  0
  -22.0530  -13.0390   21.9330 N   0  0  0  0  0  0  0  0  0  0  0  0
  -22.3890  -14.7190   20.5060 O   0  0  0  0  0  0  0  0  0  0  0  0
  -22.4000  -12.2160   22.4010 H   0  0  0  0  0  0  0  0  0  0  0  0
  -21.1160  -13.3600   22.1340 H   0  0  0  0  0  0  0  0  0  0  0  0
  -25.4710  -15.3050   20.2660 N   0  0  0  0  0  0  0  0  0  0  0  0
  -24.7200  -15.9750   20.3870 H   0  0  0  0  0  0  0  0  0  0  0  0
  -26.3370  -15.7310   19.9620 H   0  0  0  0  0  0  0  0  0  0  0  0
  -28.8200  -22.8260   19.6000 N   0  0  0  0  0  4  0  0  0  0  0  0
  -29.8140  -22.6590   19.5460 H   0  0  0  0  0  0  0  0  0  0  0  0
  -28.5010  -22.8890   18.6450 H   0  0  0  0  0  0  0  0  0  0  0  0
  -28.5230  -24.1660   20.2280 C   0  0  0  0  0  2  0  0  0  0  0  0
  -28.7060  -25.3670   19.2330 C   0  0  0  0  0  2  0  0  0  0  0  0
  -28.5510  -26.7120   19.7640 O   0  0  0  0  0  0  0  0  0  0  0  0
  -24.5530  -31.6510   23.0020 C   0  0  0  0  0  0  0  0  0  0  0  0
  -27.3390  -27.3940   19.7430 C   0  0  0  0  0  0  0  0  0  0  0  0
  -23.3930  -30.2830   21.2990 C   0  0  0  0  0  3  0  0  0  0  0  0
  -24.8940  -28.8510   19.8090 C   0  0  0  0  0  0  0  0  0  0  0  0
  -25.9070  -30.7260   21.1180 C   0  0  0  0  0  2  0  0  0  0  0  0
  -26.0380  -29.3820   20.4210 C   0  0  0  0  0  0  0  0  0  0  0  0
  -27.2550  -28.6610   20.3830 C   0  0  0  0  0  3  0  0  0  0  0  0
  -26.1710  -26.8870   19.1290 C   0  0  0  0  0  3  0  0  0  0  0  0
  -24.9580  -27.6060   19.1620 C   0  0  0  0  0  3  0  0  0  0  0  0
  -23.6240  -29.6670   19.8940 C   0  0  0  0  0  2  0  0  0  0  0  0
  -24.6360  -30.9010   21.8660 N   0  0  0  0  0  0  0  0  0  0  0  0
  -23.4640  -31.8630   23.5530 O   0  0  0  0  0  0  0  0  0  0  0  0
  -22.7750  -29.2030   22.2170 C   0  0  0  0  0  0  0  0  0  0  0  0
  -21.4500  -29.0100   22.1140 N   0  0  0  0  0  0  0  0  0  0  0  0
  -23.4870  -28.5400   22.9760 O   0  0  0  0  0  0  0  0  0  0  0  0
  -20.9340  -29.5960   21.4720 H   0  0  0  0  0  0  0  0  0  0  0  0
  -18.1020  -27.7660   22.6380 C   0  0  0  0  0  0  0  0  0  0  0  0
  -20.6650  -28.0210   22.8520 C   0  0  0  0  0  3  0  0  0  0  0  0
  -20.7550  -26.6270   22.1880 C   0  0  0  0  0  2  0  0  0  0  0  0
  -19.6300  -26.3680   21.1790 C   0  0  0  0  0  2  0  0  0  0  0  0
  -18.2630  -26.4670   21.8630 C   0  0  0  0  0  2  0  0  0  0  0  0
  -19.2300  -28.5030   23.0880 C   0  0  0  0  0  0  0  0  0  0  0  0
  -19.0260  -29.7210   23.7730 C   0  0  0  0  0  3  0  0  0  0  0  0
  -17.7260  -30.1980   24.0180 C   0  0  0  0  0  3  0  0  0  0  0  0
  -16.6120  -29.4540   23.5890 C   0  0  0  0  0  3  0  0  0  0  0  0
  -16.8020  -28.2410   22.9040 C   0  0  0  0  0  3  0  0  0  0  0  0
  -25.8160  -32.2980   23.6510 C   0  0  0  0  0  3  0  0  0  0  0  0
  -26.3870  -31.4670   24.8650 C   0  0  1  0  0  0  0  0  0  0  0  0
  -25.3250  -31.1130   25.9330 C   0  0  0  0  0  1  0  0  0  0  0  0
  -27.0190  -30.1470   24.3710 C   0  0  0  0  0  1  0  0  0  0  0  0
  -27.5200  -32.2630   25.5570 C   0  0  0  0  0  1  0  0  0  0  0  0
  -25.4500  -33.6550   24.0780 N   0  0  0  0  0  0  0  0  0  0  0  0
  -25.7240  -34.7700   23.3860 C   0  0  0  0  0  0  0  0  0  0  0  0
  -26.3830  -34.7650   22.3420 O   0  0  0  0  0  0  0  0  0  0  0  0
  -24.8620  -33.7300   24.8970 H   0  0  0  0  0  0  0  0  0  0  0  0
  -23.9090  -36.4950   23.1740 C   0  0  0  0  0  1  0  0  0  0  0  0
  -25.1820  -36.1020   23.9400 C   0  0  0  0  0  3  0  0  0  0  0  0
  -27.2900  -37.0290   24.7900 C   0  0  0  0  0  1  0  0  0  0  0  0
  -26.1630  -37.2060   23.8760 N   0  0  0  0  0  0  0  0  0  0  0  0
  -25.7200  -38.0960   24.0890 H   0  0  0  0  0  0  0  0  0  0  0  0
  -30.3470  -20.1670   18.5160 O   0  0  0  0  0  0  0  0  0  0  0  0
  -31.0710  -19.5550   18.4190 H   0  0  0  0  0  0  0  0  0  0  0  0
  1 19  1  0
  2  7  1  0
  3  4  1  0
  3  2  1  0
  5  4  1  0
  5 23  1  0
  5  6  1  0
  7  1  1  0
  7  6  1  0
  8  1  2  0
 10  9  1  0
 11 14  1  0
 13 16  1  0
 15 19  1  0
 15 12  1  0
 16 48  1  0
 16  9  1  0
 17 94  1  0
 17 13  1  0
 17 18  1  0
 18 11  1  6
 18 12  1  0
 18 10  1  0
 19 14  1  0
 20 21  2  0
 21 40  1  0
 22 21  1  0
 22 25  1  0
 23 20  1  0
 23 24  1  0
 24 22  2  0
 25 26  1  0
 26 27  2  0
 28 31  1  0
 28 27  1  0
 29 28  2  0
 30 29  1  0
 30 25  2  0
 31 32  1  0
 32 33  1  0
 33 34  2  0
 35 34  1  0
 35 39  1  0
 36 35  2  0
 37 32  2  0
 37 36  1  0
 38 37  1  0
 40 41  1  0
 41 44  1  0
 41 43  1  0
 42 40  2  0
 45 46  1  0
 45 20  1  0
 47 45  1  0
 48 51  1  0
 49 48  1  0
 50 48  1  0
 52 53  1  0
 52 51  1  0
 54 65  2  0
 55 53  1  0
 55 60  1  0
 56 64  1  0
 56 66  1  0
 57 63  1  0
 57 59  1  0
 58 64  1  0
 59 58  1  0
 60 59  2  0
 61 62  1  0
 61 55  2  0
 62 57  2  0
 63 56  1  0
 64 54  1  0
 66 68  2  0
 67 66  1  0
 69 67  1  0
 70 79  2  0
 70 75  1  0
 71 67  1  0
 71 75  1  0
 72 71  1  0
 73 74  1  0
 73 72  1  0
 74 70  1  0
 75 76  2  0
 76 77  1  0
 78 77  2  0
 79 78  1  0
 80 54  1  0
 80 85  1  0
 80 81  1  0
 81 84  1  1
 81 82  1  0
 83 81  1  0
 85 88  1  0
 86 90  1  0
 86 85  1  0
 87 86  2  0
 90 89  1  0
 92 90  1  0
 92 93  1  0
 92 91  1  0
 95 94  1  0
M  ISO  4   1 100  19 100  52 101  53 101
M  END
>  <TORSDO>  (10) 
F 19

>  <SCORE>  (10) 
-13.769

>  <name>  (10) 
10

>  <ligand_id>  (10) 
10

>  <original_smiles>  (10) 
[H]OC1([H])C([H])([H])C([H])([N+]([H])([H])C([H])([H])C([H])([H])Oc2c([H])c([H])c3c(c2[H])C([H])([H])N(C(=O)C([H])(N([H])C(=O)C([H])(N([H])C([H])([H])[H])C([H])([H])[H])C(C([H])([H])[H])(C([H])([H])[H])C([H])([H])[H])C([H])(C(=O)N([H])C2([H])c4c([H])c([H])c([H])c([H])c4C([H])([H])C([H])([H])C2([H])[H])C3([H])[H])C([H])([H])C([H])([H])C12C([H])([H])C([H])([H])N(C(=O)N1C([H])([H])C([H])([H])C([H])([H])C([H])(n3nc(-c4c([H])c([H])c(Oc5c([H])c([H])c(F)c([H])c5F)c([H])c4[H])c(C(=O)N([H])[H])c3N([H])[H])C1([H])[H])C([H])([H])C2([H])[H]

>  <smiles>  (10) 
[H]OC1([H])C([H])([H])C([H])([N+]([H])([H])C([H])([H])C([H])([H])Oc2c([H])c([H])c3c(c2[H])C([H])([H])N(C(=O)C([H])(N([H])C(=O)C([H])(N([H])C([H])([H])[H])C([H])([H])[H])C(C([H])([H])[H])(C([H])([H])[H])C([H])([H])[H])C([H])(C(=O)N([H])C2([H])c4c([H])c([H])c([H])c([H])c4C([H])([H])C([H])([H])C2([H])[H])C3([H])[H])C([H])([H])C([H])([H])C12C([H])([H])C([H])([H])N(C(=O)N1C([H])([H])C([H])([H])C([H])([H])C([H])(n3nc(-c4c([H])c([H])c(Oc5c([H])c([H])c(F)c([H])c5F)c([H])c4[H])c(C(=O)N([H])[H])c3N([H])[H])C1([H])[H])C([H])([H])C2([H])[H]

$$$$
11:0:0
     RDKit          3D

 98106  0  0  1  0  0  0  0  0999 V2000
  -30.4880  -22.7800   23.1640 N   0  0  0  0  0  4  0  0  0  0  0  0
  -30.6760  -23.2030   24.0600 H   0  0  0  0  0  0  0  0  0  0  0  0
  -31.3820  -22.5670   22.7490 H   0  0  0  0  0  0  0  0  0  0  0  0
  -30.2950  -25.2130   22.6110 C   0  0  0  0  0  2  0  0  0  0  0  0
  -29.5760  -26.2510   21.7240 C   0  0  0  0  0  2  0  0  0  0  0  0
  -29.9770  -23.4500   20.8150 C   0  0  0  0  0  2  0  0  0  0  0  0
  -29.8010  -23.7810   22.3120 C   0  0  0  0  0  3  0  0  0  0  0  0
  -29.7390  -25.9110   20.2270 C   0  0  0  0  0  3  0  0  0  0  0  0
  -29.2610  -24.4770   19.9230 C   0  0  0  0  0  3  0  0  0  0  0  0
  -29.5120  -24.1800   18.6460 F   0  0  0  0  0  0  0  0  0  0  0  0
  -29.1780  -26.8940   19.3550 O   0  0  0  0  0  0  0  0  0  0  0  0
  -25.5280  -30.8950   23.9630 C   0  0  0  0  0  0  0  0  0  0  0  0
  -27.9860  -27.4930   19.6820 C   0  0  0  0  0  0  0  0  0  0  0  0
  -24.2290  -30.0040   22.0530 C   0  0  0  0  0  3  0  0  0  0  0  0
  -25.5990  -28.9030   20.2070 C   0  0  0  0  0  0  0  0  0  0  0  0
  -26.7410  -30.4100   21.8440 C   0  0  0  0  0  2  0  0  0  0  0  0
  -26.7830  -29.2560   20.8680 C   0  0  0  0  0  0  0  0  0  0  0  0
  -27.9770  -28.5530   20.6100 C   0  0  0  0  0  3  0  0  0  0  0  0
  -26.7930  -27.1510   19.0130 C   0  0  0  0  0  3  0  0  0  0  0  0
  -25.5950  -27.8430   19.2800 C   0  0  0  0  0  3  0  0  0  0  0  0
  -24.3680  -29.7200   20.5340 C   0  0  0  0  0  2  0  0  0  0  0  0
  -25.5200  -30.4350   22.6800 N   0  0  0  0  0  0  0  0  0  0  0  0
  -24.4760  -31.0090   24.6080 O   0  0  0  0  0  0  0  0  0  0  0  0
  -23.6050  -28.7600   22.7270 C   0  0  0  0  0  0  0  0  0  0  0  0
  -22.3210  -28.5030   22.4300 N   0  0  0  0  0  0  0  0  0  0  0  0
  -24.2770  -28.0390   23.4680 O   0  0  0  0  0  0  0  0  0  0  0  0
  -21.8370  -29.1450   21.8200 H   0  0  0  0  0  0  0  0  0  0  0  0
  -19.1720  -26.7760   22.0630 C   0  0  0  0  0  0  0  0  0  0  0  0
  -21.5400  -27.3640   22.9120 C   0  0  0  0  0  3  0  0  0  0  0  0
  -21.9980  -26.0500   22.2410 C   0  0  0  0  0  2  0  0  0  0  0  0
  -21.1920  -25.7040   20.9840 C   0  0  0  0  0  2  0  0  0  0  0  0
  -19.7050  -25.5630   21.3190 C   0  0  0  0  0  2  0  0  0  0  0  0
  -20.0360  -27.6300   22.7970 C   0  0  0  0  0  0  0  0  0  0  0  0
  -19.4930  -28.7650   23.4380 C   0  0  0  0  0  3  0  0  0  0  0  0
  -18.1160  -29.0480   23.3580 C   0  0  0  0  0  3  0  0  0  0  0  0
  -17.2630  -28.1890   22.6440 C   0  0  0  0  0  3  0  0  0  0  0  0
  -17.7900  -27.0550   22.0000 C   0  0  0  0  0  3  0  0  0  0  0  0
  -26.8500  -31.3230   24.6730 C   0  0  0  0  0  3  0  0  0  0  0  0
  -26.6220  -32.6440   25.2730 N   0  0  0  0  0  0  0  0  0  0  0  0
  -27.1530  -33.7880   24.8200 C   0  0  0  0  0  0  0  0  0  0  0  0
  -27.9540  -33.8280   23.8820 O   0  0  0  0  0  0  0  0  0  0  0  0
  -25.9340  -32.6920   26.0090 H   0  0  0  0  0  0  0  0  0  0  0  0
  -25.7340  -35.8530   24.6240 C   0  0  0  0  0  1  0  0  0  0  0  0
  -26.7260  -35.0930   25.5180 C   0  0  0  0  0  3  0  0  0  0  0  0
  -28.7130  -35.4390   26.9180 C   0  0  0  0  0  1  0  0  0  0  0  0
  -27.8630  -35.9760   25.8590 N   0  0  0  0  0  0  0  0  0  0  0  0
  -27.5340  -36.8930   26.1500 H   0  0  0  0  0  0  0  0  0  0  0  0
  -27.3350  -30.2890   25.7610 C   0  0  1  0  0  0  0  0  0  0  0  0
  -26.2420  -29.9020   26.7830 C   0  0  0  0  0  1  0  0  0  0  0  0
  -27.8380  -28.9910   25.0860 C   0  0  0  0  0  1  0  0  0  0  0  0
  -28.5320  -30.8760   26.5450 C   0  0  0  0  0  1  0  0  0  0  0  0
  -29.6950  -21.5470   23.3960 C   0  0  0  0  0  2  0  0  0  0  0  0
  -30.5280  -20.3590   23.9280 C   0  0  0  0  0  2  0  0  0  0  0  0
  -31.3860  -19.6080   22.8860 C   0  0  0  0  0  2  0  0  0  0  0  0
  -30.6230  -19.1840   21.6860 N   0  0  0  0  0  4  0  0  0  0  0  0
  -29.6770  -19.5210   21.7740 H   0  0  0  0  0  0  0  0  0  0  0  0
  -31.0170  -19.5980   20.8570 H   0  0  0  0  0  0  0  0  0  0  0  0
  -30.5220  -17.7220   21.4790 C   0  0  0  0  0  2  0  0  0  0  0  0
  -31.7750  -17.0920   20.8330 C   0  0  0  0  0  2  0  0  0  0  0  0
  -31.5500  -15.6010   20.5620 C   0  0  0  0  0  2  0  0  0  0  0  0
  -32.9990  -13.7070   19.5800 C   0  0  0  0  0  0  0  0  0  0  0  0
  -32.3760  -11.3530   19.2050 C   0  0  0  0  0  2  0  0  0  0  0  0
  -31.4210  -11.2320   17.9990 C   0  0  0  0  0  2  0  0  0  0  0  0
  -29.9510  -11.4500   18.4150 C   0  0  0  0  0  2  0  0  0  0  0  0
  -29.7680  -12.7010   19.3120 C   0  0  0  0  0  3  0  0  0  0  0  0
  -30.8120  -12.6730   20.4520 C   0  0  0  0  0  2  0  0  0  0  0  0
  -32.1510  -12.6650   19.8410 N   0  0  0  0  0  0  0  0  0  0  0  0
  -34.0480  -13.5520   18.9560 O   0  0  0  0  0  0  0  0  0  0  0  0
  -32.7440  -14.9480   20.0320 N   0  0  0  0  0  0  0  0  0  0  0  0
  -33.5060  -15.5770   19.8280 H   0  0  0  0  0  0  0  0  0  0  0  0
  -27.6150  -13.9260   20.0370 C   0  0  0  0  0  0  0  0  0  0  0  0
  -26.4020  -13.4590   20.4660 C   0  0  0  0  0  0  0  0  0  0  0  0
  -26.5060  -12.0350   20.4730 C   0  0  0  0  0  0  0  0  0  0  0  0
  -28.4020  -12.8010   19.8230 N   0  0  0  0  0  0  0  0  0  0  0  0
  -27.7340  -11.6610   20.1380 N   0  0  0  0  0  0  0  0  0  0  0  0
  -25.4930  -11.0020   20.7250 C   0  0  0  0  0  0  0  0  0  0  0  0
  -25.7290   -9.9470   21.6310 C   0  0  0  0  0  3  0  0  0  0  0  0
  -24.7340   -8.9750   21.8720 C   0  0  0  0  0  3  0  0  0  0  0  0
  -23.4880   -9.0560   21.2060 C   0  0  0  0  0  0  0  0  0  0  0  0
  -23.2680  -10.0960   20.2860 C   0  0  0  0  0  3  0  0  0  0  0  0
  -24.2620  -11.0570   20.0440 C   0  0  0  0  0  3  0  0  0  0  0  0
  -22.4700   -8.1460   21.3620 O   0  0  0  0  0  0  0  0  0  0  0  0
  -22.1640   -7.6110   22.5870 C   0  0  0  0  0  0  0  0  0  0  0  0
  -21.8810   -8.4240   23.7060 C   0  0  0  0  0  3  0  0  0  0  0  0
  -21.5000   -7.8320   24.9290 C   0  0  0  0  0  3  0  0  0  0  0  0
  -21.3960   -6.4310   25.0310 C   0  0  0  0  0  0  0  0  0  0  0  0
  -21.6700   -5.6220   23.9160 C   0  0  0  0  0  3  0  0  0  0  0  0
  -22.0510   -6.2100   22.6970 C   0  0  0  0  0  0  0  0  0  0  0  0
  -22.2960   -5.4250   21.6200 F   0  0  0  0  0  0  0  0  0  0  0  0
  -21.0240   -5.8620   26.2020 F   0  0  0  0  0  0  0  0  0  0  0  0
  -25.1770  -14.2790   20.7500 C   0  0  0  0  0  0  0  0  0  0  0  0
  -24.3660  -13.8600   21.7160 N   0  0  0  0  0  0  0  0  0  0  0  0
  -24.9590  -15.3300   20.1470 O   0  0  0  0  0  0  0  0  0  0  0  0
  -24.5520  -13.0110   22.2300 H   0  0  0  0  0  0  0  0  0  0  0  0
  -23.5420  -14.3970   21.9450 H   0  0  0  0  0  0  0  0  0  0  0  0
  -28.1050  -15.2060   19.7960 N   0  0  0  0  0  0  0  0  0  0  0  0
  -27.4830  -16.0080   19.8210 H   0  0  0  0  0  0  0  0  0  0  0  0
  -28.9750  -15.3950   19.3140 H   0  0  0  0  0  0  0  0  0  0  0  0
  1 52  1  0
  1  2  1  0
  3  1  1  0
  5  4  1  0
  6  7  1  0
  7  4  1  0
  7  1  1  0
  8 11  1  0
  8  5  1  0
  9 10  1  0
  9  8  1  0
  9  6  1  0
 11 13  1  0
 12 23  2  0
 13 18  1  0
 14 22  1  0
 14 24  1  0
 15 21  1  0
 15 17  1  0
 16 22  1  0
 17 16  1  0
 18 17  2  0
 19 20  1  0
 19 13  2  0
 20 15  2  0
 21 14  1  0
 22 12  1  0
 24 26  2  0
 25 24  1  0
 27 25  1  0
 28 33  1  0
 29 25  1  0
 30 29  1  0
 31 32  1  0
 31 30  1  0
 32 28  1  0
 33 29  1  0
 33 34  2  0
 35 34  1  0
 36 35  2  0
 37 28  2  0
 37 36  1  0
 38 12  1  0
 38 39  1  0
 38 48  1  0
 39 42  1  0
 40 39  1  0
 40 44  1  0
 41 40  2  0
 44 43  1  0
 44 46  1  0
 46 47  1  0
 46 45  1  0
 48 51  1  1
 48 49  1  0
 50 48  1  0
 52 53  1  0
 54 53  1  0
 55 56  1  0
 55 54  1  0
 57 55  1  0
 58 55  1  0
 59 58  1  0
 60 59  1  0
 61 67  1  0
 61 69  1  0
 62 67  1  0
 63 64  1  0
 63 62  1  0
 65 64  1  0
 65 74  1  0
 65 66  1  0
 67 66  1  0
 68 61  2  0
 69 60  1  0
 70 69  1  0
 71 72  2  0
 72 73  1  0
 72 91  1  0
 73 76  1  0
 74 71  1  0
 74 75  1  0
 75 73  2  0
 76 77  1  0
 77 78  2  0
 79 82  1  0
 79 78  1  0
 80 79  2  0
 81 80  1  0
 81 76  2  0
 82 83  1  0
 83 88  2  0
 83 84  1  0
 84 85  2  0
 85 86  1  0
 86 90  1  0
 87 86  2  0
 88 87  1  0
 89 88  1  0
 91 92  1  0
 92 95  1  0
 92 94  1  0
 93 91  2  0
 96 97  1  0
 96 71  1  0
 98 96  1  0
M  ISO  4   8 101  11 101  61 100  69 100
M  END
>  <TORSDO>  (11) 
F 24

>  <SCORE>  (11) 
-7.877

>  <name>  (11) 
11

>  <ligand_id>  (11) 
11

>  <original_smiles>  (11) 
[H]c1c([H])c([H])c2c(c1[H])C([H])([H])C([H])([H])C([H])([H])C2([H])N([H])C(=O)C1([H])N(C(=O)C([H])(N([H])C(=O)C([H])(N([H])C([H])([H])[H])C([H])([H])[H])C(C([H])([H])[H])(C([H])([H])[H])C([H])([H])[H])C([H])([H])c2c([H])c(OC3([H])C([H])([H])C([H])([H])C([H])([N+]([H])([H])C([H])([H])C([H])([H])C([H])([H])[N+]([H])([H])C([H])([H])C([H])([H])C([H])([H])N([H])C(=O)N4C([H])([H])C([H])([H])C([H])([H])C([H])(n5nc(-c6c([H])c([H])c(Oc7c([H])c([H])c(F)c([H])c7F)c([H])c6[H])c(C(=O)N([H])[H])c5N([H])[H])C4([H])[H])C([H])([H])C3([H])F)c([H])c([H])c2C1([H])[H]

>  <smiles>  (11) 
[H]c1c([H])c([H])c2c(c1[H])C([H])([H])C([H])([H])C([H])([H])C2([H])N([H])C(=O)C1([H])N(C(=O)C([H])(N([H])C(=O)C([H])(N([H])C([H])([H])[H])C([H])([H])[H])C(C([H])([H])[H])(C([H])([H])[H])C([H])([H])[H])C([H])([H])c2c([H])c(OC3([H])C([H])([H])C([H])([H])C([H])([N+]([H])([H])C([H])([H])C([H])([H])C([H])([H])[N+]([H])([H])C([H])([H])C([H])([H])C([H])([H])N([H])C(=O)N4C([H])([H])C([H])([H])C([H])([H])C([H])(n5nc(-c6c([H])c([H])c(Oc7c([H])c([H])c(F)c([H])c7F)c([H])c6[H])c(C(=O)N([H])[H])c5N([H])[H])C4([H])[H])C([H])([H])C3([H])F)c([H])c([H])c2C1([H])[H]

$$$$
12:0:0
     RDKit          3D

 99108  0  0  1  0  0  0  0  0999 V2000
  -29.2990  -23.0440   21.5380 C   0  0  0  0  0  3  0  0  0  0  0  0
  -28.3310  -23.9080   19.0110 C   0  0  0  0  0  3  0  0  0  0  0  0
  -29.4220  -24.4050   21.1650 C   0  0  0  0  0  0  0  0  0  0  0  0
  -28.7330  -22.1340   20.6280 C   0  0  0  0  0  0  0  0  0  0  0  0
  -28.2360  -22.5650   19.4060 C   0  0  0  0  0  0  0  0  0  0  0  0
  -28.9570  -24.8320   19.8810 C   0  0  0  0  0  0  0  0  0  0  0  0
  -27.6830  -21.4240   18.6020 C   0  0  0  0  0  2  0  0  0  0  0  0
  -28.2310  -20.1870   19.3420 C   0  0  0  0  0  2  0  0  0  0  0  0
  -28.6460  -20.6330   20.7730 C   0  0  0  0  0  3  0  0  0  0  0  0
  -30.1200  -25.3130   22.1160 C   0  0  0  0  0  0  0  0  0  0  0  0
  -29.5720  -25.3420   23.5370 C   0  0  0  0  0  1  0  0  0  0  0  0
  -31.0890  -26.0180   21.8220 O   0  0  0  0  0  0  0  0  0  0  0  0
  -29.1570  -26.2580   19.3890 C   0  0  0  0  0  2  0  0  0  0  0  0
  -28.7800  -27.2260   20.3590 O   0  0  0  0  0  0  0  0  0  0  0  0
  -24.5260  -32.0370   23.3450 C   0  0  0  0  0  0  0  0  0  0  0  0
  -27.5230  -27.7830   20.3420 C   0  0  0  0  0  0  0  0  0  0  0  0
  -23.4610  -30.6000   21.6310 C   0  0  0  0  0  3  0  0  0  0  0  0
  -25.0470  -29.1390   20.2750 C   0  0  0  0  0  0  0  0  0  0  0  0
  -25.9710  -31.0800   21.5570 C   0  0  0  0  0  2  0  0  0  0  0  0
  -26.1460  -29.7180   20.9200 C   0  0  0  0  0  0  0  0  0  0  0  0
  -27.3790  -29.0430   20.9590 C   0  0  0  0  0  3  0  0  0  0  0  0
  -26.3960  -27.1900   19.7240 C   0  0  0  0  0  3  0  0  0  0  0  0
  -25.1620  -27.8670   19.6870 C   0  0  0  0  0  3  0  0  0  0  0  0
  -23.7700  -29.9460   20.2590 C   0  0  0  0  0  2  0  0  0  0  0  0
  -24.6680  -31.2540   22.2380 N   0  0  0  0  0  0  0  0  0  0  0  0
  -23.4090  -32.2580   23.8320 O   0  0  0  0  0  0  0  0  0  0  0  0
  -22.8130  -29.5410   22.5490 C   0  0  0  0  0  0  0  0  0  0  0  0
  -21.5030  -29.3130   22.3650 N   0  0  0  0  0  0  0  0  0  0  0  0
  -23.4870  -28.9260   23.3800 O   0  0  0  0  0  0  0  0  0  0  0  0
  -21.0200  -29.8760   21.6780 H   0  0  0  0  0  0  0  0  0  0  0  0
  -18.1530  -28.0080   22.7080 C   0  0  0  0  0  0  0  0  0  0  0  0
  -20.6880  -28.3350   23.0840 C   0  0  0  0  0  3  0  0  0  0  0  0
  -20.8550  -26.9190   22.4840 C   0  0  0  0  0  2  0  0  0  0  0  0
  -19.8020  -26.5850   21.4230 C   0  0  0  0  0  2  0  0  0  0  0  0
  -18.3930  -26.6770   22.0170 C   0  0  0  0  0  2  0  0  0  0  0  0
  -19.2310  -28.7950   23.1950 C   0  0  0  0  0  0  0  0  0  0  0  0
  -18.9530  -30.0400   23.7980 C   0  0  0  0  0  3  0  0  0  0  0  0
  -17.6290  -30.5010   23.9190 C   0  0  0  0  0  3  0  0  0  0  0  0
  -16.5650  -29.7130   23.4480 C   0  0  0  0  0  3  0  0  0  0  0  0
  -16.8270  -28.4680   22.8490 C   0  0  0  0  0  3  0  0  0  0  0  0
  -25.7520  -32.7140   24.0330 C   0  0  0  0  0  3  0  0  0  0  0  0
  -25.4070  -34.1230   24.2660 N   0  0  0  0  0  0  0  0  0  0  0  0
  -25.7890  -35.1390   23.4810 C   0  0  0  0  0  0  0  0  0  0  0  0
  -26.5400  -34.9920   22.5130 O   0  0  0  0  0  0  0  0  0  0  0  0
  -24.7490  -34.3120   25.0080 H   0  0  0  0  0  0  0  0  0  0  0  0
  -24.0710  -36.8810   22.9030 C   0  0  0  0  0  1  0  0  0  0  0  0
  -25.2520  -36.5410   23.8250 C   0  0  0  0  0  3  0  0  0  0  0  0
  -27.3100  -37.4970   24.7630 C   0  0  0  0  0  1  0  0  0  0  0  0
  -26.2770  -37.6020   23.7350 N   0  0  0  0  0  0  0  0  0  0  0  0
  -25.8480  -38.5220   23.8120 H   0  0  0  0  0  0  0  0  0  0  0  0
  -26.1800  -32.0110   25.3800 C   0  0  1  0  0  0  0  0  0  0  0  0
  -25.0110  -31.7830   26.3660 C   0  0  0  0  0  1  0  0  0  0  0  0
  -26.8270  -30.6360   25.0900 C   0  0  0  0  0  1  0  0  0  0  0  0
  -27.2490  -32.8650   26.1020 C   0  0  0  0  0  1  0  0  0  0  0  0
  -29.9810  -20.0260   21.2630 C   0  0  0  0  0  2  0  0  0  0  0  0
  -29.9060  -18.5710   21.5210 N   0  0  0  0  0  4  0  0  0  0  0  0
  -29.3830  -18.1580   20.7660 H   0  0  0  0  0  0  0  0  0  0  0  0
  -29.3970  -18.3980   22.3750 H   0  0  0  0  0  0  0  0  0  0  0  0
  -32.0420  -18.3370   22.7880 C   0  0  0  0  0  1  0  0  0  0  0  0
  -31.2260  -17.8950   21.5600 C   0  0  0  0  0  3  0  0  0  0  0  0
  -31.0750  -16.3570   21.5270 C   0  0  0  0  0  2  0  0  0  0  0  0
  -30.1220  -16.6230   19.0790 C   0  0  0  0  0  1  0  0  0  0  0  0
  -30.2980  -15.7270   20.3290 C   0  0  0  0  0  3  0  0  0  0  0  0
  -30.9620  -14.4130   19.8610 C   0  0  0  0  0  0  0  0  0  0  0  0
  -30.5640  -12.1800   18.9170 C   0  0  0  0  0  2  0  0  0  0  0  0
  -29.5790  -12.3370   17.7380 C   0  0  0  0  0  2  0  0  0  0  0  0
  -28.1170  -12.2950   18.2290 C   0  0  0  0  0  2  0  0  0  0  0  0
  -27.8670  -13.2390   19.4350 C   0  0  0  0  0  3  0  0  0  0  0  0
  -28.9540  -13.0350   20.5130 C   0  0  0  0  0  2  0  0  0  0  0  0
  -30.2660  -13.2460   19.8810 N   0  0  0  0  0  0  0  0  0  0  0  0
  -32.0710  -14.5120   19.3260 O   0  0  0  0  0  0  0  0  0  0  0  0
  -25.5630  -14.0120   20.2830 C   0  0  0  0  0  0  0  0  0  0  0  0
  -24.4610  -13.3150   20.6990 C   0  0  0  0  0  0  0  0  0  0  0  0
  -24.8160  -11.9320   20.6180 C   0  0  0  0  0  0  0  0  0  0  0  0
  -26.5240  -13.0610   19.9810 N   0  0  0  0  0  0  0  0  0  0  0  0
  -26.0810  -11.8030   20.2360 N   0  0  0  0  0  0  0  0  0  0  0  0
  -24.0110  -10.7230   20.8280 C   0  0  0  0  0  0  0  0  0  0  0  0
  -24.4050   -9.7230   21.7460 C   0  0  0  0  0  3  0  0  0  0  0  0
  -23.6070   -8.5770   21.9420 C   0  0  0  0  0  3  0  0  0  0  0  0
  -22.3990   -8.4220   21.2210 C   0  0  0  0  0  0  0  0  0  0  0  0
  -22.0220   -9.4090   20.2930 C   0  0  0  0  0  3  0  0  0  0  0  0
  -22.8210  -10.5480   20.0950 C   0  0  0  0  0  3  0  0  0  0  0  0
  -21.5710   -7.3300   21.3280 O   0  0  0  0  0  0  0  0  0  0  0  0
  -21.4830   -6.6060   22.4890 C   0  0  0  0  0  0  0  0  0  0  0  0
  -21.1110   -7.2020   23.7130 C   0  0  0  0  0  3  0  0  0  0  0  0
  -20.9650   -6.4080   24.8670 C   0  0  0  0  0  3  0  0  0  0  0  0
  -21.1800   -5.0180   24.7990 C   0  0  0  0  0  0  0  0  0  0  0  0
  -21.5450   -4.4220   23.5780 C   0  0  0  0  0  3  0  0  0  0  0  0
  -21.6930   -5.2130   22.4270 C   0  0  0  0  0  0  0  0  0  0  0  0
  -22.0250   -4.6310   21.2490 F   0  0  0  0  0  0  0  0  0  0  0  0
  -21.0320   -4.2520   25.9050 F   0  0  0  0  0  0  0  0  0  0  0  0
  -23.1210  -13.8860   21.0600 C   0  0  0  0  0  0  0  0  0  0  0  0
  -22.3980  -13.2330   21.9620 N   0  0  0  0  0  0  0  0  0  0  0  0
  -22.7300  -14.9490   20.5800 O   0  0  0  0  0  0  0  0  0  0  0  0
  -22.7260  -12.3690   22.3700 H   0  0  0  0  0  0  0  0  0  0  0  0
  -21.5020  -13.6020   22.2490 H   0  0  0  0  0  0  0  0  0  0  0  0
  -25.8240  -15.3700   20.1180 N   0  0  0  0  0  0  0  0  0  0  0  0
  -25.1170  -16.0800   20.2680 H   0  0  0  0  0  0  0  0  0  0  0  0
  -26.6770  -15.7390   19.7180 H   0  0  0  0  0  0  0  0  0  0  0  0
  2  5  2  0
  2  6  1  0
  3  1  1  0
  3 10  1  0
  4  9  1  0
  4  1  2  0
  5  4  1  0
  6  3  2  0
  7  8  1  0
  7  5  1  0
  8  9  1  0
  9 55  1  0
 10 11  1  0
 12 10  2  0
 13  6  1  0
 13 14  1  0
 15 26  2  0
 16 14  1  0
 16 21  1  0
 17 25  1  0
 17 27  1  0
 18 20  1  0
 19 25  1  0
 20 21  2  0
 20 19  1  0
 22 16  2  0
 23 22  1  0
 23 18  2  0
 24 18  1  0
 24 17  1  0
 25 15  1  0
 27 29  2  0
 28 27  1  0
 30 28  1  0
 31 40  2  0
 31 36  1  0
 32 28  1  0
 32 36  1  0
 33 32  1  0
 34 35  1  0
 34 33  1  0
 35 31  1  0
 36 37  2  0
 37 38  1  0
 39 38  2  0
 40 39  1  0
 41 15  1  0
 41 42  1  0
 41 51  1  0
 42 45  1  0
 43 47  1  0
 43 42  1  0
 44 43  2  0
 47 46  1  0
 49 50  1  0
 49 47  1  0
 49 48  1  0
 51 54  1  1
 51 52  1  0
 53 51  1  0
 55 56  1  0
 56 60  1  0
 56 58  1  0
 57 56  1  0
 60 59  1  0
 61 60  1  0
 63 62  1  0
 63 61  1  0
 64 70  1  0
 64 63  1  0
 65 70  1  0
 66 67  1  0
 66 65  1  0
 68 67  1  0
 68 75  1  0
 68 69  1  0
 70 69  1  0
 71 64  2  0
 72 73  2  0
 73 92  1  0
 74 73  1  0
 74 77  1  0
 75 76  1  0
 75 72  1  0
 76 74  2  0
 77 78  1  0
 78 79  2  0
 80 83  1  0
 80 79  1  0
 81 80  2  0
 82 81  1  0
 82 77  2  0
 83 84  1  0
 84 85  1  0
 85 86  2  0
 87 86  1  0
 87 91  1  0
 88 87  2  0
 89 84  2  0
 89 88  1  0
 90 89  1  0
 92 93  1  0
 93 96  1  0
 93 95  1  0
 94 92  2  0
 97 98  1  0
 97 72  1  0
 99 97  1  0
M  ISO  4  13 101  14 101  63 100  64 100
M  END
>  <TORSDO>  (12) 
F 23

>  <SCORE>  (12) 
-11.912

>  <name>  (12) 
12

>  <ligand_id>  (12) 
12

>  <original_smiles>  (12) 
[H]c1c([H])c([H])c2c(c1[H])C([H])([H])C([H])([H])C([H])([H])C2([H])N([H])C(=O)C1([H])N(C(=O)C([H])(N([H])C(=O)C([H])(N([H])C([H])([H])[H])C([H])([H])[H])C(C([H])([H])[H])(C([H])([H])[H])C([H])([H])[H])C([H])([H])c2c([H])c(OC([H])([H])c3c([H])c4c(c([H])c3C(=O)C([H])([H])[H])C([H])(C([H])([H])[N+]([H])([H])C([H])(C([H])([H])[H])C([H])([H])C([H])(C(=O)N3C([H])([H])C([H])([H])C([H])([H])C([H])(n5nc(-c6c([H])c([H])c(Oc7c([H])c([H])c(F)c([H])c7F)c([H])c6[H])c(C(=O)N([H])[H])c5N([H])[H])C3([H])[H])C([H])([H])[H])C([H])([H])C4([H])[H])c([H])c([H])c2C1([H])[H]

>  <smiles>  (12) 
[H]c1c([H])c([H])c2c(c1[H])C([H])([H])C([H])([H])C([H])([H])C2([H])N([H])C(=O)C1([H])N(C(=O)C([H])(N([H])C(=O)C([H])(N([H])C([H])([H])[H])C([H])([H])[H])C(C([H])([H])[H])(C([H])([H])[H])C([H])([H])[H])C([H])([H])c2c([H])c(OC([H])([H])c3c([H])c4c(c([H])c3C(=O)C([H])([H])[H])C([H])(C([H])([H])[N+]([H])([H])C([H])(C([H])([H])[H])C([H])([H])C([H])(C(=O)N3C([H])([H])C([H])([H])C([H])([H])C([H])(n5nc(-c6c([H])c([H])c(Oc7c([H])c([H])c(F)c([H])c7F)c([H])c6[H])c(C(=O)N([H])[H])c5N([H])[H])C3([H])[H])C([H])([H])[H])C([H])([H])C4([H])[H])c([H])c([H])c2C1([H])[H]

$$$$
13:0:0
     RDKit          3D

100109  0  0  1  0  0  0  0  0999 V2000
  -30.0670  -19.8740   21.1160 C   0  0  0  0  0  3  0  0  0  0  0  0
  -28.4430  -18.8490   19.5840 C   0  0  0  0  0  3  0  0  0  0  0  0
  -29.2600  -21.0230   21.1090 C   0  0  0  0  0  0  0  0  0  0  0  0
  -28.0770  -21.0900   20.3940 C   0  0  0  0  0  0  0  0  0  0  0  0
  -29.6410  -18.7700   20.3420 C   0  0  0  0  0  0  0  0  0  0  0  0
  -27.6310  -20.0070   19.6090 C   0  0  0  0  0  0  0  0  0  0  0  0
  -29.5250  -22.3240   21.7630 C   0  0  0  0  0  0  0  0  0  0  0  0
  -27.4840  -22.4680   20.5870 C   0  0  0  0  0  2  0  0  0  0  0  0
  -28.5110  -23.1400   21.4050 N   0  0  0  0  0  0  0  0  0  0  0  0
  -30.5230  -22.5970   22.4380 O   0  0  0  0  0  0  0  0  0  0  0  0
  -30.4560  -17.4910   20.3040 C   0  0  0  0  0  2  0  0  0  0  0  0
  -31.5700  -17.1460   22.6100 C   0  0  0  0  0  1  0  0  0  0  0  0
  -30.4330  -16.7390   21.6550 C   0  0  0  0  0  3  0  0  0  0  0  0
  -30.8950  -14.5110   20.5200 C   0  0  0  0  0  0  0  0  0  0  0  0
  -30.7470  -12.2910   19.4480 C   0  0  0  0  0  2  0  0  0  0  0  0
  -29.7750  -12.3240   18.2520 C   0  0  0  0  0  2  0  0  0  0  0  0
  -28.3220  -12.1000   18.7100 C   0  0  0  0  0  2  0  0  0  0  0  0
  -27.9290  -13.0100   19.9030 C   0  0  0  0  0  3  0  0  0  0  0  0
  -28.9990  -12.9270   21.0130 C   0  0  0  0  0  2  0  0  0  0  0  0
  -30.3080  -13.2910   20.4300 N   0  0  0  0  0  0  0  0  0  0  0  0
  -31.8420  -14.8700   19.8130 O   0  0  0  0  0  0  0  0  0  0  0  0
  -30.3460  -15.2930   21.4600 N   0  0  0  0  0  0  0  0  0  0  0  0
  -29.6450  -14.8300   22.0210 H   0  0  0  0  0  0  0  0  0  0  0  0
  -25.5390  -13.5220   20.7180 C   0  0  0  0  0  0  0  0  0  0  0  0
  -24.5070  -12.7040   21.0940 C   0  0  0  0  0  0  0  0  0  0  0  0
  -25.0000  -11.3700   20.9840 C   0  0  0  0  0  0  0  0  0  0  0  0
  -26.5980  -12.6820   20.4120 N   0  0  0  0  0  0  0  0  0  0  0  0
  -26.2770  -11.3790   20.6230 N   0  0  0  0  0  0  0  0  0  0  0  0
  -24.3160  -10.0810   21.1450 C   0  0  0  0  0  0  0  0  0  0  0  0
  -24.7640   -9.1180   22.0780 C   0  0  0  0  0  3  0  0  0  0  0  0
  -24.0790   -7.8920   22.2270 C   0  0  0  0  0  3  0  0  0  0  0  0
  -22.9340   -7.6180   21.4420 C   0  0  0  0  0  0  0  0  0  0  0  0
  -22.5060   -8.5700   20.5000 C   0  0  0  0  0  3  0  0  0  0  0  0
  -23.1920   -9.7880   20.3490 C   0  0  0  0  0  3  0  0  0  0  0  0
  -22.2210   -6.4450   21.4980 O   0  0  0  0  0  0  0  0  0  0  0  0
  -22.1210   -5.7200   22.6590 C   0  0  0  0  0  0  0  0  0  0  0  0
  -21.6020   -6.2830   23.8440 C   0  0  0  0  0  3  0  0  0  0  0  0
  -21.4490   -5.4840   24.9950 C   0  0  0  0  0  3  0  0  0  0  0  0
  -21.8080   -4.1220   24.9600 C   0  0  0  0  0  0  0  0  0  0  0  0
  -22.3210   -3.5590   23.7790 C   0  0  0  0  0  3  0  0  0  0  0  0
  -22.4730   -4.3560   22.6300 C   0  0  0  0  0  0  0  0  0  0  0  0
  -22.9490   -3.8040   21.4880 F   0  0  0  0  0  0  0  0  0  0  0  0
  -21.6540   -3.3520   26.0620 F   0  0  0  0  0  0  0  0  0  0  0  0
  -23.1090  -13.1290   21.4440 C   0  0  0  0  0  0  0  0  0  0  0  0
  -22.4440  -12.3830   22.3200 N   0  0  0  0  0  0  0  0  0  0  0  0
  -22.6150  -14.1530   20.9760 O   0  0  0  0  0  0  0  0  0  0  0  0
  -22.8560  -11.5510   22.7160 H   0  0  0  0  0  0  0  0  0  0  0  0
  -21.5100  -12.6490   22.5970 H   0  0  0  0  0  0  0  0  0  0  0  0
  -25.6570  -14.9020   20.5870 N   0  0  0  0  0  0  0  0  0  0  0  0
  -24.8650  -15.5220   20.7180 H   0  0  0  0  0  0  0  0  0  0  0  0
  -26.4630  -15.3670   20.1890 H   0  0  0  0  0  0  0  0  0  0  0  0
  -26.3520  -20.0870   18.7870 C   0  0  0  0  0  2  0  0  0  0  0  0
  -25.1170  -19.4870   19.4890 C   0  0  0  0  0  2  0  0  0  0  0  0
  -24.9050  -17.9900   19.2020 C   0  0  0  0  0  2  0  0  0  0  0  0
  -23.4490  -15.9330   19.5360 C   0  0  0  0  0  1  0  0  0  0  0  0
  -23.6060  -17.4360   19.7980 C   0  0  0  0  0  2  0  0  0  0  0  0
  -28.4810  -24.5850   21.6140 C   0  0  0  0  0  2  0  0  0  0  0  0
  -28.4980  -25.3290   20.2620 C   0  0  0  0  0  2  0  0  0  0  0  0
  -29.3870  -26.5830   20.2650 C   0  0  0  0  0  2  0  0  0  0  0  0
  -29.0340  -27.4320   19.1750 O   0  0  0  0  0  0  0  0  0  0  0  0
  -25.1460  -31.4430   23.5640 C   0  0  0  0  0  0  0  0  0  0  0  0
  -27.8840  -28.1460   19.3770 C   0  0  0  0  0  0  0  0  0  0  0  0
  -23.9890  -30.6180   21.5370 C   0  0  0  0  0  3  0  0  0  0  0  0
  -25.4860  -29.5730   19.7590 C   0  0  0  0  0  0  0  0  0  0  0  0
  -26.5140  -31.0080   21.5330 C   0  0  0  0  0  2  0  0  0  0  0  0
  -26.6210  -29.8910   20.5170 C   0  0  0  0  0  0  0  0  0  0  0  0
  -27.8230  -29.1810   20.3330 C   0  0  0  0  0  3  0  0  0  0  0  0
  -26.7450  -27.8390   18.6070 C   0  0  0  0  0  3  0  0  0  0  0  0
  -25.5410  -28.5410   18.8030 C   0  0  0  0  0  3  0  0  0  0  0  0
  -24.2400  -30.3850   20.0230 C   0  0  0  0  0  2  0  0  0  0  0  0
  -25.2330  -31.0180   22.2720 N   0  0  0  0  0  0  0  0  0  0  0  0
  -24.0490  -31.5460   24.1320 O   0  0  0  0  0  0  0  0  0  0  0  0
  -23.3110  -29.3610   22.1240 C   0  0  0  0  0  0  0  0  0  0  0  0
  -21.9860  -29.2540   21.9320 N   0  0  0  0  0  0  0  0  0  0  0  0
  -23.9720  -28.4980   22.7080 O   0  0  0  0  0  0  0  0  0  0  0  0
  -21.5190  -30.0070   21.4470 H   0  0  0  0  0  0  0  0  0  0  0  0
  -18.5900  -28.0230   21.9580 C   0  0  0  0  0  0  0  0  0  0  0  0
  -21.1410  -28.1410   22.3620 C   0  0  0  0  0  3  0  0  0  0  0  0
  -21.2500  -26.9490   21.3840 C   0  0  0  0  0  2  0  0  0  0  0  0
  -20.1780  -26.9680   20.2910 C   0  0  0  0  0  2  0  0  0  0  0  0
  -18.7780  -26.9370   20.9110 C   0  0  0  0  0  2  0  0  0  0  0  0
  -19.7030  -28.5990   22.6270 C   0  0  0  0  0  0  0  0  0  0  0  0
  -19.4770  -29.6290   23.5650 C   0  0  0  0  0  3  0  0  0  0  0  0
  -18.1740  -30.0810   23.8410 C   0  0  0  0  0  3  0  0  0  0  0  0
  -17.0740  -29.4960   23.1880 C   0  0  0  0  0  3  0  0  0  0  0  0
  -17.2840  -28.4670   22.2510 C   0  0  0  0  0  3  0  0  0  0  0  0
  -26.4160  -31.8410   24.3820 C   0  0  0  0  0  3  0  0  0  0  0  0
  -26.8290  -30.7590   25.4550 C   0  0  1  0  0  0  0  0  0  0  0  0
  -25.6730  -30.3460   26.3970 C   0  0  0  0  0  1  0  0  0  0  0  0
  -27.3550  -29.4800   24.7640 C   0  0  0  0  0  1  0  0  0  0  0  0
  -27.9890  -31.2980   26.3260 C   0  0  0  0  0  1  0  0  0  0  0  0
  -26.1410  -33.1330   25.0230 N   0  0  0  0  0  0  0  0  0  0  0  0
  -26.5610  -34.3160   24.5540 C   0  0  0  0  0  0  0  0  0  0  0  0
  -27.2920  -34.4240   23.5670 O   0  0  0  0  0  0  0  0  0  0  0  0
  -25.4990  -33.1240   25.8030 H   0  0  0  0  0  0  0  0  0  0  0  0
  -24.9190  -36.2210   24.5550 C   0  0  0  0  0  1  0  0  0  0  0  0
  -26.0980  -35.5810   25.3040 C   0  0  0  0  0  3  0  0  0  0  0  0
  -28.2120  -36.1460   26.4160 C   0  0  0  0  0  1  0  0  0  0  0  0
  -27.1710  -36.5820   25.4890 N   0  0  0  0  0  0  0  0  0  0  0  0
  -26.7900  -37.4600   25.8300 H   0  0  0  0  0  0  0  0  0  0  0  0
  2  6  2  0
  2  5  1  0
  3  1  1  0
  3  7  1  0
  4  8  1  0
  4  3  2  0
  5  1  2  0
  6  4  1  0
  7 10  2  0
  8  9  1  0
  9 57  1  0
  9  7  1  0
 11  5  1  0
 11 13  1  0
 13 12  1  0
 14 22  1  0
 15 20  1  0
 16 17  1  0
 16 15  1  0
 18 17  1  0
 18 27  1  0
 18 19  1  0
 20 14  1  0
 20 19  1  0
 21 14  2  0
 22 13  1  0
 22 23  1  0
 24 25  2  0
 25 44  1  0
 26 25  1  0
 26 29  1  0
 27 28  1  0
 27 24  1  0
 28 26  2  0
 29 30  1  0
 30 31  2  0
 32 35  1  0
 32 31  1  0
 33 32  2  0
 34 33  1  0
 34 29  2  0
 35 36  1  0
 36 37  1  0
 37 38  2  0
 39 38  1  0
 39 43  1  0
 40 39  2  0
 41 36  2  0
 41 40  1  0
 42 41  1  0
 44 45  1  0
 45 48  1  0
 45 47  1  0
 46 44  2  0
 49 24  1  0
 49 50  1  0
 51 49  1  0
 52 53  1  0
 52  6  1  0
 54 53  1  0
 54 56  1  0
 55 56  1  0
 58 59  1  0
 58 57  1  0
 60 62  1  0
 60 59  1  0
 61 72  2  0
 62 67  1  0
 63 73  1  0
 63 71  1  0
 64 70  1  0
 64 66  1  0
 65 71  1  0
 66 65  1  0
 67 66  2  0
 68 69  1  0
 68 62  2  0
 69 64  2  0
 70 63  1  0
 71 61  1  0
 73 75  2  0
 74 73  1  0
 76 74  1  0
 77 86  2  0
 77 82  1  0
 78 74  1  0
 78 82  1  0
 79 78  1  0
 80 81  1  0
 80 79  1  0
 81 77  1  0
 82 83  2  0
 83 84  1  0
 85 84  2  0
 86 85  1  0
 87 61  1  0
 87 92  1  0
 87 88  1  0
 88 91  1  1
 88 89  1  0
 90 88  1  0
 92 95  1  0
 93 92  1  0
 93 97  1  0
 94 93  2  0
 97 96  1  0
 97 99  1  0
 99100  1  0
 99 98  1  0
M  ISO  4  14 100  22 100  59 101  60 101
M  END
>  <TORSDO>  (13) 
F 25

>  <SCORE>  (13) 
-4.155

>  <name>  (13) 
13

>  <ligand_id>  (13) 
13

>  <original_smiles>  (13) 
[H]c1c([H])c([H])c2c(c1[H])C([H])([H])C([H])([H])C([H])([H])C2([H])N([H])C(=O)C1([H])N(C(=O)C([H])(N([H])C(=O)C([H])(N([H])C([H])([H])[H])C([H])([H])[H])C(C([H])([H])[H])(C([H])([H])[H])C([H])([H])[H])C([H])([H])c2c([H])c(OC([H])([H])C([H])([H])C([H])([H])N3C(=O)c4c([H])c(C([H])([H])C([H])(N([H])C(=O)N5C([H])([H])C([H])([H])C([H])([H])C([H])(n6nc(-c7c([H])c([H])c(Oc8c([H])c([H])c(F)c([H])c8F)c([H])c7[H])c(C(=O)N([H])[H])c6N([H])[H])C5([H])[H])C([H])([H])[H])c([H])c(C([H])([H])C([H])([H])C([H])([H])C([H])([H])C([H])([H])[H])c4C3([H])[H])c([H])c([H])c2C1([H])[H]

>  <smiles>  (13) 
[H]c1c([H])c([H])c2c(c1[H])C([H])([H])C([H])([H])C([H])([H])C2([H])N([H])C(=O)C1([H])N(C(=O)C([H])(N([H])C(=O)C([H])(N([H])C([H])([H])[H])C([H])([H])[H])C(C([H])([H])[H])(C([H])([H])[H])C([H])([H])[H])C([H])([H])c2c([H])c(OC([H])([H])C([H])([H])C([H])([H])N3C(=O)c4c([H])c(C([H])([H])C([H])(N([H])C(=O)N5C([H])([H])C([H])([H])C([H])([H])C([H])(n6nc(-c7c([H])c([H])c(Oc8c([H])c([H])c(F)c([H])c8F)c([H])c7[H])c(C(=O)N([H])[H])c6N([H])[H])C5([H])[H])C([H])([H])[H])c([H])c(C([H])([H])C([H])([H])C([H])([H])C([H])([H])C([H])([H])[H])c4C3([H])[H])c([H])c([H])c2C1([H])[H]

$$$$
14:0:0
     RDKit          3D

 98106  0  0  1  0  0  0  0  0999 V2000
  -27.5160  -22.2040   21.5810 N   0  0  0  0  0  4  0  0  0  0  0  0
  -27.4510  -21.3020   21.1400 H   0  0  0  0  0  0  0  0  0  0  0  0
  -26.6350  -22.3400   22.0550 H   0  0  0  0  0  0  0  0  0  0  0  0
  -26.3540  -23.0750   19.5980 C   0  0  0  0  0  0  0  0  0  0  0  0
  -26.2970  -24.0530   18.4150 C   0  0  0  0  0  2  0  0  0  0  0  0
  -28.8560  -23.3960   19.7270 C   0  0  0  0  0  2  0  0  0  0  0  0
  -28.7860  -24.5060   18.6310 C   0  0  0  0  0  2  0  0  0  0  0  0
  -27.5430  -23.2750   20.5590 C   0  0  0  0  0  3  0  0  0  0  0  0
  -27.3840  -25.1460   18.5820 C   0  0  0  0  0  3  0  0  0  0  0  0
  -25.4940  -22.1980   19.7350 O   0  0  0  0  0  0  0  0  0  0  0  0
  -27.2600  -26.2730   17.6900 O   0  0  0  0  0  0  0  0  0  0  0  0
  -25.6260  -30.4190   23.2360 C   0  0  0  0  0  0  0  0  0  0  0  0
  -26.4030  -27.2330   18.1960 C   0  0  0  0  0  0  0  0  0  0  0  0
  -23.8240  -30.0310   21.5960 C   0  0  0  0  0  3  0  0  0  0  0  0
  -24.5480  -29.0000   19.3850 C   0  0  0  0  0  0  0  0  0  0  0  0
  -26.2820  -29.9900   20.8740 C   0  0  0  0  0  2  0  0  0  0  0  0
  -25.8880  -29.0130   19.7890 C   0  0  0  0  0  0  0  0  0  0  0  0
  -26.8270  -28.1320   19.2010 C   0  0  0  0  0  3  0  0  0  0  0  0
  -25.0500  -27.2730   17.7780 C   0  0  0  0  0  3  0  0  0  0  0  0
  -24.1190  -28.1260   18.3800 C   0  0  0  0  0  3  0  0  0  0  0  0
  -23.6030  -29.9610   20.0650 C   0  0  0  0  0  2  0  0  0  0  0  0
  -25.2760  -30.1320   21.9530 N   0  0  0  0  0  0  0  0  0  0  0  0
  -24.7650  -30.6330   24.1010 O   0  0  0  0  0  0  0  0  0  0  0  0
  -23.1080  -28.8300   22.2570 C   0  0  0  0  0  0  0  0  0  0  0  0
  -21.7670  -28.8200   22.1850 N   0  0  0  0  0  0  0  0  0  0  0  0
  -23.7510  -27.9280   22.8020 O   0  0  0  0  0  0  0  0  0  0  0  0
  -21.3130  -29.5950   21.7210 H   0  0  0  0  0  0  0  0  0  0  0  0
  -18.3440  -27.6610   22.2600 C   0  0  0  0  0  0  0  0  0  0  0  0
  -20.8850  -27.7830   22.7210 C   0  0  0  0  0  3  0  0  0  0  0  0
  -20.9940  -26.4830   21.8950 C   0  0  0  0  0  2  0  0  0  0  0  0
  -19.9550  -26.3940   20.7750 C   0  0  0  0  0  2  0  0  0  0  0  0
  -18.5370  -26.4550   21.3580 C   0  0  0  0  0  2  0  0  0  0  0  0
  -19.4490  -28.2950   22.8890 C   0  0  0  0  0  0  0  0  0  0  0  0
  -19.2200  -29.4330   23.6920 C   0  0  0  0  0  3  0  0  0  0  0  0
  -17.9200  -29.9420   23.8670 C   0  0  0  0  0  3  0  0  0  0  0  0
  -16.8280  -29.3020   23.2570 C   0  0  0  0  0  3  0  0  0  0  0  0
  -17.0410  -28.1610   22.4600 C   0  0  0  0  0  3  0  0  0  0  0  0
  -27.1210  -30.5150   23.6700 C   0  0  0  0  0  3  0  0  0  0  0  0
  -27.2030  -31.5170   24.7400 N   0  0  0  0  0  0  0  0  0  0  0  0
  -27.7480  -32.7340   24.5990 C   0  0  0  0  0  0  0  0  0  0  0  0
  -28.3040  -33.1040   23.5630 O   0  0  0  0  0  0  0  0  0  0  0  0
  -26.7170  -31.3070   25.5980 H   0  0  0  0  0  0  0  0  0  0  0  0
  -26.5990  -34.7700   25.5280 C   0  0  0  0  0  1  0  0  0  0  0  0
  -27.6600  -33.6930   25.8020 C   0  0  0  0  0  3  0  0  0  0  0  0
  -29.9360  -33.4060   26.6750 C   0  0  0  0  0  1  0  0  0  0  0  0
  -28.9490  -34.3370   26.1360 N   0  0  0  0  0  0  0  0  0  0  0  0
  -28.8140  -35.0860   26.8090 H   0  0  0  0  0  0  0  0  0  0  0  0
  -27.7190  -29.1350   24.1490 C   0  0  1  0  0  0  0  0  0  0  0  0
  -26.8530  -28.4230   25.2130 C   0  0  0  0  0  1  0  0  0  0  0  0
  -27.8870  -28.1690   22.9530 C   0  0  0  0  0  1  0  0  0  0  0  0
  -29.1310  -29.3530   24.7390 C   0  0  0  0  0  1  0  0  0  0  0  0
  -28.5910  -22.2920   22.6030 C   0  0  0  0  0  2  0  0  0  0  0  0
  -30.0050  -22.1800   21.9920 C   0  0  0  0  0  2  0  0  0  0  0  0
  -30.5330  -20.7310   21.9610 C   0  0  0  0  0  2  0  0  0  0  0  0
  -31.0770  -20.3490   20.6380 N   0  0  0  0  0  4  0  0  0  0  0  0
  -30.6760  -20.9350   19.9250 H   0  0  0  0  0  0  0  0  0  0  0  0
  -32.0710  -20.5220   20.6360 H   0  0  0  0  0  0  0  0  0  0  0  0
  -30.8100  -18.9360   20.3040 C   0  0  0  0  0  2  0  0  0  0  0  0
  -31.8220  -18.2990   19.3340 C   0  0  0  0  0  2  0  0  0  0  0  0
  -31.5620  -16.7870   19.3050 C   0  0  0  0  0  2  0  0  0  0  0  0
  -32.9190  -14.8430   18.5570 C   0  0  0  0  0  0  0  0  0  0  0  0
  -32.4570  -12.4210   18.4100 C   0  0  0  0  0  2  0  0  0  0  0  0
  -31.3520  -12.1040   17.3830 C   0  0  0  0  0  2  0  0  0  0  0  0
  -29.9470  -12.2460   18.0030 C   0  0  0  0  0  2  0  0  0  0  0  0
  -29.7780  -13.5740   18.7870 C   0  0  0  0  0  3  0  0  0  0  0  0
  -30.9630  -13.7370   19.7620 C   0  0  0  0  0  2  0  0  0  0  0  0
  -32.2060  -13.7560   18.9700 N   0  0  0  0  0  0  0  0  0  0  0  0
  -33.8120  -14.7700   17.7130 O   0  0  0  0  0  0  0  0  0  0  0  0
  -32.7810  -15.9720   19.2750 N   0  0  0  0  0  0  0  0  0  0  0  0
  -33.6230  -16.5320   19.2410 H   0  0  0  0  0  0  0  0  0  0  0  0
  -27.8280  -14.7230   20.0210 C   0  0  0  0  0  0  0  0  0  0  0  0
  -26.6370  -14.2410   20.4920 C   0  0  0  0  0  0  0  0  0  0  0  0
  -26.6330  -12.8430   20.1940 C   0  0  0  0  0  0  0  0  0  0  0  0
  -28.4950  -13.6320   19.4800 N   0  0  0  0  0  0  0  0  0  0  0  0
  -27.7810  -12.4890   19.6310 N   0  0  0  0  0  0  0  0  0  0  0  0
  -25.5820  -11.8330   20.3670 C   0  0  0  0  0  0  0  0  0  0  0  0
  -25.8080  -10.6560   21.1150 C   0  0  0  0  0  3  0  0  0  0  0  0
  -24.7770   -9.7050   21.2840 C   0  0  0  0  0  3  0  0  0  0  0  0
  -23.5070   -9.9260   20.7020 C   0  0  0  0  0  0  0  0  0  0  0  0
  -23.2930  -11.0880   19.9400 C   0  0  0  0  0  3  0  0  0  0  0  0
  -24.3210  -12.0310   19.7720 C   0  0  0  0  0  3  0  0  0  0  0  0
  -22.4570   -9.0430   20.7850 O   0  0  0  0  0  0  0  0  0  0  0  0
  -22.2170   -8.3170   21.9230 C   0  0  0  0  0  0  0  0  0  0  0  0
  -22.0410   -8.9380   23.1780 C   0  0  0  0  0  3  0  0  0  0  0  0
  -21.7270   -8.1590   24.3100 C   0  0  0  0  0  3  0  0  0  0  0  0
  -21.5800   -6.7640   24.1870 C   0  0  0  0  0  0  0  0  0  0  0  0
  -21.7450   -6.1460   22.9350 C   0  0  0  0  0  3  0  0  0  0  0  0
  -22.0620   -6.9200   21.8060 C   0  0  0  0  0  0  0  0  0  0  0  0
  -22.2040   -6.3230   20.5990 F   0  0  0  0  0  0  0  0  0  0  0  0
  -21.2700   -6.0180   25.2730 F   0  0  0  0  0  0  0  0  0  0  0  0
  -25.5220  -15.0430   21.1000 C   0  0  0  0  0  0  0  0  0  0  0  0
  -24.7480  -14.4370   21.9920 N   0  0  0  0  0  0  0  0  0  0  0  0
  -25.3620  -16.2310   20.8200 O   0  0  0  0  0  0  0  0  0  0  0  0
  -24.8910  -13.4680   22.2360 H   0  0  0  0  0  0  0  0  0  0  0  0
  -24.0000  -14.9490   22.4360 H   0  0  0  0  0  0  0  0  0  0  0  0
  -28.3870  -15.9980   19.9890 N   0  0  0  0  0  0  0  0  0  0  0  0
  -27.8660  -16.8100   20.3060 H   0  0  0  0  0  0  0  0  0  0  0  0
  -29.2420  -16.2440   19.5070 H   0  0  0  0  0  0  0  0  0  0  0  0
  1  3  1  0
  1 52  1  0
  2  1  1  0
  4 10  2  0
  4  8  1  0
  5  9  1  0
  5  4  1  0
  6  8  1  0
  7  6  1  0
  8  1  1  0
  9 11  1  0
  9  7  1  0
 11 13  1  0
 12 23  2  0
 13 18  1  0
 14 22  1  0
 14 24  1  0
 15 17  1  0
 15 21  1  0
 16 22  1  0
 17 16  1  0
 18 17  2  0
 19 13  2  0
 19 20  1  0
 20 15  2  0
 21 14  1  0
 22 12  1  0
 24 26  2  0
 25 24  1  0
 27 25  1  0
 28 37  2  0
 28 33  1  0
 29 25  1  0
 29 33  1  0
 30 29  1  0
 31 32  1  0
 31 30  1  0
 32 28  1  0
 33 34  2  0
 34 35  1  0
 36 35  2  0
 37 36  1  0
 38 12  1  0
 38 48  1  0
 38 39  1  0
 39 42  1  0
 40 39  1  0
 40 44  1  0
 41 40  2  0
 44 43  1  0
 44 46  1  0
 46 45  1  0
 46 47  1  0
 48 51  1  1
 48 49  1  0
 50 48  1  0
 53 52  1  0
 54 53  1  0
 55 54  1  0
 56 55  1  0
 57 55  1  0
 58 55  1  0
 59 58  1  0
 60 59  1  0
 61 67  1  0
 61 69  1  0
 62 67  1  0
 63 64  1  0
 63 62  1  0
 65 64  1  0
 65 74  1  0
 65 66  1  0
 67 66  1  0
 68 61  2  0
 69 60  1  0
 70 69  1  0
 71 72  2  0
 72 91  1  0
 73 76  1  0
 73 72  1  0
 74 75  1  0
 74 71  1  0
 75 73  2  0
 76 77  1  0
 77 78  2  0
 79 82  1  0
 79 78  1  0
 80 79  2  0
 81 80  1  0
 81 76  2  0
 82 83  1  0
 83 84  1  0
 84 85  2  0
 86 85  1  0
 86 90  1  0
 87 86  2  0
 88 83  2  0
 88 87  1  0
 89 88  1  0
 91 92  1  0
 92 94  1  0
 92 95  1  0
 93 91  2  0
 96 71  1  0
 96 97  1  0
 98 96  1  0
M  ISO  4   9 101  11 101  61 100  69 100
M  END
>  <TORSDO>  (14) 
F 24

>  <SCORE>  (14) 
-7.501

>  <name>  (14) 
14

>  <ligand_id>  (14) 
14

>  <original_smiles>  (14) 
[H]c1c([H])c([H])c2c(c1[H])C([H])([H])C([H])([H])C([H])([H])C2([H])N([H])C(=O)C1([H])N(C(=O)C([H])(N([H])C(=O)C([H])(N([H])C([H])([H])[H])C([H])([H])[H])C(C([H])([H])[H])(C([H])([H])[H])C([H])([H])[H])C([H])([H])c2c([H])c(OC3([H])C([H])([H])C(=O)C([H])([N+]([H])([H])C([H])([H])C([H])([H])C([H])([H])[N+]([H])([H])C([H])([H])C([H])([H])C([H])([H])N([H])C(=O)N4C([H])([H])C([H])([H])C([H])([H])C([H])(n5nc(-c6c([H])c([H])c(Oc7c([H])c([H])c(F)c([H])c7F)c([H])c6[H])c(C(=O)N([H])[H])c5N([H])[H])C4([H])[H])C([H])([H])C3([H])[H])c([H])c([H])c2C1([H])[H]

>  <smiles>  (14) 
[H]c1c([H])c([H])c2c(c1[H])C([H])([H])C([H])([H])C([H])([H])C2([H])N([H])C(=O)C1([H])N(C(=O)C([H])(N([H])C(=O)C([H])(N([H])C([H])([H])[H])C([H])([H])[H])C(C([H])([H])[H])(C([H])([H])[H])C([H])([H])[H])C([H])([H])c2c([H])c(OC3([H])C([H])([H])C(=O)C([H])([N+]([H])([H])C([H])([H])C([H])([H])C([H])([H])[N+]([H])([H])C([H])([H])C([H])([H])C([H])([H])N([H])C(=O)N4C([H])([H])C([H])([H])C([H])([H])C([H])(n5nc(-c6c([H])c([H])c(Oc7c([H])c([H])c(F)c([H])c7F)c([H])c6[H])c(C(=O)N([H])[H])c5N([H])[H])C4([H])[H])C([H])([H])C3([H])[H])c([H])c([H])c2C1([H])[H]

$$$$
15:0:0
     RDKit          3D

 98106  0  0  1  0  0  0  0  0999 V2000
  -29.1430  -22.1170   22.4210 C   0  0  0  0  0  0  0  0  0  0  0  0
  -30.2240  -23.6060   24.1820 C   0  0  0  0  0  2  0  0  0  0  0  0
  -31.5150  -22.8090   23.9500 C   0  0  0  0  0  2  0  0  0  0  0  0
  -30.4680  -21.3030   22.3010 C   0  0  0  0  0  3  0  0  0  0  0  0
  -29.2160  -23.5740   22.9900 C   0  0  2  0  0  0  0  0  0  0  0  0
  -31.1850  -21.4160   23.5930 N   0  0  0  0  0  4  0  0  0  0  0  0
  -28.0540  -21.6490   22.0720 O   0  0  0  0  0  0  0  0  0  0  0  0
  -30.6340  -21.0070   24.3320 H   0  0  0  0  0  0  0  0  0  0  0  0
  -32.0470  -20.8980   23.5350 H   0  0  0  0  0  0  0  0  0  0  0  0
  -27.5690  -25.4970   23.7130 C   0  0  0  0  0  1  0  0  0  0  0  0
  -27.8130  -23.9880   23.5370 C   0  0  0  0  0  2  0  0  0  0  0  0
  -30.2450  -19.8020   21.9070 C   0  0  0  0  0  2  0  0  0  0  0  0
  -30.0880  -19.5770   20.3900 C   0  0  0  0  0  2  0  0  0  0  0  0
  -29.4410  -18.2420   19.9440 C   0  0  0  0  0  2  0  0  0  0  0  0
  -30.3300  -16.9750   19.8060 C   0  0  0  0  0  2  0  0  0  0  0  0
  -30.4910  -16.1120   21.0870 C   0  0  0  0  0  2  0  0  0  0  0  0
  -30.7690  -13.7330   20.2050 C   0  0  0  0  0  0  0  0  0  0  0  0
  -30.3850  -11.5790   19.0480 C   0  0  0  0  0  2  0  0  0  0  0  0
  -29.3740  -11.7950   17.9020 C   0  0  0  0  0  2  0  0  0  0  0  0
  -27.9190  -11.7030   18.4050 C   0  0  0  0  0  2  0  0  0  0  0  0
  -27.6740  -12.5410   19.6890 C   0  0  0  0  0  3  0  0  0  0  0  0
  -28.7820  -12.2700   20.7340 C   0  0  0  0  0  2  0  0  0  0  0  0
  -30.0830  -12.5600   20.1010 N   0  0  0  0  0  0  0  0  0  0  0  0
  -31.8410  -13.9440   19.6280 O   0  0  0  0  0  0  0  0  0  0  0  0
  -30.1340  -14.6940   20.8990 N   0  0  0  0  0  0  0  0  0  0  0  0
  -29.2700  -14.3980   21.3300 H   0  0  0  0  0  0  0  0  0  0  0  0
  -25.3290  -13.2210   20.5130 C   0  0  0  0  0  0  0  0  0  0  0  0
  -24.2610  -12.4820   20.9450 C   0  0  0  0  0  0  0  0  0  0  0  0
  -24.6850  -11.1180   20.9030 C   0  0  0  0  0  0  0  0  0  0  0  0
  -26.3370  -12.3100   20.2350 N   0  0  0  0  0  0  0  0  0  0  0  0
  -25.9530  -11.0390   20.5230 N   0  0  0  0  0  0  0  0  0  0  0  0
  -23.9380   -9.8770   21.1440 C   0  0  0  0  0  0  0  0  0  0  0  0
  -24.3920   -8.9120   22.0710 C   0  0  0  0  0  3  0  0  0  0  0  0
  -23.6480   -7.7330   22.2970 C   0  0  0  0  0  3  0  0  0  0  0  0
  -22.4380   -7.5130   21.5980 C   0  0  0  0  0  0  0  0  0  0  0  0
  -22.0060   -8.4650   20.6580 C   0  0  0  0  0  3  0  0  0  0  0  0
  -22.7480   -9.6350   20.4310 C   0  0  0  0  0  3  0  0  0  0  0  0
  -21.6580   -6.3890   21.7370 O   0  0  0  0  0  0  0  0  0  0  0  0
  -21.6290   -5.6740   22.9070 C   0  0  0  0  0  0  0  0  0  0  0  0
  -21.2210   -6.2530   24.1280 C   0  0  0  0  0  3  0  0  0  0  0  0
  -21.1480   -5.4620   25.2930 C   0  0  0  0  0  3  0  0  0  0  0  0
  -21.4680   -4.0920   25.2370 C   0  0  0  0  0  0  0  0  0  0  0  0
  -21.8660   -3.5130   24.0200 C   0  0  0  0  0  3  0  0  0  0  0  0
  -21.9450   -4.3010   22.8590 C   0  0  0  0  0  0  0  0  0  0  0  0
  -22.3130   -3.7340   21.6840 F   0  0  0  0  0  0  0  0  0  0  0  0
  -21.3860   -3.3290   26.3530 F   0  0  0  0  0  0  0  0  0  0  0  0
  -22.8910  -12.9960   21.2860 C   0  0  0  0  0  0  0  0  0  0  0  0
  -22.1970  -12.3320   22.2040 N   0  0  0  0  0  0  0  0  0  0  0  0
  -22.4480  -14.0230   20.7720 O   0  0  0  0  0  0  0  0  0  0  0  0
  -22.5710  -11.5030   22.6420 H   0  0  0  0  0  0  0  0  0  0  0  0
  -21.2810  -12.6590   22.4730 H   0  0  0  0  0  0  0  0  0  0  0  0
  -25.5220  -14.5860   20.3150 N   0  0  0  0  0  0  0  0  0  0  0  0
  -24.7830  -15.2620   20.4730 H   0  0  0  0  0  0  0  0  0  0  0  0
  -26.3630  -15.0050   19.9360 H   0  0  0  0  0  0  0  0  0  0  0  0
  -29.6980  -24.5820   21.8970 C   0  0  0  0  0  2  0  0  0  0  0  0
  -28.6220  -25.1310   20.9300 C   0  0  0  0  0  2  0  0  0  0  0  0
  -29.1420  -26.2760   20.0470 C   0  0  0  0  0  2  0  0  0  0  0  0
  -28.1380  -26.6060   19.1000 O   0  0  0  0  0  0  0  0  0  0  0  0
  -24.6500  -31.2550   23.3480 C   0  0  0  0  0  0  0  0  0  0  0  0
  -27.0650  -27.4040   19.4160 C   0  0  0  0  0  0  0  0  0  0  0  0
  -23.3790  -30.3160   21.4440 C   0  0  0  0  0  3  0  0  0  0  0  0
  -24.7560  -29.0090   19.7430 C   0  0  0  0  0  0  0  0  0  0  0  0
  -25.9240  -30.5380   21.3340 C   0  0  0  0  0  2  0  0  0  0  0  0
  -25.9340  -29.3200   20.4370 C   0  0  0  0  0  0  0  0  0  0  0  0
  -27.0900  -28.5200   20.2870 C   0  0  0  0  0  3  0  0  0  0  0  0
  -25.8700  -27.1060   18.7280 C   0  0  0  0  0  3  0  0  0  0  0  0
  -24.7150  -27.8930   18.8900 C   0  0  0  0  0  3  0  0  0  0  0  0
  -23.5710  -29.9220   19.9570 C   0  0  0  0  0  2  0  0  0  0  0  0
  -24.6690  -30.7030   22.1030 N   0  0  0  0  0  0  0  0  0  0  0  0
  -23.5800  -31.4850   23.9310 O   0  0  0  0  0  0  0  0  0  0  0  0
  -22.6450  -29.1650   22.1670 C   0  0  0  0  0  0  0  0  0  0  0  0
  -21.3100  -29.1280   22.0250 N   0  0  0  0  0  0  0  0  0  0  0  0
  -23.2700  -28.3170   22.8090 O   0  0  0  0  0  0  0  0  0  0  0  0
  -20.8700  -29.8620   21.4890 H   0  0  0  0  0  0  0  0  0  0  0  0
  -17.8400  -28.1890   22.3670 C   0  0  0  0  0  0  0  0  0  0  0  0
  -20.4140  -28.1150   22.5800 C   0  0  0  0  0  3  0  0  0  0  0  0
  -20.3550  -26.8660   21.6720 C   0  0  0  0  0  2  0  0  0  0  0  0
  -19.2050  -26.9130   20.6590 C   0  0  0  0  0  2  0  0  0  0  0  0
  -17.8580  -27.0340   21.3800 C   0  0  0  0  0  2  0  0  0  0  0  0
  -19.0420  -28.7060   22.9180 C   0  0  0  0  0  0  0  0  0  0  0  0
  -18.9720  -29.8020   23.8040 C   0  0  0  0  0  3  0  0  0  0  0  0
  -17.7330  -30.3780   24.1430 C   0  0  0  0  0  3  0  0  0  0  0  0
  -16.5450  -29.8490   23.6080 C   0  0  0  0  0  3  0  0  0  0  0  0
  -16.5990  -28.7570   22.7260 C   0  0  0  0  0  3  0  0  0  0  0  0
  -25.9670  -31.6480   24.0900 C   0  0  0  0  0  3  0  0  0  0  0  0
  -26.3520  -30.6450   25.2460 C   0  0  1  0  0  0  0  0  0  0  0  0
  -25.2020  -30.3720   26.2420 C   0  0  0  0  0  1  0  0  0  0  0  0
  -26.8040  -29.2850   24.6590 C   0  0  0  0  0  1  0  0  0  0  0  0
  -27.5540  -31.2020   26.0450 C   0  0  0  0  0  1  0  0  0  0  0  0
  -25.7890  -33.0070   24.6160 N   0  0  0  0  0  0  0  0  0  0  0  0
  -26.2770  -34.1130   24.0380 C   0  0  0  0  0  0  0  0  0  0  0  0
  -26.9970  -34.0860   23.0350 O   0  0  0  0  0  0  0  0  0  0  0  0
  -25.1680  -33.1110   25.4030 H   0  0  0  0  0  0  0  0  0  0  0  0
  -24.7760  -36.1240   23.8760 C   0  0  0  0  0  1  0  0  0  0  0  0
  -25.9100  -35.4650   24.6780 C   0  0  0  0  0  3  0  0  0  0  0  0
  -28.0610  -35.9730   25.7470 C   0  0  0  0  0  1  0  0  0  0  0  0
  -27.0530  -36.3990   24.7800 N   0  0  0  0  0  0  0  0  0  0  0  0
  -26.7350  -37.3290   25.0410 H   0  0  0  0  0  0  0  0  0  0  0  0
  1  5  1  0
  3  2  1  0
  4 12  1  0
  4  1  1  0
  4  6  1  0
  5 55  1  6
  5 11  1  0
  5  2  1  0
  6  3  1  0
  6  8  1  0
  7  1  2  0
  9  6  1  0
 11 10  1  0
 13 12  1  0
 14 13  1  0
 15 14  1  0
 15 16  1  0
 17 25  1  0
 18 23  1  0
 19 20  1  0
 19 18  1  0
 21 20  1  0
 21 30  1  0
 21 22  1  0
 23 17  1  0
 23 22  1  0
 24 17  2  0
 25 16  1  0
 25 26  1  0
 27 28  2  0
 28 47  1  0
 29 28  1  0
 29 32  1  0
 30 27  1  0
 30 31  1  0
 31 29  2  0
 32 33  1  0
 33 34  2  0
 35 38  1  0
 35 34  1  0
 36 35  2  0
 37 36  1  0
 37 32  2  0
 38 39  1  0
 39 40  1  0
 40 41  2  0
 42 41  1  0
 42 46  1  0
 43 42  2  0
 44 39  2  0
 44 43  1  0
 45 44  1  0
 47 48  1  0
 48 51  1  0
 48 50  1  0
 49 47  2  0
 52 53  1  0
 52 27  1  0
 54 52  1  0
 56 55  1  0
 57 56  1  0
 58 60  1  0
 58 57  1  0
 59 70  2  0
 60 65  1  0
 61 69  1  0
 61 71  1  0
 62 68  1  0
 62 64  1  0
 63 69  1  0
 64 63  1  0
 65 64  2  0
 66 67  1  0
 66 60  2  0
 67 62  2  0
 68 61  1  0
 69 59  1  0
 71 73  2  0
 72 71  1  0
 74 72  1  0
 75 84  2  0
 75 80  1  0
 76 72  1  0
 76 80  1  0
 77 76  1  0
 78 79  1  0
 78 77  1  0
 79 75  1  0
 80 81  2  0
 81 82  1  0
 83 82  2  0
 84 83  1  0
 85 59  1  0
 85 90  1  0
 85 86  1  0
 86 89  1  1
 86 87  1  0
 88 86  1  0
 90 93  1  0
 91 90  1  0
 91 95  1  0
 92 91  2  0
 95 94  1  0
 95 97  1  0
 97 98  1  0
 97 96  1  0
M  ISO  4  17 100  25 100  57 101  58 101
M  END
>  <TORSDO>  (15) 
F 25

>  <SCORE>  (15) 
-6.784

>  <name>  (15) 
15

>  <ligand_id>  (15) 
15

>  <original_smiles>  (15) 
[H]c1c([H])c([H])c2c(c1[H])C([H])([H])C([H])([H])C([H])([H])C2([H])N([H])C(=O)C1([H])N(C(=O)C([H])(N([H])C(=O)C([H])(N([H])C([H])([H])[H])C([H])([H])[H])C(C([H])([H])[H])(C([H])([H])[H])C([H])([H])[H])C([H])([H])c2c([H])c(OC([H])([H])C([H])([H])C([H])([H])C3(C([H])([H])C([H])([H])[H])C(=O)C([H])(C([H])([H])C([H])([H])C([H])([H])C([H])([H])C([H])([H])N([H])C(=O)N4C([H])([H])C([H])([H])C([H])([H])C([H])(n5nc(-c6c([H])c([H])c(Oc7c([H])c([H])c(F)c([H])c7F)c([H])c6[H])c(C(=O)N([H])[H])c5N([H])[H])C4([H])[H])[N+]([H])([H])C([H])([H])C3([H])[H])c([H])c([H])c2C1([H])[H]

>  <smiles>  (15) 
[H]c1c([H])c([H])c2c(c1[H])C([H])([H])C([H])([H])C([H])([H])C2([H])N([H])C(=O)C1([H])N(C(=O)C([H])(N([H])C(=O)C([H])(N([H])C([H])([H])[H])C([H])([H])[H])C(C([H])([H])[H])(C([H])([H])[H])C([H])([H])[H])C([H])([H])c2c([H])c(OC([H])([H])C([H])([H])C([H])([H])C3(C([H])([H])C([H])([H])[H])C(=O)C([H])(C([H])([H])C([H])([H])C([H])([H])C([H])([H])C([H])([H])N([H])C(=O)N4C([H])([H])C([H])([H])C([H])([H])C([H])(n5nc(-c6c([H])c([H])c(Oc7c([H])c([H])c(F)c([H])c7F)c([H])c6[H])c(C(=O)N([H])[H])c5N([H])[H])C4([H])[H])[N+]([H])([H])C([H])([H])C3([H])[H])c([H])c([H])c2C1([H])[H]

$$$$
16:0:0
     RDKit          3D

 99108  0  0  1  0  0  0  0  0999 V2000
  -33.0910  -22.7770   18.5040 C   0  0  0  0  0  3  0  0  0  0  0  0
  -32.8330  -23.7690   19.4670 C   0  0  0  0  0  3  0  0  0  0  0  0
  -32.1340  -21.7770   18.2490 C   0  0  0  0  0  3  0  0  0  0  0  0
  -30.6580  -22.7550   19.9270 C   0  0  0  0  0  3  0  0  0  0  0  0
  -31.6040  -23.7760   20.1670 C   0  0  0  0  0  0  0  0  0  0  0  0
  -30.9240  -21.7540   18.9730 C   0  0  0  0  0  0  0  0  0  0  0  0
  -29.9970  -20.7390   18.7230 N   0  0  0  0  0  0  0  0  0  0  0  0
  -30.0790  -20.3470   17.7900 H   0  0  0  0  0  0  0  0  0  0  0  0
  -31.2330  -18.9500   19.9220 C   0  0  0  0  0  2  0  0  0  0  0  0
  -28.7340  -18.7490   19.3690 C   0  0  0  0  0  2  0  0  0  0  0  0
  -31.1090  -17.6910   20.7970 C   0  0  0  0  0  2  0  0  0  0  0  0
  -28.6810  -17.4910   20.2500 C   0  0  0  0  0  2  0  0  0  0  0  0
  -29.8890  -19.7040   19.7490 C   0  0  0  0  0  3  0  0  0  0  0  0
  -30.0350  -16.7720   20.1960 C   0  0  0  0  0  3  0  0  0  0  0  0
  -30.6990  -14.4110   20.3290 C   0  0  0  0  0  0  0  0  0  0  0  0
  -30.3690  -12.2500   19.2170 C   0  0  0  0  0  2  0  0  0  0  0  0
  -29.4220  -12.4860   18.0220 C   0  0  0  0  0  2  0  0  0  0  0  0
  -27.9480  -12.3770   18.4600 C   0  0  0  0  0  2  0  0  0  0  0  0
  -27.6360  -13.2150   19.7300 C   0  0  0  0  0  3  0  0  0  0  0  0
  -28.6970  -12.9650   20.8290 C   0  0  0  0  0  2  0  0  0  0  0  0
  -30.0270  -13.2340   20.2540 N   0  0  0  0  0  0  0  0  0  0  0  0
  -31.8040  -14.5970   19.8100 O   0  0  0  0  0  0  0  0  0  0  0  0
  -29.9700  -15.4370   20.7890 N   0  0  0  0  0  0  0  0  0  0  0  0
  -29.1090  -15.1870   21.2520 H   0  0  0  0  0  0  0  0  0  0  0  0
  -25.2510  -13.8560   20.4620 C   0  0  0  0  0  0  0  0  0  0  0  0
  -24.1770  -13.0990   20.8440 C   0  0  0  0  0  0  0  0  0  0  0  0
  -24.6200  -11.7410   20.8040 C   0  0  0  0  0  0  0  0  0  0  0  0
  -26.2830  -12.9620   20.2190 N   0  0  0  0  0  0  0  0  0  0  0  0
  -25.9050  -11.6840   20.4790 N   0  0  0  0  0  0  0  0  0  0  0  0
  -23.8810  -10.4870   20.9990 C   0  0  0  0  0  0  0  0  0  0  0  0
  -24.3020   -9.5220   21.9400 C   0  0  0  0  0  3  0  0  0  0  0  0
  -23.5650   -8.3320   22.1250 C   0  0  0  0  0  3  0  0  0  0  0  0
  -22.3920   -8.1000   21.3680 C   0  0  0  0  0  0  0  0  0  0  0  0
  -21.9900   -9.0530   20.4150 C   0  0  0  0  0  3  0  0  0  0  0  0
  -22.7280  -10.2350   20.2280 C   0  0  0  0  0  3  0  0  0  0  0  0
  -21.6270   -6.9630   21.4600 O   0  0  0  0  0  0  0  0  0  0  0  0
  -21.5590   -6.2320   22.6200 C   0  0  0  0  0  0  0  0  0  0  0  0
  -21.0910   -6.7950   23.8270 C   0  0  0  0  0  3  0  0  0  0  0  0
  -20.9720   -5.9920   24.9780 C   0  0  0  0  0  3  0  0  0  0  0  0
  -21.3110   -4.6260   24.9220 C   0  0  0  0  0  0  0  0  0  0  0  0
  -21.7690   -4.0620   23.7190 C   0  0  0  0  0  3  0  0  0  0  0  0
  -21.8910   -4.8640   22.5690 C   0  0  0  0  0  0  0  0  0  0  0  0
  -22.3130   -4.3110   21.4070 F   0  0  0  0  0  0  0  0  0  0  0  0
  -21.1890   -3.8510   26.0250 F   0  0  0  0  0  0  0  0  0  0  0  0
  -22.7910  -13.5920   21.1380 C   0  0  0  0  0  0  0  0  0  0  0  0
  -22.0630  -12.8990   22.0070 N   0  0  0  0  0  0  0  0  0  0  0  0
  -22.3590  -14.6270   20.6320 O   0  0  0  0  0  0  0  0  0  0  0  0
  -22.4250  -12.0620   22.4400 H   0  0  0  0  0  0  0  0  0  0  0  0
  -21.1320  -13.2110   22.2440 H   0  0  0  0  0  0  0  0  0  0  0  0
  -25.4320  -15.2240   20.2820 N   0  0  0  0  0  0  0  0  0  0  0  0
  -24.6750  -15.8900   20.3970 H   0  0  0  0  0  0  0  0  0  0  0  0
  -26.2770  -15.6470   19.9220 H   0  0  0  0  0  0  0  0  0  0  0  0
  -31.2730  -24.9180   21.1110 C   0  0  0  0  0  2  0  0  0  0  0  0
  -31.2690  -26.1680   20.3320 N   0  0  0  0  0  4  0  0  0  0  0  0
  -31.0870  -25.8940   19.3790 H   0  0  0  0  0  0  0  0  0  0  0  0
  -32.1960  -26.5650   20.3500 H   0  0  0  0  0  0  0  0  0  0  0  0
  -30.2730  -27.1990   20.6930 C   0  0  0  0  0  2  0  0  0  0  0  0
  -29.4000  -27.5360   19.4730 C   0  0  0  0  0  2  0  0  0  0  0  0
  -28.1540  -26.8380   19.5570 O   0  0  0  0  0  0  0  0  0  0  0  0
  -24.4160  -31.7520   23.2470 C   0  0  0  0  0  0  0  0  0  0  0  0
  -27.0120  -27.5800   19.7560 C   0  0  0  0  0  0  0  0  0  0  0  0
  -23.2090  -30.4730   21.5330 C   0  0  0  0  0  3  0  0  0  0  0  0
  -24.6120  -29.0410   19.9750 C   0  0  0  0  0  0  0  0  0  0  0  0
  -25.7150  -30.8820   21.2890 C   0  0  0  0  0  2  0  0  0  0  0  0
  -25.7820  -29.5410   20.5660 C   0  0  0  0  0  0  0  0  0  0  0  0
  -26.9790  -28.8040   20.4720 C   0  0  0  0  0  3  0  0  0  0  0  0
  -25.8160  -27.0800   19.2000 C   0  0  0  0  0  3  0  0  0  0  0  0
  -24.6150  -27.8040   19.3030 C   0  0  0  0  0  3  0  0  0  0  0  0
  -23.3720  -29.8890   20.1080 C   0  0  0  0  0  2  0  0  0  0  0  0
  -24.4810  -31.0470   22.0820 N   0  0  0  0  0  0  0  0  0  0  0  0
  -23.3110  -31.9800   23.7630 O   0  0  0  0  0  0  0  0  0  0  0  0
  -22.5950  -29.3900   22.4480 C   0  0  0  0  0  0  0  0  0  0  0  0
  -21.2740  -29.1880   22.3230 N   0  0  0  0  0  0  0  0  0  0  0  0
  -23.2990  -28.7480   23.2320 O   0  0  0  0  0  0  0  0  0  0  0  0
  -20.7670  -29.7640   21.6680 H   0  0  0  0  0  0  0  0  0  0  0  0
  -17.9470  -27.8610   22.7280 C   0  0  0  0  0  0  0  0  0  0  0  0
  -20.4860  -28.2040   23.0600 C   0  0  0  0  0  3  0  0  0  0  0  0
  -20.6560  -26.7940   22.4520 C   0  0  0  0  0  2  0  0  0  0  0  0
  -19.5890  -26.4580   21.4050 C   0  0  0  0  0  2  0  0  0  0  0  0
  -18.1890  -26.5370   22.0220 C   0  0  0  0  0  2  0  0  0  0  0  0
  -19.0280  -28.6500   23.2020 C   0  0  0  0  0  0  0  0  0  0  0  0
  -18.7520  -29.8900   23.8180 C   0  0  0  0  0  3  0  0  0  0  0  0
  -17.4260  -30.3400   23.9680 C   0  0  0  0  0  3  0  0  0  0  0  0
  -16.3600  -29.5450   23.5130 C   0  0  0  0  0  3  0  0  0  0  0  0
  -16.6210  -28.3080   22.8980 C   0  0  0  0  0  3  0  0  0  0  0  0
  -25.6630  -32.3250   23.9880 C   0  0  0  0  0  0  0  0  0  0  0  0
  -25.6190  -33.7620   24.2090 N   0  0  0  0  0  4  0  0  0  0  0  0
  -25.9970  -34.7690   23.4330 C   0  0  0  0  0  0  0  0  0  0  0  0
  -26.6140  -34.6240   22.3770 O   0  0  0  0  0  0  0  0  0  0  0  0
  -25.1050  -34.0340   25.0350 H   0  0  0  0  0  0  0  0  0  0  0  0
  -24.3100  -36.6330   23.1950 C   0  0  0  0  0  1  0  0  0  0  0  0
  -25.5730  -36.1660   23.9360 C   0  0  0  0  0  3  0  0  0  0  0  0
  -27.7380  -36.9530   24.7560 C   0  0  0  0  0  1  0  0  0  0  0  0
  -26.6350  -37.1830   23.8270 N   0  0  0  0  0  0  0  0  0  0  0  0
  -26.2620  -38.1130   24.0020 H   0  0  0  0  0  0  0  0  0  0  0  0
  -26.3770  -31.4390   25.0910 C   0  0  1  0  0  0  0  0  0  0  0  0
  -25.4140  -31.0540   26.2570 C   0  0  0  0  0  1  0  0  0  0  0  0
  -26.9300  -30.1140   24.5270 C   0  0  0  0  0  1  0  0  0  0  0  0
  -27.5710  -32.2050   25.7030 C   0  0  0  0  0  1  0  0  0  0  0  0
  1  2  1  0
  2  5  2  0
  3  1  2  0
  3  6  1  0
  4  5  1  0
  5 53  1  0
  6  4  2  0
  7  6  1  0
  8  7  1  0
  9 11  1  0
 10 13  1  0
 10 12  1  0
 13  7  1  0
 13  9  1  0
 14 12  1  0
 14 23  1  0
 14 11  1  0
 15 23  1  0
 16 21  1  0
 17 18  1  0
 17 16  1  0
 19 18  1  0
 19 28  1  0
 19 20  1  0
 21 15  1  0
 21 20  1  0
 22 15  2  0
 23 24  1  0
 25 26  2  0
 26 45  1  0
 27 26  1  0
 27 30  1  0
 28 25  1  0
 28 29  1  0
 29 27  2  0
 30 31  1  0
 31 32  2  0
 33 36  1  0
 33 32  1  0
 34 33  2  0
 35 34  1  0
 35 30  2  0
 36 37  1  0
 37 38  1  0
 38 39  2  0
 40 39  1  0
 40 44  1  0
 41 40  2  0
 42 37  2  0
 42 41  1  0
 43 42  1  0
 45 46  1  0
 46 49  1  0
 46 48  1  0
 47 45  2  0
 50 51  1  0
 50 25  1  0
 52 50  1  0
 54 56  1  0
 54 57  1  0
 54 53  1  0
 55 54  1  0
 58 59  1  0
 58 57  1  0
 59 61  1  0
 60 71  2  0
 60 86  1  0
 61 66  1  0
 62 70  1  0
 62 72  1  0
 63 69  1  0
 63 65  1  0
 64 70  1  0
 65 64  1  0
 66 65  2  0
 67 68  1  0
 67 61  2  0
 68 63  2  0
 69 62  1  0
 70 60  1  0
 72 74  2  0
 73 72  1  0
 75 73  1  0
 76 85  2  0
 76 81  1  0
 77 73  1  0
 77 81  1  0
 78 77  1  0
 79 80  1  0
 79 78  1  0
 80 76  1  0
 81 82  2  0
 82 83  1  0
 84 83  2  0
 85 84  1  0
 86 87  2  3
 86 96  1  0
 87 90  1  0
 88 92  1  0
 88 87  1  0
 89 88  2  0
 92 91  1  0
 94 92  1  0
 94 95  1  0
 94 93  1  0
 96 99  1  1
 96 97  1  0
 98 96  1  0
M  ISO  4  15 100  23 100  58 101  59 101
M  END
>  <TORSDO>  (16) 
F 22

>  <SCORE>  (16) 
-12.974

>  <name>  (16) 
16

>  <ligand_id>  (16) 
16

>  <original_smiles>  (16) 
[H]c1c([H])c([H])c2c(c1[H])C([H])([H])C([H])([H])C([H])([H])C2([H])N([H])C(=O)C1([H])N(C(=O)C([H])(N([H])C(=O)C([H])(N([H])C([H])([H])[H])C([H])([H])[H])C(C([H])([H])[H])(C([H])([H])[H])C([H])([H])[H])C([H])([H])c2c([H])c(OC([H])([H])C([H])([H])[N+]([H])([H])C([H])([H])c3c([H])c([H])c([H])c(N([H])C4([H])C([H])([H])C([H])([H])C([H])(N([H])C(=O)N5C([H])([H])C([H])([H])C([H])([H])C([H])(n6nc(-c7c([H])c([H])c(Oc8c([H])c([H])c(F)c([H])c8F)c([H])c7[H])c(C(=O)N([H])[H])c6N([H])[H])C5([H])[H])C([H])([H])C4([H])[H])c3[H])c([H])c([H])c2C1([H])[H]

>  <smiles>  (16) 
[H]c1c([H])c([H])c2c(c1[H])C([H])([H])C([H])([H])C([H])([H])C2([H])N([H])C(=O)C1([H])N(C(=O)C([H])(N([H])C(=O)C([H])(N([H])C([H])([H])[H])C([H])([H])[H])C(C([H])([H])[H])(C([H])([H])[H])C([H])([H])[H])C([H])([H])c2c([H])c(OC([H])([H])C([H])([H])[N+]([H])([H])C([H])([H])c3c([H])c([H])c([H])c(N([H])C4([H])C([H])([H])C([H])([H])C([H])(N([H])C(=O)N5C([H])([H])C([H])([H])C([H])([H])C([H])(n6nc(-c7c([H])c([H])c(Oc8c([H])c([H])c(F)c([H])c8F)c([H])c7[H])c(C(=O)N([H])[H])c6N([H])[H])C5([H])[H])C([H])([H])C4([H])[H])c3[H])c([H])c([H])c2C1([H])[H]

$$$$
17:0:0
     RDKit          3D

 98106  0  0  1  0  0  0  0  0999 V2000
  -30.4880  -22.7800   23.1640 N   0  0  0  0  0  4  0  0  0  0  0  0
  -30.6760  -23.2030   24.0600 H   0  0  0  0  0  0  0  0  0  0  0  0
  -31.3820  -22.5670   22.7490 H   0  0  0  0  0  0  0  0  0  0  0  0
  -30.2950  -25.2130   22.6110 C   0  0  0  0  0  2  0  0  0  0  0  0
  -29.5760  -26.2510   21.7240 C   0  0  0  0  0  2  0  0  0  0  0  0
  -29.9770  -23.4500   20.8150 C   0  0  0  0  0  2  0  0  0  0  0  0
  -29.8010  -23.7810   22.3120 C   0  0  0  0  0  3  0  0  0  0  0  0
  -29.7390  -25.9110   20.2270 C   0  0  0  0  0  3  0  0  0  0  0  0
  -29.2610  -24.4770   19.9230 C   0  0  0  0  0  3  0  0  0  0  0  0
  -29.5120  -24.1800   18.6460 F   0  0  0  0  0  0  0  0  0  0  0  0
  -29.1780  -26.8940   19.3550 O   0  0  0  0  0  0  0  0  0  0  0  0
  -25.5280  -30.8950   23.9630 C   0  0  0  0  0  0  0  0  0  0  0  0
  -27.9860  -27.4930   19.6820 C   0  0  0  0  0  0  0  0  0  0  0  0
  -24.2290  -30.0040   22.0530 C   0  0  0  0  0  3  0  0  0  0  0  0
  -25.5990  -28.9030   20.2070 C   0  0  0  0  0  0  0  0  0  0  0  0
  -26.7410  -30.4100   21.8440 C   0  0  0  0  0  2  0  0  0  0  0  0
  -26.7830  -29.2560   20.8680 C   0  0  0  0  0  0  0  0  0  0  0  0
  -27.9770  -28.5530   20.6100 C   0  0  0  0  0  3  0  0  0  0  0  0
  -26.7930  -27.1510   19.0130 C   0  0  0  0  0  3  0  0  0  0  0  0
  -25.5950  -27.8430   19.2800 C   0  0  0  0  0  3  0  0  0  0  0  0
  -24.3680  -29.7200   20.5340 C   0  0  0  0  0  2  0  0  0  0  0  0
  -25.5200  -30.4350   22.6800 N   0  0  0  0  0  0  0  0  0  0  0  0
  -24.4760  -31.0090   24.6080 O   0  0  0  0  0  0  0  0  0  0  0  0
  -23.6050  -28.7600   22.7270 C   0  0  0  0  0  0  0  0  0  0  0  0
  -22.3210  -28.5030   22.4300 N   0  0  0  0  0  0  0  0  0  0  0  0
  -24.2770  -28.0390   23.4680 O   0  0  0  0  0  0  0  0  0  0  0  0
  -21.8370  -29.1450   21.8200 H   0  0  0  0  0  0  0  0  0  0  0  0
  -19.1720  -26.7760   22.0630 C   0  0  0  0  0  0  0  0  0  0  0  0
  -21.5400  -27.3640   22.9120 C   0  0  0  0  0  3  0  0  0  0  0  0
  -21.9980  -26.0500   22.2410 C   0  0  0  0  0  2  0  0  0  0  0  0
  -21.1920  -25.7040   20.9840 C   0  0  0  0  0  2  0  0  0  0  0  0
  -19.7050  -25.5630   21.3190 C   0  0  0  0  0  2  0  0  0  0  0  0
  -20.0360  -27.6300   22.7970 C   0  0  0  0  0  0  0  0  0  0  0  0
  -19.4930  -28.7650   23.4380 C   0  0  0  0  0  3  0  0  0  0  0  0
  -18.1160  -29.0480   23.3580 C   0  0  0  0  0  3  0  0  0  0  0  0
  -17.2630  -28.1890   22.6440 C   0  0  0  0  0  3  0  0  0  0  0  0
  -17.7900  -27.0550   22.0000 C   0  0  0  0  0  3  0  0  0  0  0  0
  -26.8500  -31.3230   24.6730 C   0  0  0  0  0  3  0  0  0  0  0  0
  -26.6220  -32.6440   25.2730 N   0  0  0  0  0  0  0  0  0  0  0  0
  -27.1530  -33.7880   24.8200 C   0  0  0  0  0  0  0  0  0  0  0  0
  -27.9540  -33.8280   23.8820 O   0  0  0  0  0  0  0  0  0  0  0  0
  -25.9340  -32.6920   26.0090 H   0  0  0  0  0  0  0  0  0  0  0  0
  -25.7340  -35.8530   24.6240 C   0  0  0  0  0  1  0  0  0  0  0  0
  -26.7260  -35.0930   25.5180 C   0  0  0  0  0  3  0  0  0  0  0  0
  -28.7130  -35.4390   26.9180 C   0  0  0  0  0  1  0  0  0  0  0  0
  -27.8630  -35.9760   25.8590 N   0  0  0  0  0  0  0  0  0  0  0  0
  -27.5340  -36.8930   26.1500 H   0  0  0  0  0  0  0  0  0  0  0  0
  -27.3350  -30.2890   25.7610 C   0  0  1  0  0  0  0  0  0  0  0  0
  -26.2420  -29.9020   26.7830 C   0  0  0  0  0  1  0  0  0  0  0  0
  -27.8380  -28.9910   25.0860 C   0  0  0  0  0  1  0  0  0  0  0  0
  -28.5320  -30.8760   26.5450 C   0  0  0  0  0  1  0  0  0  0  0  0
  -29.6950  -21.5470   23.3960 C   0  0  0  0  0  2  0  0  0  0  0  0
  -30.5280  -20.3590   23.9280 C   0  0  0  0  0  2  0  0  0  0  0  0
  -31.3860  -19.6080   22.8860 C   0  0  0  0  0  2  0  0  0  0  0  0
  -30.6230  -19.1840   21.6860 N   0  0  0  0  0  4  0  0  0  0  0  0
  -29.6770  -19.5210   21.7740 H   0  0  0  0  0  0  0  0  0  0  0  0
  -31.0170  -19.5980   20.8570 H   0  0  0  0  0  0  0  0  0  0  0  0
  -30.5220  -17.7220   21.4790 C   0  0  0  0  0  2  0  0  0  0  0  0
  -31.7750  -17.0920   20.8330 C   0  0  0  0  0  2  0  0  0  0  0  0
  -31.5500  -15.6010   20.5620 C   0  0  0  0  0  2  0  0  0  0  0  0
  -32.9990  -13.7070   19.5800 C   0  0  0  0  0  0  0  0  0  0  0  0
  -32.3760  -11.3530   19.2050 C   0  0  0  0  0  2  0  0  0  0  0  0
  -31.4210  -11.2320   17.9990 C   0  0  0  0  0  2  0  0  0  0  0  0
  -29.9510  -11.4500   18.4150 C   0  0  0  0  0  2  0  0  0  0  0  0
  -29.7680  -12.7010   19.3120 C   0  0  0  0  0  3  0  0  0  0  0  0
  -30.8120  -12.6730   20.4520 C   0  0  0  0  0  2  0  0  0  0  0  0
  -32.1510  -12.6650   19.8410 N   0  0  0  0  0  0  0  0  0  0  0  0
  -34.0480  -13.5520   18.9560 O   0  0  0  0  0  0  0  0  0  0  0  0
  -32.7440  -14.9480   20.0320 N   0  0  0  0  0  0  0  0  0  0  0  0
  -33.5060  -15.5770   19.8280 H   0  0  0  0  0  0  0  0  0  0  0  0
  -27.6150  -13.9260   20.0370 C   0  0  0  0  0  0  0  0  0  0  0  0
  -26.4020  -13.4590   20.4660 C   0  0  0  0  0  0  0  0  0  0  0  0
  -26.5060  -12.0350   20.4730 C   0  0  0  0  0  0  0  0  0  0  0  0
  -28.4020  -12.8010   19.8230 N   0  0  0  0  0  0  0  0  0  0  0  0
  -27.7340  -11.6610   20.1380 N   0  0  0  0  0  0  0  0  0  0  0  0
  -25.4930  -11.0020   20.7250 C   0  0  0  0  0  0  0  0  0  0  0  0
  -25.7290   -9.9470   21.6310 C   0  0  0  0  0  3  0  0  0  0  0  0
  -24.7340   -8.9750   21.8720 C   0  0  0  0  0  3  0  0  0  0  0  0
  -23.4880   -9.0560   21.2060 C   0  0  0  0  0  0  0  0  0  0  0  0
  -23.2680  -10.0960   20.2860 C   0  0  0  0  0  3  0  0  0  0  0  0
  -24.2620  -11.0570   20.0440 C   0  0  0  0  0  3  0  0  0  0  0  0
  -22.4700   -8.1460   21.3620 O   0  0  0  0  0  0  0  0  0  0  0  0
  -22.1640   -7.6110   22.5870 C   0  0  0  0  0  0  0  0  0  0  0  0
  -21.8810   -8.4240   23.7060 C   0  0  0  0  0  3  0  0  0  0  0  0
  -21.5000   -7.8320   24.9290 C   0  0  0  0  0  3  0  0  0  0  0  0
  -21.3960   -6.4310   25.0310 C   0  0  0  0  0  0  0  0  0  0  0  0
  -21.6700   -5.6220   23.9160 C   0  0  0  0  0  3  0  0  0  0  0  0
  -22.0510   -6.2100   22.6970 C   0  0  0  0  0  0  0  0  0  0  0  0
  -22.2960   -5.4250   21.6200 F   0  0  0  0  0  0  0  0  0  0  0  0
  -21.0240   -5.8620   26.2020 F   0  0  0  0  0  0  0  0  0  0  0  0
  -25.1770  -14.2790   20.7500 C   0  0  0  0  0  0  0  0  0  0  0  0
  -24.3660  -13.8600   21.7160 N   0  0  0  0  0  0  0  0  0  0  0  0
  -24.9590  -15.3300   20.1470 O   0  0  0  0  0  0  0  0  0  0  0  0
  -24.5520  -13.0110   22.2300 H   0  0  0  0  0  0  0  0  0  0  0  0
  -23.5420  -14.3970   21.9450 H   0  0  0  0  0  0  0  0  0  0  0  0
  -28.1050  -15.2060   19.7960 N   0  0  0  0  0  0  0  0  0  0  0  0
  -27.4830  -16.0080   19.8210 H   0  0  0  0  0  0  0  0  0  0  0  0
  -28.9750  -15.3950   19.3140 H   0  0  0  0  0  0  0  0  0  0  0  0
  1 52  1  0
  1  2  1  0
  3  1  1  0
  5  4  1  0
  6  7  1  0
  7  4  1  0
  7  1  1  0
  8 11  1  0
  8  5  1  0
  9 10  1  0
  9  8  1  0
  9  6  1  0
 11 13  1  0
 12 23  2  0
 13 18  1  0
 14 22  1  0
 14 24  1  0
 15 21  1  0
 15 17  1  0
 16 22  1  0
 17 16  1  0
 18 17  2  0
 19 20  1  0
 19 13  2  0
 20 15  2  0
 21 14  1  0
 22 12  1  0
 24 26  2  0
 25 24  1  0
 27 25  1  0
 28 33  1  0
 29 25  1  0
 30 29  1  0
 31 32  1  0
 31 30  1  0
 32 28  1  0
 33 29  1  0
 33 34  2  0
 35 34  1  0
 36 35  2  0
 37 28  2  0
 37 36  1  0
 38 12  1  0
 38 39  1  0
 38 48  1  0
 39 42  1  0
 40 39  1  0
 40 44  1  0
 41 40  2  0
 44 43  1  0
 44 46  1  0
 46 47  1  0
 46 45  1  0
 48 51  1  1
 48 49  1  0
 50 48  1  0
 52 53  1  0
 54 53  1  0
 55 56  1  0
 55 54  1  0
 57 55  1  0
 58 55  1  0
 59 58  1  0
 60 59  1  0
 61 67  1  0
 61 69  1  0
 62 67  1  0
 63 64  1  0
 63 62  1  0
 65 64  1  0
 65 74  1  0
 65 66  1  0
 67 66  1  0
 68 61  2  0
 69 60  1  0
 70 69  1  0
 71 72  2  0
 72 73  1  0
 72 91  1  0
 73 76  1  0
 74 71  1  0
 74 75  1  0
 75 73  2  0
 76 77  1  0
 77 78  2  0
 79 82  1  0
 79 78  1  0
 80 79  2  0
 81 80  1  0
 81 76  2  0
 82 83  1  0
 83 88  2  0
 83 84  1  0
 84 85  2  0
 85 86  1  0
 86 90  1  0
 87 86  2  0
 88 87  1  0
 89 88  1  0
 91 92  1  0
 92 95  1  0
 92 94  1  0
 93 91  2  0
 96 97  1  0
 96 71  1  0
 98 96  1  0
M  ISO  4   8 101  11 101  61 100  69 100
M  END
>  <TORSDO>  (17) 
F 24

>  <SCORE>  (17) 
-7.877

>  <name>  (17) 
17

>  <ligand_id>  (17) 
17

>  <original_smiles>  (17) 
[H]c1c([H])c([H])c2c(c1[H])C([H])([H])C([H])([H])C([H])([H])C2([H])N([H])C(=O)C1([H])N(C(=O)C([H])(N([H])C(=O)C([H])(N([H])C([H])([H])[H])C([H])([H])[H])C(C([H])([H])[H])(C([H])([H])[H])C([H])([H])[H])C([H])([H])c2c([H])c(OC3([H])C([H])([H])C([H])([H])C([H])([N+]([H])([H])C([H])([H])C([H])([H])C([H])([H])[N+]([H])([H])C([H])([H])C([H])([H])C([H])([H])N([H])C(=O)N4C([H])([H])C([H])([H])C([H])([H])C([H])(n5nc(-c6c([H])c([H])c(Oc7c([H])c([H])c(F)c([H])c7F)c([H])c6[H])c(C(=O)N([H])[H])c5N([H])[H])C4([H])[H])C([H])([H])C3([H])F)c([H])c([H])c2C1([H])[H]

>  <smiles>  (17) 
[H]c1c([H])c([H])c2c(c1[H])C([H])([H])C([H])([H])C([H])([H])C2([H])N([H])C(=O)C1([H])N(C(=O)C([H])(N([H])C(=O)C([H])(N([H])C([H])([H])[H])C([H])([H])[H])C(C([H])([H])[H])(C([H])([H])[H])C([H])([H])[H])C([H])([H])c2c([H])c(OC3([H])C([H])([H])C([H])([H])C([H])([N+]([H])([H])C([H])([H])C([H])([H])C([H])([H])[N+]([H])([H])C([H])([H])C([H])([H])C([H])([H])N([H])C(=O)N4C([H])([H])C([H])([H])C([H])([H])C([H])(n5nc(-c6c([H])c([H])c(Oc7c([H])c([H])c(F)c([H])c7F)c([H])c6[H])c(C(=O)N([H])[H])c5N([H])[H])C4([H])[H])C([H])([H])C3([H])F)c([H])c([H])c2C1([H])[H]

$$$$
18:0:0
     RDKit          3D

 99107  0  0  1  0  0  0  0  0999 V2000
  -27.1360  -21.6220   19.1940 C   0  0  0  0  0  2  0  0  0  0  0  0
  -26.8870  -23.9080   22.2520 C   0  0  0  0  0  3  0  0  0  0  0  0
  -26.7860  -22.7990   21.3950 C   0  0  0  0  0  3  0  0  0  0  0  0
  -27.5680  -25.0600   21.8270 C   0  0  0  0  0  3  0  0  0  0  0  0
  -27.3660  -22.8250   20.1080 C   0  0  0  0  0  0  0  0  0  0  0  0
  -28.1640  -25.1080   20.5510 C   0  0  0  0  0  0  0  0  0  0  0  0
  -28.0760  -23.9860   19.6820 C   0  0  0  0  0  0  0  0  0  0  0  0
  -28.7220  -24.0660   18.3010 C   0  0  0  0  0  1  0  0  0  0  0  0
  -28.9050  -26.3820   20.1480 C   0  0  0  0  0  2  0  0  0  0  0  0
  -28.3570  -27.0090   18.9910 O   0  0  0  0  0  0  0  0  0  0  0  0
  -24.5840  -31.6530   22.8480 C   0  0  0  0  0  0  0  0  0  0  0  0
  -27.1690  -27.6600   19.1940 C   0  0  0  0  0  0  0  0  0  0  0  0
  -23.3190  -30.3840   21.1390 C   0  0  0  0  0  3  0  0  0  0  0  0
  -24.7310  -29.0400   19.4930 C   0  0  0  0  0  0  0  0  0  0  0  0
  -25.8110  -30.8530   20.8330 C   0  0  0  0  0  2  0  0  0  0  0  0
  -25.9000  -29.5500   20.0710 C   0  0  0  0  0  0  0  0  0  0  0  0
  -27.1230  -28.8630   19.9270 C   0  0  0  0  0  3  0  0  0  0  0  0
  -25.9920  -27.1560   18.6070 C   0  0  0  0  0  3  0  0  0  0  0  0
  -24.7680  -27.8370   18.7630 C   0  0  0  0  0  3  0  0  0  0  0  0
  -23.4670  -29.8440   19.6910 C   0  0  0  0  0  2  0  0  0  0  0  0
  -24.5920  -30.9730   21.6670 N   0  0  0  0  0  0  0  0  0  0  0  0
  -23.5300  -31.8340   23.4750 O   0  0  0  0  0  0  0  0  0  0  0  0
  -22.7530  -29.2530   22.0280 C   0  0  0  0  0  0  0  0  0  0  0  0
  -21.4240  -29.0660   21.9830 N   0  0  0  0  0  0  0  0  0  0  0  0
  -23.5020  -28.5510   22.7130 O   0  0  0  0  0  0  0  0  0  0  0  0
  -20.8790  -29.6890   21.4040 H   0  0  0  0  0  0  0  0  0  0  0  0
  -18.1080  -27.7660   22.5820 C   0  0  0  0  0  0  0  0  0  0  0  0
  -20.6750  -28.0380   22.7020 C   0  0  0  0  0  3  0  0  0  0  0  0
  -20.7500  -26.6790   21.9690 C   0  0  0  0  0  2  0  0  0  0  0  0
  -19.5840  -26.4470   21.0040 C   0  0  0  0  0  2  0  0  0  0  0  0
  -18.2500  -26.4990   21.7550 C   0  0  0  0  0  2  0  0  0  0  0  0
  -19.2460  -28.4980   23.0120 C   0  0  0  0  0  0  0  0  0  0  0  0
  -19.0580  -29.6870   23.7500 C   0  0  0  0  0  3  0  0  0  0  0  0
  -17.7630  -30.1460   24.0560 C   0  0  0  0  0  3  0  0  0  0  0  0
  -16.6400  -29.4100   23.6410 C   0  0  0  0  0  3  0  0  0  0  0  0
  -16.8120  -28.2220   22.9100 C   0  0  0  0  0  3  0  0  0  0  0  0
  -25.8880  -32.2580   23.4560 C   0  0  0  0  0  3  0  0  0  0  0  0
  -26.5390  -31.3450   24.5650 C   0  0  1  0  0  0  0  0  0  0  0  0
  -25.5510  -30.9130   25.6750 C   0  0  0  0  0  1  0  0  0  0  0  0
  -27.1300  -30.0610   23.9340 C   0  0  0  0  0  1  0  0  0  0  0  0
  -27.7210  -32.0890   25.2320 C   0  0  0  0  0  1  0  0  0  0  0  0
  -25.5540  -33.5800   23.9970 N   0  0  0  0  0  0  0  0  0  0  0  0
  -25.7970  -34.7400   23.3720 C   0  0  0  0  0  0  0  0  0  0  0  0
  -26.3990  -34.8070   22.2950 O   0  0  0  0  0  0  0  0  0  0  0  0
  -25.0070  -33.5980   24.8470 H   0  0  0  0  0  0  0  0  0  0  0  0
  -23.9830  -36.4810   23.3740 C   0  0  0  0  0  1  0  0  0  0  0  0
  -25.2900  -36.0280   24.0450 C   0  0  0  0  0  3  0  0  0  0  0  0
  -27.4400  -36.8890   24.8580 C   0  0  0  0  0  1  0  0  0  0  0  0
  -26.2720  -37.1340   24.0170 N   0  0  0  0  0  0  0  0  0  0  0  0
  -25.8410  -38.0060   24.3160 H   0  0  0  0  0  0  0  0  0  0  0  0
  -28.1200  -19.7300   17.8190 C   0  0  0  0  0  1  0  0  0  0  0  0
  -28.3440  -20.6670   19.0190 C   0  0  0  0  0  3  0  0  0  0  0  0
  -28.6140  -19.8680   20.2370 N   0  0  0  0  0  4  0  0  0  0  0  0
  -27.8450  -19.9560   20.8830 H   0  0  0  0  0  0  0  0  0  0  0  0
  -28.6630  -18.9040   19.9540 H   0  0  0  0  0  0  0  0  0  0  0  0
  -29.8880  -20.1690   20.9300 C   0  0  0  0  0  2  0  0  0  0  0  0
  -30.3410  -18.9920   21.8130 C   0  0  0  0  0  2  0  0  0  0  0  0
  -30.6860  -17.7180   21.0140 C   0  0  0  0  0  2  0  0  0  0  0  0
  -31.1420  -16.5630   21.9200 C   0  0  0  0  0  2  0  0  0  0  0  0
  -32.5670  -14.4670   22.0350 C   0  0  0  0  0  1  0  0  0  0  0  0
  -31.6750  -15.3440   21.1430 C   0  0  0  0  0  3  0  0  0  0  0  0
  -30.4670  -14.0810   19.3460 C   0  0  0  0  0  0  0  0  0  0  0  0
  -29.7410  -12.1170   18.0480 C   0  0  0  0  0  2  0  0  0  0  0  0
  -28.5690  -12.3890   17.0910 C   0  0  0  0  0  2  0  0  0  0  0  0
  -27.2280  -12.2160   17.8220 C   0  0  0  0  0  2  0  0  0  0  0  0
  -27.1740  -13.0120   19.1510 C   0  0  0  0  0  3  0  0  0  0  0  0
  -28.4300  -12.7500   20.0120 C   0  0  0  0  0  2  0  0  0  0  0  0
  -29.6350  -13.0200   19.2040 N   0  0  0  0  0  0  0  0  0  0  0  0
  -31.2120  -14.4860   18.4480 O   0  0  0  0  0  0  0  0  0  0  0  0
  -30.5780  -14.5300   20.6060 N   0  0  0  0  0  0  0  0  0  0  0  0
  -29.9450  -14.1150   21.2750 H   0  0  0  0  0  0  0  0  0  0  0  0
  -24.9840  -13.6040   20.3730 C   0  0  0  0  0  0  0  0  0  0  0  0
  -24.0000  -12.8240   20.9180 C   0  0  0  0  0  0  0  0  0  0  0  0
  -24.4160  -11.4700   20.7210 C   0  0  0  0  0  0  0  0  0  0  0  0
  -25.9420  -12.7270   19.8860 N   0  0  0  0  0  0  0  0  0  0  0  0
  -25.6110  -11.4350   20.1480 N   0  0  0  0  0  0  0  0  0  0  0  0
  -23.7180  -10.2070   20.9940 C   0  0  0  0  0  0  0  0  0  0  0  0
  -24.2290   -9.2650   21.9140 C   0  0  0  0  0  3  0  0  0  0  0  0
  -23.5310   -8.0660   22.1740 C   0  0  0  0  0  3  0  0  0  0  0  0
  -22.3070   -7.8000   21.5140 C   0  0  0  0  0  0  0  0  0  0  0  0
  -21.8140   -8.7310   20.5820 C   0  0  0  0  0  3  0  0  0  0  0  0
  -22.5130   -9.9210   20.3210 C   0  0  0  0  0  3  0  0  0  0  0  0
  -21.5740   -6.6500   21.6830 O   0  0  0  0  0  0  0  0  0  0  0  0
  -21.5390   -5.9890   22.8840 C   0  0  0  0  0  0  0  0  0  0  0  0
  -21.0630   -6.6060   24.0620 C   0  0  0  0  0  3  0  0  0  0  0  0
  -20.9810   -5.8670   25.2590 C   0  0  0  0  0  3  0  0  0  0  0  0
  -21.3630   -4.5140   25.2810 C   0  0  0  0  0  0  0  0  0  0  0  0
  -21.8330   -3.8960   24.1080 C   0  0  0  0  0  3  0  0  0  0  0  0
  -21.9170   -4.6320   22.9120 C   0  0  0  0  0  0  0  0  0  0  0  0
  -22.3500   -4.0260   21.7800 F   0  0  0  0  0  0  0  0  0  0  0  0
  -21.2770   -3.8020   26.4290 F   0  0  0  0  0  0  0  0  0  0  0  0
  -22.7020  -13.2990   21.5040 C   0  0  0  0  0  0  0  0  0  0  0  0
  -22.1630  -12.5700   22.4750 N   0  0  0  0  0  0  0  0  0  0  0  0
  -22.1800  -14.3500   21.1340 O   0  0  0  0  0  0  0  0  0  0  0  0
  -22.6020  -11.7180   22.7940 H   0  0  0  0  0  0  0  0  0  0  0  0
  -21.3010  -12.8690   22.9080 H   0  0  0  0  0  0  0  0  0  0  0  0
  -25.1370  -14.9800   20.2350 N   0  0  0  0  0  0  0  0  0  0  0  0
  -24.4210  -15.6360   20.5270 H   0  0  0  0  0  0  0  0  0  0  0  0
  -25.9100  -15.4230   19.7560 H   0  0  0  0  0  0  0  0  0  0  0  0
  1  5  1  0
  3  2  2  0
  4  2  1  0
  5  3  1  0
  6  4  2  0
  7  5  2  0
  7  6  1  0
  8  7  1  0
  9  6  1  0
 10 12  1  0
 10  9  1  0
 11 22  2  0
 12 17  1  0
 13 21  1  0
 13 23  1  0
 14 20  1  0
 14 16  1  0
 15 21  1  0
 16 15  1  0
 17 16  2  0
 18 19  1  0
 18 12  2  0
 19 14  2  0
 20 13  1  0
 21 11  1  0
 23 25  2  0
 24 23  1  0
 26 24  1  0
 27 36  2  0
 27 32  1  0
 28 24  1  0
 28 32  1  0
 29 28  1  0
 30 31  1  0
 30 29  1  0
 31 27  1  0
 32 33  2  0
 33 34  1  0
 35 34  2  0
 36 35  1  0
 37 11  1  0
 37 42  1  0
 37 38  1  0
 38 41  1  1
 38 39  1  0
 40 38  1  0
 42 45  1  0
 43 42  1  0
 43 47  1  0
 44 43  2  0
 47 46  1  0
 49 47  1  0
 49 50  1  0
 49 48  1  0
 52 51  1  0
 52  1  1  0
 52 53  1  0
 53 54  1  0
 53 56  1  0
 55 53  1  0
 56 57  1  0
 58 57  1  0
 58 59  1  0
 61 59  1  0
 61 60  1  0
 62 70  1  0
 63 68  1  0
 64 65  1  0
 64 63  1  0
 66 65  1  0
 66 75  1  0
 66 67  1  0
 68 62  1  0
 68 67  1  0
 69 62  2  0
 70 61  1  0
 70 71  1  0
 72 73  2  0
 73 92  1  0
 74 73  1  0
 74 77  1  0
 75 76  1  0
 75 72  1  0
 76 74  2  0
 77 78  1  0
 78 79  2  0
 80 83  1  0
 80 79  1  0
 81 80  2  0
 82 81  1  0
 82 77  2  0
 83 84  1  0
 84 89  2  0
 84 85  1  0
 85 86  2  0
 86 87  1  0
 87 91  1  0
 88 87  2  0
 89 88  1  0
 90 89  1  0
 92 93  1  0
 93 95  1  0
 93 96  1  0
 94 92  2  0
 97 72  1  0
 97 98  1  0
 99 97  1  0
M  ISO  4   9 101  10 101  62 100  70 100
M  END
>  <TORSDO>  (18) 
F 25

>  <SCORE>  (18) 
-7.962

>  <name>  (18) 
18

>  <ligand_id>  (18) 
18

>  <original_smiles>  (18) 
[H]c1c([H])c([H])c2c(c1[H])C([H])([H])C([H])([H])C([H])([H])C2([H])N([H])C(=O)C1([H])N(C(=O)C([H])(N([H])C(=O)C([H])(N([H])C([H])([H])[H])C([H])([H])[H])C(C([H])([H])[H])(C([H])([H])[H])C([H])([H])[H])C([H])([H])c2c([H])c(OC([H])([H])c3c([H])c([H])c([H])c(C([H])([H])C([H])(C([H])([H])[H])[N+]([H])([H])C([H])([H])C([H])([H])C([H])([H])C([H])([H])C([H])(N([H])C(=O)N4C([H])([H])C([H])([H])C([H])([H])C([H])(n5nc(-c6c([H])c([H])c(Oc7c([H])c([H])c(F)c([H])c7F)c([H])c6[H])c(C(=O)N([H])[H])c5N([H])[H])C4([H])[H])C([H])([H])[H])c3C([H])([H])[H])c([H])c([H])c2C1([H])[H]

>  <smiles>  (18) 
[H]c1c([H])c([H])c2c(c1[H])C([H])([H])C([H])([H])C([H])([H])C2([H])N([H])C(=O)C1([H])N(C(=O)C([H])(N([H])C(=O)C([H])(N([H])C([H])([H])[H])C([H])([H])[H])C(C([H])([H])[H])(C([H])([H])[H])C([H])([H])[H])C([H])([H])c2c([H])c(OC([H])([H])c3c([H])c([H])c([H])c(C([H])([H])C([H])(C([H])([H])[H])[N+]([H])([H])C([H])([H])C([H])([H])C([H])([H])C([H])([H])C([H])(N([H])C(=O)N4C([H])([H])C([H])([H])C([H])([H])C([H])(n5nc(-c6c([H])c([H])c(Oc7c([H])c([H])c(F)c([H])c7F)c([H])c6[H])c(C(=O)N([H])[H])c5N([H])[H])C4([H])[H])C([H])([H])[H])c3C([H])([H])[H])c([H])c([H])c2C1([H])[H]

$$$$
19:0:0
     RDKit          3D

 96105  0  0  1  0  0  0  0  0999 V2000
  -29.5750  -21.5150   19.7930 C   0  0  0  0  0  2  0  0  0  0  0  0
  -30.6350  -14.4940   19.7470 C   0  0  0  0  0  0  0  0  0  0  0  0
  -30.0900  -12.4700   18.4380 C   0  0  0  0  0  2  0  0  0  0  0  0
  -28.9960  -12.7690   17.3950 C   0  0  0  0  0  2  0  0  0  0  0  0
  -27.5960  -12.6010   18.0130 C   0  0  0  0  0  2  0  0  0  0  0  0
  -27.4470  -13.3530   19.3620 C   0  0  0  0  0  3  0  0  0  0  0  0
  -28.6360  -13.0470   20.2990 C   0  0  0  0  0  2  0  0  0  0  0  0
  -29.8850  -13.3690   19.5840 N   0  0  0  0  0  0  0  0  0  0  0  0
  -31.5970  -14.7650   19.0210 O   0  0  0  0  0  0  0  0  0  0  0  0
  -32.2520  -19.0790   21.1660 C   0  0  0  0  0  3  0  0  0  0  0  0
  -29.6080  -19.0060   20.2340 C   0  0  0  0  0  3  0  0  0  0  0  0
  -31.5580  -17.8550   21.1350 C   0  0  0  0  0  0  0  0  0  0  0  0
  -30.2330  -17.8070   20.6480 C   0  0  0  0  0  0  0  0  0  0  0  0
  -31.6390  -20.2720   20.7290 C   0  0  0  0  0  0  0  0  0  0  0  0
  -30.2930  -20.2460   20.2740 C   0  0  0  0  0  0  0  0  0  0  0  0
  -32.2480  -16.5900   21.6220 C   0  0  0  0  0  2  0  0  0  0  0  0
  -29.4720  -16.4780   20.5770 C   0  0  0  0  0  2  0  0  0  0  0  0
  -31.2530  -15.4480   21.8990 C   0  0  0  0  0  2  0  0  0  0  0  0
  -32.4600  -21.5520   20.7690 C   0  0  0  0  0  1  0  0  0  0  0  0
  -30.3040  -15.2820   20.7940 N   0  0  0  0  0  0  0  0  0  0  0  0
  -25.1600  -13.9240   20.4000 C   0  0  0  0  0  0  0  0  0  0  0  0
  -24.1480  -13.1330   20.8710 C   0  0  0  0  0  0  0  0  0  0  0  0
  -24.5960  -11.7850   20.7220 C   0  0  0  0  0  0  0  0  0  0  0  0
  -26.1660  -13.0560   19.9990 N   0  0  0  0  0  0  0  0  0  0  0  0
  -25.8350  -11.7630   20.2470 N   0  0  0  0  0  0  0  0  0  0  0  0
  -23.8980  -10.5130   20.9500 C   0  0  0  0  0  0  0  0  0  0  0  0
  -24.3880   -9.5550   21.8640 C   0  0  0  0  0  3  0  0  0  0  0  0
  -23.6880   -8.3480   22.0800 C   0  0  0  0  0  3  0  0  0  0  0  0
  -22.4840   -8.0910   21.3830 C   0  0  0  0  0  0  0  0  0  0  0  0
  -22.0130   -9.0380   20.4570 C   0  0  0  0  0  3  0  0  0  0  0  0
  -22.7130  -10.2370   20.2390 C   0  0  0  0  0  3  0  0  0  0  0  0
  -21.7510   -6.9360   21.5100 O   0  0  0  0  0  0  0  0  0  0  0  0
  -21.7100   -6.2350   22.6870 C   0  0  0  0  0  0  0  0  0  0  0  0
  -21.2400   -6.8170   23.8860 C   0  0  0  0  0  3  0  0  0  0  0  0
  -21.1500   -6.0400   25.0570 C   0  0  0  0  0  3  0  0  0  0  0  0
  -21.5190   -4.6810   25.0330 C   0  0  0  0  0  0  0  0  0  0  0  0
  -21.9820   -4.0990   23.8400 C   0  0  0  0  0  3  0  0  0  0  0  0
  -22.0740   -4.8730   22.6690 C   0  0  0  0  0  0  0  0  0  0  0  0
  -22.5010   -4.3010   21.5170 F   0  0  0  0  0  0  0  0  0  0  0  0
  -21.4240   -3.9320   26.1560 F   0  0  0  0  0  0  0  0  0  0  0  0
  -22.8000  -13.5940   21.3450 C   0  0  0  0  0  0  0  0  0  0  0  0
  -22.1870  -12.8550   22.2640 N   0  0  0  0  0  0  0  0  0  0  0  0
  -22.3030  -14.6430   20.9370 O   0  0  0  0  0  0  0  0  0  0  0  0
  -22.6030  -12.0050   22.6130 H   0  0  0  0  0  0  0  0  0  0  0  0
  -21.2870  -13.1440   22.6230 H   0  0  0  0  0  0  0  0  0  0  0  0
  -25.3040  -15.3010   20.2620 N   0  0  0  0  0  0  0  0  0  0  0  0
  -24.5580  -15.9470   20.4970 H   0  0  0  0  0  0  0  0  0  0  0  0
  -26.1040  -15.7580   19.8440 H   0  0  0  0  0  0  0  0  0  0  0  0
  -28.2650  -21.8910   21.9620 C   0  0  0  0  0  1  0  0  0  0  0  0
  -29.1890  -22.5290   20.9090 C   0  0  0  0  0  3  0  0  0  0  0  0
  -28.5680  -23.7700   20.3660 N   0  0  0  0  0  4  0  0  0  0  0  0
  -27.7890  -23.5230   19.7750 H   0  0  0  0  0  0  0  0  0  0  0  0
  -28.1940  -24.2870   21.1490 H   0  0  0  0  0  0  0  0  0  0  0  0
  -29.4830  -24.6920   19.6400 C   0  0  0  0  0  2  0  0  0  0  0  0
  -28.7560  -25.9230   19.0560 C   0  0  0  0  0  2  0  0  0  0  0  0
  -28.4390  -26.8560   20.0980 O   0  0  0  0  0  0  0  0  0  0  0  0
  -24.6060  -31.9480   23.2450 C   0  0  0  0  0  0  0  0  0  0  0  0
  -27.2410  -27.5430   20.0860 C   0  0  0  0  0  0  0  0  0  0  0  0
  -23.3850  -30.5450   21.6150 C   0  0  0  0  0  3  0  0  0  0  0  0
  -24.8270  -29.0260   20.1610 C   0  0  0  0  0  0  0  0  0  0  0  0
  -25.9040  -30.9220   21.3810 C   0  0  0  0  0  2  0  0  0  0  0  0
  -25.9880  -29.5540   20.7340 C   0  0  0  0  0  0  0  0  0  0  0  0
  -27.1930  -28.8160   20.7020 C   0  0  0  0  0  3  0  0  0  0  0  0
  -26.0480  -27.0180   19.5330 C   0  0  0  0  0  3  0  0  0  0  0  0
  -24.8500  -27.7540   19.5640 C   0  0  0  0  0  3  0  0  0  0  0  0
  -23.5770  -29.8740   20.2290 C   0  0  0  0  0  2  0  0  0  0  0  0
  -24.6510  -31.1540   22.1390 N   0  0  0  0  0  0  0  0  0  0  0  0
  -23.5300  -32.2100   23.8030 O   0  0  0  0  0  0  0  0  0  0  0  0
  -22.7560  -29.5140   22.5800 C   0  0  0  0  0  0  0  0  0  0  0  0
  -21.4370  -29.2970   22.4500 N   0  0  0  0  0  0  0  0  0  0  0  0
  -23.4540  -28.9100   23.4000 O   0  0  0  0  0  0  0  0  0  0  0  0
  -20.9370  -29.8390   21.7590 H   0  0  0  0  0  0  0  0  0  0  0  0
  -18.0940  -28.0160   22.9320 C   0  0  0  0  0  0  0  0  0  0  0  0
  -20.6410  -28.3460   23.2240 C   0  0  0  0  0  3  0  0  0  0  0  0
  -20.7870  -26.9130   22.6630 C   0  0  0  0  0  2  0  0  0  0  0  0
  -19.7030  -26.5490   21.6440 C   0  0  0  0  0  2  0  0  0  0  0  0
  -18.3130  -26.6650   22.2740 C   0  0  0  0  0  2  0  0  0  0  0  0
  -19.1880  -28.8120   23.3640 C   0  0  0  0  0  0  0  0  0  0  0  0
  -18.9310  -30.0770   23.9380 C   0  0  0  0  0  3  0  0  0  0  0  0
  -17.6120  -30.5450   24.0860 C   0  0  0  0  0  3  0  0  0  0  0  0
  -16.5320  -29.7470   23.6720 C   0  0  0  0  0  3  0  0  0  0  0  0
  -16.7740  -28.4840   23.1010 C   0  0  0  0  0  3  0  0  0  0  0  0
  -25.8970  -32.5860   23.8480 C   0  0  0  0  0  3  0  0  0  0  0  0
  -26.4330  -31.8190   25.1190 C   0  0  1  0  0  0  0  0  0  0  0  0
  -25.3540  -31.5710   26.1970 C   0  0  0  0  0  1  0  0  0  0  0  0
  -27.0260  -30.4470   24.7170 C   0  0  0  0  0  1  0  0  0  0  0  0
  -27.5840  -32.6240   25.7690 C   0  0  0  0  0  1  0  0  0  0  0  0
  -25.5880  -33.9840   24.1760 N   0  0  0  0  0  0  0  0  0  0  0  0
  -25.9200  -35.0340   23.4140 C   0  0  0  0  0  0  0  0  0  0  0  0
  -26.5900  -34.9290   22.3830 O   0  0  0  0  0  0  0  0  0  0  0  0
  -24.9930  -34.1390   24.9770 H   0  0  0  0  0  0  0  0  0  0  0  0
  -24.2010  -36.8310   23.0400 C   0  0  0  0  0  1  0  0  0  0  0  0
  -25.4290  -36.4230   23.8680 C   0  0  0  0  0  3  0  0  0  0  0  0
  -27.5530  -37.3000   24.7330 C   0  0  0  0  0  1  0  0  0  0  0  0
  -26.4660  -37.4730   23.7730 N   0  0  0  0  0  0  0  0  0  0  0  0
  -26.0600  -38.3940   23.9170 H   0  0  0  0  0  0  0  0  0  0  0  0
  1 15  1  0
  1 50  1  0
  2 20  1  0
  3  8  1  0
  4  5  1  0
  4  3  1  0
  6  5  1  0
  6 24  1  0
  6  7  1  0
  8  2  1  0
  8  7  1  0
  9  2  2  0
 11 15  2  0
 11 13  1  0
 12 10  1  0
 12 16  1  0
 13 12  2  0
 14 19  1  0
 14 10  2  0
 15 14  1  0
 16 18  1  0
 17 13  1  0
 17 20  1  0
 20 18  1  0
 21 22  2  0
 22 41  1  0
 23 22  1  0
 23 26  1  0
 24 25  1  0
 24 21  1  0
 25 23  2  0
 26 27  1  0
 27 28  2  0
 29 32  1  0
 29 28  1  0
 30 29  2  0
 31 30  1  0
 31 26  2  0
 32 33  1  0
 33 34  1  0
 34 35  2  0
 36 35  1  0
 36 40  1  0
 37 36  2  0
 38 33  2  0
 38 37  1  0
 39 38  1  0
 41 42  1  0
 42 44  1  0
 42 45  1  0
 43 41  2  0
 46 21  1  0
 46 47  1  0
 48 46  1  0
 50 49  1  0
 51 50  1  0
 51 53  1  0
 52 51  1  0
 54 51  1  0
 55 54  1  0
 55 56  1  0
 57 68  2  0
 58 56  1  0
 58 63  1  0
 59 67  1  0
 59 69  1  0
 60 66  1  0
 60 62  1  0
 61 67  1  0
 62 61  1  0
 63 62  2  0
 64 65  1  0
 64 58  2  0
 65 60  2  0
 66 59  1  0
 67 57  1  0
 69 71  2  0
 70 69  1  0
 72 70  1  0
 73 82  2  0
 73 78  1  0
 74 70  1  0
 74 78  1  0
 75 74  1  0
 76 77  1  0
 76 75  1  0
 77 73  1  0
 78 79  2  0
 79 80  1  0
 81 80  2  0
 82 81  1  0
 83 57  1  0
 83 88  1  0
 83 84  1  0
 84 87  1  1
 84 85  1  0
 86 84  1  0
 88 91  1  0
 89 93  1  0
 89 88  1  0
 90 89  2  0
 93 92  1  0
 95 93  1  0
 95 96  1  0
 95 94  1  0
M  ISO  4   2 100  20 100  55 101  56 101
M  END
>  <TORSDO>  (19) 
F 20

>  <SCORE>  (19) 
-12.062

>  <name>  (19) 
19

>  <ligand_id>  (19) 
19

>  <original_smiles>  (19) 
[H]c1c([H])c([H])c2c(c1[H])C([H])([H])C([H])([H])C([H])([H])C2([H])N([H])C(=O)C1([H])N(C(=O)C([H])(N([H])C(=O)C([H])(N([H])C([H])([H])[H])C([H])([H])[H])C(C([H])([H])[H])(C([H])([H])[H])C([H])([H])[H])C([H])([H])c2c([H])c(OC([H])([H])C([H])([H])[N+]([H])([H])C([H])(C([H])([H])[H])C([H])([H])c3c([H])c4c(c([H])c3C([H])([H])[H])C([H])([H])C([H])([H])N(C(=O)N3C([H])([H])C([H])([H])C([H])([H])C([H])(n5nc(-c6c([H])c([H])c(Oc7c([H])c([H])c(F)c([H])c7F)c([H])c6[H])c(C(=O)N([H])[H])c5N([H])[H])C3([H])[H])C4([H])[H])c([H])c([H])c2C1([H])[H]

>  <smiles>  (19) 
[H]c1c([H])c([H])c2c(c1[H])C([H])([H])C([H])([H])C([H])([H])C2([H])N([H])C(=O)C1([H])N(C(=O)C([H])(N([H])C(=O)C([H])(N([H])C([H])([H])[H])C([H])([H])[H])C(C([H])([H])[H])(C([H])([H])[H])C([H])([H])[H])C([H])([H])c2c([H])c(OC([H])([H])C([H])([H])[N+]([H])([H])C([H])(C([H])([H])[H])C([H])([H])c3c([H])c4c(c([H])c3C([H])([H])[H])C([H])([H])C([H])([H])N(C(=O)N3C([H])([H])C([H])([H])C([H])([H])C([H])(n5nc(-c6c([H])c([H])c(Oc7c([H])c([H])c(F)c([H])c7F)c([H])c6[H])c(C(=O)N([H])[H])c5N([H])[H])C3([H])[H])C4([H])[H])c([H])c([H])c2C1([H])[H]

$$$$
20:0:0
     RDKit          3D

 96104  0  0  1  0  0  0  0  0999 V2000
  -28.8170  -22.1160   22.7230 C   0  0  0  0  0  3  0  0  0  0  0  0
  -28.0360  -23.2320   22.3780 C   0  0  0  0  0  3  0  0  0  0  0  0
  -29.9470  -22.2540   20.5670 C   0  0  0  0  0  3  0  0  0  0  0  0
  -29.7770  -21.6230   21.8180 C   0  0  0  0  0  0  0  0  0  0  0  0
  -28.2100  -23.8720   21.1340 C   0  0  0  0  0  0  0  0  0  0  0  0
  -29.1710  -23.3840   20.2150 C   0  0  0  0  0  0  0  0  0  0  0  0
  -27.3570  -25.0870   20.8050 C   0  0  0  0  0  1  0  0  0  0  0  0
  -29.3210  -24.0330   18.9800 N   0  0  0  0  0  0  0  0  0  0  0  0
  -28.7100  -24.8270   18.8120 H   0  0  0  0  0  0  0  0  0  0  0  0
  -30.6130  -24.0370   18.3030 C   0  0  0  0  0  2  0  0  0  0  0  0
  -30.8990  -25.3800   17.6130 C   0  0  0  0  0  2  0  0  0  0  0  0
  -30.1680  -25.5480   16.2690 C   0  0  0  0  0  2  0  0  0  0  0  0
  -29.6360  -26.8680   16.1710 O   0  0  0  0  0  0  0  0  0  0  0  0
  -25.3760  -28.3040   21.6680 C   0  0  0  0  0  0  0  0  0  0  0  0
  -28.3440  -27.0680   16.5980 C   0  0  0  0  0  0  0  0  0  0  0  0
  -24.2310  -27.7220   19.5540 C   0  0  0  0  0  3  0  0  0  0  0  0
  -25.7190  -27.6130   17.4850 C   0  0  0  0  0  0  0  0  0  0  0  0
  -26.5530  -28.7910   19.5300 C   0  0  0  0  0  2  0  0  0  0  0  0
  -26.8170  -28.0440   18.2400 C   0  0  0  0  0  0  0  0  0  0  0  0
  -28.1310  -27.7830   17.7950 C   0  0  0  0  0  3  0  0  0  0  0  0
  -27.2290  -26.6380   15.8450 C   0  0  0  0  0  3  0  0  0  0  0  0
  -25.9180  -26.9070   16.2850 C   0  0  0  0  0  3  0  0  0  0  0  0
  -24.3470  -27.9530   18.0230 C   0  0  0  0  0  2  0  0  0  0  0  0
  -25.4110  -28.2570   20.3070 N   0  0  0  0  0  0  0  0  0  0  0  0
  -24.3680  -27.9510   22.2960 O   0  0  0  0  0  0  0  0  0  0  0  0
  -23.9750  -26.2180   19.8050 C   0  0  0  0  0  0  0  0  0  0  0  0
  -22.7500  -25.7620   19.5010 N   0  0  0  0  0  0  0  0  0  0  0  0
  -24.8720  -25.4860   20.2340 O   0  0  0  0  0  0  0  0  0  0  0  0
  -22.0680  -26.4270   19.1640 H   0  0  0  0  0  0  0  0  0  0  0  0
  -19.9200  -23.5790   18.9790 C   0  0  0  0  0  0  0  0  0  0  0  0
  -22.2940  -24.3760   19.6160 C   0  0  0  0  0  3  0  0  0  0  0  0
  -22.7890  -23.5250   18.4240 C   0  0  0  0  0  2  0  0  0  0  0  0
  -21.7830  -23.4590   17.2710 C   0  0  0  0  0  2  0  0  0  0  0  0
  -20.4560  -22.8640   17.7500 C   0  0  0  0  0  2  0  0  0  0  0  0
  -20.7810  -24.3020   19.8460 C   0  0  0  0  0  0  0  0  0  0  0  0
  -20.2280  -24.9790   20.9550 C   0  0  0  0  0  3  0  0  0  0  0  0
  -18.8430  -24.9400   21.2040 C   0  0  0  0  0  3  0  0  0  0  0  0
  -17.9980  -24.2080   20.3530 C   0  0  0  0  0  3  0  0  0  0  0  0
  -18.5360  -23.5260   19.2470 C   0  0  0  0  0  3  0  0  0  0  0  0
  -26.5890  -28.8250   22.5020 C   0  0  0  0  0  3  0  0  0  0  0  0
  -27.4460  -27.6660   23.1440 C   0  0  1  0  0  0  0  0  0  0  0  0
  -26.6040  -26.6280   23.9210 C   0  0  0  0  0  1  0  0  0  0  0  0
  -28.2420  -26.9100   22.0540 C   0  0  0  0  0  1  0  0  0  0  0  0
  -28.4880  -28.2620   24.1210 C   0  0  0  0  0  1  0  0  0  0  0  0
  -26.0620  -29.7180   23.5400 N   0  0  0  0  0  0  0  0  0  0  0  0
  -26.1000  -31.0570   23.4830 C   0  0  0  0  0  0  0  0  0  0  0  0
  -26.6560  -31.6730   22.5690 O   0  0  0  0  0  0  0  0  0  0  0  0
  -25.5490  -29.2820   24.2920 H   0  0  0  0  0  0  0  0  0  0  0  0
  -24.0360  -32.3300   24.1440 C   0  0  0  0  0  1  0  0  0  0  0  0
  -25.4110  -31.8350   24.6190 C   0  0  0  0  0  3  0  0  0  0  0  0
  -27.4050  -32.5740   25.8470 C   0  0  0  0  0  1  0  0  0  0  0  0
  -26.2080  -32.9790   25.1150 N   0  0  0  0  0  0  0  0  0  0  0  0
  -25.6490  -33.5690   25.7260 H   0  0  0  0  0  0  0  0  0  0  0  0
  -30.6240  -20.4190   22.1850 C   0  0  0  0  0  2  0  0  0  0  0  0
  -30.5290  -19.3030   21.1250 C   0  0  0  0  0  2  0  0  0  0  0  0
  -32.9940  -19.3250   20.9110 C   0  0  0  0  0  1  0  0  0  0  0  0
  -31.7690  -18.4880   21.0020 N   0  0  2  0  0  4  0  0  0  0  0  0
  -31.8660  -17.9510   21.8500 H   0  0  0  0  0  0  0  0  0  0  0  0
  -31.7030  -17.5070   19.8850 C   0  0  0  0  0  2  0  0  0  0  0  0
  -30.8940  -16.2250   20.2100 C   0  0  0  0  0  2  0  0  0  0  0  0
  -31.3970  -14.9980   19.4300 C   0  0  0  0  0  0  0  0  0  0  0  0
  -31.2200  -12.6010   18.8640 C   0  0  0  0  0  2  0  0  0  0  0  0
  -30.2360  -12.3630   17.7050 C   0  0  0  0  0  2  0  0  0  0  0  0
  -28.7960  -12.2260   18.2350 C   0  0  0  0  0  2  0  0  0  0  0  0
  -28.4070  -13.3710   19.2090 C   0  0  0  0  0  3  0  0  0  0  0  0
  -29.5010  -13.5810   20.2820 C   0  0  0  0  0  2  0  0  0  0  0  0
  -30.7850  -13.7980   19.5970 N   0  0  0  0  0  0  0  0  0  0  0  0
  -32.3620  -15.1420   18.6710 O   0  0  0  0  0  0  0  0  0  0  0  0
  -26.1030  -14.0460   20.1430 C   0  0  0  0  0  0  0  0  0  0  0  0
  -25.0490  -13.3020   20.6030 C   0  0  0  0  0  0  0  0  0  0  0  0
  -25.4620  -11.9360   20.5120 C   0  0  0  0  0  0  0  0  0  0  0  0
  -27.0940  -13.1360   19.8080 N   0  0  0  0  0  0  0  0  0  0  0  0
  -26.7150  -11.8610   20.0830 N   0  0  0  0  0  0  0  0  0  0  0  0
  -24.7160  -10.6950   20.7560 C   0  0  0  0  0  0  0  0  0  0  0  0
  -24.9920   -9.8750   21.8730 C   0  0  0  0  0  3  0  0  0  0  0  0
  -24.2500   -8.6960   22.0960 C   0  0  0  0  0  3  0  0  0  0  0  0
  -23.2170   -8.3270   21.2010 C   0  0  0  0  0  0  0  0  0  0  0  0
  -22.9620   -9.1350   20.0790 C   0  0  0  0  0  3  0  0  0  0  0  0
  -23.7050  -10.3060   19.8550 C   0  0  0  0  0  3  0  0  0  0  0  0
  -22.4620   -7.1850   21.3230 O   0  0  0  0  0  0  0  0  0  0  0  0
  -21.9720   -6.7720   22.5360 C   0  0  0  0  0  0  0  0  0  0  0  0
  -21.0750   -7.5630   23.2860 C   0  0  0  0  0  3  0  0  0  0  0  0
  -20.5430   -7.0710   24.4940 C   0  0  0  0  0  3  0  0  0  0  0  0
  -20.8980   -5.7870   24.9490 C   0  0  0  0  0  0  0  0  0  0  0  0
  -21.7870   -4.9950   24.2010 C   0  0  0  0  0  3  0  0  0  0  0  0
  -22.3200   -5.4860   22.9960 C   0  0  0  0  0  0  0  0  0  0  0  0
  -23.1600   -4.7110   22.2680 F   0  0  0  0  0  0  0  0  0  0  0  0
  -20.3810   -5.3100   26.1060 F   0  0  0  0  0  0  0  0  0  0  0  0
  -23.7010  -13.8170   21.0150 C   0  0  0  0  0  0  0  0  0  0  0  0
  -23.0570  -13.1560   21.9700 N   0  0  0  0  0  0  0  0  0  0  0  0
  -23.2310  -14.8410   20.5210 O   0  0  0  0  0  0  0  0  0  0  0  0
  -23.4520  -12.3270   22.3890 H   0  0  0  0  0  0  0  0  0  0  0  0
  -22.1550  -13.4850   22.2870 H   0  0  0  0  0  0  0  0  0  0  0  0
  -26.2950  -15.4130   19.9650 N   0  0  0  0  0  0  0  0  0  0  0  0
  -25.5650  -16.0920   20.1510 H   0  0  0  0  0  0  0  0  0  0  0  0
  -27.1260  -15.8260   19.5600 H   0  0  0  0  0  0  0  0  0  0  0  0
  2  1  1  0
  3  4  1  0
  4 54  1  0
  4  1  2  0
  5  2  2  0
  6  3  2  0
  6  5  1  0
  7  5  1  0
  8  6  1  0
  9  8  1  0
 10  8  1  0
 11 10  1  0
 12 11  1  0
 13 12  1  0
 13 15  1  0
 14 25  2  0
 15 20  1  0
 16 26  1  0
 16 24  1  0
 17 23  1  0
 17 19  1  0
 18 24  1  0
 19 18  1  0
 20 19  2  0
 21 22  1  0
 21 15  2  0
 22 17  2  0
 23 16  1  0
 24 14  1  0
 26 28  2  0
 27 26  1  0
 29 27  1  0
 30 39  2  0
 30 35  1  0
 31 27  1  0
 31 35  1  0
 32 31  1  0
 33 34  1  0
 33 32  1  0
 34 30  1  0
 35 36  2  0
 36 37  1  0
 38 37  2  0
 39 38  1  0
 40 14  1  0
 40 41  1  0
 40 45  1  0
 41 42  1  1
 41 44  1  0
 43 41  1  0
 45 48  1  0
 46 45  1  0
 46 50  1  0
 47 46  2  0
 50 49  1  0
 50 52  1  0
 52 53  1  0
 52 51  1  0
 55 54  1  0
 56 57  1  0
 57 55  1  0
 57 58  1  1
 59 60  1  0
 59 57  1  0
 61 67  1  0
 61 60  1  0
 62 67  1  0
 63 64  1  0
 63 62  1  0
 65 64  1  0
 65 72  1  0
 65 66  1  0
 67 66  1  0
 68 61  2  0
 69 70  2  0
 70 89  1  0
 71 70  1  0
 71 74  1  0
 72 73  1  0
 72 69  1  0
 73 71  2  0
 74 75  1  0
 75 76  2  0
 77 80  1  0
 77 76  1  0
 78 77  2  0
 79 78  1  0
 79 74  2  0
 80 81  1  0
 81 86  2  0
 81 82  1  0
 82 83  2  0
 83 84  1  0
 84 88  1  0
 85 84  2  0
 86 85  1  0
 87 86  1  0
 89 90  1  0
 90 93  1  0
 90 92  1  0
 91 89  2  0
 94 69  1  0
 94 95  1  0
 96 94  1  0
M  ISO  4  12 101  13 101  60 100  61 100
M  END
>  <TORSDO>  (20) 
F 25

>  <SCORE>  (20) 
-7.312

>  <name>  (20) 
20

>  <ligand_id>  (20) 
20

>  <original_smiles>  (20) 
[H]c1c([H])c([H])c2c(c1[H])C([H])([H])C([H])([H])C([H])([H])C2([H])N([H])C(=O)C1([H])N(C(=O)C([H])(N([H])C(=O)C([H])(N([H])C([H])([H])[H])C([H])([H])[H])C(C([H])([H])[H])(C([H])([H])[H])C([H])([H])[H])C([H])([H])c2c([H])c(OC([H])([H])C([H])([H])C([H])([H])N([H])c3c([H])c(C([H])([H])C([H])([H])[N+]([H])(C([H])([H])[H])C([H])([H])C([H])([H])C(=O)N4C([H])([H])C([H])([H])C([H])([H])C([H])(n5nc(-c6c([H])c([H])c(Oc7c([H])c([H])c(F)c([H])c7F)c([H])c6[H])c(C(=O)N([H])[H])c5N([H])[H])C4([H])[H])c([H])c([H])c3C([H])([H])[H])c([H])c([H])c2C1([H])[H]

>  <smiles>  (20) 
[H]c1c([H])c([H])c2c(c1[H])C([H])([H])C([H])([H])C([H])([H])C2([H])N([H])C(=O)C1([H])N(C(=O)C([H])(N([H])C(=O)C([H])(N([H])C([H])([H])[H])C([H])([H])[H])C(C([H])([H])[H])(C([H])([H])[H])C([H])([H])[H])C([H])([H])c2c([H])c(OC([H])([H])C([H])([H])C([H])([H])N([H])c3c([H])c(C([H])([H])C([H])([H])[N+]([H])(C([H])([H])[H])C([H])([H])C([H])([H])C(=O)N4C([H])([H])C([H])([H])C([H])([H])C([H])(n5nc(-c6c([H])c([H])c(Oc7c([H])c([H])c(F)c([H])c7F)c([H])c6[H])c(C(=O)N([H])[H])c5N([H])[H])C4([H])[H])c([H])c([H])c3C([H])([H])[H])c([H])c([H])c2C1([H])[H]

$$$$
21:0:0
     RDKit          3D

 99108  0  0  1  0  0  0  0  0999 V2000
  -31.9340  -23.7250   20.5970 N   0  0  0  0  0  0  0  0  0  0  0  0
  -31.7990  -24.3280   21.4080 H   0  0  0  0  0  0  0  0  0  0  0  0
  -31.7620  -19.9770   20.2880 C   0  0  0  0  0  3  0  0  0  0  0  0
  -30.2660  -20.7530   22.0390 C   0  0  0  0  0  3  0  0  0  0  0  0
  -32.1710  -21.3050   20.0450 C   0  0  0  0  0  3  0  0  0  0  0  0
  -30.6770  -22.0790   21.8030 C   0  0  0  0  0  3  0  0  0  0  0  0
  -30.7910  -19.6930   21.2710 C   0  0  0  0  0  0  0  0  0  0  0  0
  -31.6200  -22.3720   20.8010 C   0  0  0  0  0  0  0  0  0  0  0  0
  -30.6590  -14.4710   20.2000 C   0  0  0  0  0  0  0  0  0  0  0  0
  -30.2660  -12.4170   18.8920 C   0  0  0  0  0  2  0  0  0  0  0  0
  -29.2550  -12.7340   17.7740 C   0  0  0  0  0  2  0  0  0  0  0  0
  -27.8040  -12.5450   18.2720 C   0  0  0  0  0  2  0  0  0  0  0  0
  -27.5490  -13.2940   19.6050 C   0  0  0  0  0  3  0  0  0  0  0  0
  -28.6660  -12.9870   20.6320 C   0  0  0  0  0  2  0  0  0  0  0  0
  -29.9600  -13.3200   20.0080 N   0  0  0  0  0  0  0  0  0  0  0  0
  -31.7420  -14.7080   19.6560 O   0  0  0  0  0  0  0  0  0  0  0  0
  -29.6480  -17.7400   20.1480 C   0  0  0  0  0  2  0  0  0  0  0  0
  -31.2800  -17.2710   22.0000 C   0  0  0  0  0  2  0  0  0  0  0  0
  -29.0830  -16.3240   20.3050 C   0  0  0  0  0  2  0  0  0  0  0  0
  -30.5990  -15.9040   22.2150 C   0  0  0  0  0  2  0  0  0  0  0  0
  -30.2510  -18.2780   21.4550 C   0  0  0  0  0  3  0  0  0  0  0  0
  -30.0310  -15.3990   20.9570 N   0  0  0  0  0  0  0  0  0  0  0  0
  -25.1950  -13.8990   20.4580 C   0  0  0  0  0  0  0  0  0  0  0  0
  -24.1520  -13.1120   20.8740 C   0  0  0  0  0  0  0  0  0  0  0  0
  -24.6130  -11.7640   20.7800 C   0  0  0  0  0  0  0  0  0  0  0  0
  -26.2240  -13.0200   20.1480 N   0  0  0  0  0  0  0  0  0  0  0  0
  -25.8810  -11.7320   20.3980 N   0  0  0  0  0  0  0  0  0  0  0  0
  -23.9020  -10.4980   20.9820 C   0  0  0  0  0  0  0  0  0  0  0  0
  -24.3670   -9.5310   21.8970 C   0  0  0  0  0  3  0  0  0  0  0  0
  -23.6570   -8.3260   22.0870 C   0  0  0  0  0  3  0  0  0  0  0  0
  -22.4680   -8.0830   21.3580 C   0  0  0  0  0  0  0  0  0  0  0  0
  -22.0280   -9.0380   20.4260 C   0  0  0  0  0  3  0  0  0  0  0  0
  -22.7390  -10.2340   20.2350 C   0  0  0  0  0  3  0  0  0  0  0  0
  -21.7250   -6.9330   21.4560 O   0  0  0  0  0  0  0  0  0  0  0  0
  -21.6780   -6.2060   22.6170 C   0  0  0  0  0  0  0  0  0  0  0  0
  -21.2470   -6.7750   23.8360 C   0  0  0  0  0  3  0  0  0  0  0  0
  -21.1440   -5.9720   24.9880 C   0  0  0  0  0  3  0  0  0  0  0  0
  -21.4650   -4.6020   24.9260 C   0  0  0  0  0  0  0  0  0  0  0  0
  -21.8880   -4.0320   23.7130 C   0  0  0  0  0  3  0  0  0  0  0  0
  -21.9920   -4.8320   22.5610 C   0  0  0  0  0  0  0  0  0  0  0  0
  -22.3800   -4.2740   21.3870 F   0  0  0  0  0  0  0  0  0  0  0  0
  -21.3600   -3.8310   26.0330 F   0  0  0  0  0  0  0  0  0  0  0  0
  -22.7720  -13.5790   21.2420 C   0  0  0  0  0  0  0  0  0  0  0  0
  -22.0990  -12.8570   22.1330 N   0  0  0  0  0  0  0  0  0  0  0  0
  -22.3000  -14.6140   20.7770 O   0  0  0  0  0  0  0  0  0  0  0  0
  -22.4930  -12.0160   22.5280 H   0  0  0  0  0  0  0  0  0  0  0  0
  -21.1770  -13.1500   22.4220 H   0  0  0  0  0  0  0  0  0  0  0  0
  -25.3370  -15.2750   20.3040 N   0  0  0  0  0  0  0  0  0  0  0  0
  -24.5800  -15.9190   20.5060 H   0  0  0  0  0  0  0  0  0  0  0  0
  -26.1590  -15.7440   19.9440 H   0  0  0  0  0  0  0  0  0  0  0  0
  -32.9620  -24.1470   19.6450 C   0  0  0  0  0  2  0  0  0  0  0  0
  -33.6320  -26.5690   20.0350 C   0  0  0  0  0  1  0  0  0  0  0  0
  -32.7630  -25.6080   19.1920 C   0  0  0  0  0  3  0  0  0  0  0  0
  -31.3100  -25.9140   19.1550 N   0  0  0  0  0  4  0  0  0  0  0  0
  -31.0120  -25.8590   18.1920 H   0  0  0  0  0  0  0  0  0  0  0  0
  -30.8790  -25.1320   19.6380 H   0  0  0  0  0  0  0  0  0  0  0  0
  -30.8500  -27.1950   19.7460 C   0  0  0  0  0  2  0  0  0  0  0  0
  -29.4290  -27.5550   19.3130 C   0  0  0  0  0  2  0  0  0  0  0  0
  -28.4330  -26.8260   20.0400 O   0  0  0  0  0  0  0  0  0  0  0  0
  -24.5580  -31.8890   23.2230 C   0  0  0  0  0  0  0  0  0  0  0  0
  -27.2410  -27.5040   20.1320 C   0  0  0  0  0  0  0  0  0  0  0  0
  -23.3500  -30.4730   21.5830 C   0  0  0  0  0  3  0  0  0  0  0  0
  -24.8130  -28.9360   20.1640 C   0  0  0  0  0  0  0  0  0  0  0  0
  -25.8630  -30.8610   21.3770 C   0  0  0  0  0  2  0  0  0  0  0  0
  -25.9580  -29.4900   20.7480 C   0  0  0  0  0  0  0  0  0  0  0  0
  -27.1650  -28.7690   20.7540 C   0  0  0  0  0  3  0  0  0  0  0  0
  -26.0780  -26.9400   19.5700 C   0  0  0  0  0  3  0  0  0  0  0  0
  -24.8640  -27.6540   19.5800 C   0  0  0  0  0  3  0  0  0  0  0  0
  -23.5580  -29.7770   20.2080 C   0  0  0  0  0  2  0  0  0  0  0  0
  -24.6070  -31.0920   22.1200 N   0  0  0  0  0  0  0  0  0  0  0  0
  -23.4780  -32.1560   23.7690 O   0  0  0  0  0  0  0  0  0  0  0  0
  -22.7110  -29.4550   22.5510 C   0  0  0  0  0  0  0  0  0  0  0  0
  -21.3850  -29.2690   22.4340 N   0  0  0  0  0  0  0  0  0  0  0  0
  -23.4030  -28.8300   23.3590 O   0  0  0  0  0  0  0  0  0  0  0  0
  -20.8900  -29.8340   21.7560 H   0  0  0  0  0  0  0  0  0  0  0  0
  -18.0160  -28.0820   22.9470 C   0  0  0  0  0  0  0  0  0  0  0  0
  -20.5750  -28.3270   23.2020 C   0  0  0  0  0  3  0  0  0  0  0  0
  -20.6680  -26.9000   22.6140 C   0  0  0  0  0  2  0  0  0  0  0  0
  -19.5580  -26.5870   21.6060 C   0  0  0  0  0  2  0  0  0  0  0  0
  -18.1810  -26.7360   22.2600 C   0  0  0  0  0  2  0  0  0  0  0  0
  -19.1390  -28.8380   23.3720 C   0  0  0  0  0  0  0  0  0  0  0  0
  -18.9300  -30.1010   23.9650 C   0  0  0  0  0  3  0  0  0  0  0  0
  -17.6270  -30.6070   24.1430 C   0  0  0  0  0  3  0  0  0  0  0  0
  -16.5180  -29.8440   23.7370 C   0  0  0  0  0  3  0  0  0  0  0  0
  -16.7130  -28.5860   23.1440 C   0  0  0  0  0  3  0  0  0  0  0  0
  -25.8460  -32.5230   23.8380 C   0  0  0  0  0  3  0  0  0  0  0  0
  -25.5400  -33.9200   24.1720 N   0  0  0  0  0  0  0  0  0  0  0  0
  -25.8760  -34.9740   23.4150 C   0  0  0  0  0  0  0  0  0  0  0  0
  -26.5500  -34.8720   22.3850 O   0  0  0  0  0  0  0  0  0  0  0  0
  -24.9530  -34.0740   24.9810 H   0  0  0  0  0  0  0  0  0  0  0  0
  -24.1590  -36.7680   23.0360 C   0  0  0  0  0  1  0  0  0  0  0  0
  -25.3830  -36.3590   23.8700 C   0  0  0  0  0  3  0  0  0  0  0  0
  -27.5110  -37.2310   24.7350 C   0  0  0  0  0  1  0  0  0  0  0  0
  -26.4180  -37.4120   23.7820 N   0  0  0  0  0  0  0  0  0  0  0  0
  -26.0120  -38.3310   23.9380 H   0  0  0  0  0  0  0  0  0  0  0  0
  -26.3800  -31.7460   25.1020 C   0  0  1  0  0  0  0  0  0  0  0  0
  -25.3000  -31.4830   26.1780 C   0  0  0  0  0  1  0  0  0  0  0  0
  -26.9750  -30.3780   24.6910 C   0  0  0  0  0  1  0  0  0  0  0  0
  -27.5270  -32.5450   25.7650 C   0  0  0  0  0  1  0  0  0  0  0  0
  1  8  1  0
  1  2  1  0
  3  7  1  0
  5  3  2  0
  5  8  1  0
  6  4  1  0
  7  4  2  0
  8  6  2  0
  9 22  1  0
 10 15  1  0
 11 12  1  0
 11 10  1  0
 13 12  1  0
 13 26  1  0
 13 14  1  0
 15  9  1  0
 15 14  1  0
 16  9  2  0
 17 19  1  0
 17 21  1  0
 18 20  1  0
 19 22  1  0
 21  7  1  0
 21 18  1  0
 22 20  1  0
 23 24  2  0
 24 43  1  0
 25 24  1  0
 25 28  1  0
 26 27  1  0
 26 23  1  0
 27 25  2  0
 28 29  1  0
 29 30  2  0
 31 34  1  0
 31 30  1  0
 32 31  2  0
 33 32  1  0
 33 28  2  0
 34 35  1  0
 35 36  1  0
 36 37  2  0
 38 37  1  0
 38 42  1  0
 39 38  2  0
 40 35  2  0
 40 39  1  0
 41 40  1  0
 43 44  1  0
 44 47  1  0
 44 46  1  0
 45 43  2  0
 48 23  1  0
 48 49  1  0
 50 48  1  0
 51  1  1  0
 53 51  1  0
 53 52  1  0
 54 53  1  0
 54 56  1  0
 54 57  1  0
 55 54  1  0
 58 57  1  0
 58 59  1  0
 59 61  1  0
 60 71  2  0
 61 66  1  0
 62 70  1  0
 62 72  1  0
 63 69  1  0
 63 65  1  0
 64 70  1  0
 65 66  2  0
 65 64  1  0
 67 68  1  0
 67 61  2  0
 68 63  2  0
 69 62  1  0
 70 60  1  0
 72 74  2  0
 73 72  1  0
 75 73  1  0
 76 85  2  0
 76 81  1  0
 77 73  1  0
 77 81  1  0
 78 77  1  0
 79 80  1  0
 79 78  1  0
 80 76  1  0
 81 82  2  0
 82 83  1  0
 84 83  2  0
 85 84  1  0
 86 60  1  0
 86 87  1  0
 86 96  1  0
 87 90  1  0
 88 92  1  0
 88 87  1  0
 89 88  2  0
 92 91  1  0
 94 92  1  0
 94 95  1  0
 94 93  1  0
 96 99  1  1
 96 97  1  0
 98 96  1  0
M  ISO  4   9 100  22 100  58 101  59 101
M  END
>  <TORSDO>  (21) 
F 22

>  <SCORE>  (21) 
-13.083

>  <name>  (21) 
21

>  <ligand_id>  (21) 
21

>  <original_smiles>  (21) 
[H]c1c([H])c([H])c2c(c1[H])C([H])([H])C([H])([H])C([H])([H])C2([H])N([H])C(=O)C1([H])N(C(=O)C([H])(N([H])C(=O)C([H])(N([H])C([H])([H])[H])C([H])([H])[H])C(C([H])([H])[H])(C([H])([H])[H])C([H])([H])[H])C([H])([H])c2c([H])c(OC([H])([H])C([H])([H])[N+]([H])([H])C([H])(C([H])([H])[H])C([H])([H])N([H])c3c([H])c([H])c(C4([H])C([H])([H])C([H])([H])N(C(=O)N5C([H])([H])C([H])([H])C([H])([H])C([H])(n6nc(-c7c([H])c([H])c(Oc8c([H])c([H])c(F)c([H])c8F)c([H])c7[H])c(C(=O)N([H])[H])c6N([H])[H])C5([H])[H])C([H])([H])C4([H])[H])c([H])c3[H])c([H])c([H])c2C1([H])[H]

>  <smiles>  (21) 
[H]c1c([H])c([H])c2c(c1[H])C([H])([H])C([H])([H])C([H])([H])C2([H])N([H])C(=O)C1([H])N(C(=O)C([H])(N([H])C(=O)C([H])(N([H])C([H])([H])[H])C([H])([H])[H])C(C([H])([H])[H])(C([H])([H])[H])C([H])([H])[H])C([H])([H])c2c([H])c(OC([H])([H])C([H])([H])[N+]([H])([H])C([H])(C([H])([H])[H])C([H])([H])N([H])c3c([H])c([H])c(C4([H])C([H])([H])C([H])([H])N(C(=O)N5C([H])([H])C([H])([H])C([H])([H])C([H])(n6nc(-c7c([H])c([H])c(Oc8c([H])c([H])c(F)c([H])c8F)c([H])c7[H])c(C(=O)N([H])[H])c6N([H])[H])C5([H])[H])C([H])([H])C4([H])[H])c([H])c3[H])c([H])c([H])c2C1([H])[H]

$$$$
22:0:0
     RDKit          3D

 99106  0  0  1  0  0  0  0  0999 V2000
  -27.4010  -18.1770   20.3430 C   0  0  0  0  0  1  0  0  0  0  0  0
  -28.3080  -18.4220   19.1190 C   0  0  0  0  0  3  0  0  0  0  0  0
  -28.3300  -17.0620   18.1280 C   0  0  0  0  0  2  0  0  0  0  0  0
  -27.9140  -15.4890   18.5440 C   0  0  0  0  0  2  0  0  0  0  0  0
  -28.1660  -12.8030   18.2480 C   0  0  0  0  0  0  0  0  0  0  0  0
  -28.5030  -14.1560   17.9440 N   0  0  0  0  0  0  0  0  0  0  0  0
  -27.0450  -12.5850   18.6980 O   0  0  0  0  0  0  0  0  0  0  0  0
  -29.3870  -14.2580   17.4570 H   0  0  0  0  0  0  0  0  0  0  0  0
  -29.1820  -11.4940   18.1040 C   0  0  0  0  0  2  0  0  0  0  0  0
  -29.7890  -10.1600   19.0680 C   0  0  0  0  0  2  0  0  0  0  0  0
  -30.3920   -9.7500   20.6520 C   0  0  0  0  0  2  0  0  0  0  0  0
  -31.7320   -9.1660   21.5690 C   0  0  0  0  0  2  0  0  0  0  0  0
  -33.1970  -11.1880   22.6790 C   0  0  0  0  0  0  0  0  0  0  0  0
  -32.9350  -11.4870   20.6080 C   0  0  0  0  0  2  0  0  0  0  0  0
  -32.0870  -12.0020   19.5480 C   0  0  0  0  0  2  0  0  0  0  0  0
  -30.9270  -12.8020   20.1620 C   0  0  0  0  0  2  0  0  0  0  0  0
  -30.1530  -12.5580   21.4300 C   0  0  0  0  0  3  0  0  0  0  0  0
  -30.9760  -11.9130   22.4960 C   0  0  0  0  0  2  0  0  0  0  0  0
  -32.3560  -11.7560   21.9640 N   0  0  0  0  0  0  0  0  0  0  0  0
  -34.3010  -11.7280   22.9020 O   0  0  0  0  0  0  0  0  0  0  0  0
  -32.7960   -9.8540   22.5570 N   0  0  0  0  0  0  0  0  0  0  0  0
  -33.4860   -9.2210   22.9390 H   0  0  0  0  0  0  0  0  0  0  0  0
  -27.8480  -13.6110   21.4340 C   0  0  0  0  0  0  0  0  0  0  0  0
  -26.5600  -13.1400   21.4440 C   0  0  0  0  0  0  0  0  0  0  0  0
  -26.6650  -11.7280   21.4160 C   0  0  0  0  0  0  0  0  0  0  0  0
  -28.6740  -12.5110   21.4270 N   0  0  0  0  0  0  0  0  0  0  0  0
  -27.9370  -11.3680   21.4420 N   0  0  0  0  0  0  0  0  0  0  0  0
  -25.6210  -10.6890   21.3380 C   0  0  0  0  0  0  0  0  0  0  0  0
  -25.5910   -9.6130   22.2540 C   0  0  0  0  0  3  0  0  0  0  0  0
  -24.5570   -8.6480   22.1910 C   0  0  0  0  0  3  0  0  0  0  0  0
  -23.5330   -8.7710   21.2130 C   0  0  0  0  0  0  0  0  0  0  0  0
  -23.5950   -9.8240   20.2920 C   0  0  0  0  0  3  0  0  0  0  0  0
  -24.6210  -10.7800   20.3550 C   0  0  0  0  0  3  0  0  0  0  0  0
  -22.4900   -7.8930   21.0660 O   0  0  0  0  0  0  0  0  0  0  0  0
  -21.9290   -7.2540   22.1460 C   0  0  0  0  0  0  0  0  0  0  0  0
  -21.3690   -7.9660   23.2330 C   0  0  0  0  0  3  0  0  0  0  0  0
  -20.7490   -7.2670   24.2860 C   0  0  0  0  0  3  0  0  0  0  0  0
  -20.6560   -5.8590   24.2490 C   0  0  0  0  0  0  0  0  0  0  0  0
  -21.1980   -5.1580   23.1620 C   0  0  0  0  0  3  0  0  0  0  0  0
  -21.8350   -5.8540   22.1170 C   0  0  0  0  0  0  0  0  0  0  0  0
  -22.3410   -5.1690   21.0610 F   0  0  0  0  0  0  0  0  0  0  0  0
  -20.0560   -5.1840   25.2560 F   0  0  0  0  0  0  0  0  0  0  0  0
  -25.3230  -13.9790   21.4330 C   0  0  0  0  0  0  0  0  0  0  0  0
  -24.2850  -13.5180   22.1280 N   0  0  0  0  0  0  0  0  0  0  0  0
  -25.2890  -15.0720   20.8770 O   0  0  0  0  0  0  0  0  0  0  0  0
  -24.3260  -12.6250   22.5990 H   0  0  0  0  0  0  0  0  0  0  0  0
  -23.4590  -14.0860   22.2380 H   0  0  0  0  0  0  0  0  0  0  0  0
  -28.3710  -14.8920   21.4680 N   0  0  0  0  0  0  0  0  0  0  0  0
  -27.8170  -15.7300   21.3460 H   0  0  0  0  0  0  0  0  0  0  0  0
  -29.3690  -15.0210   21.5190 H   0  0  0  0  0  0  0  0  0  0  0  0
  -28.2700  -20.0330   18.6040 C   0  0  0  0  0  2  0  0  0  0  0  0
  -28.4170  -21.4140   19.5580 C   0  0  0  0  0  3  0  0  0  0  0  0
  -29.7020  -21.3240   20.2780 N   0  0  0  0  0  4  0  0  0  0  0  0
  -29.7550  -20.4730   19.7430 H   0  0  0  0  0  0  0  0  0  0  0  0
  -30.0790  -20.6760   20.9540 H   0  0  0  0  0  0  0  0  0  0  0  0
  -29.1180  -21.5280   21.0730 H   0  0  0  0  0  0  0  0  0  0  0  0
  -28.2490  -23.0140   19.0230 C   0  0  0  0  0  2  0  0  0  0  0  0
  -28.2120  -24.3890   20.0120 C   0  0  0  0  0  2  0  0  0  0  0  0
  -28.4730  -25.9080   19.7500 O   0  0  0  0  0  0  0  0  0  0  0  0
  -24.6910  -31.4910   22.8930 C   0  0  0  0  0  0  0  0  0  0  0  0
  -27.4530  -26.8980   19.8050 C   0  0  0  0  0  0  0  0  0  0  0  0
  -23.6230  -30.1310   21.1480 C   0  0  0  0  0  3  0  0  0  0  0  0
  -25.1590  -28.6300   19.7640 C   0  0  0  0  0  0  0  0  0  0  0  0
  -26.1850  -30.4160   21.1640 C   0  0  0  0  0  2  0  0  0  0  0  0
  -26.3020  -29.0560   20.4550 C   0  0  0  0  0  0  0  0  0  0  0  0
  -27.4690  -28.1980   20.4620 C   0  0  0  0  0  3  0  0  0  0  0  0
  -26.2790  -26.5610   19.1200 C   0  0  0  0  0  3  0  0  0  0  0  0
  -25.1580  -27.4000   19.0920 C   0  0  0  0  0  3  0  0  0  0  0  0
  -23.9350  -29.5190   19.7610 C   0  0  0  0  0  2  0  0  0  0  0  0
  -24.8520  -30.6980   21.7930 N   0  0  0  0  0  0  0  0  0  0  0  0
  -23.5650  -31.7480   23.3520 O   0  0  0  0  0  0  0  0  0  0  0  0
  -22.9090  -29.0720   22.0310 C   0  0  0  0  0  0  0  0  0  0  0  0
  -21.5880  -28.9140   21.8440 N   0  0  0  0  0  0  0  0  0  0  0  0
  -23.5470  -28.4020   22.8450 O   0  0  0  0  0  0  0  0  0  0  0  0
  -21.1330  -29.5060   21.1590 H   0  0  0  0  0  0  0  0  0  0  0  0
  -18.1730  -27.7560   22.1910 C   0  0  0  0  0  0  0  0  0  0  0  0
  -20.7300  -27.9540   22.5370 C   0  0  0  0  0  3  0  0  0  0  0  0
  -20.8220  -26.5530   21.8850 C   0  0  0  0  0  2  0  0  0  0  0  0
  -19.7400  -26.3120   20.8270 C   0  0  0  0  0  2  0  0  0  0  0  0
  -18.3450  -26.4450   21.4430 C   0  0  0  0  0  2  0  0  0  0  0  0
  -19.2940  -28.4730   22.6910 C   0  0  0  0  0  0  0  0  0  0  0  0
  -19.0800  -29.7040   23.3490 C   0  0  0  0  0  3  0  0  0  0  0  0
  -17.7800  -30.2160   23.5150 C   0  0  0  0  0  3  0  0  0  0  0  0
  -16.6740  -29.4970   23.0320 C   0  0  0  0  0  3  0  0  0  0  0  0
  -16.8720  -28.2690   22.3760 C   0  0  0  0  0  3  0  0  0  0  0  0
  -25.9080  -32.1340   23.6190 C   0  0  0  0  0  3  0  0  0  0  0  0
  -26.3530  -31.3380   24.9090 C   0  0  1  0  0  0  0  0  0  0  0  0
  -25.1980  -31.0550   25.8970 C   0  0  0  0  0  1  0  0  0  0  0  0
  -26.9840  -29.9820   24.5250 C   0  0  0  0  0  1  0  0  0  0  0  0
  -27.4410  -32.1360   25.6670 C   0  0  0  0  0  1  0  0  0  0  0  0
  -25.5340  -33.5120   23.9770 N   0  0  0  0  0  0  0  0  0  0  0  0
  -25.9510  -34.6120   23.3360 C   0  0  0  0  0  0  0  0  0  0  0  0
  -26.7580  -34.5750   22.4050 O   0  0  0  0  0  0  0  0  0  0  0  0
  -24.8330  -33.6150   24.6960 H   0  0  0  0  0  0  0  0  0  0  0  0
  -24.2780  -36.4300   22.8470 C   0  0  0  0  0  1  0  0  0  0  0  0
  -25.3850  -35.9670   23.8070 C   0  0  0  0  0  3  0  0  0  0  0  0
  -27.3600  -36.7950   25.0130 C   0  0  0  0  0  1  0  0  0  0  0  0
  -26.4120  -37.0270   23.9250 N   0  0  0  0  0  0  0  0  0  0  0  0
  -25.9760  -37.9340   24.0750 H   0  0  0  0  0  0  0  0  0  0  0  0
  2  1  1  0
  3  4  1  0
  3  2  1  0
  5  7  2  0
  6  5  1  0
  6  4  1  0
  8  6  1  0
  9  5  1  0
  9 10  1  0
 10 11  1  0
 11 12  1  0
 12 21  1  0
 13 20  2  0
 14 19  1  0
 15 16  1  0
 15 14  1  0
 17 16  1  0
 17 18  1  0
 19 18  1  0
 19 13  1  0
 21 13  1  0
 21 22  1  0
 23 24  2  0
 23 48  1  0
 25 27  2  0
 25 24  1  0
 26 17  1  0
 26 23  1  0
 26 27  1  0
 28 25  1  0
 28 29  1  0
 30 29  2  0
 31 30  1  0
 32 33  1  0
 32 31  2  0
 33 28  2  0
 34 31  1  0
 34 35  1  0
 35 36  1  0
 36 37  2  0
 38 37  1  0
 38 42  1  0
 39 38  2  0
 40 35  2  0
 40 39  1  0
 41 40  1  0
 43 24  1  0
 43 44  1  0
 44 47  1  0
 44 46  1  0
 45 43  2  0
 48 50  1  0
 49 48  1  0
 51  2  1  0
 52 51  1  0
 52 53  1  0
 53 55  1  0
 53 56  1  0
 54 53  1  0
 57 52  1  0
 57 58  1  0
 59 61  1  0
 59 58  1  0
 60 71  2  0
 61 66  1  0
 62 70  1  0
 62 72  1  0
 63 65  1  0
 64 70  1  0
 65 66  2  0
 65 64  1  0
 67 61  2  0
 68 67  1  0
 68 63  2  0
 69 63  1  0
 69 62  1  0
 70 60  1  0
 72 74  2  0
 73 72  1  0
 75 73  1  0
 76 85  2  0
 76 81  1  0
 77 73  1  0
 77 81  1  0
 78 77  1  0
 79 80  1  0
 79 78  1  0
 80 76  1  0
 81 82  2  0
 82 83  1  0
 84 83  2  0
 85 84  1  0
 86 60  1  0
 86 91  1  0
 86 87  1  0
 87 90  1  1
 87 88  1  0
 89 87  1  0
 91 94  1  0
 92 96  1  0
 92 91  1  0
 93 92  2  0
 96 95  1  0
 96 98  1  0
 98 99  1  0
 98 97  1  0
M  ISO  4  13 100  21 100  58 101  59 101
M  END
>  <TORSDO>  (22) 
F 28

>  <SCORE>  (22) 
-8.389

>  <name>  (22) 
22

>  <ligand_id>  (22) 
22

>  <original_smiles>  (22) 
[H]c1c([H])c([H])c2c(c1[H])C([H])([H])C([H])([H])C([H])([H])C2([H])N([H])C(=O)C1([H])N(C(=O)C([H])(N([H])C(=O)C([H])(N([H])C([H])([H])[H])C([H])([H])[H])C(C([H])([H])[H])(C([H])([H])[H])C([H])([H])[H])C([H])([H])c2c([H])c(OC([H])([H])C([H])([H])C([H])(C([H])([H])C([H])(C([H])([H])[H])C([H])([H])C([H])([H])N([H])C(=O)C([H])([H])C([H])([H])C([H])([H])C([H])([H])N([H])C(=O)N3C([H])([H])C([H])([H])C([H])([H])C([H])(n4nc(-c5c([H])c([H])c(Oc6c([H])c([H])c(F)c([H])c6F)c([H])c5[H])c(C(=O)N([H])[H])c4N([H])[H])C3([H])[H])[N+]([H])([H])[H])c([H])c([H])c2C1([H])[H]

>  <smiles>  (22) 
[H]c1c([H])c([H])c2c(c1[H])C([H])([H])C([H])([H])C([H])([H])C2([H])N([H])C(=O)C1([H])N(C(=O)C([H])(N([H])C(=O)C([H])(N([H])C([H])([H])[H])C([H])([H])[H])C(C([H])([H])[H])(C([H])([H])[H])C([H])([H])[H])C([H])([H])c2c([H])c(OC([H])([H])C([H])([H])C([H])(C([H])([H])C([H])(C([H])([H])[H])C([H])([H])C([H])([H])N([H])C(=O)C([H])([H])C([H])([H])C([H])([H])C([H])([H])N([H])C(=O)N3C([H])([H])C([H])([H])C([H])([H])C([H])(n4nc(-c5c([H])c([H])c(Oc6c([H])c([H])c(F)c([H])c6F)c([H])c5[H])c(C(=O)N([H])[H])c4N([H])[H])C3([H])[H])[N+]([H])([H])[H])c([H])c([H])c2C1([H])[H]

$$$$
23:0:0
     RDKit          3D

 98106  0  0  1  0  0  0  0  0999 V2000
  -27.5050  -25.1110   21.4630 C   0  0  0  0  0  3  0  0  0  0  0  0
  -26.7630  -23.9350   21.2800 C   0  0  0  0  0  3  0  0  0  0  0  0
  -28.4350  -24.8780   19.2210 C   0  0  0  0  0  3  0  0  0  0  0  0
  -27.7020  -23.6860   19.0320 C   0  0  0  0  0  0  0  0  0  0  0  0
  -28.2590  -25.6380   20.3930 C   0  0  0  0  0  0  0  0  0  0  0  0
  -26.8010  -23.2570   20.0420 C   0  0  0  0  0  0  0  0  0  0  0  0
  -24.5780  -22.5370   19.8470 C   0  0  0  0  0  1  0  0  0  0  0  0
  -25.9620  -22.2010   19.8090 O   0  0  0  0  0  0  0  0  0  0  0  0
  -27.8470  -22.9470   17.7020 C   0  0  0  0  0  2  0  0  0  0  0  0
  -28.0620  -21.4290   17.8320 C   0  0  0  0  0  2  0  0  0  0  0  0
  -29.0610  -21.1260   18.8750 N   0  0  0  0  0  4  0  0  0  0  0  0
  -29.1480  -21.9680   19.4220 H   0  0  0  0  0  0  0  0  0  0  0  0
  -29.9550  -20.9300   18.4490 H   0  0  0  0  0  0  0  0  0  0  0  0
  -28.6620  -20.0430   19.7900 C   0  0  0  0  0  2  0  0  0  0  0  0
  -29.5260  -19.9620   21.0670 C   0  0  0  0  0  2  0  0  0  0  0  0
  -31.0680  -19.9470   20.9060 C   0  0  0  0  0  2  0  0  0  0  0  0
  -31.6840  -18.8930   19.9660 C   0  0  0  0  0  2  0  0  0  0  0  0
  -31.1490  -17.4580   20.0970 C   0  0  0  0  0  2  0  0  0  0  0  0
  -31.3250  -16.7470   21.4610 C   0  0  0  0  0  2  0  0  0  0  0  0
  -31.2150  -14.4330   20.5990 C   0  0  0  0  0  0  0  0  0  0  0  0
  -30.7880  -12.2870   19.4890 C   0  0  0  0  0  2  0  0  0  0  0  0
  -29.9060  -12.4840   18.2430 C   0  0  0  0  0  2  0  0  0  0  0  0
  -28.4140  -12.4290   18.6230 C   0  0  0  0  0  2  0  0  0  0  0  0
  -28.0670  -13.3370   19.8340 C   0  0  0  0  0  3  0  0  0  0  0  0
  -29.0760  -13.1380   20.9910 C   0  0  0  0  0  2  0  0  0  0  0  0
  -30.4400  -13.3280   20.4650 N   0  0  0  0  0  0  0  0  0  0  0  0
  -32.2770  -14.5890   19.9910 O   0  0  0  0  0  0  0  0  0  0  0  0
  -30.7540  -15.3960   21.4040 N   0  0  0  0  0  0  0  0  0  0  0  0
  -29.9220  -15.2000   21.9400 H   0  0  0  0  0  0  0  0  0  0  0  0
  -25.6800  -14.0710   20.4840 C   0  0  0  0  0  0  0  0  0  0  0  0
  -24.5600  -13.3550   20.8050 C   0  0  0  0  0  0  0  0  0  0  0  0
  -24.9440  -11.9790   20.7570 C   0  0  0  0  0  0  0  0  0  0  0  0
  -26.6850  -13.1380   20.2700 N   0  0  0  0  0  0  0  0  0  0  0  0
  -26.2390  -11.8730   20.4840 N   0  0  0  0  0  0  0  0  0  0  0  0
  -24.1400  -10.7580   20.9040 C   0  0  0  0  0  0  0  0  0  0  0  0
  -24.4920   -9.7520   21.8310 C   0  0  0  0  0  3  0  0  0  0  0  0
  -23.6950   -8.5940   21.9720 C   0  0  0  0  0  3  0  0  0  0  0  0
  -22.5310   -8.4340   21.1850 C   0  0  0  0  0  0  0  0  0  0  0  0
  -22.1980   -9.4260   20.2470 C   0  0  0  0  0  3  0  0  0  0  0  0
  -22.9930  -10.5750   20.1040 C   0  0  0  0  0  3  0  0  0  0  0  0
  -21.7170   -7.3300   21.2300 O   0  0  0  0  0  0  0  0  0  0  0  0
  -21.5830   -6.5810   22.3710 C   0  0  0  0  0  0  0  0  0  0  0  0
  -21.1530   -7.1490   23.5890 C   0  0  0  0  0  3  0  0  0  0  0  0
  -20.9610   -6.3290   24.7190 C   0  0  0  0  0  3  0  0  0  0  0  0
  -21.1890   -4.9420   24.6300 C   0  0  0  0  0  0  0  0  0  0  0  0
  -21.6100   -4.3730   23.4150 C   0  0  0  0  0  3  0  0  0  0  0  0
  -21.8050   -5.1910   22.2880 C   0  0  0  0  0  0  0  0  0  0  0  0
  -22.1910   -4.6360   21.1130 F   0  0  0  0  0  0  0  0  0  0  0  0
  -21.0000   -4.1510   25.7140 F   0  0  0  0  0  0  0  0  0  0  0  0
  -23.1830  -13.9020   21.0570 C   0  0  0  0  0  0  0  0  0  0  0  0
  -22.4070  -13.2440   21.9090 N   0  0  0  0  0  0  0  0  0  0  0  0
  -22.8100  -14.9520   20.5330 O   0  0  0  0  0  0  0  0  0  0  0  0
  -22.7260  -12.3990   22.3620 H   0  0  0  0  0  0  0  0  0  0  0  0
  -21.4810  -13.5900   22.1170 H   0  0  0  0  0  0  0  0  0  0  0  0
  -25.9230  -15.4350   20.3350 N   0  0  0  0  0  0  0  0  0  0  0  0
  -25.1880  -16.1250   20.4360 H   0  0  0  0  0  0  0  0  0  0  0  0
  -26.8110  -15.8360   20.0640 H   0  0  0  0  0  0  0  0  0  0  0  0
  -28.5590  -26.9780   20.3730 O   0  0  0  0  0  0  0  0  0  0  0  0
  -24.6730  -32.0770   23.4460 C   0  0  0  0  0  0  0  0  0  0  0  0
  -27.4310  -27.7670   20.3010 C   0  0  0  0  0  0  0  0  0  0  0  0
  -23.5210  -30.7140   21.7370 C   0  0  0  0  0  3  0  0  0  0  0  0
  -25.0250  -29.2440   20.3040 C   0  0  0  0  0  0  0  0  0  0  0  0
  -26.0540  -31.0940   21.6250 C   0  0  0  0  0  2  0  0  0  0  0  0
  -26.1650  -29.7510   20.9440 C   0  0  0  0  0  0  0  0  0  0  0  0
  -27.3740  -29.0170   20.9480 C   0  0  0  0  0  3  0  0  0  0  0  0
  -26.2740  -27.2920   19.6320 C   0  0  0  0  0  3  0  0  0  0  0  0
  -25.0730  -28.0110   19.6410 C   0  0  0  0  0  3  0  0  0  0  0  0
  -23.7730  -30.0860   20.3440 C   0  0  0  0  0  2  0  0  0  0  0  0
  -24.7660  -31.3070   22.3260 N   0  0  0  0  0  0  0  0  0  0  0  0
  -23.5740  -32.3320   23.9560 O   0  0  0  0  0  0  0  0  0  0  0  0
  -22.8520  -29.6600   22.6470 C   0  0  0  0  0  0  0  0  0  0  0  0
  -21.5330  -29.4760   22.4750 N   0  0  0  0  0  0  0  0  0  0  0  0
  -23.5160  -29.0140   23.4630 O   0  0  0  0  0  0  0  0  0  0  0  0
  -21.0630  -30.0450   21.7840 H   0  0  0  0  0  0  0  0  0  0  0  0
  -18.1400  -28.2950   22.8700 C   0  0  0  0  0  0  0  0  0  0  0  0
  -20.6950  -28.5210   23.1990 C   0  0  0  0  0  3  0  0  0  0  0  0
  -20.8000  -27.1110   22.5760 C   0  0  0  0  0  2  0  0  0  0  0  0
  -19.7140  -26.8320   21.5310 C   0  0  0  0  0  2  0  0  0  0  0  0
  -18.3190  -26.9680   22.1520 C   0  0  0  0  0  2  0  0  0  0  0  0
  -19.2570  -29.0320   23.3470 C   0  0  0  0  0  0  0  0  0  0  0  0
  -19.0370  -30.2770   23.9760 C   0  0  0  0  0  3  0  0  0  0  0  0
  -17.7330  -30.7850   24.1330 C   0  0  0  0  0  3  0  0  0  0  0  0
  -16.6300  -30.0440   23.6740 C   0  0  0  0  0  3  0  0  0  0  0  0
  -16.8340  -28.8010   23.0480 C   0  0  0  0  0  3  0  0  0  0  0  0
  -25.9370  -32.6940   24.1180 C   0  0  0  0  0  3  0  0  0  0  0  0
  -26.3870  -31.9260   25.4210 C   0  0  1  0  0  0  0  0  0  0  0  0
  -25.2410  -31.7000   26.4340 C   0  0  0  0  0  1  0  0  0  0  0  0
  -26.9810  -30.5420   25.0640 C   0  0  0  0  0  1  0  0  0  0  0  0
  -27.5090  -32.7200   26.1330 C   0  0  0  0  0  1  0  0  0  0  0  0
  -25.6380  -34.1010   24.4160 N   0  0  0  0  0  0  0  0  0  0  0  0
  -26.0050  -35.1340   23.6480 C   0  0  0  0  0  0  0  0  0  0  0  0
  -26.7070  -35.0060   22.6410 O   0  0  0  0  0  0  0  0  0  0  0  0
  -25.0250  -34.2810   25.1980 H   0  0  0  0  0  0  0  0  0  0  0  0
  -24.3070  -36.9340   23.2060 C   0  0  0  0  0  1  0  0  0  0  0  0
  -25.5170  -36.5350   24.0650 C   0  0  0  0  0  3  0  0  0  0  0  0
  -27.6340  -37.4120   24.9460 C   0  0  0  0  0  1  0  0  0  0  0  0
  -26.5630  -37.5760   23.9650 N   0  0  0  0  0  0  0  0  0  0  0  0
  -26.1610  -38.5010   24.0840 H   0  0  0  0  0  0  0  0  0  0  0  0
  2  1  1  0
  3  5  1  0
  4  3  2  0
  4  6  1  0
  5  1  2  0
  6  2  2  0
  8  7  1  0
  8  6  1  0
  9 10  1  0
  9  4  1  0
 10 11  1  0
 11 12  1  0
 11 14  1  0
 13 11  1  0
 14 15  1  0
 16 15  1  0
 17 18  1  0
 17 16  1  0
 18 19  1  0
 20 28  1  0
 21 26  1  0
 22 23  1  0
 22 21  1  0
 24 23  1  0
 24 33  1  0
 24 25  1  0
 26 20  1  0
 26 25  1  0
 27 20  2  0
 28 19  1  0
 28 29  1  0
 30 31  2  0
 31 50  1  0
 32 31  1  0
 32 35  1  0
 33 30  1  0
 33 34  1  0
 34 32  2  0
 35 36  1  0
 36 37  2  0
 38 41  1  0
 38 37  1  0
 39 38  2  0
 40 39  1  0
 40 35  2  0
 41 42  1  0
 42 43  1  0
 43 44  2  0
 45 44  1  0
 45 49  1  0
 46 45  2  0
 47 42  2  0
 47 46  1  0
 48 47  1  0
 50 51  1  0
 51 54  1  0
 51 53  1  0
 52 50  2  0
 55 56  1  0
 55 30  1  0
 57 55  1  0
 58  5  1  0
 59 70  2  0
 60 58  1  0
 60 65  1  0
 61 69  1  0
 61 71  1  0
 62 68  1  0
 62 64  1  0
 63 69  1  0
 64 65  2  0
 64 63  1  0
 66 67  1  0
 66 60  2  0
 67 62  2  0
 68 61  1  0
 69 59  1  0
 71 73  2  0
 72 71  1  0
 74 72  1  0
 75 84  2  0
 75 80  1  0
 76 72  1  0
 76 80  1  0
 77 76  1  0
 78 79  1  0
 78 77  1  0
 79 75  1  0
 80 81  2  0
 81 82  1  0
 83 82  2  0
 84 83  1  0
 85 59  1  0
 85 90  1  0
 85 86  1  0
 86 89  1  1
 86 87  1  0
 88 86  1  0
 90 93  1  0
 91 95  1  0
 91 90  1  0
 92 91  2  0
 95 94  1  0
 97 95  1  0
 97 98  1  0
 97 96  1  0
M  ISO  4   5 101  20 100  28 100  58 101
M  END
>  <TORSDO>  (23) 
F 26

>  <SCORE>  (23) 
-11.372

>  <name>  (23) 
23

>  <ligand_id>  (23) 
23

>  <original_smiles>  (23) 
[H]c1c([H])c([H])c2c(c1[H])C([H])([H])C([H])([H])C([H])([H])C2([H])N([H])C(=O)C1([H])N(C(=O)C([H])(N([H])C(=O)C([H])(N([H])C([H])([H])[H])C([H])([H])[H])C(C([H])([H])[H])(C([H])([H])[H])C([H])([H])[H])C([H])([H])c2c([H])c(Oc3c([H])c([H])c(OC([H])([H])[H])c(C([H])([H])C([H])([H])[N+]([H])([H])C([H])([H])C([H])([H])C([H])([H])C([H])([H])C([H])([H])C([H])([H])N([H])C(=O)N4C([H])([H])C([H])([H])C([H])([H])C([H])(n5nc(-c6c([H])c([H])c(Oc7c([H])c([H])c(F)c([H])c7F)c([H])c6[H])c(C(=O)N([H])[H])c5N([H])[H])C4([H])[H])c3[H])c([H])c([H])c2C1([H])[H]

>  <smiles>  (23) 
[H]c1c([H])c([H])c2c(c1[H])C([H])([H])C([H])([H])C([H])([H])C2([H])N([H])C(=O)C1([H])N(C(=O)C([H])(N([H])C(=O)C([H])(N([H])C([H])([H])[H])C([H])([H])[H])C(C([H])([H])[H])(C([H])([H])[H])C([H])([H])[H])C([H])([H])c2c([H])c(Oc3c([H])c([H])c(OC([H])([H])[H])c(C([H])([H])C([H])([H])[N+]([H])([H])C([H])([H])C([H])([H])C([H])([H])C([H])([H])C([H])([H])C([H])([H])N([H])C(=O)N4C([H])([H])C([H])([H])C([H])([H])C([H])(n5nc(-c6c([H])c([H])c(Oc7c([H])c([H])c(F)c([H])c7F)c([H])c6[H])c(C(=O)N([H])[H])c5N([H])[H])C4([H])[H])c3[H])c([H])c([H])c2C1([H])[H]

$$$$
24:0:0
     RDKit          3D

 92101  0  0  1  0  0  0  0  0999 V2000
  -28.3770  -21.1950   20.0320 N   0  0  0  0  0  4  0  0  0  0  0  0
  -27.4440  -21.3540   20.3760 H   0  0  0  0  0  0  0  0  0  0  0  0
  -28.2760  -20.9990   19.0490 H   0  0  0  0  0  0  0  0  0  0  0  0
  -28.3860  -17.0690   18.8510 C   0  0  0  0  0  2  0  0  0  0  0  0
  -29.6940  -16.3190   18.5440 C   0  0  0  0  0  2  0  0  0  0  0  0
  -27.7400  -18.8060   20.6760 C   0  0  0  0  0  2  0  0  0  0  0  0
  -30.0860  -19.1040   20.2650 C   0  0  0  0  0  2  0  0  0  0  0  0
  -28.4060  -17.4370   20.3490 C   0  0  0  0  0  3  0  0  0  0  0  0
  -29.8950  -17.5570   20.6460 C   0  0  0  0  0  3  0  0  0  0  0  0
  -28.8270  -19.9170   20.7520 C   0  0  0  0  0  3  0  0  0  0  0  0
  -30.6130  -16.4010   19.7880 C   0  0  2  0  0  0  0  0  0  0  0  0
  -31.9630  -17.0100   19.2930 C   0  0  0  0  0  1  0  0  0  0  0  0
  -30.9990  -14.9410   20.4430 C   0  0  0  0  0  0  0  0  0  0  0  0
  -30.7130  -12.6240   19.6050 C   0  0  0  0  0  2  0  0  0  0  0  0
  -29.8330  -12.5800   18.3440 C   0  0  0  0  0  2  0  0  0  0  0  0
  -28.3410  -12.4770   18.7270 C   0  0  0  0  0  2  0  0  0  0  0  0
  -27.9110  -13.4260   19.8810 C   0  0  0  0  0  3  0  0  0  0  0  0
  -28.9500  -13.4940   21.0170 C   0  0  0  0  0  2  0  0  0  0  0  0
  -30.2590  -13.7760   20.4090 N   0  0  0  0  0  0  0  0  0  0  0  0
  -32.2070  -14.7970   20.6220 O   0  0  0  0  0  0  0  0  0  0  0  0
  -25.5110  -14.0330   20.5370 C   0  0  0  0  0  0  0  0  0  0  0  0
  -24.4270  -13.2680   20.8590 C   0  0  0  0  0  0  0  0  0  0  0  0
  -24.8880  -11.9170   20.8670 C   0  0  0  0  0  0  0  0  0  0  0  0
  -26.5610  -13.1470   20.3530 N   0  0  0  0  0  0  0  0  0  0  0  0
  -26.1930  -11.8700   20.6220 N   0  0  0  0  0  0  0  0  0  0  0  0
  -24.1510  -10.6610   21.0360 C   0  0  0  0  0  0  0  0  0  0  0  0
  -24.5250   -9.7140   22.0130 C   0  0  0  0  0  3  0  0  0  0  0  0
  -23.7850   -8.5230   22.1720 C   0  0  0  0  0  3  0  0  0  0  0  0
  -22.6590   -8.2730   21.3520 C   0  0  0  0  0  0  0  0  0  0  0  0
  -22.3060   -9.2090   20.3650 C   0  0  0  0  0  3  0  0  0  0  0  0
  -23.0460  -10.3920   20.2040 C   0  0  0  0  0  3  0  0  0  0  0  0
  -21.8960   -7.1320   21.4190 O   0  0  0  0  0  0  0  0  0  0  0  0
  -21.7570   -6.4280   22.5880 C   0  0  0  0  0  0  0  0  0  0  0  0
  -21.2240   -7.0190   23.7550 C   0  0  0  0  0  3  0  0  0  0  0  0
  -21.0350   -6.2400   24.9140 C   0  0  0  0  0  3  0  0  0  0  0  0
  -21.3690   -4.8720   24.9070 C   0  0  0  0  0  0  0  0  0  0  0  0
  -21.8950   -4.2820   23.7450 C   0  0  0  0  0  3  0  0  0  0  0  0
  -22.0860   -5.0580   22.5880 C   0  0  0  0  0  0  0  0  0  0  0  0
  -22.5730   -4.4790   21.4640 F   0  0  0  0  0  0  0  0  0  0  0  0
  -21.1800   -4.1220   26.0170 F   0  0  0  0  0  0  0  0  0  0  0  0
  -23.0210  -13.7570   21.0520 C   0  0  0  0  0  0  0  0  0  0  0  0
  -22.2510  -13.0830   21.8990 N   0  0  0  0  0  0  0  0  0  0  0  0
  -22.6140  -14.7720   20.4890 O   0  0  0  0  0  0  0  0  0  0  0  0
  -22.5940  -12.2630   22.3770 H   0  0  0  0  0  0  0  0  0  0  0  0
  -21.3060  -13.3940   22.0730 H   0  0  0  0  0  0  0  0  0  0  0  0
  -25.6770  -15.4010   20.3640 N   0  0  0  0  0  0  0  0  0  0  0  0
  -24.9040  -16.0530   20.4400 H   0  0  0  0  0  0  0  0  0  0  0  0
  -26.5500  -15.8440   20.1160 H   0  0  0  0  0  0  0  0  0  0  0  0
  -29.0670  -22.5480   20.1780 C   0  0  0  0  0  2  0  0  0  0  0  0
  -28.1280  -23.8610   20.3030 C   0  0  0  0  0  2  0  0  0  0  0  0
  -28.5780  -25.2410   19.6190 C   0  0  0  0  0  2  0  0  0  0  0  0
  -28.3930  -26.5700   20.2530 O   0  0  0  0  0  0  0  0  0  0  0  0
  -24.5850  -31.8920   23.2400 C   0  0  0  0  0  0  0  0  0  0  0  0
  -27.2370  -27.3600   20.1680 C   0  0  0  0  0  0  0  0  0  0  0  0
  -23.3910  -30.4890   21.5920 C   0  0  0  0  0  3  0  0  0  0  0  0
  -24.8530  -28.9460   20.1600 C   0  0  0  0  0  0  0  0  0  0  0  0
  -25.9250  -30.8260   21.4110 C   0  0  0  0  0  2  0  0  0  0  0  0
  -26.0120  -29.4470   20.7610 C   0  0  0  0  0  0  0  0  0  0  0  0
  -27.2020  -28.6630   20.7580 C   0  0  0  0  0  3  0  0  0  0  0  0
  -26.0560  -26.9030   19.5480 C   0  0  0  0  0  3  0  0  0  0  0  0
  -24.8760  -27.6790   19.5470 C   0  0  0  0  0  3  0  0  0  0  0  0
  -23.6090  -29.8120   20.2110 C   0  0  0  0  0  2  0  0  0  0  0  0
  -24.6520  -31.0870   22.1380 N   0  0  0  0  0  0  0  0  0  0  0  0
  -23.5000  -32.1610   23.7760 O   0  0  0  0  0  0  0  0  0  0  0  0
  -22.7340  -29.4700   22.5510 C   0  0  0  0  0  0  0  0  0  0  0  0
  -21.4070  -29.2910   22.4270 N   0  0  0  0  0  0  0  0  0  0  0  0
  -23.4150  -28.8410   23.3650 O   0  0  0  0  0  0  0  0  0  0  0  0
  -20.9170  -29.8490   21.7430 H   0  0  0  0  0  0  0  0  0  0  0  0
  -18.0320  -28.0960   22.9340 C   0  0  0  0  0  0  0  0  0  0  0  0
  -20.5910  -28.3480   23.1940 C   0  0  0  0  0  3  0  0  0  0  0  0
  -20.6880  -26.9220   22.6050 C   0  0  0  0  0  2  0  0  0  0  0  0
  -19.5800  -26.6100   21.5920 C   0  0  0  0  0  2  0  0  0  0  0  0
  -18.2020  -26.7520   22.2450 C   0  0  0  0  0  2  0  0  0  0  0  0
  -19.1540  -28.8520   23.3650 C   0  0  0  0  0  0  0  0  0  0  0  0
  -18.9390  -30.1100   23.9690 C   0  0  0  0  0  3  0  0  0  0  0  0
  -17.6360  -30.6120   24.1480 C   0  0  0  0  0  3  0  0  0  0  0  0
  -16.5290  -29.8510   23.7320 C   0  0  0  0  0  3  0  0  0  0  0  0
  -16.7270  -28.5970   23.1320 C   0  0  0  0  0  3  0  0  0  0  0  0
  -25.8640  -32.5290   23.8670 C   0  0  0  0  0  3  0  0  0  0  0  0
  -26.3700  -31.7690   25.1550 C   0  0  1  0  0  0  0  0  0  0  0  0
  -25.2670  -31.5410   26.2160 C   0  0  0  0  0  1  0  0  0  0  0  0
  -26.9560  -30.3890   24.7810 C   0  0  0  0  0  1  0  0  0  0  0  0
  -27.5150  -32.5700   25.8200 C   0  0  0  0  0  1  0  0  0  0  0  0
  -25.5530  -33.9300   24.1830 N   0  0  0  0  0  0  0  0  0  0  0  0
  -25.8990  -34.9780   23.4230 C   0  0  0  0  0  0  0  0  0  0  0  0
  -26.5830  -34.8670   22.4020 O   0  0  0  0  0  0  0  0  0  0  0  0
  -24.9470  -34.0900   24.9740 H   0  0  0  0  0  0  0  0  0  0  0  0
  -24.1900  -36.7810   23.0270 C   0  0  0  0  0  1  0  0  0  0  0  0
  -25.4110  -36.3710   23.8650 C   0  0  0  0  0  3  0  0  0  0  0  0
  -27.5300  -37.2480   24.7430 C   0  0  0  0  0  1  0  0  0  0  0  0
  -26.4520  -37.4180   23.7720 N   0  0  0  0  0  0  0  0  0  0  0  0
  -26.0480  -38.3410   23.9040 H   0  0  0  0  0  0  0  0  0  0  0  0
  1 49  1  0
  1  2  1  0
  3  1  1  0
  5  4  1  0
  5 11  1  0
  6 10  1  0
  7 10  1  0
  8  4  1  0
  8  9  1  0
  8  6  1  0
  9  7  1  0
 10  1  1  0
 11 12  1  6
 11 13  1  0
 11  9  1  0
 13 20  2  0
 14 19  1  0
 15 16  1  0
 15 14  1  0
 17 16  1  0
 17 24  1  0
 17 18  1  0
 19 13  1  0
 19 18  1  0
 21 22  2  0
 22 23  1  0
 22 41  1  0
 23 26  1  0
 24 21  1  0
 24 25  1  0
 25 23  2  0
 26 27  1  0
 27 28  2  0
 29 32  1  0
 29 28  1  0
 30 29  2  0
 31 30  1  0
 31 26  2  0
 32 33  1  0
 33 34  1  0
 34 35  2  0
 36 35  1  0
 36 40  1  0
 37 36  2  0
 38 33  2  0
 38 37  1  0
 39 38  1  0
 41 42  1  0
 42 45  1  0
 42 44  1  0
 43 41  2  0
 46 47  1  0
 46 21  1  0
 48 46  1  0
 49 50  1  0
 51 52  1  0
 51 50  1  0
 53 64  2  0
 54 52  1  0
 54 59  1  0
 55 63  1  0
 55 65  1  0
 56 62  1  0
 56 58  1  0
 57 63  1  0
 58 57  1  0
 59 58  2  0
 60 54  2  0
 61 60  1  0
 61 56  2  0
 62 55  1  0
 63 53  1  0
 65 67  2  0
 66 65  1  0
 68 66  1  0
 69 78  2  0
 69 74  1  0
 70 66  1  0
 70 74  1  0
 71 70  1  0
 72 73  1  0
 72 71  1  0
 73 69  1  0
 74 75  2  0
 75 76  1  0
 77 76  2  0
 78 77  1  0
 79 53  1  0
 79 84  1  0
 79 80  1  0
 80 83  1  1
 80 81  1  0
 82 80  1  0
 84 87  1  0
 85 89  1  0
 85 84  1  0
 86 85  2  0
 89 88  1  0
 91 89  1  0
 91 92  1  0
 91 90  1  0
M  ISO  4  11 100  13 100  51 101  52 101
M  END
>  <TORSDO>  (24) 
F 20

>  <SCORE>  (24) 
-13.290

>  <name>  (24) 
24

>  <ligand_id>  (24) 
24

>  <original_smiles>  (24) 
[H]c1c([H])c([H])c2c(c1[H])C([H])([H])C([H])([H])C([H])([H])C2([H])N([H])C(=O)C1([H])N(C(=O)C([H])(N([H])C(=O)C([H])(N([H])C([H])([H])[H])C([H])([H])[H])C(C([H])([H])[H])(C([H])([H])[H])C([H])([H])[H])C([H])([H])c2c([H])c(OC([H])([H])C([H])([H])C([H])([H])[N+]([H])([H])C3([H])C([H])([H])C4([H])C([H])([H])C([H])([H])C(C(=O)N5C([H])([H])C([H])([H])C([H])([H])C([H])(n6nc(-c7c([H])c([H])c(Oc8c([H])c([H])c(F)c([H])c8F)c([H])c7[H])c(C(=O)N([H])[H])c6N([H])[H])C5([H])[H])(C([H])([H])[H])C4([H])C3([H])[H])c([H])c([H])c2C1([H])[H]

>  <smiles>  (24) 
[H]c1c([H])c([H])c2c(c1[H])C([H])([H])C([H])([H])C([H])([H])C2([H])N([H])C(=O)C1([H])N(C(=O)C([H])(N([H])C(=O)C([H])(N([H])C([H])([H])[H])C([H])([H])[H])C(C([H])([H])[H])(C([H])([H])[H])C([H])([H])[H])C([H])([H])c2c([H])c(OC([H])([H])C([H])([H])C([H])([H])[N+]([H])([H])C3([H])C([H])([H])C4([H])C([H])([H])C([H])([H])C(C(=O)N5C([H])([H])C([H])([H])C([H])([H])C([H])(n6nc(-c7c([H])c([H])c(Oc8c([H])c([H])c(F)c([H])c8F)c([H])c7[H])c(C(=O)N([H])[H])c6N([H])[H])C5([H])[H])(C([H])([H])[H])C4([H])C3([H])[H])c([H])c([H])c2C1([H])[H]

$$$$
25:0:0
     RDKit          3D

100108  0  0  1  0  0  0  0  0999 V2000
  -27.5670  -21.8530   18.9520 C   0  0  0  0  0  3  0  0  0  0  0  0
  -25.5050  -20.7150   18.3170 C   0  0  0  0  0  3  0  0  0  0  0  0
  -26.0480  -22.8880   17.3490 C   0  0  0  0  0  3  0  0  0  0  0  0
  -26.7100  -20.7370   19.0510 C   0  0  0  0  0  0  0  0  0  0  0  0
  -27.2510  -22.9240   18.0820 C   0  0  0  0  0  0  0  0  0  0  0  0
  -25.1690  -21.7940   17.4760 C   0  0  0  0  0  0  0  0  0  0  0  0
  -23.9700  -21.7750   16.7700 N   0  0  0  0  0  0  0  0  0  0  0  0
  -23.6030  -22.6530   16.4190 H   0  0  0  0  0  0  0  0  0  0  0  0
  -23.2410  -21.1400   17.0810 H   0  0  0  0  0  0  0  0  0  0  0  0
  -27.1180  -19.5370   19.8950 C   0  0  0  0  0  2  0  0  0  0  0  0
  -28.2820  -18.7820   19.2290 C   0  0  0  0  0  2  0  0  0  0  0  0
  -29.0440  -17.9060   20.1480 N   0  0  0  0  0  4  0  0  0  0  0  0
  -28.3980  -17.4560   20.7780 H   0  0  0  0  0  0  0  0  0  0  0  0
  -29.6750  -18.4670   20.7010 H   0  0  0  0  0  0  0  0  0  0  0  0
  -29.8170  -16.8780   19.4130 C   0  0  0  0  0  2  0  0  0  0  0  0
  -30.6800  -15.9720   20.3100 C   0  0  0  0  0  2  0  0  0  0  0  0
  -31.1550  -14.7320   19.5300 C   0  0  0  0  0  0  0  0  0  0  0  0
  -30.9520  -12.3380   18.9400 C   0  0  0  0  0  2  0  0  0  0  0  0
  -29.9710  -12.1060   17.7770 C   0  0  0  0  0  2  0  0  0  0  0  0
  -28.5300  -11.9690   18.3020 C   0  0  0  0  0  2  0  0  0  0  0  0
  -28.1430  -13.1220   19.2610 C   0  0  0  0  0  3  0  0  0  0  0  0
  -29.2270  -13.3310   20.3450 C   0  0  0  0  0  2  0  0  0  0  0  0
  -30.5240  -13.5370   19.6780 N   0  0  0  0  0  0  0  0  0  0  0  0
  -32.1280  -14.8740   18.7810 O   0  0  0  0  0  0  0  0  0  0  0  0
  -25.8530  -13.8360   20.1980 C   0  0  0  0  0  0  0  0  0  0  0  0
  -24.7850  -13.1090   20.6520 C   0  0  0  0  0  0  0  0  0  0  0  0
  -25.1700  -11.7370   20.5490 C   0  0  0  0  0  0  0  0  0  0  0  0
  -26.8240  -12.9090   19.8520 N   0  0  0  0  0  0  0  0  0  0  0  0
  -26.4220  -11.6410   20.1200 N   0  0  0  0  0  0  0  0  0  0  0  0
  -24.4000  -10.5090   20.7790 C   0  0  0  0  0  0  0  0  0  0  0  0
  -24.7930   -9.5640   21.7520 C   0  0  0  0  0  3  0  0  0  0  0  0
  -24.0280   -8.3970   21.9650 C   0  0  0  0  0  3  0  0  0  0  0  0
  -22.8580   -8.1660   21.2050 C   0  0  0  0  0  0  0  0  0  0  0  0
  -22.4850   -9.0980   20.2200 C   0  0  0  0  0  3  0  0  0  0  0  0
  -23.2500  -10.2570   20.0050 C   0  0  0  0  0  3  0  0  0  0  0  0
  -22.0690   -7.0480   21.3250 O   0  0  0  0  0  0  0  0  0  0  0  0
  -21.8940   -6.4160   22.5300 C   0  0  0  0  0  0  0  0  0  0  0  0
  -21.3390   -7.0800   23.6450 C   0  0  0  0  0  3  0  0  0  0  0  0
  -21.1130   -6.3740   24.8450 C   0  0  0  0  0  3  0  0  0  0  0  0
  -21.4320   -5.0050   24.9280 C   0  0  0  0  0  0  0  0  0  0  0  0
  -21.9810   -4.3420   23.8170 C   0  0  0  0  0  3  0  0  0  0  0  0
  -22.2090   -5.0460   22.6210 C   0  0  0  0  0  0  0  0  0  0  0  0
  -22.7180   -4.3960   21.5460 F   0  0  0  0  0  0  0  0  0  0  0  0
  -21.2090   -4.3250   26.0760 F   0  0  0  0  0  0  0  0  0  0  0  0
  -23.4460  -13.6470   21.0610 C   0  0  0  0  0  0  0  0  0  0  0  0
  -22.7780  -12.9810   21.9960 N   0  0  0  0  0  0  0  0  0  0  0  0
  -23.0050  -14.6930   20.5850 O   0  0  0  0  0  0  0  0  0  0  0  0
  -23.1500  -12.1350   22.4000 H   0  0  0  0  0  0  0  0  0  0  0  0
  -21.8800  -13.3220   22.3110 H   0  0  0  0  0  0  0  0  0  0  0  0
  -26.0690  -15.2000   20.0280 N   0  0  0  0  0  0  0  0  0  0  0  0
  -25.2980  -15.8490   20.1460 H   0  0  0  0  0  0  0  0  0  0  0  0
  -26.8000  -15.5650   19.4320 H   0  0  0  0  0  0  0  0  0  0  0  0
  -28.1650  -24.1370   17.9410 C   0  0  0  0  0  2  0  0  0  0  0  0
  -29.5860  -23.7750   17.7530 N   0  0  0  0  0  4  0  0  0  0  0  0
  -29.7110  -23.5200   16.7850 H   0  0  0  0  0  0  0  0  0  0  0  0
  -29.7880  -22.9560   18.3010 H   0  0  0  0  0  0  0  0  0  0  0  0
  -30.5570  -24.8390   18.0950 C   0  0  0  0  0  2  0  0  0  0  0  0
  -30.7340  -25.0200   19.6210 C   0  0  0  0  0  2  0  0  0  0  0  0
  -31.3410  -26.3780   20.0080 C   0  0  0  0  0  2  0  0  0  0  0  0
  -30.7020  -26.9150   21.1680 O   0  0  0  0  0  0  0  0  0  0  0  0
  -25.6240  -31.0800   23.9180 C   0  0  0  0  0  0  0  0  0  0  0  0
  -29.4160  -27.3980   21.0350 C   0  0  0  0  0  0  0  0  0  0  0  0
  -24.9450  -29.7060   21.9760 C   0  0  0  0  0  3  0  0  0  0  0  0
  -26.8380  -28.5250   20.7440 C   0  0  0  0  0  0  0  0  0  0  0  0
  -27.3830  -30.4110   22.2900 C   0  0  0  0  0  2  0  0  0  0  0  0
  -27.7810  -29.1380   21.5780 C   0  0  0  0  0  0  0  0  0  0  0  0
  -29.0670  -28.5740   21.7310 C   0  0  0  0  0  3  0  0  0  0  0  0
  -28.4400  -26.7790   20.2180 C   0  0  0  0  0  3  0  0  0  0  0  0
  -27.1580  -27.3360   20.0700 C   0  0  0  0  0  3  0  0  0  0  0  0
  -25.4920  -29.2020   20.6140 C   0  0  0  0  0  2  0  0  0  0  0  0
  -25.9880  -30.4100   22.7900 N   0  0  0  0  0  0  0  0  0  0  0  0
  -24.4370  -31.1500   24.2630 O   0  0  0  0  0  0  0  0  0  0  0  0
  -24.2950  -28.5140   22.7150 C   0  0  0  0  0  0  0  0  0  0  0  0
  -23.1380  -28.0580   22.2100 N   0  0  0  0  0  0  0  0  0  0  0  0
  -24.8430  -28.0040   23.6960 O   0  0  0  0  0  0  0  0  0  0  0  0
  -22.7570  -28.5280   21.4010 H   0  0  0  0  0  0  0  0  0  0  0  0
  -20.1860  -26.0570   21.6410 C   0  0  0  0  0  0  0  0  0  0  0  0
  -22.3690  -26.9220   22.7180 C   0  0  0  0  0  3  0  0  0  0  0  0
  -22.9970  -25.5790   22.2780 C   0  0  0  0  0  2  0  0  0  0  0  0
  -22.4020  -25.0320   20.9750 C   0  0  0  0  0  2  0  0  0  0  0  0
  -20.8940  -24.8130   21.1290 C   0  0  0  0  0  2  0  0  0  0  0  0
  -20.8820  -27.0540   22.3740 C   0  0  0  0  0  0  0  0  0  0  0  0
  -20.1810  -28.2060   22.7960 C   0  0  0  0  0  3  0  0  0  0  0  0
  -18.8140  -28.3660   22.4980 C   0  0  0  0  0  3  0  0  0  0  0  0
  -18.1270  -27.3680   21.7850 C   0  0  0  0  0  3  0  0  0  0  0  0
  -18.8130  -26.2160   21.3620 C   0  0  0  0  0  3  0  0  0  0  0  0
  -26.6750  -31.8060   24.8150 C   0  0  0  0  0  3  0  0  0  0  0  0
  -26.2330  -33.1980   24.9690 N   0  0  0  0  0  0  0  0  0  0  0  0
  -26.7150  -34.2300   24.2640 C   0  0  0  0  0  0  0  0  0  0  0  0
  -27.6400  -34.1150   23.4560 O   0  0  0  0  0  0  0  0  0  0  0  0
  -25.4460  -33.3590   25.5780 H   0  0  0  0  0  0  0  0  0  0  0  0
  -25.0760  -35.9050   23.3540 C   0  0  0  0  0  1  0  0  0  0  0  0
  -26.0670  -35.6080   24.4920 C   0  0  0  0  0  3  0  0  0  0  0  0
  -27.8640  -36.6430   25.8060 C   0  0  0  0  0  1  0  0  0  0  0  0
  -27.0490  -36.7090   24.5950 N   0  0  0  0  0  0  0  0  0  0  0  0
  -26.5850  -37.6140   24.5720 H   0  0  0  0  0  0  0  0  0  0  0  0
  -26.8700  -31.1230   26.2240 C   0  0  1  0  0  0  0  0  0  0  0  0
  -25.5430  -30.8470   26.9670 C   0  0  0  0  0  1  0  0  0  0  0  0
  -27.6180  -29.7790   26.0790 C   0  0  0  0  0  1  0  0  0  0  0  0
  -27.7450  -32.0230   27.1270 C   0  0  0  0  0  1  0  0  0  0  0  0
  1  4  1  0
  2  4  2  0
  3  6  2  0
  3  5  1  0
  4 10  1  0
  5  1  2  0
  6  2  1  0
  7  9  1  0
  7  6  1  0
  8  7  1  0
 11 10  1  0
 11 12  1  0
 12 14  1  0
 12 13  1  0
 15 12  1  0
 15 16  1  0
 17 23  1  0
 17 16  1  0
 18 23  1  0
 19 20  1  0
 19 18  1  0
 21 20  1  0
 21 28  1  0
 21 22  1  0
 23 22  1  0
 24 17  2  0
 25 26  2  0
 26 45  1  0
 27 26  1  0
 27 30  1  0
 28 29  1  0
 28 25  1  0
 29 27  2  0
 30 31  1  0
 31 32  2  0
 33 36  1  0
 33 32  1  0
 34 33  2  0
 35 34  1  0
 35 30  2  0
 36 37  1  0
 37 42  2  0
 37 38  1  0
 38 39  2  0
 39 40  1  0
 40 44  1  0
 41 40  2  0
 42 41  1  0
 43 42  1  0
 45 46  1  0
 46 49  1  0
 46 48  1  0
 47 45  2  0
 50 51  1  0
 50 25  1  0
 52 50  1  0
 53  5  1  0
 54 53  1  0
 54 57  1  0
 54 56  1  0
 55 54  1  0
 57 58  1  0
 58 59  1  0
 59 60  1  0
 61 72  2  0
 62 60  1  0
 62 67  1  0
 63 73  1  0
 63 71  1  0
 64 66  1  0
 65 71  1  0
 66 67  2  0
 66 65  1  0
 68 62  2  0
 69 68  1  0
 69 64  2  0
 70 64  1  0
 70 63  1  0
 71 61  1  0
 73 75  2  0
 74 73  1  0
 76 74  1  0
 77 82  1  0
 78 74  1  0
 79 78  1  0
 80 81  1  0
 80 79  1  0
 81 77  1  0
 82 78  1  0
 82 83  2  0
 84 83  1  0
 85 84  2  0
 86 77  2  0
 86 85  1  0
 87 61  1  0
 87 88  1  0
 87 97  1  0
 88 91  1  0
 89 93  1  0
 89 88  1  0
 90 89  2  0
 93 92  1  0
 93 95  1  0
 95 94  1  0
 96 95  1  0
 97 98  1  1
 97100  1  0
 99 97  1  0
M  ISO  4  16 100  17 100  59 101  60 101
M  END
>  <TORSDO>  (25) 
F 27

>  <SCORE>  (25) 
-8.943

>  <name>  (25) 
25

>  <ligand_id>  (25) 
25

>  <original_smiles>  (25) 
[H]c1c([H])c([H])c2c(c1[H])C([H])([H])C([H])([H])C([H])([H])C2([H])N([H])C(=O)C1([H])N(C(=O)C([H])(N([H])C(=O)C([H])(N([H])C([H])([H])[H])C([H])([H])[H])C(C([H])([H])[H])(C([H])([H])[H])C([H])([H])[H])C([H])([H])c2c([H])c(OC([H])([H])C([H])([H])C([H])([H])[N+]([H])([H])C([H])([H])c3c([H])c(N([H])[H])c([H])c(C([H])([H])C([H])([H])[N+]([H])([H])C([H])([H])C([H])([H])C(=O)N4C([H])([H])C([H])([H])C([H])([H])C([H])(n5nc(-c6c([H])c([H])c(Oc7c([H])c([H])c(F)c([H])c7F)c([H])c6[H])c(C(=O)N([H])[H])c5N([H])[H])C4([H])[H])c3[H])c([H])c([H])c2C1([H])[H]

>  <smiles>  (25) 
[H]c1c([H])c([H])c2c(c1[H])C([H])([H])C([H])([H])C([H])([H])C2([H])N([H])C(=O)C1([H])N(C(=O)C([H])(N([H])C(=O)C([H])(N([H])C([H])([H])[H])C([H])([H])[H])C(C([H])([H])[H])(C([H])([H])[H])C([H])([H])[H])C([H])([H])c2c([H])c(OC([H])([H])C([H])([H])C([H])([H])[N+]([H])([H])C([H])([H])c3c([H])c(N([H])[H])c([H])c(C([H])([H])C([H])([H])[N+]([H])([H])C([H])([H])C([H])([H])C(=O)N4C([H])([H])C([H])([H])C([H])([H])C([H])(n5nc(-c6c([H])c([H])c(Oc7c([H])c([H])c(F)c([H])c7F)c([H])c6[H])c(C(=O)N([H])[H])c5N([H])[H])C4([H])[H])c3[H])c([H])c([H])c2C1([H])[H]

$$$$
26:0:0
     RDKit          3D

 94102  0  0  1  0  0  0  0  0999 V2000
  -33.2050  -22.4110   19.4570 C   0  0  0  0  0  3  0  0  0  0  0  0
  -32.5810  -23.6700   19.4220 C   0  0  0  0  0  3  0  0  0  0  0  0
  -32.4260  -21.2400   19.5370 C   0  0  0  0  0  3  0  0  0  0  0  0
  -30.3950  -22.5870   19.5510 C   0  0  0  0  0  3  0  0  0  0  0  0
  -31.1780  -23.7580   19.4660 C   0  0  0  0  0  0  0  0  0  0  0  0
  -31.0150  -21.3190   19.5920 C   0  0  0  0  0  0  0  0  0  0  0  0
  -30.3060  -19.1630   18.4650 C   0  0  0  0  0  1  0  0  0  0  0  0
  -30.1710  -20.0550   19.7180 C   0  0  0  0  0  3  0  0  0  0  0  0
  -30.5160  -19.3890   20.9970 N   0  0  0  0  0  4  0  0  0  0  0  0
  -31.5120  -19.2640   21.0630 H   0  0  0  0  0  0  0  0  0  0  0  0
  -30.2640  -20.0420   21.7220 H   0  0  0  0  0  0  0  0  0  0  0  0
  -29.8470  -18.1070   21.3060 C   0  0  0  0  0  2  0  0  0  0  0  0
  -30.7390  -16.9030   20.9490 C   0  0  0  0  0  2  0  0  0  0  0  0
  -30.0790  -15.5360   21.2370 C   0  0  0  0  0  2  0  0  0  0  0  0
  -30.7020  -14.3850   20.4230 C   0  0  0  0  0  0  0  0  0  0  0  0
  -30.3450  -12.2880   19.1770 C   0  0  0  0  0  2  0  0  0  0  0  0
  -29.3920  -12.5580   17.9960 C   0  0  0  0  0  2  0  0  0  0  0  0
  -27.9200  -12.4340   18.4380 C   0  0  0  0  0  2  0  0  0  0  0  0
  -27.6150  -13.2290   19.7360 C   0  0  0  0  0  3  0  0  0  0  0  0
  -28.6820  -12.9510   20.8210 C   0  0  0  0  0  2  0  0  0  0  0  0
  -30.0040  -13.2360   20.2460 N   0  0  0  0  0  0  0  0  0  0  0  0
  -31.7930  -14.5820   19.8790 O   0  0  0  0  0  0  0  0  0  0  0  0
  -25.2170  -13.8390   20.4500 C   0  0  0  0  0  0  0  0  0  0  0  0
  -24.1520  -13.0660   20.8330 C   0  0  0  0  0  0  0  0  0  0  0  0
  -24.6160  -11.7160   20.8130 C   0  0  0  0  0  0  0  0  0  0  0  0
  -26.2640  -12.9580   20.2240 N   0  0  0  0  0  0  0  0  0  0  0  0
  -25.9050  -11.6770   20.4950 N   0  0  0  0  0  0  0  0  0  0  0  0
  -23.8940  -10.4550   21.0200 C   0  0  0  0  0  0  0  0  0  0  0  0
  -24.3370   -9.4960   21.9580 C   0  0  0  0  0  3  0  0  0  0  0  0
  -23.6170   -8.2970   22.1510 C   0  0  0  0  0  3  0  0  0  0  0  0
  -22.4390   -8.0500   21.4060 C   0  0  0  0  0  0  0  0  0  0  0  0
  -22.0160   -8.9970   20.4570 C   0  0  0  0  0  3  0  0  0  0  0  0
  -22.7370  -10.1870   20.2620 C   0  0  0  0  0  3  0  0  0  0  0  0
  -21.6880   -6.9040   21.5090 O   0  0  0  0  0  0  0  0  0  0  0  0
  -21.6530   -6.1670   22.6660 C   0  0  0  0  0  0  0  0  0  0  0  0
  -21.2280   -6.7250   23.8920 C   0  0  0  0  0  3  0  0  0  0  0  0
  -21.1410   -5.9150   25.0410 C   0  0  0  0  0  3  0  0  0  0  0  0
  -21.4680   -4.5480   24.9670 C   0  0  0  0  0  0  0  0  0  0  0  0
  -21.8850   -3.9890   23.7460 C   0  0  0  0  0  3  0  0  0  0  0  0
  -21.9740   -4.7970   22.5990 C   0  0  0  0  0  0  0  0  0  0  0  0
  -22.3570   -4.2490   21.4200 F   0  0  0  0  0  0  0  0  0  0  0  0
  -21.3760   -3.7680   26.0690 F   0  0  0  0  0  0  0  0  0  0  0  0
  -22.7560  -13.5440   21.1100 C   0  0  0  0  0  0  0  0  0  0  0  0
  -22.0370  -12.8520   21.9870 N   0  0  0  0  0  0  0  0  0  0  0  0
  -22.3090  -14.5630   20.5840 O   0  0  0  0  0  0  0  0  0  0  0  0
  -22.4100  -12.0290   22.4370 H   0  0  0  0  0  0  0  0  0  0  0  0
  -21.0990  -13.1500   22.2150 H   0  0  0  0  0  0  0  0  0  0  0  0
  -25.3780  -15.2070   20.2570 N   0  0  0  0  0  0  0  0  0  0  0  0
  -24.6100  -15.8630   20.3550 H   0  0  0  0  0  0  0  0  0  0  0  0
  -26.2260  -15.6410   19.9120 H   0  0  0  0  0  0  0  0  0  0  0  0
  -30.5160  -25.1160   19.4280 C   0  0  0  0  0  2  0  0  0  0  0  0
  -30.3500  -25.7170   20.8380 C   0  0  0  0  0  2  0  0  0  0  0  0
  -29.4890  -26.9850   20.8460 C   0  0  0  0  0  2  0  0  0  0  0  0
  -28.3220  -26.6420   20.1230 O   0  0  0  0  0  0  0  0  0  0  0  0
  -24.5790  -31.8530   23.2540 C   0  0  0  0  0  0  0  0  0  0  0  0
  -27.2140  -27.4420   20.1840 C   0  0  0  0  0  0  0  0  0  0  0  0
  -23.3650  -30.4510   21.6150 C   0  0  0  0  0  3  0  0  0  0  0  0
  -24.8170  -28.9190   20.1880 C   0  0  0  0  0  0  0  0  0  0  0  0
  -25.8840  -30.8250   21.4050 C   0  0  0  0  0  2  0  0  0  0  0  0
  -25.9710  -29.4540   20.7750 C   0  0  0  0  0  0  0  0  0  0  0  0
  -27.1770  -28.7240   20.7780 C   0  0  0  0  0  3  0  0  0  0  0  0
  -26.0490  -26.9150   19.5960 C   0  0  0  0  0  3  0  0  0  0  0  0
  -24.8490  -27.6450   19.5960 C   0  0  0  0  0  3  0  0  0  0  0  0
  -23.5700  -29.7710   20.2330 C   0  0  0  0  0  2  0  0  0  0  0  0
  -24.6270  -31.0570   22.1510 N   0  0  0  0  0  0  0  0  0  0  0  0
  -23.5000  -32.1250   23.7990 O   0  0  0  0  0  0  0  0  0  0  0  0
  -22.7200  -29.4290   22.5760 C   0  0  0  0  0  0  0  0  0  0  0  0
  -21.3950  -29.2490   22.4530 N   0  0  0  0  0  0  0  0  0  0  0  0
  -23.4060  -28.8010   23.3880 O   0  0  0  0  0  0  0  0  0  0  0  0
  -20.9050  -29.8100   21.7700 H   0  0  0  0  0  0  0  0  0  0  0  0
  -18.0180  -28.0710   22.9570 C   0  0  0  0  0  0  0  0  0  0  0  0
  -20.5770  -28.3140   23.2230 C   0  0  0  0  0  3  0  0  0  0  0  0
  -20.6710  -26.8840   22.6440 C   0  0  0  0  0  2  0  0  0  0  0  0
  -19.5650  -26.5700   21.6320 C   0  0  0  0  0  2  0  0  0  0  0  0
  -18.1850  -26.7210   22.2800 C   0  0  0  0  0  2  0  0  0  0  0  0
  -19.1420  -28.8260   23.3850 C   0  0  0  0  0  0  0  0  0  0  0  0
  -18.9340  -30.0910   23.9760 C   0  0  0  0  0  3  0  0  0  0  0  0
  -17.6330  -30.6020   24.1450 C   0  0  0  0  0  3  0  0  0  0  0  0
  -16.5230  -29.8440   23.7330 C   0  0  0  0  0  3  0  0  0  0  0  0
  -16.7160  -28.5810   23.1450 C   0  0  0  0  0  3  0  0  0  0  0  0
  -25.8690  -32.4810   23.8700 C   0  0  0  0  0  3  0  0  0  0  0  0
  -25.5680  -33.8820   24.1880 N   0  0  0  0  0  0  0  0  0  0  0  0
  -25.9100  -34.9260   23.4190 C   0  0  0  0  0  0  0  0  0  0  0  0
  -26.5850  -34.8100   22.3920 O   0  0  0  0  0  0  0  0  0  0  0  0
  -24.9690  -34.0480   24.9830 H   0  0  0  0  0  0  0  0  0  0  0  0
  -24.1970  -36.7270   23.0340 C   0  0  0  0  0  1  0  0  0  0  0  0
  -25.4260  -36.3190   23.8630 C   0  0  0  0  0  3  0  0  0  0  0  0
  -27.5560  -37.1950   24.7140 C   0  0  0  0  0  1  0  0  0  0  0  0
  -26.4660  -37.3650   23.7560 N   0  0  0  0  0  0  0  0  0  0  0  0
  -26.0630  -38.2870   23.8950 H   0  0  0  0  0  0  0  0  0  0  0  0
  -26.3850  -31.7150   25.1490 C   0  0  1  0  0  0  0  0  0  0  0  0
  -25.2920  -31.4870   26.2180 C   0  0  0  0  0  1  0  0  0  0  0  0
  -26.9610  -30.3320   24.7580 C   0  0  0  0  0  1  0  0  0  0  0  0
  -27.5400  -32.5070   25.8060 C   0  0  0  0  0  1  0  0  0  0  0  0
  1  3  1  0
  2  1  2  0
  2  5  1  0
  3  6  2  0
  4  6  1  0
  5  4  2  0
  6  8  1  0
  8  7  1  0
  8  9  1  0
  9 10  1  0
  9 12  1  0
  9 11  1  0
 13 14  1  0
 13 12  1  0
 15 14  1  0
 16 21  1  0
 17 18  1  0
 17 16  1  0
 19 18  1  0
 19 26  1  0
 19 20  1  0
 21 15  1  0
 21 20  1  0
 22 15  2  0
 23 24  2  0
 24 43  1  0
 25 24  1  0
 25 28  1  0
 26 23  1  0
 26 27  1  0
 27 25  2  0
 28 29  1  0
 29 30  2  0
 31 34  1  0
 31 30  1  0
 32 31  2  0
 33 32  1  0
 33 28  2  0
 34 35  1  0
 35 36  1  0
 36 37  2  0
 38 37  1  0
 38 42  1  0
 39 38  2  0
 40 35  2  0
 40 39  1  0
 41 40  1  0
 43 44  1  0
 44 47  1  0
 44 46  1  0
 45 43  2  0
 48 49  1  0
 48 23  1  0
 50 48  1  0
 51  5  1  0
 51 52  1  0
 52 53  1  0
 54 56  1  0
 54 53  1  0
 55 66  2  0
 56 61  1  0
 57 65  1  0
 57 67  1  0
 58 64  1  0
 58 60  1  0
 59 65  1  0
 60 61  2  0
 60 59  1  0
 62 56  2  0
 63 62  1  0
 63 58  2  0
 64 57  1  0
 65 55  1  0
 67 69  2  0
 68 67  1  0
 70 68  1  0
 71 80  2  0
 71 76  1  0
 72 68  1  0
 72 76  1  0
 73 72  1  0
 74 75  1  0
 74 73  1  0
 75 71  1  0
 76 77  2  0
 77 78  1  0
 79 78  2  0
 80 79  1  0
 81 55  1  0
 81 82  1  0
 81 91  1  0
 82 85  1  0
 83 87  1  0
 83 82  1  0
 84 83  2  0
 87 86  1  0
 89 87  1  0
 89 90  1  0
 89 88  1  0
 91 94  1  1
 91 92  1  0
 93 91  1  0
M  ISO  4  14 100  15 100  53 101  54 101
M  END
>  <TORSDO>  (26) 
F 24

>  <SCORE>  (26) 
-12.345

>  <name>  (26) 
26

>  <ligand_id>  (26) 
26

>  <original_smiles>  (26) 
[H]c1c([H])c([H])c2c(c1[H])C([H])([H])C([H])([H])C([H])([H])C2([H])N([H])C(=O)C1([H])N(C(=O)C([H])(N([H])C(=O)C([H])(N([H])C([H])([H])[H])C([H])([H])[H])C(C([H])([H])[H])(C([H])([H])[H])C([H])([H])[H])C([H])([H])c2c([H])c(OC([H])([H])C([H])([H])C([H])([H])c3c([H])c([H])c([H])c(C([H])(C([H])([H])[H])[N+]([H])([H])C([H])([H])C([H])([H])C([H])([H])C(=O)N4C([H])([H])C([H])([H])C([H])([H])C([H])(n5nc(-c6c([H])c([H])c(Oc7c([H])c([H])c(F)c([H])c7F)c([H])c6[H])c(C(=O)N([H])[H])c5N([H])[H])C4([H])[H])c3[H])c([H])c([H])c2C1([H])[H]

>  <smiles>  (26) 
[H]c1c([H])c([H])c2c(c1[H])C([H])([H])C([H])([H])C([H])([H])C2([H])N([H])C(=O)C1([H])N(C(=O)C([H])(N([H])C(=O)C([H])(N([H])C([H])([H])[H])C([H])([H])[H])C(C([H])([H])[H])(C([H])([H])[H])C([H])([H])[H])C([H])([H])c2c([H])c(OC([H])([H])C([H])([H])C([H])([H])c3c([H])c([H])c([H])c(C([H])(C([H])([H])[H])[N+]([H])([H])C([H])([H])C([H])([H])C([H])([H])C(=O)N4C([H])([H])C([H])([H])C([H])([H])C([H])(n5nc(-c6c([H])c([H])c(Oc7c([H])c([H])c(F)c([H])c7F)c([H])c6[H])c(C(=O)N([H])[H])c5N([H])[H])C4([H])[H])c3[H])c([H])c([H])c2C1([H])[H]

$$$$
27:0:0
     RDKit          3D

 95103  0  0  1  0  0  0  0  0999 V2000
  -29.0600  -21.9730   20.1860 C   0  0  0  0  0  2  0  0  0  0  0  0
  -27.3320  -20.1840   19.6230 C   0  0  0  0  0  3  0  0  0  0  0  0
  -26.9670  -18.8300   19.4920 C   0  0  0  0  0  3  0  0  0  0  0  0
  -29.6230  -19.5040   20.1020 C   0  0  0  0  0  3  0  0  0  0  0  0
  -28.6590  -20.5230   19.9600 C   0  0  0  0  0  0  0  0  0  0  0  0
  -27.9150  -17.8070   19.6890 C   0  0  0  0  0  0  0  0  0  0  0  0
  -29.2700  -18.1450   19.9510 C   0  0  0  0  0  0  0  0  0  0  0  0
  -27.4460  -16.3630   19.6110 C   0  0  0  0  0  2  0  0  0  0  0  0
  -30.3620  -17.0860   20.0100 C   0  0  0  0  0  2  0  0  0  0  0  0
  -30.9370  -16.8140   21.4190 C   0  0  0  0  0  2  0  0  0  0  0  0
  -31.5460  -14.4330   20.9170 C   0  0  0  0  0  0  0  0  0  0  0  0
  -31.3060  -12.1190   20.0920 C   0  0  0  0  0  2  0  0  0  0  0  0
  -30.4720  -12.0920   18.7930 C   0  0  0  0  0  2  0  0  0  0  0  0
  -28.9570  -12.0740   19.0890 C   0  0  0  0  0  2  0  0  0  0  0  0
  -28.5430  -13.1600   20.1130 C   0  0  0  0  0  3  0  0  0  0  0  0
  -29.4640  -13.0850   21.3490 C   0  0  0  0  0  2  0  0  0  0  0  0
  -30.8650  -13.2600   20.9030 N   0  0  0  0  0  0  0  0  0  0  0  0
  -32.6020  -14.6340   20.3040 O   0  0  0  0  0  0  0  0  0  0  0  0
  -30.9420  -15.3740   21.6510 N   0  0  0  0  0  0  0  0  0  0  0  0
  -30.1770  -15.0270   22.2110 H   0  0  0  0  0  0  0  0  0  0  0  0
  -26.1780  -14.0250   20.6890 C   0  0  0  0  0  0  0  0  0  0  0  0
  -25.0070  -13.3690   20.9620 C   0  0  0  0  0  0  0  0  0  0  0  0
  -25.3130  -11.9740   20.8910 C   0  0  0  0  0  0  0  0  0  0  0  0
  -27.1320  -13.0370   20.4860 N   0  0  0  0  0  0  0  0  0  0  0  0
  -26.6060  -11.7970   20.6580 N   0  0  0  0  0  0  0  0  0  0  0  0
  -24.4390  -10.7980   20.9790 C   0  0  0  0  0  0  0  0  0  0  0  0
  -24.7030   -9.7500   21.8880 C   0  0  0  0  0  3  0  0  0  0  0  0
  -23.8400   -8.6360   21.9650 C   0  0  0  0  0  3  0  0  0  0  0  0
  -22.6990   -8.5630   21.1310 C   0  0  0  0  0  0  0  0  0  0  0  0
  -22.4550   -9.5990   20.2100 C   0  0  0  0  0  3  0  0  0  0  0  0
  -23.3190  -10.7040   20.1320 C   0  0  0  0  0  3  0  0  0  0  0  0
  -21.8200   -7.5080   21.1170 O   0  0  0  0  0  0  0  0  0  0  0  0
  -21.5840   -6.7530   22.2380 C   0  0  0  0  0  0  0  0  0  0  0  0
  -21.1130   -7.3280   23.4390 C   0  0  0  0  0  3  0  0  0  0  0  0
  -20.8200   -6.5060   24.5460 C   0  0  0  0  0  3  0  0  0  0  0  0
  -20.9880   -5.1120   24.4500 C   0  0  0  0  0  0  0  0  0  0  0  0
  -21.4500   -4.5370   23.2540 C   0  0  0  0  0  3  0  0  0  0  0  0
  -21.7450   -5.3550   22.1500 C   0  0  0  0  0  0  0  0  0  0  0  0
  -22.1720   -4.7960   20.9930 F   0  0  0  0  0  0  0  0  0  0  0  0
  -20.6970   -4.3200   25.5100 F   0  0  0  0  0  0  0  0  0  0  0  0
  -23.6570  -13.9910   21.1750 C   0  0  0  0  0  0  0  0  0  0  0  0
  -22.8100  -13.3610   21.9800 N   0  0  0  0  0  0  0  0  0  0  0  0
  -23.3620  -15.0710   20.6620 O   0  0  0  0  0  0  0  0  0  0  0  0
  -23.0550  -12.4870   22.4210 H   0  0  0  0  0  0  0  0  0  0  0  0
  -21.8990  -13.7610   22.1590 H   0  0  0  0  0  0  0  0  0  0  0  0
  -26.4980  -15.3740   20.5750 N   0  0  0  0  0  2  0  0  0  0  0  0
  -25.7920  -16.0960   20.6680 H   0  0  0  0  0  0  0  0  0  0  0  0
  -27.4000  -15.7340   20.2970 H   0  0  0  0  0  0  0  0  0  0  0  0
  -29.2960  -22.6770   18.9080 N   0  0  0  0  0  4  0  0  0  0  0  0
  -28.4360  -23.0670   18.5600 H   0  0  0  0  0  0  0  0  0  0  0  0
  -29.5830  -21.9700   18.2520 H   0  0  0  0  0  0  0  0  0  0  0  0
  -30.3740  -23.6950   18.9450 C   0  0  0  0  0  2  0  0  0  0  0  0
  -29.8860  -25.1520   19.1030 C   0  0  0  0  0  2  0  0  0  0  0  0
  -29.3350  -25.5110   20.4960 C   0  0  0  0  0  2  0  0  0  0  0  0
  -29.1780  -26.9140   20.6750 O   0  0  0  0  0  0  0  0  0  0  0  0
  -24.6440  -31.6740   23.3190 C   0  0  0  0  0  0  0  0  0  0  0  0
  -27.9260  -27.4710   20.5600 C   0  0  0  0  0  0  0  0  0  0  0  0
  -23.7280  -30.2030   21.5510 C   0  0  0  0  0  3  0  0  0  0  0  0
  -25.4310  -28.7720   20.3130 C   0  0  0  0  0  0  0  0  0  0  0  0
  -26.2240  -30.7480   21.6270 C   0  0  0  0  0  2  0  0  0  0  0  0
  -26.4750  -29.3870   21.0140 C   0  0  0  0  0  0  0  0  0  0  0  0
  -27.7240  -28.7440   21.1300 C   0  0  0  0  0  3  0  0  0  0  0  0
  -26.8540  -26.8500   19.8770 C   0  0  0  0  0  3  0  0  0  0  0  0
  -25.6130  -27.5000   19.7460 C   0  0  0  0  0  3  0  0  0  0  0  0
  -24.1330  -29.5370   20.2090 C   0  0  0  0  0  2  0  0  0  0  0  0
  -24.8770  -30.8890   22.2280 N   0  0  0  0  0  0  0  0  0  0  0  0
  -23.4920  -31.8660   23.7340 O   0  0  0  0  0  0  0  0  0  0  0  0
  -23.0460  -29.1390   22.4390 C   0  0  0  0  0  0  0  0  0  0  0  0
  -21.7480  -28.8990   22.1910 N   0  0  0  0  0  0  0  0  0  0  0  0
  -23.6860  -28.5320   23.3030 O   0  0  0  0  0  0  0  0  0  0  0  0
  -21.2910  -29.4490   21.4790 H   0  0  0  0  0  0  0  0  0  0  0  0
  -18.3990  -27.5580   22.3990 C   0  0  0  0  0  0  0  0  0  0  0  0
  -20.9180  -27.9000   22.8640 C   0  0  0  0  0  3  0  0  0  0  0  0
  -21.1190  -26.4980   22.2490 C   0  0  0  0  0  2  0  0  0  0  0  0
  -20.1030  -26.1640   21.1550 C   0  0  0  0  0  2  0  0  0  0  0  0
  -18.6760  -26.2370   21.7000 C   0  0  0  0  0  2  0  0  0  0  0  0
  -19.4530  -28.3460   22.9320 C   0  0  0  0  0  0  0  0  0  0  0  0
  -19.1460  -29.5790   23.5450 C   0  0  0  0  0  3  0  0  0  0  0  0
  -17.8140  -30.0290   23.6260 C   0  0  0  0  0  3  0  0  0  0  0  0
  -16.7740  -29.2390   23.1050 C   0  0  0  0  0  3  0  0  0  0  0  0
  -17.0660  -28.0040   22.4970 C   0  0  0  0  0  3  0  0  0  0  0  0
  -25.8060  -32.3870   24.0770 C   0  0  0  0  0  3  0  0  0  0  0  0
  -25.3710  -33.7600   24.3610 N   0  0  0  0  0  0  0  0  0  0  0  0
  -25.6970  -34.8290   23.6240 C   0  0  0  0  0  0  0  0  0  0  0  0
  -26.4680  -34.7690   22.6600 O   0  0  0  0  0  0  0  0  0  0  0  0
  -24.6960  -33.8740   25.1050 H   0  0  0  0  0  0  0  0  0  0  0  0
  -23.8740  -36.4780   23.1020 C   0  0  0  0  0  1  0  0  0  0  0  0
  -25.0730  -36.1820   24.0180 C   0  0  0  0  0  3  0  0  0  0  0  0
  -27.0700  -37.2290   24.9860 C   0  0  0  0  0  1  0  0  0  0  0  0
  -26.0300  -37.3080   23.9640 N   0  0  0  0  0  0  0  0  0  0  0  0
  -25.5480  -38.1970   24.0710 H   0  0  0  0  0  0  0  0  0  0  0  0
  -26.2290  -31.6460   25.4040 C   0  0  1  0  0  0  0  0  0  0  0  0
  -25.0360  -31.2690   26.3140 C   0  0  0  0  0  1  0  0  0  0  0  0
  -27.0030  -30.3480   25.0770 C   0  0  0  0  0  1  0  0  0  0  0  0
  -27.1900  -32.5420   26.2200 C   0  0  0  0  0  1  0  0  0  0  0  0
  2  5  1  0
  3  2  2  0
  3  6  1  0
  5  4  2  0
  5  1  1  0
  6  7  2  0
  7  9  1  0
  7  4  1  0
  8  6  1  0
  8 48  1  0
  9 10  1  0
 10 19  1  0
 11 19  1  0
 12 17  1  0
 13 14  1  0
 13 12  1  0
 15 14  1  0
 15 24  1  0
 15 16  1  0
 17 11  1  0
 17 16  1  0
 18 11  2  0
 19 20  1  0
 21 22  2  0
 22 41  1  0
 23 22  1  0
 23 26  1  0
 24 25  1  0
 24 21  1  0
 25 23  2  0
 26 27  1  0
 27 28  2  0
 29 28  1  0
 30 29  2  0
 31 30  1  0
 31 26  2  0
 32 29  1  0
 32 33  1  0
 33 34  1  0
 34 35  2  0
 36 35  1  0
 36 40  1  0
 37 36  2  0
 38 33  2  0
 38 37  1  0
 39 38  1  0
 41 42  1  0
 42 45  1  0
 42 44  1  0
 43 41  2  0
 46 47  1  0
 46 21  1  0
 49 52  1  0
 49  1  1  0
 50 49  1  0
 51 49  1  0
 52 53  1  0
 53 54  1  0
 54 55  1  0
 56 67  2  0
 57 55  1  0
 57 62  1  0
 58 66  1  0
 58 68  1  0
 59 61  1  0
 60 66  1  0
 61 62  2  0
 61 60  1  0
 63 57  2  0
 64 63  1  0
 64 59  2  0
 65 59  1  0
 65 58  1  0
 66 56  1  0
 68 70  2  0
 69 68  1  0
 71 69  1  0
 72 81  2  0
 72 77  1  0
 73 69  1  0
 73 77  1  0
 74 73  1  0
 75 76  1  0
 75 74  1  0
 76 72  1  0
 77 78  2  0
 78 79  1  0
 80 79  2  0
 81 80  1  0
 82 56  1  0
 82 83  1  0
 82 92  1  0
 83 86  1  0
 84 88  1  0
 84 83  1  0
 85 84  2  0
 88 87  1  0
 90 88  1  0
 90 91  1  0
 90 89  1  0
 92 95  1  1
 92 93  1  0
 94 92  1  0
M  ISO  4  11 100  19 100  54 101  55 101
M  END
>  <TORSDO>  (27) 
F 23

>  <SCORE>  (27) 
-11.429

>  <name>  (27) 
27

>  <ligand_id>  (27) 
27

>  <original_smiles>  (27) 
[H]c1c([H])c([H])c2c(c1[H])C([H])([H])C([H])([H])C([H])([H])C2([H])N([H])C(=O)C1([H])N(C(=O)C([H])(N([H])C(=O)C([H])(N([H])C([H])([H])[H])C([H])([H])[H])C(C([H])([H])[H])(C([H])([H])[H])C([H])([H])[H])C([H])([H])c2c([H])c(OC([H])([H])C([H])([H])C([H])([H])[N+]([H])([H])C([H])([H])c3c([H])c([H])c(C([H])([H])[H])c(C([H])([H])C([H])([H])N([H])C(=O)N4C([H])([H])C([H])([H])C([H])([H])C([H])(n5nc(-c6c([H])c([H])c(Oc7c([H])c([H])c(F)c([H])c7F)c([H])c6[H])c(C(=O)N([H])[H])c5N([H])[H])C4([H])[H])c3[H])c([H])c([H])c2C1([H])[H]

>  <smiles>  (27) 
[H]c1c([H])c([H])c2c(c1[H])C([H])([H])C([H])([H])C([H])([H])C2([H])N([H])C(=O)C1([H])N(C(=O)C([H])(N([H])C(=O)C([H])(N([H])C([H])([H])[H])C([H])([H])[H])C(C([H])([H])[H])(C([H])([H])[H])C([H])([H])[H])C([H])([H])c2c([H])c(OC([H])([H])C([H])([H])C([H])([H])[N+]([H])([H])C([H])([H])c3c([H])c([H])c(C([H])([H])[H])c(C([H])([H])C([H])([H])N([H])C(=O)N4C([H])([H])C([H])([H])C([H])([H])C([H])(n5nc(-c6c([H])c([H])c(Oc7c([H])c([H])c(F)c([H])c7F)c([H])c6[H])c(C(=O)N([H])[H])c5N([H])[H])C4([H])[H])c3[H])c([H])c([H])c2C1([H])[H]

$$$$
28:0:0
     RDKit          3D

 93101  0  0  1  0  0  0  0  0999 V2000
  -28.1970  -18.8740   20.2300 C   0  0  0  0  0  2  0  0  0  0  0  0
  -30.4680  -19.6430   19.9790 C   0  0  0  0  0  2  0  0  0  0  0  0
  -28.6580  -17.3210   19.9290 C   0  0  0  0  0  2  0  0  0  0  0  0
  -30.9080  -18.0680   19.6950 C   0  0  0  0  0  2  0  0  0  0  0  0
  -28.9790  -20.1850   19.6750 C   0  0  0  0  0  3  0  0  0  0  0  0
  -30.1200  -16.7670   20.2980 C   0  0  2  0  0  0  0  0  0  0  0  0
  -30.6350  -15.2420   19.7430 C   0  0  0  0  0  0  0  0  0  0  0  0
  -30.3950  -12.8650   18.8280 C   0  0  0  0  0  2  0  0  0  0  0  0
  -29.3650  -12.7830   17.6730 C   0  0  0  0  0  2  0  0  0  0  0  0
  -27.9540  -12.5430   18.2290 C   0  0  0  0  0  2  0  0  0  0  0  0
  -27.6370  -13.4660   19.4330 C   0  0  0  0  0  3  0  0  0  0  0  0
  -28.7890  -13.5600   20.4580 C   0  0  0  0  0  2  0  0  0  0  0  0
  -29.9990  -13.9820   19.7460 N   0  0  0  0  0  0  0  0  0  0  0  0
  -31.7670  -15.2220   19.2550 O   0  0  0  0  0  0  0  0  0  0  0  0
  -25.3430  -13.9870   20.4290 C   0  0  0  0  0  0  0  0  0  0  0  0
  -24.3090  -13.1970   20.8480 C   0  0  0  0  0  0  0  0  0  0  0  0
  -24.7650  -11.8480   20.7080 C   0  0  0  0  0  0  0  0  0  0  0  0
  -26.3560  -13.1290   20.0500 N   0  0  0  0  0  0  0  0  0  0  0  0
  -26.0260  -11.8280   20.2800 N   0  0  0  0  0  0  0  0  0  0  0  0
  -24.0500  -10.5740   20.8930 C   0  0  0  0  0  0  0  0  0  0  0  0
  -24.5250   -9.5860   21.7830 C   0  0  0  0  0  3  0  0  0  0  0  0
  -23.8080   -8.3840   21.9620 C   0  0  0  0  0  3  0  0  0  0  0  0
  -22.6020   -8.1640   21.2510 C   0  0  0  0  0  0  0  0  0  0  0  0
  -22.1460   -9.1450   20.3530 C   0  0  0  0  0  3  0  0  0  0  0  0
  -22.8640  -10.3400   20.1710 C   0  0  0  0  0  3  0  0  0  0  0  0
  -21.8530   -7.0160   21.3440 O   0  0  0  0  0  0  0  0  0  0  0  0
  -21.8190   -6.2670   22.4940 C   0  0  0  0  0  0  0  0  0  0  0  0
  -21.3660   -6.8050   23.7190 C   0  0  0  0  0  3  0  0  0  0  0  0
  -21.2900   -5.9870   24.8640 C   0  0  0  0  0  3  0  0  0  0  0  0
  -21.6440   -4.6260   24.7800 C   0  0  0  0  0  0  0  0  0  0  0  0
  -22.0840   -4.0870   23.5580 C   0  0  0  0  0  3  0  0  0  0  0  0
  -22.1680   -4.9040   22.4190 C   0  0  0  0  0  0  0  0  0  0  0  0
  -22.5750   -4.3740   21.2390 F   0  0  0  0  0  0  0  0  0  0  0  0
  -21.5620   -3.8340   25.8740 F   0  0  0  0  0  0  0  0  0  0  0  0
  -22.9400  -13.6570   21.2650 C   0  0  0  0  0  0  0  0  0  0  0  0
  -22.2930  -12.9150   22.1590 N   0  0  0  0  0  0  0  0  0  0  0  0
  -22.4620  -14.7080   20.8410 O   0  0  0  0  0  0  0  0  0  0  0  0
  -22.6920  -12.0560   22.4950 H   0  0  0  0  0  0  0  0  0  0  0  0
  -21.3880  -13.2030   22.5020 H   0  0  0  0  0  0  0  0  0  0  0  0
  -25.4910  -15.3640   20.3040 N   0  0  0  0  0  0  0  0  0  0  0  0
  -24.7400  -16.0110   20.5020 H   0  0  0  0  0  0  0  0  0  0  0  0
  -26.3020  -15.8070   19.8920 H   0  0  0  0  0  0  0  0  0  0  0  0
  -28.4280  -21.6450   20.1800 N   0  0  0  0  0  4  0  0  0  0  0  0
  -28.4510  -21.6380   21.1890 H   0  0  0  0  0  0  0  0  0  0  0  0
  -27.4510  -21.5830   19.9490 H   0  0  0  0  0  0  0  0  0  0  0  0
  -28.7350  -23.1720   19.7130 C   0  0  0  0  0  3  0  0  0  0  0  0
  -27.8700  -24.5920   20.2450 C   0  0  0  0  0  3  0  0  0  0  0  0
  -28.1050  -26.1660   20.0280 O   0  0  0  0  0  0  0  0  0  0  0  0
  -24.5920  -31.9490   23.1990 C   0  0  0  0  0  0  0  0  0  0  0  0
  -27.0550  -27.1880   20.0540 C   0  0  0  0  0  0  0  0  0  0  0  0
  -23.3420  -30.5730   21.5870 C   0  0  0  0  0  3  0  0  0  0  0  0
  -24.7390  -28.9920   20.1100 C   0  0  0  0  0  0  0  0  0  0  0  0
  -25.8940  -30.8150   21.3510 C   0  0  0  0  0  2  0  0  0  0  0  0
  -25.9440  -29.4190   20.6840 C   0  0  0  0  0  0  0  0  0  0  0  0
  -27.0970  -28.5370   20.6350 C   0  0  0  0  0  3  0  0  0  0  0  0
  -25.8180  -26.8840   19.4520 C   0  0  0  0  0  3  0  0  0  0  0  0
  -24.6870  -27.7370   19.4900 C   0  0  0  0  0  3  0  0  0  0  0  0
  -23.5220  -29.9010   20.1990 C   0  0  0  0  0  2  0  0  0  0  0  0
  -24.6330  -31.1360   22.0980 N   0  0  0  0  0  0  0  0  0  0  0  0
  -23.5230  -32.2330   23.7630 O   0  0  0  0  0  0  0  0  0  0  0  0
  -22.6860  -29.5610   22.5610 C   0  0  0  0  0  0  0  0  0  0  0  0
  -21.3580  -29.3770   22.4480 N   0  0  0  0  0  0  0  0  0  0  0  0
  -23.3710  -28.9410   23.3800 O   0  0  0  0  0  0  0  0  0  0  0  0
  -20.8580  -29.9180   21.7540 H   0  0  0  0  0  0  0  0  0  0  0  0
  -18.0030  -28.1060   22.9700 C   0  0  0  0  0  0  0  0  0  0  0  0
  -20.5570  -28.4290   23.2280 C   0  0  0  0  0  3  0  0  0  0  0  0
  -20.6910  -26.9960   22.6650 C   0  0  0  0  0  2  0  0  0  0  0  0
  -19.5950  -26.6390   21.6570 C   0  0  0  0  0  2  0  0  0  0  0  0
  -18.2120  -26.7560   22.3040 C   0  0  0  0  0  2  0  0  0  0  0  0
  -19.1050  -28.8970   23.3910 C   0  0  0  0  0  0  0  0  0  0  0  0
  -18.8620  -30.1560   23.9800 C   0  0  0  0  0  3  0  0  0  0  0  0
  -17.5480  -30.6280   24.1540 C   0  0  0  0  0  3  0  0  0  0  0  0
  -16.4600  -29.8350   23.7510 C   0  0  0  0  0  3  0  0  0  0  0  0
  -16.6880  -28.5750   23.1670 C   0  0  0  0  0  3  0  0  0  0  0  0
  -25.8880  -32.5730   23.8000 C   0  0  0  0  0  3  0  0  0  0  0  0
  -25.5950  -33.9790   24.1330 N   0  0  0  0  0  0  0  0  0  0  0  0
  -25.9360  -35.0300   23.3770 C   0  0  0  0  0  0  0  0  0  0  0  0
  -26.5890  -34.9160   22.3380 O   0  0  0  0  0  0  0  0  0  0  0  0
  -25.0030  -34.1380   24.9330 H   0  0  0  0  0  0  0  0  0  0  0  0
  -24.2300  -36.8510   23.0560 C   0  0  0  0  0  1  0  0  0  0  0  0
  -25.4770  -36.4260   23.8480 C   0  0  0  0  0  3  0  0  0  0  0  0
  -27.6310  -37.2770   24.6610 C   0  0  0  0  0  1  0  0  0  0  0  0
  -26.5250  -37.4610   23.7260 N   0  0  0  0  0  0  0  0  0  0  0  0
  -26.1380  -38.3910   23.8690 H   0  0  0  0  0  0  0  0  0  0  0  0
  -26.4170  -31.8050   25.0770 C   0  0  1  0  0  0  0  0  0  0  0  0
  -25.3320  -31.5900   26.1590 C   0  0  0  0  0  1  0  0  0  0  0  0
  -26.9810  -30.4150   24.6970 C   0  0  0  0  0  1  0  0  0  0  0  0
  -27.5920  -32.5900   25.7100 C   0  0  0  0  0  1  0  0  0  0  0  0
  -30.3570  -16.6120   21.8470 C   0  0  0  0  0  2  0  0  0  0  0  0
  -31.5330  -18.4000   23.1730 C   0  0  0  0  0  1  0  0  0  0  0  0
  -30.2660  -17.8660   22.6280 N   0  0  0  0  0  4  0  0  0  0  0  0
  -29.8730  -18.5830   22.0390 H   0  0  0  0  0  0  0  0  0  0  0  0
  -29.6450  -17.7100   23.4030 H   0  0  0  0  0  0  0  0  0  0  0  0
  3  1  1  0
  3  6  1  0
  4  2  1  0
  4  6  1  0
  5  2  1  0
  5 43  1  0
  5  1  1  0
  6 89  1  1
  7 13  1  0
  7  6  1  0
  8 13  1  0
  9 10  1  0
  9  8  1  0
 11 10  1  0
 11 18  1  0
 11 12  1  0
 13 12  1  0
 14  7  2  0
 15 16  2  0
 16 35  1  0
 17 16  1  0
 17 20  1  0
 18 19  1  0
 18 15  1  0
 19 17  2  0
 20 21  1  0
 21 22  2  0
 23 26  1  0
 23 22  1  0
 24 23  2  0
 25 24  1  0
 25 20  2  0
 26 27  1  0
 27 28  1  0
 28 29  2  0
 30 29  1  0
 30 34  1  0
 31 30  2  0
 32 27  2  0
 32 31  1  0
 33 32  1  0
 35 36  1  0
 36 38  1  0
 36 39  1  0
 37 35  2  0
 40 15  1  0
 40 41  1  0
 42 40  1  0
 43 44  1  0
 45 43  1  0
 46 43  1  0
 46 47  2  0
 48 50  1  0
 48 47  1  0
 49 60  2  0
 50 55  1  0
 51 59  1  0
 51 61  1  0
 52 58  1  0
 52 54  1  0
 53 59  1  0
 54 53  1  0
 55 54  2  0
 56 57  1  0
 56 50  2  0
 57 52  2  0
 58 51  1  0
 59 49  1  0
 61 63  2  0
 62 61  1  0
 64 62  1  0
 65 74  2  0
 65 70  1  0
 66 62  1  0
 66 70  1  0
 67 66  1  0
 68 69  1  0
 68 67  1  0
 69 65  1  0
 70 71  2  0
 71 72  1  0
 73 72  2  0
 74 73  1  0
 75 49  1  0
 75 76  1  0
 75 85  1  0
 76 79  1  0
 77 81  1  0
 77 76  1  0
 78 77  2  0
 81 80  1  0
 83 81  1  0
 83 84  1  0
 83 82  1  0
 85 88  1  1
 85 86  1  0
 87 85  1  0
 89 91  1  0
 91 90  1  0
 91 93  1  0
 92 91  1  0
M  ISO  4   6 100   7 100  47 101  48 101
M  END
>  <TORSDO>  (28) 
F 21

>  <SCORE>  (28) 
-13.909

>  <name>  (28) 
28

>  <ligand_id>  (28) 
28

>  <original_smiles>  (28) 
[H]c1c([H])c([H])c2c(c1[H])C([H])([H])C([H])([H])C([H])([H])C2([H])N([H])C(=O)C1([H])N(C(=O)C([H])(N([H])C(=O)C([H])(N([H])C([H])([H])[H])C([H])([H])[H])C(C([H])([H])[H])(C([H])([H])[H])C([H])([H])[H])C([H])([H])c2c([H])c(OC([H])([H])C([H])([H])[N+]([H])([H])C3([H])C([H])([H])C([H])([H])C(C(=O)N4C([H])([H])C([H])([H])C([H])([H])C([H])(n5nc(-c6c([H])c([H])c(Oc7c([H])c([H])c(F)c([H])c7F)c([H])c6[H])c(C(=O)N([H])[H])c5N([H])[H])C4([H])[H])(C([H])([H])[N+]([H])([H])C([H])([H])[H])C([H])([H])C3([H])[H])c([H])c([H])c2C1([H])[H]

>  <smiles>  (28) 
[H]c1c([H])c([H])c2c(c1[H])C([H])([H])C([H])([H])C([H])([H])C2([H])N([H])C(=O)C1([H])N(C(=O)C([H])(N([H])C(=O)C([H])(N([H])C([H])([H])[H])C([H])([H])[H])C(C([H])([H])[H])(C([H])([H])[H])C([H])([H])[H])C([H])([H])c2c([H])c(OC([H])([H])C([H])([H])[N+]([H])([H])C3([H])C([H])([H])C([H])([H])C(C(=O)N4C([H])([H])C([H])([H])C([H])([H])C([H])(n5nc(-c6c([H])c([H])c(Oc7c([H])c([H])c(F)c([H])c7F)c([H])c6[H])c(C(=O)N([H])[H])c5N([H])[H])C4([H])[H])(C([H])([H])[N+]([H])([H])C([H])([H])[H])C([H])([H])C3([H])[H])c([H])c([H])c2C1([H])[H]

$$$$
29:0:0
     RDKit          3D

 91100  0  0  1  0  0  0  0  0999 V2000
  -30.7760  -14.7850   20.2780 C   0  0  0  0  0  0  0  0  0  0  0  0
  -30.6140  -12.4500   19.3680 C   0  0  0  0  0  2  0  0  0  0  0  0
  -29.6970  -12.4110   18.1260 C   0  0  0  0  0  2  0  0  0  0  0  0
  -28.2230  -12.2290   18.5370 C   0  0  0  0  0  2  0  0  0  0  0  0
  -27.8090  -13.1760   19.6950 C   0  0  0  0  0  3  0  0  0  0  0  0
  -28.8510  -13.1530   20.8350 C   0  0  0  0  0  2  0  0  0  0  0  0
  -30.1380  -13.5530   20.2450 N   0  0  0  0  0  0  0  0  0  0  0  0
  -31.9580  -14.8320   19.9180 O   0  0  0  0  0  0  0  0  0  0  0  0
  -27.5150  -20.0950   19.5370 C   0  0  0  0  0  2  0  0  0  0  0  0
  -28.4830  -18.9010   19.2160 C   0  0  0  0  0  2  0  0  0  0  0  0
  -28.8920  -17.8320   21.5060 C   0  0  0  0  0  2  0  0  0  0  0  0
  -30.1670  -19.9640   20.7740 C   0  0  0  0  0  2  0  0  0  0  0  0
  -28.9480  -16.3010   21.2760 C   0  0  0  0  0  2  0  0  0  0  0  0
  -30.5310  -17.3600   19.9010 C   0  0  0  0  0  2  0  0  0  0  0  0
  -27.9020  -21.5380   19.0580 C   0  0  0  0  0  2  0  0  0  0  0  0
  -30.1900  -21.3000   19.8810 C   0  0  0  0  0  2  0  0  0  0  0  0
  -29.5400  -18.5610   20.3080 C   0  0  2  0  0  0  0  0  0  0  0  0
  -30.0630  -15.9940   20.3780 N   0  0  0  0  0  0  0  0  0  0  0  0
  -28.9630  -22.2070   19.8670 N   0  0  1  0  0  4  0  0  0  0  0  0
  -28.6230  -22.2300   20.8180 H   0  0  0  0  0  0  0  0  0  0  0  0
  -25.4140  -13.7750   20.3920 C   0  0  0  0  0  0  0  0  0  0  0  0
  -24.3460  -13.0050   20.7620 C   0  0  0  0  0  0  0  0  0  0  0  0
  -24.8090  -11.6540   20.7480 C   0  0  0  0  0  0  0  0  0  0  0  0
  -26.4620  -12.8940   20.1750 N   0  0  0  0  0  0  0  0  0  0  0  0
  -26.1040  -11.6130   20.4520 N   0  0  0  0  0  0  0  0  0  0  0  0
  -24.0800  -10.3940   20.9420 C   0  0  0  0  0  0  0  0  0  0  0  0
  -24.4930   -9.4410   21.8990 C   0  0  0  0  0  3  0  0  0  0  0  0
  -23.7640   -8.2460   22.0800 C   0  0  0  0  0  3  0  0  0  0  0  0
  -22.6070   -7.9960   21.3030 C   0  0  0  0  0  0  0  0  0  0  0  0
  -22.2140   -8.9380   20.3360 C   0  0  0  0  0  3  0  0  0  0  0  0
  -22.9450  -10.1240   20.1540 C   0  0  0  0  0  3  0  0  0  0  0  0
  -21.8520   -6.8520   21.3920 O   0  0  0  0  0  0  0  0  0  0  0  0
  -21.7570   -6.1410   22.5620 C   0  0  0  0  0  0  0  0  0  0  0  0
  -21.2690   -6.7250   23.7510 C   0  0  0  0  0  3  0  0  0  0  0  0
  -21.1230   -5.9400   24.9120 C   0  0  0  0  0  3  0  0  0  0  0  0
  -21.4540   -4.5720   24.8850 C   0  0  0  0  0  0  0  0  0  0  0  0
  -21.9350   -3.9870   23.7000 C   0  0  0  0  0  3  0  0  0  0  0  0
  -22.0830   -4.7700   22.5400 C   0  0  0  0  0  0  0  0  0  0  0  0
  -22.5260   -4.1980   21.3950 F   0  0  0  0  0  0  0  0  0  0  0  0
  -21.3070   -3.8160   25.9970 F   0  0  0  0  0  0  0  0  0  0  0  0
  -22.9480  -13.4860   21.0170 C   0  0  0  0  0  0  0  0  0  0  0  0
  -22.2140  -12.8040   21.8900 N   0  0  0  0  0  0  0  0  0  0  0  0
  -22.5130  -14.5030   20.4770 O   0  0  0  0  0  0  0  0  0  0  0  0
  -22.5770  -11.9820   22.3480 H   0  0  0  0  0  0  0  0  0  0  0  0
  -21.2750  -13.1100   22.1030 H   0  0  0  0  0  0  0  0  0  0  0  0
  -25.5720  -15.1420   20.1940 N   0  0  0  0  0  0  0  0  0  0  0  0
  -24.7980  -15.7920   20.2880 H   0  0  0  0  0  0  0  0  0  0  0  0
  -26.4140  -15.5790   19.8440 H   0  0  0  0  0  0  0  0  0  0  0  0
  -29.2410  -23.6990   19.5050 C   0  0  0  0  0  3  0  0  0  0  0  0
  -28.0620  -24.8180   19.5350 C   0  0  0  0  0  3  0  0  0  0  0  0
  -28.3350  -26.3090   19.5170 O   0  0  0  0  0  0  0  0  0  0  0  0
  -24.7220  -31.5220   23.1090 C   0  0  0  0  0  0  0  0  0  0  0  0
  -27.2450  -27.2190   19.5790 C   0  0  0  0  0  0  0  0  0  0  0  0
  -23.4910  -30.3110   21.3490 C   0  0  0  0  0  3  0  0  0  0  0  0
  -24.9110  -28.8970   19.7570 C   0  0  0  0  0  0  0  0  0  0  0  0
  -26.0390  -30.6040   21.1770 C   0  0  0  0  0  2  0  0  0  0  0  0
  -26.0960  -29.2950   20.3890 C   0  0  0  0  0  0  0  0  0  0  0  0
  -27.2670  -28.4710   20.2860 C   0  0  0  0  0  3  0  0  0  0  0  0
  -26.0330  -26.9010   18.9230 C   0  0  0  0  0  3  0  0  0  0  0  0
  -24.8860  -27.7100   19.0140 C   0  0  0  0  0  3  0  0  0  0  0  0
  -23.6890  -29.7810   19.9060 C   0  0  0  0  0  2  0  0  0  0  0  0
  -24.7710  -30.8240   21.9350 N   0  0  0  0  0  0  0  0  0  0  0  0
  -23.6450  -31.7550   23.6770 O   0  0  0  0  0  0  0  0  0  0  0  0
  -22.8230  -29.2080   22.2060 C   0  0  0  0  0  0  0  0  0  0  0  0
  -21.4920  -29.0680   22.0860 N   0  0  0  0  0  0  0  0  0  0  0  0
  -23.5030  -28.4850   22.9400 O   0  0  0  0  0  0  0  0  0  0  0  0
  -21.0020  -29.7040   21.4720 H   0  0  0  0  0  0  0  0  0  0  0  0
  -18.0950  -27.9070   22.5550 C   0  0  0  0  0  0  0  0  0  0  0  0
  -20.6680  -28.0670   22.7680 C   0  0  0  0  0  3  0  0  0  0  0  0
  -20.7100  -26.7120   22.0260 C   0  0  0  0  0  2  0  0  0  0  0  0
  -19.5690  -26.5400   21.0180 C   0  0  0  0  0  2  0  0  0  0  0  0
  -18.2120  -26.6430   21.7200 C   0  0  0  0  0  2  0  0  0  0  0  0
  -19.2490  -28.5850   23.0350 C   0  0  0  0  0  0  0  0  0  0  0  0
  -19.0840  -29.7720   23.7780 C   0  0  0  0  0  3  0  0  0  0  0  0
  -17.8000  -30.2830   24.0460 C   0  0  0  0  0  3  0  0  0  0  0  0
  -16.6620  -29.6010   23.5830 C   0  0  0  0  0  3  0  0  0  0  0  0
  -16.8110  -28.4140   22.8420 C   0  0  0  0  0  3  0  0  0  0  0  0
  -26.0150  -32.0770   23.7810 C   0  0  0  0  0  3  0  0  0  0  0  0
  -25.7260  -33.4430   24.2420 N   0  0  0  0  0  0  0  0  0  0  0  0
  -26.0400  -34.5580   23.5700 C   0  0  0  0  0  0  0  0  0  0  0  0
  -26.6750  -34.5440   22.5120 O   0  0  0  0  0  0  0  0  0  0  0  0
  -25.1580  -33.5280   25.0720 H   0  0  0  0  0  0  0  0  0  0  0  0
  -24.3000  -36.3720   23.4530 C   0  0  0  0  0  1  0  0  0  0  0  0
  -25.5790  -35.9030   24.1650 C   0  0  0  0  0  3  0  0  0  0  0  0
  -27.7530  -36.7220   24.9630 C   0  0  0  0  0  1  0  0  0  0  0  0
  -26.6070  -36.9640   24.0890 N   0  0  0  0  0  0  0  0  0  0  0  0
  -26.2100  -37.8680   24.3300 H   0  0  0  0  0  0  0  0  0  0  0  0
  -26.5240  -31.1850   24.9780 C   0  0  1  0  0  0  0  0  0  0  0  0
  -25.4320  -30.8700   26.0270 C   0  0  0  0  0  1  0  0  0  0  0  0
  -27.0810  -29.8390   24.4620 C   0  0  0  0  0  1  0  0  0  0  0  0
  -27.6920  -31.8960   25.7020 C   0  0  0  0  0  1  0  0  0  0  0  0
  1 18  1  0
  2  7  1  0
  3  4  1  0
  3  2  1  0
  5  4  1  0
  5 24  1  0
  5  6  1  0
  7  1  1  0
  7  6  1  0
  8  1  2  0
 10  9  1  0
 13 11  1  0
 17 14  1  6
 14 18  1  0
 15  9  1  0
 15 19  1  0
 16 12  1  0
 17 10  1  0
 17 12  1  0
 17 11  1  0
 18 13  1  0
 19 16  1  0
 19 20  1  1
 21 22  2  0
 22 41  1  0
 23 22  1  0
 23 26  1  0
 24 21  1  0
 24 25  1  0
 25 23  2  0
 26 27  1  0
 27 28  2  0
 29 32  1  0
 29 28  1  0
 30 29  2  0
 31 30  1  0
 31 26  2  0
 32 33  1  0
 33 34  1  0
 34 35  2  0
 36 35  1  0
 36 40  1  0
 37 36  2  0
 38 33  2  0
 38 37  1  0
 39 38  1  0
 41 42  1  0
 42 45  1  0
 42 44  1  0
 43 41  2  0
 46 47  1  0
 46 21  1  0
 48 46  1  0
 49 50  2  0
 49 19  1  0
 51 50  1  0
 51 53  1  0
 52 63  2  0
 53 58  1  0
 54 62  1  0
 54 64  1  0
 55 61  1  0
 55 57  1  0
 56 62  1  0
 57 56  1  0
 58 57  2  0
 59 60  1  0
 59 53  2  0
 60 55  2  0
 61 54  1  0
 62 52  1  0
 64 66  2  0
 65 64  1  0
 67 65  1  0
 68 77  2  0
 68 73  1  0
 69 65  1  0
 69 73  1  0
 70 69  1  0
 71 72  1  0
 71 70  1  0
 72 68  1  0
 73 74  2  0
 74 75  1  0
 76 75  2  0
 77 76  1  0
 78 52  1  0
 78 79  1  0
 78 88  1  0
 79 82  1  0
 80 84  1  0
 80 79  1  0
 81 80  2  0
 84 83  1  0
 86 84  1  0
 86 87  1  0
 86 85  1  0
 88 91  1  1
 88 89  1  0
 90 88  1  0
M  ISO  4   1 100  18 100  50 101  51 101
M  END
>  <TORSDO>  (29) 
F 17

>  <SCORE>  (29) 
-13.088

>  <name>  (29) 
29

>  <ligand_id>  (29) 
29

>  <original_smiles>  (29) 
[H]c1c([H])c([H])c2c(c1[H])C([H])([H])C([H])([H])C([H])([H])C2([H])N([H])C(=O)C1([H])N(C(=O)C([H])(N([H])C(=O)C([H])(N([H])C([H])([H])[H])C([H])([H])[H])C(C([H])([H])[H])(C([H])([H])[H])C([H])([H])[H])C([H])([H])c2c([H])c(OC([H])([H])C([H])([H])[N+]3([H])C([H])([H])C([H])([H])C([H])([H])C4(C([H])([H])N(C(=O)N5C([H])([H])C([H])([H])C([H])([H])C([H])(n6nc(-c7c([H])c([H])c(Oc8c([H])c([H])c(F)c([H])c8F)c([H])c7[H])c(C(=O)N([H])[H])c6N([H])[H])C5([H])[H])C([H])([H])C4([H])[H])C([H])([H])C3([H])[H])c([H])c([H])c2C1([H])[H]

>  <smiles>  (29) 
[H]c1c([H])c([H])c2c(c1[H])C([H])([H])C([H])([H])C([H])([H])C2([H])N([H])C(=O)C1([H])N(C(=O)C([H])(N([H])C(=O)C([H])(N([H])C([H])([H])[H])C([H])([H])[H])C(C([H])([H])[H])(C([H])([H])[H])C([H])([H])[H])C([H])([H])c2c([H])c(OC([H])([H])C([H])([H])[N+]3([H])C([H])([H])C([H])([H])C([H])([H])C4(C([H])([H])N(C(=O)N5C([H])([H])C([H])([H])C([H])([H])C([H])(n6nc(-c7c([H])c([H])c(Oc8c([H])c([H])c(F)c([H])c8F)c([H])c7[H])c(C(=O)N([H])[H])c6N([H])[H])C5([H])[H])C([H])([H])C4([H])[H])C([H])([H])C3([H])[H])c([H])c([H])c2C1([H])[H]

$$$$
30:0:0
     RDKit          3D

 94102  0  0  1  0  0  0  0  0999 V2000
  -27.1750  -21.7930   20.7630 C   0  0  0  0  0  2  0  0  0  0  0  0
  -27.1110  -17.9770   20.3960 C   0  0  0  0  0  3  0  0  0  0  0  0
  -28.4500  -17.6970   20.0630 C   0  0  0  0  0  3  0  0  0  0  0  0
  -26.7080  -19.3010   20.6510 C   0  0  0  0  0  3  0  0  0  0  0  0
  -28.9930  -20.0650   20.2870 C   0  0  0  0  0  3  0  0  0  0  0  0
  -29.4020  -18.7370   20.0150 C   0  0  0  0  0  0  0  0  0  0  0  0
  -27.6420  -20.3560   20.5780 C   0  0  0  0  0  0  0  0  0  0  0  0
  -30.8450  -18.4540   19.6110 C   0  0  0  0  0  2  0  0  0  0  0  0
  -31.7380  -17.8660   20.7290 C   0  0  0  0  0  2  0  0  0  0  0  0
  -32.1380  -15.4140   20.4370 C   0  0  0  0  0  0  0  0  0  0  0  0
  -31.9320  -13.0630   19.7230 C   0  0  0  0  0  2  0  0  0  0  0  0
  -31.1390  -12.9990   18.4030 C   0  0  0  0  0  2  0  0  0  0  0  0
  -29.6220  -12.9520   18.6770 C   0  0  0  0  0  2  0  0  0  0  0  0
  -29.1630  -14.0530   19.6690 C   0  0  0  0  0  3  0  0  0  0  0  0
  -30.0710  -14.0630   20.9180 C   0  0  0  0  0  2  0  0  0  0  0  0
  -31.4680  -14.2350   20.4740 N   0  0  0  0  0  0  0  0  0  0  0  0
  -33.2540  -15.5520   19.9260 O   0  0  0  0  0  0  0  0  0  0  0  0
  -31.4500  -16.4480   20.9360 N   0  0  0  0  0  0  0  0  0  0  0  0
  -30.5580  -16.2180   21.3470 H   0  0  0  0  0  0  0  0  0  0  0  0
  -26.7570  -14.8570   20.1280 C   0  0  0  0  0  0  0  0  0  0  0  0
  -25.6090  -14.1760   20.4280 C   0  0  0  0  0  0  0  0  0  0  0  0
  -25.9750  -12.7970   20.5000 C   0  0  0  0  0  0  0  0  0  0  0  0
  -27.7550  -13.8990   20.0300 N   0  0  0  0  0  0  0  0  0  0  0  0
  -27.2800  -12.6570   20.3080 N   0  0  0  0  0  0  0  0  0  0  0  0
  -25.1500  -11.5970   20.6870 C   0  0  0  0  0  0  0  0  0  0  0  0
  -25.4120  -10.6720   21.7200 C   0  0  0  0  0  3  0  0  0  0  0  0
  -24.5940   -9.5340   21.8860 C   0  0  0  0  0  3  0  0  0  0  0  0
  -23.4960   -9.3160   21.0200 C   0  0  0  0  0  0  0  0  0  0  0  0
  -23.2530  -10.2290   19.9780 C   0  0  0  0  0  3  0  0  0  0  0  0
  -24.0730  -11.3580   19.8120 C   0  0  0  0  0  3  0  0  0  0  0  0
  -22.6620   -8.2260   21.0920 O   0  0  0  0  0  0  0  0  0  0  0  0
  -22.4070   -7.5930   22.2820 C   0  0  0  0  0  0  0  0  0  0  0  0
  -21.8860   -8.2860   23.3980 C   0  0  0  0  0  3  0  0  0  0  0  0
  -21.5740   -7.5840   24.5780 C   0  0  0  0  0  3  0  0  0  0  0  0
  -21.7720   -6.1920   24.6450 C   0  0  0  0  0  0  0  0  0  0  0  0
  -22.2820   -5.5000   23.5330 C   0  0  0  0  0  3  0  0  0  0  0  0
  -22.5980   -6.1980   22.3540 C   0  0  0  0  0  0  0  0  0  0  0  0
  -23.0740   -5.5240   21.2790 F   0  0  0  0  0  0  0  0  0  0  0  0
  -21.4620   -5.5160   25.7750 F   0  0  0  0  0  0  0  0  0  0  0  0
  -24.2290  -14.7580   20.5520 C   0  0  0  0  0  0  0  0  0  0  0  0
  -23.3930  -14.1740   21.4040 N   0  0  0  0  0  0  0  0  0  0  0  0
  -23.9010  -15.7670   19.9280 O   0  0  0  0  0  0  0  0  0  0  0  0
  -23.6710  -13.3640   21.9380 H   0  0  0  0  0  0  0  0  0  0  0  0
  -22.4670  -14.5540   21.5350 H   0  0  0  0  0  0  0  0  0  0  0  0
  -27.0320  -16.2050   19.9180 N   0  0  0  0  0  0  0  0  0  0  0  0
  -26.3090  -16.9140   19.9780 H   0  0  0  0  0  0  0  0  0  0  0  0
  -27.9520  -16.5900   19.7480 H   0  0  0  0  0  0  0  0  0  0  0  0
  -27.8600  -22.4620   21.8860 N   0  0  0  0  0  4  0  0  0  0  0  0
  -28.8510  -22.4520   21.7210 H   0  0  0  0  0  0  0  0  0  0  0  0
  -27.6880  -21.9090   22.7110 H   0  0  0  0  0  0  0  0  0  0  0  0
  -27.3900  -23.8420   22.1610 C   0  0  0  0  0  2  0  0  0  0  0  0
  -28.4890  -24.9160   22.0230 C   0  0  0  0  0  2  0  0  0  0  0  0
  -28.8230  -25.3230   20.5700 C   0  0  0  0  0  2  0  0  0  0  0  0
  -28.8580  -26.7490   20.4350 O   0  0  0  0  0  0  0  0  0  0  0  0
  -24.7600  -31.7800   23.3350 C   0  0  0  0  0  0  0  0  0  0  0  0
  -27.6530  -27.4150   20.3840 C   0  0  0  0  0  0  0  0  0  0  0  0
  -23.6700  -30.3740   21.6190 C   0  0  0  0  0  3  0  0  0  0  0  0
  -25.2270  -28.8660   20.2720 C   0  0  0  0  0  0  0  0  0  0  0  0
  -26.1950  -30.7780   21.5620 C   0  0  0  0  0  2  0  0  0  0  0  0
  -26.3390  -29.4100   20.9240 C   0  0  0  0  0  0  0  0  0  0  0  0
  -27.5540  -28.6910   20.9790 C   0  0  0  0  0  3  0  0  0  0  0  0
  -26.5230  -26.8820   19.7200 C   0  0  0  0  0  3  0  0  0  0  0  0
  -25.3130  -27.6000   19.6680 C   0  0  0  0  0  3  0  0  0  0  0  0
  -23.9690  -29.7040   20.2500 C   0  0  0  0  0  2  0  0  0  0  0  0
  -24.8910  -30.9910   22.2310 N   0  0  0  0  0  0  0  0  0  0  0  0
  -23.6460  -32.0290   23.8140 O   0  0  0  0  0  0  0  0  0  0  0  0
  -22.9870  -29.3340   22.5330 C   0  0  0  0  0  0  0  0  0  0  0  0
  -21.6680  -29.1540   22.3540 N   0  0  0  0  0  0  0  0  0  0  0  0
  -23.6420  -28.6890   23.3560 O   0  0  0  0  0  0  0  0  0  0  0  0
  -21.1930  -29.7500   21.6890 H   0  0  0  0  0  0  0  0  0  0  0  0
  -18.2790  -27.9430   22.6930 C   0  0  0  0  0  0  0  0  0  0  0  0
  -20.8250  -28.1910   23.0600 C   0  0  0  0  0  3  0  0  0  0  0  0
  -20.9510  -26.7780   22.4440 C   0  0  0  0  0  2  0  0  0  0  0  0
  -19.8790  -26.4770   21.3930 C   0  0  0  0  0  2  0  0  0  0  0  0
  -18.4820  -26.6020   22.0050 C   0  0  0  0  0  2  0  0  0  0  0  0
  -19.3820  -28.6940   23.1770 C   0  0  0  0  0  0  0  0  0  0  0  0
  -19.1460  -29.9490   23.7800 C   0  0  0  0  0  3  0  0  0  0  0  0
  -17.8380  -30.4510   23.9050 C   0  0  0  0  0  3  0  0  0  0  0  0
  -16.7480  -29.6940   23.4420 C   0  0  0  0  0  3  0  0  0  0  0  0
  -16.9700  -28.4410   22.8400 C   0  0  0  0  0  3  0  0  0  0  0  0
  -25.9990  -32.4260   24.0310 C   0  0  0  0  0  3  0  0  0  0  0  0
  -25.6620  -33.8250   24.3240 N   0  0  0  0  0  0  0  0  0  0  0  0
  -26.0440  -34.8710   23.5790 C   0  0  0  0  0  0  0  0  0  0  0  0
  -26.7870  -34.7590   22.6000 O   0  0  0  0  0  0  0  0  0  0  0  0
  -25.0140  -33.9860   25.0830 H   0  0  0  0  0  0  0  0  0  0  0  0
  -24.3400  -36.6480   23.0790 C   0  0  0  0  0  1  0  0  0  0  0  0
  -25.5180  -36.2610   23.9850 C   0  0  0  0  0  3  0  0  0  0  0  0
  -27.5860  -37.1590   24.9580 C   0  0  0  0  0  1  0  0  0  0  0  0
  -26.5520  -37.3180   23.9370 N   0  0  0  0  0  0  0  0  0  0  0  0
  -26.1340  -38.2370   24.0480 H   0  0  0  0  0  0  0  0  0  0  0  0
  -26.4410  -31.6680   25.3430 C   0  0  1  0  0  0  0  0  0  0  0  0
  -25.2820  -31.4180   26.3350 C   0  0  0  0  0  1  0  0  0  0  0  0
  -27.0660  -30.2970   24.9950 C   0  0  0  0  0  1  0  0  0  0  0  0
  -27.5350  -32.4810   26.0760 C   0  0  0  0  0  1  0  0  0  0  0  0
  1 48  1  0
  2  4  1  0
  3  2  2  0
  5  7  1  0
  6  3  1  0
  6  5  2  0
  7  4  2  0
  7  1  1  0
  8  6  1  0
  8  9  1  0
  9 18  1  0
 10 16  1  0
 10 18  1  0
 11 16  1  0
 12 13  1  0
 12 11  1  0
 14 13  1  0
 14 23  1  0
 14 15  1  0
 16 15  1  0
 17 10  2  0
 18 19  1  0
 20 21  2  0
 21 22  1  0
 21 40  1  0
 22 25  1  0
 23 20  1  0
 23 24  1  0
 24 22  2  0
 25 26  1  0
 26 27  2  0
 28 31  1  0
 28 27  1  0
 29 28  2  0
 30 29  1  0
 30 25  2  0
 31 32  1  0
 32 37  2  0
 32 33  1  0
 33 34  2  0
 34 35  1  0
 35 39  1  0
 36 35  2  0
 37 36  1  0
 38 37  1  0
 40 41  1  0
 41 44  1  0
 41 43  1  0
 42 40  2  0
 45 46  1  0
 45 20  1  0
 47 45  1  0
 48 51  1  0
 48 50  1  0
 49 48  1  0
 52 51  1  0
 53 52  1  0
 54 53  1  0
 55 66  2  0
 56 54  1  0
 56 61  1  0
 57 65  1  0
 57 67  1  0
 58 60  1  0
 59 65  1  0
 60 61  2  0
 60 59  1  0
 62 56  2  0
 63 62  1  0
 63 58  2  0
 64 58  1  0
 64 57  1  0
 65 55  1  0
 67 69  2  0
 68 67  1  0
 70 68  1  0
 71 80  2  0
 71 76  1  0
 72 68  1  0
 72 76  1  0
 73 72  1  0
 74 75  1  0
 74 73  1  0
 75 71  1  0
 76 77  2  0
 77 78  1  0
 79 78  2  0
 80 79  1  0
 81 55  1  0
 81 82  1  0
 81 91  1  0
 82 85  1  0
 83 87  1  0
 83 82  1  0
 84 83  2  0
 87 86  1  0
 89 87  1  0
 89 90  1  0
 89 88  1  0
 91 94  1  1
 91 92  1  0
 93 91  1  0
M  ISO  4  10 100  18 100  53 101  54 101
M  END
>  <TORSDO>  (30) 
F 23

>  <SCORE>  (30) 
-8.357

>  <name>  (30) 
30

>  <ligand_id>  (30) 
30

>  <original_smiles>  (30) 
[H]c1c([H])c([H])c2c(c1[H])C([H])([H])C([H])([H])C([H])([H])C2([H])N([H])C(=O)C1([H])N(C(=O)C([H])(N([H])C(=O)C([H])(N([H])C([H])([H])[H])C([H])([H])[H])C(C([H])([H])[H])(C([H])([H])[H])C([H])([H])[H])C([H])([H])c2c([H])c(OC([H])([H])C([H])([H])C([H])([H])[N+]([H])([H])C([H])([H])c3c([H])c([H])c([H])c(C([H])([H])C([H])([H])N([H])C(=O)N4C([H])([H])C([H])([H])C([H])([H])C([H])(n5nc(-c6c([H])c([H])c(Oc7c([H])c([H])c(F)c([H])c7F)c([H])c6[H])c(C(=O)N([H])[H])c5N([H])[H])C4([H])[H])c3[H])c([H])c([H])c2C1([H])[H]

>  <smiles>  (30) 
[H]c1c([H])c([H])c2c(c1[H])C([H])([H])C([H])([H])C([H])([H])C2([H])N([H])C(=O)C1([H])N(C(=O)C([H])(N([H])C(=O)C([H])(N([H])C([H])([H])[H])C([H])([H])[H])C(C([H])([H])[H])(C([H])([H])[H])C([H])([H])[H])C([H])([H])c2c([H])c(OC([H])([H])C([H])([H])C([H])([H])[N+]([H])([H])C([H])([H])c3c([H])c([H])c([H])c(C([H])([H])C([H])([H])N([H])C(=O)N4C([H])([H])C([H])([H])C([H])([H])C([H])(n5nc(-c6c([H])c([H])c(Oc7c([H])c([H])c(F)c([H])c7F)c([H])c6[H])c(C(=O)N([H])[H])c5N([H])[H])C4([H])[H])c3[H])c([H])c([H])c2C1([H])[H]

$$$$
31:0:0
     RDKit          3D

 96105  0  0  1  0  0  0  0  0999 V2000
  -25.7080  -21.6160   18.5830 C   0  0  0  0  0  2  0  0  0  0  0  0
  -25.4550  -20.5370   19.6430 C   0  0  0  0  0  2  0  0  0  0  0  0
  -27.4240  -21.7140   20.3450 C   0  0  0  0  0  2  0  0  0  0  0  0
  -26.8940  -22.4590   19.1060 C   0  0  0  0  0  3  0  0  0  0  0  0
  -26.8120  -20.3090   20.3220 C   0  0  0  0  0  3  0  0  0  0  0  0
  -28.9970  -23.7350   18.3520 C   0  0  0  0  0  3  0  0  0  0  0  0
  -28.2120  -22.0890   16.9200 C   0  0  0  0  0  3  0  0  0  0  0  0
  -27.9980  -22.7410   18.1120 C   0  0  0  0  0  0  0  0  0  0  0  0
  -29.9380  -23.8260   17.3610 C   0  0  0  0  0  0  0  0  0  0  0  0
  -29.6230  -22.6820   16.0880 S   0  0  0  0  0  0  0  0  0  0  0  0
  -31.1180  -24.7470   17.2940 C   0  0  0  0  0  2  0  0  0  0  0  0
  -30.9870  -25.5450   16.1210 O   0  0  0  0  0  0  0  0  0  0  0  0
  -25.0530  -27.7850   19.3350 C   0  0  0  0  0  0  0  0  0  0  0  0
  -29.7870  -26.2000   16.0120 C   0  0  0  0  0  0  0  0  0  0  0  0
  -25.0990  -28.0120   16.8700 C   0  0  0  0  0  3  0  0  0  0  0  0
  -27.3620  -27.6090   15.7660 C   0  0  0  0  0  0  0  0  0  0  0  0
  -27.2640  -28.0590   18.2260 C   0  0  0  0  0  2  0  0  0  0  0  0
  -27.9560  -27.4530   17.0250 C   0  0  0  0  0  0  0  0  0  0  0  0
  -29.1710  -26.7500   17.1540 C   0  0  0  0  0  3  0  0  0  0  0  0
  -29.1860  -26.3620   14.7490 C   0  0  0  0  0  3  0  0  0  0  0  0
  -27.9710  -27.0630   14.6210 C   0  0  0  0  0  3  0  0  0  0  0  0
  -26.0670  -28.3870   15.7150 C   0  0  0  0  0  2  0  0  0  0  0  0
  -25.7910  -27.9220   18.1970 N   0  0  0  0  0  0  0  0  0  0  0  0
  -23.8150  -27.7800   19.2990 O   0  0  0  0  0  0  0  0  0  0  0  0
  -24.3510  -26.7170   16.4830 C   0  0  0  0  0  0  0  0  0  0  0  0
  -23.4990  -26.8080   15.4480 N   0  0  0  0  0  0  0  0  0  0  0  0
  -24.5610  -25.6610   17.0820 O   0  0  0  0  0  0  0  0  0  0  0  0
  -23.3810  -27.7100   15.0090 H   0  0  0  0  0  0  0  0  0  0  0  0
  -21.2960  -25.9030   12.7330 C   0  0  0  0  0  0  0  0  0  0  0  0
  -22.7170  -25.7100   14.8830 C   0  0  0  0  0  3  0  0  0  0  0  0
  -23.6140  -24.7400   14.0820 C   0  0  0  0  0  2  0  0  0  0  0  0
  -23.6830  -25.0720   12.5870 C   0  0  0  0  0  2  0  0  0  0  0  0
  -22.2830  -25.0410   11.9640 C   0  0  0  0  0  2  0  0  0  0  0  0
  -21.5080  -26.2280   14.0980 C   0  0  0  0  0  0  0  0  0  0  0  0
  -20.5760  -27.0600   14.7550 C   0  0  0  0  0  3  0  0  0  0  0  0
  -19.4500  -27.5590   14.0750 C   0  0  0  0  0  3  0  0  0  0  0  0
  -19.2380  -27.2210   12.7270 C   0  0  0  0  0  3  0  0  0  0  0  0
  -20.1560  -26.3910   12.0600 C   0  0  0  0  0  3  0  0  0  0  0  0
  -25.7280  -27.6540   20.7360 C   0  0  0  0  0  3  0  0  0  0  0  0
  -24.8420  -28.3000   21.7130 N   0  0  0  0  0  0  0  0  0  0  0  0
  -25.0920  -29.4760   22.3050 C   0  0  0  0  0  0  0  0  0  0  0  0
  -26.1430  -30.1010   22.1360 O   0  0  0  0  0  0  0  0  0  0  0  0
  -23.9380  -27.8730   21.8580 H   0  0  0  0  0  0  0  0  0  0  0  0
  -23.2690  -31.1950   22.5190 C   0  0  0  0  0  1  0  0  0  0  0  0
  -24.0050  -30.0490   23.2330 C   0  0  0  0  0  3  0  0  0  0  0  0
  -25.0140  -29.4490   25.3890 C   0  0  0  0  0  1  0  0  0  0  0  0
  -24.5300  -30.5270   24.5310 N   0  0  0  0  0  0  0  0  0  0  0  0
  -23.8180  -31.0430   25.0390 H   0  0  0  0  0  0  0  0  0  0  0  0
  -26.0250  -26.1600   21.1510 C   0  0  1  0  0  0  0  0  0  0  0  0
  -24.8160  -25.2130   20.9660 C   0  0  0  0  0  1  0  0  0  0  0  0
  -27.2010  -25.5890   20.3250 C   0  0  0  0  0  1  0  0  0  0  0  0
  -26.4560  -26.1030   22.6350 C   0  0  0  0  0  1  0  0  0  0  0  0
  -27.6590  -19.3780   19.5440 N   0  0  0  0  0  4  0  0  0  0  0  0
  -28.4580  -19.8930   19.2100 H   0  0  0  0  0  0  0  0  0  0  0  0
  -27.1350  -19.0690   18.7430 H   0  0  0  0  0  0  0  0  0  0  0  0
  -28.1490  -18.1960   20.2900 C   0  0  0  0  0  2  0  0  0  0  0  0
  -29.2120  -17.4200   19.4870 C   0  0  0  0  0  2  0  0  0  0  0  0
  -29.8310  -16.2510   20.2720 C   0  0  0  0  0  2  0  0  0  0  0  0
  -31.6330  -14.5100   19.6390 C   0  0  0  0  0  0  0  0  0  0  0  0
  -31.3700  -12.1220   19.1080 C   0  0  0  0  0  2  0  0  0  0  0  0
  -30.4170  -11.9830   17.9010 C   0  0  0  0  0  2  0  0  0  0  0  0
  -28.9460  -11.9440   18.3620 C   0  0  0  0  0  2  0  0  0  0  0  0
  -28.6060  -13.0770   19.3680 C   0  0  0  0  0  3  0  0  0  0  0  0
  -29.6720  -13.1330   20.4910 C   0  0  0  0  0  2  0  0  0  0  0  0
  -30.9690  -13.3360   19.8360 N   0  0  0  0  0  0  0  0  0  0  0  0
  -32.7830  -14.5470   19.1990 O   0  0  0  0  0  0  0  0  0  0  0  0
  -30.9140  -15.6380   19.4950 N   0  0  0  0  0  0  0  0  0  0  0  0
  -31.4560  -16.3210   18.9870 H   0  0  0  0  0  0  0  0  0  0  0  0
  -26.3030  -13.9110   20.1600 C   0  0  0  0  0  0  0  0  0  0  0  0
  -25.1900  -13.2400   20.5910 C   0  0  0  0  0  0  0  0  0  0  0  0
  -25.5280  -11.8530   20.5560 C   0  0  0  0  0  0  0  0  0  0  0  0
  -27.2560  -12.9370   19.9020 N   0  0  0  0  0  0  0  0  0  0  0  0
  -26.7930  -11.6960   20.1940 N   0  0  0  0  0  0  0  0  0  0  0  0
  -24.7050  -10.6610   20.7890 C   0  0  0  0  0  0  0  0  0  0  0  0
  -24.9170   -9.8250   21.9080 C   0  0  0  0  0  3  0  0  0  0  0  0
  -24.1030   -8.6920   22.1190 C   0  0  0  0  0  3  0  0  0  0  0  0
  -23.0620   -8.3870   21.2100 C   0  0  0  0  0  0  0  0  0  0  0  0
  -22.8690   -9.2090   20.0840 C   0  0  0  0  0  3  0  0  0  0  0  0
  -23.6840  -10.3340   19.8730 C   0  0  0  0  0  3  0  0  0  0  0  0
  -22.2380   -7.2940   21.3200 O   0  0  0  0  0  0  0  0  0  0  0  0
  -21.7580   -6.8770   22.5350 C   0  0  0  0  0  0  0  0  0  0  0  0
  -20.9880   -7.7220   23.3630 C   0  0  0  0  0  3  0  0  0  0  0  0
  -20.4580   -7.2300   24.5720 C   0  0  0  0  0  3  0  0  0  0  0  0
  -20.6840   -5.8930   24.9490 C   0  0  0  0  0  0  0  0  0  0  0  0
  -21.4460   -5.0480   24.1220 C   0  0  0  0  0  3  0  0  0  0  0  0
  -21.9780   -5.5380   22.9170 C   0  0  0  0  0  0  0  0  0  0  0  0
  -22.6930   -4.7150   22.1150 F   0  0  0  0  0  0  0  0  0  0  0  0
  -20.1680   -5.4170   26.1060 F   0  0  0  0  0  0  0  0  0  0  0  0
  -23.8520  -13.8390   20.9190 C   0  0  0  0  0  0  0  0  0  0  0  0
  -23.0970  -13.2010   21.8040 N   0  0  0  0  0  0  0  0  0  0  0  0
  -23.4910  -14.9070   20.4260 O   0  0  0  0  0  0  0  0  0  0  0  0
  -23.4010  -12.3340   22.2230 H   0  0  0  0  0  0  0  0  0  0  0  0
  -22.2000  -13.5830   22.0710 H   0  0  0  0  0  0  0  0  0  0  0  0
  -26.5730  -15.2580   19.9390 N   0  0  0  0  0  0  0  0  0  0  0  0
  -25.8120  -15.9300   19.9480 H   0  0  0  0  0  0  0  0  0  0  0  0
  -27.3470  -15.5440   19.3540 H   0  0  0  0  0  0  0  0  0  0  0  0
  1  4  1  0
  1  2  1  0
  2  5  1  0
  4  8  1  0
  4  3  1  0
  5 53  1  0
  5  3  1  0
  7  8  2  0
  8  6  1  0
  9  6  2  0
 10  7  1  0
 10  9  1  0
 11  9  1  0
 12 11  1  0
 14 12  1  0
 14 19  1  0
 15 25  1  0
 15 23  1  0
 16 18  1  0
 18 19  2  0
 18 17  1  0
 20 14  2  0
 21 20  1  0
 21 16  2  0
 22 16  1  0
 22 15  1  0
 23 17  1  0
 23 13  1  0
 24 13  2  0
 25 27  2  0
 26 25  1  0
 28 26  1  0
 29 34  1  0
 30 26  1  0
 31 30  1  0
 32 31  1  0
 33 32  1  0
 33 29  1  0
 34 35  2  0
 34 30  1  0
 36 35  1  0
 37 36  2  0
 38 37  1  0
 38 29  2  0
 39 13  1  0
 39 49  1  0
 39 40  1  0
 40 43  1  0
 40 41  1  0
 41 45  1  0
 42 41  2  0
 45 44  1  0
 45 47  1  0
 47 48  1  0
 47 46  1  0
 49 52  1  1
 50 49  1  0
 51 49  1  0
 53 56  1  0
 54 53  1  0
 55 53  1  0
 57 58  1  0
 57 56  1  0
 59 65  1  0
 60 65  1  0
 61 62  1  0
 61 60  1  0
 63 62  1  0
 63 72  1  0
 63 64  1  0
 65 64  1  0
 66 59  2  0
 67 59  1  0
 67 58  1  0
 68 67  1  0
 69 70  2  0
 70 89  1  0
 71 70  1  0
 71 74  1  0
 72 69  1  0
 72 73  1  0
 73 71  2  0
 74 75  1  0
 75 76  2  0
 77 80  1  0
 77 76  1  0
 78 77  2  0
 79 78  1  0
 79 74  2  0
 80 81  1  0
 81 86  2  0
 81 82  1  0
 82 83  2  0
 83 84  1  0
 84 88  1  0
 85 84  2  0
 86 85  1  0
 87 86  1  0
 89 90  1  0
 90 93  1  0
 90 92  1  0
 91 89  2  0
 94 95  1  0
 94 69  1  0
 96 94  1  0
M  ISO  4  11 101  12 101  59 100  67 100
M  END
>  <TORSDO>  (31) 
F 22

>  <SCORE>  (31) 
-5.093

>  <name>  (31) 
31

>  <ligand_id>  (31) 
31

>  <original_smiles>  (31) 
[H]c1sc(C([H])([H])Oc2c([H])c([H])c3c(c2[H])C([H])([H])N(C(=O)C([H])(N([H])C(=O)C([H])(N([H])C([H])([H])[H])C([H])([H])[H])C(C([H])([H])[H])(C([H])([H])[H])C([H])([H])[H])C([H])(C(=O)N([H])C2([H])c4c([H])c([H])c([H])c([H])c4C([H])([H])C([H])([H])C2([H])[H])C3([H])[H])c([H])c1C1([H])C([H])([H])C([H])([H])C([H])([N+]([H])([H])C([H])([H])C([H])([H])C([H])([H])N([H])C(=O)N2C([H])([H])C([H])([H])C([H])([H])C([H])(n3nc(-c4c([H])c([H])c(Oc5c([H])c([H])c(F)c([H])c5F)c([H])c4[H])c(C(=O)N([H])[H])c3N([H])[H])C2([H])[H])C1([H])[H]

>  <smiles>  (31) 
[H]c1sc(C([H])([H])Oc2c([H])c([H])c3c(c2[H])C([H])([H])N(C(=O)C([H])(N([H])C(=O)C([H])(N([H])C([H])([H])[H])C([H])([H])[H])C(C([H])([H])[H])(C([H])([H])[H])C([H])([H])[H])C([H])(C(=O)N([H])C2([H])c4c([H])c([H])c([H])c([H])c4C([H])([H])C([H])([H])C2([H])[H])C3([H])[H])c([H])c1C1([H])C([H])([H])C([H])([H])C([H])([N+]([H])([H])C([H])([H])C([H])([H])C([H])([H])N([H])C(=O)N2C([H])([H])C([H])([H])C([H])([H])C([H])(n3nc(-c4c([H])c([H])c(Oc5c([H])c([H])c(F)c([H])c5F)c([H])c4[H])c(C(=O)N([H])[H])c3N([H])[H])C2([H])[H])C1([H])[H]

$$$$
32:0:0
     RDKit          3D

 95103  0  0  1  0  0  0  0  0999 V2000
  -26.8090  -19.1850   19.9900 C   0  0  0  0  0  2  0  0  0  0  0  0
  -29.5070  -18.7800   16.5560 C   0  0  0  0  0  2  0  0  0  0  0  0
  -28.3990  -19.8290   16.5530 C   0  0  0  0  0  2  0  0  0  0  0  0
  -30.1020  -18.6810   17.9670 C   0  0  0  0  0  2  0  0  0  0  0  0
  -27.3340  -19.4730   17.6000 C   0  0  0  0  0  2  0  0  0  0  0  0
  -29.0500  -18.3920   19.0730 C   0  0  0  0  0  3  0  0  0  0  0  0
  -27.8990  -19.3700   18.9790 N   0  0  2  0  0  4  0  0  0  0  0  0
  -28.2910  -20.2770   19.1830 H   0  0  0  0  0  0  0  0  0  0  0  0
  -29.7430  -18.3890   20.4730 C   0  0  0  0  0  2  0  0  0  0  0  0
  -30.9690  -17.4640   20.7040 C   0  0  0  0  0  2  0  0  0  0  0  0
  -31.4040  -15.0700   20.7690 C   0  0  0  0  0  0  0  0  0  0  0  0
  -31.0330  -13.1980   19.2280 C   0  0  0  0  0  2  0  0  0  0  0  0
  -30.1380  -13.6950   18.0780 C   0  0  0  0  0  2  0  0  0  0  0  0
  -28.6480  -13.5370   18.4470 C   0  0  0  0  0  2  0  0  0  0  0  0
  -28.3110  -14.1140   19.8490 C   0  0  0  0  0  3  0  0  0  0  0  0
  -29.3290  -13.6360   20.9050 C   0  0  0  0  0  2  0  0  0  0  0  0
  -30.6750  -13.9770   20.4190 N   0  0  0  0  0  0  0  0  0  0  0  0
  -32.5670  -15.2440   20.3860 O   0  0  0  0  0  0  0  0  0  0  0  0
  -30.4640  -16.1140   22.7150 C   0  0  0  0  0  1  0  0  0  0  0  0
  -30.6930  -16.1150   21.2620 N   0  0  0  0  0  0  0  0  0  0  0  0
  -25.8510  -14.6640   20.3930 C   0  0  0  0  0  0  0  0  0  0  0  0
  -24.7860  -13.8670   20.6930 C   0  0  0  0  0  0  0  0  0  0  0  0
  -25.2920  -12.5310   20.7260 C   0  0  0  0  0  0  0  0  0  0  0  0
  -26.9390  -13.8160   20.2440 N   0  0  0  0  0  0  0  0  0  0  0  0
  -26.6000  -12.5300   20.5090 N   0  0  0  0  0  0  0  0  0  0  0  0
  -24.5970  -11.2530   20.8970 C   0  0  0  0  0  0  0  0  0  0  0  0
  -24.9700  -10.3410   21.9080 C   0  0  0  0  0  3  0  0  0  0  0  0
  -24.2720   -9.1230   22.0670 C   0  0  0  0  0  3  0  0  0  0  0  0
  -23.1880   -8.8130   21.2120 C   0  0  0  0  0  0  0  0  0  0  0  0
  -22.8340   -9.7180   20.1940 C   0  0  0  0  0  3  0  0  0  0  0  0
  -23.5320  -10.9250   20.0370 C   0  0  0  0  0  3  0  0  0  0  0  0
  -22.4670   -7.6450   21.2780 O   0  0  0  0  0  0  0  0  0  0  0  0
  -22.2570   -6.9930   22.4660 C   0  0  0  0  0  0  0  0  0  0  0  0
  -21.6430   -7.6280   23.5670 C   0  0  0  0  0  3  0  0  0  0  0  0
  -21.3890   -6.9020   24.7480 C   0  0  0  0  0  3  0  0  0  0  0  0
  -21.7310   -5.5390   24.8240 C   0  0  0  0  0  0  0  0  0  0  0  0
  -22.3330   -4.9000   23.7260 C   0  0  0  0  0  3  0  0  0  0  0  0
  -22.5910   -5.6250   22.5480 C   0  0  0  0  0  0  0  0  0  0  0  0
  -23.1520   -5.0020   21.4840 F   0  0  0  0  0  0  0  0  0  0  0  0
  -21.4760   -4.8350   25.9520 F   0  0  0  0  0  0  0  0  0  0  0  0
  -23.3600  -14.3070   20.8580 C   0  0  0  0  0  0  0  0  0  0  0  0
  -22.5960  -13.6300   21.7070 N   0  0  0  0  0  0  0  0  0  0  0  0
  -22.9290  -15.2950   20.2630 O   0  0  0  0  0  0  0  0  0  0  0  0
  -22.9510  -12.8270   22.2050 H   0  0  0  0  0  0  0  0  0  0  0  0
  -21.6350  -13.9110   21.8520 H   0  0  0  0  0  0  0  0  0  0  0  0
  -25.9800  -16.0370   20.2360 N   0  0  0  0  0  0  0  0  0  0  0  0
  -25.1670  -16.5510   20.5620 H   0  0  0  0  0  0  0  0  0  0  0  0
  -26.8510  -16.4270   20.5640 H   0  0  0  0  0  0  0  0  0  0  0  0
  -25.9300  -20.4400   20.2030 C   0  0  0  0  0  2  0  0  0  0  0  0
  -26.5900  -21.7860   19.8350 C   0  0  0  0  0  2  0  0  0  0  0  0
  -27.6720  -22.3170   20.8010 C   0  0  0  0  0  2  0  0  0  0  0  0
  -28.4780  -23.4250   20.0940 C   0  0  0  0  0  2  0  0  0  0  0  0
  -28.8590  -24.6610   20.9250 C   0  0  0  0  0  2  0  0  0  0  0  0
  -29.5080  -25.7240   20.0080 C   0  0  0  0  0  2  0  0  0  0  0  0
  -29.2930  -27.0680   20.4320 O   0  0  0  0  0  0  0  0  0  0  0  0
  -24.9500  -31.7230   23.5080 C   0  0  0  0  0  0  0  0  0  0  0  0
  -28.0420  -27.6490   20.3510 C   0  0  0  0  0  0  0  0  0  0  0  0
  -23.9150  -30.3400   21.7350 C   0  0  0  0  0  3  0  0  0  0  0  0
  -25.5340  -28.9700   20.3090 C   0  0  0  0  0  0  0  0  0  0  0  0
  -26.4130  -30.8710   21.6790 C   0  0  0  0  0  2  0  0  0  0  0  0
  -26.6170  -29.5390   20.9900 C   0  0  0  0  0  0  0  0  0  0  0  0
  -27.8650  -28.8870   21.0100 C   0  0  0  0  0  3  0  0  0  0  0  0
  -26.9430  -27.0930   19.6540 C   0  0  0  0  0  3  0  0  0  0  0  0
  -25.6950  -27.7470   19.6290 C   0  0  0  0  0  3  0  0  0  0  0  0
  -24.2310  -29.7380   20.3380 C   0  0  0  0  0  2  0  0  0  0  0  0
  -25.1090  -30.9910   22.3720 N   0  0  0  0  0  0  0  0  0  0  0  0
  -23.8290  -31.8970   24.0060 O   0  0  0  0  0  0  0  0  0  0  0  0
  -23.2880  -29.2360   22.6130 C   0  0  0  0  0  0  0  0  0  0  0  0
  -22.0140  -28.9180   22.3410 N   0  0  0  0  0  0  0  0  0  0  0  0
  -23.9450  -28.6730   23.4910 O   0  0  0  0  0  0  0  0  0  0  0  0
  -21.5370  -29.4640   21.6400 H   0  0  0  0  0  0  0  0  0  0  0  0
  -18.8020  -27.2560   22.3910 C   0  0  0  0  0  0  0  0  0  0  0  0
  -21.2400  -27.8610   22.9830 C   0  0  0  0  0  3  0  0  0  0  0  0
  -21.6210  -26.4740   22.4130 C   0  0  0  0  0  2  0  0  0  0  0  0
  -20.7000  -26.0270   21.2680 C   0  0  0  0  0  2  0  0  0  0  0  0
  -19.2520  -25.9460   21.7620 C   0  0  0  0  0  2  0  0  0  0  0  0
  -19.7400  -28.1640   22.9490 C   0  0  0  0  0  0  0  0  0  0  0  0
  -19.2800  -29.3910   23.4810 C   0  0  0  0  0  3  0  0  0  0  0  0
  -17.9080  -29.7060   23.4730 C   0  0  0  0  0  3  0  0  0  0  0  0
  -16.9800  -28.7950   22.9400 C   0  0  0  0  0  3  0  0  0  0  0  0
  -17.4260  -27.5720   22.4040 C   0  0  0  0  0  3  0  0  0  0  0  0
  -26.1580  -32.3940   24.2310 C   0  0  0  0  0  3  0  0  0  0  0  0
  -26.6420  -31.6050   25.5090 C   0  0  1  0  0  0  0  0  0  0  0  0
  -25.5020  -31.2310   26.4870 C   0  0  0  0  0  1  0  0  0  0  0  0
  -27.3560  -30.2990   25.0910 C   0  0  0  0  0  1  0  0  0  0  0  0
  -27.6790  -32.4490   26.2870 C   0  0  0  0  0  1  0  0  0  0  0  0
  -25.7560  -33.7620   24.5800 N   0  0  0  0  0  0  0  0  0  0  0  0
  -26.0790  -34.8530   23.8730 C   0  0  0  0  0  0  0  0  0  0  0  0
  -26.8110  -34.8150   22.8800 O   0  0  0  0  0  0  0  0  0  0  0  0
  -25.1100  -33.8620   25.3490 H   0  0  0  0  0  0  0  0  0  0  0  0
  -24.2800  -36.5650   23.4740 C   0  0  0  0  0  1  0  0  0  0  0  0
  -25.4980  -36.2010   24.3380 C   0  0  0  0  0  3  0  0  0  0  0  0
  -27.5410  -37.1670   25.2990 C   0  0  0  0  0  1  0  0  0  0  0  0
  -26.4800  -37.3090   24.3040 N   0  0  0  0  0  0  0  0  0  0  0  0
  -26.0190  -38.2030   24.4580 H   0  0  0  0  0  0  0  0  0  0  0  0
  1 49  1  0
  2  4  1  0
  3  2  1  0
  3  5  1  0
  4  6  1  0
  5  7  1  0
  6  9  1  0
  7  6  1  0
  7  8  1  1
  7  1  1  0
  9 10  1  0
 10 20  1  0
 11 20  1  0
 12 17  1  0
 13 14  1  0
 13 12  1  0
 15 14  1  0
 15 24  1  0
 15 16  1  0
 17 11  1  0
 17 16  1  0
 18 11  2  0
 20 19  1  0
 21 22  2  0
 22 23  1  0
 22 41  1  0
 23 26  1  0
 24 21  1  0
 24 25  1  0
 25 23  2  0
 26 27  1  0
 27 28  2  0
 29 32  1  0
 29 28  1  0
 30 29  2  0
 31 30  1  0
 31 26  2  0
 32 33  1  0
 33 38  2  0
 33 34  1  0
 34 35  2  0
 35 36  1  0
 36 40  1  0
 37 36  2  0
 38 37  1  0
 39 38  1  0
 41 42  1  0
 42 45  1  0
 42 44  1  0
 43 41  2  0
 46 21  1  0
 46 47  1  0
 46 48  1  0
 50 49  1  0
 50 51  1  0
 52 51  1  0
 52 53  1  0
 54 55  1  0
 54 53  1  0
 56 67  2  0
 57 55  1  0
 57 62  1  0
 58 66  1  0
 58 68  1  0
 59 65  1  0
 59 61  1  0
 60 66  1  0
 61 62  2  0
 61 60  1  0
 63 57  2  0
 64 63  1  0
 64 59  2  0
 65 58  1  0
 66 56  1  0
 68 70  2  0
 69 68  1  0
 71 69  1  0
 72 81  2  0
 72 77  1  0
 73 69  1  0
 74 73  1  0
 75 76  1  0
 75 74  1  0
 76 72  1  0
 77 73  1  0
 77 78  2  0
 79 78  1  0
 80 79  2  0
 81 80  1  0
 82 56  1  0
 82 87  1  0
 82 83  1  0
 83 86  1  1
 83 84  1  0
 85 83  1  0
 87 90  1  0
 88 92  1  0
 88 87  1  0
 89 88  2  0
 92 91  1  0
 94 92  1  0
 94 95  1  0
 94 93  1  0
M  ISO  4  11 100  20 100  54 101  55 101
M  END
>  <TORSDO>  (32) 
F 25

>  <SCORE>  (32) 
-6.762

>  <name>  (32) 
32

>  <ligand_id>  (32) 
32

>  <original_smiles>  (32) 
[H]c1c([H])c([H])c2c(c1[H])C([H])([H])C([H])([H])C([H])([H])C2([H])N([H])C(=O)C1([H])N(C(=O)C([H])(N([H])C(=O)C([H])(N([H])C([H])([H])[H])C([H])([H])[H])C(C([H])([H])[H])(C([H])([H])[H])C([H])([H])[H])C([H])([H])c2c([H])c(OC([H])([H])C([H])([H])C([H])([H])C([H])([H])C([H])([H])C([H])([H])C([H])([H])[N+]3([H])C([H])([H])C([H])([H])C([H])([H])C([H])([H])C3([H])C([H])([H])C([H])([H])N(C(=O)N3C([H])([H])C([H])([H])C([H])([H])C([H])(n4nc(-c5c([H])c([H])c(Oc6c([H])c([H])c(F)c([H])c6F)c([H])c5[H])c(C(=O)N([H])[H])c4N([H])[H])C3([H])[H])C([H])([H])[H])c([H])c([H])c2C1([H])[H]

>  <smiles>  (32) 
[H]c1c([H])c([H])c2c(c1[H])C([H])([H])C([H])([H])C([H])([H])C2([H])N([H])C(=O)C1([H])N(C(=O)C([H])(N([H])C(=O)C([H])(N([H])C([H])([H])[H])C([H])([H])[H])C(C([H])([H])[H])(C([H])([H])[H])C([H])([H])[H])C([H])([H])c2c([H])c(OC([H])([H])C([H])([H])C([H])([H])C([H])([H])C([H])([H])C([H])([H])C([H])([H])[N+]3([H])C([H])([H])C([H])([H])C([H])([H])C([H])([H])C3([H])C([H])([H])C([H])([H])N(C(=O)N3C([H])([H])C([H])([H])C([H])([H])C([H])(n4nc(-c5c([H])c([H])c(Oc6c([H])c([H])c(F)c([H])c6F)c([H])c5[H])c(C(=O)N([H])[H])c4N([H])[H])C3([H])[H])C([H])([H])[H])c([H])c([H])c2C1([H])[H]

$$$$
33:0:0
     RDKit          3D

 96104  0  0  1  0  0  0  0  0999 V2000
  -30.5070  -25.1590   16.8620 C   0  0  0  0  0  3  0  0  0  0  0  0
  -30.2090  -23.8420   16.4720 C   0  0  0  0  0  3  0  0  0  0  0  0
  -30.0440  -25.6470   18.0940 C   0  0  0  0  0  3  0  0  0  0  0  0
  -28.9850  -23.4990   18.5600 C   0  0  0  0  0  3  0  0  0  0  0  0
  -29.4670  -22.9960   17.3270 C   0  0  0  0  0  0  0  0  0  0  0  0
  -29.2720  -24.8280   18.9410 C   0  0  0  0  0  0  0  0  0  0  0  0
  -29.1470  -21.6230   16.8600 C   0  0  0  0  0  0  0  0  0  0  0  0
  -28.9060  -21.3740   15.6750 O   0  0  0  0  0  0  0  0  0  0  0  0
  -29.1920  -20.4950   17.9010 C   0  0  0  0  0  2  0  0  0  0  0  0
  -29.5230  -19.1000   17.3010 C   0  0  0  0  0  2  0  0  0  0  0  0
  -28.4120  -18.0400   17.4750 C   0  0  0  0  0  2  0  0  0  0  0  0
  -28.7870  -16.9280   18.4700 C   0  0  0  0  0  2  0  0  0  0  0  0
  -28.9480  -17.4560   19.9110 C   0  0  0  0  0  2  0  0  0  0  0  0
  -29.3960  -16.4290   20.8750 N   0  0  0  0  0  4  0  0  0  0  0  0
  -29.3600  -16.8650   21.7840 H   0  0  0  0  0  0  0  0  0  0  0  0
  -28.6990  -15.6900   20.8930 H   0  0  0  0  0  0  0  0  0  0  0  0
  -30.7890  -15.9520   20.6550 C   0  0  0  0  0  2  0  0  0  0  0  0
  -31.1800  -14.7170   21.4990 C   0  0  0  0  0  2  0  0  0  0  0  0
  -31.6900  -13.5650   20.6080 C   0  0  0  0  0  0  0  0  0  0  0  0
  -31.0810  -11.7610   19.0490 C   0  0  0  0  0  2  0  0  0  0  0  0
  -30.2290  -12.3730   17.9170 C   0  0  0  0  0  2  0  0  0  0  0  0
  -28.7390  -12.4440   18.3160 C   0  0  0  0  0  2  0  0  0  0  0  0
  -28.5320  -13.0660   19.7230 C   0  0  0  0  0  3  0  0  0  0  0  0
  -29.4710  -12.3890   20.7410 C   0  0  0  0  0  2  0  0  0  0  0  0
  -30.8490  -12.5550   20.2610 N   0  0  0  0  0  0  0  0  0  0  0  0
  -32.8290  -13.6680   20.1370 O   0  0  0  0  0  0  0  0  0  0  0  0
  -26.2430  -14.0170   20.4050 C   0  0  0  0  0  0  0  0  0  0  0  0
  -25.0560  -13.4060   20.7140 C   0  0  0  0  0  0  0  0  0  0  0  0
  -25.3030  -12.0000   20.6280 C   0  0  0  0  0  0  0  0  0  0  0  0
  -27.1370  -12.9900   20.1500 N   0  0  0  0  0  0  0  0  0  0  0  0
  -26.5770  -11.7720   20.3380 N   0  0  0  0  0  0  0  0  0  0  0  0
  -24.3880  -10.8580   20.7470 C   0  0  0  0  0  0  0  0  0  0  0  0
  -24.6470   -9.8000   21.6450 C   0  0  0  0  0  3  0  0  0  0  0  0
  -23.7480   -8.7160   21.7530 C   0  0  0  0  0  3  0  0  0  0  0  0
  -22.5770   -8.6860   20.9620 C   0  0  0  0  0  0  0  0  0  0  0  0
  -22.3350   -9.7310   20.0540 C   0  0  0  0  0  3  0  0  0  0  0  0
  -23.2300  -10.8070   19.9440 C   0  0  0  0  0  3  0  0  0  0  0  0
  -21.6590   -7.6640   20.9800 O   0  0  0  0  0  0  0  0  0  0  0  0
  -21.4410   -6.9140   22.1070 C   0  0  0  0  0  0  0  0  0  0  0  0
  -21.0560   -7.5030   23.3330 C   0  0  0  0  0  3  0  0  0  0  0  0
  -20.7770   -6.6880   24.4480 C   0  0  0  0  0  3  0  0  0  0  0  0
  -20.8670   -5.2880   24.3370 C   0  0  0  0  0  0  0  0  0  0  0  0
  -21.2460   -4.7000   23.1180 C   0  0  0  0  0  3  0  0  0  0  0  0
  -21.5280   -5.5120   22.0060 C   0  0  0  0  0  0  0  0  0  0  0  0
  -21.8710   -4.9390   20.8270 F   0  0  0  0  0  0  0  0  0  0  0  0
  -20.5910   -4.5040   25.4070 F   0  0  0  0  0  0  0  0  0  0  0  0
  -23.7410  -14.0780   20.9810 C   0  0  0  0  0  0  0  0  0  0  0  0
  -22.8930  -13.4770   21.8070 N   0  0  0  0  0  0  0  0  0  0  0  0
  -23.4800  -15.1750   20.4870 O   0  0  0  0  0  0  0  0  0  0  0  0
  -23.1160  -12.5850   22.2240 H   0  0  0  0  0  0  0  0  0  0  0  0
  -22.0080  -13.9120   22.0230 H   0  0  0  0  0  0  0  0  0  0  0  0
  -26.6530  -15.3460   20.3050 N   0  0  0  0  0  0  0  0  0  0  0  0
  -26.1770  -15.8350   21.0570 H   0  0  0  0  0  0  0  0  0  0  0  0
  -26.1640  -15.7110   19.4920 H   0  0  0  0  0  0  0  0  0  0  0  0
  -28.7870  -25.3690   20.2740 C   0  0  0  0  0  2  0  0  0  0  0  0
  -28.6880  -26.7910   20.2830 O   0  0  0  0  0  0  0  0  0  0  0  0
  -24.4900  -31.6970   23.1500 C   0  0  0  0  0  0  0  0  0  0  0  0
  -27.4530  -27.3910   20.1980 C   0  0  0  0  0  0  0  0  0  0  0  0
  -23.4070  -30.2310   21.4740 C   0  0  0  0  0  3  0  0  0  0  0  0
  -24.9820  -28.7550   20.1110 C   0  0  0  0  0  0  0  0  0  0  0  0
  -25.9130  -30.7150   21.3560 C   0  0  0  0  0  2  0  0  0  0  0  0
  -26.0850  -29.3470   20.7350 C   0  0  0  0  0  0  0  0  0  0  0  0
  -27.3200  -28.6730   20.7720 C   0  0  0  0  0  3  0  0  0  0  0  0
  -26.3340  -26.8030   19.5630 C   0  0  0  0  0  3  0  0  0  0  0  0
  -25.1010  -27.4830   19.5210 C   0  0  0  0  0  3  0  0  0  0  0  0
  -23.6940  -29.5480   20.1060 C   0  0  0  0  0  2  0  0  0  0  0  0
  -24.6180  -30.8980   22.0530 N   0  0  0  0  0  0  0  0  0  0  0  0
  -23.3800  -31.9200   23.6520 O   0  0  0  0  0  0  0  0  0  0  0  0
  -22.7700  -29.1880   22.4200 C   0  0  0  0  0  0  0  0  0  0  0  0
  -21.4550  -28.9690   22.2670 N   0  0  0  0  0  0  0  0  0  0  0  0
  -23.4590  -28.5790   23.2430 O   0  0  0  0  0  0  0  0  0  0  0  0
  -20.9610  -29.5150   21.5740 H   0  0  0  0  0  0  0  0  0  0  0  0
  -18.1080  -27.6820   22.6970 C   0  0  0  0  0  0  0  0  0  0  0  0
  -20.6520  -28.0030   23.0170 C   0  0  0  0  0  3  0  0  0  0  0  0
  -20.8020  -26.5800   22.4290 C   0  0  0  0  0  2  0  0  0  0  0  0
  -19.7270  -26.2390   21.3930 C   0  0  0  0  0  2  0  0  0  0  0  0
  -18.3310  -26.3430   22.0150 C   0  0  0  0  0  2  0  0  0  0  0  0
  -19.1980  -28.4680   23.1530 C   0  0  0  0  0  0  0  0  0  0  0  0
  -18.9370  -29.7210   23.7500 C   0  0  0  0  0  3  0  0  0  0  0  0
  -17.6180  -30.1890   23.8940 C   0  0  0  0  0  3  0  0  0  0  0  0
  -16.5400  -29.3980   23.4570 C   0  0  0  0  0  3  0  0  0  0  0  0
  -16.7860  -28.1460   22.8640 C   0  0  0  0  0  3  0  0  0  0  0  0
  -25.7250  -32.3880   23.8110 C   0  0  0  0  0  3  0  0  0  0  0  0
  -26.2390  -31.6420   25.1030 C   0  0  1  0  0  0  0  0  0  0  0  0
  -25.1300  -31.3660   26.1430 C   0  0  0  0  0  1  0  0  0  0  0  0
  -26.8840  -30.2870   24.7270 C   0  0  0  0  0  1  0  0  0  0  0  0
  -27.3410  -32.4810   25.7910 C   0  0  0  0  0  1  0  0  0  0  0  0
  -25.3440  -33.7720   24.1250 N   0  0  0  0  0  0  0  0  0  0  0  0
  -25.6720  -34.8380   23.3830 C   0  0  0  0  0  0  0  0  0  0  0  0
  -26.3980  -34.7630   22.3880 O   0  0  0  0  0  0  0  0  0  0  0  0
  -24.7070  -33.9010   24.8960 H   0  0  0  0  0  0  0  0  0  0  0  0
  -23.8940  -36.5570   22.9360 C   0  0  0  0  0  1  0  0  0  0  0  0
  -25.1060  -36.2040   23.8120 C   0  0  0  0  0  3  0  0  0  0  0  0
  -27.1560  -37.1720   24.7530 C   0  0  0  0  0  1  0  0  0  0  0  0
  -26.0970  -37.2980   23.7550 N   0  0  0  0  0  0  0  0  0  0  0  0
  -25.6480  -38.2000   23.8820 H   0  0  0  0  0  0  0  0  0  0  0  0
  1  3  1  0
  2  1  2  0
  2  5  1  0
  3  6  2  0
  4  6  1  0
  5  4  2  0
  6 55  1  0
  7  5  1  0
  7  9  1  0
  8  7  2  0
 10 11  1  0
 10  9  1  0
 11 12  1  0
 12 13  1  0
 13 14  1  0
 14 16  1  0
 14 15  1  0
 17 14  1  0
 17 18  1  0
 19 18  1  0
 20 25  1  0
 21 22  1  0
 21 20  1  0
 23 22  1  0
 23 30  1  0
 23 24  1  0
 25 19  1  0
 25 24  1  0
 26 19  2  0
 27 28  2  0
 28 47  1  0
 29 28  1  0
 29 32  1  0
 30 31  1  0
 30 27  1  0
 31 29  2  0
 32 33  1  0
 33 34  2  0
 35 38  1  0
 35 34  1  0
 36 35  2  0
 37 36  1  0
 37 32  2  0
 38 39  1  0
 39 40  1  0
 40 41  2  0
 42 41  1  0
 42 46  1  0
 43 42  2  0
 44 39  2  0
 44 43  1  0
 45 44  1  0
 47 48  1  0
 48 51  1  0
 48 50  1  0
 49 47  2  0
 52 27  1  0
 52 53  1  0
 54 52  1  0
 55 56  1  0
 57 68  2  0
 58 56  1  0
 58 63  1  0
 59 67  1  0
 59 69  1  0
 60 62  1  0
 61 67  1  0
 62 63  2  0
 62 61  1  0
 64 58  2  0
 65 64  1  0
 65 60  2  0
 66 60  1  0
 66 59  1  0
 67 57  1  0
 69 71  2  0
 70 69  1  0
 72 70  1  0
 73 82  2  0
 73 78  1  0
 74 70  1  0
 74 78  1  0
 75 74  1  0
 76 77  1  0
 76 75  1  0
 77 73  1  0
 78 79  2  0
 79 80  1  0
 81 80  2  0
 82 81  1  0
 83 57  1  0
 83 88  1  0
 83 84  1  0
 84 87  1  1
 84 85  1  0
 86 84  1  0
 88 91  1  0
 89 93  1  0
 89 88  1  0
 90 89  2  0
 93 92  1  0
 95 93  1  0
 95 96  1  0
 95 94  1  0
M  ISO  4  18 100  19 100  55 101  56 101
M  END
>  <TORSDO>  (33) 
F 26

>  <SCORE>  (33) 
-10.618

>  <name>  (33) 
33

>  <ligand_id>  (33) 
33

>  <original_smiles>  (33) 
[H]c1c([H])c(C(=O)C([H])([H])C([H])([H])C([H])([H])C([H])([H])C([H])([H])[N+]([H])([H])C([H])([H])C([H])([H])C(=O)N2C([H])([H])C([H])([H])C([H])([H])C([H])(n3nc(-c4c([H])c([H])c(Oc5c([H])c([H])c(F)c([H])c5F)c([H])c4[H])c(C(=O)N([H])[H])c3N([H])[H])C2([H])[H])c([H])c(C([H])([H])Oc2c([H])c([H])c3c(c2[H])C([H])([H])N(C(=O)C([H])(N([H])C(=O)C([H])(N([H])C([H])([H])[H])C([H])([H])[H])C(C([H])([H])[H])(C([H])([H])[H])C([H])([H])[H])C([H])(C(=O)N([H])C2([H])c4c([H])c([H])c([H])c([H])c4C([H])([H])C([H])([H])C2([H])[H])C3([H])[H])c1[H]

>  <smiles>  (33) 
[H]c1c([H])c(C(=O)C([H])([H])C([H])([H])C([H])([H])C([H])([H])C([H])([H])[N+]([H])([H])C([H])([H])C([H])([H])C(=O)N2C([H])([H])C([H])([H])C([H])([H])C([H])(n3nc(-c4c([H])c([H])c(Oc5c([H])c([H])c(F)c([H])c5F)c([H])c4[H])c(C(=O)N([H])[H])c3N([H])[H])C2([H])[H])c([H])c(C([H])([H])Oc2c([H])c([H])c3c(c2[H])C([H])([H])N(C(=O)C([H])(N([H])C(=O)C([H])(N([H])C([H])([H])[H])C([H])([H])[H])C(C([H])([H])[H])(C([H])([H])[H])C([H])([H])[H])C([H])(C(=O)N([H])C2([H])c4c([H])c([H])c([H])c([H])c4C([H])([H])C([H])([H])C2([H])[H])C3([H])[H])c1[H]

$$$$
34:0:0
     RDKit          3D

 99109  0  0  1  0  0  0  0  0999 V2000
  -31.8810  -21.5100   21.6420 C   0  0  0  0  0  3  0  0  0  0  0  0
  -31.5400  -22.8660   21.4520 C   0  0  0  0  0  3  0  0  0  0  0  0
  -29.9400  -22.7600   23.3090 C   0  0  0  0  0  3  0  0  0  0  0  0
  -31.2280  -20.7930   22.6620 C   0  0  0  0  0  0  0  0  0  0  0  0
  -30.2930  -21.4100   23.4860 C   0  0  0  0  0  0  0  0  0  0  0  0
  -30.5640  -23.4880   22.2710 C   0  0  0  0  0  0  0  0  0  0  0  0
  -29.7590  -20.4640   24.5260 C   0  0  0  0  0  2  0  0  0  0  0  0
  -30.6190  -19.1900   24.3410 C   0  0  0  0  0  2  0  0  0  0  0  0
  -31.4010  -19.3320   23.0020 C   0  0  0  0  0  3  0  0  0  0  0  0
  -30.8150  -18.5100   21.9200 N   0  0  0  0  0  4  0  0  0  0  0  0
  -31.0490  -18.9300   21.0350 H   0  0  0  0  0  0  0  0  0  0  0  0
  -29.8160  -18.5760   22.0260 H   0  0  0  0  0  0  0  0  0  0  0  0
  -32.1420  -16.7250   20.7310 C   0  0  0  0  0  2  0  0  0  0  0  0
  -29.9840  -16.1580   21.8800 C   0  0  0  0  0  2  0  0  0  0  0  0
  -32.5520  -15.2320   20.7710 C   0  0  0  0  0  2  0  0  0  0  0  0
  -30.4520  -14.7010   22.0030 C   0  0  0  0  0  2  0  0  0  0  0  0
  -31.2150  -17.0840   21.9130 C   0  0  0  0  0  3  0  0  0  0  0  0
  -31.3560  -14.2170   20.8260 C   0  0  2  0  0  0  0  0  0  0  0  0
  -31.9530  -12.8400   21.2080 C   0  0  0  0  0  1  0  0  0  0  0  0
  -30.6810  -14.0700   19.4040 C   0  0  0  0  0  0  0  0  0  0  0  0
  -29.8670  -12.2090   18.0120 C   0  0  0  0  0  2  0  0  0  0  0  0
  -28.6870  -12.4760   17.0670 C   0  0  0  0  0  2  0  0  0  0  0  0
  -27.3540  -12.2720   17.8030 C   0  0  0  0  0  2  0  0  0  0  0  0
  -27.3020  -13.0730   19.1240 C   0  0  0  0  0  3  0  0  0  0  0  0
  -28.5580  -12.8160   19.9840 C   0  0  0  0  0  2  0  0  0  0  0  0
  -29.7690  -13.0840   19.1920 N   0  0  0  0  0  0  0  0  0  0  0  0
  -31.2410  -14.6180   18.4490 O   0  0  0  0  0  0  0  0  0  0  0  0
  -25.1290  -13.6750   20.3740 C   0  0  0  0  0  0  0  0  0  0  0  0
  -24.1440  -12.8980   20.9220 C   0  0  0  0  0  0  0  0  0  0  0  0
  -24.5520  -11.5440   20.7180 C   0  0  0  0  0  0  0  0  0  0  0  0
  -26.0750  -12.7950   19.8710 N   0  0  0  0  0  0  0  0  0  0  0  0
  -25.7420  -11.5060   20.1320 N   0  0  0  0  0  0  0  0  0  0  0  0
  -23.8520  -10.2830   20.9920 C   0  0  0  0  0  0  0  0  0  0  0  0
  -24.3830   -9.3210   21.8810 C   0  0  0  0  0  3  0  0  0  0  0  0
  -23.6840   -8.1230   22.1400 C   0  0  0  0  0  3  0  0  0  0  0  0
  -22.4400   -7.8770   21.5120 C   0  0  0  0  0  0  0  0  0  0  0  0
  -21.9270   -8.8270   20.6120 C   0  0  0  0  0  3  0  0  0  0  0  0
  -22.6270  -10.0160   20.3500 C   0  0  0  0  0  3  0  0  0  0  0  0
  -21.7030   -6.7300   21.6830 O   0  0  0  0  0  0  0  0  0  0  0  0
  -21.6980   -6.0490   22.8750 C   0  0  0  0  0  0  0  0  0  0  0  0
  -21.3060   -6.6680   24.0820 C   0  0  0  0  0  3  0  0  0  0  0  0
  -21.2460   -5.9150   25.2710 C   0  0  0  0  0  3  0  0  0  0  0  0
  -21.5670   -4.5440   25.2550 C   0  0  0  0  0  0  0  0  0  0  0  0
  -21.9510   -3.9260   24.0520 C   0  0  0  0  0  3  0  0  0  0  0  0
  -22.0140   -4.6760   22.8660 C   0  0  0  0  0  0  0  0  0  0  0  0
  -22.3650   -4.0700   21.7050 F   0  0  0  0  0  0  0  0  0  0  0  0
  -21.5030   -3.8180   26.3960 F   0  0  0  0  0  0  0  0  0  0  0  0
  -22.8500  -13.3750   21.5180 C   0  0  0  0  0  0  0  0  0  0  0  0
  -22.3260  -12.6560   22.5050 N   0  0  0  0  0  0  0  0  0  0  0  0
  -22.3200  -14.4190   21.1420 O   0  0  0  0  0  0  0  0  0  0  0  0
  -22.7720  -11.8110   22.8300 H   0  0  0  0  0  0  0  0  0  0  0  0
  -21.4670  -12.9560   22.9440 H   0  0  0  0  0  0  0  0  0  0  0  0
  -25.2870  -15.0520   20.2400 N   0  0  0  0  0  0  0  0  0  0  0  0
  -24.5830  -15.7130   20.5500 H   0  0  0  0  0  0  0  0  0  0  0  0
  -26.0690  -15.4930   19.7700 H   0  0  0  0  0  0  0  0  0  0  0  0
  -30.1750  -24.9370   22.0150 C   0  0  0  0  0  2  0  0  0  0  0  0
  -29.2340  -25.0780   20.8090 C   0  0  0  0  0  2  0  0  0  0  0  0
  -28.7700  -26.5200   20.5640 C   0  0  0  0  0  2  0  0  0  0  0  0
  -27.7740  -26.4710   19.5470 O   0  0  0  0  0  0  0  0  0  0  0  0
  -24.3680  -31.6940   23.0380 C   0  0  0  0  0  0  0  0  0  0  0  0
  -26.6750  -27.2820   19.6920 C   0  0  0  0  0  0  0  0  0  0  0  0
  -23.0180  -30.3940   21.4220 C   0  0  0  0  0  3  0  0  0  0  0  0
  -24.3340  -28.8460   19.8810 C   0  0  0  0  0  0  0  0  0  0  0  0
  -25.5380  -30.6690   21.0940 C   0  0  0  0  0  2  0  0  0  0  0  0
  -25.5370  -29.3170   20.4190 C   0  0  0  0  0  0  0  0  0  0  0  0
  -26.7130  -28.5430   20.3310 C   0  0  0  0  0  3  0  0  0  0  0  0
  -25.4620  -26.8260   19.1390 C   0  0  0  0  0  3  0  0  0  0  0  0
  -24.2860  -27.5970   19.2400 C   0  0  0  0  0  3  0  0  0  0  0  0
  -23.1270  -29.7480   20.0140 C   0  0  0  0  0  2  0  0  0  0  0  0
  -24.3290  -30.9320   21.9070 N   0  0  0  0  0  0  0  0  0  0  0  0
  -23.3320  -31.9890   23.6480 O   0  0  0  0  0  0  0  0  0  0  0  0
  -22.3810  -29.3660   22.3850 C   0  0  0  0  0  0  0  0  0  0  0  0
  -21.0480  -29.2270   22.3140 N   0  0  0  0  0  0  0  0  0  0  0  0
  -23.0800  -28.7000   23.1540 O   0  0  0  0  0  0  0  0  0  0  0  0
  -20.5430  -29.8170   21.6660 H   0  0  0  0  0  0  0  0  0  0  0  0
  -17.6660  -28.1160   22.9160 C   0  0  0  0  0  0  0  0  0  0  0  0
  -20.2380  -28.2960   23.0970 C   0  0  0  0  0  3  0  0  0  0  0  0
  -20.2800  -26.8750   22.4910 C   0  0  0  0  0  2  0  0  0  0  0  0
  -19.1330  -26.6050   21.5120 C   0  0  0  0  0  2  0  0  0  0  0  0
  -17.7800  -26.7760   22.2090 C   0  0  0  0  0  2  0  0  0  0  0  0
  -18.8210  -28.8390   23.3180 C   0  0  0  0  0  0  0  0  0  0  0  0
  -18.6610  -30.0980   23.9350 C   0  0  0  0  0  3  0  0  0  0  0  0
  -17.3790  -30.6330   24.1580 C   0  0  0  0  0  3  0  0  0  0  0  0
  -16.2380  -29.9060   23.7730 C   0  0  0  0  0  3  0  0  0  0  0  0
  -16.3840  -28.6510   23.1560 C   0  0  0  0  0  3  0  0  0  0  0  0
  -25.7120  -32.2510   23.6020 C   0  0  0  0  0  3  0  0  0  0  0  0
  -25.4730  -33.6350   24.0290 N   0  0  0  0  0  0  0  0  0  0  0  0
  -25.8460  -34.7180   23.3340 C   0  0  0  0  0  0  0  0  0  0  0  0
  -26.4940  -34.6540   22.2870 O   0  0  0  0  0  0  0  0  0  0  0  0
  -24.8960  -33.7630   24.8470 H   0  0  0  0  0  0  0  0  0  0  0  0
  -24.2010  -36.6060   23.1170 C   0  0  0  0  0  1  0  0  0  0  0  0
  -25.4260  -36.0920   23.8890 C   0  0  0  0  0  3  0  0  0  0  0  0
  -27.6060  -36.8120   24.7580 C   0  0  0  0  0  1  0  0  0  0  0  0
  -26.5070  -37.1010   23.8420 N   0  0  0  0  0  0  0  0  0  0  0  0
  -26.1440  -38.0250   24.0610 H   0  0  0  0  0  0  0  0  0  0  0  0
  -26.2940  -31.3910   24.7890 C   0  0  1  0  0  0  0  0  0  0  0  0
  -25.2690  -31.1160   25.9120 C   0  0  0  0  0  1  0  0  0  0  0  0
  -26.8100  -30.0280   24.2720 C   0  0  0  0  0  1  0  0  0  0  0  0
  -27.5110  -32.1140   25.4150 C   0  0  0  0  0  1  0  0  0  0  0  0
  1  4  1  0
  2  1  2  0
  2  6  1  0
  3  5  1  0
  4  9  1  0
  4  5  2  0
  5  7  1  0
  6  3  2  0
  8  7  1  0
  9 10  1  0
  9  8  1  0
 10 12  1  0
 11 10  1  0
 13 15  1  0
 13 17  1  0
 14 17  1  0
 14 16  1  0
 15 18  1  0
 17 10  1  0
 18 19  1  1
 18 16  1  0
 20 18  1  0
 21 26  1  0
 22 23  1  0
 22 21  1  0
 24 23  1  0
 24 31  1  0
 24 25  1  0
 26 20  1  0
 26 25  1  0
 27 20  2  0
 28 29  2  0
 29 48  1  0
 30 29  1  0
 30 33  1  0
 31 32  1  0
 31 28  1  0
 32 30  2  0
 33 34  1  0
 34 35  2  0
 36 39  1  0
 36 35  1  0
 37 36  2  0
 38 37  1  0
 38 33  2  0
 39 40  1  0
 40 41  1  0
 41 42  2  0
 43 42  1  0
 43 47  1  0
 44 43  2  0
 45 40  2  0
 45 44  1  0
 46 45  1  0
 48 49  1  0
 49 51  1  0
 49 52  1  0
 50 48  2  0
 53 28  1  0
 53 54  1  0
 55 53  1  0
 56  6  1  0
 57 56  1  0
 58 57  1  0
 59 61  1  0
 59 58  1  0
 60 71  2  0
 61 66  1  0
 62 70  1  0
 62 72  1  0
 63 69  1  0
 63 65  1  0
 64 70  1  0
 65 64  1  0
 66 65  2  0
 67 68  1  0
 67 61  2  0
 68 63  2  0
 69 62  1  0
 70 60  1  0
 72 74  2  0
 73 72  1  0
 75 73  1  0
 76 85  2  0
 76 81  1  0
 77 73  1  0
 77 81  1  0
 78 77  1  0
 79 80  1  0
 79 78  1  0
 80 76  1  0
 81 82  2  0
 82 83  1  0
 84 83  2  0
 85 84  1  0
 86 60  1  0
 86 87  1  0
 86 96  1  0
 87 90  1  0
 88 92  1  0
 88 87  1  0
 89 88  2  0
 92 91  1  0
 94 92  1  0
 94 95  1  0
 94 93  1  0
 96 99  1  1
 96 97  1  0
 98 96  1  0
M  ISO  4  18 100  20 100  58 101  59 101
M  END
>  <TORSDO>  (34) 
F 21

>  <SCORE>  (34) 
-9.000

>  <name>  (34) 
34

>  <ligand_id>  (34) 
34

>  <original_smiles>  (34) 
[H]c1c([H])c([H])c2c(c1[H])C([H])([H])C([H])([H])C([H])([H])C2([H])N([H])C(=O)C1([H])N(C(=O)C([H])(N([H])C(=O)C([H])(N([H])C([H])([H])[H])C([H])([H])[H])C(C([H])([H])[H])(C([H])([H])[H])C([H])([H])[H])C([H])([H])c2c([H])c(OC([H])([H])C([H])([H])C([H])([H])c3c([H])c([H])c4c(c3[H])C([H])([H])C([H])([H])C4([H])[N+]([H])([H])C3([H])C([H])([H])C([H])([H])C(C(=O)N4C([H])([H])C([H])([H])C([H])([H])C([H])(n5nc(-c6c([H])c([H])c(Oc7c([H])c([H])c(F)c([H])c7F)c([H])c6[H])c(C(=O)N([H])[H])c5N([H])[H])C4([H])[H])(C([H])([H])[H])C([H])([H])C3([H])[H])c([H])c([H])c2C1([H])[H]

>  <smiles>  (34) 
[H]c1c([H])c([H])c2c(c1[H])C([H])([H])C([H])([H])C([H])([H])C2([H])N([H])C(=O)C1([H])N(C(=O)C([H])(N([H])C(=O)C([H])(N([H])C([H])([H])[H])C([H])([H])[H])C(C([H])([H])[H])(C([H])([H])[H])C([H])([H])[H])C([H])([H])c2c([H])c(OC([H])([H])C([H])([H])C([H])([H])c3c([H])c([H])c4c(c3[H])C([H])([H])C([H])([H])C4([H])[N+]([H])([H])C3([H])C([H])([H])C([H])([H])C(C(=O)N4C([H])([H])C([H])([H])C([H])([H])C([H])(n5nc(-c6c([H])c([H])c(Oc7c([H])c([H])c(F)c([H])c7F)c([H])c6[H])c(C(=O)N([H])[H])c5N([H])[H])C4([H])[H])(C([H])([H])[H])C([H])([H])C3([H])[H])c([H])c([H])c2C1([H])[H]

$$$$
35:0:0
     RDKit          3D

 96105  0  0  1  0  0  0  0  0999 V2000
  -28.1060  -19.8900   20.3200 C   0  0  0  0  0  0  0  0  0  0  0  0
  -28.6600  -21.0710   20.6710 N   0  0  0  0  0  0  0  0  0  0  0  0
  -27.1410  -19.8600   19.5520 O   0  0  0  0  0  0  0  0  0  0  0  0
  -29.4490  -21.0860   21.3050 H   0  0  0  0  0  0  0  0  0  0  0  0
  -32.5950  -13.9630   21.1920 C   0  0  0  0  0  2  0  0  0  0  0  0
  -31.7790  -14.4190   22.3970 C   0  0  0  0  0  2  0  0  0  0  0  0
  -28.1220  -17.3370   20.0820 C   0  0  0  0  0  2  0  0  0  0  0  0
  -30.1630  -18.4560   20.9580 C   0  0  0  0  0  2  0  0  0  0  0  0
  -32.4740  -14.9780   20.0540 C   0  0  0  0  0  2  0  0  0  0  0  0
  -30.3210  -14.6690   21.9850 C   0  0  0  0  0  2  0  0  0  0  0  0
  -28.6170  -15.9530   20.5820 C   0  0  0  0  0  2  0  0  0  0  0  0
  -30.6480  -17.0880   21.5130 C   0  0  0  0  0  2  0  0  0  0  0  0
  -28.6370  -18.5460   20.8970 C   0  0  0  0  0  3  0  0  0  0  0  0
  -31.0020  -15.2530   19.5660 C   0  0  1  0  0  0  0  0  0  0  0  0
  -30.1430  -15.7360   20.8470 C   0  0  1  0  0  0  0  0  0  0  0  0
  -31.1730  -16.4820   18.6100 C   0  0  0  0  0  1  0  0  0  0  0  0
  -30.6480  -14.0070   18.6000 C   0  0  0  0  0  0  0  0  0  0  0  0
  -29.7140  -11.9730   17.5180 C   0  0  0  0  0  2  0  0  0  0  0  0
  -28.5220  -12.2910   16.5940 C   0  0  0  0  0  2  0  0  0  0  0  0
  -27.2120  -12.1720   17.3870 C   0  0  0  0  0  2  0  0  0  0  0  0
  -27.2790  -12.9400   18.7280 C   0  0  0  0  0  3  0  0  0  0  0  0
  -28.5900  -12.6650   19.5040 C   0  0  0  0  0  2  0  0  0  0  0  0
  -29.7440  -12.9600   18.6380 N   0  0  0  0  0  0  0  0  0  0  0  0
  -31.3920  -14.0100   17.6170 O   0  0  0  0  0  0  0  0  0  0  0  0
  -25.2290  -13.5770   20.1420 C   0  0  0  0  0  0  0  0  0  0  0  0
  -24.2640  -12.8210   20.7510 C   0  0  0  0  0  0  0  0  0  0  0  0
  -24.6070  -11.4600   20.4890 C   0  0  0  0  0  0  0  0  0  0  0  0
  -26.1060  -12.6770   19.5570 N   0  0  0  0  0  0  0  0  0  0  0  0
  -25.7540  -11.3920   19.8230 N   0  0  0  0  0  0  0  0  0  0  0  0
  -23.8780  -10.2190   20.7840 C   0  0  0  0  0  0  0  0  0  0  0  0
  -24.3570   -9.2910   21.7350 C   0  0  0  0  0  3  0  0  0  0  0  0
  -23.6310   -8.1140   22.0170 C   0  0  0  0  0  3  0  0  0  0  0  0
  -22.4100   -7.8570   21.3480 C   0  0  0  0  0  0  0  0  0  0  0  0
  -21.9490   -8.7720   20.3860 C   0  0  0  0  0  3  0  0  0  0  0  0
  -22.6750   -9.9420   20.1040 C   0  0  0  0  0  3  0  0  0  0  0  0
  -21.6510   -6.7270   21.5370 O   0  0  0  0  0  0  0  0  0  0  0  0
  -21.5200   -6.1460   22.7730 C   0  0  0  0  0  0  0  0  0  0  0  0
  -20.9630   -6.8420   23.8690 C   0  0  0  0  0  3  0  0  0  0  0  0
  -20.7860   -6.1840   25.1030 C   0  0  0  0  0  3  0  0  0  0  0  0
  -21.1520   -4.8330   25.2400 C   0  0  0  0  0  0  0  0  0  0  0  0
  -21.7010   -4.1360   24.1480 C   0  0  0  0  0  3  0  0  0  0  0  0
  -21.8810   -4.7910   22.9180 C   0  0  0  0  0  0  0  0  0  0  0  0
  -22.3910   -4.1110   21.8640 F   0  0  0  0  0  0  0  0  0  0  0  0
  -20.9740   -4.1990   26.4230 F   0  0  0  0  0  0  0  0  0  0  0  0
  -23.0360  -13.3310   21.4480 C   0  0  0  0  0  0  0  0  0  0  0  0
  -22.6130  -12.6610   22.5140 N   0  0  0  0  0  0  0  0  0  0  0  0
  -22.4710  -14.3600   21.0780 O   0  0  0  0  0  0  0  0  0  0  0  0
  -23.0890  -11.8290   22.8300 H   0  0  0  0  0  0  0  0  0  0  0  0
  -21.8040  -12.9860   23.0230 H   0  0  0  0  0  0  0  0  0  0  0  0
  -25.4200  -14.9480   20.0200 N   0  0  0  0  0  0  0  0  0  0  0  0
  -24.7630  -15.6220   20.3980 H   0  0  0  0  0  0  0  0  0  0  0  0
  -26.1700  -15.3760   19.4940 H   0  0  0  0  0  0  0  0  0  0  0  0
  -28.0950  -22.3490   20.2080 C   0  0  0  0  0  2  0  0  0  0  0  0
  -28.8290  -23.6720   20.5910 C   0  0  0  0  0  2  0  0  0  0  0  0
  -27.7530  -24.7830   20.6540 C   0  0  0  0  0  2  0  0  0  0  0  0
  -28.0760  -26.2000   20.6820 O   0  0  0  0  0  0  0  0  0  0  0  0
  -27.9170  -31.8590   25.0130 C   0  0  0  0  0  0  0  0  0  0  0  0
  -27.3440  -26.9100   21.6290 C   0  0  0  0  0  0  0  0  0  0  0  0
  -26.4050  -29.9960   25.5930 C   0  0  0  0  0  3  0  0  0  0  0  0
  -26.0590  -28.2480   23.7740 C   0  0  0  0  0  0  0  0  0  0  0  0
  -27.0460  -30.4470   23.1510 C   0  0  0  0  0  2  0  0  0  0  0  0
  -26.8770  -28.9630   22.8930 C   0  0  0  0  0  0  0  0  0  0  0  0
  -27.5240  -28.3030   21.8160 C   0  0  0  0  0  3  0  0  0  0  0  0
  -26.4370  -26.2390   22.4900 C   0  0  0  0  0  3  0  0  0  0  0  0
  -25.8320  -26.8820   23.5740 C   0  0  0  0  0  3  0  0  0  0  0  0
  -25.4250  -29.0030   24.9180 C   0  0  0  0  0  2  0  0  0  0  0  0
  -27.1750  -30.7980   24.5880 N   0  0  0  0  0  0  0  0  0  0  0  0
  -27.9360  -32.1900   26.2070 O   0  0  0  0  0  0  0  0  0  0  0  0
  -27.3090  -29.2170   26.5780 C   0  0  0  0  0  0  0  0  0  0  0  0
  -27.1250  -29.4670   27.8850 N   0  0  0  0  0  0  0  0  0  0  0  0
  -28.1380  -28.3990   26.1670 O   0  0  0  0  0  0  0  0  0  0  0  0
  -26.4370  -30.1610   28.1400 H   0  0  0  0  0  0  0  0  0  0  0  0
  -27.9110  -29.7720   31.4010 C   0  0  0  0  0  0  0  0  0  0  0  0
  -27.8400  -28.8320   28.9920 C   0  0  0  0  0  3  0  0  0  0  0  0
  -27.0280  -27.6590   29.5860 C   0  0  0  0  0  2  0  0  0  0  0  0
  -26.1480  -28.0710   30.7700 C   0  0  0  0  0  2  0  0  0  0  0  0
  -27.0050  -28.6600   31.8950 C   0  0  0  0  0  2  0  0  0  0  0  0
  -28.2920  -29.8630   30.0340 C   0  0  0  0  0  0  0  0  0  0  0  0
  -29.1090  -30.9370   29.6200 C   0  0  0  0  0  3  0  0  0  0  0  0
  -29.5450  -31.9070   30.5430 C   0  0  0  0  0  3  0  0  0  0  0  0
  -29.1780  -31.8040   31.8960 C   0  0  0  0  0  3  0  0  0  0  0  0
  -28.3680  -30.7370   32.3230 C   0  0  0  0  0  3  0  0  0  0  0  0
  -28.7550  -32.7190   24.0160 C   0  0  0  0  0  3  0  0  0  0  0  0
  -30.2760  -32.3020   23.9650 C   0  0  1  0  0  0  0  0  0  0  0  0
  -30.9000  -32.0570   25.3600 C   0  0  0  0  0  1  0  0  0  0  0  0
  -30.4620  -31.0100   23.1310 C   0  0  0  0  0  1  0  0  0  0  0  0
  -31.0990  -33.4070   23.2640 C   0  0  0  0  0  1  0  0  0  0  0  0
  -28.6120  -34.1240   24.4200 N   0  0  0  0  0  0  0  0  0  0  0  0
  -27.8410  -35.0210   23.7910 C   0  0  0  0  0  0  0  0  0  0  0  0
  -27.2270  -34.7640   22.7520 O   0  0  0  0  0  0  0  0  0  0  0  0
  -29.0470  -34.3900   25.2910 H   0  0  0  0  0  0  0  0  0  0  0  0
  -26.3930  -36.5740   25.1380 C   0  0  0  0  0  1  0  0  0  0  0  0
  -27.7400  -36.4270   24.4130 C   0  0  0  0  0  3  0  0  0  0  0  0
  -29.2540  -37.6320   22.9040 C   0  0  0  0  0  1  0  0  0  0  0  0
  -27.8960  -37.5190   23.4270 N   0  0  0  0  0  0  0  0  0  0  0  0
  -27.6370  -38.4130   23.8350 H   0  0  0  0  0  0  0  0  0  0  0  0
  1  2  1  0
  2  4  1  0
  3  1  2  0
  5  6  1  0
  7 11  1  0
  7 13  1  0
  8 12  1  0
  9  5  1  0
 10  6  1  0
 13  1  1  0
 13  8  1  0
 14 16  1  6
 14  9  1  0
 14 15  1  0
 15 11  1  6
 15 12  1  0
 15 10  1  0
 17 23  1  0
 17 14  1  0
 18 23  1  0
 19 20  1  0
 19 18  1  0
 21 20  1  0
 21 22  1  0
 21 28  1  0
 23 22  1  0
 24 17  2  0
 25 26  2  0
 26 45  1  0
 27 26  1  0
 27 30  1  0
 28 29  1  0
 28 25  1  0
 29 27  2  0
 30 31  1  0
 31 32  2  0
 33 36  1  0
 33 32  1  0
 34 33  2  0
 35 34  1  0
 35 30  2  0
 36 37  1  0
 37 42  2  0
 37 38  1  0
 38 39  2  0
 39 40  1  0
 40 44  1  0
 41 40  2  0
 42 41  1  0
 43 42  1  0
 45 46  1  0
 46 48  1  0
 46 49  1  0
 47 45  2  0
 50 25  1  0
 50 51  1  0
 52 50  1  0
 53 54  1  0
 53  2  1  0
 54 55  1  0
 55 56  1  0
 56 58  1  0
 57 68  2  0
 58 63  2  0
 58 64  1  0
 59 69  1  0
 60 66  1  0
 61 67  1  0
 62 61  1  0
 62 60  2  0
 63 62  1  0
 64 65  2  0
 65 60  1  0
 66 59  1  0
 67 57  1  0
 67 59  1  0
 69 70  1  0
 70 72  1  0
 71 69  2  0
 73 77  1  0
 73 82  1  0
 74 70  1  0
 74 75  1  0
 74 78  1  0
 75 76  1  0
 76 77  1  0
 78 73  2  0
 79 78  1  0
 79 80  2  0
 80 81  1  0
 81 82  2  0
 83 88  1  0
 83 57  1  0
 84 83  1  0
 84 85  1  1
 86 84  1  0
 87 84  1  0
 88 91  1  0
 89 93  1  0
 89 88  1  0
 90 89  2  0
 93 92  1  0
 94 95  1  0
 95 96  1  0
 95 93  1  0
M  ISO  4  14 100  17 100  55 101  56 101
M  END
>  <TORSDO>  (35) 
F 20

>  <SCORE>  (35) 
-4.598

>  <name>  (35) 
35

>  <ligand_id>  (35) 
35

>  <original_smiles>  (35) 
[H]c1c([H])c([H])c2c(c1[H])C([H])([H])C([H])([H])C([H])([H])C2([H])N([H])C(=O)C1([H])N(C(=O)C([H])(N([H])C(=O)C([H])(N([H])C([H])([H])[H])C([H])([H])[H])C(C([H])([H])[H])(C([H])([H])[H])C([H])([H])[H])C([H])([H])c2c([H])c(OC([H])([H])C([H])([H])C([H])([H])N([H])C(=O)C3([H])C([H])([H])C([H])([H])C4(C([H])([H])C([H])([H])C([H])([H])C([H])([H])C4(C(=O)N4C([H])([H])C([H])([H])C([H])([H])C([H])(n5nc(-c6c([H])c([H])c(Oc7c([H])c([H])c(F)c([H])c7F)c([H])c6[H])c(C(=O)N([H])[H])c5N([H])[H])C4([H])[H])C([H])([H])[H])C([H])([H])C3([H])[H])c([H])c([H])c2C1([H])[H]

>  <smiles>  (35) 
[H]c1c([H])c([H])c2c(c1[H])C([H])([H])C([H])([H])C([H])([H])C2([H])N([H])C(=O)C1([H])N(C(=O)C([H])(N([H])C(=O)C([H])(N([H])C([H])([H])[H])C([H])([H])[H])C(C([H])([H])[H])(C([H])([H])[H])C([H])([H])[H])C([H])([H])c2c([H])c(OC([H])([H])C([H])([H])C([H])([H])N([H])C(=O)C3([H])C([H])([H])C([H])([H])C4(C([H])([H])C([H])([H])C([H])([H])C([H])([H])C4(C(=O)N4C([H])([H])C([H])([H])C([H])([H])C([H])(n5nc(-c6c([H])c([H])c(Oc7c([H])c([H])c(F)c([H])c7F)c([H])c6[H])c(C(=O)N([H])[H])c5N([H])[H])C4([H])[H])C([H])([H])[H])C([H])([H])C3([H])[H])c([H])c([H])c2C1([H])[H]

$$$$
36:0:0
     RDKit          3D

 94 96  0  0  1  0  0  0  0  0999 V2000
  -21.3850  -28.4480   22.4650 C   0  0  0  0  0  2  0  0  0  0  0  0
  -21.3980  -29.0080   21.0530 C   0  0  0  0  0  3  0  0  0  0  0  0
  -20.0430  -27.6000   21.5300 C   0  0  0  0  0  3  0  0  0  0  0  0
  -20.4560  -25.1290   22.6230 C   0  0  0  0  0  1  0  0  0  0  0  0
  -21.7720  -25.2830   23.8000 C   0  0  0  0  0  2  0  0  0  0  0  0
  -22.8550  -26.6500   23.6160 C   0  0  0  0  0  1  0  0  0  0  0  0
  -24.5380  -25.4920   22.9100 N   0  0  0  0  0  2  0  0  0  0  0  0
  -24.4120  -24.7240   23.5590 H   0  0  0  0  0  0  0  0  0  0  0  0
  -25.2510  -26.0540   23.3570 H   0  0  0  0  0  0  0  0  0  0  0  0
  -25.7220  -24.4200   21.4920 C   0  0  0  0  0 15  0  0  0  0  0  0
  -27.4700  -22.8280   20.8610 C   0  0  0  0  0 15  0  0  0  0  0  0
  -29.4080  -21.9970   19.6210 C   0  0  0  0  0 15  0  0  0  0  0  0
  -32.1100  -19.6330   17.9880 C   0  0  0  0  0  0  0  0  0  0  0  0
  -34.3860  -18.6520   16.3520 C   0  0  0  0  0  2  0  0  0  0  0  0
  -35.3910  -19.4630   15.3910 C   0  0  0  0  0  2  0  0  0  0  0  0
  -34.7160  -19.9550   14.1130 C   0  0  0  0  0  2  0  0  0  0  0  0
  -33.2890  -20.3150   14.5300 C   0  0  0  0  0  3  0  0  0  0  0  0
  -32.4910  -19.1990   15.2480 C   0  0  0  0  0  2  0  0  0  0  0  0
  -32.8890  -19.2340   16.6670 N   0  0  0  0  0  0  0  0  0  0  0  0
  -32.9750  -19.0020   18.7110 O   0  0  0  0  0  0  0  0  0  0  0  0
  -30.6280  -20.5690   18.5170 N   0  0  0  0  0  2  0  0  0  0  0  0
  -29.9040  -19.9340   18.1420 H   0  0  0  0  0  0  0  0  0  0  0  0
  -31.6190  -21.9150   13.6440 C   0  0  0  0  0  0  0  0  0  0  0  0
  -31.0610  -22.0910   12.4180 C   0  0  0  0  0  0  0  0  0  0  0  0
  -31.6240  -21.0830   11.5740 C   0  0  0  0  0  0  0  0  0  0  0  0
  -32.4780  -20.8540   13.4920 N   0  0  0  0  0  0  0  0  0  0  0  0
  -32.4410  -20.2950   12.2590 N   0  0  0  0  0  0  0  0  0  0  0  0
  -31.4780  -20.8740   10.1330 C   0  0  0  0  0  0  0  0  0  0  0  0
  -31.0850  -19.6250    9.6000 C   0  0  0  0  0  3  0  0  0  0  0  0
  -30.9270  -19.4660    8.2070 C   0  0  0  0  0  3  0  0  0  0  0  0
  -31.1600  -20.5570    7.3390 C   0  0  0  0  0  0  0  0  0  0  0  0
  -31.5730  -21.7880    7.8740 C   0  0  0  0  0  3  0  0  0  0  0  0
  -31.7350  -21.9470    9.2580 C   0  0  0  0  0  3  0  0  0  0  0  0
  -31.0540  -20.4900    5.9730 O   0  0  0  0  0  0  0  0  0  0  0  0
  -30.2250  -19.5840    5.3600 C   0  0  0  0  0  0  0  0  0  0  0  0
  -28.8400  -19.5360    5.6330 C   0  0  0  0  0  3  0  0  0  0  0  0
  -28.0150  -18.6350    4.9280 C   0  0  0  0  0  3  0  0  0  0  0  0
  -28.5700  -17.7910    3.9480 C   0  0  0  0  0  0  0  0  0  0  0  0
  -29.9490  -17.8370    3.6760 C   0  0  0  0  0  3  0  0  0  0  0  0
  -30.7720  -18.7340    4.3790 C   0  0  0  0  0  0  0  0  0  0  0  0
  -32.0960  -18.7940    4.0950 F   0  0  0  0  0  0  0  0  0  0  0  0
  -27.7770  -16.9320    3.2680 F   0  0  0  0  0  0  0  0  0  0  0  0
  -30.1330  -23.1990   12.0450 C   0  0  0  0  0  0  0  0  0  0  0  0
  -29.2410  -22.9540   11.0930 N   0  0  0  0  0  0  0  0  0  0  0  0
  -30.1600  -24.2750   12.6410 O   0  0  0  0  0  0  0  0  0  0  0  0
  -29.2060  -22.0630   10.6190 H   0  0  0  0  0  0  0  0  0  0  0  0
  -28.5770  -23.6700   10.8300 H   0  0  0  0  0  0  0  0  0  0  0  0
  -31.4900  -22.5640   14.8710 N   0  0  0  0  0  0  0  0  0  0  0  0
  -30.9070  -23.3860   14.9850 H   0  0  0  0  0  0  0  0  0  0  0  0
  -32.0380  -22.3440   15.6920 H   0  0  0  0  0  0  0  0  0  0  0  0
  -22.2030  -28.5230   19.5210 C   0  0  0  0  0  3  0  0  0  0  0  0
  -23.4600  -27.2900   19.0150 C   0  0  0  0  0  2  0  0  0  0  0  0
  -24.9820  -26.5530   19.6180 C   0  0  0  0  0  2  0  0  0  0  0  0
  -26.5700  -26.7390   19.5980 O   0  0  0  0  0  0  0  0  0  0  0  0
  -24.9000  -31.4400   23.8440 C   0  0  0  0  0  0  0  0  0  0  0  0
  -26.9940  -27.9880   19.4160 C   0  0  0  0  0  3  0  0  0  0  0  0
  -23.9000  -30.1120   22.0080 C   0  0  0  0  0  3  0  0  0  0  0  0
  -25.1370  -29.8720   19.9420 C   0  0  0  0  0  3  0  0  0  0  0  0
  -26.2980  -30.7720   21.9120 C   0  0  0  0  0  2  0  0  0  0  0  0
  -26.2660  -29.8140   20.7510 C   0  0  0  0  0  0  0  0  0  0  0  0
  -27.2180  -28.8130   20.5350 C   0  0  0  0  0  3  0  0  0  0  0  0
  -26.2010  -28.3990   18.3710 C   0  0  0  0  0  3  0  0  0  0  0  0
  -25.1620  -29.2760   18.6860 C   0  0  0  0  0  3  0  0  0  0  0  0
  -23.9980  -30.6200   20.5490 C   0  0  0  0  0  2  0  0  0  0  0  0
  -25.0280  -30.7870   22.6660 N   0  0  0  0  0  0  0  0  0  0  0  0
  -23.8120  -31.6230   24.4080 O   0  0  0  0  0  0  0  0  0  0  0  0
  -23.9290  -28.4770   22.3130 C   0  0  0  0  0  0  0  0  0  0  0  0
  -23.2750  -27.3540   21.5390 N   0  0  0  0  0  0  0  0  0  0  0  0
  -24.1330  -28.2670   23.4890 O   0  0  0  0  0  0  0  0  0  0  0  0
  -23.5100  -27.5400   20.5700 H   0  0  0  0  0  0  0  0  0  0  0  0
  -18.0690  -27.4620   22.3180 C   0  0  0  0  0  0  0  0  0  0  0  0
  -21.5940  -26.5370   21.3880 C   0  0  0  0  0  3  0  0  0  0  0  0
  -20.8860  -25.9800   19.9900 C   0  0  0  0  0  3  0  0  0  0  0  0
  -19.1740  -26.0700   19.7620 C   0  0  0  0  0  3  0  0  0  0  0  0
  -17.9130  -26.6660   20.8280 C   0  0  0  0  0  2  0  0  0  0  0  0
  -19.4890  -27.5900   23.0740 C   0  0  0  0  0  0  0  0  0  0  0  0
  -19.2770  -28.9290   23.7520 C   0  0  0  0  0  3  0  0  0  0  0  0
  -18.1100  -29.8060   23.7430 C   0  0  0  0  0  3  0  0  0  0  0  0
  -16.9010  -29.4760   23.1180 C   0  0  0  0  0  3  0  0  0  0  0  0
  -16.9040  -28.2730   22.4270 C   0  0  0  0  0  3  0  0  0  0  0  0
  -26.1910  -31.9290   24.5430 C   0  0  0  0  0  3  0  0  0  0  0  0
  -26.0010  -33.3300   24.9320 N   0  0  0  0  0  0  0  0  0  0  0  0
  -26.4880  -34.3790   24.2550 C   0  0  0  0  0  0  0  0  0  0  0  0
  -27.2000  -34.2650   23.2520 O   0  0  0  0  0  0  0  0  0  0  0  0
  -25.3790  -33.5070   25.7090 H   0  0  0  0  0  0  0  0  0  0  0  0
  -25.0040  -36.3850   23.9560 C   0  0  0  0  0  1  0  0  0  0  0  0
  -26.1400  -35.7790   24.7910 C   0  0  0  0  0  3  0  0  0  0  0  0
  -28.3200  -36.3270   25.7750 C   0  0  0  0  0  1  0  0  0  0  0  0
  -27.2920  -36.7040   24.8100 N   0  0  0  0  0  0  0  0  0  0  0  0
  -26.9880  -37.6500   25.0290 H   0  0  0  0  0  0  0  0  0  0  0  0
  -26.5590  -31.0170   25.7730 C   0  0  1  0  0  0  0  0  0  0  0  0
  -25.3900  -30.8320   26.7690 C   0  0  0  0  0  1  0  0  0  0  0  0
  -27.0230  -29.5980   25.3490 C   0  0  0  0  0  1  0  0  0  0  0  0
  -27.7550  -31.6440   26.5190 C   0  0  0  0  0  1  0  0  0  0  0  0
  2  1  1  0
  3  1  1  0
  3 76  1  0
  4  5  1  0
  6  5  1  0
  7  9  1  0
  7  8  1  0
 13 21  1  0
 13 20  2  0
 14 19  1  0
 15 14  1  0
 16 17  1  0
 16 15  1  0
 17 26  1  0
 17 18  1  0
 18 19  1  0
 19 13  1  0
 22 21  1  0
 23 48  1  0
 24 23  2  0
 25 27  2  0
 25 24  1  0
 26 23  1  0
 27 26  1  0
 28 25  1  0
 29 28  1  0
 30 29  2  0
 31 32  2  0
 31 30  1  0
 32 33  1  0
 33 28  2  0
 34 31  1  0
 35 36  1  0
 35 34  1  0
 37 36  2  0
 38 37  1  0
 39 38  2  0
 39 40  1  0
 40 35  2  0
 41 40  1  0
 42 38  1  0
 43 24  1  0
 43 45  2  0
 44 43  1  0
 46 44  1  0
 47 44  1  0
 48 49  1  0
 48 50  1  0
 51  2  2  0
 52 51  1  0
 52 53  1  0
 54 53  1  0
 55 66  2  0
 56 62  1  0
 56 54  1  0
 56 61  1  0
 57 64  1  0
 57 67  1  0
 57 65  1  0
 58 63  1  0
 58 64  1  0
 58 60  1  0
 59 65  1  0
 60 59  1  0
 61 60  2  0
 62 63  2  0
 65 55  1  0
 67 69  2  0
 68 67  1  0
 70 68  1  0
 71 80  2  0
 71 76  1  0
 72 73  1  0
 72  3  1  0
 72 68  1  0
 74 73  2  0
 74 75  1  0
 75 71  1  0
 76 77  2  3
 78 77  1  0
 79 78  2  0
 80 79  1  0
 81 55  1  0
 81 82  1  0
 81 91  1  0
 82 85  1  0
 83 87  1  0
 83 82  1  0
 84 83  2  0
 87 86  1  0
 87 89  1  0
 89 90  1  0
 89 88  1  0
 91 94  1  1
 91 92  1  0
 93 91  1  0
M  ISO  4  13 100  21 100  53 101  54 101
M  END
>  <TORSDO>  (36) 
F 23

>  <SCORE>  (36) 
-5.114

>  <name>  (36) 
36

>  <ligand_id>  (36) 
36

>  <original_smiles>  (36) 
[H]C(=C1C([H])([H])C([H])([H])C([H])([H])C1([H])[N+]([H])([H])C([H])([H])C([H])([H])C([H])([H])N([H])C(=O)N1C([H])([H])C([H])([H])C([H])([H])C([H])(n2nc(-c3c([H])c([H])c(Oc4c([H])c([H])c(F)c([H])c4F)c([H])c3[H])c(C(=O)N([H])[H])c2N([H])[H])C1([H])[H])C([H])([H])C([H])([H])C([H])([H])Oc1c([H])c([H])c2c(c1[H])C([H])([H])N(C(=O)C([H])(N([H])C(=O)C([H])(N([H])C([H])([H])[H])C([H])([H])[H])C(C([H])([H])[H])(C([H])([H])[H])C([H])([H])[H])C([H])(C(=O)N([H])C1([H])c3c([H])c([H])c([H])c([H])c3C([H])([H])C([H])([H])C1([H])[H])C2([H])[H]

>  <smiles>  (36) 
[H]C(=C1C([H])([H])C([H])([H])C([H])([H])C1([H])[N+]([H])([H])C([H])([H])C([H])([H])C([H])([H])N([H])C(=O)N1C([H])([H])C([H])([H])C([H])([H])C([H])(n2nc(-c3c([H])c([H])c(Oc4c([H])c([H])c(F)c([H])c4F)c([H])c3[H])c(C(=O)N([H])[H])c2N([H])[H])C1([H])[H])C([H])([H])C([H])([H])C([H])([H])Oc1c([H])c([H])c2c(c1[H])C([H])([H])N(C(=O)C([H])(N([H])C(=O)C([H])(N([H])C([H])([H])[H])C([H])([H])[H])C(C([H])([H])[H])(C([H])([H])[H])C([H])([H])[H])C([H])(C(=O)N([H])C1([H])c3c([H])c([H])c([H])c([H])c3C([H])([H])C([H])([H])C1([H])[H])C2([H])[H]

$$$$
37:0:0
     RDKit          3D

 97105  0  0  1  0  0  0  0  0999 V2000
  -31.0390  -20.6720   21.6750 C   0  0  0  0  0  2  0  0  0  0  0  0
  -32.7060  -19.1510   18.5050 C   0  0  0  0  0  2  0  0  0  0  0  0
  -31.8280  -18.0320   17.9400 C   0  0  0  0  0  2  0  0  0  0  0  0
  -32.4480  -19.5170   19.9770 C   0  0  0  0  0  2  0  0  0  0  0  0
  -31.4890  -16.9410   18.9610 C   0  0  0  0  0  2  0  0  0  0  0  0
  -30.3040  -18.3910   20.8300 C   0  0  0  0  0  2  0  0  0  0  0  0
  -30.9720  -19.7560   20.4040 C   0  0  1  0  0  0  0  0  0  0  0  0
  -30.2640  -17.0770   19.9390 C   0  0  2  0  0  0  0  0  0  0  0  0
  -30.2240  -20.5720   19.3230 C   0  0  0  0  0  1  0  0  0  0  0  0
  -30.2160  -15.8350   20.9570 C   0  0  0  0  0  2  0  0  0  0  0  0
  -30.7610  -14.4600   20.4820 C   0  0  0  0  0  0  0  0  0  0  0  0
  -30.3600  -12.3240   19.3600 C   0  0  0  0  0  2  0  0  0  0  0  0
  -29.4550  -12.5900   18.1460 C   0  0  0  0  0  2  0  0  0  0  0  0
  -27.9720  -12.4820   18.5490 C   0  0  0  0  0  2  0  0  0  0  0  0
  -27.6310  -13.2870   19.8340 C   0  0  0  0  0  3  0  0  0  0  0  0
  -28.6830  -13.0790   20.9460 C   0  0  0  0  0  2  0  0  0  0  0  0
  -30.0110  -13.3310   20.3750 N   0  0  0  0  0  0  0  0  0  0  0  0
  -31.9350  -14.4470   20.1220 O   0  0  0  0  0  0  0  0  0  0  0  0
  -25.2220  -13.8690   20.5280 C   0  0  0  0  0  0  0  0  0  0  0  0
  -24.1610  -13.0910   20.8940 C   0  0  0  0  0  0  0  0  0  0  0  0
  -24.6300  -11.7420   20.8700 C   0  0  0  0  0  0  0  0  0  0  0  0
  -26.2790  -12.9970   20.3070 N   0  0  0  0  0  0  0  0  0  0  0  0
  -25.9240  -11.7120   20.5720 N   0  0  0  0  0  0  0  0  0  0  0  0
  -23.9090  -10.4750   21.0610 C   0  0  0  0  0  0  0  0  0  0  0  0
  -24.3480   -9.5070   21.9880 C   0  0  0  0  0  3  0  0  0  0  0  0
  -23.6240   -8.3060   22.1680 C   0  0  0  0  0  3  0  0  0  0  0  0
  -22.4480   -8.0660   21.4160 C   0  0  0  0  0  0  0  0  0  0  0  0
  -22.0290   -9.0240   20.4750 C   0  0  0  0  0  3  0  0  0  0  0  0
  -22.7550  -10.2140   20.2950 C   0  0  0  0  0  3  0  0  0  0  0  0
  -21.6990   -6.9180   21.5020 O   0  0  0  0  0  0  0  0  0  0  0  0
  -21.6640   -6.1640   22.6480 C   0  0  0  0  0  0  0  0  0  0  0  0
  -21.2660   -6.7090   23.8890 C   0  0  0  0  0  3  0  0  0  0  0  0
  -21.1790   -5.8800   25.0250 C   0  0  0  0  0  3  0  0  0  0  0  0
  -21.4830   -4.5080   24.9230 C   0  0  0  0  0  0  0  0  0  0  0  0
  -21.8750   -3.9640   23.6870 C   0  0  0  0  0  3  0  0  0  0  0  0
  -21.9620   -4.7890   22.5530 C   0  0  0  0  0  0  0  0  0  0  0  0
  -22.3210   -4.2560   21.3600 F   0  0  0  0  0  0  0  0  0  0  0  0
  -21.3910   -3.7110   26.0120 F   0  0  0  0  0  0  0  0  0  0  0  0
  -22.7580  -13.5590   21.1540 C   0  0  0  0  0  0  0  0  0  0  0  0
  -22.0260  -12.8630   22.0160 N   0  0  0  0  0  0  0  0  0  0  0  0
  -22.3190  -14.5790   20.6230 O   0  0  0  0  0  0  0  0  0  0  0  0
  -22.3930  -12.0370   22.4680 H   0  0  0  0  0  0  0  0  0  0  0  0
  -21.0850  -13.1600   22.2290 H   0  0  0  0  0  0  0  0  0  0  0  0
  -25.3710  -15.2420   20.3520 N   0  0  0  0  0  0  0  0  0  0  0  0
  -24.5850  -15.8740   20.4530 H   0  0  0  0  0  0  0  0  0  0  0  0
  -26.2100  -15.7020   20.0240 H   0  0  0  0  0  0  0  0  0  0  0  0
  -28.9230  -16.9830   19.1510 C   0  0  0  0  0  2  0  0  0  0  0  0
  -28.6480  -18.0800   18.3090 O   0  0  0  0  0  0  0  0  0  0  0  0
  -28.9100  -18.8680   18.7730 H   0  0  0  0  0  0  0  0  0  0  0  0
  -29.7190  -21.3300   22.1680 C   0  0  0  0  0  2  0  0  0  0  0  0
  -29.6320  -22.8260   21.7810 C   0  0  0  0  0  2  0  0  0  0  0  0
  -28.3300  -23.4660   22.0920 N   0  0  0  0  0  4  0  0  0  0  0  0
  -28.1180  -23.2890   23.0630 H   0  0  0  0  0  0  0  0  0  0  0  0
  -27.6010  -23.0290   21.5490 H   0  0  0  0  0  0  0  0  0  0  0  0
  -28.2920  -24.9410   21.8850 C   0  0  0  0  0  2  0  0  0  0  0  0
  -28.4440  -25.3720   20.4040 C   0  0  0  0  0  2  0  0  0  0  0  0
  -28.4600  -26.8000   20.2560 O   0  0  0  0  0  0  0  0  0  0  0  0
  -24.5970  -31.9250   23.2800 C   0  0  0  0  0  0  0  0  0  0  0  0
  -27.2640  -27.4840   20.2380 C   0  0  0  0  0  0  0  0  0  0  0  0
  -23.4000  -30.5150   21.6370 C   0  0  0  0  0  3  0  0  0  0  0  0
  -24.8620  -28.9790   20.2210 C   0  0  0  0  0  0  0  0  0  0  0  0
  -25.9260  -30.8820   21.4490 C   0  0  0  0  0  2  0  0  0  0  0  0
  -26.0140  -29.5110   20.8130 C   0  0  0  0  0  0  0  0  0  0  0  0
  -27.2150  -28.7730   20.8140 C   0  0  0  0  0  3  0  0  0  0  0  0
  -26.0950  -26.9680   19.6310 C   0  0  0  0  0  3  0  0  0  0  0  0
  -24.8980  -27.7060   19.6260 C   0  0  0  0  0  3  0  0  0  0  0  0
  -23.6150  -29.8320   20.2590 C   0  0  0  0  0  2  0  0  0  0  0  0
  -24.6590  -31.1210   22.1810 N   0  0  0  0  0  0  0  0  0  0  0  0
  -23.5140  -32.1970   23.8150 O   0  0  0  0  0  0  0  0  0  0  0  0
  -22.7510  -29.4920   22.5990 C   0  0  0  0  0  0  0  0  0  0  0  0
  -21.4290  -29.3010   22.4630 N   0  0  0  0  0  0  0  0  0  0  0  0
  -23.4340  -28.8770   23.4220 O   0  0  0  0  0  0  0  0  0  0  0  0
  -20.9410  -29.8490   21.7690 H   0  0  0  0  0  0  0  0  0  0  0  0
  -18.0610  -28.0880   22.9380 C   0  0  0  0  0  0  0  0  0  0  0  0
  -20.6130  -28.3640   23.2330 C   0  0  0  0  0  3  0  0  0  0  0  0
  -20.7330  -26.9310   22.6680 C   0  0  0  0  0  2  0  0  0  0  0  0
  -19.6430  -26.5940   21.6450 C   0  0  0  0  0  2  0  0  0  0  0  0
  -18.2530  -26.7350   22.2750 C   0  0  0  0  0  2  0  0  0  0  0  0
  -19.1700  -28.8600   23.3730 C   0  0  0  0  0  0  0  0  0  0  0  0
  -18.9380  -30.1270   23.9500 C   0  0  0  0  0  3  0  0  0  0  0  0
  -17.6290  -30.6220   24.1010 C   0  0  0  0  0  3  0  0  0  0  0  0
  -16.5330  -29.8450   23.6840 C   0  0  0  0  0  3  0  0  0  0  0  0
  -16.7510  -28.5820   23.1070 C   0  0  0  0  0  3  0  0  0  0  0  0
  -25.8830  -32.5620   23.8980 C   0  0  0  0  0  3  0  0  0  0  0  0
  -26.3960  -31.8010   25.1810 C   0  0  1  0  0  0  0  0  0  0  0  0
  -25.3010  -31.5670   26.2480 C   0  0  0  0  0  1  0  0  0  0  0  0
  -26.9820  -30.4210   24.8020 C   0  0  0  0  0  1  0  0  0  0  0  0
  -27.5430  -32.6000   25.8420 C   0  0  0  0  0  1  0  0  0  0  0  0
  -25.5740  -33.9620   24.2150 N   0  0  0  0  0  0  0  0  0  0  0  0
  -25.9090  -35.0070   23.4470 C   0  0  0  0  0  0  0  0  0  0  0  0
  -26.5860  -34.8940   22.4200 O   0  0  0  0  0  0  0  0  0  0  0  0
  -24.9750  -34.1250   25.0110 H   0  0  0  0  0  0  0  0  0  0  0  0
  -24.1800  -36.7940   23.0630 C   0  0  0  0  0  1  0  0  0  0  0  0
  -25.4170  -36.3990   23.8870 C   0  0  0  0  0  3  0  0  0  0  0  0
  -27.5430  -37.2910   24.7280 C   0  0  0  0  0  1  0  0  0  0  0  0
  -26.4480  -37.4520   23.7730 N   0  0  0  0  0  0  0  0  0  0  0  0
  -26.0400  -38.3710   23.9140 H   0  0  0  0  0  0  0  0  0  0  0  0
  1 50  1  0
  2  4  1  0
  3  2  1  0
  3  5  1  0
  4  7  1  0
  5  8  1  0
  7  9  1  6
  7  6  1  0
  7  1  1  0
  8 47  1  6
  8  6  1  0
  8 10  1  0
 11 10  1  0
 12 17  1  0
 13 14  1  0
 13 12  1  0
 15 14  1  0
 15 22  1  0
 15 16  1  0
 17 11  1  0
 17 16  1  0
 18 11  2  0
 19 20  2  0
 20 39  1  0
 21 20  1  0
 21 24  1  0
 22 19  1  0
 22 23  1  0
 23 21  2  0
 24 25  1  0
 25 26  2  0
 27 30  1  0
 27 26  1  0
 28 27  2  0
 29 28  1  0
 29 24  2  0
 30 31  1  0
 31 32  1  0
 32 33  2  0
 34 33  1  0
 34 38  1  0
 35 34  2  0
 36 31  2  0
 36 35  1  0
 37 36  1  0
 39 40  1  0
 40 43  1  0
 40 42  1  0
 41 39  2  0
 44 45  1  0
 44 19  1  0
 46 44  1  0
 48 49  1  0
 48 47  1  0
 51 52  1  0
 51 50  1  0
 52 53  1  0
 54 52  1  0
 55 52  1  0
 56 55  1  0
 57 56  1  0
 58 69  2  0
 59 57  1  0
 59 64  1  0
 60 68  1  0
 60 70  1  0
 61 67  1  0
 61 63  1  0
 62 68  1  0
 63 64  2  0
 63 62  1  0
 65 59  2  0
 66 65  1  0
 66 61  2  0
 67 60  1  0
 68 58  1  0
 70 72  2  0
 71 70  1  0
 73 71  1  0
 74 83  2  0
 74 79  1  0
 75 71  1  0
 75 79  1  0
 76 75  1  0
 77 78  1  0
 77 76  1  0
 78 74  1  0
 79 80  2  0
 80 81  1  0
 82 81  2  0
 83 82  1  0
 84 58  1  0
 84 89  1  0
 84 85  1  0
 85 88  1  1
 85 86  1  0
 87 85  1  0
 89 92  1  0
 90 94  1  0
 90 89  1  0
 91 90  2  0
 94 93  1  0
 96 94  1  0
 96 97  1  0
 96 95  1  0
M  ISO  4  10 100  11 100  56 101  57 101
M  END
>  <TORSDO>  (37) 
F 25

>  <SCORE>  (37) 
-12.881

>  <name>  (37) 
37

>  <ligand_id>  (37) 
37

>  <original_smiles>  (37) 
[H]OC([H])([H])C1(C([H])([H])C(=O)N2C([H])([H])C([H])([H])C([H])([H])C([H])(n3nc(-c4c([H])c([H])c(Oc5c([H])c([H])c(F)c([H])c5F)c([H])c4[H])c(C(=O)N([H])[H])c3N([H])[H])C2([H])[H])C([H])([H])C([H])([H])C([H])([H])C([H])([H])C(C([H])([H])[H])(C([H])([H])C([H])([H])C([H])([H])[N+]([H])([H])C([H])([H])C([H])([H])Oc2c([H])c([H])c3c(c2[H])C([H])([H])N(C(=O)C([H])(N([H])C(=O)C([H])(N([H])C([H])([H])[H])C([H])([H])[H])C(C([H])([H])[H])(C([H])([H])[H])C([H])([H])[H])C([H])(C(=O)N([H])C2([H])c4c([H])c([H])c([H])c([H])c4C([H])([H])C([H])([H])C2([H])[H])C3([H])[H])C1([H])[H]

>  <smiles>  (37) 
[H]OC([H])([H])C1(C([H])([H])C(=O)N2C([H])([H])C([H])([H])C([H])([H])C([H])(n3nc(-c4c([H])c([H])c(Oc5c([H])c([H])c(F)c([H])c5F)c([H])c4[H])c(C(=O)N([H])[H])c3N([H])[H])C2([H])[H])C([H])([H])C([H])([H])C([H])([H])C([H])([H])C(C([H])([H])[H])(C([H])([H])C([H])([H])C([H])([H])[N+]([H])([H])C([H])([H])C([H])([H])Oc2c([H])c([H])c3c(c2[H])C([H])([H])N(C(=O)C([H])(N([H])C(=O)C([H])(N([H])C([H])([H])[H])C([H])([H])[H])C(C([H])([H])[H])(C([H])([H])[H])C([H])([H])[H])C([H])(C(=O)N([H])C2([H])c4c([H])c([H])c([H])c([H])c4C([H])([H])C([H])([H])C2([H])[H])C3([H])[H])C1([H])[H]

$$$$
38:0:0
     RDKit          3D

 92 99  0  0  1  0  0  0  0  0999 V2000
  -29.7450  -20.1170   19.9810 C   0  0  0  0  0  0  0  0  0  0  0  0
  -29.9480  -21.4490   19.9920 N   0  0  0  0  0  0  0  0  0  0  0  0
  -28.8110  -19.6030   19.3570 O   0  0  0  0  0  0  0  0  0  0  0  0
  -30.7310  -21.7980   20.5260 H   0  0  0  0  0  0  0  0  0  0  0  0
  -32.1800  -19.4110   20.3630 C   0  0  0  0  0  1  0  0  0  0  0  0
  -30.7060  -19.2010   20.7730 C   0  0  0  0  0  3  0  0  0  0  0  0
  -30.2960  -17.7850   20.5850 N   0  0  0  0  0  4  0  0  0  0  0  0
  -29.2880  -17.8260   20.6040 H   0  0  0  0  0  0  0  0  0  0  0  0
  -30.5540  -17.5010   19.6540 H   0  0  0  0  0  0  0  0  0  0  0  0
  -30.7900  -16.8090   21.5930 C   0  0  0  0  0  2  0  0  0  0  0  0
  -30.1130  -15.4140   21.5000 C   0  0  0  0  0  2  0  0  0  0  0  0
  -30.6750  -14.4240   20.4520 C   0  0  0  0  0  0  0  0  0  0  0  0
  -30.3320  -12.3740   19.0990 C   0  0  0  0  0  2  0  0  0  0  0  0
  -29.3450  -12.6510   17.9450 C   0  0  0  0  0  2  0  0  0  0  0  0
  -27.8850  -12.4950   18.4130 C   0  0  0  0  0  2  0  0  0  0  0  0
  -27.6020  -13.2570   19.7330 C   0  0  0  0  0  3  0  0  0  0  0  0
  -28.6830  -12.9330   20.7890 C   0  0  0  0  0  2  0  0  0  0  0  0
  -29.9940  -13.2720   20.2110 N   0  0  0  0  0  0  0  0  0  0  0  0
  -31.7060  -14.7190   19.8380 O   0  0  0  0  0  0  0  0  0  0  0  0
  -25.2110  -13.8620   20.4750 C   0  0  0  0  0  0  0  0  0  0  0  0
  -24.1500  -13.0870   20.8630 C   0  0  0  0  0  0  0  0  0  0  0  0
  -24.6150  -11.7370   20.8200 C   0  0  0  0  0  0  0  0  0  0  0  0
  -26.2540  -12.9820   20.2290 N   0  0  0  0  0  0  0  0  0  0  0  0
  -25.8980  -11.7000   20.4880 N   0  0  0  0  0  0  0  0  0  0  0  0
  -23.8970  -10.4710   21.0210 C   0  0  0  0  0  0  0  0  0  0  0  0
  -24.3510   -9.5020   21.9430 C   0  0  0  0  0  3  0  0  0  0  0  0
  -23.6330   -8.3010   22.1300 C   0  0  0  0  0  3  0  0  0  0  0  0
  -22.4480   -8.0600   21.3950 C   0  0  0  0  0  0  0  0  0  0  0  0
  -22.0150   -9.0170   20.4590 C   0  0  0  0  0  3  0  0  0  0  0  0
  -22.7350  -10.2100   20.2710 C   0  0  0  0  0  3  0  0  0  0  0  0
  -21.7000   -6.9120   21.4890 O   0  0  0  0  0  0  0  0  0  0  0  0
  -21.6720   -6.1660   22.6410 C   0  0  0  0  0  0  0  0  0  0  0  0
  -21.2640   -6.7170   23.8750 C   0  0  0  0  0  3  0  0  0  0  0  0
  -21.1850   -5.8980   25.0190 C   0  0  0  0  0  3  0  0  0  0  0  0
  -21.5030   -4.5290   24.9300 C   0  0  0  0  0  0  0  0  0  0  0  0
  -21.9050   -3.9790   23.7000 C   0  0  0  0  0  3  0  0  0  0  0  0
  -21.9860   -4.7950   22.5580 C   0  0  0  0  0  0  0  0  0  0  0  0
  -22.3560   -4.2550   21.3700 F   0  0  0  0  0  0  0  0  0  0  0  0
  -21.4190   -3.7400   26.0260 F   0  0  0  0  0  0  0  0  0  0  0  0
  -22.7580  -13.5590   21.1660 C   0  0  0  0  0  0  0  0  0  0  0  0
  -22.0510  -12.8530   22.0430 N   0  0  0  0  0  0  0  0  0  0  0  0
  -22.3080  -14.5860   20.6610 O   0  0  0  0  0  0  0  0  0  0  0  0
  -22.4320  -12.0200   22.4670 H   0  0  0  0  0  0  0  0  0  0  0  0
  -21.1190  -13.1480   22.2950 H   0  0  0  0  0  0  0  0  0  0  0  0
  -25.3730  -15.2320   20.2980 N   0  0  0  0  0  0  0  0  0  0  0  0
  -24.6080  -15.8880   20.4100 H   0  0  0  0  0  0  0  0  0  0  0  0
  -26.2110  -15.6610   19.9290 H   0  0  0  0  0  0  0  0  0  0  0  0
  -29.2120  -22.4250   19.1740 C   0  0  0  0  0  2  0  0  0  0  0  0
  -28.4750  -23.5090   19.9930 C   0  0  0  0  0  2  0  0  0  0  0  0
  -29.3840  -24.5440   20.6870 C   0  0  0  0  0  2  0  0  0  0  0  0
  -28.6240  -25.7960   21.1870 C   0  0  0  0  0  2  0  0  0  0  0  0
  -28.4540  -26.7370   20.1240 O   0  0  0  0  0  0  0  0  0  0  0  0
  -24.5410  -31.8630   23.1980 C   0  0  0  0  0  0  0  0  0  0  0  0
  -27.2820  -27.4550   20.1680 C   0  0  0  0  0  0  0  0  0  0  0  0
  -23.3780  -30.4530   21.5310 C   0  0  0  0  0  3  0  0  0  0  0  0
  -24.8730  -28.9240   20.1370 C   0  0  0  0  0  0  0  0  0  0  0  0
  -25.9020  -30.8330   21.3830 C   0  0  0  0  0  2  0  0  0  0  0  0
  -26.0130  -29.4620   20.7500 C   0  0  0  0  0  0  0  0  0  0  0  0
  -27.2230  -28.7320   20.7660 C   0  0  0  0  0  3  0  0  0  0  0  0
  -26.1310  -26.9240   19.5560 C   0  0  0  0  0  3  0  0  0  0  0  0
  -24.9240  -27.6510   19.5400 C   0  0  0  0  0  3  0  0  0  0  0  0
  -23.6210  -29.7730   20.1560 C   0  0  0  0  0  2  0  0  0  0  0  0
  -24.6250  -31.0640   22.0970 N   0  0  0  0  0  0  0  0  0  0  0  0
  -23.4480  -32.1260   23.7180 O   0  0  0  0  0  0  0  0  0  0  0  0
  -22.7150  -29.4260   22.4770 C   0  0  0  0  0  0  0  0  0  0  0  0
  -21.3900  -29.2560   22.3420 N   0  0  0  0  0  0  0  0  0  0  0  0
  -23.3900  -28.7870   23.2880 O   0  0  0  0  0  0  0  0  0  0  0  0
  -20.9060  -29.8220   21.6590 H   0  0  0  0  0  0  0  0  0  0  0  0
  -17.9960  -28.1290   22.8530 C   0  0  0  0  0  0  0  0  0  0  0  0
  -20.5630  -28.3150   23.0970 C   0  0  0  0  0  3  0  0  0  0  0  0
  -20.6220  -26.8990   22.4770 C   0  0  0  0  0  2  0  0  0  0  0  0
  -19.4990  -26.6350   21.4700 C   0  0  0  0  0  2  0  0  0  0  0  0
  -18.1310  -26.7960   22.1370 C   0  0  0  0  0  2  0  0  0  0  0  0
  -19.1390  -28.8490   23.2890 C   0  0  0  0  0  0  0  0  0  0  0  0
  -18.9610  -30.1020   23.9170 C   0  0  0  0  0  3  0  0  0  0  0  0
  -17.6710  -30.6310   24.1150 C   0  0  0  0  0  3  0  0  0  0  0  0
  -16.5430  -29.9050   23.6970 C   0  0  0  0  0  3  0  0  0  0  0  0
  -16.7060  -28.6560   23.0710 C   0  0  0  0  0  3  0  0  0  0  0  0
  -25.8110  -32.5010   23.8430 C   0  0  0  0  0  3  0  0  0  0  0  0
  -25.4880  -33.8970   24.1680 N   0  0  0  0  0  0  0  0  0  0  0  0
  -25.8330  -34.9500   23.4150 C   0  0  0  0  0  0  0  0  0  0  0  0
  -26.5260  -34.8490   22.3990 O   0  0  0  0  0  0  0  0  0  0  0  0
  -24.8770  -34.0490   24.9570 H   0  0  0  0  0  0  0  0  0  0  0  0
  -24.1050  -36.7340   23.0160 C   0  0  0  0  0  1  0  0  0  0  0  0
  -25.3270  -36.3360   23.8610 C   0  0  0  0  0  3  0  0  0  0  0  0
  -27.4360  -37.2280   24.7460 C   0  0  0  0  0  1  0  0  0  0  0  0
  -26.3570  -37.3940   23.7750 N   0  0  0  0  0  0  0  0  0  0  0  0
  -25.9440  -38.3120   23.9160 H   0  0  0  0  0  0  0  0  0  0  0  0
  -26.3100  -31.7300   25.1260 C   0  0  1  0  0  0  0  0  0  0  0  0
  -25.2010  -31.4810   26.1750 C   0  0  0  0  0  1  0  0  0  0  0  0
  -26.9110  -30.3590   24.7390 C   0  0  0  0  0  1  0  0  0  0  0  0
  -27.4430  -32.5310   25.8100 C   0  0  0  0  0  1  0  0  0  0  0  0
  1  2  1  0
  1  6  1  0
  2  4  1  0
  3  1  2  0
  6  5  1  0
  7  8  1  0
  7  6  1  0
  7 10  1  0
  9  7  1  0
 11 10  1  0
 12 11  1  0
 13 18  1  0
 14 15  1  0
 14 13  1  0
 16 15  1  0
 16 23  1  0
 16 17  1  0
 18 12  1  0
 18 17  1  0
 19 12  2  0
 20 21  2  0
 21 40  1  0
 22 21  1  0
 22 25  1  0
 23 20  1  0
 23 24  1  0
 24 22  2  0
 25 26  1  0
 26 27  2  0
 28 31  1  0
 28 27  1  0
 29 28  2  0
 30 29  1  0
 30 25  2  0
 31 32  1  0
 32 33  1  0
 33 34  2  0
 35 34  1  0
 35 39  1  0
 36 35  2  0
 37 32  2  0
 37 36  1  0
 38 37  1  0
 40 41  1  0
 41 44  1  0
 41 43  1  0
 42 40  2  0
 45 46  1  0
 45 20  1  0
 47 45  1  0
 48  2  1  0
 48 49  1  0
 49 50  1  0
 50 51  1  0
 52 54  1  0
 52 51  1  0
 53 64  2  0
 54 59  1  0
 55 63  1  0
 55 65  1  0
 56 62  1  0
 56 58  1  0
 57 63  1  0
 58 59  2  0
 58 57  1  0
 60 54  2  0
 61 60  1  0
 61 56  2  0
 62 55  1  0
 63 53  1  0
 65 67  2  0
 66 65  1  0
 68 66  1  0
 69 78  2  0
 69 74  1  0
 70 66  1  0
 70 74  1  0
 71 70  1  0
 72 73  1  0
 72 71  1  0
 73 69  1  0
 74 75  2  0
 75 76  1  0
 77 76  2  0
 78 77  1  0
 79 53  1  0
 79 80  1  0
 79 89  1  0
 80 83  1  0
 81 85  1  0
 81 80  1  0
 82 81  2  0
 85 84  1  0
 87 85  1  0
 87 88  1  0
 87 86  1  0
 89 92  1  1
 89 90  1  0
 91 89  1  0
M  ISO  4  11 100  12 100  51 101  52 101
M  END
>  <TORSDO>  (38) 
F 24

>  <SCORE>  (38) 
-12.505

>  <name>  (38) 
38

>  <ligand_id>  (38) 
38

>  <original_smiles>  (38) 
[H]c1c([H])c([H])c2c(c1[H])C([H])([H])C([H])([H])C([H])([H])C2([H])N([H])C(=O)C1([H])N(C(=O)C([H])(N([H])C(=O)C([H])(N([H])C([H])([H])[H])C([H])([H])[H])C(C([H])([H])[H])(C([H])([H])[H])C([H])([H])[H])C([H])([H])c2c([H])c(OC([H])([H])C([H])([H])C([H])([H])C([H])([H])N([H])C(=O)C([H])(C([H])([H])[H])[N+]([H])([H])C([H])([H])C([H])([H])C(=O)N3C([H])([H])C([H])([H])C([H])([H])C([H])(n4nc(-c5c([H])c([H])c(Oc6c([H])c([H])c(F)c([H])c6F)c([H])c5[H])c(C(=O)N([H])[H])c4N([H])[H])C3([H])[H])c([H])c([H])c2C1([H])[H]

>  <smiles>  (38) 
[H]c1c([H])c([H])c2c(c1[H])C([H])([H])C([H])([H])C([H])([H])C2([H])N([H])C(=O)C1([H])N(C(=O)C([H])(N([H])C(=O)C([H])(N([H])C([H])([H])[H])C([H])([H])[H])C(C([H])([H])[H])(C([H])([H])[H])C([H])([H])[H])C([H])([H])c2c([H])c(OC([H])([H])C([H])([H])C([H])([H])C([H])([H])N([H])C(=O)C([H])(C([H])([H])[H])[N+]([H])([H])C([H])([H])C([H])([H])C(=O)N3C([H])([H])C([H])([H])C([H])([H])C([H])(n4nc(-c5c([H])c([H])c(Oc6c([H])c([H])c(F)c([H])c6F)c([H])c5[H])c(C(=O)N([H])[H])c4N([H])[H])C3([H])[H])c([H])c([H])c2C1([H])[H]

$$$$
39:0:0
     RDKit          3D

100107  0  0  1  0  0  0  0  0999 V2000
  -32.2410  -24.3050   19.2070 C   0  0  0  0  0  0  0  0  0  0  0  0
  -33.6540  -24.2940   18.6630 C   0  0  0  0  0  1  0  0  0  0  0  0
  -31.5460  -23.2400   19.1280 N   0  0  0  0  0  0  0  0  0  0  0  0
  -31.7820  -25.6430   19.7930 C   0  0  0  0  0  2  0  0  0  0  0  0
  -31.6840  -26.7570   18.7290 C   0  0  0  0  0  2  0  0  0  0  0  0
  -30.5150  -27.7460   18.9530 C   0  0  0  0  0  3  0  0  0  0  0  0
  -30.7000  -28.9440   18.0980 N   0  0  0  0  0  4  0  0  0  0  0  0
  -30.6470  -28.7240   17.1180 H   0  0  0  0  0  0  0  0  0  0  0  0
  -31.5970  -29.3660   18.2670 H   0  0  0  0  0  0  0  0  0  0  0  0
  -30.0050  -29.6440   18.2990 H   0  0  0  0  0  0  0  0  0  0  0  0
  -29.1350  -27.0820   18.6980 C   0  0  0  0  0  2  0  0  0  0  0  0
  -28.4700  -26.7770   19.9290 O   0  0  0  0  0  0  0  0  0  0  0  0
  -24.6450  -31.8460   23.1730 C   0  0  0  0  0  0  0  0  0  0  0  0
  -27.2840  -27.4480   20.0570 C   0  0  0  0  0  0  0  0  0  0  0  0
  -23.4280  -30.4480   21.5310 C   0  0  0  0  0  3  0  0  0  0  0  0
  -24.8760  -28.9050   20.1090 C   0  0  0  0  0  0  0  0  0  0  0  0
  -25.9490  -30.8100   21.3250 C   0  0  0  0  0  2  0  0  0  0  0  0
  -26.0320  -29.4400   20.6910 C   0  0  0  0  0  0  0  0  0  0  0  0
  -27.2400  -28.7120   20.6740 C   0  0  0  0  0  3  0  0  0  0  0  0
  -26.1110  -26.9030   19.4930 C   0  0  0  0  0  3  0  0  0  0  0  0
  -24.9050  -27.6280   19.5180 C   0  0  0  0  0  3  0  0  0  0  0  0
  -23.6320  -29.7630   20.1520 C   0  0  0  0  0  2  0  0  0  0  0  0
  -24.6920  -31.0500   22.0670 N   0  0  0  0  0  0  0  0  0  0  0  0
  -23.5680  -32.1190   23.7190 O   0  0  0  0  0  0  0  0  0  0  0  0
  -22.7800  -29.4290   22.4910 C   0  0  0  0  0  0  0  0  0  0  0  0
  -21.4520  -29.2590   22.3740 N   0  0  0  0  0  0  0  0  0  0  0  0
  -23.4650  -28.7910   23.2940 O   0  0  0  0  0  0  0  0  0  0  0  0
  -20.9620  -29.8250   21.6950 H   0  0  0  0  0  0  0  0  0  0  0  0
  -18.0710  -28.1060   22.8970 C   0  0  0  0  0  0  0  0  0  0  0  0
  -20.6340  -28.3250   23.1450 C   0  0  0  0  0  3  0  0  0  0  0  0
  -20.7120  -26.9000   22.5510 C   0  0  0  0  0  2  0  0  0  0  0  0
  -19.5950  -26.6020   21.5460 C   0  0  0  0  0  2  0  0  0  0  0  0
  -18.2220  -26.7600   22.2070 C   0  0  0  0  0  2  0  0  0  0  0  0
  -19.2040  -28.8480   23.3230 C   0  0  0  0  0  0  0  0  0  0  0  0
  -19.0100  -30.1090   23.9250 C   0  0  0  0  0  3  0  0  0  0  0  0
  -17.7160  -30.6280   24.1090 C   0  0  0  0  0  3  0  0  0  0  0  0
  -16.5960  -29.8820   23.7010 C   0  0  0  0  0  3  0  0  0  0  0  0
  -16.7750  -28.6230   23.1010 C   0  0  0  0  0  3  0  0  0  0  0  0
  -25.9400  -32.4660   23.7900 C   0  0  0  0  0  3  0  0  0  0  0  0
  -25.6350  -33.8580   24.1440 N   0  0  0  0  0  0  0  0  0  0  0  0
  -25.9640  -34.9200   23.3960 C   0  0  0  0  0  0  0  0  0  0  0  0
  -26.6310  -34.8330   22.3610 O   0  0  0  0  0  0  0  0  0  0  0  0
  -25.0410  -34.0020   24.9480 H   0  0  0  0  0  0  0  0  0  0  0  0
  -24.2350  -36.7170   23.0710 C   0  0  0  0  0  1  0  0  0  0  0  0
  -25.4780  -36.3020   23.8750 C   0  0  0  0  0  3  0  0  0  0  0  0
  -27.6170  -37.1720   24.7110 C   0  0  0  0  0  1  0  0  0  0  0  0
  -26.5110  -37.3560   23.7740 N   0  0  0  0  0  0  0  0  0  0  0  0
  -26.1050  -38.2740   23.9380 H   0  0  0  0  0  0  0  0  0  0  0  0
  -26.4740  -31.6720   25.0440 C   0  0  1  0  0  0  0  0  0  0  0  0
  -25.3970  -31.4150   26.1220 C   0  0  0  0  0  1  0  0  0  0  0  0
  -27.0520  -30.3020   24.6170 C   0  0  0  0  0  1  0  0  0  0  0  0
  -27.6340  -32.4530   25.7030 C   0  0  0  0  0  1  0  0  0  0  0  0
  -30.1770  -23.2010   19.6050 C   0  0  0  0  0  2  0  0  0  0  0  0
  -29.6000  -21.8060   19.3440 C   0  0  0  0  0  2  0  0  0  0  0  0
  -28.1220  -21.6770   19.7570 C   0  0  0  0  0  2  0  0  0  0  0  0
  -27.4840  -20.4570   19.2140 N   0  0  0  0  0  4  0  0  0  0  0  0
  -26.5010  -20.6640   19.1310 H   0  0  0  0  0  0  0  0  0  0  0  0
  -27.8130  -20.2820   18.2790 H   0  0  0  0  0  0  0  0  0  0  0  0
  -27.5660  -19.2210   20.0270 C   0  0  0  0  0  2  0  0  0  0  0  0
  -28.9930  -18.6720   20.2520 C   0  0  0  0  0  2  0  0  0  0  0  0
  -28.9530  -17.2010   20.6910 C   0  0  0  0  0  2  0  0  0  0  0  0
  -30.3220  -16.5830   21.0260 C   0  0  0  0  0  2  0  0  0  0  0  0
  -30.7580  -14.2280   20.3300 C   0  0  0  0  0  0  0  0  0  0  0  0
  -30.4200  -12.0590   19.2010 C   0  0  0  0  0  2  0  0  0  0  0  0
  -29.4700  -12.2430   18.0000 C   0  0  0  0  0  2  0  0  0  0  0  0
  -27.9970  -12.1410   18.4420 C   0  0  0  0  0  2  0  0  0  0  0  0
  -27.6840  -13.0270   19.6770 C   0  0  0  0  0  3  0  0  0  0  0  0
  -28.7350  -12.7980   20.7860 C   0  0  0  0  0  2  0  0  0  0  0  0
  -30.0710  -13.0610   20.2180 N   0  0  0  0  0  0  0  0  0  0  0  0
  -31.7950  -14.4750   19.7060 O   0  0  0  0  0  0  0  0  0  0  0  0
  -30.1650  -15.1360   21.1130 N   0  0  0  0  0  0  0  0  0  0  0  0
  -29.3700  -14.7990   21.6390 H   0  0  0  0  0  0  0  0  0  0  0  0
  -25.3050  -13.7170   20.3930 C   0  0  0  0  0  0  0  0  0  0  0  0
  -24.2210  -12.9800   20.7850 C   0  0  0  0  0  0  0  0  0  0  0  0
  -24.6470  -11.6150   20.7730 C   0  0  0  0  0  0  0  0  0  0  0  0
  -26.3260  -12.8040   20.1670 N   0  0  0  0  0  0  0  0  0  0  0  0
  -25.9320  -11.5360   20.4510 N   0  0  0  0  0  0  0  0  0  0  0  0
  -23.8920  -10.3760   20.9960 C   0  0  0  0  0  0  0  0  0  0  0  0
  -24.3190   -9.4120   21.9350 C   0  0  0  0  0  3  0  0  0  0  0  0
  -23.5700   -8.2330   22.1410 C   0  0  0  0  0  3  0  0  0  0  0  0
  -22.3780   -8.0140   21.4100 C   0  0  0  0  0  0  0  0  0  0  0  0
  -21.9690   -8.9660   20.4600 C   0  0  0  0  0  3  0  0  0  0  0  0
  -22.7200  -10.1350   20.2520 C   0  0  0  0  0  3  0  0  0  0  0  0
  -21.5970   -6.8890   21.5270 O   0  0  0  0  0  0  0  0  0  0  0  0
  -21.5600   -6.1580   22.6870 C   0  0  0  0  0  0  0  0  0  0  0  0
  -21.1890   -6.7370   23.9210 C   0  0  0  0  0  3  0  0  0  0  0  0
  -21.0950   -5.9320   25.0750 C   0  0  0  0  0  3  0  0  0  0  0  0
  -21.3620   -4.5530   24.9960 C   0  0  0  0  0  0  0  0  0  0  0  0
  -21.7260   -3.9740   23.7670 C   0  0  0  0  0  3  0  0  0  0  0  0
  -21.8230   -4.7740   22.6160 C   0  0  0  0  0  0  0  0  0  0  0  0
  -22.1540   -4.2080   21.4300 F   0  0  0  0  0  0  0  0  0  0  0  0
  -21.2630   -3.7790   26.1030 F   0  0  0  0  0  0  0  0  0  0  0  0
  -22.8390  -13.4980   21.0660 C   0  0  0  0  0  0  0  0  0  0  0  0
  -22.1070  -12.8390   21.9560 N   0  0  0  0  0  0  0  0  0  0  0  0
  -22.4170  -14.5210   20.5280 O   0  0  0  0  0  0  0  0  0  0  0  0
  -22.4550  -12.0070   22.4100 H   0  0  0  0  0  0  0  0  0  0  0  0
  -21.1800  -13.1720   22.1860 H   0  0  0  0  0  0  0  0  0  0  0  0
  -25.5030  -15.0800   20.1940 N   0  0  0  0  0  0  0  0  0  0  0  0
  -24.7510  -15.7520   20.3140 H   0  0  0  0  0  0  0  0  0  0  0  0
  -26.3580  -15.4950   19.8470 H   0  0  0  0  0  0  0  0  0  0  0  0
  1  4  1  0
  2  1  1  0
  3  1  2  0
  3 53  1  0
  5  6  1  0
  5  4  1  0
  6 11  1  0
  7  9  1  0
  7 10  1  0
  7  6  1  0
  8  7  1  0
 11 12  1  0
 12 14  1  0
 13 24  2  0
 14 19  1  0
 15 23  1  0
 15 25  1  0
 16 22  1  0
 16 18  1  0
 17 23  1  0
 18 17  1  0
 19 18  2  0
 20 21  1  0
 20 14  2  0
 21 16  2  0
 22 15  1  0
 23 13  1  0
 25 27  2  0
 26 25  1  0
 28 26  1  0
 29 38  2  0
 29 34  1  0
 30 26  1  0
 30 34  1  0
 31 30  1  0
 32 33  1  0
 32 31  1  0
 33 29  1  0
 34 35  2  0
 35 36  1  0
 37 36  2  0
 38 37  1  0
 39 13  1  0
 39 40  1  0
 39 49  1  0
 40 43  1  0
 41 45  1  0
 41 40  1  0
 42 41  2  0
 45 44  1  0
 47 45  1  0
 47 48  1  0
 47 46  1  0
 49 52  1  1
 49 50  1  0
 51 49  1  0
 54 53  1  0
 54 55  1  0
 56 55  1  0
 56 59  1  0
 57 56  1  0
 58 56  1  0
 59 60  1  0
 60 61  1  0
 61 62  1  0
 62 71  1  0
 63 71  1  0
 64 69  1  0
 65 66  1  0
 65 64  1  0
 67 66  1  0
 67 76  1  0
 67 68  1  0
 69 63  1  0
 69 68  1  0
 70 63  2  0
 71 72  1  0
 73 74  2  0
 74 93  1  0
 75 74  1  0
 75 78  1  0
 76 73  1  0
 76 77  1  0
 77 75  2  0
 78 79  1  0
 79 80  2  0
 81 84  1  0
 81 80  1  0
 82 81  2  0
 83 82  1  0
 83 78  2  0
 84 85  1  0
 85 86  1  0
 86 87  2  0
 88 87  1  0
 88 92  1  0
 89 88  2  0
 90 85  2  0
 90 89  1  0
 91 90  1  0
 93 94  1  0
 94 97  1  0
 94 96  1  0
 95 93  2  0
 98 99  1  0
 98 73  1  0
100 98  1  0
M  ISO  4  11 101  12 101  63 100  71 100
M  END
>  <TORSDO>  (39) 
F 29

>  <SCORE>  (39) 
-10.878

>  <name>  (39) 
39

>  <ligand_id>  (39) 
39

>  <original_smiles>  (39) 
[H]c1c([H])c([H])c2c(c1[H])C([H])([H])C([H])([H])C([H])([H])C2([H])N([H])C(=O)C1([H])N(C(=O)C([H])(N([H])C(=O)C([H])(N([H])C([H])([H])[H])C([H])([H])[H])C(C([H])([H])[H])(C([H])([H])[H])C([H])([H])[H])C([H])([H])c2c([H])c(OC([H])([H])C([H])(C([H])([H])C([H])([H])C(=NC([H])([H])C([H])([H])C([H])([H])[N+]([H])([H])C([H])([H])C([H])([H])C([H])([H])C([H])([H])N([H])C(=O)N3C([H])([H])C([H])([H])C([H])([H])C([H])(n4nc(-c5c([H])c([H])c(Oc6c([H])c([H])c(F)c([H])c6F)c([H])c5[H])c(C(=O)N([H])[H])c4N([H])[H])C3([H])[H])C([H])([H])[H])[N+]([H])([H])[H])c([H])c([H])c2C1([H])[H]

>  <smiles>  (39) 
[H]c1c([H])c([H])c2c(c1[H])C([H])([H])C([H])([H])C([H])([H])C2([H])N([H])C(=O)C1([H])N(C(=O)C([H])(N([H])C(=O)C([H])(N([H])C([H])([H])[H])C([H])([H])[H])C(C([H])([H])[H])(C([H])([H])[H])C([H])([H])[H])C([H])([H])c2c([H])c(OC([H])([H])C([H])(C([H])([H])C([H])([H])C(=NC([H])([H])C([H])([H])C([H])([H])[N+]([H])([H])C([H])([H])C([H])([H])C([H])([H])C([H])([H])N([H])C(=O)N3C([H])([H])C([H])([H])C([H])([H])C([H])(n4nc(-c5c([H])c([H])c(Oc6c([H])c([H])c(F)c([H])c6F)c([H])c5[H])c(C(=O)N([H])[H])c4N([H])[H])C3([H])[H])C([H])([H])[H])[N+]([H])([H])[H])c([H])c([H])c2C1([H])[H]

$$$$
40:0:0
     RDKit          3D

100108  0  0  1  0  0  0  0  0999 V2000
  -29.5890  -21.6330   24.8460 C   0  0  0  0  0  3  0  0  0  0  0  0
  -28.3840  -22.2650   24.4880 C   0  0  0  0  0  3  0  0  0  0  0  0
  -30.8420  -23.4780   23.8770 C   0  0  0  0  0  3  0  0  0  0  0  0
  -30.8290  -22.2150   24.5060 C   0  0  0  0  0  0  0  0  0  0  0  0
  -29.6380  -24.1430   23.5610 C   0  0  0  0  0  0  0  0  0  0  0  0
  -28.3980  -23.5110   23.8270 C   0  0  0  0  0  0  0  0  0  0  0  0
  -27.1960  -24.1050   23.4170 N   0  0  0  0  0  0  0  0  0  0  0  0
  -27.2670  -25.1130   23.3240 H   0  0  0  0  0  0  0  0  0  0  0  0
  -26.5920  -23.4690   22.2500 C   0  0  0  0  0  2  0  0  0  0  0  0
  -26.1910  -24.4990   21.1820 C   0  0  0  0  0  2  0  0  0  0  0  0
  -25.7770  -23.8390   19.8530 C   0  0  0  0  0  2  0  0  0  0  0  0
  -25.6120  -24.8190   18.8280 O   0  0  0  0  0  0  0  0  0  0  0  0
  -23.4350  -30.5290   22.4340 C   0  0  0  0  0  0  0  0  0  0  0  0
  -24.6040  -25.7240   19.0420 C   0  0  0  0  0  0  0  0  0  0  0  0
  -21.7010  -29.3840   21.0870 C   0  0  0  0  0  3  0  0  0  0  0  0
  -22.5550  -27.6150   19.4600 C   0  0  0  0  0  0  0  0  0  0  0  0
  -24.1620  -29.2860   20.4020 C   0  0  0  0  0  2  0  0  0  0  0  0
  -23.8780  -27.9270   19.8010 C   0  0  0  0  0  0  0  0  0  0  0  0
  -24.9070  -26.9880   19.5830 C   0  0  0  0  0  3  0  0  0  0  0  0
  -23.2690  -25.4160   18.7010 C   0  0  0  0  0  3  0  0  0  0  0  0
  -22.2440  -26.3590   18.9090 C   0  0  0  0  0  3  0  0  0  0  0  0
  -21.5170  -28.6830   19.7130 C   0  0  0  0  0  2  0  0  0  0  0  0
  -23.1320  -29.7430   21.3620 N   0  0  0  0  0  0  0  0  0  0  0  0
  -22.5440  -30.9920   23.1610 O   0  0  0  0  0  0  0  0  0  0  0  0
  -21.0720  -28.4940   22.1810 C   0  0  0  0  0  0  0  0  0  0  0  0
  -19.7480  -28.2880   22.0940 N   0  0  0  0  0  0  0  0  0  0  0  0
  -21.7710  -27.9850   23.0620 O   0  0  0  0  0  0  0  0  0  0  0  0
  -19.2470  -28.7440   21.3450 H   0  0  0  0  0  0  0  0  0  0  0  0
  -16.4770  -26.8260   22.5560 C   0  0  0  0  0  0  0  0  0  0  0  0
  -18.9470  -27.4540   22.9900 C   0  0  0  0  0  3  0  0  0  0  0  0
  -19.2590  -25.9550   22.7800 C   0  0  0  0  0  2  0  0  0  0  0  0
  -18.3210  -25.2770   21.7770 C   0  0  0  0  0  2  0  0  0  0  0  0
  -16.8660  -25.3920   22.2400 C   0  0  0  0  0  2  0  0  0  0  0  0
  -17.4570  -27.7980   22.8920 C   0  0  0  0  0  0  0  0  0  0  0  0
  -17.0470  -29.1250   23.1430 C   0  0  0  0  0  3  0  0  0  0  0  0
  -15.6880  -29.4870   23.0650 C   0  0  0  0  0  3  0  0  0  0  0  0
  -14.7210  -28.5170   22.7490 C   0  0  0  0  0  3  0  0  0  0  0  0
  -15.1150  -27.1900   22.4990 C   0  0  0  0  0  3  0  0  0  0  0  0
  -24.9090  -30.9050   22.7810 C   0  0  0  0  0  3  0  0  0  0  0  0
  -24.9100  -32.2980   23.2480 N   0  0  0  0  0  0  0  0  0  0  0  0
  -25.3210  -33.3440   22.5180 C   0  0  0  0  0  0  0  0  0  0  0  0
  -25.8120  -33.2240   21.3920 O   0  0  0  0  0  0  0  0  0  0  0  0
  -24.4690  -32.4760   24.1390 H   0  0  0  0  0  0  0  0  0  0  0  0
  -23.9350  -35.4410   22.5260 C   0  0  0  0  0  1  0  0  0  0  0  0
  -25.1630  -34.7460   23.1360 C   0  0  0  0  0  3  0  0  0  0  0  0
  -27.5090  -35.1480   23.7370 C   0  0  0  0  0  1  0  0  0  0  0  0
  -26.3560  -35.6020   22.9640 N   0  0  0  0  0  0  0  0  0  0  0  0
  -26.1530  -36.5610   23.2340 H   0  0  0  0  0  0  0  0  0  0  0  0
  -25.5560  -29.9530   23.8590 C   0  0  1  0  0  0  0  0  0  0  0  0
  -24.6900  -29.7720   25.1270 C   0  0  0  0  0  1  0  0  0  0  0  0
  -25.8170  -28.5500   23.2600 C   0  0  0  0  0  1  0  0  0  0  0  0
  -26.9320  -30.5120   24.2950 C   0  0  0  0  0  1  0  0  0  0  0  0
  -29.7140  -25.5270   22.9300 C   0  0  0  0  0  2  0  0  0  0  0  0
  -29.2900  -26.9300   20.8470 C   0  0  0  0  0  1  0  0  0  0  0  0
  -29.3400  -25.5190   21.4410 C   0  0  0  0  0  2  0  0  0  0  0  0
  -32.1440  -21.5060   24.8050 C   0  0  0  0  0  2  0  0  0  0  0  0
  -32.5810  -20.5340   23.6880 C   0  0  0  0  0  2  0  0  0  0  0  0
  -31.7660  -19.2270   23.6760 C   0  0  0  0  0  2  0  0  0  0  0  0
  -32.0740  -18.3480   22.5280 N   0  0  0  0  0  4  0  0  0  0  0  0
  -33.0670  -18.1780   22.4860 H   0  0  0  0  0  0  0  0  0  0  0  0
  -31.8010  -18.8190   21.6800 H   0  0  0  0  0  0  0  0  0  0  0  0
  -31.3530  -17.0600   22.6070 C   0  0  0  0  0  2  0  0  0  0  0  0
  -31.7150  -16.0800   21.4800 C   0  0  0  0  0  2  0  0  0  0  0  0
  -30.9470  -14.7530   21.6500 C   0  0  0  0  0  2  0  0  0  0  0  0
  -31.4720  -13.5900   20.7980 C   0  0  0  0  0  0  0  0  0  0  0  0
  -31.4110  -11.1720   20.2860 C   0  0  0  0  0  2  0  0  0  0  0  0
  -30.5200  -10.8320   19.0790 C   0  0  0  0  0  2  0  0  0  0  0  0
  -29.0520  -10.6660   19.5120 C   0  0  0  0  0  2  0  0  0  0  0  0
  -28.5520  -11.8480   20.3810 C   0  0  0  0  0  3  0  0  0  0  0  0
  -29.5490  -12.1460   21.5230 C   0  0  0  0  0  2  0  0  0  0  0  0
  -30.8790  -12.3780   20.9310 N   0  0  0  0  0  0  0  0  0  0  0  0
  -32.4520  -13.7770   20.0690 O   0  0  0  0  0  0  0  0  0  0  0  0
  -26.2710  -12.5010   21.3890 C   0  0  0  0  0  0  0  0  0  0  0  0
  -25.1470  -11.7660   21.6580 C   0  0  0  0  0  0  0  0  0  0  0  0
  -25.4590  -10.4210   21.2910 C   0  0  0  0  0  0  0  0  0  0  0  0
  -27.2030  -11.6030   20.8900 N   0  0  0  0  0  0  0  0  0  0  0  0
  -26.7180  -10.3350   20.8830 N   0  0  0  0  0  0  0  0  0  0  0  0
  -24.6150   -9.2200   21.2520 C   0  0  0  0  0  0  0  0  0  0  0  0
  -24.9760   -8.0400   21.9380 C   0  0  0  0  0  3  0  0  0  0  0  0
  -24.1390   -6.9040   21.8990 C   0  0  0  0  0  3  0  0  0  0  0  0
  -22.9250   -6.9420   21.1720 C   0  0  0  0  0  0  0  0  0  0  0  0
  -22.5810   -8.1110   20.4720 C   0  0  0  0  0  3  0  0  0  0  0  0
  -23.4180   -9.2390   20.5070 C   0  0  0  0  0  3  0  0  0  0  0  0
  -22.0620   -5.8790   21.0570 O   0  0  0  0  0  0  0  0  0  0  0  0
  -21.9710   -4.9170   22.0320 C   0  0  0  0  0  0  0  0  0  0  0  0
  -21.6500   -5.2390   23.3680 C   0  0  0  0  0  3  0  0  0  0  0  0
  -21.4980   -4.2120   24.3230 C   0  0  0  0  0  3  0  0  0  0  0  0
  -21.6570   -2.8660   23.9410 C   0  0  0  0  0  0  0  0  0  0  0  0
  -21.9720   -2.5450   22.6090 C   0  0  0  0  0  3  0  0  0  0  0  0
  -22.1250   -3.5670   21.6560 C   0  0  0  0  0  0  0  0  0  0  0  0
  -22.4070   -3.2500   20.3700 F   0  0  0  0  0  0  0  0  0  0  0  0
  -21.5030   -1.8800   24.8550 F   0  0  0  0  0  0  0  0  0  0  0  0
  -23.8250  -12.2930   22.1380 C   0  0  0  0  0  0  0  0  0  0  0  0
  -23.0900  -11.4980   22.9080 N   0  0  0  0  0  0  0  0  0  0  0  0
  -23.4570  -13.4360   21.8710 O   0  0  0  0  0  0  0  0  0  0  0  0
  -23.4020  -10.5670   23.1440 H   0  0  0  0  0  0  0  0  0  0  0  0
  -22.2040  -11.8230   23.2660 H   0  0  0  0  0  0  0  0  0  0  0  0
  -26.5720  -13.8540   21.5080 N   0  0  0  0  0  0  0  0  0  0  0  0
  -25.8900  -14.5370   21.8190 H   0  0  0  0  0  0  0  0  0  0  0  0
  -27.4530  -14.2720   21.2340 H   0  0  0  0  0  0  0  0  0  0  0  0
  2  1  2  0
  3  4  2  0
  4 56  1  0
  4  1  1  0
  5  6  2  0
  5  3  1  0
  6  2  1  0
  7  6  1  0
  8  7  1  0
  9  7  1  0
 10  9  1  0
 11 10  1  0
 12 14  1  0
 12 11  1  0
 13 24  2  0
 14 19  1  0
 15 23  1  0
 15 25  1  0
 16 22  1  0
 16 18  1  0
 17 23  1  0
 18 17  1  0
 19 18  2  0
 20 21  1  0
 20 14  2  0
 21 16  2  0
 22 15  1  0
 23 13  1  0
 25 27  2  0
 26 25  1  0
 28 26  1  0
 29 34  1  0
 30 26  1  0
 31 30  1  0
 32 33  1  0
 32 31  1  0
 33 29  1  0
 34 30  1  0
 34 35  2  0
 36 35  1  0
 37 36  2  0
 38 29  2  0
 38 37  1  0
 39 13  1  0
 39 40  1  0
 39 49  1  0
 40 43  1  0
 41 45  1  0
 41 40  1  0
 42 41  2  0
 45 44  1  0
 47 45  1  0
 47 48  1  0
 47 46  1  0
 49 52  1  1
 49 50  1  0
 51 49  1  0
 53  5  1  0
 54 55  1  0
 55 53  1  0
 57 56  1  0
 58 57  1  0
 59 62  1  0
 59 58  1  0
 60 59  1  0
 61 59  1  0
 63 64  1  0
 63 62  1  0
 65 71  1  0
 65 64  1  0
 66 71  1  0
 67 68  1  0
 67 66  1  0
 69 68  1  0
 69 76  1  0
 69 70  1  0
 71 70  1  0
 72 65  2  0
 73 98  1  0
 73 74  2  0
 74 93  1  0
 75 74  1  0
 76 73  1  0
 77 76  1  0
 77 75  2  0
 78 75  1  0
 78 79  1  0
 80 79  2  0
 81 80  1  0
 82 83  1  0
 82 81  2  0
 83 78  2  0
 84 81  1  0
 84 85  1  0
 85 86  1  0
 86 87  2  0
 88 87  1  0
 88 92  1  0
 89 88  2  0
 90 85  2  0
 90 89  1  0
 91 90  1  0
 93 94  1  0
 94 96  1  0
 94 97  1  0
 95 93  2  0
 98 99  1  0
100 98  1  0
M  ISO  4  11 101  12 101  64 100  65 100
M  END
>  <TORSDO>  (40) 
F 29

>  <SCORE>  (40) 
8.466

>  <name>  (40) 
40

>  <ligand_id>  (40) 
40

>  <original_smiles>  (40) 
[H]c1c([H])c([H])c2c(c1[H])C([H])([H])C([H])([H])C([H])([H])C2([H])N([H])C(=O)C1([H])N(C(=O)C([H])(N([H])C(=O)C([H])(N([H])C([H])([H])[H])C([H])([H])[H])C(C([H])([H])[H])(C([H])([H])[H])C([H])([H])[H])C([H])([H])c2c([H])c(OC([H])([H])C([H])([H])C([H])([H])N([H])c3c([H])c([H])c(C([H])([H])C([H])([H])C([H])([H])[N+]([H])([H])C([H])([H])C([H])([H])C([H])([H])C(=O)N4C([H])([H])C([H])([H])C([H])([H])C([H])(n5nc(-c6c([H])c([H])c(Oc7c([H])c([H])c(F)c([H])c7F)c([H])c6[H])c(C(=O)N([H])[H])c5N([H])[H])C4([H])[H])c([H])c3C([H])([H])C([H])([H])C([H])([H])[H])c([H])c([H])c2C1([H])[H]

>  <smiles>  (40) 
[H]c1c([H])c([H])c2c(c1[H])C([H])([H])C([H])([H])C([H])([H])C2([H])N([H])C(=O)C1([H])N(C(=O)C([H])(N([H])C(=O)C([H])(N([H])C([H])([H])[H])C([H])([H])[H])C(C([H])([H])[H])(C([H])([H])[H])C([H])([H])[H])C([H])([H])c2c([H])c(OC([H])([H])C([H])([H])C([H])([H])N([H])c3c([H])c([H])c(C([H])([H])C([H])([H])C([H])([H])[N+]([H])([H])C([H])([H])C([H])([H])C([H])([H])C(=O)N4C([H])([H])C([H])([H])C([H])([H])C([H])(n5nc(-c6c([H])c([H])c(Oc7c([H])c([H])c(F)c([H])c7F)c([H])c6[H])c(C(=O)N([H])[H])c5N([H])[H])C4([H])[H])c([H])c3C([H])([H])C([H])([H])C([H])([H])[H])c([H])c([H])c2C1([H])[H]

$$$$
41:0:0
     RDKit          3D

 98105  0  0  1  0  0  0  0  0999 V2000
  -28.6240  -22.2860   19.9050 C   0  0  0  0  0  2  0  0  0  0  0  0
  -28.4560  -23.4160   20.8670 N   0  0  0  0  0  4  0  0  0  0  0  0
  -29.3900  -23.7530   21.0590 H   0  0  0  0  0  0  0  0  0  0  0  0
  -28.0980  -23.0800   21.7480 H   0  0  0  0  0  0  0  0  0  0  0  0
  -27.6460  -24.5940   20.4290 C   0  0  0  0  0  3  0  0  0  0  0  0
  -25.0980  -24.0650   20.7110 C   0  0  0  0  0  1  0  0  0  0  0  0
  -26.5510  -24.4820   22.7710 C   0  0  0  0  0  1  0  0  0  0  0  0
  -26.3450  -24.7740   21.2720 C   0  0  0  0  0  3  0  0  0  0  0  0
  -28.4820  -25.9080   20.4860 C   0  0  0  0  0  2  0  0  0  0  0  0
  -28.0970  -26.8560   19.4890 O   0  0  0  0  0  0  0  0  0  0  0  0
  -24.4650  -31.8580   23.0960 C   0  0  0  0  0  0  0  0  0  0  0  0
  -26.9300  -27.5540   19.6900 C   0  0  0  0  0  0  0  0  0  0  0  0
  -23.1790  -30.5570   21.4320 C   0  0  0  0  0  3  0  0  0  0  0  0
  -24.5530  -29.0640   19.8900 C   0  0  0  0  0  0  0  0  0  0  0  0
  -25.6970  -30.8840   21.1640 C   0  0  0  0  0  2  0  0  0  0  0  0
  -25.7370  -29.5430   20.4630 C   0  0  0  0  0  0  0  0  0  0  0  0
  -26.9290  -28.7910   20.3700 C   0  0  0  0  0  3  0  0  0  0  0  0
  -25.7340  -27.0810   19.1130 C   0  0  0  0  0  3  0  0  0  0  0  0
  -24.5420  -27.8270   19.2240 C   0  0  0  0  0  3  0  0  0  0  0  0
  -23.3290  -29.9430   20.0160 C   0  0  0  0  0  2  0  0  0  0  0  0
  -24.4670  -31.1130   21.9560 N   0  0  0  0  0  0  0  0  0  0  0  0
  -23.4130  -32.1170   23.6920 O   0  0  0  0  0  0  0  0  0  0  0  0
  -22.5450  -29.4980   22.3620 C   0  0  0  0  0  0  0  0  0  0  0  0
  -21.2160  -29.3350   22.2680 N   0  0  0  0  0  0  0  0  0  0  0  0
  -23.2460  -28.8250   23.1250 O   0  0  0  0  0  0  0  0  0  0  0  0
  -20.7130  -29.9270   21.6200 H   0  0  0  0  0  0  0  0  0  0  0  0
  -17.8400  -28.1700   22.8260 C   0  0  0  0  0  0  0  0  0  0  0  0
  -20.4110  -28.3700   23.0180 C   0  0  0  0  0  3  0  0  0  0  0  0
  -20.4670  -26.9690   22.3690 C   0  0  0  0  0  2  0  0  0  0  0  0
  -19.3220  -26.7180   21.3840 C   0  0  0  0  0  2  0  0  0  0  0  0
  -17.9660  -26.8510   22.0840 C   0  0  0  0  0  2  0  0  0  0  0  0
  -18.9880  -28.8910   23.2510 C   0  0  0  0  0  0  0  0  0  0  0  0
  -18.8150  -30.1300   23.9050 C   0  0  0  0  0  3  0  0  0  0  0  0
  -17.5280  -30.6460   24.1410 C   0  0  0  0  0  3  0  0  0  0  0  0
  -16.3950  -29.9210   23.7330 C   0  0  0  0  0  3  0  0  0  0  0  0
  -16.5510  -28.6870   23.0780 C   0  0  0  0  0  3  0  0  0  0  0  0
  -25.7870  -32.4350   23.6940 C   0  0  0  0  0  3  0  0  0  0  0  0
  -26.3210  -31.6060   24.9250 C   0  0  1  0  0  0  0  0  0  0  0  0
  -25.2570  -31.3550   26.0200 C   0  0  0  0  0  1  0  0  0  0  0  0
  -26.8590  -30.2300   24.4620 C   0  0  0  0  0  1  0  0  0  0  0  0
  -27.5070  -32.3510   25.5790 C   0  0  0  0  0  1  0  0  0  0  0  0
  -25.5240  -33.8260   24.0780 N   0  0  0  0  0  0  0  0  0  0  0  0
  -25.8660  -34.8940   23.3470 C   0  0  0  0  0  0  0  0  0  0  0  0
  -26.5140  -34.8070   22.3000 O   0  0  0  0  0  0  0  0  0  0  0  0
  -24.9470  -33.9640   24.8940 H   0  0  0  0  0  0  0  0  0  0  0  0
  -24.1800  -36.7430   23.0790 C   0  0  0  0  0  1  0  0  0  0  0  0
  -25.4210  -36.2770   23.8570 C   0  0  0  0  0  3  0  0  0  0  0  0
  -27.5880  -37.0800   24.6900 C   0  0  0  0  0  1  0  0  0  0  0  0
  -26.4800  -37.3070   23.7680 N   0  0  0  0  0  0  0  0  0  0  0  0
  -26.0990  -38.2310   23.9550 H   0  0  0  0  0  0  0  0  0  0  0  0
  -27.2940  -21.5780   19.5270 C   0  0  0  0  0  2  0  0  0  0  0  0
  -28.3010  -20.5740   17.3690 C   0  0  0  0  0  1  0  0  0  0  0  0
  -25.8930  -20.2820   17.8920 C   0  0  0  0  0  1  0  0  0  0  0  0
  -27.3000  -20.3660   18.5350 C   0  0  2  0  0  0  0  0  0  0  0  0
  -27.5160  -19.0590   19.2240 N   0  0  0  0  0  4  0  0  0  0  0  0
  -26.8450  -18.9560   19.9760 H   0  0  0  0  0  0  0  0  0  0  0  0
  -27.2820  -18.3390   18.5580 H   0  0  0  0  0  0  0  0  0  0  0  0
  -28.8670  -18.7480   19.7540 C   0  0  0  0  0  2  0  0  0  0  0  0
  -28.9690  -17.2780   20.1950 C   0  0  0  0  0  2  0  0  0  0  0  0
  -30.3950  -16.8490   20.5860 C   0  0  0  0  0  2  0  0  0  0  0  0
  -31.1310  -14.4730   20.4730 C   0  0  0  0  0  0  0  0  0  0  0  0
  -30.8610  -12.2520   19.4520 C   0  0  0  0  0  2  0  0  0  0  0  0
  -29.9470  -12.3900   18.2170 C   0  0  0  0  0  2  0  0  0  0  0  0
  -28.4560  -12.3250   18.6100 C   0  0  0  0  0  2  0  0  0  0  0  0
  -28.1120  -13.2520   19.8030 C   0  0  0  0  0  3  0  0  0  0  0  0
  -29.1210  -13.0450   20.9540 C   0  0  0  0  0  2  0  0  0  0  0  0
  -30.4760  -13.2840   20.4190 N   0  0  0  0  0  0  0  0  0  0  0  0
  -32.2330  -14.6850   19.9550 O   0  0  0  0  0  0  0  0  0  0  0  0
  -30.3760  -15.4470   20.9870 N   0  0  0  0  0  0  0  0  0  0  0  0
  -29.5420  -15.1140   21.4420 H   0  0  0  0  0  0  0  0  0  0  0  0
  -25.7210  -13.9920   20.4250 C   0  0  0  0  0  0  0  0  0  0  0  0
  -24.6140  -13.2830   20.7950 C   0  0  0  0  0  0  0  0  0  0  0  0
  -25.0050  -11.9110   20.7820 C   0  0  0  0  0  0  0  0  0  0  0  0
  -26.7320  -13.0620   20.2450 N   0  0  0  0  0  0  0  0  0  0  0  0
  -26.2970  -11.8020   20.5050 N   0  0  0  0  0  0  0  0  0  0  0  0
  -24.2100  -10.6880   20.9490 C   0  0  0  0  0  0  0  0  0  0  0  0
  -24.5630   -9.7110   21.9070 C   0  0  0  0  0  3  0  0  0  0  0  0
  -23.7770   -8.5500   22.0680 C   0  0  0  0  0  3  0  0  0  0  0  0
  -22.6290   -8.3550   21.2650 C   0  0  0  0  0  0  0  0  0  0  0  0
  -22.2940   -9.3190   20.2990 C   0  0  0  0  0  3  0  0  0  0  0  0
  -23.0790  -10.4730   20.1360 C   0  0  0  0  0  3  0  0  0  0  0  0
  -21.8210   -7.2480   21.3360 O   0  0  0  0  0  0  0  0  0  0  0  0
  -21.6750   -6.5350   22.4980 C   0  0  0  0  0  0  0  0  0  0  0  0
  -21.1950   -7.1330   23.6850 C   0  0  0  0  0  3  0  0  0  0  0  0
  -20.9940   -6.3460   24.8360 C   0  0  0  0  0  3  0  0  0  0  0  0
  -21.2660   -4.9660   24.8040 C   0  0  0  0  0  0  0  0  0  0  0  0
  -21.7420   -4.3680   23.6220 C   0  0  0  0  0  3  0  0  0  0  0  0
  -21.9420   -5.1520   22.4710 C   0  0  0  0  0  0  0  0  0  0  0  0
  -22.3800   -4.5680   21.3300 F   0  0  0  0  0  0  0  0  0  0  0  0
  -21.0670   -4.2090   25.9080 F   0  0  0  0  0  0  0  0  0  0  0  0
  -23.2360  -13.8300   21.0400 C   0  0  0  0  0  0  0  0  0  0  0  0
  -22.4630  -13.1820   21.9030 N   0  0  0  0  0  0  0  0  0  0  0  0
  -22.8570  -14.8670   20.4970 O   0  0  0  0  0  0  0  0  0  0  0  0
  -22.7870  -12.3390   22.3560 H   0  0  0  0  0  0  0  0  0  0  0  0
  -21.5380  -13.5330   22.1130 H   0  0  0  0  0  0  0  0  0  0  0  0
  -25.9420  -15.3420   20.1760 N   0  0  0  0  0  0  0  0  0  0  0  0
  -25.0690  -15.8050   19.9430 H   0  0  0  0  0  0  0  0  0  0  0  0
  -26.6290  -15.4740   19.4450 H   0  0  0  0  0  0  0  0  0  0  0  0
  1  2  1  0
  2  3  1  0
  2  4  1  0
  5  9  1  0
  5  2  1  0
  5  8  1  0
  6  8  1  0
  8  7  1  0
 10 12  1  0
 10  9  1  0
 11 22  2  0
 12 17  1  0
 13 21  1  0
 13 23  1  0
 14 20  1  0
 14 16  1  0
 15 21  1  0
 16 15  1  0
 17 16  2  0
 18 19  1  0
 18 12  2  0
 19 14  2  0
 20 13  1  0
 21 11  1  0
 23 25  2  0
 24 23  1  0
 26 24  1  0
 27 36  2  0
 27 32  1  0
 28 24  1  0
 28 32  1  0
 29 28  1  0
 30 31  1  0
 30 29  1  0
 31 27  1  0
 32 33  2  0
 33 34  1  0
 35 34  2  0
 36 35  1  0
 37 11  1  0
 37 42  1  0
 37 38  1  0
 38 41  1  1
 38 39  1  0
 40 38  1  0
 42 45  1  0
 43 47  1  0
 43 42  1  0
 44 43  2  0
 47 46  1  0
 49 47  1  0
 49 50  1  0
 49 48  1  0
 51  1  1  0
 54 52  1  6
 53 54  1  0
 54 55  1  0
 54 51  1  0
 55 58  1  0
 55 56  1  0
 57 55  1  0
 58 59  1  0
 59 60  1  0
 60 69  1  0
 61 69  1  0
 62 67  1  0
 63 64  1  0
 63 62  1  0
 65 64  1  0
 65 74  1  0
 65 66  1  0
 67 61  1  0
 67 66  1  0
 68 61  2  0
 69 70  1  0
 71 72  2  0
 72 91  1  0
 73 72  1  0
 73 76  1  0
 74 71  1  0
 74 75  1  0
 75 73  2  0
 76 77  1  0
 77 78  2  0
 79 82  1  0
 79 78  1  0
 80 79  2  0
 81 80  1  0
 81 76  2  0
 82 83  1  0
 83 84  1  0
 84 85  2  0
 86 85  1  0
 86 90  1  0
 87 86  2  0
 88 83  2  0
 88 87  1  0
 89 88  1  0
 91 92  1  0
 92 95  1  0
 92 94  1  0
 93 91  2  0
 96 71  1  0
 97 96  1  0
 98 96  1  0
M  ISO  4   9 101  10 101  61 100  69 100
M  END
>  <TORSDO>  (41) 
F 26

>  <SCORE>  (41) 
-11.340

>  <name>  (41) 
41

>  <ligand_id>  (41) 
41

>  <original_smiles>  (41) 
[H]c1c([H])c([H])c2c(c1[H])C([H])([H])C([H])([H])C([H])([H])C2([H])N([H])C(=O)C1([H])N(C(=O)C([H])(N([H])C(=O)C([H])(N([H])C([H])([H])[H])C([H])([H])[H])C(C([H])([H])[H])(C([H])([H])[H])C([H])([H])[H])C([H])([H])c2c([H])c(OC([H])([H])C([H])(C([H])(C([H])([H])[H])C([H])([H])[H])[N+]([H])([H])C([H])([H])C([H])([H])C(C([H])([H])[H])(C([H])([H])[H])[N+]([H])([H])C([H])([H])C([H])([H])C([H])([H])N([H])C(=O)N3C([H])([H])C([H])([H])C([H])([H])C([H])(n4nc(-c5c([H])c([H])c(Oc6c([H])c([H])c(F)c([H])c6F)c([H])c5[H])c(C(=O)N([H])[H])c4N([H])[H])C3([H])[H])c([H])c([H])c2C1([H])[H]

>  <smiles>  (41) 
[H]c1c([H])c([H])c2c(c1[H])C([H])([H])C([H])([H])C([H])([H])C2([H])N([H])C(=O)C1([H])N(C(=O)C([H])(N([H])C(=O)C([H])(N([H])C([H])([H])[H])C([H])([H])[H])C(C([H])([H])[H])(C([H])([H])[H])C([H])([H])[H])C([H])([H])c2c([H])c(OC([H])([H])C([H])(C([H])(C([H])([H])[H])C([H])([H])[H])[N+]([H])([H])C([H])([H])C([H])([H])C(C([H])([H])[H])(C([H])([H])[H])[N+]([H])([H])C([H])([H])C([H])([H])C([H])([H])N([H])C(=O)N3C([H])([H])C([H])([H])C([H])([H])C([H])(n4nc(-c5c([H])c([H])c(Oc6c([H])c([H])c(F)c([H])c6F)c([H])c5[H])c(C(=O)N([H])[H])c4N([H])[H])C3([H])[H])c([H])c([H])c2C1([H])[H]

$$$$
42:0:0
     RDKit          3D

 99107  0  0  1  0  0  0  0  0999 V2000
  -30.5680  -21.5500   23.3910 C   0  0  0  0  0  0  0  0  0  0  0  0
  -30.4510  -24.2690   24.3960 C   0  0  0  0  0  2  0  0  0  0  0  0
  -30.6800  -21.8300   24.9090 C   0  0  0  0  0  3  0  0  0  0  0  0
  -30.5350  -24.0120   22.8750 C   0  0  0  0  0  3  0  0  0  0  0  0
  -30.4850  -22.5830   22.5400 N   0  0  0  0  0  0  0  0  0  0  0  0
  -31.1470  -23.2200   25.1710 N   0  0  0  0  0  4  0  0  0  0  0  0
  -30.5610  -20.3960   22.9610 O   0  0  0  0  0  0  0  0  0  0  0  0
  -30.4440  -22.3470   21.5570 H   0  0  0  0  0  0  0  0  0  0  0  0
  -31.0300  -23.4360   26.1480 H   0  0  0  0  0  0  0  0  0  0  0  0
  -32.1290  -23.2790   24.9620 H   0  0  0  0  0  0  0  0  0  0  0  0
  -31.5880  -20.7980   25.6490 C   0  0  0  0  0  2  0  0  0  0  0  0
  -31.0130  -19.3680   25.8550 C   0  0  0  0  0  2  0  0  0  0  0  0
  -32.0670  -18.2380   25.7250 C   0  0  0  0  0  2  0  0  0  0  0  0
  -32.3070  -17.6860   24.2940 C   0  0  0  0  0  2  0  0  0  0  0  0
  -31.2490  -16.7750   23.8410 N   0  0  0  0  0  4  0  0  0  0  0  0
  -31.1030  -16.0640   24.5410 H   0  0  0  0  0  0  0  0  0  0  0  0
  -30.3760  -17.2750   23.7820 H   0  0  0  0  0  0  0  0  0  0  0  0
  -31.5710  -16.1460   22.5490 C   0  0  0  0  0  2  0  0  0  0  0  0
  -30.4550  -15.1730   22.0540 C   0  0  0  0  0  2  0  0  0  0  0  0
  -30.7960  -14.3580   20.7790 C   0  0  0  0  0  0  0  0  0  0  0  0
  -30.4270  -12.3290   19.3950 C   0  0  0  0  0  2  0  0  0  0  0  0
  -29.4840  -12.5300   18.1950 C   0  0  0  0  0  2  0  0  0  0  0  0
  -28.0160  -12.3630   18.6210 C   0  0  0  0  0  2  0  0  0  0  0  0
  -27.6670  -13.2010   19.8780 C   0  0  0  0  0  3  0  0  0  0  0  0
  -28.7070  -12.9750   21.0000 C   0  0  0  0  0  2  0  0  0  0  0  0
  -30.0490  -13.2640   20.4670 N   0  0  0  0  0  0  0  0  0  0  0  0
  -31.7810  -14.6870   20.1100 O   0  0  0  0  0  0  0  0  0  0  0  0
  -25.2610  -13.8150   20.5680 C   0  0  0  0  0  0  0  0  0  0  0  0
  -24.1860  -13.0430   20.9160 C   0  0  0  0  0  0  0  0  0  0  0  0
  -24.6400  -11.6900   20.8740 C   0  0  0  0  0  0  0  0  0  0  0  0
  -26.3060  -12.9310   20.3370 N   0  0  0  0  0  0  0  0  0  0  0  0
  -25.9330  -11.6480   20.5760 N   0  0  0  0  0  0  0  0  0  0  0  0
  -23.9060  -10.4290   21.0400 C   0  0  0  0  0  0  0  0  0  0  0  0
  -24.3610   -9.4220   21.9190 C   0  0  0  0  0  3  0  0  0  0  0  0
  -23.6290   -8.2260   22.0760 C   0  0  0  0  0  3  0  0  0  0  0  0
  -22.4260   -8.0280   21.3550 C   0  0  0  0  0  0  0  0  0  0  0  0
  -21.9910   -9.0260   20.4650 C   0  0  0  0  0  3  0  0  0  0  0  0
  -22.7230  -10.2130   20.3060 C   0  0  0  0  0  3  0  0  0  0  0  0
  -21.6630   -6.8880   21.4230 O   0  0  0  0  0  0  0  0  0  0  0  0
  -21.6860   -6.0740   22.5280 C   0  0  0  0  0  0  0  0  0  0  0  0
  -21.4010   -6.5640   23.8210 C   0  0  0  0  0  3  0  0  0  0  0  0
  -21.3660   -5.6790   24.9180 C   0  0  0  0  0  3  0  0  0  0  0  0
  -21.6040   -4.3050   24.7230 C   0  0  0  0  0  0  0  0  0  0  0  0
  -21.8830   -3.8140   23.4350 C   0  0  0  0  0  3  0  0  0  0  0  0
  -21.9190   -4.6970   22.3390 C   0  0  0  0  0  0  0  0  0  0  0  0
  -22.1660   -4.2140   21.0980 F   0  0  0  0  0  0  0  0  0  0  0  0
  -21.5640   -3.4540   25.7740 F   0  0  0  0  0  0  0  0  0  0  0  0
  -22.7870  -13.5240   21.1820 C   0  0  0  0  0  0  0  0  0  0  0  0
  -22.0500  -12.8240   22.0360 N   0  0  0  0  0  0  0  0  0  0  0  0
  -22.3570  -14.5550   20.6670 O   0  0  0  0  0  0  0  0  0  0  0  0
  -22.4080  -11.9890   22.4760 H   0  0  0  0  0  0  0  0  0  0  0  0
  -21.1110  -13.1290   22.2540 H   0  0  0  0  0  0  0  0  0  0  0  0
  -25.4340  -15.1880   20.4090 N   0  0  0  0  0  0  0  0  0  0  0  0
  -24.6670  -15.8430   20.5190 H   0  0  0  0  0  0  0  0  0  0  0  0
  -26.2920  -15.6300   20.1050 H   0  0  0  0  0  0  0  0  0  0  0  0
  -29.4810  -24.8380   22.0910 C   0  0  0  0  0  2  0  0  0  0  0  0
  -29.4860  -24.5840   20.5700 C   0  0  0  0  0  2  0  0  0  0  0  0
  -28.3890  -25.3400   19.8050 C   0  0  0  0  0  2  0  0  0  0  0  0
  -28.4250  -26.7410   20.0960 O   0  0  0  0  0  0  0  0  0  0  0  0
  -24.6120  -31.8680   23.2120 C   0  0  0  0  0  0  0  0  0  0  0  0
  -27.2390  -27.4470   20.0740 C   0  0  0  0  0  0  0  0  0  0  0  0
  -23.3980  -30.4940   21.5510 C   0  0  0  0  0  3  0  0  0  0  0  0
  -24.8430  -28.9590   20.1140 C   0  0  0  0  0  0  0  0  0  0  0  0
  -25.9250  -30.8300   21.3670 C   0  0  0  0  0  2  0  0  0  0  0  0
  -26.0030  -29.4680   20.7130 C   0  0  0  0  0  0  0  0  0  0  0  0
  -27.1970  -28.7120   20.7000 C   0  0  0  0  0  3  0  0  0  0  0  0
  -26.0620  -26.9640   19.4510 C   0  0  0  0  0  3  0  0  0  0  0  0
  -24.8640  -27.7000   19.4900 C   0  0  0  0  0  3  0  0  0  0  0  0
  -23.6070  -29.8260   20.1650 C   0  0  0  0  0  2  0  0  0  0  0  0
  -24.6630  -31.0780   22.1030 N   0  0  0  0  0  0  0  0  0  0  0  0
  -23.5330  -32.1440   23.7520 O   0  0  0  0  0  0  0  0  0  0  0  0
  -22.7370  -29.4660   22.4950 C   0  0  0  0  0  0  0  0  0  0  0  0
  -21.4100  -29.3040   22.3680 N   0  0  0  0  0  0  0  0  0  0  0  0
  -23.4150  -28.8170   23.2970 O   0  0  0  0  0  0  0  0  0  0  0  0
  -20.9220  -29.8790   21.6920 H   0  0  0  0  0  0  0  0  0  0  0  0
  -18.0260  -28.1350   22.8480 C   0  0  0  0  0  0  0  0  0  0  0  0
  -20.5850  -28.3680   23.1280 C   0  0  0  0  0  3  0  0  0  0  0  0
  -20.6750  -26.9410   22.5410 C   0  0  0  0  0  2  0  0  0  0  0  0
  -19.5770  -26.6380   21.5180 C   0  0  0  0  0  2  0  0  0  0  0  0
  -18.1940  -26.7910   22.1570 C   0  0  0  0  0  2  0  0  0  0  0  0
  -19.1510  -28.8810   23.2890 C   0  0  0  0  0  0  0  0  0  0  0  0
  -18.9470  -30.1410   23.8940 C   0  0  0  0  0  3  0  0  0  0  0  0
  -17.6480  -30.6600   24.0530 C   0  0  0  0  0  3  0  0  0  0  0  0
  -16.5360  -29.9090   23.6320 C   0  0  0  0  0  3  0  0  0  0  0  0
  -16.7250  -28.6480   23.0380 C   0  0  0  0  0  3  0  0  0  0  0  0
  -25.9030  -32.4820   23.8370 C   0  0  0  0  0  3  0  0  0  0  0  0
  -26.4480  -31.6600   25.0690 C   0  0  1  0  0  0  0  0  0  0  0  0
  -25.3760  -31.3680   26.1440 C   0  0  0  0  0  1  0  0  0  0  0  0
  -27.0320  -30.3050   24.6020 C   0  0  0  0  0  1  0  0  0  0  0  0
  -27.6020  -32.4350   25.7500 C   0  0  0  0  0  1  0  0  0  0  0  0
  -25.5910  -33.8620   24.2300 N   0  0  0  0  0  0  0  0  0  0  0  0
  -25.9040  -34.9480   23.5130 C   0  0  0  0  0  0  0  0  0  0  0  0
  -26.5590  -34.8940   22.4680 O   0  0  0  0  0  0  0  0  0  0  0  0
  -25.0150  -33.9780   25.0500 H   0  0  0  0  0  0  0  0  0  0  0  0
  -24.1490  -36.7310   23.2630 C   0  0  0  0  0  1  0  0  0  0  0  0
  -25.4100  -36.3110   24.0320 C   0  0  0  0  0  3  0  0  0  0  0  0
  -27.5570  -37.1820   24.8450 C   0  0  0  0  0  1  0  0  0  0  0  0
  -26.4300  -37.3800   23.9390 N   0  0  0  0  0  0  0  0  0  0  0  0
  -26.0190  -38.2890   24.1430 H   0  0  0  0  0  0  0  0  0  0  0  0
  1  3  1  0
  2  6  1  0
  3  6  1  0
  3 11  1  0
  4 56  1  0
  4  2  1  0
  5  4  1  0
  5  1  1  0
  6  9  1  0
  7  1  2  0
  8  5  1  0
 10  6  1  0
 11 12  1  0
 13 12  1  0
 14 13  1  0
 15 14  1  0
 15 16  1  0
 17 15  1  0
 18 15  1  0
 19 18  1  0
 20 19  1  0
 21 26  1  0
 22 23  1  0
 22 21  1  0
 24 23  1  0
 24 31  1  0
 24 25  1  0
 26 20  1  0
 26 25  1  0
 27 20  2  0
 28 29  2  0
 29 48  1  0
 30 29  1  0
 30 33  1  0
 31 28  1  0
 31 32  1  0
 32 30  2  0
 33 34  1  0
 34 35  2  0
 36 39  1  0
 36 35  1  0
 37 36  2  0
 38 37  1  0
 38 33  2  0
 39 40  1  0
 40 41  1  0
 41 42  2  0
 43 42  1  0
 43 47  1  0
 44 43  2  0
 45 40  2  0
 45 44  1  0
 46 45  1  0
 48 49  1  0
 49 52  1  0
 49 51  1  0
 50 48  2  0
 53 54  1  0
 53 28  1  0
 55 53  1  0
 57 56  1  0
 58 59  1  0
 58 57  1  0
 60 71  2  0
 61 59  1  0
 61 66  1  0
 62 70  1  0
 62 72  1  0
 63 69  1  0
 63 65  1  0
 64 70  1  0
 65 64  1  0
 66 65  2  0
 67 68  1  0
 67 61  2  0
 68 63  2  0
 69 62  1  0
 70 60  1  0
 72 74  2  0
 73 72  1  0
 75 73  1  0
 76 85  2  0
 76 81  1  0
 77 73  1  0
 77 81  1  0
 78 77  1  0
 79 80  1  0
 79 78  1  0
 80 76  1  0
 81 82  2  0
 82 83  1  0
 84 83  2  0
 85 84  1  0
 86 60  1  0
 86 91  1  0
 86 87  1  0
 87 90  1  1
 87 88  1  0
 89 87  1  0
 91 94  1  0
 92 96  1  0
 92 91  1  0
 93 92  2  0
 96 95  1  0
 98 96  1  0
 98 99  1  0
 98 97  1  0
M  ISO  4  19 100  20 100  58 101  59 101
M  END
>  <TORSDO>  (42) 
F 26

>  <SCORE>  (42) 
9.181

>  <name>  (42) 
42

>  <ligand_id>  (42) 
42

>  <original_smiles>  (42) 
[H]c1c([H])c([H])c2c(c1[H])C([H])([H])C([H])([H])C([H])([H])C2([H])N([H])C(=O)C1([H])N(C(=O)C([H])(N([H])C(=O)C([H])(N([H])C([H])([H])[H])C([H])([H])[H])C(C([H])([H])[H])(C([H])([H])[H])C([H])([H])[H])C([H])([H])c2c([H])c(OC([H])([H])C([H])([H])C([H])([H])C3([H])N([H])C(=O)C([H])(C([H])([H])C([H])([H])C([H])([H])C([H])([H])[N+]([H])([H])C([H])([H])C([H])([H])C(=O)N4C([H])([H])C([H])([H])C([H])([H])C([H])(n5nc(-c6c([H])c([H])c(Oc7c([H])c([H])c(F)c([H])c7F)c([H])c6[H])c(C(=O)N([H])[H])c5N([H])[H])C4([H])[H])[N+]([H])([H])C3([H])[H])c([H])c([H])c2C1([H])[H]

>  <smiles>  (42) 
[H]c1c([H])c([H])c2c(c1[H])C([H])([H])C([H])([H])C([H])([H])C2([H])N([H])C(=O)C1([H])N(C(=O)C([H])(N([H])C(=O)C([H])(N([H])C([H])([H])[H])C([H])([H])[H])C(C([H])([H])[H])(C([H])([H])[H])C([H])([H])[H])C([H])([H])c2c([H])c(OC([H])([H])C([H])([H])C([H])([H])C3([H])N([H])C(=O)C([H])(C([H])([H])C([H])([H])C([H])([H])C([H])([H])[N+]([H])([H])C([H])([H])C([H])([H])C(=O)N4C([H])([H])C([H])([H])C([H])([H])C([H])(n5nc(-c6c([H])c([H])c(Oc7c([H])c([H])c(F)c([H])c7F)c([H])c6[H])c(C(=O)N([H])[H])c5N([H])[H])C4([H])[H])[N+]([H])([H])C3([H])[H])c([H])c([H])c2C1([H])[H]

$$$$
43:0:0
     RDKit          3D

101109  0  0  1  0  0  0  0  0999 V2000
  -30.8120  -24.4440   15.0420 N   0  0  0  0  0  4  0  0  0  0  0  0
  -31.4110  -24.8210   14.3250 H   0  0  0  0  0  0  0  0  0  0  0  0
  -29.9040  -24.8560   14.9060 H   0  0  0  0  0  0  0  0  0  0  0  0
  -31.3940  -24.9130   16.3110 C   0  0  0  0  0  2  0  0  0  0  0  0
  -29.7880  -28.3430   16.7650 C   0  0  0  0  0  3  0  0  0  0  0  0
  -30.5060  -27.2700   16.2180 C   0  0  0  0  0  3  0  0  0  0  0  0
  -29.1390  -28.1960   18.0040 C   0  0  0  0  0  3  0  0  0  0  0  0
  -29.8770  -25.8770   18.1300 C   0  0  0  0  0  3  0  0  0  0  0  0
  -30.5680  -26.0370   16.9030 C   0  0  0  0  0  0  0  0  0  0  0  0
  -29.1590  -26.9510   18.6910 C   0  0  0  0  0  0  0  0  0  0  0  0
  -28.5110  -26.7560   19.8960 O   0  0  0  0  0  0  0  0  0  0  0  0
  -24.6970  -31.7690   23.2530 C   0  0  0  0  0  0  0  0  0  0  0  0
  -27.3200  -27.4120   20.0680 C   0  0  0  0  0  0  0  0  0  0  0  0
  -23.4610  -30.4040   21.5910 C   0  0  0  0  0  3  0  0  0  0  0  0
  -24.9020  -28.8590   20.1560 C   0  0  0  0  0  0  0  0  0  0  0  0
  -25.9890  -30.7480   21.3970 C   0  0  0  0  0  2  0  0  0  0  0  0
  -26.0620  -29.3890   20.7400 C   0  0  0  0  0  0  0  0  0  0  0  0
  -27.2700  -28.6670   20.7090 C   0  0  0  0  0  3  0  0  0  0  0  0
  -26.1440  -26.8660   19.5100 C   0  0  0  0  0  3  0  0  0  0  0  0
  -24.9290  -27.5840   19.5570 C   0  0  0  0  0  3  0  0  0  0  0  0
  -23.6610  -29.7260   20.2070 C   0  0  0  0  0  2  0  0  0  0  0  0
  -24.7300  -30.9940   22.1340 N   0  0  0  0  0  0  0  0  0  0  0  0
  -23.6260  -32.0430   23.8130 O   0  0  0  0  0  0  0  0  0  0  0  0
  -22.8120  -29.3800   22.5480 C   0  0  0  0  0  0  0  0  0  0  0  0
  -21.4860  -29.2060   22.4310 N   0  0  0  0  0  0  0  0  0  0  0  0
  -23.5030  -28.7390   23.3440 O   0  0  0  0  0  0  0  0  0  0  0  0
  -20.9910  -29.7670   21.7530 H   0  0  0  0  0  0  0  0  0  0  0  0
  -18.1100  -28.0350   22.9420 C   0  0  0  0  0  0  0  0  0  0  0  0
  -20.6720  -28.2650   23.1970 C   0  0  0  0  0  3  0  0  0  0  0  0
  -20.7600  -26.8400   22.6050 C   0  0  0  0  0  2  0  0  0  0  0  0
  -19.6470  -26.5380   21.5970 C   0  0  0  0  0  2  0  0  0  0  0  0
  -18.2690  -26.6930   22.2480 C   0  0  0  0  0  2  0  0  0  0  0  0
  -19.2400  -28.7780   23.3730 C   0  0  0  0  0  0  0  0  0  0  0  0
  -19.0400  -30.0380   23.9810 C   0  0  0  0  0  3  0  0  0  0  0  0
  -17.7430  -30.5560   24.1550 C   0  0  0  0  0  3  0  0  0  0  0  0
  -16.6270  -29.8100   23.7410 C   0  0  0  0  0  3  0  0  0  0  0  0
  -16.8110  -28.5490   23.1440 C   0  0  0  0  0  3  0  0  0  0  0  0
  -25.9970  -32.3780   23.8650 C   0  0  0  0  0  3  0  0  0  0  0  0
  -25.6980  -33.7750   24.2110 N   0  0  0  0  0  0  0  0  0  0  0  0
  -26.0350  -34.8340   23.4600 C   0  0  0  0  0  0  0  0  0  0  0  0
  -26.7000  -34.7390   22.4250 O   0  0  0  0  0  0  0  0  0  0  0  0
  -25.1040  -33.9260   25.0100 H   0  0  0  0  0  0  0  0  0  0  0  0
  -24.3170  -36.6460   23.1400 C   0  0  0  0  0  1  0  0  0  0  0  0
  -25.5570  -36.2180   23.9390 C   0  0  0  0  0  3  0  0  0  0  0  0
  -27.6960  -37.0830   24.7730 C   0  0  0  0  0  1  0  0  0  0  0  0
  -26.5930  -37.2650   23.8360 N   0  0  0  0  0  0  0  0  0  0  0  0
  -26.1900  -38.1830   24.0010 H   0  0  0  0  0  0  0  0  0  0  0  0
  -26.5260  -31.5890   25.1270 C   0  0  1  0  0  0  0  0  0  0  0  0
  -25.4440  -31.3510   26.2040 C   0  0  0  0  0  1  0  0  0  0  0  0
  -27.0990  -30.2090   24.7220 C   0  0  0  0  0  1  0  0  0  0  0  0
  -27.6800  -32.3750   25.7920 C   0  0  0  0  0  1  0  0  0  0  0  0
  -30.7520  -22.9780   14.8500 C   0  0  0  0  0  2  0  0  0  0  0  0
  -29.3750  -22.3620   15.2010 C   0  0  0  0  0  2  0  0  0  0  0  0
  -29.1000  -22.2430   16.7160 C   0  0  0  0  0  2  0  0  0  0  0  0
  -28.5110  -20.8820   17.1240 C   0  0  0  0  0  2  0  0  0  0  0  0
  -28.5650  -20.6530   18.6470 C   0  0  0  0  0  2  0  0  0  0  0  0
  -28.5650  -19.1600   19.0310 C   0  0  0  0  0  2  0  0  0  0  0  0
  -29.0810  -18.9380   20.4000 N   0  0  0  0  0  4  0  0  0  0  0  0
  -28.4040  -19.2850   21.0630 H   0  0  0  0  0  0  0  0  0  0  0  0
  -29.9290  -19.4630   20.5390 H   0  0  0  0  0  0  0  0  0  0  0  0
  -29.3620  -17.5270   20.7400 C   0  0  0  0  0  2  0  0  0  0  0  0
  -30.8640  -17.2580   20.9570 C   0  0  0  0  0  2  0  0  0  0  0  0
  -31.1330  -16.0000   21.8160 C   0  0  0  0  0  2  0  0  0  0  0  0
  -30.8980  -14.0500   20.2640 C   0  0  0  0  0  0  0  0  0  0  0  0
  -30.4060  -12.0580   18.8950 C   0  0  0  0  0  2  0  0  0  0  0  0
  -29.4230  -12.3910   17.7570 C   0  0  0  0  0  2  0  0  0  0  0  0
  -27.9630  -12.2930   18.2390 C   0  0  0  0  0  2  0  0  0  0  0  0
  -27.7210  -13.0660   19.5620 C   0  0  0  0  0  3  0  0  0  0  0  0
  -28.7990  -12.6980   20.6060 C   0  0  0  0  0  2  0  0  0  0  0  0
  -30.1290  -12.9600   20.0190 N   0  0  0  0  0  0  0  0  0  0  0  0
  -31.9080  -14.3380   19.6100 O   0  0  0  0  0  0  0  0  0  0  0  0
  -30.4900  -14.7950   21.2970 N   0  0  0  0  0  0  0  0  0  0  0  0
  -29.6690  -14.4610   21.7860 H   0  0  0  0  0  0  0  0  0  0  0  0
  -25.3580  -13.7510   20.3300 C   0  0  0  0  0  0  0  0  0  0  0  0
  -24.2810  -13.0120   20.7440 C   0  0  0  0  0  0  0  0  0  0  0  0
  -24.7030  -11.6480   20.7110 C   0  0  0  0  0  0  0  0  0  0  0  0
  -26.3720  -12.8370   20.0800 N   0  0  0  0  0  0  0  0  0  0  0  0
  -25.9810  -11.5680   20.3610 N   0  0  0  0  0  0  0  0  0  0  0  0
  -23.9480  -10.4080   20.9370 C   0  0  0  0  0  0  0  0  0  0  0  0
  -24.3770   -9.4430   21.8740 C   0  0  0  0  0  3  0  0  0  0  0  0
  -23.6240   -8.2680   22.0860 C   0  0  0  0  0  3  0  0  0  0  0  0
  -22.4280   -8.0520   21.3620 C   0  0  0  0  0  0  0  0  0  0  0  0
  -22.0170   -9.0060   20.4150 C   0  0  0  0  0  3  0  0  0  0  0  0
  -22.7700  -10.1730   20.2010 C   0  0  0  0  0  3  0  0  0  0  0  0
  -21.6450   -6.9290   21.4830 O   0  0  0  0  0  0  0  0  0  0  0  0
  -21.6020   -6.2030   22.6450 C   0  0  0  0  0  0  0  0  0  0  0  0
  -21.2210   -6.7840   23.8750 C   0  0  0  0  0  3  0  0  0  0  0  0
  -21.1250   -5.9860   25.0310 C   0  0  0  0  0  3  0  0  0  0  0  0
  -21.3990   -4.6070   24.9600 C   0  0  0  0  0  0  0  0  0  0  0  0
  -21.7740   -4.0250   23.7360 C   0  0  0  0  0  3  0  0  0  0  0  0
  -21.8720   -4.8210   22.5820 C   0  0  0  0  0  0  0  0  0  0  0  0
  -22.2130   -4.2510   21.4010 F   0  0  0  0  0  0  0  0  0  0  0  0
  -21.2990   -3.8380   26.0700 F   0  0  0  0  0  0  0  0  0  0  0  0
  -22.9080  -13.5330   21.0570 C   0  0  0  0  0  0  0  0  0  0  0  0
  -22.1880  -12.8640   21.9520 N   0  0  0  0  0  0  0  0  0  0  0  0
  -22.4820  -14.5640   20.5400 O   0  0  0  0  0  0  0  0  0  0  0  0
  -22.5430  -12.0290   22.3920 H   0  0  0  0  0  0  0  0  0  0  0  0
  -21.2650  -13.1920   22.2000 H   0  0  0  0  0  0  0  0  0  0  0  0
  -25.5540  -15.1140   20.1340 N   0  0  0  0  0  0  0  0  0  0  0  0
  -24.8010  -15.7850   20.2390 H   0  0  0  0  0  0  0  0  0  0  0  0
  -26.3990  -15.5220   19.7550 H   0  0  0  0  0  0  0  0  0  0  0  0
  1  4  1  0
  2  1  1  0
  3  1  1  0
  4  9  1  0
  5  7  1  0
  6  5  2  0
  6  9  1  0
  7 10  2  0
  8 10  1  0
  9  8  2  0
 10 11  1  0
 11 13  1  0
 12 23  2  0
 13 18  1  0
 14 22  1  0
 14 24  1  0
 15 21  1  0
 15 17  1  0
 16 22  1  0
 17 16  1  0
 18 17  2  0
 19 20  1  0
 19 13  2  0
 20 15  2  0
 21 14  1  0
 22 12  1  0
 24 26  2  0
 25 24  1  0
 27 25  1  0
 28 37  2  0
 28 33  1  0
 29 25  1  0
 29 33  1  0
 30 29  1  0
 31 32  1  0
 31 30  1  0
 32 28  1  0
 33 34  2  0
 34 35  1  0
 36 35  2  0
 37 36  1  0
 38 12  1  0
 38 39  1  0
 38 48  1  0
 39 42  1  0
 40 44  1  0
 40 39  1  0
 41 40  2  0
 44 43  1  0
 46 44  1  0
 46 47  1  0
 46 45  1  0
 48 51  1  1
 48 49  1  0
 50 48  1  0
 52  1  1  0
 52 53  1  0
 53 54  1  0
 54 55  1  0
 55 56  1  0
 56 57  1  0
 57 58  1  0
 58 60  1  0
 58 61  1  0
 58 59  1  0
 61 62  1  0
 62 63  1  0
 64 72  1  0
 65 70  1  0
 66 67  1  0
 66 65  1  0
 68 67  1  0
 68 77  1  0
 68 69  1  0
 70 64  1  0
 70 69  1  0
 71 64  2  0
 72 73  1  0
 72 63  1  0
 74 75  2  0
 75 94  1  0
 76 75  1  0
 76 79  1  0
 77 74  1  0
 77 78  1  0
 78 76  2  0
 79 80  1  0
 80 81  2  0
 82 85  1  0
 82 81  1  0
 83 82  2  0
 84 83  1  0
 84 79  2  0
 85 86  1  0
 86 87  1  0
 87 88  2  0
 89 88  1  0
 89 93  1  0
 90 89  2  0
 91 86  2  0
 91 90  1  0
 92 91  1  0
 94 95  1  0
 95 98  1  0
 95 97  1  0
 96 94  2  0
 99100  1  0
 99 74  1  0
101 99  1  0
M  ISO  4  10 101  11 101  64 100  72 100
M  END
>  <TORSDO>  (43) 
F 28

>  <SCORE>  (43) 
-10.393

>  <name>  (43) 
43

>  <ligand_id>  (43) 
43

>  <original_smiles>  (43) 
[H]c1c([H])c([H])c2c(c1[H])C([H])([H])C([H])([H])C([H])([H])C2([H])N([H])C(=O)C1([H])N(C(=O)C([H])(N([H])C(=O)C([H])(N([H])C([H])([H])[H])C([H])([H])[H])C(C([H])([H])[H])(C([H])([H])[H])C([H])([H])[H])C([H])([H])c2c([H])c(Oc3c([H])c([H])c([H])c(C([H])([H])[N+]([H])([H])C([H])([H])C([H])([H])C([H])([H])C([H])([H])C([H])([H])C([H])([H])[N+]([H])([H])C([H])([H])C([H])([H])C([H])([H])N([H])C(=O)N4C([H])([H])C([H])([H])C([H])([H])C([H])(n5nc(-c6c([H])c([H])c(Oc7c([H])c([H])c(F)c([H])c7F)c([H])c6[H])c(C(=O)N([H])[H])c5N([H])[H])C4([H])[H])c3[H])c([H])c([H])c2C1([H])[H]

>  <smiles>  (43) 
[H]c1c([H])c([H])c2c(c1[H])C([H])([H])C([H])([H])C([H])([H])C2([H])N([H])C(=O)C1([H])N(C(=O)C([H])(N([H])C(=O)C([H])(N([H])C([H])([H])[H])C([H])([H])[H])C(C([H])([H])[H])(C([H])([H])[H])C([H])([H])[H])C([H])([H])c2c([H])c(Oc3c([H])c([H])c([H])c(C([H])([H])[N+]([H])([H])C([H])([H])C([H])([H])C([H])([H])C([H])([H])C([H])([H])C([H])([H])[N+]([H])([H])C([H])([H])C([H])([H])C([H])([H])N([H])C(=O)N4C([H])([H])C([H])([H])C([H])([H])C([H])(n5nc(-c6c([H])c([H])c(Oc7c([H])c([H])c(F)c([H])c7F)c([H])c6[H])c(C(=O)N([H])[H])c5N([H])[H])C4([H])[H])c3[H])c([H])c([H])c2C1([H])[H]

$$$$
44:0:0
     RDKit          3D

 96105  0  0  1  0  0  0  0  0999 V2000
  -29.9510  -19.8100   18.1620 C   0  0  0  0  0  3  0  0  0  0  0  0
  -29.4910  -18.9940   19.2330 C   0  0  0  0  0  0  0  0  0  0  0  0
  -28.4860  -19.5540   19.9320 C   0  0  0  0  0  0  0  0  0  0  0  0
  -29.2550  -20.9990   18.0810 C   0  0  0  0  0  0  0  0  0  0  0  0
  -27.9980  -18.7460   21.0650 C   0  0  0  0  0  2  0  0  0  0  0  0
  -29.0520  -17.6090   21.1210 C   0  0  0  0  0  2  0  0  0  0  0  0
  -29.8560  -17.6540   19.7830 C   0  0  0  0  0  3  0  0  0  0  0  0
  -28.0260  -21.1170   19.3360 S   0  0  0  0  0  0  0  0  0  0  0  0
  -29.4480  -22.0700   17.0510 C   0  0  0  0  0  2  0  0  0  0  0  0
  -30.2940  -23.2820   17.4940 C   0  0  0  0  0  2  0  0  0  0  0  0
  -29.5340  -24.2770   18.2860 N   0  0  0  0  0  4  0  0  0  0  0  0
  -29.2010  -23.8530   19.1380 H   0  0  0  0  0  0  0  0  0  0  0  0
  -28.7290  -24.5430   17.7410 H   0  0  0  0  0  0  0  0  0  0  0  0
  -30.3070  -25.5010   18.6190 C   0  0  0  0  0  2  0  0  0  0  0  0
  -29.4080  -26.7270   18.8580 C   0  0  0  0  0  2  0  0  0  0  0  0
  -28.7540  -26.6580   20.1260 O   0  0  0  0  0  0  0  0  0  0  0  0
  -24.9750  -31.6260   23.5800 C   0  0  0  0  0  0  0  0  0  0  0  0
  -27.6090  -27.4120   20.1960 C   0  0  0  0  0  0  0  0  0  0  0  0
  -23.7960  -30.4280   21.7640 C   0  0  0  0  0  3  0  0  0  0  0  0
  -25.2580  -28.9700   20.2700 C   0  0  0  0  0  0  0  0  0  0  0  0
  -26.3350  -30.7080   21.7070 C   0  0  0  0  0  2  0  0  0  0  0  0
  -26.4040  -29.3970   20.9530 C   0  0  0  0  0  0  0  0  0  0  0  0
  -27.5820  -28.6180   20.9280 C   0  0  0  0  0  3  0  0  0  0  0  0
  -26.4430  -26.9800   19.5290 C   0  0  0  0  0  3  0  0  0  0  0  0
  -25.2690  -27.7570   19.5610 C   0  0  0  0  0  3  0  0  0  0  0  0
  -24.0430  -29.8670   20.3390 C   0  0  0  0  0  2  0  0  0  0  0  0
  -25.0520  -30.9290   22.4120 N   0  0  0  0  0  0  0  0  0  0  0  0
  -23.8810  -31.8910   24.0960 O   0  0  0  0  0  0  0  0  0  0  0  0
  -23.0690  -29.3490   22.5980 C   0  0  0  0  0  0  0  0  0  0  0  0
  -21.7500  -29.2140   22.3800 N   0  0  0  0  0  0  0  0  0  0  0  0
  -23.6890  -28.6390   23.3930 O   0  0  0  0  0  0  0  0  0  0  0  0
  -21.3140  -29.8430   21.7200 H   0  0  0  0  0  0  0  0  0  0  0  0
  -18.3300  -28.0660   22.5650 C   0  0  0  0  0  0  0  0  0  0  0  0
  -20.8680  -28.2390   23.0190 C   0  0  0  0  0  3  0  0  0  0  0  0
  -20.9810  -26.8550   22.3410 C   0  0  0  0  0  2  0  0  0  0  0  0
  -19.9420  -26.6370   21.2360 C   0  0  0  0  0  2  0  0  0  0  0  0
  -18.5230  -26.7680   21.8000 C   0  0  0  0  0  2  0  0  0  0  0  0
  -19.4320  -28.7660   23.1260 C   0  0  0  0  0  0  0  0  0  0  0  0
  -19.2010  -29.9860   23.7960 C   0  0  0  0  0  3  0  0  0  0  0  0
  -17.8990  -30.5060   23.9160 C   0  0  0  0  0  3  0  0  0  0  0  0
  -16.8090  -29.8030   23.3740 C   0  0  0  0  0  3  0  0  0  0  0  0
  -17.0250  -28.5840   22.7040 C   0  0  0  0  0  3  0  0  0  0  0  0
  -26.2550  -32.1470   24.3080 C   0  0  0  0  0  3  0  0  0  0  0  0
  -25.9870  -33.5240   24.7430 N   0  0  0  0  0  0  0  0  0  0  0  0
  -26.3990  -34.6210   24.0940 C   0  0  0  0  0  0  0  0  0  0  0  0
  -27.1170  -34.5760   23.0900 O   0  0  0  0  0  0  0  0  0  0  0  0
  -25.3650  -33.6370   25.5300 H   0  0  0  0  0  0  0  0  0  0  0  0
  -24.7600  -36.5050   23.8160 C   0  0  0  0  0  1  0  0  0  0  0  0
  -25.9440  -35.9840   24.6460 C   0  0  0  0  0  3  0  0  0  0  0  0
  -28.0640  -36.7070   25.6510 C   0  0  0  0  0  1  0  0  0  0  0  0
  -27.0200  -36.9980   24.6710 N   0  0  0  0  0  0  0  0  0  0  0  0
  -26.6420  -37.9180   24.8760 H   0  0  0  0  0  0  0  0  0  0  0  0
  -26.6850  -31.2480   25.5310 C   0  0  1  0  0  0  0  0  0  0  0  0
  -25.5330  -30.9470   26.5160 C   0  0  0  0  0  1  0  0  0  0  0  0
  -27.2550  -29.8960   25.0380 C   0  0  0  0  0  1  0  0  0  0  0  0
  -27.8180  -31.9440   26.3220 C   0  0  0  0  0  1  0  0  0  0  0  0
  -31.3800  -17.4580   19.9330 C   0  0  0  0  0  2  0  0  0  0  0  0
  -31.8150  -16.3090   20.8690 C   0  0  0  0  0  2  0  0  0  0  0  0
  -31.5280  -14.0760   19.7730 C   0  0  0  0  0  0  0  0  0  0  0  0
  -31.0210  -11.8400   18.8550 C   0  0  0  0  0  2  0  0  0  0  0  0
  -30.0230  -11.9310   17.6840 C   0  0  0  0  0  2  0  0  0  0  0  0
  -28.5720  -11.9270   18.2000 C   0  0  0  0  0  2  0  0  0  0  0  0
  -28.3440  -12.9520   19.3430 C   0  0  0  0  0  3  0  0  0  0  0  0
  -29.4380  -12.8160   20.4240 C   0  0  0  0  0  2  0  0  0  0  0  0
  -30.7550  -12.9570   19.7720 N   0  0  0  0  0  0  0  0  0  0  0  0
  -32.5370  -14.2030   19.0740 O   0  0  0  0  0  0  0  0  0  0  0  0
  -31.1280  -15.0420   20.6090 N   0  0  0  0  0  0  0  0  0  0  0  0
  -30.3020  -14.8470   21.1560 H   0  0  0  0  0  0  0  0  0  0  0  0
  -26.0750  -13.8100   20.2070 C   0  0  0  0  0  0  0  0  0  0  0  0
  -24.9600  -13.1550   20.6590 C   0  0  0  0  0  0  0  0  0  0  0  0
  -25.2750  -11.7630   20.6100 C   0  0  0  0  0  0  0  0  0  0  0  0
  -27.0050  -12.8240   19.9150 N   0  0  0  0  0  0  0  0  0  0  0  0
  -26.5290  -11.5870   20.2110 N   0  0  0  0  0  0  0  0  0  0  0  0
  -24.4370  -10.5830   20.8640 C   0  0  0  0  0  0  0  0  0  0  0  0
  -24.7700   -9.6420   21.8630 C   0  0  0  0  0  3  0  0  0  0  0  0
  -23.9380   -8.5250   22.1000 C   0  0  0  0  0  3  0  0  0  0  0  0
  -22.7580   -8.3450   21.3400 C   0  0  0  0  0  0  0  0  0  0  0  0
  -22.4440   -9.2720   20.3310 C   0  0  0  0  0  3  0  0  0  0  0  0
  -23.2760  -10.3790   20.0920 C   0  0  0  0  0  3  0  0  0  0  0  0
  -21.9050   -7.2780   21.4830 O   0  0  0  0  0  0  0  0  0  0  0  0
  -21.7030   -6.6750   22.6990 C   0  0  0  0  0  0  0  0  0  0  0  0
  -21.1970   -7.3880   23.8080 C   0  0  0  0  0  3  0  0  0  0  0  0
  -20.9400   -6.7140   25.0180 C   0  0  0  0  0  3  0  0  0  0  0  0
  -21.1760   -5.3310   25.1190 C   0  0  0  0  0  0  0  0  0  0  0  0
  -21.6740   -4.6180   24.0140 C   0  0  0  0  0  3  0  0  0  0  0  0
  -21.9330   -5.2890   22.8060 C   0  0  0  0  0  0  0  0  0  0  0  0
  -22.3930   -4.5940   21.7380 F   0  0  0  0  0  0  0  0  0  0  0  0
  -20.9210   -4.6820   26.2790 F   0  0  0  0  0  0  0  0  0  0  0  0
  -23.6430  -13.7760   21.0250 C   0  0  0  0  0  0  0  0  0  0  0  0
  -22.9170  -13.1670   21.9560 N   0  0  0  0  0  0  0  0  0  0  0  0
  -23.2720  -14.8360   20.5220 O   0  0  0  0  0  0  0  0  0  0  0  0
  -23.2290  -12.3080   22.3850 H   0  0  0  0  0  0  0  0  0  0  0  0
  -22.0340  -13.5650   22.2450 H   0  0  0  0  0  0  0  0  0  0  0  0
  -26.3680  -15.1550   20.0050 N   0  0  0  0  0  0  0  0  0  0  0  0
  -25.6840  -15.8870   20.1550 H   0  0  0  0  0  0  0  0  0  0  0  0
  -27.2360  -15.4990   19.6140 H   0  0  0  0  0  0  0  0  0  0  0  0
  1  2  1  0
  2  7  1  0
  2  3  2  0
  3  5  1  0
  4  1  2  0
  4  8  1  0
  5  6  1  0
  7 57  1  0
  7  6  1  0
  8  3  1  0
  9 10  1  0
  9  4  1  0
 10 11  1  0
 11 14  1  0
 11 12  1  0
 13 11  1  0
 14 15  1  0
 15 16  1  0
 16 18  1  0
 17 28  2  0
 18 23  1  0
 19 27  1  0
 19 29  1  0
 20 26  1  0
 20 22  1  0
 21 27  1  0
 22 21  1  0
 23 22  2  0
 24 25  1  0
 24 18  2  0
 25 20  2  0
 26 19  1  0
 27 17  1  0
 29 31  2  0
 30 29  1  0
 32 30  1  0
 33 42  2  0
 33 38  1  0
 34 30  1  0
 34 38  1  0
 35 34  1  0
 36 37  1  0
 36 35  1  0
 37 33  1  0
 38 39  2  0
 39 40  1  0
 41 40  2  0
 42 41  1  0
 43 17  1  0
 43 44  1  0
 43 53  1  0
 44 47  1  0
 45 49  1  0
 45 44  1  0
 46 45  2  0
 49 48  1  0
 49 51  1  0
 51 52  1  0
 51 50  1  0
 53 56  1  1
 53 54  1  0
 55 53  1  0
 57 58  1  0
 59 67  1  0
 60 65  1  0
 61 62  1  0
 61 60  1  0
 63 62  1  0
 63 72  1  0
 63 64  1  0
 65 59  1  0
 65 64  1  0
 66 59  2  0
 67 58  1  0
 67 68  1  0
 69 70  2  0
 70 89  1  0
 71 70  1  0
 71 74  1  0
 72 69  1  0
 72 73  1  0
 73 71  2  0
 74 75  1  0
 75 76  2  0
 77 80  1  0
 77 76  1  0
 78 77  2  0
 79 78  1  0
 79 74  2  0
 80 81  1  0
 81 86  2  0
 81 82  1  0
 82 83  2  0
 83 84  1  0
 84 88  1  0
 85 84  2  0
 86 85  1  0
 87 86  1  0
 89 90  1  0
 90 93  1  0
 90 92  1  0
 91 89  2  0
 94 95  1  0
 94 69  1  0
 96 94  1  0
M  ISO  4  15 101  16 101  59 100  67 100
M  END
>  <TORSDO>  (44) 
F 23

>  <SCORE>  (44) 
-10.312

>  <name>  (44) 
44

>  <ligand_id>  (44) 
44

>  <original_smiles>  (44) 
[H]c1c([H])c([H])c2c(c1[H])C([H])([H])C([H])([H])C([H])([H])C2([H])N([H])C(=O)C1([H])N(C(=O)C([H])(N([H])C(=O)C([H])(N([H])C([H])([H])[H])C([H])([H])[H])C(C([H])([H])[H])(C([H])([H])[H])C([H])([H])[H])C([H])([H])c2c([H])c(OC([H])([H])C([H])([H])[N+]([H])([H])C([H])([H])C([H])([H])c3sc4c(c3[H])C([H])(C([H])([H])C([H])([H])N([H])C(=O)N3C([H])([H])C([H])([H])C([H])([H])C([H])(n5nc(-c6c([H])c([H])c(Oc7c([H])c([H])c(F)c([H])c7F)c([H])c6[H])c(C(=O)N([H])[H])c5N([H])[H])C3([H])[H])C([H])([H])C4([H])[H])c([H])c([H])c2C1([H])[H]

>  <smiles>  (44) 
[H]c1c([H])c([H])c2c(c1[H])C([H])([H])C([H])([H])C([H])([H])C2([H])N([H])C(=O)C1([H])N(C(=O)C([H])(N([H])C(=O)C([H])(N([H])C([H])([H])[H])C([H])([H])[H])C(C([H])([H])[H])(C([H])([H])[H])C([H])([H])[H])C([H])([H])c2c([H])c(OC([H])([H])C([H])([H])[N+]([H])([H])C([H])([H])C([H])([H])c3sc4c(c3[H])C([H])(C([H])([H])C([H])([H])N([H])C(=O)N3C([H])([H])C([H])([H])C([H])([H])C([H])(n5nc(-c6c([H])c([H])c(Oc7c([H])c([H])c(F)c([H])c7F)c([H])c6[H])c(C(=O)N([H])[H])c5N([H])[H])C3([H])[H])C([H])([H])C4([H])[H])c([H])c([H])c2C1([H])[H]

$$$$
45:0:0
     RDKit          3D

 99108  0  0  1  0  0  0  0  0999 V2000
  -24.9690  -21.1690   18.8880 C   0  0  0  0  0  3  0  0  0  0  0  0
  -25.3240  -19.8060   18.8300 C   0  0  0  0  0  3  0  0  0  0  0  0
  -26.9920  -21.6150   20.1890 C   0  0  0  0  0  3  0  0  0  0  0  0
  -27.4030  -20.2780   20.0870 C   0  0  0  0  0  0  0  0  0  0  0  0
  -25.8330  -22.0810   19.5470 C   0  0  0  0  0  0  0  0  0  0  0  0
  -26.5300  -19.3690   19.4220 C   0  0  0  0  0  0  0  0  0  0  0  0
  -28.5620  -19.5630   20.5220 C   0  0  0  0  0  0  0  0  0  0  0  0
  -28.3280  -18.2400   20.2640 C   0  0  0  0  0  0  0  0  0  0  0  0
  -27.1530  -18.1400   19.5240 N   0  0  0  0  0  0  0  0  0  0  0  0
  -26.7750  -17.2670   19.1500 H   0  0  0  0  0  0  0  0  0  0  0  0
  -29.6670  -20.0740   21.1430 O   0  0  0  0  0  0  0  0  0  0  0  0
  -29.7090  -21.0060   20.9440 H   0  0  0  0  0  0  0  0  0  0  0  0
  -25.6750  -23.5780   19.4450 C   0  0  0  0  0  2  0  0  0  0  0  0
  -27.0140  -24.0870   19.1160 N   0  0  0  0  0  4  0  0  0  0  0  0
  -26.8850  -24.6500   18.2910 H   0  0  0  0  0  0  0  0  0  0  0  0
  -27.5620  -23.2800   18.8300 H   0  0  0  0  0  0  0  0  0  0  0  0
  -27.7450  -24.8750   20.1460 C   0  0  0  0  0  2  0  0  0  0  0  0
  -28.8760  -25.6970   19.4410 C   0  0  0  0  0  2  0  0  0  0  0  0
  -28.8670  -27.1360   19.5610 O   0  0  0  0  0  0  0  0  0  0  0  0
  -24.5960  -31.3960   23.1950 C   0  0  0  0  0  0  0  0  0  0  0  0
  -27.6670  -27.8010   19.5230 C   0  0  0  0  0  0  0  0  0  0  0  0
  -23.5390  -30.1930   21.3060 C   0  0  0  0  0  3  0  0  0  0  0  0
  -25.1480  -29.0740   19.6760 C   0  0  0  0  0  0  0  0  0  0  0  0
  -26.0250  -30.8090   21.2470 C   0  0  0  0  0  2  0  0  0  0  0  0
  -26.2470  -29.5920   20.3800 C   0  0  0  0  0  0  0  0  0  0  0  0
  -27.5100  -28.9610   20.3110 C   0  0  0  0  0  3  0  0  0  0  0  0
  -26.5730  -27.3420   18.7500 C   0  0  0  0  0  3  0  0  0  0  0  0
  -25.3110  -27.9430   18.8660 C   0  0  0  0  0  3  0  0  0  0  0  0
  -23.8240  -29.7840   19.8380 C   0  0  0  0  0  2  0  0  0  0  0  0
  -24.7350  -30.8090   21.9740 N   0  0  0  0  0  0  0  0  0  0  0  0
  -23.4910  -31.4750   23.7460 O   0  0  0  0  0  0  0  0  0  0  0  0
  -22.9890  -28.9610   22.0610 C   0  0  0  0  0  0  0  0  0  0  0  0
  -21.6930  -28.6620   21.8730 N   0  0  0  0  0  0  0  0  0  0  0  0
  -23.7330  -28.2830   22.7810 O   0  0  0  0  0  0  0  0  0  0  0  0
  -21.1450  -29.2030   21.2130 H   0  0  0  0  0  0  0  0  0  0  0  0
  -18.4480  -27.1510   22.1440 C   0  0  0  0  0  0  0  0  0  0  0  0
  -20.9660  -27.5650   22.5000 C   0  0  0  0  0  3  0  0  0  0  0  0
  -21.1680  -26.2540   21.7050 C   0  0  0  0  0  2  0  0  0  0  0  0
  -20.1270  -26.1100   20.5920 C   0  0  0  0  0  2  0  0  0  0  0  0
  -18.7620  -25.9430   21.2670 C   0  0  0  0  0  2  0  0  0  0  0  0
  -19.4950  -27.9280   22.7130 C   0  0  0  0  0  0  0  0  0  0  0  0
  -19.1670  -29.0700   23.4770 C   0  0  0  0  0  3  0  0  0  0  0  0
  -17.8260  -29.4500   23.6860 C   0  0  0  0  0  3  0  0  0  0  0  0
  -16.8000  -28.6760   23.1270 C   0  0  0  0  0  3  0  0  0  0  0  0
  -17.1070  -27.5290   22.3760 C   0  0  0  0  0  3  0  0  0  0  0  0
  -25.8100  -32.0250   23.9390 C   0  0  0  0  0  3  0  0  0  0  0  0
  -25.4530  -33.4040   24.2870 N   0  0  0  0  0  0  0  0  0  0  0  0
  -25.8640  -34.4890   23.6200 C   0  0  0  0  0  0  0  0  0  0  0  0
  -26.6480  -34.4370   22.6690 O   0  0  0  0  0  0  0  0  0  0  0  0
  -24.7510  -33.5130   25.0050 H   0  0  0  0  0  0  0  0  0  0  0  0
  -24.1770  -36.2870   23.1110 C   0  0  0  0  0  1  0  0  0  0  0  0
  -25.3050  -35.8540   24.0620 C   0  0  0  0  0  3  0  0  0  0  0  0
  -27.3050  -36.7060   25.2030 C   0  0  0  0  0  1  0  0  0  0  0  0
  -26.3360  -36.9130   24.1310 N   0  0  0  0  0  0  0  0  0  0  0  0
  -25.9120  -37.8280   24.2450 H   0  0  0  0  0  0  0  0  0  0  0  0
  -26.2270  -31.2130   25.2290 C   0  0  1  0  0  0  0  0  0  0  0  0
  -25.0600  -30.9280   26.2030 C   0  0  0  0  0  1  0  0  0  0  0  0
  -26.8480  -29.8510   24.8440 C   0  0  0  0  0  1  0  0  0  0  0  0
  -27.3160  -31.9860   26.0090 C   0  0  0  0  0  1  0  0  0  0  0  0
  -29.0920  -17.0780   20.7780 C   0  0  0  0  0  2  0  0  0  0  0  0
  -30.1580  -16.5100   19.8460 C   0  0  0  0  0  2  0  0  0  0  0  0
  -31.0810  -14.2870   19.7680 C   0  0  0  0  0  0  0  0  0  0  0  0
  -30.7230  -12.0170   18.9130 C   0  0  0  0  0  2  0  0  0  0  0  0
  -29.7400  -12.0970   17.7300 C   0  0  0  0  0  2  0  0  0  0  0  0
  -28.2840  -12.0190   18.2180 C   0  0  0  0  0  2  0  0  0  0  0  0
  -27.9800  -13.0040   19.3720 C   0  0  0  0  0  3  0  0  0  0  0  0
  -29.0710  -12.9270   20.4650 C   0  0  0  0  0  2  0  0  0  0  0  0
  -30.3980  -13.1120   19.8360 N   0  0  0  0  0  0  0  0  0  0  0  0
  -32.0660  -14.4910   19.0570 O   0  0  0  0  0  0  0  0  0  0  0  0
  -30.5620  -15.2680   20.4840 N   0  0  0  0  0  0  0  0  0  0  0  0
  -29.9520  -14.9710   21.2340 H   0  0  0  0  0  0  0  0  0  0  0  0
  -25.6230  -13.6900   20.1720 C   0  0  0  0  0  0  0  0  0  0  0  0
  -24.5460  -12.9530   20.5890 C   0  0  0  0  0  0  0  0  0  0  0  0
  -24.9650  -11.5910   20.5450 C   0  0  0  0  0  0  0  0  0  0  0  0
  -26.6370  -12.7800   19.9170 N   0  0  0  0  0  0  0  0  0  0  0  0
  -26.2410  -11.5100   20.1870 N   0  0  0  0  0  0  0  0  0  0  0  0
  -24.2100  -10.3580   20.7840 C   0  0  0  0  0  0  0  0  0  0  0  0
  -24.5640   -9.4700   21.8220 C   0  0  0  0  0  3  0  0  0  0  0  0
  -23.8120   -8.2950   22.0400 C   0  0  0  0  0  3  0  0  0  0  0  0
  -22.6950   -8.0040   21.2210 C   0  0  0  0  0  0  0  0  0  0  0  0
  -22.3700   -8.8780   20.1710 C   0  0  0  0  0  3  0  0  0  0  0  0
  -23.1210  -10.0440   19.9500 C   0  0  0  0  0  3  0  0  0  0  0  0
  -21.9220   -6.8770   21.3440 O   0  0  0  0  0  0  0  0  0  0  0  0
  -21.6460   -6.3210   22.5680 C   0  0  0  0  0  0  0  0  0  0  0  0
  -20.9900   -7.0490   23.5850 C   0  0  0  0  0  3  0  0  0  0  0  0
  -20.6580   -6.4200   24.8030 C   0  0  0  0  0  3  0  0  0  0  0  0
  -20.9750   -5.0640   25.0030 C   0  0  0  0  0  0  0  0  0  0  0  0
  -21.6210   -4.3340   23.9910 C   0  0  0  0  0  3  0  0  0  0  0  0
  -21.9530   -4.9610   22.7770 C   0  0  0  0  0  0  0  0  0  0  0  0
  -22.5570   -4.2470   21.7970 F   0  0  0  0  0  0  0  0  0  0  0  0
  -20.6510   -4.4580   26.1690 F   0  0  0  0  0  0  0  0  0  0  0  0
  -23.1830  -13.4790   20.9240 C   0  0  0  0  0  0  0  0  0  0  0  0
  -22.5030  -12.8460   21.8790 N   0  0  0  0  0  0  0  0  0  0  0  0
  -22.7350  -14.4870   20.3840 O   0  0  0  0  0  0  0  0  0  0  0  0
  -22.8770  -12.0280   22.3400 H   0  0  0  0  0  0  0  0  0  0  0  0
  -21.5910  -13.1810   22.1530 H   0  0  0  0  0  0  0  0  0  0  0  0
  -25.8140  -15.0500   19.9810 N   0  0  0  0  0  0  0  0  0  0  0  0
  -25.0730  -15.6640   20.3030 H   0  0  0  0  0  0  0  0  0  0  0  0
  -26.7230  -15.3810   20.2660 H   0  0  0  0  0  0  0  0  0  0  0  0
  1  5  1  0
  2  1  2  0
  2  6  1  0
  4  3  1  0
  4  7  1  0
  5  3  2  0
  6  9  1  0
  6  4  2  0
  7 11  1  0
  8  7  2  0
  8 60  1  0
  9  8  1  0
 10  9  1  0
 12 11  1  0
 13  5  1  0
 14 13  1  0
 14 17  1  0
 15 14  1  0
 16 14  1  0
 18 19  1  0
 18 17  1  0
 20 31  2  0
 21 19  1  0
 21 26  1  0
 22 30  1  0
 22 32  1  0
 23 29  1  0
 23 25  1  0
 24 30  1  0
 25 24  1  0
 26 25  2  0
 27 28  1  0
 27 21  2  0
 28 23  2  0
 29 22  1  0
 30 20  1  0
 32 34  2  0
 33 32  1  0
 35 33  1  0
 36 45  2  0
 36 41  1  0
 37 33  1  0
 37 41  1  0
 38 37  1  0
 39 40  1  0
 39 38  1  0
 40 36  1  0
 41 42  2  0
 42 43  1  0
 44 43  2  0
 45 44  1  0
 46 20  1  0
 46 47  1  0
 46 56  1  0
 47 50  1  0
 48 52  1  0
 48 47  1  0
 49 48  2  0
 52 51  1  0
 52 54  1  0
 54 55  1  0
 54 53  1  0
 56 59  1  1
 56 57  1  0
 58 56  1  0
 61 70  1  0
 61 60  1  0
 62 68  1  0
 62 70  1  0
 63 68  1  0
 64 65  1  0
 64 63  1  0
 66 65  1  0
 66 75  1  0
 66 67  1  0
 68 67  1  0
 69 62  2  0
 70 71  1  0
 72 73  2  0
 73 92  1  0
 74 73  1  0
 74 77  1  0
 75 72  1  0
 75 76  1  0
 76 74  2  0
 77 78  1  0
 78 79  2  0
 80 83  1  0
 80 79  1  0
 81 80  2  0
 82 81  1  0
 82 77  2  0
 83 84  1  0
 84 89  2  0
 84 85  1  0
 85 86  2  0
 86 87  1  0
 87 91  1  0
 88 87  2  0
 89 88  1  0
 90 89  1  0
 92 93  1  0
 93 96  1  0
 93 95  1  0
 94 92  2  0
 97 72  1  0
 97 99  1  0
 97 98  1  0
M  ISO  4  18 101  19 101  62 100  70 100
M  END
>  <TORSDO>  (45) 
F 23

>  <SCORE>  (45) 
-8.965

>  <name>  (45) 
45

>  <ligand_id>  (45) 
45

>  <original_smiles>  (45) 
[H]Oc1c(C([H])([H])C([H])([H])N([H])C(=O)N2C([H])([H])C([H])([H])C([H])([H])C([H])(n3nc(-c4c([H])c([H])c(Oc5c([H])c([H])c(F)c([H])c5F)c([H])c4[H])c(C(=O)N([H])[H])c3N([H])[H])C2([H])[H])n([H])c2c([H])c([H])c(C([H])([H])[N+]([H])([H])C([H])([H])C([H])([H])Oc3c([H])c([H])c4c(c3[H])C([H])([H])N(C(=O)C([H])(N([H])C(=O)C([H])(N([H])C([H])([H])[H])C([H])([H])[H])C(C([H])([H])[H])(C([H])([H])[H])C([H])([H])[H])C([H])(C(=O)N([H])C3([H])c5c([H])c([H])c([H])c([H])c5C([H])([H])C([H])([H])C3([H])[H])C4([H])[H])c([H])c12

>  <smiles>  (45) 
[H]Oc1c(C([H])([H])C([H])([H])N([H])C(=O)N2C([H])([H])C([H])([H])C([H])([H])C([H])(n3nc(-c4c([H])c([H])c(Oc5c([H])c([H])c(F)c([H])c5F)c([H])c4[H])c(C(=O)N([H])[H])c3N([H])[H])C2([H])[H])n([H])c2c([H])c([H])c(C([H])([H])[N+]([H])([H])C([H])([H])C([H])([H])Oc3c([H])c([H])c4c(c3[H])C([H])([H])N(C(=O)C([H])(N([H])C(=O)C([H])(N([H])C([H])([H])[H])C([H])([H])[H])C(C([H])([H])[H])(C([H])([H])[H])C([H])([H])[H])C([H])(C(=O)N([H])C3([H])c5c([H])c([H])c([H])c([H])c5C([H])([H])C([H])([H])C3([H])[H])C4([H])[H])c([H])c12

$$$$
46:0:0
     RDKit          3D

101107  0  0  1  0  0  0  0  0999 V2000
  -30.8510  -16.5500   17.7470 C   0  0  0  0  0  3  0  0  0  0  0  0
  -30.6890  -12.7110   19.2070 C   0  0  0  0  0  3  0  0  0  0  0  0
  -32.5110  -15.9270   17.5570 C   0  0  0  0  0  3  0  0  0  0  0  0
  -32.5360  -12.8880   18.8430 C   0  0  0  0  0  2  0  0  0  0  0  0
  -29.4080  -15.6070   18.4050 C   0  0  0  0  0  1  0  0  0  0  0  0
  -33.3050  -14.4080   18.0410 C   0  0  0  0  0  3  0  0  0  0  0  0
  -26.2970  -18.6240   18.9670 C   0  0  0  0  0  3  0  0  0  0  0  0
  -27.1750  -17.4850   18.8200 C   0  0  0  0  0  3  0  0  0  0  0  0
  -26.5990  -20.0140   19.1960 C   0  0  0  0  0  3  0  0  0  0  0  0
  -28.8310  -19.1840   19.1430 C   0  0  0  0  0  3  0  0  0  0  0  0
  -28.5900  -17.4710   18.9150 C   0  0  0  0  0  3  0  0  0  0  0  0
  -27.8880  -20.6220   19.3360 C   0  0  0  0  0  3  0  0  0  0  0  0
  -27.6710  -22.7120   19.3000 C   0  0  0  0  0 15  0  0  0  0  0  0
  -27.7650  -24.5070   20.0580 O   0  0  0  0  0  1  0  0  0  0  0  0
  -24.6110  -31.4160   23.1150 C   0  0  0  0  0  0  0  0  0  0  0  0
  -26.9940  -25.9830   20.0530 C   0  0  0  0  0  0  0  0  0  0  0  0
  -23.4500  -30.0370   21.4520 C   0  0  0  0  0  3  0  0  0  0  0  0
  -24.8810  -28.3160   20.0590 C   0  0  0  0  0  0  0  0  0  0  0  0
  -26.0410  -30.0150   21.4290 C   0  0  0  0  0  2  0  0  0  0  0  0
  -26.0770  -28.5500   20.7460 C   0  0  0  0  0  0  0  0  0  0  0  0
  -27.1070  -27.4120   20.7180 C   0  0  0  0  0  3  0  0  0  0  0  0
  -25.7810  -26.0740   19.3240 C   0  0  0  0  0  3  0  0  0  0  0  0
  -24.7950  -27.1090   19.3420 C   0  0  0  0  0  3  0  0  0  0  0  0
  -23.7180  -29.3370   20.0900 C   0  0  0  0  0  2  0  0  0  0  0  0
  -24.7320  -30.5290   22.0550 N   0  0  0  0  0  0  0  0  0  0  0  0
  -23.5030  -31.7440   23.5740 O   0  0  0  0  0  0  0  0  0  0  0  0
  -22.6700  -29.0940   22.4080 C   0  0  0  0  0  0  0  0  0  0  0  0
  -21.3300  -29.0070   22.2770 N   0  0  0  0  0  0  0  0  0  0  0  0
  -23.2860  -28.4330   23.2480 O   0  0  0  0  0  0  0  0  0  0  0  0
  -20.8800  -29.5920   21.5860 H   0  0  0  0  0  0  0  0  0  0  0  0
  -17.8910  -27.9110   22.7620 C   0  0  0  0  0  0  0  0  0  0  0  0
  -20.4600  -28.0860   23.0260 C   0  0  0  0  0  3  0  0  0  0  0  0
  -20.5100  -26.6610   22.4210 C   0  0  0  0  0  2  0  0  0  0  0  0
  -19.4010  -26.4040   21.3980 C   0  0  0  0  0  2  0  0  0  0  0  0
  -18.0240  -26.5770   22.0460 C   0  0  0  0  0  2  0  0  0  0  0  0
  -19.0340  -28.6270   23.2060 C   0  0  0  0  0  0  0  0  0  0  0  0
  -18.8530  -29.8730   23.8440 C   0  0  0  0  0  3  0  0  0  0  0  0
  -17.5640  -30.4030   24.0340 C   0  0  0  0  0  3  0  0  0  0  0  0
  -16.4360  -29.6840   23.6000 C   0  0  0  0  0  3  0  0  0  0  0  0
  -16.6000  -28.4390   22.9700 C   0  0  0  0  0  3  0  0  0  0  0  0
  -25.8440  -32.0690   23.8070 C   0  0  0  0  0  3  0  0  0  0  0  0
  -26.2740  -31.3170   25.1300 C   0  0  1  0  0  0  0  0  0  0  0  0
  -25.1190  -31.1240   26.1440 C   0  0  0  0  0  1  0  0  0  0  0  0
  -26.8430  -29.9200   24.8050 C   0  0  0  0  0  1  0  0  0  0  0  0
  -27.4040  -32.0980   25.8380 C   0  0  0  0  0  1  0  0  0  0  0  0
  -25.5200  -33.4780   24.1330 N   0  0  0  0  0  0  0  0  0  0  0  0
  -25.9600  -34.5560   23.4680 C   0  0  0  0  0  0  0  0  0  0  0  0
  -26.7310  -34.4670   22.5120 O   0  0  0  0  0  0  0  0  0  0  0  0
  -24.8460  -33.6220   24.8720 H   0  0  0  0  0  0  0  0  0  0  0  0
  -24.3530  -36.4480   23.0000 C   0  0  0  0  0  1  0  0  0  0  0  0
  -25.4740  -35.9500   23.9280 C   0  0  0  0  0  3  0  0  0  0  0  0
  -27.5190  -36.7350   25.0460 C   0  0  0  0  0  1  0  0  0  0  0  0
  -26.5480  -36.9670   23.9800 N   0  0  0  0  0  0  0  0  0  0  0  0
  -26.1590  -37.8970   24.1030 H   0  0  0  0  0  0  0  0  0  0  0  0
  -34.7010  -14.7940   18.4660 N   0  0  0  0  0  4  0  0  0  0  0  0
  -34.1600  -14.6950   19.3230 H   0  0  0  0  0  0  0  0  0  0  0  0
  -34.6270  -15.4950   17.7340 H   0  0  0  0  0  0  0  0  0  0  0  0
  -35.2580  -15.9170   19.3480 C   0  0  0  0  0  2  0  0  0  0  0  0
  -34.7630  -17.4260   19.3560 C   0  0  0  0  0  2  0  0  0  0  0  0
  -33.3030  -18.0090   19.6200 C   0  0  0  0  0  2  0  0  0  0  0  0
  -32.5720  -17.7500   20.9040 N   0  0  0  0  0  4  0  0  0  0  0  0
  -33.0720  -17.1320   21.5260 H   0  0  0  0  0  0  0  0  0  0  0  0
  -32.6340  -18.6360   21.3960 H   0  0  0  0  0  0  0  0  0  0  0  0
  -31.0960  -17.4350   20.7720 C   0  0  0  0  0  2  0  0  0  0  0  0
  -30.5580  -16.1430   21.5020 C   0  0  0  0  0  2  0  0  0  0  0  0
  -30.7880  -14.7750   20.8020 C   0  0  0  0  0  0  0  0  0  0  0  0
  -29.8890  -13.1370   17.9810 C   0  0  0  0  0  2  0  0  0  0  0  0
  -28.5420  -12.2170   17.5690 C   0  0  0  0  0  3  0  0  0  0  0  0
  -27.2660  -12.1310   18.5730 C   0  0  0  0  0  3  0  0  0  0  0  0
  -27.1420  -13.0410   19.9400 C   0  0  0  0  0  0  0  0  0  0  0  0
  -28.4160  -13.9680   20.7980 C   0  0  0  0  0  3  0  0  0  0  0  0
  -29.9460  -14.1750   19.9790 N   0  0  0  0  0  0  0  0  0  0  0  0
  -31.8570  -14.2940   20.9840 O   0  0  0  0  0  0  0  0  0  0  0  0
  -24.8350  -13.3570   20.8460 C   0  0  0  0  0  0  0  0  0  0  0  0
  -23.8000  -12.5490   21.2010 C   0  0  0  0  0  0  0  0  0  0  0  0
  -24.2900  -11.2070   21.1840 C   0  0  0  0  0  0  0  0  0  0  0  0
  -25.9200  -12.5500   20.6270 N   0  0  0  0  0  0  0  0  0  0  0  0
  -25.6010  -11.2250   20.8420 N   0  0  0  0  0  0  0  0  0  0  0  0
  -23.5380   -9.9510   21.4270 C   0  0  0  0  0  0  0  0  0  0  0  0
  -23.9920   -8.9870   22.3600 C   0  0  0  0  0  3  0  0  0  0  0  0
  -23.2180   -7.8380   22.6580 C   0  0  0  0  0  3  0  0  0  0  0  0
  -21.9690   -7.6320   22.0290 C   0  0  0  0  0  0  0  0  0  0  0  0
  -21.5230   -8.5800   21.0910 C   0  0  0  0  0  3  0  0  0  0  0  0
  -22.2990   -9.7150   20.7870 C   0  0  0  0  0  3  0  0  0  0  0  0
  -21.1840   -6.5210   22.2220 O   0  0  0  0  0  0  0  0  0  0  0  0
  -21.3000   -5.7360   23.3420 C   0  0  0  0  0  0  0  0  0  0  0  0
  -21.0460   -6.2500   24.6320 C   0  0  0  0  0  3  0  0  0  0  0  0
  -21.1080   -5.4000   25.7560 C   0  0  0  0  0  3  0  0  0  0  0  0
  -21.4150   -4.0350   25.5880 C   0  0  0  0  0  0  0  0  0  0  0  0
  -21.6690   -3.5210   24.3040 C   0  0  0  0  0  3  0  0  0  0  0  0
  -21.6040   -4.3660   23.1850 C   0  0  0  0  0  0  0  0  0  0  0  0
  -21.8280   -3.8630   21.9450 F   0  0  0  0  0  0  0  0  0  0  0  0
  -21.4620   -3.2170   26.6630 F   0  0  0  0  0  0  0  0  0  0  0  0
  -22.4110  -13.0500   21.4490 C   0  0  0  0  0  0  0  0  0  0  0  0
  -21.7230  -12.4460   22.3920 N   0  0  0  0  0  0  0  0  0  0  0  0
  -21.9700  -14.0360   20.8670 O   0  0  0  0  0  0  0  0  0  0  0  0
  -22.1200  -11.6460   22.8950 H   0  0  0  0  0  0  0  0  0  0  0  0
  -20.8190  -12.7820   22.6540 H   0  0  0  0  0  0  0  0  0  0  0  0
  -24.9220  -14.7210   20.6770 N   0  0  0  0  0  0  0  0  0  0  0  0
  -24.1600  -15.3900   20.7850 H   0  0  0  0  0  0  0  0  0  0  0  0
  -25.7930  -15.1400   20.3960 H   0  0  0  0  0  0  0  0  0  0  0  0
  1  5  1  0
  2 67  1  0
  2 72  1  0
  3  1  2  0
  4  2  1  0
  6  3  1  0
  6 55  1  0
  6  4  1  0
  7  9  1  0
  8 11  1  0
  8  7  2  0
  9 12  2  0
 10 12  1  0
 11 10  2  0
 15 26  2  0
 16 14  1  0
 16 21  1  0
 17 25  1  0
 17 27  1  0
 18 24  1  0
 18 20  1  0
 19 25  1  0
 20 19  1  0
 21 20  2  0
 22 23  1  0
 22 16  2  0
 23 18  2  0
 24 17  1  0
 25 15  1  0
 27 29  2  0
 28 27  1  0
 30 28  1  0
 31 40  2  0
 31 36  1  0
 32 28  1  0
 32 36  1  0
 33 32  1  0
 34 35  1  0
 34 33  1  0
 35 31  1  0
 36 37  2  0
 37 38  1  0
 39 38  2  0
 40 39  1  0
 41 15  1  0
 41 46  1  0
 41 42  1  0
 42 45  1  1
 42 43  1  0
 44 42  1  0
 46 49  1  0
 47 51  1  0
 47 46  1  0
 48 47  2  0
 51 50  1  0
 51 53  1  0
 53 54  1  0
 53 52  1  0
 55 56  1  0
 55 58  1  0
 57 55  1  0
 58 59  1  0
 59 60  1  0
 60 61  1  0
 61 63  1  0
 61 62  1  0
 64 61  1  0
 64 65  1  0
 66 73  2  0
 66 65  1  0
 68 67  1  0
 68 69  2  0
 69 70  1  0
 70 77  1  0
 70 71  2  0
 72 71  1  0
 72 66  1  0
 74 75  2  0
 75 94  1  0
 76 75  1  0
 76 79  1  0
 77 78  1  0
 77 74  1  0
 78 76  2  0
 79 80  1  0
 80 81  2  0
 82 85  1  0
 82 81  1  0
 83 82  2  0
 84 83  1  0
 84 79  2  0
 85 86  1  0
 86 87  1  0
 87 88  2  0
 89 88  1  0
 89 93  1  0
 90 89  2  0
 91 86  2  0
 91 90  1  0
 92 91  1  0
 94 95  1  0
 95 98  1  0
 95 97  1  0
 96 94  2  0
 99100  1  0
 99 74  1  0
101 99  1  0
M  ISO  4  13 101  14 101  65 100  66 100
M  END
>  <TORSDO>  (46) 
F 25

>  <SCORE>  (46) 
-9.193

>  <name>  (46) 
46

>  <ligand_id>  (46) 
46

>  <original_smiles>  (46) 
[H]c1c([H])c([H])c2c(c1[H])C([H])([H])C([H])([H])C([H])([H])C2([H])N([H])C(=O)C1([H])N(C(=O)C([H])(N([H])C(=O)C([H])(N([H])C([H])([H])[H])C([H])([H])[H])C(C([H])([H])[H])(C([H])([H])[H])C([H])([H])[H])C([H])([H])c2c([H])c(OC([H])([H])c3c([H])c([H])c([H])c(C4([H])C([H])([H])C([H])([H])C([H])([N+]([H])([H])C([H])([H])C([H])([H])C([H])([H])[N+]([H])([H])C([H])([H])C([H])([H])C(=O)N5C([H])([H])C([H])([H])C([H])([H])C([H])(n6nc(-c7c([H])c([H])c(Oc8c([H])c([H])c(F)c([H])c8F)c([H])c7[H])c(C(=O)N([H])[H])c6N([H])[H])C5([H])[H])C([H])([H])C4([H])[H])c3[H])c([H])c([H])c2C1([H])[H]

>  <smiles>  (46) 
[H]c1c([H])c([H])c2c(c1[H])C([H])([H])C([H])([H])C([H])([H])C2([H])N([H])C(=O)C1([H])N(C(=O)C([H])(N([H])C(=O)C([H])(N([H])C([H])([H])[H])C([H])([H])[H])C(C([H])([H])[H])(C([H])([H])[H])C([H])([H])[H])C([H])([H])c2c([H])c(OC([H])([H])c3c([H])c([H])c([H])c(C4([H])C([H])([H])C([H])([H])C([H])([N+]([H])([H])C([H])([H])C([H])([H])C([H])([H])[N+]([H])([H])C([H])([H])C([H])([H])C(=O)N5C([H])([H])C([H])([H])C([H])([H])C([H])(n6nc(-c7c([H])c([H])c(Oc8c([H])c([H])c(F)c([H])c8F)c([H])c7[H])c(C(=O)N([H])[H])c6N([H])[H])C5([H])[H])C([H])([H])C4([H])[H])c3[H])c([H])c([H])c2C1([H])[H]

$$$$
47:0:0
     RDKit          3D

 99108  0  0  1  0  0  0  0  0999 V2000
  -30.1130  -22.8530   23.0510 C   0  0  0  0  0  0  0  0  0  0  0  0
  -30.2580  -22.7580   24.3710 N   0  0  0  0  0  4  0  0  0  0  0  0
  -30.7950  -22.0520   22.2230 N   0  0  0  0  0  0  0  0  0  0  0  0
  -29.7400  -23.3970   24.9550 H   0  0  0  0  0  0  0  0  0  0  0  0
  -30.8400  -22.0680   24.8160 H   0  0  0  0  0  0  0  0  0  0  0  0
  -30.6580  -22.2440   21.2380 H   0  0  0  0  0  0  0  0  0  0  0  0
  -26.8240  -24.5060   22.3000 C   0  0  0  0  0  3  0  0  0  0  0  0
  -27.7870  -23.6190   22.8140 C   0  0  0  0  0  3  0  0  0  0  0  0
  -27.2240  -25.5700   21.4710 C   0  0  0  0  0  3  0  0  0  0  0  0
  -29.5460  -24.8430   21.6370 C   0  0  0  0  0  3  0  0  0  0  0  0
  -29.1480  -23.7910   22.4940 C   0  0  0  0  0  0  0  0  0  0  0  0
  -28.5820  -25.7380   21.1120 C   0  0  0  0  0  0  0  0  0  0  0  0
  -29.0210  -26.8920   20.2080 C   0  0  0  0  0  2  0  0  0  0  0  0
  -28.1660  -27.1020   19.0750 O   0  0  0  0  0  0  0  0  0  0  0  0
  -24.5160  -31.7170   23.0780 C   0  0  0  0  0  0  0  0  0  0  0  0
  -26.9970  -27.7960   19.2930 C   0  0  0  0  0  0  0  0  0  0  0  0
  -23.1920  -30.4350   21.4240 C   0  0  0  0  0  3  0  0  0  0  0  0
  -24.5440  -29.1350   19.6970 C   0  0  0  0  0  0  0  0  0  0  0  0
  -25.6560  -30.9570   21.0010 C   0  0  0  0  0  2  0  0  0  0  0  0
  -25.7280  -29.6660   20.2210 C   0  0  0  0  0  0  0  0  0  0  0  0
  -26.9560  -29.0050   20.0200 C   0  0  0  0  0  3  0  0  0  0  0  0
  -25.8000  -27.2790   18.7520 C   0  0  0  0  0  3  0  0  0  0  0  0
  -24.5720  -27.9350   18.9620 C   0  0  0  0  0  3  0  0  0  0  0  0
  -23.2750  -29.9120   19.9640 C   0  0  0  0  0  2  0  0  0  0  0  0
  -24.4780  -31.0460   21.8920 N   0  0  0  0  0  0  0  0  0  0  0  0
  -23.4920  -31.8720   23.7580 O   0  0  0  0  0  0  0  0  0  0  0  0
  -22.6950  -29.2860   22.3290 C   0  0  0  0  0  0  0  0  0  0  0  0
  -21.4350  -28.8710   22.1280 N   0  0  0  0  0  0  0  0  0  0  0  0
  -23.4420  -28.7710   23.1650 O   0  0  0  0  0  0  0  0  0  0  0  0
  -20.8840  -29.3500   21.4280 H   0  0  0  0  0  0  0  0  0  0  0  0
  -18.3610  -26.9850   22.3190 C   0  0  0  0  0  0  0  0  0  0  0  0
  -20.7650  -27.7800   22.8330 C   0  0  0  0  0  3  0  0  0  0  0  0
  -21.2250  -26.4030   22.2980 C   0  0  0  0  0  2  0  0  0  0  0  0
  -20.3230  -25.8560   21.1880 C   0  0  0  0  0  2  0  0  0  0  0  0
  -18.8840  -25.7030   21.6900 C   0  0  0  0  0  2  0  0  0  0  0  0
  -19.2440  -27.9670   22.8420 C   0  0  0  0  0  0  0  0  0  0  0  0
  -18.7050  -29.1560   23.3790 C   0  0  0  0  0  3  0  0  0  0  0  0
  -17.3140  -29.3700   23.4050 C   0  0  0  0  0  3  0  0  0  0  0  0
  -16.4440  -28.3860   22.9000 C   0  0  0  0  0  3  0  0  0  0  0  0
  -16.9660  -27.1960   22.3640 C   0  0  0  0  0  3  0  0  0  0  0  0
  -25.8380  -32.3420   23.6240 C   0  0  0  0  0  3  0  0  0  0  0  0
  -25.5420  -33.7260   24.0160 N   0  0  0  0  0  0  0  0  0  0  0  0
  -25.8810  -34.8070   23.3010 C   0  0  0  0  0  0  0  0  0  0  0  0
  -26.5480  -34.7430   22.2640 O   0  0  0  0  0  0  0  0  0  0  0  0
  -24.9570  -33.8510   24.8280 H   0  0  0  0  0  0  0  0  0  0  0  0
  -24.1530  -36.6140   23.0370 C   0  0  0  0  0  1  0  0  0  0  0  0
  -25.4010  -36.1770   23.8180 C   0  0  0  0  0  3  0  0  0  0  0  0
  -27.5550  -37.0150   24.6480 C   0  0  0  0  0  1  0  0  0  0  0  0
  -26.4360  -37.2320   23.7340 N   0  0  0  0  0  0  0  0  0  0  0  0
  -26.0350  -38.1440   23.9340 H   0  0  0  0  0  0  0  0  0  0  0  0
  -26.4550  -31.5370   24.8340 C   0  0  1  0  0  0  0  0  0  0  0  0
  -25.4340  -31.2030   25.9450 C   0  0  0  0  0  1  0  0  0  0  0  0
  -27.0720  -30.2070   24.3400 C   0  0  0  0  0  1  0  0  0  0  0  0
  -27.6020  -32.3530   25.4750 C   0  0  0  0  0  1  0  0  0  0  0  0
  -31.7450  -20.9730   22.5410 C   0  0  0  0  0  2  0  0  0  0  0  0
  -31.6790  -19.8620   21.4730 C   0  0  0  0  0  2  0  0  0  0  0  0
  -33.7860  -19.2510   20.1430 C   0  0  0  0  0  2  0  0  0  0  0  0
  -33.1870  -18.3850   19.0230 C   0  0  0  0  0  2  0  0  0  0  0  0
  -32.5850  -17.4850   21.2100 C   0  0  0  0  0  2  0  0  0  0  0  0
  -32.9420  -18.9640   21.3910 C   0  0  0  0  0  3  0  0  0  0  0  0
  -32.3010  -17.3260   19.7120 C   0  0  0  0  0  3  0  0  0  0  0  0
  -31.8090  -15.2730   18.4060 C   0  0  0  0  0  0  0  0  0  0  0  0
  -31.5540  -13.1600   17.1570 C   0  0  0  0  0  2  0  0  0  0  0  0
  -30.5930  -12.1980   17.8790 C   0  0  0  0  0  2  0  0  0  0  0  0
  -31.3520  -11.3470   18.9130 C   0  0  0  0  0  2  0  0  0  0  0  0
  -32.2490  -12.2050   19.8450 C   0  0  0  0  0  3  0  0  0  0  0  0
  -33.1070  -13.1990   19.0280 C   0  0  0  0  0  2  0  0  0  0  0  0
  -32.2150  -14.0000   18.1670 N   0  0  0  0  0  0  0  0  0  0  0  0
  -30.8470  -15.7990   17.8380 O   0  0  0  0  0  0  0  0  0  0  0  0
  -32.5740  -15.9650   19.2570 N   0  0  0  0  0  0  0  0  0  0  0  0
  -33.3690  -15.4830   19.6460 H   0  0  0  0  0  0  0  0  0  0  0  0
  -32.7290  -10.6700   21.8580 C   0  0  0  0  0  0  0  0  0  0  0  0
  -33.8520   -9.9880   22.2410 C   0  0  0  0  0  0  0  0  0  0  0  0
  -34.8550  -10.3030   21.2730 C   0  0  0  0  0  0  0  0  0  0  0  0
  -33.0780  -11.3640   20.7080 N   0  0  0  0  0  0  0  0  0  0  0  0
  -34.3840  -11.1730   20.3880 N   0  0  0  0  0  0  0  0  0  0  0  0
  -36.2170   -9.7790   21.1030 C   0  0  0  0  0  0  0  0  0  0  0  0
  -37.3130  -10.6360   20.8610 C   0  0  0  0  0  3  0  0  0  0  0  0
  -38.6160  -10.1110   20.7210 C   0  0  0  0  0  3  0  0  0  0  0  0
  -38.8340   -8.7170   20.8250 C   0  0  0  0  0  0  0  0  0  0  0  0
  -37.7370   -7.8650   21.0440 C   0  0  0  0  0  3  0  0  0  0  0  0
  -36.4400   -8.3890   21.1780 C   0  0  0  0  0  3  0  0  0  0  0  0
  -40.0610   -8.1150   20.6770 O   0  0  0  0  0  0  0  0  0  0  0  0
  -41.2290   -8.8020   20.8830 C   0  0  0  0  0  0  0  0  0  0  0  0
  -41.4700   -9.5230   22.0730 C   0  0  0  0  0  3  0  0  0  0  0  0
  -42.7120  -10.1580   22.2730 C   0  0  0  0  0  3  0  0  0  0  0  0
  -43.7180  -10.0640   21.2920 C   0  0  0  0  0  0  0  0  0  0  0  0
  -43.4820   -9.3420   20.1080 C   0  0  0  0  0  3  0  0  0  0  0  0
  -42.2420   -8.7100   19.9070 C   0  0  0  0  0  0  0  0  0  0  0  0
  -42.0290   -7.9990   18.7750 F   0  0  0  0  0  0  0  0  0  0  0  0
  -44.9140  -10.6670   21.4880 F   0  0  0  0  0  0  0  0  0  0  0  0
  -33.9670   -9.0240   23.3860 C   0  0  0  0  0  0  0  0  0  0  0  0
  -35.1550   -8.8970   23.9680 N   0  0  0  0  0  0  0  0  0  0  0  0
  -32.9880   -8.4100   23.8060 O   0  0  0  0  0  0  0  0  0  0  0  0
  -35.9560   -9.4160   23.6390 H   0  0  0  0  0  0  0  0  0  0  0  0
  -35.2650   -8.2690   24.7520 H   0  0  0  0  0  0  0  0  0  0  0  0
  -31.4410  -10.7430   22.3790 N   0  0  0  0  0  0  0  0  0  0  0  0
  -31.1540  -10.2010   23.1860 H   0  0  0  0  0  0  0  0  0  0  0  0
  -30.6850  -11.2830   21.9750 H   0  0  0  0  0  0  0  0  0  0  0  0
  1  2  2  0
  2  5  1  0
  2  4  1  0
  3 55  1  0
  3  1  1  0
  6  3  1  0
  7  8  1  0
  9  7  2  0
 10 11  1  0
 11  8  2  0
 11  1  1  0
 12  9  1  0
 12 10  2  0
 13 12  1  0
 14 16  1  0
 14 13  1  0
 15 26  2  0
 16 21  1  0
 17 25  1  0
 17 27  1  0
 18 24  1  0
 18 20  1  0
 19 25  1  0
 20 19  1  0
 21 20  2  0
 22 23  1  0
 22 16  2  0
 23 18  2  0
 24 17  1  0
 25 15  1  0
 27 29  2  0
 28 27  1  0
 30 28  1  0
 31 40  2  0
 31 36  1  0
 32 28  1  0
 32 36  1  0
 33 32  1  0
 34 35  1  0
 34 33  1  0
 35 31  1  0
 36 37  2  0
 37 38  1  0
 39 38  2  0
 40 39  1  0
 41 15  1  0
 41 42  1  0
 41 51  1  0
 42 45  1  0
 43 47  1  0
 43 42  1  0
 44 43  2  0
 47 46  1  0
 49 47  1  0
 49 50  1  0
 49 48  1  0
 51 54  1  1
 51 52  1  0
 53 51  1  0
 56 55  1  0
 57 60  1  0
 58 61  1  0
 58 57  1  0
 59 60  1  0
 60 56  1  0
 61 70  1  0
 61 59  1  0
 62 70  1  0
 63 64  1  0
 63 68  1  0
 64 65  1  0
 66 65  1  0
 66 75  1  0
 67 66  1  0
 68 62  1  0
 68 67  1  0
 69 62  2  0
 70 71  1  0
 72 73  2  0
 72 97  1  0
 73 92  1  0
 74 73  1  0
 75 72  1  0
 76 75  1  0
 76 74  2  0
 77 82  1  0
 77 74  1  0
 78 77  2  0
 79 80  2  0
 79 78  1  0
 80 81  1  0
 81 82  2  0
 83 80  1  0
 83 84  1  0
 84 85  1  0
 85 86  2  0
 87 91  1  0
 87 86  1  0
 88 87  2  0
 89 88  1  0
 89 84  2  0
 90 89  1  0
 92 94  2  0
 92 93  1  0
 93 96  1  0
 95 93  1  0
 97 98  1  0
 99 97  1  0
M  ISO  4  13 101  14 101  62 100  70 100
M  END
>  <TORSDO>  (47) 
F 21

>  <SCORE>  (47) 
-6.459

>  <name>  (47) 
47

>  <ligand_id>  (47) 
47

>  <original_smiles>  (47) 
[H]c1c([H])c(C(N([H])[H])=[N+]([H])C([H])([H])C([H])([H])C2([H])C([H])([H])C([H])([H])C([H])(N([H])C(=O)N3C([H])([H])C([H])([H])C([H])([H])C([H])(n4nc(-c5c([H])c([H])c(Oc6c([H])c([H])c(F)c([H])c6F)c([H])c5[H])c(C(=O)N([H])[H])c4N([H])[H])C3([H])[H])C2([H])[H])c([H])c(C([H])([H])Oc2c([H])c([H])c3c(c2[H])C([H])([H])N(C(=O)C([H])(N([H])C(=O)C([H])(N([H])C([H])([H])[H])C([H])([H])[H])C(C([H])([H])[H])(C([H])([H])[H])C([H])([H])[H])C([H])(C(=O)N([H])C2([H])c4c([H])c([H])c([H])c([H])c4C([H])([H])C([H])([H])C2([H])[H])C3([H])[H])c1[H]

>  <smiles>  (47) 
[H]c1c([H])c(C(N([H])[H])=[N+]([H])C([H])([H])C([H])([H])C2([H])C([H])([H])C([H])([H])C([H])(N([H])C(=O)N3C([H])([H])C([H])([H])C([H])([H])C([H])(n4nc(-c5c([H])c([H])c(Oc6c([H])c([H])c(F)c([H])c6F)c([H])c5[H])c(C(=O)N([H])[H])c4N([H])[H])C3([H])[H])C2([H])[H])c([H])c(C([H])([H])Oc2c([H])c([H])c3c(c2[H])C([H])([H])N(C(=O)C([H])(N([H])C(=O)C([H])(N([H])C([H])([H])[H])C([H])([H])[H])C(C([H])([H])[H])(C([H])([H])[H])C([H])([H])[H])C([H])(C(=O)N([H])C2([H])c4c([H])c([H])c([H])c([H])c4C([H])([H])C([H])([H])C2([H])[H])C3([H])[H])c1[H]

$$$$
48:0:0
     RDKit          3D

 94100  0  0  1  0  0  0  0  0999 V2000
  -31.0870  -23.1820   20.3620 C   0  0  0  0  0  2  0  0  0  0  0  0
  -26.8330  -24.6890   22.3920 C   0  0  0  0  0  3  0  0  0  0  0  0
  -28.3040  -25.6890   22.6650 C   0  0  0  0  0  3  0  0  0  0  0  0
  -26.9390  -23.2860   21.2950 C   0  0  0  0  0  3  0  0  0  0  0  0
  -29.7690  -25.2400   21.7680 C   0  0  0  0  0  3  0  0  0  0  0  0
  -28.4150  -22.6830   20.5640 C   0  0  0  0  0  0  0  0  0  0  0  0
  -29.7510  -23.7870   20.7300 C   0  0  0  0  0  0  0  0  0  0  0  0
  -28.5900  -20.8080   20.0830 C   0  0  0  0  0  1  0  0  0  0  0  0
  -29.5460  -19.0530   20.3880 C   0  0  0  0  0  1  0  0  0  0  0  0
  -30.2090  -15.8260   19.9090 C   0  0  0  0  0  0  0  0  0  0  0  0
  -30.3160  -13.2750   18.9720 C   0  0  0  0  0  2  0  0  0  0  0  0
  -29.3780  -12.7420   17.8410 C   0  0  0  0  0  2  0  0  0  0  0  0
  -27.9960  -12.3530   18.3810 C   0  0  0  0  0  2  0  0  0  0  0  0
  -27.5270  -13.3350   19.4720 C   0  0  0  0  0  3  0  0  0  0  0  0
  -28.6050  -13.7370   20.5060 C   0  0  0  0  0  2  0  0  0  0  0  0
  -29.6900  -14.4420   19.7700 N   0  0  0  0  0  0  0  0  0  0  0  0
  -31.4450  -15.7230   19.7340 O   0  0  0  0  0  0  0  0  0  0  0  0
  -29.4630  -17.2360   20.0400 N   0  0  0  0  0  0  0  0  0  0  0  0
  -28.4830  -17.0290   19.9120 H   0  0  0  0  0  0  0  0  0  0  0  0
  -25.2200  -13.8090   20.4000 C   0  0  0  0  0  0  0  0  0  0  0  0
  -24.1980  -13.0080   20.8200 C   0  0  0  0  0  0  0  0  0  0  0  0
  -24.6850  -11.6670   20.7400 C   0  0  0  0  0  0  0  0  0  0  0  0
  -26.2600  -12.9580   20.0770 N   0  0  0  0  0  0  0  0  0  0  0  0
  -25.9580  -11.6590   20.3480 N   0  0  0  0  0  0  0  0  0  0  0  0
  -23.9860  -10.3930   20.9560 C   0  0  0  0  0  0  0  0  0  0  0  0
  -24.4400   -9.4490   21.9020 C   0  0  0  0  0  3  0  0  0  0  0  0
  -23.7330   -8.2430   22.1090 C   0  0  0  0  0  3  0  0  0  0  0  0
  -22.5570   -7.9740   21.3680 C   0  0  0  0  0  0  0  0  0  0  0  0
  -22.1210   -8.9080   20.4120 C   0  0  0  0  0  3  0  0  0  0  0  0
  -22.8280  -10.1040   20.2060 C   0  0  0  0  0  3  0  0  0  0  0  0
  -21.8210   -6.8190   21.4810 O   0  0  0  0  0  0  0  0  0  0  0  0
  -21.7590   -6.1180   22.6560 C   0  0  0  0  0  0  0  0  0  0  0  0
  -21.2720   -6.7030   23.8470 C   0  0  0  0  0  3  0  0  0  0  0  0
  -21.1580   -5.9240   25.0180 C   0  0  0  0  0  3  0  0  0  0  0  0
  -21.5210   -4.5640   24.9960 C   0  0  0  0  0  0  0  0  0  0  0  0
  -21.9990   -3.9800   23.8100 C   0  0  0  0  0  3  0  0  0  0  0  0
  -22.1120   -4.7540   22.6420 C   0  0  0  0  0  0  0  0  0  0  0  0
  -22.5530   -4.1800   21.4970 F   0  0  0  0  0  0  0  0  0  0  0  0
  -21.4060   -3.8150   26.1180 F   0  0  0  0  0  0  0  0  0  0  0  0
  -22.8140  -13.4650   21.1700 C   0  0  0  0  0  0  0  0  0  0  0  0
  -22.1450  -12.7500   22.0660 N   0  0  0  0  0  0  0  0  0  0  0  0
  -22.3380  -14.4930   20.6890 O   0  0  0  0  0  0  0  0  0  0  0  0
  -22.5440  -11.9170   22.4680 H   0  0  0  0  0  0  0  0  0  0  0  0
  -21.2230  -13.0460   22.3540 H   0  0  0  0  0  0  0  0  0  0  0  0
  -25.3440  -15.1830   20.2300 N   0  0  0  0  0  0  0  0  0  0  0  0
  -24.5660  -15.8120   20.3970 H   0  0  0  0  0  0  0  0  0  0  0  0
  -26.1400  -15.6450   19.8120 H   0  0  0  0  0  0  0  0  0  0  0  0
  -31.8150  -22.5950   21.6000 C   0  0  0  0  0  2  0  0  0  0  0  0
  -30.9080  -22.1390   22.6840 N   0  0  0  0  0  4  0  0  0  0  0  0
  -31.4650  -21.6700   23.3850 H   0  0  0  0  0  0  0  0  0  0  0  0
  -30.2520  -21.4660   22.3330 H   0  0  0  0  0  0  0  0  0  0  0  0
  -30.1590  -23.2140   23.3760 C   0  0  0  0  0  2  0  0  0  0  0  0
  -28.7810  -23.6040   22.6560 C   0  0  0  0  0  1  0  0  0  0  0  0
  -28.2330  -25.2820   20.4090 O   0  0  0  0  0  1  0  0  0  0  0  0
  -24.5840  -31.7450   22.9960 C   0  0  0  0  0  0  0  0  0  0  0  0
  -27.3970  -26.6840   20.1660 C   0  0  0  0  0  0  0  0  0  0  0  0
  -23.5180  -30.3240   21.2970 C   0  0  0  0  0  3  0  0  0  0  0  0
  -25.0830  -28.7290   19.9330 C   0  0  0  0  0  0  0  0  0  0  0  0
  -26.0940  -30.5260   21.3100 C   0  0  0  0  0  2  0  0  0  0  0  0
  -26.2330  -29.0960   20.6460 C   0  0  0  0  0  0  0  0  0  0  0  0
  -27.3610  -28.1080   20.7360 C   0  0  0  0  0  3  0  0  0  0  0  0
  -26.2300  -26.5790   19.3500 C   0  0  0  0  0  3  0  0  0  0  0  0
  -25.1270  -27.4960   19.2620 C   0  0  0  0  0  3  0  0  0  0  0  0
  -23.8470  -29.6450   19.9300 C   0  0  0  0  0  2  0  0  0  0  0  0
  -24.7500  -30.9030   21.9170 N   0  0  0  0  0  0  0  0  0  0  0  0
  -23.4600  -32.0130   23.4540 O   0  0  0  0  0  0  0  0  0  0  0  0
  -22.7830  -29.3220   22.2280 C   0  0  0  0  0  0  0  0  0  0  0  0
  -21.4450  -29.1900   22.0960 N   0  0  0  0  0  0  0  0  0  0  0  0
  -23.4270  -28.6610   23.0450 O   0  0  0  0  0  0  0  0  0  0  0  0
  -20.9730  -29.7670   21.4200 H   0  0  0  0  0  0  0  0  0  0  0  0
  -18.0290  -28.0650   22.6780 C   0  0  0  0  0  0  0  0  0  0  0  0
  -20.6100  -28.2290   22.8350 C   0  0  0  0  0  3  0  0  0  0  0  0
  -20.6220  -26.8360   22.1600 C   0  0  0  0  0  2  0  0  0  0  0  0
  -19.4680  -26.6300   21.1740 C   0  0  0  0  0  2  0  0  0  0  0  0
  -18.1240  -26.7700   21.8890 C   0  0  0  0  0  2  0  0  0  0  0  0
  -19.1930  -28.7590   23.1070 C   0  0  0  0  0  0  0  0  0  0  0  0
  -19.0420  -29.9740   23.8110 C   0  0  0  0  0  3  0  0  0  0  0  0
  -17.7610  -30.4940   24.0800 C   0  0  0  0  0  3  0  0  0  0  0  0
  -16.6160  -29.8010   23.6550 C   0  0  0  0  0  3  0  0  0  0  0  0
  -16.7510  -28.5850   22.9640 C   0  0  0  0  0  3  0  0  0  0  0  0
  -25.7950  -32.4270   23.7010 C   0  0  0  0  0  3  0  0  0  0  0  0
  -25.4020  -33.8100   24.0440 N   0  0  0  0  0  0  0  0  0  0  0  0
  -25.7300  -34.9050   23.3430 C   0  0  0  0  0  0  0  0  0  0  0  0
  -26.4510  -34.8620   22.3450 O   0  0  0  0  0  0  0  0  0  0  0  0
  -24.7600  -33.9170   24.8150 H   0  0  0  0  0  0  0  0  0  0  0  0
  -23.9600  -36.6610   22.9810 C   0  0  0  0  0  1  0  0  0  0  0  0
  -25.1770  -36.2610   23.8290 C   0  0  0  0  0  3  0  0  0  0  0  0
  -27.2390  -37.1860   24.7920 C   0  0  0  0  0  1  0  0  0  0  0  0
  -26.1770  -37.3500   23.8010 N   0  0  0  0  0  0  0  0  0  0  0  0
  -25.7340  -38.2510   23.9610 H   0  0  0  0  0  0  0  0  0  0  0  0
  -26.2670  -31.6640   25.0000 C   0  0  1  0  0  0  0  0  0  0  0  0
  -25.1290  -31.3970   26.0100 C   0  0  0  0  0  1  0  0  0  0  0  0
  -26.9080  -30.3020   24.6530 C   0  0  0  0  0  1  0  0  0  0  0  0
  -27.3650  -32.4930   25.7120 C   0  0  0  0  0  1  0  0  0  0  0  0
  1  7  1  0
  1 48  1  0
  2  3  1  0
  4  2  2  0
  5  3  2  0
  6  7  2  0
  6  4  1  0
  7  5  1  0
  8  6  1  0
 10 18  1  0
 11 16  1  0
 12 13  1  0
 12 11  1  0
 14 13  1  0
 14 23  1  0
 14 15  1  0
 16 10  1  0
 16 15  1  0
 17 10  2  0
 18  9  1  0
 19 18  1  0
 20 21  2  0
 21 40  1  0
 22 21  1  0
 22 25  1  0
 23 24  1  0
 23 20  1  0
 24 22  2  0
 25 26  1  0
 26 27  2  0
 28 31  1  0
 28 27  1  0
 29 28  2  0
 30 29  1  0
 30 25  2  0
 31 32  1  0
 32 33  1  0
 33 34  2  0
 35 34  1  0
 35 39  1  0
 36 35  2  0
 37 32  2  0
 37 36  1  0
 38 37  1  0
 40 41  1  0
 41 44  1  0
 41 43  1  0
 42 40  2  0
 45 46  1  0
 45 20  1  0
 47 45  1  0
 48 49  1  0
 49 52  1  0
 49 50  1  0
 51 49  1  0
 53 52  1  0
 55 66  2  0
 56 54  1  0
 56 61  1  0
 57 65  1  0
 57 67  1  0
 58 60  1  0
 59 65  1  0
 60 61  2  0
 60 59  1  0
 62 56  2  0
 63 62  1  0
 63 58  2  0
 64 58  1  0
 64 57  1  0
 65 55  1  0
 67 69  2  0
 68 67  1  0
 70 68  1  0
 71 80  2  0
 71 76  1  0
 72 68  1  0
 72 76  1  0
 73 72  1  0
 74 75  1  0
 74 73  1  0
 75 71  1  0
 76 77  2  0
 77 78  1  0
 79 78  2  0
 80 79  1  0
 81 55  1  0
 81 82  1  0
 81 91  1  0
 82 85  1  0
 83 87  1  0
 83 82  1  0
 84 83  2  0
 87 86  1  0
 89 87  1  0
 89 90  1  0
 89 88  1  0
 91 94  1  1
 91 92  1  0
 93 91  1  0
M  ISO  4  10 100  18 100  53 101  54 101
M  END
>  <TORSDO>  (48) 
F 23

>  <SCORE>  (48) 
-14.321

>  <name>  (48) 
48

>  <ligand_id>  (48) 
48

>  <original_smiles>  (48) 
[H]c1c([H])c([H])c(C([H])([H])C([H])([H])[N+]([H])([H])C([H])([H])C([H])([H])Oc2c([H])c([H])c3c(c2[H])C([H])([H])N(C(=O)C([H])(N([H])C(=O)C([H])(N([H])C([H])([H])[H])C([H])([H])[H])C(C([H])([H])[H])(C([H])([H])[H])C([H])([H])[H])C([H])(C(=O)N([H])C2([H])c4c([H])c([H])c([H])c([H])c4C([H])([H])C([H])([H])C2([H])[H])C3([H])[H])c(C([H])([H])C([H])([H])N([H])C(=O)N2C([H])([H])C([H])([H])C([H])([H])C([H])(n3nc(-c4c([H])c([H])c(Oc5c([H])c([H])c(F)c([H])c5F)c([H])c4[H])c(C(=O)N([H])[H])c3N([H])[H])C2([H])[H])c1[H]

>  <smiles>  (48) 
[H]c1c([H])c([H])c(C([H])([H])C([H])([H])[N+]([H])([H])C([H])([H])C([H])([H])Oc2c([H])c([H])c3c(c2[H])C([H])([H])N(C(=O)C([H])(N([H])C(=O)C([H])(N([H])C([H])([H])[H])C([H])([H])[H])C(C([H])([H])[H])(C([H])([H])[H])C([H])([H])[H])C([H])(C(=O)N([H])C2([H])c4c([H])c([H])c([H])c([H])c4C([H])([H])C([H])([H])C2([H])[H])C3([H])[H])c(C([H])([H])C([H])([H])N([H])C(=O)N2C([H])([H])C([H])([H])C([H])([H])C([H])(n3nc(-c4c([H])c([H])c(Oc5c([H])c([H])c(F)c([H])c5F)c([H])c4[H])c(C(=O)N([H])[H])c3N([H])[H])C2([H])[H])c1[H]

$$$$
49:0:0
     RDKit          3D

 97105  0  0  1  0  0  0  0  0999 V2000
  -25.3710  -21.0610   22.6990 C   0  0  0  0  0  3  0  0  0  0  0  0
  -27.7600  -20.6530   22.5080 C   0  0  0  0  0  3  0  0  0  0  0  0
  -26.6490  -21.5030   22.3030 C   0  0  0  0  0  0  0  0  0  0  0  0
  -25.1930  -19.8070   23.3120 C   0  0  0  0  0  0  0  0  0  0  0  0
  -27.6030  -19.3800   23.1090 C   0  0  0  0  0  0  0  0  0  0  0  0
  -26.3080  -18.9510   23.5190 C   0  0  0  0  0  0  0  0  0  0  0  0
  -23.7870  -19.4070   23.7330 C   0  0  0  0  0  1  0  0  0  0  0  0
  -26.1050  -17.5910   24.1870 C   0  0  0  0  0  1  0  0  0  0  0  0
  -26.7840  -22.8500   21.6450 C   0  0  0  0  0  0  0  0  0  0  0  0
  -27.8490  -23.5790   21.9980 N   0  0  0  0  0  0  0  0  0  0  0  0
  -25.8970  -23.2800   20.9040 O   0  0  0  0  0  0  0  0  0  0  0  0
  -28.5080  -23.1570   22.6370 H   0  0  0  0  0  0  0  0  0  0  0  0
  -27.9890  -25.0120   21.7370 C   0  0  0  0  0  2  0  0  0  0  0  0
  -28.3810  -25.3440   20.2810 C   0  0  0  0  0  2  0  0  0  0  0  0
  -28.4270  -26.7600   20.0840 O   0  0  0  0  0  0  0  0  0  0  0  0
  -24.6140  -31.8690   23.2110 C   0  0  0  0  0  0  0  0  0  0  0  0
  -27.2380  -27.4560   20.0880 C   0  0  0  0  0  0  0  0  0  0  0  0
  -23.3990  -30.4940   21.5510 C   0  0  0  0  0  3  0  0  0  0  0  0
  -24.8430  -28.9610   20.1170 C   0  0  0  0  0  0  0  0  0  0  0  0
  -25.9270  -30.8410   21.3600 C   0  0  0  0  0  2  0  0  0  0  0  0
  -26.0020  -29.4780   20.7080 C   0  0  0  0  0  0  0  0  0  0  0  0
  -27.2010  -28.7340   20.6870 C   0  0  0  0  0  3  0  0  0  0  0  0
  -26.0590  -26.9470   19.4940 C   0  0  0  0  0  3  0  0  0  0  0  0
  -24.8660  -27.6940   19.5090 C   0  0  0  0  0  3  0  0  0  0  0  0
  -23.6040  -29.8260   20.1650 C   0  0  0  0  0  2  0  0  0  0  0  0
  -24.6650  -31.0810   22.1000 N   0  0  0  0  0  0  0  0  0  0  0  0
  -23.5340  -32.1410   23.7530 O   0  0  0  0  0  0  0  0  0  0  0  0
  -22.7380  -29.4680   22.4990 C   0  0  0  0  0  0  0  0  0  0  0  0
  -21.4110  -29.3060   22.3730 N   0  0  0  0  0  0  0  0  0  0  0  0
  -23.4170  -28.8210   23.3020 O   0  0  0  0  0  0  0  0  0  0  0  0
  -20.9280  -29.8750   21.6940 H   0  0  0  0  0  0  0  0  0  0  0  0
  -18.0260  -28.1390   22.8500 C   0  0  0  0  0  0  0  0  0  0  0  0
  -20.5840  -28.3680   23.1320 C   0  0  0  0  0  3  0  0  0  0  0  0
  -20.6770  -26.9420   22.5390 C   0  0  0  0  0  2  0  0  0  0  0  0
  -19.5710  -26.6370   21.5230 C   0  0  0  0  0  2  0  0  0  0  0  0
  -18.1910  -26.7910   22.1680 C   0  0  0  0  0  2  0  0  0  0  0  0
  -19.1510  -28.8860   23.2910 C   0  0  0  0  0  0  0  0  0  0  0  0
  -18.9430  -30.1470   23.8900 C   0  0  0  0  0  3  0  0  0  0  0  0
  -17.6430  -30.6600   24.0570 C   0  0  0  0  0  3  0  0  0  0  0  0
  -16.5330  -29.9090   23.6350 C   0  0  0  0  0  3  0  0  0  0  0  0
  -16.7250  -28.6520   23.0360 C   0  0  0  0  0  3  0  0  0  0  0  0
  -25.9040  -32.4820   23.8390 C   0  0  0  0  0  3  0  0  0  0  0  0
  -25.5910  -33.8620   24.2340 N   0  0  0  0  0  0  0  0  0  0  0  0
  -25.9040  -34.9470   23.5140 C   0  0  0  0  0  0  0  0  0  0  0  0
  -26.5580  -34.8920   22.4700 O   0  0  0  0  0  0  0  0  0  0  0  0
  -25.0110  -33.9770   25.0510 H   0  0  0  0  0  0  0  0  0  0  0  0
  -24.1500  -36.7320   23.2640 C   0  0  0  0  0  1  0  0  0  0  0  0
  -25.4120  -36.3100   24.0340 C   0  0  0  0  0  3  0  0  0  0  0  0
  -27.5590  -37.1810   24.8460 C   0  0  0  0  0  1  0  0  0  0  0  0
  -26.4300  -37.3790   23.9410 N   0  0  0  0  0  0  0  0  0  0  0  0
  -26.0190  -38.2880   24.1380 H   0  0  0  0  0  0  0  0  0  0  0  0
  -26.4470  -31.6590   25.0710 C   0  0  1  0  0  0  0  0  0  0  0  0
  -25.3740  -31.3700   26.1460 C   0  0  0  0  0  1  0  0  0  0  0  0
  -27.0310  -30.3050   24.6060 C   0  0  0  0  0  1  0  0  0  0  0  0
  -27.6060  -32.4310   25.7470 C   0  0  0  0  0  1  0  0  0  0  0  0
  -28.8340  -18.4790   23.2500 C   0  0  0  0  0  2  0  0  0  0  0  0
  -28.9650  -17.6640   22.0290 N   0  0  0  0  0  4  0  0  0  0  0  0
  -29.2180  -18.2880   21.2790 H   0  0  0  0  0  0  0  0  0  0  0  0
  -28.0440  -17.3140   21.8250 H   0  0  0  0  0  0  0  0  0  0  0  0
  -29.9190  -16.5250   22.0540 C   0  0  0  0  0  2  0  0  0  0  0  0
  -29.8370  -15.7810   20.7070 C   0  0  0  0  0  2  0  0  0  0  0  0
  -30.6710  -14.4910   20.5270 C   0  0  0  0  0  0  0  0  0  0  0  0
  -30.4240  -12.2970   19.4400 C   0  0  0  0  0  2  0  0  0  0  0  0
  -29.5000  -12.4740   18.2150 C   0  0  0  0  0  2  0  0  0  0  0  0
  -28.0200  -12.3130   18.6190 C   0  0  0  0  0  2  0  0  0  0  0  0
  -27.6470  -13.1840   19.8450 C   0  0  0  0  0  3  0  0  0  0  0  0
  -28.6870  -13.0250   20.9800 C   0  0  0  0  0  2  0  0  0  0  0  0
  -30.0260  -13.2970   20.4400 N   0  0  0  0  0  0  0  0  0  0  0  0
  -31.8480  -14.6330   20.1850 O   0  0  0  0  0  0  0  0  0  0  0  0
  -25.2600  -13.8100   20.5670 C   0  0  0  0  0  0  0  0  0  0  0  0
  -24.1830  -13.0420   20.9210 C   0  0  0  0  0  0  0  0  0  0  0  0
  -24.6340  -11.6880   20.8720 C   0  0  0  0  0  0  0  0  0  0  0  0
  -26.2940  -12.9190   20.3200 N   0  0  0  0  0  0  0  0  0  0  0  0
  -25.9240  -11.6400   20.5700 N   0  0  0  0  0  0  0  0  0  0  0  0
  -23.9000  -10.4280   21.0410 C   0  0  0  0  0  0  0  0  0  0  0  0
  -24.3570   -9.4210   21.9190 C   0  0  0  0  0  3  0  0  0  0  0  0
  -23.6260   -8.2240   22.0750 C   0  0  0  0  0  3  0  0  0  0  0  0
  -22.4250   -8.0270   21.3550 C   0  0  0  0  0  0  0  0  0  0  0  0
  -21.9870   -9.0240   20.4650 C   0  0  0  0  0  3  0  0  0  0  0  0
  -22.7180  -10.2130   20.3070 C   0  0  0  0  0  3  0  0  0  0  0  0
  -21.6630   -6.8850   21.4240 O   0  0  0  0  0  0  0  0  0  0  0  0
  -21.6850   -6.0720   22.5280 C   0  0  0  0  0  0  0  0  0  0  0  0
  -21.4010   -6.5630   23.8200 C   0  0  0  0  0  3  0  0  0  0  0  0
  -21.3660   -5.6790   24.9170 C   0  0  0  0  0  3  0  0  0  0  0  0
  -21.6050   -4.3050   24.7230 C   0  0  0  0  0  0  0  0  0  0  0  0
  -21.8820   -3.8140   23.4350 C   0  0  0  0  0  3  0  0  0  0  0  0
  -21.9190   -4.6950   22.3400 C   0  0  0  0  0  0  0  0  0  0  0  0
  -22.1660   -4.2140   21.0980 F   0  0  0  0  0  0  0  0  0  0  0  0
  -21.5630   -3.4540   25.7740 F   0  0  0  0  0  0  0  0  0  0  0  0
  -22.7870  -13.5260   21.1860 C   0  0  0  0  0  0  0  0  0  0  0  0
  -22.0490  -12.8260   22.0410 N   0  0  0  0  0  0  0  0  0  0  0  0
  -22.3580  -14.5570   20.6700 O   0  0  0  0  0  0  0  0  0  0  0  0
  -22.4090  -11.9910   22.4770 H   0  0  0  0  0  0  0  0  0  0  0  0
  -21.1120  -13.1320   22.2630 H   0  0  0  0  0  0  0  0  0  0  0  0
  -25.4380  -15.1820   20.4090 N   0  0  0  0  0  0  0  0  0  0  0  0
  -24.6590  -15.8260   20.4940 H   0  0  0  0  0  0  0  0  0  0  0  0
  -26.2510  -15.6000   19.9780 H   0  0  0  0  0  0  0  0  0  0  0  0
  1  4  1  0
  2  5  2  0
  3  2  1  0
  3  1  2  0
  4  6  2  0
  4  7  1  0
  5 56  1  0
  5  6  1  0
  6  8  1  0
  9 10  1  0
  9  3  1  0
 10 12  1  0
 11  9  2  0
 13 10  1  0
 14 13  1  0
 15 17  1  0
 15 14  1  0
 16 27  2  0
 17 22  1  0
 18 26  1  0
 18 28  1  0
 19 25  1  0
 19 21  1  0
 20 26  1  0
 21 20  1  0
 22 21  2  0
 23 24  1  0
 23 17  2  0
 24 19  2  0
 25 18  1  0
 26 16  1  0
 28 30  2  0
 29 28  1  0
 31 29  1  0
 32 41  2  0
 32 37  1  0
 33 29  1  0
 33 37  1  0
 34 33  1  0
 35 36  1  0
 35 34  1  0
 36 32  1  0
 37 38  2  0
 38 39  1  0
 40 39  2  0
 41 40  1  0
 42 16  1  0
 42 43  1  0
 42 52  1  0
 43 46  1  0
 44 48  1  0
 44 43  1  0
 45 44  2  0
 48 47  1  0
 50 48  1  0
 50 51  1  0
 50 49  1  0
 52 55  1  1
 52 53  1  0
 54 52  1  0
 57 60  1  0
 57 56  1  0
 58 57  1  0
 59 57  1  0
 61 60  1  0
 62 61  1  0
 63 68  1  0
 64 65  1  0
 64 63  1  0
 66 65  1  0
 66 73  1  0
 66 67  1  0
 68 62  1  0
 68 67  1  0
 69 62  2  0
 70 71  2  0
 71 90  1  0
 72 71  1  0
 72 75  1  0
 73 70  1  0
 73 74  1  0
 74 72  2  0
 75 76  1  0
 76 77  2  0
 78 81  1  0
 78 77  1  0
 79 78  2  0
 80 79  1  0
 80 75  2  0
 81 82  1  0
 82 83  1  0
 83 84  2  0
 85 84  1  0
 85 89  1  0
 86 85  2  0
 87 82  2  0
 87 86  1  0
 88 87  1  0
 90 91  1  0
 91 94  1  0
 91 93  1  0
 92 90  2  0
 95 96  1  0
 95 70  1  0
 97 95  1  0
M  ISO  4  14 101  15 101  61 100  62 100
M  END
>  <TORSDO>  (49) 
F 23

>  <SCORE>  (49) 
57.372

>  <name>  (49) 
49

>  <ligand_id>  (49) 
49

>  <original_smiles>  (49) 
[H]c1c([H])c([H])c2c(c1[H])C([H])([H])C([H])([H])C([H])([H])C2([H])N([H])C(=O)C1([H])N(C(=O)C([H])(N([H])C(=O)C([H])(N([H])C([H])([H])[H])C([H])([H])[H])C(C([H])([H])[H])(C([H])([H])[H])C([H])([H])[H])C([H])([H])c2c([H])c(OC([H])([H])C([H])([H])N([H])C(=O)c3c([H])c(C([H])([H])[H])c(C([H])([H])[H])c(C([H])([H])[N+]([H])([H])C([H])([H])C([H])([H])C(=O)N4C([H])([H])C([H])([H])C([H])([H])C([H])(n5nc(-c6c([H])c([H])c(Oc7c([H])c([H])c(F)c([H])c7F)c([H])c6[H])c(C(=O)N([H])[H])c5N([H])[H])C4([H])[H])c3[H])c([H])c([H])c2C1([H])[H]

>  <smiles>  (49) 
[H]c1c([H])c([H])c2c(c1[H])C([H])([H])C([H])([H])C([H])([H])C2([H])N([H])C(=O)C1([H])N(C(=O)C([H])(N([H])C(=O)C([H])(N([H])C([H])([H])[H])C([H])([H])[H])C(C([H])([H])[H])(C([H])([H])[H])C([H])([H])[H])C([H])([H])c2c([H])c(OC([H])([H])C([H])([H])N([H])C(=O)c3c([H])c(C([H])([H])[H])c(C([H])([H])[H])c(C([H])([H])[N+]([H])([H])C([H])([H])C([H])([H])C(=O)N4C([H])([H])C([H])([H])C([H])([H])C([H])(n5nc(-c6c([H])c([H])c(Oc7c([H])c([H])c(F)c([H])c7F)c([H])c6[H])c(C(=O)N([H])[H])c5N([H])[H])C4([H])[H])c3[H])c([H])c([H])c2C1([H])[H]

$$$$
50:0:0
     RDKit          3D

101109  0  0  1  0  0  0  0  0999 V2000
  -27.7550  -26.4180   23.3480 C   0  0  0  0  0  2  0  0  0  0  0  0
  -29.2450  -26.0150   23.2700 C   0  0  0  0  0  2  0  0  0  0  0  0
  -29.1600  -23.8210   21.9610 C   0  0  0  0  0  2  0  0  0  0  0  0
  -26.6940  -25.3450   22.9850 C   0  0  0  0  0  2  0  0  0  0  0  0
  -29.4750  -24.4990   23.3240 C   0  0  0  0  0  3  0  0  0  0  0  0
  -28.0610  -24.4140   21.0080 C   0  0  0  0  0  3  0  0  0  0  0  0
  -26.7520  -24.7940   21.6100 N   0  0  0  0  0  4  0  0  0  0  0  0
  -26.3140  -25.4650   20.9940 H   0  0  0  0  0  0  0  0  0  0  0  0
  -26.1560  -23.9780   21.5980 H   0  0  0  0  0  0  0  0  0  0  0  0
  -30.8480  -24.1830   23.8120 N   0  0  0  0  0  4  0  0  0  0  0  0
  -31.1870  -25.0300   24.2430 H   0  0  0  0  0  0  0  0  0  0  0  0
  -31.4830  -24.0020   23.0500 H   0  0  0  0  0  0  0  0  0  0  0  0
  -30.9670  -23.1520   24.8830 C   0  0  0  0  0  2  0  0  0  0  0  0
  -31.7140  -21.8640   24.4670 C   0  0  0  0  0  2  0  0  0  0  0  0
  -30.8930  -20.9530   23.5390 C   0  0  0  0  0  2  0  0  0  0  0  0
  -31.5230  -19.6360   23.3020 N   0  0  0  0  0  4  0  0  0  0  0  0
  -32.5170  -19.7440   23.1710 H   0  0  0  0  0  0  0  0  0  0  0  0
  -31.3820  -19.0600   24.1160 H   0  0  0  0  0  0  0  0  0  0  0  0
  -30.9700  -18.9470   22.1160 C   0  0  0  0  0  2  0  0  0  0  0  0
  -30.9140  -17.4200   22.2820 C   0  0  0  0  0  2  0  0  0  0  0  0
  -30.2490  -16.7750   21.0580 C   0  0  0  0  0  2  0  0  0  0  0  0
  -30.7240  -14.3880   20.6030 C   0  0  0  0  0  0  0  0  0  0  0  0
  -30.4210  -12.2660   19.4050 C   0  0  0  0  0  2  0  0  0  0  0  0
  -29.4960  -12.5190   18.1990 C   0  0  0  0  0  2  0  0  0  0  0  0
  -28.0120  -12.3950   18.6000 C   0  0  0  0  0  2  0  0  0  0  0  0
  -27.6690  -13.2020   19.8830 C   0  0  0  0  0  3  0  0  0  0  0  0
  -28.7080  -12.9310   20.9970 C   0  0  0  0  0  2  0  0  0  0  0  0
  -30.0500  -13.2210   20.4560 N   0  0  0  0  0  0  0  0  0  0  0  0
  -31.8170  -14.6220   20.0840 O   0  0  0  0  0  0  0  0  0  0  0  0
  -30.0290  -15.3440   21.2240 N   0  0  0  0  0  0  0  0  0  0  0  0
  -29.1440  -15.0590   21.6170 H   0  0  0  0  0  0  0  0  0  0  0  0
  -25.2640  -13.8160   20.5660 C   0  0  0  0  0  0  0  0  0  0  0  0
  -24.1870  -13.0460   20.9160 C   0  0  0  0  0  0  0  0  0  0  0  0
  -24.6410  -11.6920   20.8730 C   0  0  0  0  0  0  0  0  0  0  0  0
  -26.3070  -12.9320   20.3370 N   0  0  0  0  0  0  0  0  0  0  0  0
  -25.9340  -11.6480   20.5760 N   0  0  0  0  0  0  0  0  0  0  0  0
  -23.9060  -10.4310   21.0390 C   0  0  0  0  0  0  0  0  0  0  0  0
  -24.3630   -9.4230   21.9160 C   0  0  0  0  0  3  0  0  0  0  0  0
  -23.6310   -8.2260   22.0730 C   0  0  0  0  0  3  0  0  0  0  0  0
  -22.4290   -8.0280   21.3530 C   0  0  0  0  0  0  0  0  0  0  0  0
  -21.9920   -9.0250   20.4630 C   0  0  0  0  0  3  0  0  0  0  0  0
  -22.7230  -10.2130   20.3030 C   0  0  0  0  0  3  0  0  0  0  0  0
  -21.6650   -6.8890   21.4240 O   0  0  0  0  0  0  0  0  0  0  0  0
  -21.6860   -6.0740   22.5290 C   0  0  0  0  0  0  0  0  0  0  0  0
  -21.4020   -6.5640   23.8220 C   0  0  0  0  0  3  0  0  0  0  0  0
  -21.3660   -5.6780   24.9180 C   0  0  0  0  0  3  0  0  0  0  0  0
  -21.6050   -4.3050   24.7220 C   0  0  0  0  0  0  0  0  0  0  0  0
  -21.8820   -3.8150   23.4340 C   0  0  0  0  0  3  0  0  0  0  0  0
  -21.9200   -4.6970   22.3400 C   0  0  0  0  0  0  0  0  0  0  0  0
  -22.1660   -4.2160   21.0980 F   0  0  0  0  0  0  0  0  0  0  0  0
  -21.5630   -3.4530   25.7730 F   0  0  0  0  0  0  0  0  0  0  0  0
  -22.7890  -13.5260   21.1800 C   0  0  0  0  0  0  0  0  0  0  0  0
  -22.0510  -12.8280   22.0370 N   0  0  0  0  0  0  0  0  0  0  0  0
  -22.3590  -14.5560   20.6640 O   0  0  0  0  0  0  0  0  0  0  0  0
  -22.4100  -11.9960   22.4830 H   0  0  0  0  0  0  0  0  0  0  0  0
  -21.1110  -13.1280   22.2500 H   0  0  0  0  0  0  0  0  0  0  0  0
  -25.4390  -15.1870   20.4060 N   0  0  0  0  0  0  0  0  0  0  0  0
  -24.6730  -15.8450   20.5060 H   0  0  0  0  0  0  0  0  0  0  0  0
  -26.2970  -15.6230   20.0920 H   0  0  0  0  0  0  0  0  0  0  0  0
  -28.5130  -25.3750   19.8620 C   0  0  0  0  0  2  0  0  0  0  0  0
  -28.4420  -26.7740   20.1570 O   0  0  0  0  0  0  0  0  0  0  0  0
  -24.6140  -31.8670   23.2110 C   0  0  0  0  0  0  0  0  0  0  0  0
  -27.2460  -27.4630   20.0790 C   0  0  0  0  0  0  0  0  0  0  0  0
  -23.3980  -30.4920   21.5510 C   0  0  0  0  0  3  0  0  0  0  0  0
  -24.8450  -28.9640   20.1100 C   0  0  0  0  0  0  0  0  0  0  0  0
  -25.9250  -30.8460   21.3560 C   0  0  0  0  0  2  0  0  0  0  0  0
  -26.0030  -29.4850   20.6960 C   0  0  0  0  0  0  0  0  0  0  0  0
  -27.2030  -28.7470   20.6650 C   0  0  0  0  0  3  0  0  0  0  0  0
  -26.0680  -26.9530   19.4780 C   0  0  0  0  0  3  0  0  0  0  0  0
  -24.8730  -27.7000   19.4960 C   0  0  0  0  0  3  0  0  0  0  0  0
  -23.6020  -29.8230   20.1650 C   0  0  0  0  0  2  0  0  0  0  0  0
  -24.6630  -31.0820   22.0980 N   0  0  0  0  0  0  0  0  0  0  0  0
  -23.5330  -32.1410   23.7520 O   0  0  0  0  0  0  0  0  0  0  0  0
  -22.7410  -29.4650   22.4990 C   0  0  0  0  0  0  0  0  0  0  0  0
  -21.4130  -29.3030   22.3760 N   0  0  0  0  0  0  0  0  0  0  0  0
  -23.4210  -28.8160   23.2980 O   0  0  0  0  0  0  0  0  0  0  0  0
  -20.9280  -29.8760   21.7000 H   0  0  0  0  0  0  0  0  0  0  0  0
  -18.0270  -28.1370   22.8500 C   0  0  0  0  0  0  0  0  0  0  0  0
  -20.5860  -28.3650   23.1340 C   0  0  0  0  0  3  0  0  0  0  0  0
  -20.6770  -26.9400   22.5440 C   0  0  0  0  0  2  0  0  0  0  0  0
  -19.5750  -26.6390   21.5230 C   0  0  0  0  0  2  0  0  0  0  0  0
  -18.1910  -26.7930   22.1620 C   0  0  0  0  0  2  0  0  0  0  0  0
  -19.1520  -28.8830   23.2920 C   0  0  0  0  0  0  0  0  0  0  0  0
  -18.9450  -30.1440   23.8930 C   0  0  0  0  0  3  0  0  0  0  0  0
  -17.6450  -30.6590   24.0560 C   0  0  0  0  0  3  0  0  0  0  0  0
  -16.5340  -29.9090   23.6330 C   0  0  0  0  0  3  0  0  0  0  0  0
  -16.7260  -28.6500   23.0350 C   0  0  0  0  0  3  0  0  0  0  0  0
  -25.9040  -32.4820   23.8380 C   0  0  0  0  0  3  0  0  0  0  0  0
  -26.4490  -31.6570   25.0690 C   0  0  1  0  0  0  0  0  0  0  0  0
  -25.3750  -31.3670   26.1430 C   0  0  0  0  0  1  0  0  0  0  0  0
  -27.0330  -30.3010   24.6040 C   0  0  0  0  0  1  0  0  0  0  0  0
  -27.6070  -32.4290   25.7450 C   0  0  0  0  0  1  0  0  0  0  0  0
  -25.5910  -33.8620   24.2330 N   0  0  0  0  0  0  0  0  0  0  0  0
  -25.9040  -34.9470   23.5120 C   0  0  0  0  0  0  0  0  0  0  0  0
  -26.5580  -34.8920   22.4680 O   0  0  0  0  0  0  0  0  0  0  0  0
  -25.0080  -33.9780   25.0490 H   0  0  0  0  0  0  0  0  0  0  0  0
  -24.1490  -36.7310   23.2640 C   0  0  0  0  0  1  0  0  0  0  0  0
  -25.4110  -36.3100   24.0340 C   0  0  0  0  0  3  0  0  0  0  0  0
  -27.5590  -37.1800   24.8460 C   0  0  0  0  0  1  0  0  0  0  0  0
  -26.4310  -37.3790   23.9410 N   0  0  0  0  0  0  0  0  0  0  0  0
  -26.0190  -38.2870   24.1410 H   0  0  0  0  0  0  0  0  0  0  0  0
  2  5  1  0
  2  1  1  0
  3  5  1  0
  4  1  1  0
  5 10  1  0
  6 60  1  0
  6  7  1  0
  6  3  1  0
  7  4  1  0
  8  7  1  0
  9  7  1  0
 10 11  1  0
 10 13  1  0
 12 10  1  0
 14 13  1  0
 15 14  1  0
 16 15  1  0
 16 18  1  0
 17 16  1  0
 19 20  1  0
 19 16  1  0
 21 30  1  0
 21 20  1  0
 22 30  1  0
 23 28  1  0
 24 25  1  0
 24 23  1  0
 26 25  1  0
 26 35  1  0
 26 27  1  0
 28 22  1  0
 28 27  1  0
 29 22  2  0
 30 31  1  0
 32 33  2  0
 33 52  1  0
 34 33  1  0
 34 37  1  0
 35 32  1  0
 35 36  1  0
 36 34  2  0
 37 38  1  0
 38 39  2  0
 40 43  1  0
 40 39  1  0
 41 40  2  0
 42 41  1  0
 42 37  2  0
 43 44  1  0
 44 45  1  0
 45 46  2  0
 47 46  1  0
 47 51  1  0
 48 47  2  0
 49 44  2  0
 49 48  1  0
 50 49  1  0
 52 53  1  0
 53 56  1  0
 53 55  1  0
 54 52  2  0
 57 58  1  0
 57 32  1  0
 59 57  1  0
 60 61  1  0
 62 73  2  0
 63 61  1  0
 63 68  1  0
 64 72  1  0
 64 74  1  0
 65 71  1  0
 65 67  1  0
 66 72  1  0
 67 66  1  0
 68 67  2  0
 69 70  1  0
 69 63  2  0
 70 65  2  0
 71 64  1  0
 72 62  1  0
 74 76  2  0
 75 74  1  0
 77 75  1  0
 78 87  2  0
 78 83  1  0
 79 75  1  0
 79 83  1  0
 80 79  1  0
 81 82  1  0
 81 80  1  0
 82 78  1  0
 83 84  2  0
 84 85  1  0
 86 85  2  0
 87 86  1  0
 88 62  1  0
 88 93  1  0
 88 89  1  0
 89 92  1  1
 89 90  1  0
 91 89  1  0
 93 96  1  0
 94 98  1  0
 94 93  1  0
 95 94  2  0
 98 97  1  0
100 98  1  0
100101  1  0
100 99  1  0
M  ISO  4  22 100  30 100  60 101  61 101
M  END
>  <TORSDO>  (50) 
F 25

>  <SCORE>  (50) 
-9.637

>  <name>  (50) 
50

>  <ligand_id>  (50) 
50

>  <original_smiles>  (50) 
[H]c1c([H])c([H])c2c(c1[H])C([H])([H])C([H])([H])C([H])([H])C2([H])N([H])C(=O)C1([H])N(C(=O)C([H])(N([H])C(=O)C([H])(N([H])C([H])([H])[H])C([H])([H])[H])C(C([H])([H])[H])(C([H])([H])[H])C([H])([H])[H])C([H])([H])c2c([H])c(OC([H])([H])C3([H])C([H])([H])C([H])([N+]([H])([H])C([H])([H])C([H])([H])C([H])([H])[N+]([H])([H])C([H])([H])C([H])([H])C([H])([H])N([H])C(=O)N4C([H])([H])C([H])([H])C([H])([H])C([H])(n5nc(-c6c([H])c([H])c(Oc7c([H])c([H])c(F)c([H])c7F)c([H])c6[H])c(C(=O)N([H])[H])c5N([H])[H])C4([H])[H])C([H])([H])C([H])([H])C([H])([H])[N+]3([H])[H])c([H])c([H])c2C1([H])[H]

>  <smiles>  (50) 
[H]c1c([H])c([H])c2c(c1[H])C([H])([H])C([H])([H])C([H])([H])C2([H])N([H])C(=O)C1([H])N(C(=O)C([H])(N([H])C(=O)C([H])(N([H])C([H])([H])[H])C([H])([H])[H])C(C([H])([H])[H])(C([H])([H])[H])C([H])([H])[H])C([H])([H])c2c([H])c(OC([H])([H])C3([H])C([H])([H])C([H])([N+]([H])([H])C([H])([H])C([H])([H])C([H])([H])[N+]([H])([H])C([H])([H])C([H])([H])C([H])([H])N([H])C(=O)N4C([H])([H])C([H])([H])C([H])([H])C([H])(n5nc(-c6c([H])c([H])c(Oc7c([H])c([H])c(F)c([H])c7F)c([H])c6[H])c(C(=O)N([H])[H])c5N([H])[H])C4([H])[H])C([H])([H])C([H])([H])C([H])([H])[N+]3([H])[H])c([H])c([H])c2C1([H])[H]

$$$$
51:0:0
     RDKit          3D

 99107  0  0  1  0  0  0  0  0999 V2000
  -30.7050  -22.0220   19.2400 C   0  0  0  0  0  3  0  0  0  0  0  0
  -30.5320  -20.8910   18.4360 C   0  0  0  0  0  3  0  0  0  0  0  0
  -31.0080  -20.5860   21.1870 C   0  0  0  0  0  3  0  0  0  0  0  0
  -30.8870  -21.8910   20.6300 C   0  0  0  0  0  0  0  0  0  0  0  0
  -30.9290  -19.4270   20.3690 C   0  0  0  0  0  0  0  0  0  0  0  0
  -30.6240  -19.6060   18.9920 C   0  0  0  0  0  0  0  0  0  0  0  0
  -30.4250  -18.5480   18.1220 N   0  0  0  0  0  0  0  0  0  0  0  0
  -29.8500  -18.7340   17.3090 H   0  0  0  0  0  0  0  0  0  0  0  0
  -30.2060  -17.6530   18.5420 H   0  0  0  0  0  0  0  0  0  0  0  0
  -32.2370  -24.0140   21.0520 C   0  0  0  0  0  1  0  0  0  0  0  0
  -31.0310  -23.1530   21.4890 C   0  0  0  0  0  3  0  0  0  0  0  0
  -29.7680  -23.9370   21.6040 N   0  0  0  0  0  4  0  0  0  0  0  0
  -29.0250  -23.2840   21.7970 H   0  0  0  0  0  0  0  0  0  0  0  0
  -29.8650  -24.5150   22.4260 H   0  0  0  0  0  0  0  0  0  0  0  0
  -29.3730  -24.8180   20.4630 C   0  0  0  0  0  2  0  0  0  0  0  0
  -28.2700  -25.8170   20.8380 C   0  0  0  0  0  2  0  0  0  0  0  0
  -28.1390  -26.7750   19.7890 O   0  0  0  0  0  0  0  0  0  0  0  0
  -24.4980  -31.8350   23.2150 C   0  0  0  0  0  0  0  0  0  0  0  0
  -26.9880  -27.5120   19.8780 C   0  0  0  0  0  0  0  0  0  0  0  0
  -23.2190  -30.4970   21.5730 C   0  0  0  0  0  3  0  0  0  0  0  0
  -24.6060  -28.9990   20.0460 C   0  0  0  0  0  0  0  0  0  0  0  0
  -25.7340  -30.8560   21.2860 C   0  0  0  0  0  2  0  0  0  0  0  0
  -25.7860  -29.5060   20.6050 C   0  0  0  0  0  0  0  0  0  0  0  0
  -26.9850  -28.7650   20.5230 C   0  0  0  0  0  3  0  0  0  0  0  0
  -25.7990  -27.0120   19.3110 C   0  0  0  0  0  3  0  0  0  0  0  0
  -24.6030  -27.7510   19.3990 C   0  0  0  0  0  3  0  0  0  0  0  0
  -23.3720  -29.8610   20.1650 C   0  0  0  0  0  2  0  0  0  0  0  0
  -24.5040  -31.0750   22.0850 N   0  0  0  0  0  0  0  0  0  0  0  0
  -23.4410  -32.0960   23.8070 O   0  0  0  0  0  0  0  0  0  0  0  0
  -22.5980  -29.4490   22.5240 C   0  0  0  0  0  0  0  0  0  0  0  0
  -21.2810  -29.2230   22.3850 N   0  0  0  0  0  0  0  0  0  0  0  0
  -23.2960  -28.8410   23.3380 O   0  0  0  0  0  0  0  0  0  0  0  0
  -20.7790  -29.7690   21.6990 H   0  0  0  0  0  0  0  0  0  0  0  0
  -17.9700  -27.8220   22.7550 C   0  0  0  0  0  0  0  0  0  0  0  0
  -20.4910  -28.2510   23.1400 C   0  0  0  0  0  3  0  0  0  0  0  0
  -20.7110  -26.8180   22.6060 C   0  0  0  0  0  2  0  0  0  0  0  0
  -19.6820  -26.4000   21.5510 C   0  0  0  0  0  2  0  0  0  0  0  0
  -18.2650  -26.4700   22.1270 C   0  0  0  0  0  2  0  0  0  0  0  0
  -19.0160  -28.6640   23.2170 C   0  0  0  0  0  0  0  0  0  0  0  0
  -18.6890  -29.9240   23.7620 C   0  0  0  0  0  3  0  0  0  0  0  0
  -17.3480  -30.3450   23.8520 C   0  0  0  0  0  3  0  0  0  0  0  0
  -16.3160  -29.5000   23.4080 C   0  0  0  0  0  3  0  0  0  0  0  0
  -16.6280  -28.2400   22.8650 C   0  0  0  0  0  3  0  0  0  0  0  0
  -25.8120  -32.4360   23.8080 C   0  0  0  0  0  3  0  0  0  0  0  0
  -26.3510  -31.6390   25.0590 C   0  0  1  0  0  0  0  0  0  0  0  0
  -25.2880  -31.4100   26.1580 C   0  0  0  0  0  1  0  0  0  0  0  0
  -26.8880  -30.2540   24.6260 C   0  0  0  0  0  1  0  0  0  0  0  0
  -27.5400  -32.3980   25.6920 C   0  0  0  0  0  1  0  0  0  0  0  0
  -25.5420  -33.8360   24.1600 N   0  0  0  0  0  0  0  0  0  0  0  0
  -25.8890  -34.8890   23.4060 C   0  0  0  0  0  0  0  0  0  0  0  0
  -26.5430  -34.7800   22.3660 O   0  0  0  0  0  0  0  0  0  0  0  0
  -24.9650  -33.9950   24.9730 H   0  0  0  0  0  0  0  0  0  0  0  0
  -24.2070  -36.7270   23.0820 C   0  0  0  0  0  1  0  0  0  0  0  0
  -25.4400  -36.2830   23.8830 C   0  0  0  0  0  3  0  0  0  0  0  0
  -27.6000  -37.1010   24.7160 C   0  0  0  0  0  1  0  0  0  0  0  0
  -26.5000  -37.3100   23.7800 N   0  0  0  0  0  0  0  0  0  0  0  0
  -26.1190  -38.2380   23.9400 H   0  0  0  0  0  0  0  0  0  0  0  0
  -31.3290  -18.0440   20.9330 C   0  0  0  0  0  2  0  0  0  0  0  0
  -30.2250  -16.9430   21.0070 C   0  0  0  0  0  2  0  0  0  0  0  0
  -31.1660  -14.6680   21.5070 C   0  0  0  0  0  0  0  0  0  0  0  0
  -31.0340  -12.3230   20.8150 C   0  0  0  0  0  2  0  0  0  0  0  0
  -30.3900  -12.2290   19.4130 C   0  0  0  0  0  2  0  0  0  0  0  0
  -28.8510  -12.2790   19.4840 C   0  0  0  0  0  2  0  0  0  0  0  0
  -28.2680  -13.3050   20.4960 C   0  0  0  0  0  3  0  0  0  0  0  0
  -29.0600  -13.3270   21.8230 C   0  0  0  0  0  2  0  0  0  0  0  0
  -30.4790  -13.4980   21.4920 N   0  0  0  0  0  0  0  0  0  0  0  0
  -32.3770  -14.7270   21.7320 O   0  0  0  0  0  0  0  0  0  0  0  0
  -30.6710  -15.5790   20.6220 N   0  0  0  0  0  0  0  0  0  0  0  0
  -25.7940  -13.9860   20.6450 C   0  0  0  0  0  0  0  0  0  0  0  0
  -24.6530  -13.2510   20.8190 C   0  0  0  0  0  0  0  0  0  0  0  0
  -25.0740  -11.8970   20.9850 C   0  0  0  0  0  0  0  0  0  0  0  0
  -26.8410  -13.0810   20.7090 N   0  0  0  0  0  0  0  0  0  0  0  0
  -26.3970  -11.8260   20.9840 N   0  0  0  0  0  0  0  0  0  0  0  0
  -24.2940  -10.6580   21.0900 C   0  0  0  0  0  0  0  0  0  0  0  0
  -24.6020   -9.6700   22.0520 C   0  0  0  0  0  3  0  0  0  0  0  0
  -23.8280   -8.4940   22.1440 C   0  0  0  0  0  3  0  0  0  0  0  0
  -22.7290   -8.2950   21.2740 C   0  0  0  0  0  0  0  0  0  0  0  0
  -22.4410   -9.2710   20.3030 C   0  0  0  0  0  3  0  0  0  0  0  0
  -23.2160  -10.4400   20.2080 C   0  0  0  0  0  3  0  0  0  0  0  0
  -21.9360   -7.1740   21.2760 O   0  0  0  0  0  0  0  0  0  0  0  0
  -21.7960   -6.3940   22.3950 C   0  0  0  0  0  0  0  0  0  0  0  0
  -21.3160   -6.9190   23.6150 C   0  0  0  0  0  3  0  0  0  0  0  0
  -21.1270   -6.0660   24.7220 C   0  0  0  0  0  3  0  0  0  0  0  0
  -21.4030   -4.6900   24.6070 C   0  0  0  0  0  0  0  0  0  0  0  0
  -21.8700   -4.1650   23.3900 C   0  0  0  0  0  3  0  0  0  0  0  0
  -22.0650   -5.0140   22.2870 C   0  0  0  0  0  0  0  0  0  0  0  0
  -22.4970   -4.4990   21.1110 F   0  0  0  0  0  0  0  0  0  0  0  0
  -21.2130   -3.8690   25.6660 F   0  0  0  0  0  0  0  0  0  0  0  0
  -23.2410  -13.7580   20.7370 C   0  0  0  0  0  0  0  0  0  0  0  0
  -22.3310  -13.1600   21.4950 N   0  0  0  0  0  0  0  0  0  0  0  0
  -22.9500  -14.7230   20.0300 O   0  0  0  0  0  0  0  0  0  0  0  0
  -22.5750  -12.3830   22.0920 H   0  0  0  0  0  0  0  0  0  0  0  0
  -21.3780  -13.4900   21.4880 H   0  0  0  0  0  0  0  0  0  0  0  0
  -26.0290  -15.3370   20.4140 N   0  0  0  0  0  0  0  0  0  0  0  0
  -25.2760  -16.0100   20.3260 H   0  0  0  0  0  0  0  0  0  0  0  0
  -26.9440  -15.7390   20.2450 H   0  0  0  0  0  0  0  0  0  0  0  0
  -31.2940  -15.5670   19.2780 C   0  0  0  0  0  2  0  0  0  0  0  0
  -31.0210  -15.7930   16.7690 C   0  0  0  0  0  1  0  0  0  0  0  0
  -30.2890  -15.6890   18.1120 C   0  0  0  0  0  2  0  0  0  0  0  0
  1  4  1  0
  2  6  1  0
  2  1  2  0
  4  3  2  0
  4 11  1  0
  5 58  1  0
  5  3  1  0
  6  5  2  0
  7  9  1  0
  7  6  1  0
  8  7  1  0
 11 10  1  0
 11 12  1  0
 12 13  1  0
 12 14  1  0
 15 16  1  0
 15 12  1  0
 17 19  1  0
 17 16  1  0
 18 29  2  0
 19 24  1  0
 20 28  1  0
 20 30  1  0
 21 27  1  0
 21 23  1  0
 22 28  1  0
 23 22  1  0
 24 23  2  0
 25 26  1  0
 25 19  2  0
 26 21  2  0
 27 20  1  0
 28 18  1  0
 30 32  2  0
 31 30  1  0
 33 31  1  0
 34 43  2  0
 34 39  1  0
 35 31  1  0
 35 39  1  0
 36 35  1  0
 37 38  1  0
 37 36  1  0
 38 34  1  0
 39 40  2  0
 40 41  1  0
 42 41  2  0
 43 42  1  0
 44 18  1  0
 44 49  1  0
 44 45  1  0
 45 48  1  1
 45 46  1  0
 47 45  1  0
 49 52  1  0
 50 54  1  0
 50 49  1  0
 51 50  2  0
 54 53  1  0
 56 54  1  0
 56 57  1  0
 56 55  1  0
 58 59  1  0
 60 67  2  0
 61 66  1  0
 62 63  1  0
 62 61  1  0
 64 63  1  0
 64 72  1  0
 64 65  1  0
 66 60  1  0
 66 65  1  0
 68 59  1  0
 68 60  1  0
 69 72  1  0
 69 70  2  0
 70 71  1  0
 71 74  1  0
 72 73  1  0
 73 71  2  0
 74 75  1  0
 75 76  2  0
 77 80  1  0
 77 76  1  0
 78 77  2  0
 79 78  1  0
 79 74  2  0
 80 81  1  0
 81 82  1  0
 82 83  2  0
 84 83  1  0
 84 88  1  0
 85 84  2  0
 86 81  2  0
 86 85  1  0
 87 86  1  0
 89 70  1  0
 89 90  1  0
 90 92  1  0
 91 89  2  0
 93 90  1  0
 94 69  1  0
 95 94  1  0
 96 94  1  0
 97 68  1  0
 98 99  1  0
 99 97  1  0
M  ISO  4  16 101  17 101  60 100  68 100
M  END
>  <TORSDO>  (51) 
F 25

>  <SCORE>  (51) 
-8.648

>  <name>  (51) 
51

>  <ligand_id>  (51) 
51

>  <original_smiles>  (51) 
[H]c1c([H])c([H])c2c(c1[H])C([H])([H])C([H])([H])C([H])([H])C2([H])N([H])C(=O)C1([H])N(C(=O)C([H])(N([H])C(=O)C([H])(N([H])C([H])([H])[H])C([H])([H])[H])C(C([H])([H])[H])(C([H])([H])[H])C([H])([H])[H])C([H])([H])c2c([H])c(OC([H])([H])C([H])([H])[N+]([H])([H])C([H])(c3c([H])c([H])c(N([H])[H])c(C([H])([H])C([H])([H])N(C(=O)N4C([H])([H])C([H])([H])C([H])([H])C([H])(n5nc(-c6c([H])c([H])c(Oc7c([H])c([H])c(F)c([H])c7F)c([H])c6[H])c(C(=O)N([H])[H])c5N([H])[H])C4([H])[H])C([H])([H])C([H])([H])C([H])([H])[H])c3[H])C([H])([H])[H])c([H])c([H])c2C1([H])[H]

>  <smiles>  (51) 
[H]c1c([H])c([H])c2c(c1[H])C([H])([H])C([H])([H])C([H])([H])C2([H])N([H])C(=O)C1([H])N(C(=O)C([H])(N([H])C(=O)C([H])(N([H])C([H])([H])[H])C([H])([H])[H])C(C([H])([H])[H])(C([H])([H])[H])C([H])([H])[H])C([H])([H])c2c([H])c(OC([H])([H])C([H])([H])[N+]([H])([H])C([H])(c3c([H])c([H])c(N([H])[H])c(C([H])([H])C([H])([H])N(C(=O)N4C([H])([H])C([H])([H])C([H])([H])C([H])(n5nc(-c6c([H])c([H])c(Oc7c([H])c([H])c(F)c([H])c7F)c([H])c6[H])c(C(=O)N([H])[H])c5N([H])[H])C4([H])[H])C([H])([H])C([H])([H])C([H])([H])[H])c3[H])C([H])([H])[H])c([H])c([H])c2C1([H])[H]

$$$$
52:0:0
     RDKit          3D

 96104  0  0  1  0  0  0  0  0999 V2000
  -28.3520  -16.5660   21.3340 C   0  0  0  0  0  3  0  0  0  0  0  0
  -26.9880  -16.5330   20.9940 C   0  0  0  0  0  3  0  0  0  0  0  0
  -27.3540  -18.3230   19.3940 C   0  0  0  0  0  3  0  0  0  0  0  0
  -29.2470  -17.4650   20.7000 C   0  0  0  0  0  0  0  0  0  0  0  0
  -28.7240  -18.3910   19.7480 C   0  0  0  0  0  0  0  0  0  0  0  0
  -26.4900  -17.3980   20.0070 C   0  0  0  0  0  0  0  0  0  0  0  0
  -25.1460  -17.3470   19.6450 N   0  0  0  0  0  0  0  0  0  0  0  0
  -24.4830  -16.8100   20.1970 H   0  0  0  0  0  0  0  0  0  0  0  0
  -24.7270  -18.0940   19.1000 H   0  0  0  0  0  0  0  0  0  0  0  0
  -30.7440  -17.4460   21.0440 C   0  0  0  0  0  2  0  0  0  0  0  0
  -31.3540  -16.1490   21.6420 C   0  0  0  0  0  2  0  0  0  0  0  0
  -31.2530  -13.9990   20.3340 C   0  0  0  0  0  0  0  0  0  0  0  0
  -30.7790  -11.9690   19.0120 C   0  0  0  0  0  2  0  0  0  0  0  0
  -29.7700  -12.2860   17.8910 C   0  0  0  0  0  2  0  0  0  0  0  0
  -28.3190  -12.1850   18.3990 C   0  0  0  0  0  2  0  0  0  0  0  0
  -28.0960  -12.9470   19.7320 C   0  0  0  0  0  3  0  0  0  0  0  0
  -29.1980  -12.5920   20.7520 C   0  0  0  0  0  2  0  0  0  0  0  0
  -30.5050  -12.8800   20.1330 N   0  0  0  0  0  0  0  0  0  0  0  0
  -32.3180  -14.2120   19.7490 O   0  0  0  0  0  0  0  0  0  0  0  0
  -30.7240  -14.9020   21.1770 N   0  0  0  0  0  0  0  0  0  0  0  0
  -29.8220  -14.6720   21.5650 H   0  0  0  0  0  0  0  0  0  0  0  0
  -25.7650  -13.6140   20.5950 C   0  0  0  0  0  0  0  0  0  0  0  0
  -24.6880  -12.8660   20.9950 C   0  0  0  0  0  0  0  0  0  0  0  0
  -25.0950  -11.5020   20.8840 C   0  0  0  0  0  0  0  0  0  0  0  0
  -26.7590  -12.7050   20.2700 N   0  0  0  0  0  0  0  0  0  0  0  0
  -26.3610  -11.4260   20.4990 N   0  0  0  0  0  0  0  0  0  0  0  0
  -24.3340  -10.2590   21.0630 C   0  0  0  0  0  0  0  0  0  0  0  0
  -24.7630   -9.2490   21.9520 C   0  0  0  0  0  3  0  0  0  0  0  0
  -24.0020   -8.0710   22.1190 C   0  0  0  0  0  3  0  0  0  0  0  0
  -22.7970   -7.8960   21.3970 C   0  0  0  0  0  0  0  0  0  0  0  0
  -22.3870   -8.8950   20.4960 C   0  0  0  0  0  3  0  0  0  0  0  0
  -23.1490  -10.0640   20.3270 C   0  0  0  0  0  3  0  0  0  0  0  0
  -22.0070   -6.7750   21.4770 O   0  0  0  0  0  0  0  0  0  0  0  0
  -21.8980   -6.0520   22.6380 C   0  0  0  0  0  0  0  0  0  0  0  0
  -21.4450   -6.6370   23.8410 C   0  0  0  0  0  3  0  0  0  0  0  0
  -21.2820   -5.8420   24.9930 C   0  0  0  0  0  3  0  0  0  0  0  0
  -21.5600   -4.4630   24.9420 C   0  0  0  0  0  0  0  0  0  0  0  0
  -22.0080   -3.8780   23.7440 C   0  0  0  0  0  3  0  0  0  0  0  0
  -22.1720   -4.6710   22.5950 C   0  0  0  0  0  0  0  0  0  0  0  0
  -22.5830   -4.0980   21.4380 F   0  0  0  0  0  0  0  0  0  0  0  0
  -21.3970   -3.6960   26.0460 F   0  0  0  0  0  0  0  0  0  0  0  0
  -23.3270  -13.3830   21.3670 C   0  0  0  0  0  0  0  0  0  0  0  0
  -22.6320  -12.6920   22.2640 N   0  0  0  0  0  0  0  0  0  0  0  0
  -22.8910  -14.4330   20.8970 O   0  0  0  0  0  0  0  0  0  0  0  0
  -22.9990  -11.8420   22.6650 H   0  0  0  0  0  0  0  0  0  0  0  0
  -21.7220  -13.0210   22.5550 H   0  0  0  0  0  0  0  0  0  0  0  0
  -25.9780  -14.9810   20.4630 N   0  0  0  0  0  0  0  0  0  0  0  0
  -25.2830  -15.6670   20.7370 H   0  0  0  0  0  0  0  0  0  0  0  0
  -26.8500  -15.4060   20.1750 H   0  0  0  0  0  0  0  0  0  0  0  0
  -29.5810  -19.4750   19.0800 C   0  0  0  0  0  2  0  0  0  0  0  0
  -29.1820  -20.9130   19.4960 C   0  0  0  0  0  2  0  0  0  0  0  0
  -29.8590  -22.0320   18.6650 C   0  0  0  0  0  2  0  0  0  0  0  0
  -28.4370  -23.6860   20.0190 C   0  0  0  0  0  1  0  0  0  0  0  0
  -29.7770  -23.4600   19.2790 C   0  0  0  0  0  3  0  0  0  0  0  0
  -30.0420  -24.5550   18.1830 C   0  0  0  0  0  2  0  0  0  0  0  0
  -29.9390  -26.0000   18.1060 O   0  0  0  0  0  0  0  0  0  0  0  0
  -26.4820  -29.4820   23.2580 C   0  0  0  0  0  0  0  0  0  0  0  0
  -28.7840  -26.7100   18.4320 C   0  0  0  0  0  0  0  0  0  0  0  0
  -25.1810  -29.0730   21.1940 C   0  0  0  0  0  3  0  0  0  0  0  0
  -26.5150  -28.2320   19.1920 C   0  0  0  0  0  0  0  0  0  0  0  0
  -27.7280  -29.2800   21.1090 C   0  0  0  0  0  2  0  0  0  0  0  0
  -27.7070  -28.3420   19.9190 C   0  0  0  0  0  0  0  0  0  0  0  0
  -28.8410  -27.5900   19.5370 C   0  0  0  0  0  3  0  0  0  0  0  0
  -27.5720  -26.6240   17.7080 C   0  0  0  0  0  3  0  0  0  0  0  0
  -26.4440  -27.3730   18.0850 C   0  0  0  0  0  3  0  0  0  0  0  0
  -25.3460  -29.0740   19.6520 C   0  0  0  0  0  2  0  0  0  0  0  0
  -26.4820  -29.2620   21.9120 N   0  0  0  0  0  0  0  0  0  0  0  0
  -25.4210  -29.5650   23.8930 O   0  0  0  0  0  0  0  0  0  0  0  0
  -24.4370  -27.7840   21.6110 C   0  0  0  0  0  0  0  0  0  0  0  0
  -23.1120  -27.7640   21.3930 N   0  0  0  0  0  0  0  0  0  0  0  0
  -25.0490  -26.8260   22.0870 O   0  0  0  0  0  0  0  0  0  0  0  0
  -22.6840  -28.5950   21.0080 H   0  0  0  0  0  0  0  0  0  0  0  0
  -19.6710  -26.6780   21.2090 C   0  0  0  0  0  0  0  0  0  0  0  0
  -22.2140  -26.6410   21.6630 C   0  0  0  0  0  3  0  0  0  0  0  0
  -22.2980  -25.5820   20.5380 C   0  0  0  0  0  2  0  0  0  0  0  0
  -21.2460  -25.7850   19.4430 C   0  0  0  0  0  2  0  0  0  0  0  0
  -19.8340  -25.7300   20.0340 C   0  0  0  0  0  2  0  0  0  0  0  0
  -20.7910  -27.1200   21.9610 C   0  0  0  0  0  0  0  0  0  0  0  0
  -20.5880  -28.0330   23.0220 C   0  0  0  0  0  3  0  0  0  0  0  0
  -19.2950  -28.5010   23.3280 C   0  0  0  0  0  3  0  0  0  0  0  0
  -18.1890  -28.0480   22.5900 C   0  0  0  0  0  3  0  0  0  0  0  0
  -18.3780  -27.1340   21.5360 C   0  0  0  0  0  3  0  0  0  0  0  0
  -27.8090  -29.6630   24.0590 C   0  0  0  0  0  3  0  0  0  0  0  0
  -27.5770  -30.7020   25.0690 N   0  0  0  0  0  0  0  0  0  0  0  0
  -28.0240  -31.9620   24.9790 C   0  0  0  0  0  0  0  0  0  0  0  0
  -28.7450  -32.3540   24.0570 O   0  0  0  0  0  0  0  0  0  0  0  0
  -26.9530  -30.4630   25.8250 H   0  0  0  0  0  0  0  0  0  0  0  0
  -26.4840  -33.8610   25.5710 C   0  0  0  0  0  1  0  0  0  0  0  0
  -27.6040  -32.9450   26.0890 C   0  0  0  0  0  3  0  0  0  0  0  0
  -29.7060  -32.9990   27.3590 C   0  0  0  0  0  1  0  0  0  0  0  0
  -28.7230  -33.7680   26.6010 N   0  0  0  0  0  0  0  0  0  0  0  0
  -28.3780  -34.5150   27.1970 H   0  0  0  0  0  0  0  0  0  0  0  0
  -28.3100  -28.3290   24.7380 C   0  0  1  0  0  0  0  0  0  0  0  0
  -27.2290  -27.6160   25.5820 C   0  0  0  0  0  1  0  0  0  0  0  0
  -28.8140  -27.3310   23.6690 C   0  0  0  0  0  1  0  0  0  0  0  0
  -29.5160  -28.6300   25.6600 C   0  0  0  0  0  1  0  0  0  0  0  0
  2  1  1  0
  3  5  2  0
  3  6  1  0
  4 10  1  0
  4  1  2  0
  5  4  1  0
  6  2  2  0
  7  6  1  0
  7  8  1  0
  9  7  1  0
 10 11  1  0
 12 20  1  0
 13 18  1  0
 14 15  1  0
 14 13  1  0
 16 15  1  0
 16 25  1  0
 16 17  1  0
 18 12  1  0
 18 17  1  0
 19 12  2  0
 20 21  1  0
 20 11  1  0
 22 23  2  0
 23 42  1  0
 24 23  1  0
 24 27  1  0
 25 26  1  0
 25 22  1  0
 26 24  2  0
 27 28  1  0
 28 29  2  0
 30 33  1  0
 30 29  1  0
 31 30  2  0
 32 31  1  0
 32 27  2  0
 33 34  1  0
 34 35  1  0
 35 36  2  0
 37 36  1  0
 37 41  1  0
 38 37  2  0
 39 34  2  0
 39 38  1  0
 40 39  1  0
 42 43  1  0
 43 46  1  0
 43 45  1  0
 44 42  2  0
 47 22  1  0
 47 48  1  0
 49 47  1  0
 50 51  1  0
 50  5  1  0
 52 54  1  0
 52 51  1  0
 54 53  1  0
 55 54  1  0
 56 55  1  0
 56 58  1  0
 57 68  2  0
 58 63  1  0
 59 69  1  0
 59 67  1  0
 60 66  1  0
 60 62  1  0
 61 67  1  0
 62 61  1  0
 63 62  2  0
 64 65  1  0
 64 58  2  0
 65 60  2  0
 66 59  1  0
 67 57  1  0
 69 71  2  0
 70 69  1  0
 72 70  1  0
 73 82  2  0
 73 78  1  0
 74 70  1  0
 74 78  1  0
 75 74  1  0
 76 77  1  0
 76 75  1  0
 77 73  1  0
 78 79  2  0
 79 80  1  0
 81 80  2  0
 82 81  1  0
 83 57  1  0
 83 93  1  0
 83 84  1  0
 84 87  1  0
 85 84  1  0
 85 89  1  0
 86 85  2  0
 89 88  1  0
 89 91  1  0
 91 92  1  0
 91 90  1  0
 93 94  1  1
 93 96  1  0
 95 93  1  0
M  ISO  4  12 100  20 100  55 101  56 101
M  END
>  <TORSDO>  (52) 
F 24

>  <SCORE>  (52) 
-8.086

>  <name>  (52) 
52

>  <ligand_id>  (52) 
52

>  <original_smiles>  (52) 
[H]c1c([H])c([H])c2c(c1[H])C([H])([H])C([H])([H])C([H])([H])C2([H])N([H])C(=O)C1([H])N(C(=O)C([H])(N([H])C(=O)C([H])(N([H])C([H])([H])[H])C([H])([H])[H])C(C([H])([H])[H])(C([H])([H])[H])C([H])([H])[H])C([H])([H])c2c([H])c(OC([H])([H])C([H])(C([H])([H])[H])C([H])([H])C([H])([H])C([H])([H])c3c([H])c(N([H])[H])c([H])c([H])c3C([H])([H])C([H])([H])N([H])C(=O)N3C([H])([H])C([H])([H])C([H])([H])C([H])(n4nc(-c5c([H])c([H])c(Oc6c([H])c([H])c(F)c([H])c6F)c([H])c5[H])c(C(=O)N([H])[H])c4N([H])[H])C3([H])[H])c([H])c([H])c2C1([H])[H]

>  <smiles>  (52) 
[H]c1c([H])c([H])c2c(c1[H])C([H])([H])C([H])([H])C([H])([H])C2([H])N([H])C(=O)C1([H])N(C(=O)C([H])(N([H])C(=O)C([H])(N([H])C([H])([H])[H])C([H])([H])[H])C(C([H])([H])[H])(C([H])([H])[H])C([H])([H])[H])C([H])([H])c2c([H])c(OC([H])([H])C([H])(C([H])([H])[H])C([H])([H])C([H])([H])C([H])([H])c3c([H])c(N([H])[H])c([H])c([H])c3C([H])([H])C([H])([H])N([H])C(=O)N3C([H])([H])C([H])([H])C([H])([H])C([H])(n4nc(-c5c([H])c([H])c(Oc6c([H])c([H])c(F)c([H])c6F)c([H])c5[H])c(C(=O)N([H])[H])c4N([H])[H])C3([H])[H])c([H])c([H])c2C1([H])[H]

$$$$
53:0:0
     RDKit          3D

100109  0  0  1  0  0  0  0  0999 V2000
  -29.4250  -24.9560   21.6590 C   0  0  0  0  0  2  0  0  0  0  0  0
  -27.8490  -26.0100   23.8960 C   0  0  0  0  0  2  0  0  0  0  0  0
  -27.6200  -24.5750   23.3760 C   0  0  0  0  0  3  0  0  0  0  0  0
  -28.9620  -24.0450   22.8150 C   0  0  0  0  0  3  0  0  0  0  0  0
  -29.4790  -26.4640   22.0320 C   0  0  0  0  0  3  0  0  0  0  0  0
  -26.4260  -24.5200   22.3910 C   0  0  0  0  0  1  0  0  0  0  0  0
  -28.2920  -26.9200   22.8130 N   0  0  0  0  0  4  0  0  0  0  0  0
  -28.4870  -27.8190   23.2320 H   0  0  0  0  0  0  0  0  0  0  0  0
  -27.5220  -27.0590   22.1750 H   0  0  0  0  0  0  0  0  0  0  0  0
  -28.8870  -22.6140   22.4240 N   0  0  0  0  0  4  0  0  0  0  0  0
  -28.2870  -22.5120   21.6200 H   0  0  0  0  0  0  0  0  0  0  0  0
  -28.4650  -22.1050   23.1840 H   0  0  0  0  0  0  0  0  0  0  0  0
  -30.1930  -21.9710   22.1520 C   0  0  0  0  0  2  0  0  0  0  0  0
  -30.0440  -20.5640   21.5300 C   0  0  0  0  0  2  0  0  0  0  0  0
  -31.5320  -19.1950   19.9280 C   0  0  0  0  0  2  0  0  0  0  0  0
  -31.7050  -18.8100   22.4390 C   0  0  0  0  0  2  0  0  0  0  0  0
  -30.7510  -17.8760   19.8060 C   0  0  0  0  0  2  0  0  0  0  0  0
  -30.9080  -17.4990   22.2820 C   0  0  0  0  0  2  0  0  0  0  0  0
  -31.4000  -19.8410   21.3260 C   0  0  0  0  0  3  0  0  0  0  0  0
  -31.1810  -16.8820   20.9020 C   0  0  0  0  0  3  0  0  0  0  0  0
  -31.0430  -14.6030   19.9530 C   0  0  0  0  0  0  0  0  0  0  0  0
  -30.6770  -12.3810   18.9640 C   0  0  0  0  0  2  0  0  0  0  0  0
  -29.7060  -12.4680   17.7710 C   0  0  0  0  0  2  0  0  0  0  0  0
  -28.2430  -12.3820   18.2470 C   0  0  0  0  0  2  0  0  0  0  0  0
  -27.9380  -13.3360   19.4330 C   0  0  0  0  0  3  0  0  0  0  0  0
  -29.0160  -13.2100   20.5320 C   0  0  0  0  0  2  0  0  0  0  0  0
  -30.3330  -13.4470   19.9140 N   0  0  0  0  0  0  0  0  0  0  0  0
  -32.0790  -14.7770   19.3040 O   0  0  0  0  0  0  0  0  0  0  0  0
  -30.5440  -15.5740   20.7320 N   0  0  0  0  0  0  0  0  0  0  0  0
  -29.6900  -15.3800   21.2340 H   0  0  0  0  0  0  0  0  0  0  0  0
  -25.5820  -14.0220   20.2190 C   0  0  0  0  0  0  0  0  0  0  0  0
  -24.5080  -13.2860   20.6370 C   0  0  0  0  0  0  0  0  0  0  0  0
  -24.9290  -11.9200   20.6040 C   0  0  0  0  0  0  0  0  0  0  0  0
  -26.5950  -13.1100   19.9610 N   0  0  0  0  0  0  0  0  0  0  0  0
  -26.2040  -11.8410   20.2470 N   0  0  0  0  0  0  0  0  0  0  0  0
  -24.1760  -10.6810   20.8390 C   0  0  0  0  0  0  0  0  0  0  0  0
  -24.5700   -9.7530   21.8270 C   0  0  0  0  0  3  0  0  0  0  0  0
  -23.8210   -8.5780   22.0450 C   0  0  0  0  0  3  0  0  0  0  0  0
  -22.6630   -8.3210   21.2740 C   0  0  0  0  0  0  0  0  0  0  0  0
  -22.2890   -9.2370   20.2740 C   0  0  0  0  0  3  0  0  0  0  0  0
  -23.0380  -10.4050   20.0560 C   0  0  0  0  0  3  0  0  0  0  0  0
  -21.8880   -7.1930   21.3970 O   0  0  0  0  0  0  0  0  0  0  0  0
  -21.7330   -6.5540   22.6010 C   0  0  0  0  0  0  0  0  0  0  0  0
  -21.2120   -7.2170   23.7340 C   0  0  0  0  0  3  0  0  0  0  0  0
  -21.0050   -6.5050   24.9330 C   0  0  0  0  0  3  0  0  0  0  0  0
  -21.3090   -5.1320   24.9980 C   0  0  0  0  0  0  0  0  0  0  0  0
  -21.8230   -4.4700   23.8680 C   0  0  0  0  0  3  0  0  0  0  0  0
  -22.0320   -5.1790   22.6730 C   0  0  0  0  0  0  0  0  0  0  0  0
  -22.5080   -4.5310   21.5820 F   0  0  0  0  0  0  0  0  0  0  0  0
  -21.1030   -4.4450   26.1460 F   0  0  0  0  0  0  0  0  0  0  0  0
  -23.1360  -13.8050   20.9600 C   0  0  0  0  0  0  0  0  0  0  0  0
  -22.4300  -13.1460   21.8710 N   0  0  0  0  0  0  0  0  0  0  0  0
  -22.7020  -14.8300   20.4360 O   0  0  0  0  0  0  0  0  0  0  0  0
  -22.7950  -12.3180   22.3160 H   0  0  0  0  0  0  0  0  0  0  0  0
  -21.5110  -13.4770   22.1290 H   0  0  0  0  0  0  0  0  0  0  0  0
  -25.7820  -15.3860   20.0190 N   0  0  0  0  0  0  0  0  0  0  0  0
  -25.0460  -16.0690   20.1570 H   0  0  0  0  0  0  0  0  0  0  0  0
  -26.6370  -15.7910   19.6640 H   0  0  0  0  0  0  0  0  0  0  0  0
  -29.6800  -27.3180   20.7560 C   0  0  0  0  0  2  0  0  0  0  0  0
  -28.6150  -27.0830   19.8320 O   0  0  0  0  0  0  0  0  0  0  0  0
  -24.5460  -31.9100   23.2040 C   0  0  0  0  0  0  0  0  0  0  0  0
  -27.4320  -27.7830   19.9400 C   0  0  0  0  0  0  0  0  0  0  0  0
  -23.3980  -30.4790   21.5360 C   0  0  0  0  0  3  0  0  0  0  0  0
  -24.9240  -29.0810   20.0440 C   0  0  0  0  0  0  0  0  0  0  0  0
  -25.8820  -31.0190   21.3070 C   0  0  0  0  0  2  0  0  0  0  0  0
  -26.0460  -29.6760   20.6300 C   0  0  0  0  0  0  0  0  0  0  0  0
  -27.2980  -29.0360   20.5850 C   0  0  0  0  0  3  0  0  0  0  0  0
  -26.2960  -27.1960   19.3500 C   0  0  0  0  0  3  0  0  0  0  0  0
  -25.0410  -27.8340   19.4010 C   0  0  0  0  0  3  0  0  0  0  0  0
  -23.6230  -29.8410   20.1370 C   0  0  0  0  0  2  0  0  0  0  0  0
  -24.6260  -31.1510   22.0750 N   0  0  0  0  0  0  0  0  0  0  0  0
  -23.4600  -32.1020   23.7660 O   0  0  0  0  0  0  0  0  0  0  0  0
  -22.8290  -29.3960   22.4750 C   0  0  0  0  0  0  0  0  0  0  0  0
  -21.5180  -29.1390   22.3540 N   0  0  0  0  0  0  0  0  0  0  0  0
  -23.5650  -28.7910   23.2590 O   0  0  0  0  0  0  0  0  0  0  0  0
  -20.9890  -29.6850   21.6900 H   0  0  0  0  0  0  0  0  0  0  0  0
  -18.2220  -27.7430   22.8390 C   0  0  0  0  0  0  0  0  0  0  0  0
  -20.7640  -28.1310   23.0960 C   0  0  0  0  0  3  0  0  0  0  0  0
  -20.9400  -26.7310   22.4630 C   0  0  0  0  0  2  0  0  0  0  0  0
  -19.8450  -26.3850   21.4480 C   0  0  0  0  0  2  0  0  0  0  0  0
  -18.4660  -26.4300   22.1120 C   0  0  0  0  0  2  0  0  0  0  0  0
  -19.3030  -28.5490   23.2840 C   0  0  0  0  0  0  0  0  0  0  0  0
  -19.0250  -29.7810   23.9160 C   0  0  0  0  0  3  0  0  0  0  0  0
  -17.6980  -30.2070   24.1090 C   0  0  0  0  0  3  0  0  0  0  0  0
  -16.6320  -29.3940   23.6860 C   0  0  0  0  0  3  0  0  0  0  0  0
  -16.8940  -28.1630   23.0570 C   0  0  0  0  0  3  0  0  0  0  0  0
  -25.8060  -32.5910   23.8280 C   0  0  0  0  0  3  0  0  0  0  0  0
  -25.4360  -33.9700   24.1730 N   0  0  0  0  0  0  0  0  0  0  0  0
  -25.7290  -35.0430   23.4280 C   0  0  0  0  0  0  0  0  0  0  0  0
  -26.4130  -34.9810   22.4030 O   0  0  0  0  0  0  0  0  0  0  0  0
  -24.8410  -34.0940   24.9770 H   0  0  0  0  0  0  0  0  0  0  0  0
  -23.9280  -36.7550   23.0760 C   0  0  0  0  0  1  0  0  0  0  0  0
  -25.1770  -36.4010   23.8970 C   0  0  0  0  0  3  0  0  0  0  0  0
  -27.2580  -37.3700   24.7650 C   0  0  0  0  0  1  0  0  0  0  0  0
  -26.1630  -37.4990   23.8070 N   0  0  0  0  0  0  0  0  0  0  0  0
  -25.7130  -38.3990   23.9590 H   0  0  0  0  0  0  0  0  0  0  0  0
  -26.3600  -31.8300   25.0950 C   0  0  1  0  0  0  0  0  0  0  0  0
  -25.2790  -31.5300   26.1600 C   0  0  0  0  0  1  0  0  0  0  0  0
  -27.0100  -30.4890   24.6810 C   0  0  0  0  0  1  0  0  0  0  0  0
  -27.4710  -32.6730   25.7700 C   0  0  0  0  0  1  0  0  0  0  0  0
  1  5  1  0
  1  4  1  0
  3  6  1  0
  3  2  1  0
  4 10  1  0
  4  3  1  0
  5 59  1  0
  5  7  1  0
  7  8  1  0
  7  2  1  0
  9  7  1  0
 10 12  1  0
 11 10  1  0
 13 10  1  0
 14 13  1  0
 15 19  1  0
 17 15  1  0
 17 20  1  0
 18 16  1  0
 19 14  1  0
 19 16  1  0
 20 29  1  0
 20 18  1  0
 21 29  1  0
 22 27  1  0
 23 24  1  0
 23 22  1  0
 25 24  1  0
 25 34  1  0
 25 26  1  0
 27 21  1  0
 27 26  1  0
 28 21  2  0
 29 30  1  0
 31 32  2  0
 32 51  1  0
 33 32  1  0
 33 36  1  0
 34 31  1  0
 34 35  1  0
 35 33  2  0
 36 37  1  0
 37 38  2  0
 39 42  1  0
 39 38  1  0
 40 39  2  0
 41 40  1  0
 41 36  2  0
 42 43  1  0
 43 48  2  0
 43 44  1  0
 44 45  2  0
 45 46  1  0
 46 50  1  0
 47 46  2  0
 48 47  1  0
 49 48  1  0
 51 52  1  0
 52 55  1  0
 52 54  1  0
 53 51  2  0
 56 57  1  0
 56 31  1  0
 58 56  1  0
 60 62  1  0
 60 59  1  0
 61 72  2  0
 62 67  1  0
 63 71  1  0
 63 73  1  0
 64 70  1  0
 64 66  1  0
 65 71  1  0
 66 65  1  0
 67 66  2  0
 68 69  1  0
 68 62  2  0
 69 64  2  0
 70 63  1  0
 71 61  1  0
 73 75  2  0
 74 73  1  0
 76 74  1  0
 77 86  2  0
 77 82  1  0
 78 74  1  0
 78 82  1  0
 79 78  1  0
 80 81  1  0
 80 79  1  0
 81 77  1  0
 82 83  2  0
 83 84  1  0
 85 84  2  0
 86 85  1  0
 87 61  1  0
 87 88  1  0
 87 97  1  0
 88 91  1  0
 89 93  1  0
 89 88  1  0
 90 89  2  0
 93 92  1  0
 95 93  1  0
 95 96  1  0
 95 94  1  0
 97100  1  1
 97 98  1  0
 99 97  1  0
M  ISO  4  21 100  29 100  59 101  60 101
M  END
>  <TORSDO>  (53) 
F 21

>  <SCORE>  (53) 
-12.006

>  <name>  (53) 
53

>  <ligand_id>  (53) 
53

>  <original_smiles>  (53) 
[H]c1c([H])c([H])c2c(c1[H])C([H])([H])C([H])([H])C([H])([H])C2([H])N([H])C(=O)C1([H])N(C(=O)C([H])(N([H])C(=O)C([H])(N([H])C([H])([H])[H])C([H])([H])[H])C(C([H])([H])[H])(C([H])([H])[H])C([H])([H])[H])C([H])([H])c2c([H])c(OC([H])([H])C3([H])C([H])([H])C([H])([N+]([H])([H])C([H])([H])C([H])([H])C4([H])C([H])([H])C([H])([H])C([H])(N([H])C(=O)N5C([H])([H])C([H])([H])C([H])([H])C([H])(n6nc(-c7c([H])c([H])c(Oc8c([H])c([H])c(F)c([H])c8F)c([H])c7[H])c(C(=O)N([H])[H])c6N([H])[H])C5([H])[H])C([H])([H])C4([H])[H])C([H])(C([H])([H])[H])C([H])([H])[N+]3([H])[H])c([H])c([H])c2C1([H])[H]

>  <smiles>  (53) 
[H]c1c([H])c([H])c2c(c1[H])C([H])([H])C([H])([H])C([H])([H])C2([H])N([H])C(=O)C1([H])N(C(=O)C([H])(N([H])C(=O)C([H])(N([H])C([H])([H])[H])C([H])([H])[H])C(C([H])([H])[H])(C([H])([H])[H])C([H])([H])[H])C([H])([H])c2c([H])c(OC([H])([H])C3([H])C([H])([H])C([H])([N+]([H])([H])C([H])([H])C([H])([H])C4([H])C([H])([H])C([H])([H])C([H])(N([H])C(=O)N5C([H])([H])C([H])([H])C([H])([H])C([H])(n6nc(-c7c([H])c([H])c(Oc8c([H])c([H])c(F)c([H])c8F)c([H])c7[H])c(C(=O)N([H])[H])c6N([H])[H])C5([H])[H])C([H])([H])C4([H])[H])C([H])(C([H])([H])[H])C([H])([H])[N+]3([H])[H])c([H])c([H])c2C1([H])[H]

$$$$
54:0:0
     RDKit          3D

 98106  0  0  1  0  0  0  0  0999 V2000
  -28.1880  -22.3790   23.0590 C   0  0  0  0  0  2  0  0  0  0  0  0
  -27.3610  -22.6750   21.7740 C   0  0  0  0  0  2  0  0  0  0  0  0
  -29.4990  -21.5930   22.7790 C   0  0  0  0  0  2  0  0  0  0  0  0
  -29.0710  -21.6750   20.2380 C   0  0  0  0  0  2  0  0  0  0  0  0
  -28.2890  -22.9750   20.5790 C   0  0  0  0  0  3  0  0  0  0  0  0
  -29.3910  -20.7910   21.4660 C   0  0  0  0  0  3  0  0  0  0  0  0
  -30.1370  -24.7300   20.4010 C   0  0  0  0  0  0  0  0  0  0  0  0
  -29.1110  -24.1110   20.9940 N   0  0  0  0  0  0  0  0  0  0  0  0
  -30.3160  -24.7480   19.1830 O   0  0  0  0  0  0  0  0  0  0  0  0
  -29.0420  -24.2880   21.9870 H   0  0  0  0  0  0  0  0  0  0  0  0
  -31.0290  -25.2290   21.4350 C   0  0  0  0  0  3  0  0  0  0  0  0
  -32.1720  -25.9090   21.2320 C   0  0  0  0  0  3  0  0  0  0  0  0
  -32.7960  -26.3860   19.9340 C   0  0  0  0  0  2  0  0  0  0  0  0
  -32.3160  -27.6810   19.6160 O   0  0  0  0  0  0  0  0  0  0  0  0
  -27.3470  -30.0710   24.0890 C   0  0  0  0  0  0  0  0  0  0  0  0
  -30.9770  -27.9120   19.8170 C   0  0  0  0  0  0  0  0  0  0  0  0
  -26.4970  -29.0330   22.0100 C   0  0  0  0  0  3  0  0  0  0  0  0
  -28.2550  -28.5360   20.2290 C   0  0  0  0  0  0  0  0  0  0  0  0
  -28.8050  -30.1390   22.0690 C   0  0  0  0  0  2  0  0  0  0  0  0
  -29.2420  -29.1510   21.0090 C   0  0  0  0  0  0  0  0  0  0  0  0
  -30.6020  -28.8530   20.7990 C   0  0  0  0  0  3  0  0  0  0  0  0
  -29.9760  -27.2600   19.0610 C   0  0  0  0  0  3  0  0  0  0  0  0
  -28.6170  -27.5820   19.2560 C   0  0  0  0  0  3  0  0  0  0  0  0
  -26.8250  -28.9470   20.4950 C   0  0  0  0  0  2  0  0  0  0  0  0
  -27.5680  -29.7450   22.7840 N   0  0  0  0  0  0  0  0  0  0  0  0
  -26.2630  -29.8340   24.6350 O   0  0  0  0  0  0  0  0  0  0  0  0
  -26.2100  -27.6080   22.5330 C   0  0  0  0  0  0  0  0  0  0  0  0
  -25.1470  -26.9840   22.0010 N   0  0  0  0  0  0  0  0  0  0  0  0
  -26.9470  -27.0800   23.3700 O   0  0  0  0  0  0  0  0  0  0  0  0
  -24.5880  -27.5040   21.3410 H   0  0  0  0  0  0  0  0  0  0  0  0
  -22.7580  -24.4270   21.0880 C   0  0  0  0  0  0  0  0  0  0  0  0
  -24.7000  -25.6250   22.3040 C   0  0  0  0  0  3  0  0  0  0  0  0
  -25.6230  -24.5710   21.6510 C   0  0  0  0  0  2  0  0  0  0  0  0
  -25.1310  -24.1020   20.2770 C   0  0  0  0  0  2  0  0  0  0  0  0
  -23.7290  -23.4950   20.3860 C   0  0  0  0  0  2  0  0  0  0  0  0
  -23.2140  -25.4360   21.9750 C   0  0  0  0  0  0  0  0  0  0  0  0
  -22.2710  -26.2970   22.5780 C   0  0  0  0  0  3  0  0  0  0  0  0
  -20.8960  -26.1600   22.3090 C   0  0  0  0  0  3  0  0  0  0  0  0
  -20.4500  -25.1490   21.4410 C   0  0  0  0  0  3  0  0  0  0  0  0
  -21.3780  -24.2840   20.8340 C   0  0  0  0  0  3  0  0  0  0  0  0
  -28.4370  -30.7880   24.9490 C   0  0  0  0  0  3  0  0  0  0  0  0
  -27.8600  -32.0490   25.4340 N   0  0  0  0  0  0  0  0  0  0  0  0
  -28.0020  -33.2360   24.8240 C   0  0  0  0  0  0  0  0  0  0  0  0
  -28.7060  -33.3930   23.8230 O   0  0  0  0  0  0  0  0  0  0  0  0
  -27.2320  -31.9850   26.2200 H   0  0  0  0  0  0  0  0  0  0  0  0
  -25.9390  -34.6620   24.6460 C   0  0  0  0  0  1  0  0  0  0  0  0
  -27.2450  -34.4380   25.4240 C   0  0  0  0  0  3  0  0  0  0  0  0
  -29.2520  -35.5950   26.2380 C   0  0  0  0  0  1  0  0  0  0  0  0
  -28.0370  -35.6900   25.4340 N   0  0  0  0  0  0  0  0  0  0  0  0
  -27.4810  -36.4650   25.7890 H   0  0  0  0  0  0  0  0  0  0  0  0
  -28.9520  -29.9090   26.1550 C   0  0  1  0  0  0  0  0  0  0  0  0
  -27.8270  -29.1840   26.9290 C   0  0  0  0  0  1  0  0  0  0  0  0
  -29.9480  -28.8380   25.6530 C   0  0  0  0  0  1  0  0  0  0  0  0
  -29.7240  -30.7970   27.1600 C   0  0  0  0  0  1  0  0  0  0  0  0
  -30.5500  -19.8980   21.2060 N   0  0  0  0  0  4  0  0  0  0  0  0
  -31.2600  -20.0590   21.9040 H   0  0  0  0  0  0  0  0  0  0  0  0
  -30.9470  -20.1420   20.3110 H   0  0  0  0  0  0  0  0  0  0  0  0
  -30.1660  -18.4650   21.1750 C   0  0  0  0  0  2  0  0  0  0  0  0
  -31.0210  -17.5910   20.1880 C   0  0  0  0  0  2  0  0  0  0  0  0
  -32.1340  -16.5150   20.4420 C   0  0  0  0  0  2  0  0  0  0  0  0
  -31.9540  -14.1260   19.5850 C   0  0  0  0  0  0  0  0  0  0  0  0
  -31.4470  -11.7690   19.0260 C   0  0  0  0  0  2  0  0  0  0  0  0
  -30.4680  -11.6610   17.8410 C   0  0  0  0  0  2  0  0  0  0  0  0
  -29.0120  -11.7440   18.3250 C   0  0  0  0  0  2  0  0  0  0  0  0
  -28.7740  -12.9640   19.2500 C   0  0  0  0  0  3  0  0  0  0  0  0
  -29.8350  -13.0080   20.3660 C   0  0  0  0  0  2  0  0  0  0  0  0
  -31.1810  -13.0220   19.7460 N   0  0  0  0  0  0  0  0  0  0  0  0
  -32.9010  -14.1930   18.7910 O   0  0  0  0  0  0  0  0  0  0  0  0
  -31.6420  -15.1260   20.4190 N   0  0  0  0  0  0  0  0  0  0  0  0
  -30.9350  -14.8960   21.1060 H   0  0  0  0  0  0  0  0  0  0  0  0
  -26.5950  -14.0230   20.1280 C   0  0  0  0  0  0  0  0  0  0  0  0
  -25.4150  -13.4690   20.5380 C   0  0  0  0  0  0  0  0  0  0  0  0
  -25.5790  -12.0540   20.4210 C   0  0  0  0  0  0  0  0  0  0  0  0
  -27.4210  -12.9580   19.8000 N   0  0  0  0  0  0  0  0  0  0  0  0
  -26.8130  -11.7650   20.0260 N   0  0  0  0  0  0  0  0  0  0  0  0
  -24.6200  -10.9630   20.6160 C   0  0  0  0  0  0  0  0  0  0  0  0
  -24.9580   -9.8100   21.3590 C   0  0  0  0  0  3  0  0  0  0  0  0
  -24.0160   -8.7760   21.5440 C   0  0  0  0  0  3  0  0  0  0  0  0
  -22.7200   -8.8930   20.9850 C   0  0  0  0  0  0  0  0  0  0  0  0
  -22.3960  -10.0330   20.2280 C   0  0  0  0  0  3  0  0  0  0  0  0
  -23.3360  -11.0580   20.0430 C   0  0  0  0  0  3  0  0  0  0  0  0
  -21.7440   -7.9310   21.0920 O   0  0  0  0  0  0  0  0  0  0  0  0
  -21.6730   -7.0940   22.1760 C   0  0  0  0  0  0  0  0  0  0  0  0
  -21.6590   -7.5870   23.4990 C   0  0  0  0  0  3  0  0  0  0  0  0
  -21.5200   -6.6970   24.5810 C   0  0  0  0  0  3  0  0  0  0  0  0
  -21.3780   -5.3170   24.3450 C   0  0  0  0  0  0  0  0  0  0  0  0
  -21.3850   -4.8240   23.0270 C   0  0  0  0  0  3  0  0  0  0  0  0
  -21.5280   -5.7110   21.9470 C   0  0  0  0  0  0  0  0  0  0  0  0
  -21.5130   -5.2300   20.6800 F   0  0  0  0  0  0  0  0  0  0  0  0
  -21.2350   -4.4630   25.3860 F   0  0  0  0  0  0  0  0  0  0  0  0
  -24.1650  -14.2070   20.9330 C   0  0  0  0  0  0  0  0  0  0  0  0
  -23.3600  -13.6070   21.8030 N   0  0  0  0  0  0  0  0  0  0  0  0
  -23.9230  -15.3390   20.5140 O   0  0  0  0  0  0  0  0  0  0  0  0
  -23.5750  -12.6820   22.1470 H   0  0  0  0  0  0  0  0  0  0  0  0
  -22.5220  -14.0650   22.1300 H   0  0  0  0  0  0  0  0  0  0  0  0
  -27.0350  -15.3380   19.9900 N   0  0  0  0  0  0  0  0  0  0  0  0
  -26.4350  -16.1380   20.1700 H   0  0  0  0  0  0  0  0  0  0  0  0
  -27.9350  -15.5980   19.6040 H   0  0  0  0  0  0  0  0  0  0  0  0
  2  1  1  0
  3  1  1  0
  4  5  1  0
  4  6  1  0
  5  8  1  0
  5  2  1  0
  6 55  1  0
  6  3  1  0
  7  8  1  0
  7 11  1  0
  8 10  1  0
  9  7  2  0
 12 11  2  0
 13 12  1  0
 14 16  1  0
 14 13  1  0
 15 26  2  0
 16 21  1  0
 17 27  1  0
 17 25  1  0
 18 24  1  0
 18 20  1  0
 19 25  1  0
 20 19  1  0
 21 20  2  0
 22 23  1  0
 22 16  2  0
 23 18  2  0
 24 17  1  0
 25 15  1  0
 27 29  2  0
 28 27  1  0
 30 28  1  0
 31 36  1  0
 32 28  1  0
 33 32  1  0
 34 35  1  0
 34 33  1  0
 35 31  1  0
 36 32  1  0
 36 37  2  0
 38 37  1  0
 39 38  2  0
 40 31  2  0
 40 39  1  0
 41 15  1  0
 41 42  1  0
 41 51  1  0
 42 45  1  0
 43 47  1  0
 43 42  1  0
 44 43  2  0
 47 46  1  0
 47 49  1  0
 49 50  1  0
 49 48  1  0
 51 52  1  1
 51 54  1  0
 53 51  1  0
 55 56  1  0
 57 55  1  0
 58 55  1  0
 59 60  1  0
 59 58  1  0
 61 67  1  0
 61 69  1  0
 62 67  1  0
 63 64  1  0
 63 62  1  0
 65 64  1  0
 65 74  1  0
 65 66  1  0
 67 66  1  0
 68 61  2  0
 69 60  1  0
 69 70  1  0
 71 72  2  0
 72 91  1  0
 73 72  1  0
 73 76  1  0
 74 75  1  0
 74 71  1  0
 75 73  2  0
 76 77  1  0
 77 78  2  0
 79 82  1  0
 79 78  1  0
 80 79  2  0
 81 80  1  0
 81 76  2  0
 82 83  1  0
 83 84  1  0
 84 85  2  0
 86 85  1  0
 86 90  1  0
 87 86  2  0
 88 83  2  0
 88 87  1  0
 89 88  1  0
 91 92  1  0
 92 95  1  0
 92 94  1  0
 93 91  2  0
 96 71  1  0
 96 97  1  0
 98 96  1  0
M  ISO  4  13 101  14 101  61 100  69 100
M  END
>  <TORSDO>  (54) 
F 23

>  <SCORE>  (54) 
-5.946

>  <name>  (54) 
54

>  <ligand_id>  (54) 
54

>  <original_smiles>  (54) 
[H]C(C(=O)N([H])C1([H])C([H])([H])C([H])([H])C([H])([H])C([H])([N+]([H])([H])C([H])([H])C([H])([H])C([H])([H])N([H])C(=O)N2C([H])([H])C([H])([H])C([H])([H])C([H])(n3nc(-c4c([H])c([H])c(Oc5c([H])c([H])c(F)c([H])c5F)c([H])c4[H])c(C(=O)N([H])[H])c3N([H])[H])C2([H])[H])C1([H])[H])=C([H])C([H])([H])Oc1c([H])c([H])c2c(c1[H])C([H])([H])N(C(=O)C([H])(N([H])C(=O)C([H])(N([H])C([H])([H])[H])C([H])([H])[H])C(C([H])([H])[H])(C([H])([H])[H])C([H])([H])[H])C([H])(C(=O)N([H])C1([H])c3c([H])c([H])c([H])c([H])c3C([H])([H])C([H])([H])C1([H])[H])C2([H])[H]

>  <smiles>  (54) 
[H]C(C(=O)N([H])C1([H])C([H])([H])C([H])([H])C([H])([H])C([H])([N+]([H])([H])C([H])([H])C([H])([H])C([H])([H])N([H])C(=O)N2C([H])([H])C([H])([H])C([H])([H])C([H])(n3nc(-c4c([H])c([H])c(Oc5c([H])c([H])c(F)c([H])c5F)c([H])c4[H])c(C(=O)N([H])[H])c3N([H])[H])C2([H])[H])C1([H])[H])=C([H])C([H])([H])Oc1c([H])c([H])c2c(c1[H])C([H])([H])N(C(=O)C([H])(N([H])C(=O)C([H])(N([H])C([H])([H])[H])C([H])([H])[H])C(C([H])([H])[H])(C([H])([H])[H])C([H])([H])[H])C([H])(C(=O)N([H])C1([H])c3c([H])c([H])c([H])c([H])c3C([H])([H])C([H])([H])C1([H])[H])C2([H])[H]

$$$$
55:0:0
     RDKit          3D

 90 98  0  0  1  0  0  0  0  0999 V2000
  -28.6130  -21.9820   20.3950 N   0  0  0  0  0  4  0  0  0  0  0  0
  -28.2090  -21.8800   21.3140 H   0  0  0  0  0  0  0  0  0  0  0  0
  -27.8530  -21.8430   19.7480 H   0  0  0  0  0  0  0  0  0  0  0  0
  -31.0180  -19.4950   18.4620 C   0  0  0  0  0  2  0  0  0  0  0  0
  -29.9960  -20.6280   18.7210 C   0  0  0  0  0  2  0  0  0  0  0  0
  -30.5350  -18.0770   18.8680 C   0  0  0  0  0  2  0  0  0  0  0  0
  -29.1830  -19.2160   20.6750 C   0  0  0  0  0  2  0  0  0  0  0  0
  -29.5920  -20.7610   20.2040 C   0  0  0  0  0  3  0  0  0  0  0  0
  -30.1870  -17.9180   20.3700 C   0  0  2  0  0  0  0  0  0  0  0  0
  -31.4550  -18.1240   21.2290 C   0  0  0  0  0  1  0  0  0  0  0  0
  -29.6960  -16.3330   20.6540 C   0  0  0  0  0  2  0  0  0  0  0  0
  -30.5230  -14.9420   20.3060 C   0  0  0  0  0  0  0  0  0  0  0  0
  -30.3720  -12.6310   19.2940 C   0  0  0  0  0  2  0  0  0  0  0  0
  -29.4160  -12.6720   18.0780 C   0  0  0  0  0  2  0  0  0  0  0  0
  -27.9540  -12.4670   18.5230 C   0  0  0  0  0  2  0  0  0  0  0  0
  -27.5810  -13.3490   19.7420 C   0  0  0  0  0  3  0  0  0  0  0  0
  -28.6550  -13.2930   20.8490 C   0  0  0  0  0  2  0  0  0  0  0  0
  -29.9370  -13.6830   20.2500 N   0  0  0  0  0  0  0  0  0  0  0  0
  -31.7030  -15.0200   19.9490 O   0  0  0  0  0  0  0  0  0  0  0  0
  -25.2070  -13.9190   20.5210 C   0  0  0  0  0  0  0  0  0  0  0  0
  -24.1490  -13.1380   20.8970 C   0  0  0  0  0  0  0  0  0  0  0  0
  -24.6140  -11.7890   20.8440 C   0  0  0  0  0  0  0  0  0  0  0  0
  -26.2490  -13.0450   20.2540 N   0  0  0  0  0  0  0  0  0  0  0  0
  -25.9010  -11.7580   20.5150 N   0  0  0  0  0  0  0  0  0  0  0  0
  -23.8930  -10.5230   21.0300 C   0  0  0  0  0  0  0  0  0  0  0  0
  -24.3220   -9.5560   21.9650 C   0  0  0  0  0  3  0  0  0  0  0  0
  -23.5990   -8.3560   22.1390 C   0  0  0  0  0  3  0  0  0  0  0  0
  -22.4300   -8.1150   21.3780 C   0  0  0  0  0  0  0  0  0  0  0  0
  -22.0190   -9.0710   20.4320 C   0  0  0  0  0  3  0  0  0  0  0  0
  -22.7430  -10.2620   20.2560 C   0  0  0  0  0  3  0  0  0  0  0  0
  -21.6790   -6.9670   21.4600 O   0  0  0  0  0  0  0  0  0  0  0  0
  -21.6060   -6.2370   22.6200 C   0  0  0  0  0  0  0  0  0  0  0  0
  -21.1270   -6.7970   23.8240 C   0  0  0  0  0  3  0  0  0  0  0  0
  -21.0020   -5.9920   24.9740 C   0  0  0  0  0  3  0  0  0  0  0  0
  -21.3450   -4.6280   24.9200 C   0  0  0  0  0  0  0  0  0  0  0  0
  -21.8180   -4.0680   23.7200 C   0  0  0  0  0  3  0  0  0  0  0  0
  -21.9440   -4.8700   22.5730 C   0  0  0  0  0  0  0  0  0  0  0  0
  -22.3790   -4.3190   21.4140 F   0  0  0  0  0  0  0  0  0  0  0  0
  -21.2190   -3.8530   26.0220 F   0  0  0  0  0  0  0  0  0  0  0  0
  -22.7540  -13.6100   21.1920 C   0  0  0  0  0  0  0  0  0  0  0  0
  -22.0380  -12.9050   22.0590 N   0  0  0  0  0  0  0  0  0  0  0  0
  -22.3080  -14.6400   20.6870 O   0  0  0  0  0  0  0  0  0  0  0  0
  -22.4100  -12.0730   22.4920 H   0  0  0  0  0  0  0  0  0  0  0  0
  -21.1020  -13.2030   22.2970 H   0  0  0  0  0  0  0  0  0  0  0  0
  -25.3660  -15.2920   20.3590 N   0  0  0  0  0  0  0  0  0  0  0  0
  -24.6020  -15.9450   20.4980 H   0  0  0  0  0  0  0  0  0  0  0  0
  -26.2140  -15.7390   20.0360 H   0  0  0  0  0  0  0  0  0  0  0  0
  -29.0620  -23.4950   20.2850 C   0  0  0  0  0  3  0  0  0  0  0  0
  -27.9560  -24.7400   20.1690 C   0  0  0  0  0  3  0  0  0  0  0  0
  -28.2370  -26.2620   20.2280 O   0  0  0  0  0  0  0  0  0  0  0  0
  -24.6030  -31.8950   23.2420 C   0  0  0  0  0  0  0  0  0  0  0  0
  -27.1650  -27.2170   20.1790 C   0  0  0  0  0  0  0  0  0  0  0  0
  -23.3910  -30.5030   21.6060 C   0  0  0  0  0  3  0  0  0  0  0  0
  -24.8310  -28.9390   20.1700 C   0  0  0  0  0  0  0  0  0  0  0  0
  -25.9430  -30.7790   21.4240 C   0  0  0  0  0  2  0  0  0  0  0  0
  -26.0130  -29.3910   20.7690 C   0  0  0  0  0  0  0  0  0  0  0  0
  -27.1820  -28.5460   20.7550 C   0  0  0  0  0  3  0  0  0  0  0  0
  -25.9530  -26.8590   19.5450 C   0  0  0  0  0  3  0  0  0  0  0  0
  -24.8110  -27.6850   19.5440 C   0  0  0  0  0  3  0  0  0  0  0  0
  -23.6020  -29.8310   20.2240 C   0  0  0  0  0  2  0  0  0  0  0  0
  -24.6660  -31.0790   22.1460 N   0  0  0  0  0  0  0  0  0  0  0  0
  -23.5200  -32.1770   23.7770 O   0  0  0  0  0  0  0  0  0  0  0  0
  -22.7200  -29.4910   22.5690 C   0  0  0  0  0  0  0  0  0  0  0  0
  -21.3930  -29.3170   22.4450 N   0  0  0  0  0  0  0  0  0  0  0  0
  -23.3980  -28.8660   23.3900 O   0  0  0  0  0  0  0  0  0  0  0  0
  -20.9050  -29.8720   21.7570 H   0  0  0  0  0  0  0  0  0  0  0  0
  -18.0150  -28.1120   22.9540 C   0  0  0  0  0  0  0  0  0  0  0  0
  -20.5740  -28.3790   23.2180 C   0  0  0  0  0  3  0  0  0  0  0  0
  -20.6780  -26.9470   22.6450 C   0  0  0  0  0  2  0  0  0  0  0  0
  -19.5750  -26.6200   21.6330 C   0  0  0  0  0  2  0  0  0  0  0  0
  -18.1940  -26.7630   22.2780 C   0  0  0  0  0  2  0  0  0  0  0  0
  -19.1340  -28.8770   23.3800 C   0  0  0  0  0  0  0  0  0  0  0  0
  -18.9120  -30.1390   23.9740 C   0  0  0  0  0  3  0  0  0  0  0  0
  -17.6050  -30.6360   24.1440 C   0  0  0  0  0  3  0  0  0  0  0  0
  -16.5020  -29.8680   23.7320 C   0  0  0  0  0  3  0  0  0  0  0  0
  -16.7090  -28.6080   23.1420 C   0  0  0  0  0  3  0  0  0  0  0  0
  -25.8860  -32.5270   23.8620 C   0  0  0  0  0  3  0  0  0  0  0  0
  -26.4060  -31.7500   25.1340 C   0  0  1  0  0  0  0  0  0  0  0  0
  -25.3170  -31.5080   26.2050 C   0  0  0  0  0  1  0  0  0  0  0  0
  -26.9880  -30.3740   24.7380 C   0  0  0  0  0  1  0  0  0  0  0  0
  -27.5600  -32.5420   25.7940 C   0  0  0  0  0  1  0  0  0  0  0  0
  -25.5750  -33.9230   24.2050 N   0  0  0  0  0  0  0  0  0  0  0  0
  -25.8780  -34.9820   23.4420 C   0  0  0  0  0  0  0  0  0  0  0  0
  -26.5160  -34.8870   22.3910 O   0  0  0  0  0  0  0  0  0  0  0  0
  -25.0050  -34.0710   25.0240 H   0  0  0  0  0  0  0  0  0  0  0  0
  -24.1210  -36.7630   23.1640 C   0  0  0  0  0  1  0  0  0  0  0  0
  -25.3990  -36.3670   23.9220 C   0  0  0  0  0  3  0  0  0  0  0  0
  -27.5570  -37.2740   24.6670 C   0  0  0  0  0  1  0  0  0  0  0  0
  -26.4170  -37.4290   23.7660 N   0  0  0  0  0  0  0  0  0  0  0  0
  -26.0090  -38.3460   23.9260 H   0  0  0  0  0  0  0  0  0  0  0  0
  1  2  1  0
  3  1  1  0
  4  5  1  0
  4  6  1  0
  5  8  1  0
  6  9  1  0
  8  1  1  0
  8  7  1  0
  9 11  1  0
  9  7  1  0
  9 10  1  1
 12 11  1  0
 13 18  1  0
 14 15  1  0
 14 13  1  0
 16 15  1  0
 16 23  1  0
 16 17  1  0
 18 12  1  0
 18 17  1  0
 19 12  2  0
 20 21  2  0
 21 40  1  0
 22 21  1  0
 22 25  1  0
 23 24  1  0
 23 20  1  0
 24 22  2  0
 25 26  1  0
 26 27  2  0
 28 31  1  0
 28 27  1  0
 29 28  2  0
 30 29  1  0
 30 25  2  0
 31 32  1  0
 32 33  1  0
 33 34  2  0
 35 34  1  0
 35 39  1  0
 36 35  2  0
 37 32  2  0
 37 36  1  0
 38 37  1  0
 40 41  1  0
 41 44  1  0
 41 43  1  0
 42 40  2  0
 45 46  1  0
 45 20  1  0
 47 45  1  0
 48  1  1  0
 49 50  1  0
 49 48  2  0
 51 62  2  0
 52 50  1  0
 52 57  1  0
 53 61  1  0
 53 63  1  0
 54 60  1  0
 54 56  1  0
 55 61  1  0
 56 55  1  0
 57 56  2  0
 58 52  2  0
 59 58  1  0
 59 54  2  0
 60 53  1  0
 61 51  1  0
 63 65  2  0
 64 63  1  0
 66 64  1  0
 67 76  2  0
 67 72  1  0
 68 64  1  0
 68 72  1  0
 69 68  1  0
 70 71  1  0
 70 69  1  0
 71 67  1  0
 72 73  2  0
 73 74  1  0
 75 74  2  0
 76 75  1  0
 77 51  1  0
 77 82  1  0
 77 78  1  0
 78 81  1  1
 78 79  1  0
 80 78  1  0
 82 85  1  0
 83 87  1  0
 83 82  1  0
 84 83  2  0
 87 86  1  0
 89 87  1  0
 89 90  1  0
 89 88  1  0
M  ISO  4  11 100  12 100  49 101  50 101
M  END
>  <TORSDO>  (55) 
F 20

>  <SCORE>  (55) 
-13.863

>  <name>  (55) 
55

>  <ligand_id>  (55) 
55

>  <original_smiles>  (55) 
[H]c1c([H])c([H])c2c(c1[H])C([H])([H])C([H])([H])C([H])([H])C2([H])N([H])C(=O)C1([H])N(C(=O)C([H])(N([H])C(=O)C([H])(N([H])C([H])([H])[H])C([H])([H])[H])C(C([H])([H])[H])(C([H])([H])[H])C([H])([H])[H])C([H])([H])c2c([H])c(OC([H])([H])C([H])([H])[N+]([H])([H])C3([H])C([H])([H])C([H])([H])C([H])([H])C(C([H])([H])[H])(C([H])([H])C(=O)N4C([H])([H])C([H])([H])C([H])([H])C([H])(n5nc(-c6c([H])c([H])c(Oc7c([H])c([H])c(F)c([H])c7F)c([H])c6[H])c(C(=O)N([H])[H])c5N([H])[H])C4([H])[H])C3([H])[H])c([H])c([H])c2C1([H])[H]

>  <smiles>  (55) 
[H]c1c([H])c([H])c2c(c1[H])C([H])([H])C([H])([H])C([H])([H])C2([H])N([H])C(=O)C1([H])N(C(=O)C([H])(N([H])C(=O)C([H])(N([H])C([H])([H])[H])C([H])([H])[H])C(C([H])([H])[H])(C([H])([H])[H])C([H])([H])[H])C([H])([H])c2c([H])c(OC([H])([H])C([H])([H])[N+]([H])([H])C3([H])C([H])([H])C([H])([H])C([H])([H])C(C([H])([H])[H])(C([H])([H])C(=O)N4C([H])([H])C([H])([H])C([H])([H])C([H])(n5nc(-c6c([H])c([H])c(Oc7c([H])c([H])c(F)c([H])c7F)c([H])c6[H])c(C(=O)N([H])[H])c5N([H])[H])C4([H])[H])C3([H])[H])c([H])c([H])c2C1([H])[H]

$$$$
56:0:0
     RDKit          3D

100105  0  0  1  0  0  0  0  0999 V2000
  -22.3270  -26.0590   20.3400 C   0  0  0  0  0  3  0  0  0  0  0  0
  -22.3620  -28.5450   21.4290 C   0  0  0  0  0  2  0  0  0  0  0  0
  -20.0710  -26.4070   22.0150 C   0  0  0  0  0  1  0  0  0  0  0  0
  -23.0300  -27.3710   20.6110 C   0  0  0  0  0  3  0  0  0  0  0  0
  -21.0340  -25.4480   20.9150 C   0  0  0  0  0  0  0  0  0  0  0  0
  -20.9620  -28.3820   22.2530 C   0  0  0  0  0  2  0  0  0  0  0  0
  -20.6900  -29.6640   22.8210 N   0  0  0  0  0  0  0  0  0  0  0  0
  -20.9570  -30.4720   22.2730 H   0  0  0  0  0  0  0  0  0  0  0  0
  -19.7450  -29.7440   23.1830 H   0  0  0  0  0  0  0  0  0  0  0  0
  -19.9100  -23.1310   20.7730 C   0  0  0  0  0  1  0  0  0  0  0  0
  -21.1760  -23.8860   20.3490 C   0  0  0  0  0  3  0  0  0  0  0  0
  -21.5770  -23.4520   18.8180 N   0  0  0  0  0  4  0  0  0  0  0  0
  -21.5150  -22.4490   18.8770 H   0  0  0  0  0  0  0  0  0  0  0  0
  -20.8020  -23.7170   18.2310 H   0  0  0  0  0  0  0  0  0  0  0  0
  -22.9410  -23.6420   17.9510 C   0  0  0  0  0  2  0  0  0  0  0  0
  -23.1460  -23.3040   16.2470 C   0  0  0  0  0  2  0  0  0  0  0  0
  -23.9560  -24.2040   14.9860 C   0  0  0  0  0  2  0  0  0  0  0  0
  -23.5360  -24.4480   13.3080 C   0  0  0  0  0  2  0  0  0  0  0  0
  -23.9240  -25.7320   12.1800 C   0  0  0  0  0  2  0  0  0  0  0  0
  -22.7850  -27.7740   10.4120 C   0  0  0  0  0  0  0  0  0  0  0  0
  -21.0110  -29.5730    9.8910 C   0  0  0  0  0  2  0  0  0  0  0  0
  -20.4290  -30.1050   11.2310 C   0  0  0  0  0  2  0  0  0  0  0  0
  -19.4120  -29.1160   11.8440 C   0  0  0  0  0  2  0  0  0  0  0  0
  -19.9320  -27.6590   11.7740 C   0  0  0  0  0  3  0  0  0  0  0  0
  -20.3590  -27.3110   10.3430 C   0  0  0  0  0  2  0  0  0  0  0  0
  -21.4960  -28.1690   10.0880 N   0  0  0  0  0  0  0  0  0  0  0  0
  -23.6820  -28.5700   10.0580 O   0  0  0  0  0  0  0  0  0  0  0  0
  -22.9070  -26.5620   11.2280 N   0  0  0  0  0  0  0  0  0  0  0  0
  -21.9920  -26.1350   11.2700 H   0  0  0  0  0  0  0  0  0  0  0  0
  -19.1630  -25.7260   13.2390 C   0  0  0  0  0  0  0  0  0  0  0  0
  -17.9700  -25.0690   13.3230 C   0  0  0  0  0  0  0  0  0  0  0  0
  -17.1190  -25.6770   12.3510 C   0  0  0  0  0  0  0  0  0  0  0  0
  -18.9910  -26.6790   12.2540 N   0  0  0  0  0  0  0  0  0  0  0  0
  -17.7740  -26.6040   11.6710 N   0  0  0  0  0  0  0  0  0  0  0  0
  -15.6970  -25.4850   12.0740 C   0  0  0  0  0  0  0  0  0  0  0  0
  -15.2450  -25.0420   10.8120 C   0  0  0  0  0  3  0  0  0  0  0  0
  -13.8670  -24.8520   10.5780 C   0  0  0  0  0  3  0  0  0  0  0  0
  -12.9320  -25.1040   11.6090 C   0  0  0  0  0  0  0  0  0  0  0  0
  -13.3890  -25.5710   12.8540 C   0  0  0  0  0  3  0  0  0  0  0  0
  -14.7590  -25.7640   13.0850 C   0  0  0  0  0  3  0  0  0  0  0  0
  -11.5740  -24.9700   11.4660 O   0  0  0  0  0  0  0  0  0  0  0  0
  -11.0290  -24.2570   10.4280 C   0  0  0  0  0  0  0  0  0  0  0  0
  -11.2530  -22.8700   10.2780 C   0  0  0  0  0  3  0  0  0  0  0  0
  -10.6170  -22.1640    9.2370 C   0  0  0  0  0  3  0  0  0  0  0  0
   -9.7500  -22.8390    8.3550 C   0  0  0  0  0  0  0  0  0  0  0  0
   -9.5230  -24.2180    8.5080 C   0  0  0  0  0  3  0  0  0  0  0  0
  -10.1590  -24.9240    9.5440 C   0  0  0  0  0  0  0  0  0  0  0  0
   -9.9190  -26.2480    9.7010 F   0  0  0  0  0  0  0  0  0  0  0  0
   -9.1320  -22.1600    7.3620 F   0  0  0  0  0  0  0  0  0  0  0  0
  -17.6070  -24.0110   14.3230 C   0  0  0  0  0  0  0  0  0  0  0  0
  -16.8680  -22.9940   13.8950 N   0  0  0  0  0  0  0  0  0  0  0  0
  -18.0170  -24.0610   15.4810 O   0  0  0  0  0  0  0  0  0  0  0  0
  -16.5500  -22.9450   12.9380 H   0  0  0  0  0  0  0  0  0  0  0  0
  -16.6170  -22.2540   14.5350 H   0  0  0  0  0  0  0  0  0  0  0  0
  -20.3610  -25.6140   13.9340 N   0  0  0  0  0  0  0  0  0  0  0  0
  -20.4510  -24.9840   14.7240 H   0  0  0  0  0  0  0  0  0  0  0  0
  -21.1380  -26.2580   13.8520 H   0  0  0  0  0  0  0  0  0  0  0  0
  -24.6330  -27.1880   20.3290 C   0  0  0  0  0  2  0  0  0  0  0  0
  -25.8730  -27.5620   21.4530 C   0  0  0  0  0  2  0  0  0  0  0  0
  -27.2280  -28.3750   21.3030 O   0  0  0  0  0  0  0  0  0  0  0  0
  -27.8620  -31.8340   27.0780 C   0  0  0  0  0  0  0  0  0  0  0  0
  -27.0080  -29.6980   21.5060 C   0  0  0  0  0  0  0  0  0  0  0  0
  -25.7570  -30.9850   26.1890 C   0  0  0  0  0  3  0  0  0  0  0  0
  -25.6030  -30.6840   23.6470 C   0  0  0  0  0  0  0  0  0  0  0  0
  -27.5420  -31.9020   24.6070 C   0  0  0  0  0  2  0  0  0  0  0  0
  -26.9630  -30.9990   23.5420 C   0  0  0  0  0  0  0  0  0  0  0  0
  -27.7200  -30.4470   22.4780 C   0  0  0  0  0  3  0  0  0  0  0  0
  -25.6400  -29.8400   21.3820 C   0  0  0  0  0  3  0  0  0  0  0  0
  -24.9300  -30.1700   22.5410 C   0  0  0  0  0  3  0  0  0  0  0  0
  -24.8740  -31.0250   24.9190 C   0  0  0  0  0  2  0  0  0  0  0  0
  -27.0840  -31.6130   25.9830 N   0  0  0  0  0  0  0  0  0  0  0  0
  -27.4520  -31.5940   28.2240 O   0  0  0  0  0  0  0  0  0  0  0  0
  -25.9920  -29.5720   26.7270 C   0  0  0  0  0  0  0  0  0  0  0  0
  -25.7020  -29.3150   27.9900 N   0  0  0  0  0  0  0  0  0  0  0  0
  -26.4850  -28.6980   26.0040 O   0  0  0  0  0  0  0  0  0  0  0  0
  -25.1780  -29.9880   28.5370 H   0  0  0  0  0  0  0  0  0  0  0  0
  -26.1170  -27.6690   31.4510 C   0  0  0  0  0  0  0  0  0  0  0  0
  -25.6000  -27.9370   28.4340 C   0  0  0  0  0  3  0  0  0  0  0  0
  -23.7390  -27.6610   28.2440 C   0  0  0  0  0  1  0  0  0  0  0  0
  -22.7170  -27.4590   31.2990 C   0  0  0  0  0 15  0  0  0  0  0  0
  -24.4800  -27.4600   32.2420 C   0  0  0  0  0  1  0  0  0  0  0  0
  -26.5320  -27.8810   29.9390 C   0  0  0  0  0  0  0  0  0  0  0  0
  -27.8670  -28.3410   29.6940 C   0  0  0  0  0  3  0  0  0  0  0  0
  -28.8440  -28.5330   30.6900 C   0  0  0  0  0  3  0  0  0  0  0  0
  -28.5210  -28.2360   32.0190 C   0  0  0  0  0  3  0  0  0  0  0  0
  -27.2120  -27.8220   32.3680 C   0  0  0  0  0  3  0  0  0  0  0  0
  -29.2860  -32.4190   26.9360 C   0  0  0  0  0  3  0  0  0  0  0  0
  -30.4220  -31.3320   27.0450 C   0  0  1  0  0  0  0  0  0  0  0  0
  -30.8440  -31.0060   28.4970 C   0  0  0  0  0  1  0  0  0  0  0  0
  -29.9910  -30.0050   26.3770 C   0  0  0  0  0  1  0  0  0  0  0  0
  -31.6670  -31.8300   26.2770 C   0  0  0  0  0  1  0  0  0  0  0  0
  -29.4140  -33.4230   27.9950 N   0  0  0  0  0  0  0  0  0  0  0  0
  -29.4770  -34.7400   27.7720 C   0  0  0  0  0  0  0  0  0  0  0  0
  -29.5330  -35.2270   26.6400 O   0  0  0  0  0  0  0  0  0  0  0  0
  -29.3170  -33.0990   28.9440 H   0  0  0  0  0  0  0  0  0  0  0  0
  -28.1400  -36.3900   29.1200 C   0  0  0  0  0  1  0  0  0  0  0  0
  -29.4880  -35.6610   29.0040 C   0  0  0  0  0  3  0  0  0  0  0  0
  -31.9100  -36.0340   29.1340 C   0  0  0  0  0  1  0  0  0  0  0  0
  -30.5920  -36.6440   28.9850 N   0  0  0  0  0  0  0  0  0  0  0  0
  -30.4750  -37.3330   29.7250 H   0  0  0  0  0  0  0  0  0  0  0  0
  1  4  1  0
  1  5  2  0
  2  6  1  0
  4 58  1  0
  4  2  1  0
  5  3  1  0
  6  7  1  0
  7  9  1  0
  8  7  1  0
 11 10  1  0
 11  5  1  0
 12 13  1  0
 12 11  1  0
 14 12  1  0
 15 12  1  0
 16 15  1  0
 17 16  1  0
 18 17  1  0
 19 18  1  0
 20 28  1  0
 21 26  1  0
 21 22  1  0
 22 23  1  0
 24 25  1  0
 24 23  1  0
 24 33  1  0
 26 25  1  0
 26 20  1  0
 27 20  2  0
 28 29  1  0
 28 19  1  0
 30 31  2  0
 30 55  1  0
 31 50  1  0
 32 31  1  0
 33 30  1  0
 34 33  1  0
 34 32  2  0
 35 32  1  0
 35 40  1  0
 36 35  2  0
 37 36  1  0
 37 38  2  0
 38 39  1  0
 39 40  2  0
 41 38  1  0
 42 41  1  0
 43 42  1  0
 44 43  2  0
 45 46  2  0
 45 44  1  0
 46 47  1  0
 47 48  1  0
 47 42  2  0
 49 45  1  0
 50 52  2  0
 51 50  1  0
 51 54  1  0
 53 51  1  0
 55 56  1  0
 57 55  1  0
 58 59  1  0
 60 59  1  0
 60 62  1  0
 61 72  2  0
 62 67  1  0
 63 73  1  0
 64 70  1  0
 65 71  1  0
 66 64  1  0
 66 65  1  0
 67 66  2  0
 68 62  2  0
 68 69  1  0
 69 64  2  0
 70 63  1  0
 71 63  1  0
 71 61  1  0
 73 74  1  0
 74 78  1  0
 74 76  1  0
 75 73  2  0
 77 81  1  0
 77 86  1  0
 78 79  1  0
 78 82  1  0
 82 77  2  0
 83 82  1  0
 83 84  2  0
 84 85  1  0
 85 86  2  0
 87 88  1  0
 87 61  1  0
 87 92  1  0
 88 89  1  1
 90 88  1  0
 91 88  1  0
 92 95  1  0
 93 92  1  0
 93 97  1  0
 94 93  2  0
 97 96  1  0
 99 97  1  0
 99 98  1  0
 99100  1  0
M  ISO  4  20 100  28 100  59 101  60 101
M  END
>  <TORSDO>  (56) 
F 26

>  <SCORE>  (56) 
-8.908

>  <name>  (56) 
56

>  <ligand_id>  (56) 
56

>  <original_smiles>  (56) 
[H]c1c([H])c([H])c2c(c1[H])C([H])([H])C([H])([H])C([H])([H])C2([H])N([H])C(=O)C1([H])N(C(=O)C([H])(N([H])C(=O)C([H])(N([H])C([H])([H])[H])C([H])([H])[H])C(C([H])([H])[H])(C([H])([H])[H])C([H])([H])[H])C([H])([H])c2c([H])c(OC([H])([H])C([H])([H])c3c([H])c(N([H])[H])c([H])c(C([H])(C([H])([H])[H])[N+]([H])([H])C([H])([H])C([H])([H])C([H])([H])C([H])([H])C([H])([H])N([H])C(=O)N4C([H])([H])C([H])([H])C([H])([H])C([H])(n5nc(-c6c([H])c([H])c(Oc7c([H])c([H])c(F)c([H])c7F)c([H])c6[H])c(C(=O)N([H])[H])c5N([H])[H])C4([H])[H])c3[H])c([H])c([H])c2C1([H])[H]

>  <smiles>  (56) 
[H]c1c([H])c([H])c2c(c1[H])C([H])([H])C([H])([H])C([H])([H])C2([H])N([H])C(=O)C1([H])N(C(=O)C([H])(N([H])C(=O)C([H])(N([H])C([H])([H])[H])C([H])([H])[H])C(C([H])([H])[H])(C([H])([H])[H])C([H])([H])[H])C([H])([H])c2c([H])c(OC([H])([H])C([H])([H])c3c([H])c(N([H])[H])c([H])c(C([H])(C([H])([H])[H])[N+]([H])([H])C([H])([H])C([H])([H])C([H])([H])C([H])([H])C([H])([H])N([H])C(=O)N4C([H])([H])C([H])([H])C([H])([H])C([H])(n5nc(-c6c([H])c([H])c(Oc7c([H])c([H])c(F)c([H])c7F)c([H])c6[H])c(C(=O)N([H])[H])c5N([H])[H])C4([H])[H])c3[H])c([H])c([H])c2C1([H])[H]

$$$$
57:0:0
     RDKit          3D

 99106  0  0  1  0  0  0  0  0999 V2000
  -27.6420  -20.9860   16.3570 C   0  0  0  0  0  3  0  0  0  0  0  0
  -27.6060  -22.1380   17.0610 C   0  0  0  0  0  0  0  0  0  0  0  0
  -26.4990  -23.1500   16.8260 C   0  0  0  0  0  1  0  0  0  0  0  0
  -28.6840  -19.8880   16.4610 C   0  0  0  0  0  2  0  0  0  0  0  0
  -28.2090  -18.7200   17.3510 C   0  0  0  0  0  2  0  0  0  0  0  0
  -29.2830  -18.2380   18.2450 N   0  0  0  0  0  4  0  0  0  0  0  0
  -30.1470  -18.6570   17.9460 H   0  0  0  0  0  0  0  0  0  0  0  0
  -29.3770  -17.2430   18.1130 H   0  0  0  0  0  0  0  0  0  0  0  0
  -29.0580  -18.5270   19.6850 C   0  0  0  0  0  2  0  0  0  0  0  0
  -30.2490  -18.1260   20.5740 C   0  0  0  0  0  2  0  0  0  0  0  0
  -30.3530  -16.6090   20.7080 C   0  0  0  0  0  2  0  0  0  0  0  0
  -31.4980  -16.1000   21.6010 C   0  0  0  0  0  2  0  0  0  0  0  0
  -31.8120  -13.8300   20.7190 C   0  0  0  0  0  0  0  0  0  0  0  0
  -31.2480  -11.8340   19.3890 C   0  0  0  0  0  2  0  0  0  0  0  0
  -30.3780  -12.2260   18.1790 C   0  0  0  0  0  2  0  0  0  0  0  0
  -28.8880  -12.2420   18.5670 C   0  0  0  0  0  2  0  0  0  0  0  0
  -28.6220  -13.0790   19.8450 C   0  0  0  0  0  3  0  0  0  0  0  0
  -29.5950  -12.6640   20.9720 C   0  0  0  0  0  2  0  0  0  0  0  0
  -30.9860  -12.7830   20.4790 N   0  0  0  0  0  0  0  0  0  0  0  0
  -32.8400  -14.0620   20.0750 O   0  0  0  0  0  0  0  0  0  0  0  0
  -31.3770  -14.6530   21.6750 N   0  0  0  0  0  0  0  0  0  0  0  0
  -30.6140  -14.2990   22.2350 H   0  0  0  0  0  0  0  0  0  0  0  0
  -26.2960  -13.9680   20.5170 C   0  0  0  0  0  0  0  0  0  0  0  0
  -25.1290  -13.3260   20.8330 C   0  0  0  0  0  0  0  0  0  0  0  0
  -25.4170  -11.9280   20.7560 C   0  0  0  0  0  0  0  0  0  0  0  0
  -27.2270  -12.9710   20.2730 N   0  0  0  0  0  0  0  0  0  0  0  0
  -26.6960  -11.7360   20.4690 N   0  0  0  0  0  0  0  0  0  0  0  0
  -24.5340  -10.7620   20.8780 C   0  0  0  0  0  0  0  0  0  0  0  0
  -24.7740   -9.7480   21.8320 C   0  0  0  0  0  3  0  0  0  0  0  0
  -23.8990   -8.6460   21.9400 C   0  0  0  0  0  3  0  0  0  0  0  0
  -22.7670   -8.5540   21.0960 C   0  0  0  0  0  0  0  0  0  0  0  0
  -22.5450   -9.5550   20.1340 C   0  0  0  0  0  3  0  0  0  0  0  0
  -23.4210  -10.6470   20.0220 C   0  0  0  0  0  3  0  0  0  0  0  0
  -21.8740   -7.5100   21.1160 O   0  0  0  0  0  0  0  0  0  0  0  0
  -21.6030   -6.8160   22.2680 C   0  0  0  0  0  0  0  0  0  0  0  0
  -21.0420   -7.4450   23.4010 C   0  0  0  0  0  3  0  0  0  0  0  0
  -20.7150   -6.6810   24.5390 C   0  0  0  0  0  3  0  0  0  0  0  0
  -20.9370   -5.2920   24.5440 C   0  0  0  0  0  0  0  0  0  0  0  0
  -21.4880   -4.6630   23.4140 C   0  0  0  0  0  3  0  0  0  0  0  0
  -21.8160   -5.4240   22.2780 C   0  0  0  0  0  0  0  0  0  0  0  0
  -22.3300   -4.8090   21.1840 F   0  0  0  0  0  0  0  0  0  0  0  0
  -20.6130   -4.5560   25.6340 F   0  0  0  0  0  0  0  0  0  0  0  0
  -23.7970  -13.9640   21.1020 C   0  0  0  0  0  0  0  0  0  0  0  0
  -22.9710  -13.3360   21.9300 N   0  0  0  0  0  0  0  0  0  0  0  0
  -23.5010  -15.0560   20.6150 O   0  0  0  0  0  0  0  0  0  0  0  0
  -23.2210  -12.4500   22.3440 H   0  0  0  0  0  0  0  0  0  0  0  0
  -22.0750  -13.7450   22.1530 H   0  0  0  0  0  0  0  0  0  0  0  0
  -26.6370  -15.3130   20.4010 N   0  0  0  0  0  0  0  0  0  0  0  0
  -25.9550  -16.0540   20.5250 H   0  0  0  0  0  0  0  0  0  0  0  0
  -27.5550  -15.6520   20.1550 H   0  0  0  0  0  0  0  0  0  0  0  0
  -28.6260  -22.5520   18.1220 C   0  0  0  0  0  2  0  0  0  0  0  0
  -27.0440  -21.3510   19.7970 C   0  0  0  0  0  1  0  0  0  0  0  0
  -28.4800  -21.8510   19.5030 C   0  0  0  0  0  3  0  0  0  0  0  0
  -29.0390  -22.6600   20.6180 N   0  0  0  0  0  4  0  0  0  0  0  0
  -28.9530  -22.1330   21.4760 H   0  0  0  0  0  0  0  0  0  0  0  0
  -30.0280  -22.7890   20.4640 H   0  0  0  0  0  0  0  0  0  0  0  0
  -28.3890  -23.9750   20.8020 C   0  0  0  0  0  2  0  0  0  0  0  0
  -28.8540  -24.7760   22.0260 C   0  0  0  0  0  2  0  0  0  0  0  0
  -28.8690  -26.1870   21.7880 O   0  0  0  0  0  0  0  0  0  0  0  0
  -24.7270  -31.6410   23.6790 C   0  0  0  0  0  0  0  0  0  0  0  0
  -27.6860  -26.8600   21.5620 C   0  0  0  0  0  0  0  0  0  0  0  0
  -23.7480  -30.0850   22.0310 C   0  0  0  0  0  3  0  0  0  0  0  0
  -25.3560  -28.3820   21.0410 C   0  0  0  0  0  0  0  0  0  0  0  0
  -26.2850  -30.3840   22.2060 C   0  0  0  0  0  2  0  0  0  0  0  0
  -26.4240  -28.9510   21.7470 C   0  0  0  0  0  0  0  0  0  0  0  0
  -27.5860  -28.1940   22.0100 C   0  0  0  0  0  3  0  0  0  0  0  0
  -26.6020  -26.3190   20.8240 C   0  0  0  0  0  3  0  0  0  0  0  0
  -25.4390  -27.0630   20.5820 C   0  0  0  0  0  3  0  0  0  0  0  0
  -24.1490  -29.2540   20.7870 C   0  0  0  0  0  2  0  0  0  0  0  0
  -24.9290  -30.7220   22.6980 N   0  0  0  0  0  0  0  0  0  0  0  0
  -23.5850  -31.9890   24.0060 O   0  0  0  0  0  0  0  0  0  0  0  0
  -22.9260  -29.1810   22.9770 C   0  0  0  0  0  0  0  0  0  0  0  0
  -21.6260  -29.0260   22.6760 N   0  0  0  0  0  0  0  0  0  0  0  0
  -23.4580  -28.6220   23.9390 O   0  0  0  0  0  0  0  0  0  0  0  0
  -21.2600  -29.5200   21.8730 H   0  0  0  0  0  0  0  0  0  0  0  0
  -18.1440  -28.1070   22.8720 C   0  0  0  0  0  0  0  0  0  0  0  0
  -20.6680  -28.2000   23.4090 C   0  0  0  0  0  3  0  0  0  0  0  0
  -20.7230  -26.7310   22.9280 C   0  0  0  0  0  2  0  0  0  0  0  0
  -19.7110  -26.4220   21.8200 C   0  0  0  0  0  2  0  0  0  0  0  0
  -18.2850  -26.7080   22.2990 C   0  0  0  0  0  2  0  0  0  0  0  0
  -19.2650  -28.8150   23.3780 C   0  0  0  0  0  0  0  0  0  0  0  0
  -19.0850  -30.1300   23.8620 C   0  0  0  0  0  3  0  0  0  0  0  0
  -17.8130  -30.7340   23.8520 C   0  0  0  0  0  3  0  0  0  0  0  0
  -16.7020  -30.0220   23.3650 C   0  0  0  0  0  3  0  0  0  0  0  0
  -16.8690  -28.7110   22.8820 C   0  0  0  0  0  3  0  0  0  0  0  0
  -25.9220  -32.3180   24.4220 C   0  0  0  0  0  3  0  0  0  0  0  0
  -25.6110  -33.7460   24.5410 N   0  0  0  0  0  0  0  0  0  0  0  0
  -26.0570  -34.6930   23.7060 C   0  0  0  0  0  0  0  0  0  0  0  0
  -26.8410  -34.4570   22.7810 O   0  0  0  0  0  0  0  0  0  0  0  0
  -24.9310  -34.0050   25.2410 H   0  0  0  0  0  0  0  0  0  0  0  0
  -24.4000  -36.4300   22.9580 C   0  0  0  0  0  1  0  0  0  0  0  0
  -25.5530  -36.1310   23.9300 C   0  0  0  0  0  3  0  0  0  0  0  0
  -27.6050  -37.1170   24.8510 C   0  0  0  0  0  1  0  0  0  0  0  0
  -26.6100  -37.1550   23.7820 N   0  0  0  0  0  0  0  0  0  0  0  0
  -26.2060  -38.0880   23.7620 H   0  0  0  0  0  0  0  0  0  0  0  0
  -26.2120  -31.6840   25.8370 C   0  0  1  0  0  0  0  0  0  0  0  0
  -24.9540  -31.5480   26.7270 C   0  0  0  0  0  1  0  0  0  0  0  0
  -26.8360  -30.2770   25.6860 C   0  0  0  0  0  1  0  0  0  0  0  0
  -27.2510  -32.5450   26.5920 C   0  0  0  0  0  1  0  0  0  0  0  0
  1  4  1  0
  1  2  2  0
  2 51  1  0
  3  2  1  0
  4  5  1  0
  5  6  1  0
  6  9  1  0
  7  6  1  0
  8  6  1  0
  9 10  1  0
 10 11  1  0
 11 12  1  0
 12 21  1  0
 13 21  1  0
 14 19  1  0
 15 16  1  0
 15 14  1  0
 17 16  1  0
 17 26  1  0
 17 18  1  0
 19 13  1  0
 19 18  1  0
 20 13  2  0
 21 22  1  0
 23 24  2  0
 24 43  1  0
 25 24  1  0
 25 28  1  0
 26 27  1  0
 26 23  1  0
 27 25  2  0
 28 29  1  0
 29 30  2  0
 31 34  1  0
 31 30  1  0
 32 31  2  0
 33 32  1  0
 33 28  2  0
 34 35  1  0
 35 40  2  0
 35 36  1  0
 36 37  2  0
 37 38  1  0
 38 42  1  0
 39 38  2  0
 40 39  1  0
 41 40  1  0
 43 44  1  0
 44 47  1  0
 44 46  1  0
 45 43  2  0
 48 23  1  0
 48 49  1  0
 50 48  1  0
 51 53  1  0
 53 52  1  0
 53 54  1  0
 54 57  1  0
 54 55  1  0
 56 54  1  0
 57 58  1  0
 59 58  1  0
 60 71  2  0
 61 59  1  0
 61 66  1  0
 62 70  1  0
 62 72  1  0
 63 65  1  0
 64 70  1  0
 65 66  2  0
 65 64  1  0
 67 61  2  0
 68 67  1  0
 68 63  2  0
 69 63  1  0
 69 62  1  0
 70 60  1  0
 72 74  2  0
 73 72  1  0
 75 73  1  0
 76 85  2  0
 76 81  1  0
 77 73  1  0
 78 77  1  0
 79 80  1  0
 79 78  1  0
 80 76  1  0
 81 77  1  0
 81 82  2  0
 83 82  1  0
 84 83  2  0
 85 84  1  0
 86 60  1  0
 86 87  1  0
 86 96  1  0
 87 90  1  0
 88 92  1  0
 88 87  1  0
 89 88  2  0
 92 91  1  0
 94 92  1  0
 94 93  1  0
 95 94  1  0
 96 99  1  1
 96 97  1  0
 98 96  1  0
M  ISO  4  13 100  21 100  58 101  59 101
M  END
>  <TORSDO>  (57) 
F 28

>  <SCORE>  (57) 
-7.425

>  <name>  (57) 
57

>  <ligand_id>  (57) 
57

>  <original_smiles>  (57) 
[H]C(=C(C([H])([H])[H])C([H])([H])C([H])(C([H])([H])[H])[N+]([H])([H])C([H])([H])C([H])([H])Oc1c([H])c([H])c2c(c1[H])C([H])([H])N(C(=O)C([H])(N([H])C(=O)C([H])(N([H])C([H])([H])[H])C([H])([H])[H])C(C([H])([H])[H])(C([H])([H])[H])C([H])([H])[H])C([H])(C(=O)N([H])C1([H])c3c([H])c([H])c([H])c([H])c3C([H])([H])C([H])([H])C1([H])[H])C2([H])[H])C([H])([H])C([H])([H])[N+]([H])([H])C([H])([H])C([H])([H])C([H])([H])C([H])([H])N([H])C(=O)N1C([H])([H])C([H])([H])C([H])([H])C([H])(n2nc(-c3c([H])c([H])c(Oc4c([H])c([H])c(F)c([H])c4F)c([H])c3[H])c(C(=O)N([H])[H])c2N([H])[H])C1([H])[H]

>  <smiles>  (57) 
[H]C(=C(C([H])([H])[H])C([H])([H])C([H])(C([H])([H])[H])[N+]([H])([H])C([H])([H])C([H])([H])Oc1c([H])c([H])c2c(c1[H])C([H])([H])N(C(=O)C([H])(N([H])C(=O)C([H])(N([H])C([H])([H])[H])C([H])([H])[H])C(C([H])([H])[H])(C([H])([H])[H])C([H])([H])[H])C([H])(C(=O)N([H])C1([H])c3c([H])c([H])c([H])c([H])c3C([H])([H])C([H])([H])C1([H])[H])C2([H])[H])C([H])([H])C([H])([H])[N+]([H])([H])C([H])([H])C([H])([H])C([H])([H])C([H])([H])N([H])C(=O)N1C([H])([H])C([H])([H])C([H])([H])C([H])(n2nc(-c3c([H])c([H])c(Oc4c([H])c([H])c(F)c([H])c4F)c([H])c3[H])c(C(=O)N([H])[H])c2N([H])[H])C1([H])[H]

$$$$
58:0:0
     RDKit          3D

 95103  0  0  1  0  0  0  0  0999 V2000
  -27.8110  -21.6200   21.2100 C   0  0  0  0  0  3  0  0  0  0  0  0
  -27.4550  -23.2590   19.4280 C   0  0  0  0  0  3  0  0  0  0  0  0
  -27.2060  -20.8710   18.9650 C   0  0  0  0  0  3  0  0  0  0  0  0
  -27.7690  -22.9660   20.7720 C   0  0  0  0  0  0  0  0  0  0  0  0
  -27.5360  -20.5680   20.3040 C   0  0  0  0  0  0  0  0  0  0  0  0
  -27.1600  -22.2130   18.5310 C   0  0  0  0  0  0  0  0  0  0  0  0
  -26.7380  -22.5820   16.8960 S   0  0  0  0  0  1  0  0  0  0  0  0
  -28.0380  -24.1130   21.7350 C   0  0  0  0  0  2  0  0  0  0  0  0
  -29.4500  -24.7040   21.5920 C   0  0  0  0  0  2  0  0  0  0  0  0
  -29.5730  -26.1340   22.1490 C   0  0  0  0  0  2  0  0  0  0  0  0
  -29.5240  -27.0760   21.0790 O   0  0  0  0  0  0  0  0  0  0  0  0
  -24.8870  -31.9020   23.4620 C   0  0  0  0  0  0  0  0  0  0  0  0
  -28.3020  -27.6740   20.9290 C   0  0  0  0  0  0  0  0  0  0  0  0
  -24.0260  -30.3280   21.7540 C   0  0  0  0  0  3  0  0  0  0  0  0
  -25.7860  -28.8920   20.5930 C   0  0  0  0  0  0  0  0  0  0  0  0
  -26.5050  -30.9400   21.8400 C   0  0  0  0  0  2  0  0  0  0  0  0
  -26.8020  -29.5650   21.2860 C   0  0  0  0  0  0  0  0  0  0  0  0
  -28.0640  -28.9610   21.4540 C   0  0  0  0  0  3  0  0  0  0  0  0
  -27.2770  -27.0020   20.2360 C   0  0  0  0  0  3  0  0  0  0  0  0
  -26.0150  -27.6060   20.0720 C   0  0  0  0  0  3  0  0  0  0  0  0
  -24.4710  -29.6200   20.4440 C   0  0  0  0  0  2  0  0  0  0  0  0
  -25.1490  -31.0730   22.4130 N   0  0  0  0  0  0  0  0  0  0  0  0
  -23.7280  -32.0840   23.8600 O   0  0  0  0  0  0  0  0  0  0  0  0
  -23.3660  -29.2820   22.6810 C   0  0  0  0  0  0  0  0  0  0  0  0
  -22.0870  -28.9710   22.4160 N   0  0  0  0  0  0  0  0  0  0  0  0
  -24.0070  -28.7530   23.5940 O   0  0  0  0  0  0  0  0  0  0  0  0
  -21.6270  -29.4650   21.6650 H   0  0  0  0  0  0  0  0  0  0  0  0
  -18.7750  -27.5440   22.6400 C   0  0  0  0  0  0  0  0  0  0  0  0
  -21.2770  -27.9780   23.1200 C   0  0  0  0  0  3  0  0  0  0  0  0
  -21.5260  -26.5550   22.5690 C   0  0  0  0  0  2  0  0  0  0  0  0
  -20.5360  -26.1490   21.4730 C   0  0  0  0  0  2  0  0  0  0  0  0
  -19.1000  -26.2020   22.0020 C   0  0  0  0  0  2  0  0  0  0  0  0
  -19.8000  -28.3840   23.1500 C   0  0  0  0  0  0  0  0  0  0  0  0
  -19.4510  -29.6350   23.7020 C   0  0  0  0  0  3  0  0  0  0  0  0
  -18.1070  -30.0510   23.7530 C   0  0  0  0  0  3  0  0  0  0  0  0
  -17.0950  -29.2070   23.2650 C   0  0  0  0  0  3  0  0  0  0  0  0
  -17.4290  -27.9570   22.7150 C   0  0  0  0  0  3  0  0  0  0  0  0
  -26.0250  -32.6770   24.1970 C   0  0  0  0  0  3  0  0  0  0  0  0
  -25.5590  -34.0550   24.3970 N   0  0  0  0  0  0  0  0  0  0  0  0
  -25.8800  -35.0910   23.6110 C   0  0  0  0  0  0  0  0  0  0  0  0
  -26.6760  -34.9960   22.6700 O   0  0  0  0  0  0  0  0  0  0  0  0
  -24.8700  -34.1940   25.1220 H   0  0  0  0  0  0  0  0  0  0  0  0
  -24.0460  -36.6810   22.9520 C   0  0  0  0  0  1  0  0  0  0  0  0
  -25.2210  -36.4480   23.9150 C   0  0  0  0  0  3  0  0  0  0  0  0
  -27.1830  -37.5720   24.8740 C   0  0  0  0  0  1  0  0  0  0  0  0
  -26.1560  -37.5900   23.8360 N   0  0  0  0  0  0  0  0  0  0  0  0
  -25.6560  -38.4710   23.9080 H   0  0  0  0  0  0  0  0  0  0  0  0
  -26.4380  -32.0210   25.5710 C   0  0  1  0  0  0  0  0  0  0  0  0
  -25.2350  -31.6580   26.4730 C   0  0  0  0  0  1  0  0  0  0  0  0
  -27.2660  -30.7360   25.3330 C   0  0  0  0  0  1  0  0  0  0  0  0
  -27.3370  -33.0000   26.3660 C   0  0  0  0  0  1  0  0  0  0  0  0
  -27.5570  -19.1110   20.7590 C   0  0  0  0  0  2  0  0  0  0  0  0
  -28.8380  -18.3560   20.3210 C   0  0  0  0  0  2  0  0  0  0  0  0
  -28.9110  -16.9940   20.9080 N   0  0  0  0  0  4  0  0  0  0  0  0
  -28.4420  -17.0570   21.7970 H   0  0  0  0  0  0  0  0  0  0  0  0
  -28.3670  -16.3550   20.3460 H   0  0  0  0  0  0  0  0  0  0  0  0
  -30.2680  -16.4510   21.2070 C   0  0  0  0  0  2  0  0  0  0  0  0
  -30.7910  -15.8010   18.8000 C   0  0  0  0  0  2  0  0  0  0  0  0
  -30.8800  -15.5570   20.1250 C   0  0  0  0  0  0  0  0  0  0  0  0
  -31.7110  -14.4060   20.4930 C   0  0  0  0  0  0  0  0  0  0  0  0
  -31.4920  -11.9770   20.1960 C   0  0  0  0  0  2  0  0  0  0  0  0
  -30.6920  -11.7230   18.9000 C   0  0  0  0  0  2  0  0  0  0  0  0
  -29.1750  -11.7230   19.1860 C   0  0  0  0  0  2  0  0  0  0  0  0
  -28.7190  -12.9510   20.0170 C   0  0  0  0  0  3  0  0  0  0  0  0
  -29.6450  -13.1700   21.2320 C   0  0  0  0  0  2  0  0  0  0  0  0
  -31.0310  -13.2570   20.7480 N   0  0  0  0  0  0  0  0  0  0  0  0
  -32.9250  -14.4160   20.2710 O   0  0  0  0  0  0  0  0  0  0  0  0
  -26.3900  -13.8600   20.6210 C   0  0  0  0  0  0  0  0  0  0  0  0
  -25.2090  -13.2270   20.9070 C   0  0  0  0  0  0  0  0  0  0  0  0
  -25.4910  -11.8290   20.8560 C   0  0  0  0  0  0  0  0  0  0  0  0
  -27.3190  -12.8510   20.4140 N   0  0  0  0  0  0  0  0  0  0  0  0
  -26.7790  -11.6250   20.6200 N   0  0  0  0  0  0  0  0  0  0  0  0
  -24.6020  -10.6650   20.9640 C   0  0  0  0  0  0  0  0  0  0  0  0
  -24.8440   -9.6360   21.9010 C   0  0  0  0  0  3  0  0  0  0  0  0
  -23.9640   -8.5380   22.0000 C   0  0  0  0  0  3  0  0  0  0  0  0
  -22.8270   -8.4630   21.1590 C   0  0  0  0  0  0  0  0  0  0  0  0
  -22.6040   -9.4800   20.2150 C   0  0  0  0  0  3  0  0  0  0  0  0
  -23.4830  -10.5700   20.1140 C   0  0  0  0  0  3  0  0  0  0  0  0
  -21.9310   -7.4230   21.1670 O   0  0  0  0  0  0  0  0  0  0  0  0
  -21.6830   -6.6950   22.3030 C   0  0  0  0  0  0  0  0  0  0  0  0
  -21.2210   -7.3010   23.4910 C   0  0  0  0  0  3  0  0  0  0  0  0
  -20.9110   -6.5060   24.6120 C   0  0  0  0  0  3  0  0  0  0  0  0
  -21.0510   -5.1080   24.5470 C   0  0  0  0  0  0  0  0  0  0  0  0
  -21.5070   -4.5020   23.3630 C   0  0  0  0  0  3  0  0  0  0  0  0
  -21.8190   -5.2940   22.2440 C   0  0  0  0  0  0  0  0  0  0  0  0
  -22.2380   -4.7010   21.0990 F   0  0  0  0  0  0  0  0  0  0  0  0
  -20.7460   -4.3440   25.6210 F   0  0  0  0  0  0  0  0  0  0  0  0
  -23.8700  -13.8770   21.1070 C   0  0  0  0  0  0  0  0  0  0  0  0
  -23.0080  -13.2770   21.9210 N   0  0  0  0  0  0  0  0  0  0  0  0
  -23.5980  -14.9520   20.5740 O   0  0  0  0  0  0  0  0  0  0  0  0
  -23.2380  -12.4070   22.3760 H   0  0  0  0  0  0  0  0  0  0  0  0
  -22.1060  -13.7000   22.0920 H   0  0  0  0  0  0  0  0  0  0  0  0
  -26.7510  -15.1990   20.4970 N   0  0  0  0  0  0  0  0  0  0  0  0
  -25.9740  -15.8450   20.4010 H   0  0  0  0  0  0  0  0  0  0  0  0
  -27.4980  -15.4210   19.8490 H   0  0  0  0  0  0  0  0  0  0  0  0
  2  4  2  0
  3  5  1  0
  4  1  1  0
  4  8  1  0
  5 52  1  0
  5  1  2  0
  6  3  2  0
  6  2  1  0
  7  6  1  0
  9  8  1  0
  9 10  1  0
 11 10  1  0
 12 23  2  0
 13 11  1  0
 13 18  1  0
 14 22  1  0
 14 24  1  0
 15 17  1  0
 16 22  1  0
 17 18  2  0
 17 16  1  0
 19 13  2  0
 20 19  1  0
 20 15  2  0
 21 15  1  0
 21 14  1  0
 22 12  1  0
 24 26  2  0
 25 24  1  0
 27 25  1  0
 28 37  2  0
 28 33  1  0
 29 25  1  0
 29 33  1  0
 30 29  1  0
 31 32  1  0
 31 30  1  0
 32 28  1  0
 33 34  2  0
 34 35  1  0
 36 35  2  0
 37 36  1  0
 38 12  1  0
 38 39  1  0
 38 48  1  0
 39 42  1  0
 40 44  1  0
 40 39  1  0
 41 40  2  0
 44 43  1  0
 46 47  1  0
 46 44  1  0
 46 45  1  0
 48 51  1  1
 48 49  1  0
 50 48  1  0
 53 52  1  0
 53 54  1  0
 54 57  1  0
 54 55  1  0
 56 54  1  0
 58 59  2  0
 59 60  1  0
 59 57  1  0
 60 66  1  0
 61 66  1  0
 62 63  1  0
 62 61  1  0
 64 63  1  0
 64 71  1  0
 64 65  1  0
 66 65  1  0
 67 60  2  0
 68 69  2  0
 69 88  1  0
 70 69  1  0
 70 73  1  0
 71 72  1  0
 71 68  1  0
 72 70  2  0
 73 74  1  0
 74 75  2  0
 76 79  1  0
 76 75  1  0
 77 76  2  0
 78 77  1  0
 78 73  2  0
 79 80  1  0
 80 81  1  0
 81 82  2  0
 83 82  1  0
 83 87  1  0
 84 83  2  0
 85 80  2  0
 85 84  1  0
 86 85  1  0
 88 89  1  0
 89 92  1  0
 89 91  1  0
 90 88  2  0
 93 68  1  0
 94 93  1  0
 95 93  1  0
M  ISO  4  10 101  11 101  59 100  60 100
M  END
>  <TORSDO>  (58) 
F 24

>  <SCORE>  (58) 
-9.387

>  <name>  (58) 
58

>  <ligand_id>  (58) 
58

>  <original_smiles>  (58) 
[H]C([H])=C(C(=O)N1C([H])([H])C([H])([H])C([H])([H])C([H])(n2nc(-c3c([H])c([H])c(Oc4c([H])c([H])c(F)c([H])c4F)c([H])c3[H])c(C(=O)N([H])[H])c2N([H])[H])C1([H])[H])C([H])([H])[N+]([H])([H])C([H])([H])C([H])([H])c1c([H])c([S-])c([H])c(C([H])([H])C([H])([H])C([H])([H])Oc2c([H])c([H])c3c(c2[H])C([H])([H])N(C(=O)C([H])(N([H])C(=O)C([H])(N([H])C([H])([H])[H])C([H])([H])[H])C(C([H])([H])[H])(C([H])([H])[H])C([H])([H])[H])C([H])(C(=O)N([H])C2([H])c4c([H])c([H])c([H])c([H])c4C([H])([H])C([H])([H])C2([H])[H])C3([H])[H])c1[H]

>  <smiles>  (58) 
[H]C([H])=C(C(=O)N1C([H])([H])C([H])([H])C([H])([H])C([H])(n2nc(-c3c([H])c([H])c(Oc4c([H])c([H])c(F)c([H])c4F)c([H])c3[H])c(C(=O)N([H])[H])c2N([H])[H])C1([H])[H])C([H])([H])[N+]([H])([H])C([H])([H])C([H])([H])c1c([H])c([S-])c([H])c(C([H])([H])C([H])([H])C([H])([H])Oc2c([H])c([H])c3c(c2[H])C([H])([H])N(C(=O)C([H])(N([H])C(=O)C([H])(N([H])C([H])([H])[H])C([H])([H])[H])C(C([H])([H])[H])(C([H])([H])[H])C([H])([H])[H])C([H])(C(=O)N([H])C2([H])c4c([H])c([H])c([H])c([H])c4C([H])([H])C([H])([H])C2([H])[H])C3([H])[H])c1[H]

$$$$
59:0:0
     RDKit          3D

 97105  0  0  1  0  0  0  0  0999 V2000
  -29.1360  -20.7940   19.7380 C   0  0  0  0  0  3  0  0  0  0  0  0
  -29.0480  -21.9990   20.3260 C   0  0  0  0  0  3  0  0  0  0  0  0
  -26.6180  -20.7530   19.4430 C   0  0  0  0  0  2  0  0  0  0  0  0
  -26.7150  -22.2890   19.4040 C   0  0  0  0  0  2  0  0  0  0  0  0
  -27.9600  -20.0580   19.1000 C   0  0  0  0  0  3  0  0  0  0  0  0
  -27.7730  -22.8370   20.3910 C   0  0  0  0  0  3  0  0  0  0  0  0
  -28.0490  -24.2650   20.0970 N   0  0  0  0  0  4  0  0  0  0  0  0
  -27.1800  -24.7780   20.1460 H   0  0  0  0  0  0  0  0  0  0  0  0
  -28.3730  -24.3160   19.1440 H   0  0  0  0  0  0  0  0  0  0  0  0
  -28.3870  -25.4370   22.2840 C   0  0  0  0  0  1  0  0  0  0  0  0
  -29.0410  -24.9450   20.9720 C   0  0  0  0  0  3  0  0  0  0  0  0
  -29.8350  -26.0210   20.1730 C   0  0  0  0  0  2  0  0  0  0  0  0
  -29.5470  -27.3630   20.5520 O   0  0  0  0  0  0  0  0  0  0  0  0
  -24.8090  -31.8010   23.3420 C   0  0  0  0  0  0  0  0  0  0  0  0
  -28.2720  -27.8600   20.4280 C   0  0  0  0  0  0  0  0  0  0  0  0
  -23.9490  -30.3400   21.5380 C   0  0  0  0  0  3  0  0  0  0  0  0
  -25.7130  -29.0380   20.2370 C   0  0  0  0  0  0  0  0  0  0  0  0
  -26.4150  -31.0050   21.6170 C   0  0  0  0  0  2  0  0  0  0  0  0
  -26.7280  -29.6840   20.9510 C   0  0  0  0  0  0  0  0  0  0  0  0
  -28.0070  -29.1010   21.0410 C   0  0  0  0  0  3  0  0  0  0  0  0
  -27.2360  -27.2110   19.7140 C   0  0  0  0  0  3  0  0  0  0  0  0
  -25.9600  -27.7980   19.6190 C   0  0  0  0  0  3  0  0  0  0  0  0
  -24.3770  -29.7410   20.1710 C   0  0  0  0  0  2  0  0  0  0  0  0
  -25.0680  -31.0640   22.2260 N   0  0  0  0  0  0  0  0  0  0  0  0
  -23.6540  -31.9250   23.7720 O   0  0  0  0  0  0  0  0  0  0  0  0
  -23.3300  -29.2140   22.3930 C   0  0  0  0  0  0  0  0  0  0  0  0
  -22.0380  -28.9290   22.1600 N   0  0  0  0  0  0  0  0  0  0  0  0
  -24.0120  -28.5980   23.2180 O   0  0  0  0  0  0  0  0  0  0  0  0
  -21.5510  -29.4840   21.4690 H   0  0  0  0  0  0  0  0  0  0  0  0
  -18.7220  -27.5290   22.4500 C   0  0  0  0  0  0  0  0  0  0  0  0
  -21.2560  -27.8830   22.8140 C   0  0  0  0  0  3  0  0  0  0  0  0
  -21.4460  -26.5210   22.1050 C   0  0  0  0  0  2  0  0  0  0  0  0
  -20.3850  -26.2470   21.0350 C   0  0  0  0  0  2  0  0  0  0  0  0
  -18.9830  -26.2610   21.6530 C   0  0  0  0  0  2  0  0  0  0  0  0
  -19.7910  -28.2990   22.9810 C   0  0  0  0  0  0  0  0  0  0  0  0
  -19.4960  -29.4880   23.6830 C   0  0  0  0  0  3  0  0  0  0  0  0
  -18.1650  -29.9090   23.8590 C   0  0  0  0  0  3  0  0  0  0  0  0
  -17.1100  -29.1350   23.3450 C   0  0  0  0  0  3  0  0  0  0  0  0
  -17.3890  -27.9460   22.6480 C   0  0  0  0  0  3  0  0  0  0  0  0
  -25.9440  -32.5440   24.1160 C   0  0  0  0  0  3  0  0  0  0  0  0
  -25.5070  -33.9320   24.3130 N   0  0  0  0  0  0  0  0  0  0  0  0
  -25.8840  -34.9630   23.5450 C   0  0  0  0  0  0  0  0  0  0  0  0
  -26.7030  -34.8520   22.6280 O   0  0  0  0  0  0  0  0  0  0  0  0
  -24.7950  -34.0890   25.0110 H   0  0  0  0  0  0  0  0  0  0  0  0
  -24.1170  -36.6040   22.8370 C   0  0  0  0  0  1  0  0  0  0  0  0
  -25.2520  -36.3360   23.8380 C   0  0  0  0  0  3  0  0  0  0  0  0
  -27.1900  -37.4090   24.8980 C   0  0  0  0  0  1  0  0  0  0  0  0
  -26.2230  -37.4510   23.8040 N   0  0  0  0  0  0  0  0  0  0  0  0
  -25.7440  -38.3480   23.8390 H   0  0  0  0  0  0  0  0  0  0  0  0
  -26.3030  -31.8690   25.4970 C   0  0  1  0  0  0  0  0  0  0  0  0
  -25.0700  -31.5720   26.3810 C   0  0  0  0  0  1  0  0  0  0  0  0
  -27.0550  -30.5360   25.2710 C   0  0  0  0  0  1  0  0  0  0  0  0
  -27.2590  -32.7860   26.2960 C   0  0  0  0  0  1  0  0  0  0  0  0
  -27.9030  -18.6240   19.4910 N   0  0  0  0  0  4  0  0  0  0  0  0
  -27.1230  -18.2170   18.9970 H   0  0  0  0  0  0  0  0  0  0  0  0
  -27.7000  -18.5400   20.4740 H   0  0  0  0  0  0  0  0  0  0  0  0
  -29.0860  -17.7910   19.1730 C   0  0  0  0  0  2  0  0  0  0  0  0
  -30.1790  -17.8790   20.2660 C   0  0  0  0  0  2  0  0  0  0  0  0
  -31.3910  -16.9610   20.0210 C   0  0  0  0  0  2  0  0  0  0  0  0
  -31.5870  -14.5200   19.5850 C   0  0  0  0  0  0  0  0  0  0  0  0
  -31.2340  -12.1650   18.9590 C   0  0  0  0  0  2  0  0  0  0  0  0
  -30.2330  -12.0750   17.7900 C   0  0  0  0  0  2  0  0  0  0  0  0
  -28.7810  -12.0550   18.3070 C   0  0  0  0  0  2  0  0  0  0  0  0
  -28.4990  -13.1900   19.3290 C   0  0  0  0  0  3  0  0  0  0  0  0
  -29.5980  -13.2180   20.4160 C   0  0  0  0  0  2  0  0  0  0  0  0
  -30.9090  -13.3580   19.7510 N   0  0  0  0  0  0  0  0  0  0  0  0
  -32.5870  -14.6450   18.8680 O   0  0  0  0  0  0  0  0  0  0  0  0
  -31.0510  -15.5600   20.2280 N   0  0  0  0  0  0  0  0  0  0  0  0
  -30.2770  -15.3400   20.8350 H   0  0  0  0  0  0  0  0  0  0  0  0
  -26.2600  -14.0480   20.2770 C   0  0  0  0  0  0  0  0  0  0  0  0
  -25.1430  -13.3920   20.7180 C   0  0  0  0  0  0  0  0  0  0  0  0
  -25.4280  -11.9980   20.5850 C   0  0  0  0  0  0  0  0  0  0  0  0
  -27.1660  -13.0620   19.9140 N   0  0  0  0  0  0  0  0  0  0  0  0
  -26.6690  -11.8210   20.1520 N   0  0  0  0  0  0  0  0  0  0  0  0
  -24.5740  -10.8220   20.7890 C   0  0  0  0  0  0  0  0  0  0  0  0
  -24.9220   -9.8070   21.7070 C   0  0  0  0  0  3  0  0  0  0  0  0
  -24.0740   -8.6950   21.9010 C   0  0  0  0  0  3  0  0  0  0  0  0
  -22.8640   -8.5930   21.1760 C   0  0  0  0  0  0  0  0  0  0  0  0
  -22.5320   -9.5960   20.2470 C   0  0  0  0  0  3  0  0  0  0  0  0
  -23.3790  -10.6970   20.0510 C   0  0  0  0  0  3  0  0  0  0  0  0
  -21.9920   -7.5360   21.2790 O   0  0  0  0  0  0  0  0  0  0  0  0
  -21.8340   -6.8440   22.4530 C   0  0  0  0  0  0  0  0  0  0  0  0
  -21.3990   -7.4770   23.6380 C   0  0  0  0  0  3  0  0  0  0  0  0
  -21.1850   -6.7190   24.8050 C   0  0  0  0  0  3  0  0  0  0  0  0
  -21.3920   -5.3260   24.7880 C   0  0  0  0  0  0  0  0  0  0  0  0
  -21.8180   -4.6900   23.6060 C   0  0  0  0  0  3  0  0  0  0  0  0
  -22.0350   -5.4480   22.4430 C   0  0  0  0  0  0  0  0  0  0  0  0
  -22.4270   -4.8290   21.3030 F   0  0  0  0  0  0  0  0  0  0  0  0
  -21.1780   -4.5940   25.9060 F   0  0  0  0  0  0  0  0  0  0  0  0
  -23.8440  -14.0180   21.1370 C   0  0  0  0  0  0  0  0  0  0  0  0
  -23.1190  -13.3760   22.0500 N   0  0  0  0  0  0  0  0  0  0  0  0
  -23.4870  -15.1100   20.6940 O   0  0  0  0  0  0  0  0  0  0  0  0
  -23.4210  -12.4920   22.4330 H   0  0  0  0  0  0  0  0  0  0  0  0
  -22.2520  -13.7770   22.3760 H   0  0  0  0  0  0  0  0  0  0  0  0
  -26.5690  -15.3990   20.1310 N   0  0  0  0  0  0  0  0  0  0  0  0
  -25.7890  -16.0450   20.1690 H   0  0  0  0  0  0  0  0  0  0  0  0
  -27.2520  -15.6670   19.4330 H   0  0  0  0  0  0  0  0  0  0  0  0
  1  2  2  0
  2  6  1  0
  4  3  1  0
  4  6  1  0
  5  3  1  0
  5 54  1  0
  5  1  1  0
  6  7  1  0
  7  8  1  0
  7 11  1  0
  9  7  1  0
 11 10  1  0
 12 13  1  0
 12 11  1  0
 14 25  2  0
 15 13  1  0
 15 20  1  0
 16 24  1  0
 16 26  1  0
 17 19  1  0
 18 24  1  0
 19 20  2  0
 19 18  1  0
 21 15  2  0
 22 21  1  0
 22 17  2  0
 23 17  1  0
 23 16  1  0
 24 14  1  0
 26 28  2  0
 27 26  1  0
 29 27  1  0
 30 39  2  0
 30 35  1  0
 31 27  1  0
 31 35  1  0
 32 31  1  0
 33 34  1  0
 33 32  1  0
 34 30  1  0
 35 36  2  0
 36 37  1  0
 38 37  2  0
 39 38  1  0
 40 14  1  0
 40 41  1  0
 40 50  1  0
 41 44  1  0
 42 46  1  0
 42 41  1  0
 43 42  2  0
 46 45  1  0
 48 46  1  0
 48 49  1  0
 48 47  1  0
 50 53  1  1
 50 51  1  0
 52 50  1  0
 54 56  1  0
 55 54  1  0
 57 54  1  0
 57 58  1  0
 59 68  1  0
 59 58  1  0
 60 66  1  0
 60 68  1  0
 61 66  1  0
 62 63  1  0
 62 61  1  0
 64 63  1  0
 64 73  1  0
 64 65  1  0
 66 65  1  0
 67 60  2  0
 68 69  1  0
 70 71  2  0
 71 90  1  0
 72 71  1  0
 72 75  1  0
 73 74  1  0
 73 70  1  0
 74 72  2  0
 75 76  1  0
 76 77  2  0
 78 81  1  0
 78 77  1  0
 79 78  2  0
 80 79  1  0
 80 75  2  0
 81 82  1  0
 82 83  1  0
 83 84  2  0
 85 84  1  0
 85 89  1  0
 86 85  2  0
 87 82  2  0
 87 86  1  0
 88 87  1  0
 90 91  1  0
 91 94  1  0
 91 93  1  0
 92 90  2  0
 95 96  1  0
 95 70  1  0
 97 95  1  0
M  ISO  4  12 101  13 101  60 100  68 100
M  END
>  <TORSDO>  (59) 
F 23

>  <SCORE>  (59) 
-10.802

>  <name>  (59) 
59

>  <ligand_id>  (59) 
59

>  <original_smiles>  (59) 
[H]C1=C([H])C([H])([N+]([H])([H])C([H])(C([H])([H])[H])C([H])([H])Oc2c([H])c([H])c3c(c2[H])C([H])([H])N(C(=O)C([H])(N([H])C(=O)C([H])(N([H])C([H])([H])[H])C([H])([H])[H])C(C([H])([H])[H])(C([H])([H])[H])C([H])([H])[H])C([H])(C(=O)N([H])C2([H])c4c([H])c([H])c([H])c([H])c4C([H])([H])C([H])([H])C2([H])[H])C3([H])[H])C([H])([H])C([H])([H])C1([H])[N+]([H])([H])C([H])([H])C([H])([H])C([H])([H])N([H])C(=O)N1C([H])([H])C([H])([H])C([H])([H])C([H])(n2nc(-c3c([H])c([H])c(Oc4c([H])c([H])c(F)c([H])c4F)c([H])c3[H])c(C(=O)N([H])[H])c2N([H])[H])C1([H])[H]

>  <smiles>  (59) 
[H]C1=C([H])C([H])([N+]([H])([H])C([H])(C([H])([H])[H])C([H])([H])Oc2c([H])c([H])c3c(c2[H])C([H])([H])N(C(=O)C([H])(N([H])C(=O)C([H])(N([H])C([H])([H])[H])C([H])([H])[H])C(C([H])([H])[H])(C([H])([H])[H])C([H])([H])[H])C([H])(C(=O)N([H])C2([H])c4c([H])c([H])c([H])c([H])c4C([H])([H])C([H])([H])C2([H])[H])C3([H])[H])C([H])([H])C([H])([H])C1([H])[N+]([H])([H])C([H])([H])C([H])([H])C([H])([H])N([H])C(=O)N1C([H])([H])C([H])([H])C([H])([H])C([H])(n2nc(-c3c([H])c([H])c(Oc4c([H])c([H])c(F)c([H])c4F)c([H])c3[H])c(C(=O)N([H])[H])c2N([H])[H])C1([H])[H]

$$$$
60:0:0
     RDKit          3D

 99106  0  0  1  0  0  0  0  0999 V2000
  -29.4940  -23.4840   25.9130 C   0  0  0  0  0  2  0  0  0  0  0  0
  -28.0670  -23.7750   26.4150 C   0  0  0  0  0  2  0  0  0  0  0  0
  -27.4200  -25.0120   25.7620 C   0  0  0  0  0  2  0  0  0  0  0  0
  -27.3290  -24.8810   24.2910 N   0  0  0  0  0  4  0  0  0  0  0  0
  -26.3580  -24.9660   24.0330 H   0  0  0  0  0  0  0  0  0  0  0  0
  -27.6250  -23.9530   24.0310 H   0  0  0  0  0  0  0  0  0  0  0  0
  -28.1110  -25.8840   23.5310 C   0  0  0  0  0  2  0  0  0  0  0  0
  -28.4860  -25.3960   22.1200 C   0  0  0  0  0  2  0  0  0  0  0  0
  -29.1290  -26.4950   21.2420 C   0  0  0  0  0  2  0  0  0  0  0  0
  -28.3860  -26.6970   20.0400 O   0  0  0  0  0  0  0  0  0  0  0  0
  -24.6080  -31.8700   23.2150 C   0  0  0  0  0  0  0  0  0  0  0  0
  -27.2430  -27.4590   20.1140 C   0  0  0  0  0  0  0  0  0  0  0  0
  -23.3970  -30.4920   21.5510 C   0  0  0  0  0  3  0  0  0  0  0  0
  -24.8510  -28.9600   20.1240 C   0  0  0  0  0  0  0  0  0  0  0  0
  -25.9180  -30.8480   21.3610 C   0  0  0  0  0  2  0  0  0  0  0  0
  -26.0050  -29.4760   20.7260 C   0  0  0  0  0  0  0  0  0  0  0  0
  -27.2030  -28.7310   20.7310 C   0  0  0  0  0  3  0  0  0  0  0  0
  -26.0790  -26.9580   19.4990 C   0  0  0  0  0  3  0  0  0  0  0  0
  -24.8780  -27.6950   19.5100 C   0  0  0  0  0  3  0  0  0  0  0  0
  -23.6150  -29.8310   20.1630 C   0  0  0  0  0  2  0  0  0  0  0  0
  -24.6580  -31.0850   22.1020 N   0  0  0  0  0  0  0  0  0  0  0  0
  -23.5280  -32.1410   23.7600 O   0  0  0  0  0  0  0  0  0  0  0  0
  -22.7420  -29.4620   22.4970 C   0  0  0  0  0  0  0  0  0  0  0  0
  -21.4140  -29.3010   22.3770 N   0  0  0  0  0  0  0  0  0  0  0  0
  -23.4210  -28.8110   23.2950 O   0  0  0  0  0  0  0  0  0  0  0  0
  -20.9300  -29.8800   21.7070 H   0  0  0  0  0  0  0  0  0  0  0  0
  -18.0250  -28.1390   22.8480 C   0  0  0  0  0  0  0  0  0  0  0  0
  -20.5850  -28.3640   23.1340 C   0  0  0  0  0  3  0  0  0  0  0  0
  -20.6710  -26.9370   22.5450 C   0  0  0  0  0  2  0  0  0  0  0  0
  -19.5710  -26.6380   21.5210 C   0  0  0  0  0  2  0  0  0  0  0  0
  -18.1880  -26.7930   22.1600 C   0  0  0  0  0  2  0  0  0  0  0  0
  -19.1510  -28.8840   23.2900 C   0  0  0  0  0  0  0  0  0  0  0  0
  -18.9430  -30.1440   23.8920 C   0  0  0  0  0  3  0  0  0  0  0  0
  -17.6430  -30.6590   24.0570 C   0  0  0  0  0  3  0  0  0  0  0  0
  -16.5320  -29.9090   23.6330 C   0  0  0  0  0  3  0  0  0  0  0  0
  -16.7230  -28.6510   23.0340 C   0  0  0  0  0  3  0  0  0  0  0  0
  -25.8970  -32.4840   23.8420 C   0  0  0  0  0  3  0  0  0  0  0  0
  -25.5830  -33.8640   24.2360 N   0  0  0  0  0  0  0  0  0  0  0  0
  -25.9020  -34.9490   23.5170 C   0  0  0  0  0  0  0  0  0  0  0  0
  -26.5600  -34.8940   22.4740 O   0  0  0  0  0  0  0  0  0  0  0  0
  -24.9900  -33.9760   25.0450 H   0  0  0  0  0  0  0  0  0  0  0  0
  -24.1480  -36.7330   23.2650 C   0  0  0  0  0  1  0  0  0  0  0  0
  -25.4090  -36.3130   24.0370 C   0  0  0  0  0  3  0  0  0  0  0  0
  -27.5580  -37.1800   24.8470 C   0  0  0  0  0  1  0  0  0  0  0  0
  -26.4290  -37.3800   23.9430 N   0  0  0  0  0  0  0  0  0  0  0  0
  -26.0210  -38.2880   24.1450 H   0  0  0  0  0  0  0  0  0  0  0  0
  -26.4510  -31.6570   25.0680 C   0  0  1  0  0  0  0  0  0  0  0  0
  -25.3850  -31.3510   26.1460 C   0  0  0  0  0  1  0  0  0  0  0  0
  -27.0360  -30.3070   24.5910 C   0  0  0  0  0  1  0  0  0  0  0  0
  -27.6110  -32.4280   25.7390 C   0  0  0  0  0  1  0  0  0  0  0  0
  -30.0860  -22.2170   26.5430 C   0  0  0  0  0  2  0  0  0  0  0  0
  -31.4750  -21.8760   25.9890 C   0  0  0  0  0  2  0  0  0  0  0  0
  -32.9350  -20.8960   27.8390 C   0  0  0  0  0  1  0  0  0  0  0  0
  -32.0360  -20.5830   26.6320 C   0  0  0  0  0  3  0  0  0  0  0  0
  -33.8300  -20.2900   24.9800 C   0  0  0  0  0  1  0  0  0  0  0  0
  -32.6970  -19.6760   25.6800 N   0  0  0  0  0  0  0  0  0  0  0  0
  -31.7130  -19.1240   24.7370 C   0  0  0  0  0  2  0  0  0  0  0  0
  -32.2440  -17.9180   23.9440 C   0  0  0  0  0  2  0  0  0  0  0  0
  -31.1360  -17.1160   23.3900 N   0  0  0  0  0  4  0  0  0  0  0  0
  -30.6830  -16.6350   24.1510 H   0  0  0  0  0  0  0  0  0  0  0  0
  -30.4660  -17.7450   22.9770 H   0  0  0  0  0  0  0  0  0  0  0  0
  -31.5650  -16.1440   22.3630 C   0  0  0  0  0  2  0  0  0  0  0  0
  -30.4110  -15.2250   21.9090 C   0  0  0  0  0  2  0  0  0  0  0  0
  -30.7910  -14.3320   20.7150 C   0  0  0  0  0  0  0  0  0  0  0  0
  -30.4180  -12.2890   19.3800 C   0  0  0  0  0  2  0  0  0  0  0  0
  -29.4800  -12.5260   18.1840 C   0  0  0  0  0  2  0  0  0  0  0  0
  -28.0070  -12.3800   18.6060 C   0  0  0  0  0  2  0  0  0  0  0  0
  -27.6690  -13.2000   19.8780 C   0  0  0  0  0  3  0  0  0  0  0  0
  -28.7110  -12.9440   20.9910 C   0  0  0  0  0  2  0  0  0  0  0  0
  -30.0510  -13.2270   20.4490 N   0  0  0  0  0  0  0  0  0  0  0  0
  -31.7880  -14.6320   20.0490 O   0  0  0  0  0  0  0  0  0  0  0  0
  -25.2630  -13.8150   20.5680 C   0  0  0  0  0  0  0  0  0  0  0  0
  -24.1860  -13.0430   20.9170 C   0  0  0  0  0  0  0  0  0  0  0  0
  -24.6410  -11.6910   20.8730 C   0  0  0  0  0  0  0  0  0  0  0  0
  -26.3070  -12.9310   20.3400 N   0  0  0  0  0  0  0  0  0  0  0  0
  -25.9340  -11.6480   20.5770 N   0  0  0  0  0  0  0  0  0  0  0  0
  -23.9070  -10.4290   21.0410 C   0  0  0  0  0  0  0  0  0  0  0  0
  -24.3610   -9.4210   21.9190 C   0  0  0  0  0  3  0  0  0  0  0  0
  -23.6290   -8.2240   22.0750 C   0  0  0  0  0  3  0  0  0  0  0  0
  -22.4270   -8.0290   21.3550 C   0  0  0  0  0  0  0  0  0  0  0  0
  -21.9910   -9.0260   20.4640 C   0  0  0  0  0  3  0  0  0  0  0  0
  -22.7240  -10.2140   20.3050 C   0  0  0  0  0  3  0  0  0  0  0  0
  -21.6630   -6.8880   21.4240 O   0  0  0  0  0  0  0  0  0  0  0  0
  -21.6850   -6.0740   22.5280 C   0  0  0  0  0  0  0  0  0  0  0  0
  -21.4010   -6.5640   23.8210 C   0  0  0  0  0  3  0  0  0  0  0  0
  -21.3650   -5.6790   24.9170 C   0  0  0  0  0  3  0  0  0  0  0  0
  -21.6050   -4.3060   24.7230 C   0  0  0  0  0  0  0  0  0  0  0  0
  -21.8820   -3.8150   23.4340 C   0  0  0  0  0  3  0  0  0  0  0  0
  -21.9190   -4.6970   22.3400 C   0  0  0  0  0  0  0  0  0  0  0  0
  -22.1660   -4.2160   21.0980 F   0  0  0  0  0  0  0  0  0  0  0  0
  -21.5630   -3.4540   25.7740 F   0  0  0  0  0  0  0  0  0  0  0  0
  -22.7880  -13.5250   21.1820 C   0  0  0  0  0  0  0  0  0  0  0  0
  -22.0510  -12.8240   22.0380 N   0  0  0  0  0  0  0  0  0  0  0  0
  -22.3580  -14.5550   20.6670 O   0  0  0  0  0  0  0  0  0  0  0  0
  -22.4110  -11.9900   22.4760 H   0  0  0  0  0  0  0  0  0  0  0  0
  -21.1130  -13.1270   22.2550 H   0  0  0  0  0  0  0  0  0  0  0  0
  -25.4370  -15.1860   20.4080 N   0  0  0  0  0  0  0  0  0  0  0  0
  -24.6740  -15.8470   20.5150 H   0  0  0  0  0  0  0  0  0  0  0  0
  -26.2960  -15.6220   20.0930 H   0  0  0  0  0  0  0  0  0  0  0  0
  1  2  1  0
  1 51  1  0
  3  2  1  0
  4  3  1  0
  5  4  1  0
  6  4  1  0
  7  4  1  0
  8  7  1  0
  9  8  1  0
 10 12  1  0
 10  9  1  0
 11 22  2  0
 12 17  1  0
 13 21  1  0
 13 23  1  0
 14 20  1  0
 14 16  1  0
 15 21  1  0
 16 17  2  0
 16 15  1  0
 18 19  1  0
 18 12  2  0
 19 14  2  0
 20 13  1  0
 21 11  1  0
 23 25  2  0
 24 23  1  0
 26 24  1  0
 27 36  2  0
 27 32  1  0
 28 24  1  0
 28 32  1  0
 29 28  1  0
 30 31  1  0
 30 29  1  0
 31 27  1  0
 32 33  2  0
 33 34  1  0
 35 34  2  0
 36 35  1  0
 37 11  1  0
 37 38  1  0
 37 47  1  0
 38 41  1  0
 39 43  1  0
 39 38  1  0
 40 39  2  0
 43 42  1  0
 45 43  1  0
 45 46  1  0
 45 44  1  0
 47 50  1  1
 47 48  1  0
 49 47  1  0
 52 51  1  0
 52 54  1  0
 54 53  1  0
 55 56  1  0
 56 54  1  0
 57 56  1  0
 58 57  1  0
 59 58  1  0
 59 60  1  0
 61 59  1  0
 62 59  1  0
 63 62  1  0
 64 63  1  0
 65 70  1  0
 66 67  1  0
 66 65  1  0
 68 67  1  0
 68 75  1  0
 68 69  1  0
 70 64  1  0
 70 69  1  0
 71 64  2  0
 72 73  2  0
 73 92  1  0
 74 73  1  0
 74 77  1  0
 75 72  1  0
 75 76  1  0
 76 74  2  0
 77 78  1  0
 78 79  2  0
 80 83  1  0
 80 79  1  0
 81 80  2  0
 82 81  1  0
 82 77  2  0
 83 84  1  0
 84 85  1  0
 85 86  2  0
 87 86  1  0
 87 91  1  0
 88 87  2  0
 89 84  2  0
 89 88  1  0
 90 89  1  0
 92 93  1  0
 93 96  1  0
 93 95  1  0
 94 92  2  0
 97 98  1  0
 97 72  1  0
 99 97  1  0
M  ISO  4   9 101  10 101  63 100  64 100
M  END
>  <TORSDO>  (60) 
F 31

>  <SCORE>  (60) 
26.042

>  <name>  (60) 
60

>  <ligand_id>  (60) 
60

>  <original_smiles>  (60) 
[H]c1c([H])c([H])c2c(c1[H])C([H])([H])C([H])([H])C([H])([H])C2([H])N([H])C(=O)C1([H])N(C(=O)C([H])(N([H])C(=O)C([H])(N([H])C([H])([H])[H])C([H])([H])[H])C(C([H])([H])[H])(C([H])([H])[H])C([H])([H])[H])C([H])([H])c2c([H])c(OC([H])([H])C([H])([H])C([H])([H])[N+]([H])([H])C([H])([H])C([H])([H])C([H])([H])C([H])([H])C([H])([H])C([H])(N(C([H])([H])[H])C([H])([H])C([H])([H])[N+]([H])([H])C([H])([H])C([H])([H])C(=O)N3C([H])([H])C([H])([H])C([H])([H])C([H])(n4nc(-c5c([H])c([H])c(Oc6c([H])c([H])c(F)c([H])c6F)c([H])c5[H])c(C(=O)N([H])[H])c4N([H])[H])C3([H])[H])C([H])([H])[H])c([H])c([H])c2C1([H])[H]

>  <smiles>  (60) 
[H]c1c([H])c([H])c2c(c1[H])C([H])([H])C([H])([H])C([H])([H])C2([H])N([H])C(=O)C1([H])N(C(=O)C([H])(N([H])C(=O)C([H])(N([H])C([H])([H])[H])C([H])([H])[H])C(C([H])([H])[H])(C([H])([H])[H])C([H])([H])[H])C([H])([H])c2c([H])c(OC([H])([H])C([H])([H])C([H])([H])[N+]([H])([H])C([H])([H])C([H])([H])C([H])([H])C([H])([H])C([H])([H])C([H])(N(C([H])([H])[H])C([H])([H])C([H])([H])[N+]([H])([H])C([H])([H])C([H])([H])C(=O)N3C([H])([H])C([H])([H])C([H])([H])C([H])(n4nc(-c5c([H])c([H])c(Oc6c([H])c([H])c(F)c([H])c6F)c([H])c5[H])c(C(=O)N([H])[H])c4N([H])[H])C3([H])[H])C([H])([H])[H])c([H])c([H])c2C1([H])[H]

$$$$
61:0:0
     RDKit          3D

 92101  0  0  1  0  0  0  0  0999 V2000
  -28.6390  -22.1380   20.6100 C   0  0  0  0  0  3  0  0  0  0  0  0
  -30.3210  -21.2730   19.0990 C   0  0  0  0  0  3  0  0  0  0  0  0
  -29.7770  -23.6890   19.1200 C   0  0  0  0  0  3  0  0  0  0  0  0
  -29.3870  -20.9680   20.1140 C   0  0  0  0  0  0  0  0  0  0  0  0
  -28.8110  -23.5250   20.1310 C   0  0  0  0  0  0  0  0  0  0  0  0
  -30.5120  -22.5900   18.6170 C   0  0  0  0  0  0  0  0  0  0  0  0
  -30.6110  -14.9100   20.3610 C   0  0  0  0  0  0  0  0  0  0  0  0
  -30.3860  -12.6020   19.3770 C   0  0  0  0  0  2  0  0  0  0  0  0
  -29.4530  -12.5930   18.1490 C   0  0  0  0  0  2  0  0  0  0  0  0
  -27.9930  -12.3880   18.5890 C   0  0  0  0  0  2  0  0  0  0  0  0
  -27.5960  -13.3090   19.7730 C   0  0  0  0  0  3  0  0  0  0  0  0
  -28.6570  -13.3270   20.8930 C   0  0  0  0  0  2  0  0  0  0  0  0
  -29.9330  -13.7010   20.2710 N   0  0  0  0  0  0  0  0  0  0  0  0
  -31.8230  -14.8950   20.1220 O   0  0  0  0  0  0  0  0  0  0  0  0
  -28.8470  -18.3310   19.5230 C   0  0  0  0  0  2  0  0  0  0  0  0
  -30.6130  -18.7320   21.0830 C   0  0  0  0  0  2  0  0  0  0  0  0
  -28.8080  -16.7700   19.9320 C   0  0  0  0  0  2  0  0  0  0  0  0
  -30.5740  -17.1980   21.5390 C   0  0  0  0  0  2  0  0  0  0  0  0
  -29.2820  -19.4090   20.5920 C   0  0  0  0  0  3  0  0  0  0  0  0
  -29.9770  -16.1510   20.6390 N   0  0  0  0  0  0  0  0  0  0  0  0
  -25.2190  -13.8900   20.5220 C   0  0  0  0  0  0  0  0  0  0  0  0
  -24.1560  -13.1130   20.8880 C   0  0  0  0  0  0  0  0  0  0  0  0
  -24.6210  -11.7640   20.8530 C   0  0  0  0  0  0  0  0  0  0  0  0
  -26.2620  -13.0120   20.2780 N   0  0  0  0  0  0  0  0  0  0  0  0
  -25.9120  -11.7280   20.5440 N   0  0  0  0  0  0  0  0  0  0  0  0
  -23.8950  -10.5000   21.0350 C   0  0  0  0  0  0  0  0  0  0  0  0
  -24.3130   -9.5370   21.9790 C   0  0  0  0  0  3  0  0  0  0  0  0
  -23.5870   -8.3390   22.1500 C   0  0  0  0  0  3  0  0  0  0  0  0
  -22.4270   -8.0960   21.3750 C   0  0  0  0  0  0  0  0  0  0  0  0
  -22.0280   -9.0490   20.4200 C   0  0  0  0  0  3  0  0  0  0  0  0
  -22.7570  -10.2380   20.2470 C   0  0  0  0  0  3  0  0  0  0  0  0
  -21.6720   -6.9520   21.4550 O   0  0  0  0  0  0  0  0  0  0  0  0
  -21.5900   -6.2250   22.6150 C   0  0  0  0  0  0  0  0  0  0  0  0
  -21.0980   -6.7850   23.8130 C   0  0  0  0  0  3  0  0  0  0  0  0
  -20.9650   -5.9830   24.9650 C   0  0  0  0  0  3  0  0  0  0  0  0
  -21.3130   -4.6190   24.9180 C   0  0  0  0  0  0  0  0  0  0  0  0
  -21.7990   -4.0580   23.7240 C   0  0  0  0  0  3  0  0  0  0  0  0
  -21.9340   -4.8570   22.5750 C   0  0  0  0  0  0  0  0  0  0  0  0
  -22.3820   -4.3060   21.4210 F   0  0  0  0  0  0  0  0  0  0  0  0
  -21.1790   -3.8470   26.0200 F   0  0  0  0  0  0  0  0  0  0  0  0
  -22.7580  -13.5900   21.1580 C   0  0  0  0  0  0  0  0  0  0  0  0
  -22.0260  -12.8870   22.0130 N   0  0  0  0  0  0  0  0  0  0  0  0
  -22.3250  -14.6210   20.6460 O   0  0  0  0  0  0  0  0  0  0  0  0
  -22.3890  -12.0520   22.4490 H   0  0  0  0  0  0  0  0  0  0  0  0
  -21.0880  -13.1880   22.2380 H   0  0  0  0  0  0  0  0  0  0  0  0
  -25.3800  -15.2610   20.3470 N   0  0  0  0  0  0  0  0  0  0  0  0
  -24.6110  -15.9130   20.4590 H   0  0  0  0  0  0  0  0  0  0  0  0
  -26.2260  -15.7010   20.0130 H   0  0  0  0  0  0  0  0  0  0  0  0
  -31.4280  -22.8140   17.6310 O   0  0  0  0  0  0  0  0  0  0  0  0
  -31.8670  -22.0200   17.3400 H   0  0  0  0  0  0  0  0  0  0  0  0
  -27.9600  -24.8210   20.6080 C   0  0  0  0  0  2  0  0  0  0  0  0
  -28.2690  -26.2780   20.2240 O   0  0  0  0  0  0  0  0  0  0  0  0
  -24.6060  -31.8950   23.2250 C   0  0  0  0  0  0  0  0  0  0  0  0
  -27.2070  -27.2350   20.1950 C   0  0  0  0  0  0  0  0  0  0  0  0
  -23.4150  -30.5000   21.5770 C   0  0  0  0  0  3  0  0  0  0  0  0
  -24.8710  -28.9400   20.1560 C   0  0  0  0  0  0  0  0  0  0  0  0
  -25.9640  -30.7840   21.4210 C   0  0  0  0  0  2  0  0  0  0  0  0
  -26.0450  -29.3970   20.7690 C   0  0  0  0  0  0  0  0  0  0  0  0
  -27.2170  -28.5600   20.7730 C   0  0  0  0  0  3  0  0  0  0  0  0
  -26.0140  -26.8720   19.5340 C   0  0  0  0  0  3  0  0  0  0  0  0
  -24.8650  -27.6890   19.5230 C   0  0  0  0  0  3  0  0  0  0  0  0
  -23.6410  -29.8290   20.1970 C   0  0  0  0  0  2  0  0  0  0  0  0
  -24.6810  -31.0800   22.1290 N   0  0  0  0  0  0  0  0  0  0  0  0
  -23.5180  -32.1740   23.7500 O   0  0  0  0  0  0  0  0  0  0  0  0
  -22.7370  -29.4860   22.5330 C   0  0  0  0  0  0  0  0  0  0  0  0
  -21.4110  -29.3130   22.4000 N   0  0  0  0  0  0  0  0  0  0  0  0
  -23.4070  -28.8580   23.3560 O   0  0  0  0  0  0  0  0  0  0  0  0
  -20.9270  -29.8710   21.7100 H   0  0  0  0  0  0  0  0  0  0  0  0
  -18.0250  -28.1270   22.9000 C   0  0  0  0  0  0  0  0  0  0  0  0
  -20.5860  -28.3740   23.1650 C   0  0  0  0  0  3  0  0  0  0  0  0
  -20.6800  -26.9460   22.5820 C   0  0  0  0  0  2  0  0  0  0  0  0
  -19.5740  -26.6350   21.5670 C   0  0  0  0  0  2  0  0  0  0  0  0
  -18.1940  -26.7820   22.2140 C   0  0  0  0  0  2  0  0  0  0  0  0
  -19.1490  -28.8820   23.3330 C   0  0  0  0  0  0  0  0  0  0  0  0
  -18.9360  -30.1410   23.9360 C   0  0  0  0  0  3  0  0  0  0  0  0
  -17.6340  -30.6460   24.1090 C   0  0  0  0  0  3  0  0  0  0  0  0
  -16.5260  -29.8890   23.6920 C   0  0  0  0  0  3  0  0  0  0  0  0
  -16.7220  -28.6320   23.0940 C   0  0  0  0  0  3  0  0  0  0  0  0
  -25.8820  -32.5300   23.8560 C   0  0  0  0  0  3  0  0  0  0  0  0
  -25.5710  -33.9290   24.1820 N   0  0  0  0  0  0  0  0  0  0  0  0
  -25.9090  -34.9830   23.4260 C   0  0  0  0  0  0  0  0  0  0  0  0
  -26.5850  -34.8780   22.3990 O   0  0  0  0  0  0  0  0  0  0  0  0
  -24.9740  -34.0850   24.9810 H   0  0  0  0  0  0  0  0  0  0  0  0
  -24.1960  -36.7870   23.0530 C   0  0  0  0  0  1  0  0  0  0  0  0
  -25.4230  -36.3740   23.8810 C   0  0  0  0  0  3  0  0  0  0  0  0
  -27.5450  -37.2480   24.7510 C   0  0  0  0  0  1  0  0  0  0  0  0
  -26.4620  -37.4220   23.7860 N   0  0  0  0  0  0  0  0  0  0  0  0
  -26.0570  -38.3430   23.9270 H   0  0  0  0  0  0  0  0  0  0  0  0
  -26.3850  -31.7640   25.1420 C   0  0  1  0  0  0  0  0  0  0  0  0
  -25.2800  -31.5320   26.2000 C   0  0  0  0  0  1  0  0  0  0  0  0
  -26.9720  -30.3840   24.7650 C   0  0  0  0  0  1  0  0  0  0  0  0
  -27.5290  -32.5600   25.8120 C   0  0  0  0  0  1  0  0  0  0  0  0
  2  4  1  0
  3  5  2  0
  4  1  2  0
  5 51  1  0
  5  1  1  0
  6  2  2  0
  6  3  1  0
  7 20  1  0
  8 13  1  0
  9 10  1  0
  9  8  1  0
 11 10  1  0
 11 24  1  0
 11 12  1  0
 13  7  1  0
 13 12  1  0
 14  7  2  0
 15 17  1  0
 15 19  1  0
 16 18  1  0
 17 20  1  0
 19  4  1  0
 19 16  1  0
 20 18  1  0
 21 22  2  0
 22 41  1  0
 23 22  1  0
 23 26  1  0
 24 21  1  0
 24 25  1  0
 25 23  2  0
 26 27  1  0
 27 28  2  0
 29 32  1  0
 29 28  1  0
 30 29  2  0
 31 30  1  0
 31 26  2  0
 32 33  1  0
 33 34  1  0
 34 35  2  0
 36 35  1  0
 36 40  1  0
 37 36  2  0
 38 33  2  0
 38 37  1  0
 39 38  1  0
 41 42  1  0
 42 45  1  0
 42 44  1  0
 43 41  2  0
 46 47  1  0
 46 21  1  0
 48 46  1  0
 49  6  1  0
 50 49  1  0
 52 51  1  0
 53 64  2  0
 54 52  1  0
 54 59  1  0
 55 63  1  0
 55 65  1  0
 56 62  1  0
 56 58  1  0
 57 63  1  0
 58 59  2  0
 58 57  1  0
 60 54  2  0
 61 60  1  0
 61 56  2  0
 62 55  1  0
 63 53  1  0
 65 67  2  0
 66 65  1  0
 68 66  1  0
 69 78  2  0
 69 74  1  0
 70 66  1  0
 70 74  1  0
 71 70  1  0
 72 73  1  0
 72 71  1  0
 73 69  1  0
 74 75  2  0
 75 76  1  0
 77 76  2  0
 78 77  1  0
 79 53  1  0
 79 80  1  0
 79 89  1  0
 80 83  1  0
 81 85  1  0
 81 80  1  0
 82 81  2  0
 85 84  1  0
 87 85  1  0
 87 88  1  0
 87 86  1  0
 89 92  1  1
 89 90  1  0
 91 89  1  0
M  ISO  4   7 100  20 100  51 101  52 101
M  END
>  <TORSDO>  (61) 
F 18

>  <SCORE>  (61) 
-15.069

>  <name>  (61) 
61

>  <ligand_id>  (61) 
61

>  <original_smiles>  (61) 
[H]Oc1c([H])c(C([H])([H])Oc2c([H])c([H])c3c(c2[H])C([H])([H])N(C(=O)C([H])(N([H])C(=O)C([H])(N([H])C([H])([H])[H])C([H])([H])[H])C(C([H])([H])[H])(C([H])([H])[H])C([H])([H])[H])C([H])(C(=O)N([H])C2([H])c4c([H])c([H])c([H])c([H])c4C([H])([H])C([H])([H])C2([H])[H])C3([H])[H])c([H])c(C2([H])C([H])([H])C([H])([H])N(C(=O)N3C([H])([H])C([H])([H])C([H])([H])C([H])(n4nc(-c5c([H])c([H])c(Oc6c([H])c([H])c(F)c([H])c6F)c([H])c5[H])c(C(=O)N([H])[H])c4N([H])[H])C3([H])[H])C([H])([H])C2([H])[H])c1[H]

>  <smiles>  (61) 
[H]Oc1c([H])c(C([H])([H])Oc2c([H])c([H])c3c(c2[H])C([H])([H])N(C(=O)C([H])(N([H])C(=O)C([H])(N([H])C([H])([H])[H])C([H])([H])[H])C(C([H])([H])[H])(C([H])([H])[H])C([H])([H])[H])C([H])(C(=O)N([H])C2([H])c4c([H])c([H])c([H])c([H])c4C([H])([H])C([H])([H])C2([H])[H])C3([H])[H])c([H])c(C2([H])C([H])([H])C([H])([H])N(C(=O)N3C([H])([H])C([H])([H])C([H])([H])C([H])(n4nc(-c5c([H])c([H])c(Oc6c([H])c([H])c(F)c([H])c6F)c([H])c5[H])c(C(=O)N([H])[H])c4N([H])[H])C3([H])[H])C([H])([H])C2([H])[H])c1[H]

$$$$
62:0:0
     RDKit          3D

100108  0  0  1  0  0  0  0  0999 V2000
  -28.5560  -24.0470   19.4190 C   0  0  0  0  0  3  0  0  0  0  0  0
  -29.0010  -24.2830   17.0440 C   0  0  0  0  0  3  0  0  0  0  0  0
  -28.9410  -22.6890   19.3680 C   0  0  0  0  0  0  0  0  0  0  0  0
  -28.5830  -24.8490   18.2610 C   0  0  0  0  0  0  0  0  0  0  0  0
  -29.4000  -22.9330   16.9720 C   0  0  0  0  0  0  0  0  0  0  0  0
  -29.3640  -22.1160   18.1350 C   0  0  0  0  0  0  0  0  0  0  0  0
  -29.8640  -22.3910   15.6310 C   0  0  0  0  0  1  0  0  0  0  0  0
  -29.7910  -20.6520   18.0420 C   0  0  0  0  0  1  0  0  0  0  0  0
  -28.8900  -21.9020   20.6430 C   0  0  0  0  0  0  0  0  0  0  0  0
  -30.0610  -21.7820   21.2790 N   0  0  0  0  0  0  0  0  0  0  0  0
  -27.8250  -21.4570   21.0740 O   0  0  0  0  0  0  0  0  0  0  0  0
  -30.8580  -22.2100   20.8250 H   0  0  0  0  0  0  0  0  0  0  0  0
  -30.2080  -21.4040   22.6850 C   0  0  0  0  0  2  0  0  0  0  0  0
  -30.0960  -19.8910   22.9690 C   0  0  0  0  0  2  0  0  0  0  0  0
  -31.7780  -18.0770   23.5450 C   0  0  0  0  0  1  0  0  0  0  0  0
  -31.2630  -19.0190   22.4360 C   0  0  0  0  0  3  0  0  0  0  0  0
  -30.8480  -18.2520   21.2360 N   0  0  0  0  0  4  0  0  0  0  0  0
  -30.2100  -17.5290   21.5280 H   0  0  0  0  0  0  0  0  0  0  0  0
  -30.3430  -18.8750   20.6250 H   0  0  0  0  0  0  0  0  0  0  0  0
  -31.9550  -17.6520   20.4500 C   0  0  0  0  0  2  0  0  0  0  0  0
  -31.4830  -16.5120   19.5250 C   0  0  0  0  0  2  0  0  0  0  0  0
  -30.9300  -15.2800   20.2840 C   0  0  0  0  0  2  0  0  0  0  0  0
  -31.4390  -13.9280   19.7510 C   0  0  0  0  0  0  0  0  0  0  0  0
  -31.0430  -11.5190   19.3500 C   0  0  0  0  0  2  0  0  0  0  0  0
  -30.1010  -11.3160   18.1480 C   0  0  0  0  0  2  0  0  0  0  0  0
  -28.6250  -11.3850   18.5900 C   0  0  0  0  0  2  0  0  0  0  0  0
  -28.3230  -12.6330   19.4630 C   0  0  0  0  0  3  0  0  0  0  0  0
  -29.3700  -12.7730   20.5920 C   0  0  0  0  0  2  0  0  0  0  0  0
  -30.7060  -12.8050   19.9760 N   0  0  0  0  0  0  0  0  0  0  0  0
  -32.4930  -13.9060   19.1060 O   0  0  0  0  0  0  0  0  0  0  0  0
  -26.0750  -13.6420   20.2160 C   0  0  0  0  0  0  0  0  0  0  0  0
  -24.9110  -13.0620   20.6410 C   0  0  0  0  0  0  0  0  0  0  0  0
  -25.1470  -11.6530   20.6370 C   0  0  0  0  0  0  0  0  0  0  0  0
  -26.9590  -12.5970   19.9860 N   0  0  0  0  0  0  0  0  0  0  0  0
  -26.4030  -11.3980   20.2930 N   0  0  0  0  0  0  0  0  0  0  0  0
  -24.2350  -10.5290   20.8880 C   0  0  0  0  0  0  0  0  0  0  0  0
  -24.5870   -9.4750   21.7600 C   0  0  0  0  0  3  0  0  0  0  0  0
  -23.6880   -8.4130   21.9990 C   0  0  0  0  0  3  0  0  0  0  0  0
  -22.4210   -8.4020   21.3680 C   0  0  0  0  0  0  0  0  0  0  0  0
  -22.0850   -9.4420   20.4840 C   0  0  0  0  0  3  0  0  0  0  0  0
  -22.9840  -10.4950   20.2430 C   0  0  0  0  0  3  0  0  0  0  0  0
  -21.4930   -7.4010   21.5210 O   0  0  0  0  0  0  0  0  0  0  0  0
  -21.4500   -6.6240   22.6520 C   0  0  0  0  0  0  0  0  0  0  0  0
  -21.3200   -7.1900   23.9390 C   0  0  0  0  0  3  0  0  0  0  0  0
  -21.2110   -6.3520   25.0680 C   0  0  0  0  0  3  0  0  0  0  0  0
  -21.2220   -4.9530   24.9120 C   0  0  0  0  0  0  0  0  0  0  0  0
  -21.3470   -4.3880   23.6300 C   0  0  0  0  0  3  0  0  0  0  0  0
  -21.4580   -5.2230   22.5030 C   0  0  0  0  0  0  0  0  0  0  0  0
  -21.5570   -4.6740   21.2680 F   0  0  0  0  0  0  0  0  0  0  0  0
  -21.1100   -4.1490   25.9940 F   0  0  0  0  0  0  0  0  0  0  0  0
  -23.6170  -13.7640   20.9410 C   0  0  0  0  0  0  0  0  0  0  0  0
  -22.8420  -13.2450   21.8870 N   0  0  0  0  0  0  0  0  0  0  0  0
  -23.3090  -14.8090   20.3690 O   0  0  0  0  0  0  0  0  0  0  0  0
  -23.1040  -12.3980   22.3700 H   0  0  0  0  0  0  0  0  0  0  0  0
  -21.9740  -13.6990   22.1310 H   0  0  0  0  0  0  0  0  0  0  0  0
  -26.4530  -14.9620   19.9870 N   0  0  0  0  0  0  0  0  0  0  0  0
  -25.7970  -15.7310   20.0710 H   0  0  0  0  0  0  0  0  0  0  0  0
  -27.3340  -15.2360   19.5720 H   0  0  0  0  0  0  0  0  0  0  0  0
  -28.1450  -26.3050   18.2890 C   0  0  0  0  0  2  0  0  0  0  0  0
  -27.8590  -26.7980   19.5980 O   0  0  0  0  0  0  0  0  0  0  0  0
  -24.4770  -31.8680   23.2450 C   0  0  0  0  0  0  0  0  0  0  0  0
  -26.6980  -27.5150   19.7480 C   0  0  0  0  0  0  0  0  0  0  0  0
  -23.0830  -30.5750   21.6610 C   0  0  0  0  0  3  0  0  0  0  0  0
  -24.3520  -29.0540   20.0560 C   0  0  0  0  0  0  0  0  0  0  0  0
  -25.5870  -30.8730   21.2500 C   0  0  0  0  0  2  0  0  0  0  0  0
  -25.5700  -29.5250   20.5620 C   0  0  0  0  0  0  0  0  0  0  0  0
  -26.7430  -28.7540   20.4190 C   0  0  0  0  0  3  0  0  0  0  0  0
  -25.4590  -27.0400   19.2590 C   0  0  0  0  0  3  0  0  0  0  0  0
  -24.2880  -27.8060   19.4120 C   0  0  0  0  0  3  0  0  0  0  0  0
  -23.1460  -29.9450   20.2440 C   0  0  0  0  0  2  0  0  0  0  0  0
  -24.4060  -31.1170   22.1090 N   0  0  0  0  0  0  0  0  0  0  0  0
  -23.4580  -32.1480   23.8910 O   0  0  0  0  0  0  0  0  0  0  0  0
  -22.4870  -29.5340   22.6340 C   0  0  0  0  0  0  0  0  0  0  0  0
  -21.1750  -29.2770   22.5050 N   0  0  0  0  0  0  0  0  0  0  0  0
  -23.2010  -28.9580   23.4600 O   0  0  0  0  0  0  0  0  0  0  0  0
  -20.6590  -29.7990   21.8100 H   0  0  0  0  0  0  0  0  0  0  0  0
  -17.9150  -27.7660   22.8630 C   0  0  0  0  0  0  0  0  0  0  0  0
  -20.4070  -28.3080   23.2830 C   0  0  0  0  0  3  0  0  0  0  0  0
  -20.6960  -26.8630   22.8150 C   0  0  0  0  0  2  0  0  0  0  0  0
  -19.7080  -26.3640   21.7560 C   0  0  0  0  0  2  0  0  0  0  0  0
  -18.2760  -26.4020   22.2990 C   0  0  0  0  0  2  0  0  0  0  0  0
  -18.9170  -28.6670   23.3120 C   0  0  0  0  0  0  0  0  0  0  0  0
  -18.5300  -29.9360   23.7960 C   0  0  0  0  0  3  0  0  0  0  0  0
  -17.1740  -30.3060   23.8420 C   0  0  0  0  0  3  0  0  0  0  0  0
  -16.1850  -29.4040   23.4110 C   0  0  0  0  0  3  0  0  0  0  0  0
  -16.5560  -28.1370   22.9270 C   0  0  0  0  0  3  0  0  0  0  0  0
  -25.8360  -32.4310   23.7710 C   0  0  0  0  0  3  0  0  0  0  0  0
  -26.4130  -31.6170   24.9940 C   0  0  1  0  0  0  0  0  0  0  0  0
  -25.3970  -31.4170   26.1420 C   0  0  0  0  0  1  0  0  0  0  0  0
  -26.8950  -30.2200   24.5370 C   0  0  0  0  0  1  0  0  0  0  0  0
  -27.6490  -32.3460   25.5720 C   0  0  0  0  0  1  0  0  0  0  0  0
  -25.6210  -33.8360   24.1360 N   0  0  0  0  0  0  0  0  0  0  0  0
  -25.9420  -34.8810   23.3610 C   0  0  0  0  0  0  0  0  0  0  0  0
  -26.5260  -34.7580   22.2790 O   0  0  0  0  0  0  0  0  0  0  0  0
  -25.1000  -34.0100   24.9830 H   0  0  0  0  0  0  0  0  0  0  0  0
  -24.2800  -36.7540   23.1480 C   0  0  0  0  0  1  0  0  0  0  0  0
  -25.5560  -36.2840   23.8640 C   0  0  0  0  0  3  0  0  0  0  0  0
  -27.7850  -37.0580   24.5410 C   0  0  0  0  0  1  0  0  0  0  0  0
  -26.6260  -37.2890   23.6830 N   0  0  0  0  0  0  0  0  0  0  0  0
  -26.2750  -38.2250   23.8690 H   0  0  0  0  0  0  0  0  0  0  0  0
  2  4  1  0
  3  1  1  0
  3  9  1  0
  4 59  1  0
  4  1  2  0
  5  2  2  0
  5  6  1  0
  6  3  2  0
  7  5  1  0
  8  6  1  0
  9 11  2  0
  9 10  1  0
 10 13  1  0
 12 10  1  0
 13 14  1  0
 16 14  1  0
 16 15  1  0
 17 18  1  0
 17 16  1  0
 19 17  1  0
 20 17  1  0
 21 22  1  0
 21 20  1  0
 23 29  1  0
 23 22  1  0
 24 29  1  0
 25 26  1  0
 25 24  1  0
 27 26  1  0
 27 34  1  0
 27 28  1  0
 29 28  1  0
 30 23  2  0
 31 32  2  0
 32 51  1  0
 33 32  1  0
 33 36  1  0
 34 31  1  0
 34 35  1  0
 35 33  2  0
 36 37  1  0
 37 38  2  0
 39 42  1  0
 39 38  1  0
 40 39  2  0
 41 40  1  0
 41 36  2  0
 42 43  1  0
 43 44  1  0
 44 45  2  0
 46 45  1  0
 46 50  1  0
 47 46  2  0
 48 43  2  0
 48 47  1  0
 49 48  1  0
 51 52  1  0
 52 55  1  0
 52 54  1  0
 53 51  2  0
 56 57  1  0
 56 31  1  0
 58 56  1  0
 59 60  1  0
 60 62  1  0
 61 72  2  0
 62 67  1  0
 63 71  1  0
 63 73  1  0
 64 70  1  0
 64 66  1  0
 65 71  1  0
 66 65  1  0
 67 66  2  0
 68 69  1  0
 68 62  2  0
 69 64  2  0
 70 63  1  0
 71 61  1  0
 73 75  2  0
 74 73  1  0
 76 74  1  0
 77 86  2  0
 77 82  1  0
 78 74  1  0
 78 82  1  0
 79 78  1  0
 80 81  1  0
 80 79  1  0
 81 77  1  0
 82 83  2  0
 83 84  1  0
 85 84  2  0
 86 85  1  0
 87 61  1  0
 87 92  1  0
 87 88  1  0
 88 91  1  1
 88 89  1  0
 90 88  1  0
 92 95  1  0
 93 97  1  0
 93 92  1  0
 94 93  2  0
 97 96  1  0
 99 97  1  0
 99100  1  0
 99 98  1  0
M  ISO  4  22 100  23 100  59 101  60 101
M  END
>  <TORSDO>  (62) 
F 25

>  <SCORE>  (62) 
-9.668

>  <name>  (62) 
62

>  <ligand_id>  (62) 
62

>  <original_smiles>  (62) 
[H]c1c([H])c([H])c2c(c1[H])C([H])([H])C([H])([H])C([H])([H])C2([H])N([H])C(=O)C1([H])N(C(=O)C([H])(N([H])C(=O)C([H])(N([H])C([H])([H])[H])C([H])([H])[H])C(C([H])([H])[H])(C([H])([H])[H])C([H])([H])[H])C([H])([H])c2c([H])c(OC([H])([H])c3c([H])c(C(=O)N([H])C([H])([H])C([H])([H])C([H])(C([H])([H])[H])[N+]([H])([H])C([H])([H])C([H])([H])C([H])([H])C(=O)N4C([H])([H])C([H])([H])C([H])([H])C([H])(n5nc(-c6c([H])c([H])c(Oc7c([H])c([H])c(F)c([H])c7F)c([H])c6[H])c(C(=O)N([H])[H])c5N([H])[H])C4([H])[H])c(C([H])([H])[H])c(C([H])([H])[H])c3[H])c([H])c([H])c2C1([H])[H]

>  <smiles>  (62) 
[H]c1c([H])c([H])c2c(c1[H])C([H])([H])C([H])([H])C([H])([H])C2([H])N([H])C(=O)C1([H])N(C(=O)C([H])(N([H])C(=O)C([H])(N([H])C([H])([H])[H])C([H])([H])[H])C(C([H])([H])[H])(C([H])([H])[H])C([H])([H])[H])C([H])([H])c2c([H])c(OC([H])([H])c3c([H])c(C(=O)N([H])C([H])([H])C([H])([H])C([H])(C([H])([H])[H])[N+]([H])([H])C([H])([H])C([H])([H])C([H])([H])C(=O)N4C([H])([H])C([H])([H])C([H])([H])C([H])(n5nc(-c6c([H])c([H])c(Oc7c([H])c([H])c(F)c([H])c7F)c([H])c6[H])c(C(=O)N([H])[H])c5N([H])[H])C4([H])[H])c(C([H])([H])[H])c(C([H])([H])[H])c3[H])c([H])c([H])c2C1([H])[H]

$$$$
63:0:0
     RDKit          3D

 98106  0  0  1  0  0  0  0  0999 V2000
  -31.6220  -22.5290   21.6220 N   0  0  0  0  0  4  0  0  0  0  0  0
  -30.9830  -21.7770   21.4500 H   0  0  0  0  0  0  0  0  0  0  0  0
  -31.7830  -22.5650   22.6180 H   0  0  0  0  0  0  0  0  0  0  0  0
  -30.6410  -23.9260   19.7520 C   0  0  0  0  0  2  0  0  0  0  0  0
  -29.5710  -23.9000   22.0190 C   0  0  0  0  0  2  0  0  0  0  0  0
  -29.9680  -25.2680   19.4470 C   0  0  0  0  0  2  0  0  0  0  0  0
  -28.8620  -25.2370   21.7360 C   0  0  0  0  0  2  0  0  0  0  0  0
  -30.9200  -23.7890   21.2670 C   0  0  0  0  0  3  0  0  0  0  0  0
  -28.6590  -25.4900   20.2260 C   0  0  0  0  0  3  0  0  0  0  0  0
  -28.4350  -26.8720   20.0300 O   0  0  0  0  0  0  0  0  0  0  0  0
  -24.5610  -31.8510   23.2100 C   0  0  0  0  0  0  0  0  0  0  0  0
  -27.1900  -27.4390   20.1210 C   0  0  0  0  0  0  0  0  0  0  0  0
  -23.3310  -30.4440   21.5810 C   0  0  0  0  0  3  0  0  0  0  0  0
  -24.7700  -28.8880   20.1590 C   0  0  0  0  0  0  0  0  0  0  0  0
  -25.8460  -30.8150   21.3480 C   0  0  0  0  0  2  0  0  0  0  0  0
  -25.9240  -29.4390   20.7250 C   0  0  0  0  0  0  0  0  0  0  0  0
  -27.1330  -28.7210   20.6990 C   0  0  0  0  0  3  0  0  0  0  0  0
  -26.0200  -26.8740   19.5690 C   0  0  0  0  0  3  0  0  0  0  0  0
  -24.8090  -27.6020   19.5830 C   0  0  0  0  0  3  0  0  0  0  0  0
  -23.5230  -29.7440   20.2070 C   0  0  0  0  0  2  0  0  0  0  0  0
  -24.5980  -31.0530   22.1060 N   0  0  0  0  0  0  0  0  0  0  0  0
  -23.4880  -32.1270   23.7640 O   0  0  0  0  0  0  0  0  0  0  0  0
  -22.6920  -29.4320   22.5550 C   0  0  0  0  0  0  0  0  0  0  0  0
  -21.3650  -29.2490   22.4370 N   0  0  0  0  0  0  0  0  0  0  0  0
  -23.3810  -28.8100   23.3660 O   0  0  0  0  0  0  0  0  0  0  0  0
  -20.8720  -29.8050   21.7520 H   0  0  0  0  0  0  0  0  0  0  0  0
  -17.9980  -28.0540   22.9490 C   0  0  0  0  0  0  0  0  0  0  0  0
  -20.5560  -28.3150   23.2150 C   0  0  0  0  0  3  0  0  0  0  0  0
  -20.6570  -26.8820   22.6460 C   0  0  0  0  0  2  0  0  0  0  0  0
  -19.5540  -26.5520   21.6350 C   0  0  0  0  0  2  0  0  0  0  0  0
  -18.1730  -26.7010   22.2820 C   0  0  0  0  0  2  0  0  0  0  0  0
  -19.1170  -28.8190   23.3720 C   0  0  0  0  0  0  0  0  0  0  0  0
  -18.8990  -30.0880   23.9540 C   0  0  0  0  0  3  0  0  0  0  0  0
  -17.5930  -30.5890   24.1160 C   0  0  0  0  0  3  0  0  0  0  0  0
  -16.4900  -29.8210   23.7090 C   0  0  0  0  0  3  0  0  0  0  0  0
  -16.6920  -28.5550   23.1330 C   0  0  0  0  0  3  0  0  0  0  0  0
  -25.8580  -32.4750   23.8170 C   0  0  0  0  0  3  0  0  0  0  0  0
  -25.5550  -33.8670   24.1680 N   0  0  0  0  0  0  0  0  0  0  0  0
  -25.8780  -34.9290   23.4160 C   0  0  0  0  0  0  0  0  0  0  0  0
  -26.5340  -34.8370   22.3760 O   0  0  0  0  0  0  0  0  0  0  0  0
  -24.9660  -34.0130   24.9750 H   0  0  0  0  0  0  0  0  0  0  0  0
  -24.1390  -36.7190   23.1030 C   0  0  0  0  0  1  0  0  0  0  0  0
  -25.3920  -36.3100   23.8940 C   0  0  0  0  0  3  0  0  0  0  0  0
  -27.5390  -37.1870   24.7020 C   0  0  0  0  0  1  0  0  0  0  0  0
  -26.4200  -37.3660   23.7790 N   0  0  0  0  0  0  0  0  0  0  0  0
  -26.0160  -38.2830   23.9450 H   0  0  0  0  0  0  0  0  0  0  0  0
  -26.4030  -31.6880   25.0720 C   0  0  1  0  0  0  0  0  0  0  0  0
  -25.3340  -31.4350   26.1600 C   0  0  0  0  0  1  0  0  0  0  0  0
  -26.9790  -30.3170   24.6480 C   0  0  0  0  0  1  0  0  0  0  0  0
  -27.5670  -32.4740   25.7200 C   0  0  0  0  0  1  0  0  0  0  0  0
  -32.9430  -22.2950   20.9680 C   0  0  0  0  0  2  0  0  0  0  0  0
  -33.6120  -20.9410   21.3480 C   0  0  0  0  0  2  0  0  0  0  0  0
  -33.6730  -19.8240   19.0200 C   0  0  0  0  0  1  0  0  0  0  0  0
  -33.2490  -19.6890   20.4990 C   0  0  0  0  0  3  0  0  0  0  0  0
  -31.8180  -19.3300   20.6530 N   0  0  0  0  0  4  0  0  0  0  0  0
  -31.5950  -19.3380   21.6370 H   0  0  0  0  0  0  0  0  0  0  0  0
  -31.2340  -19.9900   20.1650 H   0  0  0  0  0  0  0  0  0  0  0  0
  -31.4020  -18.0010   20.1800 C   0  0  0  0  0  2  0  0  0  0  0  0
  -29.9000  -17.8220   20.4600 C   0  0  0  0  0  2  0  0  0  0  0  0
  -29.3560  -16.4740   20.0060 C   0  0  0  0  0  2  0  0  0  0  0  0
  -30.5620  -14.4040   20.4930 C   0  0  0  0  0  0  0  0  0  0  0  0
  -30.3160  -12.2610   19.3520 C   0  0  0  0  0  2  0  0  0  0  0  0
  -29.3700  -12.5160   18.1570 C   0  0  0  0  0  2  0  0  0  0  0  0
  -27.8890  -12.3910   18.5800 C   0  0  0  0  0  2  0  0  0  0  0  0
  -27.5650  -13.1900   19.8710 C   0  0  0  0  0  3  0  0  0  0  0  0
  -28.6170  -12.8970   20.9670 C   0  0  0  0  0  2  0  0  0  0  0  0
  -29.9520  -13.1990   20.4180 N   0  0  0  0  0  0  0  0  0  0  0  0
  -31.6620  -14.6630   19.9960 O   0  0  0  0  0  0  0  0  0  0  0  0
  -29.7260  -15.3710   20.8900 N   0  0  0  0  0  0  0  0  0  0  0  0
  -28.9620  -15.0230   21.4500 H   0  0  0  0  0  0  0  0  0  0  0  0
  -25.1630  -13.8160   20.5660 C   0  0  0  0  0  0  0  0  0  0  0  0
  -24.0950  -13.0490   20.9440 C   0  0  0  0  0  0  0  0  0  0  0  0
  -24.5540  -11.6970   20.9180 C   0  0  0  0  0  0  0  0  0  0  0  0
  -26.2070  -12.9300   20.3410 N   0  0  0  0  0  0  0  0  0  0  0  0
  -25.8430  -11.6520   20.6070 N   0  0  0  0  0  0  0  0  0  0  0  0
  -23.8300  -10.4370   21.1170 C   0  0  0  0  0  0  0  0  0  0  0  0
  -24.2870   -9.4600   22.0300 C   0  0  0  0  0  3  0  0  0  0  0  0
  -23.5650   -8.2620   22.2160 C   0  0  0  0  0  3  0  0  0  0  0  0
  -22.3700   -8.0340   21.4930 C   0  0  0  0  0  0  0  0  0  0  0  0
  -21.9330   -8.9990   20.5690 C   0  0  0  0  0  3  0  0  0  0  0  0
  -22.6560  -10.1890   20.3810 C   0  0  0  0  0  3  0  0  0  0  0  0
  -21.6190   -6.8880   21.5860 O   0  0  0  0  0  0  0  0  0  0  0  0
  -21.6220   -6.1190   22.7220 C   0  0  0  0  0  0  0  0  0  0  0  0
  -21.2840   -6.6500   23.9860 C   0  0  0  0  0  3  0  0  0  0  0  0
  -21.2340   -5.8070   25.1130 C   0  0  0  0  0  3  0  0  0  0  0  0
  -21.5130   -4.4340   24.9800 C   0  0  0  0  0  0  0  0  0  0  0  0
  -21.8470   -3.9020   23.7210 C   0  0  0  0  0  3  0  0  0  0  0  0
  -21.8980   -4.7420   22.5960 C   0  0  0  0  0  0  0  0  0  0  0  0
  -22.2000   -4.2210   21.3810 F   0  0  0  0  0  0  0  0  0  0  0  0
  -21.4590   -3.6230   26.0630 F   0  0  0  0  0  0  0  0  0  0  0  0
  -22.6980  -13.5300   21.2190 C   0  0  0  0  0  0  0  0  0  0  0  0
  -21.9720  -12.8430   22.0940 N   0  0  0  0  0  0  0  0  0  0  0  0
  -22.2600  -14.5520   20.6930 O   0  0  0  0  0  0  0  0  0  0  0  0
  -22.3390  -12.0190   22.5460 H   0  0  0  0  0  0  0  0  0  0  0  0
  -21.0340  -13.1470   22.3160 H   0  0  0  0  0  0  0  0  0  0  0  0
  -25.3310  -15.1840   20.3810 N   0  0  0  0  0  0  0  0  0  0  0  0
  -24.5690  -15.8450   20.4870 H   0  0  0  0  0  0  0  0  0  0  0  0
  -26.1840  -15.6120   20.0450 H   0  0  0  0  0  0  0  0  0  0  0  0
  1  3  1  0
  2  1  1  0
  4  8  1  0
  6  4  1  0
  6  9  1  0
  7  5  1  0
  8  1  1  0
  8  5  1  0
  9 10  1  0
  9  7  1  0
 10 12  1  0
 11 22  2  0
 12 17  1  0
 13 21  1  0
 13 23  1  0
 14 20  1  0
 14 16  1  0
 15 21  1  0
 16 15  1  0
 17 16  2  0
 18 19  1  0
 18 12  2  0
 19 14  2  0
 20 13  1  0
 21 11  1  0
 23 25  2  0
 24 23  1  0
 26 24  1  0
 27 36  2  0
 27 32  1  0
 28 24  1  0
 28 32  1  0
 29 28  1  0
 30 31  1  0
 30 29  1  0
 31 27  1  0
 32 33  2  0
 33 34  1  0
 35 34  2  0
 36 35  1  0
 37 11  1  0
 37 38  1  0
 37 47  1  0
 38 41  1  0
 39 43  1  0
 39 38  1  0
 40 39  2  0
 43 42  1  0
 45 43  1  0
 45 46  1  0
 45 44  1  0
 47 50  1  1
 47 48  1  0
 49 47  1  0
 51 52  1  0
 51  1  1  0
 54 53  1  0
 54 55  1  0
 54 52  1  0
 55 56  1  0
 57 55  1  0
 58 59  1  0
 58 55  1  0
 60 59  1  0
 60 69  1  0
 61 69  1  0
 62 67  1  0
 63 64  1  0
 63 62  1  0
 65 64  1  0
 65 74  1  0
 65 66  1  0
 67 61  1  0
 67 66  1  0
 68 61  2  0
 69 70  1  0
 71 72  2  0
 72 91  1  0
 73 72  1  0
 73 76  1  0
 74 71  1  0
 74 75  1  0
 75 73  2  0
 76 77  1  0
 77 78  2  0
 79 82  1  0
 79 78  1  0
 80 79  2  0
 81 80  1  0
 81 76  2  0
 82 83  1  0
 83 84  1  0
 84 85  2  0
 86 85  1  0
 86 90  1  0
 87 86  2  0
 88 83  2  0
 88 87  1  0
 89 88  1  0
 91 92  1  0
 92 95  1  0
 92 94  1  0
 93 91  2  0
 96 97  1  0
 96 71  1  0
 98 96  1  0
M  ISO  4   9 101  10 101  61 100  69 100
M  END
>  <TORSDO>  (63) 
F 24

>  <SCORE>  (63) 
-12.287

>  <name>  (63) 
63

>  <ligand_id>  (63) 
63

>  <original_smiles>  (63) 
[H]c1c([H])c([H])c2c(c1[H])C([H])([H])C([H])([H])C([H])([H])C2([H])N([H])C(=O)C1([H])N(C(=O)C([H])(N([H])C(=O)C([H])(N([H])C([H])([H])[H])C([H])([H])[H])C(C([H])([H])[H])(C([H])([H])[H])C([H])([H])[H])C([H])([H])c2c([H])c(OC3([H])C([H])([H])C([H])([H])C([H])([N+]([H])([H])C([H])([H])C([H])([H])C([H])(C([H])([H])[H])[N+]([H])([H])C([H])([H])C([H])([H])C([H])([H])N([H])C(=O)N4C([H])([H])C([H])([H])C([H])([H])C([H])(n5nc(-c6c([H])c([H])c(Oc7c([H])c([H])c(F)c([H])c7F)c([H])c6[H])c(C(=O)N([H])[H])c5N([H])[H])C4([H])[H])C([H])([H])C3([H])[H])c([H])c([H])c2C1([H])[H]

>  <smiles>  (63) 
[H]c1c([H])c([H])c2c(c1[H])C([H])([H])C([H])([H])C([H])([H])C2([H])N([H])C(=O)C1([H])N(C(=O)C([H])(N([H])C(=O)C([H])(N([H])C([H])([H])[H])C([H])([H])[H])C(C([H])([H])[H])(C([H])([H])[H])C([H])([H])[H])C([H])([H])c2c([H])c(OC3([H])C([H])([H])C([H])([H])C([H])([N+]([H])([H])C([H])([H])C([H])([H])C([H])(C([H])([H])[H])[N+]([H])([H])C([H])([H])C([H])([H])C([H])([H])N([H])C(=O)N4C([H])([H])C([H])([H])C([H])([H])C([H])(n5nc(-c6c([H])c([H])c(Oc7c([H])c([H])c(F)c([H])c7F)c([H])c6[H])c(C(=O)N([H])[H])c5N([H])[H])C4([H])[H])C([H])([H])C3([H])[H])c([H])c([H])c2C1([H])[H]

$$$$
64:0:0
     RDKit          3D

104112  0  0  1  0  0  0  0  0999 V2000
  -29.1360  -20.7770   21.2900 C   0  0  0  0  0  3  0  0  0  0  0  0
  -28.0020  -20.5380   19.1590 C   0  0  0  0  0  3  0  0  0  0  0  0
  -28.9920  -20.1220   20.0610 C   0  0  0  0  0  0  0  0  0  0  0  0
  -28.3450  -21.8910   21.6260 C   0  0  0  0  0  0  0  0  0  0  0  0
  -27.3210  -22.3180   20.7190 C   0  0  0  0  0  0  0  0  0  0  0  0
  -27.1690  -21.6220   19.4840 C   0  0  0  0  0  0  0  0  0  0  0  0
  -26.2470  -22.0140   18.5130 N   0  0  0  0  0  0  0  0  0  0  0  0
  -26.0750  -21.4230   17.7070 H   0  0  0  0  0  0  0  0  0  0  0  0
  -25.4760  -22.6300   18.7460 H   0  0  0  0  0  0  0  0  0  0  0  0
  -30.1760  -22.7930   23.2290 C   0  0  0  0  0  1  0  0  0  0  0  0
  -28.6790  -22.5790   22.9490 C   0  0  0  0  0  2  0  0  0  0  0  0
  -29.9640  -19.0260   19.6950 C   0  0  0  0  0  2  0  0  0  0  0  0
  -30.0720  -17.9400   20.7740 C   0  0  0  0  0  2  0  0  0  0  0  0
  -31.5060  -17.4070   20.8960 C   0  0  0  0  0  2  0  0  0  0  0  0
  -31.6250  -16.1510   21.7770 C   0  0  0  0  0  2  0  0  0  0  0  0
  -30.9480  -14.4500   20.0810 C   0  0  0  0  0  0  0  0  0  0  0  0
  -30.4860  -12.3430   18.9040 C   0  0  0  0  0  2  0  0  0  0  0  0
  -29.4760  -12.4990   17.7580 C   0  0  0  0  0  2  0  0  0  0  0  0
  -28.0410  -12.3440   18.2880 C   0  0  0  0  0  2  0  0  0  0  0  0
  -27.7640  -13.2550   19.5100 C   0  0  0  0  0  3  0  0  0  0  0  0
  -28.8770  -13.1160   20.5730 C   0  0  0  0  0  2  0  0  0  0  0  0
  -30.1870  -13.3420   19.9350 N   0  0  0  0  0  0  0  0  0  0  0  0
  -31.7980  -14.8110   19.2600 O   0  0  0  0  0  0  0  0  0  0  0  0
  -30.8370  -15.0270   21.2800 N   0  0  0  0  0  0  0  0  0  0  0  0
  -30.1850  -14.5970   21.9210 H   0  0  0  0  0  0  0  0  0  0  0  0
  -25.4340  -13.8820   20.4200 C   0  0  0  0  0  0  0  0  0  0  0  0
  -24.3810  -13.1130   20.8420 C   0  0  0  0  0  0  0  0  0  0  0  0
  -24.8100  -11.7560   20.7220 C   0  0  0  0  0  0  0  0  0  0  0  0
  -26.4420  -12.9920   20.0790 N   0  0  0  0  0  0  0  0  0  0  0  0
  -26.0700  -11.7060   20.3130 N   0  0  0  0  0  0  0  0  0  0  0  0
  -24.0740  -10.5010   20.9200 C   0  0  0  0  0  0  0  0  0  0  0  0
  -24.4950   -9.5380   21.8630 C   0  0  0  0  0  3  0  0  0  0  0  0
  -23.7610   -8.3460   22.0470 C   0  0  0  0  0  3  0  0  0  0  0  0
  -22.5920   -8.1090   21.2870 C   0  0  0  0  0  0  0  0  0  0  0  0
  -22.1900   -9.0610   20.3320 C   0  0  0  0  0  3  0  0  0  0  0  0
  -22.9240  -10.2440   20.1470 C   0  0  0  0  0  3  0  0  0  0  0  0
  -21.8300   -6.9690   21.3800 O   0  0  0  0  0  0  0  0  0  0  0  0
  -21.7130   -6.2760   22.5570 C   0  0  0  0  0  0  0  0  0  0  0  0
  -21.1840   -6.8710   23.7230 C   0  0  0  0  0  3  0  0  0  0  0  0
  -21.0160   -6.1010   24.8930 C   0  0  0  0  0  3  0  0  0  0  0  0
  -21.3690   -4.7380   24.8950 C   0  0  0  0  0  0  0  0  0  0  0  0
  -21.8900   -4.1420   23.7330 C   0  0  0  0  0  3  0  0  0  0  0  0
  -22.0600   -4.9100   22.5670 C   0  0  0  0  0  0  0  0  0  0  0  0
  -22.5440   -4.3260   21.4450 F   0  0  0  0  0  0  0  0  0  0  0  0
  -21.2000   -3.9970   26.0160 F   0  0  0  0  0  0  0  0  0  0  0  0
  -23.0200  -13.6050   21.2410 C   0  0  0  0  0  0  0  0  0  0  0  0
  -22.3570  -12.9010   22.1540 N   0  0  0  0  0  0  0  0  0  0  0  0
  -22.5530  -14.6470   20.7820 O   0  0  0  0  0  0  0  0  0  0  0  0
  -22.7480  -12.0580   22.5470 H   0  0  0  0  0  0  0  0  0  0  0  0
  -21.4470  -13.2090   22.4620 H   0  0  0  0  0  0  0  0  0  0  0  0
  -25.6130  -15.2540   20.2810 N   0  0  0  0  0  0  0  0  0  0  0  0
  -24.8670  -15.9180   20.4650 H   0  0  0  0  0  0  0  0  0  0  0  0
  -26.4540  -15.6910   19.9240 H   0  0  0  0  0  0  0  0  0  0  0  0
  -26.5100  -23.6020   20.9400 C   0  0  0  0  0  2  0  0  0  0  0  0
  -25.4380  -23.6440   22.0540 C   0  0  0  0  0  2  0  0  0  0  0  0
  -24.1040  -25.0100   23.7190 C   0  0  0  0  0  1  0  0  0  0  0  0
  -25.2880  -25.0360   22.7400 C   0  0  0  0  0  3  0  0  0  0  0  0
  -26.5170  -25.4930   23.4580 N   0  0  0  0  0  4  0  0  0  0  0  0
  -26.2110  -26.0030   24.2720 H   0  0  0  0  0  0  0  0  0  0  0  0
  -27.0360  -24.7010   23.7980 H   0  0  0  0  0  0  0  0  0  0  0  0
  -27.3980  -26.4310   22.7090 C   0  0  0  0  0  2  0  0  0  0  0  0
  -28.8800  -25.9670   22.5670 C   0  0  0  0  0  2  0  0  0  0  0  0
  -29.4860  -25.9940   21.1280 C   0  0  0  0  0  2  0  0  0  0  0  0
  -29.5600  -27.2830   20.5110 O   0  0  0  0  0  0  0  0  0  0  0  0
  -24.7940  -31.6230   23.3470 C   0  0  0  0  0  0  0  0  0  0  0  0
  -28.3440  -27.8750   20.3140 C   0  0  0  0  0  0  0  0  0  0  0  0
  -23.9730  -30.1870   21.5080 C   0  0  0  0  0  3  0  0  0  0  0  0
  -25.7690  -28.9900   20.1520 C   0  0  0  0  0  0  0  0  0  0  0  0
  -26.4170  -30.9290   21.5930 C   0  0  0  0  0  2  0  0  0  0  0  0
  -26.7670  -29.6350   20.8940 C   0  0  0  0  0  0  0  0  0  0  0  0
  -28.0580  -29.0800   20.9830 C   0  0  0  0  0  3  0  0  0  0  0  0
  -27.3530  -27.2650   19.5130 C   0  0  0  0  0  3  0  0  0  0  0  0
  -26.0560  -27.8020   19.4550 C   0  0  0  0  0  3  0  0  0  0  0  0
  -24.4130  -29.6490   20.1190 C   0  0  0  0  0  2  0  0  0  0  0  0
  -25.0720  -30.9220   22.2120 N   0  0  0  0  0  0  0  0  0  0  0  0
  -23.6380  -31.6990   23.7850 O   0  0  0  0  0  0  0  0  0  0  0  0
  -23.3880  -29.0200   22.3340 C   0  0  0  0  0  0  0  0  0  0  0  0
  -22.1070  -28.7000   22.0900 N   0  0  0  0  0  0  0  0  0  0  0  0
  -24.0880  -28.4010   23.1390 O   0  0  0  0  0  0  0  0  0  0  0  0
  -21.6010  -29.2590   21.4160 H   0  0  0  0  0  0  0  0  0  0  0  0
  -18.8680  -27.0980   22.2210 C   0  0  0  0  0  0  0  0  0  0  0  0
  -21.3520  -27.6130   22.7140 C   0  0  0  0  0  3  0  0  0  0  0  0
  -21.6620  -26.2580   22.0360 C   0  0  0  0  0  2  0  0  0  0  0  0
  -20.6770  -25.9020   20.9190 C   0  0  0  0  0  2  0  0  0  0  0  0
  -19.2470  -25.8370   21.4610 C   0  0  0  0  0  2  0  0  0  0  0  0
  -19.8570  -27.9390   22.7960 C   0  0  0  0  0  0  0  0  0  0  0  0
  -19.4540  -29.1160   23.4630 C   0  0  0  0  0  3  0  0  0  0  0  0
  -18.0910  -29.4560   23.5600 C   0  0  0  0  0  3  0  0  0  0  0  0
  -17.1140  -28.6110   23.0050 C   0  0  0  0  0  3  0  0  0  0  0  0
  -17.5030  -27.4340   22.3410 C   0  0  0  0  0  3  0  0  0  0  0  0
  -25.9070  -32.3830   24.1330 C   0  0  0  0  0  3  0  0  0  0  0  0
  -25.4710  -33.7780   24.2870 N   0  0  0  0  0  0  0  0  0  0  0  0
  -25.8880  -34.7950   23.5170 C   0  0  0  0  0  0  0  0  0  0  0  0
  -26.7470  -34.6620   22.6420 O   0  0  0  0  0  0  0  0  0  0  0  0
  -24.7320  -33.9500   24.9530 H   0  0  0  0  0  0  0  0  0  0  0  0
  -24.1710  -36.4380   22.6960 C   0  0  0  0  0  1  0  0  0  0  0  0
  -25.2490  -36.1730   23.7600 C   0  0  0  0  0  3  0  0  0  0  0  0
  -27.1520  -37.2430   24.8920 C   0  0  0  0  0  1  0  0  0  0  0  0
  -26.2290  -37.2820   23.7590 N   0  0  0  0  0  0  0  0  0  0  0  0
  -25.7560  -38.1830   23.7650 H   0  0  0  0  0  0  0  0  0  0  0  0
  -26.2270  -31.7370   25.5350 C   0  0  1  0  0  0  0  0  0  0  0  0
  -24.9730  -31.4970   26.4070 C   0  0  0  0  0  1  0  0  0  0  0  0
  -26.9460  -30.3810   25.3590 C   0  0  0  0  0  1  0  0  0  0  0  0
  -27.1950  -32.6480   26.3260 C   0  0  0  0  0  1  0  0  0  0  0  0
  1  4  1  0
  2  6  2  0
  2  3  1  0
  3  1  2  0
  4 11  1  0
  5 54  1  0
  5  4  2  0
  6  5  1  0
  7  9  1  0
  7  6  1  0
  8  7  1  0
 11 10  1  0
 12  3  1  0
 12 13  1  0
 13 14  1  0
 14 15  1  0
 16 24  1  0
 17 22  1  0
 18 19  1  0
 18 17  1  0
 20 19  1  0
 20 29  1  0
 20 21  1  0
 22 16  1  0
 22 21  1  0
 23 16  2  0
 24 15  1  0
 24 25  1  0
 26 27  2  0
 27 46  1  0
 28 27  1  0
 28 31  1  0
 29 30  1  0
 29 26  1  0
 30 28  2  0
 31 32  1  0
 32 33  2  0
 34 37  1  0
 34 33  1  0
 35 34  2  0
 36 35  1  0
 36 31  2  0
 37 38  1  0
 38 43  2  0
 38 39  1  0
 39 40  2  0
 40 41  1  0
 41 45  1  0
 42 41  2  0
 43 42  1  0
 44 43  1  0
 46 47  1  0
 47 50  1  0
 47 49  1  0
 48 46  2  0
 51 26  1  0
 51 52  1  0
 53 51  1  0
 54 55  1  0
 55 57  1  0
 57 58  1  0
 57 56  1  0
 58 60  1  0
 58 59  1  0
 61 58  1  0
 62 61  1  0
 63 62  1  0
 64 63  1  0
 65 76  2  0
 66 64  1  0
 66 71  1  0
 67 75  1  0
 67 77  1  0
 68 70  1  0
 69 75  1  0
 70 71  2  0
 70 69  1  0
 72 66  2  0
 73 72  1  0
 73 68  2  0
 74 68  1  0
 74 67  1  0
 75 65  1  0
 77 79  2  0
 78 77  1  0
 80 78  1  0
 81 90  2  0
 81 86  1  0
 82 78  1  0
 82 86  1  0
 83 82  1  0
 84 85  1  0
 84 83  1  0
 85 81  1  0
 86 87  2  0
 87 88  1  0
 89 88  2  0
 90 89  1  0
 91 65  1  0
 91 92  1  0
 91101  1  0
 92 95  1  0
 93 97  1  0
 93 92  1  0
 94 93  2  0
 97 96  1  0
 99 97  1  0
 99100  1  0
 99 98  1  0
101104  1  1
101102  1  0
103101  1  0
M  ISO  4  16 100  24 100  63 101  64 101
M  END
>  <TORSDO>  (64) 
F 29

>  <SCORE>  (64) 
-10.214

>  <name>  (64) 
64

>  <ligand_id>  (64) 
64

>  <original_smiles>  (64) 
[H]c1c([H])c([H])c2c(c1[H])C([H])([H])C([H])([H])C([H])([H])C2([H])N([H])C(=O)C1([H])N(C(=O)C([H])(N([H])C(=O)C([H])(N([H])C([H])([H])[H])C([H])([H])[H])C(C([H])([H])[H])(C([H])([H])[H])C([H])([H])[H])C([H])([H])c2c([H])c(OC([H])([H])C([H])([H])C([H])([H])[N+]([H])([H])C([H])(C([H])([H])[H])C([H])([H])C([H])([H])c3c(N([H])[H])c([H])c(C([H])([H])C([H])([H])C([H])([H])C([H])([H])N([H])C(=O)N4C([H])([H])C([H])([H])C([H])([H])C([H])(n5nc(-c6c([H])c([H])c(Oc7c([H])c([H])c(F)c([H])c7F)c([H])c6[H])c(C(=O)N([H])[H])c5N([H])[H])C4([H])[H])c([H])c3C([H])([H])C([H])([H])[H])c([H])c([H])c2C1([H])[H]

>  <smiles>  (64) 
[H]c1c([H])c([H])c2c(c1[H])C([H])([H])C([H])([H])C([H])([H])C2([H])N([H])C(=O)C1([H])N(C(=O)C([H])(N([H])C(=O)C([H])(N([H])C([H])([H])[H])C([H])([H])[H])C(C([H])([H])[H])(C([H])([H])[H])C([H])([H])[H])C([H])([H])c2c([H])c(OC([H])([H])C([H])([H])C([H])([H])[N+]([H])([H])C([H])(C([H])([H])[H])C([H])([H])C([H])([H])c3c(N([H])[H])c([H])c(C([H])([H])C([H])([H])C([H])([H])C([H])([H])N([H])C(=O)N4C([H])([H])C([H])([H])C([H])([H])C([H])(n5nc(-c6c([H])c([H])c(Oc7c([H])c([H])c(F)c([H])c7F)c([H])c6[H])c(C(=O)N([H])[H])c5N([H])[H])C4([H])[H])c([H])c3C([H])([H])C([H])([H])[H])c([H])c([H])c2C1([H])[H]

$$$$
65:0:0
     RDKit          3D

 93101  0  0  1  0  0  0  0  0999 V2000
  -29.5190  -20.7740   21.9300 N   0  0  0  0  0  4  0  0  0  0  0  0
  -30.4680  -21.1100   21.9000 H   0  0  0  0  0  0  0  0  0  0  0  0
  -29.1770  -20.9760   22.8570 H   0  0  0  0  0  0  0  0  0  0  0  0
  -31.1700  -17.4310   22.7220 C   0  0  0  0  0  2  0  0  0  0  0  0
  -30.6070  -18.8380   22.9010 C   0  0  0  0  0  2  0  0  0  0  0  0
  -31.8060  -17.3000   21.3340 C   0  0  0  0  0  2  0  0  0  0  0  0
  -29.9270  -18.7450   20.3980 C   0  0  0  0  0  2  0  0  0  0  0  0
  -29.5780  -19.2750   21.8300 C   0  0  0  0  0  3  0  0  0  0  0  0
  -30.7600  -17.4020   20.1990 C   0  0  1  0  0  0  0  0  0  0  0  0
  -30.6600  -17.6380   17.5870 C   0  0  0  0  0  1  0  0  0  0  0  0
  -31.5330  -17.6330   18.8550 C   0  0  0  0  0  2  0  0  0  0  0  0
  -29.8980  -16.0490   20.1800 C   0  0  0  0  0  2  0  0  0  0  0  0
  -30.6370  -14.6750   19.9520 C   0  0  0  0  0  0  0  0  0  0  0  0
  -30.3120  -12.4410   18.9730 C   0  0  0  0  0  2  0  0  0  0  0  0
  -29.3180  -12.5810   17.8020 C   0  0  0  0  0  2  0  0  0  0  0  0
  -27.8710  -12.4260   18.3080 C   0  0  0  0  0  2  0  0  0  0  0  0
  -27.5710  -13.3070   19.5520 C   0  0  0  0  0  3  0  0  0  0  0  0
  -28.6900  -13.2030   20.6110 C   0  0  0  0  0  2  0  0  0  0  0  0
  -29.9720  -13.4860   19.9570 N   0  0  0  0  0  0  0  0  0  0  0  0
  -31.8020  -14.7060   19.5620 O   0  0  0  0  0  0  0  0  0  0  0  0
  -25.2250  -13.8720   20.4370 C   0  0  0  0  0  0  0  0  0  0  0  0
  -24.1900  -13.0830   20.8590 C   0  0  0  0  0  0  0  0  0  0  0  0
  -24.6600  -11.7370   20.7770 C   0  0  0  0  0  0  0  0  0  0  0  0
  -26.2600  -13.0050   20.1210 N   0  0  0  0  0  0  0  0  0  0  0  0
  -25.9290  -11.7150   20.3870 N   0  0  0  0  0  0  0  0  0  0  0  0
  -23.9570  -10.4640   20.9910 C   0  0  0  0  0  0  0  0  0  0  0  0
  -24.4290   -9.5050   21.9140 C   0  0  0  0  0  3  0  0  0  0  0  0
  -23.7250   -8.2990   22.1170 C   0  0  0  0  0  3  0  0  0  0  0  0
  -22.5340   -8.0410   21.3960 C   0  0  0  0  0  0  0  0  0  0  0  0
  -22.0810   -8.9890   20.4600 C   0  0  0  0  0  3  0  0  0  0  0  0
  -22.7860  -10.1880   20.2570 C   0  0  0  0  0  3  0  0  0  0  0  0
  -21.7980   -6.8870   21.5070 O   0  0  0  0  0  0  0  0  0  0  0  0
  -21.7610   -6.1670   22.6740 C   0  0  0  0  0  0  0  0  0  0  0  0
  -21.3240   -6.7390   23.8890 C   0  0  0  0  0  3  0  0  0  0  0  0
  -21.2350   -5.9450   25.0490 C   0  0  0  0  0  3  0  0  0  0  0  0
  -21.5730   -4.5790   24.9960 C   0  0  0  0  0  0  0  0  0  0  0  0
  -22.0030   -4.0060   23.7860 C   0  0  0  0  0  3  0  0  0  0  0  0
  -22.0930   -4.7980   22.6280 C   0  0  0  0  0  0  0  0  0  0  0  0
  -22.4870   -4.2360   21.4600 F   0  0  0  0  0  0  0  0  0  0  0  0
  -21.4800   -3.8140   26.1100 F   0  0  0  0  0  0  0  0  0  0  0  0
  -22.8090  -13.5430   21.2240 C   0  0  0  0  0  0  0  0  0  0  0  0
  -22.1400  -12.8250   22.1200 N   0  0  0  0  0  0  0  0  0  0  0  0
  -22.3310  -14.5730   20.7510 O   0  0  0  0  0  0  0  0  0  0  0  0
  -22.5390  -11.9910   22.5250 H   0  0  0  0  0  0  0  0  0  0  0  0
  -21.2150  -13.1140   22.4060 H   0  0  0  0  0  0  0  0  0  0  0  0
  -25.3670  -15.2470   20.2720 N   0  0  0  0  0  0  0  0  0  0  0  0
  -24.6050  -15.8920   20.4460 H   0  0  0  0  0  0  0  0  0  0  0  0
  -26.1960  -15.6990   19.9060 H   0  0  0  0  0  0  0  0  0  0  0  0
  -28.7270  -21.6260   20.9980 C   0  0  0  0  0  2  0  0  0  0  0  0
  -28.8730  -23.1280   21.4200 C   0  0  0  0  0  2  0  0  0  0  0  0
  -28.3340  -24.2500   20.4810 C   0  0  0  0  0  2  0  0  0  0  0  0
  -28.5530  -25.6730   21.0830 C   0  0  0  0  0  2  0  0  0  0  0  0
  -28.4650  -26.7680   20.1550 O   0  0  0  0  0  0  0  0  0  0  0  0
  -24.6120  -31.9520   23.2300 C   0  0  0  0  0  0  0  0  0  0  0  0
  -27.3010  -27.5030   20.1940 C   0  0  0  0  0  0  0  0  0  0  0  0
  -23.4240  -30.5290   21.5920 C   0  0  0  0  0  3  0  0  0  0  0  0
  -24.8970  -28.9930   20.1830 C   0  0  0  0  0  0  0  0  0  0  0  0
  -25.9470  -30.9100   21.3970 C   0  0  0  0  0  2  0  0  0  0  0  0
  -26.0490  -29.5310   20.7720 C   0  0  0  0  0  0  0  0  0  0  0  0
  -27.2570  -28.7940   20.7730 C   0  0  0  0  0  3  0  0  0  0  0  0
  -26.1370  -26.9780   19.6010 C   0  0  0  0  0  3  0  0  0  0  0  0
  -24.9360  -27.7150   19.5960 C   0  0  0  0  0  3  0  0  0  0  0  0
  -23.6450  -29.8420   20.2180 C   0  0  0  0  0  2  0  0  0  0  0  0
  -24.6790  -31.1450   22.1320 N   0  0  0  0  0  0  0  0  0  0  0  0
  -23.5260  -32.2180   23.7660 O   0  0  0  0  0  0  0  0  0  0  0  0
  -22.7780  -29.5090   22.5570 C   0  0  0  0  0  0  0  0  0  0  0  0
  -21.4590  -29.3030   22.4150 N   0  0  0  0  0  0  0  0  0  0  0  0
  -23.4610  -28.9050   23.3880 O   0  0  0  0  0  0  0  0  0  0  0  0
  -20.9680  -29.8420   21.7160 H   0  0  0  0  0  0  0  0  0  0  0  0
  -18.1030  -28.0420   22.8710 C   0  0  0  0  0  0  0  0  0  0  0  0
  -20.6490  -28.3590   23.1860 C   0  0  0  0  0  3  0  0  0  0  0  0
  -20.7930  -26.9230   22.6320 C   0  0  0  0  0  2  0  0  0  0  0  0
  -19.7170  -26.5630   21.6030 C   0  0  0  0  0  2  0  0  0  0  0  0
  -18.3200  -26.6870   22.2190 C   0  0  0  0  0  2  0  0  0  0  0  0
  -19.1970  -28.8340   23.3090 C   0  0  0  0  0  0  0  0  0  0  0  0
  -18.9430  -30.1010   23.8780 C   0  0  0  0  0  3  0  0  0  0  0  0
  -17.6250  -30.5780   24.0120 C   0  0  0  0  0  3  0  0  0  0  0  0
  -16.5440  -29.7850   23.5910 C   0  0  0  0  0  3  0  0  0  0  0  0
  -16.7840  -28.5190   23.0250 C   0  0  0  0  0  3  0  0  0  0  0  0
  -25.8900  -32.5980   23.8510 C   0  0  0  0  0  3  0  0  0  0  0  0
  -25.5650  -33.9920   24.1830 N   0  0  0  0  0  0  0  0  0  0  0  0
  -25.8800  -35.0480   23.4200 C   0  0  0  0  0  0  0  0  0  0  0  0
  -26.5470  -34.9510   22.3860 O   0  0  0  0  0  0  0  0  0  0  0  0
  -24.9700  -34.1400   24.9850 H   0  0  0  0  0  0  0  0  0  0  0  0
  -24.1220  -36.8120   23.0750 C   0  0  0  0  0  1  0  0  0  0  0  0
  -25.3760  -36.4300   23.8770 C   0  0  0  0  0  3  0  0  0  0  0  0
  -27.5050  -37.3480   24.6850 C   0  0  0  0  0  1  0  0  0  0  0  0
  -26.3930  -37.4990   23.7510 N   0  0  0  0  0  0  0  0  0  0  0  0
  -25.9750  -38.4130   23.8980 H   0  0  0  0  0  0  0  0  0  0  0  0
  -26.4170  -31.8310   25.1250 C   0  0  1  0  0  0  0  0  0  0  0  0
  -25.3260  -31.5660   26.1870 C   0  0  0  0  0  1  0  0  0  0  0  0
  -27.0300  -30.4690   24.7240 C   0  0  0  0  0  1  0  0  0  0  0  0
  -27.5510  -32.6430   25.7930 C   0  0  0  0  0  1  0  0  0  0  0  0
  1  3  1  0
  2  1  1  0
  4  5  1  0
  6  4  1  0
  7  8  1  0
  8  1  1  0
  8  5  1  0
  9 11  1  6
  9  7  1  0
  9  6  1  0
 10 11  1  0
 12  9  1  0
 13 19  1  0
 13 12  1  0
 14 19  1  0
 15 16  1  0
 15 14  1  0
 17 16  1  0
 17 24  1  0
 17 18  1  0
 19 18  1  0
 20 13  2  0
 21 22  2  0
 22 41  1  0
 23 22  1  0
 23 26  1  0
 24 25  1  0
 24 21  1  0
 25 23  2  0
 26 27  1  0
 27 28  2  0
 29 32  1  0
 29 28  1  0
 30 29  2  0
 31 30  1  0
 31 26  2  0
 32 33  1  0
 33 34  1  0
 34 35  2  0
 36 35  1  0
 36 40  1  0
 37 36  2  0
 38 33  2  0
 38 37  1  0
 39 38  1  0
 41 42  1  0
 42 45  1  0
 42 44  1  0
 43 41  2  0
 46 21  1  0
 46 47  1  0
 48 46  1  0
 49 50  1  0
 49  1  1  0
 51 52  1  0
 51 50  1  0
 53 55  1  0
 53 52  1  0
 54 65  2  0
 55 60  1  0
 56 64  1  0
 56 66  1  0
 57 63  1  0
 57 59  1  0
 58 64  1  0
 59 60  2  0
 59 58  1  0
 61 55  2  0
 62 61  1  0
 62 57  2  0
 63 56  1  0
 64 54  1  0
 66 68  2  0
 67 66  1  0
 69 67  1  0
 70 79  2  0
 70 75  1  0
 71 67  1  0
 71 75  1  0
 72 71  1  0
 73 74  1  0
 73 72  1  0
 74 70  1  0
 75 76  2  0
 76 77  1  0
 78 77  2  0
 79 78  1  0
 80 54  1  0
 80 81  1  0
 80 90  1  0
 81 84  1  0
 82 86  1  0
 82 81  1  0
 83 82  2  0
 86 85  1  0
 88 86  1  0
 88 89  1  0
 88 87  1  0
 90 93  1  1
 90 91  1  0
 92 90  1  0
M  ISO  4  12 100  13 100  52 101  53 101
M  END
>  <TORSDO>  (65) 
F 23

>  <SCORE>  (65) 
-11.455

>  <name>  (65) 
65

>  <ligand_id>  (65) 
65

>  <original_smiles>  (65) 
[H]c1c([H])c([H])c2c(c1[H])C([H])([H])C([H])([H])C([H])([H])C2([H])N([H])C(=O)C1([H])N(C(=O)C([H])(N([H])C(=O)C([H])(N([H])C([H])([H])[H])C([H])([H])[H])C(C([H])([H])[H])(C([H])([H])[H])C([H])([H])[H])C([H])([H])c2c([H])c(OC([H])([H])C([H])([H])C([H])([H])C([H])([H])[N+]([H])([H])C3([H])C([H])([H])C([H])([H])C([H])([H])C(C([H])([H])C(=O)N4C([H])([H])C([H])([H])C([H])([H])C([H])(n5nc(-c6c([H])c([H])c(Oc7c([H])c([H])c(F)c([H])c7F)c([H])c6[H])c(C(=O)N([H])[H])c5N([H])[H])C4([H])[H])(C([H])([H])C([H])([H])[H])C3([H])[H])c([H])c([H])c2C1([H])[H]

>  <smiles>  (65) 
[H]c1c([H])c([H])c2c(c1[H])C([H])([H])C([H])([H])C([H])([H])C2([H])N([H])C(=O)C1([H])N(C(=O)C([H])(N([H])C(=O)C([H])(N([H])C([H])([H])[H])C([H])([H])[H])C(C([H])([H])[H])(C([H])([H])[H])C([H])([H])[H])C([H])([H])c2c([H])c(OC([H])([H])C([H])([H])C([H])([H])C([H])([H])[N+]([H])([H])C3([H])C([H])([H])C([H])([H])C([H])([H])C(C([H])([H])C(=O)N4C([H])([H])C([H])([H])C([H])([H])C([H])(n5nc(-c6c([H])c([H])c(Oc7c([H])c([H])c(F)c([H])c7F)c([H])c6[H])c(C(=O)N([H])[H])c5N([H])[H])C4([H])[H])(C([H])([H])C([H])([H])[H])C3([H])[H])c([H])c([H])c2C1([H])[H]

$$$$
66:0:0
     RDKit          3D

 97105  0  0  1  0  0  0  0  0999 V2000
  -27.2640  -21.1710   21.5630 C   0  0  0  0  0  3  0  0  0  0  0  0
  -26.7860  -21.9920   20.5310 C   0  0  0  0  0  3  0  0  0  0  0  0
  -28.6480  -21.0650   21.7860 C   0  0  0  0  0  3  0  0  0  0  0  0
  -27.6910  -22.7240   19.7420 C   0  0  0  0  0  3  0  0  0  0  0  0
  -29.5740  -21.7770   20.9890 C   0  0  0  0  0  0  0  0  0  0  0  0
  -29.0880  -22.6560   19.9670 C   0  0  0  0  0  0  0  0  0  0  0  0
  -30.0170  -22.9440   17.6370 C   0  0  0  0  0  1  0  0  0  0  0  0
  -30.0040  -23.5070   19.0670 C   0  0  0  0  0  3  0  0  0  0  0  0
  -29.6650  -24.9570   19.0430 N   0  0  0  0  0  4  0  0  0  0  0  0
  -30.4360  -25.4320   18.5980 H   0  0  0  0  0  0  0  0  0  0  0  0
  -28.8640  -25.0980   18.4490 H   0  0  0  0  0  0  0  0  0  0  0  0
  -29.3990  -25.6340   20.3400 C   0  0  0  0  0  2  0  0  0  0  0  0
  -29.3650  -27.1720   20.1900 C   0  0  0  0  0  2  0  0  0  0  0  0
  -28.5520  -27.5230   19.0680 O   0  0  0  0  0  0  0  0  0  0  0  0
  -24.5170  -31.8560   23.0940 C   0  0  0  0  0  0  0  0  0  0  0  0
  -27.3450  -28.1320   19.3230 C   0  0  0  0  0  0  0  0  0  0  0  0
  -23.3310  -30.5380   21.3690 C   0  0  0  0  0  3  0  0  0  0  0  0
  -24.8180  -29.3430   19.6740 C   0  0  0  0  0  0  0  0  0  0  0  0
  -25.7820  -31.1910   21.0540 C   0  0  0  0  0  2  0  0  0  0  0  0
  -25.9580  -29.9170   20.2550 C   0  0  0  0  0  0  0  0  0  0  0  0
  -27.2240  -29.3150   20.0870 C   0  0  0  0  0  3  0  0  0  0  0  0
  -26.1950  -27.5750   18.7310 C   0  0  0  0  0  3  0  0  0  0  0  0
  -24.9300  -28.1660   18.9140 C   0  0  0  0  0  3  0  0  0  0  0  0
  -23.5000  -30.0500   19.9050 C   0  0  0  0  0  2  0  0  0  0  0  0
  -24.5640  -31.2040   21.8980 N   0  0  0  0  0  0  0  0  0  0  0  0
  -23.4600  -31.9430   23.7350 O   0  0  0  0  0  0  0  0  0  0  0  0
  -22.8620  -29.3460   22.2340 C   0  0  0  0  0  0  0  0  0  0  0  0
  -21.5710  -28.9950   22.1180 N   0  0  0  0  0  0  0  0  0  0  0  0
  -23.6540  -28.7420   22.9610 O   0  0  0  0  0  0  0  0  0  0  0  0
  -20.9870  -29.5440   21.5020 H   0  0  0  0  0  0  0  0  0  0  0  0
  -18.4250  -27.2620   22.5080 C   0  0  0  0  0  0  0  0  0  0  0  0
  -20.9170  -27.8830   22.8040 C   0  0  0  0  0  3  0  0  0  0  0  0
  -21.2290  -26.5380   22.1070 C   0  0  0  0  0  2  0  0  0  0  0  0
  -20.1780  -26.1390   21.0670 C   0  0  0  0  0  2  0  0  0  0  0  0
  -18.7970  -26.0170   21.7190 C   0  0  0  0  0  2  0  0  0  0  0  0
  -19.4200  -28.1460   23.0030 C   0  0  0  0  0  0  0  0  0  0  0  0
  -19.0200  -29.3060   23.7000 C   0  0  0  0  0  3  0  0  0  0  0  0
  -17.6560  -29.5890   23.9050 C   0  0  0  0  0  3  0  0  0  0  0  0
  -16.6760  -28.7030   23.4260 C   0  0  0  0  0  3  0  0  0  0  0  0
  -17.0620  -27.5400   22.7350 C   0  0  0  0  0  3  0  0  0  0  0  0
  -25.7810  -32.5420   23.7030 C   0  0  0  0  0  3  0  0  0  0  0  0
  -26.4010  -31.7400   24.9120 C   0  0  1  0  0  0  0  0  0  0  0  0
  -25.3720  -31.3660   26.0050 C   0  0  0  0  0  1  0  0  0  0  0  0
  -27.0610  -30.4320   24.4150 C   0  0  0  0  0  1  0  0  0  0  0  0
  -27.5220  -32.5750   25.5750 C   0  0  0  0  0  1  0  0  0  0  0  0
  -25.3910  -33.8950   24.1220 N   0  0  0  0  0  0  0  0  0  0  0  0
  -25.6400  -35.0090   23.4210 C   0  0  0  0  0  0  0  0  0  0  0  0
  -26.2950  -35.0100   22.3750 O   0  0  0  0  0  0  0  0  0  0  0  0
  -24.8060  -33.9630   24.9410 H   0  0  0  0  0  0  0  0  0  0  0  0
  -23.8010  -36.7080   23.1860 C   0  0  0  0  0  1  0  0  0  0  0  0
  -25.0720  -36.3330   23.9650 C   0  0  0  0  0  3  0  0  0  0  0  0
  -27.1540  -37.2950   24.8400 C   0  0  0  0  0  1  0  0  0  0  0  0
  -26.0370  -37.4520   23.9130 N   0  0  0  0  0  0  0  0  0  0  0  0
  -25.5770  -38.3350   24.1180 H   0  0  0  0  0  0  0  0  0  0  0  0
  -31.0580  -21.5420   21.2870 C   0  0  0  0  0  2  0  0  0  0  0  0
  -31.6550  -20.2780   20.6210 C   0  0  0  0  0  2  0  0  0  0  0  0
  -31.0410  -19.0070   21.0850 N   0  0  0  0  0  4  0  0  0  0  0  0
  -30.0730  -19.0020   20.8030 H   0  0  0  0  0  0  0  0  0  0  0  0
  -31.0730  -18.9890   22.0920 H   0  0  0  0  0  0  0  0  0  0  0  0
  -31.7110  -17.7860   20.5640 C   0  0  0  0  0  2  0  0  0  0  0  0
  -31.0560  -16.4610   21.0390 C   0  0  0  0  0  2  0  0  0  0  0  0
  -31.7400  -15.1980   20.4650 C   0  0  0  0  0  0  0  0  0  0  0  0
  -31.5150  -12.8840   19.6170 C   0  0  0  0  0  2  0  0  0  0  0  0
  -30.6700  -12.8810   18.3280 C   0  0  0  0  0  2  0  0  0  0  0  0
  -29.1660  -12.8070   18.6560 C   0  0  0  0  0  2  0  0  0  0  0  0
  -28.7380  -13.8420   19.7300 C   0  0  0  0  0  3  0  0  0  0  0  0
  -29.6990  -13.8100   20.9400 C   0  0  0  0  0  2  0  0  0  0  0  0
  -31.0670  -14.0150   20.4430 N   0  0  0  0  0  0  0  0  0  0  0  0
  -32.8660  -15.3150   19.9720 O   0  0  0  0  0  0  0  0  0  0  0  0
  -26.3390  -14.5840   20.3000 C   0  0  0  0  0  0  0  0  0  0  0  0
  -25.2130  -13.8740   20.6190 C   0  0  0  0  0  0  0  0  0  0  0  0
  -25.6020  -12.5000   20.6240 C   0  0  0  0  0  0  0  0  0  0  0  0
  -27.3470  -13.6470   20.1370 N   0  0  0  0  0  0  0  0  0  0  0  0
  -26.9030  -12.3890   20.3870 N   0  0  0  0  0  0  0  0  0  0  0  0
  -24.8000  -11.2800   20.7880 C   0  0  0  0  0  0  0  0  0  0  0  0
  -25.0740  -10.3480   21.8120 C   0  0  0  0  0  3  0  0  0  0  0  0
  -24.2790   -9.1910   21.9600 C   0  0  0  0  0  3  0  0  0  0  0  0
  -23.1950   -8.9590   21.0800 C   0  0  0  0  0  0  0  0  0  0  0  0
  -22.9410   -9.8780   20.0470 C   0  0  0  0  0  3  0  0  0  0  0  0
  -23.7370  -11.0260   19.8980 C   0  0  0  0  0  3  0  0  0  0  0  0
  -22.3840   -7.8510   21.1320 O   0  0  0  0  0  0  0  0  0  0  0  0
  -22.0790   -7.2370   22.3200 C   0  0  0  0  0  0  0  0  0  0  0  0
  -21.4380   -7.9260   23.3720 C   0  0  0  0  0  3  0  0  0  0  0  0
  -21.0800   -7.2390   24.5490 C   0  0  0  0  0  3  0  0  0  0  0  0
  -21.3530   -5.8640   24.6730 C   0  0  0  0  0  0  0  0  0  0  0  0
  -21.9870   -5.1750   23.6240 C   0  0  0  0  0  3  0  0  0  0  0  0
  -22.3460   -5.8590   22.4500 C   0  0  0  0  0  0  0  0  0  0  0  0
  -22.9370   -5.1860   21.4340 F   0  0  0  0  0  0  0  0  0  0  0  0
  -21.0030   -5.2010   25.8000 F   0  0  0  0  0  0  0  0  0  0  0  0
  -23.8300  -14.4270   20.8120 C   0  0  0  0  0  0  0  0  0  0  0  0
  -23.0240  -13.7850   21.6500 N   0  0  0  0  0  0  0  0  0  0  0  0
  -23.4720  -15.4640   20.2550 O   0  0  0  0  0  0  0  0  0  0  0  0
  -23.3240  -12.9450   22.1230 H   0  0  0  0  0  0  0  0  0  0  0  0
  -22.0930  -14.1380   21.8210 H   0  0  0  0  0  0  0  0  0  0  0  0
  -26.5850  -15.9430   20.1190 N   0  0  0  0  0  0  0  0  0  0  0  0
  -25.8470  -16.6360   20.1760 H   0  0  0  0  0  0  0  0  0  0  0  0
  -27.4710  -16.3320   19.8230 H   0  0  0  0  0  0  0  0  0  0  0  0
  1  3  1  0
  2  1  2  0
  4  6  2  0
  4  2  1  0
  5 55  1  0
  5  3  2  0
  6  5  1  0
  8  7  1  0
  8  6  1  0
  9  8  1  0
  9 12  1  0
 10  9  1  0
 11  9  1  0
 13 12  1  0
 14 16  1  0
 14 13  1  0
 15 26  2  0
 16 21  1  0
 17 25  1  0
 17 27  1  0
 18 24  1  0
 18 20  1  0
 19 25  1  0
 20 19  1  0
 21 20  2  0
 22 23  1  0
 22 16  2  0
 23 18  2  0
 24 17  1  0
 25 15  1  0
 27 29  2  0
 28 27  1  0
 30 28  1  0
 31 40  2  0
 31 36  1  0
 32 28  1  0
 32 36  1  0
 33 32  1  0
 34 35  1  0
 34 33  1  0
 35 31  1  0
 36 37  2  0
 37 38  1  0
 39 38  2  0
 40 39  1  0
 41 15  1  0
 41 46  1  0
 41 42  1  0
 42 45  1  1
 42 43  1  0
 44 42  1  0
 46 49  1  0
 47 51  1  0
 47 46  1  0
 48 47  2  0
 51 50  1  0
 53 51  1  0
 53 54  1  0
 53 52  1  0
 56 57  1  0
 56 55  1  0
 57 59  1  0
 58 57  1  0
 60 61  1  0
 60 57  1  0
 62 61  1  0
 63 68  1  0
 64 65  1  0
 64 63  1  0
 66 65  1  0
 66 73  1  0
 66 67  1  0
 68 62  1  0
 68 67  1  0
 69 62  2  0
 70 71  2  0
 71 72  1  0
 71 90  1  0
 72 75  1  0
 73 70  1  0
 73 74  1  0
 74 72  2  0
 75 76  1  0
 76 77  2  0
 78 81  1  0
 78 77  1  0
 79 78  2  0
 80 79  1  0
 80 75  2  0
 81 82  1  0
 82 87  2  0
 82 83  1  0
 83 84  2  0
 84 85  1  0
 85 89  1  0
 86 85  2  0
 87 86  1  0
 88 87  1  0
 90 91  1  0
 91 94  1  0
 91 93  1  0
 92 90  2  0
 95 96  1  0
 95 70  1  0
 97 95  1  0
M  ISO  4  13 101  14 101  61 100  62 100
M  END
>  <TORSDO>  (66) 
F 25

>  <SCORE>  (66) 
-7.545

>  <name>  (66) 
66

>  <ligand_id>  (66) 
66

>  <original_smiles>  (66) 
[H]c1c([H])c([H])c2c(c1[H])C([H])([H])C([H])([H])C([H])([H])C2([H])N([H])C(=O)C1([H])N(C(=O)C([H])(N([H])C(=O)C([H])(N([H])C([H])([H])[H])C([H])([H])[H])C(C([H])([H])[H])(C([H])([H])[H])C([H])([H])[H])C([H])([H])c2c([H])c(OC([H])([H])C([H])([H])[N+]([H])([H])C([H])(c3c([H])c([H])c([H])c([H])c3C([H])([H])C([H])([H])[N+]([H])([H])C([H])([H])C([H])([H])C(=O)N3C([H])([H])C([H])([H])C([H])([H])C([H])(n4nc(-c5c([H])c([H])c(Oc6c([H])c([H])c(F)c([H])c6F)c([H])c5[H])c(C(=O)N([H])[H])c4N([H])[H])C3([H])[H])C([H])([H])[H])c([H])c([H])c2C1([H])[H]

>  <smiles>  (66) 
[H]c1c([H])c([H])c2c(c1[H])C([H])([H])C([H])([H])C([H])([H])C2([H])N([H])C(=O)C1([H])N(C(=O)C([H])(N([H])C(=O)C([H])(N([H])C([H])([H])[H])C([H])([H])[H])C(C([H])([H])[H])(C([H])([H])[H])C([H])([H])[H])C([H])([H])c2c([H])c(OC([H])([H])C([H])([H])[N+]([H])([H])C([H])(c3c([H])c([H])c([H])c([H])c3C([H])([H])C([H])([H])[N+]([H])([H])C([H])([H])C([H])([H])C(=O)N3C([H])([H])C([H])([H])C([H])([H])C([H])(n4nc(-c5c([H])c([H])c(Oc6c([H])c([H])c(F)c([H])c6F)c([H])c5[H])c(C(=O)N([H])[H])c4N([H])[H])C3([H])[H])C([H])([H])[H])c([H])c([H])c2C1([H])[H]

$$$$
67:0:0
     RDKit          3D

 95103  0  0  1  0  0  0  0  0999 V2000
  -29.5100  -20.3400   20.4190 C   0  0  0  0  0  3  0  0  0  0  0  0
  -29.3730  -21.7310   20.6080 C   0  0  0  0  0  3  0  0  0  0  0  0
  -31.4940  -20.3500   21.8230 C   0  0  0  0  0  3  0  0  0  0  0  0
  -30.5730  -19.6400   21.0260 C   0  0  0  0  0  0  0  0  0  0  0  0
  -30.2900  -22.4500   21.4160 C   0  0  0  0  0  0  0  0  0  0  0  0
  -31.3570  -21.7390   22.0200 C   0  0  0  0  0  0  0  0  0  0  0  0
  -32.2800  -22.3900   22.7870 O   0  0  0  0  0  0  0  0  0  0  0  0
  -32.9370  -21.8080   23.1570 H   0  0  0  0  0  0  0  0  0  0  0  0
  -30.1830  -23.9720   21.6060 C   0  0  0  0  0  2  0  0  0  0  0  0
  -28.7870  -24.5830   21.5090 C   0  0  0  0  0  0  0  0  0  0  0  0
  -27.9730  -24.5550   22.4800 N   0  0  0  0  0  0  0  0  0  0  0  0
  -28.3720  -24.0820   23.2830 H   0  0  0  0  0  0  0  0  0  0  0  0
  -28.4270  -25.2360   20.1800 C   0  0  0  0  0  2  0  0  0  0  0  0
  -28.3910  -26.6680   20.2810 O   0  0  0  0  0  0  0  0  0  0  0  0
  -24.5280  -31.8370   23.2470 C   0  0  0  0  0  0  0  0  0  0  0  0
  -27.1860  -27.3420   20.2640 C   0  0  0  0  0  0  0  0  0  0  0  0
  -23.3320  -30.4200   21.6110 C   0  0  0  0  0  3  0  0  0  0  0  0
  -24.7920  -28.8560   20.2280 C   0  0  0  0  0  0  0  0  0  0  0  0
  -25.8620  -30.7620   21.4390 C   0  0  0  0  0  2  0  0  0  0  0  0
  -25.9440  -29.3820   20.8220 C   0  0  0  0  0  0  0  0  0  0  0  0
  -27.1400  -28.6320   20.8380 C   0  0  0  0  0  3  0  0  0  0  0  0
  -26.0130  -26.8310   19.6560 C   0  0  0  0  0  3  0  0  0  0  0  0
  -24.8210  -27.5790   19.6440 C   0  0  0  0  0  3  0  0  0  0  0  0
  -23.5530  -29.7210   20.2430 C   0  0  0  0  0  2  0  0  0  0  0  0
  -24.5920  -31.0220   22.1560 N   0  0  0  0  0  0  0  0  0  0  0  0
  -23.4420  -32.1220   23.7710 O   0  0  0  0  0  0  0  0  0  0  0  0
  -22.6660  -29.4150   22.5770 C   0  0  0  0  0  0  0  0  0  0  0  0
  -21.3440  -29.2340   22.4320 N   0  0  0  0  0  0  0  0  0  0  0  0
  -23.3370  -28.8000   23.4090 O   0  0  0  0  0  0  0  0  0  0  0  0
  -20.8660  -29.7810   21.7300 H   0  0  0  0  0  0  0  0  0  0  0  0
  -17.9570  -28.0670   22.8990 C   0  0  0  0  0  0  0  0  0  0  0  0
  -20.5120  -28.3120   23.2060 C   0  0  0  0  0  3  0  0  0  0  0  0
  -20.6150  -26.8730   22.6500 C   0  0  0  0  0  2  0  0  0  0  0  0
  -19.5250  -26.5430   21.6260 C   0  0  0  0  0  2  0  0  0  0  0  0
  -18.1350  -26.7070   22.2470 C   0  0  0  0  0  2  0  0  0  0  0  0
  -19.0750  -28.8280   23.3350 C   0  0  0  0  0  0  0  0  0  0  0  0
  -18.8570  -30.1010   23.9030 C   0  0  0  0  0  3  0  0  0  0  0  0
  -17.5530  -30.6150   24.0420 C   0  0  0  0  0  3  0  0  0  0  0  0
  -16.4490  -29.8510   23.6250 C   0  0  0  0  0  3  0  0  0  0  0  0
  -16.6530  -28.5800   23.0580 C   0  0  0  0  0  3  0  0  0  0  0  0
  -25.8110  -32.4680   23.8720 C   0  0  0  0  0  3  0  0  0  0  0  0
  -25.5010  -33.8660   24.2020 N   0  0  0  0  0  0  0  0  0  0  0  0
  -25.8400  -34.9190   23.4460 C   0  0  0  0  0  0  0  0  0  0  0  0
  -26.5190  -34.8170   22.4210 O   0  0  0  0  0  0  0  0  0  0  0  0
  -24.8980  -34.0190   24.9980 H   0  0  0  0  0  0  0  0  0  0  0  0
  -24.1170  -36.7110   23.0710 C   0  0  0  0  0  1  0  0  0  0  0  0
  -25.3460  -36.3070   23.8990 C   0  0  0  0  0  3  0  0  0  0  0  0
  -27.4690  -37.1860   24.7610 C   0  0  0  0  0  1  0  0  0  0  0  0
  -26.3810  -37.3590   23.8020 N   0  0  0  0  0  0  0  0  0  0  0  0
  -25.9740  -38.2790   23.9460 H   0  0  0  0  0  0  0  0  0  0  0  0
  -26.3260  -31.6950   25.1480 C   0  0  1  0  0  0  0  0  0  0  0  0
  -25.2310  -31.4500   26.2120 C   0  0  0  0  0  1  0  0  0  0  0  0
  -26.9140  -30.3210   24.7500 C   0  0  0  0  0  1  0  0  0  0  0  0
  -27.4730  -32.4900   25.8150 C   0  0  0  0  0  1  0  0  0  0  0  0
  -30.7530  -18.1410   20.8160 C   0  0  0  0  0  2  0  0  0  0  0  0
  -30.5210  -17.3290   22.1040 C   0  0  0  0  0  2  0  0  0  0  0  0
  -31.1550  -15.9230   22.0910 C   0  0  0  0  0  2  0  0  0  0  0  0
  -30.6750  -14.2450   20.2930 C   0  0  0  0  0  0  0  0  0  0  0  0
  -30.2100  -12.2350   18.9320 C   0  0  0  0  0  2  0  0  0  0  0  0
  -29.2170  -12.5180   17.7910 C   0  0  0  0  0  2  0  0  0  0  0  0
  -27.7650  -12.3760   18.2840 C   0  0  0  0  0  2  0  0  0  0  0  0
  -27.5040  -13.1660   19.5920 C   0  0  0  0  0  3  0  0  0  0  0  0
  -28.5940  -12.8590   20.6420 C   0  0  0  0  0  2  0  0  0  0  0  0
  -29.9120  -13.1480   20.0450 N   0  0  0  0  0  0  0  0  0  0  0  0
  -31.6540  -14.5600   19.6100 O   0  0  0  0  0  0  0  0  0  0  0  0
  -30.3450  -14.9160   21.4050 N   0  0  0  0  0  0  0  0  0  0  0  0
  -29.5380  -14.5690   21.9030 H   0  0  0  0  0  0  0  0  0  0  0  0
  -25.1350  -13.7950   20.3860 C   0  0  0  0  0  0  0  0  0  0  0  0
  -24.0750  -13.0310   20.7920 C   0  0  0  0  0  0  0  0  0  0  0  0
  -24.5230  -11.6750   20.7420 C   0  0  0  0  0  0  0  0  0  0  0  0
  -26.1650  -12.9050   20.1160 N   0  0  0  0  0  0  0  0  0  0  0  0
  -25.8010  -11.6250   20.3860 N   0  0  0  0  0  0  0  0  0  0  0  0
  -23.7950  -10.4180   20.9580 C   0  0  0  0  0  0  0  0  0  0  0  0
  -24.2420   -9.4560   21.8900 C   0  0  0  0  0  3  0  0  0  0  0  0
  -23.5150   -8.2640   22.0930 C   0  0  0  0  0  3  0  0  0  0  0  0
  -22.3260   -8.0250   21.3620 C   0  0  0  0  0  0  0  0  0  0  0  0
  -21.8980   -8.9750   20.4190 C   0  0  0  0  0  3  0  0  0  0  0  0
  -22.6260  -10.1590   20.2150 C   0  0  0  0  0  3  0  0  0  0  0  0
  -21.5690   -6.8830   21.4740 O   0  0  0  0  0  0  0  0  0  0  0  0
  -21.5320   -6.1540   22.6350 C   0  0  0  0  0  0  0  0  0  0  0  0
  -21.1280   -6.7250   23.8610 C   0  0  0  0  0  3  0  0  0  0  0  0
  -21.0390   -5.9230   25.0170 C   0  0  0  0  0  3  0  0  0  0  0  0
  -21.3440   -4.5490   24.9450 C   0  0  0  0  0  0  0  0  0  0  0  0
  -21.7410   -3.9780   23.7240 C   0  0  0  0  0  3  0  0  0  0  0  0
  -21.8320   -4.7780   22.5720 C   0  0  0  0  0  0  0  0  0  0  0  0
  -22.1950   -4.2190   21.3930 F   0  0  0  0  0  0  0  0  0  0  0  0
  -21.2500   -3.7770   26.0530 F   0  0  0  0  0  0  0  0  0  0  0  0
  -22.6920  -13.5180   21.1180 C   0  0  0  0  0  0  0  0  0  0  0  0
  -21.9930  -12.8270   22.0110 N   0  0  0  0  0  0  0  0  0  0  0  0
  -22.2420  -14.5470   20.6150 O   0  0  0  0  0  0  0  0  0  0  0  0
  -22.3710  -11.9950   22.4400 H   0  0  0  0  0  0  0  0  0  0  0  0
  -21.0670  -13.1340   22.2700 H   0  0  0  0  0  0  0  0  0  0  0  0
  -25.3060  -15.1650   20.2050 N   0  0  0  0  0  0  0  0  0  0  0  0
  -24.5530  -15.8280   20.3490 H   0  0  0  0  0  0  0  0  0  0  0  0
  -26.1570  -15.5960   19.8660 H   0  0  0  0  0  0  0  0  0  0  0  0
  1  2  2  0
  1  4  1  0
  2  5  1  0
  3  6  1  0
  4  3  2  0
  5  9  1  0
  5  6  2  0
  6  7  1  0
  7  8  1  0
 10  9  1  0
 10 11  2  0
 11 12  1  0
 13 14  1  0
 13 10  1  0
 15 26  2  0
 16 14  1  0
 16 21  1  0
 17 25  1  0
 17 27  1  0
 18 24  1  0
 18 20  1  0
 19 25  1  0
 20 21  2  0
 20 19  1  0
 22 16  2  0
 23 22  1  0
 23 18  2  0
 24 17  1  0
 25 15  1  0
 27 29  2  0
 28 27  1  0
 30 28  1  0
 31 40  2  0
 31 36  1  0
 32 28  1  0
 32 36  1  0
 33 32  1  0
 34 35  1  0
 34 33  1  0
 35 31  1  0
 36 37  2  0
 37 38  1  0
 39 38  2  0
 40 39  1  0
 41 15  1  0
 41 42  1  0
 41 51  1  0
 42 45  1  0
 43 47  1  0
 43 42  1  0
 44 43  2  0
 47 46  1  0
 49 47  1  0
 49 50  1  0
 49 48  1  0
 51 54  1  1
 51 52  1  0
 53 51  1  0
 55  4  1  0
 55 56  1  0
 57 56  1  0
 58 66  1  0
 59 64  1  0
 60 61  1  0
 60 59  1  0
 62 61  1  0
 62 71  1  0
 62 63  1  0
 64 58  1  0
 64 63  1  0
 65 58  2  0
 66 67  1  0
 66 57  1  0
 68 69  2  0
 69 88  1  0
 70 69  1  0
 70 73  1  0
 71 68  1  0
 71 72  1  0
 72 70  2  0
 73 74  1  0
 74 75  2  0
 76 79  1  0
 76 75  1  0
 77 76  2  0
 78 77  1  0
 78 73  2  0
 79 80  1  0
 80 81  1  0
 81 82  2  0
 83 82  1  0
 83 87  1  0
 84 83  2  0
 85 80  2  0
 85 84  1  0
 86 85  1  0
 88 89  1  0
 89 92  1  0
 89 91  1  0
 90 88  2  0
 93 94  1  0
 93 68  1  0
 95 93  1  0
M  ISO  4  13 101  14 101  58 100  66 100
M  END
>  <TORSDO>  (67) 
F 23

>  <SCORE>  (67) 
-12.418

>  <name>  (67) 
67

>  <ligand_id>  (67) 
67

>  <original_smiles>  (67) 
[H]N=C(C([H])([H])Oc1c([H])c([H])c2c(c1[H])C([H])([H])N(C(=O)C([H])(N([H])C(=O)C([H])(N([H])C([H])([H])[H])C([H])([H])[H])C(C([H])([H])[H])(C([H])([H])[H])C([H])([H])[H])C([H])(C(=O)N([H])C1([H])c3c([H])c([H])c([H])c([H])c3C([H])([H])C([H])([H])C1([H])[H])C2([H])[H])C([H])([H])c1c([H])c([H])c(C([H])([H])C([H])([H])C([H])([H])N([H])C(=O)N2C([H])([H])C([H])([H])C([H])([H])C([H])(n3nc(-c4c([H])c([H])c(Oc5c([H])c([H])c(F)c([H])c5F)c([H])c4[H])c(C(=O)N([H])[H])c3N([H])[H])C2([H])[H])c([H])c1O[H]

>  <smiles>  (67) 
[H]N=C(C([H])([H])Oc1c([H])c([H])c2c(c1[H])C([H])([H])N(C(=O)C([H])(N([H])C(=O)C([H])(N([H])C([H])([H])[H])C([H])([H])[H])C(C([H])([H])[H])(C([H])([H])[H])C([H])([H])[H])C([H])(C(=O)N([H])C1([H])c3c([H])c([H])c([H])c([H])c3C([H])([H])C([H])([H])C1([H])[H])C2([H])[H])C([H])([H])c1c([H])c([H])c(C([H])([H])C([H])([H])C([H])([H])N([H])C(=O)N2C([H])([H])C([H])([H])C([H])([H])C([H])(n3nc(-c4c([H])c([H])c(Oc5c([H])c([H])c(F)c([H])c5F)c([H])c4[H])c(C(=O)N([H])[H])c3N([H])[H])C2([H])[H])c([H])c1O[H]

$$$$
68:0:0
     RDKit          3D

104114  0  0  1  0  0  0  0  0999 V2000
  -25.5300  -21.6950   18.7100 C   0  0  0  0  0  3  0  0  0  0  0  0
  -23.8490  -23.4060   19.1040 C   0  0  0  0  0  3  0  0  0  0  0  0
  -26.5380  -22.6810   18.5830 C   0  0  0  0  0  0  0  0  0  0  0  0
  -26.1830  -24.0470   18.7220 C   0  0  0  0  0  0  0  0  0  0  0  0
  -24.1900  -22.0500   18.9530 C   0  0  0  0  0  0  0  0  0  0  0  0
  -24.8400  -24.4050   19.0060 C   0  0  0  0  0  0  0  0  0  0  0  0
  -27.2650  -25.1000   18.5600 C   0  0  0  0  0  2  0  0  0  0  0  0
  -28.3370  -24.6220   17.5700 C   0  0  0  0  0  3  0  0  0  0  0  0
  -28.0070  -22.2440   18.3770 C   0  0  2  0  0  0  0  0  0  0  0  0
  -23.1280  -20.9740   19.0760 C   0  0  0  0  0  1  0  0  0  0  0  0
  -24.4380  -25.8520   19.2370 C   0  0  0  0  0  2  0  0  0  0  0  0
  -28.4740  -21.5770   19.6900 C   0  0  0  0  0  1  0  0  0  0  0  0
  -28.9360  -23.3640   18.0700 N   0  0  0  0  0  4  0  0  0  0  0  0
  -29.4500  -23.5710   18.9090 H   0  0  0  0  0  0  0  0  0  0  0  0
  -29.5910  -22.9850   17.3980 H   0  0  0  0  0  0  0  0  0  0  0  0
  -29.3980  -25.7190   17.2960 C   0  0  0  0  0  2  0  0  0  0  0  0
  -29.0330  -26.6780   16.1380 C   0  0  0  0  0  2  0  0  0  0  0  0
  -28.9490  -28.0240   16.6060 O   0  0  0  0  0  0  0  0  0  0  0  0
  -25.4160  -28.5810   22.7290 C   0  0  0  0  0  0  0  0  0  0  0  0
  -27.7810  -28.4460   17.2090 C   0  0  0  0  0  0  0  0  0  0  0  0
  -24.1080  -29.1100   20.6970 C   0  0  0  0  0  3  0  0  0  0  0  0
  -25.4540  -29.3340   18.5490 C   0  0  0  0  0  0  0  0  0  0  0  0
  -26.6440  -29.4490   20.7440 C   0  0  0  0  0  2  0  0  0  0  0  0
  -26.6470  -29.1590   19.2580 C   0  0  0  0  0  0  0  0  0  0  0  0
  -27.8120  -28.7250   18.5920 C   0  0  0  0  0  3  0  0  0  0  0  0
  -26.5570  -28.6120   16.5120 C   0  0  0  0  0  3  0  0  0  0  0  0
  -25.4010  -29.0560   17.1730 C   0  0  0  0  0  3  0  0  0  0  0  0
  -24.2570  -29.8250   19.3290 C   0  0  0  0  0  2  0  0  0  0  0  0
  -25.4090  -29.0050   21.4340 N   0  0  0  0  0  0  0  0  0  0  0  0
  -24.3580  -28.3180   23.3210 O   0  0  0  0  0  0  0  0  0  0  0  0
  -23.4220  -27.7430   20.4700 C   0  0  0  0  0  3  0  0  0  0  0  0
  -22.1110  -27.7740   20.1820 N   0  0  0  0  0  0  0  0  0  0  0  0
  -24.0670  -26.6930   20.5230 O   0  0  0  0  0  0  0  0  0  0  0  0
  -21.6550  -28.6750   20.1610 H   0  0  0  0  0  0  0  0  0  0  0  0
  -18.7770  -26.7780   19.2150 C   0  0  0  0  0  0  0  0  0  0  0  0
  -21.2650  -26.6170   19.8930 C   0  0  0  0  0  3  0  0  0  0  0  0
  -21.5150  -26.0900   18.4610 C   0  0  0  0  0  2  0  0  0  0  0  0
  -20.5600  -26.6820   17.4190 C   0  0  0  0  0  2  0  0  0  0  0  0
  -19.1060  -26.3730   17.7880 C   0  0  0  0  0  2  0  0  0  0  0  0
  -19.7920  -26.9110   20.1980 C   0  0  0  0  0  0  0  0  0  0  0  0
  -19.4340  -27.3300   21.4990 C   0  0  0  0  0  3  0  0  0  0  0  0
  -18.0940  -27.6080   21.8220 C   0  0  0  0  0  3  0  0  0  0  0  0
  -17.0910  -27.4570   20.8480 C   0  0  0  0  0  3  0  0  0  0  0  0
  -17.4340  -27.0390   19.5490 C   0  0  0  0  0  3  0  0  0  0  0  0
  -26.7430  -28.4320   23.5370 C   0  0  0  0  0  3  0  0  0  0  0  0
  -27.3060  -26.9590   23.5330 C   0  0  1  0  0  0  0  0  0  0  0  0
  -26.2670  -25.8930   23.9500 C   0  0  0  0  0  1  0  0  0  0  0  0
  -27.8330  -26.5810   22.1310 C   0  0  0  0  0  1  0  0  0  0  0  0
  -28.5100  -26.8550   24.4990 C   0  0  0  0  0  1  0  0  0  0  0  0
  -26.4810  -28.8840   24.9090 N   0  0  0  0  0  0  0  0  0  0  0  0
  -26.8920  -30.0550   25.4160 C   0  0  0  0  0  0  0  0  0  0  0  0
  -27.6000  -30.8440   24.7840 O   0  0  0  0  0  0  0  0  0  0  0  0
  -25.8630  -28.3090   25.4640 H   0  0  0  0  0  0  0  0  0  0  0  0
  -25.2960  -31.4290   26.7900 C   0  0  0  0  0  1  0  0  0  0  0  0
  -26.4440  -30.4060   26.8490 C   0  0  0  0  0  3  0  0  0  0  0  0
  -28.5440  -29.9240   28.0260 C   0  0  0  0  0  1  0  0  0  0  0  0
  -27.5370  -30.9310   27.6960 N   0  0  0  0  0  0  0  0  0  0  0  0
  -27.1700  -31.3090   28.5650 H   0  0  0  0  0  0  0  0  0  0  0  0
  -28.1170  -21.2410   17.1980 C   0  0  0  0  0  2  0  0  0  0  0  0
  -29.4530  -20.6470   17.1620 N   0  0  0  0  0  0  0  0  0  0  0  0
  -29.6760  -20.3480   18.1050 H   0  0  0  0  0  0  0  0  0  0  0  0
  -29.4370  -19.4130   16.3910 C   0  0  0  0  0  2  0  0  0  0  0  0
  -30.6010  -18.5160   16.8430 C   0  0  0  0  0  2  0  0  0  0  0  0
  -30.3850  -17.7670   18.1740 C   0  0  0  0  0  2  0  0  0  0  0  0
  -30.3720  -18.6490   19.4470 C   0  0  0  0  0  2  0  0  0  0  0  0
  -31.2270  -18.1340   20.6260 C   0  0  0  0  0  2  0  0  0  0  0  0
  -31.7640  -15.6990   20.5310 C   0  0  0  0  0  0  0  0  0  0  0  0
  -31.7320  -13.2980   20.0070 C   0  0  0  0  0  2  0  0  0  0  0  0
  -30.9240  -13.0610   18.7180 C   0  0  0  0  0  2  0  0  0  0  0  0
  -29.4190  -12.9190   19.0230 C   0  0  0  0  0  2  0  0  0  0  0  0
  -28.8880  -14.0530   19.9410 C   0  0  0  0  0  3  0  0  0  0  0  0
  -29.8110  -14.2430   21.1650 C   0  0  0  0  0  2  0  0  0  0  0  0
  -31.1820  -14.4840   20.6770 N   0  0  0  0  0  0  0  0  0  0  0  0
  -32.8740  -15.8690   20.0200 O   0  0  0  0  0  0  0  0  0  0  0  0
  -30.9890  -16.7230   20.9040 N   0  0  0  0  0  0  0  0  0  0  0  0
  -30.1120  -16.4810   21.3400 H   0  0  0  0  0  0  0  0  0  0  0  0
  -26.4800  -14.7210   20.5620 C   0  0  0  0  0  0  0  0  0  0  0  0
  -25.3730  -13.9720   20.8590 C   0  0  0  0  0  0  0  0  0  0  0  0
  -25.7910  -12.6070   20.7950 C   0  0  0  0  0  0  0  0  0  0  0  0
  -27.5030  -13.8120   20.3420 N   0  0  0  0  0  0  0  0  0  0  0  0
  -27.0890  -12.5330   20.5350 N   0  0  0  0  0  0  0  0  0  0  0  0
  -25.0210  -11.3620   20.9050 C   0  0  0  0  0  0  0  0  0  0  0  0
  -25.2810  -10.4200   21.9250 C   0  0  0  0  0  3  0  0  0  0  0  0
  -24.5150   -9.2370   22.0190 C   0  0  0  0  0  3  0  0  0  0  0  0
  -23.4750   -8.9900   21.0910 C   0  0  0  0  0  0  0  0  0  0  0  0
  -23.2380   -9.9200   20.0620 C   0  0  0  0  0  3  0  0  0  0  0  0
  -24.0060  -11.0940   19.9670 C   0  0  0  0  0  3  0  0  0  0  0  0
  -22.6920   -7.8600   21.0930 O   0  0  0  0  0  0  0  0  0  0  0  0
  -22.3060   -7.2520   22.2630 C   0  0  0  0  0  0  0  0  0  0  0  0
  -21.5260   -7.9210   23.2300 C   0  0  0  0  0  3  0  0  0  0  0  0
  -21.0960   -7.2370   24.3830 C   0  0  0  0  0  3  0  0  0  0  0  0
  -21.4320   -5.8820   24.5660 C   0  0  0  0  0  0  0  0  0  0  0  0
  -22.2050   -5.2110   23.6010 C   0  0  0  0  0  3  0  0  0  0  0  0
  -22.6370   -5.8950   22.4510 C   0  0  0  0  0  0  0  0  0  0  0  0
  -23.3610   -5.2370   21.5130 F   0  0  0  0  0  0  0  0  0  0  0  0
  -21.0130   -5.2210   25.6690 F   0  0  0  0  0  0  0  0  0  0  0  0
  -23.9810  -14.4820   21.0970 C   0  0  0  0  0  0  0  0  0  0  0  0
  -23.2040  -13.7820   21.9150 N   0  0  0  0  0  0  0  0  0  0  0  0
  -23.5910  -15.5340   20.5940 O   0  0  0  0  0  0  0  0  0  0  0  0
  -23.5280  -12.9280   22.3430 H   0  0  0  0  0  0  0  0  0  0  0  0
  -22.2670  -14.1020   22.1160 H   0  0  0  0  0  0  0  0  0  0  0  0
  -26.7050  -16.0890   20.4450 N   0  0  0  0  0  0  0  0  0  0  0  0
  -25.9720  -16.7820   20.5510 H   0  0  0  0  0  0  0  0  0  0  0  0
  -27.5960  -16.4900   20.1820 H   0  0  0  0  0  0  0  0  0  0  0  0
  1  5  1  0
  3  1  2  0
  3  4  1  0
  4  6  2  0
  5 10  1  0
  5  2  2  0
  6  2  1  0
  6 11  1  0
  7  4  1  0
  8 16  1  0
  8 13  1  0
  8  7  1  0
  9  3  1  0
  9 12  1  1
 11 33  1  0
 13  9  1  0
 13 14  1  0
 15 13  1  0
 17 18  1  0
 17 16  1  0
 18 20  1  0
 19 30  2  0
 20 25  1  0
 21 28  1  0
 21 29  1  0
 22 24  1  0
 22 28  1  0
 23 29  1  0
 24 23  1  0
 25 24  2  0
 26 27  1  0
 26 20  2  0
 27 22  2  0
 29 19  1  0
 31 32  1  0
 31 33  1  0
 31 21  1  0
 34 32  1  0
 35 44  2  0
 35 40  1  0
 36 32  1  0
 36 40  1  0
 37 36  1  0
 38 39  1  0
 38 37  1  0
 39 35  1  0
 40 41  2  0
 41 42  1  0
 43 42  2  0
 44 43  1  0
 45 19  1  0
 45 50  1  0
 46 45  1  0
 46 47  1  1
 46 49  1  0
 48 46  1  0
 50 51  1  0
 50 53  1  0
 51 55  1  0
 52 51  2  0
 55 54  1  0
 55 57  1  0
 57 56  1  0
 57 58  1  0
 59  9  1  0
 60 59  1  0
 60 61  1  0
 62 63  1  0
 62 60  1  0
 63 64  1  0
 64 65  1  0
 65 66  1  0
 66 75  1  0
 67 73  1  0
 67 75  1  0
 68 73  1  0
 69 70  1  0
 69 68  1  0
 71 70  1  0
 71 80  1  0
 71 72  1  0
 73 72  1  0
 74 67  2  0
 75 76  1  0
 77 78  2  0
 78 97  1  0
 79 78  1  0
 79 82  1  0
 80 81  1  0
 80 77  1  0
 81 79  2  0
 82 83  1  0
 83 84  2  0
 85 88  1  0
 85 84  1  0
 86 85  2  0
 87 86  1  0
 87 82  2  0
 88 89  1  0
 89 94  2  0
 89 90  1  0
 90 91  2  0
 91 92  1  0
 92 96  1  0
 93 92  2  0
 94 93  1  0
 95 94  1  0
 97 98  1  0
 98101  1  0
 98100  1  0
 99 97  2  0
102103  1  0
102 77  1  0
104102  1  0
M  ISO  4  17 101  18 101  67 100  75 100
M  END
>  <TORSDO>  (68) 
F 25

>  <SCORE>  (68) 
-3.651

>  <name>  (68) 
68

>  <ligand_id>  (68) 
68

>  <original_smiles>  (68) 
[H]c1c([H])c([H])c2c(c1[H])C([H])([H])C([H])([H])C([H])([H])C2([H])N([H])C(=O)C1([H])N(C(=O)C([H])(N([H])C(=O)C([H])(N([H])C([H])([H])[H])C([H])([H])[H])C(C([H])([H])[H])(C([H])([H])[H])C([H])([H])[H])C([H])([H])c2c([H])c(OC([H])([H])C([H])([H])C3([H])C([H])([H])c4c(C([H])([H])[H])c([H])c(C([H])([H])[H])c([H])c4C(C([H])([H])[H])(C([H])([H])N([H])C([H])([H])C([H])([H])C([H])([H])C([H])([H])C([H])([H])N([H])C(=O)N4C([H])([H])C([H])([H])C([H])([H])C([H])(n5nc(-c6c([H])c([H])c(Oc7c([H])c([H])c(F)c([H])c7F)c([H])c6[H])c(C(=O)N([H])[H])c5N([H])[H])C4([H])[H])[N+]3([H])[H])c([H])c([H])c2C1([H])[H]

>  <smiles>  (68) 
[H]c1c([H])c([H])c2c(c1[H])C([H])([H])C([H])([H])C([H])([H])C2([H])N([H])C(=O)C1([H])N(C(=O)C([H])(N([H])C(=O)C([H])(N([H])C([H])([H])[H])C([H])([H])[H])C(C([H])([H])[H])(C([H])([H])[H])C([H])([H])[H])C([H])([H])c2c([H])c(OC([H])([H])C([H])([H])C3([H])C([H])([H])c4c(C([H])([H])[H])c([H])c(C([H])([H])[H])c([H])c4C(C([H])([H])[H])(C([H])([H])N([H])C([H])([H])C([H])([H])C([H])([H])C([H])([H])C([H])([H])N([H])C(=O)N4C([H])([H])C([H])([H])C([H])([H])C([H])(n5nc(-c6c([H])c([H])c(Oc7c([H])c([H])c(F)c([H])c7F)c([H])c6[H])c(C(=O)N([H])[H])c5N([H])[H])C4([H])[H])[N+]3([H])[H])c([H])c([H])c2C1([H])[H]

$$$$
69:0:0
     RDKit          3D

100109  0  0  1  0  0  0  0  0999 V2000
  -32.2310  -19.4880   17.4020 C   0  0  0  0  0  2  0  0  0  0  0  0
  -31.8860  -20.9710   17.1670 C   0  0  0  0  0  2  0  0  0  0  0  0
  -30.8110  -21.4940   18.1390 C   0  0  0  0  0  2  0  0  0  0  0  0
  -30.8450  -23.0170   18.3390 C   0  0  0  0  0  2  0  0  0  0  0  0
  -29.8600  -23.4240   19.3630 N   0  0  0  0  0  4  0  0  0  0  0  0
  -28.9440  -23.1480   19.0440 H   0  0  0  0  0  0  0  0  0  0  0  0
  -30.0470  -22.9070   20.2100 H   0  0  0  0  0  0  0  0  0  0  0  0
  -29.8560  -24.8670   19.6960 C   0  0  0  0  0  2  0  0  0  0  0  0
  -28.4350  -25.4380   19.6410 C   0  0  0  0  0  2  0  0  0  0  0  0
  -28.4390  -26.7930   20.0730 O   0  0  0  0  0  0  0  0  0  0  0  0
  -24.6120  -31.8700   23.2130 C   0  0  0  0  0  0  0  0  0  0  0  0
  -27.2370  -27.4670   20.0800 C   0  0  0  0  0  0  0  0  0  0  0  0
  -23.3960  -30.4950   21.5550 C   0  0  0  0  0  3  0  0  0  0  0  0
  -24.8390  -28.9650   20.1190 C   0  0  0  0  0  0  0  0  0  0  0  0
  -25.9230  -30.8420   21.3650 C   0  0  0  0  0  2  0  0  0  0  0  0
  -25.9980  -29.4810   20.7110 C   0  0  0  0  0  0  0  0  0  0  0  0
  -27.1960  -28.7380   20.6930 C   0  0  0  0  0  3  0  0  0  0  0  0
  -26.0510  -26.9530   19.4980 C   0  0  0  0  0  3  0  0  0  0  0  0
  -24.8590  -27.6970   19.5180 C   0  0  0  0  0  3  0  0  0  0  0  0
  -23.5990  -29.8260   20.1700 C   0  0  0  0  0  2  0  0  0  0  0  0
  -24.6610  -31.0830   22.1020 N   0  0  0  0  0  0  0  0  0  0  0  0
  -23.5310  -32.1440   23.7550 O   0  0  0  0  0  0  0  0  0  0  0  0
  -22.7380  -29.4670   22.5020 C   0  0  0  0  0  0  0  0  0  0  0  0
  -21.4110  -29.3020   22.3750 N   0  0  0  0  0  0  0  0  0  0  0  0
  -23.4170  -28.8230   23.3060 O   0  0  0  0  0  0  0  0  0  0  0  0
  -20.9280  -29.8720   21.6930 H   0  0  0  0  0  0  0  0  0  0  0  0
  -18.0260  -28.1370   22.8500 C   0  0  0  0  0  0  0  0  0  0  0  0
  -20.5850  -28.3650   23.1330 C   0  0  0  0  0  3  0  0  0  0  0  0
  -20.6750  -26.9390   22.5430 C   0  0  0  0  0  2  0  0  0  0  0  0
  -19.5730  -26.6380   21.5220 C   0  0  0  0  0  2  0  0  0  0  0  0
  -18.1910  -26.7910   22.1630 C   0  0  0  0  0  2  0  0  0  0  0  0
  -19.1510  -28.8820   23.2910 C   0  0  0  0  0  0  0  0  0  0  0  0
  -18.9440  -30.1420   23.8930 C   0  0  0  0  0  3  0  0  0  0  0  0
  -17.6440  -30.6570   24.0560 C   0  0  0  0  0  3  0  0  0  0  0  0
  -16.5330  -29.9080   23.6320 C   0  0  0  0  0  3  0  0  0  0  0  0
  -16.7250  -28.6490   23.0350 C   0  0  0  0  0  3  0  0  0  0  0  0
  -25.9030  -32.4810   23.8410 C   0  0  0  0  0  3  0  0  0  0  0  0
  -26.4470  -31.6570   25.0720 C   0  0  1  0  0  0  0  0  0  0  0  0
  -25.3750  -31.3660   26.1470 C   0  0  0  0  0  1  0  0  0  0  0  0
  -27.0290  -30.3010   24.6080 C   0  0  0  0  0  1  0  0  0  0  0  0
  -27.6050  -32.4290   25.7460 C   0  0  0  0  0  1  0  0  0  0  0  0
  -25.5890  -33.8610   24.2330 N   0  0  0  0  0  0  0  0  0  0  0  0
  -25.9030  -34.9460   23.5140 C   0  0  0  0  0  0  0  0  0  0  0  0
  -26.5610  -34.8910   22.4710 O   0  0  0  0  0  0  0  0  0  0  0  0
  -25.0000  -33.9770   25.0450 H   0  0  0  0  0  0  0  0  0  0  0  0
  -24.1490  -36.7310   23.2640 C   0  0  0  0  0  1  0  0  0  0  0  0
  -25.4100  -36.3100   24.0350 C   0  0  0  0  0  3  0  0  0  0  0  0
  -27.5580  -37.1810   24.8470 C   0  0  0  0  0  1  0  0  0  0  0  0
  -26.4290  -37.3780   23.9410 N   0  0  0  0  0  0  0  0  0  0  0  0
  -26.0180  -38.2860   24.1400 H   0  0  0  0  0  0  0  0  0  0  0  0
  -33.5500  -19.2420   18.1630 C   0  0  0  0  0  2  0  0  0  0  0  0
  -33.7080  -20.0590   19.4640 C   0  0  0  0  0  2  0  0  0  0  0  0
  -34.4560  -19.3490   20.4950 N   0  0  0  0  0  0  0  0  0  0  0  0
  -35.3320  -19.7600   20.8120 H   0  0  0  0  0  0  0  0  0  0  0  0
  -30.8060  -14.3150   20.6980 C   0  0  0  0  0  0  0  0  0  0  0  0
  -30.4070  -12.2640   19.3970 C   0  0  0  0  0  2  0  0  0  0  0  0
  -29.4830  -12.5350   18.1970 C   0  0  0  0  0  2  0  0  0  0  0  0
  -28.0110  -12.3820   18.6150 C   0  0  0  0  0  2  0  0  0  0  0  0
  -27.6690  -13.2050   19.8850 C   0  0  0  0  0  3  0  0  0  0  0  0
  -28.7050  -12.9480   21.0050 C   0  0  0  0  0  2  0  0  0  0  0  0
  -30.0590  -13.2020   20.4740 N   0  0  0  0  0  0  0  0  0  0  0  0
  -31.7460  -14.6420   19.9650 O   0  0  0  0  0  0  0  0  0  0  0  0
  -33.8380  -16.9950   23.3210 C   0  0  0  0  0  3  0  0  0  0  0  0
  -34.4670  -17.9240   22.4650 C   0  0  0  0  0  3  0  0  0  0  0  0
  -32.4700  -17.9980   21.0750 C   0  0  0  0  0  3  0  0  0  0  0  0
  -32.5250  -16.5650   23.0470 C   0  0  0  0  0  0  0  0  0  0  0  0
  -31.8490  -17.0690   21.9260 C   0  0  0  0  0  0  0  0  0  0  0  0
  -33.7910  -18.4360   21.3340 C   0  0  0  0  0  0  0  0  0  0  0  0
  -31.7860  -15.5650   23.9230 C   0  0  0  0  0  2  0  0  0  0  0  0
  -30.4710  -16.5120   21.6270 C   0  0  0  0  0  2  0  0  0  0  0  0
  -30.9060  -14.5680   23.1120 C   0  0  0  0  0  2  0  0  0  0  0  0
  -30.4700  -15.0510   21.7790 N   0  0  0  0  0  0  0  0  0  0  0  0
  -25.2600  -13.8180   20.5670 C   0  0  0  0  0  0  0  0  0  0  0  0
  -24.1840  -13.0460   20.9160 C   0  0  0  0  0  0  0  0  0  0  0  0
  -24.6390  -11.6910   20.8720 C   0  0  0  0  0  0  0  0  0  0  0  0
  -26.3060  -12.9350   20.3400 N   0  0  0  0  0  0  0  0  0  0  0  0
  -25.9330  -11.6500   20.5780 N   0  0  0  0  0  0  0  0  0  0  0  0
  -23.9060  -10.4290   21.0400 C   0  0  0  0  0  0  0  0  0  0  0  0
  -24.3620   -9.4210   21.9180 C   0  0  0  0  0  3  0  0  0  0  0  0
  -23.6300   -8.2240   22.0760 C   0  0  0  0  0  3  0  0  0  0  0  0
  -22.4280   -8.0270   21.3540 C   0  0  0  0  0  0  0  0  0  0  0  0
  -21.9910   -9.0240   20.4650 C   0  0  0  0  0  3  0  0  0  0  0  0
  -22.7230  -10.2130   20.3060 C   0  0  0  0  0  3  0  0  0  0  0  0
  -21.6630   -6.8870   21.4250 O   0  0  0  0  0  0  0  0  0  0  0  0
  -21.6840   -6.0730   22.5290 C   0  0  0  0  0  0  0  0  0  0  0  0
  -21.3990   -6.5640   23.8220 C   0  0  0  0  0  3  0  0  0  0  0  0
  -21.3670   -5.6800   24.9190 C   0  0  0  0  0  3  0  0  0  0  0  0
  -21.6060   -4.3060   24.7240 C   0  0  0  0  0  0  0  0  0  0  0  0
  -21.8810   -3.8140   23.4360 C   0  0  0  0  0  3  0  0  0  0  0  0
  -21.9180   -4.6960   22.3410 C   0  0  0  0  0  0  0  0  0  0  0  0
  -22.1650   -4.2150   21.0990 F   0  0  0  0  0  0  0  0  0  0  0  0
  -21.5650   -3.4550   25.7760 F   0  0  0  0  0  0  0  0  0  0  0  0
  -22.7860  -13.5230   21.1860 C   0  0  0  0  0  0  0  0  0  0  0  0
  -22.0500  -12.8220   22.0410 N   0  0  0  0  0  0  0  0  0  0  0  0
  -22.3530  -14.5540   20.6730 O   0  0  0  0  0  0  0  0  0  0  0  0
  -22.4140  -11.9860   22.4770 H   0  0  0  0  0  0  0  0  0  0  0  0
  -21.1130  -13.1220   22.2680 H   0  0  0  0  0  0  0  0  0  0  0  0
  -25.4330  -15.1900   20.4080 N   0  0  0  0  0  0  0  0  0  0  0  0
  -24.6740  -15.8530   20.5210 H   0  0  0  0  0  0  0  0  0  0  0  0
  -26.2980  -15.6260   20.1110 H   0  0  0  0  0  0  0  0  0  0  0  0
  1 51  1  0
  2  1  1  0
  2  3  1  0
  3  4  1  0
  4  5  1  0
  5  8  1  0
  5  7  1  0
  6  5  1  0
  9  8  1  0
  9 10  1  0
 10 12  1  0
 11 22  2  0
 12 17  1  0
 13 21  1  0
 13 23  1  0
 14 20  1  0
 14 16  1  0
 15 21  1  0
 16 15  1  0
 17 16  2  0
 18 19  1  0
 18 12  2  0
 19 14  2  0
 20 13  1  0
 21 11  1  0
 23 25  2  0
 24 23  1  0
 26 24  1  0
 27 36  2  0
 27 32  1  0
 28 24  1  0
 28 32  1  0
 29 28  1  0
 30 31  1  0
 30 29  1  0
 31 27  1  0
 32 33  2  0
 33 34  1  0
 35 34  2  0
 36 35  1  0
 37 11  1  0
 37 42  1  0
 37 38  1  0
 38 41  1  1
 38 39  1  0
 40 38  1  0
 42 45  1  0
 43 47  1  0
 43 42  1  0
 44 43  2  0
 47 46  1  0
 49 47  1  0
 49 50  1  0
 49 48  1  0
 51 52  1  0
 52 53  1  0
 53 54  1  0
 53 68  1  0
 55 72  1  0
 56 61  1  0
 57 58  1  0
 57 56  1  0
 59 58  1  0
 59 76  1  0
 59 60  1  0
 61 55  1  0
 61 60  1  0
 62 55  2  0
 64 63  2  0
 65 68  2  0
 65 67  1  0
 66 63  1  0
 66 69  1  0
 67 66  2  0
 68 64  1  0
 70 72  1  0
 70 67  1  0
 71 69  1  0
 72 71  1  0
 73 74  2  0
 74 93  1  0
 75 74  1  0
 75 78  1  0
 76 73  1  0
 76 77  1  0
 77 75  2  0
 78 79  1  0
 79 80  2  0
 81 84  1  0
 81 80  1  0
 82 81  2  0
 83 82  1  0
 83 78  2  0
 84 85  1  0
 85 86  1  0
 86 87  2  0
 88 87  1  0
 88 92  1  0
 89 88  2  0
 90 85  2  0
 90 89  1  0
 91 90  1  0
 93 94  1  0
 94 97  1  0
 94 96  1  0
 95 93  2  0
 98 99  1  0
 98 73  1  0
100 98  1  0
M  ISO  4   9 101  10 101  55 100  72 100
M  END
>  <TORSDO>  (69) 
F 25

>  <SCORE>  (69) 
11.008

>  <name>  (69) 
69

>  <ligand_id>  (69) 
69

>  <original_smiles>  (69) 
[H]c1c([H])c([H])c2c(c1[H])C([H])([H])C([H])([H])C([H])([H])C2([H])N([H])C(=O)C1([H])N(C(=O)C([H])(N([H])C(=O)C([H])(N([H])C([H])([H])[H])C([H])([H])[H])C(C([H])([H])[H])(C([H])([H])[H])C([H])([H])[H])C([H])([H])c2c([H])c(OC([H])([H])C([H])([H])[N+]([H])([H])C([H])([H])C([H])([H])C([H])([H])C([H])([H])C([H])([H])C([H])([H])N([H])c3c([H])c([H])c4c(c3[H])C([H])([H])N(C(=O)N3C([H])([H])C([H])([H])C([H])([H])C([H])(n5nc(-c6c([H])c([H])c(Oc7c([H])c([H])c(F)c([H])c7F)c([H])c6[H])c(C(=O)N([H])[H])c5N([H])[H])C3([H])[H])C([H])([H])C4([H])[H])c([H])c([H])c2C1([H])[H]

>  <smiles>  (69) 
[H]c1c([H])c([H])c2c(c1[H])C([H])([H])C([H])([H])C([H])([H])C2([H])N([H])C(=O)C1([H])N(C(=O)C([H])(N([H])C(=O)C([H])(N([H])C([H])([H])[H])C([H])([H])[H])C(C([H])([H])[H])(C([H])([H])[H])C([H])([H])[H])C([H])([H])c2c([H])c(OC([H])([H])C([H])([H])[N+]([H])([H])C([H])([H])C([H])([H])C([H])([H])C([H])([H])C([H])([H])C([H])([H])N([H])c3c([H])c([H])c4c(c3[H])C([H])([H])N(C(=O)N3C([H])([H])C([H])([H])C([H])([H])C([H])(n5nc(-c6c([H])c([H])c(Oc7c([H])c([H])c(F)c([H])c7F)c([H])c6[H])c(C(=O)N([H])[H])c5N([H])[H])C3([H])[H])C([H])([H])C4([H])[H])c([H])c([H])c2C1([H])[H]

$$$$
70:0:0
     RDKit          3D

 92100  0  0  1  0  0  0  0  0999 V2000
  -29.2370  -20.1370   19.4990 C   0  0  0  0  0  0  0  0  0  0  0  0
  -29.0680  -20.0690   17.9840 C   0  0  0  0  0  1  0  0  0  0  0  0
  -28.9720  -21.2270   20.1890 N   0  0  0  0  0  0  0  0  0  0  0  0
  -29.8300  -17.4100   19.3380 C   0  0  0  0  0  2  0  0  0  0  0  0
  -31.3510  -19.0930   20.4780 C   0  0  0  0  0  2  0  0  0  0  0  0
  -31.4200  -16.5630   21.1680 C   0  0  0  0  0  2  0  0  0  0  0  0
  -29.8670  -18.8060   20.1430 C   0  0  0  0  0  3  0  0  0  0  0  0
  -30.3910  -16.1050   20.0910 C   0  0  0  0  0  3  0  0  0  0  0  0
  -32.2260  -17.8850   20.9260 C   0  0  0  0  0  3  0  0  0  0  0  0
  -30.9050  -14.8460   19.2260 C   0  0  0  0  0  0  0  0  0  0  0  0
  -30.4040  -12.7160   17.9960 C   0  0  0  0  0  2  0  0  0  0  0  0
  -29.2180  -12.9660   17.0340 C   0  0  0  0  0  2  0  0  0  0  0  0
  -27.8740  -12.7430   17.7530 C   0  0  0  0  0  2  0  0  0  0  0  0
  -27.8160  -13.4570   19.1290 C   0  0  0  0  0  3  0  0  0  0  0  0
  -29.0940  -13.2040   19.9560 C   0  0  0  0  0  2  0  0  0  0  0  0
  -30.2450  -13.6350   19.1500 N   0  0  0  0  0  0  0  0  0  0  0  0
  -31.9080  -15.0160   18.5260 O   0  0  0  0  0  0  0  0  0  0  0  0
  -25.6820  -13.9680   20.4660 C   0  0  0  0  0  0  0  0  0  0  0  0
  -24.6950  -13.1630   20.9670 C   0  0  0  0  0  0  0  0  0  0  0  0
  -25.0730  -11.8260   20.6430 C   0  0  0  0  0  0  0  0  0  0  0  0
  -26.6030  -13.1190   19.8710 N   0  0  0  0  0  0  0  0  0  0  0  0
  -26.2520  -11.8150   20.0300 N   0  0  0  0  0  0  0  0  0  0  0  0
  -24.3540  -10.5580   20.8340 C   0  0  0  0  0  0  0  0  0  0  0  0
  -24.8130   -9.5800   21.7430 C   0  0  0  0  0  3  0  0  0  0  0  0
  -24.0970   -8.3750   21.9170 C   0  0  0  0  0  3  0  0  0  0  0  0
  -22.9060   -8.1460   21.1870 C   0  0  0  0  0  0  0  0  0  0  0  0
  -22.4720   -9.1140   20.2660 C   0  0  0  0  0  3  0  0  0  0  0  0
  -23.1850  -10.3080   20.0900 C   0  0  0  0  0  3  0  0  0  0  0  0
  -22.1580   -6.9970   21.2730 O   0  0  0  0  0  0  0  0  0  0  0  0
  -21.9310   -6.3690   22.4710 C   0  0  0  0  0  0  0  0  0  0  0  0
  -21.2810   -7.0220   23.5430 C   0  0  0  0  0  3  0  0  0  0  0  0
  -21.0140   -6.3220   24.7370 C   0  0  0  0  0  3  0  0  0  0  0  0
  -21.3810   -4.9650   24.8530 C   0  0  0  0  0  0  0  0  0  0  0  0
  -22.0220   -4.3130   23.7860 C   0  0  0  0  0  3  0  0  0  0  0  0
  -22.2940   -5.0130   22.5980 C   0  0  0  0  0  0  0  0  0  0  0  0
  -22.8940   -4.3730   21.5630 F   0  0  0  0  0  0  0  0  0  0  0  0
  -21.1150   -4.2910   25.9950 F   0  0  0  0  0  0  0  0  0  0  0  0
  -23.4240  -13.6140   21.6250 C   0  0  0  0  0  0  0  0  0  0  0  0
  -22.9080  -12.8290   22.5670 N   0  0  0  0  0  0  0  0  0  0  0  0
  -22.9040  -14.6920   21.3420 O   0  0  0  0  0  0  0  0  0  0  0  0
  -23.3550  -11.9590   22.8170 H   0  0  0  0  0  0  0  0  0  0  0  0
  -22.0540  -13.0940   23.0370 H   0  0  0  0  0  0  0  0  0  0  0  0
  -25.8650  -15.3480   20.4420 N   0  0  0  0  0  0  0  0  0  0  0  0
  -25.1800  -15.9930   20.8160 H   0  0  0  0  0  0  0  0  0  0  0  0
  -26.6470  -15.8110   20.0000 H   0  0  0  0  0  0  0  0  0  0  0  0
  -34.5060  -18.9400   20.4040 C   0  0  0  0  0  1  0  0  0  0  0  0
  -34.2650  -16.4560   20.1960 C   0  0  0  0  0  1  0  0  0  0  0  0
  -33.5220  -17.7930   20.0610 C   0  0  0  0  0  3  0  0  0  0  0  0
  -28.7670  -22.6160   19.6030 C   0  0  0  0  0  2  0  0  0  0  0  0
  -27.7000  -23.5960   20.3060 C   0  0  0  0  0  2  0  0  0  0  0  0
  -28.0880  -25.1000   20.7370 C   0  0  0  0  0  2  0  0  0  0  0  0
  -27.9270  -26.3130   19.9000 O   0  0  0  0  0  0  0  0  0  0  0  0
  -24.4840  -31.8630   23.0950 C   0  0  0  0  0  0  0  0  0  0  0  0
  -26.8130  -27.1530   20.0300 C   0  0  0  0  0  0  0  0  0  0  0  0
  -23.1630  -30.4710   21.5430 C   0  0  0  0  0  3  0  0  0  0  0  0
  -24.4930  -28.8280   20.1000 C   0  0  0  0  0  0  0  0  0  0  0  0
  -25.6980  -30.6960   21.2360 C   0  0  0  0  0  2  0  0  0  0  0  0
  -25.7040  -29.2970   20.6270 C   0  0  0  0  0  0  0  0  0  0  0  0
  -26.8710  -28.4750   20.5730 C   0  0  0  0  0  3  0  0  0  0  0  0
  -25.5800  -26.7230   19.5020 C   0  0  0  0  0  3  0  0  0  0  0  0
  -24.4340  -27.5430   19.5310 C   0  0  0  0  0  3  0  0  0  0  0  0
  -23.2910  -29.7490   20.1760 C   0  0  0  0  0  2  0  0  0  0  0  0
  -24.4720  -31.0300   22.0140 N   0  0  0  0  0  0  0  0  0  0  0  0
  -23.4370  -32.1910   23.6720 O   0  0  0  0  0  0  0  0  0  0  0  0
  -22.5050  -29.5020   22.5550 C   0  0  0  0  0  0  0  0  0  0  0  0
  -21.1800  -29.3140   22.4390 N   0  0  0  0  0  0  0  0  0  0  0  0
  -23.1890  -28.9200   23.4000 O   0  0  0  0  0  0  0  0  0  0  0  0
  -20.6850  -29.8300   21.7250 H   0  0  0  0  0  0  0  0  0  0  0  0
  -17.8210  -28.0870   22.9760 C   0  0  0  0  0  0  0  0  0  0  0  0
  -20.3690  -28.4130   23.2590 C   0  0  0  0  0  3  0  0  0  0  0  0
  -20.5070  -26.9510   22.7760 C   0  0  0  0  0  2  0  0  0  0  0  0
  -19.4260  -26.5430   21.7710 C   0  0  0  0  0  2  0  0  0  0  0  0
  -18.0320  -26.7010   22.3870 C   0  0  0  0  0  2  0  0  0  0  0  0
  -18.9180  -28.8970   23.3680 C   0  0  0  0  0  0  0  0  0  0  0  0
  -18.6670  -30.1910   23.8750 C   0  0  0  0  0  3  0  0  0  0  0  0
  -17.3520  -30.6750   23.9950 C   0  0  0  0  0  3  0  0  0  0  0  0
  -16.2680  -29.8640   23.6180 C   0  0  0  0  0  3  0  0  0  0  0  0
  -16.5030  -28.5720   23.1150 C   0  0  0  0  0  3  0  0  0  0  0  0
  -25.8150  -32.4640   23.6450 C   0  0  0  0  0  3  0  0  0  0  0  0
  -25.5390  -33.8470   24.0630 N   0  0  0  0  0  0  0  0  0  0  0  0
  -25.8310  -34.9360   23.3390 C   0  0  0  0  0  0  0  0  0  0  0  0
  -26.4310  -34.8800   22.2620 O   0  0  0  0  0  0  0  0  0  0  0  0
  -24.9970  -33.9650   24.9060 H   0  0  0  0  0  0  0  0  0  0  0  0
  -24.1030  -36.7590   23.1830 C   0  0  0  0  0  1  0  0  0  0  0  0
  -25.3880  -36.3040   23.8910 C   0  0  0  0  0  3  0  0  0  0  0  0
  -27.5810  -37.1270   24.6280 C   0  0  0  0  0  1  0  0  0  0  0  0
  -26.4230  -37.3550   23.7670 N   0  0  0  0  0  0  0  0  0  0  0  0
  -26.0380  -38.2680   23.9930 H   0  0  0  0  0  0  0  0  0  0  0  0
  -26.4250  -31.6340   24.8410 C   0  0  1  0  0  0  0  0  0  0  0  0
  -25.4050  -31.2940   25.9530 C   0  0  0  0  0  1  0  0  0  0  0  0
  -27.0210  -30.2990   24.3370 C   0  0  0  0  0  1  0  0  0  0  0  0
  -27.5940  -32.4200   25.4840 C   0  0  0  0  0  1  0  0  0  0  0  0
  1  3  2  0
  2  1  1  0
  4  8  1  0
  4  7  1  0
  5  9  1  0
  7  1  1  0
  7  5  1  0
  8 10  1  0
  8  6  1  0
  9 48  1  0
  9  6  1  0
 11 16  1  0
 12 13  1  0
 12 11  1  0
 14 13  1  0
 14 21  1  0
 14 15  1  0
 16 10  1  0
 16 15  1  0
 17 10  2  0
 18 19  2  0
 19 38  1  0
 20 23  1  0
 20 19  1  0
 21 22  1  0
 21 18  1  0
 22 20  2  0
 23 24  1  0
 24 25  2  0
 26 29  1  0
 26 25  1  0
 27 26  2  0
 28 27  1  0
 28 23  2  0
 29 30  1  0
 30 35  2  0
 30 31  1  0
 31 32  2  0
 32 33  1  0
 33 37  1  0
 34 33  2  0
 35 34  1  0
 36 35  1  0
 38 39  1  0
 39 41  1  0
 39 42  1  0
 40 38  2  0
 43 18  1  0
 43 44  1  0
 45 43  1  0
 48 47  1  0
 48 46  1  0
 49  3  1  0
 49 50  1  0
 50 51  1  0
 52 54  1  0
 52 51  1  0
 53 64  2  0
 54 59  1  0
 55 63  1  0
 55 65  1  0
 56 62  1  0
 56 58  1  0
 57 63  1  0
 58 57  1  0
 59 58  2  0
 60 61  1  0
 60 54  2  0
 61 56  2  0
 62 55  1  0
 63 53  1  0
 65 67  2  0
 66 65  1  0
 68 66  1  0
 69 78  2  0
 69 74  1  0
 70 66  1  0
 70 74  1  0
 71 70  1  0
 72 73  1  0
 72 71  1  0
 73 69  1  0
 74 75  2  0
 75 76  1  0
 77 76  2  0
 78 77  1  0
 79 53  1  0
 79 80  1  0
 79 89  1  0
 80 83  1  0
 81 85  1  0
 81 80  1  0
 82 81  2  0
 85 84  1  0
 87 85  1  0
 87 88  1  0
 87 86  1  0
 89 92  1  1
 89 90  1  0
 91 89  1  0
M  ISO  4   8 100  10 100  51 101  52 101
M  END
>  <TORSDO>  (70) 
F 21

>  <SCORE>  (70) 
-9.596

>  <name>  (70) 
70

>  <ligand_id>  (70) 
70

>  <original_smiles>  (70) 
[H]c1c([H])c([H])c2c(c1[H])C([H])([H])C([H])([H])C([H])([H])C2([H])N([H])C(=O)C1([H])N(C(=O)C([H])(N([H])C(=O)C([H])(N([H])C([H])([H])[H])C([H])([H])[H])C(C([H])([H])[H])(C([H])([H])[H])C([H])([H])[H])C([H])([H])c2c([H])c(OC([H])([H])C([H])([H])C([H])([H])N=C(C([H])([H])[H])C3([H])C([H])([H])C([H])(C(=O)N4C([H])([H])C([H])([H])C([H])([H])C([H])(n5nc(-c6c([H])c([H])c(Oc7c([H])c([H])c(F)c([H])c7F)c([H])c6[H])c(C(=O)N([H])[H])c5N([H])[H])C4([H])[H])C([H])([H])C([H])(C([H])(C([H])([H])[H])C([H])([H])[H])C3([H])[H])c([H])c([H])c2C1([H])[H]

>  <smiles>  (70) 
[H]c1c([H])c([H])c2c(c1[H])C([H])([H])C([H])([H])C([H])([H])C2([H])N([H])C(=O)C1([H])N(C(=O)C([H])(N([H])C(=O)C([H])(N([H])C([H])([H])[H])C([H])([H])[H])C(C([H])([H])[H])(C([H])([H])[H])C([H])([H])[H])C([H])([H])c2c([H])c(OC([H])([H])C([H])([H])C([H])([H])N=C(C([H])([H])[H])C3([H])C([H])([H])C([H])(C(=O)N4C([H])([H])C([H])([H])C([H])([H])C([H])(n5nc(-c6c([H])c([H])c(Oc7c([H])c([H])c(F)c([H])c7F)c([H])c6[H])c(C(=O)N([H])[H])c5N([H])[H])C4([H])[H])C([H])([H])C([H])(C([H])(C([H])([H])[H])C([H])([H])[H])C3([H])[H])c([H])c([H])c2C1([H])[H]

$$$$
71:0:0
     RDKit          3D

 97106  0  0  1  0  0  0  0  0999 V2000
  -30.7970  -14.4670   20.3920 C   0  0  0  0  0  0  0  0  0  0  0  0
  -30.5010  -12.2800   19.3290 C   0  0  0  0  0  2  0  0  0  0  0  0
  -29.5770  -12.4800   18.1090 C   0  0  0  0  0  2  0  0  0  0  0  0
  -28.0920  -12.3790   18.5140 C   0  0  0  0  0  2  0  0  0  0  0  0
  -27.7450  -13.2310   19.7630 C   0  0  0  0  0  3  0  0  0  0  0  0
  -28.7870  -13.0190   20.8870 C   0  0  0  0  0  2  0  0  0  0  0  0
  -30.1210  -13.2870   20.3250 N   0  0  0  0  0  0  0  0  0  0  0  0
  -31.9530  -14.6110   19.9880 O   0  0  0  0  0  0  0  0  0  0  0  0
  -30.9040  -20.8610   20.0430 C   0  0  0  0  0  2  0  0  0  0  0  0
  -28.1450  -19.8820   19.6890 C   0  0  0  0  0  2  0  0  0  0  0  0
  -30.9550  -19.7410   21.1020 C   0  0  0  0  0  2  0  0  0  0  0  0
  -28.5760  -18.8860   20.7820 C   0  0  0  0  0  2  0  0  0  0  0  0
  -30.2950  -17.5000   21.9890 C   0  0  0  0  0  2  0  0  0  0  0  0
  -30.5520  -17.7720   19.5360 C   0  0  0  0  0  2  0  0  0  0  0  0
  -29.6250  -16.1240   21.7760 C   0  0  0  0  0  2  0  0  0  0  0  0
  -29.8380  -16.4290   19.3160 C   0  0  0  0  0  2  0  0  0  0  0  0
  -29.7630  -21.8860   20.2250 C   0  0  0  0  0  3  0  0  0  0  0  0
  -28.3040  -21.3600   20.0900 C   0  0  0  0  0  3  0  0  0  0  0  0
  -30.0780  -18.4960   20.8240 C   0  0  2  0  0  0  0  0  0  0  0  0
  -29.9860  -15.5400   20.4790 N   0  0  0  0  0  0  0  0  0  0  0  0
  -25.3390  -13.8760   20.4130 C   0  0  0  0  0  0  0  0  0  0  0  0
  -24.2580  -13.1190   20.7770 C   0  0  0  0  0  0  0  0  0  0  0  0
  -24.7090  -11.7630   20.7780 C   0  0  0  0  0  0  0  0  0  0  0  0
  -26.3810  -12.9800   20.2200 N   0  0  0  0  0  0  0  0  0  0  0  0
  -26.0030  -11.7070   20.4930 N   0  0  0  0  0  0  0  0  0  0  0  0
  -23.9690  -10.5110   20.9760 C   0  0  0  0  0  0  0  0  0  0  0  0
  -24.3840   -9.5530   21.9280 C   0  0  0  0  0  3  0  0  0  0  0  0
  -23.6460   -8.3640   22.1140 C   0  0  0  0  0  3  0  0  0  0  0  0
  -22.4800   -8.1260   21.3480 C   0  0  0  0  0  0  0  0  0  0  0  0
  -22.0860   -9.0720   20.3870 C   0  0  0  0  0  3  0  0  0  0  0  0
  -22.8220  -10.2530   20.1990 C   0  0  0  0  0  3  0  0  0  0  0  0
  -21.7180   -6.9880   21.4440 O   0  0  0  0  0  0  0  0  0  0  0  0
  -21.6520   -6.2610   22.6050 C   0  0  0  0  0  0  0  0  0  0  0  0
  -21.2250   -6.8330   23.8220 C   0  0  0  0  0  3  0  0  0  0  0  0
  -21.1060   -6.0300   24.9760 C   0  0  0  0  0  3  0  0  0  0  0  0
  -21.4040   -4.6570   24.9130 C   0  0  0  0  0  0  0  0  0  0  0  0
  -21.8270   -4.0840   23.7000 C   0  0  0  0  0  3  0  0  0  0  0  0
  -21.9460   -4.8810   22.5490 C   0  0  0  0  0  0  0  0  0  0  0  0
  -22.3310   -4.3190   21.3780 F   0  0  0  0  0  0  0  0  0  0  0  0
  -21.2840   -3.8850   26.0190 F   0  0  0  0  0  0  0  0  0  0  0  0
  -22.8620  -13.6120   21.0230 C   0  0  0  0  0  0  0  0  0  0  0  0
  -22.1210  -12.9400   21.8980 N   0  0  0  0  0  0  0  0  0  0  0  0
  -22.4330  -14.6250   20.4720 O   0  0  0  0  0  0  0  0  0  0  0  0
  -22.4800  -12.1200   22.3610 H   0  0  0  0  0  0  0  0  0  0  0  0
  -21.1830  -13.2520   22.1050 H   0  0  0  0  0  0  0  0  0  0  0  0
  -25.5150  -15.2430   20.2160 N   0  0  0  0  0  0  0  0  0  0  0  0
  -24.7530  -15.9050   20.3070 H   0  0  0  0  0  0  0  0  0  0  0  0
  -26.3800  -15.6730   19.9130 H   0  0  0  0  0  0  0  0  0  0  0  0
  -29.9340  -22.9970   19.2690 N   0  0  0  0  0  4  0  0  0  0  0  0
  -28.9920  -23.0180   18.8780 H   0  0  0  0  0  0  0  0  0  0  0  0
  -30.5690  -22.7380   18.5340 H   0  0  0  0  0  0  0  0  0  0  0  0
  -30.2820  -24.3000   19.8730 C   0  0  0  0  0  2  0  0  0  0  0  0
  -30.1850  -25.4600   18.8630 C   0  0  0  0  0  2  0  0  0  0  0  0
  -28.7510  -25.9660   18.6500 C   0  0  0  0  0  2  0  0  0  0  0  0
  -28.3920  -26.7130   19.8060 O   0  0  0  0  0  0  0  0  0  0  0  0
  -24.4960  -31.6670   23.0240 C   0  0  0  0  0  0  0  0  0  0  0  0
  -27.1910  -27.3820   19.7970 C   0  0  0  0  0  0  0  0  0  0  0  0
  -23.3000  -30.3060   21.3380 C   0  0  0  0  0  3  0  0  0  0  0  0
  -24.7680  -28.8350   19.8570 C   0  0  0  0  0  0  0  0  0  0  0  0
  -25.8160  -30.7020   21.1490 C   0  0  0  0  0  2  0  0  0  0  0  0
  -25.9130  -29.3530   20.4710 C   0  0  0  0  0  0  0  0  0  0  0  0
  -27.1190  -28.6260   20.4550 C   0  0  0  0  0  3  0  0  0  0  0  0
  -26.0280  -26.8600   19.1890 C   0  0  0  0  0  3  0  0  0  0  0  0
  -24.8190  -27.5840   19.2180 C   0  0  0  0  0  3  0  0  0  0  0  0
  -23.5120  -29.6740   19.9360 C   0  0  0  0  0  2  0  0  0  0  0  0
  -24.5550  -30.9050   21.8960 N   0  0  0  0  0  0  0  0  0  0  0  0
  -23.4120  -31.9120   23.5750 O   0  0  0  0  0  0  0  0  0  0  0  0
  -22.6650  -29.2450   22.2640 C   0  0  0  0  0  0  0  0  0  0  0  0
  -21.3310  -29.1010   22.1810 N   0  0  0  0  0  0  0  0  0  0  0  0
  -23.3650  -28.5600   23.0130 O   0  0  0  0  0  0  0  0  0  0  0  0
  -20.8300  -29.7110   21.5500 H   0  0  0  0  0  0  0  0  0  0  0  0
  -17.9470  -28.0000   22.7850 C   0  0  0  0  0  0  0  0  0  0  0  0
  -20.5220  -28.1410   22.9280 C   0  0  0  0  0  3  0  0  0  0  0  0
  -20.5320  -26.7530   22.2470 C   0  0  0  0  0  2  0  0  0  0  0  0
  -19.3650  -26.5480   21.2760 C   0  0  0  0  0  2  0  0  0  0  0  0
  -18.0280  -26.7000   22.0070 C   0  0  0  0  0  2  0  0  0  0  0  0
  -19.1180  -28.6870   23.2030 C   0  0  0  0  0  0  0  0  0  0  0  0
  -18.9870  -29.9160   23.8890 C   0  0  0  0  0  3  0  0  0  0  0  0
  -17.7150  -30.4520   24.1640 C   0  0  0  0  0  3  0  0  0  0  0  0
  -16.5590  -29.7610   23.7620 C   0  0  0  0  0  3  0  0  0  0  0  0
  -16.6760  -28.5380   23.0770 C   0  0  0  0  0  3  0  0  0  0  0  0
  -25.7780  -32.2870   23.6610 C   0  0  0  0  0  3  0  0  0  0  0  0
  -26.3210  -31.4670   24.8980 C   0  0  1  0  0  0  0  0  0  0  0  0
  -25.2440  -31.1710   25.9680 C   0  0  0  0  0  1  0  0  0  0  0  0
  -26.9180  -30.1150   24.4390 C   0  0  0  0  0  1  0  0  0  0  0  0
  -27.4710  -32.2470   25.5760 C   0  0  0  0  0  1  0  0  0  0  0  0
  -25.4540  -33.6650   24.0530 N   0  0  0  0  0  0  0  0  0  0  0  0
  -25.7620  -34.7540   23.3350 C   0  0  0  0  0  0  0  0  0  0  0  0
  -26.4230  -34.7040   22.2930 O   0  0  0  0  0  0  0  0  0  0  0  0
  -24.8650  -33.7790   24.8650 H   0  0  0  0  0  0  0  0  0  0  0  0
  -24.0060  -36.5320   23.0670 C   0  0  0  0  0  1  0  0  0  0  0  0
  -25.2560  -36.1120   23.8550 C   0  0  0  0  0  3  0  0  0  0  0  0
  -27.3830  -36.9920   24.7080 C   0  0  0  0  0  1  0  0  0  0  0  0
  -26.2710  -37.1860   23.7830 N   0  0  0  0  0  0  0  0  0  0  0  0
  -25.8510  -38.0910   23.9720 H   0  0  0  0  0  0  0  0  0  0  0  0
  -27.5700  -22.1500   19.1490 O   0  0  0  0  0  0  0  0  0  0  0  0
  -26.6500  -21.9060   19.2140 H   0  0  0  0  0  0  0  0  0  0  0  0
  1 20  1  0
  2  7  1  0
  3  4  1  0
  3  2  1  0
  5  4  1  0
  5 24  1  0
  5  6  1  0
  7  1  1  0
  7  6  1  0
  8  1  2  0
  9 17  1  0
  9 11  1  0
 10 18  1  0
 10 12  1  0
 19 12  1  6
 15 13  1  0
 16 14  1  0
 16 20  1  0
 17 49  1  0
 18 96  1  0
 18 17  1  0
 19 14  1  0
 19 11  1  0
 19 13  1  0
 20 15  1  0
 21 22  2  0
 22 23  1  0
 22 41  1  0
 23 26  1  0
 24 21  1  0
 24 25  1  0
 25 23  2  0
 26 27  1  0
 27 28  2  0
 29 32  1  0
 29 28  1  0
 30 29  2  0
 31 30  1  0
 31 26  2  0
 32 33  1  0
 33 34  1  0
 34 35  2  0
 36 35  1  0
 36 40  1  0
 37 36  2  0
 38 33  2  0
 38 37  1  0
 39 38  1  0
 41 42  1  0
 42 45  1  0
 42 44  1  0
 43 41  2  0
 46 47  1  0
 46 21  1  0
 48 46  1  0
 49 52  1  0
 50 49  1  0
 51 49  1  0
 53 52  1  0
 54 53  1  0
 54 55  1  0
 56 67  2  0
 57 55  1  0
 57 62  1  0
 58 66  1  0
 58 68  1  0
 59 65  1  0
 59 61  1  0
 60 66  1  0
 61 60  1  0
 62 61  2  0
 63 64  1  0
 63 57  2  0
 64 59  2  0
 65 58  1  0
 66 56  1  0
 68 70  2  0
 69 68  1  0
 71 69  1  0
 72 81  2  0
 72 77  1  0
 73 69  1  0
 73 77  1  0
 74 73  1  0
 75 76  1  0
 75 74  1  0
 76 72  1  0
 77 78  2  0
 78 79  1  0
 80 79  2  0
 81 80  1  0
 82 56  1  0
 82 87  1  0
 82 83  1  0
 83 86  1  1
 83 84  1  0
 85 83  1  0
 87 90  1  0
 88 92  1  0
 88 87  1  0
 89 88  2  0
 92 91  1  0
 94 92  1  0
 94 95  1  0
 94 93  1  0
 96 97  1  0
M  ISO  4   1 100  20 100  54 101  55 101
M  END
>  <TORSDO>  (71) 
F 20

>  <SCORE>  (71) 
-13.607

>  <name>  (71) 
71

>  <ligand_id>  (71) 
71

>  <original_smiles>  (71) 
[H]OC1([H])C([H])([H])C([H])([H])C2(C([H])([H])C([H])([H])N(C(=O)N3C([H])([H])C([H])([H])C([H])([H])C([H])(n4nc(-c5c([H])c([H])c(Oc6c([H])c([H])c(F)c([H])c6F)c([H])c5[H])c(C(=O)N([H])[H])c4N([H])[H])C3([H])[H])C([H])([H])C2([H])[H])C([H])([H])C([H])([H])C1([H])[N+]([H])([H])C([H])([H])C([H])([H])C([H])([H])Oc1c([H])c([H])c2c(c1[H])C([H])([H])N(C(=O)C([H])(N([H])C(=O)C([H])(N([H])C([H])([H])[H])C([H])([H])[H])C(C([H])([H])[H])(C([H])([H])[H])C([H])([H])[H])C([H])(C(=O)N([H])C1([H])c3c([H])c([H])c([H])c([H])c3C([H])([H])C([H])([H])C1([H])[H])C2([H])[H]

>  <smiles>  (71) 
[H]OC1([H])C([H])([H])C([H])([H])C2(C([H])([H])C([H])([H])N(C(=O)N3C([H])([H])C([H])([H])C([H])([H])C([H])(n4nc(-c5c([H])c([H])c(Oc6c([H])c([H])c(F)c([H])c6F)c([H])c5[H])c(C(=O)N([H])[H])c4N([H])[H])C3([H])[H])C([H])([H])C2([H])[H])C([H])([H])C([H])([H])C1([H])[N+]([H])([H])C([H])([H])C([H])([H])C([H])([H])Oc1c([H])c([H])c2c(c1[H])C([H])([H])N(C(=O)C([H])(N([H])C(=O)C([H])(N([H])C([H])([H])[H])C([H])([H])[H])C(C([H])([H])[H])(C([H])([H])[H])C([H])([H])[H])C([H])(C(=O)N([H])C1([H])c3c([H])c([H])c([H])c([H])c3C([H])([H])C([H])([H])C1([H])[H])C2([H])[H]

$$$$
72:0:0
     RDKit          3D

 96104  0  0  1  0  0  0  0  0999 V2000
  -27.6150  -21.4180   20.1380 C   0  0  0  0  0  0  0  0  0  0  0  0
  -26.6050  -22.1430   19.6450 N   0  0  0  0  0  0  0  0  0  0  0  0
  -28.2160  -21.7510   21.1580 O   0  0  0  0  0  0  0  0  0  0  0  0
  -26.1670  -21.8300   18.7870 H   0  0  0  0  0  0  0  0  0  0  0  0
  -27.2330  -19.5570   18.3950 C   0  0  0  0  0  3  0  0  0  0  0  0
  -27.6240  -18.3100   17.8570 C   0  0  0  0  0  3  0  0  0  0  0  0
  -29.1420  -19.4730   19.8930 C   0  0  0  0  0  3  0  0  0  0  0  0
  -27.9960  -20.1450   19.4300 C   0  0  0  0  0  0  0  0  0  0  0  0
  -28.7600  -17.6250   18.3540 C   0  0  0  0  0  0  0  0  0  0  0  0
  -29.5050  -18.2020   19.4120 C   0  0  0  0  0  0  0  0  0  0  0  0
  -29.1850  -16.3260   17.6790 C   0  0  0  0  0  1  0  0  0  0  0  0
  -30.7380  -17.5430   20.0280 C   0  0  0  0  0  2  0  0  0  0  0  0
  -30.6130  -17.1820   21.5390 C   0  0  0  0  0  2  0  0  0  0  0  0
  -31.0460  -14.7650   21.3670 C   0  0  0  0  0  0  0  0  0  0  0  0
  -30.7750  -12.9320   19.7880 C   0  0  0  0  0  2  0  0  0  0  0  0
  -29.9420  -13.4740   18.6100 C   0  0  0  0  0  2  0  0  0  0  0  0
  -28.4340  -13.3230   18.8910 C   0  0  0  0  0  2  0  0  0  0  0  0
  -28.0240  -13.8440   20.2930 C   0  0  0  0  0  3  0  0  0  0  0  0
  -28.9830  -13.3440   21.4020 C   0  0  0  0  0  2  0  0  0  0  0  0
  -30.3610  -13.6590   20.9910 N   0  0  0  0  0  0  0  0  0  0  0  0
  -32.2370  -14.9600   21.1100 O   0  0  0  0  0  0  0  0  0  0  0  0
  -30.2640  -15.7790   21.7510 N   0  0  0  0  0  0  0  0  0  0  0  0
  -29.3130  -15.5710   22.0200 H   0  0  0  0  0  0  0  0  0  0  0  0
  -25.5380  -14.3720   20.6740 C   0  0  0  0  0  0  0  0  0  0  0  0
  -24.4610  -13.5620   20.9190 C   0  0  0  0  0  0  0  0  0  0  0  0
  -24.9700  -12.2280   20.9710 C   0  0  0  0  0  0  0  0  0  0  0  0
  -26.6330  -13.5260   20.5950 N   0  0  0  0  0  0  0  0  0  0  0  0
  -26.2890  -12.2320   20.8320 N   0  0  0  0  0  0  0  0  0  0  0  0
  -24.2670  -10.9440   21.0840 C   0  0  0  0  0  0  0  0  0  0  0  0
  -24.6580   -9.9700   22.0290 C   0  0  0  0  0  3  0  0  0  0  0  0
  -23.9610   -8.7450   22.1250 C   0  0  0  0  0  3  0  0  0  0  0  0
  -22.8580   -8.4880   21.2780 C   0  0  0  0  0  0  0  0  0  0  0  0
  -22.4870   -9.4510   20.3240 C   0  0  0  0  0  3  0  0  0  0  0  0
  -23.1850  -10.6680   20.2250 C   0  0  0  0  0  3  0  0  0  0  0  0
  -22.1370   -7.3180   21.2840 O   0  0  0  0  0  0  0  0  0  0  0  0
  -22.0080   -6.5580   22.4200 C   0  0  0  0  0  0  0  0  0  0  0  0
  -21.4750   -7.0850   23.6170 C   0  0  0  0  0  3  0  0  0  0  0  0
  -21.2990   -6.2500   24.7380 C   0  0  0  0  0  3  0  0  0  0  0  0
  -21.6420   -4.8870   24.6670 C   0  0  0  0  0  0  0  0  0  0  0  0
  -22.1700   -4.3620   23.4750 C   0  0  0  0  0  3  0  0  0  0  0  0
  -22.3480   -5.1930   22.3560 C   0  0  0  0  0  0  0  0  0  0  0  0
  -22.8380   -4.6730   21.2060 F   0  0  0  0  0  0  0  0  0  0  0  0
  -21.4640   -4.0830   25.7410 F   0  0  0  0  0  0  0  0  0  0  0  0
  -23.0280  -13.9910   21.0040 C   0  0  0  0  0  0  0  0  0  0  0  0
  -22.2230  -13.3060   21.8130 N   0  0  0  0  0  0  0  0  0  0  0  0
  -22.6280  -14.9820   20.3930 O   0  0  0  0  0  0  0  0  0  0  0  0
  -22.5540  -12.5220   22.3520 H   0  0  0  0  0  0  0  0  0  0  0  0
  -21.2520  -13.5720   21.8980 H   0  0  0  0  0  0  0  0  0  0  0  0
  -25.6670  -15.7470   20.5070 N   0  0  0  0  0  0  0  0  0  0  0  0
  -24.8480  -16.3490   20.5120 H   0  0  0  0  0  0  0  0  0  0  0  0
  -26.5020  -16.2310   20.2000 H   0  0  0  0  0  0  0  0  0  0  0  0
  -26.0580  -23.3040   20.3540 C   0  0  0  0  0  2  0  0  0  0  0  0
  -26.7910  -24.6130   20.0000 C   0  0  0  0  0  2  0  0  0  0  0  0
  -28.3230  -24.7270   20.2240 C   0  0  0  0  0  2  0  0  0  0  0  0
  -28.8350  -26.1620   20.5670 C   0  0  0  0  0  2  0  0  0  0  0  0
  -28.5720  -27.2140   19.6280 O   0  0  0  0  0  0  0  0  0  0  0  0
  -24.8760  -31.9910   23.5120 C   0  0  0  0  0  0  0  0  0  0  0  0
  -27.4160  -27.9250   19.8500 C   0  0  0  0  0  0  0  0  0  0  0  0
  -23.6030  -30.6880   21.8420 C   0  0  0  0  0  3  0  0  0  0  0  0
  -24.9970  -29.3350   20.1970 C   0  0  0  0  0  0  0  0  0  0  0  0
  -26.1090  -31.1290   21.5280 C   0  0  0  0  0  2  0  0  0  0  0  0
  -26.1790  -29.8230   20.7690 C   0  0  0  0  0  0  0  0  0  0  0  0
  -27.3930  -29.1100   20.6200 C   0  0  0  0  0  3  0  0  0  0  0  0
  -26.2300  -27.4960   19.2320 C   0  0  0  0  0  3  0  0  0  0  0  0
  -25.0130  -28.1580   19.4370 C   0  0  0  0  0  3  0  0  0  0  0  0
  -23.7400  -30.1420   20.4010 C   0  0  0  0  0  2  0  0  0  0  0  0
  -24.8830  -31.2830   22.3500 N   0  0  0  0  0  0  0  0  0  0  0  0
  -23.8250  -32.1790   24.1370 O   0  0  0  0  0  0  0  0  0  0  0  0
  -23.0520  -29.5630   22.7440 C   0  0  0  0  0  0  0  0  0  0  0  0
  -21.7690  -29.2140   22.5460 N   0  0  0  0  0  0  0  0  0  0  0  0
  -23.7710  -29.0100   23.5790 O   0  0  0  0  0  0  0  0  0  0  0  0
  -21.2450  -29.7140   21.8420 H   0  0  0  0  0  0  0  0  0  0  0  0
  -18.6110  -27.4710   22.7250 C   0  0  0  0  0  0  0  0  0  0  0  0
  -21.0430  -28.1640   23.2570 C   0  0  0  0  0  3  0  0  0  0  0  0
  -21.4480  -26.7630   22.7450 C   0  0  0  0  0  2  0  0  0  0  0  0
  -20.5350  -26.2420   21.6310 C   0  0  0  0  0  2  0  0  0  0  0  0
  -19.0860  -26.1590   22.1210 C   0  0  0  0  0  2  0  0  0  0  0  0
  -19.5300  -28.4190   23.2410 C   0  0  0  0  0  0  0  0  0  0  0  0
  -19.0390  -29.6380   23.7570 C   0  0  0  0  0  3  0  0  0  0  0  0
  -17.6580  -29.9140   23.7620 C   0  0  0  0  0  3  0  0  0  0  0  0
  -16.7510  -28.9630   23.2640 C   0  0  0  0  0  3  0  0  0  0  0  0
  -17.2260  -27.7420   22.7540 C   0  0  0  0  0  3  0  0  0  0  0  0
  -26.1810  -32.6150   24.0970 C   0  0  0  0  0  3  0  0  0  0  0  0
  -25.8860  -34.0150   24.4280 N   0  0  0  0  0  0  0  0  0  0  0  0
  -26.2070  -35.0620   23.6560 C   0  0  0  0  0  0  0  0  0  0  0  0
  -26.8490  -34.9530   22.6080 O   0  0  0  0  0  0  0  0  0  0  0  0
  -25.3100  -34.1780   25.2410 H   0  0  0  0  0  0  0  0  0  0  0  0
  -24.4650  -36.8560   23.3610 C   0  0  0  0  0  1  0  0  0  0  0  0
  -25.7370  -36.4540   24.1240 C   0  0  0  0  0  3  0  0  0  0  0  0
  -27.9010  -37.3440   24.8680 C   0  0  0  0  0  1  0  0  0  0  0  0
  -26.7640  -37.5060   23.9660 N   0  0  0  0  0  0  0  0  0  0  0  0
  -26.3620  -38.4260   24.1270 H   0  0  0  0  0  0  0  0  0  0  0  0
  -26.7340  -31.8380   25.3550 C   0  0  1  0  0  0  0  0  0  0  0  0
  -25.6630  -31.5500   26.4330 C   0  0  0  0  0  1  0  0  0  0  0  0
  -27.3480  -30.4840   24.9320 C   0  0  0  0  0  1  0  0  0  0  0  0
  -27.8660  -32.6570   26.0180 C   0  0  0  0  0  1  0  0  0  0  0  0
  1  3  2  0
  2  1  1  0
  2 52  1  0
  4  2  1  0
  5  8  1  0
  6  9  1  0
  6  5  2  0
  8  7  2  0
  8  1  1  0
  9 10  2  0
 10  7  1  0
 10 12  1  0
 11  9  1  0
 12 13  1  0
 13 22  1  0
 14 22  1  0
 15 20  1  0
 16 17  1  0
 16 15  1  0
 18 17  1  0
 18 27  1  0
 18 19  1  0
 20 14  1  0
 20 19  1  0
 21 14  2  0
 22 23  1  0
 24 25  2  0
 25 26  1  0
 25 44  1  0
 26 29  1  0
 27 24  1  0
 27 28  1  0
 28 26  2  0
 29 30  1  0
 30 31  2  0
 32 35  1  0
 32 31  1  0
 33 32  2  0
 34 33  1  0
 34 29  2  0
 35 36  1  0
 36 37  1  0
 37 38  2  0
 39 38  1  0
 39 43  1  0
 40 39  2  0
 41 36  2  0
 41 40  1  0
 42 41  1  0
 44 45  1  0
 45 48  1  0
 45 47  1  0
 46 44  2  0
 49 50  1  0
 49 24  1  0
 51 49  1  0
 53 54  1  0
 53 52  1  0
 54 55  1  0
 56 58  1  0
 56 55  1  0
 57 68  2  0
 58 63  1  0
 59 67  1  0
 59 69  1  0
 60 66  1  0
 60 62  1  0
 61 67  1  0
 62 61  1  0
 63 62  2  0
 64 65  1  0
 64 58  2  0
 65 60  2  0
 66 59  1  0
 67 57  1  0
 69 71  2  0
 70 69  1  0
 72 70  1  0
 73 82  2  0
 73 78  1  0
 74 70  1  0
 75 74  1  0
 76 77  1  0
 76 75  1  0
 77 73  1  0
 78 74  1  0
 78 79  2  0
 79 80  1  0
 81 80  2  0
 82 81  1  0
 83 57  1  0
 83 84  1  0
 83 93  1  0
 84 87  1  0
 85 89  1  0
 85 84  1  0
 86 85  2  0
 89 88  1  0
 91 89  1  0
 91 92  1  0
 91 90  1  0
 93 96  1  1
 93 94  1  0
 95 93  1  0
M  ISO  4  14 100  22 100  55 101  56 101
M  END
>  <TORSDO>  (72) 
F 23

>  <SCORE>  (72) 
-10.364

>  <name>  (72) 
72

>  <ligand_id>  (72) 
72

>  <original_smiles>  (72) 
[H]c1c([H])c([H])c2c(c1[H])C([H])([H])C([H])([H])C([H])([H])C2([H])N([H])C(=O)C1([H])N(C(=O)C([H])(N([H])C(=O)C([H])(N([H])C([H])([H])[H])C([H])([H])[H])C(C([H])([H])[H])(C([H])([H])[H])C([H])([H])[H])C([H])([H])c2c([H])c(OC([H])([H])C([H])([H])C([H])([H])C([H])([H])N([H])C(=O)c3c([H])c([H])c(C([H])([H])[H])c(C([H])([H])C([H])([H])N([H])C(=O)N4C([H])([H])C([H])([H])C([H])([H])C([H])(n5nc(-c6c([H])c([H])c(Oc7c([H])c([H])c(F)c([H])c7F)c([H])c6[H])c(C(=O)N([H])[H])c5N([H])[H])C4([H])[H])c3[H])c([H])c([H])c2C1([H])[H]

>  <smiles>  (72) 
[H]c1c([H])c([H])c2c(c1[H])C([H])([H])C([H])([H])C([H])([H])C2([H])N([H])C(=O)C1([H])N(C(=O)C([H])(N([H])C(=O)C([H])(N([H])C([H])([H])[H])C([H])([H])[H])C(C([H])([H])[H])(C([H])([H])[H])C([H])([H])[H])C([H])([H])c2c([H])c(OC([H])([H])C([H])([H])C([H])([H])C([H])([H])N([H])C(=O)c3c([H])c([H])c(C([H])([H])[H])c(C([H])([H])C([H])([H])N([H])C(=O)N4C([H])([H])C([H])([H])C([H])([H])C([H])(n5nc(-c6c([H])c([H])c(Oc7c([H])c([H])c(F)c([H])c7F)c([H])c6[H])c(C(=O)N([H])[H])c5N([H])[H])C4([H])[H])c3[H])c([H])c([H])c2C1([H])[H]

$$$$
73:0:0
     RDKit          3D

105114  0  0  1  0  0  0  0  0999 V2000
  -30.7030  -22.0410   24.5820 C   0  0  0  0  0  2  0  0  0  0  0  0
  -31.0440  -20.6320   24.0630 C   0  0  0  0  0  2  0  0  0  0  0  0
  -31.0720  -23.1440   23.5740 C   0  0  0  0  0  2  0  0  0  0  0  0
  -30.7210  -21.4880   21.6750 C   0  0  0  0  0  2  0  0  0  0  0  0
  -31.1840  -23.9580   21.1830 C   0  0  0  0  0  2  0  0  0  0  0  0
  -28.4650  -24.3890   21.6260 C   0  0  0  0  0  2  0  0  0  0  0  0
  -30.3590  -20.3770   22.7050 C   0  0  0  0  0  3  0  0  0  0  0  0
  -28.2390  -24.2360   20.0970 C   0  0  0  0  0  3  0  0  0  0  0  0
  -30.7470  -24.0110   19.6910 C   0  0  0  0  0  3  0  0  0  0  0  0
  -30.4830  -22.9450   22.1500 C   0  0  2  0  0  0  0  0  0  0  0  0
  -29.0330  -23.1900   22.2590 N   0  0  0  0  0  0  0  0  0  0  0  0
  -29.3690  -23.5520   19.4120 N   0  0  0  0  0  4  0  0  0  0  0  0
  -28.4430  -22.3650   22.2020 H   0  0  0  0  0  0  0  0  0  0  0  0
  -29.2120  -23.5860   18.4170 H   0  0  0  0  0  0  0  0  0  0  0  0
  -29.3370  -22.5820   19.6760 H   0  0  0  0  0  0  0  0  0  0  0  0
  -30.5480  -18.9730   22.2310 N   0  0  0  0  0  4  0  0  0  0  0  0
  -29.6950  -18.4860   22.4560 H   0  0  0  0  0  0  0  0  0  0  0  0
  -31.2810  -18.5270   22.7600 H   0  0  0  0  0  0  0  0  0  0  0  0
  -30.8210  -18.6980   20.7950 C   0  0  0  0  0  2  0  0  0  0  0  0
  -31.9340  -17.6710   20.5900 C   0  0  0  0  0  0  0  0  0  0  0  0
  -31.7880  -16.8170   19.5640 N   0  0  0  0  0  0  0  0  0  0  0  0
  -32.8730  -17.6230   21.3880 O   0  0  0  0  0  0  0  0  0  0  0  0
  -31.0150  -16.9990   18.9330 H   0  0  0  0  0  0  0  0  0  0  0  0
  -32.5960  -15.6190   19.2770 C   0  0  0  0  0  2  0  0  0  0  0  0
  -32.2150  -14.4300   20.2050 C   0  0  0  0  0  2  0  0  0  0  0  0
  -32.7800  -13.0020   19.9190 C   0  0  0  0  0  0  0  0  0  0  0  0
  -32.3950  -10.5450   20.0660 C   0  0  0  0  0  2  0  0  0  0  0  0
  -31.4410  -10.0160   18.9710 C   0  0  0  0  0  2  0  0  0  0  0  0
  -29.9670  -10.1890   19.3860 C   0  0  0  0  0  2  0  0  0  0  0  0
  -29.6720  -11.6340   19.8640 C   0  0  0  0  0  3  0  0  0  0  0  0
  -30.6950  -12.0550   20.9360 C   0  0  0  0  0  2  0  0  0  0  0  0
  -32.0450  -11.9460   20.3580 N   0  0  0  0  0  0  0  0  0  0  0  0
  -33.8410  -12.8490   19.2990 O   0  0  0  0  0  0  0  0  0  0  0  0
  -27.6030  -12.9280   20.6740 C   0  0  0  0  0  0  0  0  0  0  0  0
  -26.3400  -12.5160   21.0130 C   0  0  0  0  0  0  0  0  0  0  0  0
  -26.3350  -11.0970   20.8650 C   0  0  0  0  0  0  0  0  0  0  0  0
  -28.3020  -11.7770   20.3500 N   0  0  0  0  0  0  0  0  0  0  0  0
  -27.5420  -10.6640   20.5170 N   0  0  0  0  0  0  0  0  0  0  0  0
  -25.2360  -10.1280   20.9740 C   0  0  0  0  0  0  0  0  0  0  0  0
  -25.3450   -8.9710   21.7790 C   0  0  0  0  0  3  0  0  0  0  0  0
  -24.2660   -8.0670   21.8800 C   0  0  0  0  0  3  0  0  0  0  0  0
  -23.0650   -8.3170   21.1740 C   0  0  0  0  0  0  0  0  0  0  0  0
  -22.9720   -9.4550   20.3550 C   0  0  0  0  0  3  0  0  0  0  0  0
  -24.0490  -10.3500   20.2510 C   0  0  0  0  0  3  0  0  0  0  0  0
  -21.9770   -7.4780   21.1890 O   0  0  0  0  0  0  0  0  0  0  0  0
  -21.6210   -6.7830   22.3150 C   0  0  0  0  0  0  0  0  0  0  0  0
  -21.3300   -7.4360   23.5330 C   0  0  0  0  0  3  0  0  0  0  0  0
  -20.8950   -6.6900   24.6450 C   0  0  0  0  0  3  0  0  0  0  0  0
  -20.7510   -5.2930   24.5430 C   0  0  0  0  0  0  0  0  0  0  0  0
  -21.0390   -4.6410   23.3320 C   0  0  0  0  0  3  0  0  0  0  0  0
  -21.4700   -5.3850   22.2200 C   0  0  0  0  0  0  0  0  0  0  0  0
  -21.7240   -4.7540   21.0470 F   0  0  0  0  0  0  0  0  0  0  0  0
  -20.3270   -4.5750   25.6090 F   0  0  0  0  0  0  0  0  0  0  0  0
  -25.1790  -13.4000   21.3630 C   0  0  0  0  0  0  0  0  0  0  0  0
  -24.3070  -12.9450   22.2590 N   0  0  0  0  0  0  0  0  0  0  0  0
  -25.0600  -14.5230   20.8770 O   0  0  0  0  0  0  0  0  0  0  0  0
  -24.4160  -12.0280   22.6670 H   0  0  0  0  0  0  0  0  0  0  0  0
  -23.5230  -13.5220   22.5290 H   0  0  0  0  0  0  0  0  0  0  0  0
  -28.2050  -14.1760   20.5920 N   0  0  0  0  0  0  0  0  0  0  0  0
  -27.6430  -15.0200   20.6030 H   0  0  0  0  0  0  0  0  0  0  0  0
  -29.1140  -14.3110   20.1660 H   0  0  0  0  0  0  0  0  0  0  0  0
  -31.4680  -23.0660   18.9110 O   0  0  0  0  0  0  0  0  0  0  0  0
  -32.2280  -23.5030   18.5370 H   0  0  0  0  0  0  0  0  0  0  0  0
  -27.8950  -25.5940   19.4290 C   0  0  0  0  0  2  0  0  0  0  0  0
  -26.6320  -25.5460   18.7310 O   0  0  0  0  0  0  0  0  0  0  0  0
  -24.6170  -30.6840   23.2060 C   0  0  0  0  0  0  0  0  0  0  0  0
  -25.7260  -26.5440   19.0290 C   0  0  0  0  0  0  0  0  0  0  0  0
  -22.9250  -29.9940   21.5270 C   0  0  0  0  0  3  0  0  0  0  0  0
  -23.7850  -28.5050   19.6390 C   0  0  0  0  0  0  0  0  0  0  0  0
  -25.4140  -29.8270   21.0080 C   0  0  0  0  0  2  0  0  0  0  0  0
  -25.0880  -28.6290   20.1380 C   0  0  0  0  0  0  0  0  0  0  0  0
  -26.0600  -27.6590   19.8340 C   0  0  0  0  0  3  0  0  0  0  0  0
  -24.4200  -26.4480   18.5040 C   0  0  0  0  0  3  0  0  0  0  0  0
  -23.4450  -27.4170   18.8150 C   0  0  0  0  0  3  0  0  0  0  0  0
  -22.8110  -29.5930   20.0270 C   0  0  0  0  0  2  0  0  0  0  0  0
  -24.3470  -30.1580   21.9770 N   0  0  0  0  0  0  0  0  0  0  0  0
  -23.7040  -31.0700   23.9490 O   0  0  0  0  0  0  0  0  0  0  0  0
  -22.1300  -28.9710   22.3720 C   0  0  0  0  0  0  0  0  0  0  0  0
  -20.7950  -29.1030   22.3680 N   0  0  0  0  0  0  0  0  0  0  0  0
  -22.7120  -28.0740   22.9870 O   0  0  0  0  0  0  0  0  0  0  0  0
  -20.4000  -29.8750   21.8490 H   0  0  0  0  0  0  0  0  0  0  0  0
  -17.2770  -28.4890   22.9040 C   0  0  0  0  0  0  0  0  0  0  0  0
  -19.8430  -28.2300   23.0540 C   0  0  0  0  0  3  0  0  0  0  0  0
  -19.6510  -26.9040   22.2850 C   0  0  0  0  0  2  0  0  0  0  0  0
  -18.4750  -26.9360   21.3040 C   0  0  0  0  0  2  0  0  0  0  0  0
  -17.1690  -27.2400   22.0430 C   0  0  0  0  0  2  0  0  0  0  0  0
  -18.5330  -28.9620   23.3640 C   0  0  0  0  0  0  0  0  0  0  0  0
  -18.5780  -30.1440   24.1330 C   0  0  0  0  0  3  0  0  0  0  0  0
  -17.3990  -30.8500   24.4410 C   0  0  0  0  0  3  0  0  0  0  0  0
  -16.1570  -30.3680   23.9950 C   0  0  0  0  0  3  0  0  0  0  0  0
  -16.0960  -29.1880   23.2330 C   0  0  0  0  0  3  0  0  0  0  0  0
  -26.0780  -30.8410   23.7290 C   0  0  0  0  0  3  0  0  0  0  0  0
  -26.1960  -32.1760   24.3270 N   0  0  0  0  0  0  0  0  0  0  0  0
  -26.9270  -33.1740   23.8110 C   0  0  0  0  0  0  0  0  0  0  0  0
  -27.6350  -33.0400   22.8090 O   0  0  0  0  0  0  0  0  0  0  0  0
  -25.6040  -32.3740   25.1210 H   0  0  0  0  0  0  0  0  0  0  0  0
  -25.9960  -35.5060   23.6820 C   0  0  0  0  0  1  0  0  0  0  0  0
  -26.8600  -34.5450   24.5150 C   0  0  0  0  0  3  0  0  0  0  0  0
  -28.9960  -34.3930   25.7140 C   0  0  0  0  0  1  0  0  0  0  0  0
  -28.1890  -35.1460   24.7570 N   0  0  0  0  0  0  0  0  0  0  0  0
  -28.0960  -36.0970   25.1000 H   0  0  0  0  0  0  0  0  0  0  0  0
  -26.4960  -29.7230   24.7620 C   0  0  1  0  0  0  0  0  0  0  0  0
  -25.4600  -29.4960   25.8880 C   0  0  0  0  0  1  0  0  0  0  0  0
  -26.7100  -28.3710   24.0410 C   0  0  0  0  0  1  0  0  0  0  0  0
  -27.8500  -30.0890   25.4150 C   0  0  0  0  0  1  0  0  0  0  0  0
  2  1  1  0
  3  1  1  0
 10  4  1  6
  4  7  1  0
  6 11  1  0
  7 16  1  0
  7  2  1  0
  8 64  1  0
  8  6  1  0
  9 62  1  0
  9  5  1  0
 10  5  1  0
 10 11  1  0
 10  3  1  0
 12 15  1  0
 12  9  1  0
 12  8  1  0
 13 11  1  0
 14 12  1  0
 16 17  1  0
 16 18  1  0
 19 16  1  0
 20 19  1  0
 20 22  2  0
 21 20  1  0
 23 21  1  0
 24 21  1  0
 24 25  1  0
 26 25  1  0
 26 32  1  0
 27 32  1  0
 28 29  1  0
 28 27  1  0
 30 29  1  0
 30 37  1  0
 30 31  1  0
 32 31  1  0
 33 26  2  0
 34 35  2  0
 35 54  1  0
 36 39  1  0
 36 35  1  0
 37 38  1  0
 37 34  1  0
 38 36  2  0
 39 40  1  0
 40 41  2  0
 42 45  1  0
 42 41  1  0
 43 42  2  0
 44 43  1  0
 44 39  2  0
 45 46  1  0
 46 47  1  0
 47 48  2  0
 49 48  1  0
 49 53  1  0
 50 49  2  0
 51 46  2  0
 51 50  1  0
 52 51  1  0
 54 55  1  0
 55 58  1  0
 55 57  1  0
 56 54  2  0
 59 60  1  0
 59 34  1  0
 61 59  1  0
 63 62  1  0
 65 67  1  0
 65 64  1  0
 66 77  2  0
 67 72  1  0
 68 76  1  0
 68 78  1  0
 69 75  1  0
 69 71  1  0
 70 76  1  0
 71 70  1  0
 72 71  2  0
 73 74  1  0
 73 67  2  0
 74 69  2  0
 75 68  1  0
 76 66  1  0
 78 80  2  0
 79 78  1  0
 81 79  1  0
 82 91  2  0
 82 87  1  0
 83 79  1  0
 83 87  1  0
 84 83  1  0
 85 86  1  0
 85 84  1  0
 86 82  1  0
 87 88  2  0
 88 89  1  0
 90 89  2  0
 91 90  1  0
 92 66  1  0
 92 93  1  0
 92102  1  0
 93 96  1  0
 94 93  1  0
 94 98  1  0
 95 94  2  0
 98 97  1  0
 98100  1  0
100101  1  0
100 99  1  0
102105  1  1
102103  1  0
104102  1  0
M  ISO  4  25 100  26 100  64 101  65 101
M  END
>  <TORSDO>  (73) 
F 23

>  <SCORE>  (73) 
-7.462

>  <name>  (73) 
73

>  <ligand_id>  (73) 
73

>  <original_smiles>  (73) 
[H]OC1([H])C([H])([H])C2(N([H])C([H])([H])C([H])(C([H])([H])Oc3c([H])c([H])c4c(c3[H])C([H])([H])N(C(=O)C([H])(N([H])C(=O)C([H])(N([H])C([H])([H])[H])C([H])([H])[H])C(C([H])([H])[H])(C([H])([H])[H])C([H])([H])[H])C([H])(C(=O)N([H])C3([H])c5c([H])c([H])c([H])c([H])c5C([H])([H])C([H])([H])C3([H])[H])C4([H])[H])[N+]1([H])[H])C([H])([H])C([H])([H])C([H])([H])C([H])([N+]([H])([H])C([H])([H])C(=O)N([H])C([H])([H])C([H])([H])C(=O)N1C([H])([H])C([H])([H])C([H])([H])C([H])(n3nc(-c4c([H])c([H])c(Oc5c([H])c([H])c(F)c([H])c5F)c([H])c4[H])c(C(=O)N([H])[H])c3N([H])[H])C1([H])[H])C2([H])[H]

>  <smiles>  (73) 
[H]OC1([H])C([H])([H])C2(N([H])C([H])([H])C([H])(C([H])([H])Oc3c([H])c([H])c4c(c3[H])C([H])([H])N(C(=O)C([H])(N([H])C(=O)C([H])(N([H])C([H])([H])[H])C([H])([H])[H])C(C([H])([H])[H])(C([H])([H])[H])C([H])([H])[H])C([H])(C(=O)N([H])C3([H])c5c([H])c([H])c([H])c([H])c5C([H])([H])C([H])([H])C3([H])[H])C4([H])[H])[N+]1([H])[H])C([H])([H])C([H])([H])C([H])([H])C([H])([N+]([H])([H])C([H])([H])C(=O)N([H])C([H])([H])C([H])([H])C(=O)N1C([H])([H])C([H])([H])C([H])([H])C([H])(n3nc(-c4c([H])c([H])c(Oc5c([H])c([H])c(F)c([H])c5F)c([H])c4[H])c(C(=O)N([H])[H])c3N([H])[H])C1([H])[H])C2([H])[H]

$$$$
74:0:0
     RDKit          3D

 93 94  0  0  1  0  0  0  0  0999 V2000
  -21.4860  -26.1390   22.0930 C   0  0  0  0  0  2  0  0  0  0  0  0
  -20.2480  -27.5100   20.4590 C   0  0  0  0  0  2  0  0  0  0  0  0
  -22.1130  -27.2260   23.0780 C   0  0  0  0  0  3  0  0  0  0  0  0
  -20.7590  -28.9740   20.2530 C   0  0  0  0  0  2  0  0  0  0  0  0
  -18.9640  -27.4300   19.4910 C   0  0  0  0  0  1  0  0  0  0  0  0
  -22.8930  -26.8680   24.2970 C   0  0  0  0  0  1  0  0  0  0  0  0
  -22.2770  -29.3750   22.4150 S   0  0  0  0  0  0  0  0  0  0  0  0
  -22.8700  -24.1280   21.7760 C   0  0  0  0  0  3  0  0  0  0  0  0
  -24.3290  -23.0560   21.1160 N   0  0  0  0  0  1  0  0  0  0  0  0
  -22.2580  -23.2950   22.4460 O   0  0  0  0  0  0  0  0  0  0  0  0
  -24.8460  -23.7610   20.6030 H   0  0  0  0  0  0  0  0  0  0  0  0
  -25.5940  -21.1430   20.7120 C   0  0  0  0  0 15  0  0  0  0  0  0
  -27.6750  -19.5760   20.3540 C   0  0  0  0  0 15  0  0  0  0  0  0
  -29.2150  -17.7030   19.9240 C   0  0  0  0  0  2  0  0  0  0  0  0
  -30.7200  -15.1490   19.1080 C   0  0  0  0  0  2  0  0  0  0  0  0
  -30.3040  -13.9980   18.0480 C   0  0  0  0  0  2  0  0  0  0  0  0
  -29.0660  -13.2220   18.4950 C   0  0  0  0  0  2  0  0  0  0  0  0
  -28.2710  -14.2430   19.3030 C   0  0  0  0  0  3  0  0  0  0  0  0
  -28.9920  -14.9370   20.4670 C   0  0  0  0  0  2  0  0  0  0  0  0
  -29.5700  -16.1190   19.8280 N   0  0  0  0  0  0  0  0  0  0  0  0
  -30.4820  -17.8160   19.5960 O   0  0  0  0  0  1  0  0  0  0  0  0
  -26.0870  -14.7560   20.2530 C   0  0  0  0  0  0  0  0  0  0  0  0
  -25.0680  -13.9750   20.6780 C   0  0  0  0  0  0  0  0  0  0  0  0
  -25.4920  -12.6230   20.4790 C   0  0  0  0  0  0  0  0  0  0  0  0
  -27.0260  -13.8620   19.8030 N   0  0  0  0  0  0  0  0  0  0  0  0
  -26.7280  -12.5690   20.0120 N   0  0  0  0  0  0  0  0  0  0  0  0
  -24.7600  -11.3770   20.6270 C   0  0  0  0  0  0  0  0  0  0  0  0
  -25.0870  -10.4400   21.6300 C   0  0  0  0  0  3  0  0  0  0  0  0
  -24.3390   -9.2510   21.7520 C   0  0  0  0  0  3  0  0  0  0  0  0
  -23.2620   -9.0000   20.8690 C   0  0  0  0  0  0  0  0  0  0  0  0
  -22.9670   -9.9270   19.8550 C   0  0  0  0  0  3  0  0  0  0  0  0
  -23.7130  -11.1060   19.7300 C   0  0  0  0  0  3  0  0  0  0  0  0
  -22.4910   -7.8670   20.8990 O   0  0  0  0  0  0  0  0  0  0  0  0
  -22.0500   -7.3340   22.0820 C   0  0  0  0  0  0  0  0  0  0  0  0
  -21.2760   -8.0830   22.9950 C   0  0  0  0  0  3  0  0  0  0  0  0
  -20.7850   -7.4720   24.1650 C   0  0  0  0  0  3  0  0  0  0  0  0
  -21.0590   -6.1140   24.4190 C   0  0  0  0  0  0  0  0  0  0  0  0
  -21.8270   -5.3680   23.5090 C   0  0  0  0  0  3  0  0  0  0  0  0
  -22.3200   -5.9770   22.3410 C   0  0  0  0  0  0  0  0  0  0  0  0
  -23.0430   -5.2500   21.4560 F   0  0  0  0  0  0  0  0  0  0  0  0
  -20.5790   -5.5240   25.5380 F   0  0  0  0  0  0  0  0  0  0  0  0
  -23.7410  -14.4790   21.1310 C   0  0  0  0  0  0  0  0  0  0  0  0
  -23.0980  -13.7580   22.0380 N   0  0  0  0  0  0  0  0  0  0  0  0
  -23.2960  -15.5490   20.7170 O   0  0  0  0  0  0  0  0  0  0  0  0
  -23.4840  -12.8930   22.3880 H   0  0  0  0  0  0  0  0  0  0  0  0
  -22.2050  -14.0740   22.3910 H   0  0  0  0  0  0  0  0  0  0  0  0
  -26.2910  -16.1370   20.1910 N   0  0  0  0  0  0  0  0  0  0  0  0
  -25.5400  -16.7820   20.4090 H   0  0  0  0  0  0  0  0  0  0  0  0
  -27.0330  -16.5600   19.6510 H   0  0  0  0  0  0  0  0  0  0  0  0
  -21.2720  -28.5260   18.5560 C   0  0  0  0  0  2  0  0  0  0  0  0
  -22.4200  -26.3690   16.7720 C   0  0  0  0  0  1  0  0  0  0  0  0
  -22.7370  -27.5270   17.7910 C   0  0  0  0  0  3  0  0  0  0  0  0
  -24.4520  -27.2610   18.0680 O   0  0  0  0  0  0  0  0  0  0  0  0
  -25.9620  -28.1430   23.4950 C   0  0  0  0  0  0  0  0  0  0  0  0
  -25.6490  -27.9040   17.6640 C   0  0  0  0  0  3  0  0  0  0  0  0
  -24.1620  -28.4180   21.8330 C   0  0  1  0  0  0  0  0  0  0  0  0
  -24.8360  -29.4640   19.5630 C   0  0  0  0  0  3  0  0  0  0  0  0
  -26.5440  -28.9310   21.2130 C   0  0  0  0  0  2  0  0  0  0  0  0
  -26.0160  -28.8110   19.8070 C   0  0  0  0  0  3  0  0  0  0  0  0
  -26.5650  -28.0880   18.7380 C   0  0  0  0  0  2  0  0  0  0  0  0
  -25.1290  -29.0550   17.1690 C   0  0  0  0  0  2  0  0  0  0  0  0
  -24.5610  -29.8190   18.2060 C   0  0  0  0  0  2  0  0  0  0  0  0
  -23.9710  -29.6160   20.7800 C   0  0  0  0  0  2  0  0  0  0  0  0
  -25.5650  -28.5650   22.2680 N   0  0  0  0  0  0  0  0  0  0  0  0
  -25.1500  -27.7830   24.3620 O   0  0  0  0  0  0  0  0  0  0  0  0
  -24.1660  -26.8710   21.4520 C   0  0  0  0  0  0  0  0  0  0  0  0
  -23.5200  -26.2100   20.4790 N   0  0  0  0  0  0  0  0  0  0  0  0
  -24.9670  -26.1080   21.9320 O   0  0  0  0  0  0  0  0  0  0  0  0
  -23.6590  -26.7210   19.6130 H   0  0  0  0  0  0  0  0  0  0  0  0
  -18.4700  -25.2980   21.5630 C   0  0  0  0  0  0  0  0  0  0  0  0
  -22.3130  -25.1980   20.2760 C   0  0  0  0  0  2  0  0  0  0  0  0
  -21.4410  -24.9300   18.4090 C   0  0  0  0  0 15  0  0  0  0  0  0
  -19.4280  -24.5460   18.4200 C   0  0  0  0  0  1  0  0  0  0  0  0
  -18.2580  -24.5950   19.9820 C   0  0  0  0  0  2  0  0  0  0  0  0
  -19.8920  -25.3800   22.0880 C   0  0  0  0  0  0  0  0  0  0  0  0
  -19.7770  -26.4280   23.2560 C   0  0  0  0  0  3  0  0  0  0  0  0
  -18.6830  -27.1000   23.8970 C   0  0  0  0  0  3  0  0  0  0  0  0
  -17.4200  -26.8770   23.3770 C   0  0  0  0  0  3  0  0  0  0  0  0
  -17.3570  -26.0240   22.2280 C   0  0  0  0  0  3  0  0  0  0  0  0
  -27.4760  -28.0620   23.8010 C   0  0  0  0  0  3  0  0  0  0  0  0
  -27.6300  -28.6190   25.1400 N   0  0  0  0  0  0  0  0  0  0  0  0
  -27.9600  -29.8920   25.3740 C   0  0  0  0  0  0  0  0  0  0  0  0
  -28.2560  -30.6880   24.4770 O   0  0  0  0  0  0  0  0  0  0  0  0
  -27.3550  -28.0360   25.9170 H   0  0  0  0  0  0  0  0  0  0  0  0
  -26.7350  -31.2170   27.1210 C   0  0  0  0  0  1  0  0  0  0  0  0
  -27.9720  -30.3490   26.8400 C   0  0  0  0  0  3  0  0  0  0  0  0
  -30.3930  -30.2400   27.2080 C   0  0  0  0  0  1  0  0  0  0  0  0
  -29.2010  -31.0830   27.2060 N   0  0  0  0  0  0  0  0  0  0  0  0
  -29.1080  -31.5040   28.1260 H   0  0  0  0  0  0  0  0  0  0  0  0
  -28.0920  -26.6110   23.7020 C   0  0  1  0  0  0  0  0  0  0  0  0
  -27.3080  -25.5450   24.5000 C   0  0  0  0  0  1  0  0  0  0  0  0
  -28.2250  -26.1050   22.2440 C   0  0  0  0  0  1  0  0  0  0  0  0
  -29.5370  -26.6550   24.2470 C   0  0  0  0  0  1  0  0  0  0  0  0
  1  3  1  0
  3  6  1  0
  4  2  1  0
  5  2  1  0
  7  3  1  0
  8 10  2  0
 11  9  1  0
 15 20  1  0
 16 17  1  0
 16 15  1  0
 18 17  1  0
 18 25  1  0
 18 19  1  0
 20 14  1  0
 20 19  1  0
 21 14  1  0
 22 23  2  0
 23 42  1  0
 24 27  1  0
 24 23  1  0
 25 26  1  0
 25 22  1  0
 26 24  2  0
 27 28  1  0
 28 29  2  0
 30 33  1  0
 30 29  1  0
 31 30  2  0
 32 31  1  0
 32 27  2  0
 33 34  1  0
 34 39  2  0
 34 35  1  0
 35 36  2  0
 36 37  1  0
 37 41  1  0
 38 37  2  0
 39 38  1  0
 40 39  1  0
 42 43  1  0
 43 45  1  0
 43 46  1  0
 44 42  2  0
 47 22  1  0
 47 48  1  0
 49 47  1  0
 50  4  1  0
 52 51  1  0
 52 53  1  0
 52 50  1  0
 54 65  2  0
 55 53  1  0
 55 60  1  0
 56 66  1  0
 56 64  1  0
 56  7  1  1
 57 62  1  0
 57 59  1  0
 57 63  1  0
 58 64  1  0
 59 60  1  0
 59 58  1  0
 61 55  1  0
 61 62  1  0
 63 56  1  0
 64 54  1  0
 66 68  2  0
 67 66  1  0
 69 67  1  0
 70 75  2  0
 70 79  1  0
 71 67  1  0
 71  8  1  0
 73 74  1  0
 74 70  1  0
 75  1  1  0
 75 76  1  0
 76 77  2  0
 78 77  1  0
 79 78  2  0
 80 54  1  0
 80 81  1  0
 81 82  1  0
 81 84  1  0
 82 86  1  0
 83 82  2  0
 86 85  1  0
 86 88  1  0
 88 87  1  0
 88 89  1  0
 90 80  1  0
 90 93  1  1
 90 91  1  0
 92 90  1  0
M  ISO  4  13 100  14 100  52 101  53 101
M  END
>  <TORSDO>  (74) 
F 21

>  <SCORE>  (74) 
-1.146

>  <name>  (74) 
74

>  <ligand_id>  (74) 
74

>  <original_smiles>  (74) 
[H]c1c([H])c([H])c2c(c1[H])C([H])([H])C([H])([H])C([H])([H])C2([H])N([H])C(=O)C1([H])N(C(=O)C([H])(N([H])C(=O)C([H])(N([H])C([H])([H])[H])C([H])([H])[H])C(C([H])([H])[H])(C([H])([H])[H])C([H])([H])[H])C([H])([H])c2c([H])c(OC([H])(C([H])([H])[H])C([H])([H])c3sc(C([H])([H])[H])c(C(=O)N([H])C([H])([H])C([H])([H])C(=O)N4C([H])([H])C([H])([H])C([H])([H])C([H])(n5nc(-c6c([H])c([H])c(Oc7c([H])c([H])c(F)c([H])c7F)c([H])c6[H])c(C(=O)N([H])[H])c5N([H])[H])C4([H])[H])c3C([H])([H])[H])c([H])c([H])c2C1([H])[H]

>  <smiles>  (74) 
[H]c1c([H])c([H])c2c(c1[H])C([H])([H])C([H])([H])C([H])([H])C2([H])N([H])C(=O)C1([H])N(C(=O)C([H])(N([H])C(=O)C([H])(N([H])C([H])([H])[H])C([H])([H])[H])C(C([H])([H])[H])(C([H])([H])[H])C([H])([H])[H])C([H])([H])c2c([H])c(OC([H])(C([H])([H])[H])C([H])([H])c3sc(C([H])([H])[H])c(C(=O)N([H])C([H])([H])C([H])([H])C(=O)N4C([H])([H])C([H])([H])C([H])([H])C([H])(n5nc(-c6c([H])c([H])c(Oc7c([H])c([H])c(F)c([H])c7F)c([H])c6[H])c(C(=O)N([H])[H])c5N([H])[H])C4([H])[H])c3C([H])([H])[H])c([H])c([H])c2C1([H])[H]

$$$$
75:0:0
     RDKit          3D

 96104  0  0  1  0  0  0  0  0999 V2000
  -30.8940  -20.5800   22.7720 C   0  0  0  0  0  3  0  0  0  0  0  0
  -30.3930  -20.7550   20.3970 C   0  0  0  0  0  3  0  0  0  0  0  0
  -29.2460  -22.2010   21.9960 C   0  0  0  0  0  3  0  0  0  0  0  0
  -31.1070  -20.1350   21.4510 C   0  0  0  0  0  0  0  0  0  0  0  0
  -29.9660  -21.6050   23.0500 C   0  0  0  0  0  0  0  0  0  0  0  0
  -29.4690  -21.8000   20.6610 C   0  0  0  0  0  0  0  0  0  0  0  0
  -29.7460  -22.0770   24.4760 C   0  0  0  0  0  1  0  0  0  0  0  0
  -32.1740  -19.1490   21.2010 C   0  0  0  0  0  3  0  0  0  0  0  0
  -32.0950  -17.8740   20.7650 C   0  0  0  0  0  3  0  0  0  0  0  0
  -30.8560  -17.0490   20.4410 C   0  0  0  0  0  2  0  0  0  0  0  0
  -31.4800  -14.6560   20.2010 C   0  0  0  0  0  0  0  0  0  0  0  0
  -31.0520  -12.5320   19.0070 C   0  0  0  0  0  2  0  0  0  0  0  0
  -30.0790  -12.7710   17.8320 C   0  0  0  0  0  2  0  0  0  0  0  0
  -28.6170  -12.6610   18.3070 C   0  0  0  0  0  2  0  0  0  0  0  0
  -28.3450  -13.5010   19.5850 C   0  0  0  0  0  3  0  0  0  0  0  0
  -29.4250  -13.2370   20.6550 C   0  0  0  0  0  2  0  0  0  0  0  0
  -30.7470  -13.5140   20.0610 N   0  0  0  0  0  0  0  0  0  0  0  0
  -32.5100  -14.8570   19.5460 O   0  0  0  0  0  0  0  0  0  0  0  0
  -30.9380  -15.5720   22.4030 C   0  0  0  0  0  1  0  0  0  0  0  0
  -30.9260  -15.6550   20.9390 N   0  0  0  0  0  0  0  0  0  0  0  0
  -26.0210  -14.1800   20.4580 C   0  0  0  0  0  0  0  0  0  0  0  0
  -24.9320  -13.4390   20.8310 C   0  0  0  0  0  0  0  0  0  0  0  0
  -25.3150  -12.0710   20.6820 C   0  0  0  0  0  0  0  0  0  0  0  0
  -27.0030  -13.2650   20.1090 N   0  0  0  0  0  0  0  0  0  0  0  0
  -26.5840  -11.9870   20.3010 N   0  0  0  0  0  0  0  0  0  0  0  0
  -24.5310  -10.8370   20.8230 C   0  0  0  0  0  0  0  0  0  0  0  0
  -24.8990   -9.8310   21.7440 C   0  0  0  0  0  3  0  0  0  0  0  0
  -24.1180   -8.6630   21.8760 C   0  0  0  0  0  3  0  0  0  0  0  0
  -22.9570   -8.4910   21.0860 C   0  0  0  0  0  0  0  0  0  0  0  0
  -22.6090   -9.4850   20.1550 C   0  0  0  0  0  3  0  0  0  0  0  0
  -23.3890  -10.6450   20.0210 C   0  0  0  0  0  3  0  0  0  0  0  0
  -22.1560   -7.3750   21.1260 O   0  0  0  0  0  0  0  0  0  0  0  0
  -21.9600   -6.6720   22.2880 C   0  0  0  0  0  0  0  0  0  0  0  0
  -21.4140   -7.2770   23.4410 C   0  0  0  0  0  3  0  0  0  0  0  0
  -21.1620   -6.5010   24.5900 C   0  0  0  0  0  3  0  0  0  0  0  0
  -21.4440   -5.1220   24.5850 C   0  0  0  0  0  0  0  0  0  0  0  0
  -21.9820   -4.5170   23.4350 C   0  0  0  0  0  3  0  0  0  0  0  0
  -22.2350   -5.2900   22.2890 C   0  0  0  0  0  0  0  0  0  0  0  0
  -22.7320   -4.6990   21.1770 F   0  0  0  0  0  0  0  0  0  0  0  0
  -21.1960   -4.3750   25.6850 F   0  0  0  0  0  0  0  0  0  0  0  0
  -23.5780  -13.9670   21.2120 C   0  0  0  0  0  0  0  0  0  0  0  0
  -22.8700  -13.2650   22.0890 N   0  0  0  0  0  0  0  0  0  0  0  0
  -23.1600  -15.0360   20.7680 O   0  0  0  0  0  0  0  0  0  0  0  0
  -23.2220  -12.3990   22.4710 H   0  0  0  0  0  0  0  0  0  0  0  0
  -21.9650  -13.6000   22.3860 H   0  0  0  0  0  0  0  0  0  0  0  0
  -26.2530  -15.5500   20.3700 N   0  0  0  0  0  0  0  0  0  0  0  0
  -25.5340  -16.2350   20.5760 H   0  0  0  0  0  0  0  0  0  0  0  0
  -27.1230  -15.9670   20.0640 H   0  0  0  0  0  0  0  0  0  0  0  0
  -27.3240  -21.7540   19.3420 C   0  0  0  0  0  1  0  0  0  0  0  0
  -28.6830  -22.4480   19.5140 C   0  0  0  0  0  3  0  0  0  0  0  0
  -28.5070  -23.9240   19.6350 N   0  0  0  0  0  4  0  0  0  0  0  0
  -27.9030  -24.1850   18.8730 H   0  0  0  0  0  0  0  0  0  0  0  0
  -28.0210  -24.1440   20.4900 H   0  0  0  0  0  0  0  0  0  0  0  0
  -29.7310  -24.7580   19.5330 C   0  0  0  0  0  2  0  0  0  0  0  0
  -29.4520  -26.2240   19.1040 C   0  0  0  0  0  2  0  0  0  0  0  0
  -29.0290  -27.0760   20.1820 O   0  0  0  0  0  0  0  0  0  0  0  0
  -24.7140  -31.7930   23.3230 C   0  0  0  0  0  0  0  0  0  0  0  0
  -27.8000  -27.7080   20.1310 C   0  0  0  0  0  0  0  0  0  0  0  0
  -23.6900  -30.4320   21.5320 C   0  0  0  0  0  3  0  0  0  0  0  0
  -25.3110  -29.0690   20.1090 C   0  0  0  0  0  0  0  0  0  0  0  0
  -26.1970  -30.9370   21.5130 C   0  0  0  0  0  2  0  0  0  0  0  0
  -26.3990  -29.6150   20.7990 C   0  0  0  0  0  0  0  0  0  0  0  0
  -27.6390  -28.9360   20.8180 C   0  0  0  0  0  3  0  0  0  0  0  0
  -26.6800  -27.1670   19.4530 C   0  0  0  0  0  3  0  0  0  0  0  0
  -25.4440  -27.8400   19.4410 C   0  0  0  0  0  3  0  0  0  0  0  0
  -24.0180  -29.8540   20.1300 C   0  0  0  0  0  2  0  0  0  0  0  0
  -24.8810  -31.0670   22.1820 N   0  0  0  0  0  0  0  0  0  0  0  0
  -23.5900  -31.9700   23.8140 O   0  0  0  0  0  0  0  0  0  0  0  0
  -23.0490  -29.3150   22.3870 C   0  0  0  0  0  0  0  0  0  0  0  0
  -21.7350  -29.1030   22.2070 N   0  0  0  0  0  0  0  0  0  0  0  0
  -23.7320  -28.6450   23.1670 O   0  0  0  0  0  0  0  0  0  0  0  0
  -21.2450  -29.7010   21.5560 H   0  0  0  0  0  0  0  0  0  0  0  0
  -18.3820  -27.8050   22.5540 C   0  0  0  0  0  0  0  0  0  0  0  0
  -20.9320  -28.0810   22.8770 C   0  0  0  0  0  3  0  0  0  0  0  0
  -21.0670  -26.7130   22.1650 C   0  0  0  0  0  2  0  0  0  0  0  0
  -19.9790  -26.4710   21.1150 C   0  0  0  0  0  2  0  0  0  0  0  0
  -18.5900  -26.5290   21.7570 C   0  0  0  0  0  2  0  0  0  0  0  0
  -19.4830  -28.5430   23.0670 C   0  0  0  0  0  0  0  0  0  0  0  0
  -19.2380  -29.7410   23.7730 C   0  0  0  0  0  3  0  0  0  0  0  0
  -17.9230  -30.2030   23.9700 C   0  0  0  0  0  3  0  0  0  0  0  0
  -16.8370  -29.4620   23.4720 C   0  0  0  0  0  3  0  0  0  0  0  0
  -17.0660  -28.2640   22.7730 C   0  0  0  0  0  3  0  0  0  0  0  0
  -25.9230  -32.4560   24.0550 C   0  0  0  0  0  3  0  0  0  0  0  0
  -25.5690  -33.8570   24.3190 N   0  0  0  0  0  0  0  0  0  0  0  0
  -25.9730  -34.8950   23.5750 C   0  0  0  0  0  0  0  0  0  0  0  0
  -26.7540  -34.7760   22.6260 O   0  0  0  0  0  0  0  0  0  0  0  0
  -24.8890  -34.0210   25.0470 H   0  0  0  0  0  0  0  0  0  0  0  0
  -24.2780  -36.6580   22.9860 C   0  0  0  0  0  1  0  0  0  0  0  0
  -25.4240  -36.2870   23.9420 C   0  0  0  0  0  3  0  0  0  0  0  0
  -27.4440  -37.2150   24.9860 C   0  0  0  0  0  1  0  0  0  0  0  0
  -26.4530  -37.3490   23.9210 N   0  0  0  0  0  0  0  0  0  0  0  0
  -26.0250  -38.2670   24.0000 H   0  0  0  0  0  0  0  0  0  0  0  0
  -26.3170  -31.7210   25.3950 C   0  0  1  0  0  0  0  0  0  0  0  0
  -25.1240  -31.4760   26.3470 C   0  0  0  0  0  1  0  0  0  0  0  0
  -26.9690  -30.3500   25.0930 C   0  0  0  0  0  1  0  0  0  0  0  0
  -27.3700  -32.5540   26.1590 C   0  0  0  0  0  1  0  0  0  0  0  0
  1  5  1  0
  2  6  2  0
  2  4  1  0
  3  5  2  0
  4  1  2  0
  5  7  1  0
  6  3  1  0
  8  4  1  0
  9  8  2  0
 10  9  1  0
 10 20  1  0
 11 20  1  0
 12 17  1  0
 13 14  1  0
 13 12  1  0
 15 14  1  0
 15 24  1  0
 15 16  1  0
 17 11  1  0
 17 16  1  0
 18 11  2  0
 20 19  1  0
 21 22  2  0
 22 41  1  0
 23 26  1  0
 23 22  1  0
 24 25  1  0
 24 21  1  0
 25 23  2  0
 26 27  1  0
 27 28  2  0
 29 32  1  0
 29 28  1  0
 30 29  2  0
 31 30  1  0
 31 26  2  0
 32 33  1  0
 33 38  2  0
 33 34  1  0
 34 35  2  0
 36 35  1  0
 36 40  1  0
 37 36  2  0
 38 37  1  0
 39 38  1  0
 41 42  1  0
 42 45  1  0
 42 44  1  0
 43 41  2  0
 46 21  1  0
 46 47  1  0
 48 46  1  0
 50 49  1  0
 50 51  1  0
 50  6  1  0
 51 53  1  0
 52 51  1  0
 54 51  1  0
 55 54  1  0
 55 56  1  0
 57 68  2  0
 58 56  1  0
 58 63  1  0
 59 67  1  0
 59 69  1  0
 60 66  1  0
 60 62  1  0
 61 67  1  0
 62 63  2  0
 62 61  1  0
 64 58  2  0
 65 64  1  0
 65 60  2  0
 66 59  1  0
 67 57  1  0
 69 71  2  0
 70 69  1  0
 72 70  1  0
 73 82  2  0
 73 78  1  0
 74 70  1  0
 74 78  1  0
 75 74  1  0
 76 77  1  0
 76 75  1  0
 77 73  1  0
 78 79  2  0
 79 80  1  0
 81 80  2  0
 82 81  1  0
 83 57  1  0
 83 84  1  0
 83 93  1  0
 84 87  1  0
 85 89  1  0
 85 84  1  0
 86 85  2  0
 89 88  1  0
 91 89  1  0
 91 92  1  0
 91 90  1  0
 93 96  1  1
 93 94  1  0
 95 93  1  0
M  ISO  4  11 100  20 100  55 101  56 101
M  END
>  <TORSDO>  (75) 
F 22

>  <SCORE>  (75) 
-11.945

>  <name>  (75) 
75

>  <ligand_id>  (75) 
75

>  <original_smiles>  (75) 
[H]C(=C([H])C([H])([H])N(C(=O)N1C([H])([H])C([H])([H])C([H])([H])C([H])(n2nc(-c3c([H])c([H])c(Oc4c([H])c([H])c(F)c([H])c4F)c([H])c3[H])c(C(=O)N([H])[H])c2N([H])[H])C1([H])[H])C([H])([H])[H])c1c([H])c(C([H])([H])[H])c([H])c(C([H])(C([H])([H])[H])[N+]([H])([H])C([H])([H])C([H])([H])Oc2c([H])c([H])c3c(c2[H])C([H])([H])N(C(=O)C([H])(N([H])C(=O)C([H])(N([H])C([H])([H])[H])C([H])([H])[H])C(C([H])([H])[H])(C([H])([H])[H])C([H])([H])[H])C([H])(C(=O)N([H])C2([H])c4c([H])c([H])c([H])c([H])c4C([H])([H])C([H])([H])C2([H])[H])C3([H])[H])c1[H]

>  <smiles>  (75) 
[H]C(=C([H])C([H])([H])N(C(=O)N1C([H])([H])C([H])([H])C([H])([H])C([H])(n2nc(-c3c([H])c([H])c(Oc4c([H])c([H])c(F)c([H])c4F)c([H])c3[H])c(C(=O)N([H])[H])c2N([H])[H])C1([H])[H])C([H])([H])[H])c1c([H])c(C([H])([H])[H])c([H])c(C([H])(C([H])([H])[H])[N+]([H])([H])C([H])([H])C([H])([H])Oc2c([H])c([H])c3c(c2[H])C([H])([H])N(C(=O)C([H])(N([H])C(=O)C([H])(N([H])C([H])([H])[H])C([H])([H])[H])C(C([H])([H])[H])(C([H])([H])[H])C([H])([H])[H])C([H])(C(=O)N([H])C2([H])c4c([H])c([H])c([H])c([H])c4C([H])([H])C([H])([H])C2([H])[H])C3([H])[H])c1[H]

$$$$
76:0:0
     RDKit          3D

 93101  0  0  1  0  0  0  0  0999 V2000
  -29.2600  -23.0730   21.8650 C   0  0  0  0  0  3  0  0  0  0  0  0
  -31.4380  -23.8840   21.1380 C   0  0  0  0  0  3  0  0  0  0  0  0
  -28.7010  -24.3320   21.5750 C   0  0  0  0  0  3  0  0  0  0  0  0
  -30.8770  -25.1450   20.8490 C   0  0  0  0  0  3  0  0  0  0  0  0
  -30.6340  -22.8280   21.6290 C   0  0  0  0  0  0  0  0  0  0  0  0
  -29.5010  -25.3660   21.0500 C   0  0  0  0  0  0  0  0  0  0  0  0
  -31.2540  -21.4900   21.8860 C   0  0  0  0  0  0  0  0  0  0  0  0
  -32.4780  -21.3200   21.9410 O   0  0  0  0  0  0  0  0  0  0  0  0
  -30.3190  -20.2850   22.0520 C   0  0  0  0  0  2  0  0  0  0  0  0
  -31.0640  -19.0620   21.6950 N   0  0  0  0  0  4  0  0  0  0  0  0
  -31.8700  -19.0060   22.3000 H   0  0  0  0  0  0  0  0  0  0  0  0
  -31.4090  -19.1950   20.7590 H   0  0  0  0  0  0  0  0  0  0  0  0
  -30.2660  -17.8220   21.7600 C   0  0  0  0  0  2  0  0  0  0  0  0
  -30.9710  -16.6600   21.0430 C   0  0  0  0  0  2  0  0  0  0  0  0
  -30.1740  -15.3380   21.1040 C   0  0  0  0  0  2  0  0  0  0  0  0
  -30.7160  -14.2440   20.1680 C   0  0  0  0  0  0  0  0  0  0  0  0
  -30.3550  -12.0950   19.0050 C   0  0  0  0  0  2  0  0  0  0  0  0
  -29.3520  -12.2630   17.8480 C   0  0  0  0  0  2  0  0  0  0  0  0
  -27.9020  -12.1220   18.3530 C   0  0  0  0  0  2  0  0  0  0  0  0
  -27.6200  -12.9960   19.6040 C   0  0  0  0  0  3  0  0  0  0  0  0
  -28.7240  -12.8000   20.6680 C   0  0  0  0  0  2  0  0  0  0  0  0
  -30.0230  -13.0840   20.0380 N   0  0  0  0  0  0  0  0  0  0  0  0
  -31.7460  -14.4720   19.5240 O   0  0  0  0  0  0  0  0  0  0  0  0
  -25.2550  -13.6140   20.4180 C   0  0  0  0  0  0  0  0  0  0  0  0
  -24.2060  -12.8450   20.8470 C   0  0  0  0  0  0  0  0  0  0  0  0
  -24.6660  -11.4930   20.8050 C   0  0  0  0  0  0  0  0  0  0  0  0
  -26.2900  -12.7310   20.1490 N   0  0  0  0  0  0  0  0  0  0  0  0
  -25.9390  -11.4500   20.4360 N   0  0  0  0  0  0  0  0  0  0  0  0
  -23.9520  -10.2320   21.0420 C   0  0  0  0  0  0  0  0  0  0  0  0
  -24.3970   -9.3010   22.0070 C   0  0  0  0  0  3  0  0  0  0  0  0
  -23.6830   -8.1030   22.2290 C   0  0  0  0  0  3  0  0  0  0  0  0
  -22.5110   -7.8280   21.4870 C   0  0  0  0  0  0  0  0  0  0  0  0
  -22.0840   -8.7480   20.5120 C   0  0  0  0  0  3  0  0  0  0  0  0
  -22.7980   -9.9360   20.2880 C   0  0  0  0  0  3  0  0  0  0  0  0
  -21.7680   -6.6790   21.6170 O   0  0  0  0  0  0  0  0  0  0  0  0
  -21.6970   -5.9990   22.8060 C   0  0  0  0  0  0  0  0  0  0  0  0
  -21.2100   -6.6070   23.9840 C   0  0  0  0  0  3  0  0  0  0  0  0
  -21.0890   -5.8510   25.1670 C   0  0  0  0  0  3  0  0  0  0  0  0
  -21.4440   -4.4900   25.1740 C   0  0  0  0  0  0  0  0  0  0  0  0
  -21.9230   -3.8810   24.0000 C   0  0  0  0  0  3  0  0  0  0  0  0
  -22.0460   -4.6340   22.8190 C   0  0  0  0  0  0  0  0  0  0  0  0
  -22.4890   -4.0390   21.6860 F   0  0  0  0  0  0  0  0  0  0  0  0
  -21.3190   -3.7610   26.3080 F   0  0  0  0  0  0  0  0  0  0  0  0
  -22.8230  -13.3230   21.1840 C   0  0  0  0  0  0  0  0  0  0  0  0
  -22.1380  -12.6310   22.0880 N   0  0  0  0  0  0  0  0  0  0  0  0
  -22.3590  -14.3450   20.6810 O   0  0  0  0  0  0  0  0  0  0  0  0
  -22.5280  -11.8030   22.5150 H   0  0  0  0  0  0  0  0  0  0  0  0
  -21.2130  -12.9320   22.3570 H   0  0  0  0  0  0  0  0  0  0  0  0
  -25.4110  -14.9820   20.2190 N   0  0  0  0  0  0  0  0  0  0  0  0
  -24.6500  -15.6400   20.3520 H   0  0  0  0  0  0  0  0  0  0  0  0
  -26.2460  -15.4150   19.8470 H   0  0  0  0  0  0  0  0  0  0  0  0
  -28.8660  -26.7050   20.7400 C   0  0  0  0  0  2  0  0  0  0  0  0
  -27.8260  -26.5500   19.7730 O   0  0  0  0  0  0  0  0  0  0  0  0
  -24.5010  -31.8200   23.2260 C   0  0  0  0  0  0  0  0  0  0  0  0
  -26.7330  -27.3760   19.8880 C   0  0  0  0  0  0  0  0  0  0  0  0
  -23.1220  -30.5300   21.6230 C   0  0  0  0  0  3  0  0  0  0  0  0
  -24.4080  -28.9630   20.0740 C   0  0  0  0  0  0  0  0  0  0  0  0
  -25.6390  -30.7810   21.2740 C   0  0  0  0  0  2  0  0  0  0  0  0
  -25.6170  -29.4270   20.6040 C   0  0  0  0  0  0  0  0  0  0  0  0
  -26.7830  -28.6440   20.5110 C   0  0  0  0  0  3  0  0  0  0  0  0
  -25.5140  -26.9230   19.3480 C   0  0  0  0  0  3  0  0  0  0  0  0
  -24.3480  -27.7070   19.4430 C   0  0  0  0  0  3  0  0  0  0  0  0
  -23.2100  -29.8760   20.2160 C   0  0  0  0  0  2  0  0  0  0  0  0
  -24.4430  -31.0540   22.0990 N   0  0  0  0  0  0  0  0  0  0  0  0
  -23.4710  -32.1320   23.8400 O   0  0  0  0  0  0  0  0  0  0  0  0
  -22.4770  -29.5170   22.5950 C   0  0  0  0  0  0  0  0  0  0  0  0
  -21.1500  -29.3470   22.4840 N   0  0  0  0  0  0  0  0  0  0  0  0
  -23.1660  -28.8890   23.4030 O   0  0  0  0  0  0  0  0  0  0  0  0
  -20.6580  -29.9080   21.8010 H   0  0  0  0  0  0  0  0  0  0  0  0
  -17.7870  -28.1140   22.9440 C   0  0  0  0  0  0  0  0  0  0  0  0
  -20.3330  -28.4200   23.2660 C   0  0  0  0  0  3  0  0  0  0  0  0
  -20.4710  -26.9750   22.7350 C   0  0  0  0  0  2  0  0  0  0  0  0
  -19.3980  -26.6040   21.7060 C   0  0  0  0  0  2  0  0  0  0  0  0
  -17.9990  -26.7470   22.3160 C   0  0  0  0  0  2  0  0  0  0  0  0
  -18.8830  -28.9060   23.3750 C   0  0  0  0  0  0  0  0  0  0  0  0
  -18.6340  -30.1850   23.9200 C   0  0  0  0  0  3  0  0  0  0  0  0
  -17.3180  -30.6720   24.0370 C   0  0  0  0  0  3  0  0  0  0  0  0
  -16.2350  -29.8770   23.6250 C   0  0  0  0  0  3  0  0  0  0  0  0
  -16.4700  -28.6000   23.0840 C   0  0  0  0  0  3  0  0  0  0  0  0
  -25.8560  -32.3590   23.7820 C   0  0  0  0  0  3  0  0  0  0  0  0
  -25.6430  -33.7550   24.1850 N   0  0  0  0  0  0  0  0  0  0  0  0
  -26.0100  -34.8200   23.4590 C   0  0  0  0  0  0  0  0  0  0  0  0
  -26.6360  -34.7250   22.4000 O   0  0  0  0  0  0  0  0  0  0  0  0
  -25.0910  -33.9070   25.0160 H   0  0  0  0  0  0  0  0  0  0  0  0
  -24.3830  -36.7230   23.2380 C   0  0  0  0  0  1  0  0  0  0  0  0
  -25.6200  -36.2100   23.9930 C   0  0  0  0  0  3  0  0  0  0  0  0
  -27.8230  -36.9320   24.8030 C   0  0  0  0  0  1  0  0  0  0  0  0
  -26.7100  -37.2050   23.8970 N   0  0  0  0  0  0  0  0  0  0  0  0
  -26.3620  -38.1400   24.0950 H   0  0  0  0  0  0  0  0  0  0  0  0
  -26.4190  -31.5080   24.9850 C   0  0  1  0  0  0  0  0  0  0  0  0
  -25.3910  -31.2750   26.1160 C   0  0  0  0  0  1  0  0  0  0  0  0
  -26.9030  -30.1250   24.4900 C   0  0  0  0  0  1  0  0  0  0  0  0
  -27.6500  -32.2170   25.5990 C   0  0  0  0  0  1  0  0  0  0  0  0
  2  5  2  0
  3  1  2  0
  4  6  2  0
  4  2  1  0
  5  1  1  0
  5  7  1  0
  6  3  1  0
  7  8  2  0
  7  9  1  0
 10 13  1  0
 10  9  1  0
 10 11  1  0
 12 10  1  0
 14 15  1  0
 14 13  1  0
 16 15  1  0
 17 22  1  0
 18 19  1  0
 18 17  1  0
 20 19  1  0
 20 27  1  0
 20 21  1  0
 22 16  1  0
 22 21  1  0
 23 16  2  0
 24 25  2  0
 25 44  1  0
 26 25  1  0
 26 29  1  0
 27 24  1  0
 27 28  1  0
 28 26  2  0
 29 30  1  0
 30 31  2  0
 32 35  1  0
 32 31  1  0
 33 32  2  0
 34 33  1  0
 34 29  2  0
 35 36  1  0
 36 41  2  0
 36 37  1  0
 37 38  2  0
 38 39  1  0
 39 43  1  0
 40 39  2  0
 41 40  1  0
 42 41  1  0
 44 45  1  0
 45 48  1  0
 45 47  1  0
 46 44  2  0
 49 50  1  0
 49 24  1  0
 51 49  1  0
 52  6  1  0
 53 55  1  0
 53 52  1  0
 54 65  2  0
 55 60  1  0
 56 64  1  0
 56 66  1  0
 57 63  1  0
 57 59  1  0
 58 64  1  0
 59 58  1  0
 60 59  2  0
 61 62  1  0
 61 55  2  0
 62 57  2  0
 63 56  1  0
 64 54  1  0
 66 68  2  0
 67 66  1  0
 69 67  1  0
 70 79  2  0
 70 75  1  0
 71 67  1  0
 71 75  1  0
 72 71  1  0
 73 74  1  0
 73 72  1  0
 74 70  1  0
 75 76  2  0
 76 77  1  0
 78 77  2  0
 79 78  1  0
 80 54  1  0
 80 81  1  0
 80 90  1  0
 81 84  1  0
 82 86  1  0
 82 81  1  0
 83 82  2  0
 86 85  1  0
 88 86  1  0
 88 89  1  0
 88 87  1  0
 90 93  1  1
 90 91  1  0
 92 90  1  0
M  ISO  4  15 100  16 100  52 101  53 101
M  END
>  <TORSDO>  (76) 
F 23

>  <SCORE>  (76) 
-12.064

>  <name>  (76) 
76

>  <ligand_id>  (76) 
76

>  <original_smiles>  (76) 
[H]c1c([H])c([H])c2c(c1[H])C([H])([H])C([H])([H])C([H])([H])C2([H])N([H])C(=O)C1([H])N(C(=O)C([H])(N([H])C(=O)C([H])(N([H])C([H])([H])[H])C([H])([H])[H])C(C([H])([H])[H])(C([H])([H])[H])C([H])([H])[H])C([H])([H])c2c([H])c(OC([H])([H])c3c([H])c([H])c(C(=O)C([H])([H])[N+]([H])([H])C([H])([H])C([H])([H])C([H])([H])C(=O)N4C([H])([H])C([H])([H])C([H])([H])C([H])(n5nc(-c6c([H])c([H])c(Oc7c([H])c([H])c(F)c([H])c7F)c([H])c6[H])c(C(=O)N([H])[H])c5N([H])[H])C4([H])[H])c([H])c3[H])c([H])c([H])c2C1([H])[H]

>  <smiles>  (76) 
[H]c1c([H])c([H])c2c(c1[H])C([H])([H])C([H])([H])C([H])([H])C2([H])N([H])C(=O)C1([H])N(C(=O)C([H])(N([H])C(=O)C([H])(N([H])C([H])([H])[H])C([H])([H])[H])C(C([H])([H])[H])(C([H])([H])[H])C([H])([H])[H])C([H])([H])c2c([H])c(OC([H])([H])c3c([H])c([H])c(C(=O)C([H])([H])[N+]([H])([H])C([H])([H])C([H])([H])C([H])([H])C(=O)N4C([H])([H])C([H])([H])C([H])([H])C([H])(n5nc(-c6c([H])c([H])c(Oc7c([H])c([H])c(F)c([H])c7F)c([H])c6[H])c(C(=O)N([H])[H])c5N([H])[H])C4([H])[H])c([H])c3[H])c([H])c([H])c2C1([H])[H]

$$$$
77:0:0
     RDKit          3D

109116  0  0  1  0  0  0  0  0999 V2000
  -21.2640  -18.9960   20.2030 C   0  0  0  0  0  2  0  0  0  0  0  0
  -22.5700  -19.6650   20.6680 C   0  0  0  0  0  2  0  0  0  0  0  0
  -22.3260  -21.1420   21.0700 C   0  0  0  0  0  2  0  0  0  0  0  0
  -24.4660  -22.6830   23.8590 C   0  0  0  0  0  3  0  0  0  0  0  0
  -23.4320  -22.0230   23.1700 C   0  0  0  0  0  3  0  0  0  0  0  0
  -25.5810  -23.1640   23.1490 C   0  0  0  0  0  3  0  0  0  0  0  0
  -23.4950  -21.8410   21.7700 C   0  0  0  0  0  0  0  0  0  0  0  0
  -24.6200  -22.3380   21.0500 C   0  0  0  0  0  0  0  0  0  0  0  0
  -25.6760  -22.9870   21.7500 C   0  0  0  0  0  0  0  0  0  0  0  0
  -24.6670  -22.1810   19.5320 C   0  0  0  0  0  1  0  0  0  0  0  0
  -26.8080  -23.4250   21.0450 N   0  0  0  0  0  0  0  0  0  0  0  0
  -26.6960  -23.2620   20.0490 H   0  0  0  0  0  0  0  0  0  0  0  0
  -27.2840  -24.7840   21.2810 C   0  0  0  0  0  2  0  0  0  0  0  0
  -28.1650  -25.2960   20.0990 C   0  0  0  0  0  2  0  0  0  0  0  0
  -28.3430  -26.7120   20.1350 O   0  0  0  0  0  0  0  0  0  0  0  0
  -24.6080  -31.8710   23.2200 C   0  0  0  0  0  0  0  0  0  0  0  0
  -27.1930  -27.4710   20.0690 C   0  0  0  0  0  0  0  0  0  0  0  0
  -23.3830  -30.5010   21.5620 C   0  0  0  0  0  3  0  0  0  0  0  0
  -24.8150  -28.9940   20.0930 C   0  0  0  0  0  0  0  0  0  0  0  0
  -25.9010  -30.8520   21.3460 C   0  0  0  0  0  2  0  0  0  0  0  0
  -25.9740  -29.4870   20.7060 C   0  0  0  0  0  0  0  0  0  0  0  0
  -27.1640  -28.7270   20.7040 C   0  0  0  0  0  3  0  0  0  0  0  0
  -26.0290  -27.0120   19.4040 C   0  0  0  0  0  3  0  0  0  0  0  0
  -24.8370  -27.7580   19.4320 C   0  0  0  0  0  3  0  0  0  0  0  0
  -23.5770  -29.8570   20.1650 C   0  0  0  0  0  2  0  0  0  0  0  0
  -24.6510  -31.0890   22.1030 N   0  0  0  0  0  0  0  0  0  0  0  0
  -23.5320  -32.1390   23.7700 O   0  0  0  0  0  0  0  0  0  0  0  0
  -22.7400  -29.4610   22.5040 C   0  0  0  0  0  0  0  0  0  0  0  0
  -21.4150  -29.2950   22.3780 N   0  0  0  0  0  0  0  0  0  0  0  0
  -23.4250  -28.8120   23.3010 O   0  0  0  0  0  0  0  0  0  0  0  0
  -20.9350  -29.8660   21.6950 H   0  0  0  0  0  0  0  0  0  0  0  0
  -18.0270  -28.1410   22.8460 C   0  0  0  0  0  0  0  0  0  0  0  0
  -20.5850  -28.3630   23.1390 C   0  0  0  0  0  3  0  0  0  0  0  0
  -20.6710  -26.9360   22.5500 C   0  0  0  0  0  2  0  0  0  0  0  0
  -19.5780  -26.6490   21.5180 C   0  0  0  0  0  2  0  0  0  0  0  0
  -18.1910  -26.7980   22.1520 C   0  0  0  0  0  2  0  0  0  0  0  0
  -19.1540  -28.8830   23.2920 C   0  0  0  0  0  0  0  0  0  0  0  0
  -18.9480  -30.1400   23.9040 C   0  0  0  0  0  3  0  0  0  0  0  0
  -17.6510  -30.6540   24.0710 C   0  0  0  0  0  3  0  0  0  0  0  0
  -16.5390  -29.9120   23.6320 C   0  0  0  0  0  3  0  0  0  0  0  0
  -16.7290  -28.6560   23.0260 C   0  0  0  0  0  3  0  0  0  0  0  0
  -25.9010  -32.4880   23.8420 C   0  0  0  0  0  3  0  0  0  0  0  0
  -25.5880  -33.8690   24.2370 N   0  0  0  0  0  0  0  0  0  0  0  0
  -25.9000  -34.9540   23.5170 C   0  0  0  0  0  0  0  0  0  0  0  0
  -26.5590  -34.8990   22.4750 O   0  0  0  0  0  0  0  0  0  0  0  0
  -25.0050  -33.9820   25.0540 H   0  0  0  0  0  0  0  0  0  0  0  0
  -24.1440  -36.7350   23.2630 C   0  0  0  0  0  1  0  0  0  0  0  0
  -25.4080  -36.3190   24.0340 C   0  0  0  0  0  3  0  0  0  0  0  0
  -27.5580  -37.1860   24.8480 C   0  0  0  0  0  1  0  0  0  0  0  0
  -26.4280  -37.3870   23.9430 N   0  0  0  0  0  0  0  0  0  0  0  0
  -26.0190  -38.2950   24.1430 H   0  0  0  0  0  0  0  0  0  0  0  0
  -26.4470  -31.6640   25.0730 C   0  0  1  0  0  0  0  0  0  0  0  0
  -25.3800  -31.3640   26.1510 C   0  0  0  0  0  1  0  0  0  0  0  0
  -27.0260  -30.3130   24.5950 C   0  0  0  0  0  1  0  0  0  0  0  0
  -27.6070  -32.4280   25.7530 C   0  0  0  0  0  1  0  0  0  0  0  0
  -21.3760  -17.4980   19.8480 C   0  0  0  0  0  2  0  0  0  0  0  0
  -21.3930  -17.2540   18.4080 N   0  0  0  0  0  0  0  0  0  0  0  0
  -21.9350  -17.9620   17.9210 H   0  0  0  0  0  0  0  0  0  0  0  0
  -20.9360  -14.8280   18.2020 C   0  0  0  0  0  3  0  0  0  0  0  0
  -23.0850  -15.7490   17.5490 C   0  0  0  0  0  3  0  0  0  0  0  0
  -21.4060  -13.5200   17.9030 C   0  0  0  0  0  3  0  0  0  0  0  0
  -23.5440  -14.4560   17.2440 C   0  0  0  0  0  3  0  0  0  0  0  0
  -21.7880  -15.9490   18.0550 C   0  0  0  0  0  0  0  0  0  0  0  0
  -22.7380  -13.3090   17.4660 C   0  0  0  0  0  0  0  0  0  0  0  0
  -23.2360  -11.9880   17.2780 N   0  0  0  0  0  0  0  0  0  0  0  0
  -22.6220  -11.1750   17.3150 H   0  0  0  0  0  0  0  0  0  0  0  0
  -24.6760  -11.7830   17.0870 C   0  0  0  0  0  2  0  0  0  0  0  0
  -25.3680  -10.4520   17.5880 C   0  0  0  0  0  2  0  0  0  0  0  0
  -26.8880  -10.8020   17.7010 C   0  0  0  0  0  2  0  0  0  0  0  0
  -28.0870  -10.4140   18.6610 C   0  0  0  0  0  2  0  0  0  0  0  0
  -28.8490  -11.4550   19.7440 C   0  0  0  0  0  1  0  0  0  0  0  0
  -30.7060  -13.9700   20.5450 C   0  0  0  0  0  3  0  0  0  0  0  0
  -31.0390  -11.9820   18.9750 C   0  0  0  0  0  1  0  0  0  0  0  0
  -29.6830  -12.4690   17.6590 C   0  0  0  0  0  3  0  0  0  0  0  0
  -28.0120  -13.2550   18.2490 C   0  0  0  0  0  3  0  0  0  0  0  0
  -27.4920  -13.4590   20.0970 C   0  0  0  0  0  3  0  0  0  0  0  0
  -28.7200  -13.0520   21.5280 C   0  0  0  0  0  1  0  0  0  0  0  0
  -30.4170  -12.7540   20.6740 N   0  0  0  0  0  2  0  0  0  0  0  0
  -31.6380  -14.6220   20.0620 O   0  0  0  0  0  1  0  0  0  0  0  0
  -29.7920  -13.5060   19.7500 N   0  0  0  0  0  0  0  0  0  0  0  0
  -29.6740  -14.0200   18.8910 H   0  0  0  0  0  0  0  0  0  0  0  0
  -25.1080  -13.8770   20.5880 C   0  0  0  0  0  0  0  0  0  0  0  0
  -24.0810  -13.0600   20.9460 C   0  0  0  0  0  0  0  0  0  0  0  0
  -24.5730  -11.7220   20.9110 C   0  0  0  0  0  0  0  0  0  0  0  0
  -26.1710  -13.0420   20.4250 N   0  0  0  0  0  0  0  0  0  0  0  0
  -25.8690  -11.7450   20.6880 N   0  0  0  0  0  0  0  0  0  0  0  0
  -23.8790  -10.4370   21.0640 C   0  0  0  0  0  0  0  0  0  0  0  0
  -24.3440   -9.4290   21.9320 C   0  0  0  0  0  3  0  0  0  0  0  0
  -23.6260   -8.2260   22.0810 C   0  0  0  0  0  3  0  0  0  0  0  0
  -22.4270   -8.0230   21.3550 C   0  0  0  0  0  0  0  0  0  0  0  0
  -21.9900   -9.0190   20.4670 C   0  0  0  0  0  3  0  0  0  0  0  0
  -22.7030  -10.2170   20.3200 C   0  0  0  0  0  3  0  0  0  0  0  0
  -21.6600   -6.8810   21.4220 O   0  0  0  0  0  0  0  0  0  0  0  0
  -21.6810   -6.0760   22.5310 C   0  0  0  0  0  0  0  0  0  0  0  0
  -21.3980   -6.5640   23.8230 C   0  0  0  0  0  3  0  0  0  0  0  0
  -21.3630   -5.6770   24.9190 C   0  0  0  0  0  3  0  0  0  0  0  0
  -21.6030   -4.3050   24.7270 C   0  0  0  0  0  0  0  0  0  0  0  0
  -21.8880   -3.8170   23.4400 C   0  0  0  0  0  3  0  0  0  0  0  0
  -21.9150   -4.6990   22.3430 C   0  0  0  0  0  0  0  0  0  0  0  0
  -22.1660   -4.2180   21.1000 F   0  0  0  0  0  0  0  0  0  0  0  0
  -21.5580   -3.4520   25.7760 F   0  0  0  0  0  0  0  0  0  0  0  0
  -22.7020  -13.5170   21.2470 C   0  0  0  0  0  0  0  0  0  0  0  0
  -21.9860  -12.7860   22.0940 N   0  0  0  0  0  0  0  0  0  0  0  0
  -22.2880  -14.5800   20.8130 O   0  0  0  0  0  0  0  0  0  0  0  0
  -22.3430  -11.9260   22.4790 H   0  0  0  0  0  0  0  0  0  0  0  0
  -21.0690  -13.1020   22.3690 H   0  0  0  0  0  0  0  0  0  0  0  0
  -25.2400  -15.2480   20.4150 N   0  0  0  0  0  0  0  0  0  0  0  0
  -24.4270  -15.8490   20.4310 H   0  0  0  0  0  0  0  0  0  0  0  0
  -26.0760  -15.7180   20.0940 H   0  0  0  0  0  0  0  0  0  0  0  0
  1  2  1  0
  2  3  1  0
  3  7  1  0
  5  4  1  0
  6  4  2  0
  7  5  2  0
  8  9  2  0
  8  7  1  0
  9  6  1  0
 10  8  1  0
 11 13  1  0
 11  9  1  0
 12 11  1  0
 14 15  1  0
 14 13  1  0
 16 27  2  0
 17 15  1  0
 17 22  1  0
 18 26  1  0
 18 28  1  0
 19 25  1  0
 19 21  1  0
 20 26  1  0
 21 20  1  0
 22 21  2  0
 23 24  1  0
 23 17  2  0
 24 19  2  0
 25 18  1  0
 26 16  1  0
 28 30  2  0
 29 28  1  0
 31 29  1  0
 32 41  2  0
 32 37  1  0
 33 29  1  0
 33 37  1  0
 34 33  1  0
 35 36  1  0
 35 34  1  0
 36 32  1  0
 37 38  2  0
 38 39  1  0
 40 39  2  0
 41 40  1  0
 42 16  1  0
 42 43  1  0
 42 52  1  0
 43 46  1  0
 44 48  1  0
 44 43  1  0
 45 44  2  0
 48 47  1  0
 50 48  1  0
 50 51  1  0
 50 49  1  0
 52 55  1  1
 52 53  1  0
 54 52  1  0
 56  1  1  0
 57 56  1  0
 58 57  1  0
 60 63  2  0
 61 59  2  0
 62 64  2  0
 62 60  1  0
 63 59  1  0
 63 57  1  0
 64 61  1  0
 65 66  1  0
 65 64  1  0
 67 65  1  0
 67 68  1  0
 68 69  1  0
 69 70  1  0
 70 71  1  0
 72 79  1  0
 72 78  1  0
 74 75  2  0
 74 73  1  0
 75 76  1  0
 76 85  1  0
 76 77  1  0
 80 72  1  0
 80 78  1  0
 81 80  1  0
 82 83  2  0
 83102  1  0
 84 83  1  0
 84 87  1  0
 85 82  1  0
 85 86  1  0
 86 84  2  0
 87 88  1  0
 88 89  2  0
 90 93  1  0
 90 89  1  0
 91 90  2  0
 92 91  1  0
 92 87  2  0
 93 94  1  0
 94 95  1  0
 95 96  2  0
 97 96  1  0
 97101  1  0
 98 97  2  0
 99 94  2  0
 99 98  1  0
100 99  1  0
102103  1  0
103106  1  0
103105  1  0
104102  2  0
107108  1  0
107 82  1  0
109107  1  0
M  ISO  4  14 101  15 101  72 100  80 100
M  END
>  <TORSDO>  (77) 
F 31

>  <SCORE>  (77) 
64.754

>  <name>  (77) 
77

>  <ligand_id>  (77) 
77

>  <original_smiles>  (77) 
[H]c1c([H])c(N([H])C([H])([H])C([H])([H])Oc2c([H])c([H])c3c(c2[H])C([H])([H])N(C(=O)C([H])(N([H])C(=O)C([H])(N([H])C([H])([H])[H])C([H])([H])[H])C(C([H])([H])[H])(C([H])([H])[H])C([H])([H])[H])C([H])(C(=O)N([H])C2([H])c4c([H])c([H])c([H])c([H])c4C([H])([H])C([H])([H])C2([H])[H])C3([H])[H])c(C([H])([H])[H])c(C([H])([H])C([H])([H])C([H])([H])C([H])([H])N([H])c2c([H])c([H])c(N([H])C([H])([H])C([H])([H])C([H])([H])C([H])([H])C([H])([H])N([H])C(=O)N3C([H])([H])C([H])([H])C([H])([H])C([H])(n4nc(-c5c([H])c([H])c(Oc6c([H])c([H])c(F)c([H])c6F)c([H])c5[H])c(C(=O)N([H])[H])c4N([H])[H])C3([H])[H])c([H])c2[H])c1[H]

>  <smiles>  (77) 
[H]c1c([H])c(N([H])C([H])([H])C([H])([H])Oc2c([H])c([H])c3c(c2[H])C([H])([H])N(C(=O)C([H])(N([H])C(=O)C([H])(N([H])C([H])([H])[H])C([H])([H])[H])C(C([H])([H])[H])(C([H])([H])[H])C([H])([H])[H])C([H])(C(=O)N([H])C2([H])c4c([H])c([H])c([H])c([H])c4C([H])([H])C([H])([H])C2([H])[H])C3([H])[H])c(C([H])([H])[H])c(C([H])([H])C([H])([H])C([H])([H])C([H])([H])N([H])c2c([H])c([H])c(N([H])C([H])([H])C([H])([H])C([H])([H])C([H])([H])C([H])([H])N([H])C(=O)N3C([H])([H])C([H])([H])C([H])([H])C([H])(n4nc(-c5c([H])c([H])c(Oc6c([H])c([H])c(F)c([H])c6F)c([H])c5[H])c(C(=O)N([H])[H])c4N([H])[H])C3([H])[H])c([H])c2[H])c1[H]

$$$$
78:0:0
     RDKit          3D

 94102  0  0  1  0  0  0  0  0999 V2000
  -30.5580  -16.3100   19.2600 C   0  0  0  0  0  0  0  0  0  0  0  0
  -31.1760  -17.5990   19.2350 C   0  0  0  0  0  0  0  0  0  0  0  0
  -29.0490  -16.4010   19.4920 C   0  0  0  0  0  2  0  0  0  0  0  0
  -29.0570  -18.9090   19.9230 C   0  0  0  0  0  2  0  0  0  0  0  0
  -30.5750  -19.0860   19.6820 C   0  0  1  0  0  0  0  0  0  0  0  0
  -28.5660  -17.5300   20.4350 C   0  0  1  0  0  0  0  0  0  0  0  0
  -31.2790  -19.3870   21.0330 C   0  0  0  0  0  1  0  0  0  0  0  0
  -27.0240  -17.5690   20.4190 C   0  0  0  0  0  1  0  0  0  0  0  0
  -28.9820  -17.2120   21.8890 C   0  0  0  0  0  1  0  0  0  0  0  0
  -31.2610  -14.8930   19.0910 C   0  0  0  0  0  0  0  0  0  0  0  0
  -31.0520  -12.4220   18.4990 C   0  0  0  0  0  2  0  0  0  0  0  0
  -29.9690  -12.2020   17.4110 C   0  0  0  0  0  2  0  0  0  0  0  0
  -28.5550  -12.0920   18.0190 C   0  0  0  0  0  2  0  0  0  0  0  0
  -28.3050  -13.1560   19.1190 C   0  0  0  0  0  3  0  0  0  0  0  0
  -29.4970  -13.1920   20.0980 C   0  0  0  0  0  2  0  0  0  0  0  0
  -30.6700  -13.6270   19.3120 N   0  0  0  0  0  0  0  0  0  0  0  0
  -32.4110  -14.8120   18.6400 O   0  0  0  0  0  0  0  0  0  0  0  0
  -26.1270  -13.9360   20.2200 C   0  0  0  0  0  0  0  0  0  0  0  0
  -25.0480  -13.2560   20.7110 C   0  0  0  0  0  0  0  0  0  0  0  0
  -25.3430  -11.8700   20.5320 C   0  0  0  0  0  0  0  0  0  0  0  0
  -27.0230  -12.9720   19.7890 N   0  0  0  0  0  0  0  0  0  0  0  0
  -26.5640  -11.7180   20.0290 N   0  0  0  0  0  0  0  0  0  0  0  0
  -24.5080  -10.6860   20.7540 C   0  0  0  0  0  0  0  0  0  0  0  0
  -24.9020   -9.6570   21.6370 C   0  0  0  0  0  3  0  0  0  0  0  0
  -24.0680   -8.5390   21.8490 C   0  0  0  0  0  3  0  0  0  0  0  0
  -22.8250   -8.4400   21.1770 C   0  0  0  0  0  0  0  0  0  0  0  0
  -22.4500   -9.4570   20.2800 C   0  0  0  0  0  3  0  0  0  0  0  0
  -23.2820  -10.5660   20.0670 C   0  0  0  0  0  3  0  0  0  0  0  0
  -21.9630   -7.3780   21.3030 O   0  0  0  0  0  0  0  0  0  0  0  0
  -21.8080   -6.7160   22.4950 C   0  0  0  0  0  0  0  0  0  0  0  0
  -21.3680   -7.3780   23.6630 C   0  0  0  0  0  3  0  0  0  0  0  0
  -21.1540   -6.6450   24.8480 C   0  0  0  0  0  3  0  0  0  0  0  0
  -21.3700   -5.2540   24.8660 C   0  0  0  0  0  0  0  0  0  0  0  0
  -21.8030   -4.5940   23.7020 C   0  0  0  0  0  3  0  0  0  0  0  0
  -22.0190   -5.3230   22.5190 C   0  0  0  0  0  0  0  0  0  0  0  0
  -22.4170   -4.6790   21.3960 F   0  0  0  0  0  0  0  0  0  0  0  0
  -21.1570   -4.5490   26.0000 F   0  0  0  0  0  0  0  0  0  0  0  0
  -23.7730  -13.8630   21.2190 C   0  0  0  0  0  0  0  0  0  0  0  0
  -23.1150  -13.2010   22.1640 N   0  0  0  0  0  0  0  0  0  0  0  0
  -23.3800  -14.9580   20.8160 O   0  0  0  0  0  0  0  0  0  0  0  0
  -23.4500  -12.3140   22.5090 H   0  0  0  0  0  0  0  0  0  0  0  0
  -22.2660  -13.5890   22.5500 H   0  0  0  0  0  0  0  0  0  0  0  0
  -26.3950  -15.2890   20.0800 N   0  0  0  0  0  0  0  0  0  0  0  0
  -25.7180  -15.9980   20.3410 H   0  0  0  0  0  0  0  0  0  0  0  0
  -27.2200  -15.6700   19.6410 H   0  0  0  0  0  0  0  0  0  0  0  0
  -30.7710  -20.4370   18.8580 N   0  0  0  0  0  4  0  0  0  0  0  0
  -30.8860  -20.1780   17.8920 H   0  0  0  0  0  0  0  0  0  0  0  0
  -31.6530  -20.8370   19.1310 H   0  0  0  0  0  0  0  0  0  0  0  0
  -29.7050  -21.6250   18.8770 C   0  0  0  0  0  2  0  0  0  0  0  0
  -29.9590  -23.1970   18.3150 C   0  0  0  0  0  3  0  0  0  0  0  0
  -28.8570  -24.4600   18.4830 C   0  0  0  0  0  3  0  0  0  0  0  0
  -29.1010  -25.9950   18.3810 O   0  0  0  0  0  0  0  0  0  0  0  0
  -25.6510  -30.2100   23.3580 C   0  0  0  0  0  0  0  0  0  0  0  0
  -28.0860  -26.9560   18.7280 C   0  0  0  0  0  0  0  0  0  0  0  0
  -24.4440  -29.6830   21.2740 C   0  0  0  0  0  3  0  0  0  0  0  0
  -25.8590  -28.7130   19.3620 C   0  0  0  0  0  0  0  0  0  0  0  0
  -27.0130  -29.8110   21.2740 C   0  0  0  0  0  2  0  0  0  0  0  0
  -27.0340  -28.7970   20.1190 C   0  0  0  0  0  0  0  0  0  0  0  0
  -28.1510  -27.9420   19.7920 C   0  0  0  0  0  3  0  0  0  0  0  0
  -26.8930  -26.9810   17.9740 C   0  0  0  0  0  3  0  0  0  0  0  0
  -25.8000  -27.8220   18.2810 C   0  0  0  0  0  3  0  0  0  0  0  0
  -24.6860  -29.6020   19.7430 C   0  0  0  0  0  2  0  0  0  0  0  0
  -25.7210  -29.8980   22.0280 N   0  0  0  0  0  0  0  0  0  0  0  0
  -24.5600  -30.3350   23.9380 O   0  0  0  0  0  0  0  0  0  0  0  0
  -23.6640  -28.4240   21.7340 C   0  0  0  0  0  0  0  0  0  0  0  0
  -22.3330  -28.4260   21.5460 N   0  0  0  0  0  0  0  0  0  0  0  0
  -24.2620  -27.4640   22.2270 O   0  0  0  0  0  0  0  0  0  0  0  0
  -21.9120  -29.2530   21.1460 H   0  0  0  0  0  0  0  0  0  0  0  0
  -18.8500  -27.4320   21.5950 C   0  0  0  0  0  0  0  0  0  0  0  0
  -21.4210  -27.3230   21.8620 C   0  0  0  0  0  3  0  0  0  0  0  0
  -21.3910  -26.2820   20.7190 C   0  0  0  0  0  2  0  0  0  0  0  0
  -20.2700  -26.5320   19.7040 C   0  0  0  0  0  2  0  0  0  0  0  0
  -18.9050  -26.5030   20.3940 C   0  0  0  0  0  2  0  0  0  0  0  0
  -20.0330  -27.8300   22.2750 C   0  0  0  0  0  0  0  0  0  0  0  0
  -19.9280  -28.7190   23.3660 C   0  0  0  0  0  3  0  0  0  0  0  0
  -18.6750  -29.2080   23.7800 C   0  0  0  0  0  3  0  0  0  0  0  0
  -17.5060  -28.8000   23.1120 C   0  0  0  0  0  3  0  0  0  0  0  0
  -17.5960  -27.9110   22.0270 C   0  0  0  0  0  3  0  0  0  0  0  0
  -26.9350  -30.4450   24.2090 C   0  0  0  0  0  3  0  0  0  0  0  0
  -26.6610  -31.5540   25.1360 N   0  0  0  0  0  0  0  0  0  0  0  0
  -27.0910  -32.8120   24.9710 C   0  0  0  0  0  0  0  0  0  0  0  0
  -27.8240  -33.1500   24.0380 O   0  0  0  0  0  0  0  0  0  0  0  0
  -26.0200  -31.3630   25.8920 H   0  0  0  0  0  0  0  0  0  0  0  0
  -25.5000  -34.7120   25.4130 C   0  0  0  0  0  1  0  0  0  0  0  0
  -26.6370  -33.8630   26.0040 C   0  0  0  0  0  3  0  0  0  0  0  0
  -28.7210  -34.0610   27.2890 C   0  0  0  0  0  1  0  0  0  0  0  0
  -27.7300  -34.7470   26.4650 N   0  0  0  0  0  0  0  0  0  0  0  0
  -27.3590  -35.5290   27.0000 H   0  0  0  0  0  0  0  0  0  0  0  0
  -27.3930  -29.1610   25.0060 C   0  0  1  0  0  0  0  0  0  0  0  0
  -26.2680  -28.5220   25.8540 C   0  0  0  0  0  1  0  0  0  0  0  0
  -27.9270  -28.0780   24.0410 C   0  0  0  0  0  1  0  0  0  0  0  0
  -28.5600  -29.5230   25.9560 C   0  0  0  0  0  1  0  0  0  0  0  0
  -32.4870  -17.7360   18.9910 O   0  0  0  0  0  0  0  0  0  0  0  0
  -32.7750  -18.5490   19.3820 H   0  0  0  0  0  0  0  0  0  0  0  0
  1  3  1  0
  2  1  2  0
  2  5  1  0
  3  6  1  0
  4  6  1  0
  5  4  1  0
  5  7  1  1
  6  9  1  1
  8  6  1  0
 10  1  1  0
 10 16  1  0
 11 16  1  0
 12 13  1  0
 12 11  1  0
 14 13  1  0
 14 21  1  0
 14 15  1  0
 16 15  1  0
 17 10  2  0
 18 19  2  0
 19 38  1  0
 20 19  1  0
 20 23  1  0
 21 22  1  0
 21 18  1  0
 22 20  2  0
 23 24  1  0
 24 25  2  0
 26 29  1  0
 26 25  1  0
 27 26  2  0
 28 27  1  0
 28 23  2  0
 29 30  1  0
 30 35  2  0
 30 31  1  0
 31 32  2  0
 32 33  1  0
 33 37  1  0
 34 33  2  0
 35 34  1  0
 36 35  1  0
 38 39  1  0
 39 41  1  0
 39 42  1  0
 40 38  2  0
 43 18  1  0
 43 44  1  0
 45 43  1  0
 46 49  1  0
 46 48  1  0
 46  5  1  0
 47 46  1  0
 50 51  2  0
 50 49  1  0
 52 51  1  0
 52 54  1  0
 53 64  2  0
 54 59  1  0
 55 65  1  0
 55 63  1  0
 56 62  1  0
 56 58  1  0
 57 63  1  0
 58 57  1  0
 59 58  2  0
 60 61  1  0
 60 54  2  0
 61 56  2  0
 62 55  1  0
 63 53  1  0
 65 67  2  0
 66 65  1  0
 68 66  1  0
 69 78  2  0
 69 74  1  0
 70 66  1  0
 70 74  1  0
 71 70  1  0
 72 73  1  0
 72 71  1  0
 73 69  1  0
 74 75  2  0
 75 76  1  0
 77 76  2  0
 78 77  1  0
 79 53  1  0
 79 89  1  0
 79 80  1  0
 80 83  1  0
 81 80  1  0
 81 85  1  0
 82 81  2  0
 85 84  1  0
 85 87  1  0
 87 88  1  0
 87 86  1  0
 89 90  1  1
 89 92  1  0
 91 89  1  0
 93  2  1  0
 93 94  1  0
M  ISO  4   1 100  10 100  51 101  52 101
M  END
>  <TORSDO>  (78) 
F 21

>  <SCORE>  (78) 
-7.979

>  <name>  (78) 
78

>  <ligand_id>  (78) 
78

>  <original_smiles>  (78) 
[H]OC1=C(C(=O)N2C([H])([H])C([H])([H])C([H])([H])C([H])(n3nc(-c4c([H])c([H])c(Oc5c([H])c([H])c(F)c([H])c5F)c([H])c4[H])c(C(=O)N([H])[H])c3N([H])[H])C2([H])[H])C([H])([H])C(C([H])([H])[H])(C([H])([H])[H])C([H])([H])C1(C([H])([H])[H])[N+]([H])([H])C([H])([H])C([H])([H])C([H])([H])Oc1c([H])c([H])c2c(c1[H])C([H])([H])N(C(=O)C([H])(N([H])C(=O)C([H])(N([H])C([H])([H])[H])C([H])([H])[H])C(C([H])([H])[H])(C([H])([H])[H])C([H])([H])[H])C([H])(C(=O)N([H])C1([H])c3c([H])c([H])c([H])c([H])c3C([H])([H])C([H])([H])C1([H])[H])C2([H])[H]

>  <smiles>  (78) 
[H]OC1=C(C(=O)N2C([H])([H])C([H])([H])C([H])([H])C([H])(n3nc(-c4c([H])c([H])c(Oc5c([H])c([H])c(F)c([H])c5F)c([H])c4[H])c(C(=O)N([H])[H])c3N([H])[H])C2([H])[H])C([H])([H])C(C([H])([H])[H])(C([H])([H])[H])C([H])([H])C1(C([H])([H])[H])[N+]([H])([H])C([H])([H])C([H])([H])C([H])([H])Oc1c([H])c([H])c2c(c1[H])C([H])([H])N(C(=O)C([H])(N([H])C(=O)C([H])(N([H])C([H])([H])[H])C([H])([H])[H])C(C([H])([H])[H])(C([H])([H])[H])C([H])([H])[H])C([H])(C(=O)N([H])C1([H])c3c([H])c([H])c([H])c([H])c3C([H])([H])C([H])([H])C1([H])[H])C2([H])[H]

$$$$
79:0:0
     RDKit          3D

 95 95  0  0  1  0  0  0  0  0999 V2000
  -24.2620  -27.4630   25.4940 C   0  0  0  0  0  3  0  0  0  0  0  0
  -23.3650  -28.0880   26.3670 C   0  0  0  0  0  3  0  0  0  0  0  0
  -22.7730  -29.8490   24.7680 C   0  0  0  0  0  3  0  0  0  0  0  0
  -24.5420  -27.8490   24.1660 C   0  0  0  0  0  0  0  0  0  0  0  0
  -23.6380  -29.3780   23.7510 C   0  0  0  0  0  3  0  0  0  0  0  0
  -22.6280  -29.2270   26.0180 C   0  0  0  0  0  0  0  0  0  0  0  0
  -25.7020  -26.4460   23.5730 C   0  0  0  0  0  0  0  0  0  0  0  0
  -25.8260  -24.8180   23.2640 N   0  0  0  0  0  2  0  0  0  0  0  0
  -26.8260  -26.9220   23.4390 O   0  0  0  0  0  0  0  0  0  0  0  0
  -24.8900  -24.4560   23.3890 H   0  0  0  0  0  0  0  0  0  0  0  0
  -26.9740  -23.3440   22.7500 C   0  0  0  0  0 15  0  0  0  0  0  0
  -27.2180  -21.2570   22.3450 C   0  0  0  0  0 15  0  0  0  0  0  0
  -28.4870  -19.6260   21.7790 C   0  0  0  0  0 15  0  0  0  0  0  0
  -28.7170  -17.5430   21.3710 C   0  0  0  0  0 15  0  0  0  0  0  0
  -29.8320  -15.9300   20.8190 C   0  0  0  0  0  2  0  0  0  0  0  0
  -30.3500  -13.3800   19.7480 C   0  0  0  0  0  2  0  0  0  0  0  0
  -29.5800  -12.8360   18.4820 C   0  0  0  0  0  2  0  0  0  0  0  0
  -28.1730  -12.3480   18.8430 C   0  0  0  0  0  2  0  0  0  0  0  0
  -27.5640  -13.3200   19.8690 C   0  0  0  0  0  3  0  0  0  0  0  0
  -28.4670  -13.6350   21.0770 C   0  0  0  0  0  2  0  0  0  0  0  0
  -29.5730  -14.4650   20.5810 N   0  0  0  0  0  0  0  0  0  0  0  0
  -31.0530  -15.9920   20.4940 O   0  0  0  0  0  1  0  0  0  0  0  0
  -25.2090  -13.8270   20.5760 C   0  0  0  0  0  0  0  0  0  0  0  0
  -24.1540  -13.0390   20.9250 C   0  0  0  0  0  0  0  0  0  0  0  0
  -24.6280  -11.6910   20.8710 C   0  0  0  0  0  0  0  0  0  0  0  0
  -26.2450  -12.9560   20.3120 N   0  0  0  0  0  0  0  0  0  0  0  0
  -25.9180  -11.6640   20.5570 N   0  0  0  0  0  0  0  0  0  0  0  0
  -23.9040  -10.4260   21.0390 C   0  0  0  0  0  0  0  0  0  0  0  0
  -24.3610   -9.4190   21.9180 C   0  0  0  0  0  3  0  0  0  0  0  0
  -23.6300   -8.2220   22.0750 C   0  0  0  0  0  3  0  0  0  0  0  0
  -22.4280   -8.0260   21.3540 C   0  0  0  0  0  0  0  0  0  0  0  0
  -21.9900   -9.0230   20.4630 C   0  0  0  0  0  3  0  0  0  0  0  0
  -22.7220  -10.2100   20.3030 C   0  0  0  0  0  3  0  0  0  0  0  0
  -21.6630   -6.8870   21.4250 O   0  0  0  0  0  0  0  0  0  0  0  0
  -21.6850   -6.0730   22.5290 C   0  0  0  0  0  0  0  0  0  0  0  0
  -21.4010   -6.5630   23.8230 C   0  0  0  0  0  3  0  0  0  0  0  0
  -21.3660   -5.6780   24.9180 C   0  0  0  0  0  3  0  0  0  0  0  0
  -21.6050   -4.3050   24.7230 C   0  0  0  0  0  0  0  0  0  0  0  0
  -21.8820   -3.8140   23.4350 C   0  0  0  0  0  3  0  0  0  0  0  0
  -21.9190   -4.6960   22.3400 C   0  0  0  0  0  0  0  0  0  0  0  0
  -22.1670   -4.2150   21.0980 F   0  0  0  0  0  0  0  0  0  0  0  0
  -21.5620   -3.4530   25.7740 F   0  0  0  0  0  0  0  0  0  0  0  0
  -22.7600  -13.5140   21.1940 C   0  0  0  0  0  0  0  0  0  0  0  0
  -22.0270  -12.8120   22.0510 N   0  0  0  0  0  0  0  0  0  0  0  0
  -22.3300  -14.5470   20.6810 O   0  0  0  0  0  0  0  0  0  0  0  0
  -22.3850  -11.9760   22.4880 H   0  0  0  0  0  0  0  0  0  0  0  0
  -21.0900  -13.1170   22.2750 H   0  0  0  0  0  0  0  0  0  0  0  0
  -25.3740  -15.2040   20.4340 N   0  0  0  0  0  0  0  0  0  0  0  0
  -24.6030  -15.8510   20.5580 H   0  0  0  0  0  0  0  0  0  0  0  0
  -26.2150  -15.6510   20.0960 H   0  0  0  0  0  0  0  0  0  0  0  0
  -21.7220  -29.7360   26.9420 N   0  0  0  0  0  0  0  0  0  0  0  0
  -21.7400  -29.4210   27.9090 H   0  0  0  0  0  0  0  0  0  0  0  0
  -21.3140  -30.6540   26.8170 H   0  0  0  0  0  0  0  0  0  0  0  0
  -23.3860  -30.5910   21.7670 C   0  0  0  0  0 15  0  0  0  0  0  0
  -24.8200  -30.4470   20.3380 O   0  0  0  0  0  1  0  0  0  0  0  0
  -25.3720  -31.3170   23.2160 C   0  0  0  0  0  0  0  0  0  0  0  0
  -25.7130  -29.6070   19.4310 C   0  0  0  0  0  3  0  0  0  0  0  0
  -24.3360  -28.5440   21.6320 C   0  0  0  0  0  2  0  0  0  0  0  0
  -26.0670  -27.5840   20.5310 C   0  0  0  0  0  3  0  0  0  0  0  0
  -26.8320  -29.7440   22.0250 C   0  0  0  0  0  2  0  0  0  0  0  0
  -26.8370  -28.7840   20.8750 C   0  0  0  0  0  3  0  0  0  0  0  0
  -27.0560  -29.5370   19.8000 C   0  0  0  0  0  2  0  0  0  0  0  0
  -25.3810  -28.4210   18.6780 C   0  0  0  0  0  2  0  0  0  0  0  0
  -25.8970  -27.2670   19.1900 C   0  0  0  0  0  2  0  0  0  0  0  0
  -24.7100  -27.4440   20.9370 C   0  0  0  0  0  2  0  0  0  0  0  0
  -25.5450  -29.9450   22.4410 N   0  0  0  0  0  2  0  0  0  0  0  0
  -24.2970  -31.8780   23.6310 O   0  0  0  0  0  0  0  0  0  0  0  0
  -22.7070  -28.0400   21.8960 C   0  0  0  0  0  0  0  0  0  0  0  0
  -21.4870  -28.6910   22.0420 N   0  0  0  0  0  0  0  0  0  0  0  0
  -22.7960  -27.0960   22.6060 O   0  0  0  0  0  0  0  0  0  0  0  0
  -21.3390  -29.6100   21.6500 H   0  0  0  0  0  0  0  0  0  0  0  0
  -17.9510  -28.1970   22.7260 C   0  0  0  0  0  0  0  0  0  0  0  0
  -20.4960  -28.1710   23.0240 C   0  0  0  0  0  3  0  0  0  0  0  0
  -20.2210  -26.6630   22.7840 C   0  0  0  0  0  2  0  0  0  0  0  0
  -19.3990  -26.4750   21.5440 C   0  0  0  0  0  2  0  0  0  0  0  0
  -17.9980  -26.8840   21.9530 C   0  0  0  0  0  2  0  0  0  0  0  0
  -19.1300  -28.8730   23.1560 C   0  0  0  0  0  0  0  0  0  0  0  0
  -18.9930  -30.1190   23.8120 C   0  0  0  0  0  3  0  0  0  0  0  0
  -17.7130  -30.6630   24.0520 C   0  0  0  0  0  3  0  0  0  0  0  0
  -16.5570  -29.9640   23.6620 C   0  0  0  0  0  3  0  0  0  0  0  0
  -16.6820  -28.7320   23.0010 C   0  0  0  0  0  3  0  0  0  0  0  0
  -26.3940  -32.3070   23.8250 C   0  0  0  0  0  3  0  0  0  0  0  0
  -25.8500  -33.7050   24.1330 N   0  0  0  0  0  0  0  0  0  0  0  0
  -26.0030  -34.8470   23.4390 C   0  0  0  0  0  0  0  0  0  0  0  0
  -26.6310  -34.8670   22.3840 O   0  0  0  0  0  0  0  0  0  0  0  0
  -25.2670  -33.7430   24.9550 H   0  0  0  0  0  0  0  0  0  0  0  0
  -24.1650  -36.6210   23.2620 C   0  0  0  0  0  1  0  0  0  0  0  0
  -25.4430  -36.1910   24.0070 C   0  0  0  0  0  3  0  0  0  0  0  0
  -27.5540  -37.1460   24.8500 C   0  0  0  0  0  1  0  0  0  0  0  0
  -26.4170  -37.3090   23.9490 N   0  0  0  0  0  0  0  0  0  0  0  0
  -25.9680  -38.1980   24.1550 H   0  0  0  0  0  0  0  0  0  0  0  0
  -26.7220  -31.6560   25.2100 C   0  0  1  0  0  0  0  0  0  0  0  0
  -25.5390  -31.4760   26.2070 C   0  0  0  0  0  1  0  0  0  0  0  0
  -27.3590  -30.2680   25.0370 C   0  0  0  0  0  1  0  0  0  0  0  0
  -27.7810  -32.5280   25.8930 C   0  0  0  0  0  1  0  0  0  0  0  0
  1  2  1  0
  3  6  1  0
  4  1  2  0
  5  4  1  0
  5  3  2  0
  6  2  2  0
  6 51  1  0
  7  4  1  0
  8 10  1  0
  8  7  1  0
  9  7  2  0
 16 21  1  0
 17 18  1  0
 17 16  1  0
 19 18  1  0
 19 26  1  0
 19 20  1  0
 21 15  1  0
 21 20  1  0
 22 15  1  0
 23 24  2  0
 24 43  1  0
 25 24  1  0
 25 28  1  0
 26 27  1  0
 26 23  1  0
 27 25  2  0
 28 29  1  0
 29 30  2  0
 31 34  1  0
 31 30  1  0
 32 31  2  0
 33 32  1  0
 33 28  2  0
 34 35  1  0
 35 36  1  0
 36 37  2  0
 38 37  1  0
 38 42  1  0
 39 38  2  0
 40 35  2  0
 40 39  1  0
 41 40  1  0
 43 44  1  0
 44 47  1  0
 44 46  1  0
 45 43  2  0
 48 49  1  0
 48 23  1  0
 50 48  1  0
 51 52  1  0
 53 51  1  0
 56 67  2  0
 57 62  1  0
 57 55  1  0
 58 68  1  0
 59 61  1  0
 59 65  1  0
 60 66  1  0
 61 60  1  0
 62 61  1  0
 63 64  1  0
 63 57  1  0
 64 59  1  0
 65 58  1  0
 66 56  1  0
 68 69  1  0
 68 70  2  0
 71 69  1  0
 72 81  2  0
 72 77  1  0
 73 69  1  0
 73 77  1  0
 74 73  1  0
 75 76  1  0
 75 74  1  0
 76 72  1  0
 77 78  2  0
 78 79  1  0
 80 79  2  0
 81 80  1  0
 82 56  1  0
 82 83  1  0
 82 92  1  0
 83 86  1  0
 84 88  1  0
 84 83  1  0
 85 84  2  0
 88 87  1  0
 90 88  1  0
 90 91  1  0
 90 89  1  0
 92 95  1  1
 92 93  1  0
 94 92  1  0
M  ISO  4  14 100  15 100  54 101  55 101
M  END
>  <TORSDO>  (79) 
F 23

>  <SCORE>  (79) 
4.079

>  <name>  (79) 
79

>  <ligand_id>  (79) 
79

>  <original_smiles>  (79) 
[H]c1c([H])c([H])c2c(c1[H])C([H])([H])C([H])([H])C([H])([H])C2([H])N([H])C(=O)C1([H])N(C(=O)C([H])(N([H])C(=O)C([H])(N([H])C([H])([H])[H])C([H])([H])[H])C(C([H])([H])[H])(C([H])([H])[H])C([H])([H])[H])C([H])([H])c2c([H])c(OC([H])([H])c3c([H])c(N([H])[H])c([H])c([H])c3C(=O)N([H])C([H])([H])C([H])([H])C([H])([H])C([H])([H])C(=O)N3C([H])([H])C([H])([H])C([H])([H])C([H])(n4nc(-c5c([H])c([H])c(Oc6c([H])c([H])c(F)c([H])c6F)c([H])c5[H])c(C(=O)N([H])[H])c4N([H])[H])C3([H])[H])c([H])c([H])c2C1([H])[H]

>  <smiles>  (79) 
[H]c1c([H])c([H])c2c(c1[H])C([H])([H])C([H])([H])C([H])([H])C2([H])N([H])C(=O)C1([H])N(C(=O)C([H])(N([H])C(=O)C([H])(N([H])C([H])([H])[H])C([H])([H])[H])C(C([H])([H])[H])(C([H])([H])[H])C([H])([H])[H])C([H])([H])c2c([H])c(OC([H])([H])c3c([H])c(N([H])[H])c([H])c([H])c3C(=O)N([H])C([H])([H])C([H])([H])C([H])([H])C([H])([H])C(=O)N3C([H])([H])C([H])([H])C([H])([H])C([H])(n4nc(-c5c([H])c([H])c(Oc6c([H])c([H])c(F)c([H])c6F)c([H])c5[H])c(C(=O)N([H])[H])c4N([H])[H])C3([H])[H])c([H])c([H])c2C1([H])[H]

$$$$
80:0:0
     RDKit          3D

 94103  0  0  1  0  0  0  0  0999 V2000
  -30.0520  -22.9380   18.1960 C   0  0  0  0  0  3  0  0  0  0  0  0
  -30.3260  -21.7790   18.9590 C   0  0  0  0  0  3  0  0  0  0  0  0
  -29.3990  -24.0530   18.7680 C   0  0  0  0  0  3  0  0  0  0  0  0
  -29.2920  -22.8540   20.8810 C   0  0  0  0  0  3  0  0  0  0  0  0
  -29.9370  -21.7130   20.3150 C   0  0  0  0  0  0  0  0  0  0  0  0
  -29.0220  -24.0330   20.1290 C   0  0  0  0  0  0  0  0  0  0  0  0
  -30.2730  -20.4800   21.1890 C   0  0  0  0  0  3  0  0  0  0  0  0
  -29.9060  -19.0310   20.6760 C   0  0  0  0  0  3  0  0  0  0  0  0
  -27.6990  -17.8250   23.1010 C   0  0  0  0  0  2  0  0  0  0  0  0
  -27.1340  -17.5820   21.7020 C   0  0  0  0  0  2  0  0  0  0  0  0
  -29.1980  -18.1930   23.0860 C   0  0  0  0  0  2  0  0  0  0  0  0
  -27.9440  -16.5000   20.9570 C   0  0  0  0  0  2  0  0  0  0  0  0
  -29.9460  -17.8620   21.7530 C   0  0  0  0  0  3  0  0  0  0  0  0
  -29.4330  -16.4230   21.3300 C   0  0  0  0  0  3  0  0  0  0  0  0
  -30.8430  -14.5240   20.2860 C   0  0  0  0  0  0  0  0  0  0  0  0
  -30.5420  -12.3410   19.1500 C   0  0  0  0  0  2  0  0  0  0  0  0
  -29.6280  -12.5090   17.9200 C   0  0  0  0  0  2  0  0  0  0  0  0
  -28.1530  -12.3310   18.3250 C   0  0  0  0  0  2  0  0  0  0  0  0
  -27.7660  -13.1660   19.5790 C   0  0  0  0  0  3  0  0  0  0  0  0
  -28.8190  -13.0200   20.7060 C   0  0  0  0  0  2  0  0  0  0  0  0
  -30.1270  -13.3650   20.1340 N   0  0  0  0  0  0  0  0  0  0  0  0
  -32.0220  -14.5870   19.9450 O   0  0  0  0  0  0  0  0  0  0  0  0
  -30.1990  -15.7210   20.2800 N   0  0  0  0  0  0  0  0  0  0  0  0
  -30.7880  -16.3820   19.8000 H   0  0  0  0  0  0  0  0  0  0  0  0
  -25.3350  -13.6920   20.2570 C   0  0  0  0  0  0  0  0  0  0  0  0
  -24.2880  -12.8900   20.6100 C   0  0  0  0  0  0  0  0  0  0  0  0
  -24.7770  -11.5530   20.5370 C   0  0  0  0  0  0  0  0  0  0  0  0
  -26.4120  -12.8460   20.0330 N   0  0  0  0  0  0  0  0  0  0  0  0
  -26.0750  -11.5480   20.2510 N   0  0  0  0  0  0  0  0  0  0  0  0
  -24.0620  -10.2790   20.6580 C   0  0  0  0  0  0  0  0  0  0  0  0
  -24.5240   -9.2520   21.5060 C   0  0  0  0  0  3  0  0  0  0  0  0
  -23.8040   -8.0420   21.6220 C   0  0  0  0  0  3  0  0  0  0  0  0
  -22.6100   -7.8540   20.8900 C   0  0  0  0  0  0  0  0  0  0  0  0
  -22.1650   -8.8740   20.0290 C   0  0  0  0  0  3  0  0  0  0  0  0
  -22.8850  -10.0740   19.9100 C   0  0  0  0  0  3  0  0  0  0  0  0
  -21.8560   -6.7070   20.9230 O   0  0  0  0  0  0  0  0  0  0  0  0
  -21.8820   -5.8610   22.0030 C   0  0  0  0  0  0  0  0  0  0  0  0
  -21.5890   -6.3090   23.3080 C   0  0  0  0  0  3  0  0  0  0  0  0
  -21.5600   -5.3930   24.3780 C   0  0  0  0  0  3  0  0  0  0  0  0
  -21.8170   -4.0290   24.1440 C   0  0  0  0  0  0  0  0  0  0  0  0
  -22.1030   -3.5780   22.8430 C   0  0  0  0  0  3  0  0  0  0  0  0
  -22.1360   -4.4940   21.7750 C   0  0  0  0  0  0  0  0  0  0  0  0
  -22.3940   -4.0530   20.5220 F   0  0  0  0  0  0  0  0  0  0  0  0
  -21.7810   -3.1450   25.1690 F   0  0  0  0  0  0  0  0  0  0  0  0
  -22.8850  -13.3440   20.8820 C   0  0  0  0  0  0  0  0  0  0  0  0
  -22.1590  -12.6110   21.7230 N   0  0  0  0  0  0  0  0  0  0  0  0
  -22.4410  -14.3840   20.3970 O   0  0  0  0  0  0  0  0  0  0  0  0
  -22.5310  -11.7770   22.1510 H   0  0  0  0  0  0  0  0  0  0  0  0
  -21.2130  -12.8900   21.9400 H   0  0  0  0  0  0  0  0  0  0  0  0
  -25.4230  -15.0580   20.0670 N   0  0  0  0  0  0  0  0  0  0  0  0
  -24.6180  -15.6660   20.1830 H   0  0  0  0  0  0  0  0  0  0  0  0
  -26.2580  -15.5500   19.7770 H   0  0  0  0  0  0  0  0  0  0  0  0
  -28.2400  -25.2020   20.7730 C   0  0  0  0  0  2  0  0  0  0  0  0
  -28.3600  -26.5280   20.1710 O   0  0  0  0  0  0  0  0  0  0  0  0
  -24.5210  -31.6910   23.3710 C   0  0  0  0  0  0  0  0  0  0  0  0
  -27.2120  -27.3080   20.1970 C   0  0  0  0  0  0  0  0  0  0  0  0
  -23.3450  -30.3420   21.6660 C   0  0  0  0  0  3  0  0  0  0  0  0
  -24.8230  -28.8500   20.2160 C   0  0  0  0  0  0  0  0  0  0  0  0
  -25.8780  -30.6980   21.5230 C   0  0  0  0  0  2  0  0  0  0  0  0
  -25.9760  -29.3430   20.8390 C   0  0  0  0  0  0  0  0  0  0  0  0
  -27.1780  -28.5830   20.8190 C   0  0  0  0  0  3  0  0  0  0  0  0
  -26.0420  -26.8470   19.5590 C   0  0  0  0  0  3  0  0  0  0  0  0
  -24.8510  -27.6000   19.5730 C   0  0  0  0  0  3  0  0  0  0  0  0
  -23.5780  -29.7120   20.2680 C   0  0  0  0  0  2  0  0  0  0  0  0
  -24.5990  -30.9240   22.2450 N   0  0  0  0  0  0  0  0  0  0  0  0
  -23.4300  -31.9460   23.9010 O   0  0  0  0  0  0  0  0  0  0  0  0
  -22.6750  -29.2930   22.5830 C   0  0  0  0  0  0  0  0  0  0  0  0
  -21.3510  -29.1220   22.4340 N   0  0  0  0  0  0  0  0  0  0  0  0
  -23.3460  -28.6350   23.3820 O   0  0  0  0  0  0  0  0  0  0  0  0
  -20.8690  -29.7040   21.7640 H   0  0  0  0  0  0  0  0  0  0  0  0
  -17.9700  -27.9080   22.8390 C   0  0  0  0  0  0  0  0  0  0  0  0
  -20.5220  -28.1610   23.1620 C   0  0  0  0  0  3  0  0  0  0  0  0
  -20.6380  -26.7480   22.5430 C   0  0  0  0  0  2  0  0  0  0  0  0
  -19.5540  -26.4570   21.5010 C   0  0  0  0  0  2  0  0  0  0  0  0
  -18.1600  -26.5810   22.1250 C   0  0  0  0  0  2  0  0  0  0  0  0
  -19.0800  -28.6580   23.3110 C   0  0  0  0  0  0  0  0  0  0  0  0
  -18.8500  -29.9020   23.9380 C   0  0  0  0  0  3  0  0  0  0  0  0
  -17.5420  -30.3980   24.0960 C   0  0  0  0  0  3  0  0  0  0  0  0
  -16.4460  -29.6450   23.6400 C   0  0  0  0  0  3  0  0  0  0  0  0
  -16.6610  -28.4030   23.0170 C   0  0  0  0  0  3  0  0  0  0  0  0
  -25.7960  -32.3040   24.0330 C   0  0  0  0  0  3  0  0  0  0  0  0
  -26.3290  -31.4590   25.2560 C   0  0  1  0  0  0  0  0  0  0  0  0
  -25.2420  -31.1400   26.3080 C   0  0  0  0  0  1  0  0  0  0  0  0
  -26.9280  -30.1180   24.7750 C   0  0  0  0  0  1  0  0  0  0  0  0
  -27.4700  -32.2260   25.9630 C   0  0  0  0  0  1  0  0  0  0  0  0
  -25.4630  -33.6730   24.4520 N   0  0  0  0  0  0  0  0  0  0  0  0
  -25.7780  -34.7760   23.7600 C   0  0  0  0  0  0  0  0  0  0  0  0
  -26.4490  -34.7490   22.7240 O   0  0  0  0  0  0  0  0  0  0  0  0
  -24.8680  -33.7670   25.2620 H   0  0  0  0  0  0  0  0  0  0  0  0
  -24.0130  -36.5520   23.5290 C   0  0  0  0  0  1  0  0  0  0  0  0
  -25.2690  -36.1230   24.3050 C   0  0  0  0  0  3  0  0  0  0  0  0
  -27.3980  -36.9930   25.1650 C   0  0  0  0  0  1  0  0  0  0  0  0
  -26.2800  -37.2010   24.2470 N   0  0  0  0  0  0  0  0  0  0  0  0
  -25.8590  -38.1020   24.4600 H   0  0  0  0  0  0  0  0  0  0  0  0
  1  3  2  0
  1  2  1  0
  2  5  2  0
  3  6  1  0
  5  4  1  0
  5  7  1  0
  6 53  1  0
  6  4  2  0
  8  7  2  0
 10  9  1  0
 11  9  1  0
 12 14  1  0
 12 10  1  0
 13  8  1  0
 13 11  1  0
 14 23  1  0
 14 13  1  0
 16 21  1  0
 17 18  1  0
 17 16  1  0
 19 18  1  0
 19 28  1  0
 19 20  1  0
 21 15  1  0
 21 20  1  0
 22 15  2  0
 23 15  1  0
 24 23  1  0
 25 26  2  0
 26 45  1  0
 27 26  1  0
 27 30  1  0
 28 29  1  0
 28 25  1  0
 29 27  2  0
 30 31  1  0
 31 32  2  0
 33 36  1  0
 33 32  1  0
 34 33  2  0
 35 34  1  0
 35 30  2  0
 36 37  1  0
 37 38  1  0
 38 39  2  0
 40 39  1  0
 40 44  1  0
 41 40  2  0
 42 37  2  0
 42 41  1  0
 43 42  1  0
 45 46  1  0
 46 49  1  0
 46 48  1  0
 47 45  2  0
 50 51  1  0
 50 25  1  0
 52 50  1  0
 54 56  1  0
 54 53  1  0
 55 66  2  0
 56 61  1  0
 57 65  1  0
 57 67  1  0
 58 64  1  0
 58 60  1  0
 59 65  1  0
 60 59  1  0
 61 60  2  0
 62 63  1  0
 62 56  2  0
 63 58  2  0
 64 57  1  0
 65 55  1  0
 67 69  2  0
 68 67  1  0
 70 68  1  0
 71 80  2  0
 71 76  1  0
 72 68  1  0
 72 76  1  0
 73 72  1  0
 74 75  1  0
 74 73  1  0
 75 71  1  0
 76 77  2  0
 77 78  1  0
 79 78  2  0
 80 79  1  0
 81 55  1  0
 81 86  1  0
 81 82  1  0
 82 85  1  1
 82 83  1  0
 84 82  1  0
 86 89  1  0
 87 91  1  0
 87 86  1  0
 88 87  2  0
 91 90  1  0
 93 91  1  0
 93 94  1  0
 93 92  1  0
M  ISO  4  15 100  23 100  53 101  54 101
M  END
>  <TORSDO>  (80) 
F 20

>  <SCORE>  (80) 
3.537

>  <name>  (80) 
80

>  <ligand_id>  (80) 
80

>  <original_smiles>  (80) 
[H]c1c([H])c([H])c2c(c1[H])C([H])([H])C([H])([H])C([H])([H])C2([H])N([H])C(=O)C1([H])N(C(=O)C([H])(N([H])C(=O)C([H])(N([H])C([H])([H])[H])C([H])([H])[H])C(C([H])([H])[H])(C([H])([H])[H])C([H])([H])[H])C([H])([H])c2c([H])c(OC([H])([H])c3c([H])c([H])c([H])c(C([H])([H])C([H])([H])C4([H])C([H])([H])C([H])([H])C([H])([H])C([H])([H])C4([H])N([H])C(=O)N4C([H])([H])C([H])([H])C([H])([H])C([H])(n5nc(-c6c([H])c([H])c(Oc7c([H])c([H])c(F)c([H])c7F)c([H])c6[H])c(C(=O)N([H])[H])c5N([H])[H])C4([H])[H])c3[H])c([H])c([H])c2C1([H])[H]

>  <smiles>  (80) 
[H]c1c([H])c([H])c2c(c1[H])C([H])([H])C([H])([H])C([H])([H])C2([H])N([H])C(=O)C1([H])N(C(=O)C([H])(N([H])C(=O)C([H])(N([H])C([H])([H])[H])C([H])([H])[H])C(C([H])([H])[H])(C([H])([H])[H])C([H])([H])[H])C([H])([H])c2c([H])c(OC([H])([H])c3c([H])c([H])c([H])c(C([H])([H])C([H])([H])C4([H])C([H])([H])C([H])([H])C([H])([H])C([H])([H])C4([H])N([H])C(=O)N4C([H])([H])C([H])([H])C([H])([H])C([H])(n5nc(-c6c([H])c([H])c(Oc7c([H])c([H])c(F)c([H])c7F)c([H])c6[H])c(C(=O)N([H])[H])c5N([H])[H])C4([H])[H])c3[H])c([H])c([H])c2C1([H])[H]

$$$$
81:0:0
     RDKit          3D

102111  0  0  1  0  0  0  0  0999 V2000
  -25.1270  -23.0630   22.3010 C   0  0  0  0  0  0  0  0  0  0  0  0
  -24.6600  -24.5210   22.3290 C   0  0  0  0  0  2  0  0  0  0  0  0
  -27.2870  -24.1920   20.6710 C   0  0  0  0  0  2  0  0  0  0  0  0
  -25.4460  -22.4270   20.9600 C   0  0  0  0  0  3  0  0  0  0  0  0
  -26.8300  -21.8670   20.7280 C   0  0  0  0  0  3  0  0  0  0  0  0
  -26.4670  -25.4700   20.8770 C   0  0  0  0  0  3  0  0  0  0  0  0
  -26.4360  -23.1330   20.1310 N   0  0  0  0  0  0  0  0  0  0  0  0
  -25.8200  -25.4390   22.2110 N   0  0  0  0  0  4  0  0  0  0  0  0
  -25.2350  -22.4260   23.3520 O   0  0  0  0  0  0  0  0  0  0  0  0
  -26.4930  -25.2060   22.9240 H   0  0  0  0  0  0  0  0  0  0  0  0
  -25.4760  -26.3620   22.4140 H   0  0  0  0  0  0  0  0  0  0  0  0
  -27.2730  -20.9850   19.5790 C   0  0  0  0  0  2  0  0  0  0  0  0
  -28.7890  -21.1870   19.3710 C   0  0  0  0  0  2  0  0  0  0  0  0
  -29.5760  -19.9980   18.7950 C   0  0  0  0  0  3  0  0  0  0  0  0
  -29.0040  -20.4860   16.4080 C   0  0  0  0  0  1  0  0  0  0  0  0
  -29.0270  -19.4990   17.5080 N   0  0  0  0  0  4  0  0  0  0  0  0
  -29.6000  -18.7300   17.1980 H   0  0  0  0  0  0  0  0  0  0  0  0
  -28.0950  -19.1390   17.6400 H   0  0  0  0  0  0  0  0  0  0  0  0
  -29.7370  -18.8680   19.8260 C   0  0  0  0  0  2  0  0  0  0  0  0
  -31.1670  -18.3010   19.8510 C   0  0  0  0  0  2  0  0  0  0  0  0
  -31.4120  -17.3110   21.0000 C   0  0  0  0  0  2  0  0  0  0  0  0
  -30.9530  -15.1080   19.9330 C   0  0  0  0  0  0  0  0  0  0  0  0
  -30.8980  -12.6630   19.7020 C   0  0  0  0  0  2  0  0  0  0  0  0
  -30.0180  -12.1500   18.5530 C   0  0  0  0  0  2  0  0  0  0  0  0
  -28.5610  -11.9910   19.0220 C   0  0  0  0  0  2  0  0  0  0  0  0
  -28.0240  -13.2670   19.7170 C   0  0  0  0  0  3  0  0  0  0  0  0
  -29.0090  -13.7720   20.7970 C   0  0  0  0  0  2  0  0  0  0  0  0
  -30.3470  -13.9300   20.1960 N   0  0  0  0  0  0  0  0  0  0  0  0
  -31.8370  -15.2540   19.0820 O   0  0  0  0  0  0  0  0  0  0  0  0
  -30.6760  -16.0630   20.8270 N   0  0  0  0  0  0  0  0  0  0  0  0
  -29.9860  -15.8330   21.5300 H   0  0  0  0  0  0  0  0  0  0  0  0
  -25.7540  -13.9670   20.7140 C   0  0  0  0  0  0  0  0  0  0  0  0
  -24.6430  -13.2430   21.0560 C   0  0  0  0  0  0  0  0  0  0  0  0
  -24.9640  -11.8780   20.7840 C   0  0  0  0  0  0  0  0  0  0  0  0
  -26.6870  -13.0450   20.2660 N   0  0  0  0  0  0  0  0  0  0  0  0
  -26.2180  -11.7740   20.3620 N   0  0  0  0  0  0  0  0  0  0  0  0
  -24.1310  -10.6690   20.8490 C   0  0  0  0  0  0  0  0  0  0  0  0
  -24.4580   -9.5920   21.7020 C   0  0  0  0  0  3  0  0  0  0  0  0
  -23.6330   -8.4480   21.7600 C   0  0  0  0  0  3  0  0  0  0  0  0
  -22.4660   -8.3740   20.9630 C   0  0  0  0  0  0  0  0  0  0  0  0
  -22.1580   -9.4400   20.0980 C   0  0  0  0  0  3  0  0  0  0  0  0
  -22.9830  -10.5760   20.0380 C   0  0  0  0  0  3  0  0  0  0  0  0
  -21.6200   -7.2920   20.9330 O   0  0  0  0  0  0  0  0  0  0  0  0
  -21.3840   -6.5320   22.0500 C   0  0  0  0  0  0  0  0  0  0  0  0
  -20.8460   -7.0880   23.2300 C   0  0  0  0  0  3  0  0  0  0  0  0
  -20.5530   -6.2590   24.3300 C   0  0  0  0  0  3  0  0  0  0  0  0
  -20.7930   -4.8720   24.2510 C   0  0  0  0  0  0  0  0  0  0  0  0
  -21.3240   -4.3170   23.0740 C   0  0  0  0  0  3  0  0  0  0  0  0
  -21.6170   -5.1440   21.9760 C   0  0  0  0  0  0  0  0  0  0  0  0
  -22.1100   -4.6000   20.8380 F   0  0  0  0  0  0  0  0  0  0  0  0
  -20.5060   -4.0730   25.3060 F   0  0  0  0  0  0  0  0  0  0  0  0
  -23.3250  -13.7930   21.5200 C   0  0  0  0  0  0  0  0  0  0  0  0
  -22.6130  -13.0490   22.3600 N   0  0  0  0  0  0  0  0  0  0  0  0
  -22.9380  -14.9070   21.1730 O   0  0  0  0  0  0  0  0  0  0  0  0
  -22.9400  -12.1430   22.6600 H   0  0  0  0  0  0  0  0  0  0  0  0
  -21.7300  -13.3930   22.7110 H   0  0  0  0  0  0  0  0  0  0  0  0
  -26.0400  -15.3290   20.7250 N   0  0  0  0  0  0  0  0  0  0  0  0
  -25.3540  -16.0250   20.9930 H   0  0  0  0  0  0  0  0  0  0  0  0
  -26.9060  -15.7340   20.3930 H   0  0  0  0  0  0  0  0  0  0  0  0
  -27.3460  -26.7230   20.6790 C   0  0  0  0  0  2  0  0  0  0  0  0
  -27.7850  -26.9030   19.1910 C   0  0  0  0  0  2  0  0  0  0  0  0
  -27.7320  -28.2490   18.7070 O   0  0  0  0  0  0  0  0  0  0  0  0
  -24.6880  -32.2130   23.6740 C   0  0  0  0  0  0  0  0  0  0  0  0
  -26.5830  -28.9260   19.0340 C   0  0  0  0  0  0  0  0  0  0  0  0
  -23.1440  -31.1960   22.0310 C   0  0  0  0  0  3  0  0  0  0  0  0
  -24.2390  -30.1800   19.9640 C   0  0  0  0  0  0  0  0  0  0  0  0
  -25.5490  -31.7740   21.3800 C   0  0  0  0  0  2  0  0  0  0  0  0
  -25.4950  -30.6280   20.3960 C   0  0  0  0  0  0  0  0  0  0  0  0
  -26.6710  -30.0070   19.9290 C   0  0  0  0  0  3  0  0  0  0  0  0
  -25.3130  -28.4900   18.5910 C   0  0  0  0  0  3  0  0  0  0  0  0
  -24.1420  -29.1100   19.0590 C   0  0  0  0  0  3  0  0  0  0  0  0
  -23.0280  -30.9010   20.5120 C   0  0  0  0  0  2  0  0  0  0  0  0
  -24.4930  -31.7260   22.4160 N   0  0  0  0  0  0  0  0  0  0  0  0
  -23.7570  -32.2640   24.4920 O   0  0  0  0  0  0  0  0  0  0  0  0
  -22.7430  -29.9220   22.8080 C   0  0  0  0  0  0  0  0  0  0  0  0
  -21.4800  -29.5000   22.6410 N   0  0  0  0  0  0  0  0  0  0  0  0
  -23.5620  -29.3240   23.5090 O   0  0  0  0  0  0  0  0  0  0  0  0
  -20.8740  -30.0430   22.0420 H   0  0  0  0  0  0  0  0  0  0  0  0
  -18.5470  -27.3930   22.6260 C   0  0  0  0  0  0  0  0  0  0  0  0
  -20.8830  -28.3080   23.2420 C   0  0  0  0  0  3  0  0  0  0  0  0
  -21.4500  -27.0200   22.5980 C   0  0  0  0  0  2  0  0  0  0  0  0
  -20.5960  -26.5050   21.4340 C   0  0  0  0  0  2  0  0  0  0  0  0
  -19.1680  -26.2100   21.9010 C   0  0  0  0  0  2  0  0  0  0  0  0
  -19.3520  -28.3850   23.2430 C   0  0  0  0  0  0  0  0  0  0  0  0
  -18.7250  -29.4820   23.8720 C   0  0  0  0  0  3  0  0  0  0  0  0
  -17.3210  -29.5920   23.8970 C   0  0  0  0  0  3  0  0  0  0  0  0
  -16.5290  -28.5950   23.3000 C   0  0  0  0  0  3  0  0  0  0  0  0
  -17.1410  -27.4970   22.6680 C   0  0  0  0  0  3  0  0  0  0  0  0
  -26.0790  -32.7460   24.1380 C   0  0  0  0  0  3  0  0  0  0  0  0
  -26.7450  -31.8530   25.2530 C   0  0  1  0  0  0  0  0  0  0  0  0
  -25.8150  -31.5520   26.4510 C   0  0  0  0  0  1  0  0  0  0  0  0
  -27.2130  -30.5030   24.6620 C   0  0  0  0  0  1  0  0  0  0  0  0
  -28.0100  -32.5590   25.7980 C   0  0  0  0  0  1  0  0  0  0  0  0
  -25.8830  -34.1190   24.6140 N   0  0  0  0  0  0  0  0  0  0  0  0
  -26.2230  -35.2180   23.9260 C   0  0  0  0  0  0  0  0  0  0  0  0
  -26.8060  -35.1750   22.8390 O   0  0  0  0  0  0  0  0  0  0  0  0
  -25.3550  -34.2300   25.4680 H   0  0  0  0  0  0  0  0  0  0  0  0
  -24.6120  -37.1480   23.8470 C   0  0  0  0  0  1  0  0  0  0  0  0
  -25.8600  -36.5820   24.5420 C   0  0  0  0  0  3  0  0  0  0  0  0
  -28.0960  -37.2340   25.3200 C   0  0  0  0  0  1  0  0  0  0  0  0
  -26.9570  -37.5700   24.4710 N   0  0  0  0  0  0  0  0  0  0  0  0
  -26.6260  -38.4960   24.7320 H   0  0  0  0  0  0  0  0  0  0  0  0
  1  2  1  0
  1  9  2  0
  3  6  1  0
  4  1  1  0
  5 12  1  0
  5  4  1  0
  6 60  1  0
  6  8  1  0
  7  3  1  0
  7  5  1  0
  7  4  1  0
  8  2  1  0
  8 11  1  0
  8 10  1  0
 13 12  1  0
 14 13  1  0
 14 19  1  0
 15 16  1  0
 16 18  1  0
 16 14  1  0
 17 16  1  0
 19 20  1  0
 20 21  1  0
 22 28  1  0
 22 30  1  0
 23 28  1  0
 24 25  1  0
 24 23  1  0
 26 25  1  0
 26 35  1  0
 26 27  1  0
 28 27  1  0
 29 22  2  0
 30 21  1  0
 30 31  1  0
 32 57  1  0
 32 33  2  0
 33 52  1  0
 34 37  1  0
 34 33  1  0
 35 36  1  0
 35 32  1  0
 36 34  2  0
 37 38  1  0
 38 39  2  0
 40 39  1  0
 41 40  2  0
 42 41  1  0
 42 37  2  0
 43 40  1  0
 43 44  1  0
 44 45  1  0
 45 46  2  0
 47 46  1  0
 47 51  1  0
 48 47  2  0
 49 44  2  0
 49 48  1  0
 50 49  1  0
 52 53  1  0
 53 55  1  0
 53 56  1  0
 54 52  2  0
 57 58  1  0
 59 57  1  0
 61 60  1  0
 62 64  1  0
 62 61  1  0
 63 74  2  0
 64 69  1  0
 65 73  1  0
 65 75  1  0
 66 68  1  0
 66 72  1  0
 67 73  1  0
 68 67  1  0
 69 68  2  0
 70 64  2  0
 70 71  1  0
 71 66  2  0
 72 65  1  0
 73 63  1  0
 75 77  2  0
 76 75  1  0
 78 76  1  0
 79 88  2  0
 79 84  1  0
 80 76  1  0
 80 84  1  0
 81 80  1  0
 82 83  1  0
 82 81  1  0
 83 79  1  0
 84 85  2  0
 85 86  1  0
 87 86  2  0
 88 87  1  0
 89 63  1  0
 89 94  1  0
 89 90  1  0
 90 93  1  1
 90 91  1  0
 92 90  1  0
 94 97  1  0
 95 99  1  0
 95 94  1  0
 96 95  2  0
 99 98  1  0
101 99  1  0
101102  1  0
101100  1  0
M  ISO  4  22 100  30 100  61 101  62 101
M  END
>  <TORSDO>  (81) 
F 25

>  <SCORE>  (81) 
-4.086

>  <name>  (81) 
81

>  <ligand_id>  (81) 
81

>  <original_smiles>  (81) 
[H]c1c([H])c([H])c2c(c1[H])C([H])([H])C([H])([H])C([H])([H])C2([H])N([H])C(=O)C1([H])N(C(=O)C([H])(N([H])C(=O)C([H])(N([H])C([H])([H])[H])C([H])([H])[H])C(C([H])([H])[H])(C([H])([H])[H])C([H])([H])[H])C([H])([H])c2c([H])c(OC([H])([H])C([H])([H])C3([H])C([H])([H])N4C([H])(C(=O)C([H])([H])[N+]3([H])[H])C4([H])C([H])([H])C([H])([H])C([H])(C([H])([H])C([H])([H])C([H])([H])N([H])C(=O)N3C([H])([H])C([H])([H])C([H])([H])C([H])(n4nc(-c5c([H])c([H])c(Oc6c([H])c([H])c(F)c([H])c6F)c([H])c5[H])c(C(=O)N([H])[H])c4N([H])[H])C3([H])[H])[N+]([H])([H])C([H])([H])[H])c([H])c([H])c2C1([H])[H]

>  <smiles>  (81) 
[H]c1c([H])c([H])c2c(c1[H])C([H])([H])C([H])([H])C([H])([H])C2([H])N([H])C(=O)C1([H])N(C(=O)C([H])(N([H])C(=O)C([H])(N([H])C([H])([H])[H])C([H])([H])[H])C(C([H])([H])[H])(C([H])([H])[H])C([H])([H])[H])C([H])([H])c2c([H])c(OC([H])([H])C([H])([H])C3([H])C([H])([H])N4C([H])(C(=O)C([H])([H])[N+]3([H])[H])C4([H])C([H])([H])C([H])([H])C([H])(C([H])([H])C([H])([H])C([H])([H])N([H])C(=O)N3C([H])([H])C([H])([H])C([H])([H])C([H])(n4nc(-c5c([H])c([H])c(Oc6c([H])c([H])c(F)c([H])c6F)c([H])c5[H])c(C(=O)N([H])[H])c4N([H])[H])C3([H])[H])[N+]([H])([H])C([H])([H])[H])c([H])c([H])c2C1([H])[H]

$$$$
82:0:0
     RDKit          3D

 94102  0  0  1  0  0  0  0  0999 V2000
  -29.7260  -20.7180   22.0280 C   0  0  0  0  0  3  0  0  0  0  0  0
  -28.6310  -22.3770   20.6550 C   0  0  0  0  0  3  0  0  0  0  0  0
  -28.7970  -21.0080   21.0300 C   0  0  0  0  0  0  0  0  0  0  0  0
  -30.5330  -21.7030   22.5630 C   0  0  0  0  0  0  0  0  0  0  0  0
  -29.1690  -23.4200   21.5110 C   0  0  0  0  0  0  0  0  0  0  0  0
  -30.0830  -23.0560   22.5630 C   0  0  0  0  0  0  0  0  0  0  0  0
  -28.1890  -19.7610   20.3990 C   0  0  0  0  0  1  0  0  0  0  0  0
  -30.4660  -24.0150   23.7420 C   0  0  0  0  0  1  0  0  0  0  0  0
  -31.9560  -21.2950   22.9710 C   0  0  0  0  0  2  0  0  0  0  0  0
  -32.5630  -20.0380   22.1870 C   0  0  0  0  0  2  0  0  0  0  0  0
  -31.7940  -18.7430   22.2870 N   0  0  0  0  0  4  0  0  0  0  0  0
  -30.8360  -19.0640   22.3540 H   0  0  0  0  0  0  0  0  0  0  0  0
  -32.1190  -18.3380   23.1450 H   0  0  0  0  0  0  0  0  0  0  0  0
  -31.8460  -17.6440   21.2690 C   0  0  0  0  0  2  0  0  0  0  0  0
  -30.8300  -16.3870   21.3920 C   0  0  0  0  0  2  0  0  0  0  0  0
  -31.3430  -15.0690   20.7250 C   0  0  0  0  0  0  0  0  0  0  0  0
  -31.0580  -13.0170   19.3990 C   0  0  0  0  0  2  0  0  0  0  0  0
  -30.1420  -13.2940   18.2140 C   0  0  0  0  0  2  0  0  0  0  0  0
  -28.6930  -13.0120   18.5980 C   0  0  0  0  0  2  0  0  0  0  0  0
  -28.2920  -13.7570   19.8970 C   0  0  0  0  0  3  0  0  0  0  0  0
  -29.3200  -13.4930   21.0200 C   0  0  0  0  0  2  0  0  0  0  0  0
  -30.6360  -13.8970   20.5090 N   0  0  0  0  0  0  0  0  0  0  0  0
  -32.4870  -15.1460   20.2830 O   0  0  0  0  0  0  0  0  0  0  0  0
  -25.8580  -14.3330   20.5530 C   0  0  0  0  0  0  0  0  0  0  0  0
  -24.7580  -13.5340   20.8430 C   0  0  0  0  0  0  0  0  0  0  0  0
  -25.2370  -12.1940   20.7710 C   0  0  0  0  0  0  0  0  0  0  0  0
  -26.9090  -13.4600   20.3250 N   0  0  0  0  0  0  0  0  0  0  0  0
  -26.5390  -12.1640   20.5140 N   0  0  0  0  0  0  0  0  0  0  0  0
  -24.5100  -10.9230   20.9050 C   0  0  0  0  0  0  0  0  0  0  0  0
  -24.8770   -9.9470   21.8610 C   0  0  0  0  0  3  0  0  0  0  0  0
  -24.1520   -8.7410   21.9590 C   0  0  0  0  0  3  0  0  0  0  0  0
  -23.0430   -8.5060   21.1150 C   0  0  0  0  0  0  0  0  0  0  0  0
  -22.6920   -9.4730   20.1640 C   0  0  0  0  0  3  0  0  0  0  0  0
  -23.4140  -10.6710   20.0580 C   0  0  0  0  0  3  0  0  0  0  0  0
  -22.2850   -7.3540   21.1430 O   0  0  0  0  0  0  0  0  0  0  0  0
  -22.1110   -6.6200   22.2920 C   0  0  0  0  0  0  0  0  0  0  0  0
  -21.5370   -7.1880   23.4510 C   0  0  0  0  0  3  0  0  0  0  0  0
  -21.3190   -6.3910   24.5870 C   0  0  0  0  0  3  0  0  0  0  0  0
  -21.6540   -5.0220   24.5610 C   0  0  0  0  0  0  0  0  0  0  0  0
  -22.2310   -4.4600   23.4120 C   0  0  0  0  0  3  0  0  0  0  0  0
  -22.4540   -5.2530   22.2770 C   0  0  0  0  0  0  0  0  0  0  0  0
  -22.9860   -4.7020   21.1570 F   0  0  0  0  0  0  0  0  0  0  0  0
  -21.4390   -4.2500   25.6540 F   0  0  0  0  0  0  0  0  0  0  0  0
  -23.3470  -13.9980   21.0550 C   0  0  0  0  0  0  0  0  0  0  0  0
  -22.5830  -13.2720   21.8720 N   0  0  0  0  0  0  0  0  0  0  0  0
  -22.9300  -15.0300   20.5520 O   0  0  0  0  0  0  0  0  0  0  0  0
  -22.9330  -12.4600   22.3350 H   0  0  0  0  0  0  0  0  0  0  0  0
  -21.6420  -13.5820   22.0570 H   0  0  0  0  0  0  0  0  0  0  0  0
  -26.0370  -15.6990   20.4160 N   0  0  0  0  0  0  0  0  0  0  0  0
  -25.3110  -16.4070   20.5520 H   0  0  0  0  0  0  0  0  0  0  0  0
  -26.9510  -16.1010   20.2150 H   0  0  0  0  0  0  0  0  0  0  0  0
  -28.7860  -24.9250   21.3250 C   0  0  0  0  0  2  0  0  0  0  0  0
  -29.2680  -25.6730   20.0290 C   0  0  0  0  0  2  0  0  0  0  0  0
  -29.1360  -27.1260   20.1090 O   0  0  0  0  0  0  0  0  0  0  0  0
  -24.9190  -31.8560   23.3550 C   0  0  0  0  0  0  0  0  0  0  0  0
  -27.9070  -27.7620   20.0870 C   0  0  0  0  0  0  0  0  0  0  0  0
  -23.8400  -30.5110   21.5820 C   0  0  0  0  0  3  0  0  0  0  0  0
  -25.4230  -29.1530   20.1030 C   0  0  0  0  0  0  0  0  0  0  0  0
  -26.3460  -31.0300   21.4760 C   0  0  0  0  0  2  0  0  0  0  0  0
  -26.5340  -29.7100   20.7470 C   0  0  0  0  0  0  0  0  0  0  0  0
  -27.7690  -29.0280   20.7190 C   0  0  0  0  0  3  0  0  0  0  0  0
  -26.7750  -27.2350   19.4200 C   0  0  0  0  0  3  0  0  0  0  0  0
  -25.5430  -27.9240   19.4240 C   0  0  0  0  0  3  0  0  0  0  0  0
  -24.1260  -29.9350   20.1630 C   0  0  0  0  0  2  0  0  0  0  0  0
  -25.0520  -31.1420   22.2000 N   0  0  0  0  0  0  0  0  0  0  0  0
  -23.8120  -32.0310   23.8810 O   0  0  0  0  0  0  0  0  0  0  0  0
  -23.2230  -29.3960   22.4560 C   0  0  0  0  0  0  0  0  0  0  0  0
  -21.9100  -29.1630   22.2970 N   0  0  0  0  0  0  0  0  0  0  0  0
  -23.9250  -28.7420   23.2310 O   0  0  0  0  0  0  0  0  0  0  0  0
  -21.3990  -29.7430   21.6470 H   0  0  0  0  0  0  0  0  0  0  0  0
  -18.5840  -27.8050   22.7040 C   0  0  0  0  0  0  0  0  0  0  0  0
  -21.1340  -28.1300   22.9820 C   0  0  0  0  0  3  0  0  0  0  0  0
  -21.2810  -26.7630   22.2710 C   0  0  0  0  0  2  0  0  0  0  0  0
  -20.1820  -26.5010   21.2380 C   0  0  0  0  0  2  0  0  0  0  0  0
  -18.8020  -26.5350   21.9020 C   0  0  0  0  0  2  0  0  0  0  0  0
  -19.6790  -28.5620   23.2000 C   0  0  0  0  0  0  0  0  0  0  0  0
  -19.4230  -29.7540   23.9110 C   0  0  0  0  0  3  0  0  0  0  0  0
  -18.1030  -30.1900   24.1320 C   0  0  0  0  0  3  0  0  0  0  0  0
  -17.0220  -29.4290   23.6490 C   0  0  0  0  0  3  0  0  0  0  0  0
  -17.2640  -28.2380   22.9430 C   0  0  0  0  0  3  0  0  0  0  0  0
  -26.1550  -32.5190   24.0520 C   0  0  0  0  0  3  0  0  0  0  0  0
  -25.7890  -33.9080   24.3750 N   0  0  0  0  0  0  0  0  0  0  0  0
  -26.1520  -34.9770   23.6520 C   0  0  0  0  0  0  0  0  0  0  0  0
  -26.8950  -34.8960   22.6700 O   0  0  0  0  0  0  0  0  0  0  0  0
  -25.1330  -34.0440   25.1310 H   0  0  0  0  0  0  0  0  0  0  0  0
  -24.4120  -36.7290   23.1920 C   0  0  0  0  0  1  0  0  0  0  0  0
  -25.6040  -36.3520   24.0830 C   0  0  0  0  0  3  0  0  0  0  0  0
  -27.6560  -37.2800   25.0570 C   0  0  0  0  0  1  0  0  0  0  0  0
  -26.6190  -37.4260   24.0410 N   0  0  0  0  0  0  0  0  0  0  0  0
  -26.1840  -38.3360   24.1600 H   0  0  0  0  0  0  0  0  0  0  0  0
  -26.6210  -31.7540   25.3550 C   0  0  1  0  0  0  0  0  0  0  0  0
  -25.4720  -31.4800   26.3570 C   0  0  0  0  0  1  0  0  0  0  0  0
  -27.2530  -30.3900   24.9880 C   0  0  0  0  0  1  0  0  0  0  0  0
  -27.7170  -32.5670   26.0800 C   0  0  0  0  0  1  0  0  0  0  0  0
  1  4  1  0
  2  3  1  0
  2  5  2  0
  3  1  2  0
  4  9  1  0
  5  6  1  0
  6  4  2  0
  6  8  1  0
  7  3  1  0
 10 11  1  0
 10  9  1  0
 11 12  1  0
 11 13  1  0
 14 15  1  0
 14 11  1  0
 16 15  1  0
 17 22  1  0
 18 19  1  0
 18 17  1  0
 20 19  1  0
 20 27  1  0
 20 21  1  0
 22 16  1  0
 22 21  1  0
 23 16  2  0
 24 25  2  0
 25 44  1  0
 26 25  1  0
 26 29  1  0
 27 28  1  0
 27 24  1  0
 28 26  2  0
 29 30  1  0
 30 31  2  0
 32 35  1  0
 32 31  1  0
 33 32  2  0
 34 33  1  0
 34 29  2  0
 35 36  1  0
 36 37  1  0
 37 38  2  0
 39 38  1  0
 39 43  1  0
 40 39  2  0
 41 36  2  0
 41 40  1  0
 42 41  1  0
 44 45  1  0
 45 48  1  0
 45 47  1  0
 46 44  2  0
 49 50  1  0
 49 24  1  0
 51 49  1  0
 52  5  1  0
 53 54  1  0
 53 52  1  0
 55 66  2  0
 56 54  1  0
 56 61  1  0
 57 65  1  0
 57 67  1  0
 58 64  1  0
 58 60  1  0
 59 65  1  0
 60 59  1  0
 61 60  2  0
 62 63  1  0
 62 56  2  0
 63 58  2  0
 64 57  1  0
 65 55  1  0
 67 69  2  0
 68 67  1  0
 70 68  1  0
 71 80  2  0
 71 76  1  0
 72 68  1  0
 72 76  1  0
 73 72  1  0
 74 75  1  0
 74 73  1  0
 75 71  1  0
 76 77  2  0
 77 78  1  0
 79 78  2  0
 80 79  1  0
 81 55  1  0
 81 82  1  0
 81 91  1  0
 82 85  1  0
 83 87  1  0
 83 82  1  0
 84 83  2  0
 87 86  1  0
 89 87  1  0
 89 90  1  0
 89 88  1  0
 91 94  1  1
 91 92  1  0
 93 91  1  0
M  ISO  4  15 100  16 100  53 101  54 101
M  END
>  <TORSDO>  (82) 
F 23

>  <SCORE>  (82) 
-10.376

>  <name>  (82) 
82

>  <ligand_id>  (82) 
82

>  <original_smiles>  (82) 
[H]c1c([H])c([H])c2c(c1[H])C([H])([H])C([H])([H])C([H])([H])C2([H])N([H])C(=O)C1([H])N(C(=O)C([H])(N([H])C(=O)C([H])(N([H])C([H])([H])[H])C([H])([H])[H])C(C([H])([H])[H])(C([H])([H])[H])C([H])([H])[H])C([H])([H])c2c([H])c(OC([H])([H])C([H])([H])c3c([H])c(C([H])([H])[H])c([H])c(C([H])([H])C([H])([H])[N+]([H])([H])C([H])([H])C([H])([H])C(=O)N4C([H])([H])C([H])([H])C([H])([H])C([H])(n5nc(-c6c([H])c([H])c(Oc7c([H])c([H])c(F)c([H])c7F)c([H])c6[H])c(C(=O)N([H])[H])c5N([H])[H])C4([H])[H])c3C([H])([H])[H])c([H])c([H])c2C1([H])[H]

>  <smiles>  (82) 
[H]c1c([H])c([H])c2c(c1[H])C([H])([H])C([H])([H])C([H])([H])C2([H])N([H])C(=O)C1([H])N(C(=O)C([H])(N([H])C(=O)C([H])(N([H])C([H])([H])[H])C([H])([H])[H])C(C([H])([H])[H])(C([H])([H])[H])C([H])([H])[H])C([H])([H])c2c([H])c(OC([H])([H])C([H])([H])c3c([H])c(C([H])([H])[H])c([H])c(C([H])([H])C([H])([H])[N+]([H])([H])C([H])([H])C([H])([H])C(=O)N4C([H])([H])C([H])([H])C([H])([H])C([H])(n5nc(-c6c([H])c([H])c(Oc7c([H])c([H])c(F)c([H])c7F)c([H])c6[H])c(C(=O)N([H])[H])c5N([H])[H])C4([H])[H])c3C([H])([H])[H])c([H])c([H])c2C1([H])[H]

$$$$
83:0:0
     RDKit          3D

 98102  0  0  1  0  0  0  0  0999 V2000
  -21.4620  -31.9100   24.3860 C   0  0  0  0  0  3  0  0  0  0  0  0
  -22.1170  -30.7170   25.1570 C   0  0  0  0  0  3  0  0  0  0  0  0
  -21.1080  -31.7210   22.9100 C   0  0  0  0  0  3  0  0  0  0  0  0
  -21.3390  -29.7560   23.5720 C   0  0  0  0  0  3  0  0  0  0  0  0
  -22.2410  -29.2910   24.6820 C   0  0  0  0  0  0  0  0  0  0  0  0
  -21.2560  -30.4200   22.2890 C   0  0  0  0  0  0  0  0  0  0  0  0
  -23.0880  -27.6940   25.1680 C   0  0  0  0  0  0  0  0  0  0  0  0
  -23.4450  -26.2670   24.4860 N   0  0  0  0  0  0  0  0  0  0  0  0
  -23.5510  -27.7660   26.3070 O   0  0  0  0  0  0  0  0  0  0  0  0
  -22.7260  -25.6580   24.8510 H   0  0  0  0  0  0  0  0  0  0  0  0
  -24.7120  -25.0530   23.9290 C   0  0  0  0  0  1  0  0  0  0  0  0
  -25.0210  -23.0930   23.5890 C   0  0  0  0  0 15  0  0  0  0  0  0
  -26.4350  -21.7900   22.9730 C   0  0  0  0  0 15  0  0  0  0  0  0
  -26.8370  -19.9300   22.2880 C   0  0  0  0  0 15  0  0  0  0  0  0
  -28.2990  -18.6500   21.6430 C   0  0  0  0  0  1  0  0  0  0  0  0
  -29.8150  -15.7020   20.8720 C   0  0  0  0  0  0  0  0  0  0  0  0
  -30.3250  -13.2160   19.7710 C   0  0  0  0  0  2  0  0  0  0  0  0
  -29.5690  -12.7650   18.4690 C   0  0  0  0  0  2  0  0  0  0  0  0
  -28.1370  -12.3170   18.7930 C   0  0  0  0  0  2  0  0  0  0  0  0
  -27.5490  -13.2610   19.8500 C   0  0  0  0  0  3  0  0  0  0  0  0
  -28.4410  -13.4620   21.0900 C   0  0  0  0  0  2  0  0  0  0  0  0
  -29.5590  -14.2640   20.6250 N   0  0  0  0  0  0  0  0  0  0  0  0
  -30.9990  -15.8520   20.4620 O   0  0  0  0  0  0  0  0  0  0  0  0
  -28.8610  -16.8670   21.5170 N   0  0  0  0  0  0  0  0  0  0  0  0
  -29.2460  -16.7990   22.4630 H   0  0  0  0  0  0  0  0  0  0  0  0
  -25.2020  -13.8200   20.5610 C   0  0  0  0  0  0  0  0  0  0  0  0
  -24.1420  -13.0370   20.9160 C   0  0  0  0  0  0  0  0  0  0  0  0
  -24.6190  -11.6910   20.8700 C   0  0  0  0  0  0  0  0  0  0  0  0
  -26.2230  -12.9280   20.2930 N   0  0  0  0  0  0  0  0  0  0  0  0
  -25.9000  -11.6420   20.5510 N   0  0  0  0  0  0  0  0  0  0  0  0
  -23.8950  -10.4270   21.0430 C   0  0  0  0  0  0  0  0  0  0  0  0
  -24.3550   -9.4170   21.9190 C   0  0  0  0  0  3  0  0  0  0  0  0
  -23.6240   -8.2180   22.0740 C   0  0  0  0  0  3  0  0  0  0  0  0
  -22.4210   -8.0250   21.3590 C   0  0  0  0  0  0  0  0  0  0  0  0
  -21.9850   -9.0160   20.4650 C   0  0  0  0  0  3  0  0  0  0  0  0
  -22.7150  -10.2070   20.3050 C   0  0  0  0  0  3  0  0  0  0  0  0
  -21.6630   -6.8850   21.4240 O   0  0  0  0  0  0  0  0  0  0  0  0
  -21.6840   -6.0740   22.5280 C   0  0  0  0  0  0  0  0  0  0  0  0
  -21.4020   -6.5650   23.8210 C   0  0  0  0  0  3  0  0  0  0  0  0
  -21.3640   -5.6800   24.9170 C   0  0  0  0  0  3  0  0  0  0  0  0
  -21.6060   -4.3060   24.7240 C   0  0  0  0  0  0  0  0  0  0  0  0
  -21.8810   -3.8160   23.4350 C   0  0  0  0  0  3  0  0  0  0  0  0
  -21.9190   -4.6970   22.3410 C   0  0  0  0  0  0  0  0  0  0  0  0
  -22.1660   -4.2170   21.0990 F   0  0  0  0  0  0  0  0  0  0  0  0
  -21.5610   -3.4540   25.7730 F   0  0  0  0  0  0  0  0  0  0  0  0
  -22.7540  -13.5170   21.1850 C   0  0  0  0  0  0  0  0  0  0  0  0
  -22.0260  -12.8180   22.0490 N   0  0  0  0  0  0  0  0  0  0  0  0
  -22.3280  -14.5480   20.6750 O   0  0  0  0  0  0  0  0  0  0  0  0
  -22.3880  -11.9830   22.4860 H   0  0  0  0  0  0  0  0  0  0  0  0
  -21.0910  -13.1220   22.2720 H   0  0  0  0  0  0  0  0  0  0  0  0
  -25.3790  -15.1870   20.4180 N   0  0  0  0  0  0  0  0  0  0  0  0
  -24.6230  -15.8450   20.5660 H   0  0  0  0  0  0  0  0  0  0  0  0
  -26.2520  -15.6360   20.1650 H   0  0  0  0  0  0  0  0  0  0  0  0
  -21.4020  -29.7760   20.8110 N   0  0  0  0  0  0  0  0  0  0  0  0
  -21.1850  -30.5450   20.1440 H   0  0  0  0  0  0  0  0  0  0  0  0
  -22.1580  -28.4210   19.9810 C   0  0  0  0  0  2  0  0  0  0  0  0
  -23.6320  -27.1630   20.1970 C   0  0  0  0  0  2  0  0  0  0  0  0
  -25.3210  -26.9600   20.6240 O   0  0  0  0  0  0  0  0  0  0  0  0
  -24.8900  -31.8600   23.2130 C   0  0  0  0  0  0  0  0  0  0  0  0
  -26.5490  -27.3010   20.0170 C   0  0  0  0  0  3  0  0  0  0  0  0
  -23.8200  -30.2700   21.6230 C   0  0  0  0  0  3  0  0  0  0  0  0
  -25.2010  -29.4730   19.7400 C   0  0  0  0  0  3  0  0  0  0  0  0
  -26.2770  -30.6840   21.5800 C   0  0  0  0  0  2  0  0  0  0  0  0
  -26.2650  -29.5390   20.6320 C   0  0  0  0  0  3  0  0  0  0  0  0
  -27.1270  -28.4370   20.6510 C   0  0  0  0  0  2  0  0  0  0  0  0
  -26.0650  -27.4410   18.7410 C   0  0  0  0  0  2  0  0  0  0  0  0
  -25.2100  -28.5530   18.6730 C   0  0  0  0  0  2  0  0  0  0  0  0
  -24.0660  -30.3420   20.0670 C   0  0  0  0  0  2  0  0  0  0  0  0
  -24.9950  -30.9220   22.2430 N   0  0  0  0  0  0  0  0  0  0  0  0
  -23.8320  -32.3320   23.5770 O   0  0  0  0  0  0  0  0  0  0  0  0
  -23.4740  -28.7730   22.3690 C   0  0  0  0  0  0  0  0  0  0  0  0
  -22.2680  -27.8050   22.4630 N   0  0  0  0  0  0  0  0  0  0  0  0
  -24.4180  -28.4270   23.0180 O   0  0  0  0  0  0  0  0  0  0  0  0
  -22.7460  -26.9410   22.7040 H   0  0  0  0  0  0  0  0  0  0  0  0
  -17.9980  -27.9100   22.7070 C   0  0  0  0  0  0  0  0  0  0  0  0
  -20.7090  -27.3860   23.1020 C   0  0  0  0  0  3  0  0  0  0  0  0
  -20.4110  -26.2150   22.2800 C   0  0  0  0  0  2  0  0  0  0  0  0
  -19.3880  -26.4760   21.1980 C   0  0  0  0  0  2  0  0  0  0  0  0
  -18.0100  -26.6960   21.8230 C   0  0  0  0  0  2  0  0  0  0  0  0
  -19.1730  -28.2320   23.4030 C   0  0  0  0  0  0  0  0  0  0  0  0
  -18.8870  -29.3860   24.2740 C   0  0  0  0  0  3  0  0  0  0  0  0
  -17.7470  -30.2380   24.2480 C   0  0  0  0  0  3  0  0  0  0  0  0
  -16.6270  -29.8110   23.5320 C   0  0  0  0  0  3  0  0  0  0  0  0
  -16.7650  -28.6310   22.7980 C   0  0  0  0  0  3  0  0  0  0  0  0
  -26.1440  -32.4790   23.8820 C   0  0  0  0  0  3  0  0  0  0  0  0
  -26.5840  -31.6300   25.1300 C   0  0  1  0  0  0  0  0  0  0  0  0
  -25.4250  -31.3720   26.1230 C   0  0  0  0  0  1  0  0  0  0  0  0
  -27.1840  -30.2520   24.7530 C   0  0  0  0  0  1  0  0  0  0  0  0
  -27.7150  -32.3630   25.8730 C   0  0  0  0  0  1  0  0  0  0  0  0
  -25.8220  -33.8650   24.2930 N   0  0  0  0  0  0  0  0  0  0  0  0
  -25.9430  -34.9280   23.5000 C   0  0  0  0  0  0  0  0  0  0  0  0
  -26.5150  -34.8720   22.4080 O   0  0  0  0  0  0  0  0  0  0  0  0
  -25.5320  -33.9900   25.2530 H   0  0  0  0  0  0  0  0  0  0  0  0
  -24.1830  -36.6990   23.2490 C   0  0  0  0  0  1  0  0  0  0  0  0
  -25.4410  -36.2890   24.0320 C   0  0  0  0  0  3  0  0  0  0  0  0
  -27.5690  -37.2170   24.8540 C   0  0  0  0  0  1  0  0  0  0  0  0
  -26.4340  -37.3820   23.9500 N   0  0  0  0  0  0  0  0  0  0  0  0
  -26.0100  -38.2810   24.1710 H   0  0  0  0  0  0  0  0  0  0  0  0
  1  2  1  0
  3  1  2  0
  4  5  1  0
  5  2  2  0
  5  7  1  0
  6  3  1  0
  6  4  2  3
  7  9  2  0
  8 10  1  0
  8  7  1  0
 11  8  1  0
 16 24  1  0
 17 22  1  0
 18 19  1  0
 18 17  1  0
 20 19  1  0
 20 29  1  0
 20 21  1  0
 22 16  1  0
 22 21  1  0
 23 16  2  0
 24 15  1  0
 24 25  1  0
 26 27  2  0
 27 46  1  0
 28 27  1  0
 28 31  1  0
 29 30  1  0
 29 26  1  0
 30 28  2  0
 31 32  1  0
 32 33  2  0
 34 37  1  0
 34 33  1  0
 35 34  2  0
 36 35  1  0
 36 31  2  0
 37 38  1  0
 38 39  1  0
 39 40  2  0
 41 40  1  0
 41 45  1  0
 42 41  2  0
 43 38  2  0
 43 42  1  0
 44 43  1  0
 46 47  1  0
 47 50  1  0
 47 49  1  0
 48 46  2  0
 51 26  1  0
 51 52  1  0
 53 51  1  0
 54  6  1  0
 55 54  1  0
 56 57  1  0
 56 54  1  0
 57 58  1  0
 59 70  2  0
 60 58  1  0
 60 65  1  0
 61 69  1  0
 61 71  1  0
 62 67  1  0
 62 68  1  0
 62 64  1  0
 63 69  1  0
 64 65  1  0
 64 63  1  0
 66 60  1  0
 67 66  1  0
 68 61  1  0
 69 59  1  0
 71 72  1  0
 71 73  2  0
 72 74  1  0
 75 84  2  0
 75 80  1  0
 76 72  1  0
 76 80  1  0
 77 76  1  0
 78 79  1  0
 78 77  1  0
 79 75  1  0
 80 81  2  0
 82 81  1  0
 83 82  2  0
 84 83  1  0
 85 59  1  0
 85 90  1  0
 85 86  1  0
 86 89  1  1
 86 87  1  0
 88 86  1  0
 90 93  1  0
 91 95  1  0
 91 90  1  0
 92 91  2  0
 95 94  1  0
 97 95  1  0
 97 98  1  0
 97 96  1  0
M  ISO  4  16 100  24 100  57 101  58 101
M  END
>  <TORSDO>  (83) 
F 25

>  <SCORE>  (83) 
21.368

>  <name>  (83) 
83

>  <ligand_id>  (83) 
83

>  <original_smiles>  (83) 
[H]c1c([H])c(C(=O)N([H])C([H])([H])C([H])([H])C([H])([H])C([H])([H])C([H])([H])N([H])C(=O)N2C([H])([H])C([H])([H])C([H])([H])C([H])(n3nc(-c4c([H])c([H])c(Oc5c([H])c([H])c(F)c([H])c5F)c([H])c4[H])c(C(=O)N([H])[H])c3N([H])[H])C2([H])[H])c([H])c(N([H])C([H])([H])C([H])([H])Oc2c([H])c([H])c3c(c2[H])C([H])([H])N(C(=O)C([H])(N([H])C(=O)C([H])(N([H])C([H])([H])[H])C([H])([H])[H])C(C([H])([H])[H])(C([H])([H])[H])C([H])([H])[H])C([H])(C(=O)N([H])C2([H])c4c([H])c([H])c([H])c([H])c4C([H])([H])C([H])([H])C2([H])[H])C3([H])[H])c1[H]

>  <smiles>  (83) 
[H]c1c([H])c(C(=O)N([H])C([H])([H])C([H])([H])C([H])([H])C([H])([H])C([H])([H])N([H])C(=O)N2C([H])([H])C([H])([H])C([H])([H])C([H])(n3nc(-c4c([H])c([H])c(Oc5c([H])c([H])c(F)c([H])c5F)c([H])c4[H])c(C(=O)N([H])[H])c3N([H])[H])C2([H])[H])c([H])c(N([H])C([H])([H])C([H])([H])Oc2c([H])c([H])c3c(c2[H])C([H])([H])N(C(=O)C([H])(N([H])C(=O)C([H])(N([H])C([H])([H])[H])C([H])([H])[H])C(C([H])([H])[H])(C([H])([H])[H])C([H])([H])[H])C([H])(C(=O)N([H])C2([H])c4c([H])c([H])c([H])c([H])c4C([H])([H])C([H])([H])C2([H])[H])C3([H])[H])c1[H]

$$$$
84:0:0
     RDKit          3D

 98107  0  0  1  0  0  0  0  0999 V2000
  -31.4170  -24.4580   17.3520 C   0  0  0  0  0  2  0  0  0  0  0  0
  -33.2580  -25.5460   18.5140 C   0  0  0  0  0  2  0  0  0  0  0  0
  -29.5920  -26.2820   17.8240 C   0  0  0  0  0  2  0  0  0  0  0  0
  -30.4590  -28.2390   19.2830 C   0  0  0  0  0  2  0  0  0  0  0  0
  -30.8460  -25.5300   18.2740 C   0  0  0  0  0  3  0  0  0  0  0  0
  -32.0290  -26.4750   18.4370 C   0  0  0  0  0  3  0  0  0  0  0  0
  -31.7530  -27.4470   19.5980 C   0  0  0  0  0  3  0  0  0  0  0  0
  -32.7820  -24.1560   18.0090 C   0  0  0  0  0  3  0  0  0  0  0  0
  -29.2340  -27.3920   18.8350 C   0  0  0  0  0  3  0  0  0  0  0  0
  -32.9350  -28.4010   19.8420 C   0  0  0  0  0  1  0  0  0  0  0  0
  -32.6760  -23.2150   19.1540 N   0  0  0  0  0  4  0  0  0  0  0  0
  -32.0920  -23.6370   19.8560 H   0  0  0  0  0  0  0  0  0  0  0  0
  -33.5960  -23.1080   19.5520 H   0  0  0  0  0  0  0  0  0  0  0  0
  -32.1540  -21.8590   18.8730 C   0  0  0  0  0  2  0  0  0  0  0  0
  -32.0430  -21.0320   20.1660 C   0  0  0  0  0  2  0  0  0  0  0  0
  -31.3550  -19.6820   19.9400 C   0  0  0  0  0  2  0  0  0  0  0  0
  -31.3510  -18.7870   21.1920 C   0  0  0  0  0  2  0  0  0  0  0  0
  -30.6450  -17.4600   20.8950 C   0  0  0  0  0  2  0  0  0  0  0  0
  -30.8860  -16.3580   21.9430 C   0  0  0  0  0  2  0  0  0  0  0  0
  -30.7260  -14.3150   20.5240 C   0  0  0  0  0  0  0  0  0  0  0  0
  -30.3180  -12.2860   19.1840 C   0  0  0  0  0  2  0  0  0  0  0  0
  -29.3590  -12.5690   18.0150 C   0  0  0  0  0  2  0  0  0  0  0  0
  -27.8950  -12.4190   18.4640 C   0  0  0  0  0  2  0  0  0  0  0  0
  -27.5900  -13.2090   19.7630 C   0  0  0  0  0  3  0  0  0  0  0  0
  -28.6500  -12.9140   20.8460 C   0  0  0  0  0  2  0  0  0  0  0  0
  -29.9840  -13.2020   20.2860 N   0  0  0  0  0  0  0  0  0  0  0  0
  -31.7460  -14.5970   19.8880 O   0  0  0  0  0  0  0  0  0  0  0  0
  -30.2810  -15.0970   21.5180 N   0  0  0  0  0  0  0  0  0  0  0  0
  -29.4460  -14.7940   21.9980 H   0  0  0  0  0  0  0  0  0  0  0  0
  -25.2020  -13.8230   20.5070 C   0  0  0  0  0  0  0  0  0  0  0  0
  -24.1340  -13.0520   20.8770 C   0  0  0  0  0  0  0  0  0  0  0  0
  -24.5840  -11.6980   20.8190 C   0  0  0  0  0  0  0  0  0  0  0  0
  -26.2380  -12.9390   20.2490 N   0  0  0  0  0  0  0  0  0  0  0  0
  -25.8680  -11.6540   20.4900 N   0  0  0  0  0  0  0  0  0  0  0  0
  -23.8530  -10.4370   21.0000 C   0  0  0  0  0  0  0  0  0  0  0  0
  -24.3150   -9.4340   21.8810 C   0  0  0  0  0  3  0  0  0  0  0  0
  -23.5830   -8.2400   22.0510 C   0  0  0  0  0  3  0  0  0  0  0  0
  -22.3760   -8.0380   21.3390 C   0  0  0  0  0  0  0  0  0  0  0  0
  -21.9330   -9.0300   20.4480 C   0  0  0  0  0  3  0  0  0  0  0  0
  -22.6640  -10.2180   20.2750 C   0  0  0  0  0  3  0  0  0  0  0  0
  -21.6140   -6.8980   21.4200 O   0  0  0  0  0  0  0  0  0  0  0  0
  -21.6350   -6.0970   22.5340 C   0  0  0  0  0  0  0  0  0  0  0  0
  -21.3340   -6.5990   23.8190 C   0  0  0  0  0  3  0  0  0  0  0  0
  -21.2990   -5.7270   24.9250 C   0  0  0  0  0  3  0  0  0  0  0  0
  -21.5520   -4.3540   24.7480 C   0  0  0  0  0  0  0  0  0  0  0  0
  -21.8470   -3.8510   23.4680 C   0  0  0  0  0  3  0  0  0  0  0  0
  -21.8830   -4.7200   22.3630 C   0  0  0  0  0  0  0  0  0  0  0  0
  -22.1460   -4.2270   21.1290 F   0  0  0  0  0  0  0  0  0  0  0  0
  -21.5110   -3.5130   25.8080 F   0  0  0  0  0  0  0  0  0  0  0  0
  -22.7440  -13.5340   21.1790 C   0  0  0  0  0  0  0  0  0  0  0  0
  -22.0240  -12.8310   22.0450 N   0  0  0  0  0  0  0  0  0  0  0  0
  -22.3050  -14.5700   20.6790 O   0  0  0  0  0  0  0  0  0  0  0  0
  -22.3910  -11.9910   22.4700 H   0  0  0  0  0  0  0  0  0  0  0  0
  -21.0930  -13.1380   22.2880 H   0  0  0  0  0  0  0  0  0  0  0  0
  -25.3760  -15.1970   20.3510 N   0  0  0  0  0  0  0  0  0  0  0  0
  -24.6160  -15.8560   20.4770 H   0  0  0  0  0  0  0  0  0  0  0  0
  -26.2320  -15.6340   20.0330 H   0  0  0  0  0  0  0  0  0  0  0  0
  -28.5100  -26.8410   19.9500 O   0  0  0  0  0  0  0  0  0  0  0  0
  -24.6450  -31.8760   23.2190 C   0  0  0  0  0  0  0  0  0  0  0  0
  -27.3040  -27.4750   20.1240 C   0  0  0  0  0  0  0  0  0  0  0  0
  -23.4270  -30.4560   21.5930 C   0  0  0  0  0  3  0  0  0  0  0  0
  -24.8810  -28.9080   20.1770 C   0  0  0  0  0  0  0  0  0  0  0  0
  -25.9460  -30.8360   21.3730 C   0  0  0  0  0  2  0  0  0  0  0  0
  -26.0320  -29.4600   20.7510 C   0  0  0  0  0  0  0  0  0  0  0  0
  -27.2450  -28.7450   20.7340 C   0  0  0  0  0  3  0  0  0  0  0  0
  -26.1340  -26.9080   19.5790 C   0  0  0  0  0  3  0  0  0  0  0  0
  -24.9200  -27.6260   19.5970 C   0  0  0  0  0  3  0  0  0  0  0  0
  -23.6290  -29.7580   20.2190 C   0  0  0  0  0  2  0  0  0  0  0  0
  -24.6890  -31.0730   22.1180 N   0  0  0  0  0  0  0  0  0  0  0  0
  -23.5680  -32.1470   23.7710 O   0  0  0  0  0  0  0  0  0  0  0  0
  -22.7880  -29.4410   22.5670 C   0  0  0  0  0  0  0  0  0  0  0  0
  -21.4630  -29.2590   22.4570 N   0  0  0  0  0  0  0  0  0  0  0  0
  -23.4810  -28.8190   23.3750 O   0  0  0  0  0  0  0  0  0  0  0  0
  -20.9650  -29.8210   21.7810 H   0  0  0  0  0  0  0  0  0  0  0  0
  -18.0940  -28.0660   22.9760 C   0  0  0  0  0  0  0  0  0  0  0  0
  -20.6520  -28.3240   23.2350 C   0  0  0  0  0  3  0  0  0  0  0  0
  -20.7530  -26.8880   22.6670 C   0  0  0  0  0  2  0  0  0  0  0  0
  -19.6460  -26.5620   21.6580 C   0  0  0  0  0  2  0  0  0  0  0  0
  -18.2660  -26.7140   22.3050 C   0  0  0  0  0  2  0  0  0  0  0  0
  -19.2150  -28.8300   23.3970 C   0  0  0  0  0  0  0  0  0  0  0  0
  -19.0000  -30.1010   23.9750 C   0  0  0  0  0  3  0  0  0  0  0  0
  -17.6970  -30.6030   24.1430 C   0  0  0  0  0  3  0  0  0  0  0  0
  -16.5910  -29.8330   23.7420 C   0  0  0  0  0  3  0  0  0  0  0  0
  -16.7910  -28.5680   23.1620 C   0  0  0  0  0  3  0  0  0  0  0  0
  -25.9380  -32.5090   23.8250 C   0  0  0  0  0  3  0  0  0  0  0  0
  -25.6290  -33.9000   24.1750 N   0  0  0  0  0  0  0  0  0  0  0  0
  -25.9430  -34.9620   23.4200 C   0  0  0  0  0  0  0  0  0  0  0  0
  -26.5930  -34.8730   22.3750 O   0  0  0  0  0  0  0  0  0  0  0  0
  -25.0470  -34.0410   24.9890 H   0  0  0  0  0  0  0  0  0  0  0  0
  -24.1860  -36.7360   23.1150 C   0  0  0  0  0  1  0  0  0  0  0  0
  -25.4480  -36.3410   23.8990 C   0  0  0  0  0  3  0  0  0  0  0  0
  -27.5970  -37.2330   24.6790 C   0  0  0  0  0  1  0  0  0  0  0  0
  -26.4630  -37.4080   23.7760 N   0  0  0  0  0  0  0  0  0  0  0  0
  -26.0520  -38.3190   23.9600 H   0  0  0  0  0  0  0  0  0  0  0  0
  -26.4850  -31.7270   25.0800 C   0  0  1  0  0  0  0  0  0  0  0  0
  -25.4150  -31.4710   26.1660 C   0  0  0  0  0  1  0  0  0  0  0  0
  -27.0700  -30.3590   24.6580 C   0  0  0  0  0  1  0  0  0  0  0  0
  -27.6390  -32.5200   25.7340 C   0  0  0  0  0  1  0  0  0  0  0  0
  1  8  1  0
  3  5  1  0
  3  9  1  0
  4  7  1  0
  5  1  1  0
  5  6  1  0
  6  2  1  0
  6  7  1  0
  7 10  1  0
  8  2  1  0
  8 11  1  0
  9  4  1  0
  9 58  1  0
 11 13  1  0
 11 12  1  0
 14 11  1  0
 14 15  1  0
 16 15  1  0
 16 17  1  0
 18 17  1  0
 18 19  1  0
 20 28  1  0
 21 26  1  0
 22 23  1  0
 22 21  1  0
 24 23  1  0
 24 33  1  0
 24 25  1  0
 26 20  1  0
 26 25  1  0
 27 20  2  0
 28 19  1  0
 28 29  1  0
 30 31  2  0
 31 50  1  0
 32 31  1  0
 32 35  1  0
 33 34  1  0
 33 30  1  0
 34 32  2  0
 35 36  1  0
 36 37  2  0
 38 41  1  0
 38 37  1  0
 39 38  2  0
 40 39  1  0
 40 35  2  0
 41 42  1  0
 42 43  1  0
 43 44  2  0
 45 44  1  0
 45 49  1  0
 46 45  2  0
 47 42  2  0
 47 46  1  0
 48 47  1  0
 50 51  1  0
 51 54  1  0
 51 53  1  0
 52 50  2  0
 55 56  1  0
 55 30  1  0
 57 55  1  0
 58 60  1  0
 59 70  2  0
 60 65  1  0
 61 69  1  0
 61 71  1  0
 62 68  1  0
 62 64  1  0
 63 69  1  0
 64 63  1  0
 65 64  2  0
 66 67  1  0
 66 60  2  0
 67 62  2  0
 68 61  1  0
 69 59  1  0
 71 73  2  0
 72 71  1  0
 74 72  1  0
 75 84  2  0
 75 80  1  0
 76 72  1  0
 76 80  1  0
 77 76  1  0
 78 79  1  0
 78 77  1  0
 79 75  1  0
 80 81  2  0
 81 82  1  0
 83 82  2  0
 84 83  1  0
 85 59  1  0
 85 86  1  0
 85 95  1  0
 86 89  1  0
 87 91  1  0
 87 86  1  0
 88 87  2  0
 91 90  1  0
 93 91  1  0
 93 94  1  0
 93 92  1  0
 95 98  1  1
 95 96  1  0
 97 95  1  0
M  ISO  4   9 101  20 100  28 100  58 101
M  END
>  <TORSDO>  (84) 
F 23

>  <SCORE>  (84) 
-12.574

>  <name>  (84) 
84

>  <ligand_id>  (84) 
84

>  <original_smiles>  (84) 
[H]c1c([H])c([H])c2c(c1[H])C([H])([H])C([H])([H])C([H])([H])C2([H])N([H])C(=O)C1([H])N(C(=O)C([H])(N([H])C(=O)C([H])(N([H])C([H])([H])[H])C([H])([H])[H])C(C([H])([H])[H])(C([H])([H])[H])C([H])([H])[H])C([H])([H])c2c([H])c(OC3([H])C([H])([H])C([H])(C([H])([H])[H])C4([H])C([H])([H])C([H])([N+]([H])([H])C([H])([H])C([H])([H])C([H])([H])C([H])([H])C([H])([H])C([H])([H])N([H])C(=O)N5C([H])([H])C([H])([H])C([H])([H])C([H])(n6nc(-c7c([H])c([H])c(Oc8c([H])c([H])c(F)c([H])c8F)c([H])c7[H])c(C(=O)N([H])[H])c6N([H])[H])C5([H])[H])C([H])([H])C4([H])C3([H])[H])c([H])c([H])c2C1([H])[H]

>  <smiles>  (84) 
[H]c1c([H])c([H])c2c(c1[H])C([H])([H])C([H])([H])C([H])([H])C2([H])N([H])C(=O)C1([H])N(C(=O)C([H])(N([H])C(=O)C([H])(N([H])C([H])([H])[H])C([H])([H])[H])C(C([H])([H])[H])(C([H])([H])[H])C([H])([H])[H])C([H])([H])c2c([H])c(OC3([H])C([H])([H])C([H])(C([H])([H])[H])C4([H])C([H])([H])C([H])([N+]([H])([H])C([H])([H])C([H])([H])C([H])([H])C([H])([H])C([H])([H])C([H])([H])N([H])C(=O)N5C([H])([H])C([H])([H])C([H])([H])C([H])(n6nc(-c7c([H])c([H])c(Oc8c([H])c([H])c(F)c([H])c8F)c([H])c7[H])c(C(=O)N([H])[H])c6N([H])[H])C5([H])[H])C([H])([H])C4([H])C3([H])[H])c([H])c([H])c2C1([H])[H]

$$$$
85:0:0
     RDKit          3D

 95103  0  0  1  0  0  0  0  0999 V2000
  -27.0680  -25.0800   23.8320 C   0  0  0  0  0  3  0  0  0  0  0  0
  -27.0550  -23.6760   23.9460 C   0  0  0  0  0  3  0  0  0  0  0  0
  -27.5340  -25.6890   22.6470 C   0  0  0  0  0  3  0  0  0  0  0  0
  -28.0220  -23.5000   21.7210 C   0  0  0  0  0  3  0  0  0  0  0  0
  -27.5210  -22.8750   22.8820 C   0  0  0  0  0  0  0  0  0  0  0  0
  -27.9960  -24.8930   21.5710 C   0  0  0  0  0  0  0  0  0  0  0  0
  -27.4740  -21.3580   22.9810 C   0  0  0  0  0  2  0  0  0  0  0  0
  -26.0040  -21.0470   20.8900 C   0  0  0  0  0  1  0  0  0  0  0  0
  -27.2970  -20.6280   21.6200 C   0  0  0  0  0  3  0  0  0  0  0  0
  -27.3710  -19.1590   21.7830 N   0  0  0  0  0  4  0  0  0  0  0  0
  -26.8330  -18.8770   22.5900 H   0  0  0  0  0  0  0  0  0  0  0  0
  -26.9390  -18.7500   20.9690 H   0  0  0  0  0  0  0  0  0  0  0  0
  -28.7570  -18.6380   21.8690 C   0  0  0  0  0  2  0  0  0  0  0  0
  -28.7940  -17.1010   21.9140 C   0  0  0  0  0  2  0  0  0  0  0  0
  -30.2330  -16.5340   21.9070 C   0  0  0  0  0  2  0  0  0  0  0  0
  -30.7130  -14.3700   20.7120 C   0  0  0  0  0  0  0  0  0  0  0  0
  -30.4250  -12.3010   19.3920 C   0  0  0  0  0  2  0  0  0  0  0  0
  -29.4900  -12.5500   18.1940 C   0  0  0  0  0  2  0  0  0  0  0  0
  -28.0140  -12.3950   18.6090 C   0  0  0  0  0  2  0  0  0  0  0  0
  -27.6710  -13.1950   19.8890 C   0  0  0  0  0  3  0  0  0  0  0  0
  -28.6980  -12.8950   21.0000 C   0  0  0  0  0  2  0  0  0  0  0  0
  -30.0470  -13.2130   20.4790 N   0  0  0  0  0  0  0  0  0  0  0  0
  -31.7100  -14.7370   20.0770 O   0  0  0  0  0  0  0  0  0  0  0  0
  -30.1640  -15.0970   21.6940 N   0  0  0  0  0  0  0  0  0  0  0  0
  -29.4430  -14.6140   22.2100 H   0  0  0  0  0  0  0  0  0  0  0  0
  -25.2610  -13.8150   20.5600 C   0  0  0  0  0  0  0  0  0  0  0  0
  -24.1840  -13.0480   20.9200 C   0  0  0  0  0  0  0  0  0  0  0  0
  -24.6360  -11.6940   20.8760 C   0  0  0  0  0  0  0  0  0  0  0  0
  -26.3050  -12.9320   20.3350 N   0  0  0  0  0  0  0  0  0  0  0  0
  -25.9270  -11.6500   20.5710 N   0  0  0  0  0  0  0  0  0  0  0  0
  -23.9040  -10.4330   21.0450 C   0  0  0  0  0  0  0  0  0  0  0  0
  -24.3580   -9.4220   21.9220 C   0  0  0  0  0  3  0  0  0  0  0  0
  -23.6260   -8.2240   22.0780 C   0  0  0  0  0  3  0  0  0  0  0  0
  -22.4260   -8.0260   21.3540 C   0  0  0  0  0  0  0  0  0  0  0  0
  -21.9900   -9.0270   20.4670 C   0  0  0  0  0  3  0  0  0  0  0  0
  -22.7210  -10.2150   20.3090 C   0  0  0  0  0  3  0  0  0  0  0  0
  -21.6650   -6.8840   21.4210 O   0  0  0  0  0  0  0  0  0  0  0  0
  -21.6890   -6.0680   22.5240 C   0  0  0  0  0  0  0  0  0  0  0  0
  -21.4060   -6.5610   23.8170 C   0  0  0  0  0  3  0  0  0  0  0  0
  -21.3670   -5.6750   24.9130 C   0  0  0  0  0  3  0  0  0  0  0  0
  -21.6040   -4.3030   24.7230 C   0  0  0  0  0  0  0  0  0  0  0  0
  -21.8840   -3.8120   23.4350 C   0  0  0  0  0  3  0  0  0  0  0  0
  -21.9230   -4.6920   22.3400 C   0  0  0  0  0  0  0  0  0  0  0  0
  -22.1700   -4.2090   21.0980 F   0  0  0  0  0  0  0  0  0  0  0  0
  -21.5610   -3.4530   25.7760 F   0  0  0  0  0  0  0  0  0  0  0  0
  -22.7880  -13.5340   21.1880 C   0  0  0  0  0  0  0  0  0  0  0  0
  -22.0460  -12.8350   22.0430 N   0  0  0  0  0  0  0  0  0  0  0  0
  -22.3610  -14.5690   20.6730 O   0  0  0  0  0  0  0  0  0  0  0  0
  -22.4010  -11.9930   22.4690 H   0  0  0  0  0  0  0  0  0  0  0  0
  -21.1100  -13.1420   22.2670 H   0  0  0  0  0  0  0  0  0  0  0  0
  -25.4430  -15.1820   20.3780 N   0  0  0  0  0  0  0  0  0  0  0  0
  -24.6530  -15.8190   20.3910 H   0  0  0  0  0  0  0  0  0  0  0  0
  -26.2450  -15.5510   19.8830 H   0  0  0  0  0  0  0  0  0  0  0  0
  -28.4600  -25.4390   20.2230 C   0  0  0  0  0  2  0  0  0  0  0  0
  -28.4560  -26.8480   20.0980 O   0  0  0  0  0  0  0  0  0  0  0  0
  -24.6100  -31.8680   23.2150 C   0  0  0  0  0  0  0  0  0  0  0  0
  -27.2450  -27.5000   20.0760 C   0  0  0  0  0  0  0  0  0  0  0  0
  -23.3920  -30.4960   21.5490 C   0  0  0  0  0  3  0  0  0  0  0  0
  -24.8400  -28.9670   20.1130 C   0  0  0  0  0  0  0  0  0  0  0  0
  -25.9160  -30.8540   21.3580 C   0  0  0  0  0  2  0  0  0  0  0  0
  -25.9950  -29.4960   20.7020 C   0  0  0  0  0  0  0  0  0  0  0  0
  -27.1980  -28.7710   20.6750 C   0  0  0  0  0  3  0  0  0  0  0  0
  -26.0740  -26.9640   19.4890 C   0  0  0  0  0  3  0  0  0  0  0  0
  -24.8730  -27.6990   19.5080 C   0  0  0  0  0  3  0  0  0  0  0  0
  -23.6030  -29.8280   20.1630 C   0  0  0  0  0  2  0  0  0  0  0  0
  -24.6570  -31.0850   22.1010 N   0  0  0  0  0  0  0  0  0  0  0  0
  -23.5300  -32.1420   23.7580 O   0  0  0  0  0  0  0  0  0  0  0  0
  -22.7350  -29.4680   22.4980 C   0  0  0  0  0  0  0  0  0  0  0  0
  -21.4100  -29.3030   22.3710 N   0  0  0  0  0  0  0  0  0  0  0  0
  -23.4160  -28.8220   23.2990 O   0  0  0  0  0  0  0  0  0  0  0  0
  -20.9220  -29.8780   21.6980 H   0  0  0  0  0  0  0  0  0  0  0  0
  -18.0250  -28.1370   22.8460 C   0  0  0  0  0  0  0  0  0  0  0  0
  -20.5830  -28.3630   23.1270 C   0  0  0  0  0  3  0  0  0  0  0  0
  -20.6730  -26.9380   22.5360 C   0  0  0  0  0  2  0  0  0  0  0  0
  -19.5720  -26.6370   21.5160 C   0  0  0  0  0  2  0  0  0  0  0  0
  -18.1900  -26.7910   22.1590 C   0  0  0  0  0  2  0  0  0  0  0  0
  -19.1510  -28.8810   23.2890 C   0  0  0  0  0  0  0  0  0  0  0  0
  -18.9480  -30.1390   23.8950 C   0  0  0  0  0  3  0  0  0  0  0  0
  -17.6500  -30.6550   24.0620 C   0  0  0  0  0  3  0  0  0  0  0  0
  -16.5370  -29.9090   23.6370 C   0  0  0  0  0  3  0  0  0  0  0  0
  -16.7250  -28.6520   23.0350 C   0  0  0  0  0  3  0  0  0  0  0  0
  -25.9020  -32.4820   23.8410 C   0  0  0  0  0  3  0  0  0  0  0  0
  -25.5950  -33.8630   24.2350 N   0  0  0  0  0  0  0  0  0  0  0  0
  -25.9030  -34.9470   23.5100 C   0  0  0  0  0  0  0  0  0  0  0  0
  -26.5550  -34.8910   22.4620 O   0  0  0  0  0  0  0  0  0  0  0  0
  -25.0230  -33.9800   25.0580 H   0  0  0  0  0  0  0  0  0  0  0  0
  -24.1490  -36.7320   23.2620 C   0  0  0  0  0  1  0  0  0  0  0  0
  -25.4120  -36.3110   24.0320 C   0  0  0  0  0  3  0  0  0  0  0  0
  -27.5580  -37.1820   24.8450 C   0  0  0  0  0  1  0  0  0  0  0  0
  -26.4300  -37.3800   23.9390 N   0  0  0  0  0  0  0  0  0  0  0  0
  -26.0160  -38.2860   24.1430 H   0  0  0  0  0  0  0  0  0  0  0  0
  -26.4480  -31.6600   25.0710 C   0  0  1  0  0  0  0  0  0  0  0  0
  -25.3800  -31.3730   26.1490 C   0  0  0  0  0  1  0  0  0  0  0  0
  -27.0280  -30.3030   24.6070 C   0  0  0  0  0  1  0  0  0  0  0  0
  -27.6040  -32.4310   25.7510 C   0  0  0  0  0  1  0  0  0  0  0  0
  1  2  1  0
  3  1  2  0
  4  5  1  0
  5  7  1  0
  5  2  2  0
  6  4  2  0
  6  3  1  0
  9  8  1  0
  9 10  1  0
  9  7  1  0
 10 13  1  0
 10 11  1  0
 12 10  1  0
 13 14  1  0
 15 14  1  0
 16 24  1  0
 17 22  1  0
 18 19  1  0
 18 17  1  0
 20 19  1  0
 20 29  1  0
 20 21  1  0
 22 16  1  0
 22 21  1  0
 23 16  2  0
 24 15  1  0
 24 25  1  0
 26 27  2  0
 27 46  1  0
 28 27  1  0
 28 31  1  0
 29 26  1  0
 29 30  1  0
 30 28  2  0
 31 32  1  0
 32 33  2  0
 34 37  1  0
 34 33  1  0
 35 34  2  0
 36 35  1  0
 36 31  2  0
 37 38  1  0
 38 39  1  0
 39 40  2  0
 41 40  1  0
 41 45  1  0
 42 41  2  0
 43 38  2  0
 43 42  1  0
 44 43  1  0
 46 47  1  0
 47 50  1  0
 47 49  1  0
 48 46  2  0
 51 52  1  0
 51 26  1  0
 53 51  1  0
 54  6  1  0
 55 54  1  0
 56 67  2  0
 57 55  1  0
 57 62  1  0
 58 66  1  0
 58 68  1  0
 59 65  1  0
 59 61  1  0
 60 66  1  0
 61 60  1  0
 62 61  2  0
 63 64  1  0
 63 57  2  0
 64 59  2  0
 65 58  1  0
 66 56  1  0
 68 70  2  0
 69 68  1  0
 71 69  1  0
 72 81  2  0
 72 77  1  0
 73 69  1  0
 73 77  1  0
 74 73  1  0
 75 76  1  0
 75 74  1  0
 76 72  1  0
 77 78  2  0
 78 79  1  0
 80 79  2  0
 81 80  1  0
 82 56  1  0
 82 83  1  0
 82 92  1  0
 83 86  1  0
 84 88  1  0
 84 83  1  0
 85 84  2  0
 88 87  1  0
 90 88  1  0
 90 91  1  0
 90 89  1  0
 92 95  1  1
 92 93  1  0
 94 92  1  0
M  ISO  4  16 100  24 100  54 101  55 101
M  END
>  <TORSDO>  (85) 
F 23

>  <SCORE>  (85) 
7.402

>  <name>  (85) 
85

>  <ligand_id>  (85) 
85

>  <original_smiles>  (85) 
[H]c1c([H])c([H])c2c(c1[H])C([H])([H])C([H])([H])C([H])([H])C2([H])N([H])C(=O)C1([H])N(C(=O)C([H])(N([H])C(=O)C([H])(N([H])C([H])([H])[H])C([H])([H])[H])C(C([H])([H])[H])(C([H])([H])[H])C([H])([H])[H])C([H])([H])c2c([H])c(OC([H])([H])c3c([H])c([H])c([H])c(C([H])([H])C([H])(C([H])([H])[H])[N+]([H])([H])C([H])([H])C([H])([H])C([H])([H])N([H])C(=O)N4C([H])([H])C([H])([H])C([H])([H])C([H])(n5nc(-c6c([H])c([H])c(Oc7c([H])c([H])c(F)c([H])c7F)c([H])c6[H])c(C(=O)N([H])[H])c5N([H])[H])C4([H])[H])c3[H])c([H])c([H])c2C1([H])[H]

>  <smiles>  (85) 
[H]c1c([H])c([H])c2c(c1[H])C([H])([H])C([H])([H])C([H])([H])C2([H])N([H])C(=O)C1([H])N(C(=O)C([H])(N([H])C(=O)C([H])(N([H])C([H])([H])[H])C([H])([H])[H])C(C([H])([H])[H])(C([H])([H])[H])C([H])([H])[H])C([H])([H])c2c([H])c(OC([H])([H])c3c([H])c([H])c([H])c(C([H])([H])C([H])(C([H])([H])[H])[N+]([H])([H])C([H])([H])C([H])([H])C([H])([H])N([H])C(=O)N4C([H])([H])C([H])([H])C([H])([H])C([H])(n5nc(-c6c([H])c([H])c(Oc7c([H])c([H])c(F)c([H])c7F)c([H])c6[H])c(C(=O)N([H])[H])c5N([H])[H])C4([H])[H])c3[H])c([H])c([H])c2C1([H])[H]

$$$$
86:0:0
     RDKit          3D

 93102  0  0  1  0  0  0  0  0999 V2000
  -28.8010  -22.5040   20.2390 C   0  0  0  0  0  0  0  0  0  0  0  0
  -29.2520  -18.5340   20.4950 C   0  0  0  0  0  0  0  0  0  0  0  0
  -28.6600  -23.8290   20.6280 C   0  0  0  0  0  3  0  0  0  0  0  0
  -28.6680  -21.9890   18.8280 C   0  0  0  0  0  2  0  0  0  0  0  0
  -29.0550  -21.2300   21.0990 C   0  0  0  0  0  2  0  0  0  0  0  0
  -29.1970  -20.5220   18.7940 C   0  0  0  0  0  2  0  0  0  0  0  0
  -31.3430  -18.8800   22.5350 C   0  0  0  0  0  2  0  0  0  0  0  0
  -31.9350  -19.9640   21.6150 C   0  0  0  0  0  2  0  0  0  0  0  0
  -31.2100  -17.4740   21.9130 C   0  0  0  0  0  2  0  0  0  0  0  0
  -31.2420  -20.1890   20.2520 C   0  0  0  0  0  2  0  0  0  0  0  0
  -30.3320  -17.3350   20.6410 C   0  0  0  0  0  3  0  0  0  0  0  0
  -29.6920  -20.0660   20.2050 C   0  0  2  0  0  0  0  0  0  0  0  0
  -28.0510  -18.2860   20.6110 O   0  0  0  0  0  0  0  0  0  0  0  0
  -30.5640  -14.7790   20.1300 C   0  0  0  0  0  0  0  0  0  0  0  0
  -30.2940  -12.5500   19.0360 C   0  0  0  0  0  2  0  0  0  0  0  0
  -29.2990  -12.6720   17.8630 C   0  0  0  0  0  2  0  0  0  0  0  0
  -27.8550  -12.4820   18.3650 C   0  0  0  0  0  2  0  0  0  0  0  0
  -27.5440  -13.3350   19.6260 C   0  0  0  0  0  3  0  0  0  0  0  0
  -28.6560  -13.2000   20.6900 C   0  0  0  0  0  2  0  0  0  0  0  0
  -29.9220  -13.5670   20.0450 N   0  0  0  0  0  0  0  0  0  0  0  0
  -31.7130  -14.9020   19.6940 O   0  0  0  0  0  0  0  0  0  0  0  0
  -29.8540  -15.8870   20.5480 N   0  0  0  0  0  0  0  0  0  0  0  0
  -28.9020  -15.7270   20.8430 H   0  0  0  0  0  0  0  0  0  0  0  0
  -25.1900  -13.9010   20.4830 C   0  0  0  0  0  0  0  0  0  0  0  0
  -24.1460  -13.1140   20.8850 C   0  0  0  0  0  0  0  0  0  0  0  0
  -24.6090  -11.7670   20.7960 C   0  0  0  0  0  0  0  0  0  0  0  0
  -26.2240  -13.0320   20.1740 N   0  0  0  0  0  0  0  0  0  0  0  0
  -25.8840  -11.7420   20.4240 N   0  0  0  0  0  0  0  0  0  0  0  0
  -23.8960  -10.4980   20.9910 C   0  0  0  0  0  0  0  0  0  0  0  0
  -24.3470   -9.5310   21.9170 C   0  0  0  0  0  3  0  0  0  0  0  0
  -23.6330   -8.3260   22.1000 C   0  0  0  0  0  3  0  0  0  0  0  0
  -22.4550   -8.0800   21.3570 C   0  0  0  0  0  0  0  0  0  0  0  0
  -22.0220   -9.0360   20.4210 C   0  0  0  0  0  3  0  0  0  0  0  0
  -22.7360  -10.2320   20.2360 C   0  0  0  0  0  3  0  0  0  0  0  0
  -21.7110   -6.9290   21.4490 O   0  0  0  0  0  0  0  0  0  0  0  0
  -21.6520   -6.2000   22.6110 C   0  0  0  0  0  0  0  0  0  0  0  0
  -21.1570   -6.7550   23.8110 C   0  0  0  0  0  3  0  0  0  0  0  0
  -21.0480   -5.9510   24.9650 C   0  0  0  0  0  3  0  0  0  0  0  0
  -21.4260   -4.5950   24.9170 C   0  0  0  0  0  0  0  0  0  0  0  0
  -21.9140   -4.0420   23.7200 C   0  0  0  0  0  3  0  0  0  0  0  0
  -22.0250   -4.8430   22.5710 C   0  0  0  0  0  0  0  0  0  0  0  0
  -22.4760   -4.2990   21.4140 F   0  0  0  0  0  0  0  0  0  0  0  0
  -21.3150   -3.8210   26.0210 F   0  0  0  0  0  0  0  0  0  0  0  0
  -22.7630  -13.5790   21.2340 C   0  0  0  0  0  0  0  0  0  0  0  0
  -22.0750  -12.8560   22.1110 N   0  0  0  0  0  0  0  0  0  0  0  0
  -22.3020  -14.6220   20.7690 O   0  0  0  0  0  0  0  0  0  0  0  0
  -22.4610  -12.0130   22.5080 H   0  0  0  0  0  0  0  0  0  0  0  0
  -21.1490  -13.1500   22.3870 H   0  0  0  0  0  0  0  0  0  0  0  0
  -25.3400  -15.2760   20.3340 N   0  0  0  0  0  0  0  0  0  0  0  0
  -24.5730  -15.9170   20.5120 H   0  0  0  0  0  0  0  0  0  0  0  0
  -26.1670  -15.7440   19.9870 H   0  0  0  0  0  0  0  0  0  0  0  0
  -28.2300  -25.0530   19.7280 C   0  0  0  0  0  2  0  0  0  0  0  0
  -28.2730  -26.4590   20.2580 O   0  0  0  0  0  0  0  0  0  0  0  0
  -24.5770  -31.9290   23.2400 C   0  0  0  0  0  0  0  0  0  0  0  0
  -27.1680  -27.3420   20.1610 C   0  0  0  0  0  0  0  0  0  0  0  0
  -23.3730  -30.5450   21.5910 C   0  0  0  0  0  3  0  0  0  0  0  0
  -24.8220  -29.0070   20.1500 C   0  0  0  0  0  0  0  0  0  0  0  0
  -25.9180  -30.8460   21.4180 C   0  0  0  0  0  2  0  0  0  0  0  0
  -25.9930  -29.4680   20.7620 C   0  0  0  0  0  0  0  0  0  0  0  0
  -27.1650  -28.6450   20.7620 C   0  0  0  0  0  3  0  0  0  0  0  0
  -25.9760  -26.9680   19.4930 C   0  0  0  0  0  3  0  0  0  0  0  0
  -24.8210  -27.7660   19.5040 C   0  0  0  0  0  3  0  0  0  0  0  0
  -23.5870  -29.8870   20.2050 C   0  0  0  0  0  2  0  0  0  0  0  0
  -24.6430  -31.1250   22.1390 N   0  0  0  0  0  0  0  0  0  0  0  0
  -23.4910  -32.2060   23.7730 O   0  0  0  0  0  0  0  0  0  0  0  0
  -22.7070  -29.5210   22.5410 C   0  0  0  0  0  0  0  0  0  0  0  0
  -21.3800  -29.3500   22.4120 N   0  0  0  0  0  0  0  0  0  0  0  0
  -23.3830  -28.8850   23.3540 O   0  0  0  0  0  0  0  0  0  0  0  0
  -20.8940  -29.9170   21.7320 H   0  0  0  0  0  0  0  0  0  0  0  0
  -17.9910  -28.1880   22.9240 C   0  0  0  0  0  0  0  0  0  0  0  0
  -20.5560  -28.4120   23.1760 C   0  0  0  0  0  3  0  0  0  0  0  0
  -20.6330  -26.9870   22.5790 C   0  0  0  0  0  2  0  0  0  0  0  0
  -19.5170  -26.6940   21.5690 C   0  0  0  0  0  2  0  0  0  0  0  0
  -18.1440  -26.8470   22.2280 C   0  0  0  0  0  2  0  0  0  0  0  0
  -19.1240  -28.9300   23.3560 C   0  0  0  0  0  0  0  0  0  0  0  0
  -18.9250  -30.1870   23.9690 C   0  0  0  0  0  3  0  0  0  0  0  0
  -17.6280  -30.7000   24.1540 C   0  0  0  0  0  3  0  0  0  0  0  0
  -16.5110  -29.9550   23.7390 C   0  0  0  0  0  3  0  0  0  0  0  0
  -16.6930  -28.7010   23.1300 C   0  0  0  0  0  3  0  0  0  0  0  0
  -25.8580  -32.5560   23.8690 C   0  0  0  0  0  3  0  0  0  0  0  0
  -25.5550  -33.9580   24.1920 N   0  0  0  0  0  0  0  0  0  0  0  0
  -25.8940  -35.0050   23.4290 C   0  0  0  0  0  0  0  0  0  0  0  0
  -26.5640  -34.8940   22.3990 O   0  0  0  0  0  0  0  0  0  0  0  0
  -24.9560  -34.1200   24.9890 H   0  0  0  0  0  0  0  0  0  0  0  0
  -24.1850  -36.8130   23.0560 C   0  0  0  0  0  1  0  0  0  0  0  0
  -25.4140  -36.3980   23.8810 C   0  0  0  0  0  3  0  0  0  0  0  0
  -27.5420  -37.2700   24.7410 C   0  0  0  0  0  1  0  0  0  0  0  0
  -26.4580  -37.4430   23.7780 N   0  0  0  0  0  0  0  0  0  0  0  0
  -26.0560  -38.3670   23.9160 H   0  0  0  0  0  0  0  0  0  0  0  0
  -26.3590  -31.7860   25.1520 C   0  0  1  0  0  0  0  0  0  0  0  0
  -25.2530  -31.5530   26.2090 C   0  0  0  0  0  1  0  0  0  0  0  0
  -26.9410  -30.4050   24.7700 C   0  0  0  0  0  1  0  0  0  0  0  0
  -27.5050  -32.5780   25.8240 C   0  0  0  0  0  1  0  0  0  0  0  0
  1  3  2  0
  1  5  1  0
  2 13  2  0
  2 11  1  0
  4  1  1  0
  6  4  1  0
  8  7  1  0
  9  7  1  0
 10  8  1  0
 11 22  1  0
 11  9  1  0
 12  6  1  6
 12 10  1  0
 12  2  1  0
 12  5  1  0
 14 22  1  0
 15 20  1  0
 16 17  1  0
 16 15  1  0
 18 17  1  0
 18 27  1  0
 18 19  1  0
 20 14  1  0
 20 19  1  0
 21 14  2  0
 22 23  1  0
 24 25  2  0
 25 44  1  0
 26 25  1  0
 26 29  1  0
 27 28  1  0
 27 24  1  0
 28 26  2  0
 29 30  1  0
 30 31  2  0
 32 35  1  0
 32 31  1  0
 33 32  2  0
 34 33  1  0
 34 29  2  0
 35 36  1  0
 36 37  1  0
 37 38  2  0
 39 38  1  0
 39 43  1  0
 40 39  2  0
 41 36  2  0
 41 40  1  0
 42 41  1  0
 44 45  1  0
 45 48  1  0
 45 47  1  0
 46 44  2  0
 49 24  1  0
 49 50  1  0
 51 49  1  0
 52 53  1  0
 52  3  1  0
 54 65  2  0
 55 53  1  0
 55 60  1  0
 56 64  1  0
 56 66  1  0
 57 63  1  0
 57 59  1  0
 58 64  1  0
 59 60  2  0
 59 58  1  0
 61 62  1  0
 61 55  2  0
 62 57  2  0
 63 56  1  0
 64 54  1  0
 66 68  2  0
 67 66  1  0
 69 67  1  0
 70 79  2  0
 70 75  1  0
 71 67  1  0
 71 75  1  0
 72 71  1  0
 73 74  1  0
 73 72  1  0
 74 70  1  0
 75 76  2  0
 76 77  1  0
 78 77  2  0
 79 78  1  0
 80 54  1  0
 80 81  1  0
 80 90  1  0
 81 84  1  0
 82 86  1  0
 82 81  1  0
 83 82  2  0
 86 85  1  0
 88 86  1  0
 88 89  1  0
 88 87  1  0
 90 93  1  1
 90 91  1  0
 92 90  1  0
M  ISO  4  14 100  22 100  52 101  53 101
M  END
>  <TORSDO>  (86) 
F 17

>  <SCORE>  (86) 
-15.400

>  <name>  (86) 
86

>  <ligand_id>  (86) 
86

>  <original_smiles>  (86) 
[H]C(=C1C([H])([H])C([H])([H])C2(C(=O)C([H])(N([H])C(=O)N3C([H])([H])C([H])([H])C([H])([H])C([H])(n4nc(-c5c([H])c([H])c(Oc6c([H])c([H])c(F)c([H])c6F)c([H])c5[H])c(C(=O)N([H])[H])c4N([H])[H])C3([H])[H])C([H])([H])C([H])([H])C([H])([H])C2([H])[H])C1([H])[H])C([H])([H])Oc1c([H])c([H])c2c(c1[H])C([H])([H])N(C(=O)C([H])(N([H])C(=O)C([H])(N([H])C([H])([H])[H])C([H])([H])[H])C(C([H])([H])[H])(C([H])([H])[H])C([H])([H])[H])C([H])(C(=O)N([H])C1([H])c3c([H])c([H])c([H])c([H])c3C([H])([H])C([H])([H])C1([H])[H])C2([H])[H]

>  <smiles>  (86) 
[H]C(=C1C([H])([H])C([H])([H])C2(C(=O)C([H])(N([H])C(=O)N3C([H])([H])C([H])([H])C([H])([H])C([H])(n4nc(-c5c([H])c([H])c(Oc6c([H])c([H])c(F)c([H])c6F)c([H])c5[H])c(C(=O)N([H])[H])c4N([H])[H])C3([H])[H])C([H])([H])C([H])([H])C([H])([H])C2([H])[H])C1([H])[H])C([H])([H])Oc1c([H])c([H])c2c(c1[H])C([H])([H])N(C(=O)C([H])(N([H])C(=O)C([H])(N([H])C([H])([H])[H])C([H])([H])[H])C(C([H])([H])[H])(C([H])([H])[H])C([H])([H])[H])C([H])(C(=O)N([H])C1([H])c3c([H])c([H])c([H])c([H])c3C([H])([H])C([H])([H])C1([H])[H])C2([H])[H]

$$$$
87:0:0
     RDKit          3D

 96106  0  0  1  0  0  0  0  0999 V2000
  -28.2760  -21.9170   20.3170 C   0  0  0  0  0  3  0  0  0  0  0  0
  -30.3010  -22.2280   19.0850 C   0  0  0  0  0  3  0  0  0  0  0  0
  -27.9110  -23.2770   20.0780 C   0  0  0  0  0  3  0  0  0  0  0  0
  -29.9390  -23.5900   18.8450 C   0  0  0  0  0  3  0  0  0  0  0  0
  -29.5000  -21.3420   19.8610 C   0  0  0  0  0  0  0  0  0  0  0  0
  -28.7370  -24.1630   19.3430 C   0  0  0  0  0  0  0  0  0  0  0  0
  -29.9350  -19.7800   21.8640 C   0  0  0  0  0  2  0  0  0  0  0  0
  -31.3620  -19.9660   22.4140 C   0  0  0  0  0  2  0  0  0  0  0  0
  -31.4950  -17.9470   20.0160 C   0  0  0  0  0  2  0  0  0  0  0  0
  -29.2000  -18.6410   19.6630 C   0  0  0  0  0  2  0  0  0  0  0  0
  -31.4540  -19.5070   20.0480 C   0  0  0  0  0  3  0  0  0  0  0  0
  -30.2010  -17.4430   19.3750 C   0  0  0  0  0  3  0  0  0  0  0  0
  -29.9640  -19.8760   20.3100 C   0  0  1  0  0  0  0  0  0  0  0  0
  -32.3020  -20.1060   21.2070 C   0  0  2  0  0  0  0  0  0  0  0  0
  -33.6480  -19.3810   21.4310 C   0  0  0  0  0  1  0  0  0  0  0  0
  -32.6490  -21.5950   20.9880 C   0  0  0  0  0  1  0  0  0  0  0  0
  -30.6150  -14.9090   19.6680 C   0  0  0  0  0  0  0  0  0  0  0  0
  -30.4390  -12.5360   18.9540 C   0  0  0  0  0  2  0  0  0  0  0  0
  -29.4360  -12.4400   17.7860 C   0  0  0  0  0  2  0  0  0  0  0  0
  -28.0030  -12.2610   18.3220 C   0  0  0  0  0  2  0  0  0  0  0  0
  -27.6520  -13.2730   19.4480 C   0  0  0  0  0  3  0  0  0  0  0  0
  -28.7750  -13.3670   20.5040 C   0  0  0  0  0  2  0  0  0  0  0  0
  -30.0240  -13.6760   19.7990 N   0  0  0  0  0  0  0  0  0  0  0  0
  -31.7640  -15.0090   19.2320 O   0  0  0  0  0  0  0  0  0  0  0  0
  -29.8340  -16.0330   19.8000 N   0  0  0  0  0  0  0  0  0  0  0  0
  -28.8870  -15.8810   20.1120 H   0  0  0  0  0  0  0  0  0  0  0  0
  -25.3560  -13.8630   20.4320 C   0  0  0  0  0  0  0  0  0  0  0  0
  -24.3140  -13.0870   20.8610 C   0  0  0  0  0  0  0  0  0  0  0  0
  -24.7430  -11.7320   20.7110 C   0  0  0  0  0  0  0  0  0  0  0  0
  -26.3550  -12.9820   20.0500 N   0  0  0  0  0  0  0  0  0  0  0  0
  -25.9970  -11.6920   20.2780 N   0  0  0  0  0  0  0  0  0  0  0  0
  -24.0110  -10.4730   20.9030 C   0  0  0  0  0  0  0  0  0  0  0  0
  -24.4390   -9.5040   21.8360 C   0  0  0  0  0  3  0  0  0  0  0  0
  -23.7080   -8.3100   22.0150 C   0  0  0  0  0  3  0  0  0  0  0  0
  -22.5330   -8.0770   21.2600 C   0  0  0  0  0  0  0  0  0  0  0  0
  -22.1230   -9.0350   20.3160 C   0  0  0  0  0  3  0  0  0  0  0  0
  -22.8560  -10.2220   20.1360 C   0  0  0  0  0  3  0  0  0  0  0  0
  -21.7730   -6.9360   21.3490 O   0  0  0  0  0  0  0  0  0  0  0  0
  -21.6210   -6.2630   22.5340 C   0  0  0  0  0  0  0  0  0  0  0  0
  -21.0580   -6.8790   23.6740 C   0  0  0  0  0  3  0  0  0  0  0  0
  -20.8560   -6.1300   24.8510 C   0  0  0  0  0  3  0  0  0  0  0  0
  -21.2060   -4.7670   24.8870 C   0  0  0  0  0  0  0  0  0  0  0  0
  -21.7600   -4.1510   23.7510 C   0  0  0  0  0  3  0  0  0  0  0  0
  -21.9640   -4.8970   22.5770 C   0  0  0  0  0  0  0  0  0  0  0  0
  -22.4790   -4.2930   21.4790 F   0  0  0  0  0  0  0  0  0  0  0  0
  -21.0040   -4.0450   26.0140 F   0  0  0  0  0  0  0  0  0  0  0  0
  -22.9600  -13.5720   21.2890 C   0  0  0  0  0  0  0  0  0  0  0  0
  -22.3070  -12.8490   22.1930 N   0  0  0  0  0  0  0  0  0  0  0  0
  -22.4910  -14.6250   20.8580 O   0  0  0  0  0  0  0  0  0  0  0  0
  -22.7000  -11.9950   22.5610 H   0  0  0  0  0  0  0  0  0  0  0  0
  -21.4020  -13.1530   22.5210 H   0  0  0  0  0  0  0  0  0  0  0  0
  -25.5300  -15.2390   20.3140 N   0  0  0  0  0  0  0  0  0  0  0  0
  -24.7880  -15.8920   20.5380 H   0  0  0  0  0  0  0  0  0  0  0  0
  -26.3440  -15.6870   19.9130 H   0  0  0  0  0  0  0  0  0  0  0  0
  -28.2640  -25.6050   18.9160 C   0  0  0  0  0  2  0  0  0  0  0  0
  -28.0660  -26.6770   19.9090 O   0  0  0  0  0  0  0  0  0  0  0  0
  -24.5170  -31.9810   23.2540 C   0  0  0  0  0  0  0  0  0  0  0  0
  -26.9260  -27.5020   19.9170 C   0  0  0  0  0  0  0  0  0  0  0  0
  -23.2140  -30.6480   21.6330 C   0  0  0  0  0  3  0  0  0  0  0  0
  -24.5700  -29.1270   20.0860 C   0  0  0  0  0  0  0  0  0  0  0  0
  -25.7420  -30.9430   21.3300 C   0  0  0  0  0  2  0  0  0  0  0  0
  -25.7700  -29.5850   20.6420 C   0  0  0  0  0  0  0  0  0  0  0  0
  -26.9440  -28.7800   20.5570 C   0  0  0  0  0  3  0  0  0  0  0  0
  -25.6940  -27.0840   19.3620 C   0  0  0  0  0  3  0  0  0  0  0  0
  -24.5330  -27.8800   19.4390 C   0  0  0  0  0  3  0  0  0  0  0  0
  -23.3480  -30.0120   20.2240 C   0  0  0  0  0  2  0  0  0  0  0  0
  -24.5140  -31.2060   22.1290 N   0  0  0  0  0  0  0  0  0  0  0  0
  -23.4670  -32.2560   23.8510 O   0  0  0  0  0  0  0  0  0  0  0  0
  -22.5860  -29.6120   22.5930 C   0  0  0  0  0  0  0  0  0  0  0  0
  -21.2710  -29.3730   22.4470 N   0  0  0  0  0  0  0  0  0  0  0  0
  -23.2790  -29.0250   23.4290 O   0  0  0  0  0  0  0  0  0  0  0  0
  -20.7710  -29.9000   21.7450 H   0  0  0  0  0  0  0  0  0  0  0  0
  -17.9750  -27.9310   22.8000 C   0  0  0  0  0  0  0  0  0  0  0  0
  -20.4820  -28.4070   23.2130 C   0  0  0  0  0  3  0  0  0  0  0  0
  -20.7340  -26.9660   22.7160 C   0  0  0  0  0  2  0  0  0  0  0  0
  -19.7280  -26.5110   21.6540 C   0  0  0  0  0  2  0  0  0  0  0  0
  -18.3010  -26.5710   22.2040 C   0  0  0  0  0  2  0  0  0  0  0  0
  -19.0010  -28.7990   23.2590 C   0  0  0  0  0  0  0  0  0  0  0  0
  -18.6450  -30.0650   23.7720 C   0  0  0  0  0  3  0  0  0  0  0  0
  -17.2970  -30.4650   23.8340 C   0  0  0  0  0  3  0  0  0  0  0  0
  -16.2840  -29.5950   23.3930 C   0  0  0  0  0  3  0  0  0  0  0  0
  -16.6250  -28.3300   22.8820 C   0  0  0  0  0  3  0  0  0  0  0  0
  -25.8380  -32.5770   23.8320 C   0  0  0  0  0  3  0  0  0  0  0  0
  -25.5840  -33.9860   24.1620 N   0  0  0  0  0  0  0  0  0  0  0  0
  -25.9080  -35.0230   23.3780 C   0  0  0  0  0  0  0  0  0  0  0  0
  -26.5210  -34.8910   22.3150 O   0  0  0  0  0  0  0  0  0  0  0  0
  -25.0370  -34.1630   24.9910 H   0  0  0  0  0  0  0  0  0  0  0  0
  -24.2020  -36.8500   23.1060 C   0  0  0  0  0  1  0  0  0  0  0  0
  -25.4830  -36.4290   23.8440 C   0  0  0  0  0  3  0  0  0  0  0  0
  -27.6830  -37.2750   24.5280 C   0  0  0  0  0  1  0  0  0  0  0  0
  -26.5300  -37.4560   23.6510 N   0  0  0  0  0  0  0  0  0  0  0  0
  -26.1550  -38.3880   23.8070 H   0  0  0  0  0  0  0  0  0  0  0  0
  -26.3650  -31.8000   25.1000 C   0  0  1  0  0  0  0  0  0  0  0  0
  -25.2940  -31.5970   26.1980 C   0  0  0  0  0  1  0  0  0  0  0  0
  -26.8990  -30.4060   24.6960 C   0  0  0  0  0  1  0  0  0  0  0  0
  -27.5520  -32.5660   25.7280 C   0  0  0  0  0  1  0  0  0  0  0  0
  2  5  1  0
  3  1  1  0
  4  2  2  0
  4  6  1  0
  5  1  2  0
  6  3  2  0
  7  8  1  0
 10 13  1  0
 11  9  1  0
 11 13  1  0
 11 14  1  0
 12 10  1  0
 12 25  1  0
 12  9  1  0
 13  5  1  1
 13  7  1  0
 14 15  1  1
 14  8  1  0
 16 14  1  0
 17 23  1  0
 17 25  1  0
 18 23  1  0
 19 20  1  0
 19 18  1  0
 21 20  1  0
 21 30  1  0
 21 22  1  0
 23 22  1  0
 24 17  2  0
 25 26  1  0
 27 28  2  0
 28 47  1  0
 29 28  1  0
 29 32  1  0
 30 31  1  0
 30 27  1  0
 31 29  2  0
 32 33  1  0
 33 34  2  0
 35 38  1  0
 35 34  1  0
 36 35  2  0
 37 36  1  0
 37 32  2  0
 38 39  1  0
 39 44  2  0
 39 40  1  0
 40 41  2  0
 41 42  1  0
 42 46  1  0
 43 42  2  0
 44 43  1  0
 45 44  1  0
 47 48  1  0
 48 51  1  0
 48 50  1  0
 49 47  2  0
 52 27  1  0
 52 53  1  0
 54 52  1  0
 55  6  1  0
 55 56  1  0
 56 58  1  0
 57 68  2  0
 58 63  1  0
 59 67  1  0
 59 69  1  0
 60 66  1  0
 60 62  1  0
 61 67  1  0
 62 61  1  0
 63 62  2  0
 64 65  1  0
 64 58  2  0
 65 60  2  0
 66 59  1  0
 67 57  1  0
 69 71  2  0
 70 69  1  0
 72 70  1  0
 73 82  2  0
 73 78  1  0
 74 70  1  0
 74 78  1  0
 75 74  1  0
 76 77  1  0
 76 75  1  0
 77 73  1  0
 78 79  2  0
 79 80  1  0
 81 80  2  0
 82 81  1  0
 83 57  1  0
 83 84  1  0
 83 93  1  0
 84 87  1  0
 85 89  1  0
 85 84  1  0
 86 85  2  0
 89 88  1  0
 91 92  1  0
 91 89  1  0
 91 90  1  0
 93 96  1  1
 93 94  1  0
 95 93  1  0
M  ISO  4  17 100  25 100  55 101  56 101
M  END
>  <TORSDO>  (87) 
F 18

>  <SCORE>  (87) 
-14.229

>  <name>  (87) 
87

>  <ligand_id>  (87) 
87

>  <original_smiles>  (87) 
[H]c1c([H])c([H])c2c(c1[H])C([H])([H])C([H])([H])C([H])([H])C2([H])N([H])C(=O)C1([H])N(C(=O)C([H])(N([H])C(=O)C([H])(N([H])C([H])([H])[H])C([H])([H])[H])C(C([H])([H])[H])(C([H])([H])[H])C([H])([H])[H])C([H])([H])c2c([H])c(OC([H])([H])c3c([H])c([H])c(C45C([H])([H])C([H])([H])C(C([H])([H])[H])(C([H])([H])[H])C4([H])C([H])([H])C([H])(N([H])C(=O)N4C([H])([H])C([H])([H])C([H])([H])C([H])(n6nc(-c7c([H])c([H])c(Oc8c([H])c([H])c(F)c([H])c8F)c([H])c7[H])c(C(=O)N([H])[H])c6N([H])[H])C4([H])[H])C5([H])[H])c([H])c3[H])c([H])c([H])c2C1([H])[H]

>  <smiles>  (87) 
[H]c1c([H])c([H])c2c(c1[H])C([H])([H])C([H])([H])C([H])([H])C2([H])N([H])C(=O)C1([H])N(C(=O)C([H])(N([H])C(=O)C([H])(N([H])C([H])([H])[H])C([H])([H])[H])C(C([H])([H])[H])(C([H])([H])[H])C([H])([H])[H])C([H])([H])c2c([H])c(OC([H])([H])c3c([H])c([H])c(C45C([H])([H])C([H])([H])C(C([H])([H])[H])(C([H])([H])[H])C4([H])C([H])([H])C([H])(N([H])C(=O)N4C([H])([H])C([H])([H])C([H])([H])C([H])(n6nc(-c7c([H])c([H])c(Oc8c([H])c([H])c(F)c([H])c8F)c([H])c7[H])c(C(=O)N([H])[H])c6N([H])[H])C4([H])[H])C5([H])[H])c([H])c3[H])c([H])c([H])c2C1([H])[H]

$$$$
88:0:0
     RDKit          3D

 93101  0  0  1  0  0  0  0  0999 V2000
  -29.3510  -18.9940   20.3470 C   0  0  0  0  0  3  0  0  0  0  0  0
  -30.2590  -21.1770   19.7270 C   0  0  0  0  0  3  0  0  0  0  0  0
  -30.0470  -19.4290   18.0470 C   0  0  0  0  0  3  0  0  0  0  0  0
  -29.7250  -20.3070   20.6980 C   0  0  0  0  0  0  0  0  0  0  0  0
  -29.5270  -18.5500   19.0220 C   0  0  0  0  0  0  0  0  0  0  0  0
  -30.4130  -20.7500   18.3940 C   0  0  0  0  0  0  0  0  0  0  0  0
  -29.5530  -20.7960   22.1200 C   0  0  0  0  0  1  0  0  0  0  0  0
  -30.9140  -21.6430   17.4390 N   0  0  0  0  0  0  0  0  0  0  0  0
  -31.5720  -22.3190   17.8210 H   0  0  0  0  0  0  0  0  0  0  0  0
  -29.8850  -22.2310   16.5890 C   0  0  0  0  0  2  0  0  0  0  0  0
  -30.0130  -23.7640   16.4570 C   0  0  0  0  0  2  0  0  0  0  0  0
  -28.7380  -24.3800   15.8530 C   0  0  0  0  0  2  0  0  0  0  0  0
  -28.5680  -25.7480   16.2590 O   0  0  0  0  0  0  0  0  0  0  0  0
  -24.8000  -28.2180   21.7580 C   0  0  0  0  0  0  0  0  0  0  0  0
  -27.3270  -26.1930   16.6810 C   0  0  0  0  0  0  0  0  0  0  0  0
  -23.4840  -27.5800   19.7640 C   0  0  0  0  0  3  0  0  0  0  0  0
  -24.8330  -27.1340   17.6470 C   0  0  0  0  0  0  0  0  0  0  0  0
  -25.9090  -28.3720   19.5320 C   0  0  0  0  0  2  0  0  0  0  0  0
  -26.0160  -27.4910   18.3040 C   0  0  0  0  0  0  0  0  0  0  0  0
  -27.2610  -27.0250   17.8240 C   0  0  0  0  0  3  0  0  0  0  0  0
  -26.1180  -25.8720   16.0180 C   0  0  0  0  0  3  0  0  0  0  0  0
  -24.8790  -26.3250   16.5020 C   0  0  0  0  0  3  0  0  0  0  0  0
  -23.5380  -27.6670   18.2170 C   0  0  0  0  0  2  0  0  0  0  0  0
  -24.7570  -28.0440   20.4080 N   0  0  0  0  0  0  0  0  0  0  0  0
  -23.7950  -28.0390   22.4600 O   0  0  0  0  0  0  0  0  0  0  0  0
  -23.0860  -26.1400   20.1640 C   0  0  0  0  0  0  0  0  0  0  0  0
  -21.7910  -25.8150   20.0130 N   0  0  0  0  0  0  0  0  0  0  0  0
  -23.9300  -25.3410   20.5720 O   0  0  0  0  0  0  0  0  0  0  0  0
  -21.1600  -26.5270   19.6780 H   0  0  0  0  0  0  0  0  0  0  0  0
  -18.7010  -23.9450   19.9140 C   0  0  0  0  0  0  0  0  0  0  0  0
  -21.1960  -24.5080   20.2930 C   0  0  0  0  0  3  0  0  0  0  0  0
  -21.4880  -23.5070   19.1510 C   0  0  0  0  0  2  0  0  0  0  0  0
  -20.3850  -23.4630   18.0890 C   0  0  0  0  0  2  0  0  0  0  0  0
  -19.0460  -23.0710   18.7210 C   0  0  0  0  0  2  0  0  0  0  0  0
  -19.7090  -24.6330   20.6430 C   0  0  0  0  0  0  0  0  0  0  0  0
  -19.3260  -25.4610   21.7200 C   0  0  0  0  0  3  0  0  0  0  0  0
  -17.9720  -25.6030   22.0750 C   0  0  0  0  0  3  0  0  0  0  0  0
  -16.9820  -24.9080   21.3600 C   0  0  0  0  0  3  0  0  0  0  0  0
  -17.3470  -24.0800   20.2850 C   0  0  0  0  0  3  0  0  0  0  0  0
  -26.1050  -28.6730   22.4830 C   0  0  0  0  0  3  0  0  0  0  0  0
  -25.7350  -29.7240   23.4390 N   0  0  0  0  0  0  0  0  0  0  0  0
  -25.9580  -31.0320   23.2520 C   0  0  0  0  0  0  0  0  0  0  0  0
  -26.5660  -31.4760   22.2740 O   0  0  0  0  0  0  0  0  0  0  0  0
  -25.1820  -29.4400   24.2340 H   0  0  0  0  0  0  0  0  0  0  0  0
  -24.1470  -32.6920   23.7910 C   0  0  0  0  0  1  0  0  0  0  0  0
  -25.4160  -32.0030   24.3190 C   0  0  0  0  0  3  0  0  0  0  0  0
  -27.5060  -32.4730   25.5170 C   0  0  0  0  0  1  0  0  0  0  0  0
  -26.4010  -33.0240   24.7390 N   0  0  0  0  0  0  0  0  0  0  0  0
  -25.9520  -33.7490   25.2940 H   0  0  0  0  0  0  0  0  0  0  0  0
  -26.8540  -27.4920   23.2120 C   0  0  1  0  0  0  0  0  0  0  0  0
  -25.9460  -26.6620   24.1490 C   0  0  0  0  0  1  0  0  0  0  0  0
  -27.4790  -26.5230   22.1820 C   0  0  0  0  0  1  0  0  0  0  0  0
  -28.0260  -28.0570   24.0510 C   0  0  0  0  0  1  0  0  0  0  0  0
  -29.1900  -17.1210   18.6420 C   0  0  0  0  0  2  0  0  0  0  0  0
  -30.3580  -16.1610   18.9270 C   0  0  0  0  0  2  0  0  0  0  0  0
  -30.8200  -13.9770   19.9520 C   0  0  0  0  0  0  0  0  0  0  0  0
  -30.6170  -11.5700   19.5760 C   0  0  0  0  0  2  0  0  0  0  0  0
  -29.7050  -11.3860   18.3470 C   0  0  0  0  0  2  0  0  0  0  0  0
  -28.2240  -11.3390   18.7710 C   0  0  0  0  0  2  0  0  0  0  0  0
  -27.8300  -12.4910   19.7370 C   0  0  0  0  0  3  0  0  0  0  0  0
  -28.8740  -12.6660   20.8630 C   0  0  0  0  0  2  0  0  0  0  0  0
  -30.1980  -12.8070   20.2400 N   0  0  0  0  0  0  0  0  0  0  0  0
  -31.9930  -14.0530   19.5800 O   0  0  0  0  0  0  0  0  0  0  0  0
  -29.9980  -15.0210   19.7820 N   0  0  0  0  0  0  0  0  0  0  0  0
  -29.0370  -14.9050   20.0590 H   0  0  0  0  0  0  0  0  0  0  0  0
  -25.5310  -13.2620   20.5970 C   0  0  0  0  0  0  0  0  0  0  0  0
  -24.4190  -12.5660   20.9890 C   0  0  0  0  0  0  0  0  0  0  0  0
  -24.7580  -11.1830   20.8690 C   0  0  0  0  0  0  0  0  0  0  0  0
  -26.4820  -12.3090   20.2730 N   0  0  0  0  0  0  0  0  0  0  0  0
  -26.0250  -11.0500   20.4950 N   0  0  0  0  0  0  0  0  0  0  0  0
  -23.9330   -9.9810   21.0400 C   0  0  0  0  0  0  0  0  0  0  0  0
  -24.2570   -8.9930   21.9960 C   0  0  0  0  0  3  0  0  0  0  0  0
  -23.4420   -7.8520   22.1500 C   0  0  0  0  0  3  0  0  0  0  0  0
  -22.2840   -7.6940   21.3540 C   0  0  0  0  0  0  0  0  0  0  0  0
  -21.9760   -8.6710   20.3900 C   0  0  0  0  0  3  0  0  0  0  0  0
  -22.7910   -9.8020   20.2320 C   0  0  0  0  0  3  0  0  0  0  0  0
  -21.4480   -6.6080   21.4180 O   0  0  0  0  0  0  0  0  0  0  0  0
  -21.2640   -5.9070   22.5830 C   0  0  0  0  0  0  0  0  0  0  0  0
  -20.7010   -6.5090   23.7310 C   0  0  0  0  0  3  0  0  0  0  0  0
  -20.4720   -5.7370   24.8870 C   0  0  0  0  0  3  0  0  0  0  0  0
  -20.7900   -4.3660   24.8940 C   0  0  0  0  0  0  0  0  0  0  0  0
  -21.3400   -3.7630   23.7480 C   0  0  0  0  0  3  0  0  0  0  0  0
  -21.5770   -4.5340   22.5960 C   0  0  0  0  0  0  0  0  0  0  0  0
  -22.0890   -3.9440   21.4890 F   0  0  0  0  0  0  0  0  0  0  0  0
  -20.5590   -3.6220   26.0020 F   0  0  0  0  0  0  0  0  0  0  0  0
  -23.0830  -13.1460   21.3510 C   0  0  0  0  0  0  0  0  0  0  0  0
  -22.3330  -12.4660   22.2110 N   0  0  0  0  0  0  0  0  0  0  0  0
  -22.7170  -14.2370   20.9140 O   0  0  0  0  0  0  0  0  0  0  0  0
  -22.6350  -11.5800   22.5860 H   0  0  0  0  0  0  0  0  0  0  0  0
  -21.4370  -12.8350   22.4970 H   0  0  0  0  0  0  0  0  0  0  0  0
  -25.8040  -14.6220   20.4670 N   0  0  0  0  0  0  0  0  0  0  0  0
  -25.1050  -15.3280   20.6620 H   0  0  0  0  0  0  0  0  0  0  0  0
  -26.6430  -14.9990   20.0470 H   0  0  0  0  0  0  0  0  0  0  0  0
  1  4  1  0
  2  4  2  0
  3  6  2  0
  3  5  1  0
  4  7  1  0
  5  1  2  0
  6  2  1  0
  8  9  1  0
  8  6  1  0
 10  8  1  0
 11 10  1  0
 12 13  1  0
 12 11  1  0
 13 15  1  0
 14 25  2  0
 15 20  1  0
 16 26  1  0
 16 24  1  0
 17 23  1  0
 17 19  1  0
 18 24  1  0
 19 18  1  0
 20 19  2  0
 21 22  1  0
 21 15  2  0
 22 17  2  0
 23 16  1  0
 24 14  1  0
 26 28  2  0
 27 26  1  0
 29 27  1  0
 30 39  2  0
 30 35  1  0
 31 27  1  0
 31 35  1  0
 32 31  1  0
 33 34  1  0
 33 32  1  0
 34 30  1  0
 35 36  2  0
 36 37  1  0
 38 37  2  0
 39 38  1  0
 40 14  1  0
 40 50  1  0
 40 41  1  0
 41 44  1  0
 42 41  1  0
 42 46  1  0
 43 42  2  0
 46 45  1  0
 46 48  1  0
 48 49  1  0
 48 47  1  0
 50 53  1  1
 50 51  1  0
 52 50  1  0
 54 55  1  0
 54  5  1  0
 55 64  1  0
 56 62  1  0
 57 62  1  0
 58 59  1  0
 58 57  1  0
 60 59  1  0
 60 69  1  0
 60 61  1  0
 62 61  1  0
 63 56  2  0
 64 56  1  0
 64 65  1  0
 66 67  2  0
 67 86  1  0
 68 67  1  0
 68 71  1  0
 69 70  1  0
 69 66  1  0
 70 68  2  0
 71 72  1  0
 72 73  2  0
 74 77  1  0
 74 73  1  0
 75 74  2  0
 76 75  1  0
 76 71  2  0
 77 78  1  0
 78 83  2  0
 78 79  1  0
 79 80  2  0
 80 81  1  0
 81 85  1  0
 82 81  2  0
 83 82  1  0
 84 83  1  0
 86 87  1  0
 87 90  1  0
 87 89  1  0
 88 86  2  0
 91 66  1  0
 91 92  1  0
 93 91  1  0
M  ISO  4  12 101  13 101  56 100  64 100
M  END
>  <TORSDO>  (88) 
F 22

>  <SCORE>  (88) 
-8.684

>  <name>  (88) 
88

>  <ligand_id>  (88) 
88

>  <original_smiles>  (88) 
[H]c1c([H])c([H])c2c(c1[H])C([H])([H])C([H])([H])C([H])([H])C2([H])N([H])C(=O)C1([H])N(C(=O)C([H])(N([H])C(=O)C([H])(N([H])C([H])([H])[H])C([H])([H])[H])C(C([H])([H])[H])(C([H])([H])[H])C([H])([H])[H])C([H])([H])c2c([H])c(OC([H])([H])C([H])([H])C([H])([H])N([H])c3c([H])c(C([H])([H])[H])c([H])c(C([H])([H])C([H])([H])N([H])C(=O)N4C([H])([H])C([H])([H])C([H])([H])C([H])(n5nc(-c6c([H])c([H])c(Oc7c([H])c([H])c(F)c([H])c7F)c([H])c6[H])c(C(=O)N([H])[H])c5N([H])[H])C4([H])[H])c3[H])c([H])c([H])c2C1([H])[H]

>  <smiles>  (88) 
[H]c1c([H])c([H])c2c(c1[H])C([H])([H])C([H])([H])C([H])([H])C2([H])N([H])C(=O)C1([H])N(C(=O)C([H])(N([H])C(=O)C([H])(N([H])C([H])([H])[H])C([H])([H])[H])C(C([H])([H])[H])(C([H])([H])[H])C([H])([H])[H])C([H])([H])c2c([H])c(OC([H])([H])C([H])([H])C([H])([H])N([H])c3c([H])c(C([H])([H])[H])c([H])c(C([H])([H])C([H])([H])N([H])C(=O)N4C([H])([H])C([H])([H])C([H])([H])C([H])(n5nc(-c6c([H])c([H])c(Oc7c([H])c([H])c(F)c([H])c7F)c([H])c6[H])c(C(=O)N([H])[H])c5N([H])[H])C4([H])[H])c3[H])c([H])c([H])c2C1([H])[H]

$$$$
89:0:0
     RDKit          3D

106115  0  0  1  0  0  0  0  0999 V2000
  -24.1800  -24.3260   17.2490 C   0  0  0  0  0  3  0  0  0  0  0  0
  -24.2550  -24.0720   19.5300 C   0  0  0  0  0  3  0  0  0  0  0  0
  -24.8060  -22.9970   17.0660 C   0  0  0  0  0  3  0  0  0  0  0  0
  -24.8870  -22.7160   19.3500 C   0  0  0  0  0  3  0  0  0  0  0  0
  -23.8950  -25.0350   18.4860 C   0  0  0  0  0  0  0  0  0  0  0  0
  -25.3130  -22.0960   18.0960 C   0  0  0  0  0  0  0  0  0  0  0  0
  -25.8940  -20.6990   17.8080 N   0  0  0  0  0  0  0  0  0  0  0  0
  -25.3830  -20.3000   17.0120 H   0  0  0  0  0  0  0  0  0  0  0  0
  -27.6900  -17.7860   19.9400 C   0  0  0  0  0  3  0  0  0  0  0  0
  -28.9410  -17.9790   18.0200 C   0  0  0  0  0  3  0  0  0  0  0  0
  -26.7690  -18.8470   19.4910 C   0  0  0  0  0  3  0  0  0  0  0  0
  -28.0060  -19.0460   17.5600 C   0  0  0  0  0  3  0  0  0  0  0  0
  -28.8740  -17.2360   19.2730 C   0  0  0  0  0  0  0  0  0  0  0  0
  -26.8840  -19.6420   18.3010 C   0  0  0  0  0  0  0  0  0  0  0  0
  -29.8090  -16.2550   21.5890 C   0  0  0  0  0  1  0  0  0  0  0  0
  -31.3030  -17.2940   19.9770 C   0  0  0  0  0  1  0  0  0  0  0  0
  -30.1130  -16.2810   20.0580 C   0  0  2  0  0  0  0  0  0  0  0  0
  -30.9490  -14.7480   19.7630 C   0  0  0  0  0  0  0  0  0  0  0  0
  -30.9900  -12.3020   19.0130 C   0  0  0  0  0  2  0  0  0  0  0  0
  -30.0530  -12.2220   17.7860 C   0  0  0  0  0  2  0  0  0  0  0  0
  -28.5870  -12.0890   18.2470 C   0  0  0  0  0  2  0  0  0  0  0  0
  -28.2420  -13.0490   19.4140 C   0  0  0  0  0  3  0  0  0  0  0  0
  -29.2910  -12.9960   20.5210 C   0  0  0  0  0  2  0  0  0  0  0  0
  -30.5010  -13.4320   19.8660 N   0  0  0  0  0  0  0  0  0  0  0  0
  -32.1620  -14.7550   19.4450 O   0  0  0  0  0  0  0  0  0  0  0  0
  -25.9650  -13.7680   20.2540 C   0  0  0  0  0  0  0  0  0  0  0  0
  -24.8840  -13.0640   20.6640 C   0  0  0  0  0  0  0  0  0  0  0  0
  -25.2690  -11.6830   20.6350 C   0  0  0  0  0  0  0  0  0  0  0  0
  -26.9290  -12.8300   19.9610 N   0  0  0  0  0  0  0  0  0  0  0  0
  -26.5380  -11.5720   20.2730 N   0  0  0  0  0  0  0  0  0  0  0  0
  -24.4900  -10.4660   20.8580 C   0  0  0  0  0  0  0  0  0  0  0  0
  -24.8970   -9.4900   21.7950 C   0  0  0  0  0  3  0  0  0  0  0  0
  -24.1180   -8.3330   22.0020 C   0  0  0  0  0  3  0  0  0  0  0  0
  -22.9180   -8.1470   21.2750 C   0  0  0  0  0  0  0  0  0  0  0  0
  -22.5360   -9.1060   20.3220 C   0  0  0  0  0  3  0  0  0  0  0  0
  -23.3150  -10.2540   20.1110 C   0  0  0  0  0  3  0  0  0  0  0  0
  -22.1110   -7.0440   21.3940 O   0  0  0  0  0  0  0  0  0  0  0  0
  -21.9620   -6.3870   22.5910 C   0  0  0  0  0  0  0  0  0  0  0  0
  -21.4370   -7.0320   23.7330 C   0  0  0  0  0  3  0  0  0  0  0  0
  -21.2330   -6.3010   24.9210 C   0  0  0  0  0  3  0  0  0  0  0  0
  -21.5470   -4.9290   24.9670 C   0  0  0  0  0  0  0  0  0  0  0  0
  -22.0640   -4.2850   23.8290 C   0  0  0  0  0  3  0  0  0  0  0  0
  -22.2660   -5.0120   22.6430 C   0  0  0  0  0  0  0  0  0  0  0  0
  -22.7450   -4.3850   21.5410 F   0  0  0  0  0  0  0  0  0  0  0  0
  -21.3430   -4.2230   26.1040 F   0  0  0  0  0  0  0  0  0  0  0  0
  -23.5220  -13.6120   20.9760 C   0  0  0  0  0  0  0  0  0  0  0  0
  -22.8210  -13.0140   21.9270 N   0  0  0  0  0  0  0  0  0  0  0  0
  -23.0960  -14.6150   20.4010 O   0  0  0  0  0  0  0  0  0  0  0  0
  -23.1810  -12.1980   22.4040 H   0  0  0  0  0  0  0  0  0  0  0  0
  -21.9060  -13.3630   22.1840 H   0  0  0  0  0  0  0  0  0  0  0  0
  -26.2170  -15.1270   20.0640 N   0  0  0  0  0  0  0  0  0  0  0  0
  -25.5190  -15.8410   20.2170 H   0  0  0  0  0  0  0  0  0  0  0  0
  -27.0830  -15.5080   19.7110 H   0  0  0  0  0  0  0  0  0  0  0  0
  -23.2500  -26.6620   18.4770 C   0  0  0  0  0  2  0  0  0  0  0  0
  -22.8470  -27.9420   19.6380 C   0  0  0  0  0  2  0  0  0  0  0  0
  -23.7860  -28.9370   20.6330 N   0  0  0  0  0  4  0  0  0  0  0  0
  -24.7280  -28.9310   20.2340 H   0  0  0  0  0  0  0  0  0  0  0  0
  -23.3600  -29.7870   20.3000 H   0  0  0  0  0  0  0  0  0  0  0  0
  -23.8480  -29.5110   22.2840 C   0  0  0  0  0  2  0  0  0  0  0  0
  -23.8750  -28.8300   24.0470 C   0  0  0  0  0  0  0  0  0  0  0  0
  -24.5880  -27.6680   24.8330 N   0  0  0  0  0  0  0  0  0  0  0  0
  -23.1250  -29.5350   24.7400 O   0  0  0  0  0  0  0  0  0  0  0  0
  -24.1980  -27.7040   25.7590 H   0  0  0  0  0  0  0  0  0  0  0  0
  -26.0400  -26.5610   24.9670 C   0  0  0  0  0  2  0  0  0  0  0  0
  -27.5160  -25.7340   23.9900 C   0  0  0  0  0  2  0  0  0  0  0  0
  -29.1160  -25.5010   23.5470 O   0  0  0  0  0  0  0  0  0  0  0  0
  -26.9090  -29.9440   23.4430 C   0  0  0  0  0  0  0  0  0  0  0  0
  -29.6620  -25.6650   22.3200 C   0  0  0  0  0  3  0  0  0  0  0  0
  -26.3110  -27.7890   21.6610 C   0  0  0  0  0  3  0  0  0  0  0  0
  -28.3680  -26.9730   20.4630 C   0  0  0  0  0  3  0  0  0  0  0  0
  -28.4580  -29.0350   21.9020 C   0  0  0  0  0  2  0  0  0  0  0  0
  -29.0300  -27.7180   21.4400 C   0  0  0  0  0  3  0  0  0  0  0  0
  -29.8880  -27.0270   22.2680 C   0  0  0  0  0  2  0  0  0  0  0  0
  -29.3010  -24.8970   21.1950 C   0  0  0  0  0  2  0  0  0  0  0  0
  -28.8110  -25.6730   20.1280 C   0  0  0  0  0  2  0  0  0  0  0  0
  -27.0110  -26.8370   20.8240 C   0  0  0  0  0  2  0  0  0  0  0  0
  -27.1940  -28.8420   22.5590 N   0  0  0  0  0  0  0  0  0  0  0  0
  -25.8070  -30.4900   23.5480 O   0  0  0  0  0  0  0  0  0  0  0  0
  -25.2270  -26.3840   22.1150 C   0  0  0  0  0  0  0  0  0  0  0  0
  -23.8850  -26.2760   21.9550 N   0  0  0  0  0  0  0  0  0  0  0  0
  -25.4020  -25.5660   22.9600 O   0  0  0  0  0  0  0  0  0  0  0  0
  -23.6860  -26.9140   21.2260 H   0  0  0  0  0  0  0  0  0  0  0  0
  -20.3340  -26.0310   21.7030 C   0  0  0  0  0  0  0  0  0  0  0  0
  -22.7120  -25.9840   22.7520 C   0  0  0  0  0  3  0  0  0  0  0  0
  -22.5740  -24.4920   22.5600 C   0  0  0  0  0  2  0  0  0  0  0  0
  -21.9180  -24.1520   21.2190 C   0  0  0  0  0  2  0  0  0  0  0  0
  -20.5040  -24.6150   21.1710 C   0  0  0  0  0  2  0  0  0  0  0  0
  -21.3630  -26.7310   22.3960 C   0  0  0  0  0  0  0  0  0  0  0  0
  -21.0160  -28.0180   22.8940 C   0  0  0  0  0  3  0  0  0  0  0  0
  -19.7630  -28.6270   22.6220 C   0  0  0  0  0  3  0  0  0  0  0  0
  -18.7720  -27.8940   21.9400 C   0  0  0  0  0  3  0  0  0  0  0  0
  -19.0610  -26.5910   21.5160 C   0  0  0  0  0  3  0  0  0  0  0  0
  -27.8840  -30.6080   24.5260 C   0  0  0  0  0  3  0  0  0  0  0  0
  -27.8580  -29.9690   25.9990 C   0  0  1  0  0  0  0  0  0  0  0  0
  -26.4310  -29.8020   26.6340 C   0  0  0  0  0  1  0  0  0  0  0  0
  -28.7360  -28.6930   26.0500 C   0  0  0  0  0  1  0  0  0  0  0  0
  -28.5490  -30.9150   27.0220 C   0  0  0  0  0  1  0  0  0  0  0  0
  -27.4120  -31.9980   24.7170 N   0  0  0  0  0  0  0  0  0  0  0  0
  -27.8670  -33.0860   24.0950 C   0  0  0  0  0  0  0  0  0  0  0  0
  -28.8370  -33.0330   23.3460 O   0  0  0  0  0  0  0  0  0  0  0  0
  -26.5660  -32.1150   25.2540 H   0  0  0  0  0  0  0  0  0  0  0  0
  -26.3260  -34.8640   23.1710 C   0  0  0  0  0  1  0  0  0  0  0  0
  -27.1650  -34.4350   24.3830 C   0  0  0  0  0  3  0  0  0  0  0  0
  -28.7250  -35.3290   26.0430 C   0  0  0  0  0  1  0  0  0  0  0  0
  -28.0920  -35.5230   24.7460 N   0  0  0  0  0  0  0  0  0  0  0  0
  -27.5740  -36.3950   24.8060 H   0  0  0  0  0  0  0  0  0  0  0  0
  1  5  1  0
  3  1  2  0
  3  6  1  0
  4  2  1  0
  5  2  2  0
  6  4  2  0
  7  6  1  0
  7 14  1  0
  8  7  1  0
 10 13  1  0
 11  9  1  0
 12 10  2  0
 12 14  1  0
 13  9  2  0
 13 17  1  0
 14 11  2  0
 17 16  1  1
 17 15  1  0
 18 24  1  0
 18 17  1  0
 19 24  1  0
 20 21  1  0
 20 19  1  0
 22 21  1  0
 22 29  1  0
 22 23  1  0
 24 23  1  0
 25 18  2  0
 26 27  2  0
 27 46  1  0
 28 27  1  0
 28 31  1  0
 29 26  1  0
 29 30  1  0
 30 28  2  0
 31 32  1  0
 32 33  2  0
 34 37  1  0
 34 33  1  0
 35 34  2  0
 36 35  1  0
 36 31  2  0
 37 38  1  0
 38 43  2  0
 38 39  1  0
 39 40  2  0
 40 41  1  0
 41 45  1  0
 42 41  2  0
 43 42  1  0
 44 43  1  0
 46 47  1  0
 47 50  1  0
 47 49  1  0
 48 46  2  0
 51 52  1  0
 51 26  1  0
 53 51  1  0
 54  5  1  0
 54 55  1  0
 55 56  1  0
 56 59  1  0
 57 56  1  0
 58 56  1  0
 59 60  1  0
 60 62  2  0
 60 61  1  0
 61 64  1  0
 61 63  1  0
 65 64  1  0
 66 65  1  0
 67 78  2  0
 68 66  1  0
 69 79  1  0
 69 77  1  0
 70 75  1  0
 70 76  1  0
 70 72  1  0
 71 77  1  0
 72 71  1  0
 72 73  1  0
 73 68  1  0
 74 68  1  0
 75 74  1  0
 76 69  1  0
 77 67  1  0
 79 81  2  0
 80 79  1  0
 82 80  1  0
 83 88  1  0
 84 80  1  0
 85 84  1  0
 86 85  1  0
 87 86  1  0
 87 83  1  0
 88 84  1  0
 88 89  2  0
 90 89  1  0
 91 90  2  0
 92 83  2  0
 92 91  1  0
 93 67  1  0
 93 98  1  0
 93 94  1  0
 94 96  1  6
 94 95  1  0
 94 97  1  0
 98101  1  0
 99103  1  0
 99 98  1  0
100 99  2  0
103102  1  0
103105  1  0
105106  1  0
105104  1  0
M  ISO  4  17 100  18 100  65 101  66 101
M  END
>  <TORSDO>  (89) 
F 26

>  <SCORE>  (89) 
-12.902

>  <name>  (89) 
89

>  <ligand_id>  (89) 
89

>  <original_smiles>  (89) 
[H]c1c([H])c([H])c2c(c1[H])C([H])([H])C([H])([H])C([H])([H])C2([H])N([H])C(=O)C1([H])N(C(=O)C([H])(N([H])C(=O)C([H])(N([H])C([H])([H])[H])C([H])([H])[H])C(C([H])([H])[H])(C([H])([H])[H])C([H])([H])[H])C([H])([H])c2c([H])c(OC([H])([H])C([H])([H])N([H])C(=O)C([H])([H])[N+]([H])([H])C([H])([H])C([H])([H])c3c([H])c([H])c(N([H])c4c([H])c([H])c(C(C(=O)N5C([H])([H])C([H])([H])C([H])([H])C([H])(n6nc(-c7c([H])c([H])c(Oc8c([H])c([H])c(F)c([H])c8F)c([H])c7[H])c(C(=O)N([H])[H])c6N([H])[H])C5([H])[H])(C([H])([H])[H])C([H])([H])[H])c([H])c4[H])c([H])c3[H])c([H])c([H])c2C1([H])[H]

>  <smiles>  (89) 
[H]c1c([H])c([H])c2c(c1[H])C([H])([H])C([H])([H])C([H])([H])C2([H])N([H])C(=O)C1([H])N(C(=O)C([H])(N([H])C(=O)C([H])(N([H])C([H])([H])[H])C([H])([H])[H])C(C([H])([H])[H])(C([H])([H])[H])C([H])([H])[H])C([H])([H])c2c([H])c(OC([H])([H])C([H])([H])N([H])C(=O)C([H])([H])[N+]([H])([H])C([H])([H])C([H])([H])c3c([H])c([H])c(N([H])c4c([H])c([H])c(C(C(=O)N5C([H])([H])C([H])([H])C([H])([H])C([H])(n6nc(-c7c([H])c([H])c(Oc8c([H])c([H])c(F)c([H])c8F)c([H])c7[H])c(C(=O)N([H])[H])c6N([H])[H])C5([H])[H])(C([H])([H])[H])C([H])([H])[H])c([H])c4[H])c([H])c3[H])c([H])c([H])c2C1([H])[H]

$$$$
90:0:0
     RDKit          3D

100108  0  0  1  0  0  0  0  0999 V2000
  -27.6190  -20.6990   27.3100 C   0  0  0  0  0  2  0  0  0  0  0  0
  -27.1720  -22.1510   27.0710 C   0  0  0  0  0  2  0  0  0  0  0  0
  -29.1050  -20.5250   26.9580 C   0  0  0  0  0  2  0  0  0  0  0  0
  -27.5570  -22.6610   25.6630 C   0  0  0  0  0  2  0  0  0  0  0  0
  -29.4080  -21.0020   25.5170 C   0  0  0  0  0  3  0  0  0  0  0  0
  -28.9930  -22.4220   25.3330 N   0  0  2  0  0  4  0  0  0  0  0  0
  -29.0820  -22.5930   24.3430 H   0  0  0  0  0  0  0  0  0  0  0  0
  -28.8020  -20.0670   24.4360 C   0  0  0  0  0  2  0  0  0  0  0  0
  -30.1970  -18.5640   23.0860 C   0  0  0  0  0  0  0  0  0  0  0  0
  -29.6220  -18.8700   24.2530 N   0  0  0  0  0  0  0  0  0  0  0  0
  -30.0370  -19.2580   22.0770 O   0  0  0  0  0  0  0  0  0  0  0  0
  -29.7780  -18.2680   25.0530 H   0  0  0  0  0  0  0  0  0  0  0  0
  -31.0760  -17.3260   23.0040 C   0  0  0  0  0  2  0  0  0  0  0  0
  -31.1550  -16.9460   21.5840 N   0  0  0  0  0  4  0  0  0  0  0  0
  -32.0650  -17.1540   21.2030 H   0  0  0  0  0  0  0  0  0  0  0  0
  -30.5220  -17.6030   21.1480 H   0  0  0  0  0  0  0  0  0  0  0  0
  -30.7360  -15.5750   21.2620 C   0  0  0  0  0  2  0  0  0  0  0  0
  -31.1930  -14.5580   22.3170 C   0  0  0  0  0  2  0  0  0  0  0  0
  -31.8170  -13.3630   21.6070 C   0  0  0  0  0  0  0  0  0  0  0  0
  -31.6660  -11.0940   20.6680 C   0  0  0  0  0  2  0  0  0  0  0  0
  -31.1100  -11.1340   19.2340 C   0  0  0  0  0  2  0  0  0  0  0  0
  -29.5710  -11.0700   19.2430 C   0  0  0  0  0  2  0  0  0  0  0  0
  -28.9470  -12.1070   20.2120 C   0  0  0  0  0  3  0  0  0  0  0  0
  -29.6440  -12.0730   21.5940 C   0  0  0  0  0  2  0  0  0  0  0  0
  -31.0980  -12.2310   21.3990 N   0  0  0  0  0  0  0  0  0  0  0  0
  -32.9830  -13.4970   21.2270 O   0  0  0  0  0  0  0  0  0  0  0  0
  -26.4690  -12.7600   19.9240 C   0  0  0  0  0  0  0  0  0  0  0  0
  -25.3080  -12.0950   20.2100 C   0  0  0  0  0  0  0  0  0  0  0  0
  -25.7030  -10.8500   20.7880 C   0  0  0  0  0  0  0  0  0  0  0  0
  -27.5010  -11.9270   20.3330 N   0  0  0  0  0  0  0  0  0  0  0  0
  -27.0240  -10.7920   20.9040 N   0  0  0  0  0  0  0  0  0  0  0  0
  -24.9040   -9.6850   21.1830 C   0  0  0  0  0  0  0  0  0  0  0  0
  -24.9680   -9.1600   22.4920 C   0  0  0  0  0  3  0  0  0  0  0  0
  -24.1780   -8.0490   22.8580 C   0  0  0  0  0  3  0  0  0  0  0  0
  -23.3110   -7.4530   21.9100 C   0  0  0  0  0  0  0  0  0  0  0  0
  -23.2680   -7.9660   20.6020 C   0  0  0  0  0  3  0  0  0  0  0  0
  -24.0600   -9.0680   20.2380 C   0  0  0  0  0  3  0  0  0  0  0  0
  -22.5220   -6.3570   22.1660 O   0  0  0  0  0  0  0  0  0  0  0  0
  -21.8060   -6.2420   23.3310 C   0  0  0  0  0  0  0  0  0  0  0  0
  -20.9580   -7.2740   23.7900 C   0  0  0  0  0  3  0  0  0  0  0  0
  -20.1880   -7.0860   24.9550 C   0  0  0  0  0  3  0  0  0  0  0  0
  -20.2550   -5.8650   25.6550 C   0  0  0  0  0  0  0  0  0  0  0  0
  -21.0940   -4.8360   25.1960 C   0  0  0  0  0  3  0  0  0  0  0  0
  -21.8650   -5.0220   24.0360 C   0  0  0  0  0  0  0  0  0  0  0  0
  -22.6540   -4.0180   23.5840 F   0  0  0  0  0  0  0  0  0  0  0  0
  -19.5110   -5.6810   26.7700 F   0  0  0  0  0  0  0  0  0  0  0  0
  -23.9120  -12.5360   19.8700 C   0  0  0  0  0  0  0  0  0  0  0  0
  -22.9340  -12.1680   20.6890 N   0  0  0  0  0  0  0  0  0  0  0  0
  -23.6870  -13.2540   18.8950 O   0  0  0  0  0  0  0  0  0  0  0  0
  -23.1170  -11.5990   21.5020 H   0  0  0  0  0  0  0  0  0  0  0  0
  -21.9820  -12.4520   20.4960 H   0  0  0  0  0  0  0  0  0  0  0  0
  -26.7410  -13.9900   19.3270 N   0  0  0  0  0  0  0  0  0  0  0  0
  -26.0000  -14.5620   18.9350 H   0  0  0  0  0  0  0  0  0  0  0  0
  -27.6600  -14.2510   18.9990 H   0  0  0  0  0  0  0  0  0  0  0  0
  -29.9280  -23.3990   25.9600 C   0  0  0  0  0  2  0  0  0  0  0  0
  -30.0860  -24.6850   25.1280 C   0  0  0  0  0  2  0  0  0  0  0  0
  -30.3800  -24.4440   23.6320 C   0  0  0  0  0  2  0  0  0  0  0  0
  -30.4060  -25.7560   22.8290 C   0  0  0  0  0  2  0  0  0  0  0  0
  -30.6430  -25.5610   21.3150 C   0  0  0  0  0  2  0  0  0  0  0  0
  -30.6220  -26.8130   20.6190 O   0  0  0  0  0  0  0  0  0  0  0  0
  -25.5930  -30.8420   23.5500 C   0  0  0  0  0  0  0  0  0  0  0  0
  -29.3640  -27.3390   20.4760 C   0  0  0  0  0  0  0  0  0  0  0  0
  -24.8680  -29.4160   21.6620 C   0  0  0  0  0  3  0  0  0  0  0  0
  -26.7390  -28.3470   20.3010 C   0  0  0  0  0  0  0  0  0  0  0  0
  -27.2740  -30.2740   21.8060 C   0  0  0  0  0  2  0  0  0  0  0  0
  -27.6980  -29.0220   21.0670 C   0  0  0  0  0  0  0  0  0  0  0  0
  -29.0180  -28.5280   21.1500 C   0  0  0  0  0  3  0  0  0  0  0  0
  -28.3960  -26.6750   19.6930 C   0  0  0  0  0  3  0  0  0  0  0  0
  -27.0820  -27.1730   19.6090 C   0  0  0  0  0  3  0  0  0  0  0  0
  -25.3510  -28.9410   20.2660 C   0  0  0  0  0  2  0  0  0  0  0  0
  -25.9210  -30.1880   22.4000 N   0  0  0  0  0  0  0  0  0  0  0  0
  -24.4280  -30.8470   23.9710 O   0  0  0  0  0  0  0  0  0  0  0  0
  -24.3430  -28.1930   22.4470 C   0  0  0  0  0  0  0  0  0  0  0  0
  -23.1360  -27.7280   22.0850 N   0  0  0  0  0  0  0  0  0  0  0  0
  -25.0220  -27.6710   23.3340 O   0  0  0  0  0  0  0  0  0  0  0  0
  -22.6410  -28.2180   21.3530 H   0  0  0  0  0  0  0  0  0  0  0  0
  -20.1330  -25.7340   21.8870 C   0  0  0  0  0  0  0  0  0  0  0  0
  -22.4540  -26.5690   22.6580 C   0  0  0  0  0  3  0  0  0  0  0  0
  -23.0110  -25.2500   22.0730 C   0  0  0  0  0  2  0  0  0  0  0  0
  -22.2250  -24.7520   20.8560 C   0  0  0  0  0  2  0  0  0  0  0  0
  -20.7570  -24.5170   21.2230 C   0  0  0  0  0  2  0  0  0  0  0  0
  -20.9310  -26.7050   22.5460 C   0  0  0  0  0  0  0  0  0  0  0  0
  -20.3040  -27.8350   23.1150 C   0  0  0  0  0  3  0  0  0  0  0  0
  -18.9080  -28.0000   23.0360 C   0  0  0  0  0  3  0  0  0  0  0  0
  -18.1210  -27.0260   22.3970 C   0  0  0  0  0  3  0  0  0  0  0  0
  -18.7330  -25.8960   21.8270 C   0  0  0  0  0  3  0  0  0  0  0  0
  -26.6560  -31.6340   24.3710 C   0  0  0  0  0  3  0  0  0  0  0  0
  -26.0760  -32.9430   24.6970 N   0  0  0  0  0  0  0  0  0  0  0  0
  -26.3290  -34.0740   24.0220 C   0  0  0  0  0  0  0  0  0  0  0  0
  -27.1420  -34.1350   23.0970 O   0  0  0  0  0  0  0  0  0  0  0  0
  -25.3580  -32.9580   25.4070 H   0  0  0  0  0  0  0  0  0  0  0  0
  -24.3920  -35.5780   23.4670 C   0  0  0  0  0  1  0  0  0  0  0  0
  -25.5550  -35.3380   24.4430 C   0  0  0  0  0  3  0  0  0  0  0  0
  -27.4110  -36.4820   25.5700 C   0  0  0  0  0  1  0  0  0  0  0  0
  -26.4000  -36.5480   24.5170 N   0  0  0  0  0  0  0  0  0  0  0  0
  -25.8330  -37.3750   24.6760 H   0  0  0  0  0  0  0  0  0  0  0  0
  -27.1160  -30.8840   25.6820 C   0  0  1  0  0  0  0  0  0  0  0  0
  -25.9420  -30.3470   26.5350 C   0  0  0  0  0  1  0  0  0  0  0  0
  -28.0330  -29.6880   25.3310 C   0  0  0  0  0  1  0  0  0  0  0  0
  -27.9520  -31.8390   26.5670 C   0  0  0  0  0  1  0  0  0  0  0  0
  2  1  1  0
  3  1  1  0
  4  2  1  0
  5  8  1  0
  5  3  1  0
  6  5  1  0
  6  4  1  0
  6 55  1  0
  6  7  1  6
  9 10  1  0
 10  8  1  0
 10 12  1  0
 11  9  2  0
 13  9  1  0
 14 13  1  0
 15 14  1  0
 16 14  1  0
 17 14  1  0
 17 18  1  0
 19 18  1  0
 20 25  1  0
 21 22  1  0
 21 20  1  0
 23 22  1  0
 23 30  1  0
 23 24  1  0
 25 24  1  0
 25 19  1  0
 26 19  2  0
 27 28  2  0
 27 30  1  0
 28 29  1  0
 29 31  2  0
 29 32  1  0
 30 31  1  0
 32 33  1  0
 33 34  2  0
 35 38  1  0
 35 34  1  0
 36 35  2  0
 37 36  1  0
 37 32  2  0
 38 39  1  0
 39 40  2  0
 39 44  1  0
 40 41  1  0
 41 42  2  0
 42 46  1  0
 43 42  1  0
 44 43  2  0
 45 44  1  0
 47 28  1  0
 47 48  1  0
 48 50  1  0
 49 47  2  0
 51 48  1  0
 52 27  1  0
 53 52  1  0
 54 52  1  0
 56 55  1  0
 57 56  1  0
 58 57  1  0
 59 58  1  0
 60 59  1  0
 61 72  2  0
 62 60  1  0
 62 67  1  0
 63 71  1  0
 63 73  1  0
 64 66  1  0
 65 71  1  0
 66 67  2  0
 66 65  1  0
 68 62  2  0
 69 68  1  0
 69 64  2  0
 70 64  1  0
 70 63  1  0
 71 61  1  0
 73 75  2  0
 74 73  1  0
 76 74  1  0
 77 82  1  0
 78 74  1  0
 79 78  1  0
 80 81  1  0
 80 79  1  0
 81 77  1  0
 82 78  1  0
 82 83  2  0
 84 83  1  0
 85 84  2  0
 86 77  2  0
 86 85  1  0
 87 61  1  0
 87 88  1  0
 87 97  1  0
 88 91  1  0
 89 93  1  0
 89 88  1  0
 90 89  2  0
 93 92  1  0
 93 95  1  0
 95 96  1  0
 95 94  1  0
 97 98  1  1
 97100  1  0
 99 97  1  0
M  ISO  4  18 100  19 100  59 101  60 101
M  END
>  <TORSDO>  (90) 
F 27

>  <SCORE>  (90) 
29.631

>  <name>  (90) 
90

>  <ligand_id>  (90) 
90

>  <original_smiles>  (90) 
[H]c1c([H])c([H])c2c(c1[H])C([H])([H])C([H])([H])C([H])([H])C2([H])N([H])C(=O)C1([H])N(C(=O)C([H])(N([H])C(=O)C([H])(N([H])C([H])([H])[H])C([H])([H])[H])C(C([H])([H])[H])(C([H])([H])[H])C([H])([H])[H])C([H])([H])c2c([H])c(OC([H])([H])C([H])([H])C([H])([H])C([H])([H])C([H])([H])[N+]3([H])C([H])([H])C([H])([H])C([H])([H])C([H])([H])C3([H])C([H])([H])N([H])C(=O)C([H])([H])[N+]([H])([H])C([H])([H])C([H])([H])C(=O)N3C([H])([H])C([H])([H])C([H])([H])C([H])(n4nc(-c5c([H])c([H])c(Oc6c([H])c([H])c(F)c([H])c6F)c([H])c5[H])c(C(=O)N([H])[H])c4N([H])[H])C3([H])[H])c([H])c([H])c2C1([H])[H]

>  <smiles>  (90) 
[H]c1c([H])c([H])c2c(c1[H])C([H])([H])C([H])([H])C([H])([H])C2([H])N([H])C(=O)C1([H])N(C(=O)C([H])(N([H])C(=O)C([H])(N([H])C([H])([H])[H])C([H])([H])[H])C(C([H])([H])[H])(C([H])([H])[H])C([H])([H])[H])C([H])([H])c2c([H])c(OC([H])([H])C([H])([H])C([H])([H])C([H])([H])C([H])([H])[N+]3([H])C([H])([H])C([H])([H])C([H])([H])C([H])([H])C3([H])C([H])([H])N([H])C(=O)C([H])([H])[N+]([H])([H])C([H])([H])C([H])([H])C(=O)N3C([H])([H])C([H])([H])C([H])([H])C([H])(n4nc(-c5c([H])c([H])c(Oc6c([H])c([H])c(F)c([H])c6F)c([H])c5[H])c(C(=O)N([H])[H])c4N([H])[H])C3([H])[H])c([H])c([H])c2C1([H])[H]

$$$$
91:0:0
     RDKit          3D

101110  0  0  1  0  0  0  0  0999 V2000
  -32.1640  -24.8070   19.6110 C   0  0  0  0  0  3  0  0  0  0  0  0
  -31.2510  -25.8700   19.4790 C   0  0  0  0  0  3  0  0  0  0  0  0
  -29.7320  -24.4020   18.2760 C   0  0  0  0  0  3  0  0  0  0  0  0
  -31.8460  -23.5170   19.1330 C   0  0  0  0  0  0  0  0  0  0  0  0
  -30.6130  -23.3150   18.4560 C   0  0  0  0  0  0  0  0  0  0  0  0
  -30.0240  -25.6600   18.8270 C   0  0  0  0  0  0  0  0  0  0  0  0
  -32.8150  -22.3870   19.4600 C   0  0  0  0  0  2  0  0  0  0  0  0
  -30.1220  -21.9510   18.0040 C   0  0  0  0  0  2  0  0  0  0  0  0
  -33.2570  -21.5000   18.2760 C   0  0  0  0  0  2  0  0  0  0  0  0
  -31.0680  -21.2050   17.0540 C   0  0  0  0  0  2  0  0  0  0  0  0
  -32.2460  -20.4530   17.7260 C   0  0  1  0  0  0  0  0  0  0  0  0
  -32.9420  -19.6840   16.6650 N   0  0  0  0  0  4  0  0  0  0  0  0
  -33.2430  -20.2940   15.9220 H   0  0  0  0  0  0  0  0  0  0  0  0
  -32.3510  -18.9870   16.2480 H   0  0  0  0  0  0  0  0  0  0  0  0
  -33.7630  -19.2240   17.0170 H   0  0  0  0  0  0  0  0  0  0  0  0
  -28.9650  -26.7340   18.8330 C   0  0  0  0  0  2  0  0  0  0  0  0
  -28.3970  -26.8070   20.1350 O   0  0  0  0  0  0  0  0  0  0  0  0
  -24.6820  -31.9370   23.3320 C   0  0  0  0  0  0  0  0  0  0  0  0
  -27.2300  -27.5140   20.1930 C   0  0  0  0  0  0  0  0  0  0  0  0
  -23.4300  -30.5530   21.7040 C   0  0  0  0  0  3  0  0  0  0  0  0
  -24.8420  -28.9950   20.2660 C   0  0  0  0  0  0  0  0  0  0  0  0
  -25.9510  -30.8900   21.4680 C   0  0  0  0  0  2  0  0  0  0  0  0
  -26.0100  -29.5180   20.8340 C   0  0  0  0  0  0  0  0  0  0  0  0
  -27.2070  -28.7770   20.8080 C   0  0  0  0  0  3  0  0  0  0  0  0
  -26.0500  -26.9810   19.6350 C   0  0  0  0  0  3  0  0  0  0  0  0
  -24.8530  -27.7200   19.6690 C   0  0  0  0  0  3  0  0  0  0  0  0
  -23.6100  -29.8680   20.3230 C   0  0  0  0  0  2  0  0  0  0  0  0
  -24.7070  -31.1390   22.2270 N   0  0  0  0  0  0  0  0  0  0  0  0
  -23.6120  -32.2270   23.8870 O   0  0  0  0  0  0  0  0  0  0  0  0
  -22.7770  -29.5440   22.6740 C   0  0  0  0  0  0  0  0  0  0  0  0
  -21.4510  -29.3660   22.5460 N   0  0  0  0  0  0  0  0  0  0  0  0
  -23.4570  -28.9220   23.4950 O   0  0  0  0  0  0  0  0  0  0  0  0
  -20.9650  -29.9190   21.8540 H   0  0  0  0  0  0  0  0  0  0  0  0
  -18.0780  -28.1740   23.0270 C   0  0  0  0  0  0  0  0  0  0  0  0
  -20.6310  -28.4410   23.3240 C   0  0  0  0  0  3  0  0  0  0  0  0
  -20.7450  -27.0010   22.7740 C   0  0  0  0  0  2  0  0  0  0  0  0
  -19.6550  -26.6580   21.7530 C   0  0  0  0  0  2  0  0  0  0  0  0
  -18.2640  -26.8130   22.3760 C   0  0  0  0  0  2  0  0  0  0  0  0
  -19.1890  -28.9460   23.4570 C   0  0  0  0  0  0  0  0  0  0  0  0
  -18.9620  -30.2190   24.0200 C   0  0  0  0  0  3  0  0  0  0  0  0
  -17.6540  -30.7220   24.1610 C   0  0  0  0  0  3  0  0  0  0  0  0
  -16.5560  -29.9480   23.7470 C   0  0  0  0  0  3  0  0  0  0  0  0
  -16.7690  -28.6760   23.1850 C   0  0  0  0  0  3  0  0  0  0  0  0
  -25.9880  -32.5440   23.9330 C   0  0  0  0  0  3  0  0  0  0  0  0
  -25.7070  -33.9440   24.2760 N   0  0  0  0  0  0  0  0  0  0  0  0
  -26.0480  -34.9940   23.5160 C   0  0  0  0  0  0  0  0  0  0  0  0
  -26.7030  -34.8840   22.4760 O   0  0  0  0  0  0  0  0  0  0  0  0
  -25.1290  -34.1050   25.0880 H   0  0  0  0  0  0  0  0  0  0  0  0
  -24.3370  -36.8080   23.1910 C   0  0  0  0  0  1  0  0  0  0  0  0
  -25.5850  -36.3870   23.9830 C   0  0  0  0  0  3  0  0  0  0  0  0
  -27.7460  -37.2330   24.7830 C   0  0  0  0  0  1  0  0  0  0  0  0
  -26.6310  -37.4260   23.8610 N   0  0  0  0  0  0  0  0  0  0  0  0
  -26.2400  -38.3490   24.0270 H   0  0  0  0  0  0  0  0  0  0  0  0
  -26.5190  -31.7550   25.1920 C   0  0  1  0  0  0  0  0  0  0  0  0
  -25.4410  -31.5190   26.2750 C   0  0  0  0  0  1  0  0  0  0  0  0
  -27.0790  -30.3750   24.7730 C   0  0  0  0  0  1  0  0  0  0  0  0
  -27.6890  -32.5290   25.8430 C   0  0  0  0  0  1  0  0  0  0  0  0
  -31.7940  -19.4720   18.8720 C   0  0  0  0  0  2  0  0  0  0  0  0
  -30.4710  -18.6900   18.6590 C   0  0  0  0  0  2  0  0  0  0  0  0
  -29.9650  -17.9840   19.8790 N   0  0  1  0  0  4  0  0  0  0  0  0
  -30.2110  -18.5700   20.6670 H   0  0  0  0  0  0  0  0  0  0  0  0
  -27.8530  -17.1350   18.7340 C   0  0  0  0  0  1  0  0  0  0  0  0
  -28.4720  -17.9430   19.8950 C   0  0  0  0  0  2  0  0  0  0  0  0
  -30.6540  -16.6730   20.0850 C   0  0  0  0  0  2  0  0  0  0  0  0
  -30.1750  -15.7430   21.2530 C   0  0  0  0  0  2  0  0  0  0  0  0
  -30.8350  -14.3630   21.0590 C   0  0  0  0  0  0  0  0  0  0  0  0
  -30.4330  -12.3520   19.7290 C   0  0  0  0  0  2  0  0  0  0  0  0
  -29.5720  -12.7670   18.5200 C   0  0  0  0  0  2  0  0  0  0  0  0
  -28.0750  -12.6670   18.8670 C   0  0  0  0  0  2  0  0  0  0  0  0
  -27.7120  -13.3640   20.2070 C   0  0  0  0  0  3  0  0  0  0  0  0
  -28.7220  -13.0140   21.3290 C   0  0  0  0  0  2  0  0  0  0  0  0
  -30.0850  -13.2520   20.8360 N   0  0  0  0  0  0  0  0  0  0  0  0
  -32.0450  -14.3880   20.8360 O   0  0  0  0  0  0  0  0  0  0  0  0
  -25.2880  -13.9610   20.8230 C   0  0  0  0  0  0  0  0  0  0  0  0
  -24.1970  -13.1880   21.1030 C   0  0  0  0  0  0  0  0  0  0  0  0
  -24.6480  -11.8330   21.0490 C   0  0  0  0  0  0  0  0  0  0  0  0
  -26.3380  -13.0800   20.6110 N   0  0  0  0  0  0  0  0  0  0  0  0
  -25.9540  -11.7930   20.8150 N   0  0  0  0  0  0  0  0  0  0  0  0
  -23.9010  -10.5750   21.1470 C   0  0  0  0  0  0  0  0  0  0  0  0
  -24.2920   -9.5570   22.0440 C   0  0  0  0  0  3  0  0  0  0  0  0
  -23.5510   -8.3610   22.1350 C   0  0  0  0  0  3  0  0  0  0  0  0
  -22.4000   -8.1750   21.3300 C   0  0  0  0  0  0  0  0  0  0  0  0
  -22.0300   -9.1800   20.4230 C   0  0  0  0  0  3  0  0  0  0  0  0
  -22.7730  -10.3700   20.3280 C   0  0  0  0  0  3  0  0  0  0  0  0
  -21.6310   -7.0360   21.3310 O   0  0  0  0  0  0  0  0  0  0  0  0
  -21.5490   -6.2240   22.4340 C   0  0  0  0  0  0  0  0  0  0  0  0
  -21.1140   -6.7090   23.6870 C   0  0  0  0  0  3  0  0  0  0  0  0
  -20.9720   -5.8230   24.7740 C   0  0  0  0  0  3  0  0  0  0  0  0
  -21.2610   -4.4550   24.6120 C   0  0  0  0  0  0  0  0  0  0  0  0
  -21.6880   -3.9690   23.3640 C   0  0  0  0  0  3  0  0  0  0  0  0
  -21.8300   -4.8510   22.2770 C   0  0  0  0  0  0  0  0  0  0  0  0
  -22.2190   -4.3750   21.0720 F   0  0  0  0  0  0  0  0  0  0  0  0
  -21.1230   -3.6020   25.6550 F   0  0  0  0  0  0  0  0  0  0  0  0
  -22.7930  -13.6710   21.3240 C   0  0  0  0  0  0  0  0  0  0  0  0
  -22.0200  -12.9510   22.1270 N   0  0  0  0  0  0  0  0  0  0  0  0
  -22.3910  -14.7220   20.8250 O   0  0  0  0  0  0  0  0  0  0  0  0
  -22.3620  -12.1040   22.5600 H   0  0  0  0  0  0  0  0  0  0  0  0
  -21.0760  -13.2510   22.3190 H   0  0  0  0  0  0  0  0  0  0  0  0
  -25.4650  -15.3370   20.7190 N   0  0  0  0  0  0  0  0  0  0  0  0
  -24.6810  -15.9720   20.8370 H   0  0  0  0  0  0  0  0  0  0  0  0
  -26.3330  -15.8070   20.5080 H   0  0  0  0  0  0  0  0  0  0  0  0
  2  1  1  0
  3  5  2  0
  3  6  1  0
  4  7  1  0
  4  1  2  0
  5  4  1  0
  6 16  1  0
  6  2  2  0
  8  5  1  0
  9  7  1  0
 10 11  1  0
 10  8  1  0
 11  9  1  0
 11 58  1  1
 12 15  1  0
 12 11  1  0
 13 12  1  0
 14 12  1  0
 16 17  1  0
 17 19  1  0
 18 29  2  0
 19 24  1  0
 20 28  1  0
 20 30  1  0
 21 27  1  0
 21 23  1  0
 22 28  1  0
 23 22  1  0
 24 23  2  0
 25 26  1  0
 25 19  2  0
 26 21  2  0
 27 20  1  0
 28 18  1  0
 30 32  2  0
 31 30  1  0
 33 31  1  0
 34 43  2  0
 34 39  1  0
 35 31  1  0
 35 39  1  0
 36 35  1  0
 37 38  1  0
 37 36  1  0
 38 34  1  0
 39 40  2  0
 40 41  1  0
 42 41  2  0
 43 42  1  0
 44 18  1  0
 44 45  1  0
 44 54  1  0
 45 48  1  0
 46 50  1  0
 46 45  1  0
 47 46  2  0
 50 49  1  0
 52 50  1  0
 52 53  1  0
 52 51  1  0
 54 57  1  1
 54 55  1  0
 56 54  1  0
 59 58  1  0
 59 60  1  0
 60 63  1  0
 60 64  1  0
 60 61  1  1
 62 63  1  0
 64 65  1  0
 66 65  1  0
 67 72  1  0
 68 69  1  0
 68 67  1  0
 70 69  1  0
 70 77  1  0
 70 71  1  0
 72 66  1  0
 72 71  1  0
 73 66  2  0
 74 75  2  0
 75 94  1  0
 76 75  1  0
 76 79  1  0
 77 78  1  0
 77 74  1  0
 78 76  2  0
 79 80  1  0
 80 81  2  0
 82 85  1  0
 82 81  1  0
 83 82  2  0
 84 83  1  0
 84 79  2  0
 85 86  1  0
 86 87  1  0
 87 88  2  0
 89 88  1  0
 89 93  1  0
 90 89  2  0
 91 86  2  0
 91 90  1  0
 92 91  1  0
 94 95  1  0
 95 98  1  0
 95 97  1  0
 96 94  2  0
 99 74  1  0
 99100  1  0
101 99  1  0
M  ISO  4  16 101  17 101  65 100  66 100
M  END
>  <TORSDO>  (91) 
F 24

>  <SCORE>  (91) 
-12.387

>  <name>  (91) 
91

>  <ligand_id>  (91) 
91

>  <original_smiles>  (91) 
[H]c1c([H])c([H])c2c(c1[H])C([H])([H])C([H])([H])C([H])([H])C2([H])N([H])C(=O)C1([H])N(C(=O)C([H])(N([H])C(=O)C([H])(N([H])C([H])([H])[H])C([H])([H])[H])C(C([H])([H])[H])(C([H])([H])[H])C([H])([H])[H])C([H])([H])c2c([H])c(OC([H])([H])c3c([H])c([H])c4c(c3[H])C([H])([H])C([H])([H])C(C([H])([H])C([H])([H])[N+]([H])(C([H])([H])C([H])([H])[H])C([H])([H])C([H])([H])C(=O)N3C([H])([H])C([H])([H])C([H])([H])C([H])(n5nc(-c6c([H])c([H])c(Oc7c([H])c([H])c(F)c([H])c7F)c([H])c6[H])c(C(=O)N([H])[H])c5N([H])[H])C3([H])[H])([N+]([H])([H])[H])C([H])([H])C4([H])[H])c([H])c([H])c2C1([H])[H]

>  <smiles>  (91) 
[H]c1c([H])c([H])c2c(c1[H])C([H])([H])C([H])([H])C([H])([H])C2([H])N([H])C(=O)C1([H])N(C(=O)C([H])(N([H])C(=O)C([H])(N([H])C([H])([H])[H])C([H])([H])[H])C(C([H])([H])[H])(C([H])([H])[H])C([H])([H])[H])C([H])([H])c2c([H])c(OC([H])([H])c3c([H])c([H])c4c(c3[H])C([H])([H])C([H])([H])C(C([H])([H])C([H])([H])[N+]([H])(C([H])([H])C([H])([H])[H])C([H])([H])C([H])([H])C(=O)N3C([H])([H])C([H])([H])C([H])([H])C([H])(n5nc(-c6c([H])c([H])c(Oc7c([H])c([H])c(F)c([H])c7F)c([H])c6[H])c(C(=O)N([H])[H])c5N([H])[H])C3([H])[H])([N+]([H])([H])[H])C([H])([H])C4([H])[H])c([H])c([H])c2C1([H])[H]

$$$$
92:0:0
     RDKit          3D

101110  0  0  1  0  0  0  0  0999 V2000
  -32.8870  -21.0840   20.5770 C   0  0  0  0  0  2  0  0  0  0  0  0
  -31.5260  -20.5050   20.5680 N   0  0  0  0  0  4  0  0  0  0  0  0
  -31.0210  -20.8050   19.7510 H   0  0  0  0  0  0  0  0  0  0  0  0
  -31.0610  -20.9100   21.3660 H   0  0  0  0  0  0  0  0  0  0  0  0
  -31.4370  -19.0340   20.7380 C   0  0  0  0  0  2  0  0  0  0  0  0
  -31.3480  -18.2190   19.4200 C   0  0  0  0  0  3  0  0  0  0  0  0
  -34.7660  -15.5440   19.0200 C   0  0  0  0  0  3  0  0  0  0  0  0
  -34.4240  -16.4180   17.9720 C   0  0  0  0  0  3  0  0  0  0  0  0
  -34.0030  -15.5330   20.2030 C   0  0  0  0  0  3  0  0  0  0  0  0
  -33.3220  -17.2840   18.1060 C   0  0  0  0  0  3  0  0  0  0  0  0
  -32.8990  -16.3980   20.3380 C   0  0  0  0  0  3  0  0  0  0  0  0
  -32.5520  -17.2830   19.2900 C   0  0  0  0  0  0  0  0  0  0  0  0
  -30.0030  -17.4590   19.2740 C   0  0  0  0  0  2  0  0  0  0  0  0
  -30.8060  -15.0800   19.1280 C   0  0  0  0  0  0  0  0  0  0  0  0
  -30.6550  -12.7220   18.4320 C   0  0  0  0  0  2  0  0  0  0  0  0
  -29.5380  -12.5950   17.3760 C   0  0  0  0  0  2  0  0  0  0  0  0
  -28.1610  -12.4050   18.0450 C   0  0  0  0  0  2  0  0  0  0  0  0
  -27.8960  -13.4390   19.1730 C   0  0  0  0  0  3  0  0  0  0  0  0
  -29.1090  -13.5140   20.1280 C   0  0  0  0  0  2  0  0  0  0  0  0
  -30.3050  -13.8330   19.3250 N   0  0  0  0  0  0  0  0  0  0  0  0
  -31.7670  -15.3290   18.3930 O   0  0  0  0  0  0  0  0  0  0  0  0
  -30.0600  -16.0500   19.6670 N   0  0  0  0  0  0  0  0  0  0  0  0
  -29.3310  -15.7350   20.2910 H   0  0  0  0  0  0  0  0  0  0  0  0
  -25.7130  -14.0110   20.4160 C   0  0  0  0  0  0  0  0  0  0  0  0
  -24.7170  -13.2190   20.9230 C   0  0  0  0  0  0  0  0  0  0  0  0
  -25.1140  -11.8720   20.6630 C   0  0  0  0  0  0  0  0  0  0  0  0
  -26.6580  -13.1430   19.8900 N   0  0  0  0  0  0  0  0  0  0  0  0
  -26.3090  -11.8460   20.0890 N   0  0  0  0  0  0  0  0  0  0  0  0
  -24.4010  -10.6060   20.8750 C   0  0  0  0  0  0  0  0  0  0  0  0
  -24.8610   -9.6450   21.8020 C   0  0  0  0  0  3  0  0  0  0  0  0
  -24.1470   -8.4430   21.9990 C   0  0  0  0  0  3  0  0  0  0  0  0
  -22.9600   -8.1950   21.2690 C   0  0  0  0  0  0  0  0  0  0  0  0
  -22.5210   -9.1440   20.3310 C   0  0  0  0  0  3  0  0  0  0  0  0
  -23.2350  -10.3370   20.1320 C   0  0  0  0  0  3  0  0  0  0  0  0
  -22.2160   -7.0440   21.3780 O   0  0  0  0  0  0  0  0  0  0  0  0
  -21.9890   -6.4450   22.5900 C   0  0  0  0  0  0  0  0  0  0  0  0
  -21.3210   -7.1150   23.6390 C   0  0  0  0  0  3  0  0  0  0  0  0
  -21.0470   -6.4390   24.8450 C   0  0  0  0  0  3  0  0  0  0  0  0
  -21.4300   -5.0940   25.0010 C   0  0  0  0  0  0  0  0  0  0  0  0
  -22.0890   -4.4230   23.9550 C   0  0  0  0  0  3  0  0  0  0  0  0
  -22.3650   -5.0970   22.7520 C   0  0  0  0  0  0  0  0  0  0  0  0
  -22.9830   -4.4400   21.7400 F   0  0  0  0  0  0  0  0  0  0  0  0
  -21.1590   -4.4400   26.1550 F   0  0  0  0  0  0  0  0  0  0  0  0
  -23.4230  -13.6830   21.5280 C   0  0  0  0  0  0  0  0  0  0  0  0
  -22.8830  -12.9280   22.4780 N   0  0  0  0  0  0  0  0  0  0  0  0
  -22.9070  -14.7490   21.1930 O   0  0  0  0  0  0  0  0  0  0  0  0
  -23.3150  -12.0630   22.7690 H   0  0  0  0  0  0  0  0  0  0  0  0
  -22.0230  -13.2200   22.9210 H   0  0  0  0  0  0  0  0  0  0  0  0
  -25.8830  -15.3890   20.3410 N   0  0  0  0  0  0  0  0  0  0  0  0
  -25.1770  -16.0400   20.6700 H   0  0  0  0  0  0  0  0  0  0  0  0
  -26.6640  -15.8480   19.8880 H   0  0  0  0  0  0  0  0  0  0  0  0
  -33.0020  -22.2610   19.5850 C   0  0  0  0  0  2  0  0  0  0  0  0
  -31.5670  -23.9850   20.7880 C   0  0  0  0  0  3  0  0  0  0  0  0
  -30.4170  -24.7950   20.8670 C   0  0  0  0  0  3  0  0  0  0  0  0
  -30.8960  -23.2610   18.5620 C   0  0  0  0  0  3  0  0  0  0  0  0
  -31.8010  -23.1970   19.6430 C   0  0  0  0  0  0  0  0  0  0  0  0
  -29.4900  -24.8320   19.8050 C   0  0  0  0  0  0  0  0  0  0  0  0
  -29.7390  -24.0680   18.6380 C   0  0  0  0  0  0  0  0  0  0  0  0
  -28.7690  -24.0800   17.4700 C   0  0  0  0  0  1  0  0  0  0  0  0
  -28.2050  -25.6330   19.9680 C   0  0  0  0  0  2  0  0  0  0  0  0
  -28.1750  -26.8220   19.1790 O   0  0  0  0  0  0  0  0  0  0  0  0
  -24.5150  -31.5050   23.0690 C   0  0  0  0  0  0  0  0  0  0  0  0
  -27.0060  -27.5190   19.3430 C   0  0  0  0  0  0  0  0  0  0  0  0
  -23.2110  -30.2450   21.3850 C   0  0  0  0  0  3  0  0  0  0  0  0
  -24.5820  -28.9100   19.6980 C   0  0  0  0  0  0  0  0  0  0  0  0
  -25.7010  -30.7100   21.0290 C   0  0  0  0  0  2  0  0  0  0  0  0
  -25.7680  -29.4180   20.2450 C   0  0  0  0  0  0  0  0  0  0  0  0
  -26.9860  -28.7280   20.0660 C   0  0  0  0  0  3  0  0  0  0  0  0
  -25.8090  -27.0170   18.7920 C   0  0  0  0  0  3  0  0  0  0  0  0
  -24.5950  -27.7080   18.9680 C   0  0  0  0  0  3  0  0  0  0  0  0
  -23.3240  -29.7170   19.9300 C   0  0  0  0  0  2  0  0  0  0  0  0
  -24.4970  -30.8290   21.8870 N   0  0  0  0  0  0  0  0  0  0  0  0
  -23.4750  -31.6870   23.7180 O   0  0  0  0  0  0  0  0  0  0  0  0
  -22.6630  -29.1100   22.2800 C   0  0  0  0  0  0  0  0  0  0  0  0
  -21.3490  -28.8540   22.1810 N   0  0  0  0  0  0  0  0  0  0  0  0
  -23.4140  -28.4670   23.0160 O   0  0  0  0  0  0  0  0  0  0  0  0
  -20.8000  -29.4320   21.5610 H   0  0  0  0  0  0  0  0  0  0  0  0
  -18.0890  -27.3620   22.6240 C   0  0  0  0  0  0  0  0  0  0  0  0
  -20.6200  -27.8080   22.8980 C   0  0  0  0  0  3  0  0  0  0  0  0
  -20.8310  -26.4280   22.2340 C   0  0  0  0  0  2  0  0  0  0  0  0
  -19.7480  -26.0790   21.2080 C   0  0  0  0  0  2  0  0  0  0  0  0
  -18.3660  -26.0740   21.8670 C   0  0  0  0  0  2  0  0  0  0  0  0
  -19.1470  -28.1850   23.0940 C   0  0  0  0  0  0  0  0  0  0  0  0
  -18.8340  -29.3890   23.7610 C   0  0  0  0  0  3  0  0  0  0  0  0
  -17.4950  -29.7740   23.9630 C   0  0  0  0  0  3  0  0  0  0  0  0
  -16.4510  -28.9480   23.5090 C   0  0  0  0  0  3  0  0  0  0  0  0
  -16.7490  -27.7440   22.8460 C   0  0  0  0  0  3  0  0  0  0  0  0
  -25.8340  -32.1050   23.6500 C   0  0  0  0  0  3  0  0  0  0  0  0
  -25.5590  -33.5000   24.0190 N   0  0  0  0  0  0  0  0  0  0  0  0
  -25.9340  -34.5640   23.2960 C   0  0  0  0  0  0  0  0  0  0  0  0
  -26.6180  -34.4730   22.2740 O   0  0  0  0  0  0  0  0  0  0  0  0
  -24.9560  -33.6470   24.8140 H   0  0  0  0  0  0  0  0  0  0  0  0
  -24.2780  -36.4230   22.9510 C   0  0  0  0  0  1  0  0  0  0  0  0
  -25.4770  -35.9510   23.7870 C   0  0  0  0  0  3  0  0  0  0  0  0
  -27.6090  -36.7370   24.7200 C   0  0  0  0  0  1  0  0  0  0  0  0
  -26.5470  -36.9720   23.7440 N   0  0  0  0  0  0  0  0  0  0  0  0
  -26.1660  -37.9000   23.9070 H   0  0  0  0  0  0  0  0  0  0  0  0
  -26.3930  -31.2980   24.8860 C   0  0  1  0  0  0  0  0  0  0  0  0
  -25.3430  -31.0520   25.9930 C   0  0  0  0  0  1  0  0  0  0  0  0
  -26.9380  -29.9230   24.4370 C   0  0  0  0  0  1  0  0  0  0  0  0
  -27.5830  -32.0620   25.5140 C   0  0  0  0  0  1  0  0  0  0  0  0
  2  1  1  0
  2  5  1  0
  2  4  1  0
  3  2  1  0
  6 13  1  0
  6  5  1  0
  7  9  1  0
  8 10  1  0
  8  7  2  0
  9 11  2  0
 10 12  2  0
 12  6  1  0
 12 11  1  0
 13 22  1  0
 14 20  1  0
 14 22  1  0
 15 20  1  0
 16 17  1  0
 16 15  1  0
 18 17  1  0
 18 27  1  0
 18 19  1  0
 20 19  1  0
 21 14  2  0
 22 23  1  0
 24 25  2  0
 25 44  1  0
 26 29  1  0
 26 25  1  0
 27 28  1  0
 27 24  1  0
 28 26  2  0
 29 30  1  0
 30 31  2  0
 32 35  1  0
 32 31  1  0
 33 32  2  0
 34 33  1  0
 34 29  2  0
 35 36  1  0
 36 41  2  0
 36 37  1  0
 37 38  2  0
 38 39  1  0
 39 43  1  0
 40 39  2  0
 41 40  1  0
 42 41  1  0
 44 45  1  0
 45 47  1  0
 45 48  1  0
 46 44  2  0
 49 24  1  0
 49 50  1  0
 51 49  1  0
 52 56  1  0
 52  1  1  0
 53 54  1  0
 55 58  2  0
 55 56  1  0
 56 53  2  0
 57 60  1  0
 57 54  2  0
 58 57  1  0
 59 58  1  0
 61 63  1  0
 61 60  1  0
 62 73  2  0
 63 68  1  0
 64 72  1  0
 64 74  1  0
 65 71  1  0
 65 67  1  0
 66 72  1  0
 67 66  1  0
 68 67  2  0
 69 70  1  0
 69 63  2  0
 70 65  2  0
 71 64  1  0
 72 62  1  0
 74 76  2  0
 75 74  1  0
 77 75  1  0
 78 87  2  0
 78 83  1  0
 79 75  1  0
 79 83  1  0
 80 79  1  0
 81 82  1  0
 81 80  1  0
 82 78  1  0
 83 84  2  0
 84 85  1  0
 86 85  2  0
 87 86  1  0
 88 62  1  0
 88 89  1  0
 88 98  1  0
 89 92  1  0
 90 94  1  0
 90 89  1  0
 91 90  2  0
 94 93  1  0
 96 94  1  0
 96 97  1  0
 96 95  1  0
 98101  1  1
 98 99  1  0
100 98  1  0
M  ISO  4  14 100  22 100  60 101  61 101
M  END
>  <TORSDO>  (92) 
F 24

>  <SCORE>  (92) 
-9.382

>  <name>  (92) 
92

>  <ligand_id>  (92) 
92

>  <original_smiles>  (92) 
[H]c1c([H])c([H])c(C([H])(C([H])([H])N([H])C(=O)N2C([H])([H])C([H])([H])C([H])([H])C([H])(n3nc(-c4c([H])c([H])c(Oc5c([H])c([H])c(F)c([H])c5F)c([H])c4[H])c(C(=O)N([H])[H])c3N([H])[H])C2([H])[H])C([H])([H])[N+]([H])([H])C([H])([H])C([H])([H])c2c([H])c([H])c(C([H])([H])Oc3c([H])c([H])c4c(c3[H])C([H])([H])N(C(=O)C([H])(N([H])C(=O)C([H])(N([H])C([H])([H])[H])C([H])([H])[H])C(C([H])([H])[H])(C([H])([H])[H])C([H])([H])[H])C([H])(C(=O)N([H])C3([H])c5c([H])c([H])c([H])c([H])c5C([H])([H])C([H])([H])C3([H])[H])C4([H])[H])c(C([H])([H])[H])c2[H])c([H])c1[H]

>  <smiles>  (92) 
[H]c1c([H])c([H])c(C([H])(C([H])([H])N([H])C(=O)N2C([H])([H])C([H])([H])C([H])([H])C([H])(n3nc(-c4c([H])c([H])c(Oc5c([H])c([H])c(F)c([H])c5F)c([H])c4[H])c(C(=O)N([H])[H])c3N([H])[H])C2([H])[H])C([H])([H])[N+]([H])([H])C([H])([H])C([H])([H])c2c([H])c([H])c(C([H])([H])Oc3c([H])c([H])c4c(c3[H])C([H])([H])N(C(=O)C([H])(N([H])C(=O)C([H])(N([H])C([H])([H])[H])C([H])([H])[H])C(C([H])([H])[H])(C([H])([H])[H])C([H])([H])[H])C([H])(C(=O)N([H])C3([H])c5c([H])c([H])c([H])c([H])c5C([H])([H])C([H])([H])C3([H])[H])C4([H])[H])c(C([H])([H])[H])c2[H])c([H])c1[H]

$$$$
93:0:0
     RDKit          3D

101109  0  0  1  0  0  0  0  0999 V2000
  -33.0530  -24.1360   19.1920 C   0  0  0  0  0  3  0  0  0  0  0  0
  -31.3040  -25.3770   20.3440 C   0  0  0  0  0  3  0  0  0  0  0  0
  -31.7460  -23.0520   20.9420 C   0  0  0  0  0  3  0  0  0  0  0  0
  -32.3170  -25.3240   19.3700 C   0  0  0  0  0  0  0  0  0  0  0  0
  -32.7930  -23.0040   19.9930 C   0  0  0  0  0  0  0  0  0  0  0  0
  -30.9920  -24.2390   21.1170 C   0  0  0  0  0  0  0  0  0  0  0  0
  -32.6190  -26.5530   18.5340 C   0  0  0  0  0  1  0  0  0  0  0  0
  -33.7250  -21.7990   19.8780 C   0  0  0  0  0  2  0  0  0  0  0  0
  -33.1050  -20.4830   19.3650 C   0  0  0  0  0  2  0  0  0  0  0  0
  -32.3970  -19.7130   20.4160 N   0  0  0  0  0  4  0  0  0  0  0  0
  -31.4420  -20.0290   20.4630 H   0  0  0  0  0  0  0  0  0  0  0  0
  -32.8380  -19.9140   21.2990 H   0  0  0  0  0  0  0  0  0  0  0  0
  -32.4500  -18.2420   20.2160 C   0  0  0  0  0  2  0  0  0  0  0  0
  -31.8840  -17.4370   21.4100 C   0  0  0  0  0  2  0  0  0  0  0  0
  -30.3490  -17.4550   21.5340 C   0  0  0  0  0  2  0  0  0  0  0  0
  -29.6060  -16.5840   20.5030 C   0  0  0  0  0  2  0  0  0  0  0  0
  -30.3310  -14.2420   20.0340 C   0  0  0  0  0  0  0  0  0  0  0  0
  -30.0170  -12.0750   18.9050 C   0  0  0  0  0  2  0  0  0  0  0  0
  -28.9720  -12.2630   17.7840 C   0  0  0  0  0  2  0  0  0  0  0  0
  -27.5370  -12.1030   18.3260 C   0  0  0  0  0  2  0  0  0  0  0  0
  -27.2900  -12.9280   19.6180 C   0  0  0  0  0  3  0  0  0  0  0  0
  -28.4320  -12.7000   20.6340 C   0  0  0  0  0  2  0  0  0  0  0  0
  -29.7090  -13.0350   19.9730 N   0  0  0  0  0  0  0  0  0  0  0  0
  -31.3280  -14.5370   19.3690 O   0  0  0  0  0  0  0  0  0  0  0  0
  -29.6770  -15.1490   20.7720 N   0  0  0  0  0  0  0  0  0  0  0  0
  -28.9260  -14.7690   21.3300 H   0  0  0  0  0  0  0  0  0  0  0  0
  -24.9550  -13.4990   20.5420 C   0  0  0  0  0  0  0  0  0  0  0  0
  -23.9300  -12.7080   20.9850 C   0  0  0  0  0  0  0  0  0  0  0  0
  -24.3930  -11.3610   20.8720 C   0  0  0  0  0  0  0  0  0  0  0  0
  -25.9820  -12.6330   20.1980 N   0  0  0  0  0  0  0  0  0  0  0  0
  -25.6500  -11.3400   20.4450 N   0  0  0  0  0  0  0  0  0  0  0  0
  -23.6950  -10.0880   21.0890 C   0  0  0  0  0  0  0  0  0  0  0  0
  -24.1960   -9.1140   21.9810 C   0  0  0  0  0  3  0  0  0  0  0  0
  -23.4980   -7.9060   22.1900 C   0  0  0  0  0  3  0  0  0  0  0  0
  -22.2830   -7.6620   21.5050 C   0  0  0  0  0  0  0  0  0  0  0  0
  -21.8000   -8.6240   20.6010 C   0  0  0  0  0  3  0  0  0  0  0  0
  -22.4990   -9.8240   20.3920 C   0  0  0  0  0  3  0  0  0  0  0  0
  -21.5500   -6.5060   21.6240 O   0  0  0  0  0  0  0  0  0  0  0  0
  -21.5690   -5.7570   22.7730 C   0  0  0  0  0  0  0  0  0  0  0  0
  -21.1830   -6.2960   24.0210 C   0  0  0  0  0  3  0  0  0  0  0  0
  -21.1520   -5.4710   25.1630 C   0  0  0  0  0  3  0  0  0  0  0  0
  -21.4930   -4.1100   25.0590 C   0  0  0  0  0  0  0  0  0  0  0  0
  -21.8710   -3.5710   23.8170 C   0  0  0  0  0  3  0  0  0  0  0  0
  -21.9050   -4.3910   22.6770 C   0  0  0  0  0  0  0  0  0  0  0  0
  -22.2500   -3.8630   21.4770 F   0  0  0  0  0  0  0  0  0  0  0  0
  -21.4540   -3.3150   26.1540 F   0  0  0  0  0  0  0  0  0  0  0  0
  -22.5610  -13.1640   21.4010 C   0  0  0  0  0  0  0  0  0  0  0  0
  -21.9230  -12.4330   22.3090 N   0  0  0  0  0  0  0  0  0  0  0  0
  -22.0690  -14.2000   20.9570 O   0  0  0  0  0  0  0  0  0  0  0  0
  -22.3370  -11.5950   22.6900 H   0  0  0  0  0  0  0  0  0  0  0  0
  -21.0080  -12.7170   22.6290 H   0  0  0  0  0  0  0  0  0  0  0  0
  -25.0940  -14.8750   20.3890 N   0  0  0  0  0  0  0  0  0  0  0  0
  -24.3340  -15.5210   20.5730 H   0  0  0  0  0  0  0  0  0  0  0  0
  -25.9070  -15.3300   19.9930 H   0  0  0  0  0  0  0  0  0  0  0  0
  -29.8970  -24.3220   22.1790 C   0  0  0  0  0  2  0  0  0  0  0  0
  -28.5190  -24.2250   21.6370 N   0  0  0  0  0  4  0  0  0  0  0  0
  -27.9410  -23.9750   22.4240 H   0  0  0  0  0  0  0  0  0  0  0  0
  -28.4600  -23.4590   20.9850 H   0  0  0  0  0  0  0  0  0  0  0  0
  -27.9460  -25.4710   21.0620 C   0  0  0  0  0  2  0  0  0  0  0  0
  -27.7470  -25.4060   19.5340 C   0  0  0  0  0  2  0  0  0  0  0  0
  -27.7150  -26.7310   19.0010 O   0  0  0  0  0  0  0  0  0  0  0  0
  -24.4400  -31.5880   23.0260 C   0  0  0  0  0  0  0  0  0  0  0  0
  -26.5730  -27.4540   19.2390 C   0  0  0  0  0  0  0  0  0  0  0  0
  -23.0190  -30.4410   21.3540 C   0  0  0  0  0  3  0  0  0  0  0  0
  -24.2620  -29.0190   19.6390 C   0  0  0  0  0  0  0  0  0  0  0  0
  -25.5290  -30.7230   20.9610 C   0  0  0  0  0  2  0  0  0  0  0  0
  -25.4900  -29.4330   20.1740 C   0  0  0  0  0  0  0  0  0  0  0  0
  -26.6500  -28.6580   19.9690 C   0  0  0  0  0  3  0  0  0  0  0  0
  -25.3350  -27.0450   18.7030 C   0  0  0  0  0  3  0  0  0  0  0  0
  -24.1780  -27.8240   18.9010 C   0  0  0  0  0  3  0  0  0  0  0  0
  -23.0700  -29.9140   19.8940 C   0  0  0  0  0  2  0  0  0  0  0  0
  -24.3530  -30.9240   21.8380 N   0  0  0  0  0  0  0  0  0  0  0  0
  -23.4280  -31.8400   23.6950 O   0  0  0  0  0  0  0  0  0  0  0  0
  -22.4050  -29.3430   22.2530 C   0  0  0  0  0  0  0  0  0  0  0  0
  -21.0690  -29.2110   22.2060 N   0  0  0  0  0  0  0  0  0  0  0  0
  -23.1220  -28.6160   22.9450 O   0  0  0  0  0  0  0  0  0  0  0  0
  -20.5520  -29.8540   21.6220 H   0  0  0  0  0  0  0  0  0  0  0  0
  -17.7030  -28.0260   22.7700 C   0  0  0  0  0  0  0  0  0  0  0  0
  -20.2760  -28.2200   22.9310 C   0  0  0  0  0  3  0  0  0  0  0  0
  -20.3200  -26.8440   22.2250 C   0  0  0  0  0  2  0  0  0  0  0  0
  -19.1620  -26.6310   21.2460 C   0  0  0  0  0  2  0  0  0  0  0  0
  -17.8170  -26.7390   21.9720 C   0  0  0  0  0  2  0  0  0  0  0  0
  -18.8570  -28.7290   23.2060 C   0  0  0  0  0  0  0  0  0  0  0  0
  -18.6950  -29.9390   23.9170 C   0  0  0  0  0  3  0  0  0  0  0  0
  -17.4120  -30.4430   24.1960 C   0  0  0  0  0  3  0  0  0  0  0  0
  -16.2730  -29.7370   23.7730 C   0  0  0  0  0  3  0  0  0  0  0  0
  -16.4190  -28.5310   23.0650 C   0  0  0  0  0  3  0  0  0  0  0  0
  -25.8100  -32.0840   23.5890 C   0  0  0  0  0  3  0  0  0  0  0  0
  -25.6190  -33.4620   24.0610 N   0  0  0  0  0  0  0  0  0  0  0  0
  -25.9670  -34.5560   23.3730 C   0  0  0  0  0  0  0  0  0  0  0  0
  -26.5540  -34.5070   22.2880 O   0  0  0  0  0  0  0  0  0  0  0  0
  -25.0940  -33.5780   24.9150 H   0  0  0  0  0  0  0  0  0  0  0  0
  -24.3320  -36.4680   23.3160 C   0  0  0  0  0  1  0  0  0  0  0  0
  -25.6040  -35.9230   23.9840 C   0  0  0  0  0  3  0  0  0  0  0  0
  -27.8480  -36.6080   24.7070 C   0  0  0  0  0  1  0  0  0  0  0  0
  -26.6900  -36.9230   23.8750 N   0  0  0  0  0  0  0  0  0  0  0  0
  -26.3540  -37.8470   24.1350 H   0  0  0  0  0  0  0  0  0  0  0  0
  -26.3770  -31.1690   24.7440 C   0  0  1  0  0  0  0  0  0  0  0  0
  -25.3630  -30.9100   25.8830 C   0  0  0  0  0  1  0  0  0  0  0  0
  -26.8260  -29.7980   24.1860 C   0  0  0  0  0  1  0  0  0  0  0  0
  -27.6290  -31.8310   25.3670 C   0  0  0  0  0  1  0  0  0  0  0  0
  1  4  2  0
  1  5  1  0
  2  6  2  0
  3  6  1  0
  4  2  1  0
  5  3  2  0
  6 55  1  0
  7  4  1  0
  8  5  1  0
  9  8  1  0
  9 10  1  0
 10 11  1  0
 10 12  1  0
 13 10  1  0
 13 14  1  0
 14 15  1  0
 16 25  1  0
 16 15  1  0
 17 25  1  0
 18 23  1  0
 19 20  1  0
 19 18  1  0
 21 20  1  0
 21 30  1  0
 21 22  1  0
 23 17  1  0
 23 22  1  0
 24 17  2  0
 25 26  1  0
 27 28  2  0
 28 47  1  0
 29 28  1  0
 29 32  1  0
 30 31  1  0
 30 27  1  0
 31 29  2  0
 32 33  1  0
 33 34  2  0
 35 38  1  0
 35 34  1  0
 36 35  2  0
 37 36  1  0
 37 32  2  0
 38 39  1  0
 39 40  1  0
 40 41  2  0
 42 41  1  0
 42 46  1  0
 43 42  2  0
 44 39  2  0
 44 43  1  0
 45 44  1  0
 47 48  1  0
 48 51  1  0
 48 50  1  0
 49 47  2  0
 52 27  1  0
 52 53  1  0
 54 52  1  0
 56 55  1  0
 56 57  1  0
 58 56  1  0
 59 56  1  0
 60 59  1  0
 61 63  1  0
 61 60  1  0
 62 73  2  0
 63 68  1  0
 64 72  1  0
 64 74  1  0
 65 71  1  0
 65 67  1  0
 66 72  1  0
 67 66  1  0
 68 67  2  0
 69 70  1  0
 69 63  2  0
 70 65  2  0
 71 64  1  0
 72 62  1  0
 74 76  2  0
 75 74  1  0
 77 75  1  0
 78 87  2  0
 78 83  1  0
 79 75  1  0
 79 83  1  0
 80 79  1  0
 81 82  1  0
 81 80  1  0
 82 78  1  0
 83 84  2  0
 84 85  1  0
 86 85  2  0
 87 86  1  0
 88 62  1  0
 88 89  1  0
 88 98  1  0
 89 92  1  0
 90 94  1  0
 90 89  1  0
 91 90  2  0
 94 93  1  0
 96 94  1  0
 96 97  1  0
 96 95  1  0
 98101  1  1
 98 99  1  0
100 98  1  0
M  ISO  4  17 100  25 100  60 101  61 101
M  END
>  <TORSDO>  (93) 
F 27

>  <SCORE>  (93) 
-10.158

>  <name>  (93) 
93

>  <ligand_id>  (93) 
93

>  <original_smiles>  (93) 
[H]c1c([H])c([H])c2c(c1[H])C([H])([H])C([H])([H])C([H])([H])C2([H])N([H])C(=O)C1([H])N(C(=O)C([H])(N([H])C(=O)C([H])(N([H])C([H])([H])[H])C([H])([H])[H])C(C([H])([H])[H])(C([H])([H])[H])C([H])([H])[H])C([H])([H])c2c([H])c(OC([H])([H])C([H])([H])[N+]([H])([H])C([H])([H])c3c([H])c(C([H])([H])[H])c([H])c(C([H])([H])C([H])([H])[N+]([H])([H])C([H])([H])C([H])([H])C([H])([H])C([H])([H])N([H])C(=O)N4C([H])([H])C([H])([H])C([H])([H])C([H])(n5nc(-c6c([H])c([H])c(Oc7c([H])c([H])c(F)c([H])c7F)c([H])c6[H])c(C(=O)N([H])[H])c5N([H])[H])C4([H])[H])c3[H])c([H])c([H])c2C1([H])[H]

>  <smiles>  (93) 
[H]c1c([H])c([H])c2c(c1[H])C([H])([H])C([H])([H])C([H])([H])C2([H])N([H])C(=O)C1([H])N(C(=O)C([H])(N([H])C(=O)C([H])(N([H])C([H])([H])[H])C([H])([H])[H])C(C([H])([H])[H])(C([H])([H])[H])C([H])([H])[H])C([H])([H])c2c([H])c(OC([H])([H])C([H])([H])[N+]([H])([H])C([H])([H])c3c([H])c(C([H])([H])[H])c([H])c(C([H])([H])C([H])([H])[N+]([H])([H])C([H])([H])C([H])([H])C([H])([H])C([H])([H])N([H])C(=O)N4C([H])([H])C([H])([H])C([H])([H])C([H])(n5nc(-c6c([H])c([H])c(Oc7c([H])c([H])c(F)c([H])c7F)c([H])c6[H])c(C(=O)N([H])[H])c5N([H])[H])C4([H])[H])c3[H])c([H])c([H])c2C1([H])[H]

$$$$
94:0:0
     RDKit          3D

 94101  0  0  1  0  0  0  0  0999 V2000
  -25.4930  -23.3680   21.3140 C   0  0  0  0  0  2  0  0  0  0  0  0
  -26.2510  -22.4840   20.3230 C   0  0  0  0  0  0  0  0  0  0  0  0
  -25.5530  -22.2640   18.9850 C   0  0  0  0  0  1  0  0  0  0  0  0
  -27.3700  -21.9600   20.6520 N   0  0  0  0  0  0  0  0  0  0  0  0
  -28.0780  -21.0980   19.7180 C   0  0  0  0  0  2  0  0  0  0  0  0
  -29.1230  -20.2710   20.4840 C   0  0  0  0  0  2  0  0  0  0  0  0
  -29.5760  -19.0160   19.7180 C   0  0  0  0  0  2  0  0  0  0  0  0
  -30.6590  -18.2420   20.4880 C   0  0  0  0  0  2  0  0  0  0  0  0
  -31.2900  -17.0910   19.6940 C   0  0  0  0  0  2  0  0  0  0  0  0
  -31.3930  -14.6470   19.7310 C   0  0  0  0  0  0  0  0  0  0  0  0
  -31.1030  -12.2510   19.2760 C   0  0  0  0  0  2  0  0  0  0  0  0
  -30.1420  -12.0730   18.0880 C   0  0  0  0  0  2  0  0  0  0  0  0
  -28.6810  -12.0380   18.5730 C   0  0  0  0  0  2  0  0  0  0  0  0
  -28.3410  -13.1990   19.5470 C   0  0  0  0  0  3  0  0  0  0  0  0
  -29.4230  -13.3550   20.6390 C   0  0  0  0  0  2  0  0  0  0  0  0
  -30.7300  -13.4890   19.9740 N   0  0  0  0  0  0  0  0  0  0  0  0
  -32.4810  -14.6940   19.1490 O   0  0  0  0  0  0  0  0  0  0  0  0
  -30.7520  -15.7760   20.0470 N   0  0  0  0  0  0  0  0  0  0  0  0
  -29.8400  -15.7110   20.4690 H   0  0  0  0  0  0  0  0  0  0  0  0
  -26.1150  -13.9900   20.5700 C   0  0  0  0  0  0  0  0  0  0  0  0
  -24.9920  -13.3060   20.9550 C   0  0  0  0  0  0  0  0  0  0  0  0
  -25.2670  -11.9270   20.7150 C   0  0  0  0  0  0  0  0  0  0  0  0
  -27.0110  -13.0300   20.1290 N   0  0  0  0  0  0  0  0  0  0  0  0
  -26.5080  -11.7760   20.2700 N   0  0  0  0  0  0  0  0  0  0  0  0
  -24.4020  -10.7470   20.8230 C   0  0  0  0  0  0  0  0  0  0  0  0
  -24.7480   -9.6500   21.6450 C   0  0  0  0  0  3  0  0  0  0  0  0
  -23.8900   -8.5340   21.7500 C   0  0  0  0  0  3  0  0  0  0  0  0
  -22.6710   -8.5070   21.0350 C   0  0  0  0  0  0  0  0  0  0  0  0
  -22.3410   -9.5880   20.2010 C   0  0  0  0  0  3  0  0  0  0  0  0
  -23.1980  -10.6960   20.0920 C   0  0  0  0  0  3  0  0  0  0  0  0
  -21.7890   -7.4530   21.0580 O   0  0  0  0  0  0  0  0  0  0  0  0
  -21.6280   -6.6700   22.1720 C   0  0  0  0  0  0  0  0  0  0  0  0
  -21.2490   -7.2150   23.4190 C   0  0  0  0  0  3  0  0  0  0  0  0
  -21.0250   -6.3660   24.5220 C   0  0  0  0  0  3  0  0  0  0  0  0
  -21.1730   -4.9740   24.3790 C   0  0  0  0  0  0  0  0  0  0  0  0
  -21.5440   -4.4290   23.1390 C   0  0  0  0  0  3  0  0  0  0  0  0
  -21.7680   -5.2740   22.0380 C   0  0  0  0  0  0  0  0  0  0  0  0
  -22.1050   -4.7400   20.8390 F   0  0  0  0  0  0  0  0  0  0  0  0
  -20.9520   -4.1590   25.4380 F   0  0  0  0  0  0  0  0  0  0  0  0
  -23.6980  -13.9050   21.4230 C   0  0  0  0  0  0  0  0  0  0  0  0
  -22.9740  -13.2060   22.2900 N   0  0  0  0  0  0  0  0  0  0  0  0
  -23.3450  -15.0230   21.0540 O   0  0  0  0  0  0  0  0  0  0  0  0
  -23.2780  -12.2970   22.6130 H   0  0  0  0  0  0  0  0  0  0  0  0
  -22.1130  -13.5900   22.6530 H   0  0  0  0  0  0  0  0  0  0  0  0
  -26.4450  -15.3410   20.5360 N   0  0  0  0  0  0  0  0  0  0  0  0
  -25.7960  -16.0700   20.8090 H   0  0  0  0  0  0  0  0  0  0  0  0
  -27.3190  -15.7060   20.1770 H   0  0  0  0  0  0  0  0  0  0  0  0
  -26.2700  -24.5930   21.8420 C   0  0  0  0  0  2  0  0  0  0  0  0
  -27.6090  -24.2570   22.3780 N   0  0  0  0  0  4  0  0  0  0  0  0
  -27.9590  -23.4420   21.8890 H   0  0  0  0  0  0  0  0  0  0  0  0
  -27.4790  -23.9700   23.3360 H   0  0  0  0  0  0  0  0  0  0  0  0
  -28.5850  -25.3790   22.3830 C   0  0  0  0  0  2  0  0  0  0  0  0
  -29.2540  -25.6450   21.0100 C   0  0  0  0  0  2  0  0  0  0  0  0
  -29.3520  -27.0450   20.7250 O   0  0  0  0  0  0  0  0  0  0  0  0
  -25.5750  -31.6890   24.5030 C   0  0  0  0  0  0  0  0  0  0  0  0
  -28.1920  -27.7840   20.7760 C   0  0  0  0  0  0  0  0  0  0  0  0
  -24.3890  -30.6700   22.5840 C   0  0  0  0  0  3  0  0  0  0  0  0
  -25.8460  -29.3470   20.9590 C   0  0  0  0  0  0  0  0  0  0  0  0
  -26.9300  -30.9440   22.5540 C   0  0  0  0  0  2  0  0  0  0  0  0
  -26.9910  -29.7130   21.6750 C   0  0  0  0  0  0  0  0  0  0  0  0
  -28.1680  -28.9420   21.5770 C   0  0  0  0  0  3  0  0  0  0  0  0
  -27.0340  -27.4270   20.0480 C   0  0  0  0  0  3  0  0  0  0  0  0
  -25.8630  -28.2020   20.1390 C   0  0  0  0  0  3  0  0  0  0  0  0
  -24.6300  -30.2310   21.1140 C   0  0  0  0  0  2  0  0  0  0  0  0
  -25.6470  -31.1010   23.2750 N   0  0  0  0  0  0  0  0  0  0  0  0
  -24.4830  -31.9130   25.0440 O   0  0  0  0  0  0  0  0  0  0  0  0
  -23.6500  -29.5280   23.3170 C   0  0  0  0  0  0  0  0  0  0  0  0
  -22.3860  -29.2900   22.9320 N   0  0  0  0  0  0  0  0  0  0  0  0
  -24.2220  -28.8600   24.1820 O   0  0  0  0  0  0  0  0  0  0  0  0
  -21.9900  -29.8810   22.2140 H   0  0  0  0  0  0  0  0  0  0  0  0
  -19.1440  -27.7520   22.5530 C   0  0  0  0  0  0  0  0  0  0  0  0
  -21.5160  -28.2410   23.4540 C   0  0  0  0  0  3  0  0  0  0  0  0
  -21.9090  -26.8590   22.8820 C   0  0  0  0  0  2  0  0  0  0  0  0
  -21.1260  -26.4860   21.6180 C   0  0  0  0  0  2  0  0  0  0  0  0
  -19.6220  -26.4630   21.9060 C   0  0  0  0  0  2  0  0  0  0  0  0
  -20.0370  -28.5950   23.2660 C   0  0  0  0  0  0  0  0  0  0  0  0
  -19.5480  -29.8010   23.8150 C   0  0  0  0  0  3  0  0  0  0  0  0
  -18.1970  -30.1650   23.6640 C   0  0  0  0  0  3  0  0  0  0  0  0
  -17.3150  -29.3190   22.9710 C   0  0  0  0  0  3  0  0  0  0  0  0
  -17.7870  -28.1150   22.4190 C   0  0  0  0  0  3  0  0  0  0  0  0
  -26.8580  -32.1270   25.2780 C   0  0  0  0  0  3  0  0  0  0  0  0
  -27.1580  -31.2310   26.5410 C   0  0  1  0  0  0  0  0  0  0  0  0
  -25.9270  -31.0090   27.4500 C   0  0  0  0  0  1  0  0  0  0  0  0
  -27.6850  -29.8420   26.1110 C   0  0  0  0  0  1  0  0  0  0  0  0
  -28.2730  -31.8840   27.3920 C   0  0  0  0  0  1  0  0  0  0  0  0
  -26.6790  -33.5320   25.6680 N   0  0  0  0  0  0  0  0  0  0  0  0
  -27.2170  -34.5740   25.0220 C   0  0  0  0  0  0  0  0  0  0  0  0
  -27.9830  -34.4460   24.0630 O   0  0  0  0  0  0  0  0  0  0  0  0
  -26.0150  -33.7140   26.4070 H   0  0  0  0  0  0  0  0  0  0  0  0
  -25.7550  -36.5760   24.6060 C   0  0  0  0  0  1  0  0  0  0  0  0
  -26.8430  -35.9850   25.5160 C   0  0  0  0  0  3  0  0  0  0  0  0
  -28.9660  -36.5480   26.6140 C   0  0  0  0  0  1  0  0  0  0  0  0
  -27.9970  -36.9090   25.5810 N   0  0  0  0  0  0  0  0  0  0  0  0
  -27.6870  -37.8620   25.7560 H   0  0  0  0  0  0  0  0  0  0  0  0
  1 48  1  0
  2  4  2  0
  2  1  1  0
  3  2  1  0
  5  6  1  0
  5  4  1  0
  7  6  1  0
  7  8  1  0
  9 18  1  0
  9  8  1  0
 10 16  1  0
 10 18  1  0
 11 16  1  0
 12 13  1  0
 12 11  1  0
 14 13  1  0
 14 23  1  0
 14 15  1  0
 16 15  1  0
 17 10  2  0
 18 19  1  0
 20 21  2  0
 21 40  1  0
 22 25  1  0
 22 21  1  0
 23 24  1  0
 23 20  1  0
 24 22  2  0
 25 26  1  0
 26 27  2  0
 28 31  1  0
 28 27  1  0
 29 28  2  0
 30 29  1  0
 30 25  2  0
 31 32  1  0
 32 33  1  0
 33 34  2  0
 35 34  1  0
 35 39  1  0
 36 35  2  0
 37 32  2  0
 37 36  1  0
 38 37  1  0
 40 41  1  0
 41 43  1  0
 41 44  1  0
 42 40  2  0
 45 20  1  0
 45 46  1  0
 47 45  1  0
 48 49  1  0
 49 52  1  0
 49 51  1  0
 50 49  1  0
 53 52  1  0
 54 56  1  0
 54 53  1  0
 55 66  2  0
 56 61  1  0
 57 65  1  0
 57 67  1  0
 58 64  1  0
 58 60  1  0
 59 65  1  0
 60 59  1  0
 61 60  2  0
 62 63  1  0
 62 56  2  0
 63 58  2  0
 64 57  1  0
 65 55  1  0
 67 69  2  0
 68 67  1  0
 70 68  1  0
 71 76  1  0
 72 68  1  0
 73 72  1  0
 74 75  1  0
 74 73  1  0
 75 71  1  0
 76 72  1  0
 76 77  2  0
 78 77  1  0
 79 78  2  0
 80 71  2  0
 80 79  1  0
 81 55  1  0
 81 86  1  0
 81 82  1  0
 82 85  1  1
 82 83  1  0
 84 82  1  0
 86 89  1  0
 87 91  1  0
 87 86  1  0
 88 87  2  0
 91 90  1  0
 91 93  1  0
 93 94  1  0
 93 92  1  0
M  ISO  4  10 100  18 100  53 101  54 101
M  END
>  <TORSDO>  (94) 
F 26

>  <SCORE>  (94) 
-8.795

>  <name>  (94) 
94

>  <ligand_id>  (94) 
94

>  <original_smiles>  (94) 
[H]c1c([H])c([H])c2c(c1[H])C([H])([H])C([H])([H])C([H])([H])C2([H])N([H])C(=O)C1([H])N(C(=O)C([H])(N([H])C(=O)C([H])(N([H])C([H])([H])[H])C([H])([H])[H])C(C([H])([H])[H])(C([H])([H])[H])C([H])([H])[H])C([H])([H])c2c([H])c(OC([H])([H])C([H])([H])[N+]([H])([H])C([H])([H])C([H])([H])C(=NC([H])([H])C([H])([H])C([H])([H])C([H])([H])C([H])([H])N([H])C(=O)N3C([H])([H])C([H])([H])C([H])([H])C([H])(n4nc(-c5c([H])c([H])c(Oc6c([H])c([H])c(F)c([H])c6F)c([H])c5[H])c(C(=O)N([H])[H])c4N([H])[H])C3([H])[H])C([H])([H])[H])c([H])c([H])c2C1([H])[H]

>  <smiles>  (94) 
[H]c1c([H])c([H])c2c(c1[H])C([H])([H])C([H])([H])C([H])([H])C2([H])N([H])C(=O)C1([H])N(C(=O)C([H])(N([H])C(=O)C([H])(N([H])C([H])([H])[H])C([H])([H])[H])C(C([H])([H])[H])(C([H])([H])[H])C([H])([H])[H])C([H])([H])c2c([H])c(OC([H])([H])C([H])([H])[N+]([H])([H])C([H])([H])C([H])([H])C(=NC([H])([H])C([H])([H])C([H])([H])C([H])([H])C([H])([H])N([H])C(=O)N3C([H])([H])C([H])([H])C([H])([H])C([H])(n4nc(-c5c([H])c([H])c(Oc6c([H])c([H])c(F)c([H])c6F)c([H])c5[H])c(C(=O)N([H])[H])c4N([H])[H])C3([H])[H])C([H])([H])[H])c([H])c([H])c2C1([H])[H]

$$$$
95:0:0
     RDKit          3D

 98107  0  0  1  0  0  0  0  0999 V2000
  -27.6850  -20.3980   19.9560 C   0  0  0  0  0  2  0  0  0  0  0  0
  -28.8250  -19.8220   20.7180 N   0  0  0  0  0  4  0  0  0  0  0  0
  -29.6980  -20.1730   20.3570 H   0  0  0  0  0  0  0  0  0  0  0  0
  -28.7450  -20.1300   21.6740 H   0  0  0  0  0  0  0  0  0  0  0  0
  -32.8670  -18.0100   20.5930 C   0  0  0  0  0  2  0  0  0  0  0  0
  -32.0520  -17.7400   21.8590 C   0  0  0  0  0  2  0  0  0  0  0  0
  -33.0510  -16.7150   19.8030 C   0  0  0  0  0  2  0  0  0  0  0  0
  -29.4930  -17.7510   22.0190 C   0  0  0  0  0  2  0  0  0  0  0  0
  -29.7010  -17.7570   19.5840 C   0  0  0  0  0  2  0  0  0  0  0  0
  -30.7460  -16.9430   21.6120 C   0  0  0  0  0  3  0  0  0  0  0  0
  -30.4880  -16.5420   20.1350 C   0  0  0  0  0  3  0  0  0  0  0  0
  -28.8690  -18.3330   20.7360 C   0  0  0  0  0  3  0  0  0  0  0  0
  -31.7320  -16.0650   19.2710 C   0  0  1  0  0  0  0  0  0  0  0  0
  -31.5240  -16.5750   17.8030 C   0  0  0  0  0  1  0  0  0  0  0  0
  -32.0690  -14.5290   19.0950 C   0  0  0  0  0  0  0  0  0  0  0  0
  -31.5230  -12.1980   18.5240 C   0  0  0  0  0  2  0  0  0  0  0  0
  -30.4810  -12.1760   17.3890 C   0  0  0  0  0  2  0  0  0  0  0  0
  -29.0590  -12.1670   17.9810 C   0  0  0  0  0  2  0  0  0  0  0  0
  -28.8660  -13.2640   19.0590 C   0  0  0  0  0  3  0  0  0  0  0  0
  -30.0390  -13.2850   20.0700 C   0  0  0  0  0  2  0  0  0  0  0  0
  -31.2860  -13.4270   19.3150 N   0  0  0  0  0  0  0  0  0  0  0  0
  -33.1690  -14.3580   18.5670 O   0  0  0  0  0  0  0  0  0  0  0  0
  -26.7220  -14.1260   20.1840 C   0  0  0  0  0  0  0  0  0  0  0  0
  -25.6160  -13.4780   20.6590 C   0  0  0  0  0  0  0  0  0  0  0  0
  -25.8550  -12.0860   20.4540 C   0  0  0  0  0  0  0  0  0  0  0  0
  -27.5770  -13.1350   19.7280 N   0  0  0  0  0  0  0  0  0  0  0  0
  -27.0670  -11.8970   19.9480 N   0  0  0  0  0  0  0  0  0  0  0  0
  -24.9790  -10.9250   20.6560 C   0  0  0  0  0  0  0  0  0  0  0  0
  -25.2990   -9.9100   21.5820 C   0  0  0  0  0  3  0  0  0  0  0  0
  -24.4330   -8.8130   21.7720 C   0  0  0  0  0  3  0  0  0  0  0  0
  -23.2300   -8.7240   21.0330 C   0  0  0  0  0  0  0  0  0  0  0  0
  -22.9260   -9.7240   20.0920 C   0  0  0  0  0  3  0  0  0  0  0  0
  -23.7930  -10.8130   19.9020 C   0  0  0  0  0  3  0  0  0  0  0  0
  -22.3390   -7.6820   21.1320 O   0  0  0  0  0  0  0  0  0  0  0  0
  -22.1170   -7.0370   22.3220 C   0  0  0  0  0  0  0  0  0  0  0  0
  -21.6840   -7.7280   23.4740 C   0  0  0  0  0  3  0  0  0  0  0  0
  -21.4000   -7.0170   24.6570 C   0  0  0  0  0  3  0  0  0  0  0  0
  -21.5390   -5.6160   24.6870 C   0  0  0  0  0  0  0  0  0  0  0  0
  -21.9680   -4.9260   23.5390 C   0  0  0  0  0  3  0  0  0  0  0  0
  -22.2520   -5.6360   22.3590 C   0  0  0  0  0  0  0  0  0  0  0  0
  -22.6420   -4.9640   21.2500 F   0  0  0  0  0  0  0  0  0  0  0  0
  -21.2610   -4.9310   25.8210 F   0  0  0  0  0  0  0  0  0  0  0  0
  -24.3620  -14.1170   21.1800 C   0  0  0  0  0  0  0  0  0  0  0  0
  -23.6930  -13.4670   22.1260 N   0  0  0  0  0  0  0  0  0  0  0  0
  -23.9940  -15.2220   20.7850 O   0  0  0  0  0  0  0  0  0  0  0  0
  -24.0090  -12.5700   22.4640 H   0  0  0  0  0  0  0  0  0  0  0  0
  -22.8530  -13.8690   22.5170 H   0  0  0  0  0  0  0  0  0  0  0  0
  -27.0610  -15.4710   20.0740 N   0  0  0  0  0  0  0  0  0  0  0  0
  -26.3710  -16.1880   20.2690 H   0  0  0  0  0  0  0  0  0  0  0  0
  -27.8290  -15.7990   19.5060 H   0  0  0  0  0  0  0  0  0  0  0  0
  -27.3970  -21.8890   20.2770 C   0  0  0  0  0  2  0  0  0  0  0  0
  -28.2740  -22.8860   19.4850 C   0  0  0  0  0  2  0  0  0  0  0  0
  -28.0130  -24.3050   19.8350 N   0  0  0  0  0  4  0  0  0  0  0  0
  -27.8710  -24.3850   20.8320 H   0  0  0  0  0  0  0  0  0  0  0  0
  -27.1590  -24.5980   19.3830 H   0  0  0  0  0  0  0  0  0  0  0  0
  -29.1120  -25.2210   19.4320 C   0  0  0  0  0  2  0  0  0  0  0  0
  -28.7830  -26.7080   19.6600 C   0  0  0  0  0  2  0  0  0  0  0  0
  -27.9900  -27.1600   18.5650 O   0  0  0  0  0  0  0  0  0  0  0  0
  -24.8410  -31.6250   23.1530 C   0  0  0  0  0  0  0  0  0  0  0  0
  -26.8990  -27.9140   18.9080 C   0  0  0  0  0  0  0  0  0  0  0  0
  -23.3850  -30.6190   21.4240 C   0  0  0  0  0  3  0  0  0  0  0  0
  -24.5870  -29.3990   19.5370 C   0  0  0  0  0  0  0  0  0  0  0  0
  -25.8740  -30.9830   20.9790 C   0  0  0  0  0  2  0  0  0  0  0  0
  -25.8260  -29.7720   20.0740 C   0  0  0  0  0  0  0  0  0  0  0  0
  -26.9870  -29.0300   19.7690 C   0  0  0  0  0  3  0  0  0  0  0  0
  -25.6530  -27.5620   18.3550 C   0  0  0  0  0  3  0  0  0  0  0  0
  -24.4930  -28.2900   18.6770 C   0  0  0  0  0  3  0  0  0  0  0  0
  -23.3920  -30.2420   19.9190 C   0  0  0  0  0  2  0  0  0  0  0  0
  -24.7260  -31.0780   21.9100 N   0  0  0  0  0  0  0  0  0  0  0  0
  -23.8480  -31.7930   23.8740 O   0  0  0  0  0  0  0  0  0  0  0  0
  -22.8160  -29.4270   22.2270 C   0  0  0  0  0  0  0  0  0  0  0  0
  -21.4860  -29.2570   22.1800 N   0  0  0  0  0  0  0  0  0  0  0  0
  -23.5650  -28.6650   22.8460 O   0  0  0  0  0  0  0  0  0  0  0  0
  -20.9420  -29.9280   21.6550 H   0  0  0  0  0  0  0  0  0  0  0  0
  -18.1730  -27.8880   22.6240 C   0  0  0  0  0  0  0  0  0  0  0  0
  -20.7330  -28.1830   22.8250 C   0  0  0  0  0  3  0  0  0  0  0  0
  -20.8450  -26.8660   22.0240 C   0  0  0  0  0  2  0  0  0  0  0  0
  -19.7060  -26.6710   21.0180 C   0  0  0  0  0  2  0  0  0  0  0  0
  -18.3530  -26.6680   21.7340 C   0  0  0  0  0  2  0  0  0  0  0  0
  -19.2910  -28.6080   23.1220 C   0  0  0  0  0  0  0  0  0  0  0  0
  -19.0700  -29.7560   23.9130 C   0  0  0  0  0  3  0  0  0  0  0  0
  -17.7620  -30.1840   24.2100 C   0  0  0  0  0  3  0  0  0  0  0  0
  -16.6590  -29.4590   23.7280 C   0  0  0  0  0  3  0  0  0  0  0  0
  -16.8660  -28.3120   22.9410 C   0  0  0  0  0  3  0  0  0  0  0  0
  -26.2220  -32.0890   23.7160 C   0  0  0  0  0  3  0  0  0  0  0  0
  -26.0340  -33.4170   24.3130 N   0  0  0  0  0  0  0  0  0  0  0  0
  -26.4030  -34.5670   23.7350 C   0  0  0  0  0  0  0  0  0  0  0  0
  -27.0140  -34.6130   22.6640 O   0  0  0  0  0  0  0  0  0  0  0  0
  -25.4910  -33.4600   25.1630 H   0  0  0  0  0  0  0  0  0  0  0  0
  -24.8030  -36.5060   23.7920 C   0  0  0  0  0  1  0  0  0  0  0  0
  -26.0350  -35.8760   24.4600 C   0  0  0  0  0  3  0  0  0  0  0  0
  -28.2560  -36.4400   25.3430 C   0  0  0  0  0  1  0  0  0  0  0  0
  -27.1400  -36.8590   24.4970 N   0  0  0  0  0  0  0  0  0  0  0  0
  -26.8100  -37.7600   24.8310 H   0  0  0  0  0  0  0  0  0  0  0  0
  -26.8340  -31.0840   24.7670 C   0  0  1  0  0  0  0  0  0  0  0  0
  -25.8570  -30.7000   25.9030 C   0  0  0  0  0  1  0  0  0  0  0  0
  -27.2880  -29.7780   24.0730 C   0  0  0  0  0  1  0  0  0  0  0  0
  -28.0980  -31.7020   25.4120 C   0  0  0  0  0  1  0  0  0  0  0  0
  1 51  1  0
  1  2  1  0
  2  4  1  0
  3  2  1  0
  5  6  1  0
  7  5  1  0
  9 12  1  0
 10  6  1  0
 10  8  1  0
 11  9  1  0
 11 10  1  0
 12  2  1  0
 12  8  1  0
 13 14  1  6
 13  7  1  0
 13 11  1  0
 15 13  1  0
 15 21  1  0
 16 21  1  0
 17 18  1  0
 17 16  1  0
 19 18  1  0
 19 26  1  0
 19 20  1  0
 21 20  1  0
 22 15  2  0
 23 24  2  0
 24 43  1  0
 25 28  1  0
 25 24  1  0
 26 27  1  0
 26 23  1  0
 27 25  2  0
 28 29  1  0
 29 30  2  0
 31 34  1  0
 31 30  1  0
 32 31  2  0
 33 32  1  0
 33 28  2  0
 34 35  1  0
 35 40  2  0
 35 36  1  0
 36 37  2  0
 37 38  1  0
 38 42  1  0
 39 38  2  0
 40 39  1  0
 41 40  1  0
 43 44  1  0
 44 46  1  0
 44 47  1  0
 45 43  2  0
 48 23  1  0
 48 49  1  0
 50 48  1  0
 52 53  1  0
 52 51  1  0
 53 54  1  0
 55 53  1  0
 56 57  1  0
 56 53  1  0
 58 60  1  0
 58 57  1  0
 59 70  2  0
 60 65  1  0
 61 69  1  0
 61 71  1  0
 62 68  1  0
 62 64  1  0
 63 69  1  0
 64 63  1  0
 65 64  2  0
 66 67  1  0
 66 60  2  0
 67 62  2  0
 68 61  1  0
 69 59  1  0
 71 73  2  0
 72 71  1  0
 74 72  1  0
 75 84  2  0
 75 80  1  0
 76 72  1  0
 76 80  1  0
 77 76  1  0
 78 79  1  0
 78 77  1  0
 79 75  1  0
 80 81  2  0
 81 82  1  0
 83 82  2  0
 84 83  1  0
 85 59  1  0
 85 86  1  0
 85 95  1  0
 86 89  1  0
 87 86  1  0
 87 91  1  0
 88 87  2  0
 91 90  1  0
 91 93  1  0
 93 94  1  0
 93 92  1  0
 95 98  1  1
 95 96  1  0
 97 95  1  0
M  ISO  4  13 100  15 100  57 101  58 101
M  END
>  <TORSDO>  (95) 
F 23

>  <SCORE>  (95) 
-8.153

>  <name>  (95) 
95

>  <ligand_id>  (95) 
95

>  <original_smiles>  (95) 
[H]c1c([H])c([H])c2c(c1[H])C([H])([H])C([H])([H])C([H])([H])C2([H])N([H])C(=O)C1([H])N(C(=O)C([H])(N([H])C(=O)C([H])(N([H])C([H])([H])[H])C([H])([H])[H])C(C([H])([H])[H])(C([H])([H])[H])C([H])([H])[H])C([H])([H])c2c([H])c(OC([H])([H])C([H])([H])[N+]([H])([H])C([H])([H])C([H])([H])C([H])([H])[N+]([H])([H])C3([H])C([H])([H])C4([H])C([H])([H])C([H])([H])C([H])([H])C(C(=O)N5C([H])([H])C([H])([H])C([H])([H])C([H])(n6nc(-c7c([H])c([H])c(Oc8c([H])c([H])c(F)c([H])c8F)c([H])c7[H])c(C(=O)N([H])[H])c6N([H])[H])C5([H])[H])(C([H])([H])[H])C4([H])C3([H])[H])c([H])c([H])c2C1([H])[H]

>  <smiles>  (95) 
[H]c1c([H])c([H])c2c(c1[H])C([H])([H])C([H])([H])C([H])([H])C2([H])N([H])C(=O)C1([H])N(C(=O)C([H])(N([H])C(=O)C([H])(N([H])C([H])([H])[H])C([H])([H])[H])C(C([H])([H])[H])(C([H])([H])[H])C([H])([H])[H])C([H])([H])c2c([H])c(OC([H])([H])C([H])([H])[N+]([H])([H])C([H])([H])C([H])([H])C([H])([H])[N+]([H])([H])C3([H])C([H])([H])C4([H])C([H])([H])C([H])([H])C([H])([H])C(C(=O)N5C([H])([H])C([H])([H])C([H])([H])C([H])(n6nc(-c7c([H])c([H])c(Oc8c([H])c([H])c(F)c([H])c8F)c([H])c7[H])c(C(=O)N([H])[H])c6N([H])[H])C5([H])[H])(C([H])([H])[H])C4([H])C3([H])[H])c([H])c([H])c2C1([H])[H]

$$$$
96:0:0
     RDKit          3D

 97105  0  0  1  0  0  0  0  0999 V2000
  -29.1920  -22.8590   15.4090 C   0  0  0  0  0  2  0  0  0  0  0  0
  -28.6810  -24.0560   17.6270 C   0  0  0  0  0  3  0  0  0  0  0  0
  -28.9620  -25.2650   18.3280 C   0  0  0  0  0  0  0  0  0  0  0  0
  -29.1970  -24.0160   16.3580 C   0  0  0  0  0  0  0  0  0  0  0  0
  -29.6520  -26.1650   17.5440 C   0  0  0  0  0  0  0  0  0  0  0  0
  -30.1400  -27.5340   17.8950 C   0  0  0  0  0  1  0  0  0  0  0  0
  -29.9850  -25.5150   15.9600 S   0  0  0  0  0  0  0  0  0  0  0  0
  -28.6030  -25.4330   19.7820 C   0  0  0  0  0  2  0  0  0  0  0  0
  -28.4970  -26.7870   20.1990 O   0  0  0  0  0  0  0  0  0  0  0  0
  -24.6310  -31.8600   23.2240 C   0  0  0  0  0  0  0  0  0  0  0  0
  -27.2850  -27.4390   20.1530 C   0  0  0  0  0  0  0  0  0  0  0  0
  -23.4230  -30.4560   21.5840 C   0  0  0  0  0  3  0  0  0  0  0  0
  -24.8760  -28.9140   20.1650 C   0  0  0  0  0  0  0  0  0  0  0  0
  -25.9450  -30.8200   21.3850 C   0  0  0  0  0  2  0  0  0  0  0  0
  -26.0290  -29.4490   20.7510 C   0  0  0  0  0  0  0  0  0  0  0  0
  -27.2300  -28.7170   20.7410 C   0  0  0  0  0  3  0  0  0  0  0  0
  -26.1150  -26.9060   19.5620 C   0  0  0  0  0  3  0  0  0  0  0  0
  -24.9120  -27.6390   19.5700 C   0  0  0  0  0  3  0  0  0  0  0  0
  -23.6320  -29.7700   20.2060 C   0  0  0  0  0  2  0  0  0  0  0  0
  -24.6840  -31.0590   22.1240 N   0  0  0  0  0  0  0  0  0  0  0  0
  -23.5490  -32.1360   23.7640 O   0  0  0  0  0  0  0  0  0  0  0  0
  -22.7730  -29.4370   22.5460 C   0  0  0  0  0  0  0  0  0  0  0  0
  -21.4490  -29.2560   22.4150 N   0  0  0  0  0  0  0  0  0  0  0  0
  -23.4540  -28.8140   23.3630 O   0  0  0  0  0  0  0  0  0  0  0  0
  -20.9620  -29.8090   21.7240 H   0  0  0  0  0  0  0  0  0  0  0  0
  -18.0720  -28.0680   22.8940 C   0  0  0  0  0  0  0  0  0  0  0  0
  -20.6280  -28.3220   23.1850 C   0  0  0  0  0  3  0  0  0  0  0  0
  -20.7320  -26.8900   22.6130 C   0  0  0  0  0  2  0  0  0  0  0  0
  -19.6350  -26.5650   21.5950 C   0  0  0  0  0  2  0  0  0  0  0  0
  -18.2500  -26.7150   22.2290 C   0  0  0  0  0  2  0  0  0  0  0  0
  -19.1890  -28.8300   23.3280 C   0  0  0  0  0  0  0  0  0  0  0  0
  -18.9670  -30.0990   23.9080 C   0  0  0  0  0  3  0  0  0  0  0  0
  -17.6620  -30.6030   24.0630 C   0  0  0  0  0  3  0  0  0  0  0  0
  -16.5600  -29.8380   23.6440 C   0  0  0  0  0  3  0  0  0  0  0  0
  -16.7660  -28.5730   23.0630 C   0  0  0  0  0  3  0  0  0  0  0  0
  -25.9190  -32.4880   23.8430 C   0  0  0  0  0  3  0  0  0  0  0  0
  -26.4350  -31.7170   25.1190 C   0  0  1  0  0  0  0  0  0  0  0  0
  -25.3460  -31.4930   26.1930 C   0  0  0  0  0  1  0  0  0  0  0  0
  -27.0050  -30.3330   24.7280 C   0  0  0  0  0  1  0  0  0  0  0  0
  -27.5910  -32.5080   25.7760 C   0  0  0  0  0  1  0  0  0  0  0  0
  -25.6160  -33.8870   24.1650 N   0  0  0  0  0  0  0  0  0  0  0  0
  -25.9590  -34.9360   23.4040 C   0  0  0  0  0  0  0  0  0  0  0  0
  -26.6370  -34.8260   22.3790 O   0  0  0  0  0  0  0  0  0  0  0  0
  -25.0110  -34.0460   24.9580 H   0  0  0  0  0  0  0  0  0  0  0  0
  -24.2410  -36.7340   23.0300 C   0  0  0  0  0  1  0  0  0  0  0  0
  -25.4740  -36.3270   23.8540 C   0  0  0  0  0  3  0  0  0  0  0  0
  -27.6060  -37.2030   24.7000 C   0  0  0  0  0  1  0  0  0  0  0  0
  -26.5130  -37.3750   23.7480 N   0  0  0  0  0  0  0  0  0  0  0  0
  -26.1100  -38.2970   23.8920 H   0  0  0  0  0  0  0  0  0  0  0  0
  -30.4550  -21.9860   15.5230 C   0  0  0  0  0  2  0  0  0  0  0  0
  -30.6710  -21.5520   16.9220 N   0  0  0  0  0  4  0  0  0  0  0  0
  -29.8370  -21.0850   17.2320 H   0  0  0  0  0  0  0  0  0  0  0  0
  -30.7950  -22.3870   17.4730 H   0  0  0  0  0  0  0  0  0  0  0  0
  -31.8300  -20.6630   17.1450 C   0  0  0  0  0  2  0  0  0  0  0  0
  -32.0550  -20.3720   18.6450 C   0  0  0  0  0  2  0  0  0  0  0  0
  -30.8790  -19.6390   19.3320 C   0  0  0  0  0  2  0  0  0  0  0  0
  -31.2000  -19.1260   20.7450 C   0  0  0  0  0  0  0  0  0  0  0  0
  -31.8830  -20.1290   21.6540 C   0  0  0  0  0  1  0  0  0  0  0  0
  -30.9350  -17.9640   21.2090 N   0  0  0  0  0  0  0  0  0  0  0  0
  -30.3160  -16.9440   20.3760 C   0  0  0  0  0  2  0  0  0  0  0  0
  -30.1560  -15.6130   21.1590 C   0  0  0  0  0  2  0  0  0  0  0  0
  -30.7370  -14.4050   20.3970 C   0  0  0  0  0  0  0  0  0  0  0  0
  -30.3460  -12.3200   19.1470 C   0  0  0  0  0  2  0  0  0  0  0  0
  -29.3880  -12.6240   17.9790 C   0  0  0  0  0  2  0  0  0  0  0  0
  -27.9180  -12.5130   18.4320 C   0  0  0  0  0  2  0  0  0  0  0  0
  -27.6350  -13.2880   19.7490 C   0  0  0  0  0  3  0  0  0  0  0  0
  -28.7070  -12.9640   20.8140 C   0  0  0  0  0  2  0  0  0  0  0  0
  -30.0240  -13.2600   20.2320 N   0  0  0  0  0  0  0  0  0  0  0  0
  -31.8430  -14.5600   19.8680 O   0  0  0  0  0  0  0  0  0  0  0  0
  -25.2450  -13.9140   20.4780 C   0  0  0  0  0  0  0  0  0  0  0  0
  -24.1720  -13.1490   20.8550 C   0  0  0  0  0  0  0  0  0  0  0  0
  -24.6220  -11.7940   20.8130 C   0  0  0  0  0  0  0  0  0  0  0  0
  -26.2820  -13.0260   20.2380 N   0  0  0  0  0  0  0  0  0  0  0  0
  -25.9090  -11.7460   20.4920 N   0  0  0  0  0  0  0  0  0  0  0  0
  -23.8870  -10.5380   21.0080 C   0  0  0  0  0  0  0  0  0  0  0  0
  -24.3270   -9.5600   21.9280 C   0  0  0  0  0  3  0  0  0  0  0  0
  -23.5940   -8.3670   22.1110 C   0  0  0  0  0  3  0  0  0  0  0  0
  -22.4060   -8.1450   21.3750 C   0  0  0  0  0  0  0  0  0  0  0  0
  -21.9850   -9.1100   20.4450 C   0  0  0  0  0  3  0  0  0  0  0  0
  -22.7180  -10.2950   20.2610 C   0  0  0  0  0  3  0  0  0  0  0  0
  -21.6440   -7.0050   21.4670 O   0  0  0  0  0  0  0  0  0  0  0  0
  -21.6160   -6.2510   22.6110 C   0  0  0  0  0  0  0  0  0  0  0  0
  -21.2290   -6.7970   23.8560 C   0  0  0  0  0  3  0  0  0  0  0  0
  -21.1460   -5.9680   24.9920 C   0  0  0  0  0  3  0  0  0  0  0  0
  -21.4410   -4.5950   24.8870 C   0  0  0  0  0  0  0  0  0  0  0  0
  -21.8180   -4.0500   23.6480 C   0  0  0  0  0  3  0  0  0  0  0  0
  -21.9020   -4.8750   22.5130 C   0  0  0  0  0  0  0  0  0  0  0  0
  -22.2490   -4.3400   21.3180 F   0  0  0  0  0  0  0  0  0  0  0  0
  -21.3530   -3.7980   25.9770 F   0  0  0  0  0  0  0  0  0  0  0  0
  -22.7830  -13.6380   21.1460 C   0  0  0  0  0  0  0  0  0  0  0  0
  -22.0590  -12.9440   22.0180 N   0  0  0  0  0  0  0  0  0  0  0  0
  -22.3480  -14.6700   20.6360 O   0  0  0  0  0  0  0  0  0  0  0  0
  -22.4280  -12.1100   22.4510 H   0  0  0  0  0  0  0  0  0  0  0  0
  -21.1270  -13.2500   22.2560 H   0  0  0  0  0  0  0  0  0  0  0  0
  -25.4180  -15.2820   20.3020 N   0  0  0  0  0  0  0  0  0  0  0  0
  -24.6580  -15.9420   20.4250 H   0  0  0  0  0  0  0  0  0  0  0  0
  -26.2720  -15.7180   19.9770 H   0  0  0  0  0  0  0  0  0  0  0  0
  1 50  1  0
  1  4  1  0
  2  3  1  0
  3  8  1  0
  4  2  2  0
  5  6  1  0
  5  3  2  0
  7  4  1  0
  7  5  1  0
  8  9  1  0
 10 21  2  0
 11  9  1  0
 11 16  1  0
 12 20  1  0
 12 22  1  0
 13 19  1  0
 13 15  1  0
 14 20  1  0
 15 14  1  0
 16 15  2  0
 17 18  1  0
 17 11  2  0
 18 13  2  0
 19 12  1  0
 20 10  1  0
 22 24  2  0
 23 22  1  0
 25 23  1  0
 26 35  2  0
 26 31  1  0
 27 23  1  0
 27 31  1  0
 28 27  1  0
 29 30  1  0
 29 28  1  0
 30 26  1  0
 31 32  2  0
 32 33  1  0
 34 33  2  0
 35 34  1  0
 36 10  1  0
 36 41  1  0
 36 37  1  0
 37 40  1  1
 37 38  1  0
 39 37  1  0
 41 44  1  0
 42 46  1  0
 42 41  1  0
 43 42  2  0
 46 45  1  0
 48 46  1  0
 48 49  1  0
 48 47  1  0
 50 51  1  0
 51 54  1  0
 51 52  1  0
 51 53  1  0
 54 55  1  0
 55 56  1  0
 56 57  1  0
 57 59  2  0
 57 58  1  0
 60 61  1  0
 60 59  1  0
 62 61  1  0
 63 68  1  0
 64 65  1  0
 64 63  1  0
 66 65  1  0
 66 73  1  0
 66 67  1  0
 68 62  1  0
 68 67  1  0
 69 62  2  0
 70 71  2  0
 71 90  1  0
 72 71  1  0
 72 75  1  0
 73 70  1  0
 73 74  1  0
 74 72  2  0
 75 76  1  0
 76 77  2  0
 78 81  1  0
 78 77  1  0
 79 78  2  0
 80 79  1  0
 80 75  2  0
 81 82  1  0
 82 83  1  0
 83 84  2  0
 85 84  1  0
 85 89  1  0
 86 85  2  0
 87 82  2  0
 87 86  1  0
 88 87  1  0
 90 91  1  0
 91 94  1  0
 91 93  1  0
 92 90  2  0
 95 96  1  0
 95 70  1  0
 97 95  1  0
M  ISO  4   8 101   9 101  61 100  62 100
M  END
>  <TORSDO>  (96) 
F 26

>  <SCORE>  (96) 
-11.483

>  <name>  (96) 
96

>  <ligand_id>  (96) 
96

>  <original_smiles>  (96) 
[H]c1c([H])c([H])c2c(c1[H])C([H])([H])C([H])([H])C([H])([H])C2([H])N([H])C(=O)C1([H])N(C(=O)C([H])(N([H])C(=O)C([H])(N([H])C([H])([H])[H])C([H])([H])[H])C(C([H])([H])[H])(C([H])([H])[H])C([H])([H])[H])C([H])([H])c2c([H])c(OC([H])([H])c3c(C([H])([H])[H])sc(C([H])([H])C([H])([H])[N+]([H])([H])C([H])([H])C([H])([H])C([H])([H])C(=NC([H])([H])C([H])([H])C(=O)N4C([H])([H])C([H])([H])C([H])([H])C([H])(n5nc(-c6c([H])c([H])c(Oc7c([H])c([H])c(F)c([H])c7F)c([H])c6[H])c(C(=O)N([H])[H])c5N([H])[H])C4([H])[H])C([H])([H])[H])c3[H])c([H])c([H])c2C1([H])[H]

>  <smiles>  (96) 
[H]c1c([H])c([H])c2c(c1[H])C([H])([H])C([H])([H])C([H])([H])C2([H])N([H])C(=O)C1([H])N(C(=O)C([H])(N([H])C(=O)C([H])(N([H])C([H])([H])[H])C([H])([H])[H])C(C([H])([H])[H])(C([H])([H])[H])C([H])([H])[H])C([H])([H])c2c([H])c(OC([H])([H])c3c(C([H])([H])[H])sc(C([H])([H])C([H])([H])[N+]([H])([H])C([H])([H])C([H])([H])C([H])([H])C(=NC([H])([H])C([H])([H])C(=O)N4C([H])([H])C([H])([H])C([H])([H])C([H])(n5nc(-c6c([H])c([H])c(Oc7c([H])c([H])c(F)c([H])c7F)c([H])c6[H])c(C(=O)N([H])[H])c5N([H])[H])C4([H])[H])C([H])([H])[H])c3[H])c([H])c([H])c2C1([H])[H]

$$$$
97:0:0
     RDKit          3D

100108  0  0  1  0  0  0  0  0999 V2000
  -23.5900  -20.1350   24.7710 C   0  0  0  0  0  2  0  0  0  0  0  0
  -24.0800  -19.3660   23.5420 C   0  0  0  0  0  2  0  0  0  0  0  0
  -23.0260  -21.5020   24.3660 C   0  0  0  0  0  2  0  0  0  0  0  0
  -24.5920  -21.6070   22.3840 C   0  0  0  0  0  2  0  0  0  0  0  0
  -25.0690  -20.1400   22.6340 C   0  0  0  0  0  3  0  0  0  0  0  0
  -24.0600  -22.3940   23.6370 C   0  0  2  0  0  0  0  0  0  0  0  0
  -25.1710  -22.7650   24.6540 C   0  0  0  0  0  1  0  0  0  0  0  0
  -25.1930  -19.3220   21.3900 N   0  0  0  0  0  4  0  0  0  0  0  0
  -24.3200  -19.3610   20.8900 H   0  0  0  0  0  0  0  0  0  0  0  0
  -25.2940  -18.3700   21.7080 H   0  0  0  0  0  0  0  0  0  0  0  0
  -26.3050  -19.5310   20.4240 C   0  0  0  0  0  2  0  0  0  0  0  0
  -26.9950  -18.1610   20.1450 C   0  0  0  0  0  2  0  0  0  0  0  0
  -28.5160  -18.1130   19.8190 C   0  0  0  0  0  2  0  0  0  0  0  0
  -29.9850  -16.0340   20.1390 C   0  0  0  0  0  0  0  0  0  0  0  0
  -30.5050  -13.6080   20.2060 C   0  0  0  0  0  2  0  0  0  0  0  0
  -29.8360  -12.8910   19.0130 C   0  0  0  0  0  2  0  0  0  0  0  0
  -28.3720  -12.5170   19.3230 C   0  0  0  0  0  2  0  0  0  0  0  0
  -27.5720  -13.7050   19.9150 C   0  0  0  0  0  3  0  0  0  0  0  0
  -28.3590  -14.3560   21.0750 C   0  0  0  0  0  2  0  0  0  0  0  0
  -29.6860  -14.7770   20.5670 N   0  0  0  0  0  0  0  0  0  0  0  0
  -30.9820  -16.3110   19.4670 O   0  0  0  0  0  0  0  0  0  0  0  0
  -29.0680  -16.9430   20.5160 N   0  0  0  0  0  0  0  0  0  0  0  0
  -28.4800  -16.5900   21.2540 H   0  0  0  0  0  0  0  0  0  0  0  0
  -25.0930  -14.0640   20.5230 C   0  0  0  0  0  0  0  0  0  0  0  0
  -24.0950  -13.1830   20.8470 C   0  0  0  0  0  0  0  0  0  0  0  0
  -24.6910  -11.8860   20.8240 C   0  0  0  0  0  0  0  0  0  0  0  0
  -26.2330  -13.2940   20.3300 N   0  0  0  0  0  0  0  0  0  0  0  0
  -25.9880  -11.9790   20.5580 N   0  0  0  0  0  0  0  0  0  0  0  0
  -24.0920  -10.5560   20.9840 C   0  0  0  0  0  0  0  0  0  0  0  0
  -24.4300   -9.7200   22.0710 C   0  0  0  0  0  3  0  0  0  0  0  0
  -23.8280   -8.4520   22.2140 C   0  0  0  0  0  3  0  0  0  0  0  0
  -22.8730   -8.0080   21.2680 C   0  0  0  0  0  0  0  0  0  0  0  0
  -22.5570   -8.8350   20.1740 C   0  0  0  0  0  3  0  0  0  0  0  0
  -23.1620  -10.0960   20.0310 C   0  0  0  0  0  3  0  0  0  0  0  0
  -22.2540   -6.7830   21.3110 O   0  0  0  0  0  0  0  0  0  0  0  0
  -21.8910   -6.2030   22.5000 C   0  0  0  0  0  0  0  0  0  0  0  0
  -21.0100   -6.8420   23.4020 C   0  0  0  0  0  3  0  0  0  0  0  0
  -20.6060   -6.1800   24.5780 C   0  0  0  0  0  3  0  0  0  0  0  0
  -21.0740   -4.8810   24.8510 C   0  0  0  0  0  0  0  0  0  0  0  0
  -21.9480   -4.2420   23.9550 C   0  0  0  0  0  3  0  0  0  0  0  0
  -22.3520   -4.9010   22.7810 C   0  0  0  0  0  0  0  0  0  0  0  0
  -23.1770   -4.2730   21.9090 F   0  0  0  0  0  0  0  0  0  0  0  0
  -20.6770   -4.2420   25.9770 F   0  0  0  0  0  0  0  0  0  0  0  0
  -22.6470  -13.5130   21.0700 C   0  0  0  0  0  0  0  0  0  0  0  0
  -21.9730  -12.7580   21.9310 N   0  0  0  0  0  0  0  0  0  0  0  0
  -22.1160  -14.4750   20.5170 O   0  0  0  0  0  0  0  0  0  0  0  0
  -22.4150  -11.9870   22.4080 H   0  0  0  0  0  0  0  0  0  0  0  0
  -21.0010  -12.9590   22.1150 H   0  0  0  0  0  0  0  0  0  0  0  0
  -25.1130  -15.4450   20.3590 N   0  0  0  0  0  0  0  0  0  0  0  0
  -24.2380  -15.9580   20.3490 H   0  0  0  0  0  0  0  0  0  0  0  0
  -25.8750  -15.9420   19.9160 H   0  0  0  0  0  0  0  0  0  0  0  0
  -23.2900  -23.6860   23.1950 C   0  0  0  0  0  2  0  0  0  0  0  0
  -24.0020  -24.7390   22.3090 C   0  0  0  0  0  2  0  0  0  0  0  0
  -24.6020  -24.2340   20.9840 C   0  0  0  0  0  2  0  0  0  0  0  0
  -25.5030  -25.2340   20.3720 N   0  0  0  0  0  4  0  0  0  0  0  0
  -26.0990  -25.6290   21.0840 H   0  0  0  0  0  0  0  0  0  0  0  0
  -24.9410  -25.9890   20.0030 H   0  0  0  0  0  0  0  0  0  0  0  0
  -26.3420  -24.6950   19.2720 C   0  0  0  0  0  2  0  0  0  0  0  0
  -27.2280  -25.7610   18.6020 C   0  0  0  0  0  2  0  0  0  0  0  0
  -26.4160  -26.6340   17.8230 O   0  0  0  0  0  0  0  0  0  0  0  0
  -25.3090  -30.3990   23.7850 C   0  0  0  0  0  0  0  0  0  0  0  0
  -25.6480  -27.5240   18.5280 C   0  0  0  0  0  0  0  0  0  0  0  0
  -23.4480  -30.3570   22.1510 C   0  0  0  0  0  3  0  0  0  0  0  0
  -24.0030  -29.3790   19.8640 C   0  0  0  0  0  0  0  0  0  0  0  0
  -25.8660  -30.0840   21.3800 C   0  0  0  0  0  2  0  0  0  0  0  0
  -25.3400  -29.2200   20.2550 C   0  0  0  0  0  0  0  0  0  0  0  0
  -26.1660  -28.2870   19.5980 C   0  0  0  0  0  3  0  0  0  0  0  0
  -24.3070  -27.7030   18.1290 C   0  0  0  0  0  3  0  0  0  0  0  0
  -23.4780  -28.6170   18.8040 C   0  0  0  0  0  3  0  0  0  0  0  0
  -23.1920  -30.4040   20.6180 C   0  0  0  0  0  2  0  0  0  0  0  0
  -24.9040  -30.2560   22.4910 N   0  0  0  0  0  0  0  0  0  0  0  0
  -24.4960  -30.6560   24.6830 O   0  0  0  0  0  0  0  0  0  0  0  0
  -22.5980  -29.2180   22.7570 C   0  0  0  0  0  0  0  0  0  0  0  0
  -21.2650  -29.3480   22.6510 N   0  0  0  0  0  0  0  0  0  0  0  0
  -23.1340  -28.2330   23.2720 O   0  0  0  0  0  0  0  0  0  0  0  0
  -20.9060  -30.1880   22.2250 H   0  0  0  0  0  0  0  0  0  0  0  0
  -17.7440  -28.5450   22.5660 C   0  0  0  0  0  0  0  0  0  0  0  0
  -20.2650  -28.3840   23.1100 C   0  0  0  0  0  3  0  0  0  0  0  0
  -20.2710  -27.1130   22.2310 C   0  0  0  0  0  2  0  0  0  0  0  0
  -19.2630  -27.1700   21.0810 C   0  0  0  0  0  2  0  0  0  0  0  0
  -17.8420  -27.3620   21.6200 C   0  0  0  0  0  2  0  0  0  0  0  0
  -18.8850  -29.0370   23.2550 C   0  0  0  0  0  0  0  0  0  0  0  0
  -18.7440  -30.1580   24.1000 C   0  0  0  0  0  3  0  0  0  0  0  0
  -17.4960  -30.7880   24.2600 C   0  0  0  0  0  3  0  0  0  0  0  0
  -16.3670  -30.2880   23.5870 C   0  0  0  0  0  3  0  0  0  0  0  0
  -16.4910  -29.1670   22.7480 C   0  0  0  0  0  3  0  0  0  0  0  0
  -26.8100  -30.2690   24.1930 C   0  0  0  0  0  3  0  0  0  0  0  0
  -27.1420  -28.9040   24.9120 C   0  0  1  0  0  0  0  0  0  0  0  0
  -26.1940  -28.5750   26.0890 C   0  0  0  0  0  1  0  0  0  0  0  0
  -27.0690  -27.7300   23.9080 C   0  0  0  0  0  1  0  0  0  0  0  0
  -28.5920  -28.9350   25.4510 C   0  0  0  0  0  1  0  0  0  0  0  0
  -27.1330  -31.4100   25.0580 N   0  0  0  0  0  0  0  0  0  0  0  0
  -27.8000  -32.5000   24.6570 C   0  0  0  0  0  0  0  0  0  0  0  0
  -28.2780  -32.6170   23.5240 O   0  0  0  0  0  0  0  0  0  0  0  0
  -26.7290  -31.4060   25.9840 H   0  0  0  0  0  0  0  0  0  0  0  0
  -26.9480  -34.7560   25.3660 C   0  0  0  0  0  1  0  0  0  0  0  0
  -27.9650  -33.6460   25.6730 C   0  0  0  0  0  3  0  0  0  0  0  0
  -30.3260  -33.2910   26.2400 C   0  0  0  0  0  1  0  0  0  0  0  0
  -29.3300  -34.2150   25.7050 N   0  0  0  0  0  0  0  0  0  0  0  0
  -29.3520  -35.0620   26.2670 H   0  0  0  0  0  0  0  0  0  0  0  0
  2  1  1  0
  3  1  1  0
  4  5  1  0
  4  6  1  0
  5  8  1  0
  5  2  1  0
  6  3  1  0
  6  7  1  1
  8 10  1  0
  9  8  1  0
 11  8  1  0
 12 11  1  0
 13 12  1  0
 13 22  1  0
 14 22  1  0
 14 20  1  0
 15 20  1  0
 16 17  1  0
 16 15  1  0
 18 17  1  0
 18 27  1  0
 18 19  1  0
 20 19  1  0
 21 14  2  0
 22 23  1  0
 24 25  2  0
 25 44  1  0
 26 25  1  0
 26 29  1  0
 27 24  1  0
 27 28  1  0
 28 26  2  0
 29 30  1  0
 30 31  2  0
 32 35  1  0
 32 31  1  0
 33 32  2  0
 34 33  1  0
 34 29  2  0
 35 36  1  0
 36 41  2  0
 36 37  1  0
 37 38  2  0
 38 39  1  0
 39 43  1  0
 40 39  2  0
 41 40  1  0
 42 41  1  0
 44 45  1  0
 45 48  1  0
 45 47  1  0
 46 44  2  0
 49 24  1  0
 50 49  1  0
 51 49  1  0
 52  6  1  0
 53 52  1  0
 54 53  1  0
 55 54  1  0
 55 56  1  0
 57 55  1  0
 58 55  1  0
 59 58  1  0
 60 62  1  0
 60 59  1  0
 61 72  2  0
 62 67  1  0
 63 71  1  0
 63 73  1  0
 64 66  1  0
 64 70  1  0
 65 71  1  0
 66 65  1  0
 67 66  2  0
 68 62  2  0
 68 69  1  0
 69 64  2  0
 70 63  1  0
 71 61  1  0
 73 75  2  0
 74 73  1  0
 76 74  1  0
 77 86  2  0
 77 82  1  0
 78 74  1  0
 78 82  1  0
 79 78  1  0
 80 81  1  0
 80 79  1  0
 81 77  1  0
 82 83  2  0
 83 84  1  0
 85 84  2  0
 86 85  1  0
 87 61  1  0
 87 88  1  0
 87 92  1  0
 88 91  1  1
 88 89  1  0
 90 88  1  0
 92 95  1  0
 93 92  1  0
 93 97  1  0
 94 93  2  0
 97 96  1  0
 97 99  1  0
 99 98  1  0
 99100  1  0
M  ISO  4  14 100  22 100  59 101  60 101
M  END
>  <TORSDO>  (97) 
F 26

>  <SCORE>  (97) 
38.633

>  <name>  (97) 
97

>  <ligand_id>  (97) 
97

>  <original_smiles>  (97) 
[H]c1c([H])c([H])c2c(c1[H])C([H])([H])C([H])([H])C([H])([H])C2([H])N([H])C(=O)C1([H])N(C(=O)C([H])(N([H])C(=O)C([H])(N([H])C([H])([H])[H])C([H])([H])[H])C(C([H])([H])[H])(C([H])([H])[H])C([H])([H])[H])C([H])([H])c2c([H])c(OC([H])([H])C([H])([H])[N+]([H])([H])C([H])([H])C([H])([H])C([H])([H])C3(C([H])([H])[H])C([H])([H])C([H])([H])C([H])([H])C([H])([N+]([H])([H])C([H])([H])C([H])([H])C([H])([H])N([H])C(=O)N4C([H])([H])C([H])([H])C([H])([H])C([H])(n5nc(-c6c([H])c([H])c(Oc7c([H])c([H])c(F)c([H])c7F)c([H])c6[H])c(C(=O)N([H])[H])c5N([H])[H])C4([H])[H])C3([H])[H])c([H])c([H])c2C1([H])[H]

>  <smiles>  (97) 
[H]c1c([H])c([H])c2c(c1[H])C([H])([H])C([H])([H])C([H])([H])C2([H])N([H])C(=O)C1([H])N(C(=O)C([H])(N([H])C(=O)C([H])(N([H])C([H])([H])[H])C([H])([H])[H])C(C([H])([H])[H])(C([H])([H])[H])C([H])([H])[H])C([H])([H])c2c([H])c(OC([H])([H])C([H])([H])[N+]([H])([H])C([H])([H])C([H])([H])C([H])([H])C3(C([H])([H])[H])C([H])([H])C([H])([H])C([H])([H])C([H])([N+]([H])([H])C([H])([H])C([H])([H])C([H])([H])N([H])C(=O)N4C([H])([H])C([H])([H])C([H])([H])C([H])(n5nc(-c6c([H])c([H])c(Oc7c([H])c([H])c(F)c([H])c7F)c([H])c6[H])c(C(=O)N([H])[H])c5N([H])[H])C4([H])[H])C3([H])[H])c([H])c([H])c2C1([H])[H]

$$$$
98:0:0
     RDKit          3D

102110  0  0  1  0  0  0  0  0999 V2000
  -30.4800  -21.6970   23.7900 N   0  0  0  0  0  4  0  0  0  0  0  0
  -31.2260  -22.3740   23.7580 H   0  0  0  0  0  0  0  0  0  0  0  0
  -29.7760  -22.0610   24.4150 H   0  0  0  0  0  0  0  0  0  0  0  0
  -28.9920  -20.3770   22.2350 C   0  0  0  0  0  1  0  0  0  0  0  0
  -29.8820  -21.6340   22.4250 C   0  0  0  0  0  3  0  0  0  0  0  0
  -28.4780  -24.2810   19.8850 C   0  0  0  0  0  2  0  0  0  0  0  0
  -29.5500  -25.5470   21.8020 C   0  0  0  0  0  2  0  0  0  0  0  0
  -28.4970  -22.9420   20.6710 C   0  0  0  0  0  2  0  0  0  0  0  0
  -30.1620  -24.1610   22.1090 C   0  0  0  0  0  2  0  0  0  0  0  0
  -28.3790  -25.5120   20.8010 C   0  0  0  0  0  3  0  0  0  0  0  0
  -29.1440  -22.9840   22.0970 C   0  0  2  0  0  0  0  0  0  0  0  0
  -28.0420  -23.2100   23.1680 C   0  0  0  0  0  1  0  0  0  0  0  0
  -28.4050  -26.7360   20.0660 O   0  0  0  0  0  0  0  0  0  0  0  0
  -24.6130  -31.8680   23.2100 C   0  0  0  0  0  0  0  0  0  0  0  0
  -27.2360  -27.4580   20.0890 C   0  0  0  0  0  0  0  0  0  0  0  0
  -23.3990  -30.4940   21.5500 C   0  0  0  0  0  3  0  0  0  0  0  0
  -24.8460  -28.9570   20.1160 C   0  0  0  0  0  0  0  0  0  0  0  0
  -25.9270  -30.8380   21.3600 C   0  0  0  0  0  2  0  0  0  0  0  0
  -26.0040  -29.4750   20.7090 C   0  0  0  0  0  0  0  0  0  0  0  0
  -27.2060  -28.7330   20.6900 C   0  0  0  0  0  3  0  0  0  0  0  0
  -26.0620  -26.9420   19.5010 C   0  0  0  0  0  3  0  0  0  0  0  0
  -24.8680  -27.6870   19.5110 C   0  0  0  0  0  3  0  0  0  0  0  0
  -23.6060  -29.8220   20.1660 C   0  0  0  0  0  2  0  0  0  0  0  0
  -24.6650  -31.0800   22.0990 N   0  0  0  0  0  0  0  0  0  0  0  0
  -23.5340  -32.1400   23.7530 O   0  0  0  0  0  0  0  0  0  0  0  0
  -22.7380  -29.4680   22.4980 C   0  0  0  0  0  0  0  0  0  0  0  0
  -21.4120  -29.3050   22.3730 N   0  0  0  0  0  0  0  0  0  0  0  0
  -23.4170  -28.8210   23.3000 O   0  0  0  0  0  0  0  0  0  0  0  0
  -20.9250  -29.8770   21.6960 H   0  0  0  0  0  0  0  0  0  0  0  0
  -18.0260  -28.1390   22.8510 C   0  0  0  0  0  0  0  0  0  0  0  0
  -20.5860  -28.3670   23.1310 C   0  0  0  0  0  3  0  0  0  0  0  0
  -20.6760  -26.9400   22.5430 C   0  0  0  0  0  2  0  0  0  0  0  0
  -19.5740  -26.6390   21.5230 C   0  0  0  0  0  2  0  0  0  0  0  0
  -18.1910  -26.7940   22.1630 C   0  0  0  0  0  2  0  0  0  0  0  0
  -19.1520  -28.8840   23.2910 C   0  0  0  0  0  0  0  0  0  0  0  0
  -18.9450  -30.1450   23.8920 C   0  0  0  0  0  3  0  0  0  0  0  0
  -17.6460  -30.6600   24.0580 C   0  0  0  0  0  3  0  0  0  0  0  0
  -16.5340  -29.9110   23.6330 C   0  0  0  0  0  3  0  0  0  0  0  0
  -16.7260  -28.6520   23.0360 C   0  0  0  0  0  3  0  0  0  0  0  0
  -25.9030  -32.4820   23.8400 C   0  0  0  0  0  3  0  0  0  0  0  0
  -26.4470  -31.6610   25.0730 C   0  0  1  0  0  0  0  0  0  0  0  0
  -25.3750  -31.3710   26.1500 C   0  0  0  0  0  1  0  0  0  0  0  0
  -27.0310  -30.3070   24.6090 C   0  0  0  0  0  1  0  0  0  0  0  0
  -27.6040  -32.4340   25.7480 C   0  0  0  0  0  1  0  0  0  0  0  0
  -25.5890  -33.8620   24.2320 N   0  0  0  0  0  0  0  0  0  0  0  0
  -25.9030  -34.9480   23.5130 C   0  0  0  0  0  0  0  0  0  0  0  0
  -26.5590  -34.8930   22.4690 O   0  0  0  0  0  0  0  0  0  0  0  0
  -25.0080  -33.9780   25.0500 H   0  0  0  0  0  0  0  0  0  0  0  0
  -24.1480  -36.7300   23.2650 C   0  0  0  0  0  1  0  0  0  0  0  0
  -25.4110  -36.3110   24.0340 C   0  0  0  0  0  3  0  0  0  0  0  0
  -27.5570  -37.1810   24.8480 C   0  0  0  0  0  1  0  0  0  0  0  0
  -26.4300  -37.3800   23.9410 N   0  0  0  0  0  0  0  0  0  0  0  0
  -26.0170  -38.2870   24.1410 H   0  0  0  0  0  0  0  0  0  0  0  0
  -31.0110  -20.4350   24.3640 C   0  0  0  0  0  2  0  0  0  0  0  0
  -31.8600  -20.6720   25.6360 C   0  0  0  0  0  2  0  0  0  0  0  0
  -33.0750  -19.7470   27.6680 C   0  0  0  0  0  1  0  0  0  0  0  0
  -32.2530  -19.3890   26.4140 C   0  0  0  0  0  3  0  0  0  0  0  0
  -32.9930  -18.4280   25.5600 N   0  0  0  0  0  4  0  0  0  0  0  0
  -32.5860  -18.4340   24.6420 H   0  0  0  0  0  0  0  0  0  0  0  0
  -33.9520  -18.7240   25.4570 H   0  0  0  0  0  0  0  0  0  0  0  0
  -32.9680  -17.0160   26.0060 C   0  0  0  0  0  2  0  0  0  0  0  0
  -33.0760  -16.0600   24.8040 C   0  0  0  0  0  2  0  0  0  0  0  0
  -31.7390  -15.8190   24.0700 C   0  0  0  0  0  2  0  0  0  0  0  0
  -31.9890  -15.3190   22.6410 C   0  0  0  0  0  2  0  0  0  0  0  0
  -30.8590  -14.2700   20.7480 C   0  0  0  0  0  0  0  0  0  0  0  0
  -30.4020  -12.2780   19.3860 C   0  0  0  0  0  2  0  0  0  0  0  0
  -29.4740  -12.5320   18.1910 C   0  0  0  0  0  2  0  0  0  0  0  0
  -28.0050  -12.3780   18.6170 C   0  0  0  0  0  2  0  0  0  0  0  0
  -27.6680  -13.2100   19.8820 C   0  0  0  0  0  3  0  0  0  0  0  0
  -28.7080  -12.9880   21.0060 C   0  0  0  0  0  2  0  0  0  0  0  0
  -30.0610  -13.2120   20.4680 N   0  0  0  0  0  0  0  0  0  0  0  0
  -31.7400  -14.6770   19.9850 O   0  0  0  0  0  0  0  0  0  0  0  0
  -30.8350  -14.6640   22.0270 N   0  0  0  0  0  0  0  0  0  0  0  0
  -30.1380  -14.2470   22.6270 H   0  0  0  0  0  0  0  0  0  0  0  0
  -25.2610  -13.8180   20.5690 C   0  0  0  0  0  0  0  0  0  0  0  0
  -24.1850  -13.0450   20.9170 C   0  0  0  0  0  0  0  0  0  0  0  0
  -24.6410  -11.6920   20.8740 C   0  0  0  0  0  0  0  0  0  0  0  0
  -26.3070  -12.9370   20.3410 N   0  0  0  0  0  0  0  0  0  0  0  0
  -25.9340  -11.6530   20.5780 N   0  0  0  0  0  0  0  0  0  0  0  0
  -23.9070  -10.4300   21.0410 C   0  0  0  0  0  0  0  0  0  0  0  0
  -24.3630   -9.4210   21.9180 C   0  0  0  0  0  3  0  0  0  0  0  0
  -23.6290   -8.2250   22.0760 C   0  0  0  0  0  3  0  0  0  0  0  0
  -22.4270   -8.0290   21.3550 C   0  0  0  0  0  0  0  0  0  0  0  0
  -21.9920   -9.0260   20.4650 C   0  0  0  0  0  3  0  0  0  0  0  0
  -22.7250  -10.2130   20.3050 C   0  0  0  0  0  3  0  0  0  0  0  0
  -21.6640   -6.8880   21.4240 O   0  0  0  0  0  0  0  0  0  0  0  0
  -21.6850   -6.0740   22.5280 C   0  0  0  0  0  0  0  0  0  0  0  0
  -21.4020   -6.5650   23.8220 C   0  0  0  0  0  3  0  0  0  0  0  0
  -21.3660   -5.6790   24.9180 C   0  0  0  0  0  3  0  0  0  0  0  0
  -21.6040   -4.3060   24.7220 C   0  0  0  0  0  0  0  0  0  0  0  0
  -21.8820   -3.8150   23.4340 C   0  0  0  0  0  3  0  0  0  0  0  0
  -21.9190   -4.6970   22.3400 C   0  0  0  0  0  0  0  0  0  0  0  0
  -22.1660   -4.2150   21.0980 F   0  0  0  0  0  0  0  0  0  0  0  0
  -21.5620   -3.4530   25.7730 F   0  0  0  0  0  0  0  0  0  0  0  0
  -22.7870  -13.5240   21.1830 C   0  0  0  0  0  0  0  0  0  0  0  0
  -22.0510  -12.8230   22.0390 N   0  0  0  0  0  0  0  0  0  0  0  0
  -22.3570  -14.5560   20.6690 O   0  0  0  0  0  0  0  0  0  0  0  0
  -22.4110  -11.9870   22.4750 H   0  0  0  0  0  0  0  0  0  0  0  0
  -21.1130  -13.1260   22.2580 H   0  0  0  0  0  0  0  0  0  0  0  0
  -25.4330  -15.1890   20.4100 N   0  0  0  0  0  0  0  0  0  0  0  0
  -24.6720  -15.8490   20.5230 H   0  0  0  0  0  0  0  0  0  0  0  0
  -26.2970  -15.6270   20.1140 H   0  0  0  0  0  0  0  0  0  0  0  0
  1 54  1  0
  1  3  1  0
  2  1  1  0
  5  4  1  0
  5  1  1  0
  6  8  1  0
  6 10  1  0
  7  9  1  0
  8 11  1  0
 10 13  1  0
 10  7  1  0
 11  9  1  0
 11  5  1  0
 11 12  1  1
 13 15  1  0
 14 25  2  0
 15 20  1  0
 16 24  1  0
 16 26  1  0
 17 23  1  0
 17 19  1  0
 18 24  1  0
 19 18  1  0
 20 19  2  0
 21 22  1  0
 21 15  2  0
 22 17  2  0
 23 16  1  0
 24 14  1  0
 26 28  2  0
 27 26  1  0
 29 27  1  0
 30 39  2  0
 30 35  1  0
 31 27  1  0
 31 35  1  0
 32 31  1  0
 33 34  1  0
 33 32  1  0
 34 30  1  0
 35 36  2  0
 36 37  1  0
 38 37  2  0
 39 38  1  0
 40 14  1  0
 40 45  1  0
 40 41  1  0
 41 44  1  1
 41 42  1  0
 43 41  1  0
 45 48  1  0
 46 50  1  0
 46 45  1  0
 47 46  2  0
 50 49  1  0
 52 50  1  0
 52 53  1  0
 52 51  1  0
 54 55  1  0
 55 57  1  0
 57 56  1  0
 58 61  1  0
 58 57  1  0
 59 58  1  0
 60 58  1  0
 62 61  1  0
 63 62  1  0
 64 63  1  0
 65 73  1  0
 66 71  1  0
 67 68  1  0
 67 66  1  0
 69 68  1  0
 69 78  1  0
 69 70  1  0
 71 65  1  0
 71 70  1  0
 72 65  2  0
 73 74  1  0
 73 64  1  0
 75 76  2  0
 76 95  1  0
 77 76  1  0
 77 80  1  0
 78 75  1  0
 78 79  1  0
 79 77  2  0
 80 81  1  0
 81 82  2  0
 83 86  1  0
 83 82  1  0
 84 83  2  0
 85 84  1  0
 85 80  2  0
 86 87  1  0
 87 88  1  0
 88 89  2  0
 90 89  1  0
 90 94  1  0
 91 90  2  0
 92 87  2  0
 92 91  1  0
 93 92  1  0
 95 96  1  0
 96 99  1  0
 96 98  1  0
 97 95  2  0
100101  1  0
100 75  1  0
102100  1  0
M  ISO  4  10 101  13 101  65 100  73 100
M  END
>  <TORSDO>  (98) 
F 26

>  <SCORE>  (98) 
40.070

>  <name>  (98) 
98

>  <ligand_id>  (98) 
98

>  <original_smiles>  (98) 
[H]c1c([H])c([H])c2c(c1[H])C([H])([H])C([H])([H])C([H])([H])C2([H])N([H])C(=O)C1([H])N(C(=O)C([H])(N([H])C(=O)C([H])(N([H])C([H])([H])[H])C([H])([H])[H])C(C([H])([H])[H])(C([H])([H])[H])C([H])([H])[H])C([H])([H])c2c([H])c(OC3([H])C([H])([H])C([H])([H])C(C([H])([H])[H])(C([H])(C([H])([H])[H])[N+]([H])([H])C([H])([H])C([H])([H])C([H])(C([H])([H])[H])[N+]([H])([H])C([H])([H])C([H])([H])C([H])([H])C([H])([H])N([H])C(=O)N4C([H])([H])C([H])([H])C([H])([H])C([H])(n5nc(-c6c([H])c([H])c(Oc7c([H])c([H])c(F)c([H])c7F)c([H])c6[H])c(C(=O)N([H])[H])c5N([H])[H])C4([H])[H])C([H])([H])C3([H])[H])c([H])c([H])c2C1([H])[H]

>  <smiles>  (98) 
[H]c1c([H])c([H])c2c(c1[H])C([H])([H])C([H])([H])C([H])([H])C2([H])N([H])C(=O)C1([H])N(C(=O)C([H])(N([H])C(=O)C([H])(N([H])C([H])([H])[H])C([H])([H])[H])C(C([H])([H])[H])(C([H])([H])[H])C([H])([H])[H])C([H])([H])c2c([H])c(OC3([H])C([H])([H])C([H])([H])C(C([H])([H])[H])(C([H])(C([H])([H])[H])[N+]([H])([H])C([H])([H])C([H])([H])C([H])(C([H])([H])[H])[N+]([H])([H])C([H])([H])C([H])([H])C([H])([H])C([H])([H])N([H])C(=O)N4C([H])([H])C([H])([H])C([H])([H])C([H])(n5nc(-c6c([H])c([H])c(Oc7c([H])c([H])c(F)c([H])c7F)c([H])c6[H])c(C(=O)N([H])[H])c5N([H])[H])C4([H])[H])C([H])([H])C3([H])[H])c([H])c([H])c2C1([H])[H]

$$$$
99:0:0
     RDKit          3D

 96105  0  0  1  0  0  0  0  0999 V2000
  -30.5030  -20.6530   22.8620 C   0  0  0  0  0  3  0  0  0  0  0  0
  -29.9790  -22.0900   20.9750 C   0  0  0  0  0  3  0  0  0  0  0  0
  -29.8110  -22.9650   23.2360 C   0  0  0  0  0  3  0  0  0  0  0  0
  -30.3950  -20.8270   21.4650 C   0  0  0  0  0  0  0  0  0  0  0  0
  -30.1970  -21.7100   23.7460 C   0  0  0  0  0  0  0  0  0  0  0  0
  -29.7190  -23.1710   21.8460 C   0  0  0  0  0  0  0  0  0  0  0  0
  -30.2980  -21.5040   25.2440 C   0  0  0  0  0  1  0  0  0  0  0  0
  -30.9860  -18.8750   18.0830 C   0  0  0  0  0  2  0  0  0  0  0  0
  -30.5230  -19.9950   19.0210 C   0  0  0  0  0  2  0  0  0  0  0  0
  -30.3760  -17.5340   18.4950 C   0  0  0  0  0  2  0  0  0  0  0  0
  -30.2000  -18.3020   20.8960 C   0  0  0  0  0  2  0  0  0  0  0  0
  -30.7980  -19.6870   20.5150 C   0  0  0  0  0  3  0  0  0  0  0  0
  -30.7490  -17.2030   19.9590 C   0  0  0  0  0  3  0  0  0  0  0  0
  -31.0110  -14.7500   20.0010 C   0  0  0  0  0  0  0  0  0  0  0  0
  -30.6420  -12.5490   18.9920 C   0  0  0  0  0  2  0  0  0  0  0  0
  -29.6650  -12.7160   17.8110 C   0  0  0  0  0  2  0  0  0  0  0  0
  -28.2070  -12.6040   18.2990 C   0  0  0  0  0  2  0  0  0  0  0  0
  -27.9130  -13.4990   19.5320 C   0  0  0  0  0  3  0  0  0  0  0  0
  -29.0100  -13.3450   20.6130 C   0  0  0  0  0  2  0  0  0  0  0  0
  -30.3140  -13.5880   19.9780 N   0  0  0  0  0  0  0  0  0  0  0  0
  -32.1500  -14.8570   19.5390 O   0  0  0  0  0  0  0  0  0  0  0  0
  -30.3080  -15.8490   20.3230 N   0  0  0  0  0  0  0  0  0  0  0  0
  -29.3690  -15.7210   20.6670 H   0  0  0  0  0  0  0  0  0  0  0  0
  -25.5740  -14.1380   20.3920 C   0  0  0  0  0  0  0  0  0  0  0  0
  -24.5040  -13.3790   20.7880 C   0  0  0  0  0  0  0  0  0  0  0  0
  -24.9260  -12.0180   20.6790 C   0  0  0  0  0  0  0  0  0  0  0  0
  -26.5800  -13.2410   20.0720 N   0  0  0  0  0  0  0  0  0  0  0  0
  -26.1970  -11.9580   20.3010 N   0  0  0  0  0  0  0  0  0  0  0  0
  -24.1750  -10.7680   20.8580 C   0  0  0  0  0  0  0  0  0  0  0  0
  -24.5930   -9.7810   21.7780 C   0  0  0  0  0  3  0  0  0  0  0  0
  -23.8460   -8.5960   21.9470 C   0  0  0  0  0  3  0  0  0  0  0  0
  -22.6660   -8.3880   21.1940 C   0  0  0  0  0  0  0  0  0  0  0  0
  -22.2650   -9.3630   20.2640 C   0  0  0  0  0  3  0  0  0  0  0  0
  -23.0140  -10.5410   20.0940 C   0  0  0  0  0  3  0  0  0  0  0  0
  -21.8900   -7.2570   21.2730 O   0  0  0  0  0  0  0  0  0  0  0  0
  -21.8090   -6.5180   22.4260 C   0  0  0  0  0  0  0  0  0  0  0  0
  -21.3290   -7.0730   23.6330 C   0  0  0  0  0  3  0  0  0  0  0  0
  -21.1960   -6.2610   24.7760 C   0  0  0  0  0  3  0  0  0  0  0  0
  -21.5310   -4.8940   24.7140 C   0  0  0  0  0  0  0  0  0  0  0  0
  -22.0010   -4.3390   23.5110 C   0  0  0  0  0  3  0  0  0  0  0  0
  -22.1370   -5.1490   22.3690 C   0  0  0  0  0  0  0  0  0  0  0  0
  -22.5710   -4.6040   21.2070 F   0  0  0  0  0  0  0  0  0  0  0  0
  -21.3950   -4.1120   25.8090 F   0  0  0  0  0  0  0  0  0  0  0  0
  -23.1370  -13.8800   21.1520 C   0  0  0  0  0  0  0  0  0  0  0  0
  -22.4380  -13.1730   22.0340 N   0  0  0  0  0  0  0  0  0  0  0  0
  -22.6980  -14.9330   20.6920 O   0  0  0  0  0  0  0  0  0  0  0  0
  -22.8080  -12.3200   22.4270 H   0  0  0  0  0  0  0  0  0  0  0  0
  -21.5230  -13.4890   22.3190 H   0  0  0  0  0  0  0  0  0  0  0  0
  -25.7660  -15.5100   20.2580 N   0  0  0  0  0  0  0  0  0  0  0  0
  -25.0260  -16.1800   20.4340 H   0  0  0  0  0  0  0  0  0  0  0  0
  -26.6090  -15.9400   19.8960 H   0  0  0  0  0  0  0  0  0  0  0  0
  -29.3620  -24.4410   21.3650 N   0  0  0  0  0  0  0  0  0  0  0  0
  -29.0670  -25.1160   22.0660 H   0  0  0  0  0  0  0  0  0  0  0  0
  -30.1520  -25.0270   20.2790 C   0  0  0  0  0  2  0  0  0  0  0  0
  -29.3010  -25.9350   19.3810 C   0  0  0  0  0  2  0  0  0  0  0  0
  -29.0090  -27.1350   20.0970 O   0  0  0  0  0  0  0  0  0  0  0  0
  -24.7890  -31.8380   23.2910 C   0  0  0  0  0  0  0  0  0  0  0  0
  -27.7600  -27.7190   20.0660 C   0  0  0  0  0  0  0  0  0  0  0  0
  -23.7000  -30.4430   21.5610 C   0  0  0  0  0  3  0  0  0  0  0  0
  -25.2700  -29.0640   20.1030 C   0  0  0  0  0  0  0  0  0  0  0  0
  -26.2010  -30.9610   21.4370 C   0  0  0  0  0  2  0  0  0  0  0  0
  -26.3790  -29.6290   20.7410 C   0  0  0  0  0  0  0  0  0  0  0  0
  -27.6190  -28.9590   20.7270 C   0  0  0  0  0  3  0  0  0  0  0  0
  -26.6250  -27.1610   19.4300 C   0  0  0  0  0  3  0  0  0  0  0  0
  -25.3860  -27.8270   19.4500 C   0  0  0  0  0  3  0  0  0  0  0  0
  -23.9760  -29.8430   20.1570 C   0  0  0  0  0  2  0  0  0  0  0  0
  -24.9130  -31.0940   22.1550 N   0  0  0  0  0  0  0  0  0  0  0  0
  -23.6830  -32.0200   23.8180 O   0  0  0  0  0  0  0  0  0  0  0  0
  -23.0960  -29.3410   22.4600 C   0  0  0  0  0  0  0  0  0  0  0  0
  -21.7910  -29.0770   22.2840 N   0  0  0  0  0  0  0  0  0  0  0  0
  -23.7980  -28.7280   23.2690 O   0  0  0  0  0  0  0  0  0  0  0  0
  -21.2840  -29.6280   21.6050 H   0  0  0  0  0  0  0  0  0  0  0  0
  -18.4930  -27.6420   22.6190 C   0  0  0  0  0  0  0  0  0  0  0  0
  -21.0170  -28.0570   22.9910 C   0  0  0  0  0  3  0  0  0  0  0  0
  -21.2360  -26.6610   22.3650 C   0  0  0  0  0  2  0  0  0  0  0  0
  -20.1910  -26.3060   21.3020 C   0  0  0  0  0  2  0  0  0  0  0  0
  -18.7820  -26.3350   21.9020 C   0  0  0  0  0  2  0  0  0  0  0  0
  -19.5440  -28.4580   23.1170 C   0  0  0  0  0  0  0  0  0  0  0  0
  -19.2220  -29.6810   23.7440 C   0  0  0  0  0  3  0  0  0  0  0  0
  -17.8820  -30.0900   23.8820 C   0  0  0  0  0  3  0  0  0  0  0  0
  -16.8450  -29.2700   23.4040 C   0  0  0  0  0  3  0  0  0  0  0  0
  -17.1530  -28.0490   22.7780 C   0  0  0  0  0  3  0  0  0  0  0  0
  -26.0230  -32.5130   23.9660 C   0  0  0  0  0  3  0  0  0  0  0  0
  -26.5130  -31.7570   25.2610 C   0  0  1  0  0  0  0  0  0  0  0  0
  -25.3860  -31.4780   26.2820 C   0  0  0  0  0  1  0  0  0  0  0  0
  -27.1620  -30.4030   24.8910 C   0  0  0  0  0  1  0  0  0  0  0  0
  -27.6060  -32.5910   25.9720 C   0  0  0  0  0  1  0  0  0  0  0  0
  -25.6520  -33.8970   24.2810 N   0  0  0  0  0  0  0  0  0  0  0  0
  -25.9720  -34.9600   23.5310 C   0  0  0  0  0  0  0  0  0  0  0  0
  -26.6840  -34.8800   22.5260 O   0  0  0  0  0  0  0  0  0  0  0  0
  -25.0250  -34.0310   25.0600 H   0  0  0  0  0  0  0  0  0  0  0  0
  -24.1860  -36.6780   23.1070 C   0  0  0  0  0  1  0  0  0  0  0  0
  -25.4130  -36.3290   23.9640 C   0  0  0  0  0  3  0  0  0  0  0  0
  -27.4760  -37.3050   24.8690 C   0  0  0  0  0  1  0  0  0  0  0  0
  -26.4060  -37.4220   23.8820 N   0  0  0  0  0  0  0  0  0  0  0  0
  -25.9580  -38.3260   24.0050 H   0  0  0  0  0  0  0  0  0  0  0  0
  1  5  1  0
  2  4  1  0
  2  6  2  0
  3  5  2  0
  4  1  2  0
  5  7  1  0
  6  3  1  0
  8 10  1  0
  8  9  1  0
  9 12  1  0
 10 13  1  0
 12 11  1  0
 12  4  1  0
 13 22  1  0
 13 11  1  0
 14 22  1  0
 15 20  1  0
 16 17  1  0
 16 15  1  0
 18 17  1  0
 18 27  1  0
 18 19  1  0
 20 14  1  0
 20 19  1  0
 21 14  2  0
 22 23  1  0
 24 25  2  0
 25 44  1  0
 26 25  1  0
 26 29  1  0
 27 28  1  0
 27 24  1  0
 28 26  2  0
 29 30  1  0
 30 31  2  0
 32 35  1  0
 32 31  1  0
 33 32  2  0
 34 33  1  0
 34 29  2  0
 35 36  1  0
 36 37  1  0
 37 38  2  0
 39 38  1  0
 39 43  1  0
 40 39  2  0
 41 36  2  0
 41 40  1  0
 42 41  1  0
 44 45  1  0
 45 48  1  0
 45 47  1  0
 46 44  2  0
 49 24  1  0
 49 50  1  0
 51 49  1  0
 52  6  1  0
 52 53  1  0
 54 52  1  0
 55 56  1  0
 55 54  1  0
 57 68  2  0
 58 56  1  0
 58 63  1  0
 59 67  1  0
 59 69  1  0
 60 66  1  0
 60 62  1  0
 61 67  1  0
 62 61  1  0
 63 62  2  0
 64 65  1  0
 64 58  2  0
 65 60  2  0
 66 59  1  0
 67 57  1  0
 69 71  2  0
 70 69  1  0
 72 70  1  0
 73 82  2  0
 73 78  1  0
 74 70  1  0
 74 78  1  0
 75 74  1  0
 76 77  1  0
 76 75  1  0
 77 73  1  0
 78 79  2  0
 79 80  1  0
 81 80  2  0
 82 81  1  0
 83 57  1  0
 83 88  1  0
 83 84  1  0
 84 87  1  1
 84 85  1  0
 86 84  1  0
 88 91  1  0
 89 93  1  0
 89 88  1  0
 90 89  2  0
 93 92  1  0
 95 93  1  0
 95 96  1  0
 95 94  1  0
M  ISO  4  14 100  22 100  55 101  56 101
M  END
>  <TORSDO>  (99) 
F 20

>  <SCORE>  (99) 
-13.302

>  <name>  (99) 
99

>  <ligand_id>  (99) 
99

>  <original_smiles>  (99) 
[H]c1c([H])c([H])c2c(c1[H])C([H])([H])C([H])([H])C([H])([H])C2([H])N([H])C(=O)C1([H])N(C(=O)C([H])(N([H])C(=O)C([H])(N([H])C([H])([H])[H])C([H])([H])[H])C(C([H])([H])[H])(C([H])([H])[H])C([H])([H])[H])C([H])([H])c2c([H])c(OC([H])([H])C([H])([H])N([H])c3c([H])c(C([H])([H])[H])c([H])c(C4([H])C([H])([H])C([H])([H])C([H])([H])C([H])(N([H])C(=O)N5C([H])([H])C([H])([H])C([H])([H])C([H])(n6nc(-c7c([H])c([H])c(Oc8c([H])c([H])c(F)c([H])c8F)c([H])c7[H])c(C(=O)N([H])[H])c6N([H])[H])C5([H])[H])C4([H])[H])c3[H])c([H])c([H])c2C1([H])[H]

>  <smiles>  (99) 
[H]c1c([H])c([H])c2c(c1[H])C([H])([H])C([H])([H])C([H])([H])C2([H])N([H])C(=O)C1([H])N(C(=O)C([H])(N([H])C(=O)C([H])(N([H])C([H])([H])[H])C([H])([H])[H])C(C([H])([H])[H])(C([H])([H])[H])C([H])([H])[H])C([H])([H])c2c([H])c(OC([H])([H])C([H])([H])N([H])c3c([H])c(C([H])([H])[H])c([H])c(C4([H])C([H])([H])C([H])([H])C([H])([H])C([H])(N([H])C(=O)N5C([H])([H])C([H])([H])C([H])([H])C([H])(n6nc(-c7c([H])c([H])c(Oc8c([H])c([H])c(F)c([H])c8F)c([H])c7[H])c(C(=O)N([H])[H])c6N([H])[H])C5([H])[H])C4([H])[H])c3[H])c([H])c([H])c2C1([H])[H]

$$$$
