0:0:0
     RDKit          3D

 98106  0  0  1  0  0  0  0  0999 V2000
  -28.9720  -24.0960   19.9410 C   0  0  0  0  0  3  0  0  0  0  0  0
  -27.3290  -22.6500   18.8690 C   0  0  0  0  0  3  0  0  0  0  0  0
  -26.8110  -24.9940   19.2650 C   0  0  0  0  0  3  0  0  0  0  0  0
  -28.6070  -22.8200   19.4550 C   0  0  0  0  0  0  0  0  0  0  0  0
  -28.0760  -25.1810   19.8560 C   0  0  0  0  0  0  0  0  0  0  0  0
  -26.4340  -23.7330   18.7550 C   0  0  0  0  0  0  0  0  0  0  0  0
  -25.1990  -23.5280   18.1220 N   0  0  0  0  0  0  0  0  0  0  0  0
  -25.0190  -22.6200   17.7040 H   0  0  0  0  0  0  0  0  0  0  0  0
  -24.5130  -24.6770   17.5400 C   0  0  0  0  0  2  0  0  0  0  0  0
  -23.3230  -24.2800   16.6490 C   0  0  0  0  0  2  0  0  0  0  0  0
  -20.9060  -23.5910   16.3670 C   0  0  0  0  0  1  0  0  0  0  0  0
  -21.4630  -25.3060   18.1150 C   0  0  0  0  0  1  0  0  0  0  0  0
  -21.9730  -24.0620   17.3680 C   0  0  0  0  0  3  0  0  0  0  0  0
  -29.6050  -21.6690   19.5830 C   0  0  0  0  0  2  0  0  0  0  0  0
  -29.9490  -20.9360   18.2690 C   0  0  0  0  0  2  0  0  0  0  0  0
  -31.4460  -20.6060   18.1290 C   0  0  0  0  0  2  0  0  0  0  0  0
  -31.7710  -19.8890   16.8060 C   0  0  0  0  0  2  0  0  0  0  0  0
  -33.1120  -20.3140   16.1860 C   0  0  0  0  0  2  0  0  0  0  0  0
  -33.0630  -19.0520   14.0290 C   0  0  0  0  0  0  0  0  0  0  0  0
  -32.8770  -17.4040   12.2050 C   0  0  0  0  0  2  0  0  0  0  0  0
  -31.8180  -16.3370   12.5460 C   0  0  0  0  0  2  0  0  0  0  0  0
  -32.4380  -15.1930   13.3690 C   0  0  0  0  0  2  0  0  0  0  0  0
  -33.2640  -15.7090   14.5770 C   0  0  0  0  0  3  0  0  0  0  0  0
  -34.2410  -16.8220   14.1370 C   0  0  0  0  0  2  0  0  0  0  0  0
  -33.4690  -17.8850   13.4620 N   0  0  0  0  0  0  0  0  0  0  0  0
  -32.2610  -19.8240   13.4990 O   0  0  0  0  0  0  0  0  0  0  0  0
  -33.5750  -19.3000   15.2400 N   0  0  0  0  0  0  0  0  0  0  0  0
  -34.2740  -18.6480   15.5630 H   0  0  0  0  0  0  0  0  0  0  0  0
  -33.8120  -14.1390   16.5480 C   0  0  0  0  0  0  0  0  0  0  0  0
  -34.6500  -13.0590   16.6500 C   0  0  0  0  0  0  0  0  0  0  0  0
  -35.2770  -12.9240   15.3740 C   0  0  0  0  0  0  0  0  0  0  0  0
  -33.9600  -14.6130   15.2530 N   0  0  0  0  0  0  0  0  0  0  0  0
  -34.8900  -13.9010   14.5650 N   0  0  0  0  0  0  0  0  0  0  0  0
  -36.1800  -11.8860   14.8590 C   0  0  0  0  0  0  0  0  0  0  0  0
  -37.4530  -12.2080   14.3340 C   0  0  0  0  0  3  0  0  0  0  0  0
  -38.3090  -11.1910   13.8620 C   0  0  0  0  0  3  0  0  0  0  0  0
  -37.9000   -9.8370   13.9140 C   0  0  0  0  0  0  0  0  0  0  0  0
  -36.6230   -9.5250   14.4150 C   0  0  0  0  0  3  0  0  0  0  0  0
  -35.7700  -10.5390   14.8800 C   0  0  0  0  0  3  0  0  0  0  0  0
  -38.6550   -8.7850   13.4550 O   0  0  0  0  0  0  0  0  0  0  0  0
  -40.0250   -8.8410   13.4260 C   0  0  0  0  0  0  0  0  0  0  0  0
  -40.7890   -9.0440   14.5960 C   0  0  0  0  0  3  0  0  0  0  0  0
  -42.1960   -9.0250   14.5330 C   0  0  0  0  0  3  0  0  0  0  0  0
  -42.8430   -8.7960   13.3030 C   0  0  0  0  0  0  0  0  0  0  0  0
  -42.0850   -8.5880   12.1380 C   0  0  0  0  0  3  0  0  0  0  0  0
  -40.6800   -8.6070   12.1990 C   0  0  0  0  0  0  0  0  0  0  0  0
  -39.9550   -8.3850   11.0770 F   0  0  0  0  0  0  0  0  0  0  0  0
  -44.1940   -8.7680   13.2420 F   0  0  0  0  0  0  0  0  0  0  0  0
  -34.7900  -12.1440   17.8330 C   0  0  0  0  0  0  0  0  0  0  0  0
  -35.9980  -11.6540   18.0890 N   0  0  0  0  0  0  0  0  0  0  0  0
  -33.8340  -11.8950   18.5670 O   0  0  0  0  0  0  0  0  0  0  0  0
  -36.7860  -11.8720   17.4990 H   0  0  0  0  0  0  0  0  0  0  0  0
  -36.1340  -11.0480   18.8850 H   0  0  0  0  0  0  0  0  0  0  0  0
  -32.9280  -14.7410   17.4380 N   0  0  0  0  0  0  0  0  0  0  0  0
  -32.7640  -14.3700   18.3680 H   0  0  0  0  0  0  0  0  0  0  0  0
  -32.3300  -15.5260   17.2140 H   0  0  0  0  0  0  0  0  0  0  0  0
  -28.4860  -26.5650   20.3360 C   0  0  0  0  0  2  0  0  0  0  0  0
  -28.7940  -26.6310   21.7230 O   0  0  0  0  0  0  0  0  0  0  0  0
  -27.8830  -31.7290   26.5620 C   0  0  0  0  0  0  0  0  0  0  0  0
  -27.8910  -27.2650   22.5440 C   0  0  0  0  0  0  0  0  0  0  0  0
  -25.9560  -30.2060   26.2470 C   0  0  0  0  0  3  0  0  0  0  0  0
  -26.0920  -28.6510   24.2260 C   0  0  0  0  0  0  0  0  0  0  0  0
  -27.5920  -30.6490   24.3380 C   0  0  0  0  0  2  0  0  0  0  0  0
  -27.2980  -29.2510   23.8430 C   0  0  0  0  0  0  0  0  0  0  0  0
  -28.2030  -28.5570   23.0130 C   0  0  0  0  0  3  0  0  0  0  0  0
  -26.6750  -26.6650   22.9420 C   0  0  0  0  0  3  0  0  0  0  0  0
  -25.7770  -27.3540   23.7830 C   0  0  0  0  0  3  0  0  0  0  0  0
  -25.1820  -29.4590   25.1260 C   0  0  0  0  0  2  0  0  0  0  0  0
  -27.1980  -30.8790   25.7450 N   0  0  0  0  0  0  0  0  0  0  0  0
  -27.4730  -31.9930   27.7000 O   0  0  0  0  0  0  0  0  0  0  0  0
  -26.2230  -29.2140   27.4010 C   0  0  0  0  0  0  0  0  0  0  0  0
  -25.4470  -29.3430   28.4890 N   0  0  0  0  0  0  0  0  0  0  0  0
  -27.0850  -28.3380   27.2960 O   0  0  0  0  0  0  0  0  0  0  0  0
  -24.7730  -30.0960   28.5050 H   0  0  0  0  0  0  0  0  0  0  0  0
  -24.3920  -29.1170   31.9350 C   0  0  0  0  0  0  0  0  0  0  0  0
  -25.4870  -28.4950   29.6800 C   0  0  0  0  0  3  0  0  0  0  0  0
  -24.4350  -27.3640   29.5960 C   0  0  0  0  0  2  0  0  0  0  0  0
  -23.1020  -27.7320   30.2550 C   0  0  0  0  0  2  0  0  0  0  0  0
  -23.3090  -28.0700   31.7350 C   0  0  0  0  0  2  0  0  0  0  0  0
  -25.4050  -29.3270   30.9630 C   0  0  0  0  0  0  0  0  0  0  0  0
  -26.3640  -30.3400   31.1830 C   0  0  0  0  0  3  0  0  0  0  0  0
  -26.3250  -31.1280   32.3470 C   0  0  0  0  0  3  0  0  0  0  0  0
  -25.3300  -30.9030   33.3130 C   0  0  0  0  0  3  0  0  0  0  0  0
  -24.3690  -29.8980   33.1090 C   0  0  0  0  0  3  0  0  0  0  0  0
  -29.1990  -32.4300   26.0980 C   0  0  0  0  0  3  0  0  0  0  0  0
  -30.4880  -31.8800   26.8230 C   0  0  1  0  0  0  0  0  0  0  0  0
  -30.3100  -31.6860   28.3460 C   0  0  0  0  0  1  0  0  0  0  0  0
  -30.9110  -30.5190   26.2210 C   0  0  0  0  0  1  0  0  0  0  0  0
  -31.6710  -32.8510   26.5960 C   0  0  0  0  0  1  0  0  0  0  0  0
  -29.0390  -33.8700   26.3390 N   0  0  0  0  0  0  0  0  0  0  0  0
  -28.8730  -34.7870   25.3770 C   0  0  0  0  0  0  0  0  0  0  0  0
  -28.9080  -34.5110   24.1740 O   0  0  0  0  0  0  0  0  0  0  0  0
  -28.9440  -34.1600   27.3010 H   0  0  0  0  0  0  0  0  0  0  0  0
  -27.1350  -36.5810   25.6740 C   0  0  0  0  0  1  0  0  0  0  0  0
  -28.6270  -36.2420   25.8190 C   0  0  0  0  0  3  0  0  0  0  0  0
  -30.8630  -37.1600   25.3870 C   0  0  0  0  0  1  0  0  0  0  0  0
  -29.4370  -37.2290   25.0750 N   0  0  0  0  0  0  0  0  0  0  0  0
  -29.1180  -38.1750   25.2640 H   0  0  0  0  0  0  0  0  0  0  0  0
  2  4  1  0
  3  5  2  0
  4 14  1  0
  4  1  2  0
  5  1  1  0
  5 57  1  0
  6  2  2  0
  6  3  1  0
  7  6  1  0
  8  7  1  0
  9  7  1  0
 10 13  1  0
 10  9  1  0
 11 13  1  0
 13 12  1  0
 15 14  1  0
 16 15  1  0
 17 16  1  0
 18 17  1  0
 19 27  1  0
 20 21  1  0
 20 25  1  0
 21 22  1  0
 23 22  1  0
 23 32  1  0
 24 23  1  0
 25 19  1  0
 25 24  1  0
 26 19  2  0
 27 28  1  0
 27 18  1  0
 29 30  2  0
 29 54  1  0
 30 49  1  0
 31 30  1  0
 32 29  1  0
 33 32  1  0
 33 31  2  0
 34 39  1  0
 34 31  1  0
 35 34  2  0
 36 37  2  0
 36 35  1  0
 37 38  1  0
 38 39  2  0
 40 37  1  0
 41 40  1  0
 41 42  1  0
 43 42  2  0
 44 43  1  0
 45 46  1  0
 45 44  2  0
 46 41  2  0
 47 46  1  0
 48 44  1  0
 49 50  1  0
 49 51  2  0
 50 53  1  0
 52 50  1  0
 54 55  1  0
 56 54  1  0
 57 58  1  0
 58 60  1  0
 59 70  2  0
 60 66  2  0
 60 65  1  0
 61 71  1  0
 62 68  1  0
 63 69  1  0
 64 62  1  0
 64 63  1  0
 65 64  2  0
 66 67  1  0
 67 62  2  0
 68 61  1  0
 69 61  1  0
 69 59  1  0
 71 72  1  0
 72 74  1  0
 73 71  2  0
 75 84  1  0
 76 72  1  0
 76 80  1  0
 77 76  1  0
 77 78  1  0
 78 79  1  0
 79 75  1  0
 80 81  1  0
 80 75  2  0
 81 82  2  0
 82 83  1  0
 84 83  2  0
 85 90  1  0
 85 59  1  0
 85 86  1  0
 86 87  1  1
 88 86  1  0
 89 86  1  0
 90 93  1  0
 91 95  1  0
 91 90  1  0
 92 91  2  0
 95 94  1  0
 97 98  1  0
 97 96  1  0
 97 95  1  0
M  ISO  4  19 100  27 100  57 101  58 101
M  END
>  <TORSDO>  (1) 
F 26

>  <SCORE>  (1) 
-4.283

>  <name>  (1) 
0

>  <ligand_id>  (1) 
0

>  <original_smiles>  (1) 
[H]c1c([H])c([H])c2c(c1[H])C([H])([H])C([H])([H])C([H])([H])C2([H])N([H])C(=O)C1([H])N(C(=O)C([H])(N([H])C(=O)C([H])(N([H])C([H])([H])[H])C([H])([H])[H])C(C([H])([H])[H])(C([H])([H])[H])C([H])([H])[H])C([H])([H])c2c([H])c(OC([H])([H])c3c([H])c(N([H])C([H])([H])C([H])([H])C([H])(C([H])([H])[H])C([H])([H])[H])c([H])c(C([H])([H])C([H])([H])C([H])([H])C([H])([H])C([H])([H])N([H])C(=O)N4C([H])([H])C([H])([H])C([H])([H])C([H])(n5nc(-c6c([H])c([H])c(Oc7c([H])c([H])c(F)c([H])c7F)c([H])c6[H])c(C(=O)N([H])[H])c5N([H])[H])C4([H])[H])c3[H])c([H])c([H])c2C1([H])[H]

>  <smiles>  (1) 
[H]c1c([H])c([H])c2c(c1[H])C([H])([H])C([H])([H])C([H])([H])C2([H])N([H])C(=O)C1([H])N(C(=O)C([H])(N([H])C(=O)C([H])(N([H])C([H])([H])[H])C([H])([H])[H])C(C([H])([H])[H])(C([H])([H])[H])C([H])([H])[H])C([H])([H])c2c([H])c(OC([H])([H])c3c([H])c(N([H])C([H])([H])C([H])([H])C([H])(C([H])([H])[H])C([H])([H])[H])c([H])c(C([H])([H])C([H])([H])C([H])([H])C([H])([H])C([H])([H])N([H])C(=O)N4C([H])([H])C([H])([H])C([H])([H])C([H])(n5nc(-c6c([H])c([H])c(Oc7c([H])c([H])c(F)c([H])c7F)c([H])c6[H])c(C(=O)N([H])[H])c5N([H])[H])C4([H])[H])c3[H])c([H])c([H])c2C1([H])[H]

$$$$
1:0:0
     RDKit          3D

 98106  0  0  1  0  0  0  0  0999 V2000
  -30.2900  -20.7330   22.0220 N   0  0  0  0  0  4  0  0  0  0  0  0
  -30.3150  -20.3660   21.0870 H   0  0  0  0  0  0  0  0  0  0  0  0
  -31.1170  -21.2910   22.1610 H   0  0  0  0  0  0  0  0  0  0  0  0
  -30.3210  -19.5780   22.9430 C   0  0  0  0  0  2  0  0  0  0  0  0
  -31.0660  -15.8530   22.5170 C   0  0  0  0  0  3  0  0  0  0  0  0
  -31.0880  -17.1730   22.9940 C   0  0  0  0  0  3  0  0  0  0  0  0
  -30.0780  -18.0160   20.9310 C   0  0  0  0  0  3  0  0  0  0  0  0
  -30.5210  -15.5360   21.2530 C   0  0  0  0  0  3  0  0  0  0  0  0
  -30.0570  -16.7350   20.3360 C   0  0  0  0  0  0  0  0  0  0  0  0
  -30.5440  -18.2350   22.2480 C   0  0  0  0  0  0  0  0  0  0  0  0
  -29.2190  -16.6750   18.7810 C   0  0  0  0  0  2  0  0  0  0  0  0
  -28.4760  -15.1580   18.0380 C   0  0  0  0  0  1  0  0  0  0  0  0
  -28.9930  -12.8520   19.6830 C   0  0  0  0  0  3  0  0  0  0  0  0
  -30.3930  -13.7850   20.7990 C   0  0  0  0  0  2  0  0  0  0  0  0
  -31.1020  -12.8210   21.7700 C   0  0  0  0  0  1  0  0  0  0  0  0
  -31.2410  -14.2730   19.7610 C   0  0  0  0  0  0  0  0  0  0  0  0
  -30.7980  -12.8400   17.9310 C   0  0  0  0  0  3  0  0  0  0  0  0
  -29.5200  -11.6840   17.4040 C   0  0  0  0  0  3  0  0  0  0  0  0
  -27.8560  -11.6400   18.0740 C   0  0  0  0  0  2  0  0  0  0  0  0
  -27.1900  -12.8970   19.1450 C   0  0  2  0  0  0  0  0  0  0  0  0
  -28.2320  -14.1100   19.8730 C   0  0  0  0  0  2  0  0  0  0  0  0
  -30.3130  -14.0440   19.0660 N   0  0  0  0  0  0  0  0  0  0  0  0
  -32.3190  -14.7600   19.4680 O   0  0  0  0  0  0  0  0  0  0  0  0
  -25.1900  -13.5950   20.3200 C   0  0  0  0  0  0  0  0  0  0  0  0
  -24.1790  -12.8410   20.7930 C   0  0  0  0  0  0  0  0  0  0  0  0
  -24.6100  -11.4810   20.6830 C   0  0  0  0  0  0  0  0  0  0  0  0
  -26.1070  -12.6470   19.9280 N   0  0  0  0  0  0  0  0  0  0  0  0
  -25.8300  -11.3870   20.2140 N   0  0  0  0  0  0  0  0  0  0  0  0
  -23.9160  -10.2380   20.9100 C   0  0  0  0  0  0  0  0  0  0  0  0
  -24.4070   -9.3000   21.8410 C   0  0  0  0  0  3  0  0  0  0  0  0
  -23.6970   -8.1080   22.0660 C   0  0  0  0  0  3  0  0  0  0  0  0
  -22.4960   -7.8610   21.3590 C   0  0  0  0  0  0  0  0  0  0  0  0
  -22.0440   -8.7860   20.4020 C   0  0  0  0  0  3  0  0  0  0  0  0
  -22.7540   -9.9690   20.1700 C   0  0  0  0  0  3  0  0  0  0  0  0
  -21.7390   -6.7300   21.5130 O   0  0  0  0  0  0  0  0  0  0  0  0
  -21.6580   -6.0940   22.7220 C   0  0  0  0  0  0  0  0  0  0  0  0
  -21.1880   -6.7450   23.8840 C   0  0  0  0  0  3  0  0  0  0  0  0
  -21.0580   -6.0240   25.0880 C   0  0  0  0  0  3  0  0  0  0  0  0
  -21.3870   -4.6560   25.1270 C   0  0  0  0  0  0  0  0  0  0  0  0
  -21.8530   -4.0070   23.9700 C   0  0  0  0  0  3  0  0  0  0  0  0
  -21.9870   -4.7260   22.7690 C   0  0  0  0  0  0  0  0  0  0  0  0
  -22.4180   -4.0960   21.6490 F   0  0  0  0  0  0  0  0  0  0  0  0
  -21.2500   -3.9580   26.2780 F   0  0  0  0  0  0  0  0  0  0  0  0
  -22.8460  -13.3580   21.1990 C   0  0  0  0  0  0  0  0  0  0  0  0
  -22.2140  -12.6840   22.1480 N   0  0  0  0  0  0  0  0  0  0  0  0
  -22.3920  -14.3940   20.7140 O   0  0  0  0  0  0  0  0  0  0  0  0
  -22.6150  -11.8510   22.5500 H   0  0  0  0  0  0  0  0  0  0  0  0
  -21.3180  -13.0080   22.4810 H   0  0  0  0  0  0  0  0  0  0  0  0
  -25.3690  -14.9690   20.1110 N   0  0  0  0  0  0  0  0  0  0  0  0
  -24.6420  -15.6430   20.3280 H   0  0  0  0  0  0  0  0  0  0  0  0
  -26.1820  -15.3840   19.6780 H   0  0  0  0  0  0  0  0  0  0  0  0
  -29.0800  -21.5710   22.1800 C   0  0  0  0  0  2  0  0  0  0  0  0
  -28.8800  -22.5880   21.0370 C   0  0  0  0  0  2  0  0  0  0  0  0
  -29.3080  -23.9400   21.3950 N   0  0  0  0  0  0  0  0  0  0  0  0
  -30.3250  -24.0030   21.4230 H   0  0  0  0  0  0  0  0  0  0  0  0
  -28.7950  -24.8680   20.3890 C   0  0  0  0  0  2  0  0  0  0  0  0
  -28.9480  -26.3400   20.7990 C   0  0  0  0  0  2  0  0  0  0  0  0
  -28.5300  -27.1250   19.6880 O   0  0  0  0  0  0  0  0  0  0  0  0
  -24.4740  -31.8100   23.1640 C   0  0  0  0  0  0  0  0  0  0  0  0
  -27.3010  -27.7190   19.8190 C   0  0  0  0  0  0  0  0  0  0  0  0
  -23.2980  -30.3930   21.5070 C   0  0  0  0  0  3  0  0  0  0  0  0
  -24.7990  -29.0120   19.9750 C   0  0  0  0  0  0  0  0  0  0  0  0
  -25.7770  -30.9410   21.2350 C   0  0  0  0  0  2  0  0  0  0  0  0
  -25.9330  -29.6040   20.5460 C   0  0  0  0  0  0  0  0  0  0  0  0
  -27.1850  -28.9610   20.4730 C   0  0  0  0  0  3  0  0  0  0  0  0
  -26.1580  -27.1260   19.2460 C   0  0  0  0  0  3  0  0  0  0  0  0
  -24.9030  -27.7660   19.3270 C   0  0  0  0  0  3  0  0  0  0  0  0
  -23.5010  -29.7780   20.0950 C   0  0  0  0  0  2  0  0  0  0  0  0
  -24.5340  -31.0620   22.0260 N   0  0  0  0  0  0  0  0  0  0  0  0
  -23.4010  -31.9880   23.7560 O   0  0  0  0  0  0  0  0  0  0  0  0
  -22.7550  -29.2950   22.4490 C   0  0  0  0  0  0  0  0  0  0  0  0
  -21.4670  -28.9530   22.2880 N   0  0  0  0  0  0  0  0  0  0  0  0
  -23.4910  -28.7520   23.2770 O   0  0  0  0  0  0  0  0  0  0  0  0
  -20.9290  -29.4500   21.5920 H   0  0  0  0  0  0  0  0  0  0  0  0
  -18.2860  -27.2720   22.6080 C   0  0  0  0  0  0  0  0  0  0  0  0
  -20.7530  -27.9180   23.0340 C   0  0  0  0  0  3  0  0  0  0  0  0
  -21.1060  -26.5080   22.5070 C   0  0  0  0  0  2  0  0  0  0  0  0
  -20.1360  -26.0020   21.4360 C   0  0  0  0  0  2  0  0  0  0  0  0
  -18.7070  -25.9510   21.9870 C   0  0  0  0  0  2  0  0  0  0  0  0
  -19.2470  -28.2030   23.0850 C   0  0  0  0  0  0  0  0  0  0  0  0
  -18.8040  -29.4310   23.6210 C   0  0  0  0  0  3  0  0  0  0  0  0
  -17.4320  -29.7340   23.6880 C   0  0  0  0  0  3  0  0  0  0  0  0
  -16.4840  -28.8030   23.2290 C   0  0  0  0  0  3  0  0  0  0  0  0
  -16.9120  -27.5740   22.6960 C   0  0  0  0  0  3  0  0  0  0  0  0
  -25.7420  -32.4980   23.7600 C   0  0  0  0  0  3  0  0  0  0  0  0
  -25.3750  -33.8780   24.1050 N   0  0  0  0  0  0  0  0  0  0  0  0
  -25.6500  -34.9490   23.3480 C   0  0  0  0  0  0  0  0  0  0  0  0
  -26.3110  -34.8830   22.3080 O   0  0  0  0  0  0  0  0  0  0  0  0
  -24.7860  -34.0000   24.9150 H   0  0  0  0  0  0  0  0  0  0  0  0
  -23.8270  -36.6510   23.0350 C   0  0  0  0  0  1  0  0  0  0  0  0
  -25.1030  -36.3090   23.8210 C   0  0  0  0  0  3  0  0  0  0  0  0
  -27.2060  -37.2980   24.6150 C   0  0  0  0  0  1  0  0  0  0  0  0
  -26.0790  -37.4130   23.6910 N   0  0  0  0  0  0  0  0  0  0  0  0
  -25.6300  -38.3110   23.8500 H   0  0  0  0  0  0  0  0  0  0  0  0
  -26.3300  -31.7440   25.0150 C   0  0  1  0  0  0  0  0  0  0  0  0
  -25.2750  -31.4300   26.1010 C   0  0  0  0  0  1  0  0  0  0  0  0
  -26.9840  -30.4070   24.5930 C   0  0  0  0  0  1  0  0  0  0  0  0
  -27.4460  -32.5960   25.6650 C   0  0  0  0  0  1  0  0  0  0  0  0
  1  3  1  0
  1 52  1  0
  1  4  1  0
  2  1  1  0
  5  6  1  0
  7 10  1  0
  8  5  2  0
  9  7  2  0
  9  8  1  0
 10  4  1  0
 10  6  2  0
 11  9  1  0
 12 11  1  0
 13 21  1  0
 14 15  1  0
 16 14  1  0
 17 22  1  0
 18 17  2  0
 18 19  1  0
 20 19  1  0
 20 13  1  0
 20 21  1  0
 20 27  1  1
 22 13  1  0
 22 16  1  0
 23 16  2  0
 24 25  2  0
 25 44  1  0
 26 25  1  0
 26 29  1  0
 27 28  1  0
 27 24  1  0
 28 26  2  0
 29 30  1  0
 30 31  2  0
 32 35  1  0
 32 31  1  0
 33 32  2  0
 34 33  1  0
 34 29  2  0
 35 36  1  0
 36 41  2  0
 36 37  1  0
 37 38  2  0
 38 39  1  0
 39 43  1  0
 40 39  2  0
 41 40  1  0
 42 41  1  0
 44 45  1  0
 45 48  1  0
 45 47  1  0
 46 44  2  0
 49 24  1  0
 49 50  1  0
 51 49  1  0
 53 54  1  0
 53 52  1  0
 54 55  1  0
 56 57  1  0
 56 54  1  0
 58 60  1  0
 58 57  1  0
 59 70  2  0
 60 65  1  0
 61 69  1  0
 61 71  1  0
 62 68  1  0
 62 64  1  0
 63 69  1  0
 64 63  1  0
 65 64  2  0
 66 67  1  0
 66 60  2  0
 67 62  2  0
 68 61  1  0
 69 59  1  0
 71 73  2  0
 72 71  1  0
 74 72  1  0
 75 84  2  0
 75 80  1  0
 76 72  1  0
 76 80  1  0
 77 76  1  0
 78 79  1  0
 78 77  1  0
 79 75  1  0
 80 81  2  0
 81 82  1  0
 83 82  2  0
 84 83  1  0
 85 59  1  0
 85 86  1  0
 85 95  1  0
 86 89  1  0
 87 91  1  0
 87 86  1  0
 88 87  2  0
 91 90  1  0
 93 91  1  0
 93 94  1  0
 93 92  1  0
 95 98  1  1
 95 96  1  0
 97 95  1  0
M  ISO  4  14 100  16 100  57 101  58 101
M  END
>  <TORSDO>  (2) 
F 23

>  <SCORE>  (2) 
-8.750

>  <name>  (2) 
1

>  <ligand_id>  (2) 
1

>  <original_smiles>  (2) 
[H]c1c([H])c([H])c2c(c1[H])C([H])([H])C([H])([H])C([H])([H])C2([H])N([H])C(=O)C1([H])N(C(=O)C([H])(N([H])C(=O)C([H])(N([H])C([H])([H])[H])C([H])([H])[H])C(C([H])([H])[H])(C([H])([H])[H])C([H])([H])[H])C([H])([H])c2c([H])c(OC([H])([H])C([H])([H])N([H])C([H])([H])C([H])([H])[N+]([H])([H])C([H])([H])c3c([H])c([H])c4c(c3[H])C([H])([H])C([H])([H])C([H])([H])C4(C(=O)N3C([H])([H])C([H])([H])C([H])([H])C([H])(n4nc(-c5c([H])c([H])c(Oc6c([H])c([H])c(F)c([H])c6F)c([H])c5[H])c(C(=O)N([H])[H])c4N([H])[H])C3([H])[H])C([H])([H])[H])c([H])c([H])c2C1([H])[H]

>  <smiles>  (2) 
[H]c1c([H])c([H])c2c(c1[H])C([H])([H])C([H])([H])C([H])([H])C2([H])N([H])C(=O)C1([H])N(C(=O)C([H])(N([H])C(=O)C([H])(N([H])C([H])([H])[H])C([H])([H])[H])C(C([H])([H])[H])(C([H])([H])[H])C([H])([H])[H])C([H])([H])c2c([H])c(OC([H])([H])C([H])([H])N([H])C([H])([H])C([H])([H])[N+]([H])([H])C([H])([H])c3c([H])c([H])c4c(c3[H])C([H])([H])C([H])([H])C([H])([H])C4(C(=O)N3C([H])([H])C([H])([H])C([H])([H])C([H])(n4nc(-c5c([H])c([H])c(Oc6c([H])c([H])c(F)c([H])c6F)c([H])c5[H])c(C(=O)N([H])[H])c4N([H])[H])C3([H])[H])C([H])([H])[H])c([H])c([H])c2C1([H])[H]

$$$$
2:0:0
     RDKit          3D

 94102  0  0  1  0  0  0  0  0999 V2000
  -31.4870  -22.5410   20.8640 C   0  0  0  0  0  3  0  0  0  0  0  0
  -31.8060  -23.8300   20.3920 C   0  0  0  0  0  3  0  0  0  0  0  0
  -29.1260  -23.0640   20.6400 C   0  0  0  0  0  3  0  0  0  0  0  0
  -30.1400  -22.1380   20.9830 C   0  0  0  0  0  0  0  0  0  0  0  0
  -29.4290  -24.3730   20.1830 C   0  0  0  0  0  0  0  0  0  0  0  0
  -30.7890  -24.7460   20.0460 C   0  0  0  0  0  0  0  0  0  0  0  0
  -31.1540  -26.0040   19.5700 N   0  0  0  0  0  0  0  0  0  0  0  0
  -32.0720  -26.3580   19.8200 H   0  0  0  0  0  0  0  0  0  0  0  0
  -30.4340  -26.7210   19.6200 H   0  0  0  0  0  0  0  0  0  0  0  0
  -29.7740  -20.7510   21.5220 C   0  0  0  0  0  2  0  0  0  0  0  0
  -30.3940  -19.5490   20.7590 C   0  0  0  0  0  2  0  0  0  0  0  0
  -29.9540  -18.2330   21.3020 N   0  0  0  0  0  4  0  0  0  0  0  0
  -28.9560  -18.1660   21.1840 H   0  0  0  0  0  0  0  0  0  0  0  0
  -30.1490  -18.2150   22.2900 H   0  0  0  0  0  0  0  0  0  0  0  0
  -30.5990  -17.0490   20.6710 C   0  0  0  0  0  2  0  0  0  0  0  0
  -30.0170  -15.6800   21.1370 C   0  0  0  0  0  2  0  0  0  0  0  0
  -30.6550  -14.4710   20.4080 C   0  0  0  0  0  0  0  0  0  0  0  0
  -30.3130  -12.3360   19.2140 C   0  0  0  0  0  2  0  0  0  0  0  0
  -29.3520  -12.5740   18.0300 C   0  0  0  0  0  2  0  0  0  0  0  0
  -27.8840  -12.4380   18.4830 C   0  0  0  0  0  2  0  0  0  0  0  0
  -27.5770  -13.2530   19.7670 C   0  0  0  0  0  3  0  0  0  0  0  0
  -28.6530  -13.0100   20.8520 C   0  0  0  0  0  2  0  0  0  0  0  0
  -29.9680  -13.3040   20.2660 N   0  0  0  0  0  0  0  0  0  0  0  0
  -31.7580  -14.6400   19.8810 O   0  0  0  0  0  0  0  0  0  0  0  0
  -25.1870  -13.8570   20.5070 C   0  0  0  0  0  0  0  0  0  0  0  0
  -24.1240  -13.0830   20.8910 C   0  0  0  0  0  0  0  0  0  0  0  0
  -24.5870  -11.7320   20.8560 C   0  0  0  0  0  0  0  0  0  0  0  0
  -26.2300  -12.9770   20.2640 N   0  0  0  0  0  0  0  0  0  0  0  0
  -25.8740  -11.6940   20.5310 N   0  0  0  0  0  0  0  0  0  0  0  0
  -23.8660  -10.4680   21.0570 C   0  0  0  0  0  0  0  0  0  0  0  0
  -24.3260   -9.4910   21.9660 C   0  0  0  0  0  3  0  0  0  0  0  0
  -23.6040   -8.2930   22.1550 C   0  0  0  0  0  3  0  0  0  0  0  0
  -22.4080   -8.0630   21.4360 C   0  0  0  0  0  0  0  0  0  0  0  0
  -21.9670   -9.0290   20.5130 C   0  0  0  0  0  3  0  0  0  0  0  0
  -22.6890  -10.2190   20.3220 C   0  0  0  0  0  3  0  0  0  0  0  0
  -21.6560   -6.9180   21.5360 O   0  0  0  0  0  0  0  0  0  0  0  0
  -21.6580   -6.1520   22.6730 C   0  0  0  0  0  0  0  0  0  0  0  0
  -21.3070   -6.6860   23.9320 C   0  0  0  0  0  3  0  0  0  0  0  0
  -21.2560   -5.8480   25.0640 C   0  0  0  0  0  3  0  0  0  0  0  0
  -21.5470   -4.4770   24.9380 C   0  0  0  0  0  0  0  0  0  0  0  0
  -21.8910   -3.9410   23.6850 C   0  0  0  0  0  3  0  0  0  0  0  0
  -21.9440   -4.7770   22.5550 C   0  0  0  0  0  0  0  0  0  0  0  0
  -22.2570   -4.2520   21.3460 F   0  0  0  0  0  0  0  0  0  0  0  0
  -21.4900   -3.6690   26.0230 F   0  0  0  0  0  0  0  0  0  0  0  0
  -22.7300  -13.5580   21.1820 C   0  0  0  0  0  0  0  0  0  0  0  0
  -22.0170  -12.8610   22.0610 N   0  0  0  0  0  0  0  0  0  0  0  0
  -22.2820  -14.5800   20.6650 O   0  0  0  0  0  0  0  0  0  0  0  0
  -22.3930  -12.0330   22.4990 H   0  0  0  0  0  0  0  0  0  0  0  0
  -21.0830  -13.1600   22.3010 H   0  0  0  0  0  0  0  0  0  0  0  0
  -25.3470  -15.2260   20.3230 N   0  0  0  0  0  0  0  0  0  0  0  0
  -24.5790  -15.8810   20.4310 H   0  0  0  0  0  0  0  0  0  0  0  0
  -26.1870  -15.6600   19.9620 H   0  0  0  0  0  0  0  0  0  0  0  0
  -28.2640  -25.2870   19.7810 C   0  0  0  0  0  2  0  0  0  0  0  0
  -28.3690  -26.6770   20.1500 O   0  0  0  0  0  0  0  0  0  0  0  0
  -24.6040  -31.8810   23.2480 C   0  0  0  0  0  0  0  0  0  0  0  0
  -27.2000  -27.4260   20.1220 C   0  0  0  0  0  0  0  0  0  0  0  0
  -23.3780  -30.4910   21.6140 C   0  0  0  0  0  3  0  0  0  0  0  0
  -24.8110  -28.9570   20.1670 C   0  0  0  0  0  0  0  0  0  0  0  0
  -25.9070  -30.8330   21.3990 C   0  0  0  0  0  2  0  0  0  0  0  0
  -25.9780  -29.4640   20.7490 C   0  0  0  0  0  0  0  0  0  0  0  0
  -27.1730  -28.7060   20.7260 C   0  0  0  0  0  3  0  0  0  0  0  0
  -26.0090  -26.9460   19.5200 C   0  0  0  0  0  3  0  0  0  0  0  0
  -24.8210  -27.6980   19.5500 C   0  0  0  0  0  3  0  0  0  0  0  0
  -23.5720  -29.8210   20.2290 C   0  0  0  0  0  2  0  0  0  0  0  0
  -24.6480  -31.0830   22.1440 N   0  0  0  0  0  0  0  0  0  0  0  0
  -23.5290  -32.1560   23.7970 O   0  0  0  0  0  0  0  0  0  0  0  0
  -22.7320  -29.4660   22.5740 C   0  0  0  0  0  0  0  0  0  0  0  0
  -21.4050  -29.2850   22.4540 N   0  0  0  0  0  0  0  0  0  0  0  0
  -23.4190  -28.8390   23.3840 O   0  0  0  0  0  0  0  0  0  0  0  0
  -20.9130  -29.8460   21.7730 H   0  0  0  0  0  0  0  0  0  0  0  0
  -18.0340  -28.0850   22.9570 C   0  0  0  0  0  0  0  0  0  0  0  0
  -20.5920  -28.3480   23.2280 C   0  0  0  0  0  3  0  0  0  0  0  0
  -20.6960  -26.9150   22.6550 C   0  0  0  0  0  2  0  0  0  0  0  0
  -19.5950  -26.5880   21.6430 C   0  0  0  0  0  2  0  0  0  0  0  0
  -18.2130  -26.7330   22.2870 C   0  0  0  0  0  2  0  0  0  0  0  0
  -19.1520  -28.8500   23.3850 C   0  0  0  0  0  0  0  0  0  0  0  0
  -18.9320  -30.1160   23.9710 C   0  0  0  0  0  3  0  0  0  0  0  0
  -17.6260  -30.6170   24.1340 C   0  0  0  0  0  3  0  0  0  0  0  0
  -16.5230  -29.8480   23.7230 C   0  0  0  0  0  3  0  0  0  0  0  0
  -16.7280  -28.5840   23.1410 C   0  0  0  0  0  3  0  0  0  0  0  0
  -25.8980  -32.5050   23.8590 C   0  0  0  0  0  3  0  0  0  0  0  0
  -25.5950  -33.9000   24.2020 N   0  0  0  0  0  0  0  0  0  0  0  0
  -25.9180  -34.9570   23.4430 C   0  0  0  0  0  0  0  0  0  0  0  0
  -26.5730  -34.8600   22.4020 O   0  0  0  0  0  0  0  0  0  0  0  0
  -25.0120  -34.0510   25.0110 H   0  0  0  0  0  0  0  0  0  0  0  0
  -24.1810  -36.7490   23.1270 C   0  0  0  0  0  1  0  0  0  0  0  0
  -25.4360  -36.3420   23.9160 C   0  0  0  0  0  3  0  0  0  0  0  0
  -27.5880  -37.2220   24.7110 C   0  0  0  0  0  1  0  0  0  0  0  0
  -26.4660  -37.3970   23.7900 N   0  0  0  0  0  0  0  0  0  0  0  0
  -26.0630  -38.3160   23.9530 H   0  0  0  0  0  0  0  0  0  0  0  0
  -26.4310  -31.7210   25.1190 C   0  0  1  0  0  0  0  0  0  0  0  0
  -25.3530  -31.4750   26.2000 C   0  0  0  0  0  1  0  0  0  0  0  0
  -27.0050  -30.3460   24.7060 C   0  0  0  0  0  1  0  0  0  0  0  0
  -27.5930  -32.5070   25.7730 C   0  0  0  0  0  1  0  0  0  0  0  0
  1  4  1  0
  2  1  2  0
  3  4  2  0
  4 10  1  0
  5  3  1  0
  6  5  2  0
  6  2  1  0
  7  9  1  0
  7  8  1  0
  7  6  1  0
 11 12  1  0
 11 10  1  0
 12 14  1  0
 13 12  1  0
 15 16  1  0
 15 12  1  0
 17 16  1  0
 18 23  1  0
 19 20  1  0
 19 18  1  0
 21 20  1  0
 21 28  1  0
 21 22  1  0
 23 17  1  0
 23 22  1  0
 24 17  2  0
 25 26  2  0
 26 45  1  0
 27 26  1  0
 27 30  1  0
 28 25  1  0
 28 29  1  0
 29 27  2  0
 30 31  1  0
 31 32  2  0
 33 36  1  0
 33 32  1  0
 34 33  2  0
 35 34  1  0
 35 30  2  0
 36 37  1  0
 37 38  1  0
 38 39  2  0
 40 39  1  0
 40 44  1  0
 41 40  2  0
 42 37  2  0
 42 41  1  0
 43 42  1  0
 45 46  1  0
 46 49  1  0
 46 48  1  0
 47 45  2  0
 50 51  1  0
 50 25  1  0
 52 50  1  0
 53 54  1  0
 53  5  1  0
 55 66  2  0
 56 54  1  0
 56 61  1  0
 57 65  1  0
 57 67  1  0
 58 64  1  0
 58 60  1  0
 59 65  1  0
 60 59  1  0
 61 60  2  0
 62 63  1  0
 62 56  2  0
 63 58  2  0
 64 57  1  0
 65 55  1  0
 67 69  2  0
 68 67  1  0
 70 68  1  0
 71 80  2  0
 71 76  1  0
 72 68  1  0
 72 76  1  0
 73 72  1  0
 74 75  1  0
 74 73  1  0
 75 71  1  0
 76 77  2  0
 77 78  1  0
 79 78  2  0
 80 79  1  0
 81 55  1  0
 81 82  1  0
 81 91  1  0
 82 85  1  0
 83 87  1  0
 83 82  1  0
 84 83  2  0
 87 86  1  0
 89 87  1  0
 89 90  1  0
 89 88  1  0
 91 94  1  1
 91 92  1  0
 93 91  1  0
M  ISO  4  16 100  17 100  53 101  54 101
M  END
>  <TORSDO>  (3) 
F 23

>  <SCORE>  (3) 
-12.942

>  <name>  (3) 
2

>  <ligand_id>  (3) 
2

>  <original_smiles>  (3) 
[H]c1c([H])c([H])c2c(c1[H])C([H])([H])C([H])([H])C([H])([H])C2([H])N([H])C(=O)C1([H])N(C(=O)C([H])(N([H])C(=O)C([H])(N([H])C([H])([H])[H])C([H])([H])[H])C(C([H])([H])[H])(C([H])([H])[H])C([H])([H])[H])C([H])([H])c2c([H])c(OC([H])([H])c3c([H])c(C([H])([H])C([H])([H])[N+]([H])([H])C([H])([H])C([H])([H])C(=O)N4C([H])([H])C([H])([H])C([H])([H])C([H])(n5nc(-c6c([H])c([H])c(Oc7c([H])c([H])c(F)c([H])c7F)c([H])c6[H])c(C(=O)N([H])[H])c5N([H])[H])C4([H])[H])c([H])c([H])c3N([H])[H])c([H])c([H])c2C1([H])[H]

>  <smiles>  (3) 
[H]c1c([H])c([H])c2c(c1[H])C([H])([H])C([H])([H])C([H])([H])C2([H])N([H])C(=O)C1([H])N(C(=O)C([H])(N([H])C(=O)C([H])(N([H])C([H])([H])[H])C([H])([H])[H])C(C([H])([H])[H])(C([H])([H])[H])C([H])([H])[H])C([H])([H])c2c([H])c(OC([H])([H])c3c([H])c(C([H])([H])C([H])([H])[N+]([H])([H])C([H])([H])C([H])([H])C(=O)N4C([H])([H])C([H])([H])C([H])([H])C([H])(n5nc(-c6c([H])c([H])c(Oc7c([H])c([H])c(F)c([H])c7F)c([H])c6[H])c(C(=O)N([H])[H])c5N([H])[H])C4([H])[H])c([H])c([H])c3N([H])[H])c([H])c([H])c2C1([H])[H]

$$$$
3:0:0
     RDKit          3D

 93102  0  0  1  0  0  0  0  0999 V2000
  -27.7590  -22.8180   22.6240 C   0  0  0  0  0  2  0  0  0  0  0  0
  -29.0760  -22.0260   22.6230 C   0  0  0  0  0  2  0  0  0  0  0  0
  -27.1050  -24.6890   20.9500 C   0  0  0  0  0  2  0  0  0  0  0  0
  -29.3990  -24.4040   20.3450 C   0  0  0  0  0  2  0  0  0  0  0  0
  -27.4670  -23.2140   21.1570 C   0  0  0  0  0  3  0  0  0  0  0  0
  -28.7630  -22.9880   20.3800 C   0  0  0  0  0  3  0  0  0  0  0  0
  -29.3940  -21.8050   21.1360 C   0  0  0  0  0  3  0  0  0  0  0  0
  -28.1720  -25.2800   20.0030 C   0  0  0  0  0  3  0  0  0  0  0  0
  -30.8120  -21.5190   20.8260 N   0  0  0  0  0  4  0  0  0  0  0  0
  -31.3800  -22.1360   21.3800 H   0  0  0  0  0  0  0  0  0  0  0  0
  -30.9990  -21.7260   19.8580 H   0  0  0  0  0  0  0  0  0  0  0  0
  -31.2330  -20.1180   21.0830 C   0  0  0  0  0  2  0  0  0  0  0  0
  -30.7890  -19.1380   19.9650 C   0  0  0  0  0  2  0  0  0  0  0  0
  -31.1910  -17.6640   20.1970 C   0  0  0  0  0  2  0  0  0  0  0  0
  -30.2350  -16.8680   21.1250 C   0  0  0  0  0  2  0  0  0  0  0  0
  -30.6980  -15.4400   21.5220 C   0  0  0  0  0  2  0  0  0  0  0  0
  -30.8960  -14.4600   20.3490 C   0  0  0  0  0  0  0  0  0  0  0  0
  -30.4070  -12.3900   19.0950 C   0  0  0  0  0  2  0  0  0  0  0  0
  -29.4610  -12.6400   17.9070 C   0  0  0  0  0  2  0  0  0  0  0  0
  -28.0000  -12.5000   18.3620 C   0  0  0  0  0  2  0  0  0  0  0  0
  -27.6960  -13.3310   19.6340 C   0  0  0  0  0  3  0  0  0  0  0  0
  -28.7690  -13.1310   20.7330 C   0  0  0  0  0  2  0  0  0  0  0  0
  -30.1010  -13.3700   20.1510 N   0  0  0  0  0  0  0  0  0  0  0  0
  -31.8760  -14.6790   19.6340 O   0  0  0  0  0  0  0  0  0  0  0  0
  -25.3020  -13.9420   20.3640 C   0  0  0  0  0  0  0  0  0  0  0  0
  -24.2390  -13.1730   20.7550 C   0  0  0  0  0  0  0  0  0  0  0  0
  -24.7010  -11.8210   20.7320 C   0  0  0  0  0  0  0  0  0  0  0  0
  -26.3470  -13.0590   20.1330 N   0  0  0  0  0  0  0  0  0  0  0  0
  -25.9890  -11.7790   20.4120 N   0  0  0  0  0  0  0  0  0  0  0  0
  -23.9770  -10.5600   20.9440 C   0  0  0  0  0  0  0  0  0  0  0  0
  -24.4240   -9.5980   21.8790 C   0  0  0  0  0  3  0  0  0  0  0  0
  -23.7010   -8.4020   22.0760 C   0  0  0  0  0  3  0  0  0  0  0  0
  -22.5140   -8.1600   21.3430 C   0  0  0  0  0  0  0  0  0  0  0  0
  -22.0880   -9.1090   20.3970 C   0  0  0  0  0  3  0  0  0  0  0  0
  -22.8120  -10.2970   20.1970 C   0  0  0  0  0  3  0  0  0  0  0  0
  -21.7600   -7.0150   21.4510 O   0  0  0  0  0  0  0  0  0  0  0  0
  -21.7270   -6.2800   22.6090 C   0  0  0  0  0  0  0  0  0  0  0  0
  -21.3380   -6.8490   23.8420 C   0  0  0  0  0  3  0  0  0  0  0  0
  -21.2530   -6.0420   24.9940 C   0  0  0  0  0  3  0  0  0  0  0  0
  -21.5490   -4.6670   24.9130 C   0  0  0  0  0  0  0  0  0  0  0  0
  -21.9340   -4.0990   23.6860 C   0  0  0  0  0  3  0  0  0  0  0  0
  -22.0190   -4.9030   22.5360 C   0  0  0  0  0  0  0  0  0  0  0  0
  -22.3700   -4.3470   21.3520 F   0  0  0  0  0  0  0  0  0  0  0  0
  -21.4590   -3.8890   26.0170 F   0  0  0  0  0  0  0  0  0  0  0  0
  -22.8450  -13.6520   21.0390 C   0  0  0  0  0  0  0  0  0  0  0  0
  -22.1280  -12.9670   21.9220 N   0  0  0  0  0  0  0  0  0  0  0  0
  -22.4010  -14.6690   20.5080 O   0  0  0  0  0  0  0  0  0  0  0  0
  -22.4970  -12.1410   22.3690 H   0  0  0  0  0  0  0  0  0  0  0  0
  -21.1960  -13.2760   22.1570 H   0  0  0  0  0  0  0  0  0  0  0  0
  -25.4670  -15.3100   20.1700 N   0  0  0  0  0  0  0  0  0  0  0  0
  -24.7090  -15.9730   20.2810 H   0  0  0  0  0  0  0  0  0  0  0  0
  -26.3260  -15.7410   19.8450 H   0  0  0  0  0  0  0  0  0  0  0  0
  -28.3420  -26.7130   20.1170 O   0  0  0  0  0  0  0  0  0  0  0  0
  -24.5680  -31.8920   23.1870 C   0  0  0  0  0  0  0  0  0  0  0  0
  -27.1960  -27.4900   20.0330 C   0  0  0  0  0  0  0  0  0  0  0  0
  -23.3520  -30.5200   21.5290 C   0  0  0  0  0  3  0  0  0  0  0  0
  -24.8020  -29.0110   20.0680 C   0  0  0  0  0  0  0  0  0  0  0  0
  -25.8770  -30.8740   21.3280 C   0  0  0  0  0  2  0  0  0  0  0  0
  -25.9590  -29.5130   20.6700 C   0  0  0  0  0  0  0  0  0  0  0  0
  -27.1580  -28.7580   20.6600 C   0  0  0  0  0  3  0  0  0  0  0  0
  -26.0310  -27.0420   19.3670 C   0  0  0  0  0  3  0  0  0  0  0  0
  -24.8330  -27.7730   19.4100 C   0  0  0  0  0  3  0  0  0  0  0  0
  -23.5520  -29.8630   20.1350 C   0  0  0  0  0  2  0  0  0  0  0  0
  -24.6170  -31.1120   22.0720 N   0  0  0  0  0  0  0  0  0  0  0  0
  -23.4930  -32.1510   23.7430 O   0  0  0  0  0  0  0  0  0  0  0  0
  -22.7070  -29.4830   22.4770 C   0  0  0  0  0  0  0  0  0  0  0  0
  -21.3820  -29.2970   22.3590 N   0  0  0  0  0  0  0  0  0  0  0  0
  -23.3980  -28.8440   23.2760 O   0  0  0  0  0  0  0  0  0  0  0  0
  -20.8780  -29.8630   21.6870 H   0  0  0  0  0  0  0  0  0  0  0  0
  -18.0190  -28.0820   22.8610 C   0  0  0  0  0  0  0  0  0  0  0  0
  -20.5770  -28.3480   23.1280 C   0  0  0  0  0  3  0  0  0  0  0  0
  -20.6830  -26.9190   22.5430 C   0  0  0  0  0  2  0  0  0  0  0  0
  -19.5810  -26.6000   21.5280 C   0  0  0  0  0  2  0  0  0  0  0  0
  -18.1980  -26.7380   22.1740 C   0  0  0  0  0  2  0  0  0  0  0  0
  -19.1360  -28.8430   23.2960 C   0  0  0  0  0  0  0  0  0  0  0  0
  -18.9140  -30.1010   23.8990 C   0  0  0  0  0  3  0  0  0  0  0  0
  -17.6070  -30.6000   24.0670 C   0  0  0  0  0  3  0  0  0  0  0  0
  -16.5060  -29.8360   23.6470 C   0  0  0  0  0  3  0  0  0  0  0  0
  -16.7120  -28.5780   23.0510 C   0  0  0  0  0  3  0  0  0  0  0  0
  -25.8600  -32.5180   23.8040 C   0  0  0  0  0  3  0  0  0  0  0  0
  -25.5540  -33.9130   24.1470 N   0  0  0  0  0  0  0  0  0  0  0  0
  -25.8880  -34.9720   23.3960 C   0  0  0  0  0  0  0  0  0  0  0  0
  -26.5560  -34.8790   22.3620 O   0  0  0  0  0  0  0  0  0  0  0  0
  -24.9690  -34.0590   24.9550 H   0  0  0  0  0  0  0  0  0  0  0  0
  -24.1620  -36.7630   23.0510 C   0  0  0  0  0  1  0  0  0  0  0  0
  -25.4010  -36.3560   23.8650 C   0  0  0  0  0  3  0  0  0  0  0  0
  -27.5360  -37.2250   24.7060 C   0  0  0  0  0  1  0  0  0  0  0  0
  -26.4350  -37.4100   23.7640 N   0  0  0  0  0  0  0  0  0  0  0  0
  -26.0310  -38.3310   23.9240 H   0  0  0  0  0  0  0  0  0  0  0  0
  -26.3890  -31.7300   25.0670 C   0  0  1  0  0  0  0  0  0  0  0  0
  -25.3090  -31.4810   26.1450 C   0  0  0  0  0  1  0  0  0  0  0  0
  -26.9590  -30.3550   24.6510 C   0  0  0  0  0  1  0  0  0  0  0  0
  -27.5430  -32.5140   25.7360 C   0  0  0  0  0  1  0  0  0  0  0  0
  2  1  1  0
  5  3  1  0
  5  1  1  0
  6  4  1  0
  6  7  1  0
  6  5  1  0
  7  9  1  0
  7  2  1  0
  8 53  1  0
  8  4  1  0
  8  3  1  0
  9 12  1  0
  9 10  1  0
 11  9  1  0
 13 14  1  0
 13 12  1  0
 14 15  1  0
 15 16  1  0
 17 16  1  0
 18 23  1  0
 19 20  1  0
 19 18  1  0
 21 20  1  0
 21 28  1  0
 21 22  1  0
 23 17  1  0
 23 22  1  0
 24 17  2  0
 25 26  2  0
 26 45  1  0
 27 26  1  0
 27 30  1  0
 28 25  1  0
 28 29  1  0
 29 27  2  0
 30 31  1  0
 31 32  2  0
 33 36  1  0
 33 32  1  0
 34 33  2  0
 35 34  1  0
 35 30  2  0
 36 37  1  0
 37 38  1  0
 38 39  2  0
 40 39  1  0
 40 44  1  0
 41 40  2  0
 42 37  2  0
 42 41  1  0
 43 42  1  0
 45 46  1  0
 46 49  1  0
 46 48  1  0
 47 45  2  0
 50 51  1  0
 50 25  1  0
 52 50  1  0
 54 65  2  0
 55 53  1  0
 55 60  1  0
 56 64  1  0
 56 66  1  0
 57 63  1  0
 57 59  1  0
 58 64  1  0
 59 58  1  0
 60 59  2  0
 61 62  1  0
 61 55  2  0
 62 57  2  0
 63 56  1  0
 64 54  1  0
 66 68  2  0
 67 66  1  0
 69 67  1  0
 70 79  2  0
 70 75  1  0
 71 67  1  0
 71 75  1  0
 72 71  1  0
 73 74  1  0
 73 72  1  0
 74 70  1  0
 75 76  2  0
 76 77  1  0
 78 77  2  0
 79 78  1  0
 80 54  1  0
 80 81  1  0
 80 90  1  0
 81 84  1  0
 82 86  1  0
 82 81  1  0
 83 82  2  0
 86 85  1  0
 88 86  1  0
 88 89  1  0
 88 87  1  0
 90 93  1  1
 90 91  1  0
 92 90  1  0
M  ISO  4   8 101  16 100  17 100  53 101
M  END
>  <TORSDO>  (4) 
F 22

>  <SCORE>  (4) 
-12.488

>  <name>  (4) 
3

>  <ligand_id>  (4) 
3

>  <original_smiles>  (4) 
[H]c1c([H])c([H])c2c(c1[H])C([H])([H])C([H])([H])C([H])([H])C2([H])N([H])C(=O)C1([H])N(C(=O)C([H])(N([H])C(=O)C([H])(N([H])C([H])([H])[H])C([H])([H])[H])C(C([H])([H])[H])(C([H])([H])[H])C([H])([H])[H])C([H])([H])c2c([H])c(OC3([H])C([H])([H])C4([H])C([H])([H])C([H])([H])C([H])([N+]([H])([H])C([H])([H])C([H])([H])C([H])([H])C([H])([H])C([H])([H])C(=O)N5C([H])([H])C([H])([H])C([H])([H])C([H])(n6nc(-c7c([H])c([H])c(Oc8c([H])c([H])c(F)c([H])c8F)c([H])c7[H])c(C(=O)N([H])[H])c6N([H])[H])C5([H])[H])C4([H])C3([H])[H])c([H])c([H])c2C1([H])[H]

>  <smiles>  (4) 
[H]c1c([H])c([H])c2c(c1[H])C([H])([H])C([H])([H])C([H])([H])C2([H])N([H])C(=O)C1([H])N(C(=O)C([H])(N([H])C(=O)C([H])(N([H])C([H])([H])[H])C([H])([H])[H])C(C([H])([H])[H])(C([H])([H])[H])C([H])([H])[H])C([H])([H])c2c([H])c(OC3([H])C([H])([H])C4([H])C([H])([H])C([H])([H])C([H])([N+]([H])([H])C([H])([H])C([H])([H])C([H])([H])C([H])([H])C([H])([H])C(=O)N5C([H])([H])C([H])([H])C([H])([H])C([H])(n6nc(-c7c([H])c([H])c(Oc8c([H])c([H])c(F)c([H])c8F)c([H])c7[H])c(C(=O)N([H])[H])c6N([H])[H])C5([H])[H])C4([H])C3([H])[H])c([H])c([H])c2C1([H])[H]

$$$$
4:0:0
     RDKit          3D

 90 98  0  0  1  0  0  0  0  0999 V2000
  -28.4980  -19.2640   19.8940 C   0  0  0  0  0  0  0  0  0  0  0  0
  -30.4650  -20.3810   20.2720 C   0  0  0  0  0  2  0  0  0  0  0  0
  -28.2640  -20.8560   19.7190 C   0  0  0  0  0  3  0  0  0  0  0  0
  -29.8970  -18.7650   20.3940 C   0  0  1  0  0  0  0  0  0  0  0  0
  -29.8030  -18.4430   21.9000 C   0  0  0  0  0  1  0  0  0  0  0  0
  -29.3810  -21.5630   20.4200 N   0  0  2  0  0  4  0  0  0  0  0  0
  -27.6240  -18.4320   19.6350 O   0  0  0  0  0  0  0  0  0  0  0  0
  -29.1270  -21.5210   21.3970 H   0  0  0  0  0  0  0  0  0  0  0  0
  -26.0740  -22.1360   19.1860 C   0  0  0  0  0  1  0  0  0  0  0  0
  -26.8660  -21.3130   20.2180 C   0  0  0  0  0  2  0  0  0  0  0  0
  -30.4020  -17.2040   19.6410 C   0  0  0  0  0  2  0  0  0  0  0  0
  -31.2230  -15.7050   20.0410 C   0  0  0  0  0  0  0  0  0  0  0  0
  -31.2170  -13.2110   19.3600 C   0  0  0  0  0  2  0  0  0  0  0  0
  -30.3210  -12.9540   18.1220 C   0  0  0  0  0  2  0  0  0  0  0  0
  -28.8570  -12.7420   18.5480 C   0  0  0  0  0  2  0  0  0  0  0  0
  -28.3950  -13.7750   19.6050 C   0  0  0  0  0  3  0  0  0  0  0  0
  -29.4190  -13.9650   20.7370 C   0  0  0  0  0  2  0  0  0  0  0  0
  -30.6760  -14.3980   20.1090 N   0  0  0  0  0  0  0  0  0  0  0  0
  -32.4570  -15.6800   19.9300 O   0  0  0  0  0  0  0  0  0  0  0  0
  -26.0590  -14.4130   20.3970 C   0  0  0  0  0  0  0  0  0  0  0  0
  -24.9650  -13.6740   20.7450 C   0  0  0  0  0  0  0  0  0  0  0  0
  -25.3700  -12.3040   20.6680 C   0  0  0  0  0  0  0  0  0  0  0  0
  -27.0590  -13.4990   20.1140 N   0  0  0  0  0  0  0  0  0  0  0  0
  -26.6580  -12.2220   20.3480 N   0  0  0  0  0  0  0  0  0  0  0  0
  -24.5840  -11.0720   20.8210 C   0  0  0  0  0  0  0  0  0  0  0  0
  -24.9260  -10.0910   21.7790 C   0  0  0  0  0  3  0  0  0  0  0  0
  -24.1420   -8.9260   21.9220 C   0  0  0  0  0  3  0  0  0  0  0  0
  -23.0020   -8.7320   21.1060 C   0  0  0  0  0  0  0  0  0  0  0  0
  -22.6810   -9.6990   20.1380 C   0  0  0  0  0  3  0  0  0  0  0  0
  -23.4650  -10.8560   19.9930 C   0  0  0  0  0  3  0  0  0  0  0  0
  -22.1980   -7.6180   21.1560 O   0  0  0  0  0  0  0  0  0  0  0  0
  -21.9840   -6.9380   22.3280 C   0  0  0  0  0  0  0  0  0  0  0  0
  -21.4310   -7.5680   23.4640 C   0  0  0  0  0  3  0  0  0  0  0  0
  -21.1630   -6.8150   24.6250 C   0  0  0  0  0  3  0  0  0  0  0  0
  -21.4360   -5.4360   24.6490 C   0  0  0  0  0  0  0  0  0  0  0  0
  -21.9840   -4.8060   23.5180 C   0  0  0  0  0  3  0  0  0  0  0  0
  -22.2540   -5.5550   22.3580 C   0  0  0  0  0  0  0  0  0  0  0  0
  -22.7610   -4.9400   21.2640 F   0  0  0  0  0  0  0  0  0  0  0  0
  -21.1730   -4.7110   25.7610 F   0  0  0  0  0  0  0  0  0  0  0  0
  -23.5920  -14.2030   21.0410 C   0  0  0  0  0  0  0  0  0  0  0  0
  -22.8350  -13.5110   21.8840 N   0  0  0  0  0  0  0  0  0  0  0  0
  -23.2000  -15.2650   20.5540 O   0  0  0  0  0  0  0  0  0  0  0  0
  -23.1670  -12.6540   22.3020 H   0  0  0  0  0  0  0  0  0  0  0  0
  -21.9090  -13.8400   22.1190 H   0  0  0  0  0  0  0  0  0  0  0  0
  -26.2810  -15.7810   20.2710 N   0  0  0  0  0  0  0  0  0  0  0  0
  -25.5610  -16.4680   20.4750 H   0  0  0  0  0  0  0  0  0  0  0  0
  -27.1770  -16.2120   20.0770 H   0  0  0  0  0  0  0  0  0  0  0  0
  -29.6320  -23.1970   20.1490 C   0  0  0  0  0  3  0  0  0  0  0  0
  -28.5900  -24.6410   20.3740 C   0  0  0  0  0  3  0  0  0  0  0  0
  -28.7030  -26.2330   19.9640 O   0  0  0  0  0  0  0  0  0  0  0  0
  -24.8400  -31.8560   23.1900 C   0  0  0  0  0  0  0  0  0  0  0  0
  -27.6370  -27.2650   19.9850 C   0  0  0  0  0  0  0  0  0  0  0  0
  -23.7380  -30.5160   21.4460 C   0  0  0  0  0  3  0  0  0  0  0  0
  -25.2760  -29.0510   19.9730 C   0  0  0  0  0  0  0  0  0  0  0  0
  -26.2960  -30.8350   21.3750 C   0  0  0  0  0  2  0  0  0  0  0  0
  -26.4320  -29.4680   20.6430 C   0  0  0  0  0  0  0  0  0  0  0  0
  -27.6120  -28.6020   20.6160 C   0  0  0  0  0  3  0  0  0  0  0  0
  -26.4440  -26.9930   19.2810 C   0  0  0  0  0  3  0  0  0  0  0  0
  -25.3060  -27.8390   19.2670 C   0  0  0  0  0  3  0  0  0  0  0  0
  -24.0220  -29.9220   20.0390 C   0  0  0  0  0  2  0  0  0  0  0  0
  -24.9770  -31.0960   22.0560 N   0  0  0  0  0  0  0  0  0  0  0  0
  -23.7300  -32.0740   23.7020 O   0  0  0  0  0  0  0  0  0  0  0  0
  -23.0650  -29.4400   22.3360 C   0  0  0  0  0  0  0  0  0  0  0  0
  -21.7440  -29.2390   22.1750 N   0  0  0  0  0  0  0  0  0  0  0  0
  -23.7360  -28.7880   23.1410 O   0  0  0  0  0  0  0  0  0  0  0  0
  -21.2540  -29.8130   21.5020 H   0  0  0  0  0  0  0  0  0  0  0  0
  -18.3730  -27.9840   22.6620 C   0  0  0  0  0  0  0  0  0  0  0  0
  -20.9410  -28.2330   22.8780 C   0  0  0  0  0  3  0  0  0  0  0  0
  -21.0260  -26.8610   22.1680 C   0  0  0  0  0  2  0  0  0  0  0  0
  -19.8930  -26.6350   21.1600 C   0  0  0  0  0  2  0  0  0  0  0  0
  -18.5300  -26.7110   21.8500 C   0  0  0  0  0  2  0  0  0  0  0  0
  -19.5030  -28.7060   23.1320 C   0  0  0  0  0  0  0  0  0  0  0  0
  -19.2960  -29.9010   23.8560 C   0  0  0  0  0  3  0  0  0  0  0  0
  -17.9930  -30.3730   24.1110 C   0  0  0  0  0  3  0  0  0  0  0  0
  -16.8800  -29.6480   23.6510 C   0  0  0  0  0  3  0  0  0  0  0  0
  -17.0710  -28.4550   22.9320 C   0  0  0  0  0  3  0  0  0  0  0  0
  -26.0720  -32.5040   23.8910 C   0  0  0  0  0  3  0  0  0  0  0  0
  -26.5770  -31.6850   25.1440 C   0  0  1  0  0  0  0  0  0  0  0  0
  -25.4600  -31.3580   26.1650 C   0  0  0  0  0  1  0  0  0  0  0  0
  -27.2160  -30.3450   24.7080 C   0  0  0  0  0  1  0  0  0  0  0  0
  -27.6830  -32.4800   25.8770 C   0  0  0  0  0  1  0  0  0  0  0  0
  -25.6940  -33.8680   24.2960 N   0  0  0  0  0  0  0  0  0  0  0  0
  -25.9820  -34.9820   23.6100 C   0  0  0  0  0  0  0  0  0  0  0  0
  -26.6590  -34.9700   22.5780 O   0  0  0  0  0  0  0  0  0  0  0  0
  -25.0930  -33.9410   25.1040 H   0  0  0  0  0  0  0  0  0  0  0  0
  -24.1660  -36.7140   23.3870 C   0  0  0  0  0  1  0  0  0  0  0  0
  -25.4400  -36.3210   24.1530 C   0  0  0  0  0  3  0  0  0  0  0  0
  -27.5360  -37.2670   25.0130 C   0  0  0  0  0  1  0  0  0  0  0  0
  -26.4200  -37.4280   24.0850 N   0  0  0  0  0  0  0  0  0  0  0  0
  -25.9720  -38.3170   24.2820 H   0  0  0  0  0  0  0  0  0  0  0  0
  1  4  1  0
  2  4  1  0
  2  6  1  0
  3  1  1  0
  3 10  1  0
  3  6  1  0
  4  5  1  1
  6  8  1  1
  7  1  2  0
  9 10  1  0
 11 12  1  0
 11  4  1  0
 12 18  1  0
 13 18  1  0
 14 15  1  0
 14 13  1  0
 16 15  1  0
 16 23  1  0
 16 17  1  0
 18 17  1  0
 19 12  2  0
 20 21  2  0
 21 40  1  0
 22 21  1  0
 22 25  1  0
 23 24  1  0
 23 20  1  0
 24 22  2  0
 25 26  1  0
 26 27  2  0
 28 31  1  0
 28 27  1  0
 29 28  2  0
 30 29  1  0
 30 25  2  0
 31 32  1  0
 32 37  2  0
 32 33  1  0
 33 34  2  0
 34 35  1  0
 35 39  1  0
 36 35  2  0
 37 36  1  0
 38 37  1  0
 40 41  1  0
 41 44  1  0
 41 43  1  0
 42 40  2  0
 45 20  1  0
 45 46  1  0
 47 45  1  0
 48 49  2  0
 48  6  1  0
 50 52  1  0
 50 49  1  0
 51 62  2  0
 52 57  1  0
 53 61  1  0
 53 63  1  0
 54 60  1  0
 54 56  1  0
 55 61  1  0
 56 55  1  0
 57 56  2  0
 58 52  2  0
 59 58  1  0
 59 54  2  0
 60 53  1  0
 61 51  1  0
 63 65  2  0
 64 63  1  0
 66 64  1  0
 67 76  2  0
 67 72  1  0
 68 64  1  0
 68 72  1  0
 69 68  1  0
 70 71  1  0
 70 69  1  0
 71 67  1  0
 72 73  2  0
 73 74  1  0
 75 74  2  0
 76 75  1  0
 77 51  1  0
 77 82  1  0
 77 78  1  0
 78 81  1  1
 78 79  1  0
 80 78  1  0
 82 85  1  0
 83 87  1  0
 83 82  1  0
 84 83  2  0
 87 86  1  0
 89 87  1  0
 89 90  1  0
 89 88  1  0
M  ISO  4  11 100  12 100  49 101  50 101
M  END
>  <TORSDO>  (5) 
F 20

>  <SCORE>  (5) 
-12.927

>  <name>  (5) 
4

>  <ligand_id>  (5) 
4

>  <original_smiles>  (5) 
[H]c1c([H])c([H])c2c(c1[H])C([H])([H])C([H])([H])C([H])([H])C2([H])N([H])C(=O)C1([H])N(C(=O)C([H])(N([H])C(=O)C([H])(N([H])C([H])([H])[H])C([H])([H])[H])C(C([H])([H])[H])(C([H])([H])[H])C([H])([H])[H])C([H])([H])c2c([H])c(OC([H])([H])C([H])([H])[N+]3([H])C([H])([H])C(C([H])([H])[H])(C([H])([H])C(=O)N4C([H])([H])C([H])([H])C([H])([H])C([H])(n5nc(-c6c([H])c([H])c(Oc7c([H])c([H])c(F)c([H])c7F)c([H])c6[H])c(C(=O)N([H])[H])c5N([H])[H])C4([H])[H])C(=O)C3([H])C([H])([H])C([H])([H])[H])c([H])c([H])c2C1([H])[H]

>  <smiles>  (5) 
[H]c1c([H])c([H])c2c(c1[H])C([H])([H])C([H])([H])C([H])([H])C2([H])N([H])C(=O)C1([H])N(C(=O)C([H])(N([H])C(=O)C([H])(N([H])C([H])([H])[H])C([H])([H])[H])C(C([H])([H])[H])(C([H])([H])[H])C([H])([H])[H])C([H])([H])c2c([H])c(OC([H])([H])C([H])([H])[N+]3([H])C([H])([H])C(C([H])([H])[H])(C([H])([H])C(=O)N4C([H])([H])C([H])([H])C([H])([H])C([H])(n5nc(-c6c([H])c([H])c(Oc7c([H])c([H])c(F)c([H])c7F)c([H])c6[H])c(C(=O)N([H])[H])c5N([H])[H])C4([H])[H])C(=O)C3([H])C([H])([H])C([H])([H])[H])c([H])c([H])c2C1([H])[H]

$$$$
5:0:0
     RDKit          3D

 93101  0  0  1  0  0  0  0  0999 V2000
  -29.6910  -21.3110   20.5370 N   0  0  0  0  0  0  0  0  0  0  0  0
  -30.0080  -21.8470   21.3370 H   0  0  0  0  0  0  0  0  0  0  0  0
  -29.6300  -19.0520   19.6210 C   0  0  0  0  0  3  0  0  0  0  0  0
  -29.7740  -17.6550   19.7550 C   0  0  0  0  0  0  0  0  0  0  0  0
  -30.6600  -17.9930   22.0110 C   0  0  0  0  0  0  0  0  0  0  0  0
  -30.2690  -17.0910   20.9650 C   0  0  0  0  0  0  0  0  0  0  0  0
  -30.5190  -19.4070   21.8560 C   0  0  0  0  0  0  0  0  0  0  0  0
  -29.9500  -19.9340   20.6700 C   0  0  0  0  0  0  0  0  0  0  0  0
  -29.3220  -16.8130   18.5740 C   0  0  0  0  0  1  0  0  0  0  0  0
  -31.1840  -17.4360   23.3380 C   0  0  0  0  0  1  0  0  0  0  0  0
  -30.9320  -20.3620   22.9810 C   0  0  0  0  0  1  0  0  0  0  0  0
  -30.1750  -15.5590   21.2470 C   0  0  0  0  0  2  0  0  0  0  0  0
  -30.8150  -14.5120   20.2820 C   0  0  0  0  0  0  0  0  0  0  0  0
  -30.4780  -12.4380   18.9500 C   0  0  0  0  0  2  0  0  0  0  0  0
  -29.4780  -12.7080   17.8030 C   0  0  0  0  0  2  0  0  0  0  0  0
  -28.0160  -12.5670   18.2870 C   0  0  0  0  0  2  0  0  0  0  0  0
  -27.7480  -13.3260   19.6150 C   0  0  0  0  0  3  0  0  0  0  0  0
  -28.8460  -12.9780   20.6480 C   0  0  0  0  0  2  0  0  0  0  0  0
  -30.1460  -13.3430   20.0590 N   0  0  0  0  0  0  0  0  0  0  0  0
  -31.8850  -14.7690   19.7160 O   0  0  0  0  0  0  0  0  0  0  0  0
  -25.3720  -13.9600   20.3790 C   0  0  0  0  0  0  0  0  0  0  0  0
  -24.3080  -13.1950   20.7790 C   0  0  0  0  0  0  0  0  0  0  0  0
  -24.7580  -11.8420   20.7350 C   0  0  0  0  0  0  0  0  0  0  0  0
  -26.4050  -13.0680   20.1240 N   0  0  0  0  0  0  0  0  0  0  0  0
  -26.0380  -11.7900   20.3870 N   0  0  0  0  0  0  0  0  0  0  0  0
  -24.0310  -10.5840   20.9450 C   0  0  0  0  0  0  0  0  0  0  0  0
  -24.4770   -9.6210   21.8750 C   0  0  0  0  0  3  0  0  0  0  0  0
  -23.7490   -8.4260   22.0710 C   0  0  0  0  0  3  0  0  0  0  0  0
  -22.5630   -8.1880   21.3360 C   0  0  0  0  0  0  0  0  0  0  0  0
  -22.1370   -9.1430   20.3960 C   0  0  0  0  0  3  0  0  0  0  0  0
  -22.8650  -10.3270   20.1980 C   0  0  0  0  0  3  0  0  0  0  0  0
  -21.8060   -7.0460   21.4450 O   0  0  0  0  0  0  0  0  0  0  0  0
  -21.7610   -6.3220   22.6100 C   0  0  0  0  0  0  0  0  0  0  0  0
  -21.3500   -6.9000   23.8320 C   0  0  0  0  0  3  0  0  0  0  0  0
  -21.2470   -6.1020   24.9900 C   0  0  0  0  0  3  0  0  0  0  0  0
  -21.5470   -4.7290   24.9280 C   0  0  0  0  0  0  0  0  0  0  0  0
  -21.9490   -4.1500   23.7120 C   0  0  0  0  0  3  0  0  0  0  0  0
  -22.0510   -4.9430   22.5560 C   0  0  0  0  0  0  0  0  0  0  0  0
  -22.4200   -4.3770   21.3810 F   0  0  0  0  0  0  0  0  0  0  0  0
  -21.4410   -3.9600   26.0370 F   0  0  0  0  0  0  0  0  0  0  0  0
  -22.9240  -13.6830   21.0950 C   0  0  0  0  0  0  0  0  0  0  0  0
  -22.2230  -12.9920   21.9890 N   0  0  0  0  0  0  0  0  0  0  0  0
  -22.4720  -14.7060   20.5850 O   0  0  0  0  0  0  0  0  0  0  0  0
  -22.6020  -12.1640   22.4220 H   0  0  0  0  0  0  0  0  0  0  0  0
  -21.2950  -13.2980   22.2430 H   0  0  0  0  0  0  0  0  0  0  0  0
  -25.5370  -15.3280   20.1980 N   0  0  0  0  0  0  0  0  0  0  0  0
  -24.7800  -15.9900   20.3380 H   0  0  0  0  0  0  0  0  0  0  0  0
  -26.3860  -15.7640   19.8600 H   0  0  0  0  0  0  0  0  0  0  0  0
  -28.3350  -21.6800   20.1180 C   0  0  0  0  0  2  0  0  0  0  0  0
  -28.2960  -23.0210   19.3520 C   0  0  0  0  0  2  0  0  0  0  0  0
  -28.2510  -24.2960   20.2330 C   0  0  0  0  0  2  0  0  0  0  0  0
  -28.5890  -25.5780   19.4370 C   0  0  0  0  0  2  0  0  0  0  0  0
  -28.4290  -26.7880   20.1900 O   0  0  0  0  0  0  0  0  0  0  0  0
  -24.6210  -31.9110   23.3190 C   0  0  0  0  0  0  0  0  0  0  0  0
  -27.2290  -27.4750   20.1820 C   0  0  0  0  0  0  0  0  0  0  0  0
  -23.3970  -30.5330   21.6690 C   0  0  0  0  0  3  0  0  0  0  0  0
  -24.8330  -28.9920   20.2280 C   0  0  0  0  0  0  0  0  0  0  0  0
  -25.9230  -30.8720   21.4660 C   0  0  0  0  0  2  0  0  0  0  0  0
  -25.9940  -29.5020   20.8200 C   0  0  0  0  0  0  0  0  0  0  0  0
  -27.1880  -28.7480   20.7990 C   0  0  0  0  0  3  0  0  0  0  0  0
  -26.0450  -26.9760   19.5900 C   0  0  0  0  0  3  0  0  0  0  0  0
  -24.8540  -27.7270   19.6140 C   0  0  0  0  0  3  0  0  0  0  0  0
  -23.5930  -29.8540   20.2870 C   0  0  0  0  0  2  0  0  0  0  0  0
  -24.6650  -31.1200   22.2100 N   0  0  0  0  0  0  0  0  0  0  0  0
  -23.5440  -32.1890   23.8640 O   0  0  0  0  0  0  0  0  0  0  0  0
  -22.7350  -29.5150   22.6250 C   0  0  0  0  0  0  0  0  0  0  0  0
  -21.4110  -29.3350   22.4850 N   0  0  0  0  0  0  0  0  0  0  0  0
  -23.4100  -28.8890   23.4440 O   0  0  0  0  0  0  0  0  0  0  0  0
  -20.9250  -29.8900   21.7930 H   0  0  0  0  0  0  0  0  0  0  0  0
  -18.0400  -28.1300   22.9450 C   0  0  0  0  0  0  0  0  0  0  0  0
  -20.5910  -28.3970   23.2500 C   0  0  0  0  0  3  0  0  0  0  0  0
  -20.7070  -26.9650   22.6810 C   0  0  0  0  0  2  0  0  0  0  0  0
  -19.6210  -26.6370   21.6510 C   0  0  0  0  0  2  0  0  0  0  0  0
  -18.2300  -26.7790   22.2750 C   0  0  0  0  0  2  0  0  0  0  0  0
  -19.1490  -28.8970   23.3870 C   0  0  0  0  0  0  0  0  0  0  0  0
  -18.9200  -30.1610   23.9710 C   0  0  0  0  0  3  0  0  0  0  0  0
  -17.6130  -30.6610   24.1170 C   0  0  0  0  0  3  0  0  0  0  0  0
  -16.5170  -29.8920   23.6920 C   0  0  0  0  0  3  0  0  0  0  0  0
  -16.7300  -28.6290   23.1110 C   0  0  0  0  0  3  0  0  0  0  0  0
  -25.9150  -32.5260   23.9390 C   0  0  0  0  0  3  0  0  0  0  0  0
  -25.6180  -33.9220   24.2890 N   0  0  0  0  0  0  0  0  0  0  0  0
  -25.9620  -34.9820   23.5450 C   0  0  0  0  0  0  0  0  0  0  0  0
  -26.6330  -34.8860   22.5140 O   0  0  0  0  0  0  0  0  0  0  0  0
  -25.0160  -34.0710   25.0870 H   0  0  0  0  0  0  0  0  0  0  0  0
  -24.2480  -36.7900   23.2140 C   0  0  0  0  0  1  0  0  0  0  0  0
  -25.4860  -36.3680   24.0190 C   0  0  0  0  0  3  0  0  0  0  0  0
  -27.6360  -37.2130   24.8510 C   0  0  0  0  0  1  0  0  0  0  0  0
  -26.5250  -37.4160   23.9250 N   0  0  0  0  0  0  0  0  0  0  0  0
  -26.1260  -38.3330   24.1120 H   0  0  0  0  0  0  0  0  0  0  0  0
  -26.4330  -31.7310   25.1980 C   0  0  1  0  0  0  0  0  0  0  0  0
  -25.3450  -31.4840   26.2660 C   0  0  0  0  0  1  0  0  0  0  0  0
  -27.0060  -30.3570   24.7800 C   0  0  0  0  0  1  0  0  0  0  0  0
  -27.5940  -32.5050   25.8630 C   0  0  0  0  0  1  0  0  0  0  0  0
  1  8  1  0
  1  2  1  0
  3  4  2  0
  3  8  1  0
  4  6  1  0
  5 10  1  0
  6 12  1  0
  6  5  2  0
  7  5  1  0
  7 11  1  0
  8  7  2  0
  9  4  1  0
 13 12  1  0
 14 19  1  0
 15 16  1  0
 15 14  1  0
 17 16  1  0
 17 24  1  0
 17 18  1  0
 19 13  1  0
 19 18  1  0
 20 13  2  0
 21 22  2  0
 22 41  1  0
 23 22  1  0
 23 26  1  0
 24 21  1  0
 24 25  1  0
 25 23  2  0
 26 27  1  0
 27 28  2  0
 29 32  1  0
 29 28  1  0
 30 29  2  0
 31 30  1  0
 31 26  2  0
 32 33  1  0
 33 34  1  0
 34 35  2  0
 36 35  1  0
 36 40  1  0
 37 36  2  0
 38 33  2  0
 38 37  1  0
 39 38  1  0
 41 42  1  0
 42 45  1  0
 42 44  1  0
 43 41  2  0
 46 47  1  0
 46 21  1  0
 48 46  1  0
 49  1  1  0
 50 49  1  0
 50 51  1  0
 52 53  1  0
 52 51  1  0
 54 65  2  0
 55 53  1  0
 55 60  1  0
 56 64  1  0
 56 66  1  0
 57 63  1  0
 57 59  1  0
 58 64  1  0
 59 58  1  0
 60 59  2  0
 61 62  1  0
 61 55  2  0
 62 57  2  0
 63 56  1  0
 64 54  1  0
 66 68  2  0
 67 66  1  0
 69 67  1  0
 70 79  2  0
 70 75  1  0
 71 67  1  0
 71 75  1  0
 72 71  1  0
 73 74  1  0
 73 72  1  0
 74 70  1  0
 75 76  2  0
 76 77  1  0
 78 77  2  0
 79 78  1  0
 80 54  1  0
 80 81  1  0
 80 90  1  0
 81 84  1  0
 82 86  1  0
 82 81  1  0
 83 82  2  0
 86 85  1  0
 88 86  1  0
 88 89  1  0
 88 87  1  0
 90 93  1  1
 90 91  1  0
 92 90  1  0
M  ISO  4  12 100  13 100  52 101  53 101
M  END
>  <TORSDO>  (6) 
F 22

>  <SCORE>  (6) 
-12.368

>  <name>  (6) 
5

>  <ligand_id>  (6) 
5

>  <original_smiles>  (6) 
[H]c1c([H])c([H])c2c(c1[H])C([H])([H])C([H])([H])C([H])([H])C2([H])N([H])C(=O)C1([H])N(C(=O)C([H])(N([H])C(=O)C([H])(N([H])C([H])([H])[H])C([H])([H])[H])C(C([H])([H])[H])(C([H])([H])[H])C([H])([H])[H])C([H])([H])c2c([H])c(OC([H])([H])C([H])([H])C([H])([H])C([H])([H])N([H])c3c([H])c(C([H])([H])[H])c(C([H])([H])C(=O)N4C([H])([H])C([H])([H])C([H])([H])C([H])(n5nc(-c6c([H])c([H])c(Oc7c([H])c([H])c(F)c([H])c7F)c([H])c6[H])c(C(=O)N([H])[H])c5N([H])[H])C4([H])[H])c(C([H])([H])[H])c3C([H])([H])[H])c([H])c([H])c2C1([H])[H]

>  <smiles>  (6) 
[H]c1c([H])c([H])c2c(c1[H])C([H])([H])C([H])([H])C([H])([H])C2([H])N([H])C(=O)C1([H])N(C(=O)C([H])(N([H])C(=O)C([H])(N([H])C([H])([H])[H])C([H])([H])[H])C(C([H])([H])[H])(C([H])([H])[H])C([H])([H])[H])C([H])([H])c2c([H])c(OC([H])([H])C([H])([H])C([H])([H])C([H])([H])N([H])c3c([H])c(C([H])([H])[H])c(C([H])([H])C(=O)N4C([H])([H])C([H])([H])C([H])([H])C([H])(n5nc(-c6c([H])c([H])c(Oc7c([H])c([H])c(F)c([H])c7F)c([H])c6[H])c(C(=O)N([H])[H])c5N([H])[H])C4([H])[H])c(C([H])([H])[H])c3C([H])([H])[H])c([H])c([H])c2C1([H])[H]

$$$$
6:0:0
     RDKit          3D

 93102  0  0  1  0  0  0  0  0999 V2000
  -28.3170  -22.5570   19.1290 C   0  0  0  0  0  3  0  0  0  0  0  0
  -28.0250  -23.9710   19.1560 C   0  0  0  0  0  3  0  0  0  0  0  0
  -28.8830  -24.1120   21.3720 C   0  0  0  0  0  0  0  0  0  0  0  0
  -29.1950  -22.6740   21.3300 C   0  0  0  0  0  0  0  0  0  0  0  0
  -28.9500  -21.8330   20.1900 C   0  0  0  0  0  0  0  0  0  0  0  0
  -28.3040  -24.8370   20.2610 C   0  0  0  0  0  0  0  0  0  0  0  0
  -29.2080  -24.8990   22.6120 C   0  0  0  0  0  0  0  0  0  0  0  0
  -29.9040  -22.0030   22.5050 C   0  0  0  0  0  2  0  0  0  0  0  0
  -30.1150  -24.2370   23.6440 C   0  0  0  0  0  2  0  0  0  0  0  0
  -29.7700  -22.7620   23.8240 C   0  0  0  0  0  2  0  0  0  0  0  0
  -28.7970  -26.0370   22.8520 O   0  0  0  0  0  0  0  0  0  0  0  0
  -28.2610  -26.2950   20.1840 O   0  0  0  0  0  0  0  0  0  0  0  0
  -24.5800  -31.8600   23.2260 C   0  0  0  0  0  0  0  0  0  0  0  0
  -27.1330  -27.1700   20.2000 C   0  0  0  0  0  0  0  0  0  0  0  0
  -23.3600  -30.4570   21.6040 C   0  0  0  0  0  3  0  0  0  0  0  0
  -24.7920  -28.8670   20.1810 C   0  0  0  0  0  0  0  0  0  0  0  0
  -25.9050  -30.7310   21.4090 C   0  0  0  0  0  2  0  0  0  0  0  0
  -25.9690  -29.3340   20.7750 C   0  0  0  0  0  0  0  0  0  0  0  0
  -27.1390  -28.4990   20.7690 C   0  0  0  0  0  3  0  0  0  0  0  0
  -25.9290  -26.7780   19.5830 C   0  0  0  0  0  3  0  0  0  0  0  0
  -24.7770  -27.5980   19.5750 C   0  0  0  0  0  3  0  0  0  0  0  0
  -23.5630  -29.7620   20.2280 C   0  0  0  0  0  2  0  0  0  0  0  0
  -24.6350  -31.0370   22.1350 N   0  0  0  0  0  0  0  0  0  0  0  0
  -23.5000  -32.1490   23.7630 O   0  0  0  0  0  0  0  0  0  0  0  0
  -22.6900  -29.4580   22.5790 C   0  0  0  0  0  0  0  0  0  0  0  0
  -21.3630  -29.2840   22.4580 N   0  0  0  0  0  0  0  0  0  0  0  0
  -23.3680  -28.8400   23.4050 O   0  0  0  0  0  0  0  0  0  0  0  0
  -20.8730  -29.8340   21.7680 H   0  0  0  0  0  0  0  0  0  0  0  0
  -17.9870  -28.0780   22.9730 C   0  0  0  0  0  0  0  0  0  0  0  0
  -20.5450  -28.3530   23.2390 C   0  0  0  0  0  3  0  0  0  0  0  0
  -20.6520  -26.9130   22.6830 C   0  0  0  0  0  2  0  0  0  0  0  0
  -19.5520  -26.5740   21.6710 C   0  0  0  0  0  2  0  0  0  0  0  0
  -18.1690  -26.7220   22.3120 C   0  0  0  0  0  2  0  0  0  0  0  0
  -19.1020  -28.8510   23.3940 C   0  0  0  0  0  0  0  0  0  0  0  0
  -18.8770  -30.1190   23.9700 C   0  0  0  0  0  3  0  0  0  0  0  0
  -17.5690  -30.6160   24.1300 C   0  0  0  0  0  3  0  0  0  0  0  0
  -16.4690  -29.8410   23.7250 C   0  0  0  0  0  3  0  0  0  0  0  0
  -16.6790  -28.5740   23.1520 C   0  0  0  0  0  3  0  0  0  0  0  0
  -25.8670  -32.4940   23.8380 C   0  0  0  0  0  3  0  0  0  0  0  0
  -26.3880  -31.7270   25.1160 C   0  0  1  0  0  0  0  0  0  0  0  0
  -25.3020  -31.4990   26.1930 C   0  0  0  0  0  1  0  0  0  0  0  0
  -26.9630  -30.3450   24.7300 C   0  0  0  0  0  1  0  0  0  0  0  0
  -27.5470  -32.5190   25.7660 C   0  0  0  0  0  1  0  0  0  0  0  0
  -25.5610  -33.8950   24.1700 N   0  0  0  0  0  0  0  0  0  0  0  0
  -25.8960  -34.9500   23.4140 C   0  0  0  0  0  0  0  0  0  0  0  0
  -26.5640  -34.8450   22.3820 O   0  0  0  0  0  0  0  0  0  0  0  0
  -24.9680  -34.0490   24.9730 H   0  0  0  0  0  0  0  0  0  0  0  0
  -24.1820  -36.7610   23.0630 C   0  0  0  0  0  1  0  0  0  0  0  0
  -25.4190  -36.3410   23.8770 C   0  0  0  0  0  3  0  0  0  0  0  0
  -27.5570  -37.2070   24.7190 C   0  0  0  0  0  1  0  0  0  0  0  0
  -26.4600  -37.3880   23.7720 N   0  0  0  0  0  0  0  0  0  0  0  0
  -26.0590  -38.3100   23.9210 H   0  0  0  0  0  0  0  0  0  0  0  0
  -29.6050  -20.3440   19.9560 C   0  0  0  0  0  2  0  0  0  0  0  0
  -29.1700  -18.8480   20.5330 C   0  0  0  0  0  3  0  0  0  0  0  0
  -30.0970  -17.5100   20.1690 C   0  0  0  0  0  3  0  0  0  0  0  0
  -30.5090  -14.8530   20.3000 C   0  0  0  0  0  0  0  0  0  0  0  0
  -30.3470  -12.5380   19.3220 C   0  0  0  0  0  2  0  0  0  0  0  0
  -29.4050  -12.5570   18.0960 C   0  0  0  0  0  2  0  0  0  0  0  0
  -27.9420  -12.3610   18.5350 C   0  0  0  0  0  2  0  0  0  0  0  0
  -27.5560  -13.2550   19.7440 C   0  0  0  0  0  3  0  0  0  0  0  0
  -28.6220  -13.2190   20.8600 C   0  0  0  0  0  2  0  0  0  0  0  0
  -29.8980  -13.6090   20.2520 N   0  0  0  0  0  0  0  0  0  0  0  0
  -31.6970  -14.9310   19.9740 O   0  0  0  0  0  0  0  0  0  0  0  0
  -29.7430  -16.0210   20.4880 N   0  0  0  0  0  0  0  0  0  0  0  0
  -28.7790  -15.8500   20.7350 H   0  0  0  0  0  0  0  0  0  0  0  0
  -25.1760  -13.8230   20.4950 C   0  0  0  0  0  0  0  0  0  0  0  0
  -24.1170  -13.0420   20.8700 C   0  0  0  0  0  0  0  0  0  0  0  0
  -24.5880  -11.6920   20.8330 C   0  0  0  0  0  0  0  0  0  0  0  0
  -26.2220  -12.9510   20.2470 N   0  0  0  0  0  0  0  0  0  0  0  0
  -25.8780  -11.6650   20.5170 N   0  0  0  0  0  0  0  0  0  0  0  0
  -23.8690  -10.4250   21.0240 C   0  0  0  0  0  0  0  0  0  0  0  0
  -24.3050   -9.4620   21.9610 C   0  0  0  0  0  3  0  0  0  0  0  0
  -23.5840   -8.2630   22.1410 C   0  0  0  0  0  3  0  0  0  0  0  0
  -22.4130   -8.0170   21.3840 C   0  0  0  0  0  0  0  0  0  0  0  0
  -21.9970   -8.9690   20.4370 C   0  0  0  0  0  3  0  0  0  0  0  0
  -22.7190  -10.1610   20.2540 C   0  0  0  0  0  3  0  0  0  0  0  0
  -21.6640   -6.8680   21.4700 O   0  0  0  0  0  0  0  0  0  0  0  0
  -21.6120   -6.1300   22.6250 C   0  0  0  0  0  0  0  0  0  0  0  0
  -21.1740   -6.6860   23.8470 C   0  0  0  0  0  3  0  0  0  0  0  0
  -21.0710   -5.8730   24.9930 C   0  0  0  0  0  3  0  0  0  0  0  0
  -21.3950   -4.5060   24.9200 C   0  0  0  0  0  0  0  0  0  0  0  0
  -21.8250   -3.9480   23.7030 C   0  0  0  0  0  3  0  0  0  0  0  0
  -21.9310   -4.7580   22.5580 C   0  0  0  0  0  0  0  0  0  0  0  0
  -22.3250   -4.2130   21.3810 F   0  0  0  0  0  0  0  0  0  0  0  0
  -21.2880   -3.7220   26.0180 F   0  0  0  0  0  0  0  0  0  0  0  0
  -22.7200  -13.5110   21.1470 C   0  0  0  0  0  0  0  0  0  0  0  0
  -21.9990  -12.8120   22.0170 N   0  0  0  0  0  0  0  0  0  0  0  0
  -22.2720  -14.5320   20.6250 O   0  0  0  0  0  0  0  0  0  0  0  0
  -22.3740  -11.9860   22.4610 H   0  0  0  0  0  0  0  0  0  0  0  0
  -21.0610  -13.1080   22.2430 H   0  0  0  0  0  0  0  0  0  0  0  0
  -25.3290  -15.1940   20.3160 N   0  0  0  0  0  0  0  0  0  0  0  0
  -24.5550  -15.8390   20.4280 H   0  0  0  0  0  0  0  0  0  0  0  0
  -26.1570  -15.6360   19.9400 H   0  0  0  0  0  0  0  0  0  0  0  0
  1  2  2  0
  1  5  1  0
  2  6  1  0
  3  7  1  0
  4  3  1  0
  4  8  1  0
  5  4  2  0
  6  3  2  0
  7 11  2  0
  7  9  1  0
  8 10  1  0
  9 10  1  0
 12 14  1  0
 12  6  1  0
 13 24  2  0
 14 19  1  0
 15 23  1  0
 15 25  1  0
 16 22  1  0
 16 18  1  0
 17 23  1  0
 18 17  1  0
 19 18  2  0
 20 14  2  0
 21 20  1  0
 21 16  2  0
 22 15  1  0
 23 13  1  0
 25 27  2  0
 26 25  1  0
 28 26  1  0
 29 38  2  0
 29 34  1  0
 30 26  1  0
 30 34  1  0
 31 30  1  0
 32 33  1  0
 32 31  1  0
 33 29  1  0
 34 35  2  0
 35 36  1  0
 37 36  2  0
 38 37  1  0
 39 13  1  0
 39 44  1  0
 39 40  1  0
 40 43  1  1
 40 41  1  0
 42 40  1  0
 44 47  1  0
 45 49  1  0
 45 44  1  0
 46 45  2  0
 49 48  1  0
 51 49  1  0
 51 52  1  0
 51 50  1  0
 53  5  1  0
 53 54  1  0
 55 64  1  0
 55 54  2  0
 56 64  1  0
 57 62  1  0
 58 59  1  0
 58 57  1  0
 60 59  1  0
 60 69  1  0
 60 61  1  0
 62 56  1  0
 62 61  1  0
 63 56  2  0
 64 65  1  0
 66 67  2  0
 67 86  1  0
 68 67  1  0
 68 71  1  0
 69 66  1  0
 69 70  1  0
 70 68  2  0
 71 72  1  0
 72 73  2  0
 74 77  1  0
 74 73  1  0
 75 74  2  0
 76 75  1  0
 76 71  2  0
 77 78  1  0
 78 79  1  0
 79 80  2  0
 81 80  1  0
 81 85  1  0
 82 81  2  0
 83 78  2  0
 83 82  1  0
 84 83  1  0
 86 87  1  0
 87 90  1  0
 87 89  1  0
 88 86  2  0
 91 92  1  0
 91 66  1  0
 93 91  1  0
M  ISO  4   6 101  12 101  56 100  64 100
M  END
>  <TORSDO>  (7) 
F 19

>  <SCORE>  (7) 
-13.814

>  <name>  (7) 
6

>  <ligand_id>  (7) 
6

>  <original_smiles>  (7) 
[H]c1c([H])c([H])c2c(c1[H])C([H])([H])C([H])([H])C([H])([H])C2([H])N([H])C(=O)C1([H])N(C(=O)C([H])(N([H])C(=O)C([H])(N([H])C([H])([H])[H])C([H])([H])[H])C(C([H])([H])[H])(C([H])([H])[H])C([H])([H])[H])C([H])([H])c2c([H])c(Oc3c([H])c([H])c(C([H])([H])C([H])([H])C([H])([H])N([H])C(=O)N4C([H])([H])C([H])([H])C([H])([H])C([H])(n5nc(-c6c([H])c([H])c(Oc7c([H])c([H])c(F)c([H])c7F)c([H])c6[H])c(C(=O)N([H])[H])c5N([H])[H])C4([H])[H])c4c3C(=O)C([H])([H])C([H])([H])C4([H])[H])c([H])c([H])c2C1([H])[H]

>  <smiles>  (7) 
[H]c1c([H])c([H])c2c(c1[H])C([H])([H])C([H])([H])C([H])([H])C2([H])N([H])C(=O)C1([H])N(C(=O)C([H])(N([H])C(=O)C([H])(N([H])C([H])([H])[H])C([H])([H])[H])C(C([H])([H])[H])(C([H])([H])[H])C([H])([H])[H])C([H])([H])c2c([H])c(Oc3c([H])c([H])c(C([H])([H])C([H])([H])C([H])([H])N([H])C(=O)N4C([H])([H])C([H])([H])C([H])([H])C([H])(n5nc(-c6c([H])c([H])c(Oc7c([H])c([H])c(F)c([H])c7F)c([H])c6[H])c(C(=O)N([H])[H])c5N([H])[H])C4([H])[H])c4c3C(=O)C([H])([H])C([H])([H])C4([H])[H])c([H])c([H])c2C1([H])[H]

$$$$
7:0:0
     RDKit          3D

 97105  0  0  1  0  0  0  0  0999 V2000
  -29.0370  -23.7000   23.1010 C   0  0  0  0  0  2  0  0  0  0  0  0
  -28.8550  -27.0310   20.2940 C   0  0  0  0  0  3  0  0  0  0  0  0
  -29.7870  -27.0760   21.3420 C   0  0  0  0  0  3  0  0  0  0  0  0
  -28.0170  -24.9080   21.1500 C   0  0  0  0  0  3  0  0  0  0  0  0
  -28.9840  -24.9170   22.1780 C   0  0  0  0  0  0  0  0  0  0  0  0
  -27.9340  -25.9710   20.2300 C   0  0  0  0  0  0  0  0  0  0  0  0
  -29.8410  -26.0430   22.2960 C   0  0  0  0  0  0  0  0  0  0  0  0
  -30.7230  -26.1600   23.3130 F   0  0  0  0  0  0  0  0  0  0  0  0
  -26.9460  -25.9950   19.2890 O   0  0  0  0  0  0  0  0  0  0  0  0
  -24.4190  -31.4740   23.0950 C   0  0  0  0  0  0  0  0  0  0  0  0
  -25.9290  -26.8800   19.5270 C   0  0  0  0  0  0  0  0  0  0  0  0
  -22.8060  -30.3470   21.5980 C   0  0  0  0  0  3  0  0  0  0  0  0
  -23.8060  -28.6850   19.9400 C   0  0  0  0  0  0  0  0  0  0  0  0
  -25.3040  -30.3460   21.0610 C   0  0  0  0  0  2  0  0  0  0  0  0
  -25.0930  -29.0120   20.3800 C   0  0  0  0  0  0  0  0  0  0  0  0
  -26.1590  -28.1110   20.1820 C   0  0  0  0  0  3  0  0  0  0  0  0
  -24.6300  -26.5570   19.0930 C   0  0  0  0  0  3  0  0  0  0  0  0
  -23.5650  -27.4530   19.3020 C   0  0  0  0  0  3  0  0  0  0  0  0
  -22.7210  -29.7100   20.1840 C   0  0  0  0  0  2  0  0  0  0  0  0
  -24.2040  -30.7310   21.9740 N   0  0  0  0  0  0  0  0  0  0  0  0
  -23.4740  -31.8770   23.7870 O   0  0  0  0  0  0  0  0  0  0  0  0
  -22.1430  -29.3850   22.6090 C   0  0  0  0  0  0  0  0  0  0  0  0
  -20.8110  -29.2590   22.5270 N   0  0  0  0  0  0  0  0  0  0  0  0
  -22.8230  -28.7570   23.4250 O   0  0  0  0  0  0  0  0  0  0  0  0
  -20.3230  -29.8220   21.8440 H   0  0  0  0  0  0  0  0  0  0  0  0
  -17.4420  -28.0330   22.9690 C   0  0  0  0  0  0  0  0  0  0  0  0
  -19.9770  -28.3750   23.3410 C   0  0  0  0  0  3  0  0  0  0  0  0
  -20.1400  -26.9000   22.9010 C   0  0  0  0  0  2  0  0  0  0  0  0
  -19.0850  -26.4410   21.8920 C   0  0  0  0  0  2  0  0  0  0  0  0
  -17.6730  -26.6230   22.4530 C   0  0  0  0  0  2  0  0  0  0  0  0
  -18.5240  -28.8590   23.3740 C   0  0  0  0  0  0  0  0  0  0  0  0
  -18.2510  -30.1720   23.8190 C   0  0  0  0  0  3  0  0  0  0  0  0
  -16.9320  -30.6610   23.8610 C   0  0  0  0  0  3  0  0  0  0  0  0
  -15.8630  -29.8330   23.4720 C   0  0  0  0  0  3  0  0  0  0  0  0
  -16.1200  -28.5210   23.0340 C   0  0  0  0  0  3  0  0  0  0  0  0
  -25.8600  -31.8740   23.5470 C   0  0  0  0  0  3  0  0  0  0  0  0
  -25.7960  -33.2400   24.0850 N   0  0  0  0  0  0  0  0  0  0  0  0
  -26.2690  -34.3250   23.4590 C   0  0  0  0  0  0  0  0  0  0  0  0
  -26.8800  -34.2680   22.3880 O   0  0  0  0  0  0  0  0  0  0  0  0
  -25.2590  -33.3680   24.9310 H   0  0  0  0  0  0  0  0  0  0  0  0
  -24.8750  -36.4140   23.4000 C   0  0  0  0  0  1  0  0  0  0  0  0
  -26.0200  -35.6910   24.1260 C   0  0  0  0  0  3  0  0  0  0  0  0
  -28.2680  -36.0560   25.0420 C   0  0  0  0  0  1  0  0  0  0  0  0
  -27.2190  -36.5570   24.1550 N   0  0  0  0  0  0  0  0  0  0  0  0
  -26.9770  -37.5010   24.4500 H   0  0  0  0  0  0  0  0  0  0  0  0
  -26.4790  -30.8830   24.6080 C   0  0  1  0  0  0  0  0  0  0  0  0
  -25.5500  -30.6060   25.8150 C   0  0  0  0  0  1  0  0  0  0  0  0
  -26.8110  -29.5250   23.9490 C   0  0  0  0  0  1  0  0  0  0  0  0
  -27.8150  -31.4510   25.1420 C   0  0  0  0  0  1  0  0  0  0  0  0
  -30.4250  -23.3010   23.6440 C   0  0  0  0  0  2  0  0  0  0  0  0
  -30.6160  -21.7820   23.8140 C   0  0  0  0  0  2  0  0  0  0  0  0
  -31.0630  -21.1610   22.5490 N   0  0  0  0  0  4  0  0  0  0  0  0
  -31.9530  -21.5580   22.3020 H   0  0  0  0  0  0  0  0  0  0  0  0
  -30.4070  -21.3980   21.8230 H   0  0  0  0  0  0  0  0  0  0  0  0
  -31.2020  -19.6910   22.5850 C   0  0  0  0  0  2  0  0  0  0  0  0
  -31.4680  -19.1180   21.1770 C   0  0  0  0  0  2  0  0  0  0  0  0
  -31.0190  -17.6560   21.0350 C   0  0  0  0  0  2  0  0  0  0  0  0
  -33.2320  -16.7550   20.0940 C   0  0  0  0  0  1  0  0  0  0  0  0
  -31.7110  -16.8790   19.8950 C   0  0  0  0  0  3  0  0  0  0  0  0
  -31.4420  -14.5460   19.0140 C   0  0  0  0  0  0  0  0  0  0  0  0
  -31.1210  -12.1320   18.6160 C   0  0  0  0  0  2  0  0  0  0  0  0
  -30.0640  -11.8420   17.5360 C   0  0  0  0  0  2  0  0  0  0  0  0
  -28.6470  -11.8270   18.1390 C   0  0  0  0  0  2  0  0  0  0  0  0
  -28.3630  -13.0710   19.0170 C   0  0  0  0  0  3  0  0  0  0  0  0
  -29.5060  -13.2940   20.0270 C   0  0  0  0  0  2  0  0  0  0  0  0
  -30.7780  -13.3940   19.2810 N   0  0  0  0  0  0  0  0  0  0  0  0
  -32.3210  -14.6520   18.1520 O   0  0  0  0  0  0  0  0  0  0  0  0
  -31.1360  -15.5430   19.8480 N   0  0  0  0  0  0  0  0  0  0  0  0
  -30.4450  -15.3180   20.5480 H   0  0  0  0  0  0  0  0  0  0  0  0
  -26.1770  -13.9600   20.0560 C   0  0  0  0  0  0  0  0  0  0  0  0
  -25.0840  -13.3170   20.5750 C   0  0  0  0  0  0  0  0  0  0  0  0
  -25.3680  -11.9210   20.4800 C   0  0  0  0  0  0  0  0  0  0  0  0
  -27.0650  -12.9630   19.6820 N   0  0  0  0  0  0  0  0  0  0  0  0
  -26.5850  -11.7300   19.9890 N   0  0  0  0  0  0  0  0  0  0  0  0
  -24.5280  -10.7540   20.7700 C   0  0  0  0  0  0  0  0  0  0  0  0
  -24.9040   -9.7980   21.7400 C   0  0  0  0  0  3  0  0  0  0  0  0
  -24.0710   -8.6920   22.0160 C   0  0  0  0  0  3  0  0  0  0  0  0
  -22.8470   -8.5360   21.3220 C   0  0  0  0  0  0  0  0  0  0  0  0
  -22.4940   -9.4750   20.3370 C   0  0  0  0  0  3  0  0  0  0  0  0
  -23.3250  -10.5720   20.0600 C   0  0  0  0  0  3  0  0  0  0  0  0
  -21.9850   -7.4810   21.5060 O   0  0  0  0  0  0  0  0  0  0  0  0
  -21.8350   -6.8770   22.7290 C   0  0  0  0  0  0  0  0  0  0  0  0
  -21.4370   -7.6040   23.8720 C   0  0  0  0  0  3  0  0  0  0  0  0
  -21.2280   -6.9330   25.0940 C   0  0  0  0  0  3  0  0  0  0  0  0
  -21.4070   -5.5390   25.1720 C   0  0  0  0  0  0  0  0  0  0  0  0
  -21.7980   -4.8140   24.0330 C   0  0  0  0  0  3  0  0  0  0  0  0
  -22.0090   -5.4820   22.8140 C   0  0  0  0  0  0  0  0  0  0  0  0
  -22.3650   -4.7760   21.7130 F   0  0  0  0  0  0  0  0  0  0  0  0
  -21.1990   -4.8940   26.3430 F   0  0  0  0  0  0  0  0  0  0  0  0
  -23.8100  -13.9550   21.0490 C   0  0  0  0  0  0  0  0  0  0  0  0
  -23.1700  -13.3640   22.0520 N   0  0  0  0  0  0  0  0  0  0  0  0
  -23.4020  -15.0100   20.5650 O   0  0  0  0  0  0  0  0  0  0  0  0
  -23.5160  -12.5080   22.4610 H   0  0  0  0  0  0  0  0  0  0  0  0
  -22.3200  -13.7700   22.4180 H   0  0  0  0  0  0  0  0  0  0  0  0
  -26.4860  -15.3000   19.8530 N   0  0  0  0  0  0  0  0  0  0  0  0
  -25.8470  -16.0560   20.0710 H   0  0  0  0  0  0  0  0  0  0  0  0
  -27.3350  -15.6240   19.4040 H   0  0  0  0  0  0  0  0  0  0  0  0
  1 50  1  0
  2  3  1  0
  3  7  2  0
  4  5  2  0
  5  7  1  0
  5  1  1  0
  6  2  2  0
  6  4  1  0
  7  8  1  0
  9 11  1  0
  9  6  1  0
 10 21  2  0
 11 16  1  0
 12 20  1  0
 12 22  1  0
 13 19  1  0
 13 15  1  0
 14 20  1  0
 15 14  1  0
 16 15  2  0
 17 18  1  0
 17 11  2  0
 18 13  2  0
 19 12  1  0
 20 10  1  0
 22 24  2  0
 23 22  1  0
 25 23  1  0
 26 35  2  0
 26 31  1  0
 27 23  1  0
 27 31  1  0
 28 27  1  0
 29 30  1  0
 29 28  1  0
 30 26  1  0
 31 32  2  0
 32 33  1  0
 34 33  2  0
 35 34  1  0
 36 10  1  0
 36 37  1  0
 36 46  1  0
 37 40  1  0
 38 37  1  0
 38 42  1  0
 39 38  2  0
 42 41  1  0
 42 44  1  0
 44 45  1  0
 44 43  1  0
 46 49  1  1
 46 47  1  0
 48 46  1  0
 50 51  1  0
 52 55  1  0
 52 51  1  0
 53 52  1  0
 54 52  1  0
 56 55  1  0
 57 56  1  0
 59 58  1  0
 59 57  1  0
 60 66  1  0
 60 68  1  0
 61 66  1  0
 62 63  1  0
 62 61  1  0
 64 63  1  0
 64 73  1  0
 64 65  1  0
 66 65  1  0
 67 60  2  0
 68 59  1  0
 68 69  1  0
 70 71  2  0
 71 90  1  0
 72 71  1  0
 72 75  1  0
 73 74  1  0
 73 70  1  0
 74 72  2  0
 75 76  1  0
 76 77  2  0
 78 81  1  0
 78 77  1  0
 79 78  2  0
 80 79  1  0
 80 75  2  0
 81 82  1  0
 82 87  2  0
 82 83  1  0
 83 84  2  0
 84 85  1  0
 85 89  1  0
 86 85  2  0
 87 86  1  0
 88 87  1  0
 90 91  1  0
 91 94  1  0
 91 93  1  0
 92 90  2  0
 95 70  1  0
 95 96  1  0
 97 95  1  0
M  ISO  4   6 101   9 101  60 100  68 100
M  END
>  <TORSDO>  (8) 
F 24

>  <SCORE>  (8) 
-9.241

>  <name>  (8) 
7

>  <ligand_id>  (8) 
7

>  <original_smiles>  (8) 
[H]c1c([H])c([H])c2c(c1[H])C([H])([H])C([H])([H])C([H])([H])C2([H])N([H])C(=O)C1([H])N(C(=O)C([H])(N([H])C(=O)C([H])(N([H])C([H])([H])[H])C([H])([H])[H])C(C([H])([H])[H])(C([H])([H])[H])C([H])([H])[H])C([H])([H])c2c([H])c(Oc3c([H])c([H])c(F)c(C([H])([H])C([H])([H])C([H])([H])[N+]([H])([H])C([H])([H])C([H])([H])C([H])([H])C([H])(N([H])C(=O)N4C([H])([H])C([H])([H])C([H])([H])C([H])(n5nc(-c6c([H])c([H])c(Oc7c([H])c([H])c(F)c([H])c7F)c([H])c6[H])c(C(=O)N([H])[H])c5N([H])[H])C4([H])[H])C([H])([H])[H])c3[H])c([H])c([H])c2C1([H])[H]

>  <smiles>  (8) 
[H]c1c([H])c([H])c2c(c1[H])C([H])([H])C([H])([H])C([H])([H])C2([H])N([H])C(=O)C1([H])N(C(=O)C([H])(N([H])C(=O)C([H])(N([H])C([H])([H])[H])C([H])([H])[H])C(C([H])([H])[H])(C([H])([H])[H])C([H])([H])[H])C([H])([H])c2c([H])c(Oc3c([H])c([H])c(F)c(C([H])([H])C([H])([H])C([H])([H])[N+]([H])([H])C([H])([H])C([H])([H])C([H])([H])C([H])(N([H])C(=O)N4C([H])([H])C([H])([H])C([H])([H])C([H])(n5nc(-c6c([H])c([H])c(Oc7c([H])c([H])c(F)c([H])c7F)c([H])c6[H])c(C(=O)N([H])[H])c5N([H])[H])C4([H])[H])C([H])([H])[H])c3[H])c([H])c([H])c2C1([H])[H]

$$$$
8:0:0
     RDKit          3D

 94102  0  0  1  0  0  0  0  0999 V2000
  -32.2220  -24.6660   20.5180 C   0  0  0  0  0  3  0  0  0  0  0  0
  -31.1850  -22.5330   20.0520 C   0  0  0  0  0  3  0  0  0  0  0  0
  -32.3430  -23.3010   20.2350 C   0  0  0  0  0  0  0  0  0  0  0  0
  -30.9590  -25.2840   20.5770 C   0  0  0  0  0  0  0  0  0  0  0  0
  -29.8950  -23.1070   20.1260 C   0  0  0  0  0  0  0  0  0  0  0  0
  -29.7650  -24.5350   20.3180 C   0  0  0  0  0  0  0  0  0  0  0  0
  -33.7170  -22.6660   20.1450 C   0  0  0  0  0  1  0  0  0  0  0  0
  -30.9700  -26.7620   20.9450 C   0  0  0  0  0  1  0  0  0  0  0  0
  -28.6960  -22.1450   19.9700 C   0  0  0  0  0  2  0  0  0  0  0  0
  -28.7360  -20.7750   20.7500 C   0  0  0  0  0  2  0  0  0  0  0  0
  -29.5080  -19.6420   20.1390 N   0  0  0  0  0  4  0  0  0  0  0  0
  -30.4810  -19.8930   20.1040 H   0  0  0  0  0  0  0  0  0  0  0  0
  -29.1860  -19.5180   19.1930 H   0  0  0  0  0  0  0  0  0  0  0  0
  -29.3790  -18.3300   20.8560 C   0  0  0  0  0  2  0  0  0  0  0  0
  -30.1490  -17.1290   20.2090 C   0  0  0  0  0  2  0  0  0  0  0  0
  -29.9110  -15.7450   20.9100 C   0  0  0  0  0  2  0  0  0  0  0  0
  -30.6000  -14.5150   20.2400 C   0  0  0  0  0  0  0  0  0  0  0  0
  -30.2960  -12.3490   19.0750 C   0  0  0  0  0  2  0  0  0  0  0  0
  -29.3210  -12.5640   17.8970 C   0  0  0  0  0  2  0  0  0  0  0  0
  -27.8560  -12.4300   18.3610 C   0  0  0  0  0  2  0  0  0  0  0  0
  -27.5600  -13.2520   19.6430 C   0  0  0  0  0  3  0  0  0  0  0  0
  -28.6420  -13.0030   20.7190 C   0  0  0  0  0  2  0  0  0  0  0  0
  -29.9470  -13.3230   20.1230 N   0  0  0  0  0  0  0  0  0  0  0  0
  -31.7130  -14.6880   19.7330 O   0  0  0  0  0  0  0  0  0  0  0  0
  -25.1810  -13.8790   20.4020 C   0  0  0  0  0  0  0  0  0  0  0  0
  -24.1150  -13.1160   20.7980 C   0  0  0  0  0  0  0  0  0  0  0  0
  -24.5660  -11.7610   20.7630 C   0  0  0  0  0  0  0  0  0  0  0  0
  -26.2150  -12.9880   20.1530 N   0  0  0  0  0  0  0  0  0  0  0  0
  -25.8500  -11.7090   20.4260 N   0  0  0  0  0  0  0  0  0  0  0  0
  -23.8360  -10.5040   20.9740 C   0  0  0  0  0  0  0  0  0  0  0  0
  -24.2870   -9.5350   21.8970 C   0  0  0  0  0  3  0  0  0  0  0  0
  -23.5580   -8.3420   22.0970 C   0  0  0  0  0  3  0  0  0  0  0  0
  -22.3640   -8.1120   21.3730 C   0  0  0  0  0  0  0  0  0  0  0  0
  -21.9330   -9.0700   20.4390 C   0  0  0  0  0  3  0  0  0  0  0  0
  -22.6620  -10.2530   20.2370 C   0  0  0  0  0  3  0  0  0  0  0  0
  -21.6050   -6.9710   21.4810 O   0  0  0  0  0  0  0  0  0  0  0  0
  -21.5870   -6.2260   22.6330 C   0  0  0  0  0  0  0  0  0  0  0  0
  -21.2220   -6.7860   23.8770 C   0  0  0  0  0  3  0  0  0  0  0  0
  -21.1500   -5.9670   25.0220 C   0  0  0  0  0  3  0  0  0  0  0  0
  -21.4320   -4.5920   24.9240 C   0  0  0  0  0  0  0  0  0  0  0  0
  -21.7900   -4.0320   23.6840 C   0  0  0  0  0  3  0  0  0  0  0  0
  -21.8650   -4.8470   22.5420 C   0  0  0  0  0  0  0  0  0  0  0  0
  -22.1890   -4.2990   21.3470 F   0  0  0  0  0  0  0  0  0  0  0  0
  -21.3550   -3.8050   26.0210 F   0  0  0  0  0  0  0  0  0  0  0  0
  -22.7280  -13.6040   21.0990 C   0  0  0  0  0  0  0  0  0  0  0  0
  -22.0180  -12.9170   21.9860 N   0  0  0  0  0  0  0  0  0  0  0  0
  -22.2840  -14.6290   20.5830 O   0  0  0  0  0  0  0  0  0  0  0  0
  -22.3910  -12.0880   22.4240 H   0  0  0  0  0  0  0  0  0  0  0  0
  -21.0860  -13.2240   22.2310 H   0  0  0  0  0  0  0  0  0  0  0  0
  -25.3550  -15.2470   20.2150 N   0  0  0  0  0  0  0  0  0  0  0  0
  -24.5960  -15.9100   20.3310 H   0  0  0  0  0  0  0  0  0  0  0  0
  -26.1990  -15.6710   19.8530 H   0  0  0  0  0  0  0  0  0  0  0  0
  -28.3760  -25.2370   20.2440 C   0  0  0  0  0  2  0  0  0  0  0  0
  -28.3980  -26.6780   20.0900 O   0  0  0  0  0  0  0  0  0  0  0  0
  -24.6020  -31.8680   23.2000 C   0  0  0  0  0  0  0  0  0  0  0  0
  -27.2150  -27.3950   20.1070 C   0  0  0  0  0  0  0  0  0  0  0  0
  -23.3840  -30.4730   21.5610 C   0  0  0  0  0  3  0  0  0  0  0  0
  -24.8250  -28.9270   20.1310 C   0  0  0  0  0  0  0  0  0  0  0  0
  -25.9110  -30.8200   21.3490 C   0  0  0  0  0  2  0  0  0  0  0  0
  -25.9890  -29.4460   20.7070 C   0  0  0  0  0  0  0  0  0  0  0  0
  -27.1880  -28.6920   20.6820 C   0  0  0  0  0  3  0  0  0  0  0  0
  -26.0270  -26.8930   19.5310 C   0  0  0  0  0  3  0  0  0  0  0  0
  -24.8410  -27.6520   19.5370 C   0  0  0  0  0  3  0  0  0  0  0  0
  -23.5850  -29.7920   20.1810 C   0  0  0  0  0  2  0  0  0  0  0  0
  -24.6510  -31.0700   22.0950 N   0  0  0  0  0  0  0  0  0  0  0  0
  -23.5250  -32.1410   23.7460 O   0  0  0  0  0  0  0  0  0  0  0  0
  -22.7320  -29.4540   22.5240 C   0  0  0  0  0  0  0  0  0  0  0  0
  -21.4060  -29.2780   22.4050 N   0  0  0  0  0  0  0  0  0  0  0  0
  -23.4170  -28.8250   23.3340 O   0  0  0  0  0  0  0  0  0  0  0  0
  -20.9140  -29.8400   21.7230 H   0  0  0  0  0  0  0  0  0  0  0  0
  -18.0320  -28.0830   22.9060 C   0  0  0  0  0  0  0  0  0  0  0  0
  -20.5910  -28.3400   23.1760 C   0  0  0  0  0  3  0  0  0  0  0  0
  -20.6920  -26.9100   22.6010 C   0  0  0  0  0  2  0  0  0  0  0  0
  -19.5890  -26.5870   21.5870 C   0  0  0  0  0  2  0  0  0  0  0  0
  -18.2080  -26.7330   22.2320 C   0  0  0  0  0  2  0  0  0  0  0  0
  -19.1510  -28.8450   23.3350 C   0  0  0  0  0  0  0  0  0  0  0  0
  -18.9340  -30.1090   23.9250 C   0  0  0  0  0  3  0  0  0  0  0  0
  -17.6300  -30.6120   24.0900 C   0  0  0  0  0  3  0  0  0  0  0  0
  -16.5250  -29.8470   23.6780 C   0  0  0  0  0  3  0  0  0  0  0  0
  -16.7270  -28.5840   23.0920 C   0  0  0  0  0  3  0  0  0  0  0  0
  -25.8930  -32.4950   23.8150 C   0  0  0  0  0  3  0  0  0  0  0  0
  -25.5840  -33.8870   24.1690 N   0  0  0  0  0  0  0  0  0  0  0  0
  -25.9000  -34.9510   23.4180 C   0  0  0  0  0  0  0  0  0  0  0  0
  -26.5530  -34.8630   22.3740 O   0  0  0  0  0  0  0  0  0  0  0  0
  -25.0040  -34.0290   24.9830 H   0  0  0  0  0  0  0  0  0  0  0  0
  -24.1540  -36.7360   23.1200 C   0  0  0  0  0  1  0  0  0  0  0  0
  -25.4150  -36.3310   23.9010 C   0  0  0  0  0  3  0  0  0  0  0  0
  -27.5630  -37.2180   24.6910 C   0  0  0  0  0  1  0  0  0  0  0  0
  -26.4380  -37.3920   23.7770 N   0  0  0  0  0  0  0  0  0  0  0  0
  -26.0310  -38.3070   23.9450 H   0  0  0  0  0  0  0  0  0  0  0  0
  -26.4280  -31.7060   25.0730 C   0  0  1  0  0  0  0  0  0  0  0  0
  -25.3510  -31.4510   26.1520 C   0  0  0  0  0  1  0  0  0  0  0  0
  -27.0080  -30.3360   24.6500 C   0  0  0  0  0  1  0  0  0  0  0  0
  -27.5870  -32.4920   25.7320 C   0  0  0  0  0  1  0  0  0  0  0  0
  1  4  1  0
  2  5  2  0
  2  3  1  0
  3  1  2  0
  4  8  1  0
  5  6  1  0
  6  4  2  0
  7  3  1  0
  9  5  1  0
  9 10  1  0
 11 10  1  0
 11 14  1  0
 12 11  1  0
 13 11  1  0
 15 14  1  0
 15 16  1  0
 17 16  1  0
 18 23  1  0
 19 20  1  0
 19 18  1  0
 21 20  1  0
 21 28  1  0
 21 22  1  0
 23 17  1  0
 23 22  1  0
 24 17  2  0
 25 26  2  0
 26 45  1  0
 27 26  1  0
 27 30  1  0
 28 25  1  0
 28 29  1  0
 29 27  2  0
 30 31  1  0
 31 32  2  0
 33 36  1  0
 33 32  1  0
 34 33  2  0
 35 34  1  0
 35 30  2  0
 36 37  1  0
 37 38  1  0
 38 39  2  0
 40 39  1  0
 40 44  1  0
 41 40  2  0
 42 37  2  0
 42 41  1  0
 43 42  1  0
 45 46  1  0
 46 49  1  0
 46 48  1  0
 47 45  2  0
 50 51  1  0
 50 25  1  0
 52 50  1  0
 53  6  1  0
 54 56  1  0
 54 53  1  0
 55 66  2  0
 56 61  1  0
 57 65  1  0
 57 67  1  0
 58 64  1  0
 58 60  1  0
 59 65  1  0
 60 59  1  0
 61 60  2  0
 62 63  1  0
 62 56  2  0
 63 58  2  0
 64 57  1  0
 65 55  1  0
 67 69  2  0
 68 67  1  0
 70 68  1  0
 71 80  2  0
 71 76  1  0
 72 68  1  0
 72 76  1  0
 73 72  1  0
 74 75  1  0
 74 73  1  0
 75 71  1  0
 76 77  2  0
 77 78  1  0
 79 78  2  0
 80 79  1  0
 81 55  1  0
 81 82  1  0
 81 91  1  0
 82 85  1  0
 83 87  1  0
 83 82  1  0
 84 83  2  0
 87 86  1  0
 89 87  1  0
 89 90  1  0
 89 88  1  0
 91 94  1  1
 91 92  1  0
 93 91  1  0
M  ISO  4  16 100  17 100  53 101  54 101
M  END
>  <TORSDO>  (9) 
F 23

>  <SCORE>  (9) 
-12.488

>  <name>  (9) 
8

>  <ligand_id>  (9) 
8

>  <original_smiles>  (9) 
[H]c1c([H])c([H])c2c(c1[H])C([H])([H])C([H])([H])C([H])([H])C2([H])N([H])C(=O)C1([H])N(C(=O)C([H])(N([H])C(=O)C([H])(N([H])C([H])([H])[H])C([H])([H])[H])C(C([H])([H])[H])(C([H])([H])[H])C([H])([H])[H])C([H])([H])c2c([H])c(OC([H])([H])c3c(C([H])([H])[H])c([H])c(C([H])([H])[H])c([H])c3C([H])([H])C([H])([H])[N+]([H])([H])C([H])([H])C([H])([H])C([H])([H])C(=O)N3C([H])([H])C([H])([H])C([H])([H])C([H])(n4nc(-c5c([H])c([H])c(Oc6c([H])c([H])c(F)c([H])c6F)c([H])c5[H])c(C(=O)N([H])[H])c4N([H])[H])C3([H])[H])c([H])c([H])c2C1([H])[H]

>  <smiles>  (9) 
[H]c1c([H])c([H])c2c(c1[H])C([H])([H])C([H])([H])C([H])([H])C2([H])N([H])C(=O)C1([H])N(C(=O)C([H])(N([H])C(=O)C([H])(N([H])C([H])([H])[H])C([H])([H])[H])C(C([H])([H])[H])(C([H])([H])[H])C([H])([H])[H])C([H])([H])c2c([H])c(OC([H])([H])c3c(C([H])([H])[H])c([H])c(C([H])([H])[H])c([H])c3C([H])([H])C([H])([H])[N+]([H])([H])C([H])([H])C([H])([H])C([H])([H])C(=O)N3C([H])([H])C([H])([H])C([H])([H])C([H])(n4nc(-c5c([H])c([H])c(Oc6c([H])c([H])c(F)c([H])c6F)c([H])c5[H])c(C(=O)N([H])[H])c4N([H])[H])C3([H])[H])c([H])c([H])c2C1([H])[H]

$$$$
9:0:0
     RDKit          3D

 96104  0  0  1  0  0  0  0  0999 V2000
  -29.0500  -21.1480   21.1260 C   0  0  0  0  0  3  0  0  0  0  0  0
  -30.3310  -22.6700   19.1560 C   0  0  0  0  0  3  0  0  0  0  0  0
  -29.2150  -22.5330   21.3210 C   0  0  0  0  0  0  0  0  0  0  0  0
  -29.4710  -20.5160   19.9340 C   0  0  0  0  0  0  0  0  0  0  0  0
  -29.8280  -23.3120   20.3060 C   0  0  0  0  0  0  0  0  0  0  0  0
  -30.1630  -21.2850   18.9650 C   0  0  0  0  0  0  0  0  0  0  0  0
  -28.6610  -23.1240   22.6090 C   0  0  0  0  0  1  0  0  0  0  0  0
  -30.6420  -20.7240   17.8180 O   0  0  0  0  0  0  0  0  0  0  0  0
  -31.1630  -21.3320   17.3010 H   0  0  0  0  0  0  0  0  0  0  0  0
  -29.8920  -24.8330   20.3710 C   0  0  0  0  0  2  0  0  0  0  0  0
  -28.5680  -25.4600   19.8890 C   0  0  0  0  0  2  0  0  0  0  0  0
  -28.5260  -26.8460   20.2030 O   0  0  0  0  0  0  0  0  0  0  0  0
  -24.6310  -31.9190   23.2550 C   0  0  0  0  0  0  0  0  0  0  0  0
  -27.3070  -27.4950   20.1880 C   0  0  0  0  0  0  0  0  0  0  0  0
  -23.4280  -30.5040   21.6140 C   0  0  0  0  0  3  0  0  0  0  0  0
  -24.8900  -28.9650   20.1960 C   0  0  0  0  0  0  0  0  0  0  0  0
  -25.9480  -30.8760   21.4170 C   0  0  0  0  0  2  0  0  0  0  0  0
  -26.0400  -29.5040   20.7830 C   0  0  0  0  0  0  0  0  0  0  0  0
  -27.2460  -28.7740   20.7780 C   0  0  0  0  0  3  0  0  0  0  0  0
  -26.1350  -26.9580   19.6030 C   0  0  0  0  0  3  0  0  0  0  0  0
  -24.9320  -27.6910   19.6010 C   0  0  0  0  0  3  0  0  0  0  0  0
  -23.6380  -29.8100   20.2390 C   0  0  0  0  0  2  0  0  0  0  0  0
  -24.6860  -31.1130   22.1540 N   0  0  0  0  0  0  0  0  0  0  0  0
  -23.5500  -32.1910   23.7930 O   0  0  0  0  0  0  0  0  0  0  0  0
  -22.7760  -29.4900   22.5810 C   0  0  0  0  0  0  0  0  0  0  0  0
  -21.4510  -29.3140   22.4560 N   0  0  0  0  0  0  0  0  0  0  0  0
  -23.4610  -28.8620   23.3930 O   0  0  0  0  0  0  0  0  0  0  0  0
  -20.9620  -29.8690   21.7680 H   0  0  0  0  0  0  0  0  0  0  0  0
  -18.0730  -28.1410   22.9670 C   0  0  0  0  0  0  0  0  0  0  0  0
  -20.6330  -28.3820   23.2310 C   0  0  0  0  0  3  0  0  0  0  0  0
  -20.7250  -26.9510   22.6530 C   0  0  0  0  0  2  0  0  0  0  0  0
  -19.6190  -26.6360   21.6420 C   0  0  0  0  0  2  0  0  0  0  0  0
  -18.2400  -26.7910   22.2900 C   0  0  0  0  0  2  0  0  0  0  0  0
  -19.1980  -28.8950   23.3950 C   0  0  0  0  0  0  0  0  0  0  0  0
  -18.9910  -30.1610   23.9860 C   0  0  0  0  0  3  0  0  0  0  0  0
  -17.6900  -30.6730   24.1540 C   0  0  0  0  0  3  0  0  0  0  0  0
  -16.5800  -29.9160   23.7440 C   0  0  0  0  0  3  0  0  0  0  0  0
  -16.7710  -28.6510   23.1580 C   0  0  0  0  0  3  0  0  0  0  0  0
  -25.9180  -32.5520   23.8720 C   0  0  0  0  0  3  0  0  0  0  0  0
  -25.6140  -33.9510   24.1960 N   0  0  0  0  0  0  0  0  0  0  0  0
  -25.9540  -35.0000   23.4340 C   0  0  0  0  0  0  0  0  0  0  0  0
  -26.6290  -34.8900   22.4070 O   0  0  0  0  0  0  0  0  0  0  0  0
  -25.0170  -34.1110   24.9960 H   0  0  0  0  0  0  0  0  0  0  0  0
  -24.2360  -36.7940   23.0540 C   0  0  0  0  0  1  0  0  0  0  0  0
  -25.4680  -36.3910   23.8800 C   0  0  0  0  0  3  0  0  0  0  0  0
  -27.5970  -37.2690   24.7300 C   0  0  0  0  0  1  0  0  0  0  0  0
  -26.5060  -37.4400   23.7730 N   0  0  0  0  0  0  0  0  0  0  0  0
  -26.1030  -38.3610   23.9180 H   0  0  0  0  0  0  0  0  0  0  0  0
  -26.4390  -31.7850   25.1490 C   0  0  1  0  0  0  0  0  0  0  0  0
  -25.3470  -31.5520   26.2200 C   0  0  0  0  0  1  0  0  0  0  0  0
  -27.0220  -30.4060   24.7600 C   0  0  0  0  0  1  0  0  0  0  0  0
  -27.5900  -32.5810   25.8110 C   0  0  0  0  0  1  0  0  0  0  0  0
  -29.0520  -19.0640   19.6710 C   0  0  0  0  0  3  0  0  0  0  0  0
  -29.6490  -18.1190   20.6530 N   0  0  0  0  0  4  0  0  0  0  0  0
  -30.6150  -18.3830   20.7710 H   0  0  0  0  0  0  0  0  0  0  0  0
  -29.1930  -18.2380   21.5430 H   0  0  0  0  0  0  0  0  0  0  0  0
  -29.6000  -16.6940   20.2270 C   0  0  0  0  0  2  0  0  0  0  0  0
  -30.1780  -15.6700   21.2410 C   0  0  0  0  0  2  0  0  0  0  0  0
  -30.7810  -14.4560   20.5010 C   0  0  0  0  0  0  0  0  0  0  0  0
  -30.4520  -12.3300   19.2910 C   0  0  0  0  0  2  0  0  0  0  0  0
  -29.5180  -12.5640   18.0850 C   0  0  0  0  0  2  0  0  0  0  0  0
  -28.0370  -12.4460   18.4970 C   0  0  0  0  0  2  0  0  0  0  0  0
  -27.7040  -13.2700   19.7680 C   0  0  0  0  0  3  0  0  0  0  0  0
  -28.7470  -13.0040   20.8780 C   0  0  0  0  0  2  0  0  0  0  0  0
  -30.0820  -13.2990   20.3360 N   0  0  0  0  0  0  0  0  0  0  0  0
  -31.8830  -14.6330   19.9730 O   0  0  0  0  0  0  0  0  0  0  0  0
  -25.2970  -13.9110   20.4310 C   0  0  0  0  0  0  0  0  0  0  0  0
  -24.2170  -13.1520   20.7940 C   0  0  0  0  0  0  0  0  0  0  0  0
  -24.6680  -11.7970   20.7900 C   0  0  0  0  0  0  0  0  0  0  0  0
  -26.3400  -13.0180   20.2290 N   0  0  0  0  0  0  0  0  0  0  0  0
  -25.9630  -11.7430   20.5010 N   0  0  0  0  0  0  0  0  0  0  0  0
  -23.9270  -10.5440   20.9890 C   0  0  0  0  0  0  0  0  0  0  0  0
  -24.3460   -9.5840   21.9350 C   0  0  0  0  0  3  0  0  0  0  0  0
  -23.6090   -8.3960   22.1250 C   0  0  0  0  0  3  0  0  0  0  0  0
  -22.4390   -8.1590   21.3640 C   0  0  0  0  0  0  0  0  0  0  0  0
  -22.0390   -9.1070   20.4050 C   0  0  0  0  0  3  0  0  0  0  0  0
  -22.7780  -10.2870   20.2160 C   0  0  0  0  0  3  0  0  0  0  0  0
  -21.6740   -7.0220   21.4590 O   0  0  0  0  0  0  0  0  0  0  0  0
  -21.6150   -6.2900   22.6170 C   0  0  0  0  0  0  0  0  0  0  0  0
  -21.1990   -6.8610   23.8390 C   0  0  0  0  0  3  0  0  0  0  0  0
  -21.0880   -6.0560   24.9910 C   0  0  0  0  0  3  0  0  0  0  0  0
  -21.3810   -4.6810   24.9190 C   0  0  0  0  0  0  0  0  0  0  0  0
  -21.7910   -4.1100   23.7020 C   0  0  0  0  0  3  0  0  0  0  0  0
  -21.9040   -4.9110   22.5530 C   0  0  0  0  0  0  0  0  0  0  0  0
  -22.2790   -4.3520   21.3760 F   0  0  0  0  0  0  0  0  0  0  0  0
  -21.2650   -3.9060   26.0230 F   0  0  0  0  0  0  0  0  0  0  0  0
  -22.8210  -13.6440   21.0440 C   0  0  0  0  0  0  0  0  0  0  0  0
  -22.0770  -12.9640   21.9120 N   0  0  0  0  0  0  0  0  0  0  0  0
  -22.3960  -14.6650   20.5040 O   0  0  0  0  0  0  0  0  0  0  0  0
  -22.4350  -12.1380   22.3690 H   0  0  0  0  0  0  0  0  0  0  0  0
  -21.1410  -13.2760   22.1250 H   0  0  0  0  0  0  0  0  0  0  0  0
  -25.4650  -15.2780   20.2390 N   0  0  0  0  0  0  0  0  0  0  0  0
  -24.6830  -15.9190   20.3300 H   0  0  0  0  0  0  0  0  0  0  0  0
  -26.3030  -15.7230   19.8940 H   0  0  0  0  0  0  0  0  0  0  0  0
  -26.8140  -19.9560   18.6660 C   0  0  0  0  0  1  0  0  0  0  0  0
  -27.5040  -18.9380   19.5960 C   0  0  0  0  0  2  0  0  0  0  0  0
  1  3  1  0
  2  5  1  0
  3  7  1  0
  4  1  2  0
  5 10  1  0
  5  3  2  0
  6  2  2  0
  6  4  1  0
  8  6  1  0
  9  8  1  0
 11 12  1  0
 11 10  1  0
 13 24  2  0
 14 12  1  0
 14 19  1  0
 15 23  1  0
 15 25  1  0
 16 22  1  0
 16 18  1  0
 17 23  1  0
 18 17  1  0
 19 18  2  0
 20 14  2  0
 21 20  1  0
 21 16  2  0
 22 15  1  0
 23 13  1  0
 25 27  2  0
 26 25  1  0
 28 26  1  0
 29 38  2  0
 29 34  1  0
 30 26  1  0
 30 34  1  0
 31 30  1  0
 32 33  1  0
 32 31  1  0
 33 29  1  0
 34 35  2  0
 35 36  1  0
 37 36  2  0
 38 37  1  0
 39 13  1  0
 39 40  1  0
 39 49  1  0
 40 43  1  0
 41 45  1  0
 41 40  1  0
 42 41  2  0
 45 44  1  0
 47 45  1  0
 47 48  1  0
 47 46  1  0
 49 52  1  1
 49 50  1  0
 51 49  1  0
 53 96  1  0
 53  4  1  0
 53 54  1  0
 54 55  1  0
 54 56  1  0
 57 54  1  0
 57 58  1  0
 59 58  1  0
 60 65  1  0
 61 62  1  0
 61 60  1  0
 63 62  1  0
 63 70  1  0
 63 64  1  0
 65 59  1  0
 65 64  1  0
 66 59  2  0
 67 68  2  0
 68 87  1  0
 69 68  1  0
 69 72  1  0
 70 67  1  0
 70 71  1  0
 71 69  2  0
 72 73  1  0
 73 74  2  0
 75 78  1  0
 75 74  1  0
 76 75  2  0
 77 76  1  0
 77 72  2  0
 78 79  1  0
 79 80  1  0
 80 81  2  0
 82 81  1  0
 82 86  1  0
 83 82  2  0
 84 79  2  0
 84 83  1  0
 85 84  1  0
 87 88  1  0
 88 91  1  0
 88 90  1  0
 89 87  2  0
 92 93  1  0
 92 67  1  0
 94 92  1  0
 95 96  1  0
M  ISO  4  11 101  12 101  58 100  59 100
M  END
>  <TORSDO>  (10) 
F 24

>  <SCORE>  (10) 
-12.709

>  <name>  (10) 
9

>  <ligand_id>  (10) 
9

>  <original_smiles>  (10) 
[H]Oc1c([H])c(C([H])([H])C([H])([H])Oc2c([H])c([H])c3c(c2[H])C([H])([H])N(C(=O)C([H])(N([H])C(=O)C([H])(N([H])C([H])([H])[H])C([H])([H])[H])C(C([H])([H])[H])(C([H])([H])[H])C([H])([H])[H])C([H])(C(=O)N([H])C2([H])c4c([H])c([H])c([H])c([H])c4C([H])([H])C([H])([H])C2([H])[H])C3([H])[H])c(C([H])([H])[H])c([H])c1C([H])(C([H])([H])C([H])([H])[H])[N+]([H])([H])C([H])([H])C([H])([H])C(=O)N1C([H])([H])C([H])([H])C([H])([H])C([H])(n2nc(-c3c([H])c([H])c(Oc4c([H])c([H])c(F)c([H])c4F)c([H])c3[H])c(C(=O)N([H])[H])c2N([H])[H])C1([H])[H]

>  <smiles>  (10) 
[H]Oc1c([H])c(C([H])([H])C([H])([H])Oc2c([H])c([H])c3c(c2[H])C([H])([H])N(C(=O)C([H])(N([H])C(=O)C([H])(N([H])C([H])([H])[H])C([H])([H])[H])C(C([H])([H])[H])(C([H])([H])[H])C([H])([H])[H])C([H])(C(=O)N([H])C2([H])c4c([H])c([H])c([H])c([H])c4C([H])([H])C([H])([H])C2([H])[H])C3([H])[H])c(C([H])([H])[H])c([H])c1C([H])(C([H])([H])C([H])([H])[H])[N+]([H])([H])C([H])([H])C([H])([H])C(=O)N1C([H])([H])C([H])([H])C([H])([H])C([H])(n2nc(-c3c([H])c([H])c(Oc4c([H])c([H])c(F)c([H])c4F)c([H])c3[H])c(C(=O)N([H])[H])c2N([H])[H])C1([H])[H]

$$$$
10:0:0
     RDKit          3D

 94102  0  0  1  0  0  0  0  0999 V2000
  -28.4390  -22.5910   21.5030 C   0  0  0  0  0  0  0  0  0  0  0  0
  -29.5400  -23.3450   21.4260 N   0  0  0  0  0  0  0  0  0  0  0  0
  -27.3060  -23.0670   21.6110 O   0  0  0  0  0  0  0  0  0  0  0  0
  -30.4240  -22.8690   21.3100 H   0  0  0  0  0  0  0  0  0  0  0  0
  -27.8260  -20.4040   20.4230 C   0  0  0  0  0  3  0  0  0  0  0  0
  -29.6430  -20.4190   22.0430 C   0  0  0  0  0  3  0  0  0  0  0  0
  -28.0270  -19.0270   20.2080 C   0  0  0  0  0  3  0  0  0  0  0  0
  -29.8400  -19.0380   21.8340 C   0  0  0  0  0  3  0  0  0  0  0  0
  -28.6460  -21.1170   21.3230 C   0  0  0  0  0  0  0  0  0  0  0  0
  -29.0440  -18.3370   20.9010 C   0  0  0  0  0  0  0  0  0  0  0  0
  -29.2410  -16.8440   20.6610 C   0  0  0  0  0  2  0  0  0  0  0  0
  -30.6360  -16.4680   20.1200 C   0  0  0  0  0  2  0  0  0  0  0  0
  -31.0650  -14.2150   19.2500 C   0  0  0  0  0  0  0  0  0  0  0  0
  -30.5780  -11.9500   18.3830 C   0  0  0  0  0  2  0  0  0  0  0  0
  -29.4780  -11.9260   17.3090 C   0  0  0  0  0  2  0  0  0  0  0  0
  -28.0830  -11.8510   17.9510 C   0  0  0  0  0  2  0  0  0  0  0  0
  -27.8880  -12.9180   19.0590 C   0  0  0  0  0  3  0  0  0  0  0  0
  -29.0700  -12.9030   20.0530 C   0  0  0  0  0  2  0  0  0  0  0  0
  -30.3310  -13.0720   19.3010 N   0  0  0  0  0  0  0  0  0  0  0  0
  -31.8830  -14.4560   18.3520 O   0  0  0  0  0  0  0  0  0  0  0  0
  -31.7710  -14.7620   21.4760 C   0  0  0  0  0  1  0  0  0  0  0  0
  -30.9230  -15.0370   20.3120 N   0  0  0  0  0  0  0  0  0  0  0  0
  -25.6970  -13.6980   20.1640 C   0  0  0  0  0  0  0  0  0  0  0  0
  -24.6390  -13.0030   20.6880 C   0  0  0  0  0  0  0  0  0  0  0  0
  -24.9710  -11.6190   20.5520 C   0  0  0  0  0  0  0  0  0  0  0  0
  -26.6100  -12.7430   19.7450 N   0  0  0  0  0  0  0  0  0  0  0  0
  -26.1830  -11.4860   20.0300 N   0  0  0  0  0  0  0  0  0  0  0  0
  -24.1800  -10.4140   20.8350 C   0  0  0  0  0  0  0  0  0  0  0  0
  -24.6120   -9.4500   21.7710 C   0  0  0  0  0  3  0  0  0  0  0  0
  -23.8260   -8.3080   22.0380 C   0  0  0  0  0  3  0  0  0  0  0  0
  -22.5930   -8.1240   21.3690 C   0  0  0  0  0  0  0  0  0  0  0  0
  -22.1790   -9.0750   20.4200 C   0  0  0  0  0  3  0  0  0  0  0  0
  -22.9640  -10.2080   20.1510 C   0  0  0  0  0  3  0  0  0  0  0  0
  -21.7760   -7.0340   21.5440 O   0  0  0  0  0  0  0  0  0  0  0  0
  -21.6280   -6.4360   22.7700 C   0  0  0  0  0  0  0  0  0  0  0  0
  -21.2440   -7.1670   23.9160 C   0  0  0  0  0  3  0  0  0  0  0  0
  -21.0360   -6.5010   25.1400 C   0  0  0  0  0  3  0  0  0  0  0  0
  -21.2010   -5.1050   25.2190 C   0  0  0  0  0  0  0  0  0  0  0  0
  -21.5750   -4.3750   24.0780 C   0  0  0  0  0  3  0  0  0  0  0  0
  -21.7850   -5.0380   22.8560 C   0  0  0  0  0  0  0  0  0  0  0  0
  -22.1260   -4.3260   21.7550 F   0  0  0  0  0  0  0  0  0  0  0  0
  -20.9940   -4.4630   26.3920 F   0  0  0  0  0  0  0  0  0  0  0  0
  -23.3520  -13.5820   21.2010 C   0  0  0  0  0  0  0  0  0  0  0  0
  -22.7550  -12.9530   22.2070 N   0  0  0  0  0  0  0  0  0  0  0  0
  -22.8930  -14.6260   20.7410 O   0  0  0  0  0  0  0  0  0  0  0  0
  -23.1430  -12.1090   22.6000 H   0  0  0  0  0  0  0  0  0  0  0  0
  -21.8970  -13.3230   22.5920 H   0  0  0  0  0  0  0  0  0  0  0  0
  -25.9470  -15.0550   19.9930 N   0  0  0  0  0  0  0  0  0  0  0  0
  -25.2650  -15.7640   20.2400 H   0  0  0  0  0  0  0  0  0  0  0  0
  -26.7680  -15.4350   19.5370 H   0  0  0  0  0  0  0  0  0  0  0  0
  -29.5020  -24.7970   21.2990 C   0  0  0  0  0  2  0  0  0  0  0  0
  -30.8830  -25.3880   20.9730 C   0  0  0  0  0  2  0  0  0  0  0  0
  -30.7670  -26.8460   20.5140 C   0  0  0  0  0  2  0  0  0  0  0  0
  -30.0120  -26.8840   19.3000 O   0  0  0  0  0  0  0  0  0  0  0  0
  -25.2000  -30.2670   23.2650 C   0  0  0  0  0  0  0  0  0  0  0  0
  -28.7280  -27.3550   19.4130 C   0  0  0  0  0  0  0  0  0  0  0  0
  -24.3140  -29.0650   21.2900 C   0  0  0  0  0  3  0  0  0  0  0  0
  -26.0590  -28.2400   19.6260 C   0  0  0  0  0  0  0  0  0  0  0  0
  -26.6880  -30.0050   21.2860 C   0  0  0  0  0  2  0  0  0  0  0  0
  -27.0650  -28.8650   20.3680 C   0  0  0  0  0  0  0  0  0  0  0  0
  -28.3990  -28.4370   20.2580 C   0  0  0  0  0  3  0  0  0  0  0  0
  -27.7120  -26.7380   18.6560 C   0  0  0  0  0  3  0  0  0  0  0  0
  -26.3750  -27.1700   18.7640 C   0  0  0  0  0  3  0  0  0  0  0  0
  -24.6560  -28.7730   19.8020 C   0  0  0  0  0  2  0  0  0  0  0  0
  -25.4170  -29.7820   22.0100 N   0  0  0  0  0  0  0  0  0  0  0  0
  -24.0880  -30.1740   23.8040 O   0  0  0  0  0  0  0  0  0  0  0  0
  -23.9030  -27.7370   21.9660 C   0  0  0  0  0  0  0  0  0  0  0  0
  -22.7100  -27.2340   21.6090 N   0  0  0  0  0  0  0  0  0  0  0  0
  -24.6550  -27.1700   22.7620 O   0  0  0  0  0  0  0  0  0  0  0  0
  -22.1520  -27.7630   20.9540 H   0  0  0  0  0  0  0  0  0  0  0  0
  -19.8670  -25.0320   21.2530 C   0  0  0  0  0  0  0  0  0  0  0  0
  -22.1270  -25.9780   22.0790 C   0  0  0  0  0  3  0  0  0  0  0  0
  -22.7760  -24.7650   21.3730 C   0  0  0  0  0  2  0  0  0  0  0  0
  -22.0130  -24.3140   20.1230 C   0  0  0  0  0  2  0  0  0  0  0  0
  -20.5740  -23.9330   20.4790 C   0  0  0  0  0  2  0  0  0  0  0  0
  -20.5970  -26.0020   21.9920 C   0  0  0  0  0  0  0  0  0  0  0  0
  -19.8930  -27.0210   22.6680 C   0  0  0  0  0  3  0  0  0  0  0  0
  -18.4880  -27.0820   22.6160 C   0  0  0  0  0  3  0  0  0  0  0  0
  -17.7690  -26.1110   21.8980 C   0  0  0  0  0  3  0  0  0  0  0  0
  -18.4580  -25.0860   21.2240 C   0  0  0  0  0  3  0  0  0  0  0  0
  -26.3260  -30.9880   24.0740 C   0  0  0  0  0  3  0  0  0  0  0  0
  -25.8190  -32.3120   24.4520 N   0  0  0  0  0  0  0  0  0  0  0  0
  -26.1180  -33.4510   23.8140 C   0  0  0  0  0  0  0  0  0  0  0  0
  -26.9160  -33.5020   22.8750 O   0  0  0  0  0  0  0  0  0  0  0  0
  -25.1170  -32.3390   25.1780 H   0  0  0  0  0  0  0  0  0  0  0  0
  -24.2400  -35.0630   23.3590 C   0  0  0  0  0  1  0  0  0  0  0  0
  -25.4170  -34.7390   24.2930 C   0  0  0  0  0  3  0  0  0  0  0  0
  -27.3380  -35.7730   25.4180 C   0  0  0  0  0  1  0  0  0  0  0  0
  -26.3230  -35.9040   24.3740 N   0  0  0  0  0  0  0  0  0  0  0  0
  -25.8000  -36.7580   24.5470 H   0  0  0  0  0  0  0  0  0  0  0  0
  -26.7920  -30.1790   25.3450 C   0  0  1  0  0  0  0  0  0  0  0  0
  -25.6280  -29.7240   26.2560 C   0  0  0  0  0  1  0  0  0  0  0  0
  -27.5860  -28.9200   24.9260 C   0  0  0  0  0  1  0  0  0  0  0  0
  -27.7550  -31.0460   26.1910 C   0  0  0  0  0  1  0  0  0  0  0  0
  1  3  2  0
  2  1  1  0
  4  2  1  0
  5  9  1  0
  7  5  2  0
  7 10  1  0
  8  6  1  0
  9  1  1  0
  9  6  2  0
 10  8  2  0
 11 10  1  0
 12 22  1  0
 12 11  1  0
 13 19  1  0
 13 22  1  0
 14 19  1  0
 15 16  1  0
 15 14  1  0
 17 16  1  0
 17 26  1  0
 17 18  1  0
 19 18  1  0
 20 13  2  0
 22 21  1  0
 23 24  2  0
 24 43  1  0
 25 24  1  0
 25 28  1  0
 26 27  1  0
 26 23  1  0
 27 25  2  0
 28 29  1  0
 29 30  2  0
 31 34  1  0
 31 30  1  0
 32 31  2  0
 33 32  1  0
 33 28  2  0
 34 35  1  0
 35 40  2  0
 35 36  1  0
 36 37  2  0
 37 38  1  0
 38 42  1  0
 39 38  2  0
 40 39  1  0
 41 40  1  0
 43 44  1  0
 44 47  1  0
 44 46  1  0
 45 43  2  0
 48 23  1  0
 48 49  1  0
 50 48  1  0
 51  2  1  0
 52 51  1  0
 53 52  1  0
 54 56  1  0
 54 53  1  0
 55 66  2  0
 56 61  1  0
 57 67  1  0
 57 65  1  0
 58 64  1  0
 58 60  1  0
 59 65  1  0
 60 59  1  0
 61 60  2  0
 62 63  1  0
 62 56  2  0
 63 58  2  0
 64 57  1  0
 65 55  1  0
 67 69  2  0
 68 67  1  0
 70 68  1  0
 71 76  1  0
 72 68  1  0
 73 72  1  0
 74 75  1  0
 74 73  1  0
 75 71  1  0
 76 72  1  0
 76 77  2  0
 78 77  1  0
 79 78  2  0
 80 71  2  0
 80 79  1  0
 81 55  1  0
 81 82  1  0
 81 91  1  0
 82 85  1  0
 83 87  1  0
 83 82  1  0
 84 83  2  0
 87 86  1  0
 87 89  1  0
 89 90  1  0
 89 88  1  0
 91 94  1  1
 91 92  1  0
 93 91  1  0
M  ISO  4  13 100  22 100  53 101  54 101
M  END
>  <TORSDO>  (11) 
F 22

>  <SCORE>  (11) 
-7.814

>  <name>  (11) 
10

>  <ligand_id>  (11) 
10

>  <original_smiles>  (11) 
[H]c1c([H])c([H])c2c(c1[H])C([H])([H])C([H])([H])C([H])([H])C2([H])N([H])C(=O)C1([H])N(C(=O)C([H])(N([H])C(=O)C([H])(N([H])C([H])([H])[H])C([H])([H])[H])C(C([H])([H])[H])(C([H])([H])[H])C([H])([H])[H])C([H])([H])c2c([H])c(OC([H])([H])C([H])([H])C([H])([H])N([H])C(=O)c3c([H])c([H])c(C([H])([H])C([H])([H])N(C(=O)N4C([H])([H])C([H])([H])C([H])([H])C([H])(n5nc(-c6c([H])c([H])c(Oc7c([H])c([H])c(F)c([H])c7F)c([H])c6[H])c(C(=O)N([H])[H])c5N([H])[H])C4([H])[H])C([H])([H])[H])c([H])c3[H])c([H])c([H])c2C1([H])[H]

>  <smiles>  (11) 
[H]c1c([H])c([H])c2c(c1[H])C([H])([H])C([H])([H])C([H])([H])C2([H])N([H])C(=O)C1([H])N(C(=O)C([H])(N([H])C(=O)C([H])(N([H])C([H])([H])[H])C([H])([H])[H])C(C([H])([H])[H])(C([H])([H])[H])C([H])([H])[H])C([H])([H])c2c([H])c(OC([H])([H])C([H])([H])C([H])([H])N([H])C(=O)c3c([H])c([H])c(C([H])([H])C([H])([H])N(C(=O)N4C([H])([H])C([H])([H])C([H])([H])C([H])(n5nc(-c6c([H])c([H])c(Oc7c([H])c([H])c(F)c([H])c7F)c([H])c6[H])c(C(=O)N([H])[H])c5N([H])[H])C4([H])[H])C([H])([H])[H])c([H])c3[H])c([H])c([H])c2C1([H])[H]

$$$$
11:0:0
     RDKit          3D

 94102  0  0  1  0  0  0  0  0999 V2000
  -29.3460  -24.1100   22.2620 C   0  0  0  0  0  2  0  0  0  0  0  0
  -30.6240  -23.9740   20.0670 C   0  0  0  0  0  2  0  0  0  0  0  0
  -29.1150  -25.5550   21.7890 C   0  0  0  0  0  2  0  0  0  0  0  0
  -29.6800  -24.9770   19.3710 C   0  0  0  0  0  2  0  0  0  0  0  0
  -29.8650  -23.1690   21.1390 C   0  0  0  0  0  3  0  0  0  0  0  0
  -28.6350  -25.5970   20.3320 C   0  0  0  0  0  3  0  0  0  0  0  0
  -30.6950  -22.0710   21.6760 N   0  0  0  0  0  4  0  0  0  0  0  0
  -31.4890  -22.4730   22.1470 H   0  0  0  0  0  0  0  0  0  0  0  0
  -31.0440  -21.5470   20.8870 H   0  0  0  0  0  0  0  0  0  0  0  0
  -29.9870  -21.1520   22.6010 C   0  0  0  0  0  2  0  0  0  0  0  0
  -30.9360  -20.1460   23.2840 C   0  0  0  0  0  2  0  0  0  0  0  0
  -31.4480  -19.0110   22.3750 C   0  0  0  0  0  2  0  0  0  0  0  0
  -30.5650  -17.8220   22.3600 N   0  0  0  0  0  4  0  0  0  0  0  0
  -30.5820  -17.4020   23.2780 H   0  0  0  0  0  0  0  0  0  0  0  0
  -29.6150  -18.0920   22.1630 H   0  0  0  0  0  0  0  0  0  0  0  0
  -30.9940  -16.8160   21.3650 C   0  0  0  0  0  2  0  0  0  0  0  0
  -30.1940  -15.4980   21.4390 C   0  0  0  0  0  2  0  0  0  0  0  0
  -30.7000  -14.4570   20.4250 C   0  0  0  0  0  0  0  0  0  0  0  0
  -30.3350  -12.3780   19.1470 C   0  0  0  0  0  2  0  0  0  0  0  0
  -29.3780  -12.6370   17.9680 C   0  0  0  0  0  2  0  0  0  0  0  0
  -27.9100  -12.4980   18.4160 C   0  0  0  0  0  2  0  0  0  0  0  0
  -27.6000  -13.3060   19.7050 C   0  0  0  0  0  3  0  0  0  0  0  0
  -28.6660  -13.0300   20.7900 C   0  0  0  0  0  2  0  0  0  0  0  0
  -29.9890  -13.3200   20.2160 N   0  0  0  0  0  0  0  0  0  0  0  0
  -31.7410  -14.7010   19.8030 O   0  0  0  0  0  0  0  0  0  0  0  0
  -25.1970  -13.9160   20.4090 C   0  0  0  0  0  0  0  0  0  0  0  0
  -24.1320  -13.1420   20.7910 C   0  0  0  0  0  0  0  0  0  0  0  0
  -24.5980  -11.7930   20.7700 C   0  0  0  0  0  0  0  0  0  0  0  0
  -26.2460  -13.0370   20.1880 N   0  0  0  0  0  0  0  0  0  0  0  0
  -25.8870  -11.7550   20.4580 N   0  0  0  0  0  0  0  0  0  0  0  0
  -23.8780  -10.5300   20.9770 C   0  0  0  0  0  0  0  0  0  0  0  0
  -24.3250   -9.5670   21.9090 C   0  0  0  0  0  3  0  0  0  0  0  0
  -23.6050   -8.3700   22.1010 C   0  0  0  0  0  3  0  0  0  0  0  0
  -22.4240   -8.1240   21.3630 C   0  0  0  0  0  0  0  0  0  0  0  0
  -21.9960   -9.0740   20.4200 C   0  0  0  0  0  3  0  0  0  0  0  0
  -22.7170  -10.2650   20.2240 C   0  0  0  0  0  3  0  0  0  0  0  0
  -21.6740   -6.9760   21.4670 O   0  0  0  0  0  0  0  0  0  0  0  0
  -21.6480   -6.2350   22.6200 C   0  0  0  0  0  0  0  0  0  0  0  0
  -21.2640   -6.7940   23.8580 C   0  0  0  0  0  3  0  0  0  0  0  0
  -21.1860   -5.9790   25.0050 C   0  0  0  0  0  3  0  0  0  0  0  0
  -21.4820   -4.6060   24.9160 C   0  0  0  0  0  0  0  0  0  0  0  0
  -21.8610   -4.0460   23.6820 C   0  0  0  0  0  3  0  0  0  0  0  0
  -21.9410   -4.8580   22.5380 C   0  0  0  0  0  0  0  0  0  0  0  0
  -22.2850   -4.3100   21.3480 F   0  0  0  0  0  0  0  0  0  0  0  0
  -21.3990   -3.8200   26.0140 F   0  0  0  0  0  0  0  0  0  0  0  0
  -22.7340  -13.6150   21.0660 C   0  0  0  0  0  0  0  0  0  0  0  0
  -22.0140  -12.9240   21.9420 N   0  0  0  0  0  0  0  0  0  0  0  0
  -22.2880  -14.6340   20.5380 O   0  0  0  0  0  0  0  0  0  0  0  0
  -22.3860  -12.0970   22.3880 H   0  0  0  0  0  0  0  0  0  0  0  0
  -21.0750  -13.2200   22.1680 H   0  0  0  0  0  0  0  0  0  0  0  0
  -25.3530  -15.2840   20.2140 N   0  0  0  0  0  0  0  0  0  0  0  0
  -24.5810  -15.9350   20.3040 H   0  0  0  0  0  0  0  0  0  0  0  0
  -26.2020  -15.7220   19.8760 H   0  0  0  0  0  0  0  0  0  0  0  0
  -28.4880  -26.9590   19.9840 O   0  0  0  0  0  0  0  0  0  0  0  0
  -24.5540  -31.9190   23.2000 C   0  0  0  0  0  0  0  0  0  0  0  0
  -27.2550  -27.5470   20.1040 C   0  0  0  0  0  0  0  0  0  0  0  0
  -23.3520  -30.4960   21.5680 C   0  0  0  0  0  3  0  0  0  0  0  0
  -24.8150  -28.9580   20.1590 C   0  0  0  0  0  0  0  0  0  0  0  0
  -25.8630  -30.8980   21.3430 C   0  0  0  0  0  2  0  0  0  0  0  0
  -25.9650  -29.5220   20.7230 C   0  0  0  0  0  0  0  0  0  0  0  0
  -27.1870  -28.8240   20.6920 C   0  0  0  0  0  3  0  0  0  0  0  0
  -26.0880  -26.9700   19.5570 C   0  0  0  0  0  3  0  0  0  0  0  0
  -24.8660  -27.6730   19.5840 C   0  0  0  0  0  3  0  0  0  0  0  0
  -23.5620  -29.8020   20.1960 C   0  0  0  0  0  2  0  0  0  0  0  0
  -24.6090  -31.1180   22.0970 N   0  0  0  0  0  0  0  0  0  0  0  0
  -23.4740  -32.1790   23.7480 O   0  0  0  0  0  0  0  0  0  0  0  0
  -22.7190  -29.4750   22.5400 C   0  0  0  0  0  0  0  0  0  0  0  0
  -21.3940  -29.2860   22.4250 N   0  0  0  0  0  0  0  0  0  0  0  0
  -23.4150  -28.8550   23.3480 O   0  0  0  0  0  0  0  0  0  0  0  0
  -20.8960  -29.8360   21.7380 H   0  0  0  0  0  0  0  0  0  0  0  0
  -18.0360  -28.0700   22.9490 C   0  0  0  0  0  0  0  0  0  0  0  0
  -20.5920  -28.3460   23.2050 C   0  0  0  0  0  3  0  0  0  0  0  0
  -20.7020  -26.9140   22.6310 C   0  0  0  0  0  2  0  0  0  0  0  0
  -19.5970  -26.5830   21.6230 C   0  0  0  0  0  2  0  0  0  0  0  0
  -18.2200  -26.7180   22.2770 C   0  0  0  0  0  2  0  0  0  0  0  0
  -19.1510  -28.8390   23.3710 C   0  0  0  0  0  0  0  0  0  0  0  0
  -18.9300  -30.1020   23.9610 C   0  0  0  0  0  3  0  0  0  0  0  0
  -17.6230  -30.6000   24.1310 C   0  0  0  0  0  3  0  0  0  0  0  0
  -16.5220  -29.8290   23.7200 C   0  0  0  0  0  3  0  0  0  0  0  0
  -16.7280  -28.5640   23.1380 C   0  0  0  0  0  3  0  0  0  0  0  0
  -25.8390  -32.5620   23.8090 C   0  0  0  0  0  3  0  0  0  0  0  0
  -25.5160  -33.9550   24.1490 N   0  0  0  0  0  0  0  0  0  0  0  0
  -25.8430  -35.0150   23.3950 C   0  0  0  0  0  0  0  0  0  0  0  0
  -26.5160  -34.9220   22.3650 O   0  0  0  0  0  0  0  0  0  0  0  0
  -24.9070  -34.0970   24.9400 H   0  0  0  0  0  0  0  0  0  0  0  0
  -24.0960  -36.7890   23.0450 C   0  0  0  0  0  1  0  0  0  0  0  0
  -25.3400  -36.3950   23.8560 C   0  0  0  0  0  3  0  0  0  0  0  0
  -27.4670  -37.2940   24.6930 C   0  0  0  0  0  1  0  0  0  0  0  0
  -26.3630  -37.4580   23.7510 N   0  0  0  0  0  0  0  0  0  0  0  0
  -25.9480  -38.3720   23.9080 H   0  0  0  0  0  0  0  0  0  0  0  0
  -26.3840  -31.7890   25.0720 C   0  0  1  0  0  0  0  0  0  0  0  0
  -25.3060  -31.5150   26.1470 C   0  0  0  0  0  1  0  0  0  0  0  0
  -26.9900  -30.4310   24.6540 C   0  0  0  0  0  1  0  0  0  0  0  0
  -27.5250  -32.5980   25.7300 C   0  0  0  0  0  1  0  0  0  0  0  0
  2  5  1  0
  3  1  1  0
  4  2  1  0
  4  6  1  0
  5  7  1  0
  5  1  1  0
  6 54  1  0
  6  3  1  0
  7  8  1  0
  7 10  1  0
  9  7  1  0
 10 11  1  0
 12 11  1  0
 13 12  1  0
 13 14  1  0
 15 13  1  0
 16 17  1  0
 16 13  1  0
 18 17  1  0
 19 24  1  0
 20 21  1  0
 20 19  1  0
 22 21  1  0
 22 29  1  0
 22 23  1  0
 24 18  1  0
 24 23  1  0
 25 18  2  0
 26 27  2  0
 27 46  1  0
 28 27  1  0
 28 31  1  0
 29 26  1  0
 29 30  1  0
 30 28  2  0
 31 32  1  0
 32 33  2  0
 34 37  1  0
 34 33  1  0
 35 34  2  0
 36 35  1  0
 36 31  2  0
 37 38  1  0
 38 39  1  0
 39 40  2  0
 41 40  1  0
 41 45  1  0
 42 41  2  0
 43 38  2  0
 43 42  1  0
 44 43  1  0
 46 47  1  0
 47 50  1  0
 47 49  1  0
 48 46  2  0
 51 52  1  0
 51 26  1  0
 53 51  1  0
 54 56  1  0
 55 66  2  0
 56 61  1  0
 57 65  1  0
 57 67  1  0
 58 64  1  0
 58 60  1  0
 59 65  1  0
 60 59  1  0
 61 60  2  0
 62 63  1  0
 62 56  2  0
 63 58  2  0
 64 57  1  0
 65 55  1  0
 67 69  2  0
 68 67  1  0
 70 68  1  0
 71 80  2  0
 71 76  1  0
 72 68  1  0
 72 76  1  0
 73 72  1  0
 74 75  1  0
 74 73  1  0
 75 71  1  0
 76 77  2  0
 77 78  1  0
 79 78  2  0
 80 79  1  0
 81 55  1  0
 81 82  1  0
 81 91  1  0
 82 85  1  0
 83 87  1  0
 83 82  1  0
 84 83  2  0
 87 86  1  0
 89 87  1  0
 89 90  1  0
 89 88  1  0
 91 94  1  1
 91 92  1  0
 93 91  1  0
M  ISO  4   6 101  17 100  18 100  54 101
M  END
>  <TORSDO>  (12) 
F 23

>  <SCORE>  (12) 
-12.902

>  <name>  (12) 
11

>  <ligand_id>  (12) 
11

>  <original_smiles>  (12) 
[H]c1c([H])c([H])c2c(c1[H])C([H])([H])C([H])([H])C([H])([H])C2([H])N([H])C(=O)C1([H])N(C(=O)C([H])(N([H])C(=O)C([H])(N([H])C([H])([H])[H])C([H])([H])[H])C(C([H])([H])[H])(C([H])([H])[H])C([H])([H])[H])C([H])([H])c2c([H])c(OC3([H])C([H])([H])C([H])([H])C([H])([N+]([H])([H])C([H])([H])C([H])([H])C([H])([H])[N+]([H])([H])C([H])([H])C([H])([H])C(=O)N4C([H])([H])C([H])([H])C([H])([H])C([H])(n5nc(-c6c([H])c([H])c(Oc7c([H])c([H])c(F)c([H])c7F)c([H])c6[H])c(C(=O)N([H])[H])c5N([H])[H])C4([H])[H])C([H])([H])C3([H])[H])c([H])c([H])c2C1([H])[H]

>  <smiles>  (12) 
[H]c1c([H])c([H])c2c(c1[H])C([H])([H])C([H])([H])C([H])([H])C2([H])N([H])C(=O)C1([H])N(C(=O)C([H])(N([H])C(=O)C([H])(N([H])C([H])([H])[H])C([H])([H])[H])C(C([H])([H])[H])(C([H])([H])[H])C([H])([H])[H])C([H])([H])c2c([H])c(OC3([H])C([H])([H])C([H])([H])C([H])([N+]([H])([H])C([H])([H])C([H])([H])C([H])([H])[N+]([H])([H])C([H])([H])C([H])([H])C(=O)N4C([H])([H])C([H])([H])C([H])([H])C([H])(n5nc(-c6c([H])c([H])c(Oc7c([H])c([H])c(F)c([H])c7F)c([H])c6[H])c(C(=O)N([H])[H])c5N([H])[H])C4([H])[H])C([H])([H])C3([H])[H])c([H])c([H])c2C1([H])[H]

$$$$
12:0:0
     RDKit          3D

102106  0  0  1  0  0  0  0  0999 V2000
  -26.6170  -19.4470   22.1310 C   0  0  0  0  0  2  0  0  0  0  0  0
  -24.7430  -20.2650   23.6500 C   0  0  0  0  0  2  0  0  0  0  0  0
  -26.5420  -20.8320   21.3880 C   0  0  0  0  0  2  0  0  0  0  0  0
  -24.7060  -21.5930   22.8090 C   0  0  0  0  0  2  0  0  0  0  0  0
  -25.3990  -18.9860   23.0100 C   0  0  0  0  0  3  0  0  0  0  0  0
  -26.0860  -22.0620   22.2440 C   0  0  0  0  0  3  0  0  0  0  0  0
  -25.9950  -23.3460   21.4200 N   0  0  0  0  0  4  0  0  0  0  0  0
  -25.1420  -23.7930   21.7270 H   0  0  0  0  0  0  0  0  0  0  0  0
  -25.8280  -23.0600   20.4660 H   0  0  0  0  0  0  0  0  0  0  0  0
  -27.0760  -24.4450   21.3950 C   0  0  0  0  0  2  0  0  0  0  0  0
  -26.9090  -25.4260   20.1360 C   0  0  0  0  0  2  0  0  0  0  0  0
  -27.7010  -26.6770   19.7810 O   0  0  0  0  0  0  0  0  0  0  0  0
  -25.1310  -31.7950   23.9800 C   0  0  0  0  0  0  0  0  0  0  0  0
  -26.9510  -27.8570   19.7950 C   0  0  0  0  0  0  0  0  0  0  0  0
  -23.7010  -30.9600   22.1550 C   0  0  0  0  0  3  0  0  0  0  0  0
  -24.8980  -29.7430   20.2660 C   0  0  0  0  0  0  0  0  0  0  0  0
  -26.2450  -31.0730   21.8670 C   0  0  0  0  0  2  0  0  0  0  0  0
  -26.1300  -29.8970   20.9110 C   0  0  0  0  0  0  0  0  0  0  0  0
  -27.1740  -28.9490   20.6880 C   0  0  0  0  0  3  0  0  0  0  0  0
  -25.7990  -27.9140   18.9830 C   0  0  0  0  0  3  0  0  0  0  0  0
  -24.7380  -28.7680   19.2810 C   0  0  0  0  0  3  0  0  0  0  0  0
  -23.7660  -30.6740   20.6350 C   0  0  0  0  0  2  0  0  0  0  0  0
  -25.0480  -31.2780   22.7240 N   0  0  0  0  0  0  0  0  0  0  0  0
  -24.1140  -32.0190   24.6510 O   0  0  0  0  0  0  0  0  0  0  0  0
  -22.9990  -29.7850   22.8740 C   0  0  0  0  0  0  0  0  0  0  0  0
  -21.7030  -29.5860   22.5870 N   0  0  0  0  0  0  0  0  0  0  0  0
  -23.6260  -29.0650   23.6590 O   0  0  0  0  0  0  0  0  0  0  0  0
  -21.2570  -30.2210   21.9420 H   0  0  0  0  0  0  0  0  0  0  0  0
  -18.4230  -28.0840   22.3810 C   0  0  0  0  0  0  0  0  0  0  0  0
  -20.8530  -28.5310   23.1410 C   0  0  0  0  0  3  0  0  0  0  0  0
  -21.1930  -27.1550   22.5210 C   0  0  0  0  0  2  0  0  0  0  0  0
  -20.3310  -26.8220   21.2990 C   0  0  0  0  0  2  0  0  0  0  0  0
  -18.8470  -26.8060   21.6770 C   0  0  0  0  0  2  0  0  0  0  0  0
  -19.3680  -28.9020   23.0550 C   0  0  0  0  0  0  0  0  0  0  0  0
  -18.9240  -30.0950   23.6670 C   0  0  0  0  0  3  0  0  0  0  0  0
  -17.5710  -30.4730   23.6110 C   0  0  0  0  0  3  0  0  0  0  0  0
  -16.6380  -29.6510   22.9550 C   0  0  0  0  0  3  0  0  0  0  0  0
  -17.0640  -28.4600   22.3450 C   0  0  0  0  0  3  0  0  0  0  0  0
  -26.5070  -32.1530   24.6200 C   0  0  0  0  0  3  0  0  0  0  0  0
  -27.0200  -31.0570   25.6360 C   0  0  1  0  0  0  0  0  0  0  0  0
  -25.9670  -30.6540   26.6960 C   0  0  0  0  0  1  0  0  0  0  0  0
  -27.4480  -29.7700   24.8930 C   0  0  0  0  0  1  0  0  0  0  0  0
  -28.2710  -31.5720   26.3820 C   0  0  0  0  0  1  0  0  0  0  0  0
  -26.3560  -33.4530   25.2870 N   0  0  0  0  0  0  0  0  0  0  0  0
  -26.8090  -34.6160   24.7990 C   0  0  0  0  0  0  0  0  0  0  0  0
  -27.4630  -34.6970   23.7560 O   0  0  0  0  0  0  0  0  0  0  0  0
  -25.7830  -33.4710   26.1170 H   0  0  0  0  0  0  0  0  0  0  0  0
  -25.3090  -36.6320   24.9250 C   0  0  0  0  0  1  0  0  0  0  0  0
  -26.4810  -35.8930   25.5920 C   0  0  0  0  0  3  0  0  0  0  0  0
  -28.6920  -36.2890   26.5940 C   0  0  0  0  0  1  0  0  0  0  0  0
  -27.6330  -36.8120   25.7340 N   0  0  0  0  0  0  0  0  0  0  0  0
  -27.3340  -37.7070   26.1110 H   0  0  0  0  0  0  0  0  0  0  0  0
  -24.4710  -17.7490   22.5200 C   0  0  0  0  0  2  0  0  0  0  0  0
  -25.1180  -16.2770   22.6060 C   0  0  0  0  0  2  0  0  0  0  0  0
  -25.1090  -15.1240   21.4490 C   0  0  0  0  0  2  0  0  0  0  0  0
  -26.2470  -14.6020   20.4010 C   0  0  0  0  0  2  0  0  0  0  0  0
  -27.0920  -13.3430   20.6770 N   0  0  0  0  0  4  0  0  0  0  0  0
  -27.6930  -13.5770   21.4500 H   0  0  0  0  0  0  0  0  0  0  0  0
  -26.5090  -12.5750   20.9920 H   0  0  0  0  0  0  0  0  0  0  0  0
  -28.0930  -12.8870   19.6010 C   0  0  0  0  0  2  0  0  0  0  0  0
  -33.6610  -11.4140   18.6390 C   0  0  0  0  0 15  0  0  0  0  0  0
  -32.6590  -11.5710   22.6190 C   0  0  0  0  0 15  0  0  0  0  0  0
  -31.2610  -11.4800   18.1620 C   0  0  0  0  0 15  0  0  0  0  0  0
  -30.3290  -11.5960   22.1910 C   0  0  0  0  0 15  0  0  0  0  0  0
  -34.5750  -11.4610   21.0790 C   0  0  0  0  0  1  0  0  0  0  0  0
  -29.2820  -11.7560   19.9330 C   0  0  0  0  0  1  0  0  0  0  0  0
  -35.9900  -10.5600   21.6320 C   0  0  0  0  0  0  0  0  0  0  0  0
  -36.1930   -8.1750   21.3390 C   0  0  0  0  0  2  0  0  0  0  0  0
  -35.6370   -8.2470   19.8910 C   0  0  0  0  0  2  0  0  0  0  0  0
  -34.1070   -8.4370   19.8880 C   0  0  0  0  0  2  0  0  0  0  0  0
  -33.4740   -9.2620   21.0640 C   0  0  0  0  0  3  0  0  0  0  0  0
  -34.3120   -9.2340   22.3750 C   0  0  0  0  0  2  0  0  0  0  0  0
  -35.6820   -9.3480   22.0410 N   0  0  0  0  0  0  0  0  0  0  0  0
  -37.2450  -10.7560   21.5980 O   0  0  0  0  0  0  0  0  0  0  0  0
  -32.4700  -12.2020   20.6280 C   0  0  0  0  0  0  0  0  0  0  0  0
  -31.4650  -12.2700   20.5980 C   0  0  0  0  0  0  0  0  0  0  0  0
  -30.9630  -10.5620   20.8380 C   0  0  1  0  0  0  0  0  0  0  0  0
  -32.4710  -10.4920   20.9480 N   0  0  1  0  0  4  0  0  0  0  0  0
  -31.5950   -9.9160   21.5740 N   0  0  0  0  0  2  0  0  0  0  0  0
  -29.6540   -9.6030   20.7330 C   0  0  0  0  0  0  0  0  0  0  0  0
  -28.9240   -9.2800   21.9220 C   0  0  0  0  0  3  0  0  0  0  0  0
  -27.6010   -8.7900   21.9050 C   0  0  0  0  0  3  0  0  0  0  0  0
  -26.8750   -8.6920   20.7010 C   0  0  0  0  0  0  0  0  0  0  0  0
  -27.5330   -8.9990   19.5110 C   0  0  0  0  0  3  0  0  0  0  0  0
  -28.9000   -9.3380   19.5170 C   0  0  0  0  0  3  0  0  0  0  0  0
  -25.5760   -8.2520   20.5670 O   0  0  0  0  0  0  0  0  0  0  0  0
  -24.6710   -8.3000   21.5960 C   0  0  0  0  0  0  0  0  0  0  0  0
  -24.1710   -9.5340   22.0570 C   0  0  0  0  0  3  0  0  0  0  0  0
  -23.1800   -9.5700   23.0570 C   0  0  0  0  0  3  0  0  0  0  0  0
  -22.6690   -8.3690   23.5860 C   0  0  0  0  0  0  0  0  0  0  0  0
  -23.1430   -7.1320   23.1070 C   0  0  0  0  0  3  0  0  0  0  0  0
  -24.1420   -7.0970   22.1180 C   0  0  0  0  0  0  0  0  0  0  0  0
  -24.5700   -5.8960   21.6530 F   0  0  0  0  0  0  0  0  0  0  0  0
  -21.7190   -8.4040   24.5470 F   0  0  0  0  0  0  0  0  0  0  0  0
  -30.9400  -13.7240   20.1450 C   0  0  0  0  0  0  0  0  0  0  0  0
  -30.5440  -14.3660   21.1980 N   0  0  0  0  0  0  0  0  0  0  0  0
  -30.6620  -14.0980   19.0130 O   0  0  0  0  0  0  0  0  0  0  0  0
  -30.8840  -13.9870   22.0770 H   0  0  0  0  0  0  0  0  0  0  0  0
  -30.4470  -15.3700   21.1050 H   0  0  0  0  0  0  0  0  0  0  0  0
  -33.3830  -13.3480   20.2780 N   0  0  0  0  0  0  0  0  0  0  0  0
  -33.0750  -14.2960   20.1110 H   0  0  0  0  0  0  0  0  0  0  0  0
  -34.3880  -13.2350   20.2460 H   0  0  0  0  0  0  0  0  0  0  0  0
  1  5  1  0
  3  1  1  0
  3  6  1  0
  4  2  1  0
  5 53  1  0
  5  2  1  0
  6  7  1  0
  6  4  1  0
  7  8  1  0
  9  7  1  0
 10  7  1  0
 11 10  1  0
 12 14  1  0
 12 11  1  0
 13 24  2  0
 14 19  1  0
 15 23  1  0
 15 25  1  0
 16 22  1  0
 16 18  1  0
 17 23  1  0
 18 17  1  0
 19 18  2  0
 20 21  1  0
 20 14  2  0
 21 16  2  0
 22 15  1  0
 23 13  1  0
 25 27  2  0
 26 25  1  0
 28 26  1  0
 29 34  1  0
 30 26  1  0
 31 30  1  0
 32 33  1  0
 32 31  1  0
 33 29  1  0
 34 30  1  0
 34 35  2  0
 36 35  1  0
 37 36  2  0
 38 29  2  0
 38 37  1  0
 39 13  1  0
 39 44  1  0
 39 40  1  0
 40 43  1  1
 40 41  1  0
 42 40  1  0
 44 47  1  0
 45 44  1  0
 45 49  1  0
 46 45  2  0
 49 48  1  0
 49 51  1  0
 51 52  1  0
 51 50  1  0
 53 54  1  0
 55 54  1  0
 56 57  1  0
 56 55  1  0
 57 59  1  0
 57 58  1  0
 60 66  1  0
 60 57  1  0
 65 67  1  0
 67 73  1  0
 68 73  1  0
 69 68  1  0
 70 69  1  0
 71 70  1  0
 71 72  1  0
 73 72  1  0
 74 67  2  0
 75 78  1  0
 76 75  2  0
 76 77  1  0
 77 80  1  6
 77 78  1  0
 77 79  1  0
 78 71  1  6
 78 79  1  0
 80 81  1  0
 82 81  2  0
 83 82  1  0
 84 85  1  0
 84 83  2  0
 85 80  2  0
 86 83  1  0
 86 87  1  0
 87 88  2  0
 87 92  1  0
 88 89  1  0
 89 90  2  0
 90 94  1  0
 91 90  1  0
 92 91  2  0
 93 92  1  0
 95 76  1  0
 95 96  1  0
 96 98  1  0
 97 95  2  0
 99 96  1  0
100 75  1  0
101100  1  0
102100  1  0
M  ISO  4  11 101  12 101  65 100  67 100
M  END
>  <TORSDO>  (13) 
F 26

>  <SCORE>  (13) 
42.297

>  <name>  (13) 
12

>  <ligand_id>  (13) 
12

>  <original_smiles>  (13) 
[H]c1c([H])c([H])c2c(c1[H])C([H])([H])C([H])([H])C([H])([H])C2([H])N([H])C(=O)C1([H])N(C(=O)C([H])(N([H])C(=O)C([H])(N([H])C([H])([H])[H])C([H])([H])[H])C(C([H])([H])[H])(C([H])([H])[H])C([H])([H])[H])C([H])([H])c2c([H])c(OC([H])([H])C([H])([H])[N+]([H])([H])C3([H])C([H])([H])C([H])([H])C([H])(C([H])([H])C([H])([H])C([H])([H])C([H])([H])[N+]([H])([H])C([H])([H])C4([H])C([H])([H])C([H])([H])C([H])(C(=O)N5C([H])([H])C([H])([H])C([H])([H])C([H])(n6nc(-c7c([H])c([H])c(Oc8c([H])c([H])c(F)c([H])c8F)c([H])c7[H])c(C(=O)N([H])[H])c6N([H])[H])C5([H])[H])C([H])([H])C4([H])[H])C([H])([H])C3([H])[H])c([H])c([H])c2C1([H])[H]

>  <smiles>  (13) 
[H]c1c([H])c([H])c2c(c1[H])C([H])([H])C([H])([H])C([H])([H])C2([H])N([H])C(=O)C1([H])N(C(=O)C([H])(N([H])C(=O)C([H])(N([H])C([H])([H])[H])C([H])([H])[H])C(C([H])([H])[H])(C([H])([H])[H])C([H])([H])[H])C([H])([H])c2c([H])c(OC([H])([H])C([H])([H])[N+]([H])([H])C3([H])C([H])([H])C([H])([H])C([H])(C([H])([H])C([H])([H])C([H])([H])C([H])([H])[N+]([H])([H])C([H])([H])C4([H])C([H])([H])C([H])([H])C([H])(C(=O)N5C([H])([H])C([H])([H])C([H])([H])C([H])(n6nc(-c7c([H])c([H])c(Oc8c([H])c([H])c(F)c([H])c8F)c([H])c7[H])c(C(=O)N([H])[H])c6N([H])[H])C5([H])[H])C([H])([H])C4([H])[H])C([H])([H])C3([H])[H])c([H])c([H])c2C1([H])[H]

$$$$
13:0:0
     RDKit          3D

 93101  0  0  1  0  0  0  0  0999 V2000
  -29.0580  -23.3020   22.7840 C   0  0  0  0  0  3  0  0  0  0  0  0
  -28.9510  -22.0080   22.2310 C   0  0  0  0  0  3  0  0  0  0  0  0
  -29.0210  -24.4400   21.9520 C   0  0  0  0  0  3  0  0  0  0  0  0
  -28.7750  -22.9840   20.0080 C   0  0  0  0  0  3  0  0  0  0  0  0
  -28.8180  -21.8160   20.8320 C   0  0  0  0  0  0  0  0  0  0  0  0
  -28.8760  -24.3020   20.5550 C   0  0  0  0  0  0  0  0  0  0  0  0
  -28.5930  -20.4170   20.2620 C   0  0  0  0  0  0  0  0  0  0  0  0
  -29.2090  -19.3710   20.8650 N   0  0  0  0  0  0  0  0  0  0  0  0
  -27.8280  -20.2610   19.3080 O   0  0  0  0  0  0  0  0  0  0  0  0
  -29.8650  -19.6430   21.5830 H   0  0  0  0  0  0  0  0  0  0  0  0
  -28.7220  -17.9580   20.9480 C   0  0  0  0  0  2  0  0  0  0  0  0
  -29.2200  -16.8170   19.9650 C   0  0  0  0  0  2  0  0  0  0  0  0
  -31.1980  -16.7530   18.4580 C   0  0  0  0  0  1  0  0  0  0  0  0
  -31.5680  -17.1890   20.8920 C   0  0  0  0  0  1  0  0  0  0  0  0
  -30.7320  -16.3440   19.8850 C   0  0  1  0  0  0  0  0  0  0  0  0
  -31.2040  -14.8070   19.9950 C   0  0  0  0  0  0  0  0  0  0  0  0
  -30.8040  -12.5350   19.1170 C   0  0  0  0  0  2  0  0  0  0  0  0
  -29.8780  -12.6240   17.8850 C   0  0  0  0  0  2  0  0  0  0  0  0
  -28.4070  -12.5300   18.3260 C   0  0  0  0  0  2  0  0  0  0  0  0
  -28.0760  -13.4820   19.5060 C   0  0  0  0  0  3  0  0  0  0  0  0
  -29.1390  -13.4120   20.6230 C   0  0  0  0  0  2  0  0  0  0  0  0
  -30.4450  -13.6630   20.0110 N   0  0  0  0  0  0  0  0  0  0  0  0
  -32.4080  -14.6720   19.7730 O   0  0  0  0  0  0  0  0  0  0  0  0
  -25.7320  -14.1710   20.2780 C   0  0  0  0  0  0  0  0  0  0  0  0
  -24.6420  -13.4390   20.6640 C   0  0  0  0  0  0  0  0  0  0  0  0
  -25.0490  -12.0710   20.6250 C   0  0  0  0  0  0  0  0  0  0  0  0
  -26.7330  -13.2490   20.0250 N   0  0  0  0  0  0  0  0  0  0  0  0
  -26.3310  -11.9820   20.2980 N   0  0  0  0  0  0  0  0  0  0  0  0
  -24.2770  -10.8370   20.8200 C   0  0  0  0  0  0  0  0  0  0  0  0
  -24.6730   -9.8540   21.7540 C   0  0  0  0  0  3  0  0  0  0  0  0
  -23.9020   -8.6870   21.9380 C   0  0  0  0  0  3  0  0  0  0  0  0
  -22.7190   -8.4930   21.1860 C   0  0  0  0  0  0  0  0  0  0  0  0
  -22.3390   -9.4640   20.2410 C   0  0  0  0  0  3  0  0  0  0  0  0
  -23.1120  -10.6230   20.0560 C   0  0  0  0  0  3  0  0  0  0  0  0
  -21.9200   -7.3790   21.2800 O   0  0  0  0  0  0  0  0  0  0  0  0
  -21.8270   -6.6560   22.4420 C   0  0  0  0  0  0  0  0  0  0  0  0
  -21.4280   -7.2500   23.6600 C   0  0  0  0  0  3  0  0  0  0  0  0
  -21.2800   -6.4560   24.8140 C   0  0  0  0  0  3  0  0  0  0  0  0
  -21.5180   -5.0690   24.7510 C   0  0  0  0  0  0  0  0  0  0  0  0
  -21.9100   -4.4760   23.5380 C   0  0  0  0  0  3  0  0  0  0  0  0
  -22.0590   -5.2680   22.3860 C   0  0  0  0  0  0  0  0  0  0  0  0
  -22.4170   -4.6880   21.2140 F   0  0  0  0  0  0  0  0  0  0  0  0
  -21.3670   -4.3050   25.8570 F   0  0  0  0  0  0  0  0  0  0  0  0
  -23.2680  -13.9710   20.9540 C   0  0  0  0  0  0  0  0  0  0  0  0
  -22.5260  -13.3090   21.8360 N   0  0  0  0  0  0  0  0  0  0  0  0
  -22.8620  -15.0100   20.4340 O   0  0  0  0  0  0  0  0  0  0  0  0
  -22.8660  -12.4690   22.2800 H   0  0  0  0  0  0  0  0  0  0  0  0
  -21.6030  -13.6460   22.0700 H   0  0  0  0  0  0  0  0  0  0  0  0
  -25.9470  -15.5320   20.0950 N   0  0  0  0  0  0  0  0  0  0  0  0
  -25.2140  -16.2210   20.2100 H   0  0  0  0  0  0  0  0  0  0  0  0
  -26.8040  -15.9210   19.7220 H   0  0  0  0  0  0  0  0  0  0  0  0
  -28.9230  -25.5510   19.6420 C   0  0  0  0  0  2  0  0  0  0  0  0
  -28.7250  -26.8520   20.2670 O   0  0  0  0  0  0  0  0  0  0  0  0
  -24.7080  -31.9370   23.2660 C   0  0  0  0  0  0  0  0  0  0  0  0
  -27.5150  -27.5370   20.2090 C   0  0  0  0  0  0  0  0  0  0  0  0
  -23.5680  -30.5030   21.6050 C   0  0  0  0  0  3  0  0  0  0  0  0
  -25.0810  -29.0120   20.1870 C   0  0  0  0  0  0  0  0  0  0  0  0
  -26.0870  -30.9250   21.4440 C   0  0  0  0  0  2  0  0  0  0  0  0
  -26.2160  -29.5570   20.7940 C   0  0  0  0  0  0  0  0  0  0  0  0
  -27.4320  -28.8290   20.7970 C   0  0  0  0  0  3  0  0  0  0  0  0
  -26.3470  -27.0110   19.6080 C   0  0  0  0  0  3  0  0  0  0  0  0
  -25.1440  -27.7410   19.5900 C   0  0  0  0  0  3  0  0  0  0  0  0
  -23.8130  -29.8380   20.2240 C   0  0  0  0  0  2  0  0  0  0  0  0
  -24.8040  -31.1400   22.1610 N   0  0  0  0  0  0  0  0  0  0  0  0
  -23.6110  -32.1700   23.7910 O   0  0  0  0  0  0  0  0  0  0  0  0
  -22.9400  -29.4540   22.5530 C   0  0  0  0  0  0  0  0  0  0  0  0
  -21.6200  -29.2440   22.4190 N   0  0  0  0  0  0  0  0  0  0  0  0
  -23.6370  -28.8310   23.3610 O   0  0  0  0  0  0  0  0  0  0  0  0
  -21.1230  -29.8000   21.7360 H   0  0  0  0  0  0  0  0  0  0  0  0
  -18.2610  -27.9800   22.8930 C   0  0  0  0  0  0  0  0  0  0  0  0
  -20.8150  -28.2780   23.1690 C   0  0  0  0  0  3  0  0  0  0  0  0
  -20.9430  -26.8600   22.5660 C   0  0  0  0  0  2  0  0  0  0  0  0
  -19.8440  -26.5360   21.5460 C   0  0  0  0  0  2  0  0  0  0  0  0
  -18.4590  -26.6440   22.1930 C   0  0  0  0  0  2  0  0  0  0  0  0
  -19.3670  -28.7540   23.3330 C   0  0  0  0  0  0  0  0  0  0  0  0
  -19.1260  -30.0050   23.9420 C   0  0  0  0  0  3  0  0  0  0  0  0
  -17.8150  -30.4820   24.1170 C   0  0  0  0  0  3  0  0  0  0  0  0
  -16.7220  -29.7030   23.6940 C   0  0  0  0  0  3  0  0  0  0  0  0
  -16.9450  -28.4560   23.0850 C   0  0  0  0  0  3  0  0  0  0  0  0
  -25.9630  -32.6020   23.9090 C   0  0  0  0  0  3  0  0  0  0  0  0
  -25.6160  -33.9960   24.2160 N   0  0  0  0  0  0  0  0  0  0  0  0
  -25.9440  -35.0470   23.4530 C   0  0  0  0  0  0  0  0  0  0  0  0
  -26.6440  -34.9480   22.4410 O   0  0  0  0  0  0  0  0  0  0  0  0
  -24.9970  -34.1430   25.0000 H   0  0  0  0  0  0  0  0  0  0  0  0
  -24.1810  -36.7910   23.0440 C   0  0  0  0  0  1  0  0  0  0  0  0
  -25.4160  -36.4280   23.8850 C   0  0  0  0  0  3  0  0  0  0  0  0
  -27.5130  -37.3670   24.7440 C   0  0  0  0  0  1  0  0  0  0  0  0
  -26.4230  -37.5030   23.7790 N   0  0  0  0  0  0  0  0  0  0  0  0
  -25.9930  -38.4140   23.9110 H   0  0  0  0  0  0  0  0  0  0  0  0
  -26.4690  -31.8570   25.2060 C   0  0  1  0  0  0  0  0  0  0  0  0
  -25.3590  -31.6040   26.2520 C   0  0  0  0  0  1  0  0  0  0  0  0
  -27.0910  -30.4910   24.8340 C   0  0  0  0  0  1  0  0  0  0  0  0
  -27.5860  -32.6900   25.8790 C   0  0  0  0  0  1  0  0  0  0  0  0
  2  1  1  0
  3  1  2  0
  4  6  2  0
  4  5  1  0
  5  2  2  0
  6  3  1  0
  7  5  1  0
  7  8  1  0
  8 11  1  0
  8 10  1  0
  9  7  2  0
 12 11  1  0
 15 13  1  6
 15 12  1  0
 15 16  1  0
 15 14  1  0
 16 22  1  0
 17 22  1  0
 18 19  1  0
 18 17  1  0
 20 19  1  0
 20 27  1  0
 20 21  1  0
 22 21  1  0
 23 16  2  0
 24 25  2  0
 25 44  1  0
 26 25  1  0
 26 29  1  0
 27 24  1  0
 27 28  1  0
 28 26  2  0
 29 30  1  0
 30 31  2  0
 32 35  1  0
 32 31  1  0
 33 32  2  0
 34 33  1  0
 34 29  2  0
 35 36  1  0
 36 37  1  0
 37 38  2  0
 39 38  1  0
 39 43  1  0
 40 39  2  0
 41 36  2  0
 41 40  1  0
 42 41  1  0
 44 45  1  0
 45 48  1  0
 45 47  1  0
 46 44  2  0
 49 50  1  0
 49 24  1  0
 51 49  1  0
 52 53  1  0
 52  6  1  0
 54 65  2  0
 55 53  1  0
 55 60  1  0
 56 64  1  0
 56 66  1  0
 57 63  1  0
 57 59  1  0
 58 64  1  0
 59 60  2  0
 59 58  1  0
 61 55  2  0
 62 61  1  0
 62 57  2  0
 63 56  1  0
 64 54  1  0
 66 68  2  0
 67 66  1  0
 69 67  1  0
 70 79  2  0
 70 75  1  0
 71 67  1  0
 71 75  1  0
 72 71  1  0
 73 74  1  0
 73 72  1  0
 74 70  1  0
 75 76  2  0
 76 77  1  0
 78 77  2  0
 79 78  1  0
 80 54  1  0
 80 81  1  0
 80 90  1  0
 81 84  1  0
 82 86  1  0
 82 81  1  0
 83 82  2  0
 86 85  1  0
 88 86  1  0
 88 89  1  0
 88 87  1  0
 90 93  1  1
 90 91  1  0
 92 90  1  0
M  ISO  4  15 100  16 100  52 101  53 101
M  END
>  <TORSDO>  (14) 
F 21

>  <SCORE>  (14) 
-13.277

>  <name>  (14) 
13

>  <ligand_id>  (14) 
13

>  <original_smiles>  (14) 
[H]c1c([H])c(C(=O)N([H])C([H])([H])C([H])([H])C(C(=O)N2C([H])([H])C([H])([H])C([H])([H])C([H])(n3nc(-c4c([H])c([H])c(Oc5c([H])c([H])c(F)c([H])c5F)c([H])c4[H])c(C(=O)N([H])[H])c3N([H])[H])C2([H])[H])(C([H])([H])[H])C([H])([H])[H])c([H])c(C([H])([H])Oc2c([H])c([H])c3c(c2[H])C([H])([H])N(C(=O)C([H])(N([H])C(=O)C([H])(N([H])C([H])([H])[H])C([H])([H])[H])C(C([H])([H])[H])(C([H])([H])[H])C([H])([H])[H])C([H])(C(=O)N([H])C2([H])c4c([H])c([H])c([H])c([H])c4C([H])([H])C([H])([H])C2([H])[H])C3([H])[H])c1[H]

>  <smiles>  (14) 
[H]c1c([H])c(C(=O)N([H])C([H])([H])C([H])([H])C(C(=O)N2C([H])([H])C([H])([H])C([H])([H])C([H])(n3nc(-c4c([H])c([H])c(Oc5c([H])c([H])c(F)c([H])c5F)c([H])c4[H])c(C(=O)N([H])[H])c3N([H])[H])C2([H])[H])(C([H])([H])[H])C([H])([H])[H])c([H])c(C([H])([H])Oc2c([H])c([H])c3c(c2[H])C([H])([H])N(C(=O)C([H])(N([H])C(=O)C([H])(N([H])C([H])([H])[H])C([H])([H])[H])C(C([H])([H])[H])(C([H])([H])[H])C([H])([H])[H])C([H])(C(=O)N([H])C2([H])c4c([H])c([H])c([H])c([H])c4C([H])([H])C([H])([H])C2([H])[H])C3([H])[H])c1[H]

$$$$
14:0:0
     RDKit          3D

 93101  0  0  1  0  0  0  0  0999 V2000
  -26.7440  -22.3190   18.9790 C   0  0  0  0  0  3  0  0  0  0  0  0
  -27.5520  -21.4810   19.7570 C   0  0  0  0  0  3  0  0  0  0  0  0
  -27.1200  -23.6530   18.7760 C   0  0  0  0  0  3  0  0  0  0  0  0
  -28.7450  -21.9550   20.3410 C   0  0  0  0  0  0  0  0  0  0  0  0
  -28.2670  -24.2040   19.3870 C   0  0  0  0  0  0  0  0  0  0  0  0
  -29.1110  -23.3360   20.1630 C   0  0  0  0  0  0  0  0  0  0  0  0
  -30.1820  -24.3600   22.2300 C   0  0  0  0  0  1  0  0  0  0  0  0
  -30.3950  -23.8780   20.7920 C   0  0  0  0  0  2  0  0  0  0  0  0
  -29.5190  -20.9280   21.1990 C   0  0  0  0  0  2  0  0  0  0  0  0
  -29.9510  -19.7100   20.4500 N   0  0  0  0  0  4  0  0  0  0  0  0
  -30.9370  -19.8050   20.2690 H   0  0  0  0  0  0  0  0  0  0  0  0
  -29.4790  -19.7170   19.5610 H   0  0  0  0  0  0  0  0  0  0  0  0
  -29.6820  -18.4090   21.1370 C   0  0  0  0  0  2  0  0  0  0  0  0
  -30.3270  -17.1580   20.4580 C   0  0  0  0  0  2  0  0  0  0  0  0
  -30.0000  -15.7830   21.1400 C   0  0  0  0  0  2  0  0  0  0  0  0
  -30.6640  -14.5460   20.4620 C   0  0  0  0  0  0  0  0  0  0  0  0
  -30.3670  -12.3790   19.3010 C   0  0  0  0  0  2  0  0  0  0  0  0
  -29.4310  -12.5920   18.0930 C   0  0  0  0  0  2  0  0  0  0  0  0
  -27.9550  -12.4590   18.5150 C   0  0  0  0  0  2  0  0  0  0  0  0
  -27.6210  -13.2940   19.7810 C   0  0  0  0  0  3  0  0  0  0  0  0
  -28.6720  -13.0570   20.8890 C   0  0  0  0  0  2  0  0  0  0  0  0
  -29.9960  -13.3660   20.3290 N   0  0  0  0  0  0  0  0  0  0  0  0
  -31.7840  -14.7070   19.9650 O   0  0  0  0  0  0  0  0  0  0  0  0
  -25.2200  -13.9160   20.4610 C   0  0  0  0  0  0  0  0  0  0  0  0
  -24.1450  -13.1500   20.8290 C   0  0  0  0  0  0  0  0  0  0  0  0
  -24.6020  -11.7960   20.8170 C   0  0  0  0  0  0  0  0  0  0  0  0
  -26.2640  -13.0280   20.2520 N   0  0  0  0  0  0  0  0  0  0  0  0
  -25.8950  -11.7500   20.5210 N   0  0  0  0  0  0  0  0  0  0  0  0
  -23.8700  -10.5390   21.0150 C   0  0  0  0  0  0  0  0  0  0  0  0
  -24.2990   -9.5740   21.9540 C   0  0  0  0  0  3  0  0  0  0  0  0
  -23.5680   -8.3810   22.1390 C   0  0  0  0  0  3  0  0  0  0  0  0
  -22.3950   -8.1440   21.3850 C   0  0  0  0  0  0  0  0  0  0  0  0
  -21.9830   -9.0970   20.4370 C   0  0  0  0  0  3  0  0  0  0  0  0
  -22.7140  -10.2820   20.2500 C   0  0  0  0  0  3  0  0  0  0  0  0
  -21.6350   -7.0030   21.4800 O   0  0  0  0  0  0  0  0  0  0  0  0
  -21.5910   -6.2610   22.6330 C   0  0  0  0  0  0  0  0  0  0  0  0
  -21.1900   -6.8230   23.8660 C   0  0  0  0  0  3  0  0  0  0  0  0
  -21.0910   -6.0090   25.0110 C   0  0  0  0  0  3  0  0  0  0  0  0
  -21.3870   -4.6350   24.9270 C   0  0  0  0  0  0  0  0  0  0  0  0
  -21.7840   -4.0730   23.7000 C   0  0  0  0  0  3  0  0  0  0  0  0
  -21.8830   -4.8840   22.5560 C   0  0  0  0  0  0  0  0  0  0  0  0
  -22.2450   -4.3350   21.3720 F   0  0  0  0  0  0  0  0  0  0  0  0
  -21.2850   -3.8510   26.0260 F   0  0  0  0  0  0  0  0  0  0  0  0
  -22.7490  -13.6350   21.0870 C   0  0  0  0  0  0  0  0  0  0  0  0
  -22.0130  -12.9500   21.9580 N   0  0  0  0  0  0  0  0  0  0  0  0
  -22.3170  -14.6560   20.5530 O   0  0  0  0  0  0  0  0  0  0  0  0
  -22.3750  -12.1220   22.4070 H   0  0  0  0  0  0  0  0  0  0  0  0
  -21.0770  -13.2580   22.1770 H   0  0  0  0  0  0  0  0  0  0  0  0
  -25.3880  -15.2840   20.2690 N   0  0  0  0  0  0  0  0  0  0  0  0
  -24.6150  -15.9360   20.3550 H   0  0  0  0  0  0  0  0  0  0  0  0
  -26.2400  -15.7170   19.9360 H   0  0  0  0  0  0  0  0  0  0  0  0
  -28.5770  -25.6920   19.0690 C   0  0  0  0  0  2  0  0  0  0  0  0
  -28.3380  -26.6790   20.1030 O   0  0  0  0  0  0  0  0  0  0  0  0
  -24.5620  -31.8900   23.2330 C   0  0  0  0  0  0  0  0  0  0  0  0
  -27.1610  -27.4200   20.1060 C   0  0  0  0  0  0  0  0  0  0  0  0
  -23.3360  -30.5000   21.5980 C   0  0  0  0  0  3  0  0  0  0  0  0
  -24.7730  -28.9610   20.1580 C   0  0  0  0  0  0  0  0  0  0  0  0
  -25.8680  -30.8380   21.3860 C   0  0  0  0  0  2  0  0  0  0  0  0
  -25.9410  -29.4680   20.7370 C   0  0  0  0  0  0  0  0  0  0  0  0
  -27.1350  -28.7010   20.7180 C   0  0  0  0  0  3  0  0  0  0  0  0
  -25.9600  -26.9370   19.5430 C   0  0  0  0  0  3  0  0  0  0  0  0
  -24.7760  -27.6910   19.5650 C   0  0  0  0  0  3  0  0  0  0  0  0
  -23.5320  -29.8190   20.2180 C   0  0  0  0  0  2  0  0  0  0  0  0
  -24.6070  -31.0920   22.1290 N   0  0  0  0  0  0  0  0  0  0  0  0
  -23.4870  -32.1640   23.7850 O   0  0  0  0  0  0  0  0  0  0  0  0
  -22.6870  -29.4790   22.5610 C   0  0  0  0  0  0  0  0  0  0  0  0
  -21.3580  -29.3030   22.4460 N   0  0  0  0  0  0  0  0  0  0  0  0
  -23.3750  -28.8470   23.3650 O   0  0  0  0  0  0  0  0  0  0  0  0
  -20.8610  -29.8660   21.7700 H   0  0  0  0  0  0  0  0  0  0  0  0
  -17.9890  -28.1050   22.9580 C   0  0  0  0  0  0  0  0  0  0  0  0
  -20.5480  -28.3630   23.2190 C   0  0  0  0  0  3  0  0  0  0  0  0
  -20.6460  -26.9320   22.6410 C   0  0  0  0  0  2  0  0  0  0  0  0
  -19.5410  -26.6110   21.6290 C   0  0  0  0  0  2  0  0  0  0  0  0
  -18.1620  -26.7570   22.2800 C   0  0  0  0  0  2  0  0  0  0  0  0
  -19.1100  -28.8670   23.3830 C   0  0  0  0  0  0  0  0  0  0  0  0
  -18.8950  -30.1310   23.9750 C   0  0  0  0  0  3  0  0  0  0  0  0
  -17.5930  -30.6360   24.1420 C   0  0  0  0  0  3  0  0  0  0  0  0
  -16.4860  -29.8700   23.7380 C   0  0  0  0  0  3  0  0  0  0  0  0
  -16.6840  -28.6070   23.1540 C   0  0  0  0  0  3  0  0  0  0  0  0
  -25.8570  -32.5170   23.8400 C   0  0  0  0  0  3  0  0  0  0  0  0
  -25.5540  -33.9150   24.1730 N   0  0  0  0  0  0  0  0  0  0  0  0
  -25.8880  -34.9670   23.4160 C   0  0  0  0  0  0  0  0  0  0  0  0
  -26.5530  -34.8660   22.3820 O   0  0  0  0  0  0  0  0  0  0  0  0
  -24.9550  -34.0660   24.9720 H   0  0  0  0  0  0  0  0  0  0  0  0
  -24.1710  -36.7740   23.0740 C   0  0  0  0  0  1  0  0  0  0  0  0
  -25.4100  -36.3550   23.8800 C   0  0  0  0  0  3  0  0  0  0  0  0
  -27.5530  -37.2240   24.7080 C   0  0  0  0  0  1  0  0  0  0  0  0
  -26.4470  -37.4050   23.7710 N   0  0  0  0  0  0  0  0  0  0  0  0
  -26.0440  -38.3250   23.9310 H   0  0  0  0  0  0  0  0  0  0  0  0
  -26.3860  -31.7460   25.1110 C   0  0  1  0  0  0  0  0  0  0  0  0
  -25.3070  -31.5140   26.1930 C   0  0  0  0  0  1  0  0  0  0  0  0
  -26.9650  -30.3670   24.7190 C   0  0  0  0  0  1  0  0  0  0  0  0
  -27.5410  -32.5420   25.7630 C   0  0  0  0  0  1  0  0  0  0  0  0
  1  2  1  0
  2  4  2  0
  3  1  2  0
  3  5  1  0
  4  9  1  0
  5  6  2  0
  6  4  1  0
  6  8  1  0
  8  7  1  0
 10 13  1  0
 10  9  1  0
 11 10  1  0
 12 10  1  0
 14 13  1  0
 14 15  1  0
 16 15  1  0
 17 22  1  0
 18 19  1  0
 18 17  1  0
 20 19  1  0
 20 27  1  0
 20 21  1  0
 22 16  1  0
 22 21  1  0
 23 16  2  0
 24 25  2  0
 25 44  1  0
 26 25  1  0
 26 29  1  0
 27 24  1  0
 27 28  1  0
 28 26  2  0
 29 30  1  0
 30 31  2  0
 32 35  1  0
 32 31  1  0
 33 32  2  0
 34 33  1  0
 34 29  2  0
 35 36  1  0
 36 37  1  0
 37 38  2  0
 39 38  1  0
 39 43  1  0
 40 39  2  0
 41 36  2  0
 41 40  1  0
 42 41  1  0
 44 45  1  0
 45 48  1  0
 45 47  1  0
 46 44  2  0
 49 50  1  0
 49 24  1  0
 51 49  1  0
 52  5  1  0
 52 53  1  0
 53 55  1  0
 54 65  2  0
 55 60  1  0
 56 64  1  0
 56 66  1  0
 57 63  1  0
 57 59  1  0
 58 64  1  0
 59 58  1  0
 60 59  2  0
 61 62  1  0
 61 55  2  0
 62 57  2  0
 63 56  1  0
 64 54  1  0
 66 68  2  0
 67 66  1  0
 69 67  1  0
 70 79  2  0
 70 75  1  0
 71 67  1  0
 71 75  1  0
 72 71  1  0
 73 74  1  0
 73 72  1  0
 74 70  1  0
 75 76  2  0
 76 77  1  0
 78 77  2  0
 79 78  1  0
 80 54  1  0
 80 81  1  0
 80 90  1  0
 81 84  1  0
 82 86  1  0
 82 81  1  0
 83 82  2  0
 86 85  1  0
 88 86  1  0
 88 89  1  0
 88 87  1  0
 90 93  1  1
 90 91  1  0
 92 90  1  0
M  ISO  4  15 100  16 100  52 101  53 101
M  END
>  <TORSDO>  (15) 
F 23

>  <SCORE>  (15) 
-12.705

>  <name>  (15) 
14

>  <ligand_id>  (15) 
14

>  <original_smiles>  (15) 
[H]c1c([H])c([H])c2c(c1[H])C([H])([H])C([H])([H])C([H])([H])C2([H])N([H])C(=O)C1([H])N(C(=O)C([H])(N([H])C(=O)C([H])(N([H])C([H])([H])[H])C([H])([H])[H])C(C([H])([H])[H])(C([H])([H])[H])C([H])([H])[H])C([H])([H])c2c([H])c(OC([H])([H])c3c([H])c([H])c([H])c(C([H])([H])[N+]([H])([H])C([H])([H])C([H])([H])C([H])([H])C(=O)N4C([H])([H])C([H])([H])C([H])([H])C([H])(n5nc(-c6c([H])c([H])c(Oc7c([H])c([H])c(F)c([H])c7F)c([H])c6[H])c(C(=O)N([H])[H])c5N([H])[H])C4([H])[H])c3C([H])([H])C([H])([H])[H])c([H])c([H])c2C1([H])[H]

>  <smiles>  (15) 
[H]c1c([H])c([H])c2c(c1[H])C([H])([H])C([H])([H])C([H])([H])C2([H])N([H])C(=O)C1([H])N(C(=O)C([H])(N([H])C(=O)C([H])(N([H])C([H])([H])[H])C([H])([H])[H])C(C([H])([H])[H])(C([H])([H])[H])C([H])([H])[H])C([H])([H])c2c([H])c(OC([H])([H])c3c([H])c([H])c([H])c(C([H])([H])[N+]([H])([H])C([H])([H])C([H])([H])C([H])([H])C(=O)N4C([H])([H])C([H])([H])C([H])([H])C([H])(n5nc(-c6c([H])c([H])c(Oc7c([H])c([H])c(F)c([H])c7F)c([H])c6[H])c(C(=O)N([H])[H])c5N([H])[H])C4([H])[H])c3C([H])([H])C([H])([H])[H])c([H])c([H])c2C1([H])[H]

$$$$
15:0:0
     RDKit          3D

 92101  0  0  1  0  0  0  0  0999 V2000
  -30.2400  -23.6040   19.9170 C   0  0  0  0  0  3  0  0  0  0  0  0
  -28.6050  -21.8830   20.3640 C   0  0  0  0  0  3  0  0  0  0  0  0
  -31.2020  -22.5760   19.7750 C   0  0  0  0  0  0  0  0  0  0  0  0
  -30.8970  -21.1840   19.9530 C   0  0  0  0  0  0  0  0  0  0  0  0
  -28.8990  -23.3380   20.2100 C   0  0  0  0  0  0  0  0  0  0  0  0
  -29.5640  -20.7430   20.2530 C   0  0  0  0  0  0  0  0  0  0  0  0
  -32.6040  -23.0480   19.4040 C   0  0  0  0  0  2  0  0  0  0  0  0
  -32.0200  -20.1610   19.7730 C   0  0  0  0  0  2  0  0  0  0  0  0
  -33.4600  -21.9680   18.7490 C   0  0  0  0  0  2  0  0  0  0  0  0
  -33.4400  -20.7190   19.6180 C   0  0  0  0  0  2  0  0  0  0  0  0
  -29.1670  -19.1150   20.4020 C   0  0  0  0  0  3  0  0  0  0  0  0
  -30.1680  -17.7280   20.3740 C   0  0  0  0  0  3  0  0  0  0  0  0
  -30.4990  -15.0000   20.3250 C   0  0  0  0  0  0  0  0  0  0  0  0
  -30.3690  -12.6520   19.3740 C   0  0  0  0  0  2  0  0  0  0  0  0
  -29.4310  -12.6070   18.1460 C   0  0  0  0  0  2  0  0  0  0  0  0
  -27.9730  -12.3890   18.5890 C   0  0  0  0  0  2  0  0  0  0  0  0
  -27.5690  -13.3070   19.7710 C   0  0  0  0  0  3  0  0  0  0  0  0
  -28.6310  -13.3240   20.8910 C   0  0  0  0  0  2  0  0  0  0  0  0
  -29.8940  -13.7440   20.2730 N   0  0  0  0  0  0  0  0  0  0  0  0
  -31.7000  -15.0520   20.0430 O   0  0  0  0  0  0  0  0  0  0  0  0
  -29.7440  -16.2010   20.4810 N   0  0  0  0  0  0  0  0  0  0  0  0
  -28.7640  -16.0460   20.6670 H   0  0  0  0  0  0  0  0  0  0  0  0
  -25.1920  -13.8700   20.5300 C   0  0  0  0  0  0  0  0  0  0  0  0
  -24.1330  -13.0890   20.8990 C   0  0  0  0  0  0  0  0  0  0  0  0
  -24.6030  -11.7400   20.8560 C   0  0  0  0  0  0  0  0  0  0  0  0
  -26.2370  -12.9980   20.2770 N   0  0  0  0  0  0  0  0  0  0  0  0
  -25.8920  -11.7110   20.5400 N   0  0  0  0  0  0  0  0  0  0  0  0
  -23.8820  -10.4730   21.0400 C   0  0  0  0  0  0  0  0  0  0  0  0
  -24.3070   -9.5110   21.9820 C   0  0  0  0  0  3  0  0  0  0  0  0
  -23.5840   -8.3100   22.1540 C   0  0  0  0  0  3  0  0  0  0  0  0
  -22.4220   -8.0640   21.3840 C   0  0  0  0  0  0  0  0  0  0  0  0
  -22.0170   -9.0160   20.4320 C   0  0  0  0  0  3  0  0  0  0  0  0
  -22.7400  -10.2070   20.2580 C   0  0  0  0  0  3  0  0  0  0  0  0
  -21.6710   -6.9160   21.4650 O   0  0  0  0  0  0  0  0  0  0  0  0
  -21.5950   -6.1870   22.6240 C   0  0  0  0  0  0  0  0  0  0  0  0
  -21.1170   -6.7490   23.8280 C   0  0  0  0  0  3  0  0  0  0  0  0
  -20.9900   -5.9460   24.9780 C   0  0  0  0  0  3  0  0  0  0  0  0
  -21.3280   -4.5800   24.9250 C   0  0  0  0  0  0  0  0  0  0  0  0
  -21.7990   -4.0170   23.7250 C   0  0  0  0  0  3  0  0  0  0  0  0
  -21.9280   -4.8190   22.5780 C   0  0  0  0  0  0  0  0  0  0  0  0
  -22.3620   -4.2660   21.4190 F   0  0  0  0  0  0  0  0  0  0  0  0
  -21.1980   -3.8050   26.0280 F   0  0  0  0  0  0  0  0  0  0  0  0
  -22.7360  -13.5590   21.1770 C   0  0  0  0  0  0  0  0  0  0  0  0
  -22.0140  -12.8560   22.0430 N   0  0  0  0  0  0  0  0  0  0  0  0
  -22.2920  -14.5840   20.6620 O   0  0  0  0  0  0  0  0  0  0  0  0
  -22.3880  -12.0270   22.4820 H   0  0  0  0  0  0  0  0  0  0  0  0
  -21.0770  -13.1530   22.2740 H   0  0  0  0  0  0  0  0  0  0  0  0
  -25.3480  -15.2430   20.3600 N   0  0  0  0  0  0  0  0  0  0  0  0
  -24.5730  -15.8880   20.4730 H   0  0  0  0  0  0  0  0  0  0  0  0
  -26.1800  -15.6870   19.9930 H   0  0  0  0  0  0  0  0  0  0  0  0
  -27.8560  -24.6210   20.2360 C   0  0  0  0  0  2  0  0  0  0  0  0
  -28.2150  -26.1490   20.2450 O   0  0  0  0  0  0  0  0  0  0  0  0
  -24.6480  -31.8990   23.2500 C   0  0  0  0  0  0  0  0  0  0  0  0
  -27.1780  -27.1600   20.1980 C   0  0  0  0  0  0  0  0  0  0  0  0
  -23.4350  -30.5190   21.6090 C   0  0  0  0  0  3  0  0  0  0  0  0
  -24.8680  -28.9400   20.1780 C   0  0  0  0  0  0  0  0  0  0  0  0
  -25.9930  -30.7600   21.4430 C   0  0  0  0  0  2  0  0  0  0  0  0
  -26.0550  -29.3680   20.7860 C   0  0  0  0  0  0  0  0  0  0  0  0
  -27.2120  -28.4960   20.7770 C   0  0  0  0  0  3  0  0  0  0  0  0
  -25.9640  -26.8450   19.5490 C   0  0  0  0  0  3  0  0  0  0  0  0
  -24.8380  -27.6920   19.5430 C   0  0  0  0  0  3  0  0  0  0  0  0
  -23.6500  -29.8480   20.2280 C   0  0  0  0  0  2  0  0  0  0  0  0
  -24.7120  -31.0810   22.1550 N   0  0  0  0  0  0  0  0  0  0  0  0
  -23.5630  -32.1890   23.7800 O   0  0  0  0  0  0  0  0  0  0  0  0
  -22.7500  -29.5120   22.5680 C   0  0  0  0  0  0  0  0  0  0  0  0
  -21.4210  -29.3490   22.4420 N   0  0  0  0  0  0  0  0  0  0  0  0
  -23.4180  -28.8800   23.3900 O   0  0  0  0  0  0  0  0  0  0  0  0
  -20.9380  -29.9120   21.7550 H   0  0  0  0  0  0  0  0  0  0  0  0
  -18.0330  -28.1670   22.9410 C   0  0  0  0  0  0  0  0  0  0  0  0
  -20.5920  -28.4170   23.2110 C   0  0  0  0  0  3  0  0  0  0  0  0
  -20.6870  -26.9840   22.6370 C   0  0  0  0  0  2  0  0  0  0  0  0
  -19.5850  -26.6660   21.6210 C   0  0  0  0  0  2  0  0  0  0  0  0
  -18.2040  -26.8180   22.2630 C   0  0  0  0  0  2  0  0  0  0  0  0
  -19.1540  -28.9240   23.3710 C   0  0  0  0  0  0  0  0  0  0  0  0
  -18.9390  -30.1870   23.9670 C   0  0  0  0  0  3  0  0  0  0  0  0
  -17.6360  -30.6910   24.1340 C   0  0  0  0  0  3  0  0  0  0  0  0
  -16.5290  -29.9310   23.7180 C   0  0  0  0  0  3  0  0  0  0  0  0
  -16.7280  -28.6700   23.1280 C   0  0  0  0  0  3  0  0  0  0  0  0
  -25.9300  -32.5250   23.8770 C   0  0  0  0  0  3  0  0  0  0  0  0
  -26.4390  -31.7460   25.1530 C   0  0  1  0  0  0  0  0  0  0  0  0
  -25.3440  -31.5110   26.2190 C   0  0  0  0  0  1  0  0  0  0  0  0
  -27.0140  -30.3650   24.7600 C   0  0  0  0  0  1  0  0  0  0  0  0
  -27.5950  -32.5300   25.8180 C   0  0  0  0  0  1  0  0  0  0  0  0
  -25.6240  -33.9220   24.2210 N   0  0  0  0  0  0  0  0  0  0  0  0
  -25.9280  -34.9830   23.4600 C   0  0  0  0  0  0  0  0  0  0  0  0
  -26.5620  -34.8870   22.4060 O   0  0  0  0  0  0  0  0  0  0  0  0
  -25.0570  -34.0700   25.0430 H   0  0  0  0  0  0  0  0  0  0  0  0
  -24.1700  -36.7660   23.1990 C   0  0  0  0  0  1  0  0  0  0  0  0
  -25.4550  -36.3690   23.9440 C   0  0  0  0  0  3  0  0  0  0  0  0
  -27.6220  -37.2720   24.6630 C   0  0  0  0  0  1  0  0  0  0  0  0
  -26.4720  -37.4300   23.7760 N   0  0  0  0  0  0  0  0  0  0  0  0
  -26.0670  -38.3470   23.9420 H   0  0  0  0  0  0  0  0  0  0  0  0
  1  5  1  0
  3  1  2  0
  3  4  1  0
  4  6  2  0
  5 51  1  0
  5  2  2  0
  6  2  1  0
  6 11  1  0
  7  3  1  0
  8  4  1  0
  9  7  1  0
  9 10  1  0
 10  8  1  0
 12 11  2  0
 12 21  1  0
 13 21  1  0
 14 19  1  0
 15 16  1  0
 15 14  1  0
 17 16  1  0
 17 26  1  0
 17 18  1  0
 19 13  1  0
 19 18  1  0
 20 13  2  0
 21 22  1  0
 23 24  2  0
 24 43  1  0
 25 24  1  0
 25 28  1  0
 26 23  1  0
 26 27  1  0
 27 25  2  0
 28 29  1  0
 29 30  2  0
 31 34  1  0
 31 30  1  0
 32 31  2  0
 33 32  1  0
 33 28  2  0
 34 35  1  0
 35 36  1  0
 36 37  2  0
 38 37  1  0
 38 42  1  0
 39 38  2  0
 40 35  2  0
 40 39  1  0
 41 40  1  0
 43 44  1  0
 44 47  1  0
 44 46  1  0
 45 43  2  0
 48 49  1  0
 48 23  1  0
 50 48  1  0
 51 52  1  0
 53 64  2  0
 54 52  1  0
 54 59  1  0
 55 63  1  0
 55 65  1  0
 56 62  1  0
 56 58  1  0
 57 63  1  0
 58 57  1  0
 59 58  2  0
 60 54  2  0
 61 60  1  0
 61 56  2  0
 62 55  1  0
 63 53  1  0
 65 67  2  0
 66 65  1  0
 68 66  1  0
 69 78  2  0
 69 74  1  0
 70 66  1  0
 70 74  1  0
 71 70  1  0
 72 73  1  0
 72 71  1  0
 73 69  1  0
 74 75  2  0
 75 76  1  0
 77 76  2  0
 78 77  1  0
 79 53  1  0
 79 84  1  0
 79 80  1  0
 80 83  1  1
 80 81  1  0
 82 80  1  0
 84 87  1  0
 85 89  1  0
 85 84  1  0
 86 85  2  0
 89 88  1  0
 91 92  1  0
 91 89  1  0
 91 90  1  0
M  ISO  4  13 100  21 100  51 101  52 101
M  END
>  <TORSDO>  (16) 
F 19

>  <SCORE>  (16) 
-15.050

>  <name>  (16) 
15

>  <ligand_id>  (16) 
15

>  <original_smiles>  (16) 
[H]c1c([H])c([H])c2c(c1[H])C([H])([H])C([H])([H])C([H])([H])C2([H])N([H])C(=O)C1([H])N(C(=O)C([H])(N([H])C(=O)C([H])(N([H])C([H])([H])[H])C([H])([H])[H])C(C([H])([H])[H])(C([H])([H])[H])C([H])([H])[H])C([H])([H])c2c([H])c(OC([H])([H])c3c([H])c(C([H])([H])C([H])([H])N([H])C(=O)N4C([H])([H])C([H])([H])C([H])([H])C([H])(n5nc(-c6c([H])c([H])c(Oc7c([H])c([H])c(F)c([H])c7F)c([H])c6[H])c(C(=O)N([H])[H])c5N([H])[H])C4([H])[H])c4c(c3[H])C([H])([H])C([H])([H])C([H])([H])C4([H])[H])c([H])c([H])c2C1([H])[H]

>  <smiles>  (16) 
[H]c1c([H])c([H])c2c(c1[H])C([H])([H])C([H])([H])C([H])([H])C2([H])N([H])C(=O)C1([H])N(C(=O)C([H])(N([H])C(=O)C([H])(N([H])C([H])([H])[H])C([H])([H])[H])C(C([H])([H])[H])(C([H])([H])[H])C([H])([H])[H])C([H])([H])c2c([H])c(OC([H])([H])c3c([H])c(C([H])([H])C([H])([H])N([H])C(=O)N4C([H])([H])C([H])([H])C([H])([H])C([H])(n5nc(-c6c([H])c([H])c(Oc7c([H])c([H])c(F)c([H])c7F)c([H])c6[H])c(C(=O)N([H])[H])c5N([H])[H])C4([H])[H])c4c(c3[H])C([H])([H])C([H])([H])C([H])([H])C4([H])[H])c([H])c([H])c2C1([H])[H]

$$$$
16:0:0
     RDKit          3D

 93101  0  0  1  0  0  0  0  0999 V2000
  -29.3440  -21.8080   18.6860 C   0  0  0  0  0  3  0  0  0  0  0  0
  -28.9330  -22.9490   20.7930 C   0  0  0  0  0  3  0  0  0  0  0  0
  -28.8660  -24.2120   18.7110 C   0  0  0  0  0  3  0  0  0  0  0  0
  -29.2190  -21.7420   20.0940 C   0  0  0  0  0  0  0  0  0  0  0  0
  -29.1600  -23.0300   17.9990 C   0  0  0  0  0  0  0  0  0  0  0  0
  -28.7590  -24.1870   20.1170 C   0  0  0  0  0  0  0  0  0  0  0  0
  -29.2680  -23.0720   16.4870 C   0  0  0  0  0  1  0  0  0  0  0  0
  -29.4060  -20.4330   20.8460 C   0  0  0  0  0  0  0  0  0  0  0  0
  -29.2160  -19.2820   20.1680 N   0  0  0  0  0  0  0  0  0  0  0  0
  -29.6500  -20.4440   22.0550 O   0  0  0  0  0  0  0  0  0  0  0  0
  -29.0040  -19.3820   19.1840 H   0  0  0  0  0  0  0  0  0  0  0  0
  -29.0740  -17.9260   20.7330 C   0  0  0  0  0  2  0  0  0  0  0  0
  -30.3130  -17.0080   20.5410 C   0  0  0  0  0  2  0  0  0  0  0  0
  -30.7210  -14.5410   20.2310 C   0  0  0  0  0  0  0  0  0  0  0  0
  -30.3860  -12.4010   19.0560 C   0  0  0  0  0  2  0  0  0  0  0  0
  -29.3990  -12.6330   17.8920 C   0  0  0  0  0  2  0  0  0  0  0  0
  -27.9400  -12.4970   18.3730 C   0  0  0  0  0  2  0  0  0  0  0  0
  -27.6560  -13.3090   19.6650 C   0  0  0  0  0  3  0  0  0  0  0  0
  -28.7490  -13.0510   20.7290 C   0  0  0  0  0  2  0  0  0  0  0  0
  -30.0530  -13.3600   20.1220 N   0  0  0  0  0  0  0  0  0  0  0  0
  -31.8440  -14.7220   19.7530 O   0  0  0  0  0  0  0  0  0  0  0  0
  -29.9930  -15.5740   20.7070 N   0  0  0  0  0  0  0  0  0  0  0  0
  -29.0890  -15.3430   21.0920 H   0  0  0  0  0  0  0  0  0  0  0  0
  -25.2910  -13.9300   20.4670 C   0  0  0  0  0  0  0  0  0  0  0  0
  -24.2280  -13.1640   20.8620 C   0  0  0  0  0  0  0  0  0  0  0  0
  -24.6730  -11.8080   20.7930 C   0  0  0  0  0  0  0  0  0  0  0  0
  -26.3180  -13.0420   20.1860 N   0  0  0  0  0  0  0  0  0  0  0  0
  -25.9510  -11.7600   20.4400 N   0  0  0  0  0  0  0  0  0  0  0  0
  -23.9410  -10.5500   20.9880 C   0  0  0  0  0  0  0  0  0  0  0  0
  -24.3830   -9.5720   21.9060 C   0  0  0  0  0  3  0  0  0  0  0  0
  -23.6520   -8.3790   22.0880 C   0  0  0  0  0  3  0  0  0  0  0  0
  -22.4650   -8.1530   21.3520 C   0  0  0  0  0  0  0  0  0  0  0  0
  -22.0410   -9.1200   20.4230 C   0  0  0  0  0  3  0  0  0  0  0  0
  -22.7730  -10.3060   20.2390 C   0  0  0  0  0  3  0  0  0  0  0  0
  -21.7040   -7.0120   21.4440 O   0  0  0  0  0  0  0  0  0  0  0  0
  -21.6580   -6.2700   22.5970 C   0  0  0  0  0  0  0  0  0  0  0  0
  -21.2130   -6.8210   23.8190 C   0  0  0  0  0  3  0  0  0  0  0  0
  -21.1130   -6.0060   24.9650 C   0  0  0  0  0  3  0  0  0  0  0  0
  -21.4470   -4.6400   24.8880 C   0  0  0  0  0  0  0  0  0  0  0  0
  -21.8830   -4.0880   23.6710 C   0  0  0  0  0  3  0  0  0  0  0  0
  -21.9850   -4.9010   22.5280 C   0  0  0  0  0  0  0  0  0  0  0  0
  -22.3850   -4.3600   21.3520 F   0  0  0  0  0  0  0  0  0  0  0  0
  -21.3440   -3.8550   25.9850 F   0  0  0  0  0  0  0  0  0  0  0  0
  -22.8460  -13.6510   21.1910 C   0  0  0  0  0  0  0  0  0  0  0  0
  -22.1370  -12.9470   22.0660 N   0  0  0  0  0  0  0  0  0  0  0  0
  -22.4030  -14.6920   20.7050 O   0  0  0  0  0  0  0  0  0  0  0  0
  -22.5080  -12.1070   22.4840 H   0  0  0  0  0  0  0  0  0  0  0  0
  -21.2100  -13.2540   22.3250 H   0  0  0  0  0  0  0  0  0  0  0  0
  -25.4650  -15.3000   20.3020 N   0  0  0  0  0  0  0  0  0  0  0  0
  -24.7090  -15.9610   20.4440 H   0  0  0  0  0  0  0  0  0  0  0  0
  -26.2930  -15.7250   19.9030 H   0  0  0  0  0  0  0  0  0  0  0  0
  -28.4310  -25.4590   20.9140 C   0  0  0  0  0  2  0  0  0  0  0  0
  -28.5310  -26.7120   20.2010 O   0  0  0  0  0  0  0  0  0  0  0  0
  -24.6450  -31.8820   23.2330 C   0  0  0  0  0  0  0  0  0  0  0  0
  -27.3740  -27.4630   20.1880 C   0  0  0  0  0  0  0  0  0  0  0  0
  -23.4770  -30.4720   21.5700 C   0  0  0  0  0  3  0  0  0  0  0  0
  -24.9670  -28.9490   20.1620 C   0  0  0  0  0  0  0  0  0  0  0  0
  -26.0010  -30.8540   21.4090 C   0  0  0  0  0  2  0  0  0  0  0  0
  -26.1120  -29.4850   20.7660 C   0  0  0  0  0  0  0  0  0  0  0  0
  -27.3220  -28.7510   20.7710 C   0  0  0  0  0  3  0  0  0  0  0  0
  -26.2130  -26.9420   19.5800 C   0  0  0  0  0  3  0  0  0  0  0  0
  -25.0110  -27.6760   19.5670 C   0  0  0  0  0  3  0  0  0  0  0  0
  -23.7130  -29.7970   20.1930 C   0  0  0  0  0  2  0  0  0  0  0  0
  -24.7250  -31.0850   22.1290 N   0  0  0  0  0  0  0  0  0  0  0  0
  -23.5540  -32.1410   23.7580 O   0  0  0  0  0  0  0  0  0  0  0  0
  -22.8210  -29.4420   22.5180 C   0  0  0  0  0  0  0  0  0  0  0  0
  -21.4950  -29.2700   22.3890 N   0  0  0  0  0  0  0  0  0  0  0  0
  -23.5010  -28.8020   23.3240 O   0  0  0  0  0  0  0  0  0  0  0  0
  -21.0080  -29.8380   21.7100 H   0  0  0  0  0  0  0  0  0  0  0  0
  -18.1070  -28.1230   22.9050 C   0  0  0  0  0  0  0  0  0  0  0  0
  -20.6740  -28.3270   23.1480 C   0  0  0  0  0  3  0  0  0  0  0  0
  -20.7420  -26.9110   22.5300 C   0  0  0  0  0  2  0  0  0  0  0  0
  -19.6200  -26.6360   21.5240 C   0  0  0  0  0  2  0  0  0  0  0  0
  -18.2500  -26.7890   22.1920 C   0  0  0  0  0  2  0  0  0  0  0  0
  -19.2470  -28.8530   23.3400 C   0  0  0  0  0  0  0  0  0  0  0  0
  -19.0610  -30.1050   23.9660 C   0  0  0  0  0  3  0  0  0  0  0  0
  -17.7690  -30.6270   24.1620 C   0  0  0  0  0  3  0  0  0  0  0  0
  -16.6450  -29.8930   23.7460 C   0  0  0  0  0  3  0  0  0  0  0  0
  -16.8150  -28.6430   23.1240 C   0  0  0  0  0  3  0  0  0  0  0  0
  -25.9160  -32.5220   23.8750 C   0  0  0  0  0  3  0  0  0  0  0  0
  -26.4250  -31.7480   25.1530 C   0  0  1  0  0  0  0  0  0  0  0  0
  -25.3200  -31.4920   26.2050 C   0  0  0  0  0  1  0  0  0  0  0  0
  -27.0300  -30.3810   24.7600 C   0  0  0  0  0  1  0  0  0  0  0  0
  -27.5560  -32.5520   25.8370 C   0  0  0  0  0  1  0  0  0  0  0  0
  -25.5890  -33.9150   24.2060 N   0  0  0  0  0  0  0  0  0  0  0  0
  -25.9190  -34.9720   23.4530 C   0  0  0  0  0  0  0  0  0  0  0  0
  -26.6020  -34.8800   22.4280 O   0  0  0  0  0  0  0  0  0  0  0  0
  -24.9830  -34.0610   25.0000 H   0  0  0  0  0  0  0  0  0  0  0  0
  -24.1790  -36.7480   23.0800 C   0  0  0  0  0  1  0  0  0  0  0  0
  -25.4110  -36.3530   23.9080 C   0  0  0  0  0  3  0  0  0  0  0  0
  -27.5200  -37.2570   24.7820 C   0  0  0  0  0  1  0  0  0  0  0  0
  -26.4350  -37.4170   23.8170 N   0  0  0  0  0  0  0  0  0  0  0  0
  -26.0170  -38.3320   23.9600 H   0  0  0  0  0  0  0  0  0  0  0  0
  1  4  1  0
  3  6  2  0
  4  2  2  0
  4  8  1  0
  5  1  2  0
  5  3  1  0
  6  2  1  0
  6 52  1  0
  7  5  1  0
  8 10  2  0
  9 12  1  0
  9  8  1  0
 11  9  1  0
 13 22  1  0
 13 12  1  0
 14 22  1  0
 15 20  1  0
 16 17  1  0
 16 15  1  0
 18 17  1  0
 18 27  1  0
 18 19  1  0
 20 14  1  0
 20 19  1  0
 21 14  2  0
 22 23  1  0
 24 25  2  0
 25 44  1  0
 26 25  1  0
 26 29  1  0
 27 28  1  0
 27 24  1  0
 28 26  2  0
 29 30  1  0
 30 31  2  0
 32 35  1  0
 32 31  1  0
 33 32  2  0
 34 33  1  0
 34 29  2  0
 35 36  1  0
 36 37  1  0
 37 38  2  0
 39 38  1  0
 39 43  1  0
 40 39  2  0
 41 36  2  0
 41 40  1  0
 42 41  1  0
 44 45  1  0
 45 48  1  0
 45 47  1  0
 46 44  2  0
 49 50  1  0
 49 24  1  0
 51 49  1  0
 53 52  1  0
 54 65  2  0
 55 53  1  0
 55 60  1  0
 56 64  1  0
 56 66  1  0
 57 63  1  0
 57 59  1  0
 58 64  1  0
 59 60  2  0
 59 58  1  0
 61 55  2  0
 62 61  1  0
 62 57  2  0
 63 56  1  0
 64 54  1  0
 66 68  2  0
 67 66  1  0
 69 67  1  0
 70 79  2  0
 70 75  1  0
 71 67  1  0
 71 75  1  0
 72 71  1  0
 73 74  1  0
 73 72  1  0
 74 70  1  0
 75 76  2  0
 76 77  1  0
 78 77  2  0
 79 78  1  0
 80 54  1  0
 80 85  1  0
 80 81  1  0
 81 84  1  1
 81 82  1  0
 83 81  1  0
 85 88  1  0
 86 90  1  0
 86 85  1  0
 87 86  2  0
 90 89  1  0
 92 90  1  0
 92 93  1  0
 92 91  1  0
M  ISO  4  14 100  22 100  52 101  53 101
M  END
>  <TORSDO>  (17) 
F 20

>  <SCORE>  (17) 
-13.649

>  <name>  (17) 
16

>  <ligand_id>  (17) 
16

>  <original_smiles>  (17) 
[H]c1c([H])c([H])c2c(c1[H])C([H])([H])C([H])([H])C([H])([H])C2([H])N([H])C(=O)C1([H])N(C(=O)C([H])(N([H])C(=O)C([H])(N([H])C([H])([H])[H])C([H])([H])[H])C(C([H])([H])[H])(C([H])([H])[H])C([H])([H])[H])C([H])([H])c2c([H])c(OC([H])([H])c3c([H])c(C(=O)N([H])C([H])([H])C([H])([H])N([H])C(=O)N4C([H])([H])C([H])([H])C([H])([H])C([H])(n5nc(-c6c([H])c([H])c(Oc7c([H])c([H])c(F)c([H])c7F)c([H])c6[H])c(C(=O)N([H])[H])c5N([H])[H])C4([H])[H])c([H])c(C([H])([H])[H])c3[H])c([H])c([H])c2C1([H])[H]

>  <smiles>  (17) 
[H]c1c([H])c([H])c2c(c1[H])C([H])([H])C([H])([H])C([H])([H])C2([H])N([H])C(=O)C1([H])N(C(=O)C([H])(N([H])C(=O)C([H])(N([H])C([H])([H])[H])C([H])([H])[H])C(C([H])([H])[H])(C([H])([H])[H])C([H])([H])[H])C([H])([H])c2c([H])c(OC([H])([H])c3c([H])c(C(=O)N([H])C([H])([H])C([H])([H])N([H])C(=O)N4C([H])([H])C([H])([H])C([H])([H])C([H])(n5nc(-c6c([H])c([H])c(Oc7c([H])c([H])c(F)c([H])c7F)c([H])c6[H])c(C(=O)N([H])[H])c5N([H])[H])C4([H])[H])c([H])c(C([H])([H])[H])c3[H])c([H])c([H])c2C1([H])[H]

$$$$
17:0:0
     RDKit          3D

 94103  0  0  1  0  0  0  0  0999 V2000
  -28.3680  -15.6590   22.8760 C   0  0  0  0  0  2  0  0  0  0  0  0
  -27.8240  -16.8530   23.6300 C   0  0  0  0  0  2  0  0  0  0  0  0
  -26.9820  -18.1870   21.6480 C   0  0  0  0  0  2  0  0  0  0  0  0
  -28.0630  -19.3300   23.6210 C   0  0  0  0  0  2  0  0  0  0  0  0
  -29.4680  -17.7010   22.0990 C   0  0  0  0  0  2  0  0  0  0  0  0
  -26.5700  -19.6330   21.2820 C   0  0  0  0  0  2  0  0  0  0  0  0
  -28.0940  -20.6930   22.8920 C   0  0  0  0  0  2  0  0  0  0  0  0
  -29.6510  -16.1480   22.1860 C   0  0  0  0  0  3  0  0  0  0  0  0
  -28.0860  -18.0660   22.7290 C   0  0  1  0  0  0  0  0  0  0  0  0
  -27.6460  -20.6350   21.4750 N   0  0  2  0  0  4  0  0  0  0  0  0
  -28.4330  -20.3100   20.9320 H   0  0  0  0  0  0  0  0  0  0  0  0
  -30.6470  -14.4770   20.5820 C   0  0  0  0  0  0  0  0  0  0  0  0
  -30.4290  -12.3250   19.3980 C   0  0  0  0  0  2  0  0  0  0  0  0
  -29.4710  -12.4990   18.2040 C   0  0  0  0  0  2  0  0  0  0  0  0
  -27.9940  -12.3640   18.6240 C   0  0  0  0  0  2  0  0  0  0  0  0
  -27.6540  -13.1880   19.8870 C   0  0  0  0  0  3  0  0  0  0  0  0
  -28.7050  -12.9020   20.9770 C   0  0  0  0  0  2  0  0  0  0  0  0
  -30.0170  -13.2810   20.4330 N   0  0  0  0  0  0  0  0  0  0  0  0
  -31.7810  -14.6870   20.1420 O   0  0  0  0  0  0  0  0  0  0  0  0
  -29.8480  -15.5270   20.8690 N   0  0  0  0  0  0  0  0  0  0  0  0
  -30.0070  -16.2600   20.1960 H   0  0  0  0  0  0  0  0  0  0  0  0
  -25.2480  -13.8150   20.5670 C   0  0  0  0  0  0  0  0  0  0  0  0
  -24.1770  -13.0410   20.9220 C   0  0  0  0  0  0  0  0  0  0  0  0
  -24.6300  -11.6900   20.8790 C   0  0  0  0  0  0  0  0  0  0  0  0
  -26.2950  -12.9280   20.3480 N   0  0  0  0  0  0  0  0  0  0  0  0
  -25.9230  -11.6460   20.5910 N   0  0  0  0  0  0  0  0  0  0  0  0
  -23.9000  -10.4300   21.0430 C   0  0  0  0  0  0  0  0  0  0  0  0
  -24.3550   -9.4250   21.9220 C   0  0  0  0  0  3  0  0  0  0  0  0
  -23.6210   -8.2290   22.0810 C   0  0  0  0  0  3  0  0  0  0  0  0
  -22.4250   -8.0280   21.3510 C   0  0  0  0  0  0  0  0  0  0  0  0
  -21.9980   -9.0170   20.4480 C   0  0  0  0  0  3  0  0  0  0  0  0
  -22.7220  -10.2120   20.3020 C   0  0  0  0  0  3  0  0  0  0  0  0
  -21.6600   -6.8890   21.4240 O   0  0  0  0  0  0  0  0  0  0  0  0
  -21.6870   -6.0750   22.5300 C   0  0  0  0  0  0  0  0  0  0  0  0
  -21.4030   -6.5640   23.8250 C   0  0  0  0  0  3  0  0  0  0  0  0
  -21.3600   -5.6760   24.9190 C   0  0  0  0  0  3  0  0  0  0  0  0
  -21.6000   -4.3030   24.7230 C   0  0  0  0  0  0  0  0  0  0  0  0
  -21.8780   -3.8160   23.4330 C   0  0  0  0  0  3  0  0  0  0  0  0
  -21.9190   -4.6990   22.3400 C   0  0  0  0  0  0  0  0  0  0  0  0
  -22.1680   -4.2170   21.0990 F   0  0  0  0  0  0  0  0  0  0  0  0
  -21.5630   -3.4510   25.7730 F   0  0  0  0  0  0  0  0  0  0  0  0
  -22.7800  -13.5210   21.1800 C   0  0  0  0  0  0  0  0  0  0  0  0
  -22.0560  -12.8320   22.0570 N   0  0  0  0  0  0  0  0  0  0  0  0
  -22.3380  -14.5320   20.6440 O   0  0  0  0  0  0  0  0  0  0  0  0
  -22.4440  -12.0380   22.5370 H   0  0  0  0  0  0  0  0  0  0  0  0
  -21.1040  -13.1050   22.2560 H   0  0  0  0  0  0  0  0  0  0  0  0
  -25.4240  -15.1840   20.3950 N   0  0  0  0  0  0  0  0  0  0  0  0
  -24.6830  -15.8710   20.4940 H   0  0  0  0  0  0  0  0  0  0  0  0
  -26.3020  -15.5920   20.1120 H   0  0  0  0  0  0  0  0  0  0  0  0
  -27.2570  -21.9650   20.9170 C   0  0  0  0  0  2  0  0  0  0  0  0
  -28.2370  -23.1330   21.1940 C   0  0  0  0  0  2  0  0  0  0  0  0
  -27.7580  -24.4390   20.5320 C   0  0  0  0  0  2  0  0  0  0  0  0
  -28.6070  -25.6690   20.9040 C   0  0  0  0  0  2  0  0  0  0  0  0
  -28.4290  -26.7720   20.0160 O   0  0  0  0  0  0  0  0  0  0  0  0
  -24.6120  -31.8710   23.2130 C   0  0  0  0  0  0  0  0  0  0  0  0
  -27.2470  -27.4660   20.0980 C   0  0  0  0  0  0  0  0  0  0  0  0
  -23.4020  -30.4890   21.5520 C   0  0  0  0  0  3  0  0  0  0  0  0
  -24.8560  -28.9590   20.1280 C   0  0  0  0  0  0  0  0  0  0  0  0
  -25.9290  -30.8470   21.3680 C   0  0  0  0  0  2  0  0  0  0  0  0
  -26.0090  -29.4810   20.7230 C   0  0  0  0  0  0  0  0  0  0  0  0
  -27.2080  -28.7380   20.7050 C   0  0  0  0  0  3  0  0  0  0  0  0
  -26.0790  -26.9550   19.4930 C   0  0  0  0  0  3  0  0  0  0  0  0
  -24.8830  -27.6940   19.5130 C   0  0  0  0  0  3  0  0  0  0  0  0
  -23.6140  -29.8210   20.1670 C   0  0  0  0  0  2  0  0  0  0  0  0
  -24.6650  -31.0820   22.1010 N   0  0  0  0  0  0  0  0  0  0  0  0
  -23.5290  -32.1380   23.7530 O   0  0  0  0  0  0  0  0  0  0  0  0
  -22.7400  -29.4640   22.5040 C   0  0  0  0  0  0  0  0  0  0  0  0
  -21.4140  -29.3020   22.3750 N   0  0  0  0  0  0  0  0  0  0  0  0
  -23.4210  -28.8150   23.3010 O   0  0  0  0  0  0  0  0  0  0  0  0
  -20.9300  -29.8780   21.7020 H   0  0  0  0  0  0  0  0  0  0  0  0
  -18.0260  -28.1370   22.8500 C   0  0  0  0  0  0  0  0  0  0  0  0
  -20.5850  -28.3640   23.1340 C   0  0  0  0  0  3  0  0  0  0  0  0
  -20.6760  -26.9390   22.5440 C   0  0  0  0  0  2  0  0  0  0  0  0
  -19.5730  -26.6370   21.5230 C   0  0  0  0  0  2  0  0  0  0  0  0
  -18.1890  -26.7930   22.1630 C   0  0  0  0  0  2  0  0  0  0  0  0
  -19.1510  -28.8830   23.2920 C   0  0  0  0  0  0  0  0  0  0  0  0
  -18.9420  -30.1430   23.8930 C   0  0  0  0  0  3  0  0  0  0  0  0
  -17.6440  -30.6580   24.0550 C   0  0  0  0  0  3  0  0  0  0  0  0
  -16.5330  -29.9080   23.6330 C   0  0  0  0  0  3  0  0  0  0  0  0
  -16.7250  -28.6500   23.0350 C   0  0  0  0  0  3  0  0  0  0  0  0
  -25.9010  -32.4860   23.8410 C   0  0  0  0  0  3  0  0  0  0  0  0
  -26.4470  -31.6620   25.0730 C   0  0  1  0  0  0  0  0  0  0  0  0
  -25.3740  -31.3720   26.1480 C   0  0  0  0  0  1  0  0  0  0  0  0
  -27.0310  -30.3060   24.6110 C   0  0  0  0  0  1  0  0  0  0  0  0
  -27.6050  -32.4330   25.7500 C   0  0  0  0  0  1  0  0  0  0  0  0
  -25.5890  -33.8640   24.2370 N   0  0  0  0  0  0  0  0  0  0  0  0
  -25.9040  -34.9490   23.5170 C   0  0  0  0  0  0  0  0  0  0  0  0
  -26.5560  -34.8920   22.4720 O   0  0  0  0  0  0  0  0  0  0  0  0
  -25.0080  -33.9820   25.0550 H   0  0  0  0  0  0  0  0  0  0  0  0
  -24.1490  -36.7320   23.2640 C   0  0  0  0  0  1  0  0  0  0  0  0
  -25.4110  -36.3130   24.0350 C   0  0  0  0  0  3  0  0  0  0  0  0
  -27.5600  -37.1820   24.8480 C   0  0  0  0  0  1  0  0  0  0  0  0
  -26.4310  -37.3810   23.9430 N   0  0  0  0  0  0  0  0  0  0  0  0
  -26.0210  -38.2910   24.1370 H   0  0  0  0  0  0  0  0  0  0  0  0
  1  2  1  0
  5  8  1  0
  9  5  1  6
  6 10  1  0
  6  3  1  0
  7  4  1  0
  8 20  1  0
  8  1  1  0
  9  3  1  0
  9  4  1  0
  9  2  1  0
 10  7  1  0
 10 11  1  6
 12 20  1  0
 13 18  1  0
 14 15  1  0
 14 13  1  0
 16 15  1  0
 16 25  1  0
 16 17  1  0
 18 12  1  0
 18 17  1  0
 19 12  2  0
 21 20  1  0
 22 23  2  0
 23 42  1  0
 24 23  1  0
 24 27  1  0
 25 22  1  0
 25 26  1  0
 26 24  2  0
 27 28  1  0
 28 29  2  0
 30 33  1  0
 30 29  1  0
 31 30  2  0
 32 31  1  0
 32 27  2  0
 33 34  1  0
 34 35  1  0
 35 36  2  0
 37 36  1  0
 37 41  1  0
 38 37  2  0
 39 34  2  0
 39 38  1  0
 40 39  1  0
 42 43  1  0
 43 46  1  0
 43 45  1  0
 44 42  2  0
 47 48  1  0
 47 22  1  0
 49 47  1  0
 50 51  1  0
 50 10  1  0
 52 53  1  0
 52 51  1  0
 54 56  1  0
 54 53  1  0
 55 66  2  0
 56 61  1  0
 57 65  1  0
 57 67  1  0
 58 64  1  0
 58 60  1  0
 59 65  1  0
 60 59  1  0
 61 60  2  0
 62 63  1  0
 62 56  2  0
 63 58  2  0
 64 57  1  0
 65 55  1  0
 67 69  2  0
 68 67  1  0
 70 68  1  0
 71 80  2  0
 71 76  1  0
 72 68  1  0
 72 76  1  0
 73 72  1  0
 74 75  1  0
 74 73  1  0
 75 71  1  0
 76 77  2  0
 77 78  1  0
 79 78  2  0
 80 79  1  0
 81 55  1  0
 81 86  1  0
 81 82  1  0
 82 85  1  1
 82 83  1  0
 84 82  1  0
 86 89  1  0
 87 91  1  0
 87 86  1  0
 88 87  2  0
 91 90  1  0
 93 91  1  0
 93 94  1  0
 93 92  1  0
M  ISO  4  12 100  20 100  53 101  54 101
M  END
>  <TORSDO>  (18) 
F 20

>  <SCORE>  (18) 
29.446

>  <name>  (18) 
17

>  <ligand_id>  (18) 
17

>  <original_smiles>  (18) 
[H]c1c([H])c([H])c2c(c1[H])C([H])([H])C([H])([H])C([H])([H])C2([H])N([H])C(=O)C1([H])N(C(=O)C([H])(N([H])C(=O)C([H])(N([H])C([H])([H])[H])C([H])([H])[H])C(C([H])([H])[H])(C([H])([H])[H])C([H])([H])[H])C([H])([H])c2c([H])c(OC([H])([H])C([H])([H])C([H])([H])C([H])([H])[N+]3([H])C([H])([H])C([H])([H])C4(C([H])([H])C([H])([H])C([H])(N([H])C(=O)N5C([H])([H])C([H])([H])C([H])([H])C([H])(n6nc(-c7c([H])c([H])c(Oc8c([H])c([H])c(F)c([H])c8F)c([H])c7[H])c(C(=O)N([H])[H])c6N([H])[H])C5([H])[H])C4([H])[H])C([H])([H])C3([H])[H])c([H])c([H])c2C1([H])[H]

>  <smiles>  (18) 
[H]c1c([H])c([H])c2c(c1[H])C([H])([H])C([H])([H])C([H])([H])C2([H])N([H])C(=O)C1([H])N(C(=O)C([H])(N([H])C(=O)C([H])(N([H])C([H])([H])[H])C([H])([H])[H])C(C([H])([H])[H])(C([H])([H])[H])C([H])([H])[H])C([H])([H])c2c([H])c(OC([H])([H])C([H])([H])C([H])([H])C([H])([H])[N+]3([H])C([H])([H])C([H])([H])C4(C([H])([H])C([H])([H])C([H])(N([H])C(=O)N5C([H])([H])C([H])([H])C([H])([H])C([H])(n6nc(-c7c([H])c([H])c(Oc8c([H])c([H])c(F)c([H])c8F)c([H])c7[H])c(C(=O)N([H])[H])c6N([H])[H])C5([H])[H])C4([H])[H])C([H])([H])C3([H])[H])c([H])c([H])c2C1([H])[H]

$$$$
18:0:0
     RDKit          3D

 96105  0  0  1  0  0  0  0  0999 V2000
  -31.9200  -20.5410   22.8810 C   0  0  0  0  0  2  0  0  0  0  0  0
  -29.4020  -20.1270   23.0090 C   0  0  0  0  0  2  0  0  0  0  0  0
  -31.6310  -22.0470   22.7470 C   0  0  0  0  0  2  0  0  0  0  0  0
  -29.1910  -21.6450   22.8700 C   0  0  0  0  0  2  0  0  0  0  0  0
  -30.7870  -19.7460   23.5860 C   0  0  0  0  0  3  0  0  0  0  0  0
  -30.3020  -22.2800   22.0000 C   0  0  0  0  0  3  0  0  0  0  0  0
  -30.8340  -24.2110   20.3540 C   0  0  0  0  0  2  0  0  0  0  0  0
  -28.5150  -24.0010   21.3660 C   0  0  0  0  0  2  0  0  0  0  0  0
  -30.5770  -25.6750   19.9320 C   0  0  0  0  0  2  0  0  0  0  0  0
  -28.1640  -24.9160   20.1840 C   0  0  0  0  0  2  0  0  0  0  0  0
  -30.0320  -23.7650   21.6020 C   0  0  0  0  0  3  0  0  0  0  0  0
  -29.1060  -26.1280   20.0530 C   0  0  0  0  0  3  0  0  0  0  0  0
  -28.7720  -26.9400   18.9160 O   0  0  0  0  0  0  0  0  0  0  0  0
  -25.2510  -31.4440   23.1140 C   0  0  0  0  0  0  0  0  0  0  0  0
  -27.6380  -27.6920   19.0930 C   0  0  0  0  0  0  0  0  0  0  0  0
  -23.9250  -30.3780   21.3160 C   0  0  0  0  0  3  0  0  0  0  0  0
  -25.2690  -29.1540   19.5270 C   0  0  0  0  0  0  0  0  0  0  0  0
  -26.4350  -30.7780   21.0290 C   0  0  0  0  0  2  0  0  0  0  0  0
  -26.4650  -29.5570   20.1390 C   0  0  0  0  0  0  0  0  0  0  0  0
  -27.6530  -28.8270   19.9290 C   0  0  0  0  0  3  0  0  0  0  0  0
  -26.4400  -27.3240   18.4460 C   0  0  0  0  0  3  0  0  0  0  0  0
  -25.2510  -28.0360   18.6770 C   0  0  0  0  0  3  0  0  0  0  0  0
  -24.0370  -29.9770   19.8210 C   0  0  0  0  0  2  0  0  0  0  0  0
  -25.2250  -30.8700   21.8790 N   0  0  0  0  0  0  0  0  0  0  0  0
  -24.2100  -31.6040   23.7660 O   0  0  0  0  0  0  0  0  0  0  0  0
  -23.3300  -29.1900   22.1060 C   0  0  0  0  0  0  0  0  0  0  0  0
  -21.9980  -29.0280   22.0300 N   0  0  0  0  0  0  0  0  0  0  0  0
  -24.0580  -28.4250   22.7440 O   0  0  0  0  0  0  0  0  0  0  0  0
  -21.4710  -29.6990   21.4910 H   0  0  0  0  0  0  0  0  0  0  0  0
  -18.6570  -27.7210   22.4460 C   0  0  0  0  0  0  0  0  0  0  0  0
  -21.2220  -27.9610   22.6600 C   0  0  0  0  0  3  0  0  0  0  0  0
  -21.3110  -26.6520   21.8400 C   0  0  0  0  0  2  0  0  0  0  0  0
  -20.1720  -26.4930   20.8310 C   0  0  0  0  0  2  0  0  0  0  0  0
  -18.8150  -26.5090   21.5430 C   0  0  0  0  0  2  0  0  0  0  0  0
  -19.7870  -28.4120   22.9560 C   0  0  0  0  0  0  0  0  0  0  0  0
  -19.5850  -29.5530   23.7620 C   0  0  0  0  0  3  0  0  0  0  0  0
  -18.2860  -30.0030   24.0620 C   0  0  0  0  0  3  0  0  0  0  0  0
  -17.1710  -29.3040   23.5690 C   0  0  0  0  0  3  0  0  0  0  0  0
  -17.3560  -28.1650   22.7660 C   0  0  0  0  0  3  0  0  0  0  0  0
  -26.5840  -31.9480   23.7530 C   0  0  0  0  0  3  0  0  0  0  0  0
  -27.0820  -31.0430   24.9450 C   0  0  1  0  0  0  0  0  0  0  0  0
  -25.9910  -30.7490   26.0010 C   0  0  0  0  0  1  0  0  0  0  0  0
  -27.6050  -29.6870   24.4200 C   0  0  0  0  0  1  0  0  0  0  0  0
  -28.2680  -31.7280   25.6640 C   0  0  0  0  0  1  0  0  0  0  0  0
  -26.3630  -33.3290   24.2020 N   0  0  0  0  0  0  0  0  0  0  0  0
  -26.7840  -34.4180   23.5440 C   0  0  0  0  0  0  0  0  0  0  0  0
  -27.4690  -34.3590   22.5190 O   0  0  0  0  0  0  0  0  0  0  0  0
  -25.7640  -33.4530   25.0060 H   0  0  0  0  0  0  0  0  0  0  0  0
  -25.2060  -36.3600   23.3030 C   0  0  0  0  0  1  0  0  0  0  0  0
  -26.3800  -35.7910   24.1150 C   0  0  0  0  0  3  0  0  0  0  0  0
  -28.5450  -36.4160   25.0880 C   0  0  0  0  0  1  0  0  0  0  0  0
  -27.4910  -36.7660   24.1400 N   0  0  0  0  0  0  0  0  0  0  0  0
  -27.1500  -37.6950   24.3730 H   0  0  0  0  0  0  0  0  0  0  0  0
  -30.9750  -18.2110   23.5050 C   0  0  0  0  0  0  0  0  0  0  0  0
  -31.7740  -17.7310   22.5440 N   0  0  0  0  0  0  0  0  0  0  0  0
  -30.3580  -17.4690   24.2710 O   0  0  0  0  0  0  0  0  0  0  0  0
  -32.2640  -18.4210   21.9890 H   0  0  0  0  0  0  0  0  0  0  0  0
  -31.8410  -16.3460   22.0670 C   0  0  0  0  0  2  0  0  0  0  0  0
  -30.7590  -17.3670   19.9590 C   0  0  0  0  0  1  0  0  0  0  0  0
  -30.9320  -16.0970   20.8300 C   0  0  0  0  0  3  0  0  0  0  0  0
  -31.4820  -14.9460   19.9480 C   0  0  0  0  0  0  0  0  0  0  0  0
  -31.1050  -12.8230   18.7380 C   0  0  0  0  0  2  0  0  0  0  0  0
  -30.0350  -13.0200   17.6460 C   0  0  0  0  0  2  0  0  0  0  0  0
  -28.6180  -12.8290   18.2250 C   0  0  0  0  0  2  0  0  0  0  0  0
  -28.3960  -13.6380   19.5310 C   0  0  0  0  0  3  0  0  0  0  0  0
  -29.5640  -13.4060   20.5150 C   0  0  0  0  0  2  0  0  0  0  0  0
  -30.8130  -13.7670   19.8290 N   0  0  0  0  0  0  0  0  0  0  0  0
  -32.4990  -15.1810   19.2860 O   0  0  0  0  0  0  0  0  0  0  0  0
  -26.1220  -14.1760   20.6120 C   0  0  0  0  0  0  0  0  0  0  0  0
  -25.0860  -13.3730   21.0120 C   0  0  0  0  0  0  0  0  0  0  0  0
  -25.5020  -12.0330   20.7440 C   0  0  0  0  0  0  0  0  0  0  0  0
  -27.1050  -13.3210   20.1380 N   0  0  0  0  0  0  0  0  0  0  0  0
  -26.7400  -12.0190   20.2680 N   0  0  0  0  0  0  0  0  0  0  0  0
  -24.7710  -10.7640   20.8590 C   0  0  0  0  0  0  0  0  0  0  0  0
  -25.1920   -9.7470   21.7440 C   0  0  0  0  0  3  0  0  0  0  0  0
  -24.4630   -8.5430   21.8500 C   0  0  0  0  0  3  0  0  0  0  0  0
  -23.2980   -8.3490   21.0700 C   0  0  0  0  0  0  0  0  0  0  0  0
  -22.8950   -9.3550   20.1740 C   0  0  0  0  0  3  0  0  0  0  0  0
  -23.6260  -10.5500   20.0660 C   0  0  0  0  0  3  0  0  0  0  0  0
  -22.5410   -7.2030   21.0890 O   0  0  0  0  0  0  0  0  0  0  0  0
  -22.1770   -6.5980   22.2660 C   0  0  0  0  0  0  0  0  0  0  0  0
  -21.4190   -7.2730   23.2480 C   0  0  0  0  0  3  0  0  0  0  0  0
  -21.0070   -6.5930   24.4110 C   0  0  0  0  0  3  0  0  0  0  0  0
  -21.3450   -5.2380   24.5910 C   0  0  0  0  0  0  0  0  0  0  0  0
  -22.0960   -4.5630   23.6130 C   0  0  0  0  0  3  0  0  0  0  0  0
  -22.5080   -5.2400   22.4520 C   0  0  0  0  0  0  0  0  0  0  0  0
  -23.2140   -4.5800   21.5030 F   0  0  0  0  0  0  0  0  0  0  0  0
  -20.9440   -4.5820   25.7050 F   0  0  0  0  0  0  0  0  0  0  0  0
  -23.7500  -13.8240   21.5270 C   0  0  0  0  0  0  0  0  0  0  0  0
  -23.1770  -13.0860   22.4700 N   0  0  0  0  0  0  0  0  0  0  0  0
  -23.2280  -14.8640   21.1280 O   0  0  0  0  0  0  0  0  0  0  0  0
  -23.6140  -12.2430   22.8120 H   0  0  0  0  0  0  0  0  0  0  0  0
  -22.2870  -13.3670   22.8570 H   0  0  0  0  0  0  0  0  0  0  0  0
  -26.3010  -15.5560   20.5950 N   0  0  0  0  0  0  0  0  0  0  0  0
  -25.5750  -16.2020   20.8840 H   0  0  0  0  0  0  0  0  0  0  0  0
  -27.1270  -16.0220   20.2390 H   0  0  0  0  0  0  0  0  0  0  0  0
  1  5  1  0
  2  5  1  0
  3  1  1  0
  4  2  1  0
  5 54  1  0
  6  3  1  0
  6  4  1  0
  8 11  1  0
  9 12  1  0
  9  7  1  0
 10  8  1  0
 11  7  1  0
 11  6  1  0
 12 13  1  0
 12 10  1  0
 13 15  1  0
 14 25  2  0
 15 20  1  0
 16 24  1  0
 16 26  1  0
 17 23  1  0
 17 19  1  0
 18 24  1  0
 19 18  1  0
 20 19  2  0
 21 22  1  0
 21 15  2  0
 22 17  2  0
 23 16  1  0
 24 14  1  0
 26 28  2  0
 27 26  1  0
 29 27  1  0
 30 39  2  0
 30 35  1  0
 31 27  1  0
 31 35  1  0
 32 31  1  0
 33 34  1  0
 33 32  1  0
 34 30  1  0
 35 36  2  0
 36 37  1  0
 38 37  2  0
 39 38  1  0
 40 14  1  0
 40 45  1  0
 40 41  1  0
 41 44  1  1
 41 42  1  0
 43 41  1  0
 45 48  1  0
 46 50  1  0
 46 45  1  0
 47 46  2  0
 50 49  1  0
 50 52  1  0
 52 53  1  0
 52 51  1  0
 54 56  2  0
 55 54  1  0
 57 55  1  0
 58 55  1  0
 60 59  1  0
 60 58  1  0
 61 60  1  0
 62 67  1  0
 63 64  1  0
 63 62  1  0
 65 64  1  0
 65 72  1  0
 65 66  1  0
 67 61  1  0
 67 66  1  0
 68 61  2  0
 69 70  2  0
 70 89  1  0
 71 74  1  0
 71 70  1  0
 72 73  1  0
 72 69  1  0
 73 71  2  0
 74 75  1  0
 75 76  2  0
 77 80  1  0
 77 76  1  0
 78 77  2  0
 79 78  1  0
 79 74  2  0
 80 81  1  0
 81 86  2  0
 81 82  1  0
 82 83  2  0
 83 84  1  0
 84 88  1  0
 85 84  2  0
 86 85  1  0
 87 86  1  0
 89 90  1  0
 90 92  1  0
 90 93  1  0
 91 89  2  0
 94 69  1  0
 94 95  1  0
 96 94  1  0
M  ISO  4  12 101  13 101  60 100  61 100
M  END
>  <TORSDO>  (19) 
F 20

>  <SCORE>  (19) 
-4.374

>  <name>  (19) 
18

>  <ligand_id>  (19) 
18

>  <original_smiles>  (19) 
[H]c1c([H])c([H])c2c(c1[H])C([H])([H])C([H])([H])C([H])([H])C2([H])N([H])C(=O)C1([H])N(C(=O)C([H])(N([H])C(=O)C([H])(N([H])C([H])([H])[H])C([H])([H])[H])C(C([H])([H])[H])(C([H])([H])[H])C([H])([H])[H])C([H])([H])c2c([H])c(OC3([H])C([H])([H])C([H])([H])C([H])(C4([H])C([H])([H])C([H])([H])C([H])(C(=O)N([H])C([H])([H])C([H])(C(=O)N5C([H])([H])C([H])([H])C([H])([H])C([H])(n6nc(-c7c([H])c([H])c(Oc8c([H])c([H])c(F)c([H])c8F)c([H])c7[H])c(C(=O)N([H])[H])c6N([H])[H])C5([H])[H])C([H])([H])[H])C([H])([H])C4([H])[H])C([H])([H])C3([H])[H])c([H])c([H])c2C1([H])[H]

>  <smiles>  (19) 
[H]c1c([H])c([H])c2c(c1[H])C([H])([H])C([H])([H])C([H])([H])C2([H])N([H])C(=O)C1([H])N(C(=O)C([H])(N([H])C(=O)C([H])(N([H])C([H])([H])[H])C([H])([H])[H])C(C([H])([H])[H])(C([H])([H])[H])C([H])([H])[H])C([H])([H])c2c([H])c(OC3([H])C([H])([H])C([H])([H])C([H])(C4([H])C([H])([H])C([H])([H])C([H])(C(=O)N([H])C([H])([H])C([H])(C(=O)N5C([H])([H])C([H])([H])C([H])([H])C([H])(n6nc(-c7c([H])c([H])c(Oc8c([H])c([H])c(F)c([H])c8F)c([H])c7[H])c(C(=O)N([H])[H])c6N([H])[H])C5([H])[H])C([H])([H])[H])C([H])([H])C4([H])[H])C([H])([H])C3([H])[H])c([H])c([H])c2C1([H])[H]

$$$$
19:0:0
     RDKit          3D

 97105  0  0  1  0  0  0  0  0999 V2000
  -30.4070  -21.7790   21.1270 C   0  0  0  0  0  2  0  0  0  0  0  0
  -30.9920  -20.7540   25.3390 C   0  0  0  0  0  3  0  0  0  0  0  0
  -30.4270  -21.9840   24.9690 C   0  0  0  0  0  3  0  0  0  0  0  0
  -31.3770  -19.8370   24.3470 C   0  0  0  0  0  3  0  0  0  0  0  0
  -30.2420  -22.2890   23.6080 C   0  0  0  0  0  3  0  0  0  0  0  0
  -31.1940  -20.1240   22.9750 C   0  0  0  0  0  0  0  0  0  0  0  0
  -30.6020  -21.3670   22.5940 C   0  0  0  0  0  0  0  0  0  0  0  0
  -31.7030  -19.0780   21.9800 C   0  0  0  0  0  2  0  0  0  0  0  0
  -30.7920  -17.9170   21.8880 N   0  0  0  0  0  4  0  0  0  0  0  0
  -29.8900  -18.2330   21.5730 H   0  0  0  0  0  0  0  0  0  0  0  0
  -30.6790  -17.5430   22.8150 H   0  0  0  0  0  0  0  0  0  0  0  0
  -31.2860  -16.8450   20.9920 C   0  0  0  0  0  2  0  0  0  0  0  0
  -30.4040  -15.5740   21.0150 C   0  0  0  0  0  2  0  0  0  0  0  0
  -30.9160  -14.4690   20.0710 C   0  0  0  0  0  0  0  0  0  0  0  0
  -30.5290  -12.3260   18.9050 C   0  0  0  0  0  2  0  0  0  0  0  0
  -29.5420  -12.5150   17.7370 C   0  0  0  0  0  2  0  0  0  0  0  0
  -28.0860  -12.3940   18.2270 C   0  0  0  0  0  2  0  0  0  0  0  0
  -27.8040  -13.2660   19.4790 C   0  0  0  0  0  3  0  0  0  0  0  0
  -28.8950  -13.0560   20.5530 C   0  0  0  0  0  2  0  0  0  0  0  0
  -30.2050  -13.3210   19.9360 N   0  0  0  0  0  0  0  0  0  0  0  0
  -31.9500  -14.6790   19.4280 O   0  0  0  0  0  0  0  0  0  0  0  0
  -25.4340  -13.9110   20.2560 C   0  0  0  0  0  0  0  0  0  0  0  0
  -24.3740  -13.1570   20.6820 C   0  0  0  0  0  0  0  0  0  0  0  0
  -24.8240  -11.8010   20.6670 C   0  0  0  0  0  0  0  0  0  0  0  0
  -26.4650  -13.0160   20.0110 N   0  0  0  0  0  0  0  0  0  0  0  0
  -26.1020  -11.7440   20.3130 N   0  0  0  0  0  0  0  0  0  0  0  0
  -24.0980  -10.5490   20.9150 C   0  0  0  0  0  0  0  0  0  0  0  0
  -24.5310   -9.6250   21.8920 C   0  0  0  0  0  3  0  0  0  0  0  0
  -23.8060   -8.4370   22.1240 C   0  0  0  0  0  3  0  0  0  0  0  0
  -22.6340   -8.1630   21.3790 C   0  0  0  0  0  0  0  0  0  0  0  0
  -22.2200   -9.0750   20.3920 C   0  0  0  0  0  3  0  0  0  0  0  0
  -22.9450  -10.2550   20.1590 C   0  0  0  0  0  3  0  0  0  0  0  0
  -21.8810   -7.0230   21.5190 O   0  0  0  0  0  0  0  0  0  0  0  0
  -21.7960   -6.3570   22.7160 C   0  0  0  0  0  0  0  0  0  0  0  0
  -21.3190   -6.9870   23.8860 C   0  0  0  0  0  3  0  0  0  0  0  0
  -21.1830   -6.2470   25.0770 C   0  0  0  0  0  3  0  0  0  0  0  0
  -21.5140   -4.8780   25.0990 C   0  0  0  0  0  0  0  0  0  0  0  0
  -21.9830   -4.2490   23.9340 C   0  0  0  0  0  3  0  0  0  0  0  0
  -22.1210   -4.9860   22.7440 C   0  0  0  0  0  0  0  0  0  0  0  0
  -22.5540   -4.3700   21.6180 F   0  0  0  0  0  0  0  0  0  0  0  0
  -21.3750   -4.1660   26.2410 F   0  0  0  0  0  0  0  0  0  0  0  0
  -22.9920  -13.6500   20.9940 C   0  0  0  0  0  0  0  0  0  0  0  0
  -22.2900  -12.9760   21.9010 N   0  0  0  0  0  0  0  0  0  0  0  0
  -22.5420  -14.6680   20.4710 O   0  0  0  0  0  0  0  0  0  0  0  0
  -22.6670  -12.1530   22.3460 H   0  0  0  0  0  0  0  0  0  0  0  0
  -21.3620  -13.2890   22.1520 H   0  0  0  0  0  0  0  0  0  0  0  0
  -25.6030  -15.2760   20.0380 N   0  0  0  0  0  0  0  0  0  0  0  0
  -24.8440  -15.9390   20.1520 H   0  0  0  0  0  0  0  0  0  0  0  0
  -26.4430  -15.6960   19.6630 H   0  0  0  0  0  0  0  0  0  0  0  0
  -29.1830  -22.5840   20.9020 N   0  0  0  0  0  4  0  0  0  0  0  0
  -29.1740  -23.2770   21.6300 H   0  0  0  0  0  0  0  0  0  0  0  0
  -28.3730  -21.9990   21.0350 H   0  0  0  0  0  0  0  0  0  0  0  0
  -28.8530  -22.2840   18.4380 C   0  0  0  0  0  1  0  0  0  0  0  0
  -29.1190  -23.2780   19.5860 C   0  0  0  0  0  3  0  0  0  0  0  0
  -28.0690  -24.4160   19.5670 C   0  0  0  0  0  2  0  0  0  0  0  0
  -28.3650  -25.5790   20.5390 C   0  0  0  0  0  2  0  0  0  0  0  0
  -28.3070  -26.8500   19.8990 O   0  0  0  0  0  0  0  0  0  0  0  0
  -24.6160  -31.9680   23.1630 C   0  0  0  0  0  0  0  0  0  0  0  0
  -27.1190  -27.5310   19.9870 C   0  0  0  0  0  0  0  0  0  0  0  0
  -23.3360  -30.5710   21.5700 C   0  0  0  0  0  3  0  0  0  0  0  0
  -24.7250  -29.0190   20.0970 C   0  0  0  0  0  0  0  0  0  0  0  0
  -25.8500  -30.9240   21.2670 C   0  0  0  0  0  2  0  0  0  0  0  0
  -25.9050  -29.5510   20.6320 C   0  0  0  0  0  0  0  0  0  0  0  0
  -27.1050  -28.8140   20.5700 C   0  0  0  0  0  3  0  0  0  0  0  0
  -25.9230  -26.9980   19.4600 C   0  0  0  0  0  3  0  0  0  0  0  0
  -24.7260  -27.7410   19.5110 C   0  0  0  0  0  3  0  0  0  0  0  0
  -23.4860  -29.8830   20.1860 C   0  0  0  0  0  2  0  0  0  0  0  0
  -24.6210  -31.1680   22.0590 N   0  0  0  0  0  0  0  0  0  0  0  0
  -23.5590  -32.2480   23.7460 O   0  0  0  0  0  0  0  0  0  0  0  0
  -22.7180  -29.5550   22.5570 C   0  0  0  0  0  0  0  0  0  0  0  0
  -21.3940  -29.3560   22.4550 N   0  0  0  0  0  0  0  0  0  0  0  0
  -23.4240  -28.9490   23.3660 O   0  0  0  0  0  0  0  0  0  0  0  0
  -20.8860  -29.8950   21.7680 H   0  0  0  0  0  0  0  0  0  0  0  0
  -18.0510  -28.1020   22.9950 C   0  0  0  0  0  0  0  0  0  0  0  0
  -20.6020  -28.4200   23.2520 C   0  0  0  0  0  3  0  0  0  0  0  0
  -20.7360  -26.9790   22.7090 C   0  0  0  0  0  2  0  0  0  0  0  0
  -19.6380  -26.6080   21.7070 C   0  0  0  0  0  2  0  0  0  0  0  0
  -18.2550  -26.7400   22.3520 C   0  0  0  0  0  2  0  0  0  0  0  0
  -19.1530  -28.8970   23.4020 C   0  0  0  0  0  0  0  0  0  0  0  0
  -18.9110  -30.1710   23.9610 C   0  0  0  0  0  3  0  0  0  0  0  0
  -17.5960  -30.6490   24.1160 C   0  0  0  0  0  3  0  0  0  0  0  0
  -16.5070  -29.8500   23.7280 C   0  0  0  0  0  3  0  0  0  0  0  0
  -16.7350  -28.5790   23.1720 C   0  0  0  0  0  3  0  0  0  0  0  0
  -25.9300  -32.5880   23.7310 C   0  0  0  0  0  3  0  0  0  0  0  0
  -26.4870  -31.8200   24.9920 C   0  0  1  0  0  0  0  0  0  0  0  0
  -25.4330  -31.5970   26.1010 C   0  0  0  0  0  1  0  0  0  0  0  0
  -27.0420  -30.4350   24.5830 C   0  0  0  0  0  1  0  0  0  0  0  0
  -27.6690  -32.6070   25.6060 C   0  0  0  0  0  1  0  0  0  0  0  0
  -25.6510  -33.9920   24.0580 N   0  0  0  0  0  0  0  0  0  0  0  0
  -25.9740  -35.0320   23.2770 C   0  0  0  0  0  0  0  0  0  0  0  0
  -26.6090  -34.9090   22.2270 O   0  0  0  0  0  0  0  0  0  0  0  0
  -25.0830  -34.1630   24.8740 H   0  0  0  0  0  0  0  0  0  0  0  0
  -24.2560  -36.8400   22.9580 C   0  0  0  0  0  1  0  0  0  0  0  0
  -25.5170  -36.4310   23.7340 C   0  0  0  0  0  3  0  0  0  0  0  0
  -27.6850  -37.2990   24.4910 C   0  0  0  0  0  1  0  0  0  0  0  0
  -26.5580  -37.4690   23.5770 N   0  0  0  0  0  0  0  0  0  0  0  0
  -26.1680  -38.3950   23.7250 H   0  0  0  0  0  0  0  0  0  0  0  0
  1  7  1  0
  3  2  1  0
  4  2  2  0
  5  3  2  0
  6  4  1  0
  7  6  2  0
  7  5  1  0
  8  6  1  0
  9  8  1  0
  9 11  1  0
 10  9  1  0
 12 13  1  0
 12  9  1  0
 14 13  1  0
 15 20  1  0
 16 17  1  0
 16 15  1  0
 18 17  1  0
 18 25  1  0
 18 19  1  0
 20 14  1  0
 20 19  1  0
 21 14  2  0
 22 23  2  0
 23 42  1  0
 24 23  1  0
 24 27  1  0
 25 22  1  0
 25 26  1  0
 26 24  2  0
 27 28  1  0
 28 29  2  0
 30 33  1  0
 30 29  1  0
 31 30  2  0
 32 31  1  0
 32 27  2  0
 33 34  1  0
 34 39  2  0
 34 35  1  0
 35 36  2  0
 36 37  1  0
 37 41  1  0
 38 37  2  0
 39 38  1  0
 40 39  1  0
 42 43  1  0
 43 46  1  0
 43 45  1  0
 44 42  2  0
 47 48  1  0
 47 22  1  0
 49 47  1  0
 50 52  1  0
 50  1  1  0
 50 51  1  0
 54 53  1  0
 54 50  1  0
 55 54  1  0
 55 56  1  0
 57 59  1  0
 57 56  1  0
 58 69  2  0
 59 64  1  0
 60 68  1  0
 60 70  1  0
 61 67  1  0
 61 63  1  0
 62 68  1  0
 63 62  1  0
 64 63  2  0
 65 66  1  0
 65 59  2  0
 66 61  2  0
 67 60  1  0
 68 58  1  0
 70 72  2  0
 71 70  1  0
 73 71  1  0
 74 83  2  0
 74 79  1  0
 75 71  1  0
 75 79  1  0
 76 75  1  0
 77 78  1  0
 77 76  1  0
 78 74  1  0
 79 80  2  0
 80 81  1  0
 82 81  2  0
 83 82  1  0
 84 58  1  0
 84 89  1  0
 84 85  1  0
 85 88  1  1
 85 86  1  0
 87 85  1  0
 89 92  1  0
 90 94  1  0
 90 89  1  0
 91 90  2  0
 94 93  1  0
 96 97  1  0
 96 94  1  0
 96 95  1  0
M  ISO  4  13 100  14 100  56 101  57 101
M  END
>  <TORSDO>  (20) 
F 25

>  <SCORE>  (20) 
-11.201

>  <name>  (20) 
19

>  <ligand_id>  (20) 
19

>  <original_smiles>  (20) 
[H]c1c([H])c([H])c2c(c1[H])C([H])([H])C([H])([H])C([H])([H])C2([H])N([H])C(=O)C1([H])N(C(=O)C([H])(N([H])C(=O)C([H])(N([H])C([H])([H])[H])C([H])([H])[H])C(C([H])([H])[H])(C([H])([H])[H])C([H])([H])[H])C([H])([H])c2c([H])c(OC([H])([H])C([H])([H])C([H])(C([H])([H])[H])[N+]([H])([H])C([H])([H])c3c([H])c([H])c([H])c([H])c3C([H])([H])[N+]([H])([H])C([H])([H])C([H])([H])C(=O)N3C([H])([H])C([H])([H])C([H])([H])C([H])(n4nc(-c5c([H])c([H])c(Oc6c([H])c([H])c(F)c([H])c6F)c([H])c5[H])c(C(=O)N([H])[H])c4N([H])[H])C3([H])[H])c([H])c([H])c2C1([H])[H]

>  <smiles>  (20) 
[H]c1c([H])c([H])c2c(c1[H])C([H])([H])C([H])([H])C([H])([H])C2([H])N([H])C(=O)C1([H])N(C(=O)C([H])(N([H])C(=O)C([H])(N([H])C([H])([H])[H])C([H])([H])[H])C(C([H])([H])[H])(C([H])([H])[H])C([H])([H])[H])C([H])([H])c2c([H])c(OC([H])([H])C([H])([H])C([H])(C([H])([H])[H])[N+]([H])([H])C([H])([H])c3c([H])c([H])c([H])c([H])c3C([H])([H])[N+]([H])([H])C([H])([H])C([H])([H])C(=O)N3C([H])([H])C([H])([H])C([H])([H])C([H])(n4nc(-c5c([H])c([H])c(Oc6c([H])c([H])c(F)c([H])c6F)c([H])c5[H])c(C(=O)N([H])[H])c4N([H])[H])C3([H])[H])c([H])c([H])c2C1([H])[H]

$$$$
20:0:0
     RDKit          3D

 93102  0  0  1  0  0  0  0  0999 V2000
  -29.6180  -22.4620   19.1600 C   0  0  0  0  0  3  0  0  0  0  0  0
  -29.7740  -23.8780   19.0970 C   0  0  0  0  0  0  0  0  0  0  0  0
  -28.6120  -24.5570   19.1660 C   0  0  0  0  0  0  0  0  0  0  0  0
  -28.2920  -22.1010   19.2800 C   0  0  0  0  0  0  0  0  0  0  0  0
  -30.9220  -24.8040   18.9100 C   0  0  0  0  0  3  0  0  0  0  0  0
  -30.2430  -26.1830   18.6570 C   0  0  0  0  0  3  0  0  0  0  0  0
  -28.7240  -26.0200   18.9380 C   0  0  0  0  0  3  0  0  0  0  0  0
  -27.2470  -23.5110   19.3850 S   0  0  0  0  0  0  0  0  0  0  0  0
  -28.3660  -26.7190   20.1310 O   0  0  0  0  0  0  0  0  0  0  0  0
  -24.5430  -31.8450   23.2430 C   0  0  0  0  0  0  0  0  0  0  0  0
  -27.1750  -27.4120   20.1370 C   0  0  0  0  0  0  0  0  0  0  0  0
  -23.3300  -30.4540   21.5960 C   0  0  0  0  0  3  0  0  0  0  0  0
  -24.7750  -28.9110   20.1710 C   0  0  0  0  0  0  0  0  0  0  0  0
  -25.8550  -30.7980   21.4030 C   0  0  0  0  0  2  0  0  0  0  0  0
  -25.9310  -29.4260   20.7690 C   0  0  0  0  0  0  0  0  0  0  0  0
  -27.1280  -28.6760   20.7680 C   0  0  0  0  0  3  0  0  0  0  0  0
  -25.9960  -26.9070   19.5410 C   0  0  0  0  0  3  0  0  0  0  0  0
  -24.8000  -27.6460   19.5600 C   0  0  0  0  0  3  0  0  0  0  0  0
  -23.5360  -29.7740   20.2150 C   0  0  0  0  0  2  0  0  0  0  0  0
  -24.5940  -31.0460   22.1390 N   0  0  0  0  0  0  0  0  0  0  0  0
  -23.4640  -32.1240   23.7820 O   0  0  0  0  0  0  0  0  0  0  0  0
  -22.6720  -29.4340   22.5530 C   0  0  0  0  0  0  0  0  0  0  0  0
  -21.3450  -29.2700   22.4300 N   0  0  0  0  0  0  0  0  0  0  0  0
  -23.3520  -28.7950   23.3610 O   0  0  0  0  0  0  0  0  0  0  0  0
  -20.8590  -29.8370   21.7500 H   0  0  0  0  0  0  0  0  0  0  0  0
  -17.9570  -28.1230   22.9350 C   0  0  0  0  0  0  0  0  0  0  0  0
  -20.5190  -28.3380   23.1970 C   0  0  0  0  0  3  0  0  0  0  0  0
  -20.5980  -26.9100   22.6090 C   0  0  0  0  0  2  0  0  0  0  0  0
  -19.4860  -26.6120   21.5970 C   0  0  0  0  0  2  0  0  0  0  0  0
  -18.1090  -26.7750   22.2500 C   0  0  0  0  0  2  0  0  0  0  0  0
  -19.0890  -28.8640   23.3650 C   0  0  0  0  0  0  0  0  0  0  0  0
  -18.8930  -30.1280   23.9640 C   0  0  0  0  0  3  0  0  0  0  0  0
  -17.5980  -30.6490   24.1370 C   0  0  0  0  0  3  0  0  0  0  0  0
  -16.4800  -29.9050   23.7240 C   0  0  0  0  0  3  0  0  0  0  0  0
  -16.6610  -28.6430   23.1290 C   0  0  0  0  0  3  0  0  0  0  0  0
  -25.8340  -32.4640   23.8640 C   0  0  0  0  0  3  0  0  0  0  0  0
  -25.5380  -33.8650   24.1910 N   0  0  0  0  0  0  0  0  0  0  0  0
  -25.8850  -34.9120   23.4310 C   0  0  0  0  0  0  0  0  0  0  0  0
  -26.5590  -34.8010   22.4030 O   0  0  0  0  0  0  0  0  0  0  0  0
  -24.9410  -34.0270   24.9890 H   0  0  0  0  0  0  0  0  0  0  0  0
  -24.1740  -36.7190   23.0630 C   0  0  0  0  0  1  0  0  0  0  0  0
  -25.4070  -36.3050   23.8820 C   0  0  0  0  0  3  0  0  0  0  0  0
  -27.5460  -37.1700   24.7220 C   0  0  0  0  0  1  0  0  0  0  0  0
  -26.4500  -37.3490   23.7730 N   0  0  0  0  0  0  0  0  0  0  0  0
  -26.0510  -38.2730   23.9210 H   0  0  0  0  0  0  0  0  0  0  0  0
  -26.3450  -31.6870   25.1390 C   0  0  1  0  0  0  0  0  0  0  0  0
  -25.2510  -31.4560   26.2070 C   0  0  0  0  0  1  0  0  0  0  0  0
  -26.9160  -30.3060   24.7420 C   0  0  0  0  0  1  0  0  0  0  0  0
  -27.5020  -32.4710   25.8020 C   0  0  0  0  0  1  0  0  0  0  0  0
  -27.6730  -20.7350   19.2640 C   0  0  0  0  0  2  0  0  0  0  0  0
  -28.0210  -19.7950   20.4320 C   0  0  0  0  0  2  0  0  0  0  0  0
  -29.3270  -19.1160   20.2570 N   0  0  0  0  0  4  0  0  0  0  0  0
  -30.0750  -19.7600   20.4620 H   0  0  0  0  0  0  0  0  0  0  0  0
  -29.4040  -18.8530   19.2900 H   0  0  0  0  0  0  0  0  0  0  0  0
  -29.4900  -17.8900   21.0750 C   0  0  0  0  0  2  0  0  0  0  0  0
  -30.3780  -16.8360   20.3790 C   0  0  0  0  0  2  0  0  0  0  0  0
  -30.3150  -15.4550   21.0740 C   0  0  0  0  0  2  0  0  0  0  0  0
  -30.8460  -14.3150   20.1800 C   0  0  0  0  0  0  0  0  0  0  0  0
  -30.4180  -12.2380   18.9140 C   0  0  0  0  0  2  0  0  0  0  0  0
  -29.4160  -12.5210   17.7760 C   0  0  0  0  0  2  0  0  0  0  0  0
  -27.9620  -12.4190   18.2790 C   0  0  0  0  0  2  0  0  0  0  0  0
  -27.7250  -13.2090   19.5940 C   0  0  0  0  0  3  0  0  0  0  0  0
  -28.8240  -12.8670   20.6240 C   0  0  0  0  0  2  0  0  0  0  0  0
  -30.1280  -13.1720   20.0130 N   0  0  0  0  0  0  0  0  0  0  0  0
  -31.9040  -14.5190   19.5760 O   0  0  0  0  0  0  0  0  0  0  0  0
  -25.3700  -13.8770   20.3990 C   0  0  0  0  0  0  0  0  0  0  0  0
  -24.3000  -13.1290   20.8110 C   0  0  0  0  0  0  0  0  0  0  0  0
  -24.7240  -11.7660   20.7520 C   0  0  0  0  0  0  0  0  0  0  0  0
  -26.3830  -12.9710   20.1240 N   0  0  0  0  0  0  0  0  0  0  0  0
  -25.9960  -11.6960   20.3860 N   0  0  0  0  0  0  0  0  0  0  0  0
  -23.9740  -10.5210   20.9650 C   0  0  0  0  0  0  0  0  0  0  0  0
  -24.4170   -9.5430   21.8830 C   0  0  0  0  0  3  0  0  0  0  0  0
  -23.6720   -8.3610   22.0830 C   0  0  0  0  0  3  0  0  0  0  0  0
  -22.4700   -8.1500   21.3680 C   0  0  0  0  0  0  0  0  0  0  0  0
  -22.0480   -9.1160   20.4380 C   0  0  0  0  0  3  0  0  0  0  0  0
  -22.7920  -10.2890   20.2360 C   0  0  0  0  0  3  0  0  0  0  0  0
  -21.6930   -7.0220   21.4790 O   0  0  0  0  0  0  0  0  0  0  0  0
  -21.6540   -6.2870   22.6370 C   0  0  0  0  0  0  0  0  0  0  0  0
  -21.2750   -6.8610   23.8700 C   0  0  0  0  0  3  0  0  0  0  0  0
  -21.1800   -6.0560   25.0230 C   0  0  0  0  0  3  0  0  0  0  0  0
  -21.4540   -4.6770   24.9420 C   0  0  0  0  0  0  0  0  0  0  0  0
  -21.8260   -4.1030   23.7150 C   0  0  0  0  0  3  0  0  0  0  0  0
  -21.9220   -4.9060   22.5650 C   0  0  0  0  0  0  0  0  0  0  0  0
  -22.2610   -4.3430   21.3790 F   0  0  0  0  0  0  0  0  0  0  0  0
  -21.3540   -3.9010   26.0470 F   0  0  0  0  0  0  0  0  0  0  0  0
  -22.9280  -13.6380   21.1520 C   0  0  0  0  0  0  0  0  0  0  0  0
  -22.2250  -12.9520   22.0470 N   0  0  0  0  0  0  0  0  0  0  0  0
  -22.4920  -14.6780   20.6600 O   0  0  0  0  0  0  0  0  0  0  0  0
  -22.5910  -12.1110   22.4670 H   0  0  0  0  0  0  0  0  0  0  0  0
  -21.3050  -13.2730   22.3180 H   0  0  0  0  0  0  0  0  0  0  0  0
  -25.5620  -15.2430   20.2190 N   0  0  0  0  0  0  0  0  0  0  0  0
  -24.8130  -15.9160   20.3410 H   0  0  0  0  0  0  0  0  0  0  0  0
  -26.4010  -15.6500   19.8260 H   0  0  0  0  0  0  0  0  0  0  0  0
  1  4  2  0
  2  1  1  0
  2  3  2  0
  3  8  1  0
  4  8  1  0
  5  2  1  0
  6  5  2  0
  6  7  1  0
  7  3  1  0
  7  9  1  0
  9 11  1  0
 10 21  2  0
 11 16  1  0
 12 20  1  0
 12 22  1  0
 13 19  1  0
 13 15  1  0
 14 20  1  0
 15 14  1  0
 16 15  2  0
 17 18  1  0
 17 11  2  0
 18 13  2  0
 19 12  1  0
 20 10  1  0
 22 24  2  0
 23 22  1  0
 25 23  1  0
 26 35  2  0
 26 31  1  0
 27 23  1  0
 27 31  1  0
 28 27  1  0
 29 30  1  0
 29 28  1  0
 30 26  1  0
 31 32  2  0
 32 33  1  0
 34 33  2  0
 35 34  1  0
 36 10  1  0
 36 37  1  0
 36 46  1  0
 37 40  1  0
 38 42  1  0
 38 37  1  0
 39 38  2  0
 42 41  1  0
 44 42  1  0
 44 45  1  0
 44 43  1  0
 46 49  1  1
 46 47  1  0
 48 46  1  0
 50  4  1  0
 50 51  1  0
 52 51  1  0
 52 53  1  0
 52 55  1  0
 54 52  1  0
 56 57  1  0
 56 55  1  0
 58 57  1  0
 59 64  1  0
 60 61  1  0
 60 59  1  0
 62 61  1  0
 62 69  1  0
 62 63  1  0
 64 58  1  0
 64 63  1  0
 65 58  2  0
 66 67  2  0
 67 86  1  0
 68 67  1  0
 68 71  1  0
 69 70  1  0
 69 66  1  0
 70 68  2  0
 71 72  1  0
 72 73  2  0
 74 77  1  0
 74 73  1  0
 75 74  2  0
 76 75  1  0
 76 71  2  0
 77 78  1  0
 78 79  1  0
 79 80  2  0
 81 80  1  0
 81 85  1  0
 82 81  2  0
 83 78  2  0
 83 82  1  0
 84 83  1  0
 86 87  1  0
 87 90  1  0
 87 89  1  0
 88 86  2  0
 91 92  1  0
 91 66  1  0
 93 91  1  0
M  ISO  4   7 101   9 101  57 100  58 100
M  END
>  <TORSDO>  (21) 
F 22

>  <SCORE>  (21) 
-12.896

>  <name>  (21) 
20

>  <ligand_id>  (21) 
20

>  <original_smiles>  (21) 
[H]c1c([H])c([H])c2c(c1[H])C([H])([H])C([H])([H])C([H])([H])C2([H])N([H])C(=O)C1([H])N(C(=O)C([H])(N([H])C(=O)C([H])(N([H])C([H])([H])[H])C([H])([H])[H])C(C([H])([H])[H])(C([H])([H])[H])C([H])([H])[H])C([H])([H])c2c([H])c(OC3([H])c4sc(C([H])([H])C([H])([H])[N+]([H])([H])C([H])([H])C([H])([H])C([H])([H])C(=O)N5C([H])([H])C([H])([H])C([H])([H])C([H])(n6nc(-c7c([H])c([H])c(Oc8c([H])c([H])c(F)c([H])c8F)c([H])c7[H])c(C(=O)N([H])[H])c6N([H])[H])C5([H])[H])c([H])c4C([H])([H])C3([H])[H])c([H])c([H])c2C1([H])[H]

>  <smiles>  (21) 
[H]c1c([H])c([H])c2c(c1[H])C([H])([H])C([H])([H])C([H])([H])C2([H])N([H])C(=O)C1([H])N(C(=O)C([H])(N([H])C(=O)C([H])(N([H])C([H])([H])[H])C([H])([H])[H])C(C([H])([H])[H])(C([H])([H])[H])C([H])([H])[H])C([H])([H])c2c([H])c(OC3([H])c4sc(C([H])([H])C([H])([H])[N+]([H])([H])C([H])([H])C([H])([H])C([H])([H])C(=O)N5C([H])([H])C([H])([H])C([H])([H])C([H])(n6nc(-c7c([H])c([H])c(Oc8c([H])c([H])c(F)c([H])c8F)c([H])c7[H])c(C(=O)N([H])[H])c6N([H])[H])C5([H])[H])c([H])c4C([H])([H])C3([H])[H])c([H])c([H])c2C1([H])[H]

$$$$
21:0:0
     RDKit          3D

 96 95  0  0  1  0  0  0  0  0999 V2000
  -20.9840  -29.4530   21.8600 C   0  0  0  0  0  3  0  0  0  0  0  0
  -18.8030  -27.4620   19.8400 C   0  0  0  0  0  2  0  0  0  0  0  0
  -20.7850  -27.9960   22.6420 C   0  0  0  0  0  1  0  0  0  0  0  0
  -20.4180  -29.8000   20.3370 C   0  0  0  0  0  0  0  0  0  0  0  0
  -19.2120  -26.7490   21.3140 C   0  0  0  0  0  2  0  0  0  0  0  0
  -19.5630  -28.8370   19.3430 C   0  0  0  0  0  3  0  0  0  0  0  0
  -20.7880  -31.1360   19.6710 C   0  0  0  0  0  1  0  0  0  0  0  0
  -18.4760  -25.3540   21.5360 C   0  0  0  0  0  1  0  0  0  0  0  0
  -22.2410  -26.6810   24.1840 C   0  0  0  0  0  2  0  0  0  0  0  0
  -23.3250  -25.0740   23.8210 N   0  0  0  0  0  1  0  0  0  0  0  0
  -22.2660  -27.1170   25.3380 O   0  0  0  0  0  0  0  0  0  0  0  0
  -23.6850  -24.9650   24.7620 H   0  0  0  0  0  0  0  0  0  0  0  0
  -24.3910  -23.2320   22.8590 C   0  0  0  0  0 15  0  0  0  0  0  0
  -25.9310  -21.0720   22.5870 C   0  0  0  0  0 15  0  0  0  0  0  0
  -27.1880  -18.9400   21.5420 C   0  0  0  0  0 15  0  0  0  0  0  0
  -28.6680  -16.9550   21.1060 C   0  0  0  0  0  2  0  0  0  0  0  0
  -29.9280  -14.3750   19.9080 C   0  0  0  0  0  2  0  0  0  0  0  0
  -29.5220  -13.3060   18.7380 C   0  0  0  0  0  2  0  0  0  0  0  0
  -28.2980  -12.4620   19.0830 C   0  0  0  0  0  2  0  0  0  0  0  0
  -27.4600  -13.4150   19.9260 C   0  0  0  0  0  3  0  0  0  0  0  0
  -28.1450  -14.0790   21.1600 C   0  0  0  0  0  2  0  0  0  0  0  0
  -28.8240  -15.3420   20.7140 N   0  0  0  0  0  0  0  0  0  0  0  0
  -29.9690  -16.9400   20.9180 O   0  0  0  0  0  1  0  0  0  0  0  0
  -25.1330  -13.8270   20.5680 C   0  0  0  0  0  0  0  0  0  0  0  0
  -24.1020  -13.0270   20.9250 C   0  0  0  0  0  0  0  0  0  0  0  0
  -24.5990  -11.6860   20.8670 C   0  0  0  0  0  0  0  0  0  0  0  0
  -26.1750  -12.9680   20.3240 N   0  0  0  0  0  0  0  0  0  0  0  0
  -25.8920  -11.6670   20.5570 N   0  0  0  0  0  0  0  0  0  0  0  0
  -23.8860  -10.4220   21.0390 C   0  0  0  0  0  0  0  0  0  0  0  0
  -24.3460   -9.4230   21.9240 C   0  0  0  0  0  3  0  0  0  0  0  0
  -23.6240   -8.2200   22.0750 C   0  0  0  0  0  3  0  0  0  0  0  0
  -22.4240   -8.0180   21.3530 C   0  0  0  0  0  0  0  0  0  0  0  0
  -21.9800   -9.0100   20.4620 C   0  0  0  0  0  3  0  0  0  0  0  0
  -22.7030  -10.2030   20.3080 C   0  0  0  0  0  3  0  0  0  0  0  0
  -21.6620   -6.8790   21.4250 O   0  0  0  0  0  0  0  0  0  0  0  0
  -21.6830   -6.0670   22.5290 C   0  0  0  0  0  0  0  0  0  0  0  0
  -21.3990   -6.5610   23.8200 C   0  0  0  0  0  3  0  0  0  0  0  0
  -21.3640   -5.6790   24.9170 C   0  0  0  0  0  3  0  0  0  0  0  0
  -21.6040   -4.3060   24.7250 C   0  0  0  0  0  0  0  0  0  0  0  0
  -21.8820   -3.8120   23.4390 C   0  0  0  0  0  3  0  0  0  0  0  0
  -21.9190   -4.6910   22.3420 C   0  0  0  0  0  0  0  0  0  0  0  0
  -22.1670   -4.2100   21.1000 F   0  0  0  0  0  0  0  0  0  0  0  0
  -21.5620   -3.4540   25.7760 F   0  0  0  0  0  0  0  0  0  0  0  0
  -22.7120  -13.5010   21.1940 C   0  0  0  0  0  0  0  0  0  0  0  0
  -21.9830  -12.8070   22.0580 N   0  0  0  0  0  0  0  0  0  0  0  0
  -22.2850  -14.5350   20.6800 O   0  0  0  0  0  0  0  0  0  0  0  0
  -22.3330  -11.9700   22.5000 H   0  0  0  0  0  0  0  0  0  0  0  0
  -21.0480  -13.1190   22.2770 H   0  0  0  0  0  0  0  0  0  0  0  0
  -25.2880  -15.2040   20.4060 N   0  0  0  0  0  0  0  0  0  0  0  0
  -24.5230  -15.8620   20.4940 H   0  0  0  0  0  0  0  0  0  0  0  0
  -26.1280  -15.6260   20.0320 H   0  0  0  0  0  0  0  0  0  0  0  0
  -20.4900  -28.5270   17.9840 C   0  0  0  0  0  2  0  0  0  0  0  0
  -22.1870  -28.0730   17.9070 C   0  0  0  0  0  2  0  0  0  0  0  0
  -23.2010  -26.6530   18.3320 C   0  0  0  0  0  2  0  0  0  0  0  0
  -24.5520  -26.0990   19.4290 C   0  0  0  0  0  2  0  0  0  0  0  0
  -26.1580  -26.2260   19.8840 O   0  0  0  0  0  0  0  0  0  0  0  0
  -24.6230  -31.7490   23.2230 C   0  0  0  0  0  0  0  0  0  0  0  0
  -26.9390  -27.3640   19.7760 C   0  0  0  0  0  3  0  0  0  0  0  0
  -23.6580  -29.9620   21.6340 C   0  0  0  0  0  3  0  0  0  0  0  0
  -25.0860  -29.2710   19.8490 C   0  0  0  0  0  0  0  0  0  0  0  0
  -26.0800  -30.6340   21.5930 C   0  0  0  0  0  2  0  0  0  0  0  0
  -26.1290  -29.4080   20.7360 C   0  0  0  0  0  0  0  0  0  0  0  0
  -27.0500  -28.3480   20.8060 C   0  0  0  0  0  3  0  0  0  0  0  0
  -26.4460  -27.7950   18.5880 C   0  0  0  0  0  2  0  0  0  0  0  0
  -25.3050  -28.5690   18.6940 C   0  0  0  0  0  3  0  0  0  0  0  0
  -23.8520  -29.9690   20.1530 C   0  0  0  0  0  2  0  0  0  0  0  0
  -24.7700  -30.8080   22.2330 N   0  0  0  0  0  0  0  0  0  0  0  0
  -23.5180  -32.0610   23.6890 O   0  0  0  0  0  0  0  0  0  0  0  0
  -23.4470  -28.4120   22.2850 C   0  0  0  0  0  0  0  0  0  0  0  0
  -22.7630  -27.0410   21.8960 N   0  0  0  0  0  2  0  0  0  0  0  0
  -23.8960  -28.5570   23.4170 O   0  0  0  0  0  0  0  0  0  0  0  0
  -22.7900  -26.9920   20.8940 H   0  0  0  0  0  0  0  0  0  0  0  0
  -18.0450  -27.9000   23.0080 C   0  0  2  0  0  0  0  0  0  0  0  0
  -20.9950  -25.8350   22.4560 C   0  0  0  0  0  1  0  0  0  0  0  0
  -21.3980  -25.9150   20.9890 C   0  0  0  0  0  2  0  0  0  0  0  0
  -21.0750  -27.4600   20.4500 C   0  0  0  0  0  1  0  0  0  0  0  0
  -18.7400  -28.8250   21.7900 C   0  0  0  0  0  1  0  0  0  0  0  0
  -19.1040  -26.9950   23.7210 C   0  0  0  0  0  2  0  0  0  0  0  0
  -19.1370  -28.3710   24.5630 C   0  0  0  0  0  3  0  0  0  0  0  0
  -18.2770  -29.6310   24.6620 C   0  0  0  0  0  2  0  0  0  0  0  0
  -17.0040  -29.6530   24.0440 C   0  0  0  0  0  2  0  0  0  0  0  0
  -16.7870  -28.4520   23.3700 C   0  0  0  0  0  2  0  0  0  0  0  0
  -25.8830  -32.4390   23.8470 C   0  0  0  0  0  3  0  0  0  0  0  0
  -25.5560  -33.8250   24.2170 N   0  0  0  0  0  0  0  0  0  0  0  0
  -25.8990  -34.9090   23.5140 C   0  0  0  0  0  0  0  0  0  0  0  0
  -26.5570  -34.8550   22.4740 O   0  0  0  0  0  0  0  0  0  0  0  0
  -24.9760  -33.9570   25.0340 H   0  0  0  0  0  0  0  0  0  0  0  0
  -24.1500  -36.7050   23.2650 C   0  0  0  0  0  1  0  0  0  0  0  0
  -25.4110  -36.2760   24.0310 C   0  0  0  0  0  3  0  0  0  0  0  0
  -27.5530  -37.1660   24.8460 C   0  0  0  0  0  1  0  0  0  0  0  0
  -26.4270  -37.3490   23.9380 N   0  0  0  0  0  0  0  0  0  0  0  0
  -26.0070  -38.2550   24.1280 H   0  0  0  0  0  0  0  0  0  0  0  0
  -26.4260  -31.6590   25.1110 C   0  0  1  0  0  0  0  0  0  0  0  0
  -25.3500  -31.4120   26.1940 C   0  0  0  0  0  1  0  0  0  0  0  0
  -27.0470  -30.2890   24.7530 C   0  0  0  0  0  1  0  0  0  0  0  0
  -27.5630  -32.4690   25.7680 C   0  0  0  0  0  1  0  0  0  0  0  0
  1  3  1  0
  2  5  1  0
  4  1  2  0
  5  8  1  0
  6 52  1  0
  6  2  1  0
  6  4  1  0
  7  4  1  0
  9 11  2  0
 10 12  1  0
 17 22  1  0
 18 19  1  0
 18 17  1  0
 20 19  1  0
 20 27  1  0
 20 21  1  0
 22 16  1  0
 22 21  1  0
 23 16  1  0
 24 25  2  0
 25 44  1  0
 26 25  1  0
 26 29  1  0
 27 28  1  0
 27 24  1  0
 28 26  2  0
 29 30  1  0
 30 31  2  0
 32 35  1  0
 32 31  1  0
 33 32  2  0
 34 33  1  0
 34 29  2  0
 35 36  1  0
 36 37  1  0
 37 38  2  0
 39 38  1  0
 39 43  1  0
 40 39  2  0
 41 36  2  0
 41 40  1  0
 42 41  1  0
 44 45  1  0
 45 48  1  0
 45 47  1  0
 46 44  2  0
 49 50  1  0
 49 24  1  0
 51 49  1  0
 53 52  1  0
 53 54  1  0
 54 55  1  0
 55 56  1  0
 57 68  2  0
 58 56  1  0
 58 63  1  0
 59 67  1  0
 59 69  1  0
 60 66  1  0
 60 62  1  0
 61 67  1  0
 62 63  2  0
 62 61  1  0
 64 65  1  0
 64 58  1  0
 65 60  2  0
 66 59  1  0
 67 57  1  0
 69 71  2  0
 70 69  1  0
 72 70  1  0
 73 77  1  1
 73 82  1  0
 73 78  1  0
 73 79  1  0
 75 74  1  0
 76 75  1  0
 79 78  1  0
 79 80  1  0
 81 80  1  0
 82 81  1  0
 83 57  1  0
 83 84  1  0
 83 93  1  0
 84 87  1  0
 85 89  1  0
 85 84  1  0
 86 85  2  0
 89 88  1  0
 91 89  1  0
 91 92  1  0
 91 90  1  0
 93 96  1  1
 93 94  1  0
 95 93  1  0
M  ISO  4  15 100  16 100  55 101  56 101
M  END
>  <TORSDO>  (22) 
F 24

>  <SCORE>  (22) 
21.092

>  <name>  (22) 
21

>  <ligand_id>  (22) 
21

>  <original_smiles>  (22) 
[H]c1c([H])c([H])c2c(c1[H])C([H])([H])C([H])([H])C([H])([H])C2([H])N([H])C(=O)C1([H])N(C(=O)C([H])(N([H])C(=O)C([H])(N([H])C([H])([H])[H])C([H])([H])[H])C(C([H])([H])[H])(C([H])([H])[H])C([H])([H])[H])C([H])([H])c2c([H])c(OC([H])([H])C([H])([H])C([H])([H])C([H])([H])c3c([H])c(C([H])([H])[H])c(C(=O)N([H])C([H])([H])C([H])([H])C([H])([H])C(=O)N4C([H])([H])C([H])([H])C([H])([H])C([H])(n5nc(-c6c([H])c([H])c(Oc7c([H])c([H])c(F)c([H])c7F)c([H])c6[H])c(C(=O)N([H])[H])c5N([H])[H])C4([H])[H])c([H])c3C([H])([H])[H])c([H])c([H])c2C1([H])[H]

>  <smiles>  (22) 
[H]c1c([H])c([H])c2c(c1[H])C([H])([H])C([H])([H])C([H])([H])C2([H])N([H])C(=O)C1([H])N(C(=O)C([H])(N([H])C(=O)C([H])(N([H])C([H])([H])[H])C([H])([H])[H])C(C([H])([H])[H])(C([H])([H])[H])C([H])([H])[H])C([H])([H])c2c([H])c(OC([H])([H])C([H])([H])C([H])([H])C([H])([H])c3c([H])c(C([H])([H])[H])c(C(=O)N([H])C([H])([H])C([H])([H])C([H])([H])C(=O)N4C([H])([H])C([H])([H])C([H])([H])C([H])(n5nc(-c6c([H])c([H])c(Oc7c([H])c([H])c(F)c([H])c7F)c([H])c6[H])c(C(=O)N([H])[H])c5N([H])[H])C4([H])[H])c([H])c3C([H])([H])[H])c([H])c([H])c2C1([H])[H]

$$$$
22:0:0
     RDKit          3D

 88 96  0  0  1  0  0  0  0  0999 V2000
  -30.2090  -23.6930   20.9770 C   0  0  0  0  0  2  0  0  0  0  0  0
  -29.0040  -23.4250   20.4370 C   0  0  0  0  0  0  0  0  0  0  0  0
  -28.6490  -21.8410   20.1550 C   0  0  0  0  0  3  0  0  0  0  0  0
  -29.6600  -20.5580   20.5750 C   0  0  0  0  0  3  0  0  0  0  0  0
  -28.7000  -18.4280   19.3570 C   0  0  0  0  0  0  0  0  0  0  0  0
  -28.8280  -16.8770   19.2970 C   0  0  0  0  0  2  0  0  0  0  0  0
  -30.2460  -17.8400   20.9090 C   0  0  0  0  0  2  0  0  0  0  0  0
  -29.6150  -16.3770   20.5410 C   0  0  0  0  0  3  0  0  0  0  0  0
  -29.4440  -19.0120   20.3130 N   0  0  0  0  0  0  0  0  0  0  0  0
  -27.9740  -19.0380   18.5690 O   0  0  0  0  0  0  0  0  0  0  0  0
  -30.4740  -14.9690   20.3160 C   0  0  0  0  0  0  0  0  0  0  0  0
  -30.3840  -12.6180   19.3770 C   0  0  0  0  0  2  0  0  0  0  0  0
  -29.4430  -12.6060   18.1470 C   0  0  0  0  0  2  0  0  0  0  0  0
  -27.9780  -12.3890   18.5770 C   0  0  0  0  0  2  0  0  0  0  0  0
  -27.5780  -13.2940   19.7690 C   0  0  0  0  0  3  0  0  0  0  0  0
  -28.6370  -13.2800   20.8900 C   0  0  0  0  0  2  0  0  0  0  0  0
  -29.9170  -13.6910   20.3000 N   0  0  0  0  0  0  0  0  0  0  0  0
  -31.6680  -15.0520   20.0060 O   0  0  0  0  0  0  0  0  0  0  0  0
  -25.1950  -13.8700   20.5120 C   0  0  0  0  0  0  0  0  0  0  0  0
  -24.1340  -13.0910   20.8840 C   0  0  0  0  0  0  0  0  0  0  0  0
  -24.6040  -11.7420   20.8530 C   0  0  0  0  0  0  0  0  0  0  0  0
  -26.2410  -12.9940   20.2690 N   0  0  0  0  0  0  0  0  0  0  0  0
  -25.8950  -11.7100   20.5410 N   0  0  0  0  0  0  0  0  0  0  0  0
  -23.8840  -10.4770   21.0460 C   0  0  0  0  0  0  0  0  0  0  0  0
  -24.3290   -9.5060   21.9690 C   0  0  0  0  0  3  0  0  0  0  0  0
  -23.6070   -8.3060   22.1480 C   0  0  0  0  0  3  0  0  0  0  0  0
  -22.4260   -8.0700   21.4050 C   0  0  0  0  0  0  0  0  0  0  0  0
  -21.9990   -9.0310   20.4720 C   0  0  0  0  0  3  0  0  0  0  0  0
  -22.7220  -10.2220   20.2890 C   0  0  0  0  0  3  0  0  0  0  0  0
  -21.6750   -6.9240   21.4960 O   0  0  0  0  0  0  0  0  0  0  0  0
  -21.6510   -6.1670   22.6400 C   0  0  0  0  0  0  0  0  0  0  0  0
  -21.2550   -6.7060   23.8830 C   0  0  0  0  0  3  0  0  0  0  0  0
  -21.1800   -5.8760   25.0200 C   0  0  0  0  0  3  0  0  0  0  0  0
  -21.4890   -4.5070   24.9140 C   0  0  0  0  0  0  0  0  0  0  0  0
  -21.8780   -3.9670   23.6750 C   0  0  0  0  0  3  0  0  0  0  0  0
  -21.9560   -4.7930   22.5410 C   0  0  0  0  0  0  0  0  0  0  0  0
  -22.3110   -4.2640   21.3460 F   0  0  0  0  0  0  0  0  0  0  0  0
  -21.4090   -3.7070   26.0020 F   0  0  0  0  0  0  0  0  0  0  0  0
  -22.7350  -13.5630   21.1560 C   0  0  0  0  0  0  0  0  0  0  0  0
  -22.0120  -12.8670   22.0260 N   0  0  0  0  0  0  0  0  0  0  0  0
  -22.2930  -14.5850   20.6320 O   0  0  0  0  0  0  0  0  0  0  0  0
  -22.3830  -12.0400   22.4700 H   0  0  0  0  0  0  0  0  0  0  0  0
  -21.0730  -13.1660   22.2500 H   0  0  0  0  0  0  0  0  0  0  0  0
  -25.3530  -15.2400   20.3360 N   0  0  0  0  0  0  0  0  0  0  0  0
  -24.5820  -15.8900   20.4500 H   0  0  0  0  0  0  0  0  0  0  0  0
  -26.2000  -15.6840   20.0090 H   0  0  0  0  0  0  0  0  0  0  0  0
  -28.0160  -24.7080   20.1080 C   0  0  0  0  0  2  0  0  0  0  0  0
  -28.2570  -26.2300   20.2900 O   0  0  0  0  0  0  0  0  0  0  0  0
  -24.6460  -31.9070   23.2640 C   0  0  0  0  0  0  0  0  0  0  0  0
  -27.1920  -27.1940   20.2280 C   0  0  0  0  0  0  0  0  0  0  0  0
  -23.4310  -30.5160   21.6290 C   0  0  0  0  0  3  0  0  0  0  0  0
  -24.8640  -28.9320   20.2020 C   0  0  0  0  0  0  0  0  0  0  0  0
  -25.9830  -30.7740   21.4520 C   0  0  0  0  0  2  0  0  0  0  0  0
  -26.0470  -29.3820   20.8030 C   0  0  0  0  0  0  0  0  0  0  0  0
  -27.2110  -28.5280   20.7970 C   0  0  0  0  0  3  0  0  0  0  0  0
  -25.9820  -26.8360   19.5950 C   0  0  0  0  0  3  0  0  0  0  0  0
  -24.8440  -27.6720   19.5830 C   0  0  0  0  0  3  0  0  0  0  0  0
  -23.6420  -29.8340   20.2510 C   0  0  0  0  0  2  0  0  0  0  0  0
  -24.7070  -31.0870   22.1700 N   0  0  0  0  0  0  0  0  0  0  0  0
  -23.5630  -32.1980   23.7960 O   0  0  0  0  0  0  0  0  0  0  0  0
  -22.7500  -29.5150   22.5950 C   0  0  0  0  0  0  0  0  0  0  0  0
  -21.4210  -29.3500   22.4710 N   0  0  0  0  0  0  0  0  0  0  0  0
  -23.4200  -28.8890   23.4200 O   0  0  0  0  0  0  0  0  0  0  0  0
  -20.9380  -29.9070   21.7800 H   0  0  0  0  0  0  0  0  0  0  0  0
  -18.0370  -28.1600   22.9680 C   0  0  0  0  0  0  0  0  0  0  0  0
  -20.5940  -28.4200   23.2450 C   0  0  0  0  0  3  0  0  0  0  0  0
  -20.6970  -26.9840   22.6810 C   0  0  0  0  0  2  0  0  0  0  0  0
  -19.5980  -26.6550   21.6650 C   0  0  0  0  0  2  0  0  0  0  0  0
  -18.2140  -26.8060   22.3020 C   0  0  0  0  0  2  0  0  0  0  0  0
  -19.1540  -28.9240   23.3960 C   0  0  0  0  0  0  0  0  0  0  0  0
  -18.9330  -30.1900   23.9810 C   0  0  0  0  0  3  0  0  0  0  0  0
  -17.6280  -30.6920   24.1410 C   0  0  0  0  0  3  0  0  0  0  0  0
  -16.5250  -29.9250   23.7280 C   0  0  0  0  0  3  0  0  0  0  0  0
  -16.7300  -28.6610   23.1460 C   0  0  0  0  0  3  0  0  0  0  0  0
  -25.9300  -32.5340   23.8860 C   0  0  0  0  0  3  0  0  0  0  0  0
  -26.4410  -31.7600   25.1620 C   0  0  1  0  0  0  0  0  0  0  0  0
  -25.3490  -31.5320   26.2330 C   0  0  0  0  0  1  0  0  0  0  0  0
  -27.0130  -30.3770   24.7730 C   0  0  0  0  0  1  0  0  0  0  0  0
  -27.6010  -32.5450   25.8220 C   0  0  0  0  0  1  0  0  0  0  0  0
  -25.6260  -33.9340   24.2230 N   0  0  0  0  0  0  0  0  0  0  0  0
  -25.9450  -34.9910   23.4640 C   0  0  0  0  0  0  0  0  0  0  0  0
  -26.5930  -34.8890   22.4180 O   0  0  0  0  0  0  0  0  0  0  0  0
  -25.0490  -34.0860   25.0380 H   0  0  0  0  0  0  0  0  0  0  0  0
  -24.2030  -36.7840   23.1700 C   0  0  0  0  0  1  0  0  0  0  0  0
  -25.4730  -36.3790   23.9380 C   0  0  0  0  0  3  0  0  0  0  0  0
  -27.6340  -37.2690   24.6930 C   0  0  0  0  0  1  0  0  0  0  0  0
  -26.5000  -37.4340   23.7870 N   0  0  0  0  0  0  0  0  0  0  0  0
  -26.0970  -38.3540   23.9460 H   0  0  0  0  0  0  0  0  0  0  0  0
  2  1  2  0
  3  2  1  0
  3  4  2  0
  5  9  1  0
  6  5  1  0
  6  8  1  0
  8 11  1  0
  8  7  1  0
  9  4  1  0
  9  7  1  0
 10  5  2  0
 12 17  1  0
 13 14  1  0
 13 12  1  0
 15 14  1  0
 15 22  1  0
 15 16  1  0
 17 11  1  0
 17 16  1  0
 18 11  2  0
 19 20  2  0
 20 39  1  0
 21 20  1  0
 21 24  1  0
 22 19  1  0
 22 23  1  0
 23 21  2  0
 24 25  1  0
 25 26  2  0
 27 30  1  0
 27 26  1  0
 28 27  2  0
 29 28  1  0
 29 24  2  0
 30 31  1  0
 31 32  1  0
 32 33  2  0
 34 33  1  0
 34 38  1  0
 35 34  2  0
 36 31  2  0
 36 35  1  0
 37 36  1  0
 39 40  1  0
 40 43  1  0
 40 42  1  0
 41 39  2  0
 44 45  1  0
 44 19  1  0
 46 44  1  0
 47 48  1  0
 47  2  1  0
 49 60  2  0
 50 48  1  0
 50 55  1  0
 51 59  1  0
 51 61  1  0
 52 58  1  0
 52 54  1  0
 53 59  1  0
 54 53  1  0
 55 54  2  0
 56 50  2  0
 57 56  1  0
 57 52  2  0
 58 51  1  0
 59 49  1  0
 61 63  2  0
 62 61  1  0
 64 62  1  0
 65 74  2  0
 65 70  1  0
 66 62  1  0
 66 70  1  0
 67 66  1  0
 68 69  1  0
 68 67  1  0
 69 65  1  0
 70 71  2  0
 71 72  1  0
 73 72  2  0
 74 73  1  0
 75 49  1  0
 75 80  1  0
 75 76  1  0
 76 79  1  1
 76 77  1  0
 78 76  1  0
 80 83  1  0
 81 85  1  0
 81 80  1  0
 82 81  2  0
 85 84  1  0
 87 85  1  0
 87 88  1  0
 87 86  1  0
M  ISO  4   8 100  11 100  47 101  48 101
M  END
>  <TORSDO>  (23) 
F 20

>  <SCORE>  (23) 
-13.931

>  <name>  (23) 
22

>  <ligand_id>  (23) 
22

>  <original_smiles>  (23) 
[H]C([H])=C(C([H])([H])Oc1c([H])c([H])c2c(c1[H])C([H])([H])N(C(=O)C([H])(N([H])C(=O)C([H])(N([H])C([H])([H])[H])C([H])([H])[H])C(C([H])([H])[H])(C([H])([H])[H])C([H])([H])[H])C([H])(C(=O)N([H])C1([H])c3c([H])c([H])c([H])c([H])c3C([H])([H])C([H])([H])C1([H])[H])C2([H])[H])C([H])([H])C([H])([H])N1C(=O)C([H])([H])C([H])(C(=O)N2C([H])([H])C([H])([H])C([H])([H])C([H])(n3nc(-c4c([H])c([H])c(Oc5c([H])c([H])c(F)c([H])c5F)c([H])c4[H])c(C(=O)N([H])[H])c3N([H])[H])C2([H])[H])C1([H])[H]

>  <smiles>  (23) 
[H]C([H])=C(C([H])([H])Oc1c([H])c([H])c2c(c1[H])C([H])([H])N(C(=O)C([H])(N([H])C(=O)C([H])(N([H])C([H])([H])[H])C([H])([H])[H])C(C([H])([H])[H])(C([H])([H])[H])C([H])([H])[H])C([H])(C(=O)N([H])C1([H])c3c([H])c([H])c([H])c([H])c3C([H])([H])C([H])([H])C1([H])[H])C2([H])[H])C([H])([H])C([H])([H])N1C(=O)C([H])([H])C([H])(C(=O)N2C([H])([H])C([H])([H])C([H])([H])C([H])(n3nc(-c4c([H])c([H])c(Oc5c([H])c([H])c(F)c([H])c5F)c([H])c4[H])c(C(=O)N([H])[H])c3N([H])[H])C2([H])[H])C1([H])[H]

$$$$
23:0:0
     RDKit          3D

 95104  0  0  1  0  0  0  0  0999 V2000
  -28.6520  -24.4960   17.1460 C   0  0  0  0  0  3  0  0  0  0  0  0
  -29.1250  -23.3260   17.7630 C   0  0  0  0  0  3  0  0  0  0  0  0
  -28.4330  -25.6530   17.9120 C   0  0  0  0  0  3  0  0  0  0  0  0
  -29.3870  -23.3070   19.1520 C   0  0  0  0  0  0  0  0  0  0  0  0
  -29.1560  -24.4720   19.9320 C   0  0  0  0  0  0  0  0  0  0  0  0
  -28.6580  -25.6420   19.3080 C   0  0  0  0  0  0  0  0  0  0  0  0
  -29.4330  -24.4860   21.4330 C   0  0  0  0  0  1  0  0  0  0  0  0
  -29.9400  -22.0630   19.7370 C   0  0  0  0  0  0  0  0  0  0  0  0
  -31.0600  -21.9790   20.2480 O   0  0  0  0  0  0  0  0  0  0  0  0
  -29.0150  -20.8480   19.6930 C   0  0  0  0  0  2  0  0  0  0  0  0
  -29.1350  -19.9200   20.9290 C   0  0  0  0  0  2  0  0  0  0  0  0
  -30.9310  -16.5620   21.5700 C   0  0  0  0  0  2  0  0  0  0  0  0
  -29.7050  -16.4610   19.4030 C   0  0  0  0  0  2  0  0  0  0  0  0
  -30.2240  -17.9050   21.8760 C   0  0  0  0  0  2  0  0  0  0  0  0
  -28.9700  -17.7580   19.7570 C   0  0  0  0  0  2  0  0  0  0  0  0
  -30.0580  -15.6610   20.6720 C   0  0  0  0  0  3  0  0  0  0  0  0
  -29.8020  -18.6220   20.6360 N   0  0  1  0  0  4  0  0  0  0  0  0
  -30.6510  -18.8370   20.1350 H   0  0  0  0  0  0  0  0  0  0  0  0
  -30.7750  -14.3700   20.2340 C   0  0  0  0  0  0  0  0  0  0  0  0
  -30.3800  -12.2610   19.0510 C   0  0  0  0  0  2  0  0  0  0  0  0
  -29.4100  -12.5660   17.8880 C   0  0  0  0  0  2  0  0  0  0  0  0
  -27.9420  -12.4750   18.3520 C   0  0  0  0  0  2  0  0  0  0  0  0
  -27.6740  -13.2600   19.6630 C   0  0  0  0  0  3  0  0  0  0  0  0
  -28.7570  -12.9380   20.7190 C   0  0  0  0  0  2  0  0  0  0  0  0
  -30.0780  -13.2120   20.1290 N   0  0  0  0  0  0  0  0  0  0  0  0
  -31.9170  -14.5020   19.7820 O   0  0  0  0  0  0  0  0  0  0  0  0
  -25.3040  -13.9130   20.4400 C   0  0  0  0  0  0  0  0  0  0  0  0
  -24.2310  -13.1580   20.8310 C   0  0  0  0  0  0  0  0  0  0  0  0
  -24.6700  -11.7990   20.7810 C   0  0  0  0  0  0  0  0  0  0  0  0
  -26.3270  -13.0150   20.1750 N   0  0  0  0  0  0  0  0  0  0  0  0
  -25.9500  -11.7380   20.4340 N   0  0  0  0  0  0  0  0  0  0  0  0
  -23.9300  -10.5470   20.9840 C   0  0  0  0  0  0  0  0  0  0  0  0
  -24.3710   -9.5670   21.8990 C   0  0  0  0  0  3  0  0  0  0  0  0
  -23.6310   -8.3810   22.0920 C   0  0  0  0  0  3  0  0  0  0  0  0
  -22.4350   -8.1660   21.3670 C   0  0  0  0  0  0  0  0  0  0  0  0
  -22.0140   -9.1340   20.4390 C   0  0  0  0  0  3  0  0  0  0  0  0
  -22.7550  -10.3110   20.2470 C   0  0  0  0  0  3  0  0  0  0  0  0
  -21.6640   -7.0320   21.4670 O   0  0  0  0  0  0  0  0  0  0  0  0
  -21.6310   -6.2830   22.6160 C   0  0  0  0  0  0  0  0  0  0  0  0
  -21.2510   -6.8380   23.8580 C   0  0  0  0  0  3  0  0  0  0  0  0
  -21.1630   -6.0170   24.9990 C   0  0  0  0  0  3  0  0  0  0  0  0
  -21.4450   -4.6410   24.9000 C   0  0  0  0  0  0  0  0  0  0  0  0
  -21.8210   -4.0850   23.6640 C   0  0  0  0  0  3  0  0  0  0  0  0
  -21.9110   -4.9040   22.5240 C   0  0  0  0  0  0  0  0  0  0  0  0
  -22.2500   -4.3590   21.3310 F   0  0  0  0  0  0  0  0  0  0  0  0
  -21.3550   -3.8510   25.9940 F   0  0  0  0  0  0  0  0  0  0  0  0
  -22.8500  -13.6550   21.1420 C   0  0  0  0  0  0  0  0  0  0  0  0
  -22.1340  -12.9670   22.0240 N   0  0  0  0  0  0  0  0  0  0  0  0
  -22.4110  -14.6880   20.6370 O   0  0  0  0  0  0  0  0  0  0  0  0
  -22.5040  -12.1310   22.4540 H   0  0  0  0  0  0  0  0  0  0  0  0
  -21.2060  -13.2760   22.2730 H   0  0  0  0  0  0  0  0  0  0  0  0
  -25.4880  -15.2820   20.2680 N   0  0  0  0  0  0  0  0  0  0  0  0
  -24.7290  -15.9440   20.3930 H   0  0  0  0  0  0  0  0  0  0  0  0
  -26.3260  -15.7070   19.8980 H   0  0  0  0  0  0  0  0  0  0  0  0
  -28.4570  -26.7760   20.0600 O   0  0  0  0  0  0  0  0  0  0  0  0
  -24.6000  -31.8580   23.1870 C   0  0  0  0  0  0  0  0  0  0  0  0
  -27.2470  -27.4380   20.0770 C   0  0  0  0  0  0  0  0  0  0  0  0
  -23.3890  -30.4550   21.5490 C   0  0  0  0  0  3  0  0  0  0  0  0
  -24.8370  -28.9150   20.1250 C   0  0  0  0  0  0  0  0  0  0  0  0
  -25.9140  -30.8150   21.3480 C   0  0  0  0  0  2  0  0  0  0  0  0
  -25.9950  -29.4480   20.7030 C   0  0  0  0  0  0  0  0  0  0  0  0
  -27.2000  -28.7150   20.6780 C   0  0  0  0  0  3  0  0  0  0  0  0
  -26.0580  -26.9000   19.5290 C   0  0  0  0  0  3  0  0  0  0  0  0
  -24.8610  -27.6380   19.5400 C   0  0  0  0  0  3  0  0  0  0  0  0
  -23.5920  -29.7710   20.1710 C   0  0  0  0  0  2  0  0  0  0  0  0
  -24.6520  -31.0580   22.0860 N   0  0  0  0  0  0  0  0  0  0  0  0
  -23.5210  -32.1310   23.7300 O   0  0  0  0  0  0  0  0  0  0  0  0
  -22.7410  -29.4340   22.5120 C   0  0  0  0  0  0  0  0  0  0  0  0
  -21.4150  -29.2600   22.3920 N   0  0  0  0  0  0  0  0  0  0  0  0
  -23.4270  -28.8020   23.3200 O   0  0  0  0  0  0  0  0  0  0  0  0
  -20.9230  -29.8210   21.7120 H   0  0  0  0  0  0  0  0  0  0  0  0
  -18.0370  -28.0900   22.9090 C   0  0  0  0  0  0  0  0  0  0  0  0
  -20.5970  -28.3240   23.1640 C   0  0  0  0  0  3  0  0  0  0  0  0
  -20.6840  -26.8960   22.5800 C   0  0  0  0  0  2  0  0  0  0  0  0
  -19.5710  -26.5870   21.5720 C   0  0  0  0  0  2  0  0  0  0  0  0
  -18.1960  -26.7430   22.2260 C   0  0  0  0  0  2  0  0  0  0  0  0
  -19.1640  -28.8400   23.3350 C   0  0  0  0  0  0  0  0  0  0  0  0
  -18.9620  -30.1040   23.9310 C   0  0  0  0  0  3  0  0  0  0  0  0
  -17.6640  -30.6180   24.1060 C   0  0  0  0  0  3  0  0  0  0  0  0
  -16.5500  -29.8630   23.7000 C   0  0  0  0  0  3  0  0  0  0  0  0
  -16.7370  -28.6030   23.1080 C   0  0  0  0  0  3  0  0  0  0  0  0
  -25.8900  -32.4870   23.8040 C   0  0  0  0  0  3  0  0  0  0  0  0
  -26.4280  -31.6990   25.0610 C   0  0  1  0  0  0  0  0  0  0  0  0
  -25.3500  -31.4380   26.1390 C   0  0  0  0  0  1  0  0  0  0  0  0
  -27.0150  -30.3320   24.6390 C   0  0  0  0  0  1  0  0  0  0  0  0
  -27.5810  -32.4910   25.7210 C   0  0  0  0  0  1  0  0  0  0  0  0
  -25.5790  -33.8770   24.1570 N   0  0  0  0  0  0  0  0  0  0  0  0
  -25.8920  -34.9410   23.4060 C   0  0  0  0  0  0  0  0  0  0  0  0
  -26.5490  -34.8540   22.3630 O   0  0  0  0  0  0  0  0  0  0  0  0
  -24.9970  -34.0180   24.9700 H   0  0  0  0  0  0  0  0  0  0  0  0
  -24.1450  -36.7210   23.0990 C   0  0  0  0  0  1  0  0  0  0  0  0
  -25.4020  -36.3190   23.8880 C   0  0  0  0  0  3  0  0  0  0  0  0
  -27.5420  -37.2090   24.6970 C   0  0  0  0  0  1  0  0  0  0  0  0
  -26.4250  -37.3810   23.7720 N   0  0  0  0  0  0  0  0  0  0  0  0
  -26.0140  -38.2960   23.9380 H   0  0  0  0  0  0  0  0  0  0  0  0
  1  2  2  0
  1  3  1  0
  2  4  1  0
  3  6  2  0
  4  8  1  0
  4  5  2  0
  5  7  1  0
  6  5  1  0
  6 55  1  0
  8  9  2  0
 10  8  1  0
 10 11  1  0
 12 14  1  0
 13 15  1  0
 13 16  1  0
 15 17  1  0
 16 19  1  0
 16 12  1  0
 17 11  1  0
 17 14  1  0
 17 18  1  6
 20 25  1  0
 21 22  1  0
 21 20  1  0
 23 22  1  0
 23 30  1  0
 23 24  1  0
 25 19  1  0
 25 24  1  0
 26 19  2  0
 27 28  2  0
 28 47  1  0
 29 28  1  0
 29 32  1  0
 30 31  1  0
 30 27  1  0
 31 29  2  0
 32 33  1  0
 33 34  2  0
 35 38  1  0
 35 34  1  0
 36 35  2  0
 37 36  1  0
 37 32  2  0
 38 39  1  0
 39 40  1  0
 40 41  2  0
 42 41  1  0
 42 46  1  0
 43 42  2  0
 44 39  2  0
 44 43  1  0
 45 44  1  0
 47 48  1  0
 48 51  1  0
 48 50  1  0
 49 47  2  0
 52 53  1  0
 52 27  1  0
 54 52  1  0
 55 57  1  0
 56 67  2  0
 57 62  1  0
 58 66  1  0
 58 68  1  0
 59 65  1  0
 59 61  1  0
 60 66  1  0
 61 60  1  0
 62 61  2  0
 63 64  1  0
 63 57  2  0
 64 59  2  0
 65 58  1  0
 66 56  1  0
 68 70  2  0
 69 68  1  0
 71 69  1  0
 72 81  2  0
 72 77  1  0
 73 69  1  0
 73 77  1  0
 74 73  1  0
 75 76  1  0
 75 74  1  0
 76 72  1  0
 77 78  2  0
 78 79  1  0
 80 79  2  0
 81 80  1  0
 82 56  1  0
 82 87  1  0
 82 83  1  0
 83 86  1  1
 83 84  1  0
 85 83  1  0
 87 90  1  0
 88 92  1  0
 88 87  1  0
 89 88  2  0
 92 91  1  0
 94 92  1  0
 94 95  1  0
 94 93  1  0
M  ISO  4   6 101  16 100  19 100  55 101
M  END
>  <TORSDO>  (24) 
F 20

>  <SCORE>  (24) 
-13.964

>  <name>  (24) 
23

>  <ligand_id>  (24) 
23

>  <original_smiles>  (24) 
[H]c1c([H])c(Oc2c([H])c([H])c3c(c2[H])C([H])([H])N(C(=O)C([H])(N([H])C(=O)C([H])(N([H])C([H])([H])[H])C([H])([H])[H])C(C([H])([H])[H])(C([H])([H])[H])C([H])([H])[H])C([H])(C(=O)N([H])C2([H])c4c([H])c([H])c([H])c([H])c4C([H])([H])C([H])([H])C2([H])[H])C3([H])[H])c(C([H])([H])[H])c(C(=O)C([H])([H])C([H])([H])[N+]2([H])C([H])([H])C([H])([H])C([H])(C(=O)N3C([H])([H])C([H])([H])C([H])([H])C([H])(n4nc(-c5c([H])c([H])c(Oc6c([H])c([H])c(F)c([H])c6F)c([H])c5[H])c(C(=O)N([H])[H])c4N([H])[H])C3([H])[H])C([H])([H])C2([H])[H])c1[H]

>  <smiles>  (24) 
[H]c1c([H])c(Oc2c([H])c([H])c3c(c2[H])C([H])([H])N(C(=O)C([H])(N([H])C(=O)C([H])(N([H])C([H])([H])[H])C([H])([H])[H])C(C([H])([H])[H])(C([H])([H])[H])C([H])([H])[H])C([H])(C(=O)N([H])C2([H])c4c([H])c([H])c([H])c([H])c4C([H])([H])C([H])([H])C2([H])[H])C3([H])[H])c(C([H])([H])[H])c(C(=O)C([H])([H])C([H])([H])[N+]2([H])C([H])([H])C([H])([H])C([H])(C(=O)N3C([H])([H])C([H])([H])C([H])([H])C([H])(n4nc(-c5c([H])c([H])c(Oc6c([H])c([H])c(F)c([H])c6F)c([H])c5[H])c(C(=O)N([H])[H])c4N([H])[H])C3([H])[H])C([H])([H])C2([H])[H])c1[H]

$$$$
24:0:0
     RDKit          3D

 95103  0  0  1  0  0  0  0  0999 V2000
  -29.3310  -25.4040   18.0220 C   0  0  0  0  0  3  0  0  0  0  0  0
  -28.9750  -25.1610   16.6850 C   0  0  0  0  0  3  0  0  0  0  0  0
  -28.4480  -23.2260   18.6450 C   0  0  0  0  0  3  0  0  0  0  0  0
  -29.0600  -24.4420   19.0110 C   0  0  0  0  0  0  0  0  0  0  0  0
  -28.3790  -23.9400   16.3090 C   0  0  0  0  0  0  0  0  0  0  0  0
  -28.1330  -22.9450   17.2940 C   0  0  0  0  0  0  0  0  0  0  0  0
  -28.0120  -23.7410   14.8450 C   0  0  0  0  0  1  0  0  0  0  0  0
  -29.4430  -24.7100   20.4600 C   0  0  0  0  0  2  0  0  0  0  0  0
  -28.5150  -25.7120   21.1660 C   0  0  0  0  0  2  0  0  0  0  0  0
  -28.6040  -27.0090   20.5640 O   0  0  0  0  0  0  0  0  0  0  0  0
  -24.5570  -32.0700   23.4630 C   0  0  0  0  0  0  0  0  0  0  0  0
  -27.4210  -27.6990   20.5130 C   0  0  0  0  0  0  0  0  0  0  0  0
  -23.4450  -30.6320   21.7820 C   0  0  0  0  0  3  0  0  0  0  0  0
  -24.9890  -29.1260   20.4220 C   0  0  0  0  0  0  0  0  0  0  0  0
  -25.9650  -31.0600   21.6740 C   0  0  0  0  0  2  0  0  0  0  0  0
  -26.1080  -29.6910   21.0460 C   0  0  0  0  0  0  0  0  0  0  0  0
  -27.3320  -28.9860   21.0850 C   0  0  0  0  0  3  0  0  0  0  0  0
  -26.2890  -27.1430   19.8780 C   0  0  0  0  0  3  0  0  0  0  0  0
  -25.0730  -27.8520   19.8330 C   0  0  0  0  0  3  0  0  0  0  0  0
  -23.7220  -29.9510   20.4160 C   0  0  0  0  0  2  0  0  0  0  0  0
  -24.6710  -31.2690   22.3670 N   0  0  0  0  0  0  0  0  0  0  0  0
  -23.4490  -32.3200   23.9590 O   0  0  0  0  0  0  0  0  0  0  0  0
  -22.7830  -29.6000   22.7230 C   0  0  0  0  0  0  0  0  0  0  0  0
  -21.4740  -29.3700   22.5310 N   0  0  0  0  0  0  0  0  0  0  0  0
  -23.4480  -29.0070   23.5790 O   0  0  0  0  0  0  0  0  0  0  0  0
  -21.0010  -29.9030   21.8150 H   0  0  0  0  0  0  0  0  0  0  0  0
  -18.1160  -28.0920   22.8930 C   0  0  0  0  0  0  0  0  0  0  0  0
  -20.6530  -28.4160   23.2730 C   0  0  0  0  0  3  0  0  0  0  0  0
  -20.8160  -26.9840   22.7090 C   0  0  0  0  0  2  0  0  0  0  0  0
  -19.7670  -26.6300   21.6510 C   0  0  0  0  0  2  0  0  0  0  0  0
  -18.3550  -26.7440   22.2350 C   0  0  0  0  0  2  0  0  0  0  0  0
  -19.1950  -28.8840   23.3670 C   0  0  0  0  0  0  0  0  0  0  0  0
  -18.9200  -30.1450   23.9380 C   0  0  0  0  0  3  0  0  0  0  0  0
  -17.5980  -30.6150   24.0430 C   0  0  0  0  0  3  0  0  0  0  0  0
  -16.5320  -29.8200   23.5880 C   0  0  0  0  0  3  0  0  0  0  0  0
  -16.7920  -28.5610   23.0170 C   0  0  0  0  0  3  0  0  0  0  0  0
  -25.8040  -32.7310   24.1270 C   0  0  0  0  0  3  0  0  0  0  0  0
  -26.2380  -32.0320   25.4740 C   0  0  1  0  0  0  0  0  0  0  0  0
  -25.0740  -31.8400   26.4750 C   0  0  0  0  0  1  0  0  0  0  0  0
  -26.8550  -30.6420   25.1930 C   0  0  0  0  0  1  0  0  0  0  0  0
  -27.3380  -32.8680   26.1710 C   0  0  0  0  0  1  0  0  0  0  0  0
  -25.4870  -34.1480   24.3540 N   0  0  0  0  0  0  0  0  0  0  0  0
  -25.8840  -35.1520   23.5620 C   0  0  0  0  0  0  0  0  0  0  0  0
  -26.6280  -34.9840   22.5910 O   0  0  0  0  0  0  0  0  0  0  0  0
  -24.8350  -34.3540   25.0980 H   0  0  0  0  0  0  0  0  0  0  0  0
  -24.2040  -36.9270   22.9720 C   0  0  0  0  0  1  0  0  0  0  0  0
  -25.3740  -36.5660   23.8980 C   0  0  0  0  0  3  0  0  0  0  0  0
  -27.4420  -37.4910   24.8440 C   0  0  0  0  0  1  0  0  0  0  0  0
  -26.4230  -37.6050   23.8050 N   0  0  0  0  0  0  0  0  0  0  0  0
  -26.0150  -38.5340   23.8620 H   0  0  0  0  0  0  0  0  0  0  0  0
  -27.5360  -21.5850   16.9130 C   0  0  0  0  0  2  0  0  0  0  0  0
  -28.1030  -20.3680   17.6780 C   0  0  0  0  0  2  0  0  0  0  0  0
  -29.5760  -20.2790   17.5670 N   0  0  0  0  0  4  0  0  0  0  0  0
  -30.0040  -20.9310   18.2060 H   0  0  0  0  0  0  0  0  0  0  0  0
  -29.8320  -20.5770   16.6400 H   0  0  0  0  0  0  0  0  0  0  0  0
  -30.1580  -18.9320   17.7580 C   0  0  0  0  0  2  0  0  0  0  0  0
  -29.9430  -18.3230   19.1630 C   0  0  0  0  0  2  0  0  0  0  0  0
  -30.7310  -17.0040   19.2940 C   0  0  0  0  0  2  0  0  0  0  0  0
  -30.5350  -16.1810   20.5930 C   0  0  0  0  0  2  0  0  0  0  0  0
  -31.2530  -14.8280   20.4210 C   0  0  0  0  0  0  0  0  0  0  0  0
  -30.8910  -12.6980   19.2780 C   0  0  0  0  0  2  0  0  0  0  0  0
  -29.9840  -12.9840   18.0640 C   0  0  0  0  0  2  0  0  0  0  0  0
  -28.4970  -12.9000   18.4610 C   0  0  0  0  0  2  0  0  0  0  0  0
  -28.1640  -13.7190   19.7350 C   0  0  0  0  0  3  0  0  0  0  0  0
  -29.1950  -13.4470   20.8560 C   0  0  0  0  0  2  0  0  0  0  0  0
  -30.5430  -13.6760   20.3190 N   0  0  0  0  0  0  0  0  0  0  0  0
  -32.4460  -14.8960   20.1170 O   0  0  0  0  0  0  0  0  0  0  0  0
  -25.7640  -14.3800   20.3940 C   0  0  0  0  0  0  0  0  0  0  0  0
  -24.6680  -13.6310   20.7330 C   0  0  0  0  0  0  0  0  0  0  0  0
  -25.1000  -12.2700   20.7120 C   0  0  0  0  0  0  0  0  0  0  0  0
  -26.7940  -13.4770   20.1860 N   0  0  0  0  0  0  0  0  0  0  0  0
  -26.3960  -12.2030   20.4350 N   0  0  0  0  0  0  0  0  0  0  0  0
  -24.3380  -11.0250   20.8840 C   0  0  0  0  0  0  0  0  0  0  0  0
  -24.7110  -10.0600   21.8450 C   0  0  0  0  0  3  0  0  0  0  0  0
  -23.9560   -8.8780   22.0040 C   0  0  0  0  0  3  0  0  0  0  0  0
  -22.8140   -8.6530   21.1980 C   0  0  0  0  0  0  0  0  0  0  0  0
  -22.4640   -9.6050   20.2260 C   0  0  0  0  0  3  0  0  0  0  0  0
  -23.2190  -10.7790   20.0660 C   0  0  0  0  0  3  0  0  0  0  0  0
  -22.0330   -7.5250   21.2660 O   0  0  0  0  0  0  0  0  0  0  0  0
  -21.9010   -6.8090   22.4290 C   0  0  0  0  0  0  0  0  0  0  0  0
  -21.3740   -7.3870   23.6050 C   0  0  0  0  0  3  0  0  0  0  0  0
  -21.1910   -6.5970   24.7560 C   0  0  0  0  0  3  0  0  0  0  0  0
  -21.5250   -5.2310   24.7330 C   0  0  0  0  0  0  0  0  0  0  0  0
  -22.0460   -4.6500   23.5630 C   0  0  0  0  0  3  0  0  0  0  0  0
  -22.2310   -5.4390   22.4130 C   0  0  0  0  0  0  0  0  0  0  0  0
  -22.7150   -4.8710   21.2820 F   0  0  0  0  0  0  0  0  0  0  0  0
  -21.3420   -4.4700   25.8390 F   0  0  0  0  0  0  0  0  0  0  0  0
  -23.2760  -14.1410   20.9720 C   0  0  0  0  0  0  0  0  0  0  0  0
  -22.5140  -13.4580   21.8200 N   0  0  0  0  0  0  0  0  0  0  0  0
  -22.8710  -15.1740   20.4430 O   0  0  0  0  0  0  0  0  0  0  0  0
  -22.8600  -12.6240   22.2720 H   0  0  0  0  0  0  0  0  0  0  0  0
  -21.5740  -13.7720   22.0220 H   0  0  0  0  0  0  0  0  0  0  0  0
  -25.9650  -15.7450   20.2220 N   0  0  0  0  0  0  0  0  0  0  0  0
  -25.2110  -16.4180   20.3010 H   0  0  0  0  0  0  0  0  0  0  0  0
  -26.8400  -16.1610   19.9270 H   0  0  0  0  0  0  0  0  0  0  0  0
  1  4  1  0
  2  1  2  0
  3  4  2  0
  4  8  1  0
  5  2  1  0
  5  6  2  0
  6  3  1  0
  7  5  1  0
  8  9  1  0
 10  9  1  0
 11 22  2  0
 12 10  1  0
 12 17  1  0
 13 21  1  0
 13 23  1  0
 14 16  1  0
 15 21  1  0
 16 17  2  0
 16 15  1  0
 18 12  2  0
 19 18  1  0
 19 14  2  0
 20 14  1  0
 20 13  1  0
 21 11  1  0
 23 25  2  0
 24 23  1  0
 26 24  1  0
 27 36  2  0
 27 32  1  0
 28 24  1  0
 28 32  1  0
 29 28  1  0
 30 31  1  0
 30 29  1  0
 31 27  1  0
 32 33  2  0
 33 34  1  0
 35 34  2  0
 36 35  1  0
 37 11  1  0
 37 42  1  0
 37 38  1  0
 38 41  1  1
 38 39  1  0
 40 38  1  0
 42 45  1  0
 43 47  1  0
 43 42  1  0
 44 43  2  0
 47 46  1  0
 49 50  1  0
 49 47  1  0
 49 48  1  0
 51  6  1  0
 51 52  1  0
 53 52  1  0
 53 56  1  0
 53 54  1  0
 55 53  1  0
 56 57  1  0
 57 58  1  0
 58 59  1  0
 60 59  1  0
 61 66  1  0
 62 63  1  0
 62 61  1  0
 64 63  1  0
 64 71  1  0
 64 65  1  0
 66 60  1  0
 66 65  1  0
 67 60  2  0
 68 69  2  0
 69 88  1  0
 70 69  1  0
 70 73  1  0
 71 68  1  0
 71 72  1  0
 72 70  2  0
 73 74  1  0
 74 75  2  0
 76 79  1  0
 76 75  1  0
 77 76  2  0
 78 77  1  0
 78 73  2  0
 79 80  1  0
 80 81  1  0
 81 82  2  0
 83 82  1  0
 83 87  1  0
 84 83  2  0
 85 80  2  0
 85 84  1  0
 86 85  1  0
 88 89  1  0
 89 92  1  0
 89 91  1  0
 90 88  2  0
 93 94  1  0
 93 68  1  0
 95 93  1  0
M  ISO  4   9 101  10 101  59 100  60 100
M  END
>  <TORSDO>  (25) 
F 25

>  <SCORE>  (25) 
-8.930

>  <name>  (25) 
24

>  <ligand_id>  (25) 
24

>  <original_smiles>  (25) 
[H]c1c([H])c([H])c2c(c1[H])C([H])([H])C([H])([H])C([H])([H])C2([H])N([H])C(=O)C1([H])N(C(=O)C([H])(N([H])C(=O)C([H])(N([H])C([H])([H])[H])C([H])([H])[H])C(C([H])([H])[H])(C([H])([H])[H])C([H])([H])[H])C([H])([H])c2c([H])c(OC([H])([H])C([H])([H])c3c([H])c([H])c(C([H])([H])[H])c(C([H])([H])C([H])([H])[N+]([H])([H])C([H])([H])C([H])([H])C([H])([H])C([H])([H])C(=O)N4C([H])([H])C([H])([H])C([H])([H])C([H])(n5nc(-c6c([H])c([H])c(Oc7c([H])c([H])c(F)c([H])c7F)c([H])c6[H])c(C(=O)N([H])[H])c5N([H])[H])C4([H])[H])c3[H])c([H])c([H])c2C1([H])[H]

>  <smiles>  (25) 
[H]c1c([H])c([H])c2c(c1[H])C([H])([H])C([H])([H])C([H])([H])C2([H])N([H])C(=O)C1([H])N(C(=O)C([H])(N([H])C(=O)C([H])(N([H])C([H])([H])[H])C([H])([H])[H])C(C([H])([H])[H])(C([H])([H])[H])C([H])([H])[H])C([H])([H])c2c([H])c(OC([H])([H])C([H])([H])c3c([H])c([H])c(C([H])([H])[H])c(C([H])([H])C([H])([H])[N+]([H])([H])C([H])([H])C([H])([H])C([H])([H])C([H])([H])C(=O)N4C([H])([H])C([H])([H])C([H])([H])C([H])(n5nc(-c6c([H])c([H])c(Oc7c([H])c([H])c(F)c([H])c7F)c([H])c6[H])c(C(=O)N([H])[H])c5N([H])[H])C4([H])[H])c3[H])c([H])c([H])c2C1([H])[H]

$$$$
25:0:0
     RDKit          3D

 95103  0  0  1  0  0  0  0  0999 V2000
  -29.2340  -22.4850   21.7670 C   0  0  0  0  0  0  0  0  0  0  0  0
  -31.0960  -24.0540   22.4460 C   0  0  0  0  0  2  0  0  0  0  0  0
  -31.5600  -23.0690   23.5430 C   0  0  0  0  0  2  0  0  0  0  0  0
  -30.2440  -21.3930   22.2440 C   0  0  0  0  0  3  0  0  0  0  0  0
  -29.5860  -23.9700   22.0870 C   0  0  2  0  0  0  0  0  0  0  0  0
  -28.7500  -24.4490   23.3040 C   0  0  0  0  0  1  0  0  0  0  0  0
  -30.7610  -21.8200   23.5650 N   0  0  0  0  0  4  0  0  0  0  0  0
  -28.1820  -22.2210   21.1800 O   0  0  0  0  0  0  0  0  0  0  0  0
  -29.9770  -21.9450   24.1860 H   0  0  0  0  0  0  0  0  0  0  0  0
  -31.3380  -21.0940   23.9570 H   0  0  0  0  0  0  0  0  0  0  0  0
  -29.6410  -19.9560   22.3320 C   0  0  0  0  0  2  0  0  0  0  0  0
  -30.0450  -19.0230   21.1690 C   0  0  0  0  0  2  0  0  0  0  0  0
  -29.7270  -17.5350   21.4360 C   0  0  0  0  0  2  0  0  0  0  0  0
  -30.2590  -16.6240   20.3150 C   0  0  0  0  0  2  0  0  0  0  0  0
  -30.6360  -14.2050   19.9200 C   0  0  0  0  0  0  0  0  0  0  0  0
  -30.2440  -12.1090   18.7000 C   0  0  0  0  0  2  0  0  0  0  0  0
  -29.2060  -12.3760   17.5900 C   0  0  0  0  0  2  0  0  0  0  0  0
  -27.7720  -12.2140   18.1330 C   0  0  0  0  0  2  0  0  0  0  0  0
  -27.5410  -12.9830   19.4620 C   0  0  0  0  0  3  0  0  0  0  0  0
  -28.6830  -12.7080   20.4670 C   0  0  0  0  0  2  0  0  0  0  0  0
  -29.9590  -13.0340   19.8060 N   0  0  0  0  0  0  0  0  0  0  0  0
  -31.7090  -14.4200   19.3500 O   0  0  0  0  0  0  0  0  0  0  0  0
  -29.9710  -15.2020   20.5290 N   0  0  0  0  0  0  0  0  0  0  0  0
  -29.0930  -14.9590   20.9650 H   0  0  0  0  0  0  0  0  0  0  0  0
  -25.1760  -13.5290   20.3220 C   0  0  0  0  0  0  0  0  0  0  0  0
  -24.1600  -12.7290   20.7740 C   0  0  0  0  0  0  0  0  0  0  0  0
  -24.6600  -11.3920   20.7270 C   0  0  0  0  0  0  0  0  0  0  0  0
  -26.2310  -12.6760   20.0330 N   0  0  0  0  0  0  0  0  0  0  0  0
  -25.9270  -11.3880   20.3320 N   0  0  0  0  0  0  0  0  0  0  0  0
  -23.9890  -10.1110   20.9810 C   0  0  0  0  0  0  0  0  0  0  0  0
  -24.4570   -9.2160   21.9680 C   0  0  0  0  0  3  0  0  0  0  0  0
  -23.7860   -7.9980   22.2080 C   0  0  0  0  0  3  0  0  0  0  0  0
  -22.6310   -7.6660   21.4600 C   0  0  0  0  0  0  0  0  0  0  0  0
  -22.1820   -8.5500   20.4630 C   0  0  0  0  0  3  0  0  0  0  0  0
  -22.8550   -9.7600   20.2220 C   0  0  0  0  0  3  0  0  0  0  0  0
  -21.9290   -6.4940   21.6050 O   0  0  0  0  0  0  0  0  0  0  0  0
  -21.8390   -5.8530   22.8160 C   0  0  0  0  0  0  0  0  0  0  0  0
  -21.2660   -6.4750   23.9460 C   0  0  0  0  0  3  0  0  0  0  0  0
  -21.1300   -5.7580   25.1510 C   0  0  0  0  0  3  0  0  0  0  0  0
  -21.5560   -4.4180   25.2250 C   0  0  0  0  0  0  0  0  0  0  0  0
  -22.1210   -3.7950   24.0980 C   0  0  0  0  0  3  0  0  0  0  0  0
  -22.2600   -4.5110   22.8970 C   0  0  0  0  0  0  0  0  0  0  0  0
  -22.7860   -3.9000   21.8070 F   0  0  0  0  0  0  0  0  0  0  0  0
  -21.4180   -3.7250   26.3790 F   0  0  0  0  0  0  0  0  0  0  0  0
  -22.7700  -13.1670   21.1360 C   0  0  0  0  0  0  0  0  0  0  0  0
  -22.1270  -12.4590   22.0580 N   0  0  0  0  0  0  0  0  0  0  0  0
  -22.2650  -14.1710   20.6380 O   0  0  0  0  0  0  0  0  0  0  0  0
  -22.5510  -11.6480   22.4830 H   0  0  0  0  0  0  0  0  0  0  0  0
  -21.1970  -12.7320   22.3440 H   0  0  0  0  0  0  0  0  0  0  0  0
  -25.2860  -14.9010   20.1170 N   0  0  0  0  0  0  0  0  0  0  0  0
  -24.5080  -15.5330   20.2670 H   0  0  0  0  0  0  0  0  0  0  0  0
  -26.0950  -15.3580   19.7160 H   0  0  0  0  0  0  0  0  0  0  0  0
  -29.3420  -24.9290   20.8770 C   0  0  0  0  0  2  0  0  0  0  0  0
  -27.8900  -25.2800   20.4790 C   0  0  0  0  0  2  0  0  0  0  0  0
  -27.9270  -26.5210   19.7780 O   0  0  0  0  0  0  0  0  0  0  0  0
  -24.3730  -31.6640   23.1610 C   0  0  0  0  0  0  0  0  0  0  0  0
  -26.7750  -27.2630   19.8600 C   0  0  0  0  0  0  0  0  0  0  0  0
  -23.0700  -30.3560   21.5110 C   0  0  0  0  0  3  0  0  0  0  0  0
  -24.4270  -28.8190   19.9970 C   0  0  0  0  0  0  0  0  0  0  0  0
  -25.5950  -30.6480   21.2430 C   0  0  0  0  0  2  0  0  0  0  0  0
  -25.6180  -29.2980   20.5600 C   0  0  0  0  0  0  0  0  0  0  0  0
  -26.7970  -28.5260   20.4830 C   0  0  0  0  0  3  0  0  0  0  0  0
  -25.5710  -26.7840   19.3030 C   0  0  0  0  0  3  0  0  0  0  0  0
  -24.3970  -27.5600   19.3680 C   0  0  0  0  0  3  0  0  0  0  0  0
  -23.2150  -29.7140   20.1060 C   0  0  0  0  0  2  0  0  0  0  0  0
  -24.3660  -30.9000   22.0310 N   0  0  0  0  0  0  0  0  0  0  0  0
  -23.3180  -31.9540   23.7430 O   0  0  0  0  0  0  0  0  0  0  0  0
  -22.4130  -29.3280   22.4570 C   0  0  0  0  0  0  0  0  0  0  0  0
  -21.0860  -29.1670   22.3360 N   0  0  0  0  0  0  0  0  0  0  0  0
  -23.0930  -28.6780   23.2560 O   0  0  0  0  0  0  0  0  0  0  0  0
  -20.5990  -29.7470   21.6660 H   0  0  0  0  0  0  0  0  0  0  0  0
  -17.7000  -27.9990   22.8070 C   0  0  0  0  0  0  0  0  0  0  0  0
  -20.2590  -28.2270   23.0910 C   0  0  0  0  0  3  0  0  0  0  0  0
  -20.3500  -26.8030   22.4960 C   0  0  0  0  0  2  0  0  0  0  0  0
  -19.2470  -26.5050   21.4750 C   0  0  0  0  0  2  0  0  0  0  0  0
  -17.8660  -26.6540   22.1180 C   0  0  0  0  0  2  0  0  0  0  0  0
  -18.8250  -28.7440   23.2500 C   0  0  0  0  0  0  0  0  0  0  0  0
  -18.6180  -30.0020   23.8560 C   0  0  0  0  0  3  0  0  0  0  0  0
  -17.3190  -30.5150   24.0250 C   0  0  0  0  0  3  0  0  0  0  0  0
  -16.2070  -29.7660   23.6000 C   0  0  0  0  0  3  0  0  0  0  0  0
  -16.3990  -28.5100   22.9960 C   0  0  0  0  0  3  0  0  0  0  0  0
  -25.6990  -32.2260   23.7610 C   0  0  0  0  0  3  0  0  0  0  0  0
  -25.4640  -33.6320   24.1150 N   0  0  0  0  0  0  0  0  0  0  0  0
  -25.8490  -34.6760   23.3690 C   0  0  0  0  0  0  0  0  0  0  0  0
  -26.5110  -34.5540   22.3330 O   0  0  0  0  0  0  0  0  0  0  0  0
  -24.8810  -33.8080   24.9200 H   0  0  0  0  0  0  0  0  0  0  0  0
  -24.2180  -36.5600   23.0360 C   0  0  0  0  0  1  0  0  0  0  0  0
  -25.4330  -36.0810   23.8470 C   0  0  0  0  0  3  0  0  0  0  0  0
  -27.6020  -36.8460   24.7040 C   0  0  0  0  0  1  0  0  0  0  0  0
  -26.5190  -37.0790   23.7530 N   0  0  0  0  0  0  0  0  0  0  0  0
  -26.1600  -38.0170   23.9070 H   0  0  0  0  0  0  0  0  0  0  0  0
  -26.2100  -31.4140   25.0140 C   0  0  1  0  0  0  0  0  0  0  0  0
  -25.1310  -31.2060   26.1010 C   0  0  0  0  0  1  0  0  0  0  0  0
  -26.7270  -30.0220   24.5840 C   0  0  0  0  0  1  0  0  0  0  0  0
  -27.4050  -32.1500   25.6650 C   0  0  0  0  0  1  0  0  0  0  0  0
  1  5  1  0
  1  4  1  0
  2  3  1  0
  3  7  1  0
  4 11  1  0
  4  7  1  0
  5  2  1  0
  5  6  1  1
  7 10  1  0
  7  9  1  0
  8  1  2  0
 12 13  1  0
 12 11  1  0
 14 23  1  0
 14 13  1  0
 15 23  1  0
 16 21  1  0
 17 18  1  0
 17 16  1  0
 19 18  1  0
 19 28  1  0
 19 20  1  0
 21 15  1  0
 21 20  1  0
 22 15  2  0
 23 24  1  0
 25 26  2  0
 26 45  1  0
 27 26  1  0
 27 30  1  0
 28 25  1  0
 28 29  1  0
 29 27  2  0
 30 31  1  0
 31 32  2  0
 33 36  1  0
 33 32  1  0
 34 33  2  0
 35 34  1  0
 35 30  2  0
 36 37  1  0
 37 42  2  0
 37 38  1  0
 38 39  2  0
 39 40  1  0
 40 44  1  0
 41 40  2  0
 42 41  1  0
 43 42  1  0
 45 46  1  0
 46 49  1  0
 46 48  1  0
 47 45  2  0
 50 51  1  0
 50 25  1  0
 52 50  1  0
 53  5  1  0
 54 53  1  0
 55 57  1  0
 55 54  1  0
 56 67  2  0
 57 62  1  0
 58 66  1  0
 58 68  1  0
 59 65  1  0
 59 61  1  0
 60 66  1  0
 61 60  1  0
 62 61  2  0
 63 64  1  0
 63 57  2  0
 64 59  2  0
 65 58  1  0
 66 56  1  0
 68 70  2  0
 69 68  1  0
 71 69  1  0
 72 81  2  0
 72 77  1  0
 73 69  1  0
 73 77  1  0
 74 73  1  0
 75 76  1  0
 75 74  1  0
 76 72  1  0
 77 78  2  0
 78 79  1  0
 80 79  2  0
 81 80  1  0
 82 56  1  0
 82 83  1  0
 82 92  1  0
 83 86  1  0
 84 88  1  0
 84 83  1  0
 85 84  2  0
 88 87  1  0
 90 88  1  0
 90 91  1  0
 90 89  1  0
 92 95  1  1
 92 93  1  0
 94 92  1  0
M  ISO  4  15 100  23 100  54 101  55 101
M  END
>  <TORSDO>  (26) 
F 22

>  <SCORE>  (26) 
-7.829

>  <name>  (26) 
25

>  <ligand_id>  (26) 
25

>  <original_smiles>  (26) 
[H]c1c([H])c([H])c2c(c1[H])C([H])([H])C([H])([H])C([H])([H])C2([H])N([H])C(=O)C1([H])N(C(=O)C([H])(N([H])C(=O)C([H])(N([H])C([H])([H])[H])C([H])([H])[H])C(C([H])([H])[H])(C([H])([H])[H])C([H])([H])[H])C([H])([H])c2c([H])c(OC([H])([H])C([H])([H])C3(C([H])([H])[H])C(=O)C([H])(C([H])([H])C([H])([H])C([H])([H])C([H])([H])N([H])C(=O)N4C([H])([H])C([H])([H])C([H])([H])C([H])(n5nc(-c6c([H])c([H])c(Oc7c([H])c([H])c(F)c([H])c7F)c([H])c6[H])c(C(=O)N([H])[H])c5N([H])[H])C4([H])[H])[N+]([H])([H])C([H])([H])C3([H])[H])c([H])c([H])c2C1([H])[H]

>  <smiles>  (26) 
[H]c1c([H])c([H])c2c(c1[H])C([H])([H])C([H])([H])C([H])([H])C2([H])N([H])C(=O)C1([H])N(C(=O)C([H])(N([H])C(=O)C([H])(N([H])C([H])([H])[H])C([H])([H])[H])C(C([H])([H])[H])(C([H])([H])[H])C([H])([H])[H])C([H])([H])c2c([H])c(OC([H])([H])C([H])([H])C3(C([H])([H])[H])C(=O)C([H])(C([H])([H])C([H])([H])C([H])([H])C([H])([H])N([H])C(=O)N4C([H])([H])C([H])([H])C([H])([H])C([H])(n5nc(-c6c([H])c([H])c(Oc7c([H])c([H])c(F)c([H])c7F)c([H])c6[H])c(C(=O)N([H])[H])c5N([H])[H])C4([H])[H])[N+]([H])([H])C([H])([H])C3([H])[H])c([H])c([H])c2C1([H])[H]

$$$$
26:0:0
     RDKit          3D

 89 97  0  0  1  0  0  0  0  0999 V2000
  -29.6230  -20.9730   20.9150 C   0  0  0  0  0  3  0  0  0  0  0  0
  -30.5250  -18.7330   21.5420 C   0  0  0  0  0  0  0  0  0  0  0  0
  -29.1640  -18.7160   19.6410 C   0  0  0  0  0  0  0  0  0  0  0  0
  -30.9320  -17.2260   21.3620 C   0  0  0  0  0  2  0  0  0  0  0  0
  -29.3370  -17.1420   19.4710 C   0  0  0  0  0  2  0  0  0  0  0  0
  -29.9420  -16.2620   20.6380 C   0  0  0  0  0  3  0  0  0  0  0  0
  -29.7420  -19.4350   20.6530 N   0  0  0  0  0  0  0  0  0  0  0  0
  -31.0020  -19.2910   22.5370 O   0  0  0  0  0  0  0  0  0  0  0  0
  -28.4730  -19.2900   18.7950 O   0  0  0  0  0  0  0  0  0  0  0  0
  -30.6390  -14.8670   20.1790 C   0  0  0  0  0  0  0  0  0  0  0  0
  -30.3940  -12.6150   19.1090 C   0  0  0  0  0  2  0  0  0  0  0  0
  -29.4070  -12.7300   17.9230 C   0  0  0  0  0  2  0  0  0  0  0  0
  -27.9580  -12.5290   18.4060 C   0  0  0  0  0  2  0  0  0  0  0  0
  -27.6350  -13.3830   19.6620 C   0  0  0  0  0  3  0  0  0  0  0  0
  -28.7360  -13.2530   20.7350 C   0  0  0  0  0  2  0  0  0  0  0  0
  -30.0100  -13.6370   20.1130 N   0  0  0  0  0  0  0  0  0  0  0  0
  -31.7970  -14.9380   19.7510 O   0  0  0  0  0  0  0  0  0  0  0  0
  -25.2740  -13.9520   20.4890 C   0  0  0  0  0  0  0  0  0  0  0  0
  -24.2230  -13.1680   20.8840 C   0  0  0  0  0  0  0  0  0  0  0  0
  -24.6910  -11.8200   20.8140 C   0  0  0  0  0  0  0  0  0  0  0  0
  -26.3100  -13.0790   20.1970 N   0  0  0  0  0  0  0  0  0  0  0  0
  -25.9680  -11.7910   20.4550 N   0  0  0  0  0  0  0  0  0  0  0  0
  -23.9750  -10.5500   21.0100 C   0  0  0  0  0  0  0  0  0  0  0  0
  -24.4310   -9.5790   21.9290 C   0  0  0  0  0  3  0  0  0  0  0  0
  -23.7140   -8.3790   22.1160 C   0  0  0  0  0  3  0  0  0  0  0  0
  -22.5260   -8.1400   21.3830 C   0  0  0  0  0  0  0  0  0  0  0  0
  -22.0900   -9.1000   20.4520 C   0  0  0  0  0  3  0  0  0  0  0  0
  -22.8090  -10.2930   20.2640 C   0  0  0  0  0  3  0  0  0  0  0  0
  -21.7810   -6.9910   21.4780 O   0  0  0  0  0  0  0  0  0  0  0  0
  -21.7360   -6.2560   22.6360 C   0  0  0  0  0  0  0  0  0  0  0  0
  -21.2820   -6.8080   23.8530 C   0  0  0  0  0  3  0  0  0  0  0  0
  -21.1860   -5.9970   25.0020 C   0  0  0  0  0  3  0  0  0  0  0  0
  -21.5390   -4.6360   24.9340 C   0  0  0  0  0  0  0  0  0  0  0  0
  -21.9860   -4.0830   23.7210 C   0  0  0  0  0  3  0  0  0  0  0  0
  -22.0830   -4.8920   22.5750 C   0  0  0  0  0  0  0  0  0  0  0  0
  -22.4950   -4.3500   21.4030 F   0  0  0  0  0  0  0  0  0  0  0  0
  -21.4400   -3.8530   26.0340 F   0  0  0  0  0  0  0  0  0  0  0  0
  -22.8370  -13.6390   21.2130 C   0  0  0  0  0  0  0  0  0  0  0  0
  -22.1380  -12.9290   22.0920 N   0  0  0  0  0  0  0  0  0  0  0  0
  -22.3790  -14.6720   20.7260 O   0  0  0  0  0  0  0  0  0  0  0  0
  -22.5230  -12.0980   22.5130 H   0  0  0  0  0  0  0  0  0  0  0  0
  -21.2090  -13.2310   22.3530 H   0  0  0  0  0  0  0  0  0  0  0  0
  -25.4260  -15.3230   20.3300 N   0  0  0  0  0  0  0  0  0  0  0  0
  -24.6630  -15.9710   20.4960 H   0  0  0  0  0  0  0  0  0  0  0  0
  -26.2580  -15.7750   19.9720 H   0  0  0  0  0  0  0  0  0  0  0  0
  -28.8990  -22.1330   20.0250 C   0  0  0  0  0  3  0  0  0  0  0  0
  -28.9930  -23.6950   20.5390 C   0  0  0  0  0  3  0  0  0  0  0  0
  -28.1050  -24.9160   19.9210 C   0  0  0  0  0  3  0  0  0  0  0  0
  -28.2790  -26.3710   20.3280 O   0  0  0  0  0  0  0  0  0  0  0  0
  -24.6330  -31.9520   23.2920 C   0  0  0  0  0  0  0  0  0  0  0  0
  -27.1980  -27.2940   20.2490 C   0  0  0  0  0  0  0  0  0  0  0  0
  -23.4220  -30.5590   21.6530 C   0  0  0  0  0  3  0  0  0  0  0  0
  -24.8620  -28.9890   20.2270 C   0  0  0  0  0  0  0  0  0  0  0  0
  -25.9730  -30.8230   21.4950 C   0  0  0  0  0  2  0  0  0  0  0  0
  -26.0360  -29.4400   20.8440 C   0  0  0  0  0  0  0  0  0  0  0  0
  -27.2030  -28.6030   20.8510 C   0  0  0  0  0  3  0  0  0  0  0  0
  -26.0100  -26.9320   19.5790 C   0  0  0  0  0  3  0  0  0  0  0  0
  -24.8560  -27.7420   19.5820 C   0  0  0  0  0  3  0  0  0  0  0  0
  -23.6380  -29.8850   20.2720 C   0  0  0  0  0  2  0  0  0  0  0  0
  -24.6940  -31.1320   22.2020 N   0  0  0  0  0  0  0  0  0  0  0  0
  -23.5500  -32.2450   23.8210 O   0  0  0  0  0  0  0  0  0  0  0  0
  -22.7440  -29.5520   22.6130 C   0  0  0  0  0  0  0  0  0  0  0  0
  -21.4190  -29.3780   22.4760 N   0  0  0  0  0  0  0  0  0  0  0  0
  -23.4120  -28.9310   23.4440 O   0  0  0  0  0  0  0  0  0  0  0  0
  -20.9390  -29.9280   21.7760 H   0  0  0  0  0  0  0  0  0  0  0  0
  -18.0320  -28.2040   22.9700 C   0  0  0  0  0  0  0  0  0  0  0  0
  -20.5900  -28.4520   23.2480 C   0  0  0  0  0  3  0  0  0  0  0  0
  -20.6890  -27.0170   22.6850 C   0  0  0  0  0  2  0  0  0  0  0  0
  -19.5910  -26.6930   21.6680 C   0  0  0  0  0  2  0  0  0  0  0  0
  -18.2050  -26.8490   22.3020 C   0  0  0  0  0  2  0  0  0  0  0  0
  -19.1530  -28.9630   23.3990 C   0  0  0  0  0  0  0  0  0  0  0  0
  -18.9380  -30.2300   23.9840 C   0  0  0  0  0  3  0  0  0  0  0  0
  -17.6350  -30.7370   24.1440 C   0  0  0  0  0  3  0  0  0  0  0  0
  -16.5280  -29.9720   23.7320 C   0  0  0  0  0  3  0  0  0  0  0  0
  -16.7290  -28.7090   23.1460 C   0  0  0  0  0  3  0  0  0  0  0  0
  -25.9180  -32.5800   23.9130 C   0  0  0  0  0  3  0  0  0  0  0  0
  -26.4190  -31.8200   25.2030 C   0  0  1  0  0  0  0  0  0  0  0  0
  -25.3170  -31.6040   26.2670 C   0  0  0  0  0  1  0  0  0  0  0  0
  -26.9960  -30.4320   24.8410 C   0  0  0  0  0  1  0  0  0  0  0  0
  -27.5690  -32.6150   25.8650 C   0  0  0  0  0  1  0  0  0  0  0  0
  -25.6240  -33.9860   24.2250 N   0  0  0  0  0  0  0  0  0  0  0  0
  -25.9600  -35.0270   23.4520 C   0  0  0  0  0  0  0  0  0  0  0  0
  -26.6230  -34.9030   22.4180 O   0  0  0  0  0  0  0  0  0  0  0  0
  -25.0440  -34.1570   25.0330 H   0  0  0  0  0  0  0  0  0  0  0  0
  -24.2480  -36.8290   23.0800 C   0  0  0  0  0  1  0  0  0  0  0  0
  -25.4880  -36.4240   23.8940 C   0  0  0  0  0  3  0  0  0  0  0  0
  -27.6270  -37.3010   24.7180 C   0  0  0  0  0  1  0  0  0  0  0  0
  -26.5290  -37.4680   23.7680 N   0  0  0  0  0  0  0  0  0  0  0  0
  -26.1300  -38.3930   23.9060 H   0  0  0  0  0  0  0  0  0  0  0  0
  2  8  2  0
  3  7  1  0
  4  2  1  0
  5  3  1  0
  5  6  1  0
  6 10  1  0
  6  4  1  0
  7  1  1  0
  7  2  1  0
  9  3  2  0
 11 16  1  0
 12 13  1  0
 12 11  1  0
 14 13  1  0
 14 21  1  0
 14 15  1  0
 16 10  1  0
 16 15  1  0
 17 10  2  0
 18 19  2  0
 19 38  1  0
 20 19  1  0
 20 23  1  0
 21 22  1  0
 21 18  1  0
 22 20  2  0
 23 24  1  0
 24 25  2  0
 26 29  1  0
 26 25  1  0
 27 26  2  0
 28 27  1  0
 28 23  2  0
 29 30  1  0
 30 31  1  0
 31 32  2  0
 33 32  1  0
 33 37  1  0
 34 33  2  0
 35 30  2  0
 35 34  1  0
 36 35  1  0
 38 39  1  0
 39 42  1  0
 39 41  1  0
 40 38  2  0
 43 18  1  0
 43 44  1  0
 45 43  1  0
 46 47  1  0
 46  1  2  0
 48 49  1  0
 48 47  2  0
 50 61  2  0
 51 49  1  0
 51 56  1  0
 52 60  1  0
 52 62  1  0
 53 59  1  0
 53 55  1  0
 54 60  1  0
 55 56  2  0
 55 54  1  0
 57 58  1  0
 57 51  2  0
 58 53  2  0
 59 52  1  0
 60 50  1  0
 62 64  2  0
 63 62  1  0
 65 63  1  0
 66 75  2  0
 66 71  1  0
 67 63  1  0
 67 71  1  0
 68 67  1  0
 69 70  1  0
 69 68  1  0
 70 66  1  0
 71 72  2  0
 72 73  1  0
 74 73  2  0
 75 74  1  0
 76 50  1  0
 76 81  1  0
 76 77  1  0
 77 80  1  1
 77 78  1  0
 79 77  1  0
 81 84  1  0
 82 86  1  0
 82 81  1  0
 83 82  2  0
 86 85  1  0
 88 86  1  0
 88 89  1  0
 88 87  1  0
M  ISO  4   6 100  10 100  48 101  49 101
M  END
>  <TORSDO>  (27) 
F 20

>  <SCORE>  (27) 
-13.936

>  <name>  (27) 
26

>  <ligand_id>  (27) 
26

>  <original_smiles>  (27) 
[H]c1c([H])c([H])c2c(c1[H])C([H])([H])C([H])([H])C([H])([H])C2([H])N([H])C(=O)C1([H])N(C(=O)C([H])(N([H])C(=O)C([H])(N([H])C([H])([H])[H])C([H])([H])[H])C(C([H])([H])[H])(C([H])([H])[H])C([H])([H])[H])C([H])([H])c2c([H])c(OC([H])([H])C([H])([H])C([H])([H])C([H])([H])N3C(=O)C([H])([H])C([H])(C(=O)N4C([H])([H])C([H])([H])C([H])([H])C([H])(n5nc(-c6c([H])c([H])c(Oc7c([H])c([H])c(F)c([H])c7F)c([H])c6[H])c(C(=O)N([H])[H])c5N([H])[H])C4([H])[H])C([H])([H])C3=O)c([H])c([H])c2C1([H])[H]

>  <smiles>  (27) 
[H]c1c([H])c([H])c2c(c1[H])C([H])([H])C([H])([H])C([H])([H])C2([H])N([H])C(=O)C1([H])N(C(=O)C([H])(N([H])C(=O)C([H])(N([H])C([H])([H])[H])C([H])([H])[H])C(C([H])([H])[H])(C([H])([H])[H])C([H])([H])[H])C([H])([H])c2c([H])c(OC([H])([H])C([H])([H])C([H])([H])C([H])([H])N3C(=O)C([H])([H])C([H])(C(=O)N4C([H])([H])C([H])([H])C([H])([H])C([H])(n5nc(-c6c([H])c([H])c(Oc7c([H])c([H])c(F)c([H])c7F)c([H])c6[H])c(C(=O)N([H])[H])c5N([H])[H])C4([H])[H])C([H])([H])C3=O)c([H])c([H])c2C1([H])[H]

$$$$
27:0:0
     RDKit          3D

 99107  0  0  1  0  0  0  0  0999 V2000
  -24.5090  -23.1840   20.6350 C   0  0  0  0  0  3  0  0  0  0  0  0
  -24.5040  -22.2130   19.6190 C   0  0  0  0  0  3  0  0  0  0  0  0
  -26.9300  -23.0240   20.7710 C   0  0  0  0  0  3  0  0  0  0  0  0
  -25.7200  -23.5910   21.2310 C   0  0  0  0  0  0  0  0  0  0  0  0
  -25.7100  -21.6460   19.1610 C   0  0  0  0  0  0  0  0  0  0  0  0
  -26.9400  -22.0800   19.7210 C   0  0  0  0  0  0  0  0  0  0  0  0
  -25.6480  -20.5620   18.0910 C   0  0  0  0  0  1  0  0  0  0  0  0
  -25.6760  -24.6110   22.3680 C   0  0  0  0  0  2  0  0  0  0  0  0
  -26.9830  -25.3840   22.6280 C   0  0  0  0  0  2  0  0  0  0  0  0
  -27.4490  -26.0860   21.4200 N   0  0  0  0  0  4  0  0  0  0  0  0
  -27.1460  -27.0440   21.4930 H   0  0  0  0  0  0  0  0  0  0  0  0
  -26.9750  -25.6790   20.6260 H   0  0  0  0  0  0  0  0  0  0  0  0
  -28.9100  -26.0440   21.1570 C   0  0  0  0  0  2  0  0  0  0  0  0
  -29.3820  -27.2120   20.2620 C   0  0  0  0  0  2  0  0  0  0  0  0
  -28.5550  -27.3920   19.1060 O   0  0  0  0  0  0  0  0  0  0  0  0
  -24.6450  -31.8130   23.1110 C   0  0  0  0  0  0  0  0  0  0  0  0
  -27.3700  -28.0690   19.2890 C   0  0  0  0  0  0  0  0  0  0  0  0
  -23.4180  -30.5400   21.3740 C   0  0  0  0  0  3  0  0  0  0  0  0
  -24.8690  -29.3260   19.6670 C   0  0  0  0  0  0  0  0  0  0  0  0
  -25.8840  -31.1320   21.0660 C   0  0  0  0  0  2  0  0  0  0  0  0
  -26.0220  -29.8700   20.2430 C   0  0  0  0  0  0  0  0  0  0  0  0
  -27.2720  -29.2530   20.0540 C   0  0  0  0  0  3  0  0  0  0  0  0
  -26.2050  -27.5400   18.6930 C   0  0  0  0  0  3  0  0  0  0  0  0
  -24.9520  -28.1560   18.8880 C   0  0  0  0  0  3  0  0  0  0  0  0
  -23.5740  -30.0660   19.9070 C   0  0  0  0  0  2  0  0  0  0  0  0
  -24.6700  -31.1690   21.9090 N   0  0  0  0  0  0  0  0  0  0  0  0
  -23.5920  -31.9250   23.7520 O   0  0  0  0  0  0  0  0  0  0  0  0
  -22.9190  -29.3530   22.2280 C   0  0  0  0  0  0  0  0  0  0  0  0
  -21.6120  -29.0530   22.1280 N   0  0  0  0  0  0  0  0  0  0  0  0
  -23.7030  -28.7040   22.9260 O   0  0  0  0  0  0  0  0  0  0  0  0
  -21.0460  -29.6260   21.5180 H   0  0  0  0  0  0  0  0  0  0  0  0
  -18.4010  -27.4620   22.5890 C   0  0  0  0  0  0  0  0  0  0  0  0
  -20.9290  -27.9560   22.8060 C   0  0  0  0  0  3  0  0  0  0  0  0
  -21.1540  -26.6190   22.0580 C   0  0  0  0  0  2  0  0  0  0  0  0
  -20.0430  -26.3040   21.0520 C   0  0  0  0  0  2  0  0  0  0  0  0
  -18.6910  -26.2180   21.7630 C   0  0  0  0  0  2  0  0  0  0  0  0
  -19.4510  -28.2900   23.0650 C   0  0  0  0  0  0  0  0  0  0  0  0
  -19.1280  -29.4600   23.7830 C   0  0  0  0  0  3  0  0  0  0  0  0
  -17.7830  -29.8030   24.0290 C   0  0  0  0  0  3  0  0  0  0  0  0
  -16.7490  -28.9670   23.5740 C   0  0  0  0  0  3  0  0  0  0  0  0
  -17.0610  -27.7970   22.8620 C   0  0  0  0  0  3  0  0  0  0  0  0
  -25.9350  -32.4540   23.7240 C   0  0  0  0  0  3  0  0  0  0  0  0
  -25.5900  -33.8220   24.1340 N   0  0  0  0  0  0  0  0  0  0  0  0
  -25.8730  -34.9220   23.4240 C   0  0  0  0  0  0  0  0  0  0  0  0
  -26.5320  -34.8940   22.3810 O   0  0  0  0  0  0  0  0  0  0  0  0
  -25.0070  -33.9180   24.9520 H   0  0  0  0  0  0  0  0  0  0  0  0
  -24.0900  -36.6770   23.1810 C   0  0  0  0  0  1  0  0  0  0  0  0
  -25.3490  -36.2670   23.9590 C   0  0  0  0  0  3  0  0  0  0  0  0
  -27.4700  -37.1650   24.8150 C   0  0  0  0  0  1  0  0  0  0  0  0
  -26.3480  -37.3550   23.9000 N   0  0  0  0  0  0  0  0  0  0  0  0
  -25.9170  -38.2510   24.1080 H   0  0  0  0  0  0  0  0  0  0  0  0
  -26.5130  -31.6290   24.9420 C   0  0  1  0  0  0  0  0  0  0  0  0
  -25.4550  -31.2880   26.0180 C   0  0  0  0  0  1  0  0  0  0  0  0
  -27.1310  -30.2940   24.4610 C   0  0  0  0  0  1  0  0  0  0  0  0
  -27.6510  -32.4250   25.6270 C   0  0  0  0  0  1  0  0  0  0  0  0
  -28.2850  -21.5990   19.1880 C   0  0  0  0  0  2  0  0  0  0  0  0
  -29.1810  -20.9330   20.2560 C   0  0  0  0  0  2  0  0  0  0  0  0
  -30.2800  -20.1290   19.6690 N   0  0  0  0  0  4  0  0  0  0  0  0
  -30.9030  -19.8650   20.4180 H   0  0  0  0  0  0  0  0  0  0  0  0
  -30.8130  -20.7010   19.0330 H   0  0  0  0  0  0  0  0  0  0  0  0
  -29.8280  -18.9130   18.9560 C   0  0  0  0  0  2  0  0  0  0  0  0
  -30.6830  -17.6730   19.2130 C   0  0  0  0  0  2  0  0  0  0  0  0
  -30.4350  -16.9520   20.5680 C   0  0  0  0  0  2  0  0  0  0  0  0
  -31.1960  -15.6180   20.5750 C   0  0  0  0  0  0  0  0  0  0  0  0
  -31.1900  -13.1740   20.3330 C   0  0  0  0  0  2  0  0  0  0  0  0
  -30.4900  -12.7930   19.0130 C   0  0  0  0  0  2  0  0  0  0  0  0
  -28.9790  -12.6170   19.2480 C   0  0  0  0  0  2  0  0  0  0  0  0
  -28.3500  -13.8260   19.9940 C   0  0  0  0  0  3  0  0  0  0  0  0
  -29.1920  -14.2110   21.2340 C   0  0  0  0  0  2  0  0  0  0  0  0
  -30.5840  -14.4260   20.8070 N   0  0  0  0  0  0  0  0  0  0  0  0
  -32.3750  -15.6860   20.2230 O   0  0  0  0  0  0  0  0  0  0  0  0
  -25.8970  -14.4490   20.4830 C   0  0  0  0  0  0  0  0  0  0  0  0
  -24.7970  -13.6830   20.7540 C   0  0  0  0  0  0  0  0  0  0  0  0
  -25.2480  -12.3280   20.7680 C   0  0  0  0  0  0  0  0  0  0  0  0
  -26.9540  -13.5620   20.3480 N   0  0  0  0  0  0  0  0  0  0  0  0
  -26.5600  -12.2820   20.5730 N   0  0  0  0  0  0  0  0  0  0  0  0
  -24.5010  -11.0700   20.9000 C   0  0  0  0  0  0  0  0  0  0  0  0
  -24.7650  -10.1550   21.9420 C   0  0  0  0  0  3  0  0  0  0  0  0
  -24.0220   -8.9600   22.0530 C   0  0  0  0  0  3  0  0  0  0  0  0
  -22.9980   -8.6710   21.1220 C   0  0  0  0  0  0  0  0  0  0  0  0
  -22.7550   -9.5730   20.0710 C   0  0  0  0  0  3  0  0  0  0  0  0
  -23.5000  -10.7570   19.9570 C   0  0  0  0  0  3  0  0  0  0  0  0
  -22.2360   -7.5270   21.1430 O   0  0  0  0  0  0  0  0  0  0  0  0
  -21.8710   -6.9250   22.3220 C   0  0  0  0  0  0  0  0  0  0  0  0
  -21.1310   -7.6080   23.3110 C   0  0  0  0  0  3  0  0  0  0  0  0
  -20.7160   -6.9290   24.4740 C   0  0  0  0  0  3  0  0  0  0  0  0
  -21.0330   -5.5680   24.6470 C   0  0  0  0  0  0  0  0  0  0  0  0
  -21.7630   -4.8840   23.6590 C   0  0  0  0  0  3  0  0  0  0  0  0
  -22.1780   -5.5600   22.4990 C   0  0  0  0  0  0  0  0  0  0  0  0
  -22.8640   -4.8920   21.5410 F   0  0  0  0  0  0  0  0  0  0  0  0
  -20.6280   -4.9130   25.7600 F   0  0  0  0  0  0  0  0  0  0  0  0
  -23.3780  -14.1600   20.8980 C   0  0  0  0  0  0  0  0  0  0  0  0
  -22.5860  -13.4810   21.7150 N   0  0  0  0  0  0  0  0  0  0  0  0
  -22.9840  -15.1740   20.3210 O   0  0  0  0  0  0  0  0  0  0  0  0
  -22.9220  -12.6630   22.2020 H   0  0  0  0  0  0  0  0  0  0  0  0
  -21.6300  -13.7770   21.8580 H   0  0  0  0  0  0  0  0  0  0  0  0
  -26.0850  -15.8210   20.3240 N   0  0  0  0  0  0  0  0  0  0  0  0
  -25.3150  -16.4810   20.3710 H   0  0  0  0  0  0  0  0  0  0  0  0
  -26.9690  -16.2540   20.0910 H   0  0  0  0  0  0  0  0  0  0  0  0
  1  4  1  0
  2  1  2  0
  3  4  2  0
  4  8  1  0
  5  2  1  0
  5  6  2  0
  6  3  1  0
  7  5  1  0
  8  9  1  0
 10 11  1  0
 10  9  1  0
 12 10  1  0
 13 10  1  0
 14 13  1  0
 15 17  1  0
 15 14  1  0
 16 27  2  0
 17 22  1  0
 18 26  1  0
 18 28  1  0
 19 25  1  0
 19 21  1  0
 20 26  1  0
 21 20  1  0
 22 21  2  0
 23 24  1  0
 23 17  2  0
 24 19  2  0
 25 18  1  0
 26 16  1  0
 28 30  2  0
 29 28  1  0
 31 29  1  0
 32 41  2  0
 32 37  1  0
 33 29  1  0
 33 37  1  0
 34 33  1  0
 35 36  1  0
 35 34  1  0
 36 32  1  0
 37 38  2  0
 38 39  1  0
 40 39  2  0
 41 40  1  0
 42 16  1  0
 42 43  1  0
 42 52  1  0
 43 46  1  0
 44 48  1  0
 44 43  1  0
 45 44  2  0
 48 47  1  0
 50 48  1  0
 50 51  1  0
 50 49  1  0
 52 55  1  1
 52 53  1  0
 54 52  1  0
 56  6  1  0
 56 57  1  0
 58 57  1  0
 58 59  1  0
 60 58  1  0
 61 62  1  0
 61 58  1  0
 62 63  1  0
 63 64  1  0
 64 70  1  0
 65 70  1  0
 66 67  1  0
 66 65  1  0
 68 67  1  0
 68 75  1  0
 68 69  1  0
 70 69  1  0
 71 64  2  0
 72 73  2  0
 73 74  1  0
 73 92  1  0
 74 77  1  0
 75 72  1  0
 75 76  1  0
 76 74  2  0
 77 78  1  0
 78 79  2  0
 80 83  1  0
 80 79  1  0
 81 80  2  0
 82 81  1  0
 82 77  2  0
 83 84  1  0
 84 89  2  0
 84 85  1  0
 85 86  2  0
 86 87  1  0
 87 91  1  0
 88 87  2  0
 89 88  1  0
 90 89  1  0
 92 93  1  0
 93 96  1  0
 93 95  1  0
 94 92  2  0
 97 98  1  0
 97 72  1  0
 99 97  1  0
M  ISO  4  14 101  15 101  63 100  64 100
M  END
>  <TORSDO>  (28) 
F 27

>  <SCORE>  (28) 
-8.807

>  <name>  (28) 
27

>  <ligand_id>  (28) 
27

>  <original_smiles>  (28) 
[H]c1c([H])c([H])c2c(c1[H])C([H])([H])C([H])([H])C([H])([H])C2([H])N([H])C(=O)C1([H])N(C(=O)C([H])(N([H])C(=O)C([H])(N([H])C([H])([H])[H])C([H])([H])[H])C(C([H])([H])[H])(C([H])([H])[H])C([H])([H])[H])C([H])([H])c2c([H])c(OC([H])([H])C([H])([H])[N+]([H])([H])C([H])([H])C([H])([H])c3c([H])c([H])c(C([H])([H])[H])c(C([H])([H])C([H])([H])[N+]([H])([H])C([H])([H])C([H])([H])C([H])([H])C(=O)N4C([H])([H])C([H])([H])C([H])([H])C([H])(n5nc(-c6c([H])c([H])c(Oc7c([H])c([H])c(F)c([H])c7F)c([H])c6[H])c(C(=O)N([H])[H])c5N([H])[H])C4([H])[H])c3[H])c([H])c([H])c2C1([H])[H]

>  <smiles>  (28) 
[H]c1c([H])c([H])c2c(c1[H])C([H])([H])C([H])([H])C([H])([H])C2([H])N([H])C(=O)C1([H])N(C(=O)C([H])(N([H])C(=O)C([H])(N([H])C([H])([H])[H])C([H])([H])[H])C(C([H])([H])[H])(C([H])([H])[H])C([H])([H])[H])C([H])([H])c2c([H])c(OC([H])([H])C([H])([H])[N+]([H])([H])C([H])([H])C([H])([H])c3c([H])c([H])c(C([H])([H])[H])c(C([H])([H])C([H])([H])[N+]([H])([H])C([H])([H])C([H])([H])C([H])([H])C(=O)N4C([H])([H])C([H])([H])C([H])([H])C([H])(n5nc(-c6c([H])c([H])c(Oc7c([H])c([H])c(F)c([H])c7F)c([H])c6[H])c(C(=O)N([H])[H])c5N([H])[H])C4([H])[H])c3[H])c([H])c([H])c2C1([H])[H]

$$$$
28:0:0
     RDKit          3D

 97105  0  0  1  0  0  0  0  0999 V2000
  -29.0850  -21.7450   20.2400 C   0  0  0  0  0  3  0  0  0  0  0  0
  -28.5780  -22.8970   19.6090 C   0  0  0  0  0  0  0  0  0  0  0  0
  -30.0220  -21.8140   21.2890 C   0  0  0  0  0  0  0  0  0  0  0  0
  -30.5220  -23.1080   21.6430 C   0  0  0  0  0  0  0  0  0  0  0  0
  -29.9860  -24.2930   21.0410 C   0  0  0  0  0  0  0  0  0  0  0  0
  -28.9870  -24.1970   20.0290 C   0  0  0  0  0  0  0  0  0  0  0  0
  -31.6350  -23.2590   22.6790 C   0  0  0  0  0  1  0  0  0  0  0  0
  -30.4450  -25.6770   21.4990 C   0  0  0  0  0  1  0  0  0  0  0  0
  -30.0680  -20.6000   23.5360 C   0  0  0  0  0  1  0  0  0  0  0  0
  -30.4300  -20.5080   22.0360 C   0  0  0  0  0  3  0  0  0  0  0  0
  -29.8040  -19.2590   21.5050 N   0  0  0  0  0  4  0  0  0  0  0  0
  -29.5950  -18.6620   22.2860 H   0  0  0  0  0  0  0  0  0  0  0  0
  -28.9220  -19.5210   21.0940 H   0  0  0  0  0  0  0  0  0  0  0  0
  -30.5700  -18.4520   20.5170 C   0  0  0  0  0  2  0  0  0  0  0  0
  -31.1990  -17.1620   21.1250 C   0  0  0  0  0  2  0  0  0  0  0  0
  -30.3440  -15.8460   21.0570 C   0  0  0  0  0  2  0  0  0  0  0  0
  -30.9750  -14.6420   20.2990 C   0  0  0  0  0  0  0  0  0  0  0  0
  -30.6740  -12.4460   19.1930 C   0  0  0  0  0  2  0  0  0  0  0  0
  -29.7340  -12.5980   17.9800 C   0  0  0  0  0  2  0  0  0  0  0  0
  -28.2610  -12.4650   18.4120 C   0  0  0  0  0  2  0  0  0  0  0  0
  -27.9170  -13.3470   19.6420 C   0  0  0  0  0  3  0  0  0  0  0  0
  -28.9720  -13.1830   20.7600 C   0  0  0  0  0  2  0  0  0  0  0  0
  -30.2980  -13.4650   20.1880 N   0  0  0  0  0  0  0  0  0  0  0  0
  -32.0640  -14.8060   19.7420 O   0  0  0  0  0  0  0  0  0  0  0  0
  -25.5290  -13.9730   20.3730 C   0  0  0  0  0  0  0  0  0  0  0  0
  -24.4570  -13.2080   20.7480 C   0  0  0  0  0  0  0  0  0  0  0  0
  -24.9050  -11.8530   20.7080 C   0  0  0  0  0  0  0  0  0  0  0  0
  -26.5640  -13.0820   20.1300 N   0  0  0  0  0  0  0  0  0  0  0  0
  -26.1920  -11.8030   20.3880 N   0  0  0  0  0  0  0  0  0  0  0  0
  -24.1680  -10.5970   20.8980 C   0  0  0  0  0  0  0  0  0  0  0  0
  -24.5430   -9.6640   21.8890 C   0  0  0  0  0  3  0  0  0  0  0  0
  -23.8070   -8.4720   22.0660 C   0  0  0  0  0  3  0  0  0  0  0  0
  -22.6820   -8.2060   21.2510 C   0  0  0  0  0  0  0  0  0  0  0  0
  -22.3260   -9.1280   20.2510 C   0  0  0  0  0  3  0  0  0  0  0  0
  -23.0620  -10.3100   20.0730 C   0  0  0  0  0  3  0  0  0  0  0  0
  -21.9240   -7.0610   21.3330 O   0  0  0  0  0  0  0  0  0  0  0  0
  -21.7470   -6.3980   22.5210 C   0  0  0  0  0  0  0  0  0  0  0  0
  -21.1450   -7.0170   23.6370 C   0  0  0  0  0  3  0  0  0  0  0  0
  -20.9200   -6.2780   24.8160 C   0  0  0  0  0  3  0  0  0  0  0  0
  -21.2870   -4.9200   24.8770 C   0  0  0  0  0  0  0  0  0  0  0  0
  -21.8820   -4.3000   23.7640 C   0  0  0  0  0  3  0  0  0  0  0  0
  -22.1080   -5.0370   22.5870 C   0  0  0  0  0  0  0  0  0  0  0  0
  -22.6620   -4.4300   21.5100 F   0  0  0  0  0  0  0  0  0  0  0  0
  -21.0650   -4.2070   26.0070 F   0  0  0  0  0  0  0  0  0  0  0  0
  -23.0660  -13.6990   21.0330 C   0  0  0  0  0  0  0  0  0  0  0  0
  -22.3400  -13.0090   21.9080 N   0  0  0  0  0  0  0  0  0  0  0  0
  -22.6320  -14.7280   20.5170 O   0  0  0  0  0  0  0  0  0  0  0  0
  -22.7030  -12.1760   22.3470 H   0  0  0  0  0  0  0  0  0  0  0  0
  -21.4080  -13.3200   22.1410 H   0  0  0  0  0  0  0  0  0  0  0  0
  -25.7060  -15.3430   20.2020 N   0  0  0  0  0  0  0  0  0  0  0  0
  -24.9430  -16.0020   20.3120 H   0  0  0  0  0  0  0  0  0  0  0  0
  -26.5580  -15.7750   19.8680 H   0  0  0  0  0  0  0  0  0  0  0  0
  -27.5580  -22.6580   18.4890 C   0  0  0  0  0  2  0  0  0  0  0  0
  -25.6840  -23.1050   20.2430 C   0  0  0  0  0  1  0  0  0  0  0  0
  -26.1250  -23.1660   18.7730 C   0  0  0  0  0  2  0  0  0  0  0  0
  -28.2430  -25.3980   19.3980 C   0  0  0  0  0  2  0  0  0  0  0  0
  -28.3870  -26.7650   19.8790 O   0  0  0  0  0  0  0  0  0  0  0  0
  -24.6000  -31.8570   23.1850 C   0  0  0  0  0  0  0  0  0  0  0  0
  -27.2410  -27.5610   19.8530 C   0  0  0  0  0  0  0  0  0  0  0  0
  -23.3870  -30.5020   21.5160 C   0  0  0  0  0  3  0  0  0  0  0  0
  -24.8350  -29.0770   19.9830 C   0  0  0  0  0  0  0  0  0  0  0  0
  -25.9110  -30.9070   21.2870 C   0  0  0  0  0  2  0  0  0  0  0  0
  -26.0030  -29.5680   20.5780 C   0  0  0  0  0  0  0  0  0  0  0  0
  -27.2080  -28.8150   20.5200 C   0  0  0  0  0  3  0  0  0  0  0  0
  -26.0520  -27.1420   19.1970 C   0  0  0  0  0  3  0  0  0  0  0  0
  -24.8560  -27.8650   19.2880 C   0  0  0  0  0  3  0  0  0  0  0  0
  -23.5760  -29.9030   20.1010 C   0  0  0  0  0  2  0  0  0  0  0  0
  -24.6530  -31.1020   22.0520 N   0  0  0  0  0  0  0  0  0  0  0  0
  -23.5240  -32.0820   23.7570 O   0  0  0  0  0  0  0  0  0  0  0  0
  -22.7800  -29.4200   22.4390 C   0  0  0  0  0  0  0  0  0  0  0  0
  -21.4630  -29.1890   22.3090 N   0  0  0  0  0  0  0  0  0  0  0  0
  -23.4900  -28.7990   23.2340 O   0  0  0  0  0  0  0  0  0  0  0  0
  -20.9500  -29.7460   21.6390 H   0  0  0  0  0  0  0  0  0  0  0  0
  -18.1440  -27.8280   22.7570 C   0  0  0  0  0  0  0  0  0  0  0  0
  -20.6860  -28.1970   23.0510 C   0  0  0  0  0  3  0  0  0  0  0  0
  -20.8580  -26.7860   22.4430 C   0  0  0  0  0  2  0  0  0  0  0  0
  -19.7770  -26.4350   21.4150 C   0  0  0  0  0  2  0  0  0  0  0  0
  -18.3860  -26.5040   22.0530 C   0  0  0  0  0  2  0  0  0  0  0  0
  -19.2250  -28.6290   23.2110 C   0  0  0  0  0  0  0  0  0  0  0  0
  -18.9450  -29.8680   23.8300 C   0  0  0  0  0  3  0  0  0  0  0  0
  -17.6190  -30.3060   24.0000 C   0  0  0  0  0  3  0  0  0  0  0  0
  -16.5530  -29.5010   23.5630 C   0  0  0  0  0  3  0  0  0  0  0  0
  -16.8150  -28.2640   22.9470 C   0  0  0  0  0  3  0  0  0  0  0  0
  -25.8840  -32.4930   23.7980 C   0  0  0  0  0  3  0  0  0  0  0  0
  -25.5580  -33.8760   24.1660 N   0  0  0  0  0  0  0  0  0  0  0  0
  -25.8750  -34.9520   23.4340 C   0  0  0  0  0  0  0  0  0  0  0  0
  -26.5440  -34.8870   22.4000 O   0  0  0  0  0  0  0  0  0  0  0  0
  -24.9610  -34.0010   24.9700 H   0  0  0  0  0  0  0  0  0  0  0  0
  -24.1290  -36.7350   23.1280 C   0  0  0  0  0  1  0  0  0  0  0  0
  -25.3710  -36.3200   23.9320 C   0  0  0  0  0  3  0  0  0  0  0  0
  -27.4850  -37.2080   24.8060 C   0  0  0  0  0  1  0  0  0  0  0  0
  -26.3930  -37.3860   23.8540 N   0  0  0  0  0  0  0  0  0  0  0  0
  -25.9750  -38.2980   24.0190 H   0  0  0  0  0  0  0  0  0  0  0  0
  -26.4310  -31.6990   25.0470 C   0  0  1  0  0  0  0  0  0  0  0  0
  -25.3540  -31.4140   26.1220 C   0  0  0  0  0  1  0  0  0  0  0  0
  -27.0380  -30.3450   24.6130 C   0  0  0  0  0  1  0  0  0  0  0  0
  -27.5730  -32.5010   25.7150 C   0  0  0  0  0  1  0  0  0  0  0  0
  1  3  1  0
  2  6  1  0
  2  1  2  0
  3  4  2  0
  3 10  1  0
  4  7  1  0
  5  8  1  0
  5  4  1  0
  6  5  2  0
 10  9  1  0
 11 10  1  0
 11 12  1  0
 13 11  1  0
 14 15  1  0
 14 11  1  0
 16 15  1  0
 17 16  1  0
 18 23  1  0
 19 20  1  0
 19 18  1  0
 21 20  1  0
 21 28  1  0
 21 22  1  0
 23 17  1  0
 23 22  1  0
 24 17  2  0
 25 26  2  0
 26 45  1  0
 27 26  1  0
 27 30  1  0
 28 25  1  0
 28 29  1  0
 29 27  2  0
 30 31  1  0
 31 32  2  0
 33 36  1  0
 33 32  1  0
 34 33  2  0
 35 34  1  0
 35 30  2  0
 36 37  1  0
 37 42  2  0
 37 38  1  0
 38 39  2  0
 39 40  1  0
 40 44  1  0
 41 40  2  0
 42 41  1  0
 43 42  1  0
 45 46  1  0
 46 49  1  0
 46 48  1  0
 47 45  2  0
 50 51  1  0
 50 25  1  0
 52 50  1  0
 53 55  1  0
 53  2  1  0
 55 54  1  0
 56 57  1  0
 56  6  1  0
 58 69  2  0
 59 57  1  0
 59 64  1  0
 60 68  1  0
 60 70  1  0
 61 67  1  0
 61 63  1  0
 62 68  1  0
 63 62  1  0
 64 63  2  0
 65 66  1  0
 65 59  2  0
 66 61  2  0
 67 60  1  0
 68 58  1  0
 70 72  2  0
 71 70  1  0
 73 71  1  0
 74 83  2  0
 74 79  1  0
 75 71  1  0
 75 79  1  0
 76 75  1  0
 77 78  1  0
 77 76  1  0
 78 74  1  0
 79 80  2  0
 80 81  1  0
 82 81  2  0
 83 82  1  0
 84 58  1  0
 84 85  1  0
 84 94  1  0
 85 88  1  0
 86 90  1  0
 86 85  1  0
 87 86  2  0
 90 89  1  0
 92 90  1  0
 92 93  1  0
 92 91  1  0
 94 97  1  1
 94 95  1  0
 96 94  1  0
M  ISO  4  16 100  17 100  56 101  57 101
M  END
>  <TORSDO>  (29) 
F 24

>  <SCORE>  (29) 
-10.498

>  <name>  (29) 
28

>  <ligand_id>  (29) 
28

>  <original_smiles>  (29) 
[H]c1c([H])c([H])c2c(c1[H])C([H])([H])C([H])([H])C([H])([H])C2([H])N([H])C(=O)C1([H])N(C(=O)C([H])(N([H])C(=O)C([H])(N([H])C([H])([H])[H])C([H])([H])[H])C(C([H])([H])[H])(C([H])([H])[H])C([H])([H])[H])C([H])([H])c2c([H])c(OC([H])([H])c3c(C([H])([H])[H])c(C([H])([H])[H])c(C([H])(C([H])([H])[H])[N+]([H])([H])C([H])([H])C([H])([H])C([H])([H])C(=O)N4C([H])([H])C([H])([H])C([H])([H])C([H])(n5nc(-c6c([H])c([H])c(Oc7c([H])c([H])c(F)c([H])c7F)c([H])c6[H])c(C(=O)N([H])[H])c5N([H])[H])C4([H])[H])c([H])c3C([H])([H])C([H])([H])C([H])([H])[H])c([H])c([H])c2C1([H])[H]

>  <smiles>  (29) 
[H]c1c([H])c([H])c2c(c1[H])C([H])([H])C([H])([H])C([H])([H])C2([H])N([H])C(=O)C1([H])N(C(=O)C([H])(N([H])C(=O)C([H])(N([H])C([H])([H])[H])C([H])([H])[H])C(C([H])([H])[H])(C([H])([H])[H])C([H])([H])[H])C([H])([H])c2c([H])c(OC([H])([H])c3c(C([H])([H])[H])c(C([H])([H])[H])c(C([H])(C([H])([H])[H])[N+]([H])([H])C([H])([H])C([H])([H])C([H])([H])C(=O)N4C([H])([H])C([H])([H])C([H])([H])C([H])(n5nc(-c6c([H])c([H])c(Oc7c([H])c([H])c(F)c([H])c7F)c([H])c6[H])c(C(=O)N([H])[H])c5N([H])[H])C4([H])[H])c([H])c3C([H])([H])C([H])([H])C([H])([H])[H])c([H])c([H])c2C1([H])[H]

$$$$
29:0:0
     RDKit          3D

 96104  0  0  1  0  0  0  0  0999 V2000
  -27.7180  -20.4930   20.3460 C   0  0  0  0  0  3  0  0  0  0  0  0
  -26.9210  -21.5850   20.7180 C   0  0  0  0  0  3  0  0  0  0  0  0
  -29.5490  -21.3660   21.6990 C   0  0  0  0  0  3  0  0  0  0  0  0
  -29.0590  -20.4210   20.7740 C   0  0  0  0  0  0  0  0  0  0  0  0
  -27.4570  -22.6140   21.5220 C   0  0  0  0  0  0  0  0  0  0  0  0
  -28.7480  -22.4570   22.0910 C   0  0  0  0  0  0  0  0  0  0  0  0
  -29.3220  -23.4860   23.0560 C   0  0  0  0  0  1  0  0  0  0  0  0
  -29.9820  -19.3810   20.1680 C   0  0  0  0  0  2  0  0  0  0  0  0
  -30.0090  -18.1420   20.9590 N   0  0  0  0  0  4  0  0  0  0  0  0
  -29.0560  -17.9060   21.1740 H   0  0  0  0  0  0  0  0  0  0  0  0
  -30.4890  -18.3230   21.8280 H   0  0  0  0  0  0  0  0  0  0  0  0
  -30.6580  -17.0170   20.2460 C   0  0  0  0  0  2  0  0  0  0  0  0
  -30.6810  -15.7140   21.0670 C   0  0  0  0  0  2  0  0  0  0  0  0
  -31.1630  -14.5400   20.1930 C   0  0  0  0  0  0  0  0  0  0  0  0
  -30.7840  -12.3500   19.1130 C   0  0  0  0  0  2  0  0  0  0  0  0
  -29.8090  -12.4780   17.9250 C   0  0  0  0  0  2  0  0  0  0  0  0
  -28.3450  -12.3950   18.4010 C   0  0  0  0  0  2  0  0  0  0  0  0
  -28.0580  -13.3180   19.6160 C   0  0  0  0  0  3  0  0  0  0  0  0
  -29.1340  -13.1170   20.7100 C   0  0  0  0  0  2  0  0  0  0  0  0
  -30.4490  -13.3860   20.1030 N   0  0  0  0  0  0  0  0  0  0  0  0
  -32.2040  -14.7120   19.5520 O   0  0  0  0  0  0  0  0  0  0  0  0
  -25.7270  -14.0330   20.4560 C   0  0  0  0  0  0  0  0  0  0  0  0
  -24.6270  -13.3070   20.8240 C   0  0  0  0  0  0  0  0  0  0  0  0
  -24.9980  -11.9340   20.6890 C   0  0  0  0  0  0  0  0  0  0  0  0
  -26.7060  -13.1070   20.1320 N   0  0  0  0  0  0  0  0  0  0  0  0
  -26.2700  -11.8370   20.3240 N   0  0  0  0  0  0  0  0  0  0  0  0
  -24.2040  -10.7100   20.8340 C   0  0  0  0  0  0  0  0  0  0  0  0
  -24.5710   -9.6970   21.7480 C   0  0  0  0  0  3  0  0  0  0  0  0
  -23.7810   -8.5350   21.8840 C   0  0  0  0  0  3  0  0  0  0  0  0
  -22.6110   -8.3770   21.1040 C   0  0  0  0  0  0  0  0  0  0  0  0
  -22.2610   -9.3780   20.1830 C   0  0  0  0  0  3  0  0  0  0  0  0
  -23.0510  -10.5330   20.0450 C   0  0  0  0  0  3  0  0  0  0  0  0
  -21.7990   -7.2680   21.1500 O   0  0  0  0  0  0  0  0  0  0  0  0
  -21.6130   -6.5580   22.3100 C   0  0  0  0  0  0  0  0  0  0  0  0
  -21.1110   -7.1630   23.4830 C   0  0  0  0  0  3  0  0  0  0  0  0
  -20.8670   -6.3800   24.6290 C   0  0  0  0  0  3  0  0  0  0  0  0
  -21.1230   -4.9960   24.6030 C   0  0  0  0  0  0  0  0  0  0  0  0
  -21.6200   -4.3930   23.4360 C   0  0  0  0  0  3  0  0  0  0  0  0
  -21.8640   -5.1710   22.2920 C   0  0  0  0  0  0  0  0  0  0  0  0
  -22.3230   -4.5790   21.1630 F   0  0  0  0  0  0  0  0  0  0  0  0
  -20.8820   -4.2450   25.7040 F   0  0  0  0  0  0  0  0  0  0  0  0
  -23.2770  -13.8500   21.1920 C   0  0  0  0  0  0  0  0  0  0  0  0
  -22.5520  -13.1550   22.0610 N   0  0  0  0  0  0  0  0  0  0  0  0
  -22.8750  -14.9190   20.7370 O   0  0  0  0  0  0  0  0  0  0  0  0
  -22.8940  -12.2890   22.4510 H   0  0  0  0  0  0  0  0  0  0  0  0
  -21.6460  -13.5000   22.3440 H   0  0  0  0  0  0  0  0  0  0  0  0
  -25.9730  -15.4000   20.3540 N   0  0  0  0  0  0  0  0  0  0  0  0
  -25.2460  -16.0860   20.5190 H   0  0  0  0  0  0  0  0  0  0  0  0
  -26.8230  -15.8010   19.9790 H   0  0  0  0  0  0  0  0  0  0  0  0
  -26.7310  -23.9550   21.5710 C   0  0  0  0  0  2  0  0  0  0  0  0
  -27.5740  -25.0090   20.9510 N   0  0  0  0  0  4  0  0  0  0  0  0
  -27.0740  -25.8840   21.0150 H   0  0  0  0  0  0  0  0  0  0  0  0
  -28.4050  -25.0990   21.5140 H   0  0  0  0  0  0  0  0  0  0  0  0
  -27.9860  -24.7410   19.5390 C   0  0  0  0  0  2  0  0  0  0  0  0
  -28.8600  -25.8240   18.8790 C   0  0  0  0  0  2  0  0  0  0  0  0
  -28.5470  -27.2160   18.9500 O   0  0  0  0  0  0  0  0  0  0  0  0
  -24.6230  -31.5120   22.9230 C   0  0  0  0  0  0  0  0  0  0  0  0
  -27.2870  -27.7480   19.0800 C   0  0  0  0  0  0  0  0  0  0  0  0
  -23.3750  -30.2530   21.1980 C   0  0  0  0  0  3  0  0  0  0  0  0
  -24.7960  -29.0220   19.4700 C   0  0  0  0  0  0  0  0  0  0  0  0
  -25.8460  -30.8170   20.8680 C   0  0  0  0  0  2  0  0  0  0  0  0
  -25.9560  -29.5540   20.0490 C   0  0  0  0  0  0  0  0  0  0  0  0
  -27.1940  -28.9130   19.8610 C   0  0  0  0  0  3  0  0  0  0  0  0
  -26.1190  -27.2460   18.4620 C   0  0  0  0  0  3  0  0  0  0  0  0
  -24.8730  -27.8630   18.6810 C   0  0  0  0  0  3  0  0  0  0  0  0
  -23.5030  -29.7640   19.7290 C   0  0  0  0  0  2  0  0  0  0  0  0
  -24.6360  -30.8730   21.7190 N   0  0  0  0  0  0  0  0  0  0  0  0
  -23.5730  -31.6300   23.5710 O   0  0  0  0  0  0  0  0  0  0  0  0
  -22.8680  -29.0720   22.0590 C   0  0  0  0  0  0  0  0  0  0  0  0
  -21.5580  -28.7980   21.9720 N   0  0  0  0  0  0  0  0  0  0  0  0
  -23.6470  -28.4140   22.7500 O   0  0  0  0  0  0  0  0  0  0  0  0
  -20.9920  -29.3850   21.3750 H   0  0  0  0  0  0  0  0  0  0  0  0
  -18.3450  -27.1940   22.3990 C   0  0  0  0  0  0  0  0  0  0  0  0
  -20.8670  -27.7030   22.6530 C   0  0  0  0  0  3  0  0  0  0  0  0
  -21.1120  -26.3590   21.9300 C   0  0  0  0  0  2  0  0  0  0  0  0
  -20.0180  -26.0100   20.9140 C   0  0  0  0  0  2  0  0  0  0  0  0
  -18.6500  -25.9410   21.5940 C   0  0  0  0  0  2  0  0  0  0  0  0
  -19.3860  -28.0290   22.8810 C   0  0  0  0  0  0  0  0  0  0  0  0
  -19.0510  -29.2010   23.5940 C   0  0  0  0  0  3  0  0  0  0  0  0
  -17.7070  -29.5430   23.8290 C   0  0  0  0  0  3  0  0  0  0  0  0
  -16.6800  -28.7020   23.3620 C   0  0  0  0  0  3  0  0  0  0  0  0
  -16.9990  -27.5290   22.6550 C   0  0  0  0  0  3  0  0  0  0  0  0
  -25.9170  -32.1390   23.5330 C   0  0  0  0  0  3  0  0  0  0  0  0
  -25.5710  -33.4870   24.0040 N   0  0  0  0  0  0  0  0  0  0  0  0
  -25.8420  -34.6180   23.3440 C   0  0  0  0  0  0  0  0  0  0  0  0
  -26.4880  -34.6450   22.2920 O   0  0  0  0  0  0  0  0  0  0  0  0
  -24.9990  -33.5320   24.8340 H   0  0  0  0  0  0  0  0  0  0  0  0
  -24.0530  -36.3850   23.1780 C   0  0  0  0  0  1  0  0  0  0  0  0
  -25.3120  -35.9380   23.9390 C   0  0  0  0  0  3  0  0  0  0  0  0
  -27.4160  -36.8090   24.8520 C   0  0  0  0  0  1  0  0  0  0  0  0
  -26.3060  -37.0310   23.9300 N   0  0  0  0  0  0  0  0  0  0  0  0
  -25.8670  -37.9170   24.1660 H   0  0  0  0  0  0  0  0  0  0  0  0
  -26.5390  -31.2790   24.7030 C   0  0  1  0  0  0  0  0  0  0  0  0
  -25.5260  -30.9020   25.8080 C   0  0  0  0  0  1  0  0  0  0  0  0
  -27.1530  -29.9690   24.1500 C   0  0  0  0  0  1  0  0  0  0  0  0
  -27.6930  -32.0610   25.3660 C   0  0  0  0  0  1  0  0  0  0  0  0
  1  2  2  0
  1  4  1  0
  2  5  1  0
  3  6  1  0
  4  3  2  0
  5 50  1  0
  5  6  2  0
  6  7  1  0
  8  4  1  0
  8  9  1  0
  9 10  1  0
  9 11  1  0
 12  9  1  0
 12 13  1  0
 14 13  1  0
 15 20  1  0
 16 17  1  0
 16 15  1  0
 18 17  1  0
 18 25  1  0
 18 19  1  0
 20 14  1  0
 20 19  1  0
 21 14  2  0
 22 23  2  0
 23 42  1  0
 24 23  1  0
 24 27  1  0
 25 26  1  0
 25 22  1  0
 26 24  2  0
 27 28  1  0
 28 29  2  0
 30 33  1  0
 30 29  1  0
 31 30  2  0
 32 31  1  0
 32 27  2  0
 33 34  1  0
 34 35  1  0
 35 36  2  0
 37 36  1  0
 37 41  1  0
 38 37  2  0
 39 34  2  0
 39 38  1  0
 40 39  1  0
 42 43  1  0
 43 46  1  0
 43 45  1  0
 44 42  2  0
 47 22  1  0
 47 48  1  0
 49 47  1  0
 51 52  1  0
 51 53  1  0
 51 50  1  0
 54 51  1  0
 55 56  1  0
 55 54  1  0
 56 58  1  0
 57 68  2  0
 58 63  1  0
 59 67  1  0
 59 69  1  0
 60 66  1  0
 60 62  1  0
 61 67  1  0
 62 61  1  0
 63 62  2  0
 64 65  1  0
 64 58  2  0
 65 60  2  0
 66 59  1  0
 67 57  1  0
 69 71  2  0
 70 69  1  0
 72 70  1  0
 73 82  2  0
 73 78  1  0
 74 70  1  0
 74 78  1  0
 75 74  1  0
 76 77  1  0
 76 75  1  0
 77 73  1  0
 78 79  2  0
 79 80  1  0
 81 80  2  0
 82 81  1  0
 83 57  1  0
 83 84  1  0
 83 93  1  0
 84 87  1  0
 85 89  1  0
 85 84  1  0
 86 85  2  0
 89 88  1  0
 91 89  1  0
 91 92  1  0
 91 90  1  0
 93 96  1  1
 93 94  1  0
 95 93  1  0
M  ISO  4  13 100  14 100  55 101  56 101
M  END
>  <TORSDO>  (30) 
F 24

>  <SCORE>  (30) 
-10.211

>  <name>  (30) 
29

>  <ligand_id>  (30) 
29

>  <original_smiles>  (30) 
[H]c1c([H])c([H])c2c(c1[H])C([H])([H])C([H])([H])C([H])([H])C2([H])N([H])C(=O)C1([H])N(C(=O)C([H])(N([H])C(=O)C([H])(N([H])C([H])([H])[H])C([H])([H])[H])C(C([H])([H])[H])(C([H])([H])[H])C([H])([H])[H])C([H])([H])c2c([H])c(OC([H])([H])C([H])([H])[N+]([H])([H])C([H])([H])c3c([H])c([H])c(C([H])([H])[N+]([H])([H])C([H])([H])C([H])([H])C(=O)N4C([H])([H])C([H])([H])C([H])([H])C([H])(n5nc(-c6c([H])c([H])c(Oc7c([H])c([H])c(F)c([H])c7F)c([H])c6[H])c(C(=O)N([H])[H])c5N([H])[H])C4([H])[H])c([H])c3C([H])([H])[H])c([H])c([H])c2C1([H])[H]

>  <smiles>  (30) 
[H]c1c([H])c([H])c2c(c1[H])C([H])([H])C([H])([H])C([H])([H])C2([H])N([H])C(=O)C1([H])N(C(=O)C([H])(N([H])C(=O)C([H])(N([H])C([H])([H])[H])C([H])([H])[H])C(C([H])([H])[H])(C([H])([H])[H])C([H])([H])[H])C([H])([H])c2c([H])c(OC([H])([H])C([H])([H])[N+]([H])([H])C([H])([H])c3c([H])c([H])c(C([H])([H])[N+]([H])([H])C([H])([H])C([H])([H])C(=O)N4C([H])([H])C([H])([H])C([H])([H])C([H])(n5nc(-c6c([H])c([H])c(Oc7c([H])c([H])c(F)c([H])c7F)c([H])c6[H])c(C(=O)N([H])[H])c5N([H])[H])C4([H])[H])c([H])c3C([H])([H])[H])c([H])c([H])c2C1([H])[H]

$$$$
30:0:0
     RDKit          3D

 90 98  0  0  1  0  0  0  0  0999 V2000
  -29.3950  -20.8110   19.2810 C   0  0  0  0  0  3  0  0  0  0  0  0
  -29.0650  -22.2010   19.1520 C   0  0  0  0  0  3  0  0  0  0  0  0
  -30.2330  -20.5340   20.3340 C   0  0  0  0  0  0  0  0  0  0  0  0
  -29.6460  -22.9990   20.1110 C   0  0  0  0  0  0  0  0  0  0  0  0
  -30.5470  -22.0020   21.2400 S   0  0  0  0  0  0  0  0  0  0  0  0
  -30.8480  -25.0950   19.4400 C   0  0  0  0  0  1  0  0  0  0  0  0
  -29.6650  -24.5160   20.2340 C   0  0  0  0  0  3  0  0  0  0  0  0
  -28.3360  -25.2550   19.8900 C   0  0  0  0  0  2  0  0  0  0  0  0
  -28.3840  -26.6700   20.1970 O   0  0  0  0  0  0  0  0  0  0  0  0
  -24.5700  -31.8870   23.2520 C   0  0  0  0  0  0  0  0  0  0  0  0
  -27.2040  -27.4020   20.1770 C   0  0  0  0  0  0  0  0  0  0  0  0
  -23.3620  -30.4840   21.6130 C   0  0  0  0  0  3  0  0  0  0  0  0
  -24.8120  -28.9360   20.1940 C   0  0  0  0  0  0  0  0  0  0  0  0
  -25.8980  -30.8200   21.4280 C   0  0  0  0  0  2  0  0  0  0  0  0
  -25.9750  -29.4520   20.7760 C   0  0  0  0  0  0  0  0  0  0  0  0
  -27.1710  -28.6940   20.7610 C   0  0  0  0  0  3  0  0  0  0  0  0
  -26.0130  -26.9050   19.5940 C   0  0  0  0  0  3  0  0  0  0  0  0
  -24.8250  -27.6600   19.6050 C   0  0  0  0  0  3  0  0  0  0  0  0
  -23.5710  -29.7980   20.2370 C   0  0  0  0  0  2  0  0  0  0  0  0
  -24.6270  -31.0820   22.1510 N   0  0  0  0  0  0  0  0  0  0  0  0
  -23.4880  -32.1630   23.7880 O   0  0  0  0  0  0  0  0  0  0  0  0
  -22.7040  -29.4690   22.5750 C   0  0  0  0  0  0  0  0  0  0  0  0
  -21.3780  -29.2920   22.4450 N   0  0  0  0  0  0  0  0  0  0  0  0
  -23.3840  -28.8440   23.3930 O   0  0  0  0  0  0  0  0  0  0  0  0
  -20.8940  -29.8490   21.7540 H   0  0  0  0  0  0  0  0  0  0  0  0
  -17.9950  -28.1230   22.9470 C   0  0  0  0  0  0  0  0  0  0  0  0
  -20.5550  -28.3600   23.2140 C   0  0  0  0  0  3  0  0  0  0  0  0
  -20.6450  -26.9290   22.6350 C   0  0  0  0  0  2  0  0  0  0  0  0
  -19.5380  -26.6170   21.6240 C   0  0  0  0  0  2  0  0  0  0  0  0
  -18.1590  -26.7720   22.2700 C   0  0  0  0  0  2  0  0  0  0  0  0
  -19.1200  -28.8740   23.3760 C   0  0  0  0  0  0  0  0  0  0  0  0
  -18.9130  -30.1380   23.9690 C   0  0  0  0  0  3  0  0  0  0  0  0
  -17.6130  -30.6510   24.1380 C   0  0  0  0  0  3  0  0  0  0  0  0
  -16.5020  -29.8960   23.7260 C   0  0  0  0  0  3  0  0  0  0  0  0
  -16.6930  -28.6330   23.1340 C   0  0  0  0  0  3  0  0  0  0  0  0
  -25.8560  -32.5140   23.8730 C   0  0  0  0  0  3  0  0  0  0  0  0
  -25.5520  -33.9170   24.1900 N   0  0  0  0  0  0  0  0  0  0  0  0
  -25.8980  -34.9620   23.4280 C   0  0  0  0  0  0  0  0  0  0  0  0
  -26.5740  -34.8480   22.4020 O   0  0  0  0  0  0  0  0  0  0  0  0
  -24.9480  -34.0800   24.9830 H   0  0  0  0  0  0  0  0  0  0  0  0
  -24.1870  -36.7670   23.0490 C   0  0  0  0  0  1  0  0  0  0  0  0
  -25.4170  -36.3550   23.8740 C   0  0  0  0  0  3  0  0  0  0  0  0
  -27.5480  -37.2260   24.7290 C   0  0  0  0  0  1  0  0  0  0  0  0
  -26.4590  -37.4000   23.7710 N   0  0  0  0  0  0  0  0  0  0  0  0
  -26.0560  -38.3220   23.9130 H   0  0  0  0  0  0  0  0  0  0  0  0
  -26.3630  -31.7520   25.1590 C   0  0  1  0  0  0  0  0  0  0  0  0
  -25.2660  -31.5380   26.2260 C   0  0  0  0  0  1  0  0  0  0  0  0
  -26.9360  -30.3620   24.7890 C   0  0  0  0  0  1  0  0  0  0  0  0
  -27.5130  -32.5510   25.8170 C   0  0  0  0  0  1  0  0  0  0  0  0
  -30.9080  -19.2260   20.6980 C   0  0  0  0  0  2  0  0  0  0  0  0
  -29.9980  -18.0030   21.0110 C   0  0  0  0  0  2  0  0  0  0  0  0
  -30.7730  -16.7560   21.5450 C   0  0  0  0  0  2  0  0  0  0  0  0
  -30.7190  -14.4770   20.4640 C   0  0  0  0  0  0  0  0  0  0  0  0
  -30.3430  -12.3520   19.2410 C   0  0  0  0  0  2  0  0  0  0  0  0
  -29.4010  -12.6050   18.0480 C   0  0  0  0  0  2  0  0  0  0  0  0
  -27.9250  -12.4930   18.4790 C   0  0  0  0  0  2  0  0  0  0  0  0
  -27.6170  -13.2720   19.7880 C   0  0  0  0  0  3  0  0  0  0  0  0
  -28.6890  -13.0180   20.8740 C   0  0  0  0  0  2  0  0  0  0  0  0
  -30.0060  -13.3270   20.2960 N   0  0  0  0  0  0  0  0  0  0  0  0
  -31.7990  -14.6690   19.8980 O   0  0  0  0  0  0  0  0  0  0  0  0
  -30.1620  -15.4440   21.2270 N   0  0  0  0  0  0  0  0  0  0  0  0
  -29.2770  -15.2260   21.6620 H   0  0  0  0  0  0  0  0  0  0  0  0
  -25.2170  -13.8650   20.4990 C   0  0  0  0  0  0  0  0  0  0  0  0
  -24.1560  -13.0860   20.8720 C   0  0  0  0  0  0  0  0  0  0  0  0
  -24.6210  -11.7370   20.8380 C   0  0  0  0  0  0  0  0  0  0  0  0
  -26.2680  -12.9890   20.2710 N   0  0  0  0  0  0  0  0  0  0  0  0
  -25.9110  -11.7030   20.5270 N   0  0  0  0  0  0  0  0  0  0  0  0
  -23.8960  -10.4710   21.0300 C   0  0  0  0  0  0  0  0  0  0  0  0
  -24.3340   -9.5060   21.9620 C   0  0  0  0  0  3  0  0  0  0  0  0
  -23.6090   -8.3080   22.1450 C   0  0  0  0  0  3  0  0  0  0  0  0
  -22.4340   -8.0660   21.3940 C   0  0  0  0  0  0  0  0  0  0  0  0
  -22.0160   -9.0190   20.4500 C   0  0  0  0  0  3  0  0  0  0  0  0
  -22.7390  -10.2110   20.2660 C   0  0  0  0  0  3  0  0  0  0  0  0
  -21.6840   -6.9180   21.4840 O   0  0  0  0  0  0  0  0  0  0  0  0
  -21.6370   -6.1790   22.6380 C   0  0  0  0  0  0  0  0  0  0  0  0
  -21.1870   -6.7260   23.8590 C   0  0  0  0  0  3  0  0  0  0  0  0
  -21.0900   -5.9100   25.0040 C   0  0  0  0  0  3  0  0  0  0  0  0
  -21.4310   -4.5460   24.9280 C   0  0  0  0  0  0  0  0  0  0  0  0
  -21.8730   -3.9990   23.7110 C   0  0  0  0  0  3  0  0  0  0  0  0
  -21.9730   -4.8110   22.5690 C   0  0  0  0  0  0  0  0  0  0  0  0
  -22.3770   -4.2730   21.3930 F   0  0  0  0  0  0  0  0  0  0  0  0
  -21.3320   -3.7600   26.0250 F   0  0  0  0  0  0  0  0  0  0  0  0
  -22.7570  -13.5580   21.1530 C   0  0  0  0  0  0  0  0  0  0  0  0
  -22.0390  -12.8600   22.0280 N   0  0  0  0  0  0  0  0  0  0  0  0
  -22.3110  -14.5810   20.6360 O   0  0  0  0  0  0  0  0  0  0  0  0
  -22.4140  -12.0380   22.4760 H   0  0  0  0  0  0  0  0  0  0  0  0
  -21.1010  -13.1580   22.2560 H   0  0  0  0  0  0  0  0  0  0  0  0
  -25.3710  -15.2350   20.3180 N   0  0  0  0  0  0  0  0  0  0  0  0
  -24.5960  -15.8810   20.4320 H   0  0  0  0  0  0  0  0  0  0  0  0
  -26.2200  -15.6920   20.0060 H   0  0  0  0  0  0  0  0  0  0  0  0
  1  3  2  0
  2  1  1  0
  2  4  2  0
  3 50  1  0
  3  5  1  0
  4  7  1  0
  4  5  1  0
  7  6  1  0
  8  9  1  0
  8  7  1  0
 10 21  2  0
 11  9  1  0
 11 16  1  0
 12 20  1  0
 12 22  1  0
 13 19  1  0
 13 15  1  0
 14 20  1  0
 15 14  1  0
 16 15  2  0
 17 18  1  0
 17 11  2  0
 18 13  2  0
 19 12  1  0
 20 10  1  0
 22 24  2  0
 23 22  1  0
 25 23  1  0
 26 35  2  0
 26 31  1  0
 27 23  1  0
 27 31  1  0
 28 27  1  0
 29 30  1  0
 29 28  1  0
 30 26  1  0
 31 32  2  0
 32 33  1  0
 34 33  2  0
 35 34  1  0
 36 10  1  0
 36 37  1  0
 36 46  1  0
 37 40  1  0
 38 42  1  0
 38 37  1  0
 39 38  2  0
 42 41  1  0
 44 42  1  0
 44 45  1  0
 44 43  1  0
 46 49  1  1
 46 47  1  0
 48 46  1  0
 50 51  1  0
 51 52  1  0
 53 61  1  0
 54 59  1  0
 55 56  1  0
 55 54  1  0
 57 56  1  0
 57 66  1  0
 57 58  1  0
 59 53  1  0
 59 58  1  0
 60 53  2  0
 61 52  1  0
 61 62  1  0
 63 64  2  0
 64 83  1  0
 65 64  1  0
 65 68  1  0
 66 63  1  0
 66 67  1  0
 67 65  2  0
 68 69  1  0
 69 70  2  0
 71 74  1  0
 71 70  1  0
 72 71  2  0
 73 72  1  0
 73 68  2  0
 74 75  1  0
 75 76  1  0
 76 77  2  0
 78 77  1  0
 78 82  1  0
 79 78  2  0
 80 75  2  0
 80 79  1  0
 81 80  1  0
 83 84  1  0
 84 87  1  0
 84 86  1  0
 85 83  2  0
 88 89  1  0
 88 63  1  0
 90 88  1  0
M  ISO  4   8 101   9 101  53 100  61 100
M  END
>  <TORSDO>  (31) 
F 21

>  <SCORE>  (31) 
-13.520

>  <name>  (31) 
30

>  <ligand_id>  (31) 
30

>  <original_smiles>  (31) 
[H]c1c(C([H])([H])C([H])([H])C([H])([H])N([H])C(=O)N2C([H])([H])C([H])([H])C([H])([H])C([H])(n3nc(-c4c([H])c([H])c(Oc5c([H])c([H])c(F)c([H])c5F)c([H])c4[H])c(C(=O)N([H])[H])c3N([H])[H])C2([H])[H])sc(C([H])(C([H])([H])[H])C([H])([H])Oc2c([H])c([H])c3c(c2[H])C([H])([H])N(C(=O)C([H])(N([H])C(=O)C([H])(N([H])C([H])([H])[H])C([H])([H])[H])C(C([H])([H])[H])(C([H])([H])[H])C([H])([H])[H])C([H])(C(=O)N([H])C2([H])c4c([H])c([H])c([H])c([H])c4C([H])([H])C([H])([H])C2([H])[H])C3([H])[H])c1[H]

>  <smiles>  (31) 
[H]c1c(C([H])([H])C([H])([H])C([H])([H])N([H])C(=O)N2C([H])([H])C([H])([H])C([H])([H])C([H])(n3nc(-c4c([H])c([H])c(Oc5c([H])c([H])c(F)c([H])c5F)c([H])c4[H])c(C(=O)N([H])[H])c3N([H])[H])C2([H])[H])sc(C([H])(C([H])([H])[H])C([H])([H])Oc2c([H])c([H])c3c(c2[H])C([H])([H])N(C(=O)C([H])(N([H])C(=O)C([H])(N([H])C([H])([H])[H])C([H])([H])[H])C(C([H])([H])[H])(C([H])([H])[H])C([H])([H])[H])C([H])(C(=O)N([H])C2([H])c4c([H])c([H])c([H])c([H])c4C([H])([H])C([H])([H])C2([H])[H])C3([H])[H])c1[H]

$$$$
31:0:0
     RDKit          3D

101110  0  0  1  0  0  0  0  0999 V2000
  -27.9940  -23.0960   23.3130 C   0  0  0  0  0  3  0  0  0  0  0  0
  -28.7180  -21.9950   22.8400 C   0  0  0  0  0  3  0  0  0  0  0  0
  -27.9580  -22.4740   20.5850 C   0  0  0  0  0  3  0  0  0  0  0  0
  -27.3980  -23.9910   22.3980 C   0  0  0  0  0  0  0  0  0  0  0  0
  -28.8280  -21.7760   21.4490 C   0  0  0  0  0  0  0  0  0  0  0  0
  -27.2570  -23.6060   21.0400 C   0  0  0  0  0  0  0  0  0  0  0  0
  -26.5680  -24.4780   19.9990 C   0  0  0  0  0  1  0  0  0  0  0  0
  -30.8010  -20.1560   21.9180 C   0  0  0  0  0  2  0  0  0  0  0  0
  -29.7890  -20.2570   19.5600 C   0  0  0  0  0  2  0  0  0  0  0  0
  -32.1080  -19.6440   21.2960 C   0  0  0  0  0  2  0  0  0  0  0  0
  -31.1060  -19.6900   18.9970 C   0  0  0  0  0  2  0  0  0  0  0  0
  -30.0310  -21.0140   20.8910 C   0  0  0  0  0  3  0  0  0  0  0  0
  -31.8380  -18.8160   20.0270 C   0  0  0  0  0  3  0  0  0  0  0  0
  -31.0490  -17.6030   20.3060 N   0  0  0  0  0  4  0  0  0  0  0  0
  -31.1070  -17.0280   19.4780 H   0  0  0  0  0  0  0  0  0  0  0  0
  -30.0830  -17.8520   20.4510 H   0  0  0  0  0  0  0  0  0  0  0  0
  -31.5200  -16.7850   21.4480 C   0  0  0  0  0  2  0  0  0  0  0  0
  -30.7970  -15.4340   21.5150 C   0  0  0  0  0  2  0  0  0  0  0  0
  -30.9070  -14.6580   20.1970 C   0  0  0  0  0  0  0  0  0  0  0  0
  -30.5320  -12.5470   19.0000 C   0  0  0  0  0  2  0  0  0  0  0  0
  -29.5430  -12.6460   17.8280 C   0  0  0  0  0  2  0  0  0  0  0  0
  -28.1020  -12.4480   18.3260 C   0  0  0  0  0  2  0  0  0  0  0  0
  -27.7670  -13.3770   19.5200 C   0  0  0  0  0  3  0  0  0  0  0  0
  -28.8520  -13.2620   20.6160 C   0  0  0  0  0  2  0  0  0  0  0  0
  -30.1640  -13.5450   20.0110 N   0  0  0  0  0  0  0  0  0  0  0  0
  -31.7540  -15.0340   19.3790 O   0  0  0  0  0  0  0  0  0  0  0  0
  -25.3950  -13.9730   20.3350 C   0  0  0  0  0  0  0  0  0  0  0  0
  -24.3480  -13.1870   20.7420 C   0  0  0  0  0  0  0  0  0  0  0  0
  -24.8180  -11.8410   20.6740 C   0  0  0  0  0  0  0  0  0  0  0  0
  -26.4350  -13.0990   20.0510 N   0  0  0  0  0  0  0  0  0  0  0  0
  -26.0910  -11.8120   20.3090 N   0  0  0  0  0  0  0  0  0  0  0  0
  -24.1130  -10.5680   20.8770 C   0  0  0  0  0  0  0  0  0  0  0  0
  -24.5510   -9.6250   21.8330 C   0  0  0  0  0  3  0  0  0  0  0  0
  -23.8470   -8.4160   22.0210 C   0  0  0  0  0  3  0  0  0  0  0  0
  -22.6900   -8.1430   21.2510 C   0  0  0  0  0  0  0  0  0  0  0  0
  -22.2720   -9.0750   20.2850 C   0  0  0  0  0  3  0  0  0  0  0  0
  -22.9780  -10.2750   20.0960 C   0  0  0  0  0  3  0  0  0  0  0  0
  -21.9560   -6.9870   21.3490 O   0  0  0  0  0  0  0  0  0  0  0  0
  -21.8270   -6.3150   22.5370 C   0  0  0  0  0  0  0  0  0  0  0  0
  -21.3150   -6.9400   23.6950 C   0  0  0  0  0  3  0  0  0  0  0  0
  -21.1330   -6.1950   24.8750 C   0  0  0  0  0  3  0  0  0  0  0  0
  -21.4520   -4.8230   24.9000 C   0  0  0  0  0  0  0  0  0  0  0  0
  -21.9550   -4.1970   23.7470 C   0  0  0  0  0  3  0  0  0  0  0  0
  -22.1380   -4.9400   22.5680 C   0  0  0  0  0  0  0  0  0  0  0  0
  -22.6060   -4.3280   21.4520 F   0  0  0  0  0  0  0  0  0  0  0  0
  -21.2690   -4.1040   26.0310 F   0  0  0  0  0  0  0  0  0  0  0  0
  -22.9610  -13.6500   21.0820 C   0  0  0  0  0  0  0  0  0  0  0  0
  -22.2880  -12.9480   21.9890 N   0  0  0  0  0  0  0  0  0  0  0  0
  -22.4820  -14.6630   20.5790 O   0  0  0  0  0  0  0  0  0  0  0  0
  -22.6890  -12.1270   22.4170 H   0  0  0  0  0  0  0  0  0  0  0  0
  -21.3590  -13.2380   22.2610 H   0  0  0  0  0  0  0  0  0  0  0  0
  -25.5470  -15.3450   20.1670 N   0  0  0  0  0  0  0  0  0  0  0  0
  -24.7900  -16.0040   20.3160 H   0  0  0  0  0  0  0  0  0  0  0  0
  -26.3840  -15.7830   19.8020 H   0  0  0  0  0  0  0  0  0  0  0  0
  -27.2630  -25.4240   22.8060 C   0  0  0  0  0  0  0  0  0  0  0  0
  -28.4770  -25.9350   23.0440 N   0  0  0  0  0  0  0  0  0  0  0  0
  -26.2400  -26.0920   22.6580 O   0  0  0  0  0  0  0  0  0  0  0  0
  -29.1680  -25.2240   23.2400 H   0  0  0  0  0  0  0  0  0  0  0  0
  -28.9990  -27.0810   22.3170 C   0  0  0  0  0  2  0  0  0  0  0  0
  -29.5100  -26.6320   20.9000 C   0  0  0  0  0  2  0  0  0  0  0  0
  -29.4620  -27.6050   19.8460 O   0  0  0  0  0  0  0  0  0  0  0  0
  -24.7240  -31.5340   23.1660 C   0  0  0  0  0  0  0  0  0  0  0  0
  -28.2070  -28.1250   19.7150 C   0  0  0  0  0  0  0  0  0  0  0  0
  -23.8300  -30.1010   21.3550 C   0  0  0  0  0  3  0  0  0  0  0  0
  -25.5630  -29.0600   19.8030 C   0  0  0  0  0  0  0  0  0  0  0  0
  -26.2150  -31.0020   21.2500 C   0  0  0  0  0  2  0  0  0  0  0  0
  -26.5790  -29.7700   20.4560 C   0  0  0  0  0  0  0  0  0  0  0  0
  -27.9110  -29.3290   20.3790 C   0  0  0  0  0  3  0  0  0  0  0  0
  -27.1870  -27.4060   19.0590 C   0  0  0  0  0  3  0  0  0  0  0  0
  -25.8610  -27.8850   19.0860 C   0  0  0  0  0  3  0  0  0  0  0  0
  -24.1700  -29.6310   19.9150 C   0  0  0  0  0  2  0  0  0  0  0  0
  -24.9380  -30.8890   21.9860 N   0  0  0  0  0  0  0  0  0  0  0  0
  -23.6100  -31.5210   23.7100 O   0  0  0  0  0  0  0  0  0  0  0  0
  -23.4050  -28.8700   22.1880 C   0  0  0  0  0  0  0  0  0  0  0  0
  -22.1690  -28.3970   21.9640 N   0  0  0  0  0  0  0  0  0  0  0  0
  -24.1810  -28.3520   22.9940 O   0  0  0  0  0  0  0  0  0  0  0  0
  -21.5860  -28.8940   21.3080 H   0  0  0  0  0  0  0  0  0  0  0  0
  -19.1740  -26.3870   22.0840 C   0  0  0  0  0  0  0  0  0  0  0  0
  -21.5620  -27.2300   22.6000 C   0  0  0  0  0  3  0  0  0  0  0  0
  -22.0480  -25.9140   21.9490 C   0  0  0  0  0  2  0  0  0  0  0  0
  -21.1440  -25.4270   20.8160 C   0  0  0  0  0  2  0  0  0  0  0  0
  -19.7210  -25.1890   21.3290 C   0  0  0  0  0  2  0  0  0  0  0  0
  -20.0380  -27.3580   22.6600 C   0  0  0  0  0  0  0  0  0  0  0  0
  -19.4750  -28.4800   23.3030 C   0  0  0  0  0  3  0  0  0  0  0  0
  -18.0800  -28.6410   23.3800 C   0  0  0  0  0  3  0  0  0  0  0  0
  -17.2300  -27.6700   22.8250 C   0  0  0  0  0  3  0  0  0  0  0  0
  -17.7760  -26.5450   22.1820 C   0  0  0  0  0  3  0  0  0  0  0  0
  -25.8600  -32.3380   23.8750 C   0  0  0  0  0  3  0  0  0  0  0  0
  -25.3270  -33.6710   24.1810 N   0  0  0  0  0  0  0  0  0  0  0  0
  -25.5760  -34.7720   23.4600 C   0  0  0  0  0  0  0  0  0  0  0  0
  -26.3470  -34.7810   22.4970 O   0  0  0  0  0  0  0  0  0  0  0  0
  -24.6490  -33.7220   24.9250 H   0  0  0  0  0  0  0  0  0  0  0  0
  -23.6540  -36.3100   22.9360 C   0  0  0  0  0  1  0  0  0  0  0  0
  -24.8540  -36.0710   23.8680 C   0  0  0  0  0  3  0  0  0  0  0  0
  -26.7600  -37.2200   24.9070 C   0  0  0  0  0  1  0  0  0  0  0  0
  -25.7330  -37.2610   23.8700 N   0  0  0  0  0  0  0  0  0  0  0  0
  -25.1890  -38.1090   23.9990 H   0  0  0  0  0  0  0  0  0  0  0  0
  -26.3890  -31.6360   25.1870 C   0  0  1  0  0  0  0  0  0  0  0  0
  -25.2670  -31.2090   26.1620 C   0  0  0  0  0  1  0  0  0  0  0  0
  -27.2140  -30.3780   24.8320 C   0  0  0  0  0  1  0  0  0  0  0  0
  -27.3390  -32.5930   25.9470 C   0  0  0  0  0  1  0  0  0  0  0  0
  2  1  1  0
  3  6  2  0
  3  5  1  0
  4 55  1  0
  4  1  2  0
  5  2  2  0
  6  4  1  0
  7  6  1  0
  9 12  1  0
 10  8  1  0
 11  9  1  0
 11 13  1  0
 12  5  1  0
 12  8  1  0
 13 14  1  0
 13 10  1  0
 14 16  1  0
 14 17  1  0
 15 14  1  0
 17 18  1  0
 19 18  1  0
 20 25  1  0
 21 22  1  0
 21 20  1  0
 23 22  1  0
 23 30  1  0
 23 24  1  0
 25 19  1  0
 25 24  1  0
 26 19  2  0
 27 28  2  0
 28 47  1  0
 29 28  1  0
 29 32  1  0
 30 31  1  0
 30 27  1  0
 31 29  2  0
 32 33  1  0
 33 34  2  0
 35 38  1  0
 35 34  1  0
 36 35  2  0
 37 36  1  0
 37 32  2  0
 38 39  1  0
 39 44  2  0
 39 40  1  0
 40 41  2  0
 41 42  1  0
 42 46  1  0
 43 42  2  0
 44 43  1  0
 45 44  1  0
 47 48  1  0
 48 51  1  0
 48 50  1  0
 49 47  2  0
 52 53  1  0
 52 27  1  0
 54 52  1  0
 55 56  1  0
 56 58  1  0
 57 55  2  0
 59 56  1  0
 60 59  1  0
 61 60  1  0
 62 73  2  0
 63 61  1  0
 63 68  1  0
 64 72  1  0
 64 74  1  0
 65 71  1  0
 65 67  1  0
 66 72  1  0
 67 66  1  0
 68 67  2  0
 69 70  1  0
 69 63  2  0
 70 65  2  0
 71 64  1  0
 72 62  1  0
 74 76  2  0
 75 74  1  0
 77 75  1  0
 78 87  2  0
 78 83  1  0
 79 75  1  0
 79 83  1  0
 80 79  1  0
 81 82  1  0
 81 80  1  0
 82 78  1  0
 83 84  2  0
 84 85  1  0
 86 85  2  0
 87 86  1  0
 88 62  1  0
 88 89  1  0
 88 98  1  0
 89 92  1  0
 90 94  1  0
 90 89  1  0
 91 90  2  0
 94 93  1  0
 94 96  1  0
 96 97  1  0
 96 95  1  0
 98101  1  1
 98 99  1  0
100 98  1  0
M  ISO  4  18 100  19 100  60 101  61 101
M  END
>  <TORSDO>  (32) 
F 23

>  <SCORE>  (32) 
-8.087

>  <name>  (32) 
31

>  <ligand_id>  (32) 
31

>  <original_smiles>  (32) 
[H]c1c([H])c([H])c2c(c1[H])C([H])([H])C([H])([H])C([H])([H])C2([H])N([H])C(=O)C1([H])N(C(=O)C([H])(N([H])C(=O)C([H])(N([H])C([H])([H])[H])C([H])([H])[H])C(C([H])([H])[H])(C([H])([H])[H])C([H])([H])[H])C([H])([H])c2c([H])c(OC([H])([H])C([H])([H])N([H])C(=O)c3c([H])c([H])c(C4([H])C([H])([H])C([H])([H])C([H])([N+]([H])([H])C([H])([H])C([H])([H])C(=O)N5C([H])([H])C([H])([H])C([H])([H])C([H])(n6nc(-c7c([H])c([H])c(Oc8c([H])c([H])c(F)c([H])c8F)c([H])c7[H])c(C(=O)N([H])[H])c6N([H])[H])C5([H])[H])C([H])([H])C4([H])[H])c([H])c3C([H])([H])[H])c([H])c([H])c2C1([H])[H]

>  <smiles>  (32) 
[H]c1c([H])c([H])c2c(c1[H])C([H])([H])C([H])([H])C([H])([H])C2([H])N([H])C(=O)C1([H])N(C(=O)C([H])(N([H])C(=O)C([H])(N([H])C([H])([H])[H])C([H])([H])[H])C(C([H])([H])[H])(C([H])([H])[H])C([H])([H])[H])C([H])([H])c2c([H])c(OC([H])([H])C([H])([H])N([H])C(=O)c3c([H])c([H])c(C4([H])C([H])([H])C([H])([H])C([H])([N+]([H])([H])C([H])([H])C([H])([H])C(=O)N5C([H])([H])C([H])([H])C([H])([H])C([H])(n6nc(-c7c([H])c([H])c(Oc8c([H])c([H])c(F)c([H])c8F)c([H])c7[H])c(C(=O)N([H])[H])c6N([H])[H])C5([H])[H])C([H])([H])C4([H])[H])c([H])c3C([H])([H])[H])c([H])c([H])c2C1([H])[H]

$$$$
32:0:0
     RDKit          3D

 95103  0  0  1  0  0  0  0  0999 V2000
  -28.6110  -25.5250   18.1190 C   0  0  0  0  0  3  0  0  0  0  0  0
  -29.0360  -24.4230   17.3600 C   0  0  0  0  0  0  0  0  0  0  0  0
  -29.6250  -23.2960   17.9920 C   0  0  0  0  0  0  0  0  0  0  0  0
  -29.7340  -23.2570   19.4150 C   0  0  0  0  0  0  0  0  0  0  0  0
  -29.2720  -24.3820   20.1690 C   0  0  0  0  0  0  0  0  0  0  0  0
  -28.7390  -25.5280   19.5160 C   0  0  0  0  0  0  0  0  0  0  0  0
  -28.8960  -24.5180   15.8500 C   0  0  0  0  0  1  0  0  0  0  0  0
  -30.1520  -22.1640   17.1090 C   0  0  0  0  0  1  0  0  0  0  0  0
  -29.3760  -24.3980   21.6890 C   0  0  0  0  0  1  0  0  0  0  0  0
  -28.4750  -26.6920   20.2100 O   0  0  0  0  0  0  0  0  0  0  0  0
  -24.5150  -31.7720   23.1600 C   0  0  0  0  0  0  0  0  0  0  0  0
  -27.2810  -27.3840   20.1200 C   0  0  0  0  0  0  0  0  0  0  0  0
  -23.3580  -30.3720   21.4810 C   0  0  0  0  0  3  0  0  0  0  0  0
  -24.8610  -28.8620   20.0730 C   0  0  0  0  0  0  0  0  0  0  0  0
  -25.8780  -30.7690   21.3290 C   0  0  0  0  0  2  0  0  0  0  0  0
  -25.9990  -29.4020   20.6850 C   0  0  0  0  0  0  0  0  0  0  0  0
  -27.2080  -28.6720   20.7040 C   0  0  0  0  0  3  0  0  0  0  0  0
  -26.1210  -26.8540   19.5080 C   0  0  0  0  0  3  0  0  0  0  0  0
  -24.9190  -27.5900   19.4790 C   0  0  0  0  0  3  0  0  0  0  0  0
  -23.6010  -29.7010   20.1020 C   0  0  0  0  0  2  0  0  0  0  0  0
  -24.6000  -30.9860   22.0500 N   0  0  0  0  0  0  0  0  0  0  0  0
  -23.4200  -32.0280   23.6800 O   0  0  0  0  0  0  0  0  0  0  0  0
  -22.6990  -29.3360   22.4190 C   0  0  0  0  0  0  0  0  0  0  0  0
  -21.3760  -29.1580   22.2750 N   0  0  0  0  0  0  0  0  0  0  0  0
  -23.3760  -28.6950   23.2260 O   0  0  0  0  0  0  0  0  0  0  0  0
  -20.8920  -29.7240   21.5920 H   0  0  0  0  0  0  0  0  0  0  0  0
  -17.9930  -27.9730   22.7270 C   0  0  0  0  0  0  0  0  0  0  0  0
  -20.5500  -28.2090   23.0210 C   0  0  0  0  0  3  0  0  0  0  0  0
  -20.6490  -26.7890   22.4160 C   0  0  0  0  0  2  0  0  0  0  0  0
  -19.5530  -26.4940   21.3880 C   0  0  0  0  0  2  0  0  0  0  0  0
  -18.1670  -26.6360   22.0250 C   0  0  0  0  0  2  0  0  0  0  0  0
  -19.1140  -28.7190   23.1790 C   0  0  0  0  0  0  0  0  0  0  0  0
  -18.8980  -29.9730   23.7910 C   0  0  0  0  0  3  0  0  0  0  0  0
  -17.5980  -30.4800   23.9570 C   0  0  0  0  0  3  0  0  0  0  0  0
  -16.4920  -29.7290   23.5210 C   0  0  0  0  0  3  0  0  0  0  0  0
  -16.6900  -28.4780   22.9110 C   0  0  0  0  0  3  0  0  0  0  0  0
  -25.7810  -32.4100   23.8130 C   0  0  0  0  0  3  0  0  0  0  0  0
  -25.4530  -33.8030   24.1450 N   0  0  0  0  0  0  0  0  0  0  0  0
  -25.7980  -34.8620   23.4010 C   0  0  0  0  0  0  0  0  0  0  0  0
  -26.4980  -34.7710   22.3890 O   0  0  0  0  0  0  0  0  0  0  0  0
  -24.8350  -33.9480   24.9300 H   0  0  0  0  0  0  0  0  0  0  0  0
  -24.0730  -36.6450   22.9930 C   0  0  0  0  0  1  0  0  0  0  0  0
  -25.2820  -36.2410   23.8520 C   0  0  0  0  0  3  0  0  0  0  0  0
  -27.3710  -37.1350   24.7840 C   0  0  0  0  0  1  0  0  0  0  0  0
  -26.3110  -37.3030   23.7930 N   0  0  0  0  0  0  0  0  0  0  0  0
  -25.8910  -38.2190   23.9330 H   0  0  0  0  0  0  0  0  0  0  0  0
  -26.2810  -31.6300   25.0900 C   0  0  1  0  0  0  0  0  0  0  0  0
  -25.1670  -31.3540   26.1270 C   0  0  0  0  0  1  0  0  0  0  0  0
  -26.8950  -30.2690   24.6870 C   0  0  0  0  0  1  0  0  0  0  0  0
  -27.4010  -32.4330   25.7950 C   0  0  0  0  0  1  0  0  0  0  0  0
  -30.4480  -22.0760   20.1220 C   0  0  0  0  0  2  0  0  0  0  0  0
  -29.6690  -20.7320   20.2300 C   0  0  0  0  0  2  0  0  0  0  0  0
  -30.6700  -19.8850   22.4360 C   0  0  0  0  0  1  0  0  0  0  0  0
  -30.4960  -19.6050   20.9300 C   0  0  0  0  0  3  0  0  0  0  0  0
  -29.9110  -18.2450   20.7580 N   0  0  0  0  0  4  0  0  0  0  0  0
  -29.2270  -18.1160   21.4870 H   0  0  0  0  0  0  0  0  0  0  0  0
  -29.4240  -18.2040   19.8750 H   0  0  0  0  0  0  0  0  0  0  0  0
  -30.9080  -17.1280   20.7930 C   0  0  0  0  0  2  0  0  0  0  0  0
  -30.2840  -15.7200   20.9950 C   0  0  0  0  0  2  0  0  0  0  0  0
  -31.0830  -14.5060   20.4420 C   0  0  0  0  0  0  0  0  0  0  0  0
  -30.8140  -12.3170   19.3170 C   0  0  0  0  0  2  0  0  0  0  0  0
  -29.8860  -12.5260   18.0990 C   0  0  0  0  0  2  0  0  0  0  0  0
  -28.3950  -12.4540   18.5000 C   0  0  0  0  0  2  0  0  0  0  0  0
  -28.0660  -13.3150   19.7470 C   0  0  0  0  0  3  0  0  0  0  0  0
  -29.0960  -13.0520   20.8690 C   0  0  0  0  0  2  0  0  0  0  0  0
  -30.4370  -13.3150   20.3270 N   0  0  0  0  0  0  0  0  0  0  0  0
  -32.2270  -14.6740   20.0030 O   0  0  0  0  0  0  0  0  0  0  0  0
  -25.6940  -14.0460   20.4400 C   0  0  0  0  0  0  0  0  0  0  0  0
  -24.5860  -13.3230   20.8000 C   0  0  0  0  0  0  0  0  0  0  0  0
  -24.9860  -11.9530   20.7720 C   0  0  0  0  0  0  0  0  0  0  0  0
  -26.6970  -13.1140   20.2140 N   0  0  0  0  0  0  0  0  0  0  0  0
  -26.2750  -11.8520   20.4730 N   0  0  0  0  0  0  0  0  0  0  0  0
  -24.2020  -10.7250   20.9530 C   0  0  0  0  0  0  0  0  0  0  0  0
  -24.5800   -9.7440   21.8960 C   0  0  0  0  0  3  0  0  0  0  0  0
  -23.8020   -8.5780   22.0660 C   0  0  0  0  0  3  0  0  0  0  0  0
  -22.6330   -8.3880   21.2900 C   0  0  0  0  0  0  0  0  0  0  0  0
  -22.2770   -9.3560   20.3340 C   0  0  0  0  0  3  0  0  0  0  0  0
  -23.0560  -10.5140   20.1630 C   0  0  0  0  0  3  0  0  0  0  0  0
  -21.8270   -7.2780   21.3690 O   0  0  0  0  0  0  0  0  0  0  0  0
  -21.6960   -6.5660   22.5330 C   0  0  0  0  0  0  0  0  0  0  0  0
  -21.2300   -7.1650   23.7240 C   0  0  0  0  0  3  0  0  0  0  0  0
  -21.0450   -6.3800   24.8800 C   0  0  0  0  0  3  0  0  0  0  0  0
  -21.3150   -5.0000   24.8440 C   0  0  0  0  0  0  0  0  0  0  0  0
  -21.7750   -4.4020   23.6570 C   0  0  0  0  0  3  0  0  0  0  0  0
  -21.9640   -5.1830   22.5030 C   0  0  0  0  0  0  0  0  0  0  0  0
  -22.3850   -4.5970   21.3570 F   0  0  0  0  0  0  0  0  0  0  0  0
  -21.1280   -4.2440   25.9520 F   0  0  0  0  0  0  0  0  0  0  0  0
  -23.2090  -13.8610   21.0590 C   0  0  0  0  0  0  0  0  0  0  0  0
  -22.4540  -13.2150   21.9430 N   0  0  0  0  0  0  0  0  0  0  0  0
  -22.8090  -14.8890   20.5130 O   0  0  0  0  0  0  0  0  0  0  0  0
  -22.7890  -12.3840   22.4070 H   0  0  0  0  0  0  0  0  0  0  0  0
  -21.5270  -13.5590   22.1560 H   0  0  0  0  0  0  0  0  0  0  0  0
  -25.9160  -15.4070   20.2660 N   0  0  0  0  0  0  0  0  0  0  0  0
  -25.1670  -16.0840   20.3660 H   0  0  0  0  0  0  0  0  0  0  0  0
  -26.7590  -15.8110   19.8790 H   0  0  0  0  0  0  0  0  0  0  0  0
  1  6  1  0
  2  3  1  0
  2  1  2  0
  3  4  2  0
  4 51  1  0
  4  5  1  0
  5  9  1  0
  6  5  2  0
  6 10  1  0
  7  2  1  0
  8  3  1  0
 11 22  2  0
 12 10  1  0
 12 17  1  0
 13 21  1  0
 13 23  1  0
 14 20  1  0
 14 16  1  0
 15 21  1  0
 16 17  2  0
 16 15  1  0
 18 12  2  0
 19 18  1  0
 19 14  2  0
 20 13  1  0
 21 11  1  0
 23 25  2  0
 24 23  1  0
 26 24  1  0
 27 36  2  0
 27 32  1  0
 28 24  1  0
 28 32  1  0
 29 28  1  0
 30 31  1  0
 30 29  1  0
 31 27  1  0
 32 33  2  0
 33 34  1  0
 35 34  2  0
 36 35  1  0
 37 11  1  0
 37 38  1  0
 37 47  1  0
 38 41  1  0
 39 43  1  0
 39 38  1  0
 40 39  2  0
 43 42  1  0
 45 43  1  0
 45 46  1  0
 45 44  1  0
 47 50  1  1
 47 48  1  0
 49 47  1  0
 51 52  1  0
 52 54  1  0
 54 53  1  0
 55 58  1  0
 55 54  1  0
 55 56  1  0
 57 55  1  0
 58 59  1  0
 60 59  1  0
 61 66  1  0
 62 63  1  0
 62 61  1  0
 64 63  1  0
 64 71  1  0
 64 65  1  0
 66 60  1  0
 66 65  1  0
 67 60  2  0
 68 69  2  0
 69 88  1  0
 70 69  1  0
 70 73  1  0
 71 68  1  0
 71 72  1  0
 72 70  2  0
 73 74  1  0
 74 75  2  0
 76 79  1  0
 76 75  1  0
 77 76  2  0
 78 77  1  0
 78 73  2  0
 79 80  1  0
 80 81  1  0
 81 82  2  0
 83 82  1  0
 83 87  1  0
 84 83  2  0
 85 80  2  0
 85 84  1  0
 86 85  1  0
 88 89  1  0
 89 92  1  0
 89 91  1  0
 90 88  2  0
 93 94  1  0
 93 68  1  0
 95 93  1  0
M  ISO  4   6 101  10 101  59 100  60 100
M  END
>  <TORSDO>  (33) 
F 22

>  <SCORE>  (33) 
-12.805

>  <name>  (33) 
32

>  <ligand_id>  (33) 
32

>  <original_smiles>  (33) 
[H]c1c([H])c([H])c2c(c1[H])C([H])([H])C([H])([H])C([H])([H])C2([H])N([H])C(=O)C1([H])N(C(=O)C([H])(N([H])C(=O)C([H])(N([H])C([H])([H])[H])C([H])([H])[H])C(C([H])([H])[H])(C([H])([H])[H])C([H])([H])[H])C([H])([H])c2c([H])c(Oc3c([H])c(C([H])([H])[H])c(C([H])([H])[H])c(C([H])([H])C([H])([H])C([H])(C([H])([H])[H])[N+]([H])([H])C([H])([H])C([H])([H])C(=O)N4C([H])([H])C([H])([H])C([H])([H])C([H])(n5nc(-c6c([H])c([H])c(Oc7c([H])c([H])c(F)c([H])c7F)c([H])c6[H])c(C(=O)N([H])[H])c5N([H])[H])C4([H])[H])c3C([H])([H])[H])c([H])c([H])c2C1([H])[H]

>  <smiles>  (33) 
[H]c1c([H])c([H])c2c(c1[H])C([H])([H])C([H])([H])C([H])([H])C2([H])N([H])C(=O)C1([H])N(C(=O)C([H])(N([H])C(=O)C([H])(N([H])C([H])([H])[H])C([H])([H])[H])C(C([H])([H])[H])(C([H])([H])[H])C([H])([H])[H])C([H])([H])c2c([H])c(Oc3c([H])c(C([H])([H])[H])c(C([H])([H])[H])c(C([H])([H])C([H])([H])C([H])(C([H])([H])[H])[N+]([H])([H])C([H])([H])C([H])([H])C(=O)N4C([H])([H])C([H])([H])C([H])([H])C([H])(n5nc(-c6c([H])c([H])c(Oc7c([H])c([H])c(F)c([H])c7F)c([H])c6[H])c(C(=O)N([H])[H])c5N([H])[H])C4([H])[H])c3C([H])([H])[H])c([H])c([H])c2C1([H])[H]

$$$$
33:0:0
     RDKit          3D

 91 99  0  0  1  0  0  0  0  0999 V2000
  -30.0540  -21.6420   20.4540 N   0  0  0  0  0  4  0  0  0  0  0  0
  -30.6870  -21.7020   19.6710 H   0  0  0  0  0  0  0  0  0  0  0  0
  -30.5600  -21.9660   21.2610 H   0  0  0  0  0  0  0  0  0  0  0  0
  -28.9810  -17.8770   19.7680 C   0  0  0  0  0  2  0  0  0  0  0  0
  -30.6770  -17.9190   21.6080 C   0  0  0  0  0  2  0  0  0  0  0  0
  -29.2490  -19.3900   19.4750 C   0  0  0  0  0  2  0  0  0  0  0  0
  -30.9490  -19.4230   21.3000 C   0  0  0  0  0  2  0  0  0  0  0  0
  -30.1980  -17.1210   20.3720 C   0  0  0  0  0  3  0  0  0  0  0  0
  -29.7250  -20.1900   20.7200 C   0  0  0  0  0  3  0  0  0  0  0  0
  -30.6370  -14.5970   20.4080 C   0  0  0  0  0  0  0  0  0  0  0  0
  -30.3660  -12.3810   19.3530 C   0  0  0  0  0  2  0  0  0  0  0  0
  -29.4270  -12.5400   18.1360 C   0  0  0  0  0  2  0  0  0  0  0  0
  -27.9550  -12.3920   18.5690 C   0  0  0  0  0  2  0  0  0  0  0  0
  -27.6030  -13.2570   19.8100 C   0  0  0  0  0  3  0  0  0  0  0  0
  -28.6630  -13.0980   20.9240 C   0  0  0  0  0  2  0  0  0  0  0  0
  -29.9780  -13.4020   20.3420 N   0  0  0  0  0  0  0  0  0  0  0  0
  -31.8020  -14.7220   20.0220 O   0  0  0  0  0  0  0  0  0  0  0  0
  -29.8780  -15.6930   20.6810 N   0  0  0  0  0  0  0  0  0  0  0  0
  -28.9330  -15.4960   20.9730 H   0  0  0  0  0  0  0  0  0  0  0  0
  -25.2080  -13.8580   20.5270 C   0  0  0  0  0  0  0  0  0  0  0  0
  -24.1390  -13.0850   20.8940 C   0  0  0  0  0  0  0  0  0  0  0  0
  -24.5990  -11.7330   20.8600 C   0  0  0  0  0  0  0  0  0  0  0  0
  -26.2520  -12.9780   20.2930 N   0  0  0  0  0  0  0  0  0  0  0  0
  -25.8900  -11.6940   20.5520 N   0  0  0  0  0  0  0  0  0  0  0  0
  -23.8710  -10.4710   21.0450 C   0  0  0  0  0  0  0  0  0  0  0  0
  -24.2930   -9.5060   21.9850 C   0  0  0  0  0  3  0  0  0  0  0  0
  -23.5660   -8.3090   22.1570 C   0  0  0  0  0  3  0  0  0  0  0  0
  -22.4030   -8.0670   21.3870 C   0  0  0  0  0  0  0  0  0  0  0  0
  -22.0010   -9.0210   20.4360 C   0  0  0  0  0  3  0  0  0  0  0  0
  -22.7290  -10.2100   20.2620 C   0  0  0  0  0  3  0  0  0  0  0  0
  -21.6470   -6.9230   21.4690 O   0  0  0  0  0  0  0  0  0  0  0  0
  -21.5720   -6.1910   22.6280 C   0  0  0  0  0  0  0  0  0  0  0  0
  -21.0800   -6.7460   23.8280 C   0  0  0  0  0  3  0  0  0  0  0  0
  -20.9540   -5.9390   24.9770 C   0  0  0  0  0  3  0  0  0  0  0  0
  -21.3120   -4.5780   24.9250 C   0  0  0  0  0  0  0  0  0  0  0  0
  -21.7970   -4.0230   23.7270 C   0  0  0  0  0  3  0  0  0  0  0  0
  -21.9240   -4.8270   22.5810 C   0  0  0  0  0  0  0  0  0  0  0  0
  -22.3730   -4.2820   21.4250 F   0  0  0  0  0  0  0  0  0  0  0  0
  -21.1840   -3.8000   26.0250 F   0  0  0  0  0  0  0  0  0  0  0  0
  -22.7430  -13.5640   21.1670 C   0  0  0  0  0  0  0  0  0  0  0  0
  -22.0110  -12.8650   22.0280 N   0  0  0  0  0  0  0  0  0  0  0  0
  -22.3060  -14.5920   20.6510 O   0  0  0  0  0  0  0  0  0  0  0  0
  -22.3740  -12.0310   22.4660 H   0  0  0  0  0  0  0  0  0  0  0  0
  -21.0740  -13.1680   22.2520 H   0  0  0  0  0  0  0  0  0  0  0  0
  -25.3730  -15.2280   20.3530 N   0  0  0  0  0  0  0  0  0  0  0  0
  -24.6000  -15.8780   20.4480 H   0  0  0  0  0  0  0  0  0  0  0  0
  -26.2140  -15.6650   19.9970 H   0  0  0  0  0  0  0  0  0  0  0  0
  -28.9260  -22.6180   20.2440 C   0  0  0  0  0  2  0  0  0  0  0  0
  -29.3140  -24.1520   20.3360 C   0  0  0  0  0  2  0  0  0  0  0  0
  -28.1610  -25.1460   19.9540 C   0  0  0  0  0  2  0  0  0  0  0  0
  -28.3460  -26.5780   20.2070 O   0  0  0  0  0  0  0  0  0  0  0  0
  -24.5640  -31.8920   23.2290 C   0  0  0  0  0  0  0  0  0  0  0  0
  -27.2040  -27.3850   20.1610 C   0  0  0  0  0  0  0  0  0  0  0  0
  -23.3670  -30.4950   21.5810 C   0  0  0  0  0  3  0  0  0  0  0  0
  -24.8240  -28.9590   20.1580 C   0  0  0  0  0  0  0  0  0  0  0  0
  -25.9040  -30.8280   21.4070 C   0  0  0  0  0  2  0  0  0  0  0  0
  -25.9870  -29.4560   20.7570 C   0  0  0  0  0  0  0  0  0  0  0  0
  -27.1790  -28.6790   20.7520 C   0  0  0  0  0  3  0  0  0  0  0  0
  -26.0150  -26.9320   19.5370 C   0  0  0  0  0  3  0  0  0  0  0  0
  -24.8370  -27.6980   19.5420 C   0  0  0  0  0  3  0  0  0  0  0  0
  -23.5830  -29.8230   20.2000 C   0  0  0  0  0  2  0  0  0  0  0  0
  -24.6300  -31.0880   22.1300 N   0  0  0  0  0  0  0  0  0  0  0  0
  -23.4790  -32.1680   23.7590 O   0  0  0  0  0  0  0  0  0  0  0  0
  -22.7020  -29.4770   22.5350 C   0  0  0  0  0  0  0  0  0  0  0  0
  -21.3770  -29.2990   22.3980 N   0  0  0  0  0  0  0  0  0  0  0  0
  -23.3760  -28.8470   23.3540 O   0  0  0  0  0  0  0  0  0  0  0  0
  -20.8950  -29.8590   21.7080 H   0  0  0  0  0  0  0  0  0  0  0  0
  -17.9880  -28.1340   22.8860 C   0  0  0  0  0  0  0  0  0  0  0  0
  -20.5500  -28.3620   23.1580 C   0  0  0  0  0  3  0  0  0  0  0  0
  -20.6370  -26.9360   22.5680 C   0  0  0  0  0  2  0  0  0  0  0  0
  -19.5300  -26.6350   21.5530 C   0  0  0  0  0  2  0  0  0  0  0  0
  -18.1490  -26.7870   22.1990 C   0  0  0  0  0  2  0  0  0  0  0  0
  -19.1160  -28.8790   23.3220 C   0  0  0  0  0  0  0  0  0  0  0  0
  -18.9120  -30.1390   23.9240 C   0  0  0  0  0  3  0  0  0  0  0  0
  -17.6140  -30.6540   24.0970 C   0  0  0  0  0  3  0  0  0  0  0  0
  -16.5000  -29.9040   23.6820 C   0  0  0  0  0  3  0  0  0  0  0  0
  -16.6880  -28.6470   23.0790 C   0  0  0  0  0  3  0  0  0  0  0  0
  -25.8460  -32.5190   23.8600 C   0  0  0  0  0  3  0  0  0  0  0  0
  -26.3480  -31.7460   25.1400 C   0  0  1  0  0  0  0  0  0  0  0  0
  -25.2450  -31.5080   26.1970 C   0  0  0  0  0  1  0  0  0  0  0  0
  -26.9350  -30.3700   24.7510 C   0  0  0  0  0  1  0  0  0  0  0  0
  -27.4920  -32.5390   25.8140 C   0  0  0  0  0  1  0  0  0  0  0  0
  -25.5400  -33.9190   24.1860 N   0  0  0  0  0  0  0  0  0  0  0  0
  -25.8720  -34.9690   23.4230 C   0  0  0  0  0  0  0  0  0  0  0  0
  -26.5410  -34.8600   22.3920 O   0  0  0  0  0  0  0  0  0  0  0  0
  -24.9510  -34.0770   24.9900 H   0  0  0  0  0  0  0  0  0  0  0  0
  -24.1490  -36.7620   23.0610 C   0  0  0  0  0  1  0  0  0  0  0  0
  -25.3880  -36.3590   23.8760 C   0  0  0  0  0  3  0  0  0  0  0  0
  -27.5180  -37.2440   24.7120 C   0  0  0  0  0  1  0  0  0  0  0  0
  -26.4220  -37.4100   23.7620 N   0  0  0  0  0  0  0  0  0  0  0  0
  -26.0170  -38.3320   23.9010 H   0  0  0  0  0  0  0  0  0  0  0  0
  1  3  1  0
  2  1  1  0
  4  8  1  0
  6  4  1  0
  6  9  1  0
  7  5  1  0
  8 18  1  0
  8  5  1  0
  9  1  1  0
  9  7  1  0
 10 18  1  0
 11 16  1  0
 12 13  1  0
 12 11  1  0
 14 13  1  0
 14 23  1  0
 14 15  1  0
 16 10  1  0
 16 15  1  0
 17 10  2  0
 18 19  1  0
 20 21  2  0
 21 40  1  0
 22 21  1  0
 22 25  1  0
 23 20  1  0
 23 24  1  0
 24 22  2  0
 25 26  1  0
 26 27  2  0
 28 31  1  0
 28 27  1  0
 29 28  2  0
 30 29  1  0
 30 25  2  0
 31 32  1  0
 32 33  1  0
 33 34  2  0
 35 34  1  0
 35 39  1  0
 36 35  2  0
 37 32  2  0
 37 36  1  0
 38 37  1  0
 40 41  1  0
 41 44  1  0
 41 43  1  0
 42 40  2  0
 45 46  1  0
 45 20  1  0
 47 45  1  0
 48 49  1  0
 48  1  1  0
 50 51  1  0
 50 49  1  0
 52 63  2  0
 53 51  1  0
 53 58  1  0
 54 62  1  0
 54 64  1  0
 55 61  1  0
 55 57  1  0
 56 62  1  0
 57 56  1  0
 58 57  2  0
 59 60  1  0
 59 53  2  0
 60 55  2  0
 61 54  1  0
 62 52  1  0
 64 66  2  0
 65 64  1  0
 67 65  1  0
 68 77  2  0
 68 73  1  0
 69 65  1  0
 69 73  1  0
 70 69  1  0
 71 72  1  0
 71 70  1  0
 72 68  1  0
 73 74  2  0
 74 75  1  0
 76 75  2  0
 77 76  1  0
 78 52  1  0
 78 83  1  0
 78 79  1  0
 79 82  1  1
 79 80  1  0
 81 79  1  0
 83 86  1  0
 84 88  1  0
 84 83  1  0
 85 84  2  0
 88 87  1  0
 90 88  1  0
 90 91  1  0
 90 89  1  0
M  ISO  4  10 100  18 100  50 101  51 101
M  END
>  <TORSDO>  (34) 
F 20

>  <SCORE>  (34) 
-13.908

>  <name>  (34) 
33

>  <ligand_id>  (34) 
33

>  <original_smiles>  (34) 
[H]c1c([H])c([H])c2c(c1[H])C([H])([H])C([H])([H])C([H])([H])C2([H])N([H])C(=O)C1([H])N(C(=O)C([H])(N([H])C(=O)C([H])(N([H])C([H])([H])[H])C([H])([H])[H])C(C([H])([H])[H])(C([H])([H])[H])C([H])([H])[H])C([H])([H])c2c([H])c(OC([H])([H])C([H])([H])C([H])([H])[N+]([H])([H])C3([H])C([H])([H])C([H])([H])C([H])(N([H])C(=O)N4C([H])([H])C([H])([H])C([H])([H])C([H])(n5nc(-c6c([H])c([H])c(Oc7c([H])c([H])c(F)c([H])c7F)c([H])c6[H])c(C(=O)N([H])[H])c5N([H])[H])C4([H])[H])C([H])([H])C3([H])[H])c([H])c([H])c2C1([H])[H]

>  <smiles>  (34) 
[H]c1c([H])c([H])c2c(c1[H])C([H])([H])C([H])([H])C([H])([H])C2([H])N([H])C(=O)C1([H])N(C(=O)C([H])(N([H])C(=O)C([H])(N([H])C([H])([H])[H])C([H])([H])[H])C(C([H])([H])[H])(C([H])([H])[H])C([H])([H])[H])C([H])([H])c2c([H])c(OC([H])([H])C([H])([H])C([H])([H])[N+]([H])([H])C3([H])C([H])([H])C([H])([H])C([H])(N([H])C(=O)N4C([H])([H])C([H])([H])C([H])([H])C([H])(n5nc(-c6c([H])c([H])c(Oc7c([H])c([H])c(F)c([H])c7F)c([H])c6[H])c(C(=O)N([H])[H])c5N([H])[H])C4([H])[H])C([H])([H])C3([H])[H])c([H])c([H])c2C1([H])[H]

$$$$
34:0:0
     RDKit          3D

 93102  0  0  1  0  0  0  0  0999 V2000
  -30.0200  -20.7030   21.1770 C   0  0  0  0  0  3  0  0  0  0  0  0
  -29.0340  -20.9160   18.9840 C   0  0  0  0  0  3  0  0  0  0  0  0
  -29.9690  -22.1110   21.3300 C   0  0  0  0  0  3  0  0  0  0  0  0
  -28.9910  -22.3220   19.1300 C   0  0  0  0  0  3  0  0  0  0  0  0
  -29.5590  -20.0670   19.9990 C   0  0  0  0  0  0  0  0  0  0  0  0
  -29.4600  -22.9450   20.3070 C   0  0  0  0  0  0  0  0  0  0  0  0
  -31.1250  -18.0100   19.7900 C   0  0  0  0  0  2  0  0  0  0  0  0
  -28.9320  -17.8050   21.0340 C   0  0  0  0  0  2  0  0  0  0  0  0
  -31.5400  -17.0310   20.9230 C   0  0  0  0  0  2  0  0  0  0  0  0
  -29.1480  -16.2660   21.0660 C   0  0  0  0  0  2  0  0  0  0  0  0
  -29.6450  -18.5120   19.8450 C   0  0  1  0  0  0  0  0  0  0  0  0
  -30.6310  -15.7620   21.1300 C   0  0  2  0  0  0  0  0  0  0  0  0
  -28.9590  -18.0560   18.5290 C   0  0  0  0  0  1  0  0  0  0  0  0
  -30.9790  -15.2410   22.5470 C   0  0  0  0  0  1  0  0  0  0  0  0
  -30.9660  -14.6120   20.0920 C   0  0  0  0  0  0  0  0  0  0  0  0
  -30.4710  -12.5380   18.8040 C   0  0  0  0  0  2  0  0  0  0  0  0
  -29.4570  -12.7940   17.6710 C   0  0  0  0  0  2  0  0  0  0  0  0
  -28.0180  -12.6270   18.1910 C   0  0  0  0  0  2  0  0  0  0  0  0
  -27.7760  -13.4250   19.4930 C   0  0  0  0  0  3  0  0  0  0  0  0
  -28.9020  -13.1790   20.5260 C   0  0  0  0  0  2  0  0  0  0  0  0
  -30.1960  -13.4930   19.9000 N   0  0  0  0  0  0  0  0  0  0  0  0
  -31.9920  -14.7570   19.4230 O   0  0  0  0  0  0  0  0  0  0  0  0
  -25.4680  -14.0760   20.4200 C   0  0  0  0  0  0  0  0  0  0  0  0
  -24.4030  -13.3190   20.8280 C   0  0  0  0  0  0  0  0  0  0  0  0
  -24.8160  -11.9570   20.6960 C   0  0  0  0  0  0  0  0  0  0  0  0
  -26.4580  -13.1730   20.0620 N   0  0  0  0  0  0  0  0  0  0  0  0
  -26.0760  -11.8920   20.2900 N   0  0  0  0  0  0  0  0  0  0  0  0
  -24.0650  -10.7100   20.8730 C   0  0  0  0  0  0  0  0  0  0  0  0
  -24.5270   -9.6860   21.7290 C   0  0  0  0  0  3  0  0  0  0  0  0
  -23.7800   -8.5000   21.8940 C   0  0  0  0  0  3  0  0  0  0  0  0
  -22.5560   -8.3320   21.2030 C   0  0  0  0  0  0  0  0  0  0  0  0
  -22.1120   -9.3450   20.3360 C   0  0  0  0  0  3  0  0  0  0  0  0
  -22.8600  -10.5210   20.1670 C   0  0  0  0  0  3  0  0  0  0  0  0
  -21.7750   -7.2040   21.2840 O   0  0  0  0  0  0  0  0  0  0  0  0
  -21.7650   -6.4150   22.4060 C   0  0  0  0  0  0  0  0  0  0  0  0
  -21.4440   -6.9330   23.6790 C   0  0  0  0  0  3  0  0  0  0  0  0
  -21.3780   -6.0730   24.7930 C   0  0  0  0  0  3  0  0  0  0  0  0
  -21.6210   -4.6950   24.6350 C   0  0  0  0  0  0  0  0  0  0  0  0
  -21.9370   -4.1760   23.3670 C   0  0  0  0  0  3  0  0  0  0  0  0
  -22.0050   -5.0340   22.2540 C   0  0  0  0  0  0  0  0  0  0  0  0
  -22.2880   -4.5260   21.0310 F   0  0  0  0  0  0  0  0  0  0  0  0
  -21.5500   -3.8660   25.7030 F   0  0  0  0  0  0  0  0  0  0  0  0
  -23.0460  -13.8220   21.2240 C   0  0  0  0  0  0  0  0  0  0  0  0
  -22.3630  -13.1090   22.1130 N   0  0  0  0  0  0  0  0  0  0  0  0
  -22.6010  -14.8800   20.7800 O   0  0  0  0  0  0  0  0  0  0  0  0
  -22.7360  -12.2520   22.4930 H   0  0  0  0  0  0  0  0  0  0  0  0
  -21.4550  -13.4280   22.4190 H   0  0  0  0  0  0  0  0  0  0  0  0
  -25.6660  -15.4480   20.3040 N   0  0  0  0  0  0  0  0  0  0  0  0
  -24.9340  -16.1190   20.5140 H   0  0  0  0  0  0  0  0  0  0  0  0
  -26.5110  -15.8800   19.9540 H   0  0  0  0  0  0  0  0  0  0  0  0
  -29.4930  -24.4830   20.4580 C   0  0  0  0  0  2  0  0  0  0  0  0
  -28.2310  -25.2670   20.0000 C   0  0  0  0  0  2  0  0  0  0  0  0
  -28.3430  -26.6950   20.2220 O   0  0  0  0  0  0  0  0  0  0  0  0
  -24.5720  -31.9510   23.2550 C   0  0  0  0  0  0  0  0  0  0  0  0
  -27.1780  -27.4510   20.1900 C   0  0  0  0  0  0  0  0  0  0  0  0
  -23.3540  -30.5460   21.6260 C   0  0  0  0  0  3  0  0  0  0  0  0
  -24.7920  -28.9940   20.2020 C   0  0  0  0  0  0  0  0  0  0  0  0
  -25.8830  -30.8840   21.4180 C   0  0  0  0  0  2  0  0  0  0  0  0
  -25.9590  -29.5080   20.7830 C   0  0  0  0  0  0  0  0  0  0  0  0
  -27.1530  -28.7450   20.7710 C   0  0  0  0  0  3  0  0  0  0  0  0
  -25.9890  -26.9650   19.5950 C   0  0  0  0  0  3  0  0  0  0  0  0
  -24.8040  -27.7240   19.6030 C   0  0  0  0  0  3  0  0  0  0  0  0
  -23.5550  -29.8620   20.2490 C   0  0  0  0  0  2  0  0  0  0  0  0
  -24.6210  -31.1430   22.1580 N   0  0  0  0  0  0  0  0  0  0  0  0
  -23.4940  -32.2330   23.7970 O   0  0  0  0  0  0  0  0  0  0  0  0
  -22.7000  -29.5320   22.5950 C   0  0  0  0  0  0  0  0  0  0  0  0
  -21.3760  -29.3510   22.4680 N   0  0  0  0  0  0  0  0  0  0  0  0
  -23.3820  -28.9140   23.4160 O   0  0  0  0  0  0  0  0  0  0  0  0
  -20.8870  -29.9040   21.7790 H   0  0  0  0  0  0  0  0  0  0  0  0
  -18.0010  -28.1560   22.9670 C   0  0  0  0  0  0  0  0  0  0  0  0
  -20.5570  -28.4190   23.2450 C   0  0  0  0  0  3  0  0  0  0  0  0
  -20.6640  -26.9830   22.6850 C   0  0  0  0  0  2  0  0  0  0  0  0
  -19.5660  -26.6490   21.6690 C   0  0  0  0  0  2  0  0  0  0  0  0
  -18.1820  -26.7990   22.3070 C   0  0  0  0  0  2  0  0  0  0  0  0
  -19.1170  -28.9230   23.3940 C   0  0  0  0  0  0  0  0  0  0  0  0
  -18.8960  -30.1940   23.9700 C   0  0  0  0  0  3  0  0  0  0  0  0
  -17.5900  -30.6950   24.1250 C   0  0  0  0  0  3  0  0  0  0  0  0
  -16.4880  -29.9250   23.7160 C   0  0  0  0  0  3  0  0  0  0  0  0
  -16.6940  -28.6570   23.1430 C   0  0  0  0  0  3  0  0  0  0  0  0
  -25.8630  -32.5810   23.8660 C   0  0  0  0  0  3  0  0  0  0  0  0
  -26.3870  -31.8090   25.1390 C   0  0  1  0  0  0  0  0  0  0  0  0
  -25.3000  -31.5730   26.2130 C   0  0  0  0  0  1  0  0  0  0  0  0
  -26.9680  -30.4310   24.7420 C   0  0  0  0  0  1  0  0  0  0  0  0
  -27.5420  -32.6030   25.7940 C   0  0  0  0  0  1  0  0  0  0  0  0
  -25.5600  -33.9800   24.1950 N   0  0  0  0  0  0  0  0  0  0  0  0
  -25.8830  -35.0290   23.4270 C   0  0  0  0  0  0  0  0  0  0  0  0
  -26.5410  -34.9200   22.3880 O   0  0  0  0  0  0  0  0  0  0  0  0
  -24.9760  -34.1390   25.0030 H   0  0  0  0  0  0  0  0  0  0  0  0
  -24.1450  -36.8170   23.0940 C   0  0  0  0  0  1  0  0  0  0  0  0
  -25.4020  -36.4190   23.8840 C   0  0  0  0  0  3  0  0  0  0  0  0
  -27.5520  -37.3110   24.6670 C   0  0  0  0  0  1  0  0  0  0  0  0
  -26.4300  -37.4740   23.7460 N   0  0  0  0  0  0  0  0  0  0  0  0
  -26.0260  -38.3930   23.9000 H   0  0  0  0  0  0  0  0  0  0  0  0
  1  3  1  0
  2  4  2  0
  2  5  1  0
  4  6  1  0
  5  1  2  0
  6 51  1  0
  6  3  2  0
  7 11  1  0
  7  9  1  0
  8 10  1  0
  9 12  1  0
 10 12  1  0
 11 13  1  6
 11  5  1  0
 11  8  1  0
 12 14  1  1
 15 12  1  0
 16 21  1  0
 17 18  1  0
 17 16  1  0
 19 18  1  0
 19 26  1  0
 19 20  1  0
 21 15  1  0
 21 20  1  0
 22 15  2  0
 23 24  2  0
 24 43  1  0
 25 24  1  0
 25 28  1  0
 26 27  1  0
 26 23  1  0
 27 25  2  0
 28 29  1  0
 29 30  2  0
 31 34  1  0
 31 30  1  0
 32 31  2  0
 33 32  1  0
 33 28  2  0
 34 35  1  0
 35 36  1  0
 36 37  2  0
 38 37  1  0
 38 42  1  0
 39 38  2  0
 40 35  2  0
 40 39  1  0
 41 40  1  0
 43 44  1  0
 44 47  1  0
 44 46  1  0
 45 43  2  0
 48 23  1  0
 48 49  1  0
 50 48  1  0
 52 53  1  0
 52 51  1  0
 54 65  2  0
 55 53  1  0
 55 60  1  0
 56 64  1  0
 56 66  1  0
 57 63  1  0
 57 59  1  0
 58 64  1  0
 59 58  1  0
 60 59  2  0
 61 62  1  0
 61 55  2  0
 62 57  2  0
 63 56  1  0
 64 54  1  0
 66 68  2  0
 67 66  1  0
 69 67  1  0
 70 79  2  0
 70 75  1  0
 71 67  1  0
 71 75  1  0
 72 71  1  0
 73 74  1  0
 73 72  1  0
 74 70  1  0
 75 76  2  0
 76 77  1  0
 78 77  2  0
 79 78  1  0
 80 54  1  0
 80 85  1  0
 80 81  1  0
 81 84  1  1
 81 82  1  0
 83 81  1  0
 85 88  1  0
 86 90  1  0
 86 85  1  0
 87 86  2  0
 90 89  1  0
 92 90  1  0
 92 93  1  0
 92 91  1  0
M  ISO  4  12 100  15 100  52 101  53 101
M  END
>  <TORSDO>  (35) 
F 19

>  <SCORE>  (35) 
-13.119

>  <name>  (35) 
34

>  <ligand_id>  (35) 
34

>  <original_smiles>  (35) 
[H]c1c([H])c([H])c2c(c1[H])C([H])([H])C([H])([H])C([H])([H])C2([H])N([H])C(=O)C1([H])N(C(=O)C([H])(N([H])C(=O)C([H])(N([H])C([H])([H])[H])C([H])([H])[H])C(C([H])([H])[H])(C([H])([H])[H])C([H])([H])[H])C([H])([H])c2c([H])c(OC([H])([H])C([H])([H])c3c([H])c([H])c(C4(C([H])([H])[H])C([H])([H])C([H])([H])C(C(=O)N5C([H])([H])C([H])([H])C([H])([H])C([H])(n6nc(-c7c([H])c([H])c(Oc8c([H])c([H])c(F)c([H])c8F)c([H])c7[H])c(C(=O)N([H])[H])c6N([H])[H])C5([H])[H])(C([H])([H])[H])C([H])([H])C4([H])[H])c([H])c3[H])c([H])c([H])c2C1([H])[H]

>  <smiles>  (35) 
[H]c1c([H])c([H])c2c(c1[H])C([H])([H])C([H])([H])C([H])([H])C2([H])N([H])C(=O)C1([H])N(C(=O)C([H])(N([H])C(=O)C([H])(N([H])C([H])([H])[H])C([H])([H])[H])C(C([H])([H])[H])(C([H])([H])[H])C([H])([H])[H])C([H])([H])c2c([H])c(OC([H])([H])C([H])([H])c3c([H])c([H])c(C4(C([H])([H])[H])C([H])([H])C([H])([H])C(C(=O)N5C([H])([H])C([H])([H])C([H])([H])C([H])(n6nc(-c7c([H])c([H])c(Oc8c([H])c([H])c(F)c([H])c8F)c([H])c7[H])c(C(=O)N([H])[H])c6N([H])[H])C5([H])[H])(C([H])([H])[H])C([H])([H])C4([H])[H])c([H])c3[H])c([H])c([H])c2C1([H])[H]

$$$$
35:0:0
     RDKit          3D

 93101  0  0  1  0  0  0  0  0999 V2000
  -30.7510  -25.0760   22.0920 C   0  0  0  0  0  3  0  0  0  0  0  0
  -30.4210  -25.7920   20.9040 C   0  0  0  0  0  0  0  0  0  0  0  0
  -29.6720  -24.8200   22.8960 C   0  0  0  0  0  0  0  0  0  0  0  0
  -29.0830  -26.0890   20.8250 C   0  0  0  0  0  0  0  0  0  0  0  0
  -31.4190  -26.1560   19.8470 C   0  0  0  0  0  1  0  0  0  0  0  0
  -28.2070  -25.4930   22.2180 S   0  0  0  0  0  0  0  0  0  0  0  0
  -28.4080  -26.6970   19.8200 O   0  0  0  0  0  0  0  0  0  0  0  0
  -24.5940  -31.7530   23.1440 C   0  0  0  0  0  0  0  0  0  0  0  0
  -27.2220  -27.3620   20.0070 C   0  0  0  0  0  0  0  0  0  0  0  0
  -23.3670  -30.3520   21.5120 C   0  0  0  0  0  3  0  0  0  0  0  0
  -24.8110  -28.8180   20.0750 C   0  0  0  0  0  0  0  0  0  0  0  0
  -25.8850  -30.7280   21.2790 C   0  0  0  0  0  2  0  0  0  0  0  0
  -25.9700  -29.3560   20.6480 C   0  0  0  0  0  0  0  0  0  0  0  0
  -27.1830  -28.6310   20.6180 C   0  0  0  0  0  3  0  0  0  0  0  0
  -26.0490  -26.8220   19.4440 C   0  0  0  0  0  3  0  0  0  0  0  0
  -24.8390  -27.5440   19.4790 C   0  0  0  0  0  3  0  0  0  0  0  0
  -23.5630  -29.6720   20.1310 C   0  0  0  0  0  2  0  0  0  0  0  0
  -24.6350  -30.9590   22.0370 N   0  0  0  0  0  0  0  0  0  0  0  0
  -23.5200  -32.0190   23.7010 O   0  0  0  0  0  0  0  0  0  0  0  0
  -22.7350  -29.3260   22.4800 C   0  0  0  0  0  0  0  0  0  0  0  0
  -21.4130  -29.1250   22.3560 N   0  0  0  0  0  0  0  0  0  0  0  0
  -23.4300  -28.7110   23.2920 O   0  0  0  0  0  0  0  0  0  0  0  0
  -20.9150  -29.6740   21.6680 H   0  0  0  0  0  0  0  0  0  0  0  0
  -18.0640  -27.8560   22.8300 C   0  0  0  0  0  0  0  0  0  0  0  0
  -20.6110  -28.1790   23.1290 C   0  0  0  0  0  3  0  0  0  0  0  0
  -20.7560  -26.7440   22.5730 C   0  0  0  0  0  2  0  0  0  0  0  0
  -19.6740  -26.3800   21.5500 C   0  0  0  0  0  2  0  0  0  0  0  0
  -18.2810  -26.5020   22.1760 C   0  0  0  0  0  2  0  0  0  0  0  0
  -19.1590  -28.6500   23.2630 C   0  0  0  0  0  0  0  0  0  0  0  0
  -18.9020  -29.9160   23.8330 C   0  0  0  0  0  3  0  0  0  0  0  0
  -17.5850  -30.3890   23.9730 C   0  0  0  0  0  3  0  0  0  0  0  0
  -16.5040  -29.5930   23.5580 C   0  0  0  0  0  3  0  0  0  0  0  0
  -16.7450  -28.3270   22.9930 C   0  0  0  0  0  3  0  0  0  0  0  0
  -25.8880  -32.3830   23.7480 C   0  0  0  0  0  3  0  0  0  0  0  0
  -25.5690  -33.7680   24.1250 N   0  0  0  0  0  0  0  0  0  0  0  0
  -25.8780  -34.8450   23.3900 C   0  0  0  0  0  0  0  0  0  0  0  0
  -26.5310  -34.7780   22.3450 O   0  0  0  0  0  0  0  0  0  0  0  0
  -24.9860  -33.8930   24.9390 H   0  0  0  0  0  0  0  0  0  0  0  0
  -24.1220  -36.6250   23.1140 C   0  0  0  0  0  1  0  0  0  0  0  0
  -25.3810  -36.2130   23.8940 C   0  0  0  0  0  3  0  0  0  0  0  0
  -27.5210  -37.0940   24.7130 C   0  0  0  0  0  1  0  0  0  0  0  0
  -26.4010  -37.2800   23.7950 N   0  0  0  0  0  0  0  0  0  0  0  0
  -25.9890  -38.1900   23.9820 H   0  0  0  0  0  0  0  0  0  0  0  0
  -26.4530  -31.5810   24.9840 C   0  0  1  0  0  0  0  0  0  0  0  0
  -25.3970  -31.2950   26.0760 C   0  0  0  0  0  1  0  0  0  0  0  0
  -27.0390  -30.2230   24.5310 C   0  0  0  0  0  1  0  0  0  0  0  0
  -27.6160  -32.3690   25.6330 C   0  0  0  0  0  1  0  0  0  0  0  0
  -29.6760  -24.0720   24.1900 C   0  0  0  0  0  2  0  0  0  0  0  0
  -29.2690  -22.5920   24.0700 C   0  0  0  0  0  2  0  0  0  0  0  0
  -30.2250  -21.7230   23.2230 C   0  0  0  0  0  2  0  0  0  0  0  0
  -29.8520  -20.2270   23.2830 C   0  0  0  0  0  2  0  0  0  0  0  0
  -30.6890  -19.3690   22.4120 N   0  0  0  0  0  4  0  0  0  0  0  0
  -30.6050  -19.6930   21.4610 H   0  0  0  0  0  0  0  0  0  0  0  0
  -31.6540  -19.4600   22.6900 H   0  0  0  0  0  0  0  0  0  0  0  0
  -30.3000  -17.9430   22.4710 C   0  0  0  0  0  2  0  0  0  0  0  0
  -31.1200  -17.0160   21.5480 C   0  0  0  0  0  2  0  0  0  0  0  0
  -30.5630  -15.5760   21.6020 C   0  0  0  0  0  2  0  0  0  0  0  0
  -31.1660  -14.5710   20.6020 C   0  0  0  0  0  0  0  0  0  0  0  0
  -30.7920  -12.5780   19.1800 C   0  0  0  0  0  2  0  0  0  0  0  0
  -29.8470  -12.9390   18.0170 C   0  0  0  0  0  2  0  0  0  0  0  0
  -28.3690  -12.8210   18.4430 C   0  0  0  0  0  2  0  0  0  0  0  0
  -28.0770  -13.5430   19.7850 C   0  0  0  0  0  3  0  0  0  0  0  0
  -29.1220  -13.1370   20.8500 C   0  0  0  0  0  2  0  0  0  0  0  0
  -30.4580  -13.4470   20.3150 N   0  0  0  0  0  0  0  0  0  0  0  0
  -32.2430  -14.8370   20.0560 O   0  0  0  0  0  0  0  0  0  0  0  0
  -25.6900  -14.1970   20.5010 C   0  0  0  0  0  0  0  0  0  0  0  0
  -24.5970  -13.4440   20.8310 C   0  0  0  0  0  0  0  0  0  0  0  0
  -25.0170  -12.0810   20.7450 C   0  0  0  0  0  0  0  0  0  0  0  0
  -26.7110  -13.2940   20.2420 N   0  0  0  0  0  0  0  0  0  0  0  0
  -26.3070  -12.0140   20.4420 N   0  0  0  0  0  0  0  0  0  0  0  0
  -24.2530  -10.8340   20.8800 C   0  0  0  0  0  0  0  0  0  0  0  0
  -24.6580   -9.8120   21.7670 C   0  0  0  0  0  3  0  0  0  0  0  0
  -23.8970   -8.6300   21.8920 C   0  0  0  0  0  3  0  0  0  0  0  0
  -22.7180   -8.4600   21.1290 C   0  0  0  0  0  0  0  0  0  0  0  0
  -22.3310   -9.4710   20.2300 C   0  0  0  0  0  3  0  0  0  0  0  0
  -23.0920  -10.6450   20.1040 C   0  0  0  0  0  3  0  0  0  0  0  0
  -21.9310   -7.3350   21.1640 O   0  0  0  0  0  0  0  0  0  0  0  0
  -21.8560   -6.5450   22.2820 C   0  0  0  0  0  0  0  0  0  0  0  0
  -21.4770   -7.0660   23.5390 C   0  0  0  0  0  3  0  0  0  0  0  0
  -21.3460   -6.2040   24.6460 C   0  0  0  0  0  3  0  0  0  0  0  0
  -21.5830   -4.8250   24.4980 C   0  0  0  0  0  0  0  0  0  0  0  0
  -21.9550   -4.3030   23.2470 C   0  0  0  0  0  3  0  0  0  0  0  0
  -22.0880   -5.1620   22.1410 C   0  0  0  0  0  0  0  0  0  0  0  0
  -22.4260   -4.6510   20.9330 F   0  0  0  0  0  0  0  0  0  0  0  0
  -21.4500   -3.9960   25.5610 F   0  0  0  0  0  0  0  0  0  0  0  0
  -23.2120  -13.9500   21.1190 C   0  0  0  0  0  0  0  0  0  0  0  0
  -22.4660  -13.2480   21.9650 N   0  0  0  0  0  0  0  0  0  0  0  0
  -22.8020  -15.0020   20.6310 O   0  0  0  0  0  0  0  0  0  0  0  0
  -22.8120  -12.3960   22.3810 H   0  0  0  0  0  0  0  0  0  0  0  0
  -21.5380  -13.5670   22.2010 H   0  0  0  0  0  0  0  0  0  0  0  0
  -25.8970  -15.5690   20.3830 N   0  0  0  0  0  0  0  0  0  0  0  0
  -25.1490  -16.2420   20.5100 H   0  0  0  0  0  0  0  0  0  0  0  0
  -26.7630  -15.9930   20.0760 H   0  0  0  0  0  0  0  0  0  0  0  0
  1  3  2  0
  2  1  1  0
  3 48  1  0
  4  2  2  0
  4  6  1  0
  5  2  1  0
  6  3  1  0
  7  9  1  0
  7  4  1  0
  8 19  2  0
  9 14  1  0
 10 18  1  0
 10 20  1  0
 11 17  1  0
 11 13  1  0
 12 18  1  0
 13 12  1  0
 14 13  2  0
 15 16  1  0
 15  9  2  0
 16 11  2  0
 17 10  1  0
 18  8  1  0
 20 22  2  0
 21 20  1  0
 23 21  1  0
 24 33  2  0
 24 29  1  0
 25 21  1  0
 25 29  1  0
 26 25  1  0
 27 28  1  0
 27 26  1  0
 28 24  1  0
 29 30  2  0
 30 31  1  0
 32 31  2  0
 33 32  1  0
 34  8  1  0
 34 35  1  0
 34 44  1  0
 35 38  1  0
 36 40  1  0
 36 35  1  0
 37 36  2  0
 40 39  1  0
 42 40  1  0
 42 43  1  0
 42 41  1  0
 44 47  1  1
 44 45  1  0
 46 44  1  0
 49 48  1  0
 50 51  1  0
 50 49  1  0
 52 55  1  0
 52 54  1  0
 52 51  1  0
 53 52  1  0
 56 57  1  0
 56 55  1  0
 58 57  1  0
 59 64  1  0
 60 61  1  0
 60 59  1  0
 62 61  1  0
 62 69  1  0
 62 63  1  0
 64 58  1  0
 64 63  1  0
 65 58  2  0
 66 67  2  0
 67 86  1  0
 68 67  1  0
 68 71  1  0
 69 70  1  0
 69 66  1  0
 70 68  2  0
 71 72  1  0
 72 73  2  0
 74 77  1  0
 74 73  1  0
 75 74  2  0
 76 75  1  0
 76 71  2  0
 77 78  1  0
 78 79  1  0
 79 80  2  0
 81 80  1  0
 81 85  1  0
 82 81  2  0
 83 78  2  0
 83 82  1  0
 84 83  1  0
 86 87  1  0
 87 90  1  0
 87 89  1  0
 88 86  2  0
 91 66  1  0
 91 92  1  0
 93 91  1  0
M  ISO  4   4 101   7 101  57 100  58 100
M  END
>  <TORSDO>  (36) 
F 24

>  <SCORE>  (36) 
-9.709

>  <name>  (36) 
35

>  <ligand_id>  (36) 
35

>  <original_smiles>  (36) 
[H]c1c([H])c([H])c2c(c1[H])C([H])([H])C([H])([H])C([H])([H])C2([H])N([H])C(=O)C1([H])N(C(=O)C([H])(N([H])C(=O)C([H])(N([H])C([H])([H])[H])C([H])([H])[H])C(C([H])([H])[H])(C([H])([H])[H])C([H])([H])[H])C([H])([H])c2c([H])c(Oc3sc(C([H])([H])C([H])([H])C([H])([H])C([H])([H])[N+]([H])([H])C([H])([H])C([H])([H])C([H])([H])C(=O)N4C([H])([H])C([H])([H])C([H])([H])C([H])(n5nc(-c6c([H])c([H])c(Oc7c([H])c([H])c(F)c([H])c7F)c([H])c6[H])c(C(=O)N([H])[H])c5N([H])[H])C4([H])[H])c([H])c3C([H])([H])[H])c([H])c([H])c2C1([H])[H]

>  <smiles>  (36) 
[H]c1c([H])c([H])c2c(c1[H])C([H])([H])C([H])([H])C([H])([H])C2([H])N([H])C(=O)C1([H])N(C(=O)C([H])(N([H])C(=O)C([H])(N([H])C([H])([H])[H])C([H])([H])[H])C(C([H])([H])[H])(C([H])([H])[H])C([H])([H])[H])C([H])([H])c2c([H])c(Oc3sc(C([H])([H])C([H])([H])C([H])([H])C([H])([H])[N+]([H])([H])C([H])([H])C([H])([H])C([H])([H])C(=O)N4C([H])([H])C([H])([H])C([H])([H])C([H])(n5nc(-c6c([H])c([H])c(Oc7c([H])c([H])c(F)c([H])c7F)c([H])c6[H])c(C(=O)N([H])[H])c5N([H])[H])C4([H])[H])c([H])c3C([H])([H])[H])c([H])c([H])c2C1([H])[H]

$$$$
36:0:0
     RDKit          3D

 97105  0  0  1  0  0  0  0  0999 V2000
  -25.6820  -20.6530   19.2110 C   0  0  0  0  0  2  0  0  0  0  0  0
  -25.7760  -18.5430   20.6080 C   0  0  0  0  0  3  0  0  0  0  0  0
  -26.3710  -17.3150   20.9510 C   0  0  0  0  0  3  0  0  0  0  0  0
  -27.6390  -19.0140   19.1180 C   0  0  0  0  0  3  0  0  0  0  0  0
  -26.3940  -19.3870   19.6670 C   0  0  0  0  0  0  0  0  0  0  0  0
  -28.2610  -17.7880   19.4650 C   0  0  0  0  0  0  0  0  0  0  0  0
  -27.5900  -16.9190   20.3680 C   0  0  0  0  0  0  0  0  0  0  0  0
  -28.0680  -15.6790   20.6780 O   0  0  0  0  0  0  0  0  0  0  0  0
  -27.4930  -15.2090   21.2730 H   0  0  0  0  0  0  0  0  0  0  0  0
  -29.6080  -17.4720   18.7970 C   0  0  0  0  0  2  0  0  0  0  0  0
  -30.7850  -17.0280   19.7020 C   0  0  0  0  0  2  0  0  0  0  0  0
  -31.2900  -14.5840   19.6980 C   0  0  0  0  0  0  0  0  0  0  0  0
  -31.0290  -12.2390   18.9990 C   0  0  0  0  0  2  0  0  0  0  0  0
  -30.1010  -12.1980   17.7660 C   0  0  0  0  0  2  0  0  0  0  0  0
  -28.6200  -12.1440   18.1930 C   0  0  0  0  0  2  0  0  0  0  0  0
  -28.2640  -13.2110   19.2620 C   0  0  0  0  0  3  0  0  0  0  0  0
  -29.3020  -13.2080   20.4060 C   0  0  0  0  0  2  0  0  0  0  0  0
  -30.6400  -13.3980   19.8150 N   0  0  0  0  0  0  0  0  0  0  0  0
  -32.3690  -14.7120   19.1120 O   0  0  0  0  0  0  0  0  0  0  0  0
  -30.6060  -15.6450   20.1440 N   0  0  0  0  0  0  0  0  0  0  0  0
  -29.7490  -15.4700   20.6550 H   0  0  0  0  0  0  0  0  0  0  0  0
  -25.9100  -13.9740   19.9750 C   0  0  0  0  0  0  0  0  0  0  0  0
  -24.8090  -13.2740   20.3910 C   0  0  0  0  0  0  0  0  0  0  0  0
  -25.1990  -11.9000   20.4070 C   0  0  0  0  0  0  0  0  0  0  0  0
  -26.9050  -13.0310   19.7680 N   0  0  0  0  0  0  0  0  0  0  0  0
  -26.4790  -11.7790   20.0800 N   0  0  0  0  0  0  0  0  0  0  0  0
  -24.4110  -10.6870   20.6610 C   0  0  0  0  0  0  0  0  0  0  0  0
  -24.7750   -9.7670   21.6680 C   0  0  0  0  0  3  0  0  0  0  0  0
  -23.9920   -8.6170   21.9050 C   0  0  0  0  0  3  0  0  0  0  0  0
  -22.8290   -8.3800   21.1340 C   0  0  0  0  0  0  0  0  0  0  0  0
  -22.4830   -9.2870   20.1170 C   0  0  0  0  0  3  0  0  0  0  0  0
  -23.2680  -10.4290   19.8800 C   0  0  0  0  0  3  0  0  0  0  0  0
  -22.0210   -7.2770   21.2750 O   0  0  0  0  0  0  0  0  0  0  0  0
  -21.8770   -6.6420   22.4820 C   0  0  0  0  0  0  0  0  0  0  0  0
  -21.4110   -7.3190   23.6300 C   0  0  0  0  0  3  0  0  0  0  0  0
  -21.2100   -6.6110   24.8330 C   0  0  0  0  0  3  0  0  0  0  0  0
  -21.4650   -5.2270   24.8870 C   0  0  0  0  0  0  0  0  0  0  0  0
  -21.9230   -4.5510   23.7430 C   0  0  0  0  0  3  0  0  0  0  0  0
  -22.1250   -5.2560   22.5430 C   0  0  0  0  0  0  0  0  0  0  0  0
  -22.5460   -4.5940   21.4380 F   0  0  0  0  0  0  0  0  0  0  0  0
  -21.2650   -4.5450   26.0390 F   0  0  0  0  0  0  0  0  0  0  0  0
  -23.4450  -13.8350   20.6730 C   0  0  0  0  0  0  0  0  0  0  0  0
  -22.7140  -13.2320   21.6040 N   0  0  0  0  0  0  0  0  0  0  0  0
  -23.0390  -14.8460   20.1020 O   0  0  0  0  0  0  0  0  0  0  0  0
  -23.0560  -12.4140   22.0880 H   0  0  0  0  0  0  0  0  0  0  0  0
  -21.7990  -13.5940   21.8360 H   0  0  0  0  0  0  0  0  0  0  0  0
  -26.1420  -15.3250   19.7430 N   0  0  0  0  0  0  0  0  0  0  0  0
  -25.4300  -16.0290   19.8990 H   0  0  0  0  0  0  0  0  0  0  0  0
  -27.0550  -15.7230   19.5650 H   0  0  0  0  0  0  0  0  0  0  0  0
  -26.0950  -21.9360   19.9680 C   0  0  0  0  0  2  0  0  0  0  0  0
  -27.3440  -22.6380   19.4210 C   0  0  0  0  0  0  0  0  0  0  0  0
  -27.9830  -23.4630   20.2580 N   0  0  0  0  0  0  0  0  0  0  0  0
  -27.7190  -22.4560   18.2610 O   0  0  0  0  0  0  0  0  0  0  0  0
  -27.5940  -23.5900   21.1840 H   0  0  0  0  0  0  0  0  0  0  0  0
  -29.2280  -24.1690   19.9650 C   0  0  0  0  0  2  0  0  0  0  0  0
  -28.9930  -25.5600   19.3570 C   0  0  0  0  0  2  0  0  0  0  0  0
  -28.6370  -26.4950   20.3800 O   0  0  0  0  0  0  0  0  0  0  0  0
  -24.6710  -31.6290   23.2650 C   0  0  0  0  0  0  0  0  0  0  0  0
  -27.4380  -27.1710   20.3160 C   0  0  0  0  0  0  0  0  0  0  0  0
  -23.5380  -30.2380   21.5610 C   0  0  0  0  0  3  0  0  0  0  0  0
  -25.0480  -28.6810   20.2200 C   0  0  0  0  0  0  0  0  0  0  0  0
  -26.0730  -30.5730   21.4940 C   0  0  0  0  0  2  0  0  0  0  0  0
  -26.1760  -29.1980   20.8680 C   0  0  0  0  0  0  0  0  0  0  0  0
  -27.3670  -28.4450   20.9240 C   0  0  0  0  0  3  0  0  0  0  0  0
  -26.2820  -26.6510   19.6900 C   0  0  0  0  0  3  0  0  0  0  0  0
  -25.0930  -27.4030   19.6360 C   0  0  0  0  0  3  0  0  0  0  0  0
  -23.8120  -29.5520   20.1960 C   0  0  0  0  0  2  0  0  0  0  0  0
  -24.7770  -30.8280   22.1670 N   0  0  0  0  0  0  0  0  0  0  0  0
  -23.5660  -31.9120   23.7460 O   0  0  0  0  0  0  0  0  0  0  0  0
  -22.8280  -29.2220   22.4860 C   0  0  0  0  0  0  0  0  0  0  0  0
  -21.5070  -29.0740   22.3050 N   0  0  0  0  0  0  0  0  0  0  0  0
  -23.4660  -28.5740   23.3200 O   0  0  0  0  0  0  0  0  0  0  0  0
  -21.0570  -29.6500   21.6080 H   0  0  0  0  0  0  0  0  0  0  0  0
  -18.0860  -27.9750   22.6730 C   0  0  0  0  0  0  0  0  0  0  0  0
  -20.6380  -28.1500   23.0340 C   0  0  0  0  0  3  0  0  0  0  0  0
  -20.7170  -26.7230   22.4410 C   0  0  0  0  0  2  0  0  0  0  0  0
  -19.6410  -26.4490   21.3860 C   0  0  0  0  0  2  0  0  0  0  0  0
  -18.2450  -26.6300   21.9850 C   0  0  0  0  0  2  0  0  0  0  0  0
  -19.2120  -28.6950   23.1510 C   0  0  0  0  0  0  0  0  0  0  0  0
  -19.0120  -29.9570   23.7520 C   0  0  0  0  0  3  0  0  0  0  0  0
  -17.7180  -30.4980   23.8780 C   0  0  0  0  0  3  0  0  0  0  0  0
  -16.6060  -29.7720   23.4170 C   0  0  0  0  0  3  0  0  0  0  0  0
  -16.7910  -28.5130   22.8200 C   0  0  0  0  0  3  0  0  0  0  0  0
  -25.9280  -32.2480   23.9510 C   0  0  0  0  0  3  0  0  0  0  0  0
  -25.6150  -33.6460   24.2720 N   0  0  0  0  0  0  0  0  0  0  0  0
  -25.9880  -34.6970   23.5290 C   0  0  0  0  0  0  0  0  0  0  0  0
  -26.7030  -34.5910   22.5280 O   0  0  0  0  0  0  0  0  0  0  0  0
  -24.9900  -33.8030   25.0490 H   0  0  0  0  0  0  0  0  0  0  0  0
  -24.2790  -36.4920   23.1070 C   0  0  0  0  0  1  0  0  0  0  0  0
  -25.4880  -36.0880   23.9660 C   0  0  0  0  0  3  0  0  0  0  0  0
  -27.5960  -36.9630   24.8720 C   0  0  0  0  0  1  0  0  0  0  0  0
  -26.5280  -37.1370   23.8900 N   0  0  0  0  0  0  0  0  0  0  0  0
  -26.1220  -38.0590   24.0240 H   0  0  0  0  0  0  0  0  0  0  0  0
  -26.3790  -31.4640   25.2450 C   0  0  1  0  0  0  0  0  0  0  0  0
  -25.2350  -31.2300   26.2600 C   0  0  0  0  0  1  0  0  0  0  0  0
  -26.9670  -30.0860   24.8680 C   0  0  0  0  0  1  0  0  0  0  0  0
  -27.5060  -32.2430   25.9640 C   0  0  0  0  0  1  0  0  0  0  0  0
  1  5  1  0
  1 50  1  0
  2  3  1  0
  4  6  2  0
  4  5  1  0
  5  2  2  0
  6  7  1  0
  7  8  1  0
  7  3  2  0
  8  9  1  0
 10  6  1  0
 10 11  1  0
 11 20  1  0
 12 18  1  0
 12 20  1  0
 13 18  1  0
 14 15  1  0
 14 13  1  0
 16 15  1  0
 16 25  1  0
 16 17  1  0
 18 17  1  0
 19 12  2  0
 20 21  1  0
 22 23  2  0
 23 24  1  0
 23 42  1  0
 24 27  1  0
 25 22  1  0
 25 26  1  0
 26 24  2  0
 27 28  1  0
 28 29  2  0
 30 33  1  0
 30 29  1  0
 31 30  2  0
 32 31  1  0
 32 27  2  0
 33 34  1  0
 34 39  2  0
 34 35  1  0
 35 36  2  0
 36 37  1  0
 37 41  1  0
 38 37  2  0
 39 38  1  0
 40 39  1  0
 42 43  1  0
 43 46  1  0
 43 45  1  0
 44 42  2  0
 47 48  1  0
 47 22  1  0
 49 47  1  0
 51 50  1  0
 51 52  1  0
 52 54  1  0
 53 51  2  0
 55 52  1  0
 56 55  1  0
 56 57  1  0
 58 69  2  0
 59 57  1  0
 59 64  1  0
 60 68  1  0
 60 70  1  0
 61 63  1  0
 62 68  1  0
 63 64  2  0
 63 62  1  0
 65 59  2  0
 66 65  1  0
 66 61  2  0
 67 61  1  0
 67 60  1  0
 68 58  1  0
 70 72  2  0
 71 70  1  0
 73 71  1  0
 74 83  2  0
 74 79  1  0
 75 71  1  0
 75 79  1  0
 76 75  1  0
 77 78  1  0
 77 76  1  0
 78 74  1  0
 79 80  2  0
 80 81  1  0
 82 81  2  0
 83 82  1  0
 84 58  1  0
 84 85  1  0
 84 94  1  0
 85 88  1  0
 86 90  1  0
 86 85  1  0
 87 86  2  0
 90 89  1  0
 92 90  1  0
 92 93  1  0
 92 91  1  0
 94 97  1  1
 94 95  1  0
 96 94  1  0
M  ISO  4  12 100  20 100  56 101  57 101
M  END
>  <TORSDO>  (37) 
F 24

>  <SCORE>  (37) 
-7.692

>  <name>  (37) 
36

>  <ligand_id>  (37) 
36

>  <original_smiles>  (37) 
[H]Oc1c([H])c([H])c(C([H])([H])C([H])([H])C(=O)N([H])C([H])([H])C([H])([H])Oc2c([H])c([H])c3c(c2[H])C([H])([H])N(C(=O)C([H])(N([H])C(=O)C([H])(N([H])C([H])([H])[H])C([H])([H])[H])C(C([H])([H])[H])(C([H])([H])[H])C([H])([H])[H])C([H])(C(=O)N([H])C2([H])c4c([H])c([H])c([H])c([H])c4C([H])([H])C([H])([H])C2([H])[H])C3([H])[H])c([H])c1C([H])([H])C([H])([H])N([H])C(=O)N1C([H])([H])C([H])([H])C([H])([H])C([H])(n2nc(-c3c([H])c([H])c(Oc4c([H])c([H])c(F)c([H])c4F)c([H])c3[H])c(C(=O)N([H])[H])c2N([H])[H])C1([H])[H]

>  <smiles>  (37) 
[H]Oc1c([H])c([H])c(C([H])([H])C([H])([H])C(=O)N([H])C([H])([H])C([H])([H])Oc2c([H])c([H])c3c(c2[H])C([H])([H])N(C(=O)C([H])(N([H])C(=O)C([H])(N([H])C([H])([H])[H])C([H])([H])[H])C(C([H])([H])[H])(C([H])([H])[H])C([H])([H])[H])C([H])(C(=O)N([H])C2([H])c4c([H])c([H])c([H])c([H])c4C([H])([H])C([H])([H])C2([H])[H])C3([H])[H])c([H])c1C([H])([H])C([H])([H])N([H])C(=O)N1C([H])([H])C([H])([H])C([H])([H])C([H])(n2nc(-c3c([H])c([H])c(Oc4c([H])c([H])c(F)c([H])c4F)c([H])c3[H])c(C(=O)N([H])[H])c2N([H])[H])C1([H])[H]

$$$$
37:0:0
     RDKit          3D

 96104  0  0  1  0  0  0  0  0999 V2000
  -29.6050  -22.4500   20.6640 C   0  0  0  0  0  2  0  0  0  0  0  0
  -29.3360  -25.8140   22.3480 C   0  0  0  0  0  2  0  0  0  0  0  0
  -31.0640  -25.9490   20.5930 C   0  0  0  0  0  2  0  0  0  0  0  0
  -28.9880  -24.3970   21.8520 C   0  0  0  0  0  2  0  0  0  0  0  0
  -30.6020  -24.5750   20.0660 C   0  0  0  0  0  2  0  0  0  0  0  0
  -29.8830  -26.6950   21.2160 C   0  0  0  0  0  3  0  0  0  0  0  0
  -30.1130  -23.7340   21.1710 N   0  0  0  0  0  0  0  0  0  0  0  0
  -28.9330  -26.8480   20.1600 O   0  0  0  0  0  0  0  0  0  0  0  0
  -25.1220  -31.6850   23.7950 C   0  0  0  0  0  0  0  0  0  0  0  0
  -27.7860  -27.5820   20.3390 C   0  0  0  0  0  0  0  0  0  0  0  0
  -23.9040  -30.4040   22.0610 C   0  0  0  0  0  3  0  0  0  0  0  0
  -25.3570  -29.0140   20.4950 C   0  0  0  0  0  0  0  0  0  0  0  0
  -26.4100  -30.8330   21.8470 C   0  0  0  0  0  2  0  0  0  0  0  0
  -26.5100  -29.5140   21.1140 C   0  0  0  0  0  0  0  0  0  0  0  0
  -27.7250  -28.8040   21.0450 C   0  0  0  0  0  3  0  0  0  0  0  0
  -26.6220  -27.0940   19.7120 C   0  0  0  0  0  3  0  0  0  0  0  0
  -25.4050  -27.7970   19.7920 C   0  0  0  0  0  3  0  0  0  0  0  0
  -24.0980  -29.8400   20.6270 C   0  0  0  0  0  2  0  0  0  0  0  0
  -25.1640  -30.9820   22.6290 N   0  0  0  0  0  0  0  0  0  0  0  0
  -24.0480  -31.8940   24.3770 O   0  0  0  0  0  0  0  0  0  0  0  0
  -23.2870  -29.2970   22.9460 C   0  0  0  0  0  0  0  0  0  0  0  0
  -22.0300  -28.9310   22.6530 N   0  0  0  0  0  0  0  0  0  0  0  0
  -23.9430  -28.7700   23.8490 O   0  0  0  0  0  0  0  0  0  0  0  0
  -21.5560  -29.4210   21.9060 H   0  0  0  0  0  0  0  0  0  0  0  0
  -18.9040  -27.1220   22.5790 C   0  0  0  0  0  0  0  0  0  0  0  0
  -21.2590  -27.8810   23.3210 C   0  0  0  0  0  3  0  0  0  0  0  0
  -21.7390  -26.4760   22.8890 C   0  0  0  0  0  2  0  0  0  0  0  0
  -20.9450  -25.9030   21.7110 C   0  0  0  0  0  2  0  0  0  0  0  0
  -19.4590  -25.8060   22.0620 C   0  0  0  0  0  2  0  0  0  0  0  0
  -19.7520  -28.1030   23.1560 C   0  0  0  0  0  0  0  0  0  0  0  0
  -19.1920  -29.3260   23.5840 C   0  0  0  0  0  3  0  0  0  0  0  0
  -17.8130  -29.5720   23.4500 C   0  0  0  0  0  3  0  0  0  0  0  0
  -16.9760  -28.5890   22.8950 C   0  0  0  0  0  3  0  0  0  0  0  0
  -17.5200  -27.3660   22.4650 C   0  0  0  0  0  3  0  0  0  0  0  0
  -26.4130  -32.2790   24.4440 C   0  0  0  0  0  3  0  0  0  0  0  0
  -26.8290  -31.5520   25.7810 C   0  0  1  0  0  0  0  0  0  0  0  0
  -25.6880  -31.4660   26.8230 C   0  0  0  0  0  1  0  0  0  0  0  0
  -27.3140  -30.1130   25.4860 C   0  0  0  0  0  1  0  0  0  0  0  0
  -28.0200  -32.2930   26.4320 C   0  0  0  0  0  1  0  0  0  0  0  0
  -26.1750  -33.7080   24.6810 N   0  0  0  0  0  0  0  0  0  0  0  0
  -26.6730  -34.6940   23.9240 C   0  0  0  0  0  0  0  0  0  0  0  0
  -27.4520  -34.4960   22.9900 O   0  0  0  0  0  0  0  0  0  0  0  0
  -25.5080  -33.9440   25.4020 H   0  0  0  0  0  0  0  0  0  0  0  0
  -25.1760  -36.5950   23.2440 C   0  0  0  0  0  1  0  0  0  0  0  0
  -26.2340  -36.1330   24.2590 C   0  0  0  0  0  3  0  0  0  0  0  0
  -28.2940  -36.8600   25.3820 C   0  0  0  0  0  1  0  0  0  0  0  0
  -27.3500  -37.1040   24.2950 N   0  0  0  0  0  0  0  0  0  0  0  0
  -26.9960  -38.0520   24.3940 H   0  0  0  0  0  0  0  0  0  0  0  0
  -30.7340  -21.4620   20.3180 C   0  0  0  0  0  2  0  0  0  0  0  0
  -31.3070  -20.8960   21.5620 N   0  0  0  0  0  4  0  0  0  0  0  0
  -31.8050  -21.6420   22.0200 H   0  0  0  0  0  0  0  0  0  0  0  0
  -30.5470  -20.6520   22.1780 H   0  0  0  0  0  0  0  0  0  0  0  0
  -32.1580  -19.6910   21.4100 C   0  0  0  0  0  2  0  0  0  0  0  0
  -31.2390  -18.4990   21.0730 C   0  0  0  0  0  2  0  0  0  0  0  0
  -31.8800  -17.1400   20.7210 C   0  0  0  0  0  2  0  0  0  0  0  0
  -30.9760  -16.4350   19.6790 C   0  0  0  0  0  2  0  0  0  0  0  0
  -31.6590  -15.3430   18.8500 C   0  0  0  0  0  2  0  0  0  0  0  0
  -31.0320  -15.1810   17.4470 C   0  0  0  0  0  2  0  0  0  0  0  0
  -32.5480  -16.5090   15.9480 C   0  0  0  0  0  0  0  0  0  0  0  0
  -33.6850  -16.0720   13.8150 C   0  0  0  0  0  2  0  0  0  0  0  0
  -34.3010  -17.2780   13.0960 C   0  0  0  0  0  2  0  0  0  0  0  0
  -33.2490  -17.9840   12.2250 C   0  0  0  0  0  2  0  0  0  0  0  0
  -31.9500  -18.3050   13.0100 C   0  0  0  0  0  3  0  0  0  0  0  0
  -31.4360  -17.0570   13.7580 C   0  0  0  0  0  2  0  0  0  0  0  0
  -32.5250  -16.5210   14.5960 N   0  0  0  0  0  0  0  0  0  0  0  0
  -33.5910  -16.4420   16.6110 O   0  0  0  0  0  0  0  0  0  0  0  0
  -31.3400  -16.2350   16.4680 N   0  0  0  0  0  0  0  0  0  0  0  0
  -30.5820  -16.4420   15.8340 H   0  0  0  0  0  0  0  0  0  0  0  0
  -30.2880  -20.0960   12.2020 C   0  0  0  0  0  0  0  0  0  0  0  0
  -29.4890  -20.1620   11.0890 C   0  0  0  0  0  0  0  0  0  0  0  0
  -29.7020  -18.9450   10.3740 C   0  0  0  0  0  0  0  0  0  0  0  0
  -30.9310  -18.8680   12.1300 N   0  0  0  0  0  0  0  0  0  0  0  0
  -30.5290  -18.1560   11.0470 N   0  0  0  0  0  0  0  0  0  0  0  0
  -29.2000  -18.5040    9.0650 C   0  0  0  0  0  0  0  0  0  0  0  0
  -28.5780  -17.2460    8.9010 C   0  0  0  0  0  3  0  0  0  0  0  0
  -28.0790  -16.8520    7.6410 C   0  0  0  0  0  3  0  0  0  0  0  0
  -28.2000  -17.7200    6.5300 C   0  0  0  0  0  0  0  0  0  0  0  0
  -28.8340  -18.9630    6.6940 C   0  0  0  0  0  3  0  0  0  0  0  0
  -29.3340  -19.3510    7.9490 C   0  0  0  0  0  3  0  0  0  0  0  0
  -27.7810  -17.4040    5.2600 O   0  0  0  0  0  0  0  0  0  0  0  0
  -26.7800  -16.4950    5.0380 C   0  0  0  0  0  0  0  0  0  0  0  0
  -25.5070  -16.6270    5.6350 C   0  0  0  0  0  3  0  0  0  0  0  0
  -24.4810  -15.7120    5.3210 C   0  0  0  0  0  3  0  0  0  0  0  0
  -24.7280  -14.6680    4.4120 C   0  0  0  0  0  0  0  0  0  0  0  0
  -25.9950  -14.5300    3.8170 C   0  0  0  0  0  3  0  0  0  0  0  0
  -27.0150  -15.4440    4.1270 C   0  0  0  0  0  0  0  0  0  0  0  0
  -28.2270  -15.3270    3.5330 F   0  0  0  0  0  0  0  0  0  0  0  0
  -23.7440  -13.7920    4.1040 F   0  0  0  0  0  0  0  0  0  0  0  0
  -28.6450  -21.3290   10.6700 C   0  0  0  0  0  0  0  0  0  0  0  0
  -27.5270  -21.0660    9.9990 N   0  0  0  0  0  0  0  0  0  0  0  0
  -28.9440  -22.4830   10.9770 O   0  0  0  0  0  0  0  0  0  0  0  0
  -27.2710  -20.1210    9.7570 H   0  0  0  0  0  0  0  0  0  0  0  0
  -26.9160  -21.8270    9.7320 H   0  0  0  0  0  0  0  0  0  0  0  0
  -30.5370  -20.9730   13.2510 N   0  0  0  0  0  0  0  0  0  0  0  0
  -30.1110  -21.8920   13.3080 H   0  0  0  0  0  0  0  0  0  0  0  0
  -31.1900  -20.7870   14.0040 H   0  0  0  0  0  0  0  0  0  0  0  0
  1  7  1  0
  3  6  1  0
  4  2  1  0
  5  3  1  0
  5  7  1  0
  6  8  1  0
  6  2  1  0
  7  4  1  0
  8 10  1  0
  9 20  2  0
 10 15  1  0
 11 19  1  0
 11 21  1  0
 12 18  1  0
 12 14  1  0
 13 19  1  0
 14 13  1  0
 15 14  2  0
 16 17  1  0
 16 10  2  0
 17 12  2  0
 18 11  1  0
 19  9  1  0
 21 23  2  0
 22 21  1  0
 24 22  1  0
 25 30  1  0
 26 22  1  0
 27 26  1  0
 28 29  1  0
 28 27  1  0
 29 25  1  0
 30 26  1  0
 30 31  2  0
 32 31  1  0
 33 32  2  0
 34 25  2  0
 34 33  1  0
 35  9  1  0
 35 40  1  0
 35 36  1  0
 36 39  1  1
 36 37  1  0
 38 36  1  0
 40 43  1  0
 41 45  1  0
 41 40  1  0
 42 41  2  0
 45 44  1  0
 45 47  1  0
 47 48  1  0
 47 46  1  0
 49  1  1  0
 49 50  1  0
 50 51  1  0
 50 52  1  0
 53 50  1  0
 54 53  1  0
 55 54  1  0
 56 55  1  0
 57 56  1  0
 58 57  1  0
 59 67  1  0
 59 66  2  0
 60 65  1  0
 61 60  1  0
 62 63  1  0
 62 61  1  0
 63 72  1  0
 63 64  1  0
 64 65  1  0
 65 59  1  0
 67 58  1  0
 68 67  1  0
 69 94  1  0
 70 69  2  0
 71 73  2  0
 71 70  1  0
 72 69  1  0
 73 72  1  0
 74 71  1  0
 75 74  1  0
 76 75  2  0
 77 78  2  0
 77 76  1  0
 78 79  1  0
 79 74  2  0
 80 77  1  0
 81 80  1  0
 81 82  1  0
 83 82  2  0
 84 83  1  0
 85 86  1  0
 85 84  2  0
 86 81  2  0
 87 86  1  0
 88 84  1  0
 89 91  2  0
 89 70  1  0
 90 89  1  0
 92 90  1  0
 93 90  1  0
 94 95  1  0
 94 96  1  0
M  ISO  4   6 101   8 101  59 100  67 100
M  END
>  <TORSDO>  (38) 
F 25

>  <SCORE>  (38) 
-5.810

>  <name>  (38) 
37

>  <ligand_id>  (38) 
37

>  <original_smiles>  (38) 
[H]c1c([H])c([H])c2c(c1[H])C([H])([H])C([H])([H])C([H])([H])C2([H])N([H])C(=O)C1([H])N(C(=O)C([H])(N([H])C(=O)C([H])(N([H])C([H])([H])[H])C([H])([H])[H])C(C([H])([H])[H])(C([H])([H])[H])C([H])([H])[H])C([H])([H])c2c([H])c(OC3([H])C([H])([H])C([H])([H])N(C([H])([H])C([H])([H])[N+]([H])([H])C([H])([H])C([H])([H])C([H])([H])C([H])([H])C([H])([H])C([H])([H])N([H])C(=O)N4C([H])([H])C([H])([H])C([H])([H])C([H])(n5nc(-c6c([H])c([H])c(Oc7c([H])c([H])c(F)c([H])c7F)c([H])c6[H])c(C(=O)N([H])[H])c5N([H])[H])C4([H])[H])C([H])([H])C3([H])[H])c([H])c([H])c2C1([H])[H]

>  <smiles>  (38) 
[H]c1c([H])c([H])c2c(c1[H])C([H])([H])C([H])([H])C([H])([H])C2([H])N([H])C(=O)C1([H])N(C(=O)C([H])(N([H])C(=O)C([H])(N([H])C([H])([H])[H])C([H])([H])[H])C(C([H])([H])[H])(C([H])([H])[H])C([H])([H])[H])C([H])([H])c2c([H])c(OC3([H])C([H])([H])C([H])([H])N(C([H])([H])C([H])([H])[N+]([H])([H])C([H])([H])C([H])([H])C([H])([H])C([H])([H])C([H])([H])C([H])([H])N([H])C(=O)N4C([H])([H])C([H])([H])C([H])([H])C([H])(n5nc(-c6c([H])c([H])c(Oc7c([H])c([H])c(F)c([H])c7F)c([H])c6[H])c(C(=O)N([H])[H])c5N([H])[H])C4([H])[H])C([H])([H])C3([H])[H])c([H])c([H])c2C1([H])[H]

$$$$
38:0:0
     RDKit          3D

 90 98  0  0  1  0  0  0  0  0999 V2000
  -29.3830  -20.7950   20.8560 N   0  0  0  0  0  0  0  0  0  0  0  0
  -30.0470  -21.1560   21.5380 H   0  0  0  0  0  0  0  0  0  0  0  0
  -29.0070  -17.0190   19.7400 C   0  0  0  0  0  3  0  0  0  0  0  0
  -28.7450  -18.4490   19.8380 C   0  0  0  0  0  3  0  0  0  0  0  0
  -30.4080  -18.6080   21.5070 C   0  0  0  0  0  3  0  0  0  0  0  0
  -30.0030  -16.3120   20.5040 C   0  0  0  0  0  0  0  0  0  0  0  0
  -29.4650  -19.3290   20.7120 C   0  0  0  0  0  0  0  0  0  0  0  0
  -30.6880  -17.1980   21.4080 C   0  0  0  0  0  0  0  0  0  0  0  0
  -30.5570  -14.8570   20.1700 C   0  0  0  0  0  0  0  0  0  0  0  0
  -30.2780  -12.5640   19.1830 C   0  0  0  0  0  2  0  0  0  0  0  0
  -29.3180  -12.6080   17.9750 C   0  0  0  0  0  2  0  0  0  0  0  0
  -27.8670  -12.4070   18.4450 C   0  0  0  0  0  2  0  0  0  0  0  0
  -27.5120  -13.3030   19.6600 C   0  0  0  0  0  3  0  0  0  0  0  0
  -28.6000  -13.2940   20.7520 C   0  0  0  0  0  2  0  0  0  0  0  0
  -29.8710  -13.6510   20.1160 N   0  0  0  0  0  0  0  0  0  0  0  0
  -31.7370  -14.8380   19.8080 O   0  0  0  0  0  0  0  0  0  0  0  0
  -25.1580  -13.8590   20.4910 C   0  0  0  0  0  0  0  0  0  0  0  0
  -24.1120  -13.0720   20.8910 C   0  0  0  0  0  0  0  0  0  0  0  0
  -24.5820  -11.7260   20.8250 C   0  0  0  0  0  0  0  0  0  0  0  0
  -26.1950  -12.9900   20.2030 N   0  0  0  0  0  0  0  0  0  0  0  0
  -25.8630  -11.6990   20.4690 N   0  0  0  0  0  0  0  0  0  0  0  0
  -23.8680  -10.4560   21.0210 C   0  0  0  0  0  0  0  0  0  0  0  0
  -24.3290   -9.4850   21.9360 C   0  0  0  0  0  3  0  0  0  0  0  0
  -23.6140   -8.2830   22.1230 C   0  0  0  0  0  3  0  0  0  0  0  0
  -22.4250   -8.0420   21.3950 C   0  0  0  0  0  0  0  0  0  0  0  0
  -21.9830   -9.0040   20.4710 C   0  0  0  0  0  3  0  0  0  0  0  0
  -22.6970  -10.1990   20.2820 C   0  0  0  0  0  3  0  0  0  0  0  0
  -21.6810   -6.8920   21.4900 O   0  0  0  0  0  0  0  0  0  0  0  0
  -21.6570   -6.1420   22.6390 C   0  0  0  0  0  0  0  0  0  0  0  0
  -21.2380   -6.6830   23.8740 C   0  0  0  0  0  3  0  0  0  0  0  0
  -21.1650   -5.8610   25.0150 C   0  0  0  0  0  3  0  0  0  0  0  0
  -21.5000   -4.4970   24.9220 C   0  0  0  0  0  0  0  0  0  0  0  0
  -21.9120   -3.9540   23.6920 C   0  0  0  0  0  3  0  0  0  0  0  0
  -21.9880   -4.7750   22.5530 C   0  0  0  0  0  0  0  0  0  0  0  0
  -22.3640   -4.2430   21.3650 F   0  0  0  0  0  0  0  0  0  0  0  0
  -21.4230   -3.7030   26.0160 F   0  0  0  0  0  0  0  0  0  0  0  0
  -22.7240  -13.5390   21.2190 C   0  0  0  0  0  0  0  0  0  0  0  0
  -22.0310  -12.8260   22.0990 N   0  0  0  0  0  0  0  0  0  0  0  0
  -22.2650  -14.5710   20.7300 O   0  0  0  0  0  0  0  0  0  0  0  0
  -22.4170  -11.9930   22.5160 H   0  0  0  0  0  0  0  0  0  0  0  0
  -21.1000  -13.1180   22.3610 H   0  0  0  0  0  0  0  0  0  0  0  0
  -25.3060  -15.2320   20.3220 N   0  0  0  0  0  0  0  0  0  0  0  0
  -24.5350  -15.8770   20.4560 H   0  0  0  0  0  0  0  0  0  0  0  0
  -26.1360  -15.6770   19.9520 H   0  0  0  0  0  0  0  0  0  0  0  0
  -31.7040  -16.7340   22.2010 O   0  0  0  0  0  0  0  0  0  0  0  0
  -32.1060  -15.9320   21.8810 H   0  0  0  0  0  0  0  0  0  0  0  0
  -28.5240  -21.9130   20.2480 C   0  0  0  0  0  3  0  0  0  0  0  0
  -28.8560  -23.5000   20.6210 C   0  0  0  0  0  3  0  0  0  0  0  0
  -27.9520  -24.7810   20.0940 C   0  0  0  0  0  2  0  0  0  0  0  0
  -28.2150  -26.2690   20.3720 O   0  0  0  0  0  0  0  0  0  0  0  0
  -24.6230  -31.9360   23.2600 C   0  0  0  0  0  0  0  0  0  0  0  0
  -27.1620  -27.2300   20.2650 C   0  0  0  0  0  0  0  0  0  0  0  0
  -23.4120  -30.5470   21.6230 C   0  0  0  0  0  3  0  0  0  0  0  0
  -24.8470  -28.9640   20.2050 C   0  0  0  0  0  0  0  0  0  0  0  0
  -25.9630  -30.7990   21.4620 C   0  0  0  0  0  2  0  0  0  0  0  0
  -26.0230  -29.4100   20.8200 C   0  0  0  0  0  0  0  0  0  0  0  0
  -27.1810  -28.5550   20.8400 C   0  0  0  0  0  3  0  0  0  0  0  0
  -25.9670  -26.8780   19.5950 C   0  0  0  0  0  3  0  0  0  0  0  0
  -24.8280  -27.7080   19.5770 C   0  0  0  0  0  3  0  0  0  0  0  0
  -23.6250  -29.8650   20.2460 C   0  0  0  0  0  2  0  0  0  0  0  0
  -24.6860  -31.1150   22.1710 N   0  0  0  0  0  0  0  0  0  0  0  0
  -23.5380  -32.2340   23.7840 O   0  0  0  0  0  0  0  0  0  0  0  0
  -22.7250  -29.5470   22.5860 C   0  0  0  0  0  0  0  0  0  0  0  0
  -21.3970  -29.3870   22.4540 N   0  0  0  0  0  0  0  0  0  0  0  0
  -23.3890  -28.9190   23.4140 O   0  0  0  0  0  0  0  0  0  0  0  0
  -20.9210  -29.9450   21.7590 H   0  0  0  0  0  0  0  0  0  0  0  0
  -18.0000  -28.2410   22.9600 C   0  0  0  0  0  0  0  0  0  0  0  0
  -20.5630  -28.4630   23.2260 C   0  0  0  0  0  3  0  0  0  0  0  0
  -20.6410  -27.0300   22.6520 C   0  0  0  0  0  2  0  0  0  0  0  0
  -19.5330  -26.7230   21.6380 C   0  0  0  0  0  2  0  0  0  0  0  0
  -18.1550  -26.8900   22.2850 C   0  0  0  0  0  2  0  0  0  0  0  0
  -19.1310  -28.9870   23.3880 C   0  0  0  0  0  0  0  0  0  0  0  0
  -18.9300  -30.2510   23.9810 C   0  0  0  0  0  3  0  0  0  0  0  0
  -17.6330  -30.7710   24.1520 C   0  0  0  0  0  3  0  0  0  0  0  0
  -16.5170  -30.0230   23.7390 C   0  0  0  0  0  3  0  0  0  0  0  0
  -16.7020  -28.7600   23.1490 C   0  0  0  0  0  3  0  0  0  0  0  0
  -25.9070  -32.5590   23.8870 C   0  0  0  0  0  3  0  0  0  0  0  0
  -25.6060  -33.9610   24.2190 N   0  0  0  0  0  0  0  0  0  0  0  0
  -25.9300  -35.0140   23.4570 C   0  0  0  0  0  0  0  0  0  0  0  0
  -26.5800  -34.9060   22.4150 O   0  0  0  0  0  0  0  0  0  0  0  0
  -25.0200  -34.1150   25.0270 H   0  0  0  0  0  0  0  0  0  0  0  0
  -24.1920  -36.8100   23.1480 C   0  0  0  0  0  1  0  0  0  0  0  0
  -25.4570  -36.4050   23.9230 C   0  0  0  0  0  3  0  0  0  0  0  0
  -27.6150  -37.2960   24.6870 C   0  0  0  0  0  1  0  0  0  0  0  0
  -26.4870  -37.4560   23.7730 N   0  0  0  0  0  0  0  0  0  0  0  0
  -26.0870  -38.3780   23.9200 H   0  0  0  0  0  0  0  0  0  0  0  0
  -26.4110  -31.7850   25.1670 C   0  0  1  0  0  0  0  0  0  0  0  0
  -25.3100  -31.5540   26.2290 C   0  0  0  0  0  1  0  0  0  0  0  0
  -26.9880  -30.4030   24.7830 C   0  0  0  0  0  1  0  0  0  0  0  0
  -27.5640  -32.5710   25.8330 C   0  0  0  0  0  1  0  0  0  0  0  0
  1  2  1  0
  3  4  2  0
  3  6  1  0
  4  7  1  0
  6  8  2  0
  7  1  1  0
  7  5  2  0
  8  5  1  0
  8 45  1  0
  9  6  1  0
 10 15  1  0
 11 12  1  0
 11 10  1  0
 13 12  1  0
 13 20  1  0
 13 14  1  0
 15  9  1  0
 15 14  1  0
 16  9  2  0
 17 18  2  0
 18 37  1  0
 19 18  1  0
 19 22  1  0
 20 21  1  0
 20 17  1  0
 21 19  2  0
 22 23  1  0
 23 24  2  0
 25 28  1  0
 25 24  1  0
 26 25  2  0
 27 26  1  0
 27 22  2  0
 28 29  1  0
 29 30  1  0
 30 31  2  0
 32 31  1  0
 32 36  1  0
 33 32  2  0
 34 29  2  0
 34 33  1  0
 35 34  1  0
 37 38  1  0
 38 41  1  0
 38 40  1  0
 39 37  2  0
 42 43  1  0
 42 17  1  0
 44 42  1  0
 46 45  1  0
 47 48  2  0
 47  1  1  0
 49 50  1  0
 49 48  1  0
 51 62  2  0
 52 50  1  0
 52 57  1  0
 53 61  1  0
 53 63  1  0
 54 60  1  0
 54 56  1  0
 55 61  1  0
 56 57  2  0
 56 55  1  0
 58 52  2  0
 59 58  1  0
 59 54  2  0
 60 53  1  0
 61 51  1  0
 63 65  2  0
 64 63  1  0
 66 64  1  0
 67 76  2  0
 67 72  1  0
 68 64  1  0
 68 72  1  0
 69 68  1  0
 70 71  1  0
 70 69  1  0
 71 67  1  0
 72 73  2  0
 73 74  1  0
 75 74  2  0
 76 75  1  0
 77 51  1  0
 77 78  1  0
 77 87  1  0
 78 81  1  0
 79 83  1  0
 79 78  1  0
 80 79  2  0
 83 82  1  0
 85 86  1  0
 85 83  1  0
 85 84  1  0
 87 90  1  1
 87 88  1  0
 89 87  1  0
M  ISO  4   6 100   9 100  49 101  50 101
M  END
>  <TORSDO>  (39) 
F 21

>  <SCORE>  (39) 
-13.332

>  <name>  (39) 
38

>  <ligand_id>  (39) 
38

>  <original_smiles>  (39) 
[H]Oc1c([H])c(N([H])C([H])([H])C([H])([H])C([H])([H])Oc2c([H])c([H])c3c(c2[H])C([H])([H])N(C(=O)C([H])(N([H])C(=O)C([H])(N([H])C([H])([H])[H])C([H])([H])[H])C(C([H])([H])[H])(C([H])([H])[H])C([H])([H])[H])C([H])(C(=O)N([H])C2([H])c4c([H])c([H])c([H])c([H])c4C([H])([H])C([H])([H])C2([H])[H])C3([H])[H])c([H])c([H])c1C(=O)N1C([H])([H])C([H])([H])C([H])([H])C([H])(n2nc(-c3c([H])c([H])c(Oc4c([H])c([H])c(F)c([H])c4F)c([H])c3[H])c(C(=O)N([H])[H])c2N([H])[H])C1([H])[H]

>  <smiles>  (39) 
[H]Oc1c([H])c(N([H])C([H])([H])C([H])([H])C([H])([H])Oc2c([H])c([H])c3c(c2[H])C([H])([H])N(C(=O)C([H])(N([H])C(=O)C([H])(N([H])C([H])([H])[H])C([H])([H])[H])C(C([H])([H])[H])(C([H])([H])[H])C([H])([H])[H])C([H])(C(=O)N([H])C2([H])c4c([H])c([H])c([H])c([H])c4C([H])([H])C([H])([H])C2([H])[H])C3([H])[H])c([H])c([H])c1C(=O)N1C([H])([H])C([H])([H])C([H])([H])C([H])(n2nc(-c3c([H])c([H])c(Oc4c([H])c([H])c(F)c([H])c4F)c([H])c3[H])c(C(=O)N([H])[H])c2N([H])[H])C1([H])[H]

$$$$
39:0:0
     RDKit          3D

100107  0  0  1  0  0  0  0  0999 V2000
  -30.8100  -20.1040   20.2090 C   0  0  0  0  0  2  0  0  0  0  0  0
  -31.2020  -19.5880   21.6220 C   0  0  0  0  0  3  0  0  0  0  0  0
  -30.6080  -18.2590   21.9190 N   0  0  0  0  0  4  0  0  0  0  0  0
  -30.6460  -18.1300   22.9180 H   0  0  0  0  0  0  0  0  0  0  0  0
  -29.6370  -18.2590   21.6490 H   0  0  0  0  0  0  0  0  0  0  0  0
  -31.3020  -17.1000   21.3010 C   0  0  0  0  0  2  0  0  0  0  0  0
  -30.5320  -15.7710   21.4800 C   0  0  0  0  0  2  0  0  0  0  0  0
  -31.1650  -14.5970   20.7090 C   0  0  0  0  0  0  0  0  0  0  0  0
  -30.8640  -12.4180   19.5850 C   0  0  0  0  0  2  0  0  0  0  0  0
  -29.9840  -12.5920   18.3340 C   0  0  0  0  0  2  0  0  0  0  0  0
  -28.4890  -12.5020   18.6970 C   0  0  0  0  0  2  0  0  0  0  0  0
  -28.1120  -13.4070   19.9010 C   0  0  0  0  0  3  0  0  0  0  0  0
  -29.1050  -13.2040   21.0680 C   0  0  0  0  0  2  0  0  0  0  0  0
  -30.4650  -13.4420   20.5600 N   0  0  0  0  0  0  0  0  0  0  0  0
  -32.2740  -14.7630   20.1910 O   0  0  0  0  0  0  0  0  0  0  0  0
  -25.7330  -14.1180   20.5870 C   0  0  0  0  0  0  0  0  0  0  0  0
  -24.6080  -13.3910   20.8700 C   0  0  0  0  0  0  0  0  0  0  0  0
  -24.9850  -12.0180   20.7500 C   0  0  0  0  0  0  0  0  0  0  0  0
  -26.7290  -13.1900   20.3200 N   0  0  0  0  0  0  0  0  0  0  0  0
  -26.2790  -11.9190   20.4730 N   0  0  0  0  0  0  0  0  0  0  0  0
  -24.1770  -10.7950   20.8270 C   0  0  0  0  0  0  0  0  0  0  0  0
  -24.5820   -9.6900   21.6090 C   0  0  0  0  0  3  0  0  0  0  0  0
  -23.7800   -8.5300   21.6820 C   0  0  0  0  0  3  0  0  0  0  0  0
  -22.5580   -8.4690   20.9710 C   0  0  0  0  0  0  0  0  0  0  0  0
  -22.1710   -9.5610   20.1760 C   0  0  0  0  0  3  0  0  0  0  0  0
  -22.9730  -10.7120   20.1000 C   0  0  0  0  0  3  0  0  0  0  0  0
  -21.7270   -7.3750   20.9610 O   0  0  0  0  0  0  0  0  0  0  0  0
  -21.7540   -6.4420   21.9660 C   0  0  0  0  0  0  0  0  0  0  0  0
  -21.5550   -6.7960   23.3190 C   0  0  0  0  0  3  0  0  0  0  0  0
  -21.5220   -5.7950   24.3110 C   0  0  0  0  0  3  0  0  0  0  0  0
  -21.6760   -4.4430   23.9530 C   0  0  0  0  0  0  0  0  0  0  0  0
  -21.8680   -4.0870   22.6060 C   0  0  0  0  0  3  0  0  0  0  0  0
  -21.9030   -5.0850   21.6160 C   0  0  0  0  0  0  0  0  0  0  0  0
  -22.0680   -4.7340   20.3170 F   0  0  0  0  0  0  0  0  0  0  0  0
  -21.6360   -3.4810   24.9040 F   0  0  0  0  0  0  0  0  0  0  0  0
  -23.2340  -13.9340   21.1420 C   0  0  0  0  0  0  0  0  0  0  0  0
  -22.4440  -13.2340   21.9490 N   0  0  0  0  0  0  0  0  0  0  0  0
  -22.8710  -15.0140   20.6770 O   0  0  0  0  0  0  0  0  0  0  0  0
  -22.7490  -12.3580   22.3460 H   0  0  0  0  0  0  0  0  0  0  0  0
  -21.5210  -13.5790   22.1710 H   0  0  0  0  0  0  0  0  0  0  0  0
  -25.9880  -15.4830   20.5140 N   0  0  0  0  0  0  0  0  0  0  0  0
  -25.2560  -16.1750   20.6390 H   0  0  0  0  0  0  0  0  0  0  0  0
  -26.8690  -15.8860   20.2230 H   0  0  0  0  0  0  0  0  0  0  0  0
  -30.8690  -20.5890   22.7580 C   0  0  0  0  0  2  0  0  0  0  0  0
  -29.7470  -21.6060   22.4520 C   0  0  0  0  0  2  0  0  0  0  0  0
  -29.8010  -22.8330   23.3800 C   0  0  0  0  0  2  0  0  0  0  0  0
  -28.8870  -23.9820   22.9130 C   0  0  0  0  0  2  0  0  0  0  0  0
  -29.0510  -25.1950   23.7320 N   0  0  0  0  0  4  0  0  0  0  0  0
  -28.8120  -25.0130   24.6910 H   0  0  0  0  0  0  0  0  0  0  0  0
  -28.4430  -25.9200   23.3940 H   0  0  0  0  0  0  0  0  0  0  0  0
  -29.9950  -25.5350   23.6930 H   0  0  0  0  0  0  0  0  0  0  0  0
  -31.5220  -21.4110   19.7940 C   0  0  0  0  0  2  0  0  0  0  0  0
  -31.1220  -21.9350   18.3960 C   0  0  0  0  0  2  0  0  0  0  0  0
  -29.7220  -22.5760   18.3260 C   0  0  0  0  0  2  0  0  0  0  0  0
  -29.6490  -23.8400   19.0960 N   0  0  0  0  0  4  0  0  0  0  0  0
  -30.0730  -24.5790   18.5540 H   0  0  0  0  0  0  0  0  0  0  0  0
  -30.2030  -23.7290   19.9300 H   0  0  0  0  0  0  0  0  0  0  0  0
  -28.2740  -24.2330   19.4850 C   0  0  0  0  0  2  0  0  0  0  0  0
  -28.2550  -25.4310   20.4540 C   0  0  0  0  0  2  0  0  0  0  0  0
  -28.3000  -26.6830   19.7630 O   0  0  0  0  0  0  0  0  0  0  0  0
  -24.4800  -31.6910   23.0430 C   0  0  0  0  0  0  0  0  0  0  0  0
  -27.1220  -27.3900   19.7950 C   0  0  0  0  0  0  0  0  0  0  0  0
  -23.2580  -30.3180   21.3860 C   0  0  0  0  0  3  0  0  0  0  0  0
  -24.7040  -28.8390   19.8960 C   0  0  0  0  0  0  0  0  0  0  0  0
  -25.7720  -30.7230   21.1470 C   0  0  0  0  0  2  0  0  0  0  0  0
  -25.8640  -29.3730   20.4680 C   0  0  0  0  0  0  0  0  0  0  0  0
  -27.0800  -28.6580   20.4100 C   0  0  0  0  0  3  0  0  0  0  0  0
  -25.9460  -26.8600   19.2220 C   0  0  0  0  0  3  0  0  0  0  0  0
  -24.7370  -27.5800   19.2700 C   0  0  0  0  0  3  0  0  0  0  0  0
  -23.4480  -29.6760   19.9860 C   0  0  0  0  0  2  0  0  0  0  0  0
  -24.5230  -30.9240   21.9160 N   0  0  0  0  0  0  0  0  0  0  0  0
  -23.4060  -31.9340   23.6110 O   0  0  0  0  0  0  0  0  0  0  0  0
  -22.6400  -29.2640   22.3300 C   0  0  0  0  0  0  0  0  0  0  0  0
  -21.3170  -29.0650   22.2190 N   0  0  0  0  0  0  0  0  0  0  0  0
  -23.3470  -28.6280   23.1170 O   0  0  0  0  0  0  0  0  0  0  0  0
  -20.8080  -29.6330   21.5560 H   0  0  0  0  0  0  0  0  0  0  0  0
  -17.9720  -27.7950   22.7160 C   0  0  0  0  0  0  0  0  0  0  0  0
  -20.5240  -28.0970   22.9780 C   0  0  0  0  0  3  0  0  0  0  0  0
  -20.6500  -26.6800   22.3750 C   0  0  0  0  0  2  0  0  0  0  0  0
  -19.5490  -26.3540   21.3610 C   0  0  0  0  0  2  0  0  0  0  0  0
  -18.1690  -26.4620   22.0150 C   0  0  0  0  0  2  0  0  0  0  0  0
  -19.0770  -28.5700   23.1540 C   0  0  0  0  0  0  0  0  0  0  0  0
  -18.8390  -29.8190   23.7660 C   0  0  0  0  0  3  0  0  0  0  0  0
  -17.5270  -30.2930   23.9470 C   0  0  0  0  0  3  0  0  0  0  0  0
  -16.4340  -29.5150   23.5280 C   0  0  0  0  0  3  0  0  0  0  0  0
  -16.6580  -28.2670   22.9180 C   0  0  0  0  0  3  0  0  0  0  0  0
  -25.7710  -32.3200   23.6550 C   0  0  0  0  0  3  0  0  0  0  0  0
  -25.4470  -33.6940   24.0580 N   0  0  0  0  0  0  0  0  0  0  0  0
  -25.7410  -34.7860   23.3400 C   0  0  0  0  0  0  0  0  0  0  0  0
  -26.3890  -34.7440   22.2900 O   0  0  0  0  0  0  0  0  0  0  0  0
  -24.8710  -33.8010   24.8800 H   0  0  0  0  0  0  0  0  0  0  0  0
  -23.9670  -36.5520   23.1090 C   0  0  0  0  0  1  0  0  0  0  0  0
  -25.2360  -36.1420   23.8710 C   0  0  0  0  0  3  0  0  0  0  0  0
  -27.3760  -37.0330   24.6800 C   0  0  0  0  0  1  0  0  0  0  0  0
  -26.2430  -37.2210   23.7780 N   0  0  0  0  0  0  0  0  0  0  0  0
  -25.8230  -38.1240   23.9800 H   0  0  0  0  0  0  0  0  0  0  0  0
  -26.3440  -31.5010   24.8760 C   0  0  1  0  0  0  0  0  0  0  0  0
  -25.2930  -31.1970   25.9690 C   0  0  0  0  0  1  0  0  0  0  0  0
  -26.9320  -30.1520   24.3990 C   0  0  0  0  0  1  0  0  0  0  0  0
  -27.5050  -32.2820   25.5340 C   0  0  0  0  0  1  0  0  0  0  0  0
  2  1  1  0
  2  3  1  0
  2 44  1  0
  3  4  1  0
  5  3  1  0
  6  7  1  0
  6  3  1  0
  8  7  1  0
  9 14  1  0
 10 11  1  0
 10  9  1  0
 12 11  1  0
 12 19  1  0
 12 13  1  0
 14  8  1  0
 14 13  1  0
 15  8  2  0
 16 17  2  0
 17 36  1  0
 18 21  1  0
 18 17  1  0
 19 20  1  0
 19 16  1  0
 20 18  2  0
 21 22  1  0
 22 23  2  0
 24 23  1  0
 25 24  2  0
 26 25  1  0
 26 21  2  0
 27 24  1  0
 27 28  1  0
 28 29  1  0
 29 30  2  0
 31 30  1  0
 31 35  1  0
 32 31  2  0
 33 28  2  0
 33 32  1  0
 34 33  1  0
 36 37  1  0
 37 40  1  0
 37 39  1  0
 38 36  2  0
 41 16  1  0
 41 42  1  0
 43 41  1  0
 45 44  1  0
 45 46  1  0
 47 46  1  0
 47 48  1  0
 48 49  1  0
 50 48  1  0
 51 48  1  0
 52  1  1  0
 53 52  1  0
 54 53  1  0
 54 55  1  0
 55 58  1  0
 55 57  1  0
 56 55  1  0
 58 59  1  0
 60 62  1  0
 60 59  1  0
 61 72  2  0
 62 67  1  0
 63 71  1  0
 63 73  1  0
 64 70  1  0
 64 66  1  0
 65 71  1  0
 66 65  1  0
 67 66  2  0
 68 69  1  0
 68 62  2  0
 69 64  2  0
 70 63  1  0
 71 61  1  0
 73 75  2  0
 74 73  1  0
 76 74  1  0
 77 86  2  0
 77 82  1  0
 78 74  1  0
 78 82  1  0
 79 78  1  0
 80 81  1  0
 80 79  1  0
 81 77  1  0
 82 83  2  0
 83 84  1  0
 85 84  2  0
 86 85  1  0
 87 61  1  0
 87 88  1  0
 87 97  1  0
 88 91  1  0
 89 93  1  0
 89 88  1  0
 90 89  2  0
 93 92  1  0
 95 93  1  0
 95 96  1  0
 95 94  1  0
 97100  1  1
 97 98  1  0
 99 97  1  0
M  ISO  4   7 100   8 100  59 101  60 101
M  END
>  <TORSDO>  (40) 
F 31

>  <SCORE>  (40) 
-10.389

>  <name>  (40) 
39

>  <ligand_id>  (40) 
39

>  <original_smiles>  (40) 
[H]c1c([H])c([H])c2c(c1[H])C([H])([H])C([H])([H])C([H])([H])C2([H])N([H])C(=O)C1([H])N(C(=O)C([H])(N([H])C(=O)C([H])(N([H])C([H])([H])[H])C([H])([H])[H])C(C([H])([H])[H])(C([H])([H])[H])C([H])([H])[H])C([H])([H])c2c([H])c(OC([H])([H])C([H])([H])[N+]([H])([H])C([H])([H])C([H])([H])C([H])([H])C([H])([H])C([H])(C([H])([H])C([H])([H])C([H])([H])C([H])([H])[N+]([H])([H])[H])[N+]([H])([H])C([H])([H])C([H])([H])C(=O)N3C([H])([H])C([H])([H])C([H])([H])C([H])(n4nc(-c5c([H])c([H])c(Oc6c([H])c([H])c(F)c([H])c6F)c([H])c5[H])c(C(=O)N([H])[H])c4N([H])[H])C3([H])[H])c([H])c([H])c2C1([H])[H]

>  <smiles>  (40) 
[H]c1c([H])c([H])c2c(c1[H])C([H])([H])C([H])([H])C([H])([H])C2([H])N([H])C(=O)C1([H])N(C(=O)C([H])(N([H])C(=O)C([H])(N([H])C([H])([H])[H])C([H])([H])[H])C(C([H])([H])[H])(C([H])([H])[H])C([H])([H])[H])C([H])([H])c2c([H])c(OC([H])([H])C([H])([H])[N+]([H])([H])C([H])([H])C([H])([H])C([H])([H])C([H])([H])C([H])(C([H])([H])C([H])([H])C([H])([H])C([H])([H])[N+]([H])([H])[H])[N+]([H])([H])C([H])([H])C([H])([H])C(=O)N3C([H])([H])C([H])([H])C([H])([H])C([H])(n4nc(-c5c([H])c([H])c(Oc6c([H])c([H])c(F)c([H])c6F)c([H])c5[H])c(C(=O)N([H])[H])c4N([H])[H])C3([H])[H])c([H])c([H])c2C1([H])[H]

$$$$
40:0:0
     RDKit          3D

 92101  0  0  1  0  0  0  0  0999 V2000
  -28.9150  -20.4120   19.0320 C   0  0  0  0  0  3  0  0  0  0  0  0
  -28.4890  -21.8340   19.0750 C   0  0  0  0  0  3  0  0  0  0  0  0
  -29.6420  -22.1570   21.0420 C   0  0  0  0  0  3  0  0  0  0  0  0
  -29.7500  -19.7210   20.0000 C   0  0  0  0  0  0  0  0  0  0  0  0
  -30.0640  -20.7260   20.9810 C   0  0  0  0  0  0  0  0  0  0  0  0
  -28.8120  -22.8590   20.0690 C   0  0  0  0  0  0  0  0  0  0  0  0
  -31.0490  -18.5670   21.5690 C   0  0  0  0  0  0  0  0  0  0  0  0
  -30.5740  -18.2220   20.1260 C   0  0  0  0  0  3  0  0  0  0  0  0
  -30.9760  -20.0700   22.0000 C   0  0  2  0  0  0  0  0  0  0  0  0
  -30.3900  -20.1910   23.4230 C   0  0  0  0  0  1  0  0  0  0  0  0
  -32.3820  -20.6950   21.9460 C   0  0  0  0  0  1  0  0  0  0  0  0
  -31.4850  -17.7120   22.3500 O   0  0  0  0  0  0  0  0  0  0  0  0
  -30.9360  -15.3640   20.1250 C   0  0  0  0  0  0  0  0  0  0  0  0
  -30.9360  -12.8570   19.4940 C   0  0  0  0  0  2  0  0  0  0  0  0
  -30.0550  -12.5340   18.2620 C   0  0  0  0  0  2  0  0  0  0  0  0
  -28.5930  -12.3040   18.6830 C   0  0  0  0  0  2  0  0  0  0  0  0
  -28.1030  -13.3730   19.6930 C   0  0  0  0  0  3  0  0  0  0  0  0
  -29.1150  -13.6360   20.8270 C   0  0  0  0  0  2  0  0  0  0  0  0
  -30.3650  -14.0670   20.1840 N   0  0  0  0  0  0  0  0  0  0  0  0
  -32.1610  -15.3570   19.9440 O   0  0  0  0  0  0  0  0  0  0  0  0
  -30.1750  -16.6230   20.1020 N   0  0  0  0  0  0  0  0  0  0  0  0
  -29.1840  -16.4740   20.1990 H   0  0  0  0  0  0  0  0  0  0  0  0
  -25.7460  -14.0010   20.4390 C   0  0  0  0  0  0  0  0  0  0  0  0
  -24.6580  -13.2540   20.7920 C   0  0  0  0  0  0  0  0  0  0  0  0
  -25.0820  -11.8890   20.7480 C   0  0  0  0  0  0  0  0  0  0  0  0
  -26.7620  -13.0950   20.1910 N   0  0  0  0  0  0  0  0  0  0  0  0
  -26.3740  -11.8190   20.4450 N   0  0  0  0  0  0  0  0  0  0  0  0
  -24.3140  -10.6480   20.9150 C   0  0  0  0  0  0  0  0  0  0  0  0
  -24.6750   -9.6800   21.8770 C   0  0  0  0  0  3  0  0  0  0  0  0
  -23.9060   -8.5050   22.0330 C   0  0  0  0  0  3  0  0  0  0  0  0
  -22.7630   -8.2920   21.2270 C   0  0  0  0  0  0  0  0  0  0  0  0
  -22.4210   -9.2500   20.2560 C   0  0  0  0  0  3  0  0  0  0  0  0
  -23.1900  -10.4150   20.0980 C   0  0  0  0  0  3  0  0  0  0  0  0
  -21.9720   -7.1710   21.2920 O   0  0  0  0  0  0  0  0  0  0  0  0
  -21.7600   -6.5070   22.4740 C   0  0  0  0  0  0  0  0  0  0  0  0
  -21.1750   -7.1420   23.5900 C   0  0  0  0  0  3  0  0  0  0  0  0
  -20.9100   -6.4030   24.7620 C   0  0  0  0  0  3  0  0  0  0  0  0
  -21.2210   -5.0320   24.8150 C   0  0  0  0  0  0  0  0  0  0  0  0
  -21.7990   -4.3970   23.7010 C   0  0  0  0  0  3  0  0  0  0  0  0
  -22.0640   -5.1320   22.5330 C   0  0  0  0  0  0  0  0  0  0  0  0
  -22.6010   -4.5100   21.4560 F   0  0  0  0  0  0  0  0  0  0  0  0
  -20.9610   -4.3200   25.9370 F   0  0  0  0  0  0  0  0  0  0  0  0
  -23.2740  -13.7710   21.0540 C   0  0  0  0  0  0  0  0  0  0  0  0
  -22.5180  -13.0940   21.9110 N   0  0  0  0  0  0  0  0  0  0  0  0
  -22.8730  -14.8120   20.5340 O   0  0  0  0  0  0  0  0  0  0  0  0
  -22.8570  -12.2520   22.3540 H   0  0  0  0  0  0  0  0  0  0  0  0
  -21.5880  -13.4240   22.1290 H   0  0  0  0  0  0  0  0  0  0  0  0
  -25.9510  -15.3680   20.2770 N   0  0  0  0  0  0  0  0  0  0  0  0
  -25.1960  -16.0380   20.3810 H   0  0  0  0  0  0  0  0  0  0  0  0
  -26.7960  -15.7830   19.9080 H   0  0  0  0  0  0  0  0  0  0  0  0
  -28.0090  -24.4010   20.1670 C   0  0  0  0  0  2  0  0  0  0  0  0
  -28.4080  -25.9760   20.2920 O   0  0  0  0  0  0  0  0  0  0  0  0
  -24.7460  -31.8700   23.2290 C   0  0  0  0  0  0  0  0  0  0  0  0
  -27.4120  -27.0760   20.2110 C   0  0  0  0  0  0  0  0  0  0  0  0
  -23.6080  -30.4990   21.5330 C   0  0  0  0  0  3  0  0  0  0  0  0
  -25.1050  -28.9320   20.1270 C   0  0  0  0  0  0  0  0  0  0  0  0
  -26.1760  -30.7280   21.4680 C   0  0  0  0  0  2  0  0  0  0  0  0
  -26.2730  -29.3340   20.7900 C   0  0  0  0  0  0  0  0  0  0  0  0
  -27.4230  -28.4270   20.8100 C   0  0  0  0  0  3  0  0  0  0  0  0
  -26.2150  -26.8270   19.4990 C   0  0  0  0  0  3  0  0  0  0  0  0
  -25.1000  -27.6990   19.4630 C   0  0  0  0  0  3  0  0  0  0  0  0
  -23.8810  -29.8440   20.1520 C   0  0  0  0  0  2  0  0  0  0  0  0
  -24.8630  -31.0570   22.1310 N   0  0  0  0  0  0  0  0  0  0  0  0
  -23.6410  -32.1470   23.7210 O   0  0  0  0  0  0  0  0  0  0  0  0
  -22.8900  -29.4820   22.4570 C   0  0  0  0  0  0  0  0  0  0  0  0
  -21.5620  -29.3320   22.3050 N   0  0  0  0  0  0  0  0  0  0  0  0
  -23.5360  -28.8280   23.2810 O   0  0  0  0  0  0  0  0  0  0  0  0
  -21.0940  -29.9090   21.6200 H   0  0  0  0  0  0  0  0  0  0  0  0
  -18.1500  -28.1850   22.7660 C   0  0  0  0  0  0  0  0  0  0  0  0
  -20.7160  -28.3830   23.0380 C   0  0  0  0  0  3  0  0  0  0  0  0
  -20.7850  -26.9740   22.4070 C   0  0  0  0  0  2  0  0  0  0  0  0
  -19.6760  -26.7160   21.3810 C   0  0  0  0  0  2  0  0  0  0  0  0
  -18.2980  -26.8620   22.0310 C   0  0  0  0  0  2  0  0  0  0  0  0
  -19.2850  -28.9060   23.2240 C   0  0  0  0  0  0  0  0  0  0  0  0
  -19.0910  -30.1450   23.8730 C   0  0  0  0  0  3  0  0  0  0  0  0
  -17.7960  -30.6620   24.0660 C   0  0  0  0  0  3  0  0  0  0  0  0
  -16.6770  -29.9380   23.6210 C   0  0  0  0  0  3  0  0  0  0  0  0
  -16.8540  -28.7010   22.9770 C   0  0  0  0  0  3  0  0  0  0  0  0
  -25.9960  -32.5050   23.9110 C   0  0  0  0  0  3  0  0  0  0  0  0
  -25.6600  -33.8940   24.2660 N   0  0  0  0  0  0  0  0  0  0  0  0
  -25.9600  -34.9700   23.5260 C   0  0  0  0  0  0  0  0  0  0  0  0
  -26.6110  -34.8990   22.4810 O   0  0  0  0  0  0  0  0  0  0  0  0
  -25.0760  -34.0220   25.0800 H   0  0  0  0  0  0  0  0  0  0  0  0
  -24.1730  -36.7280   23.2740 C   0  0  0  0  0  1  0  0  0  0  0  0
  -25.4600  -36.3430   24.0220 C   0  0  0  0  0  3  0  0  0  0  0  0
  -27.6000  -37.2850   24.7760 C   0  0  0  0  0  1  0  0  0  0  0  0
  -26.4600  -37.4240   23.8740 N   0  0  0  0  0  0  0  0  0  0  0  0
  -26.0350  -38.3330   24.0380 H   0  0  0  0  0  0  0  0  0  0  0  0
  -26.4700  -31.7150   25.1930 C   0  0  1  0  0  0  0  0  0  0  0  0
  -25.3390  -31.4510   26.2160 C   0  0  0  0  0  1  0  0  0  0  0  0
  -27.0780  -30.3470   24.8070 C   0  0  0  0  0  1  0  0  0  0  0  0
  -27.5880  -32.5050   25.9110 C   0  0  0  0  0  1  0  0  0  0  0  0
  1  2  2  0
  1  4  1  0
  2  6  1  0
  4  8  1  0
  4  5  2  0
  5  3  1  0
  5  9  1  0
  6 51  1  0
  6  3  2  0
  7  9  1  0
  7 12  2  0
  8 21  1  0
  8  7  1  0
  9 10  1  1
 11  9  1  0
 13 19  1  0
 14 19  1  0
 15 16  1  0
 15 14  1  0
 17 16  1  0
 17 26  1  0
 17 18  1  0
 19 18  1  0
 20 13  2  0
 21 13  1  0
 21 22  1  0
 23 24  2  0
 24 43  1  0
 25 24  1  0
 25 28  1  0
 26 23  1  0
 26 27  1  0
 27 25  2  0
 28 29  1  0
 29 30  2  0
 31 34  1  0
 31 30  1  0
 32 31  2  0
 33 32  1  0
 33 28  2  0
 34 35  1  0
 35 40  2  0
 35 36  1  0
 36 37  2  0
 37 38  1  0
 38 42  1  0
 39 38  2  0
 40 39  1  0
 41 40  1  0
 43 44  1  0
 44 47  1  0
 44 46  1  0
 45 43  2  0
 48 49  1  0
 48 23  1  0
 50 48  1  0
 51 52  1  0
 53 64  2  0
 54 52  1  0
 54 59  1  0
 55 63  1  0
 55 65  1  0
 56 62  1  0
 56 58  1  0
 57 63  1  0
 58 59  2  0
 58 57  1  0
 60 54  2  0
 61 60  1  0
 61 56  2  0
 62 55  1  0
 63 53  1  0
 65 67  2  0
 66 65  1  0
 68 66  1  0
 69 78  2  0
 69 74  1  0
 70 66  1  0
 70 74  1  0
 71 70  1  0
 72 73  1  0
 72 71  1  0
 73 69  1  0
 74 75  2  0
 75 76  1  0
 77 76  2  0
 78 77  1  0
 79 53  1  0
 79 80  1  0
 79 89  1  0
 80 83  1  0
 81 85  1  0
 81 80  1  0
 82 81  2  0
 85 84  1  0
 87 85  1  0
 87 88  1  0
 87 86  1  0
 89 92  1  1
 89 90  1  0
 91 89  1  0
M  ISO  4  13 100  21 100  51 101  52 101
M  END
>  <TORSDO>  (41) 
F 17

>  <SCORE>  (41) 
-15.037

>  <name>  (41) 
40

>  <ligand_id>  (41) 
40

>  <original_smiles>  (41) 
[H]c1c([H])c([H])c2c(c1[H])C([H])([H])C([H])([H])C([H])([H])C2([H])N([H])C(=O)C1([H])N(C(=O)C([H])(N([H])C(=O)C([H])(N([H])C([H])([H])[H])C([H])([H])[H])C(C([H])([H])[H])(C([H])([H])[H])C([H])([H])[H])C([H])([H])c2c([H])c(OC([H])([H])c3c([H])c([H])c4c(c3[H])C(C([H])([H])[H])(C([H])([H])[H])C(=O)C4([H])N([H])C(=O)N3C([H])([H])C([H])([H])C([H])([H])C([H])(n4nc(-c5c([H])c([H])c(Oc6c([H])c([H])c(F)c([H])c6F)c([H])c5[H])c(C(=O)N([H])[H])c4N([H])[H])C3([H])[H])c([H])c([H])c2C1([H])[H]

>  <smiles>  (41) 
[H]c1c([H])c([H])c2c(c1[H])C([H])([H])C([H])([H])C([H])([H])C2([H])N([H])C(=O)C1([H])N(C(=O)C([H])(N([H])C(=O)C([H])(N([H])C([H])([H])[H])C([H])([H])[H])C(C([H])([H])[H])(C([H])([H])[H])C([H])([H])[H])C([H])([H])c2c([H])c(OC([H])([H])c3c([H])c([H])c4c(c3[H])C(C([H])([H])[H])(C([H])([H])[H])C(=O)C4([H])N([H])C(=O)N3C([H])([H])C([H])([H])C([H])([H])C([H])(n4nc(-c5c([H])c([H])c(Oc6c([H])c([H])c(F)c([H])c6F)c([H])c5[H])c(C(=O)N([H])[H])c4N([H])[H])C3([H])[H])c([H])c([H])c2C1([H])[H]

$$$$
41:0:0
     RDKit          3D

 94102  0  0  1  0  0  0  0  0999 V2000
  -28.6360  -22.4580   20.8650 C   0  0  0  0  0  0  0  0  0  0  0  0
  -28.7160  -23.6930   21.3920 N   0  0  0  0  0  0  0  0  0  0  0  0
  -28.0390  -22.2300   19.8110 O   0  0  0  0  0  0  0  0  0  0  0  0
  -29.2330  -23.7510   22.2590 H   0  0  0  0  0  0  0  0  0  0  0  0
  -30.9110  -21.9820   23.3650 C   0  0  0  0  0  2  0  0  0  0  0  0
  -29.4260  -21.6270   23.1650 C   0  0  0  0  0  2  0  0  0  0  0  0
  -31.5830  -21.8120   21.9910 C   0  0  0  0  0  2  0  0  0  0  0  0
  -29.2510  -21.2760   21.6730 C   0  0  0  0  0  3  0  0  0  0  0  0
  -30.6740  -20.8400   21.2190 C   0  0  0  0  0  3  0  0  0  0  0  0
  -31.0340  -19.4390   21.6010 N   0  0  0  0  0  4  0  0  0  0  0  0
  -30.6630  -19.2450   22.5170 H   0  0  0  0  0  0  0  0  0  0  0  0
  -32.0380  -19.3990   21.6740 H   0  0  0  0  0  0  0  0  0  0  0  0
  -30.6080  -18.3570   20.6830 C   0  0  0  0  0  2  0  0  0  0  0  0
  -31.1720  -16.9580   21.0650 C   0  0  0  0  0  2  0  0  0  0  0  0
  -30.4470  -15.8390   20.2830 C   0  0  0  0  0  2  0  0  0  0  0  0
  -31.2230  -14.5260   20.0150 C   0  0  0  0  0  0  0  0  0  0  0  0
  -30.8590  -12.3170   18.9820 C   0  0  0  0  0  2  0  0  0  0  0  0
  -29.8750  -12.5050   17.8040 C   0  0  0  0  0  2  0  0  0  0  0  0
  -28.4120  -12.4320   18.2870 C   0  0  0  0  0  2  0  0  0  0  0  0
  -28.1450  -13.3430   19.5130 C   0  0  0  0  0  3  0  0  0  0  0  0
  -29.2270  -13.1140   20.5940 C   0  0  0  0  0  2  0  0  0  0  0  0
  -30.5440  -13.3470   19.9830 N   0  0  0  0  0  0  0  0  0  0  0  0
  -32.3780  -14.6340   19.5910 O   0  0  0  0  0  0  0  0  0  0  0  0
  -25.8350  -14.0970   20.3680 C   0  0  0  0  0  0  0  0  0  0  0  0
  -24.7300  -13.3860   20.7600 C   0  0  0  0  0  0  0  0  0  0  0  0
  -25.0900  -12.0090   20.6500 C   0  0  0  0  0  0  0  0  0  0  0  0
  -26.8000  -13.1530   20.0500 N   0  0  0  0  0  0  0  0  0  0  0  0
  -26.3560  -11.8910   20.2750 N   0  0  0  0  0  0  0  0  0  0  0  0
  -24.2860  -10.7920   20.8230 C   0  0  0  0  0  0  0  0  0  0  0  0
  -24.6690   -9.7780   21.7260 C   0  0  0  0  0  3  0  0  0  0  0  0
  -23.8710   -8.6240   21.8860 C   0  0  0  0  0  3  0  0  0  0  0  0
  -22.6750   -8.4800   21.1420 C   0  0  0  0  0  0  0  0  0  0  0  0
  -22.3120   -9.4850   20.2270 C   0  0  0  0  0  3  0  0  0  0  0  0
  -23.1090  -10.6290   20.0660 C   0  0  0  0  0  3  0  0  0  0  0  0
  -21.8510   -7.3840   21.2120 O   0  0  0  0  0  0  0  0  0  0  0  0
  -21.7270   -6.6520   22.3650 C   0  0  0  0  0  0  0  0  0  0  0  0
  -21.3070   -7.2400   23.5800 C   0  0  0  0  0  3  0  0  0  0  0  0
  -21.1270   -6.4390   24.7250 C   0  0  0  0  0  3  0  0  0  0  0  0
  -21.3520   -5.0510   24.6560 C   0  0  0  0  0  0  0  0  0  0  0  0
  -21.7620   -4.4620   23.4470 C   0  0  0  0  0  3  0  0  0  0  0  0
  -21.9460   -5.2620   22.3040 C   0  0  0  0  0  0  0  0  0  0  0  0
  -22.3220   -4.6890   21.1360 F   0  0  0  0  0  0  0  0  0  0  0  0
  -21.1710   -4.2780   25.7520 F   0  0  0  0  0  0  0  0  0  0  0  0
  -23.3870  -13.9510   21.1230 C   0  0  0  0  0  0  0  0  0  0  0  0
  -22.6620  -13.2790   22.0120 N   0  0  0  0  0  0  0  0  0  0  0  0
  -22.9920  -15.0190   20.6580 O   0  0  0  0  0  0  0  0  0  0  0  0
  -22.9980  -12.4150   22.4120 H   0  0  0  0  0  0  0  0  0  0  0  0
  -21.7620  -13.6360   22.3020 H   0  0  0  0  0  0  0  0  0  0  0  0
  -26.0920  -15.4580   20.2360 N   0  0  0  0  0  0  0  0  0  0  0  0
  -25.3750  -16.1590   20.3920 H   0  0  0  0  0  0  0  0  0  0  0  0
  -26.9410  -15.8360   19.8340 H   0  0  0  0  0  0  0  0  0  0  0  0
  -28.0180  -24.9400   21.0300 C   0  0  0  0  0  2  0  0  0  0  0  0
  -28.0540  -25.3730   19.5470 C   0  0  0  0  0  2  0  0  0  0  0  0
  -28.0680  -26.8050   19.4260 O   0  0  0  0  0  0  0  0  0  0  0  0
  -24.5050  -31.7690   23.0570 C   0  0  0  0  0  0  0  0  0  0  0  0
  -26.8850  -27.5050   19.5390 C   0  0  0  0  0  0  0  0  0  0  0  0
  -23.1700  -30.4740   21.4260 C   0  0  0  0  0  3  0  0  0  0  0  0
  -24.5030  -29.0160   19.8090 C   0  0  0  0  0  0  0  0  0  0  0  0
  -25.6780  -30.8330   21.0640 C   0  0  0  0  0  2  0  0  0  0  0  0
  -25.7050  -29.5030   20.3380 C   0  0  0  0  0  0  0  0  0  0  0  0
  -26.8960  -28.7560   20.1970 C   0  0  0  0  0  3  0  0  0  0  0  0
  -25.6620  -27.0300   19.0080 C   0  0  0  0  0  3  0  0  0  0  0  0
  -24.4760  -27.7790   19.1430 C   0  0  0  0  0  3  0  0  0  0  0  0
  -23.2710  -29.8750   19.9960 C   0  0  0  0  0  2  0  0  0  0  0  0
  -24.4750  -31.0340   21.9080 N   0  0  0  0  0  0  0  0  0  0  0  0
  -23.4670  -32.0120   23.6890 O   0  0  0  0  0  0  0  0  0  0  0  0
  -22.5790  -29.4000   22.3660 C   0  0  0  0  0  0  0  0  0  0  0  0
  -21.2570  -29.1860   22.2710 N   0  0  0  0  0  0  0  0  0  0  0  0
  -23.3040  -28.7620   23.1340 O   0  0  0  0  0  0  0  0  0  0  0  0
  -20.7320  -29.7400   21.6100 H   0  0  0  0  0  0  0  0  0  0  0  0
  -17.9500  -27.8100   22.7360 C   0  0  0  0  0  0  0  0  0  0  0  0
  -20.4900  -28.1990   23.0300 C   0  0  0  0  0  3  0  0  0  0  0  0
  -20.6700  -26.7820   22.4420 C   0  0  0  0  0  2  0  0  0  0  0  0
  -19.5960  -26.4170   21.4120 C   0  0  0  0  0  2  0  0  0  0  0  0
  -18.2020  -26.4820   22.0430 C   0  0  0  0  0  2  0  0  0  0  0  0
  -19.0250  -28.6250   23.1830 C   0  0  0  0  0  0  0  0  0  0  0  0
  -18.7380  -29.8710   23.7840 C   0  0  0  0  0  3  0  0  0  0  0  0
  -17.4070  -30.3010   23.9480 C   0  0  0  0  0  3  0  0  0  0  0  0
  -16.3470  -29.4790   23.5230 C   0  0  0  0  0  3  0  0  0  0  0  0
  -16.6190  -28.2370   22.9240 C   0  0  0  0  0  3  0  0  0  0  0  0
  -25.8400  -32.3510   23.6200 C   0  0  0  0  0  3  0  0  0  0  0  0
  -25.5710  -33.7260   24.0590 N   0  0  0  0  0  0  0  0  0  0  0  0
  -25.8930  -34.8210   23.3580 C   0  0  0  0  0  0  0  0  0  0  0  0
  -26.5190  -34.7770   22.2940 O   0  0  0  0  0  0  0  0  0  0  0  0
  -25.0090  -33.8330   24.8890 H   0  0  0  0  0  0  0  0  0  0  0  0
  -24.1860  -36.6580   23.1910 C   0  0  0  0  0  1  0  0  0  0  0  0
  -25.4490  -36.1840   23.9240 C   0  0  0  0  0  3  0  0  0  0  0  0
  -27.6310  -36.9760   24.7220 C   0  0  0  0  0  1  0  0  0  0  0  0
  -26.4960  -37.2250   23.8380 N   0  0  0  0  0  0  0  0  0  0  0  0
  -26.1140  -38.1400   24.0600 H   0  0  0  0  0  0  0  0  0  0  0  0
  -26.4390  -31.4950   24.8040 C   0  0  1  0  0  0  0  0  0  0  0  0
  -25.4270  -31.1980   25.9350 C   0  0  0  0  0  1  0  0  0  0  0  0
  -26.9720  -30.1420   24.2810 C   0  0  0  0  0  1  0  0  0  0  0  0
  -27.6500  -32.2350   25.4220 C   0  0  0  0  0  1  0  0  0  0  0  0
  1  2  1  0
  2  4  1  0
  3  1  2  0
  6  5  1  0
  7  5  1  0
  8  1  1  0
  8  6  1  0
  9 10  1  0
  9  8  1  0
  9  7  1  0
 10 12  1  0
 10 11  1  0
 13 14  1  0
 13 10  1  0
 15 14  1  0
 16 15  1  0
 17 22  1  0
 18 19  1  0
 18 17  1  0
 20 19  1  0
 20 27  1  0
 20 21  1  0
 22 16  1  0
 22 21  1  0
 23 16  2  0
 24 25  2  0
 25 44  1  0
 26 25  1  0
 26 29  1  0
 27 28  1  0
 27 24  1  0
 28 26  2  0
 29 30  1  0
 30 31  2  0
 32 35  1  0
 32 31  1  0
 33 32  2  0
 34 33  1  0
 34 29  2  0
 35 36  1  0
 36 37  1  0
 37 38  2  0
 39 38  1  0
 39 43  1  0
 40 39  2  0
 41 36  2  0
 41 40  1  0
 42 41  1  0
 44 45  1  0
 45 48  1  0
 45 47  1  0
 46 44  2  0
 49 24  1  0
 49 50  1  0
 51 49  1  0
 52  2  1  0
 53 52  1  0
 54 56  1  0
 54 53  1  0
 55 66  2  0
 56 61  1  0
 57 65  1  0
 57 67  1  0
 58 64  1  0
 58 60  1  0
 59 65  1  0
 60 59  1  0
 61 60  2  0
 62 63  1  0
 62 56  2  0
 63 58  2  0
 64 57  1  0
 65 55  1  0
 67 69  2  0
 68 67  1  0
 70 68  1  0
 71 80  2  0
 71 76  1  0
 72 68  1  0
 72 76  1  0
 73 72  1  0
 74 75  1  0
 74 73  1  0
 75 71  1  0
 76 77  2  0
 77 78  1  0
 79 78  2  0
 80 79  1  0
 81 55  1  0
 81 82  1  0
 81 91  1  0
 82 85  1  0
 83 87  1  0
 83 82  1  0
 84 83  2  0
 87 86  1  0
 89 87  1  0
 89 90  1  0
 89 88  1  0
 91 94  1  1
 91 92  1  0
 93 91  1  0
M  ISO  4  15 100  16 100  53 101  54 101
M  END
>  <TORSDO>  (42) 
F 23

>  <SCORE>  (42) 
-12.141

>  <name>  (42) 
41

>  <ligand_id>  (42) 
41

>  <original_smiles>  (42) 
[H]c1c([H])c([H])c2c(c1[H])C([H])([H])C([H])([H])C([H])([H])C2([H])N([H])C(=O)C1([H])N(C(=O)C([H])(N([H])C(=O)C([H])(N([H])C([H])([H])[H])C([H])([H])[H])C(C([H])([H])[H])(C([H])([H])[H])C([H])([H])[H])C([H])([H])c2c([H])c(OC([H])([H])C([H])([H])N([H])C(=O)C3([H])C([H])([H])C([H])([H])C([H])([H])C3([H])[N+]([H])([H])C([H])([H])C([H])([H])C([H])([H])C(=O)N3C([H])([H])C([H])([H])C([H])([H])C([H])(n4nc(-c5c([H])c([H])c(Oc6c([H])c([H])c(F)c([H])c6F)c([H])c5[H])c(C(=O)N([H])[H])c4N([H])[H])C3([H])[H])c([H])c([H])c2C1([H])[H]

>  <smiles>  (42) 
[H]c1c([H])c([H])c2c(c1[H])C([H])([H])C([H])([H])C([H])([H])C2([H])N([H])C(=O)C1([H])N(C(=O)C([H])(N([H])C(=O)C([H])(N([H])C([H])([H])[H])C([H])([H])[H])C(C([H])([H])[H])(C([H])([H])[H])C([H])([H])[H])C([H])([H])c2c([H])c(OC([H])([H])C([H])([H])N([H])C(=O)C3([H])C([H])([H])C([H])([H])C([H])([H])C3([H])[N+]([H])([H])C([H])([H])C([H])([H])C([H])([H])C(=O)N3C([H])([H])C([H])([H])C([H])([H])C([H])(n4nc(-c5c([H])c([H])c(Oc6c([H])c([H])c(F)c([H])c6F)c([H])c5[H])c(C(=O)N([H])[H])c4N([H])[H])C3([H])[H])c([H])c([H])c2C1([H])[H]

$$$$
42:0:0
     RDKit          3D

 98106  0  0  1  0  0  0  0  0999 V2000
  -33.4830  -20.0910   20.3150 C   0  0  0  0  0  3  0  0  0  0  0  0
  -33.7720  -21.0690   19.3440 C   0  0  0  0  0  3  0  0  0  0  0  0
  -31.0990  -20.6210   20.1240 C   0  0  0  0  0  3  0  0  0  0  0  0
  -32.1490  -19.8610   20.7180 C   0  0  0  0  0  0  0  0  0  0  0  0
  -31.3790  -21.5880   19.1110 C   0  0  0  0  0  0  0  0  0  0  0  0
  -32.7300  -21.8070   18.7370 C   0  0  0  0  0  0  0  0  0  0  0  0
  -31.8870  -18.8300   21.7840 C   0  0  0  0  0  0  0  0  0  0  0  0
  -31.2100  -17.7340   21.3950 N   0  0  0  0  0  0  0  0  0  0  0  0
  -32.3500  -18.9800   22.9260 O   0  0  0  0  0  0  0  0  0  0  0  0
  -30.9970  -17.6420   20.4030 H   0  0  0  0  0  0  0  0  0  0  0  0
  -31.0000  -16.5710   22.2770 C   0  0  0  0  0  2  0  0  0  0  0  0
  -29.8930  -15.5670   21.8360 C   0  0  0  0  0  2  0  0  0  0  0  0
  -30.0720  -14.8650   20.4610 C   0  0  0  0  0  0  0  0  0  0  0  0
  -29.8000  -12.8040   19.1210 C   0  0  0  0  0  2  0  0  0  0  0  0
  -28.7710  -12.8800   17.9910 C   0  0  0  0  0  2  0  0  0  0  0  0
  -27.3710  -12.5210   18.5070 C   0  0  0  0  0  2  0  0  0  0  0  0
  -27.0050  -13.3490   19.7650 C   0  0  0  0  0  3  0  0  0  0  0  0
  -28.1180  -13.3190   20.8400 C   0  0  0  0  0  2  0  0  0  0  0  0
  -29.3950  -13.7090   20.2070 N   0  0  0  0  0  0  0  0  0  0  0  0
  -30.9110  -15.3190   19.6710 O   0  0  0  0  0  0  0  0  0  0  0  0
  -24.5900  -13.7070   20.5760 C   0  0  0  0  0  0  0  0  0  0  0  0
  -23.6230  -12.8340   20.9860 C   0  0  0  0  0  0  0  0  0  0  0  0
  -24.2150  -11.5350   20.9300 C   0  0  0  0  0  0  0  0  0  0  0  0
  -25.7090  -12.9400   20.2990 N   0  0  0  0  0  0  0  0  0  0  0  0
  -25.4850  -11.6270   20.5580 N   0  0  0  0  0  0  0  0  0  0  0  0
  -23.6320  -10.2050   21.1400 C   0  0  0  0  0  0  0  0  0  0  0  0
  -24.1110   -9.3380   22.1470 C   0  0  0  0  0  3  0  0  0  0  0  0
  -23.5180   -8.0730   22.3440 C   0  0  0  0  0  3  0  0  0  0  0  0
  -22.4350   -7.6620   21.5290 C   0  0  0  0  0  0  0  0  0  0  0  0
  -21.9750   -8.5190   20.5120 C   0  0  0  0  0  3  0  0  0  0  0  0
  -22.5720   -9.7770   20.3140 C   0  0  0  0  0  3  0  0  0  0  0  0
  -21.8110   -6.4410   21.6320 O   0  0  0  0  0  0  0  0  0  0  0  0
  -21.6680   -5.8030   22.8390 C   0  0  0  0  0  0  0  0  0  0  0  0
  -20.9760   -6.3940   23.9180 C   0  0  0  0  0  3  0  0  0  0  0  0
  -20.7940   -5.6770   25.1150 C   0  0  0  0  0  3  0  0  0  0  0  0
  -21.2930   -4.3660   25.2350 C   0  0  0  0  0  0  0  0  0  0  0  0
  -21.9800   -3.7730   24.1600 C   0  0  0  0  0  3  0  0  0  0  0  0
  -22.1670   -4.4900   22.9650 C   0  0  0  0  0  0  0  0  0  0  0  0
  -22.8070   -3.9050   21.9250 F   0  0  0  0  0  0  0  0  0  0  0  0
  -21.1130   -3.6730   26.3830 F   0  0  0  0  0  0  0  0  0  0  0  0
  -22.1990  -13.1660   21.3340 C   0  0  0  0  0  0  0  0  0  0  0  0
  -21.5950  -12.4040   22.2370 N   0  0  0  0  0  0  0  0  0  0  0  0
  -21.6290  -14.1400   20.8430 O   0  0  0  0  0  0  0  0  0  0  0  0
  -22.0620  -11.6120   22.6480 H   0  0  0  0  0  0  0  0  0  0  0  0
  -20.6500  -12.6140   22.5210 H   0  0  0  0  0  0  0  0  0  0  0  0
  -24.6160  -15.0890   20.3980 N   0  0  0  0  0  0  0  0  0  0  0  0
  -23.8110  -15.6830   20.5430 H   0  0  0  0  0  0  0  0  0  0  0  0
  -25.4210  -15.6000   20.0610 H   0  0  0  0  0  0  0  0  0  0  0  0
  -33.0700  -22.8240   17.8460 N   0  0  0  0  0  0  0  0  0  0  0  0
  -34.0110  -23.1760   17.9990 H   0  0  0  0  0  0  0  0  0  0  0  0
  -33.0120  -22.5240   16.8750 H   0  0  0  0  0  0  0  0  0  0  0  0
  -30.2670  -22.4850   18.4990 C   0  0  0  0  0  2  0  0  0  0  0  0
  -30.1330  -23.7330   19.3070 N   0  0  0  0  0  4  0  0  0  0  0  0
  -29.3620  -23.5720   19.9520 H   0  0  0  0  0  0  0  0  0  0  0  0
  -31.0000  -23.6900   19.8520 H   0  0  0  0  0  0  0  0  0  0  0  0
  -30.0720  -25.0940   18.6330 C   0  0  0  0  0  2  0  0  0  0  0  0
  -28.7340  -25.8820   18.9000 C   0  0  0  0  0  2  0  0  0  0  0  0
  -28.6820  -27.0730   19.7530 O   0  0  0  0  0  0  0  0  0  0  0  0
  -24.6800  -31.8690   23.3550 C   0  0  0  0  0  0  0  0  0  0  0  0
  -27.4680  -27.7760   19.8440 C   0  0  0  0  0  0  0  0  0  0  0  0
  -23.5020  -30.6330   21.5480 C   0  0  0  0  0  3  0  0  0  0  0  0
  -25.0090  -29.2340   20.0350 C   0  0  0  0  0  0  0  0  0  0  0  0
  -26.0430  -30.9940   21.4830 C   0  0  0  0  0  2  0  0  0  0  0  0
  -26.1610  -29.7230   20.6600 C   0  0  0  0  0  0  0  0  0  0  0  0
  -27.3870  -29.0100   20.5490 C   0  0  0  0  0  3  0  0  0  0  0  0
  -26.2630  -27.2830   19.2770 C   0  0  0  0  0  3  0  0  0  0  0  0
  -25.0490  -27.9980   19.3710 C   0  0  0  0  0  3  0  0  0  0  0  0
  -23.7640  -30.0890   20.1170 C   0  0  0  0  0  2  0  0  0  0  0  0
  -24.7470  -31.1930   22.1750 N   0  0  0  0  0  0  0  0  0  0  0  0
  -23.5930  -32.0800   23.9080 O   0  0  0  0  0  0  0  0  0  0  0  0
  -22.8370  -29.5260   22.4030 C   0  0  0  0  0  0  0  0  0  0  0  0
  -21.5110  -29.3650   22.2710 N   0  0  0  0  0  0  0  0  0  0  0  0
  -23.5170  -28.8210   23.1530 O   0  0  0  0  0  0  0  0  0  0  0  0
  -21.0200  -29.9770   21.6380 H   0  0  0  0  0  0  0  0  0  0  0  0
  -18.1450  -28.0980   22.6770 C   0  0  0  0  0  0  0  0  0  0  0  0
  -20.7050  -28.3520   22.9490 C   0  0  0  0  0  3  0  0  0  0  0  0
  -20.8130  -26.9860   22.2310 C   0  0  0  0  0  2  0  0  0  0  0  0
  -19.7030  -26.7580   21.2000 C   0  0  0  0  0  2  0  0  0  0  0  0
  -18.3260  -26.8280   21.8620 C   0  0  0  0  0  2  0  0  0  0  0  0
  -19.2630  -28.8220   23.1740 C   0  0  0  0  0  0  0  0  0  0  0  0
  -19.0370  -30.0110   23.9040 C   0  0  0  0  0  3  0  0  0  0  0  0
  -17.7330  -30.4790   24.1340 C   0  0  0  0  0  3  0  0  0  0  0  0
  -16.6290  -29.7570   23.6440 C   0  0  0  0  0  3  0  0  0  0  0  0
  -16.8390  -28.5660   22.9240 C   0  0  0  0  0  3  0  0  0  0  0  0
  -25.9670  -32.4360   24.0410 C   0  0  0  0  0  3  0  0  0  0  0  0
  -25.6710  -33.8180   24.4470 N   0  0  0  0  0  0  0  0  0  0  0  0
  -26.0280  -34.9110   23.7590 C   0  0  0  0  0  0  0  0  0  0  0  0
  -26.7120  -34.8630   22.7330 O   0  0  0  0  0  0  0  0  0  0  0  0
  -25.0970  -33.9300   25.2690 H   0  0  0  0  0  0  0  0  0  0  0  0
  -24.3340  -36.7450   23.4710 C   0  0  0  0  0  1  0  0  0  0  0  0
  -25.5430  -36.2700   24.2940 C   0  0  0  0  0  3  0  0  0  0  0  0
  -27.6540  -37.0770   25.2550 C   0  0  0  0  0  1  0  0  0  0  0  0
  -26.5900  -37.3140   24.2820 N   0  0  0  0  0  0  0  0  0  0  0  0
  -26.1840  -38.2270   24.4690 H   0  0  0  0  0  0  0  0  0  0  0  0
  -26.4470  -31.5900   25.2890 C   0  0  1  0  0  0  0  0  0  0  0  0
  -25.3210  -31.3310   26.3130 C   0  0  0  0  0  1  0  0  0  0  0  0
  -27.0310  -30.2150   24.8810 C   0  0  0  0  0  1  0  0  0  0  0  0
  -27.5940  -32.3360   26.0120 C   0  0  0  0  0  1  0  0  0  0  0  0
  1  4  1  0
  2  1  2  0
  3  4  2  0
  4  7  1  0
  5  3  1  0
  6  5  2  0
  6  2  1  0
  7  9  2  0
  8  7  1  0
  8 11  1  0
 10  8  1  0
 12 11  1  0
 13 12  1  0
 14 19  1  0
 15 16  1  0
 15 14  1  0
 17 16  1  0
 17 24  1  0
 17 18  1  0
 19 13  1  0
 19 18  1  0
 20 13  2  0
 21 22  2  0
 22 41  1  0
 23 22  1  0
 23 26  1  0
 24 25  1  0
 24 21  1  0
 25 23  2  0
 26 27  1  0
 27 28  2  0
 29 32  1  0
 29 28  1  0
 30 29  2  0
 31 30  1  0
 31 26  2  0
 32 33  1  0
 33 38  2  0
 33 34  1  0
 34 35  2  0
 35 36  1  0
 36 40  1  0
 37 36  2  0
 38 37  1  0
 39 38  1  0
 41 42  1  0
 42 45  1  0
 42 44  1  0
 43 41  2  0
 46 47  1  0
 46 21  1  0
 48 46  1  0
 49 50  1  0
 49  6  1  0
 51 49  1  0
 52  5  1  0
 52 53  1  0
 53 55  1  0
 53 54  1  0
 56 57  1  0
 56 53  1  0
 57 58  1  0
 58 60  1  0
 59 70  2  0
 60 65  1  0
 61 69  1  0
 61 71  1  0
 62 68  1  0
 62 64  1  0
 63 69  1  0
 64 63  1  0
 65 64  2  0
 66 67  1  0
 66 60  2  0
 67 62  2  0
 68 61  1  0
 69 59  1  0
 71 73  2  0
 72 71  1  0
 74 72  1  0
 75 84  2  0
 75 80  1  0
 76 72  1  0
 76 80  1  0
 77 76  1  0
 78 79  1  0
 78 77  1  0
 79 75  1  0
 80 81  2  0
 81 82  1  0
 83 82  2  0
 84 83  1  0
 85 59  1  0
 85 86  1  0
 85 95  1  0
 86 89  1  0
 87 91  1  0
 87 86  1  0
 88 87  2  0
 91 90  1  0
 93 91  1  0
 93 94  1  0
 93 92  1  0
 95 98  1  1
 95 96  1  0
 97 95  1  0
M  ISO  4  12 100  13 100  57 101  58 101
M  END
>  <TORSDO>  (43) 
F 24

>  <SCORE>  (43) 
-10.760

>  <name>  (43) 
42

>  <ligand_id>  (43) 
42

>  <original_smiles>  (43) 
[H]c1c([H])c([H])c2c(c1[H])C([H])([H])C([H])([H])C([H])([H])C2([H])N([H])C(=O)C1([H])N(C(=O)C([H])(N([H])C(=O)C([H])(N([H])C([H])([H])[H])C([H])([H])[H])C(C([H])([H])[H])(C([H])([H])[H])C([H])([H])[H])C([H])([H])c2c([H])c(OC([H])([H])C([H])([H])[N+]([H])([H])C([H])([H])c3c([H])c(C(=O)N([H])C([H])([H])C([H])([H])C(=O)N4C([H])([H])C([H])([H])C([H])([H])C([H])(n5nc(-c6c([H])c([H])c(Oc7c([H])c([H])c(F)c([H])c7F)c([H])c6[H])c(C(=O)N([H])[H])c5N([H])[H])C4([H])[H])c([H])c([H])c3N([H])[H])c([H])c([H])c2C1([H])[H]

>  <smiles>  (43) 
[H]c1c([H])c([H])c2c(c1[H])C([H])([H])C([H])([H])C([H])([H])C2([H])N([H])C(=O)C1([H])N(C(=O)C([H])(N([H])C(=O)C([H])(N([H])C([H])([H])[H])C([H])([H])[H])C(C([H])([H])[H])(C([H])([H])[H])C([H])([H])[H])C([H])([H])c2c([H])c(OC([H])([H])C([H])([H])[N+]([H])([H])C([H])([H])c3c([H])c(C(=O)N([H])C([H])([H])C([H])([H])C(=O)N4C([H])([H])C([H])([H])C([H])([H])C([H])(n5nc(-c6c([H])c([H])c(Oc7c([H])c([H])c(F)c([H])c7F)c([H])c6[H])c(C(=O)N([H])[H])c5N([H])[H])C4([H])[H])c([H])c([H])c3N([H])[H])c([H])c([H])c2C1([H])[H]

$$$$
43:0:0
     RDKit          3D

 90 98  0  0  1  0  0  0  0  0999 V2000
  -29.3710  -22.7860   22.6410 C   0  0  0  0  0  3  0  0  0  0  0  0
  -29.5790  -21.5210   22.0560 C   0  0  0  0  0  3  0  0  0  0  0  0
  -29.0470  -23.9270   21.8720 C   0  0  0  0  0  3  0  0  0  0  0  0
  -29.0000  -22.4960   19.9050 C   0  0  0  0  0  3  0  0  0  0  0  0
  -29.4010  -21.3340   20.6650 C   0  0  0  0  0  0  0  0  0  0  0  0
  -28.8340  -23.8130   20.4840 C   0  0  0  0  0  0  0  0  0  0  0  0
  -29.7610  -19.9790   20.0130 C   0  0  0  0  0  0  0  0  0  0  0  0
  -30.2600  -19.9650   18.8810 O   0  0  0  0  0  0  0  0  0  0  0  0
  -29.5560  -18.5770   20.7430 C   0  0  0  0  0  3  0  0  0  0  0  0
  -30.0200  -17.2730   19.9300 C   0  0  0  0  0  3  0  0  0  0  0  0
  -30.5900  -14.7600   20.2640 C   0  0  0  0  0  0  0  0  0  0  0  0
  -30.4060  -12.5230   19.2530 C   0  0  0  0  0  2  0  0  0  0  0  0
  -29.4450  -12.6420   18.0500 C   0  0  0  0  0  2  0  0  0  0  0  0
  -27.9530  -12.5180   18.4600 C   0  0  0  0  0  2  0  0  0  0  0  0
  -27.5870  -13.3690   19.7010 C   0  0  0  0  0  3  0  0  0  0  0  0
  -28.6620  -13.1880   20.7980 C   0  0  0  0  0  2  0  0  0  0  0  0
  -29.9730  -13.5360   20.2330 N   0  0  0  0  0  0  0  0  0  0  0  0
  -31.7550  -14.8840   19.8810 O   0  0  0  0  0  0  0  0  0  0  0  0
  -29.8000  -15.8700   20.4720 N   0  0  0  0  0  0  0  0  0  0  0  0
  -28.8460  -15.6610   20.7250 H   0  0  0  0  0  0  0  0  0  0  0  0
  -25.1950  -13.9650   20.4540 C   0  0  0  0  0  0  0  0  0  0  0  0
  -24.1390  -13.1920   20.8460 C   0  0  0  0  0  0  0  0  0  0  0  0
  -24.6010  -11.8340   20.8030 C   0  0  0  0  0  0  0  0  0  0  0  0
  -26.2400  -13.0820   20.1900 N   0  0  0  0  0  0  0  0  0  0  0  0
  -25.8880  -11.8010   20.4800 N   0  0  0  0  0  0  0  0  0  0  0  0
  -23.8690  -10.5740   20.9930 C   0  0  0  0  0  0  0  0  0  0  0  0
  -24.3130   -9.5820   21.9030 C   0  0  0  0  0  3  0  0  0  0  0  0
  -23.5810   -8.3810   22.0680 C   0  0  0  0  0  3  0  0  0  0  0  0
  -22.3900   -8.1690   21.3310 C   0  0  0  0  0  0  0  0  0  0  0  0
  -21.9670   -9.1470   20.4080 C   0  0  0  0  0  3  0  0  0  0  0  0
  -22.6970  -10.3340   20.2420 C   0  0  0  0  0  3  0  0  0  0  0  0
  -21.6150   -7.0320   21.4260 O   0  0  0  0  0  0  0  0  0  0  0  0
  -21.5910   -6.2760   22.5760 C   0  0  0  0  0  0  0  0  0  0  0  0
  -21.2280   -6.8210   23.8290 C   0  0  0  0  0  3  0  0  0  0  0  0
  -21.1670   -5.9900   24.9680 C   0  0  0  0  0  3  0  0  0  0  0  0
  -21.4540   -4.6160   24.8530 C   0  0  0  0  0  0  0  0  0  0  0  0
  -21.8000   -4.0710   23.6060 C   0  0  0  0  0  3  0  0  0  0  0  0
  -21.8730   -4.8990   22.4740 C   0  0  0  0  0  0  0  0  0  0  0  0
  -22.1950   -4.3690   21.2730 F   0  0  0  0  0  0  0  0  0  0  0  0
  -21.3660   -3.8130   25.9410 F   0  0  0  0  0  0  0  0  0  0  0  0
  -22.7450  -13.6670   21.1520 C   0  0  0  0  0  0  0  0  0  0  0  0
  -22.0180  -12.9690   22.0200 N   0  0  0  0  0  0  0  0  0  0  0  0
  -22.3090  -14.6970   20.6350 O   0  0  0  0  0  0  0  0  0  0  0  0
  -22.3710  -12.1450   22.4870 H   0  0  0  0  0  0  0  0  0  0  0  0
  -21.0750  -13.2620   22.2370 H   0  0  0  0  0  0  0  0  0  0  0  0
  -25.3660  -15.3430   20.2850 N   0  0  0  0  0  0  0  0  0  0  0  0
  -24.6520  -16.0250   20.5310 H   0  0  0  0  0  0  0  0  0  0  0  0
  -26.1730  -15.7580   19.8360 H   0  0  0  0  0  0  0  0  0  0  0  0
  -28.4250  -25.0730   19.6320 C   0  0  0  0  0  2  0  0  0  0  0  0
  -28.3640  -26.4460   20.2390 O   0  0  0  0  0  0  0  0  0  0  0  0
  -24.6380  -31.8920   23.2370 C   0  0  0  0  0  0  0  0  0  0  0  0
  -27.2350  -27.2980   20.1660 C   0  0  0  0  0  0  0  0  0  0  0  0
  -23.4300  -30.4990   21.5980 C   0  0  0  0  0  3  0  0  0  0  0  0
  -24.8780  -28.9460   20.1720 C   0  0  0  0  0  0  0  0  0  0  0  0
  -25.9780  -30.8000   21.4170 C   0  0  0  0  0  2  0  0  0  0  0  0
  -26.0540  -29.4190   20.7680 C   0  0  0  0  0  0  0  0  0  0  0  0
  -27.2300  -28.6040   20.7610 C   0  0  0  0  0  3  0  0  0  0  0  0
  -26.0280  -26.8880   19.5530 C   0  0  0  0  0  3  0  0  0  0  0  0
  -24.8710  -27.6850   19.5650 C   0  0  0  0  0  3  0  0  0  0  0  0
  -23.6470  -29.8260   20.2180 C   0  0  0  0  0  2  0  0  0  0  0  0
  -24.7020  -31.0840   22.1370 N   0  0  0  0  0  0  0  0  0  0  0  0
  -23.5570  -32.1680   23.7760 O   0  0  0  0  0  0  0  0  0  0  0  0
  -22.7700  -29.4790   22.5550 C   0  0  0  0  0  0  0  0  0  0  0  0
  -21.4440  -29.2970   22.4340 N   0  0  0  0  0  0  0  0  0  0  0  0
  -23.4540  -28.8560   23.3700 O   0  0  0  0  0  0  0  0  0  0  0  0
  -20.9480  -29.8590   21.7570 H   0  0  0  0  0  0  0  0  0  0  0  0
  -18.0810  -28.0670   22.9400 C   0  0  0  0  0  0  0  0  0  0  0  0
  -20.6360  -28.3520   23.2070 C   0  0  0  0  0  3  0  0  0  0  0  0
  -20.7490  -26.9160   22.6450 C   0  0  0  0  0  2  0  0  0  0  0  0
  -19.6540  -26.5790   21.6290 C   0  0  0  0  0  2  0  0  0  0  0  0
  -18.2700  -26.7160   22.2690 C   0  0  0  0  0  2  0  0  0  0  0  0
  -19.1910  -28.8410   23.3680 C   0  0  0  0  0  0  0  0  0  0  0  0
  -18.9610  -30.1040   23.9550 C   0  0  0  0  0  3  0  0  0  0  0  0
  -17.6530  -30.5950   24.1170 C   0  0  0  0  0  3  0  0  0  0  0  0
  -16.5560  -29.8200   23.7040 C   0  0  0  0  0  3  0  0  0  0  0  0
  -16.7710  -28.5560   23.1230 C   0  0  0  0  0  3  0  0  0  0  0  0
  -25.9200  -32.5270   23.8530 C   0  0  0  0  0  3  0  0  0  0  0  0
  -26.4480  -31.7590   25.1290 C   0  0  1  0  0  0  0  0  0  0  0  0
  -25.3590  -31.5310   26.2020 C   0  0  0  0  0  1  0  0  0  0  0  0
  -27.0360  -30.3790   24.7470 C   0  0  0  0  0  1  0  0  0  0  0  0
  -27.5940  -32.5620   25.7930 C   0  0  0  0  0  1  0  0  0  0  0  0
  -25.6090  -33.9240   24.1880 N   0  0  0  0  0  0  0  0  0  0  0  0
  -25.9300  -34.9810   23.4290 C   0  0  0  0  0  0  0  0  0  0  0  0
  -26.5900  -34.8830   22.3910 O   0  0  0  0  0  0  0  0  0  0  0  0
  -25.0220  -34.0760   24.9960 H   0  0  0  0  0  0  0  0  0  0  0  0
  -24.1850  -36.7670   23.1050 C   0  0  0  0  0  1  0  0  0  0  0  0
  -25.4400  -36.3650   23.8960 C   0  0  0  0  0  3  0  0  0  0  0  0
  -27.5800  -37.2640   24.7000 C   0  0  0  0  0  1  0  0  0  0  0  0
  -26.4630  -37.4250   23.7730 N   0  0  0  0  0  0  0  0  0  0  0  0
  -26.0520  -38.3410   23.9310 H   0  0  0  0  0  0  0  0  0  0  0  0
  2  1  1  0
  3  1  2  0
  4  6  2  0
  4  5  1  0
  5  2  2  0
  6  3  1  0
  7  5  1  0
  7  9  1  0
  8  7  2  0
 10 19  1  0
 10  9  2  0
 11 19  1  0
 12 17  1  0
 13 14  1  0
 13 12  1  0
 15 14  1  0
 15 24  1  0
 15 16  1  0
 17 11  1  0
 17 16  1  0
 18 11  2  0
 19 20  1  0
 21 22  2  0
 22 41  1  0
 23 22  1  0
 23 26  1  0
 24 21  1  0
 24 25  1  0
 25 23  2  0
 26 27  1  0
 27 28  2  0
 29 32  1  0
 29 28  1  0
 30 29  2  0
 31 30  1  0
 31 26  2  0
 32 33  1  0
 33 34  1  0
 34 35  2  0
 36 35  1  0
 36 40  1  0
 37 36  2  0
 38 33  2  0
 38 37  1  0
 39 38  1  0
 41 42  1  0
 42 45  1  0
 42 44  1  0
 43 41  2  0
 46 21  1  0
 46 47  1  0
 48 46  1  0
 49 50  1  0
 49  6  1  0
 51 62  2  0
 52 50  1  0
 52 57  1  0
 53 61  1  0
 53 63  1  0
 54 60  1  0
 54 56  1  0
 55 61  1  0
 56 55  1  0
 57 56  2  0
 58 59  1  0
 58 52  2  0
 59 54  2  0
 60 53  1  0
 61 51  1  0
 63 65  2  0
 64 63  1  0
 66 64  1  0
 67 76  2  0
 67 72  1  0
 68 64  1  0
 68 72  1  0
 69 68  1  0
 70 71  1  0
 70 69  1  0
 71 67  1  0
 72 73  2  0
 73 74  1  0
 75 74  2  0
 76 75  1  0
 77 51  1  0
 77 82  1  0
 77 78  1  0
 78 81  1  1
 78 79  1  0
 80 78  1  0
 82 85  1  0
 83 87  1  0
 83 82  1  0
 84 83  2  0
 87 86  1  0
 89 87  1  0
 89 90  1  0
 89 88  1  0
M  ISO  4  11 100  19 100  49 101  50 101
M  END
>  <TORSDO>  (44) 
F 20

>  <SCORE>  (44) 
-13.899

>  <name>  (44) 
43

>  <ligand_id>  (44) 
43

>  <original_smiles>  (44) 
[H]c1c([H])c(C(=O)C([H])([H])C([H])([H])N([H])C(=O)N2C([H])([H])C([H])([H])C([H])([H])C([H])(n3nc(-c4c([H])c([H])c(Oc5c([H])c([H])c(F)c([H])c5F)c([H])c4[H])c(C(=O)N([H])[H])c3N([H])[H])C2([H])[H])c([H])c(C([H])([H])Oc2c([H])c([H])c3c(c2[H])C([H])([H])N(C(=O)C([H])(N([H])C(=O)C([H])(N([H])C([H])([H])[H])C([H])([H])[H])C(C([H])([H])[H])(C([H])([H])[H])C([H])([H])[H])C([H])(C(=O)N([H])C2([H])c4c([H])c([H])c([H])c([H])c4C([H])([H])C([H])([H])C2([H])[H])C3([H])[H])c1[H]

>  <smiles>  (44) 
[H]c1c([H])c(C(=O)C([H])([H])C([H])([H])N([H])C(=O)N2C([H])([H])C([H])([H])C([H])([H])C([H])(n3nc(-c4c([H])c([H])c(Oc5c([H])c([H])c(F)c([H])c5F)c([H])c4[H])c(C(=O)N([H])[H])c3N([H])[H])C2([H])[H])c([H])c(C([H])([H])Oc2c([H])c([H])c3c(c2[H])C([H])([H])N(C(=O)C([H])(N([H])C(=O)C([H])(N([H])C([H])([H])[H])C([H])([H])[H])C(C([H])([H])[H])(C([H])([H])[H])C([H])([H])[H])C([H])(C(=O)N([H])C2([H])c4c([H])c([H])c([H])c([H])c4C([H])([H])C([H])([H])C2([H])[H])C3([H])[H])c1[H]

$$$$
44:0:0
     RDKit          3D

 93102  0  0  1  0  0  0  0  0999 V2000
  -27.5090  -18.8740   19.4440 C   0  0  0  0  0  3  0  0  0  0  0  0
  -27.1250  -20.1350   19.9820 C   0  0  0  0  0  0  0  0  0  0  0  0
  -28.0590  -20.6800   20.7810 C   0  0  0  0  0  0  0  0  0  0  0  0
  -28.8370  -18.6140   19.7250 C   0  0  0  0  0  0  0  0  0  0  0  0
  -26.0350  -21.1330   19.7540 C   0  0  0  0  0  2  0  0  0  0  0  0
  -27.8010  -22.0660   21.1660 C   0  0  0  0  0  2  0  0  0  0  0  0
  -26.7490  -22.4950   20.0930 C   0  0  0  0  0  3  0  0  0  0  0  0
  -29.5150  -19.7710   20.8600 S   0  0  0  0  0  0  0  0  0  0  0  0
  -26.3360  -23.5430   17.7750 C   0  0  0  0  0  1  0  0  0  0  0  0
  -27.4010  -23.2160   18.8470 C   0  0  0  0  0  3  0  0  0  0  0  0
  -28.2030  -24.4880   19.2990 C   0  0  0  0  0  2  0  0  0  0  0  0
  -28.5490  -25.6180   18.2900 C   0  0  0  0  0  2  0  0  0  0  0  0
  -28.5370  -26.9180   18.9290 O   0  0  0  0  0  0  0  0  0  0  0  0
  -24.6020  -31.4690   22.8330 C   0  0  0  0  0  0  0  0  0  0  0  0
  -27.3180  -27.5540   19.1160 C   0  0  0  0  0  0  0  0  0  0  0  0
  -23.3880  -30.1640   21.1270 C   0  0  0  0  0  3  0  0  0  0  0  0
  -24.8330  -28.8920   19.4680 C   0  0  0  0  0  0  0  0  0  0  0  0
  -25.8790  -30.6960   20.8360 C   0  0  0  0  0  2  0  0  0  0  0  0
  -26.0000  -29.4070   20.0500 C   0  0  0  0  0  0  0  0  0  0  0  0
  -27.2400  -28.7390   19.8840 C   0  0  0  0  0  3  0  0  0  0  0  0
  -26.1220  -27.0730   18.5380 C   0  0  0  0  0  3  0  0  0  0  0  0
  -24.8900  -27.7160   18.7120 C   0  0  0  0  0  3  0  0  0  0  0  0
  -23.5460  -29.6570   19.6730 C   0  0  0  0  0  2  0  0  0  0  0  0
  -24.6460  -30.7860   21.6560 N   0  0  0  0  0  0  0  0  0  0  0  0
  -23.5390  -31.6120   23.4530 O   0  0  0  0  0  0  0  0  0  0  0  0
  -22.8680  -29.0010   22.0000 C   0  0  0  0  0  0  0  0  0  0  0  0
  -21.5560  -28.7270   21.9100 N   0  0  0  0  0  0  0  0  0  0  0  0
  -23.6370  -28.3590   22.7190 O   0  0  0  0  0  0  0  0  0  0  0  0
  -20.9960  -29.3060   21.3010 H   0  0  0  0  0  0  0  0  0  0  0  0
  -18.3150  -27.2050   22.4020 C   0  0  0  0  0  0  0  0  0  0  0  0
  -20.8500  -27.6580   22.6160 C   0  0  0  0  0  3  0  0  0  0  0  0
  -21.0490  -26.2970   21.9080 C   0  0  0  0  0  2  0  0  0  0  0  0
  -19.9380  -25.9690   20.9050 C   0  0  0  0  0  2  0  0  0  0  0  0
  -18.5760  -25.9380   21.6040 C   0  0  0  0  0  2  0  0  0  0  0  0
  -19.3820  -28.0190   22.8640 C   0  0  0  0  0  0  0  0  0  0  0  0
  -19.0810  -29.2020   23.5710 C   0  0  0  0  0  3  0  0  0  0  0  0
  -17.7450  -29.5710   23.8210 C   0  0  0  0  0  3  0  0  0  0  0  0
  -16.6940  -28.7550   23.3710 C   0  0  0  0  0  3  0  0  0  0  0  0
  -16.9820  -27.5730   22.6670 C   0  0  0  0  0  3  0  0  0  0  0  0
  -25.8780  -32.1220   23.4470 C   0  0  0  0  0  3  0  0  0  0  0  0
  -25.4890  -33.4360   23.9750 N   0  0  0  0  0  0  0  0  0  0  0  0
  -25.6900  -34.5990   23.3400 C   0  0  0  0  0  0  0  0  0  0  0  0
  -26.2990  -34.6800   22.2700 O   0  0  0  0  0  0  0  0  0  0  0  0
  -24.9400  -33.4390   24.8220 H   0  0  0  0  0  0  0  0  0  0  0  0
  -23.8120  -36.2730   23.3120 C   0  0  0  0  0  1  0  0  0  0  0  0
  -25.1290  -35.8750   24.0000 C   0  0  0  0  0  3  0  0  0  0  0  0
  -27.2440  -36.8200   24.8140 C   0  0  0  0  0  1  0  0  0  0  0  0
  -26.0710  -37.0140   23.9670 N   0  0  0  0  0  0  0  0  0  0  0  0
  -25.6140  -37.8750   24.2540 H   0  0  0  0  0  0  0  0  0  0  0  0
  -26.5420  -31.2410   24.5760 C   0  0  1  0  0  0  0  0  0  0  0  0
  -25.5550  -30.7840   25.6760 C   0  0  0  0  0  1  0  0  0  0  0  0
  -27.1870  -29.9740   23.9700 C   0  0  0  0  0  1  0  0  0  0  0  0
  -27.6850  -32.0360   25.2510 C   0  0  0  0  0  1  0  0  0  0  0  0
  -29.7520  -17.6830   19.0100 C   0  0  0  0  0  2  0  0  0  0  0  0
  -30.7730  -16.9410   19.8830 C   0  0  0  0  0  2  0  0  0  0  0  0
  -30.9220  -14.4910   20.1020 C   0  0  0  0  0  0  0  0  0  0  0  0
  -30.4550  -12.2880   19.1490 C   0  0  0  0  0  2  0  0  0  0  0  0
  -29.5540  -12.4590   17.9020 C   0  0  0  0  0  2  0  0  0  0  0  0
  -28.0860  -12.8070   18.2530 C   0  0  0  0  0  2  0  0  0  0  0  0
  -27.8100  -12.7750   19.7590 C   0  0  0  0  0  3  0  0  0  0  0  0
  -28.8540  -13.2690   20.7590 C   0  0  0  0  0  2  0  0  0  0  0  0
  -30.1550  -13.3810   20.0870 N   0  0  0  0  0  0  0  0  0  0  0  0
  -32.0810  -14.5100   19.6870 O   0  0  0  0  0  0  0  0  0  0  0  0
  -30.2780  -15.6400   20.3300 N   0  0  0  0  0  0  0  0  0  0  0  0
  -29.3130  -15.5860   20.6230 H   0  0  0  0  0  0  0  0  0  0  0  0
  -25.4600  -13.8310   20.4150 C   0  0  0  0  0  0  0  0  0  0  0  0
  -24.3340  -13.1470   20.8120 C   0  0  0  0  0  0  0  0  0  0  0  0
  -24.6850  -11.7650   20.7690 C   0  0  0  0  0  0  0  0  0  0  0  0
  -26.4220  -12.8430   20.1900 N   0  0  0  0  0  0  0  0  0  0  0  0
  -25.9360  -11.6190   20.4390 N   0  0  0  0  0  0  0  0  0  0  0  0
  -23.9250  -10.5380   20.9530 C   0  0  0  0  0  0  0  0  0  0  0  0
  -24.3780   -9.5400   21.8430 C   0  0  0  0  0  3  0  0  0  0  0  0
  -23.6510   -8.3430   21.9880 C   0  0  0  0  0  3  0  0  0  0  0  0
  -22.4580   -8.1520   21.2570 C   0  0  0  0  0  0  0  0  0  0  0  0
  -22.0330   -9.1390   20.3500 C   0  0  0  0  0  3  0  0  0  0  0  0
  -22.7620  -10.3250   20.1950 C   0  0  0  0  0  3  0  0  0  0  0  0
  -21.6890   -7.0190   21.3290 O   0  0  0  0  0  0  0  0  0  0  0  0
  -21.6490   -6.2550   22.4670 C   0  0  0  0  0  0  0  0  0  0  0  0
  -21.2690   -6.7910   23.7160 C   0  0  0  0  0  3  0  0  0  0  0  0
  -21.1810   -5.9510   24.8460 C   0  0  0  0  0  3  0  0  0  0  0  0
  -21.4560   -4.5750   24.7210 C   0  0  0  0  0  0  0  0  0  0  0  0
  -21.8290   -4.0410   23.4750 C   0  0  0  0  0  3  0  0  0  0  0  0
  -21.9240   -4.8790   22.3510 C   0  0  0  0  0  0  0  0  0  0  0  0
  -22.2670   -4.3590   21.1470 F   0  0  0  0  0  0  0  0  0  0  0  0
  -21.3600   -3.7620   25.7980 F   0  0  0  0  0  0  0  0  0  0  0  0
  -22.9680  -13.6940   21.1190 C   0  0  0  0  0  0  0  0  0  0  0  0
  -22.2180  -13.0160   21.9830 N   0  0  0  0  0  0  0  0  0  0  0  0
  -22.5660  -14.7440   20.6220 O   0  0  0  0  0  0  0  0  0  0  0  0
  -22.5480  -12.1660   22.4150 H   0  0  0  0  0  0  0  0  0  0  0  0
  -21.2930  -13.3550   22.2080 H   0  0  0  0  0  0  0  0  0  0  0  0
  -25.7300  -15.1840   20.2170 N   0  0  0  0  0  0  0  0  0  0  0  0
  -25.0020  -15.8880   20.2200 H   0  0  0  0  0  0  0  0  0  0  0  0
  -26.5710  -15.4800   19.7370 H   0  0  0  0  0  0  0  0  0  0  0  0
  1  4  2  0
  1  2  1  0
  2  3  2  0
  3  8  1  0
  3  6  1  0
  4  8  1  0
  5  2  1  0
  5  7  1  0
  7 10  1  0
  7  6  1  0
 10  9  1  0
 10 11  1  0
 12 13  1  0
 12 11  1  0
 13 15  1  0
 14 25  2  0
 15 20  1  0
 16 24  1  0
 16 26  1  0
 17 23  1  0
 17 19  1  0
 18 24  1  0
 19 18  1  0
 20 19  2  0
 21 22  1  0
 21 15  2  0
 22 17  2  0
 23 16  1  0
 24 14  1  0
 26 28  2  0
 27 26  1  0
 29 27  1  0
 30 39  2  0
 30 35  1  0
 31 27  1  0
 31 35  1  0
 32 31  1  0
 33 34  1  0
 33 32  1  0
 34 30  1  0
 35 36  2  0
 36 37  1  0
 38 37  2  0
 39 38  1  0
 40 14  1  0
 40 41  1  0
 40 50  1  0
 41 44  1  0
 42 41  1  0
 42 46  1  0
 43 42  2  0
 46 45  1  0
 48 46  1  0
 48 49  1  0
 48 47  1  0
 50 53  1  1
 50 51  1  0
 52 50  1  0
 54  4  1  0
 54 55  1  0
 55 64  1  0
 56 64  1  0
 57 62  1  0
 58 59  1  0
 58 57  1  0
 60 59  1  0
 60 69  1  0
 60 61  1  0
 62 56  1  0
 62 61  1  0
 63 56  2  0
 64 65  1  0
 66 67  2  0
 67 86  1  0
 68 67  1  0
 68 71  1  0
 69 66  1  0
 69 70  1  0
 70 68  2  0
 71 72  1  0
 72 73  2  0
 74 77  1  0
 74 73  1  0
 75 74  2  0
 76 75  1  0
 76 71  2  0
 77 78  1  0
 78 79  1  0
 79 80  2  0
 81 80  1  0
 81 85  1  0
 82 81  2  0
 83 78  2  0
 83 82  1  0
 84 83  1  0
 86 87  1  0
 87 90  1  0
 87 89  1  0
 88 86  2  0
 91 92  1  0
 91 66  1  0
 93 91  1  0
M  ISO  4  12 101  13 101  56 100  64 100
M  END
>  <TORSDO>  (45) 
F 21

>  <SCORE>  (45) 
-10.347

>  <name>  (45) 
44

>  <ligand_id>  (45) 
44

>  <original_smiles>  (45) 
[H]c1c([H])c([H])c2c(c1[H])C([H])([H])C([H])([H])C([H])([H])C2([H])N([H])C(=O)C1([H])N(C(=O)C([H])(N([H])C(=O)C([H])(N([H])C([H])([H])[H])C([H])([H])[H])C(C([H])([H])[H])(C([H])([H])[H])C([H])([H])[H])C([H])([H])c2c([H])c(OC([H])([H])C([H])([H])C([H])(C([H])([H])[H])C3([H])C([H])([H])c4sc(C([H])([H])C([H])([H])N([H])C(=O)N5C([H])([H])C([H])([H])C([H])([H])C([H])(n6nc(-c7c([H])c([H])c(Oc8c([H])c([H])c(F)c([H])c8F)c([H])c7[H])c(C(=O)N([H])[H])c6N([H])[H])C5([H])[H])c([H])c4C3([H])[H])c([H])c([H])c2C1([H])[H]

>  <smiles>  (45) 
[H]c1c([H])c([H])c2c(c1[H])C([H])([H])C([H])([H])C([H])([H])C2([H])N([H])C(=O)C1([H])N(C(=O)C([H])(N([H])C(=O)C([H])(N([H])C([H])([H])[H])C([H])([H])[H])C(C([H])([H])[H])(C([H])([H])[H])C([H])([H])[H])C([H])([H])c2c([H])c(OC([H])([H])C([H])([H])C([H])(C([H])([H])[H])C3([H])C([H])([H])c4sc(C([H])([H])C([H])([H])N([H])C(=O)N5C([H])([H])C([H])([H])C([H])([H])C([H])(n6nc(-c7c([H])c([H])c(Oc8c([H])c([H])c(F)c([H])c8F)c([H])c7[H])c(C(=O)N([H])[H])c6N([H])[H])C5([H])[H])c([H])c4C3([H])[H])c([H])c([H])c2C1([H])[H]

$$$$
45:0:0
     RDKit          3D

100108  0  0  1  0  0  0  0  0999 V2000
  -25.0930  -23.5960   18.9610 C   0  0  0  0  0  3  0  0  0  0  0  0
  -27.3340  -23.9580   18.1170 C   0  0  0  0  0  3  0  0  0  0  0  0
  -25.9680  -24.2890   18.0990 C   0  0  0  0  0  0  0  0  0  0  0  0
  -25.5850  -22.6300   19.8650 C   0  0  0  0  0  0  0  0  0  0  0  0
  -27.8440  -22.9730   18.9850 C   0  0  0  0  0  0  0  0  0  0  0  0
  -26.9670  -22.3000   19.8770 C   0  0  0  0  0  0  0  0  0  0  0  0
  -24.5970  -21.9920   20.8260 C   0  0  0  0  0  1  0  0  0  0  0  0
  -27.5100  -21.2330   20.8270 C   0  0  0  0  0  1  0  0  0  0  0  0
  -25.4520  -25.3440   17.1640 C   0  0  0  0  0  0  0  0  0  0  0  0
  -26.3960  -25.9580   16.4400 N   0  0  0  0  0  0  0  0  0  0  0  0
  -24.2580  -25.6430   17.1270 O   0  0  0  0  0  0  0  0  0  0  0  0
  -27.3440  -25.6400   16.5880 H   0  0  0  0  0  0  0  0  0  0  0  0
  -26.2380  -27.1380   15.5990 C   0  0  0  0  0  2  0  0  0  0  0  0
  -27.1180  -28.2810   16.1350 C   0  0  0  0  0  2  0  0  0  0  0  0
  -26.3540  -29.4580   16.3540 O   0  0  0  0  0  0  0  0  0  0  0  0
  -25.4990  -27.7850   23.1900 C   0  0  0  0  0  0  0  0  0  0  0  0
  -25.4830  -29.3810   17.4120 C   0  0  0  0  0  0  0  0  0  0  0  0
  -23.4200  -28.2620   21.9350 C   0  0  0  0  0  3  0  0  0  0  0  0
  -23.7330  -29.2690   19.6180 C   0  0  0  0  0  0  0  0  0  0  0  0
  -25.6320  -29.3300   21.2420 C   0  0  0  0  0  2  0  0  0  0  0  0
  -25.1160  -29.3180   19.8220 C   0  0  0  0  0  0  0  0  0  0  0  0
  -25.9960  -29.3810   18.7210 C   0  0  0  0  0  3  0  0  0  0  0  0
  -24.0870  -29.3370   17.2150 C   0  0  0  0  0  3  0  0  0  0  0  0
  -23.2080  -29.2760   18.3140 C   0  0  0  0  0  3  0  0  0  0  0  0
  -22.8650  -29.2300   20.8540 C   0  0  0  0  0  2  0  0  0  0  0  0
  -24.8960  -28.4170   22.1480 N   0  0  0  0  0  0  0  0  0  0  0  0
  -24.8420  -27.1180   24.0020 O   0  0  0  0  0  0  0  0  0  0  0  0
  -23.0040  -26.8200   21.5670 C   0  0  0  0  0  0  0  0  0  0  0  0
  -21.7760  -26.6730   21.0410 N   0  0  0  0  0  0  0  0  0  0  0  0
  -23.7780  -25.8730   21.7360 O   0  0  0  0  0  0  0  0  0  0  0  0
  -21.1960  -27.4990   20.9610 H   0  0  0  0  0  0  0  0  0  0  0  0
  -19.4820  -25.2430   18.6440 C   0  0  0  0  0  0  0  0  0  0  0  0
  -21.1840  -25.4160   20.5830 C   0  0  0  0  0  3  0  0  0  0  0  0
  -22.1560  -24.6440   19.6610 C   0  0  0  0  0  2  0  0  0  0  0  0
  -21.9490  -24.9520   18.1740 C   0  0  0  0  0  2  0  0  0  0  0  0
  -20.5230  -24.5910   17.7490 C   0  0  0  0  0  2  0  0  0  0  0  0
  -19.7970  -25.6440   19.9690 C   0  0  0  0  0  0  0  0  0  0  0  0
  -18.8040  -26.2790   20.7470 C   0  0  0  0  0  3  0  0  0  0  0  0
  -17.5160  -26.5070   20.2230 C   0  0  0  0  0  3  0  0  0  0  0  0
  -17.2040  -26.0940   18.9170 C   0  0  0  0  0  3  0  0  0  0  0  0
  -18.1850  -25.4580   18.1330 C   0  0  0  0  0  3  0  0  0  0  0  0
  -27.0390  -27.8920   23.4330 C   0  0  0  0  0  3  0  0  0  0  0  0
  -27.2450  -28.7750   24.5900 N   0  0  0  0  0  0  0  0  0  0  0  0
  -27.7390  -30.0180   24.5160 C   0  0  0  0  0  0  0  0  0  0  0  0
  -28.1470  -30.5170   23.4640 O   0  0  0  0  0  0  0  0  0  0  0  0
  -26.8770  -28.4510   25.4730 H   0  0  0  0  0  0  0  0  0  0  0  0
  -26.6840  -31.9040   25.8090 C   0  0  0  0  0  1  0  0  0  0  0  0
  -27.7930  -30.8390   25.8180 C   0  0  0  0  0  3  0  0  0  0  0  0
  -30.1730  -30.5440   26.3500 C   0  0  0  0  0  1  0  0  0  0  0  0
  -29.1010  -31.4890   26.0520 N   0  0  0  0  0  0  0  0  0  0  0  0
  -29.0390  -32.1460   26.8270 H   0  0  0  0  0  0  0  0  0  0  0  0
  -27.7290  -26.4900   23.6650 C   0  0  1  0  0  0  0  0  0  0  0  0
  -27.0580  -25.6420   24.7700 C   0  0  0  0  0  1  0  0  0  0  0  0
  -27.7230  -25.6600   22.3580 C   0  0  0  0  0  1  0  0  0  0  0  0
  -29.2100  -26.6960   24.0570 C   0  0  0  0  0  1  0  0  0  0  0  0
  -29.3500  -22.7290   18.9090 C   0  0  0  0  0  2  0  0  0  0  0  0
  -29.8300  -22.4450   17.4670 C   0  0  0  0  0  2  0  0  0  0  0  0
  -31.0380  -23.2250   17.0970 N   0  0  0  0  0  4  0  0  0  0  0  0
  -31.0450  -24.0740   17.6330 H   0  0  0  0  0  0  0  0  0  0  0  0
  -30.9650  -23.4750   16.1230 H   0  0  0  0  0  0  0  0  0  0  0  0
  -32.3060  -22.5050   17.3280 C   0  0  0  0  0  2  0  0  0  0  0  0
  -33.5450  -23.4220   17.4990 C   0  0  0  0  0  2  0  0  0  0  0  0
  -35.6300  -22.3220   18.4020 C   0  0  0  0  0  0  0  0  0  0  0  0
  -37.0780  -20.5500   19.3580 C   0  0  0  0  0  2  0  0  0  0  0  0
  -37.1220  -19.2810   18.4830 C   0  0  0  0  0  2  0  0  0  0  0  0
  -35.9110  -18.3630   18.7440 C   0  0  0  0  0  2  0  0  0  0  0  0
  -34.5670  -19.1340   18.7250 C   0  0  0  0  0  3  0  0  0  0  0  0
  -34.6700  -20.3660   19.6490 C   0  0  0  0  0  2  0  0  0  0  0  0
  -35.7830  -21.2200   19.1750 N   0  0  0  0  0  0  0  0  0  0  0  0
  -36.5210  -22.8200   17.7040 O   0  0  0  0  0  0  0  0  0  0  0  0
  -34.4030  -22.8460   18.5270 N   0  0  0  0  0  0  0  0  0  0  0  0
  -33.8980  -22.4330   19.2980 H   0  0  0  0  0  0  0  0  0  0  0  0
  -32.1330  -18.5990   19.3860 C   0  0  0  0  0  0  0  0  0  0  0  0
  -31.4920  -17.4110   19.6270 C   0  0  0  0  0  0  0  0  0  0  0  0
  -32.4770  -16.3900   19.4590 C   0  0  0  0  0  0  0  0  0  0  0  0
  -33.4510  -18.2680   19.1060 N   0  0  0  0  0  0  0  0  0  0  0  0
  -33.6610  -16.9290   19.1970 N   0  0  0  0  0  0  0  0  0  0  0  0
  -32.3530  -14.9270   19.4680 C   0  0  0  0  0  0  0  0  0  0  0  0
  -32.9190  -14.1460   20.5010 C   0  0  0  0  0  3  0  0  0  0  0  0
  -32.7700  -12.7430   20.5000 C   0  0  0  0  0  3  0  0  0  0  0  0
  -32.0490  -12.1070   19.4620 C   0  0  0  0  0  0  0  0  0  0  0  0
  -31.5060  -12.8880   18.4270 C   0  0  0  0  0  3  0  0  0  0  0  0
  -31.6600  -14.2830   18.4250 C   0  0  0  0  0  3  0  0  0  0  0  0
  -31.8800  -10.7470   19.3630 O   0  0  0  0  0  0  0  0  0  0  0  0
  -31.6310   -9.9720   20.4690 C   0  0  0  0  0  0  0  0  0  0  0  0
  -30.4380  -10.0970   21.2160 C   0  0  0  0  0  3  0  0  0  0  0  0
  -30.1950   -9.2340   22.3040 C   0  0  0  0  0  3  0  0  0  0  0  0
  -31.1360   -8.2410   22.6390 C   0  0  0  0  0  0  0  0  0  0  0  0
  -32.3210   -8.1130   21.8940 C   0  0  0  0  0  3  0  0  0  0  0  0
  -32.5650   -8.9730   20.8090 C   0  0  0  0  0  0  0  0  0  0  0  0
  -33.6980   -8.8270   20.0810 F   0  0  0  0  0  0  0  0  0  0  0  0
  -30.9000   -7.4100   23.6810 F   0  0  0  0  0  0  0  0  0  0  0  0
  -30.0270  -17.2230   19.8910 C   0  0  0  0  0  0  0  0  0  0  0  0
  -29.6690  -16.1720   20.6220 N   0  0  0  0  0  0  0  0  0  0  0  0
  -29.1930  -18.0340   19.4870 O   0  0  0  0  0  0  0  0  0  0  0  0
  -30.3560  -15.5150   20.9650 H   0  0  0  0  0  0  0  0  0  0  0  0
  -28.6950  -16.0220   20.8450 H   0  0  0  0  0  0  0  0  0  0  0  0
  -31.7110  -19.9260   19.3500 N   0  0  0  0  0  0  0  0  0  0  0  0
  -30.7140  -20.1010   19.3250 H   0  0  0  0  0  0  0  0  0  0  0  0
  -32.2290  -20.5820   18.7770 H   0  0  0  0  0  0  0  0  0  0  0  0
  1  4  1  0
  2  5  2  0
  3  2  1  0
  3  1  2  0
  4  6  2  0
  4  7  1  0
  5  6  1  0
  6  8  1  0
  9  3  1  0
 10 12  1  0
 10  9  1  0
 11  9  2  0
 13 14  1  0
 13 10  1  0
 14 15  1  0
 15 17  1  0
 16 27  2  0
 17 22  1  0
 18 28  1  0
 18 26  1  0
 19 21  1  0
 19 25  1  0
 20 26  1  0
 21 20  1  0
 22 21  2  0
 23 17  2  0
 23 24  1  0
 24 19  2  0
 25 18  1  0
 26 16  1  0
 28 30  2  0
 29 28  1  0
 31 29  1  0
 32 37  1  0
 33 29  1  0
 34 33  1  0
 35 34  1  0
 36 35  1  0
 36 32  1  0
 37 33  1  0
 37 38  2  0
 39 38  1  0
 40 39  2  0
 41 32  2  0
 41 40  1  0
 42 16  1  0
 42 52  1  0
 42 43  1  0
 43 46  1  0
 44 43  1  0
 44 48  1  0
 45 44  2  0
 48 47  1  0
 48 50  1  0
 50 49  1  0
 50 51  1  0
 52 55  1  1
 52 53  1  0
 54 52  1  0
 56  5  1  0
 57 56  1  0
 58 61  1  0
 58 57  1  0
 58 59  1  0
 60 58  1  0
 61 62  1  0
 62 71  1  0
 63 71  1  0
 63 69  1  0
 65 66  1  0
 65 64  1  0
 67 66  1  0
 67 76  1  0
 67 68  1  0
 69 64  1  0
 69 68  1  0
 70 63  2  0
 71 72  1  0
 73 74  2  0
 74 93  1  0
 75 78  1  0
 75 74  1  0
 76 77  1  0
 76 73  1  0
 77 75  2  0
 78 79  1  0
 80 79  2  0
 81 80  1  0
 82 81  2  0
 83 82  1  0
 83 78  2  0
 84 81  1  0
 84 85  1  0
 85 90  2  0
 85 86  1  0
 86 87  2  0
 87 88  1  0
 88 92  1  0
 89 88  2  0
 90 89  1  0
 91 90  1  0
 93 94  1  0
 94 97  1  0
 94 96  1  0
 95 93  2  0
 98 73  1  0
 99 98  1  0
100 98  1  0
M  ISO  4  14 101  15 101  63 100  71 100
M  END
>  <TORSDO>  (46) 
F 24

>  <SCORE>  (46) 
-1.772

>  <name>  (46) 
45

>  <ligand_id>  (46) 
45

>  <original_smiles>  (46) 
[H]c1c([H])c([H])c2c(c1[H])C([H])([H])C([H])([H])C([H])([H])C2([H])N([H])C(=O)C1([H])N(C(=O)C([H])(N([H])C(=O)C([H])(N([H])C([H])([H])[H])C([H])([H])[H])C(C([H])([H])[H])(C([H])([H])[H])C([H])([H])[H])C([H])([H])c2c([H])c(OC([H])([H])C([H])([H])N([H])C(=O)c3c([H])c(C([H])([H])[H])c(C([H])([H])[H])c(C([H])([H])C([H])([H])[N+]([H])([H])C([H])([H])C([H])([H])N([H])C(=O)N4C([H])([H])C([H])([H])C([H])([H])C([H])(n5nc(-c6c([H])c([H])c(Oc7c([H])c([H])c(F)c([H])c7F)c([H])c6[H])c(C(=O)N([H])[H])c5N([H])[H])C4([H])[H])c3[H])c([H])c([H])c2C1([H])[H]

>  <smiles>  (46) 
[H]c1c([H])c([H])c2c(c1[H])C([H])([H])C([H])([H])C([H])([H])C2([H])N([H])C(=O)C1([H])N(C(=O)C([H])(N([H])C(=O)C([H])(N([H])C([H])([H])[H])C([H])([H])[H])C(C([H])([H])[H])(C([H])([H])[H])C([H])([H])[H])C([H])([H])c2c([H])c(OC([H])([H])C([H])([H])N([H])C(=O)c3c([H])c(C([H])([H])[H])c(C([H])([H])[H])c(C([H])([H])C([H])([H])[N+]([H])([H])C([H])([H])C([H])([H])N([H])C(=O)N4C([H])([H])C([H])([H])C([H])([H])C([H])(n5nc(-c6c([H])c([H])c(Oc7c([H])c([H])c(F)c([H])c7F)c([H])c6[H])c(C(=O)N([H])[H])c5N([H])[H])C4([H])[H])c3[H])c([H])c([H])c2C1([H])[H]

$$$$
46:0:0
     RDKit          3D

 96104  0  0  1  0  0  0  0  0999 V2000
  -29.0540  -23.8070   20.2680 C   0  0  0  0  0  3  0  0  0  0  0  0
  -27.1810  -23.5790   18.7270 C   0  0  0  0  0  3  0  0  0  0  0  0
  -27.9490  -21.6460   19.9980 C   0  0  0  0  0  3  0  0  0  0  0  0
  -28.1620  -24.3930   19.3350 C   0  0  0  0  0  0  0  0  0  0  0  0
  -28.9570  -22.4290   20.6040 C   0  0  0  0  0  0  0  0  0  0  0  0
  -27.0680  -22.2160   19.0620 C   0  0  0  0  0  0  0  0  0  0  0  0
  -26.0890  -21.4260   18.4650 N   0  0  0  0  0  0  0  0  0  0  0  0
  -26.1700  -20.4160   18.5250 H   0  0  0  0  0  0  0  0  0  0  0  0
  -25.6630  -21.7350   17.5970 H   0  0  0  0  0  0  0  0  0  0  0  0
  -29.1240  -21.2820   22.8870 C   0  0  0  0  0  1  0  0  0  0  0  0
  -29.8870  -21.8050   21.6520 C   0  0  0  0  0  3  0  0  0  0  0  0
  -30.8630  -20.8190   21.1080 N   0  0  0  0  0  4  0  0  0  0  0  0
  -31.3850  -21.2770   20.3780 H   0  0  0  0  0  0  0  0  0  0  0  0
  -31.5160  -20.6270   21.8500 H   0  0  0  0  0  0  0  0  0  0  0  0
  -30.3660  -19.5150   20.5910 C   0  0  0  0  0  2  0  0  0  0  0  0
  -31.3610  -18.3620   20.8920 C   0  0  0  0  0  2  0  0  0  0  0  0
  -30.9710  -16.9800   20.3090 C   0  0  0  0  0  2  0  0  0  0  0  0
  -31.6600  -15.7970   21.0480 C   0  0  0  0  0  2  0  0  0  0  0  0
  -32.0130  -14.5940   20.1470 C   0  0  0  0  0  0  0  0  0  0  0  0
  -31.5400  -12.3630   19.1870 C   0  0  0  0  0  2  0  0  0  0  0  0
  -30.6030  -12.4820   17.9710 C   0  0  0  0  0  2  0  0  0  0  0  0
  -29.1300  -12.4680   18.4190 C   0  0  0  0  0  2  0  0  0  0  0  0
  -28.8530  -13.4700   19.5700 C   0  0  0  0  0  3  0  0  0  0  0  0
  -29.9000  -13.3260   20.6970 C   0  0  0  0  0  2  0  0  0  0  0  0
  -31.2390  -13.4740   20.1060 N   0  0  0  0  0  0  0  0  0  0  0  0
  -33.0450  -14.6950   19.4780 O   0  0  0  0  0  0  0  0  0  0  0  0
  -26.5560  -14.3150   20.3690 C   0  0  0  0  0  0  0  0  0  0  0  0
  -25.4190  -13.6520   20.7520 C   0  0  0  0  0  0  0  0  0  0  0  0
  -25.7290  -12.2600   20.6690 C   0  0  0  0  0  0  0  0  0  0  0  0
  -27.4900  -13.3320   20.0810 N   0  0  0  0  0  0  0  0  0  0  0  0
  -26.9970  -12.0880   20.3160 N   0  0  0  0  0  0  0  0  0  0  0  0
  -24.8740  -11.0790   20.8490 C   0  0  0  0  0  0  0  0  0  0  0  0
  -25.1800  -10.0820   21.8020 C   0  0  0  0  0  3  0  0  0  0  0  0
  -24.3340   -8.9660   21.9690 C   0  0  0  0  0  3  0  0  0  0  0  0
  -23.1640   -8.8390   21.1820 C   0  0  0  0  0  0  0  0  0  0  0  0
  -22.8750   -9.8210   20.2180 C   0  0  0  0  0  3  0  0  0  0  0  0
  -23.7220  -10.9290   20.0500 C   0  0  0  0  0  3  0  0  0  0  0  0
  -22.2960   -7.7750   21.2580 O   0  0  0  0  0  0  0  0  0  0  0  0
  -22.0620   -7.1200   22.4390 C   0  0  0  0  0  0  0  0  0  0  0  0
  -21.5540   -7.7900   23.5750 C   0  0  0  0  0  3  0  0  0  0  0  0
  -21.2620   -7.0650   24.7470 C   0  0  0  0  0  3  0  0  0  0  0  0
  -21.4660   -5.6720   24.7840 C   0  0  0  0  0  0  0  0  0  0  0  0
  -21.9660   -5.0030   23.6530 C   0  0  0  0  0  3  0  0  0  0  0  0
  -22.2600   -5.7260   22.4840 C   0  0  0  0  0  0  0  0  0  0  0  0
  -22.7220   -5.0730   21.3890 F   0  0  0  0  0  0  0  0  0  0  0  0
  -21.1780   -4.9740   25.9080 F   0  0  0  0  0  0  0  0  0  0  0  0
  -24.0920  -14.2700   21.0850 C   0  0  0  0  0  0  0  0  0  0  0  0
  -23.3280  -13.6420   21.9720 N   0  0  0  0  0  0  0  0  0  0  0  0
  -23.7450  -15.3420   20.5920 O   0  0  0  0  0  0  0  0  0  0  0  0
  -23.6210  -12.7700   22.3890 H   0  0  0  0  0  0  0  0  0  0  0  0
  -22.4370  -14.0370   22.2380 H   0  0  0  0  0  0  0  0  0  0  0  0
  -26.8650  -15.6630   20.2210 N   0  0  0  0  0  0  0  0  0  0  0  0
  -26.1830  -16.3990   20.3670 H   0  0  0  0  0  0  0  0  0  0  0  0
  -27.7540  -16.0080   19.8820 H   0  0  0  0  0  0  0  0  0  0  0  0
  -28.2990  -25.8540   18.8880 C   0  0  0  0  0  2  0  0  0  0  0  0
  -28.1630  -26.8600   19.9040 O   0  0  0  0  0  0  0  0  0  0  0  0
  -24.7340  -32.0050   23.4320 C   0  0  0  0  0  0  0  0  0  0  0  0
  -27.0080  -27.6170   19.9840 C   0  0  0  0  0  0  0  0  0  0  0  0
  -23.3800  -30.7390   21.7940 C   0  0  0  0  0  3  0  0  0  0  0  0
  -24.6840  -29.2230   20.2120 C   0  0  0  0  0  0  0  0  0  0  0  0
  -25.9040  -31.0040   21.4720 C   0  0  0  0  0  2  0  0  0  0  0  0
  -25.8930  -29.6630   20.7630 C   0  0  0  0  0  0  0  0  0  0  0  0
  -27.0540  -28.8640   20.6550 C   0  0  0  0  0  3  0  0  0  0  0  0
  -25.7770  -27.1960   19.4330 C   0  0  0  0  0  3  0  0  0  0  0  0
  -24.6210  -27.9870   19.5470 C   0  0  0  0  0  3  0  0  0  0  0  0
  -23.4840  -30.1280   20.3710 C   0  0  0  0  0  2  0  0  0  0  0  0
  -24.6950  -31.2610   22.2900 N   0  0  0  0  0  0  0  0  0  0  0  0
  -23.6960  -32.2930   24.0450 O   0  0  0  0  0  0  0  0  0  0  0  0
  -22.7410  -29.6950   22.7380 C   0  0  0  0  0  0  0  0  0  0  0  0
  -21.4190  -29.4950   22.6040 N   0  0  0  0  0  0  0  0  0  0  0  0
  -23.4300  -29.0680   23.5470 O   0  0  0  0  0  0  0  0  0  0  0  0
  -20.9210  -30.0580   21.9280 H   0  0  0  0  0  0  0  0  0  0  0  0
  -18.0910  -28.1420   22.9710 C   0  0  0  0  0  0  0  0  0  0  0  0
  -20.6150  -28.5350   23.3580 C   0  0  0  0  0  3  0  0  0  0  0  0
  -20.8150  -27.0970   22.8250 C   0  0  0  0  0  2  0  0  0  0  0  0
  -19.7820  -26.6950   21.7680 C   0  0  0  0  0  2  0  0  0  0  0  0
  -18.3660  -26.7870   22.3420 C   0  0  0  0  0  2  0  0  0  0  0  0
  -19.1470  -28.9690   23.4360 C   0  0  0  0  0  0  0  0  0  0  0  0
  -18.8390  -30.2350   23.9800 C   0  0  0  0  0  3  0  0  0  0  0  0
  -17.5050  -30.6750   24.0690 C   0  0  0  0  0  3  0  0  0  0  0  0
  -16.4610  -29.8450   23.6230 C   0  0  0  0  0  3  0  0  0  0  0  0
  -16.7540  -28.5810   23.0790 C   0  0  0  0  0  3  0  0  0  0  0  0
  -26.0780  -32.5520   24.0070 C   0  0  0  0  0  3  0  0  0  0  0  0
  -25.8620  -33.9580   24.3720 N   0  0  0  0  0  0  0  0  0  0  0  0
  -26.2270  -35.0040   23.6190 C   0  0  0  0  0  0  0  0  0  0  0  0
  -26.8520  -34.8830   22.5620 O   0  0  0  0  0  0  0  0  0  0  0  0
  -25.3050  -34.1310   25.1960 H   0  0  0  0  0  0  0  0  0  0  0  0
  -24.5860  -36.8930   23.3650 C   0  0  0  0  0  1  0  0  0  0  0  0
  -25.8350  -36.4080   24.1180 C   0  0  0  0  0  3  0  0  0  0  0  0
  -28.0470  -37.1630   24.8740 C   0  0  0  0  0  1  0  0  0  0  0  0
  -26.9190  -37.4050   23.9780 N   0  0  0  0  0  0  0  0  0  0  0  0
  -26.5690  -38.3430   24.1530 H   0  0  0  0  0  0  0  0  0  0  0  0
  -26.6080  -31.7270   25.2440 C   0  0  1  0  0  0  0  0  0  0  0  0
  -25.5460  -31.5090   26.3450 C   0  0  0  0  0  1  0  0  0  0  0  0
  -27.1170  -30.3370   24.7970 C   0  0  0  0  0  1  0  0  0  0  0  0
  -27.8140  -32.4570   25.8820 C   0  0  0  0  0  1  0  0  0  0  0  0
  1  5  1  0
  2  6  2  0
  2  4  1  0
  3  5  2  0
  4  1  2  0
  5 11  1  0
  6  3  1  0
  7  8  1  0
  7  6  1  0
  9  7  1  0
 11 10  1  0
 12 11  1  0
 12 14  1  0
 13 12  1  0
 15 16  1  0
 15 12  1  0
 17 16  1  0
 17 18  1  0
 19 18  1  0
 20 25  1  0
 21 22  1  0
 21 20  1  0
 23 22  1  0
 23 30  1  0
 23 24  1  0
 25 19  1  0
 25 24  1  0
 26 19  2  0
 27 28  2  0
 28 47  1  0
 29 28  1  0
 29 32  1  0
 30 31  1  0
 30 27  1  0
 31 29  2  0
 32 33  1  0
 33 34  2  0
 35 38  1  0
 35 34  1  0
 36 35  2  0
 37 36  1  0
 37 32  2  0
 38 39  1  0
 39 44  2  0
 39 40  1  0
 40 41  2  0
 41 42  1  0
 42 46  1  0
 43 42  2  0
 44 43  1  0
 45 44  1  0
 47 48  1  0
 48 51  1  0
 48 50  1  0
 49 47  2  0
 52 53  1  0
 52 27  1  0
 54 52  1  0
 55  4  1  0
 55 56  1  0
 56 58  1  0
 57 68  2  0
 58 63  1  0
 59 67  1  0
 59 69  1  0
 60 66  1  0
 60 62  1  0
 61 67  1  0
 62 61  1  0
 63 62  2  0
 64 65  1  0
 64 58  2  0
 65 60  2  0
 66 59  1  0
 67 57  1  0
 69 71  2  0
 70 69  1  0
 72 70  1  0
 73 82  2  0
 73 78  1  0
 74 70  1  0
 74 78  1  0
 75 74  1  0
 76 77  1  0
 76 75  1  0
 77 73  1  0
 78 79  2  0
 79 80  1  0
 81 80  2  0
 82 81  1  0
 83 57  1  0
 83 84  1  0
 83 93  1  0
 84 87  1  0
 85 89  1  0
 85 84  1  0
 86 85  2  0
 89 88  1  0
 91 89  1  0
 91 92  1  0
 91 90  1  0
 93 96  1  1
 93 94  1  0
 95 93  1  0
M  ISO  4  18 100  19 100  55 101  56 101
M  END
>  <TORSDO>  (47) 
F 24

>  <SCORE>  (47) 
-10.932

>  <name>  (47) 
46

>  <ligand_id>  (47) 
46

>  <original_smiles>  (47) 
[H]c1c([H])c([H])c2c(c1[H])C([H])([H])C([H])([H])C([H])([H])C2([H])N([H])C(=O)C1([H])N(C(=O)C([H])(N([H])C(=O)C([H])(N([H])C([H])([H])[H])C([H])([H])[H])C(C([H])([H])[H])(C([H])([H])[H])C([H])([H])[H])C([H])([H])c2c([H])c(OC([H])([H])c3c([H])c(N([H])[H])c([H])c(C([H])(C([H])([H])[H])[N+]([H])([H])C([H])([H])C([H])([H])C([H])([H])C([H])([H])C(=O)N4C([H])([H])C([H])([H])C([H])([H])C([H])(n5nc(-c6c([H])c([H])c(Oc7c([H])c([H])c(F)c([H])c7F)c([H])c6[H])c(C(=O)N([H])[H])c5N([H])[H])C4([H])[H])c3[H])c([H])c([H])c2C1([H])[H]

>  <smiles>  (47) 
[H]c1c([H])c([H])c2c(c1[H])C([H])([H])C([H])([H])C([H])([H])C2([H])N([H])C(=O)C1([H])N(C(=O)C([H])(N([H])C(=O)C([H])(N([H])C([H])([H])[H])C([H])([H])[H])C(C([H])([H])[H])(C([H])([H])[H])C([H])([H])[H])C([H])([H])c2c([H])c(OC([H])([H])c3c([H])c(N([H])[H])c([H])c(C([H])(C([H])([H])[H])[N+]([H])([H])C([H])([H])C([H])([H])C([H])([H])C([H])([H])C(=O)N4C([H])([H])C([H])([H])C([H])([H])C([H])(n5nc(-c6c([H])c([H])c(Oc7c([H])c([H])c(F)c([H])c7F)c([H])c6[H])c(C(=O)N([H])[H])c5N([H])[H])C4([H])[H])c3[H])c([H])c([H])c2C1([H])[H]

$$$$
47:0:0
     RDKit          3D

102106  0  0  1  0  0  0  0  0999 V2000
  -20.0080  -24.3790   18.7420 C   0  0  0  0  0  2  0  0  0  0  0  0
  -19.4530  -25.8670   18.4430 C   0  0  0  0  0  0  0  0  0  0  0  0
  -21.1870  -23.8690   19.6960 C   0  0  0  0  0  3  0  0  0  0  0  0
  -19.8730  -27.2530   19.1660 C   0  0  0  0  0  0  0  0  0  0  0  0
  -21.4930  -25.0810   20.9010 C   0  0  0  0  0  3  0  0  0  0  0  0
  -20.9220  -27.2200   20.4150 C   0  0  0  0  0  2  0  0  0  0  0  0
  -18.3440  -25.9560   17.4060 C   0  0  0  0  0  1  0  0  0  0  0  0
  -19.2560  -28.5810   18.7520 C   0  0  0  0  0  1  0  0  0  0  0  0
  -22.1580  -24.3810   22.1340 C   0  0  0  0  0  2  0  0  0  0  0  0
  -22.2800  -22.4980   18.8470 C   0  0  0  0  0  1  0  0  0  0  0  0
  -23.8460  -22.0770   17.6310 C   0  0  0  0  0  1  0  0  0  0  0  0
  -25.0090  -20.7210   17.2320 N   0  0  0  0  0  4  0  0  0  0  0  0
  -24.7570  -20.4910   16.2820 H   0  0  0  0  0  0  0  0  0  0  0  0
  -24.6250  -19.9680   17.7780 H   0  0  0  0  0  0  0  0  0  0  0  0
  -26.7910  -20.3060   17.2860 C   0  0  0  0  0  1  0  0  0  0  0  0
  -28.0750  -18.7350   17.3460 C   0  0  0  0  0 15  0  0  0  0  0  0
  -29.7070  -17.9620   18.2830 C   0  0  0  0  0  1  0  0  0  0  0  0
  -31.2040  -16.6970   18.3420 C   0  0  0  0  0  0  0  0  0  0  0  0
  -32.2930  -14.2340   18.7100 C   0  0  0  0  0  2  0  0  0  0  0  0
  -31.5420  -13.1500   17.8760 C   0  0  0  0  0  2  0  0  0  0  0  0
  -30.1520  -12.8510   18.4750 C   0  0  0  0  0  2  0  0  0  0  0  0
  -29.5000  -14.1610   18.9690 C   0  0  0  0  0  3  0  0  0  0  0  0
  -30.3990  -14.9310   19.9230 C   0  0  0  0  0  2  0  0  0  0  0  0
  -31.3700  -15.4310   19.0100 N   0  0  0  0  0  0  0  0  0  0  0  0
  -32.3600  -16.8830   17.8500 O   0  0  0  0  0  0  0  0  0  0  0  0
  -27.4430  -15.0270   20.1050 C   0  0  0  0  0  0  0  0  0  0  0  0
  -26.3250  -14.4060   20.5590 C   0  0  0  0  0  0  0  0  0  0  0  0
  -26.5260  -13.0140   20.3120 C   0  0  0  0  0  0  0  0  0  0  0  0
  -28.2280  -14.0210   19.5880 N   0  0  0  0  0  0  0  0  0  0  0  0
  -27.7190  -12.7920   19.7860 N   0  0  0  0  0  0  0  0  0  0  0  0
  -25.6240  -11.8840   20.4700 C   0  0  0  0  0  0  0  0  0  0  0  0
  -25.8270  -10.9200   21.4790 C   0  0  0  0  0  3  0  0  0  0  0  0
  -24.9300   -9.8420   21.6150 C   0  0  0  0  0  3  0  0  0  0  0  0
  -23.8220   -9.7310   20.7410 C   0  0  0  0  0  0  0  0  0  0  0  0
  -23.6440  -10.6840   19.7230 C   0  0  0  0  0  3  0  0  0  0  0  0
  -24.5400  -11.7530   19.5850 C   0  0  0  0  0  3  0  0  0  0  0  0
  -22.9070   -8.7100   20.7840 O   0  0  0  0  0  0  0  0  0  0  0  0
  -22.4200   -8.2370   21.9750 C   0  0  0  0  0  0  0  0  0  0  0  0
  -21.6730   -9.0510   22.8520 C   0  0  0  0  0  3  0  0  0  0  0  0
  -21.1320   -8.5030   24.0310 C   0  0  0  0  0  3  0  0  0  0  0  0
  -21.3290   -7.1410   24.3290 C   0  0  0  0  0  0  0  0  0  0  0  0
  -22.0710   -6.3270   23.4530 C   0  0  0  0  0  3  0  0  0  0  0  0
  -22.6130   -6.8750   22.2780 C   0  0  0  0  0  0  0  0  0  0  0  0
  -23.3090   -6.0850   21.4260 F   0  0  0  0  0  0  0  0  0  0  0  0
  -20.8020   -6.6090   25.4570 F   0  0  0  0  0  0  0  0  0  0  0  0
  -25.1020  -15.0840   21.0870 C   0  0  0  0  0  0  0  0  0  0  0  0
  -24.3810  -14.4270   21.9850 N   0  0  0  0  0  0  0  0  0  0  0  0
  -24.8070  -16.2270   20.7360 O   0  0  0  0  0  0  0  0  0  0  0  0
  -24.6360  -13.5000   22.2890 H   0  0  0  0  0  0  0  0  0  0  0  0
  -23.5580  -14.8650   22.3740 H   0  0  0  0  0  0  0  0  0  0  0  0
  -27.8410  -16.3550   20.0650 N   0  0  0  0  0  0  0  0  0  0  0  0
  -27.2290  -17.0930   20.3950 H   0  0  0  0  0  0  0  0  0  0  0  0
  -28.7010  -16.6960   19.6620 H   0  0  0  0  0  0  0  0  0  0  0  0
  -21.4120  -28.9200   21.0800 C   0  0  0  0  0  1  0  0  0  0  0  0
  -22.2240  -30.9760   22.8330 C   0  0  0  0  0  1  0  0  0  0  0  0
  -22.1250  -29.4330   22.8630 C   0  0  0  0  0  2  0  0  0  0  0  0
  -23.0630  -28.6300   24.1480 N   0  0  0  0  0  4  0  0  0  0  0  0
  -23.8500  -29.2780   24.2030 H   0  0  0  0  0  0  0  0  0  0  0  0
  -22.5050  -28.8690   24.9530 H   0  0  0  0  0  0  0  0  0  0  0  0
  -23.6920  -27.0530   24.6350 C   0  0  0  0  0  2  0  0  0  0  0  0
  -25.1590  -25.9120   24.2400 C   0  0  0  0  0  2  0  0  0  0  0  0
  -25.6560  -24.4040   23.6330 O   0  0  0  0  0  0  0  0  0  0  0  0
  -25.9620  -29.4920   23.0820 C   0  0  0  0  0  0  0  0  0  0  0  0
  -26.2440  -24.1690   22.3890 C   0  0  0  0  0  3  0  0  0  0  0  0
  -24.3720  -28.1980   21.4640 C   0  0  0  0  0  3  0  0  0  0  0  0
  -25.4380  -26.0050   20.5670 C   0  0  0  0  0  0  0  0  0  0  0  0
  -26.8770  -27.6530   21.7750 C   0  0  0  0  0  2  0  0  0  0  0  0
  -26.5340  -26.2340   21.4120 C   0  0  0  0  0  0  0  0  0  0  0  0
  -27.1370  -25.1840   22.1110 C   0  0  0  0  0  2  0  0  0  0  0  0
  -25.3640  -23.7130   21.3750 C   0  0  0  0  0  3  0  0  0  0  0  0
  -24.9100  -24.6860   20.4570 C   0  0  0  0  0  3  0  0  0  0  0  0
  -24.6540  -27.2860   20.2040 C   0  0  0  0  0  2  0  0  0  0  0  0
  -25.7060  -28.4480   22.2140 N   0  0  0  0  0  0  0  0  0  0  0  0
  -25.1180  -30.3570   23.2870 O   0  0  0  0  0  0  0  0  0  0  0  0
  -23.3520  -27.1900   22.1120 C   0  0  0  0  0  0  0  0  0  0  0  0
  -22.2650  -27.0600   22.9220 N   0  0  1  0  0  4  0  0  0  0  0  0
  -23.6740  -26.0870   22.2100 O   0  0  0  0  0  0  0  0  0  0  0  0
  -21.9710  -26.1650   22.5560 H   0  0  0  0  0  0  0  0  0  0  0  0
  -18.0210  -27.5180   23.4510 C   0  0  0  0  0  0  0  0  0  0  0  0
  -21.2230  -27.3830   24.1000 C   0  0  0  0  0  2  0  0  0  0  0  0
  -21.8110  -25.6960   23.7600 C   0  0  0  0  0  3  0  0  0  0  0  0
  -20.8900  -24.7590   22.5050 C   0  0  0  0  0  3  0  0  0  0  0  0
  -17.9030  -25.8120   22.7250 C   0  0  0  0  0  1  0  0  0  0  0  0
  -19.3910  -28.1870   24.0190 C   0  0  0  0  0  3  0  0  0  0  0  0
  -19.2440  -29.6470   23.9810 C   0  0  0  0  0  3  0  0  0  0  0  0
  -18.2130  -30.4130   23.3810 C   0  0  0  0  0  3  0  0  0  0  0  0
  -17.0470  -29.7830   22.9600 C   0  0  0  0  0  3  0  0  0  0  0  0
  -16.9560  -28.3790   23.0430 C   0  0  0  0  0  3  0  0  0  0  0  0
  -27.2800  -29.7240   23.9050 C   0  0  0  0  0  3  0  0  0  0  0  0
  -27.2090  -31.1170   24.3620 N   0  0  0  0  0  0  0  0  0  0  0  0
  -27.8150  -32.1420   23.7640 C   0  0  0  0  0  0  0  0  0  0  0  0
  -28.5310  -32.0020   22.7720 O   0  0  0  0  0  0  0  0  0  0  0  0
  -26.5620  -31.3230   25.1100 H   0  0  0  0  0  0  0  0  0  0  0  0
  -26.4810  -34.2650   23.6050 C   0  0  0  0  0  1  0  0  0  0  0  0
  -27.5950  -33.5370   24.3730 C   0  0  0  0  0  3  0  0  0  0  0  0
  -29.8340  -33.8790   25.3170 C   0  0  0  0  0  1  0  0  0  0  0  0
  -28.8190  -34.3650   24.3860 N   0  0  0  0  0  0  0  0  0  0  0  0
  -28.5990  -35.3280   24.6260 H   0  0  0  0  0  0  0  0  0  0  0  0
  -27.4910  -28.8080   25.1890 C   0  0  1  0  0  0  0  0  0  0  0  0
  -26.2590  -28.7060   26.1260 C   0  0  0  0  0  1  0  0  0  0  0  0
  -27.9920  -27.3990   24.8440 C   0  0  0  0  0  1  0  0  0  0  0  0
  -28.6450  -29.3810   26.0440 C   0  0  0  0  0  1  0  0  0  0  0  0
  1  3  1  0
  2  1  1  0
  2  4  2  0
  3 10  1  0
  4  6  1  0
  5  3  1  0
  5  9  1  0
  5 82  1  0
  6 54  1  0
  7  2  1  0
  8  4  1  0
 12 15  1  0
 12 11  1  0
 12 14  1  0
 13 12  1  0
 17 18  1  0
 18 24  1  0
 19 24  1  0
 20 21  1  0
 20 19  1  0
 22 21  1  0
 22 29  1  0
 22 23  1  0
 24 23  1  0
 25 18  2  0
 26 27  2  0
 27 46  1  0
 28 31  1  0
 28 27  1  0
 29 30  1  0
 29 26  1  0
 30 28  2  0
 31 32  1  0
 32 33  2  0
 34 37  1  0
 34 33  1  0
 35 34  2  0
 36 35  1  0
 36 31  2  0
 37 38  1  0
 38 43  2  0
 38 39  1  0
 39 40  2  0
 40 41  1  0
 41 45  1  0
 42 41  2  0
 43 42  1  0
 44 43  1  0
 46 47  1  0
 47 49  1  0
 47 50  1  0
 48 46  2  0
 51 26  1  0
 51 52  1  0
 53 51  1  0
 55 56  1  0
 56 57  1  0
 57 58  1  0
 57 60  1  0
 57 59  1  0
 61 60  1  0
 62 61  1  0
 63 74  2  0
 64 62  1  0
 65 75  1  0
 65 73  1  0
 66 68  2  0
 67 73  1  0
 68 67  1  0
 68 69  1  0
 69 64  1  0
 70 64  1  0
 71 66  1  0
 71 70  2  0
 72 66  1  0
 72 65  1  0
 73 63  1  0
 75 77  2  0
 75 76  1  0
 76 81  1  0
 76 80  1  0
 76 78  1  6
 79 84  1  0
 81 80  1  0
 82  9  1  0
 82 81  1  0
 83 79  1  0
 85 84  2  0
 86 85  1  0
 87 88  1  0
 87 86  2  0
 88 79  2  0
 89 63  1  0
 89 90  1  0
 89 99  1  0
 90 93  1  0
 91 90  1  0
 91 95  1  0
 92 91  2  0
 95 94  1  0
 95 97  1  0
 97 98  1  0
 97 96  1  0
 99102  1  1
 99100  1  0
101 99  1  0
M  ISO  4  17 100  18 100  61 101  62 101
M  END
>  <TORSDO>  (48) 
F 27

>  <SCORE>  (48) 
-1.208

>  <name>  (48) 
47

>  <ligand_id>  (48) 
47

>  <original_smiles>  (48) 
[H]c1c([H])c([H])c2c(c1[H])C([H])([H])C([H])([H])C([H])([H])C2([H])N([H])C(=O)C1([H])N(C(=O)C([H])(N([H])C(=O)C([H])(N([H])C([H])([H])[H])C([H])([H])[H])C(C([H])([H])[H])(C([H])([H])[H])C([H])([H])[H])C([H])([H])c2c([H])c(OC([H])([H])C([H])([H])[N+]([H])([H])C([H])(C([H])([H])[H])C([H])([H])c3c(C([H])([H])[H])c(C([H])([H])[H])c([H])c(C([H])([H])C([H])([H])[N+]([H])([H])C([H])([H])C([H])([H])C([H])([H])C(=O)N4C([H])([H])C([H])([H])C([H])([H])C([H])(n5nc(-c6c([H])c([H])c(Oc7c([H])c([H])c(F)c([H])c7F)c([H])c6[H])c(C(=O)N([H])[H])c5N([H])[H])C4([H])[H])c3C([H])([H])[H])c([H])c([H])c2C1([H])[H]

>  <smiles>  (48) 
[H]c1c([H])c([H])c2c(c1[H])C([H])([H])C([H])([H])C([H])([H])C2([H])N([H])C(=O)C1([H])N(C(=O)C([H])(N([H])C(=O)C([H])(N([H])C([H])([H])[H])C([H])([H])[H])C(C([H])([H])[H])(C([H])([H])[H])C([H])([H])[H])C([H])([H])c2c([H])c(OC([H])([H])C([H])([H])[N+]([H])([H])C([H])(C([H])([H])[H])C([H])([H])c3c(C([H])([H])[H])c(C([H])([H])[H])c([H])c(C([H])([H])C([H])([H])[N+]([H])([H])C([H])([H])C([H])([H])C([H])([H])C(=O)N4C([H])([H])C([H])([H])C([H])([H])C([H])(n5nc(-c6c([H])c([H])c(Oc7c([H])c([H])c(F)c([H])c7F)c([H])c6[H])c(C(=O)N([H])[H])c5N([H])[H])C4([H])[H])c3C([H])([H])[H])c([H])c([H])c2C1([H])[H]

$$$$
48:0:0
     RDKit          3D

 99107  0  0  1  0  0  0  0  0999 V2000
  -24.0150  -23.1640   19.6010 C   0  0  0  0  0  3  0  0  0  0  0  0
  -23.9820  -23.6220   20.9260 C   0  0  0  0  0  3  0  0  0  0  0  0
  -24.8550  -23.7860   18.6620 C   0  0  0  0  0  3  0  0  0  0  0  0
  -24.7980  -24.6970   21.3350 C   0  0  0  0  0  0  0  0  0  0  0  0
  -25.6250  -25.3480   20.3750 C   0  0  0  0  0  0  0  0  0  0  0  0
  -25.6500  -24.9010   19.0280 C   0  0  0  0  0  0  0  0  0  0  0  0
  -26.5190  -26.5140   20.7770 C   0  0  0  0  0  1  0  0  0  0  0  0
  -24.7860  -25.0680   22.8230 C   0  0  0  0  0  2  0  0  0  0  0  0
  -25.8380  -24.2950   23.6420 C   0  0  0  0  0  2  0  0  0  0  0  0
  -26.1140  -22.9640   23.0610 N   0  0  0  0  0  4  0  0  0  0  0  0
  -25.5910  -22.9080   22.2040 H   0  0  0  0  0  0  0  0  0  0  0  0
  -25.7720  -22.2480   23.6870 H   0  0  0  0  0  0  0  0  0  0  0  0
  -27.5400  -22.7380   22.7560 C   0  0  0  0  0  2  0  0  0  0  0  0
  -27.7660  -21.6940   21.6540 C   0  0  0  0  0  2  0  0  0  0  0  0
  -29.2550  -21.3110   21.5680 C   0  0  0  0  0  2  0  0  0  0  0  0
  -29.6340  -20.5610   20.2830 C   0  0  0  0  0  2  0  0  0  0  0  0
  -31.0280  -19.9110   20.3600 C   0  0  0  0  0  2  0  0  0  0  0  0
  -31.8250  -17.5950   20.7970 C   0  0  0  0  0  0  0  0  0  0  0  0
  -32.1430  -15.1590   20.6610 C   0  0  0  0  0  2  0  0  0  0  0  0
  -31.5890  -14.6570   19.3130 C   0  0  0  0  0  2  0  0  0  0  0  0
  -30.0910  -14.3150   19.4340 C   0  0  0  0  0  2  0  0  0  0  0  0
  -29.2870  -15.4600   20.1060 C   0  0  0  0  0  3  0  0  0  0  0  0
  -29.9770  -15.9790   21.3890 C   0  0  0  0  0  2  0  0  0  0  0  0
  -31.3690  -16.3420   21.0580 N   0  0  0  0  0  0  0  0  0  0  0  0
  -32.9640  -17.8290   20.3840 O   0  0  0  0  0  0  0  0  0  0  0  0
  -30.9210  -18.5740   20.9370 N   0  0  0  0  0  0  0  0  0  0  0  0
  -30.0300  -18.3190   21.3370 H   0  0  0  0  0  0  0  0  0  0  0  0
  -26.7640  -15.8430   20.4290 C   0  0  0  0  0  0  0  0  0  0  0  0
  -25.7280  -14.9760   20.6350 C   0  0  0  0  0  0  0  0  0  0  0  0
  -26.3070  -13.6690   20.6780 C   0  0  0  0  0  0  0  0  0  0  0  0
  -27.9080  -15.0610   20.3650 N   0  0  0  0  0  0  0  0  0  0  0  0
  -27.6270  -13.7480   20.5690 N   0  0  0  0  0  0  0  0  0  0  0  0
  -25.6760  -12.3480   20.7630 C   0  0  0  0  0  0  0  0  0  0  0  0
  -25.8610  -11.5160   21.8890 C   0  0  0  0  0  3  0  0  0  0  0  0
  -25.2340  -10.2530   21.9560 C   0  0  0  0  0  3  0  0  0  0  0  0
  -24.4010   -9.8180   20.8980 C   0  0  0  0  0  0  0  0  0  0  0  0
  -24.2350  -10.6420   19.7720 C   0  0  0  0  0  3  0  0  0  0  0  0
  -24.8660  -11.8940   19.7020 C   0  0  0  0  0  3  0  0  0  0  0  0
  -23.7720   -8.5990   20.8640 O   0  0  0  0  0  0  0  0  0  0  0  0
  -23.1700   -8.0680   21.9770 C   0  0  0  0  0  0  0  0  0  0  0  0
  -22.1470   -8.7520   22.6720 C   0  0  0  0  0  3  0  0  0  0  0  0
  -21.5100   -8.1360   23.7690 C   0  0  0  0  0  3  0  0  0  0  0  0
  -21.8880   -6.8380   24.1660 C   0  0  0  0  0  0  0  0  0  0  0  0
  -22.9040   -6.1580   23.4730 C   0  0  0  0  0  3  0  0  0  0  0  0
  -23.5410   -6.7710   22.3800 C   0  0  0  0  0  0  0  0  0  0  0  0
  -24.5040   -6.0990   21.7020 F   0  0  0  0  0  0  0  0  0  0  0  0
  -21.2760   -6.2450   25.2170 F   0  0  0  0  0  0  0  0  0  0  0  0
  -24.2690  -15.3260   20.6950 C   0  0  0  0  0  0  0  0  0  0  0  0
  -23.4900  -14.5670   21.4580 N   0  0  0  0  0  0  0  0  0  0  0  0
  -23.8230  -16.3090   20.1040 O   0  0  0  0  0  0  0  0  0  0  0  0
  -23.8690  -13.7820   21.9650 H   0  0  0  0  0  0  0  0  0  0  0  0
  -22.5050  -14.7750   21.5370 H   0  0  0  0  0  0  0  0  0  0  0  0
  -26.8290  -17.2270   20.2730 N   0  0  0  0  0  0  0  0  0  0  0  0
  -25.9840  -17.7840   20.2120 H   0  0  0  0  0  0  0  0  0  0  0  0
  -27.6690  -17.7480   20.0590 H   0  0  0  0  0  0  0  0  0  0  0  0
  -26.4700  -25.5760   18.1410 O   0  0  0  0  0  0  0  0  0  0  0  0
  -25.9520  -25.9960   16.8750 C   0  0  0  0  0  2  0  0  0  0  0  0
  -26.8020  -27.1790   16.3400 C   0  0  0  0  0  2  0  0  0  0  0  0
  -26.1210  -28.4240   16.0980 O   0  0  0  0  0  0  0  0  0  0  0  0
  -26.2490  -29.7990   23.1080 C   0  0  0  0  0  0  0  0  0  0  0  0
  -25.5030  -28.9800   17.1950 C   0  0  0  0  0  0  0  0  0  0  0  0
  -24.0950  -30.1700   21.9550 C   0  0  0  0  0  3  0  0  0  0  0  0
  -24.1780  -30.1300   19.4100 C   0  0  0  0  0  0  0  0  0  0  0  0
  -26.3080  -30.3790   20.6870 C   0  0  0  0  0  2  0  0  0  0  0  0
  -25.5660  -29.9440   19.4430 C   0  0  0  0  0  0  0  0  0  0  0  0
  -26.2370  -29.3680   18.3410 C   0  0  0  0  0  3  0  0  0  0  0  0
  -24.1160  -29.2300   17.1590 C   0  0  0  0  0  3  0  0  0  0  0  0
  -23.4460  -29.7750   18.2650 C   0  0  0  0  0  3  0  0  0  0  0  0
  -23.5340  -30.7470   20.6290 C   0  0  0  0  0  2  0  0  0  0  0  0
  -25.5910  -30.0810   21.9500 N   0  0  0  0  0  0  0  0  0  0  0  0
  -25.6340  -29.6430   24.1710 O   0  0  0  0  0  0  0  0  0  0  0  0
  -23.4080  -28.8160   22.2430 C   0  0  0  0  0  0  0  0  0  0  0  0
  -22.0650  -28.8150   22.2470 N   0  0  0  0  0  0  0  0  0  0  0  0
  -24.0730  -27.7970   22.4380 O   0  0  0  0  0  0  0  0  0  0  0  0
  -21.5900  -29.6920   22.0880 H   0  0  0  0  0  0  0  0  0  0  0  0
  -18.7030  -27.5560   21.8200 C   0  0  0  0  0  0  0  0  0  0  0  0
  -21.2050  -27.6530   22.4660 C   0  0  0  0  0  3  0  0  0  0  0  0
  -21.4260  -26.5810   21.3760 C   0  0  0  0  0  2  0  0  0  0  0  0
  -20.4540  -26.7090   20.1980 C   0  0  0  0  0  2  0  0  0  0  0  0
  -19.0040  -26.5960   20.6810 C   0  0  0  0  0  2  0  0  0  0  0  0
  -19.7390  -28.0640   22.6500 C   0  0  0  0  0  0  0  0  0  0  0  0
  -19.4080  -28.9790   23.6730 C   0  0  0  0  0  3  0  0  0  0  0  0
  -18.0730  -29.3810   23.8790 C   0  0  0  0  0  3  0  0  0  0  0  0
  -17.0510  -28.8620   23.0670 C   0  0  0  0  0  3  0  0  0  0  0  0
  -17.3660  -27.9500   22.0430 C   0  0  0  0  0  3  0  0  0  0  0  0
  -27.8020  -29.6800   23.1550 C   0  0  0  0  0  3  0  0  0  0  0  0
  -28.2530  -30.2950   24.4090 N   0  0  0  0  0  0  0  0  0  0  0  0
  -28.8560  -31.4890   24.4990 C   0  0  0  0  0  0  0  0  0  0  0  0
  -29.1550  -32.1650   23.5100 O   0  0  0  0  0  0  0  0  0  0  0  0
  -27.9990  -29.8180   25.2590 H   0  0  0  0  0  0  0  0  0  0  0  0
  -28.1510  -33.0950   26.3010 C   0  0  0  0  0  1  0  0  0  0  0  0
  -29.1760  -32.0190   25.9100 C   0  0  0  0  0  3  0  0  0  0  0  0
  -31.5850  -31.5460   25.9420 C   0  0  0  0  0  1  0  0  0  0  0  0
  -30.5450  -32.5660   26.0380 N   0  0  0  0  0  0  0  0  0  0  0  0
  -30.6580  -33.0510   26.9240 H   0  0  0  0  0  0  0  0  0  0  0  0
  -28.3110  -28.1910   23.0500 C   0  0  1  0  0  0  0  0  0  0  0  0
  -27.6230  -27.2230   24.0410 C   0  0  0  0  0  1  0  0  0  0  0  0
  -28.0890  -27.6380   21.6220 C   0  0  0  0  0  1  0  0  0  0  0  0
  -29.8340  -28.1360   23.3170 C   0  0  0  0  0  1  0  0  0  0  0  0
  1  2  1  0
  2  4  2  0
  3  6  1  0
  3  1  2  0
  4  8  1  0
  5  7  1  0
  5  4  1  0
  6  5  2  0
  8  9  1  0
 10  9  1  0
 10 12  1  0
 11 10  1  0
 13 10  1  0
 14 13  1  0
 15 14  1  0
 16 17  1  0
 16 15  1  0
 17 26  1  0
 18 26  1  0
 18 24  1  0
 19 24  1  0
 20 21  1  0
 20 19  1  0
 22 21  1  0
 22 31  1  0
 22 23  1  0
 24 23  1  0
 25 18  2  0
 26 27  1  0
 28 29  2  0
 29 30  1  0
 29 48  1  0
 30 33  1  0
 31 28  1  0
 31 32  1  0
 32 30  2  0
 33 34  1  0
 34 35  2  0
 36 35  1  0
 37 36  2  0
 38 37  1  0
 38 33  2  0
 39 36  1  0
 39 40  1  0
 40 45  2  0
 40 41  1  0
 41 42  2  0
 42 43  1  0
 43 47  1  0
 44 43  2  0
 45 44  1  0
 46 45  1  0
 48 49  1  0
 49 52  1  0
 49 51  1  0
 50 48  2  0
 53 28  1  0
 54 53  1  0
 55 53  1  0
 56  6  1  0
 57 56  1  0
 58 57  1  0
 59 58  1  0
 59 61  1  0
 60 71  2  0
 61 66  1  0
 62 72  1  0
 63 65  1  0
 63 69  1  0
 64 70  1  0
 65 64  1  0
 66 65  2  0
 67 61  2  0
 67 68  1  0
 68 63  2  0
 69 62  1  0
 70 62  1  0
 70 60  1  0
 72 73  1  0
 72 74  2  0
 75 73  1  0
 76 85  2  0
 76 81  1  0
 77 73  1  0
 77 81  1  0
 78 77  1  0
 79 80  1  0
 79 78  1  0
 80 76  1  0
 81 82  2  0
 82 83  1  0
 84 83  2  0
 85 84  1  0
 86 60  1  0
 86 87  1  0
 87 88  1  0
 87 90  1  0
 88 92  1  0
 89 88  2  0
 92 94  1  0
 92 91  1  0
 93 94  1  0
 94 95  1  0
 96 86  1  0
 96 99  1  1
 96 97  1  0
 98 96  1  0
M  ISO  4  18 100  26 100  58 101  59 101
M  END
>  <TORSDO>  (49) 
F 27

>  <SCORE>  (49) 
-0.123

>  <name>  (49) 
48

>  <ligand_id>  (49) 
48

>  <original_smiles>  (49) 
[H]c1c([H])c([H])c2c(c1[H])C([H])([H])C([H])([H])C([H])([H])C2([H])N([H])C(=O)C1([H])N(C(=O)C([H])(N([H])C(=O)C([H])(N([H])C([H])([H])[H])C([H])([H])[H])C(C([H])([H])[H])(C([H])([H])[H])C([H])([H])[H])C([H])([H])c2c([H])c(OC([H])([H])C([H])([H])Oc3c([H])c([H])c([H])c(C([H])([H])C([H])([H])[N+]([H])([H])C([H])([H])C([H])([H])C([H])([H])C([H])([H])C([H])([H])N([H])C(=O)N4C([H])([H])C([H])([H])C([H])([H])C([H])(n5nc(-c6c([H])c([H])c(Oc7c([H])c([H])c(F)c([H])c7F)c([H])c6[H])c(C(=O)N([H])[H])c5N([H])[H])C4([H])[H])c3C([H])([H])[H])c([H])c([H])c2C1([H])[H]

>  <smiles>  (49) 
[H]c1c([H])c([H])c2c(c1[H])C([H])([H])C([H])([H])C([H])([H])C2([H])N([H])C(=O)C1([H])N(C(=O)C([H])(N([H])C(=O)C([H])(N([H])C([H])([H])[H])C([H])([H])[H])C(C([H])([H])[H])(C([H])([H])[H])C([H])([H])[H])C([H])([H])c2c([H])c(OC([H])([H])C([H])([H])Oc3c([H])c([H])c([H])c(C([H])([H])C([H])([H])[N+]([H])([H])C([H])([H])C([H])([H])C([H])([H])C([H])([H])C([H])([H])N([H])C(=O)N4C([H])([H])C([H])([H])C([H])([H])C([H])(n5nc(-c6c([H])c([H])c(Oc7c([H])c([H])c(F)c([H])c7F)c([H])c6[H])c(C(=O)N([H])[H])c5N([H])[H])C4([H])[H])c3C([H])([H])[H])c([H])c([H])c2C1([H])[H]

$$$$
49:0:0
     RDKit          3D

 99107  0  0  1  0  0  0  0  0999 V2000
  -30.0110  -22.1020   22.5900 N   0  0  0  0  0  4  0  0  0  0  0  0
  -29.4730  -21.4710   22.0180 H   0  0  0  0  0  0  0  0  0  0  0  0
  -29.5380  -22.1880   23.4750 H   0  0  0  0  0  0  0  0  0  0  0  0
  -29.9830  -25.9620   22.2570 C   0  0  0  0  0  2  0  0  0  0  0  0
  -29.8650  -24.5700   22.8970 C   0  0  0  0  0  2  0  0  0  0  0  0
  -28.6690  -26.5160   21.6800 C   0  0  0  0  0  2  0  0  0  0  0  0
  -28.8440  -23.3800   20.8560 C   0  0  0  0  0  2  0  0  0  0  0  0
  -28.8140  -24.5800   19.8830 C   0  0  0  0  0  3  0  0  0  0  0  0
  -29.9830  -23.4070   21.8910 C   0  0  0  0  0  3  0  0  0  0  0  0
  -28.0230  -25.7690   20.4840 C   0  0  0  0  0  3  0  0  0  0  0  0
  -28.2100  -24.1180   18.5400 C   0  0  0  0  0  1  0  0  0  0  0  0
  -27.8090  -26.7360   19.4610 O   0  0  0  0  0  0  0  0  0  0  0  0
  -24.5520  -31.8010   23.2310 C   0  0  0  0  0  0  0  0  0  0  0  0
  -26.6850  -27.4970   19.6410 C   0  0  0  0  0  0  0  0  0  0  0  0
  -23.1320  -30.5720   21.6190 C   0  0  0  0  0  3  0  0  0  0  0  0
  -24.3720  -29.0680   19.9740 C   0  0  0  0  0  0  0  0  0  0  0  0
  -25.6410  -30.8360   21.2120 C   0  0  0  0  0  2  0  0  0  0  0  0
  -25.6000  -29.5100   20.4840 C   0  0  0  0  0  0  0  0  0  0  0  0
  -26.7630  -28.7310   20.3180 C   0  0  0  0  0  3  0  0  0  0  0  0
  -25.4460  -27.0550   19.1350 C   0  0  0  0  0  3  0  0  0  0  0  0
  -24.2870  -27.8370   19.3010 C   0  0  0  0  0  3  0  0  0  0  0  0
  -23.1800  -29.9740   20.1850 C   0  0  0  0  0  2  0  0  0  0  0  0
  -24.4650  -31.0780   22.0790 N   0  0  0  0  0  0  0  0  0  0  0  0
  -23.5390  -32.0870   23.8840 O   0  0  0  0  0  0  0  0  0  0  0  0
  -22.5160  -29.5200   22.5650 C   0  0  0  0  0  0  0  0  0  0  0  0
  -21.1870  -29.3480   22.4800 N   0  0  0  0  0  0  0  0  0  0  0  0
  -23.2270  -28.8630   23.3290 O   0  0  0  0  0  0  0  0  0  0  0  0
  -20.6780  -29.9300   21.8300 H   0  0  0  0  0  0  0  0  0  0  0  0
  -17.8420  -28.0720   22.9610 C   0  0  0  0  0  0  0  0  0  0  0  0
  -20.3910  -28.3880   23.2440 C   0  0  0  0  0  3  0  0  0  0  0  0
  -20.5300  -26.9610   22.6630 C   0  0  0  0  0  2  0  0  0  0  0  0
  -19.4380  -26.6170   21.6440 C   0  0  0  0  0  2  0  0  0  0  0  0
  -18.0520  -26.7280   22.2830 C   0  0  0  0  0  2  0  0  0  0  0  0
  -18.9410  -28.8580   23.3980 C   0  0  0  0  0  0  0  0  0  0  0  0
  -18.6920  -30.1160   23.9890 C   0  0  0  0  0  3  0  0  0  0  0  0
  -17.3760  -30.5890   24.1480 C   0  0  0  0  0  3  0  0  0  0  0  0
  -16.2910  -29.7990   23.7300 C   0  0  0  0  0  3  0  0  0  0  0  0
  -16.5240  -28.5420   23.1440 C   0  0  0  0  0  3  0  0  0  0  0  0
  -25.9220  -32.3220   23.7700 C   0  0  0  0  0  3  0  0  0  0  0  0
  -25.7160  -33.6990   24.2350 N   0  0  0  0  0  0  0  0  0  0  0  0
  -26.0890  -34.7930   23.5570 C   0  0  0  0  0  0  0  0  0  0  0  0
  -26.7140  -34.7410   22.4940 O   0  0  0  0  0  0  0  0  0  0  0  0
  -25.1660  -33.8160   25.0740 H   0  0  0  0  0  0  0  0  0  0  0  0
  -24.4710  -36.7110   23.4210 C   0  0  0  0  0  1  0  0  0  0  0  0
  -25.7070  -36.1610   24.1500 C   0  0  0  0  0  3  0  0  0  0  0  0
  -27.9180  -36.8320   24.9780 C   0  0  0  0  0  1  0  0  0  0  0  0
  -26.8020  -37.1540   24.0940 N   0  0  0  0  0  0  0  0  0  0  0  0
  -26.4600  -38.0780   24.3430 H   0  0  0  0  0  0  0  0  0  0  0  0
  -26.5170  -31.4250   24.9250 C   0  0  1  0  0  0  0  0  0  0  0  0
  -25.5180  -31.1420   26.0710 C   0  0  0  0  0  1  0  0  0  0  0  0
  -26.9950  -30.0650   24.3630 C   0  0  0  0  0  1  0  0  0  0  0  0
  -27.7590  -32.1160   25.5360 C   0  0  0  0  0  1  0  0  0  0  0  0
  -31.3580  -21.5150   22.7800 C   0  0  0  0  0  2  0  0  0  0  0  0
  -31.3230  -20.0240   23.1850 C   0  0  0  0  0  2  0  0  0  0  0  0
  -30.6310  -19.0920   22.1560 C   0  0  0  0  0  2  0  0  0  0  0  0
  -30.9110  -17.6370   22.3420 N   0  0  2  0  0  4  0  0  0  0  0  0
  -30.0340  -17.1710   22.1660 H   0  0  0  0  0  0  0  0  0  0  0  0
  -30.5980  -18.0510   24.8250 C   0  0  0  0  0  1  0  0  0  0  0  0
  -31.3170  -17.2490   23.7260 C   0  0  0  0  0  2  0  0  0  0  0  0
  -31.8100  -17.0970   21.2850 C   0  0  0  0  0  2  0  0  0  0  0  0
  -31.9650  -15.5620   21.3210 C   0  0  0  0  0  2  0  0  0  0  0  0
  -30.7990  -14.3070   19.5100 C   0  0  0  0  0  0  0  0  0  0  0  0
  -30.2980  -12.1250   18.4840 C   0  0  0  0  0  2  0  0  0  0  0  0
  -29.2160  -12.1330   17.3950 C   0  0  0  0  0  2  0  0  0  0  0  0
  -27.8180  -12.0020   18.0220 C   0  0  0  0  0  2  0  0  0  0  0  0
  -27.5880  -13.0260   19.1600 C   0  0  0  0  0  3  0  0  0  0  0  0
  -28.7540  -13.0090   20.1700 C   0  0  0  0  0  2  0  0  0  0  0  0
  -30.0240  -13.2030   19.4420 N   0  0  0  0  0  0  0  0  0  0  0  0
  -31.5920  -14.6570   18.6310 O   0  0  0  0  0  0  0  0  0  0  0  0
  -30.8340  -14.8310   20.7430 N   0  0  0  0  0  0  0  0  0  0  0  0
  -30.2030  -14.3860   21.3960 H   0  0  0  0  0  0  0  0  0  0  0  0
  -25.3660  -13.7300   20.2580 C   0  0  0  0  0  0  0  0  0  0  0  0
  -24.3130  -12.9990   20.7400 C   0  0  0  0  0  0  0  0  0  0  0  0
  -24.6710  -11.6270   20.5610 C   0  0  0  0  0  0  0  0  0  0  0  0
  -26.3020  -12.8050   19.8220 N   0  0  0  0  0  0  0  0  0  0  0  0
  -25.8940  -11.5330   20.0580 N   0  0  0  0  0  0  0  0  0  0  0  0
  -23.8980  -10.3990   20.7860 C   0  0  0  0  0  0  0  0  0  0  0  0
  -24.3270   -9.4120   21.7010 C   0  0  0  0  0  3  0  0  0  0  0  0
  -23.5550   -8.2490   21.9130 C   0  0  0  0  0  3  0  0  0  0  0  0
  -22.3410   -8.0640   21.2090 C   0  0  0  0  0  0  0  0  0  0  0  0
  -21.9310   -9.0390   20.2840 C   0  0  0  0  0  3  0  0  0  0  0  0
  -22.7010  -10.1940   20.0700 C   0  0  0  0  0  3  0  0  0  0  0  0
  -21.5400   -6.9550   21.3320 O   0  0  0  0  0  0  0  0  0  0  0  0
  -21.4250   -6.2790   22.5200 C   0  0  0  0  0  0  0  0  0  0  0  0
  -20.9740   -6.9130   23.6980 C   0  0  0  0  0  3  0  0  0  0  0  0
  -20.8020   -6.1640   24.8800 C   0  0  0  0  0  3  0  0  0  0  0  0
  -21.0720   -4.7820   24.8840 C   0  0  0  0  0  0  0  0  0  0  0  0
  -21.5160   -4.1470   23.7100 C   0  0  0  0  0  3  0  0  0  0  0  0
  -21.6890   -4.8930   22.5310 C   0  0  0  0  0  0  0  0  0  0  0  0
  -22.0970   -4.2740   21.3980 F   0  0  0  0  0  0  0  0  0  0  0  0
  -20.9000   -4.0610   26.0170 F   0  0  0  0  0  0  0  0  0  0  0  0
  -23.0070  -13.5380   21.2480 C   0  0  0  0  0  0  0  0  0  0  0  0
  -22.3890  -12.8470   22.2010 N   0  0  0  0  0  0  0  0  0  0  0  0
  -22.5510  -14.6020   20.8360 O   0  0  0  0  0  0  0  0  0  0  0  0
  -22.7730  -11.9820   22.5520 H   0  0  0  0  0  0  0  0  0  0  0  0
  -21.5200  -13.1890   22.5840 H   0  0  0  0  0  0  0  0  0  0  0  0
  -25.5980  -15.0970   20.1350 N   0  0  0  0  0  0  0  0  0  0  0  0
  -24.9050  -15.7920   20.3890 H   0  0  0  0  0  0  0  0  0  0  0  0
  -26.4200  -15.4980   19.7000 H   0  0  0  0  0  0  0  0  0  0  0  0
  1 53  1  0
  1  3  1  0
  2  1  1  0
  4  5  1  0
  6  4  1  0
  7  9  1  0
  8 11  1  0
  8 10  1  0
  8  7  1  0
  9  1  1  0
  9  5  1  0
 10 12  1  0
 10  6  1  0
 12 14  1  0
 13 24  2  0
 14 19  1  0
 15 23  1  0
 15 25  1  0
 16 22  1  0
 16 18  1  0
 17 23  1  0
 18 17  1  0
 19 18  2  0
 20 21  1  0
 20 14  2  0
 21 16  2  0
 22 15  1  0
 23 13  1  0
 25 27  2  0
 26 25  1  0
 28 26  1  0
 29 38  2  0
 29 34  1  0
 30 26  1  0
 30 34  1  0
 31 30  1  0
 32 33  1  0
 32 31  1  0
 33 29  1  0
 34 35  2  0
 35 36  1  0
 37 36  2  0
 38 37  1  0
 39 13  1  0
 39 40  1  0
 39 49  1  0
 40 43  1  0
 41 45  1  0
 41 40  1  0
 42 41  2  0
 45 44  1  0
 47 45  1  0
 47 48  1  0
 47 46  1  0
 49 52  1  1
 49 50  1  0
 51 49  1  0
 53 54  1  0
 55 56  1  0
 55 54  1  0
 56 59  1  0
 56 57  1  6
 59 58  1  0
 60 61  1  0
 60 56  1  0
 62 70  1  0
 63 68  1  0
 64 65  1  0
 64 63  1  0
 66 65  1  0
 66 75  1  0
 66 67  1  0
 68 62  1  0
 68 67  1  0
 69 62  2  0
 70 61  1  0
 70 71  1  0
 72 73  2  0
 73 92  1  0
 74 73  1  0
 74 77  1  0
 75 76  1  0
 75 72  1  0
 76 74  2  0
 77 78  1  0
 78 79  2  0
 80 83  1  0
 80 79  1  0
 81 80  2  0
 82 81  1  0
 82 77  2  0
 83 84  1  0
 84 89  2  0
 84 85  1  0
 85 86  2  0
 86 87  1  0
 87 91  1  0
 88 87  2  0
 89 88  1  0
 90 89  1  0
 92 93  1  0
 93 95  1  0
 93 96  1  0
 94 92  2  0
 97 72  1  0
 97 98  1  0
 99 97  1  0
M  ISO  4  10 101  12 101  62 100  70 100
M  END
>  <TORSDO>  (50) 
F 24

>  <SCORE>  (50) 
-8.372

>  <name>  (50) 
49

>  <ligand_id>  (50) 
49

>  <original_smiles>  (50) 
[H]c1c([H])c([H])c2c(c1[H])C([H])([H])C([H])([H])C([H])([H])C2([H])N([H])C(=O)C1([H])N(C(=O)C([H])(N([H])C(=O)C([H])(N([H])C([H])([H])[H])C([H])([H])[H])C(C([H])([H])[H])(C([H])([H])[H])C([H])([H])[H])C([H])([H])c2c([H])c(OC3([H])C([H])([H])C([H])([H])C([H])([H])C([H])([N+]([H])([H])C([H])([H])C([H])([H])C([H])([H])[N+]([H])(C([H])([H])C([H])([H])[H])C([H])([H])C([H])([H])N([H])C(=O)N4C([H])([H])C([H])([H])C([H])([H])C([H])(n5nc(-c6c([H])c([H])c(Oc7c([H])c([H])c(F)c([H])c7F)c([H])c6[H])c(C(=O)N([H])[H])c5N([H])[H])C4([H])[H])C([H])([H])C3([H])C([H])([H])[H])c([H])c([H])c2C1([H])[H]

>  <smiles>  (50) 
[H]c1c([H])c([H])c2c(c1[H])C([H])([H])C([H])([H])C([H])([H])C2([H])N([H])C(=O)C1([H])N(C(=O)C([H])(N([H])C(=O)C([H])(N([H])C([H])([H])[H])C([H])([H])[H])C(C([H])([H])[H])(C([H])([H])[H])C([H])([H])[H])C([H])([H])c2c([H])c(OC3([H])C([H])([H])C([H])([H])C([H])([H])C([H])([N+]([H])([H])C([H])([H])C([H])([H])C([H])([H])[N+]([H])(C([H])([H])C([H])([H])[H])C([H])([H])C([H])([H])N([H])C(=O)N4C([H])([H])C([H])([H])C([H])([H])C([H])(n5nc(-c6c([H])c([H])c(Oc7c([H])c([H])c(F)c([H])c7F)c([H])c6[H])c(C(=O)N([H])[H])c5N([H])[H])C4([H])[H])C([H])([H])C3([H])C([H])([H])[H])c([H])c([H])c2C1([H])[H]

$$$$
50:0:0
     RDKit          3D

 97106  0  0  1  0  0  0  0  0999 V2000
  -29.8640  -22.1020   22.7060 C   0  0  0  0  0  3  0  0  0  0  0  0
  -31.8840  -22.0800   20.7910 C   0  0  0  0  0  3  0  0  0  0  0  0
  -30.4650  -20.8820   22.3460 C   0  0  0  0  0  0  0  0  0  0  0  0
  -31.5310  -20.8530   21.4150 C   0  0  0  0  0  0  0  0  0  0  0  0
  -30.2720  -23.3240   22.1340 C   0  0  0  0  0  0  0  0  0  0  0  0
  -31.2530  -23.3160   21.1020 C   0  0  0  0  0  0  0  0  0  0  0  0
  -29.9980  -19.6140   23.0470 C   0  0  0  0  0  2  0  0  0  0  0  0
  -30.1580  -18.3290   22.2100 C   0  0  0  0  0  2  0  0  0  0  0  0
  -31.1980  -18.3910   21.0700 C   0  0  0  0  0  2  0  0  0  0  0  0
  -32.2660  -19.5010   21.2010 C   0  0  2  0  0  0  0  0  0  0  0  0
  -29.6790  -24.5880   22.7370 C   0  0  0  0  0  1  0  0  0  0  0  0
  -32.9850  -19.1800   22.3750 O   0  0  0  0  0  0  0  0  0  0  0  0
  -32.3540  -19.1890   23.0840 H   0  0  0  0  0  0  0  0  0  0  0  0
  -31.7800  -24.5510   20.3360 C   0  0  0  0  0  2  0  0  0  0  0  0
  -31.1760  -25.9730   20.5130 C   0  0  0  0  0  2  0  0  0  0  0  0
  -29.7300  -26.2080   20.0290 C   0  0  0  0  0  2  0  0  0  0  0  0
  -29.4430  -27.6050   20.1900 O   0  0  0  0  0  0  0  0  0  0  0  0
  -24.4280  -31.6110   23.2530 C   0  0  0  0  0  0  0  0  0  0  0  0
  -28.1290  -28.0230   20.1440 C   0  0  0  0  0  0  0  0  0  0  0  0
  -23.6380  -30.0720   21.4850 C   0  0  0  0  0  3  0  0  0  0  0  0
  -25.4590  -28.9630   20.0840 C   0  0  0  0  0  0  0  0  0  0  0  0
  -26.0280  -30.9830   21.4450 C   0  0  0  0  0  2  0  0  0  0  0  0
  -26.4430  -29.6980   20.7550 C   0  0  0  0  0  0  0  0  0  0  0  0
  -27.7780  -29.2380   20.7760 C   0  0  0  0  0  3  0  0  0  0  0  0
  -27.1210  -27.2900   19.4760 C   0  0  0  0  0  3  0  0  0  0  0  0
  -25.7930  -27.7570   19.4410 C   0  0  0  0  0  3  0  0  0  0  0  0
  -24.0560  -29.5270   20.0930 C   0  0  0  0  0  2  0  0  0  0  0  0
  -24.7110  -30.9040   22.1200 N   0  0  0  0  0  0  0  0  0  0  0  0
  -23.2900  -31.6130   23.7400 O   0  0  0  0  0  0  0  0  0  0  0  0
  -23.1830  -28.8840   22.3630 C   0  0  0  0  0  0  0  0  0  0  0  0
  -21.9530  -28.4010   22.1230 N   0  0  0  0  0  0  0  0  0  0  0  0
  -23.9350  -28.4020   23.2140 O   0  0  0  0  0  0  0  0  0  0  0  0
  -21.3970  -28.8580   21.4130 H   0  0  0  0  0  0  0  0  0  0  0  0
  -18.9500  -26.3990   22.2740 C   0  0  0  0  0  0  0  0  0  0  0  0
  -21.3290  -27.2620   22.7960 C   0  0  0  0  0  3  0  0  0  0  0  0
  -21.8340  -25.9240   22.2080 C   0  0  0  0  0  2  0  0  0  0  0  0
  -20.9390  -25.3810   21.0890 C   0  0  0  0  0  2  0  0  0  0  0  0
  -19.5140  -25.1600   21.5990 C   0  0  0  0  0  2  0  0  0  0  0  0
  -19.8020  -27.3930   22.8220 C   0  0  0  0  0  0  0  0  0  0  0  0
  -19.2270  -28.5420   23.4080 C   0  0  0  0  0  3  0  0  0  0  0  0
  -17.8290  -28.7040   23.4540 C   0  0  0  0  0  3  0  0  0  0  0  0
  -16.9900  -27.7080   22.9230 C   0  0  0  0  0  3  0  0  0  0  0  0
  -17.5500  -26.5580   22.3400 C   0  0  0  0  0  3  0  0  0  0  0  0
  -25.5150  -32.4700   23.9740 C   0  0  0  0  0  3  0  0  0  0  0  0
  -24.9680  -33.8240   24.1400 N   0  0  0  0  0  0  0  0  0  0  0  0
  -25.2850  -34.8710   23.3670 C   0  0  0  0  0  0  0  0  0  0  0  0
  -26.1340  -34.8130   22.4730 O   0  0  0  0  0  0  0  0  0  0  0  0
  -24.2250  -33.9320   24.8140 H   0  0  0  0  0  0  0  0  0  0  0  0
  -23.4340  -36.3810   22.5780 C   0  0  0  0  0  1  0  0  0  0  0  0
  -24.5420  -36.1960   23.6270 C   0  0  0  0  0  3  0  0  0  0  0  0
  -26.3760  -37.3910   24.7410 C   0  0  0  0  0  1  0  0  0  0  0  0
  -25.4310  -37.3790   23.6270 N   0  0  0  0  0  0  0  0  0  0  0  0
  -24.8880  -38.2370   23.6610 H   0  0  0  0  0  0  0  0  0  0  0  0
  -25.9580  -31.8730   25.3660 C   0  0  1  0  0  0  0  0  0  0  0  0
  -24.7740  -31.4830   26.2810 C   0  0  0  0  0  1  0  0  0  0  0  0
  -26.8330  -30.6140   25.1620 C   0  0  0  0  0  1  0  0  0  0  0  0
  -26.8300  -32.9010   26.1230 C   0  0  0  0  0  1  0  0  0  0  0  0
  -33.2530  -19.3810   19.9800 C   0  0  0  0  0  2  0  0  0  0  0  0
  -34.2180  -18.1580   19.8940 C   0  0  0  0  0  2  0  0  0  0  0  0
  -34.1260  -15.6830   19.6760 C   0  0  0  0  0  0  0  0  0  0  0  0
  -33.4610  -13.6460   18.4720 C   0  0  0  0  0  2  0  0  0  0  0  0
  -32.6310  -14.0730   17.2440 C   0  0  0  0  0  2  0  0  0  0  0  0
  -31.1430  -14.2320   17.6180 C   0  0  0  0  0  2  0  0  0  0  0  0
  -30.9300  -15.0830   18.9000 C   0  0  0  0  0  3  0  0  0  0  0  0
  -31.8730  -14.6200   20.0340 C   0  0  0  0  0  2  0  0  0  0  0  0
  -33.2500  -14.6580   19.5170 N   0  0  0  0  0  0  0  0  0  0  0  0
  -35.2930  -15.6400   19.2770 O   0  0  0  0  0  0  0  0  0  0  0  0
  -33.5820  -16.8430   20.0860 N   0  0  0  0  0  0  0  0  0  0  0  0
  -32.6250  -16.8190   20.4010 H   0  0  0  0  0  0  0  0  0  0  0  0
  -28.6590  -16.1410   19.4950 C   0  0  0  0  0  0  0  0  0  0  0  0
  -27.4530  -15.5870   19.8330 C   0  0  0  0  0  0  0  0  0  0  0  0
  -27.6550  -14.1730   19.8410 C   0  0  0  0  0  0  0  0  0  0  0  0
  -29.5310  -15.0760   19.3220 N   0  0  0  0  0  0  0  0  0  0  0  0
  -28.9270  -13.8890   19.5860 N   0  0  0  0  0  0  0  0  0  0  0  0
  -26.7010  -13.0710   20.0180 C   0  0  0  0  0  0  0  0  0  0  0  0
  -26.8310  -12.1470   21.0790 C   0  0  0  0  0  3  0  0  0  0  0  0
  -25.8930  -11.1050   21.2400 C   0  0  0  0  0  3  0  0  0  0  0  0
  -24.8070  -10.9820   20.3390 C   0  0  0  0  0  0  0  0  0  0  0  0
  -24.6950  -11.8910   19.2720 C   0  0  0  0  0  3  0  0  0  0  0  0
  -25.6330  -12.9240   19.1100 C   0  0  0  0  0  3  0  0  0  0  0  0
  -23.8600   -9.9900   20.4040 O   0  0  0  0  0  0  0  0  0  0  0  0
  -23.3370   -9.5690   21.6020 C   0  0  0  0  0  0  0  0  0  0  0  0
  -22.6910  -10.4590   22.4870 C   0  0  0  0  0  3  0  0  0  0  0  0
  -22.1110   -9.9720   23.6750 C   0  0  0  0  0  3  0  0  0  0  0  0
  -22.1640   -8.5970   23.9730 C   0  0  0  0  0  0  0  0  0  0  0  0
  -22.8030   -7.7090   23.0900 C   0  0  0  0  0  3  0  0  0  0  0  0
  -23.3850   -8.1940   21.9050 C   0  0  0  0  0  0  0  0  0  0  0  0
  -23.9810   -7.3310   21.0480 F   0  0  0  0  0  0  0  0  0  0  0  0
  -21.5990   -8.1270   25.1100 F   0  0  0  0  0  0  0  0  0  0  0  0
  -26.1580  -16.3180   20.0400 C   0  0  0  0  0  0  0  0  0  0  0  0
  -25.2850  -15.7970   20.8950 N   0  0  0  0  0  0  0  0  0  0  0  0
  -25.9310  -17.3880   19.4750 O   0  0  0  0  0  0  0  0  0  0  0  0
  -25.4740  -14.9280   21.3750 H   0  0  0  0  0  0  0  0  0  0  0  0
  -24.4110  -16.2710   21.0710 H   0  0  0  0  0  0  0  0  0  0  0  0
  -29.0840  -17.4520   19.3010 N   0  0  0  0  0  0  0  0  0  0  0  0
  -28.4470  -18.2370   19.3550 H   0  0  0  0  0  0  0  0  0  0  0  0
  -30.0010  -17.7100   18.9610 H   0  0  0  0  0  0  0  0  0  0  0  0
  2  6  2  0
  2  4  1  0
  3  1  1  0
  3  7  1  0
  4  3  2  0
  5  1  2  0
  5 11  1  0
  6  5  1  0
  8  7  1  0
  9 10  1  0
  9  8  1  0
 10 58  1  6
 10  4  1  0
 10 12  1  0
 12 13  1  0
 14 15  1  0
 14  6  1  0
 16 17  1  0
 16 15  1  0
 18 29  2  0
 19 17  1  0
 19 24  1  0
 20 28  1  0
 20 30  1  0
 21 27  1  0
 21 23  1  0
 22 28  1  0
 23 24  2  0
 23 22  1  0
 25 19  2  0
 26 25  1  0
 26 21  2  0
 27 20  1  0
 28 18  1  0
 30 32  2  0
 31 30  1  0
 33 31  1  0
 34 43  2  0
 34 39  1  0
 35 31  1  0
 35 39  1  0
 36 35  1  0
 37 38  1  0
 37 36  1  0
 38 34  1  0
 39 40  2  0
 40 41  1  0
 42 41  2  0
 43 42  1  0
 44 18  1  0
 44 45  1  0
 44 54  1  0
 45 48  1  0
 46 50  1  0
 46 45  1  0
 47 46  2  0
 50 49  1  0
 52 50  1  0
 52 53  1  0
 52 51  1  0
 54 57  1  1
 54 55  1  0
 56 54  1  0
 59 58  1  0
 59 68  1  0
 60 68  1  0
 61 66  1  0
 62 63  1  0
 62 61  1  0
 64 63  1  0
 64 73  1  0
 64 65  1  0
 66 60  1  0
 66 65  1  0
 67 60  2  0
 68 69  1  0
 70 71  2  0
 71 72  1  0
 71 90  1  0
 72 75  1  0
 73 70  1  0
 73 74  1  0
 74 72  2  0
 75 76  1  0
 76 77  2  0
 78 81  1  0
 78 77  1  0
 79 78  2  0
 80 79  1  0
 80 75  2  0
 81 82  1  0
 82 87  2  0
 82 83  1  0
 83 84  2  0
 84 85  1  0
 85 89  1  0
 86 85  2  0
 87 86  1  0
 88 87  1  0
 90 91  1  0
 91 94  1  0
 91 93  1  0
 92 90  2  0
 95 96  1  0
 95 70  1  0
 97 95  1  0
M  ISO  4  16 101  17 101  60 100  68 100
M  END
>  <TORSDO>  (51) 
F 22

>  <SCORE>  (51) 
-2.757

>  <name>  (51) 
50

>  <ligand_id>  (51) 
50

>  <original_smiles>  (51) 
[H]OC1(C([H])([H])C([H])([H])N([H])C(=O)N2C([H])([H])C([H])([H])C([H])([H])C([H])(n3nc(-c4c([H])c([H])c(Oc5c([H])c([H])c(F)c([H])c5F)c([H])c4[H])c(C(=O)N([H])[H])c3N([H])[H])C2([H])[H])c2c([H])c(C([H])([H])C([H])([H])C([H])([H])Oc3c([H])c([H])c4c(c3[H])C([H])([H])N(C(=O)C([H])(N([H])C(=O)C([H])(N([H])C([H])([H])[H])C([H])([H])[H])C(C([H])([H])[H])(C([H])([H])[H])C([H])([H])[H])C([H])(C(=O)N([H])C3([H])c5c([H])c([H])c([H])c([H])c5C([H])([H])C([H])([H])C3([H])[H])C4([H])[H])c(C([H])([H])[H])c([H])c2C([H])([H])C([H])([H])C1([H])[H]

>  <smiles>  (51) 
[H]OC1(C([H])([H])C([H])([H])N([H])C(=O)N2C([H])([H])C([H])([H])C([H])([H])C([H])(n3nc(-c4c([H])c([H])c(Oc5c([H])c([H])c(F)c([H])c5F)c([H])c4[H])c(C(=O)N([H])[H])c3N([H])[H])C2([H])[H])c2c([H])c(C([H])([H])C([H])([H])C([H])([H])Oc3c([H])c([H])c4c(c3[H])C([H])([H])N(C(=O)C([H])(N([H])C(=O)C([H])(N([H])C([H])([H])[H])C([H])([H])[H])C(C([H])([H])[H])(C([H])([H])[H])C([H])([H])[H])C([H])(C(=O)N([H])C3([H])c5c([H])c([H])c([H])c([H])c5C([H])([H])C([H])([H])C3([H])[H])C4([H])[H])c(C([H])([H])[H])c([H])c2C([H])([H])C([H])([H])C1([H])[H]

$$$$
51:0:0
     RDKit          3D

 96104  0  0  1  0  0  0  0  0999 V2000
  -29.6210  -24.1590   22.9110 C   0  0  0  0  0  3  0  0  0  0  0  0
  -30.1450  -25.4650   22.9750 C   0  0  0  0  0  3  0  0  0  0  0  0
  -28.7590  -23.7690   21.8660 C   0  0  0  0  0  0  0  0  0  0  0  0
  -28.3840  -24.7370   20.8840 C   0  0  0  0  0  0  0  0  0  0  0  0
  -29.8020  -26.4110   21.9960 C   0  0  0  0  0  0  0  0  0  0  0  0
  -28.8890  -26.0770   20.9690 C   0  0  0  0  0  0  0  0  0  0  0  0
  -27.4600  -24.3310   19.7360 C   0  0  0  0  0  1  0  0  0  0  0  0
  -28.1870  -22.3670   21.8810 C   0  0  0  0  0  0  0  0  0  0  0  0
  -28.9030  -21.3410   21.3830 N   0  0  0  0  0  0  0  0  0  0  0  0
  -27.0460  -22.1830   22.3110 O   0  0  0  0  0  0  0  0  0  0  0  0
  -28.4160  -20.4590   21.2980 H   0  0  0  0  0  0  0  0  0  0  0  0
  -30.3230  -21.3060   21.0530 C   0  0  0  0  0  2  0  0  0  0  0  0
  -30.7570  -19.9810   20.3540 C   0  0  0  0  0  2  0  0  0  0  0  0
  -30.4750  -18.6590   21.1150 C   0  0  0  0  0  2  0  0  0  0  0  0
  -30.9030  -17.3800   20.3350 C   0  0  0  0  0  2  0  0  0  0  0  0
  -30.7060  -16.0460   21.1250 C   0  0  0  0  0  2  0  0  0  0  0  0
  -31.4070  -14.7830   20.5270 C   0  0  0  0  0  0  0  0  0  0  0  0
  -31.1350  -12.5840   19.4220 C   0  0  0  0  0  2  0  0  0  0  0  0
  -30.2510  -12.7950   18.1740 C   0  0  0  0  0  2  0  0  0  0  0  0
  -28.7520  -12.7160   18.5370 C   0  0  0  0  0  2  0  0  0  0  0  0
  -28.3910  -13.5870   19.7740 C   0  0  0  0  0  3  0  0  0  0  0  0
  -29.3900  -13.3330   20.9220 C   0  0  0  0  0  2  0  0  0  0  0  0
  -30.7390  -13.5990   20.4120 N   0  0  0  0  0  0  0  0  0  0  0  0
  -32.5540  -14.9180   20.0880 O   0  0  0  0  0  0  0  0  0  0  0  0
  -25.9950  -14.3030   20.3840 C   0  0  0  0  0  0  0  0  0  0  0  0
  -24.8800  -13.5790   20.7150 C   0  0  0  0  0  0  0  0  0  0  0  0
  -25.2840  -12.2120   20.7120 C   0  0  0  0  0  0  0  0  0  0  0  0
  -27.0100  -13.3750   20.2000 N   0  0  0  0  0  0  0  0  0  0  0  0
  -26.5820  -12.1120   20.4520 N   0  0  0  0  0  0  0  0  0  0  0  0
  -24.4940  -10.9830   20.8780 C   0  0  0  0  0  0  0  0  0  0  0  0
  -24.8340  -10.0090   21.8440 C   0  0  0  0  0  3  0  0  0  0  0  0
  -24.0480   -8.8490   22.0020 C   0  0  0  0  0  3  0  0  0  0  0  0
  -22.9030   -8.6530   21.1920 C   0  0  0  0  0  0  0  0  0  0  0  0
  -22.5810   -9.6130   20.2160 C   0  0  0  0  0  3  0  0  0  0  0  0
  -23.3690  -10.7650   20.0570 C   0  0  0  0  0  3  0  0  0  0  0  0
  -22.0940   -7.5430   21.2550 O   0  0  0  0  0  0  0  0  0  0  0  0
  -21.9380   -6.8310   22.4150 C   0  0  0  0  0  0  0  0  0  0  0  0
  -21.4750   -7.4360   23.6060 C   0  0  0  0  0  3  0  0  0  0  0  0
  -21.2620   -6.6520   24.7570 C   0  0  0  0  0  3  0  0  0  0  0  0
  -21.5040   -5.2670   24.7210 C   0  0  0  0  0  0  0  0  0  0  0  0
  -21.9630   -4.6620   23.5380 C   0  0  0  0  0  3  0  0  0  0  0  0
  -22.1740   -5.4420   22.3870 C   0  0  0  0  0  0  0  0  0  0  0  0
  -22.5920   -4.8510   21.2420 F   0  0  0  0  0  0  0  0  0  0  0  0
  -21.2930   -4.5120   25.8250 F   0  0  0  0  0  0  0  0  0  0  0  0
  -23.4930  -14.1200   20.9240 C   0  0  0  0  0  0  0  0  0  0  0  0
  -22.7020  -13.4740   21.7760 N   0  0  0  0  0  0  0  0  0  0  0  0
  -23.1180  -15.1510   20.3670 O   0  0  0  0  0  0  0  0  0  0  0  0
  -23.0150  -12.6420   22.2510 H   0  0  0  0  0  0  0  0  0  0  0  0
  -21.7690  -13.8170   21.9540 H   0  0  0  0  0  0  0  0  0  0  0  0
  -26.2230  -15.6610   20.2000 N   0  0  0  0  0  0  0  0  0  0  0  0
  -25.4790  -16.3490   20.2570 H   0  0  0  0  0  0  0  0  0  0  0  0
  -27.0960  -16.0560   19.8770 H   0  0  0  0  0  0  0  0  0  0  0  0
  -30.4010  -27.6740   22.0220 N   0  0  0  0  0  0  0  0  0  0  0  0
  -31.3510  -27.7260   22.3820 H   0  0  0  0  0  0  0  0  0  0  0  0
  -30.2980  -28.2190   21.1700 H   0  0  0  0  0  0  0  0  0  0  0  0
  -28.6130  -27.0560   20.0300 O   0  0  0  0  0  0  0  0  0  0  0  0
  -24.5370  -32.0280   23.2250 C   0  0  0  0  0  0  0  0  0  0  0  0
  -27.4320  -27.7660   20.1040 C   0  0  0  0  0  0  0  0  0  0  0  0
  -23.4400  -30.6320   21.5070 C   0  0  0  0  0  3  0  0  0  0  0  0
  -24.9950  -29.1990   20.0860 C   0  0  0  0  0  0  0  0  0  0  0  0
  -25.9590  -31.0820   21.4110 C   0  0  0  0  0  2  0  0  0  0  0  0
  -26.1150  -29.7340   20.7380 C   0  0  0  0  0  0  0  0  0  0  0  0
  -27.3370  -29.0220   20.7520 C   0  0  0  0  0  3  0  0  0  0  0  0
  -26.3010  -27.2660   19.4280 C   0  0  0  0  0  3  0  0  0  0  0  0
  -25.0850  -27.9670   19.4270 C   0  0  0  0  0  3  0  0  0  0  0  0
  -23.7210  -30.0130   20.1150 C   0  0  0  0  0  2  0  0  0  0  0  0
  -24.6600  -31.2620   22.1060 N   0  0  0  0  0  0  0  0  0  0  0  0
  -23.4280  -32.2440   23.7360 O   0  0  0  0  0  0  0  0  0  0  0  0
  -22.8080  -29.5510   22.4130 C   0  0  0  0  0  0  0  0  0  0  0  0
  -21.4850  -29.3570   22.2750 N   0  0  0  0  0  0  0  0  0  0  0  0
  -23.5010  -28.8920   23.1930 O   0  0  0  0  0  0  0  0  0  0  0  0
  -20.9870  -29.9460   21.6250 H   0  0  0  0  0  0  0  0  0  0  0  0
  -18.1080  -28.1710   22.7750 C   0  0  0  0  0  0  0  0  0  0  0  0
  -20.6760  -28.3680   22.9890 C   0  0  0  0  0  3  0  0  0  0  0  0
  -20.7390  -26.9890   22.2890 C   0  0  0  0  0  2  0  0  0  0  0  0
  -19.6000  -26.7660   21.2910 C   0  0  0  0  0  2  0  0  0  0  0  0
  -18.2440  -26.8750   21.9930 C   0  0  0  0  0  2  0  0  0  0  0  0
  -19.2500  -28.8800   23.2290 C   0  0  0  0  0  0  0  0  0  0  0  0
  -19.0710  -30.0990   23.9180 C   0  0  0  0  0  3  0  0  0  0  0  0
  -17.7790  -30.6060   24.1590 C   0  0  0  0  0  3  0  0  0  0  0  0
  -16.6510  -29.8870   23.7270 C   0  0  0  0  0  3  0  0  0  0  0  0
  -16.8160  -28.6720   23.0390 C   0  0  0  0  0  3  0  0  0  0  0  0
  -25.7750  -32.6890   23.9060 C   0  0  0  0  0  3  0  0  0  0  0  0
  -25.4240  -34.0810   24.2100 N   0  0  0  0  0  0  0  0  0  0  0  0
  -25.7650  -35.1320   23.4540 C   0  0  0  0  0  0  0  0  0  0  0  0
  -26.4820  -35.0360   22.4550 O   0  0  0  0  0  0  0  0  0  0  0  0
  -24.7920  -34.2330   24.9820 H   0  0  0  0  0  0  0  0  0  0  0  0
  -24.0070  -36.8740   23.0090 C   0  0  0  0  0  1  0  0  0  0  0  0
  -25.2250  -36.5130   23.8740 C   0  0  0  0  0  3  0  0  0  0  0  0
  -27.3040  -37.4600   24.7760 C   0  0  0  0  0  1  0  0  0  0  0  0
  -26.2350  -37.5920   23.7900 N   0  0  0  0  0  0  0  0  0  0  0  0
  -25.8000  -38.5040   23.9120 H   0  0  0  0  0  0  0  0  0  0  0  0
  -26.2430  -31.9340   25.2110 C   0  0  1  0  0  0  0  0  0  0  0  0
  -25.1020  -31.6730   26.2240 C   0  0  0  0  0  1  0  0  0  0  0  0
  -26.8790  -30.5710   24.8500 C   0  0  0  0  0  1  0  0  0  0  0  0
  -27.3380  -32.7610   25.9270 C   0  0  0  0  0  1  0  0  0  0  0  0
  1  2  1  0
  3  8  1  0
  3  1  2  0
  4  6  2  0
  4  3  1  0
  5 53  1  0
  5  2  2  0
  6  5  1  0
  7  4  1  0
  8 10  2  0
  9  8  1  0
 11  9  1  0
 12  9  1  0
 13 12  1  0
 13 14  1  0
 15 14  1  0
 15 16  1  0
 17 16  1  0
 18 23  1  0
 19 20  1  0
 19 18  1  0
 21 20  1  0
 21 28  1  0
 21 22  1  0
 23 17  1  0
 23 22  1  0
 24 17  2  0
 25 26  2  0
 26 45  1  0
 27 26  1  0
 27 30  1  0
 28 25  1  0
 28 29  1  0
 29 27  2  0
 30 31  1  0
 31 32  2  0
 33 36  1  0
 33 32  1  0
 34 33  2  0
 35 34  1  0
 35 30  2  0
 36 37  1  0
 37 38  1  0
 38 39  2  0
 40 39  1  0
 40 44  1  0
 41 40  2  0
 42 37  2  0
 42 41  1  0
 43 42  1  0
 45 46  1  0
 46 49  1  0
 46 48  1  0
 47 45  2  0
 50 51  1  0
 50 25  1  0
 52 50  1  0
 53 54  1  0
 55 53  1  0
 56 58  1  0
 56  6  1  0
 57 68  2  0
 58 63  1  0
 59 67  1  0
 59 69  1  0
 60 66  1  0
 60 62  1  0
 61 67  1  0
 62 63  2  0
 62 61  1  0
 64 58  2  0
 65 64  1  0
 65 60  2  0
 66 59  1  0
 67 57  1  0
 69 71  2  0
 70 69  1  0
 72 70  1  0
 73 82  2  0
 73 78  1  0
 74 70  1  0
 74 78  1  0
 75 74  1  0
 76 77  1  0
 76 75  1  0
 77 73  1  0
 78 79  2  0
 79 80  1  0
 81 80  2  0
 82 81  1  0
 83 57  1  0
 83 84  1  0
 83 93  1  0
 84 87  1  0
 85 89  1  0
 85 84  1  0
 86 85  2  0
 89 88  1  0
 91 89  1  0
 91 92  1  0
 91 90  1  0
 93 96  1  1
 93 94  1  0
 95 93  1  0
M  ISO  4   6 101  16 100  17 100  56 101
M  END
>  <TORSDO>  (52) 
F 23

>  <SCORE>  (52) 
-11.512

>  <name>  (52) 
51

>  <ligand_id>  (52) 
51

>  <original_smiles>  (52) 
[H]c1c([H])c([H])c2c(c1[H])C([H])([H])C([H])([H])C([H])([H])C2([H])N([H])C(=O)C1([H])N(C(=O)C([H])(N([H])C(=O)C([H])(N([H])C([H])([H])[H])C([H])([H])[H])C(C([H])([H])[H])(C([H])([H])[H])C([H])([H])[H])C([H])([H])c2c([H])c(Oc3c(N([H])[H])c([H])c([H])c(C(=O)N([H])C([H])([H])C([H])([H])C([H])([H])C([H])([H])C([H])([H])C(=O)N4C([H])([H])C([H])([H])C([H])([H])C([H])(n5nc(-c6c([H])c([H])c(Oc7c([H])c([H])c(F)c([H])c7F)c([H])c6[H])c(C(=O)N([H])[H])c5N([H])[H])C4([H])[H])c3C([H])([H])[H])c([H])c([H])c2C1([H])[H]

>  <smiles>  (52) 
[H]c1c([H])c([H])c2c(c1[H])C([H])([H])C([H])([H])C([H])([H])C2([H])N([H])C(=O)C1([H])N(C(=O)C([H])(N([H])C(=O)C([H])(N([H])C([H])([H])[H])C([H])([H])[H])C(C([H])([H])[H])(C([H])([H])[H])C([H])([H])[H])C([H])([H])c2c([H])c(Oc3c(N([H])[H])c([H])c([H])c(C(=O)N([H])C([H])([H])C([H])([H])C([H])([H])C([H])([H])C([H])([H])C(=O)N4C([H])([H])C([H])([H])C([H])([H])C([H])(n5nc(-c6c([H])c([H])c(Oc7c([H])c([H])c(F)c([H])c7F)c([H])c6[H])c(C(=O)N([H])[H])c5N([H])[H])C4([H])[H])c3C([H])([H])[H])c([H])c([H])c2C1([H])[H]

$$$$
52:0:0
     RDKit          3D

 96105  0  0  1  0  0  0  0  0999 V2000
  -29.8460  -24.0370   20.6160 C   0  0  0  0  0  3  0  0  0  0  0  0
  -30.7480  -23.0550   21.0790 C   0  0  0  0  0  3  0  0  0  0  0  0
  -30.0570  -23.4650   23.3980 C   0  0  0  0  0  3  0  0  0  0  0  0
  -29.0590  -24.7180   21.5580 C   0  0  0  0  0  0  0  0  0  0  0  0
  -29.1780  -24.4510   22.9190 C   0  0  0  0  0  0  0  0  0  0  0  0
  -30.8350  -22.7460   22.4610 C   0  0  0  0  0  0  0  0  0  0  0  0
  -28.2410  -25.2950   23.7400 C   0  0  0  0  0  2  0  0  0  0  0  0
  -27.5930  -26.2300   22.7010 C   0  0  0  0  0  2  0  0  0  0  0  0
  -27.9290  -25.6740   21.2860 C   0  0  0  0  0  3  0  0  0  0  0  0
  -28.1940  -26.6890   20.3050 O   0  0  0  0  0  0  0  0  0  0  0  0
  -24.5080  -31.9110   23.2520 C   0  0  0  0  0  0  0  0  0  0  0  0
  -27.0850  -27.4830   20.1560 C   0  0  0  0  0  0  0  0  0  0  0  0
  -23.2780  -30.5410   21.5980 C   0  0  0  0  0  3  0  0  0  0  0  0
  -24.7090  -28.9910   20.1620 C   0  0  0  0  0  0  0  0  0  0  0  0
  -25.8040  -30.8760   21.3980 C   0  0  0  0  0  2  0  0  0  0  0  0
  -25.8730  -29.5160   20.7380 C   0  0  0  0  0  0  0  0  0  0  0  0
  -27.0700  -28.7790   20.7080 C   0  0  0  0  0  3  0  0  0  0  0  0
  -25.9140  -26.9620   19.5700 C   0  0  0  0  0  3  0  0  0  0  0  0
  -24.7250  -27.7190   19.5640 C   0  0  0  0  0  3  0  0  0  0  0  0
  -23.4740  -29.8600   20.2170 C   0  0  0  0  0  2  0  0  0  0  0  0
  -24.5480  -31.1220   22.1440 N   0  0  0  0  0  0  0  0  0  0  0  0
  -23.4330  -32.1990   23.7960 O   0  0  0  0  0  0  0  0  0  0  0  0
  -22.6100  -29.5270   22.5560 C   0  0  0  0  0  0  0  0  0  0  0  0
  -21.2810  -29.3800   22.4370 N   0  0  0  0  0  0  0  0  0  0  0  0
  -23.2800  -28.8800   23.3630 O   0  0  0  0  0  0  0  0  0  0  0  0
  -20.8000  -29.9540   21.7580 H   0  0  0  0  0  0  0  0  0  0  0  0
  -17.8760  -28.2920   22.9440 C   0  0  0  0  0  0  0  0  0  0  0  0
  -20.4420  -28.4570   23.2020 C   0  0  0  0  0  3  0  0  0  0  0  0
  -20.4920  -27.0330   22.5970 C   0  0  0  0  0  2  0  0  0  0  0  0
  -19.3710  -26.7620   21.5860 C   0  0  0  0  0  2  0  0  0  0  0  0
  -18.0010  -26.9460   22.2460 C   0  0  0  0  0  2  0  0  0  0  0  0
  -19.0230  -29.0080   23.3760 C   0  0  0  0  0  0  0  0  0  0  0  0
  -18.8520  -30.2730   23.9850 C   0  0  0  0  0  3  0  0  0  0  0  0
  -17.5670  -30.8190   24.1660 C   0  0  0  0  0  3  0  0  0  0  0  0
  -16.4350  -30.0970   23.7470 C   0  0  0  0  0  3  0  0  0  0  0  0
  -16.5880  -28.8340   23.1430 C   0  0  0  0  0  3  0  0  0  0  0  0
  -25.8040  -32.5140   23.8840 C   0  0  0  0  0  3  0  0  0  0  0  0
  -25.5270  -33.9210   24.2070 N   0  0  0  0  0  0  0  0  0  0  0  0
  -25.8860  -34.9640   23.4440 C   0  0  0  0  0  0  0  0  0  0  0  0
  -26.5520  -34.8420   22.4120 O   0  0  0  0  0  0  0  0  0  0  0  0
  -24.9360  -34.0930   25.0100 H   0  0  0  0  0  0  0  0  0  0  0  0
  -24.2000  -36.7930   23.0740 C   0  0  0  0  0  1  0  0  0  0  0  0
  -25.4280  -36.3650   23.8950 C   0  0  0  0  0  3  0  0  0  0  0  0
  -27.5770  -37.2000   24.7350 C   0  0  0  0  0  1  0  0  0  0  0  0
  -26.4840  -37.3930   23.7850 N   0  0  0  0  0  0  0  0  0  0  0  0
  -26.0980  -38.3220   23.9310 H   0  0  0  0  0  0  0  0  0  0  0  0
  -26.3020  -31.7330   25.1580 C   0  0  1  0  0  0  0  0  0  0  0  0
  -25.2010  -31.5120   26.2200 C   0  0  0  0  0  1  0  0  0  0  0  0
  -26.8580  -30.3470   24.7560 C   0  0  0  0  0  1  0  0  0  0  0  0
  -27.4630  -32.5050   25.8290 C   0  0  0  0  0  1  0  0  0  0  0  0
  -31.6840  -21.5730   22.9070 C   0  0  0  0  0  2  0  0  0  0  0  0
  -30.9360  -20.3360   22.6130 N   0  0  0  0  0  4  0  0  0  0  0  0
  -30.2900  -20.5740   21.8810 H   0  0  0  0  0  0  0  0  0  0  0  0
  -30.3910  -20.0840   23.4200 H   0  0  0  0  0  0  0  0  0  0  0  0
  -31.7450  -19.1850   22.1560 C   0  0  0  0  0  2  0  0  0  0  0  0
  -30.8590  -18.0500   21.5870 C   0  0  0  0  0  2  0  0  0  0  0  0
  -31.6840  -16.9050   20.9670 C   0  0  0  0  0  2  0  0  0  0  0  0
  -31.4910  -15.5170   21.6210 C   0  0  0  0  0  2  0  0  0  0  0  0
  -30.5320  -14.0020   19.9110 C   0  0  0  0  0  0  0  0  0  0  0  0
  -30.0010  -11.8990   18.7440 C   0  0  0  0  0  2  0  0  0  0  0  0
  -28.9450  -12.0730   17.6420 C   0  0  0  0  0  2  0  0  0  0  0  0
  -27.5350  -11.9070   18.2320 C   0  0  0  0  0  2  0  0  0  0  0  0
  -27.3130  -12.7830   19.4930 C   0  0  0  0  0  3  0  0  0  0  0  0
  -28.4790  -12.6430   20.5000 C   0  0  0  0  0  2  0  0  0  0  0  0
  -29.7500  -12.8970   19.7960 N   0  0  0  0  0  0  0  0  0  0  0  0
  -31.4190  -14.2830   19.1030 O   0  0  0  0  0  0  0  0  0  0  0  0
  -30.4140  -14.6930   21.0550 N   0  0  0  0  0  0  0  0  0  0  0  0
  -29.6710  -14.4060   21.6770 H   0  0  0  0  0  0  0  0  0  0  0  0
  -24.9990  -13.3570   20.4600 C   0  0  0  0  0  0  0  0  0  0  0  0
  -23.9840  -12.5700   20.9350 C   0  0  0  0  0  0  0  0  0  0  0  0
  -24.4530  -11.2240   20.8440 C   0  0  0  0  0  0  0  0  0  0  0  0
  -26.0220  -12.4890   20.1110 N   0  0  0  0  0  0  0  0  0  0  0  0
  -25.7020  -11.2010   20.3990 N   0  0  0  0  0  0  0  0  0  0  0  0
  -23.7630   -9.9520   21.0970 C   0  0  0  0  0  0  0  0  0  0  0  0
  -24.2560   -9.0180   22.0350 C   0  0  0  0  0  3  0  0  0  0  0  0
  -23.5640   -7.8130   22.2760 C   0  0  0  0  0  3  0  0  0  0  0  0
  -22.3650   -7.5310   21.5810 C   0  0  0  0  0  0  0  0  0  0  0  0
  -21.8890   -8.4530   20.6320 C   0  0  0  0  0  3  0  0  0  0  0  0
  -22.5830   -9.6510   20.3890 C   0  0  0  0  0  3  0  0  0  0  0  0
  -21.6390   -6.3730   21.7310 O   0  0  0  0  0  0  0  0  0  0  0  0
  -21.6300   -5.6790   22.9130 C   0  0  0  0  0  0  0  0  0  0  0  0
  -21.1860   -6.2640   24.1190 C   0  0  0  0  0  3  0  0  0  0  0  0
  -21.1280   -5.4940   25.2970 C   0  0  0  0  0  3  0  0  0  0  0  0
  -21.5030   -4.1370   25.2700 C   0  0  0  0  0  0  0  0  0  0  0  0
  -21.9390   -3.5500   24.0690 C   0  0  0  0  0  3  0  0  0  0  0  0
  -21.9990   -4.3180   22.8950 C   0  0  0  0  0  0  0  0  0  0  0  0
  -22.4000   -3.7420   21.7350 F   0  0  0  0  0  0  0  0  0  0  0  0
  -21.4400   -3.3930   26.3990 F   0  0  0  0  0  0  0  0  0  0  0  0
  -22.6180  -13.0310   21.3560 C   0  0  0  0  0  0  0  0  0  0  0  0
  -21.9960  -12.3260   22.2940 N   0  0  0  0  0  0  0  0  0  0  0  0
  -22.1150  -14.0540   20.8930 O   0  0  0  0  0  0  0  0  0  0  0  0
  -22.4120  -11.4960   22.6900 H   0  0  0  0  0  0  0  0  0  0  0  0
  -21.0880  -12.6200   22.6230 H   0  0  0  0  0  0  0  0  0  0  0  0
  -25.1250  -14.7300   20.2780 N   0  0  0  0  0  0  0  0  0  0  0  0
  -24.3650  -15.3700   20.4830 H   0  0  0  0  0  0  0  0  0  0  0  0
  -25.9280  -15.1860   19.8640 H   0  0  0  0  0  0  0  0  0  0  0  0
  1  2  2  0
  1  4  1  0
  2  6  1  0
  4  5  2  0
  5  3  1  0
  5  7  1  0
  6 51  1  0
  6  3  2  0
  8  7  1  0
  9 10  1  0
  9  4  1  0
  9  8  1  0
 11 22  2  0
 12 10  1  0
 12 17  1  0
 13 21  1  0
 13 23  1  0
 14 20  1  0
 14 16  1  0
 15 21  1  0
 16 15  1  0
 17 16  2  0
 18 12  2  0
 19 18  1  0
 19 14  2  0
 20 13  1  0
 21 11  1  0
 23 25  2  0
 24 23  1  0
 26 24  1  0
 27 36  2  0
 27 32  1  0
 28 24  1  0
 28 32  1  0
 29 28  1  0
 30 31  1  0
 30 29  1  0
 31 27  1  0
 32 33  2  0
 33 34  1  0
 35 34  2  0
 36 35  1  0
 37 11  1  0
 37 38  1  0
 37 47  1  0
 38 41  1  0
 39 43  1  0
 39 38  1  0
 40 39  2  0
 43 42  1  0
 45 43  1  0
 45 46  1  0
 45 44  1  0
 47 50  1  1
 47 48  1  0
 49 47  1  0
 52 51  1  0
 52 54  1  0
 53 52  1  0
 55 52  1  0
 56 55  1  0
 57 56  1  0
 57 58  1  0
 59 67  1  0
 60 65  1  0
 61 62  1  0
 61 60  1  0
 63 62  1  0
 63 72  1  0
 63 64  1  0
 65 59  1  0
 65 64  1  0
 66 59  2  0
 67 58  1  0
 67 68  1  0
 69 70  2  0
 70 89  1  0
 71 70  1  0
 71 74  1  0
 72 73  1  0
 72 69  1  0
 73 71  2  0
 74 75  1  0
 75 76  2  0
 77 80  1  0
 77 76  1  0
 78 77  2  0
 79 78  1  0
 79 74  2  0
 80 81  1  0
 81 82  1  0
 82 83  2  0
 84 83  1  0
 84 88  1  0
 85 84  2  0
 86 81  2  0
 86 85  1  0
 87 86  1  0
 89 90  1  0
 90 93  1  0
 90 92  1  0
 91 89  2  0
 94 69  1  0
 94 95  1  0
 96 94  1  0
M  ISO  4   9 101  10 101  59 100  67 100
M  END
>  <TORSDO>  (53) 
F 22

>  <SCORE>  (53) 
-11.619

>  <name>  (53) 
52

>  <ligand_id>  (53) 
52

>  <original_smiles>  (53) 
[H]c1c([H])c([H])c2c(c1[H])C([H])([H])C([H])([H])C([H])([H])C2([H])N([H])C(=O)C1([H])N(C(=O)C([H])(N([H])C(=O)C([H])(N([H])C([H])([H])[H])C([H])([H])[H])C(C([H])([H])[H])(C([H])([H])[H])C([H])([H])[H])C([H])([H])c2c([H])c(OC3([H])c4c([H])c([H])c(C([H])([H])[N+]([H])([H])C([H])([H])C([H])([H])C([H])([H])C([H])([H])N([H])C(=O)N5C([H])([H])C([H])([H])C([H])([H])C([H])(n6nc(-c7c([H])c([H])c(Oc8c([H])c([H])c(F)c([H])c8F)c([H])c7[H])c(C(=O)N([H])[H])c6N([H])[H])C5([H])[H])c([H])c4C([H])([H])C3([H])[H])c([H])c([H])c2C1([H])[H]

>  <smiles>  (53) 
[H]c1c([H])c([H])c2c(c1[H])C([H])([H])C([H])([H])C([H])([H])C2([H])N([H])C(=O)C1([H])N(C(=O)C([H])(N([H])C(=O)C([H])(N([H])C([H])([H])[H])C([H])([H])[H])C(C([H])([H])[H])(C([H])([H])[H])C([H])([H])[H])C([H])([H])c2c([H])c(OC3([H])c4c([H])c([H])c(C([H])([H])[N+]([H])([H])C([H])([H])C([H])([H])C([H])([H])C([H])([H])N([H])C(=O)N5C([H])([H])C([H])([H])C([H])([H])C([H])(n6nc(-c7c([H])c([H])c(Oc8c([H])c([H])c(F)c([H])c8F)c([H])c7[H])c(C(=O)N([H])[H])c6N([H])[H])C5([H])[H])c([H])c4C([H])([H])C3([H])[H])c([H])c([H])c2C1([H])[H]

$$$$
53:0:0
     RDKit          3D

 92 99  0  0  1  0  0  0  0  0999 V2000
  -29.3830  -20.4320   19.8100 C   0  0  0  0  0  3  0  0  0  0  0  0
  -29.8630  -19.4850   20.8720 N   0  0  0  0  0  4  0  0  0  0  0  0
  -30.8540  -19.6410   20.9830 H   0  0  0  0  0  0  0  0  0  0  0  0
  -29.4290  -19.7190   21.7510 H   0  0  0  0  0  0  0  0  0  0  0  0
  -29.6600  -18.0240   20.5920 C   0  0  0  0  0  3  0  0  0  0  0  0
  -30.4870  -17.0500   21.4900 C   0  0  0  0  0  3  0  0  0  0  0  0
  -29.9750  -15.5670   21.5150 C   0  0  0  0  0  2  0  0  0  0  0  0
  -30.6520  -14.4980   20.6030 C   0  0  0  0  0  0  0  0  0  0  0  0
  -30.3950  -12.3890   19.3090 C   0  0  0  0  0  2  0  0  0  0  0  0
  -29.4510  -12.6090   18.1070 C   0  0  0  0  0  2  0  0  0  0  0  0
  -27.9730  -12.4640   18.5230 C   0  0  0  0  0  2  0  0  0  0  0  0
  -27.6350  -13.2690   19.8060 C   0  0  0  0  0  3  0  0  0  0  0  0
  -28.6730  -12.9800   20.9110 C   0  0  0  0  0  2  0  0  0  0  0  0
  -30.0010  -13.3220   20.3750 N   0  0  0  0  0  0  0  0  0  0  0  0
  -31.7430  -14.7470   20.0770 O   0  0  0  0  0  0  0  0  0  0  0  0
  -25.2240  -13.8970   20.4560 C   0  0  0  0  0  0  0  0  0  0  0  0
  -24.1460  -13.1330   20.8150 C   0  0  0  0  0  0  0  0  0  0  0  0
  -24.6040  -11.7800   20.8100 C   0  0  0  0  0  0  0  0  0  0  0  0
  -26.2700  -13.0090   20.2590 N   0  0  0  0  0  0  0  0  0  0  0  0
  -25.8980  -11.7320   20.5280 N   0  0  0  0  0  0  0  0  0  0  0  0
  -23.8720  -10.5220   21.0050 C   0  0  0  0  0  0  0  0  0  0  0  0
  -24.2850   -9.5640   21.9580 C   0  0  0  0  0  3  0  0  0  0  0  0
  -23.5520   -8.3720   22.1390 C   0  0  0  0  0  3  0  0  0  0  0  0
  -22.3930   -8.1280   21.3630 C   0  0  0  0  0  0  0  0  0  0  0  0
  -22.0000   -9.0730   20.3980 C   0  0  0  0  0  3  0  0  0  0  0  0
  -22.7340  -10.2590   20.2180 C   0  0  0  0  0  3  0  0  0  0  0  0
  -21.6330   -6.9880   21.4510 O   0  0  0  0  0  0  0  0  0  0  0  0
  -21.5620   -6.2580   22.6100 C   0  0  0  0  0  0  0  0  0  0  0  0
  -21.1090   -6.8260   23.8220 C   0  0  0  0  0  3  0  0  0  0  0  0
  -20.9860   -6.0230   24.9720 C   0  0  0  0  0  3  0  0  0  0  0  0
  -21.3060   -4.6520   24.9110 C   0  0  0  0  0  0  0  0  0  0  0  0
  -21.7530   -4.0850   23.7060 C   0  0  0  0  0  3  0  0  0  0  0  0
  -21.8780   -4.8850   22.5580 C   0  0  0  0  0  0  0  0  0  0  0  0
  -22.2890   -4.3280   21.3930 F   0  0  0  0  0  0  0  0  0  0  0  0
  -21.1790   -3.8790   26.0150 F   0  0  0  0  0  0  0  0  0  0  0  0
  -22.7450  -13.6180   21.0550 C   0  0  0  0  0  0  0  0  0  0  0  0
  -22.0010  -12.9320   21.9160 N   0  0  0  0  0  0  0  0  0  0  0  0
  -22.3200  -14.6400   20.5190 O   0  0  0  0  0  0  0  0  0  0  0  0
  -22.3600  -12.1050   22.3710 H   0  0  0  0  0  0  0  0  0  0  0  0
  -21.0600  -13.2370   22.1240 H   0  0  0  0  0  0  0  0  0  0  0  0
  -25.3970  -15.2650   20.2620 N   0  0  0  0  0  0  0  0  0  0  0  0
  -24.6250  -15.9190   20.3140 H   0  0  0  0  0  0  0  0  0  0  0  0
  -26.2500  -15.6860   19.9150 H   0  0  0  0  0  0  0  0  0  0  0  0
  -27.8570  -20.3070   19.5200 C   0  0  0  0  0  2  0  0  0  0  0  0
  -27.9900  -20.4350   16.9610 C   0  0  0  0  0  1  0  0  0  0  0  0
  -25.8270  -20.9450   18.1270 C   0  0  0  0  0  1  0  0  0  0  0  0
  -27.3580  -21.0170   18.2360 C   0  0  0  0  0  3  0  0  0  0  0  0
  -29.8600  -21.9190   20.0020 C   0  0  0  0  0  3  0  0  0  0  0  0
  -29.0450  -22.8540   20.9460 C   0  0  0  0  0  3  0  0  0  0  0  0
  -29.3520  -24.3810   20.8200 C   0  0  0  0  0  2  0  0  0  0  0  0
  -28.1830  -25.2020   20.2150 C   0  0  0  0  0  2  0  0  0  0  0  0
  -28.3640  -26.6350   20.2430 O   0  0  0  0  0  0  0  0  0  0  0  0
  -24.5570  -31.8700   23.2290 C   0  0  0  0  0  0  0  0  0  0  0  0
  -27.2060  -27.3960   20.1830 C   0  0  0  0  0  0  0  0  0  0  0  0
  -23.3550  -30.4670   21.5850 C   0  0  0  0  0  3  0  0  0  0  0  0
  -24.8140  -28.9250   20.1680 C   0  0  0  0  0  0  0  0  0  0  0  0
  -25.8840  -30.8190   21.3960 C   0  0  0  0  0  2  0  0  0  0  0  0
  -25.9720  -29.4430   20.7610 C   0  0  0  0  0  0  0  0  0  0  0  0
  -27.1710  -28.6880   20.7620 C   0  0  0  0  0  3  0  0  0  0  0  0
  -26.0300  -26.9090   19.5640 C   0  0  0  0  0  3  0  0  0  0  0  0
  -24.8400  -27.6580   19.5600 C   0  0  0  0  0  3  0  0  0  0  0  0
  -23.5680  -29.7810   20.2100 C   0  0  0  0  0  2  0  0  0  0  0  0
  -24.6180  -31.0670   22.1290 N   0  0  0  0  0  0  0  0  0  0  0  0
  -23.4740  -32.1460   23.7630 O   0  0  0  0  0  0  0  0  0  0  0  0
  -22.6960  -29.4510   22.5460 C   0  0  0  0  0  0  0  0  0  0  0  0
  -21.3700  -29.2760   22.4160 N   0  0  0  0  0  0  0  0  0  0  0  0
  -23.3730  -28.8240   23.3640 O   0  0  0  0  0  0  0  0  0  0  0  0
  -20.8830  -29.8350   21.7300 H   0  0  0  0  0  0  0  0  0  0  0  0
  -17.9880  -28.1130   22.9180 C   0  0  0  0  0  0  0  0  0  0  0  0
  -20.5480  -28.3460   23.1880 C   0  0  0  0  0  3  0  0  0  0  0  0
  -20.6340  -26.9130   22.6120 C   0  0  0  0  0  2  0  0  0  0  0  0
  -19.5300  -26.6040   21.5960 C   0  0  0  0  0  2  0  0  0  0  0  0
  -18.1490  -26.7630   22.2400 C   0  0  0  0  0  2  0  0  0  0  0  0
  -19.1130  -28.8620   23.3510 C   0  0  0  0  0  0  0  0  0  0  0  0
  -18.9080  -30.1270   23.9440 C   0  0  0  0  0  3  0  0  0  0  0  0
  -17.6100  -30.6410   24.1120 C   0  0  0  0  0  3  0  0  0  0  0  0
  -16.4960  -29.8880   23.6980 C   0  0  0  0  0  3  0  0  0  0  0  0
  -16.6860  -28.6250   23.1080 C   0  0  0  0  0  3  0  0  0  0  0  0
  -25.8420  -32.5000   23.8540 C   0  0  0  0  0  3  0  0  0  0  0  0
  -26.3540  -31.7300   25.1320 C   0  0  1  0  0  0  0  0  0  0  0  0
  -25.2570  -31.4940   26.1960 C   0  0  0  0  0  1  0  0  0  0  0  0
  -26.9380  -30.3520   24.7430 C   0  0  0  0  0  1  0  0  0  0  0  0
  -27.5050  -32.5230   25.7960 C   0  0  0  0  0  1  0  0  0  0  0  0
  -25.5360  -33.8990   24.1760 N   0  0  0  0  0  0  0  0  0  0  0  0
  -25.8830  -34.9480   23.4160 C   0  0  0  0  0  0  0  0  0  0  0  0
  -26.5640  -34.8360   22.3930 O   0  0  0  0  0  0  0  0  0  0  0  0
  -24.9290  -34.0590   24.9650 H   0  0  0  0  0  0  0  0  0  0  0  0
  -24.1740  -36.7520   23.0290 C   0  0  0  0  0  1  0  0  0  0  0  0
  -25.3960  -36.3390   23.8640 C   0  0  0  0  0  3  0  0  0  0  0  0
  -27.5210  -37.2100   24.7350 C   0  0  0  0  0  1  0  0  0  0  0  0
  -26.4380  -37.3840   23.7710 N   0  0  0  0  0  0  0  0  0  0  0  0
  -26.0340  -38.3060   23.9110 H   0  0  0  0  0  0  0  0  0  0  0  0
  1 44  1  0
  1 48  1  0
  1  2  1  0
  2  3  1  0
  2  4  1  0
  5  2  1  0
  5  6  2  0
  6  7  1  0
  8  7  1  0
  9 14  1  0
 10 11  1  0
 10  9  1  0
 12 11  1  0
 12 19  1  0
 12 13  1  0
 14  8  1  0
 14 13  1  0
 15  8  2  0
 16 17  2  0
 17 36  1  0
 18 17  1  0
 18 21  1  0
 19 16  1  0
 19 20  1  0
 20 18  2  0
 21 22  1  0
 22 23  2  0
 24 27  1  0
 24 23  1  0
 25 24  2  0
 26 25  1  0
 26 21  2  0
 27 28  1  0
 28 29  1  0
 29 30  2  0
 31 30  1  0
 31 35  1  0
 32 31  2  0
 33 28  2  0
 33 32  1  0
 34 33  1  0
 36 37  1  0
 37 40  1  0
 37 39  1  0
 38 36  2  0
 41 42  1  0
 41 16  1  0
 43 41  1  0
 45 47  1  0
 46 47  1  0
 47 44  1  0
 48 49  2  0
 50 49  1  0
 51 52  1  0
 51 50  1  0
 53 64  2  0
 54 52  1  0
 54 59  1  0
 55 63  1  0
 55 65  1  0
 56 62  1  0
 56 58  1  0
 57 63  1  0
 58 59  2  0
 58 57  1  0
 60 54  2  0
 61 60  1  0
 61 56  2  0
 62 55  1  0
 63 53  1  0
 65 67  2  0
 66 65  1  0
 68 66  1  0
 69 78  2  0
 69 74  1  0
 70 66  1  0
 70 74  1  0
 71 70  1  0
 72 73  1  0
 72 71  1  0
 73 69  1  0
 74 75  2  0
 75 76  1  0
 77 76  2  0
 78 77  1  0
 79 53  1  0
 79 84  1  0
 79 80  1  0
 80 83  1  1
 80 81  1  0
 82 80  1  0
 84 87  1  0
 85 89  1  0
 85 84  1  0
 86 85  2  0
 89 88  1  0
 91 89  1  0
 91 92  1  0
 91 90  1  0
M  ISO  4   7 100   8 100  51 101  52 101
M  END
>  <TORSDO>  (54) 
F 26

>  <SCORE>  (54) 
-12.045

>  <name>  (54) 
53

>  <ligand_id>  (54) 
53

>  <original_smiles>  (54) 
[H]c1c([H])c([H])c2c(c1[H])C([H])([H])C([H])([H])C([H])([H])C2([H])N([H])C(=O)C1([H])N(C(=O)C([H])(N([H])C(=O)C([H])(N([H])C([H])([H])[H])C([H])([H])[H])C(C([H])([H])[H])(C([H])([H])[H])C([H])([H])[H])C([H])([H])c2c([H])c(OC([H])([H])C([H])([H])C([H])([H])C([H])([H])C([H])(C([H])([H])C([H])(C([H])([H])[H])C([H])([H])[H])[N+]([H])([H])C([H])([H])C([H])([H])C([H])([H])C(=O)N3C([H])([H])C([H])([H])C([H])([H])C([H])(n4nc(-c5c([H])c([H])c(Oc6c([H])c([H])c(F)c([H])c6F)c([H])c5[H])c(C(=O)N([H])[H])c4N([H])[H])C3([H])[H])c([H])c([H])c2C1([H])[H]

>  <smiles>  (54) 
[H]c1c([H])c([H])c2c(c1[H])C([H])([H])C([H])([H])C([H])([H])C2([H])N([H])C(=O)C1([H])N(C(=O)C([H])(N([H])C(=O)C([H])(N([H])C([H])([H])[H])C([H])([H])[H])C(C([H])([H])[H])(C([H])([H])[H])C([H])([H])[H])C([H])([H])c2c([H])c(OC([H])([H])C([H])([H])C([H])([H])C([H])([H])C([H])(C([H])([H])C([H])(C([H])([H])[H])C([H])([H])[H])[N+]([H])([H])C([H])([H])C([H])([H])C([H])([H])C(=O)N3C([H])([H])C([H])([H])C([H])([H])C([H])(n4nc(-c5c([H])c([H])c(Oc6c([H])c([H])c(F)c([H])c6F)c([H])c5[H])c(C(=O)N([H])[H])c4N([H])[H])C3([H])[H])c([H])c([H])c2C1([H])[H]

$$$$
54:0:0
     RDKit          3D

 95103  0  0  1  0  0  0  0  0999 V2000
  -29.9690  -23.4600   19.3190 C   0  0  0  0  0  2  0  0  0  0  0  0
  -29.8930  -24.9740   19.6030 C   0  0  0  0  0  2  0  0  0  0  0  0
  -28.7190  -23.3130   21.5300 C   0  0  0  0  0  2  0  0  0  0  0  0
  -28.9910  -22.6150   20.1830 C   0  0  0  0  0  3  0  0  0  0  0  0
  -28.0390  -24.6930   21.3290 C   0  0  0  0  0  3  0  0  0  0  0  0
  -28.4730  -25.3880   20.0010 C   0  0  0  0  0  3  0  0  0  0  0  0
  -28.2570  -25.5630   22.5100 N   0  0  0  0  0  4  0  0  0  0  0  0
  -29.2340  -25.7650   22.6490 H   0  0  0  0  0  0  0  0  0  0  0  0
  -27.8940  -25.1450   23.3510 H   0  0  0  0  0  0  0  0  0  0  0  0
  -27.7860  -26.4430   22.3730 H   0  0  0  0  0  0  0  0  0  0  0  0
  -29.4900  -21.2380   20.3750 N   0  0  0  0  0  4  0  0  0  0  0  0
  -28.9320  -20.7850   21.0820 H   0  0  0  0  0  0  0  0  0  0  0  0
  -30.4370  -21.2770   20.7150 H   0  0  0  0  0  0  0  0  0  0  0  0
  -29.4450  -20.4050   19.1570 C   0  0  0  0  0  2  0  0  0  0  0  0
  -30.2980  -19.1450   19.3050 C   0  0  0  0  0  2  0  0  0  0  0  0
  -29.7240  -18.1090   20.2850 C   0  0  0  0  0  2  0  0  0  0  0  0
  -30.5920  -16.8550   20.2530 C   0  0  0  0  0  2  0  0  0  0  0  0
  -30.0530  -15.6500   21.0500 C   0  0  0  0  0  2  0  0  0  0  0  0
  -30.7210  -14.3700   20.5290 C   0  0  0  0  0  0  0  0  0  0  0  0
  -30.3420  -12.2520   19.3530 C   0  0  0  0  0  2  0  0  0  0  0  0
  -29.4180  -12.5280   18.1500 C   0  0  0  0  0  2  0  0  0  0  0  0
  -27.9390  -12.4210   18.5700 C   0  0  0  0  0  2  0  0  0  0  0  0
  -27.6190  -13.2450   19.8460 C   0  0  0  0  0  3  0  0  0  0  0  0
  -28.6660  -12.9880   20.9540 C   0  0  0  0  0  2  0  0  0  0  0  0
  -30.0030  -13.2280   20.3960 N   0  0  0  0  0  0  0  0  0  0  0  0
  -31.8690  -14.4780   20.0880 O   0  0  0  0  0  0  0  0  0  0  0  0
  -25.2230  -13.8840   20.5390 C   0  0  0  0  0  0  0  0  0  0  0  0
  -24.1450  -13.1240   20.9080 C   0  0  0  0  0  0  0  0  0  0  0  0
  -24.5930  -11.7680   20.8890 C   0  0  0  0  0  0  0  0  0  0  0  0
  -26.2600  -12.9900   20.3190 N   0  0  0  0  0  0  0  0  0  0  0  0
  -25.8840  -11.7140   20.5860 N   0  0  0  0  0  0  0  0  0  0  0  0
  -23.8550  -10.5130   21.0830 C   0  0  0  0  0  0  0  0  0  0  0  0
  -24.2920   -9.5320   22.0000 C   0  0  0  0  0  3  0  0  0  0  0  0
  -23.5540   -8.3430   22.1810 C   0  0  0  0  0  3  0  0  0  0  0  0
  -22.3660   -8.1260   21.4450 C   0  0  0  0  0  0  0  0  0  0  0  0
  -21.9490   -9.0950   20.5150 C   0  0  0  0  0  3  0  0  0  0  0  0
  -22.6870  -10.2760   20.3320 C   0  0  0  0  0  3  0  0  0  0  0  0
  -21.5990   -6.9900   21.5370 O   0  0  0  0  0  0  0  0  0  0  0  0
  -21.5790   -6.2240   22.6740 C   0  0  0  0  0  0  0  0  0  0  0  0
  -21.2270   -6.7650   23.9310 C   0  0  0  0  0  3  0  0  0  0  0  0
  -21.1530   -5.9270   25.0620 C   0  0  0  0  0  3  0  0  0  0  0  0
  -21.4210   -4.5520   24.9390 C   0  0  0  0  0  0  0  0  0  0  0  0
  -21.7680   -4.0100   23.6880 C   0  0  0  0  0  3  0  0  0  0  0  0
  -21.8440   -4.8450   22.5590 C   0  0  0  0  0  0  0  0  0  0  0  0
  -22.1580   -4.3160   21.3520 F   0  0  0  0  0  0  0  0  0  0  0  0
  -21.3430   -3.7450   26.0230 F   0  0  0  0  0  0  0  0  0  0  0  0
  -22.7510  -13.6160   21.1700 C   0  0  0  0  0  0  0  0  0  0  0  0
  -22.0130  -12.9330   22.0380 N   0  0  0  0  0  0  0  0  0  0  0  0
  -22.3240  -14.6410   20.6410 O   0  0  0  0  0  0  0  0  0  0  0  0
  -22.3700  -12.1010   22.4860 H   0  0  0  0  0  0  0  0  0  0  0  0
  -21.0770  -13.2470   22.2580 H   0  0  0  0  0  0  0  0  0  0  0  0
  -25.4020  -15.2510   20.3540 N   0  0  0  0  0  0  0  0  0  0  0  0
  -24.6440  -15.9180   20.4550 H   0  0  0  0  0  0  0  0  0  0  0  0
  -26.2650  -15.6780   20.0390 H   0  0  0  0  0  0  0  0  0  0  0  0
  -28.4320  -26.8060   20.1210 O   0  0  0  0  0  0  0  0  0  0  0  0
  -24.5970  -31.8780   23.2290 C   0  0  0  0  0  0  0  0  0  0  0  0
  -27.2170  -27.4550   20.1250 C   0  0  0  0  0  0  0  0  0  0  0  0
  -23.3720  -30.4740   21.6000 C   0  0  0  0  0  3  0  0  0  0  0  0
  -24.8100  -28.9310   20.1730 C   0  0  0  0  0  0  0  0  0  0  0  0
  -25.8930  -30.8380   21.3760 C   0  0  0  0  0  2  0  0  0  0  0  0
  -25.9710  -29.4660   20.7420 C   0  0  0  0  0  0  0  0  0  0  0  0
  -27.1740  -28.7350   20.7140 C   0  0  0  0  0  3  0  0  0  0  0  0
  -26.0320  -26.9200   19.5620 C   0  0  0  0  0  3  0  0  0  0  0  0
  -24.8340  -27.6570   19.5850 C   0  0  0  0  0  3  0  0  0  0  0  0
  -23.5670  -29.7850   20.2230 C   0  0  0  0  0  2  0  0  0  0  0  0
  -24.6380  -31.0780   22.1270 N   0  0  0  0  0  0  0  0  0  0  0  0
  -23.5210  -32.1530   23.7790 O   0  0  0  0  0  0  0  0  0  0  0  0
  -22.7330  -29.4540   22.5690 C   0  0  0  0  0  0  0  0  0  0  0  0
  -21.4070  -29.2740   22.4540 N   0  0  0  0  0  0  0  0  0  0  0  0
  -23.4260  -28.8270   23.3760 O   0  0  0  0  0  0  0  0  0  0  0  0
  -20.9140  -29.8340   21.7730 H   0  0  0  0  0  0  0  0  0  0  0  0
  -18.0360  -28.0850   22.9710 C   0  0  0  0  0  0  0  0  0  0  0  0
  -20.5950  -28.3410   23.2320 C   0  0  0  0  0  3  0  0  0  0  0  0
  -20.6950  -26.9070   22.6620 C   0  0  0  0  0  2  0  0  0  0  0  0
  -19.5870  -26.5810   21.6540 C   0  0  0  0  0  2  0  0  0  0  0  0
  -18.2080  -26.7320   22.3020 C   0  0  0  0  0  2  0  0  0  0  0  0
  -19.1570  -28.8480   23.3930 C   0  0  0  0  0  0  0  0  0  0  0  0
  -18.9430  -30.1150   23.9760 C   0  0  0  0  0  3  0  0  0  0  0  0
  -17.6400  -30.6200   24.1440 C   0  0  0  0  0  3  0  0  0  0  0  0
  -16.5330  -29.8530   23.7400 C   0  0  0  0  0  3  0  0  0  0  0  0
  -16.7320  -28.5890   23.1580 C   0  0  0  0  0  3  0  0  0  0  0  0
  -25.8910  -32.5050   23.8360 C   0  0  0  0  0  3  0  0  0  0  0  0
  -25.5880  -33.9020   24.1770 N   0  0  0  0  0  0  0  0  0  0  0  0
  -25.9120  -34.9560   23.4170 C   0  0  0  0  0  0  0  0  0  0  0  0
  -26.5710  -34.8560   22.3780 O   0  0  0  0  0  0  0  0  0  0  0  0
  -25.0010  -34.0560   24.9850 H   0  0  0  0  0  0  0  0  0  0  0  0
  -24.1740  -36.7450   23.0900 C   0  0  0  0  0  1  0  0  0  0  0  0
  -25.4280  -36.3420   23.8840 C   0  0  0  0  0  3  0  0  0  0  0  0
  -27.5730  -37.2250   24.6860 C   0  0  0  0  0  1  0  0  0  0  0  0
  -26.4570  -37.3970   23.7610 N   0  0  0  0  0  0  0  0  0  0  0  0
  -26.0510  -38.3150   23.9250 H   0  0  0  0  0  0  0  0  0  0  0  0
  -26.4300  -31.7260   25.1000 C   0  0  1  0  0  0  0  0  0  0  0  0
  -25.3540  -31.4800   26.1820 C   0  0  0  0  0  1  0  0  0  0  0  0
  -27.0090  -30.3530   24.6870 C   0  0  0  0  0  1  0  0  0  0  0  0
  -27.5900  -32.5170   25.7500 C   0  0  0  0  0  1  0  0  0  0  0  0
  1  2  1  0
  1  4  1  0
  2  6  1  0
  4 11  1  0
  4  3  1  0
  5  3  1  0
  5  7  1  0
  6 55  1  0
  6  5  1  0
  7  8  1  0
  7  9  1  0
 10  7  1  0
 11 13  1  0
 11 12  1  0
 14 15  1  0
 14 11  1  0
 15 16  1  0
 17 16  1  0
 17 18  1  0
 19 18  1  0
 20 25  1  0
 21 22  1  0
 21 20  1  0
 23 22  1  0
 23 30  1  0
 23 24  1  0
 25 19  1  0
 25 24  1  0
 26 19  2  0
 27 28  2  0
 28 47  1  0
 29 28  1  0
 29 32  1  0
 30 27  1  0
 30 31  1  0
 31 29  2  0
 32 33  1  0
 33 34  2  0
 35 38  1  0
 35 34  1  0
 36 35  2  0
 37 36  1  0
 37 32  2  0
 38 39  1  0
 39 40  1  0
 40 41  2  0
 42 41  1  0
 42 46  1  0
 43 42  2  0
 44 39  2  0
 44 43  1  0
 45 44  1  0
 47 48  1  0
 48 51  1  0
 48 50  1  0
 49 47  2  0
 52 53  1  0
 52 27  1  0
 54 52  1  0
 55 57  1  0
 56 67  2  0
 57 62  1  0
 58 66  1  0
 58 68  1  0
 59 65  1  0
 59 61  1  0
 60 66  1  0
 61 60  1  0
 62 61  2  0
 63 64  1  0
 63 57  2  0
 64 59  2  0
 65 58  1  0
 66 56  1  0
 68 70  2  0
 69 68  1  0
 71 69  1  0
 72 81  2  0
 72 77  1  0
 73 69  1  0
 73 77  1  0
 74 73  1  0
 75 76  1  0
 75 74  1  0
 76 72  1  0
 77 78  2  0
 78 79  1  0
 80 79  2  0
 81 80  1  0
 82 56  1  0
 82 83  1  0
 82 92  1  0
 83 86  1  0
 84 88  1  0
 84 83  1  0
 85 84  2  0
 88 87  1  0
 90 88  1  0
 90 91  1  0
 90 89  1  0
 92 95  1  1
 92 93  1  0
 94 92  1  0
M  ISO  4   6 101  18 100  19 100  55 101
M  END
>  <TORSDO>  (55) 
F 23

>  <SCORE>  (55) 
-12.946

>  <name>  (55) 
54

>  <ligand_id>  (55) 
54

>  <original_smiles>  (55) 
[H]c1c([H])c([H])c2c(c1[H])C([H])([H])C([H])([H])C([H])([H])C2([H])N([H])C(=O)C1([H])N(C(=O)C([H])(N([H])C(=O)C([H])(N([H])C([H])([H])[H])C([H])([H])[H])C(C([H])([H])[H])(C([H])([H])[H])C([H])([H])[H])C([H])([H])c2c([H])c(OC3([H])C([H])([H])C([H])([H])C([H])([N+]([H])([H])C([H])([H])C([H])([H])C([H])([H])C([H])([H])C([H])([H])C(=O)N4C([H])([H])C([H])([H])C([H])([H])C([H])(n5nc(-c6c([H])c([H])c(Oc7c([H])c([H])c(F)c([H])c7F)c([H])c6[H])c(C(=O)N([H])[H])c5N([H])[H])C4([H])[H])C([H])([H])C3([H])[N+]([H])([H])[H])c([H])c([H])c2C1([H])[H]

>  <smiles>  (55) 
[H]c1c([H])c([H])c2c(c1[H])C([H])([H])C([H])([H])C([H])([H])C2([H])N([H])C(=O)C1([H])N(C(=O)C([H])(N([H])C(=O)C([H])(N([H])C([H])([H])[H])C([H])([H])[H])C(C([H])([H])[H])(C([H])([H])[H])C([H])([H])[H])C([H])([H])c2c([H])c(OC3([H])C([H])([H])C([H])([H])C([H])([N+]([H])([H])C([H])([H])C([H])([H])C([H])([H])C([H])([H])C([H])([H])C(=O)N4C([H])([H])C([H])([H])C([H])([H])C([H])(n5nc(-c6c([H])c([H])c(Oc7c([H])c([H])c(F)c([H])c7F)c([H])c6[H])c(C(=O)N([H])[H])c5N([H])[H])C4([H])[H])C([H])([H])C3([H])[N+]([H])([H])[H])c([H])c([H])c2C1([H])[H]

$$$$
55:0:0
     RDKit          3D

100108  0  0  1  0  0  0  0  0999 V2000
  -30.2010  -20.6750   16.5880 C   0  0  0  0  0  3  0  0  0  0  0  0
  -30.6130  -21.6950   17.4610 C   0  0  0  0  0  3  0  0  0  0  0  0
  -29.7640  -19.2430   18.4980 C   0  0  0  0  0  3  0  0  0  0  0  0
  -29.6790  -19.4810   17.1100 C   0  0  0  0  0  0  0  0  0  0  0  0
  -30.5340  -21.5390   18.8690 C   0  0  0  0  0  0  0  0  0  0  0  0
  -30.2240  -20.2400   19.3960 C   0  0  0  0  0  0  0  0  0  0  0  0
  -30.7240  -22.7790   19.7230 C   0  0  0  0  0  0  0  0  0  0  0  0
  -30.1490  -23.8870   19.2250 N   0  0  0  0  0  0  0  0  0  0  0  0
  -31.2950  -22.7620   20.8140 O   0  0  0  0  0  0  0  0  0  0  0  0
  -29.7100  -23.7850   18.3200 H   0  0  0  0  0  0  0  0  0  0  0  0
  -30.0490  -25.2050   19.8570 C   0  0  0  0  0  2  0  0  0  0  0  0
  -28.6250  -25.7750   19.7250 C   0  0  0  0  0  2  0  0  0  0  0  0
  -28.5530  -27.0970   20.2710 O   0  0  0  0  0  0  0  0  0  0  0  0
  -24.4470  -32.0320   23.3490 C   0  0  0  0  0  0  0  0  0  0  0  0
  -27.3390  -27.7550   20.2360 C   0  0  0  0  0  0  0  0  0  0  0  0
  -23.3380  -30.6220   21.6470 C   0  0  0  0  0  3  0  0  0  0  0  0
  -24.8840  -29.1710   20.2310 C   0  0  0  0  0  0  0  0  0  0  0  0
  -25.8580  -31.0710   21.5320 C   0  0  0  0  0  2  0  0  0  0  0  0
  -26.0070  -29.7200   20.8630 C   0  0  0  0  0  0  0  0  0  0  0  0
  -27.2330  -29.0160   20.8690 C   0  0  0  0  0  3  0  0  0  0  0  0
  -26.1930  -27.2240   19.5960 C   0  0  0  0  0  3  0  0  0  0  0  0
  -24.9710  -27.9200   19.6020 C   0  0  0  0  0  3  0  0  0  0  0  0
  -23.6100  -29.9830   20.2590 C   0  0  0  0  0  2  0  0  0  0  0  0
  -24.5630  -31.2570   22.2340 N   0  0  0  0  0  0  0  0  0  0  0  0
  -23.3410  -32.2540   23.8630 O   0  0  0  0  0  0  0  0  0  0  0  0
  -22.7020  -29.5550   22.5660 C   0  0  0  0  0  0  0  0  0  0  0  0
  -21.4020  -29.2910   22.3650 N   0  0  0  0  0  0  0  0  0  0  0  0
  -23.3780  -28.9720   23.4170 O   0  0  0  0  0  0  0  0  0  0  0  0
  -20.9170  -29.8180   21.6520 H   0  0  0  0  0  0  0  0  0  0  0  0
  -18.1040  -27.8370   22.6250 C   0  0  0  0  0  0  0  0  0  0  0  0
  -20.6050  -28.2980   23.0860 C   0  0  0  0  0  3  0  0  0  0  0  0
  -20.8620  -26.8740   22.5440 C   0  0  0  0  0  2  0  0  0  0  0  0
  -19.8720  -26.4530   21.4550 C   0  0  0  0  0  2  0  0  0  0  0  0
  -18.4360  -26.4970   21.9890 C   0  0  0  0  0  2  0  0  0  0  0  0
  -19.1240  -28.6890   23.1250 C   0  0  0  0  0  0  0  0  0  0  0  0
  -18.7630  -29.9380   23.6760 C   0  0  0  0  0  3  0  0  0  0  0  0
  -17.4150  -30.3390   23.7310 C   0  0  0  0  0  3  0  0  0  0  0  0
  -16.4080  -29.4840   23.2490 C   0  0  0  0  0  3  0  0  0  0  0  0
  -16.7530  -28.2350   22.7030 C   0  0  0  0  0  3  0  0  0  0  0  0
  -25.6940  -32.6960   24.0150 C   0  0  0  0  0  3  0  0  0  0  0  0
  -26.1250  -31.9990   25.3630 C   0  0  1  0  0  0  0  0  0  0  0  0
  -24.9620  -31.8080   26.3640 C   0  0  0  0  0  1  0  0  0  0  0  0
  -26.7450  -30.6090   25.0890 C   0  0  0  0  0  1  0  0  0  0  0  0
  -27.2230  -32.8370   26.0590 C   0  0  0  0  0  1  0  0  0  0  0  0
  -25.3710  -34.1110   24.2430 N   0  0  0  0  0  0  0  0  0  0  0  0
  -25.7460  -35.1150   23.4400 C   0  0  0  0  0  0  0  0  0  0  0  0
  -26.4710  -34.9500   22.4560 O   0  0  0  0  0  0  0  0  0  0  0  0
  -24.7370  -34.3160   25.0010 H   0  0  0  0  0  0  0  0  0  0  0  0
  -24.0350  -36.8730   22.8860 C   0  0  0  0  0  1  0  0  0  0  0  0
  -25.2350  -36.5270   23.7830 C   0  0  0  0  0  3  0  0  0  0  0  0
  -27.3270  -37.4670   24.6590 C   0  0  0  0  0  1  0  0  0  0  0  0
  -26.2710  -37.5750   23.6550 N   0  0  0  0  0  0  0  0  0  0  0  0
  -25.8590  -38.5010   23.7250 H   0  0  0  0  0  0  0  0  0  0  0  0
  -29.0600  -18.4870   16.1980 C   0  0  0  0  0  0  0  0  0  0  0  0
  -29.4390  -18.2980   15.0380 O   0  0  0  0  0  0  0  0  0  0  0  0
  -27.8190  -17.7560   16.7250 C   0  0  0  0  0  2  0  0  0  0  0  0
  -28.1250  -16.3310   17.2140 C   0  0  0  0  0  2  0  0  0  0  0  0
  -27.2540  -14.3030   18.4840 C   0  0  0  0  0  1  0  0  0  0  0  0
  -27.0490  -15.7880   18.1670 C   0  0  0  0  0  2  0  0  0  0  0  0
  -30.3020  -19.9100   20.8990 C   0  0  0  0  0  2  0  0  0  0  0  0
  -30.1600  -18.4230   21.3210 C   0  0  0  0  0  2  0  0  0  0  0  0
  -31.3810  -17.5220   21.0280 C   0  0  0  0  0  2  0  0  0  0  0  0
  -31.8410  -15.0720   20.9710 C   0  0  0  0  0  0  0  0  0  0  0  0
  -31.5860  -12.8820   19.8890 C   0  0  0  0  0  2  0  0  0  0  0  0
  -30.6580  -13.0510   18.6650 C   0  0  0  0  0  2  0  0  0  0  0  0
  -29.1820  -12.9000   19.0820 C   0  0  0  0  0  2  0  0  0  0  0  0
  -28.8110  -13.7860   20.3020 C   0  0  0  0  0  3  0  0  0  0  0  0
  -29.8490  -13.6030   21.4330 C   0  0  0  0  0  2  0  0  0  0  0  0
  -31.1860  -13.8870   20.8840 N   0  0  0  0  0  0  0  0  0  0  0  0
  -32.9950  -15.2480   20.5690 O   0  0  0  0  0  0  0  0  0  0  0  0
  -31.0680  -16.1150   21.3050 N   0  0  0  0  0  0  0  0  0  0  0  0
  -30.1330  -15.8970   21.6080 H   0  0  0  0  0  0  0  0  0  0  0  0
  -26.4410  -14.4100   21.1010 C   0  0  0  0  0  0  0  0  0  0  0  0
  -25.3370  -13.6480   21.3710 C   0  0  0  0  0  0  0  0  0  0  0  0
  -25.7360  -12.2920   21.1650 C   0  0  0  0  0  0  0  0  0  0  0  0
  -27.4490  -13.5180   20.7580 N   0  0  0  0  0  0  0  0  0  0  0  0
  -27.0240  -12.2320   20.8510 N   0  0  0  0  0  0  0  0  0  0  0  0
  -24.9560  -11.0490   21.1950 C   0  0  0  0  0  0  0  0  0  0  0  0
  -25.2880   -9.9850   22.0640 C   0  0  0  0  0  3  0  0  0  0  0  0
  -24.5080   -8.8090   22.0860 C   0  0  0  0  0  3  0  0  0  0  0  0
  -23.3820   -8.6880   21.2390 C   0  0  0  0  0  0  0  0  0  0  0  0
  -23.0700   -9.7400   20.3570 C   0  0  0  0  0  3  0  0  0  0  0  0
  -23.8500  -10.9080   20.3330 C   0  0  0  0  0  3  0  0  0  0  0  0
  -22.5830   -7.5720   21.1730 O   0  0  0  0  0  0  0  0  0  0  0  0
  -22.2920   -6.8290   22.2870 C   0  0  0  0  0  0  0  0  0  0  0  0
  -21.6890   -7.4030   23.4290 C   0  0  0  0  0  3  0  0  0  0  0  0
  -21.3430   -6.5920   24.5270 C   0  0  0  0  0  3  0  0  0  0  0  0
  -21.5890   -5.2050   24.4830 C   0  0  0  0  0  0  0  0  0  0  0  0
  -22.1860   -4.6310   23.3460 C   0  0  0  0  0  3  0  0  0  0  0  0
  -22.5320   -5.4400   22.2500 C   0  0  0  0  0  0  0  0  0  0  0  0
  -23.0850   -4.8790   21.1490 F   0  0  0  0  0  0  0  0  0  0  0  0
  -21.2520   -4.4240   25.5350 F   0  0  0  0  0  0  0  0  0  0  0  0
  -23.9630  -14.1480   21.7110 C   0  0  0  0  0  0  0  0  0  0  0  0
  -23.2190  -13.3930   22.5110 N   0  0  0  0  0  0  0  0  0  0  0  0
  -23.5600  -15.2380   21.3070 O   0  0  0  0  0  0  0  0  0  0  0  0
  -23.5650  -12.5120   22.8600 H   0  0  0  0  0  0  0  0  0  0  0  0
  -22.2940  -13.6990   22.7810 H   0  0  0  0  0  0  0  0  0  0  0  0
  -26.6650  -15.7840   21.1020 N   0  0  0  0  0  0  0  0  0  0  0  0
  -25.9210  -16.4430   21.2930 H   0  0  0  0  0  0  0  0  0  0  0  0
  -27.5310  -16.2260   20.8290 H   0  0  0  0  0  0  0  0  0  0  0  0
  1  4  2  0
  1  2  1  0
  2  5  2  0
  3  6  2  0
  4  3  1  0
  5  6  1  0
  5  7  1  0
  6 60  1  0
  7  9  2  0
  8  7  1  0
  8 11  1  0
 10  8  1  0
 12 11  1  0
 12 13  1  0
 14 25  2  0
 15 13  1  0
 15 20  1  0
 16 24  1  0
 16 26  1  0
 17 23  1  0
 17 19  1  0
 18 24  1  0
 19 20  2  0
 19 18  1  0
 21 22  1  0
 21 15  2  0
 22 17  2  0
 23 16  1  0
 24 14  1  0
 26 28  2  0
 27 26  1  0
 29 27  1  0
 30 39  2  0
 30 35  1  0
 31 27  1  0
 31 35  1  0
 32 31  1  0
 33 34  1  0
 33 32  1  0
 34 30  1  0
 35 36  2  0
 36 37  1  0
 38 37  2  0
 39 38  1  0
 40 14  1  0
 40 45  1  0
 40 41  1  0
 41 44  1  1
 41 42  1  0
 43 41  1  0
 45 48  1  0
 46 50  1  0
 46 45  1  0
 47 46  2  0
 50 49  1  0
 52 53  1  0
 52 50  1  0
 52 51  1  0
 54 56  1  0
 54  4  1  0
 55 54  2  0
 56 57  1  0
 57 59  1  0
 59 58  1  0
 60 61  1  0
 62 71  1  0
 62 61  1  0
 63 71  1  0
 64 69  1  0
 65 66  1  0
 65 64  1  0
 67 66  1  0
 67 76  1  0
 67 68  1  0
 69 63  1  0
 69 68  1  0
 70 63  2  0
 71 72  1  0
 73 98  1  0
 73 74  2  0
 74 93  1  0
 75 78  1  0
 75 74  1  0
 76 77  1  0
 76 73  1  0
 77 75  2  0
 78 79  1  0
 79 80  2  0
 81 80  1  0
 82 81  2  0
 83 82  1  0
 83 78  2  0
 84 81  1  0
 84 85  1  0
 85 86  1  0
 86 87  2  0
 88 87  1  0
 88 92  1  0
 89 88  2  0
 90 85  2  0
 90 89  1  0
 91 90  1  0
 93 94  1  0
 94 97  1  0
 94 96  1  0
 95 93  2  0
 98 99  1  0
100 98  1  0
M  ISO  4  12 101  13 101  63 100  71 100
M  END
>  <TORSDO>  (56) 
F 26

>  <SCORE>  (56) 
-2.692

>  <name>  (56) 
55

>  <ligand_id>  (56) 
55

>  <original_smiles>  (56) 
[H]c1c([H])c([H])c2c(c1[H])C([H])([H])C([H])([H])C([H])([H])C2([H])N([H])C(=O)C1([H])N(C(=O)C([H])(N([H])C(=O)C([H])(N([H])C([H])([H])[H])C([H])([H])[H])C(C([H])([H])[H])(C([H])([H])[H])C([H])([H])[H])C([H])([H])c2c([H])c(OC([H])([H])C([H])([H])N([H])C(=O)c3c([H])c([H])c(C(=O)C([H])([H])C([H])([H])C([H])([H])C([H])([H])[H])c([H])c3C([H])([H])C([H])([H])C([H])([H])N([H])C(=O)N3C([H])([H])C([H])([H])C([H])([H])C([H])(n4nc(-c5c([H])c([H])c(Oc6c([H])c([H])c(F)c([H])c6F)c([H])c5[H])c(C(=O)N([H])[H])c4N([H])[H])C3([H])[H])c([H])c([H])c2C1([H])[H]

>  <smiles>  (56) 
[H]c1c([H])c([H])c2c(c1[H])C([H])([H])C([H])([H])C([H])([H])C2([H])N([H])C(=O)C1([H])N(C(=O)C([H])(N([H])C(=O)C([H])(N([H])C([H])([H])[H])C([H])([H])[H])C(C([H])([H])[H])(C([H])([H])[H])C([H])([H])[H])C([H])([H])c2c([H])c(OC([H])([H])C([H])([H])N([H])C(=O)c3c([H])c([H])c(C(=O)C([H])([H])C([H])([H])C([H])([H])C([H])([H])[H])c([H])c3C([H])([H])C([H])([H])C([H])([H])N([H])C(=O)N3C([H])([H])C([H])([H])C([H])([H])C([H])(n4nc(-c5c([H])c([H])c(Oc6c([H])c([H])c(F)c([H])c6F)c([H])c5[H])c(C(=O)N([H])[H])c4N([H])[H])C3([H])[H])c([H])c([H])c2C1([H])[H]

$$$$
56:0:0
     RDKit          3D

 92101  0  0  1  0  0  0  0  0999 V2000
  -28.6070  -19.3840   20.1060 C   0  0  0  0  0  3  0  0  0  0  0  0
  -28.1740  -20.7130   20.3450 C   0  0  0  0  0  3  0  0  0  0  0  0
  -30.3910  -21.3220   21.1800 C   0  0  0  0  0  3  0  0  0  0  0  0
  -29.9300  -19.0350   20.4420 C   0  0  0  0  0  0  0  0  0  0  0  0
  -30.8040  -19.9960   20.9410 C   0  0  0  0  0  0  0  0  0  0  0  0
  -29.0490  -21.6760   20.9110 C   0  0  0  0  0  0  0  0  0  0  0  0
  -32.1570  -19.4110   21.2350 C   0  0  0  0  0  2  0  0  0  0  0  0
  -31.9160  -17.8870   21.1450 C   0  0  0  0  0  2  0  0  0  0  0  0
  -30.5790  -17.6580   20.3860 C   0  0  0  0  0  3  0  0  0  0  0  0
  -28.5220  -23.0380   21.3590 C   0  0  0  0  0  2  0  0  0  0  0  0
  -28.8290  -24.2460   20.4430 C   0  0  0  0  0  2  0  0  0  0  0  0
  -28.4010  -25.5710   21.1180 C   0  0  0  0  0  2  0  0  0  0  0  0
  -28.5000  -26.7260   20.2690 O   0  0  0  0  0  0  0  0  0  0  0  0
  -24.6620  -31.9130   23.2840 C   0  0  0  0  0  0  0  0  0  0  0  0
  -27.3480  -27.4790   20.2420 C   0  0  0  0  0  0  0  0  0  0  0  0
  -23.4720  -30.4900   21.6500 C   0  0  0  0  0  3  0  0  0  0  0  0
  -24.9410  -28.9570   20.2340 C   0  0  0  0  0  0  0  0  0  0  0  0
  -25.9920  -30.8740   21.4510 C   0  0  0  0  0  2  0  0  0  0  0  0
  -26.0930  -29.5000   20.8200 C   0  0  0  0  0  0  0  0  0  0  0  0
  -27.3030  -28.7670   20.8200 C   0  0  0  0  0  3  0  0  0  0  0  0
  -26.1860  -26.9480   19.6470 C   0  0  0  0  0  3  0  0  0  0  0  0
  -24.9820  -27.6810   19.6430 C   0  0  0  0  0  3  0  0  0  0  0  0
  -23.6890  -29.8030   20.2740 C   0  0  0  0  0  2  0  0  0  0  0  0
  -24.7280  -31.1070   22.1870 N   0  0  0  0  0  0  0  0  0  0  0  0
  -23.5790  -32.1790   23.8210 O   0  0  0  0  0  0  0  0  0  0  0  0
  -22.8270  -29.4700   22.6160 C   0  0  0  0  0  0  0  0  0  0  0  0
  -21.5040  -29.2790   22.4880 N   0  0  0  0  0  0  0  0  0  0  0  0
  -23.5140  -28.8540   23.4340 O   0  0  0  0  0  0  0  0  0  0  0  0
  -21.0100  -29.8270   21.7980 H   0  0  0  0  0  0  0  0  0  0  0  0
  -18.1380  -28.0580   22.9810 C   0  0  0  0  0  0  0  0  0  0  0  0
  -20.6920  -28.3410   23.2640 C   0  0  0  0  0  3  0  0  0  0  0  0
  -20.8100  -26.9050   22.7010 C   0  0  0  0  0  2  0  0  0  0  0  0
  -19.7180  -26.5640   21.6850 C   0  0  0  0  0  2  0  0  0  0  0  0
  -18.3300  -26.7030   22.3200 C   0  0  0  0  0  2  0  0  0  0  0  0
  -19.2480  -28.8340   23.4110 C   0  0  0  0  0  0  0  0  0  0  0  0
  -19.0150  -30.1000   23.9880 C   0  0  0  0  0  3  0  0  0  0  0  0
  -17.7050  -30.5920   24.1420 C   0  0  0  0  0  3  0  0  0  0  0  0
  -16.6100  -29.8140   23.7290 C   0  0  0  0  0  3  0  0  0  0  0  0
  -16.8270  -28.5480   23.1550 C   0  0  0  0  0  3  0  0  0  0  0  0
  -25.9430  -32.5580   23.9020 C   0  0  0  0  0  3  0  0  0  0  0  0
  -26.4680  -31.7970   25.1810 C   0  0  1  0  0  0  0  0  0  0  0  0
  -25.3780  -31.5530   26.2510 C   0  0  0  0  0  1  0  0  0  0  0  0
  -27.0640  -30.4240   24.7920 C   0  0  0  0  0  1  0  0  0  0  0  0
  -27.6120  -32.6050   25.8390 C   0  0  0  0  0  1  0  0  0  0  0  0
  -25.6230  -33.9550   24.2230 N   0  0  0  0  0  0  0  0  0  0  0  0
  -25.9520  -35.0040   23.4560 C   0  0  0  0  0  0  0  0  0  0  0  0
  -26.6250  -34.8990   22.4280 O   0  0  0  0  0  0  0  0  0  0  0  0
  -25.0230  -34.1100   25.0200 H   0  0  0  0  0  0  0  0  0  0  0  0
  -24.2090  -36.7800   23.0830 C   0  0  0  0  0  1  0  0  0  0  0  0
  -25.4520  -36.3910   23.9020 C   0  0  0  0  0  3  0  0  0  0  0  0
  -27.5780  -37.2970   24.7300 C   0  0  0  0  0  1  0  0  0  0  0  0
  -26.4760  -37.4520   23.7840 N   0  0  0  0  0  0  0  0  0  0  0  0
  -26.0630  -38.3690   23.9270 H   0  0  0  0  0  0  0  0  0  0  0  0
  -29.6870  -16.5320   20.9760 C   0  0  0  0  0  2  0  0  0  0  0  0
  -30.7460  -14.4380   20.1420 C   0  0  0  0  0  0  0  0  0  0  0  0
  -30.3030  -12.4070   18.7980 C   0  0  0  0  0  2  0  0  0  0  0  0
  -29.2760  -12.6950   17.6850 C   0  0  0  0  0  2  0  0  0  0  0  0
  -27.8360  -12.5360   18.2120 C   0  0  0  0  0  2  0  0  0  0  0  0
  -27.6020  -13.2970   19.5410 C   0  0  0  0  0  3  0  0  0  0  0  0
  -28.7230  -12.9800   20.5540 C   0  0  0  0  0  2  0  0  0  0  0  0
  -30.0210  -13.3030   19.9310 N   0  0  0  0  0  0  0  0  0  0  0  0
  -31.7170  -14.7570   19.4480 O   0  0  0  0  0  0  0  0  0  0  0  0
  -30.8370  -14.9180   22.5110 C   0  0  0  0  0  1  0  0  0  0  0  0
  -30.3320  -15.2140   21.1670 N   0  0  0  0  0  0  0  0  0  0  0  0
  -25.2510  -13.8890   20.4110 C   0  0  0  0  0  0  0  0  0  0  0  0
  -24.2070  -13.1090   20.8300 C   0  0  0  0  0  0  0  0  0  0  0  0
  -24.6640  -11.7580   20.7380 C   0  0  0  0  0  0  0  0  0  0  0  0
  -26.2800  -13.0130   20.0950 N   0  0  0  0  0  0  0  0  0  0  0  0
  -25.9310  -11.7260   20.3460 N   0  0  0  0  0  0  0  0  0  0  0  0
  -23.9500  -10.4920   20.9470 C   0  0  0  0  0  0  0  0  0  0  0  0
  -24.4180   -9.5220   21.8610 C   0  0  0  0  0  3  0  0  0  0  0  0
  -23.7040   -8.3200   22.0560 C   0  0  0  0  0  3  0  0  0  0  0  0
  -22.5080   -8.0800   21.3390 C   0  0  0  0  0  0  0  0  0  0  0  0
  -22.0580   -9.0400   20.4150 C   0  0  0  0  0  3  0  0  0  0  0  0
  -22.7730  -10.2320   20.2170 C   0  0  0  0  0  3  0  0  0  0  0  0
  -21.7630   -6.9300   21.4450 O   0  0  0  0  0  0  0  0  0  0  0  0
  -21.7240   -6.2020   22.6070 C   0  0  0  0  0  0  0  0  0  0  0  0
  -21.3090   -6.7750   23.8300 C   0  0  0  0  0  3  0  0  0  0  0  0
  -21.2150   -5.9740   24.9860 C   0  0  0  0  0  3  0  0  0  0  0  0
  -21.5260   -4.6030   24.9210 C   0  0  0  0  0  0  0  0  0  0  0  0
  -21.9350   -4.0300   23.7040 C   0  0  0  0  0  3  0  0  0  0  0  0
  -22.0300   -4.8280   22.5500 C   0  0  0  0  0  0  0  0  0  0  0  0
  -22.4020   -4.2660   21.3750 F   0  0  0  0  0  0  0  0  0  0  0  0
  -21.4280   -3.8320   26.0290 F   0  0  0  0  0  0  0  0  0  0  0  0
  -22.8310  -13.5790   21.2050 C   0  0  0  0  0  0  0  0  0  0  0  0
  -22.1640  -12.8680   22.1080 N   0  0  0  0  0  0  0  0  0  0  0  0
  -22.3560  -14.6110   20.7320 O   0  0  0  0  0  0  0  0  0  0  0  0
  -22.5620  -12.0320   22.5120 H   0  0  0  0  0  0  0  0  0  0  0  0
  -21.2450  -13.1640   22.4020 H   0  0  0  0  0  0  0  0  0  0  0  0
  -25.4090  -15.2620   20.2550 N   0  0  0  0  0  0  0  0  0  0  0  0
  -24.6600  -15.9220   20.4330 H   0  0  0  0  0  0  0  0  0  0  0  0
  -26.2470  -15.7020   19.8980 H   0  0  0  0  0  0  0  0  0  0  0  0
  1  2  2  0
  1  4  1  0
  2  6  1  0
  4  5  2  0
  5  3  1  0
  5  7  1  0
  6  3  2  0
  6 10  1  0
  8  7  1  0
  9  4  1  0
  9 54  1  0
  9  8  1  0
 11 12  1  0
 11 10  1  0
 13 12  1  0
 14 25  2  0
 15 13  1  0
 15 20  1  0
 16 24  1  0
 16 26  1  0
 17 23  1  0
 17 19  1  0
 18 24  1  0
 19 20  2  0
 19 18  1  0
 21 15  2  0
 22 21  1  0
 22 17  2  0
 23 16  1  0
 24 14  1  0
 26 28  2  0
 27 26  1  0
 29 27  1  0
 30 39  2  0
 30 35  1  0
 31 27  1  0
 31 35  1  0
 32 31  1  0
 33 34  1  0
 33 32  1  0
 34 30  1  0
 35 36  2  0
 36 37  1  0
 38 37  2  0
 39 38  1  0
 40 14  1  0
 40 45  1  0
 40 41  1  0
 41 44  1  1
 41 42  1  0
 43 41  1  0
 45 48  1  0
 46 50  1  0
 46 45  1  0
 47 46  2  0
 50 49  1  0
 52 50  1  0
 52 53  1  0
 52 51  1  0
 54 64  1  0
 55 64  1  0
 56 61  1  0
 57 58  1  0
 57 56  1  0
 59 58  1  0
 59 68  1  0
 59 60  1  0
 61 55  1  0
 61 60  1  0
 62 55  2  0
 64 63  1  0
 65 66  2  0
 66 85  1  0
 67 66  1  0
 67 70  1  0
 68 69  1  0
 68 65  1  0
 69 67  2  0
 70 71  1  0
 71 72  2  0
 73 76  1  0
 73 72  1  0
 74 73  2  0
 75 74  1  0
 75 70  2  0
 76 77  1  0
 77 78  1  0
 78 79  2  0
 80 79  1  0
 80 84  1  0
 81 80  2  0
 82 77  2  0
 82 81  1  0
 83 82  1  0
 85 86  1  0
 86 89  1  0
 86 88  1  0
 87 85  2  0
 90 65  1  0
 90 91  1  0
 92 90  1  0
M  ISO  4  12 101  13 101  55 100  64 100
M  END
>  <TORSDO>  (57) 
F 20

>  <SCORE>  (57) 
-13.061

>  <name>  (57) 
56

>  <ligand_id>  (57) 
56

>  <original_smiles>  (57) 
[H]c1c([H])c([H])c2c(c1[H])C([H])([H])C([H])([H])C([H])([H])C2([H])N([H])C(=O)C1([H])N(C(=O)C([H])(N([H])C(=O)C([H])(N([H])C([H])([H])[H])C([H])([H])[H])C(C([H])([H])[H])(C([H])([H])[H])C([H])([H])[H])C([H])([H])c2c([H])c(OC([H])([H])C([H])([H])C([H])([H])c3c([H])c([H])c4c(c3[H])C([H])([H])C([H])([H])C4([H])C([H])([H])N(C(=O)N3C([H])([H])C([H])([H])C([H])([H])C([H])(n4nc(-c5c([H])c([H])c(Oc6c([H])c([H])c(F)c([H])c6F)c([H])c5[H])c(C(=O)N([H])[H])c4N([H])[H])C3([H])[H])C([H])([H])[H])c([H])c([H])c2C1([H])[H]

>  <smiles>  (57) 
[H]c1c([H])c([H])c2c(c1[H])C([H])([H])C([H])([H])C([H])([H])C2([H])N([H])C(=O)C1([H])N(C(=O)C([H])(N([H])C(=O)C([H])(N([H])C([H])([H])[H])C([H])([H])[H])C(C([H])([H])[H])(C([H])([H])[H])C([H])([H])[H])C([H])([H])c2c([H])c(OC([H])([H])C([H])([H])C([H])([H])c3c([H])c([H])c4c(c3[H])C([H])([H])C([H])([H])C4([H])C([H])([H])N(C(=O)N3C([H])([H])C([H])([H])C([H])([H])C([H])(n4nc(-c5c([H])c([H])c(Oc6c([H])c([H])c(F)c([H])c6F)c([H])c5[H])c(C(=O)N([H])[H])c4N([H])[H])C3([H])[H])C([H])([H])[H])c([H])c([H])c2C1([H])[H]

$$$$
57:0:0
     RDKit          3D

 96104  0  0  1  0  0  0  0  0999 V2000
  -28.6320  -21.2300   19.4720 C   0  0  0  0  0  3  0  0  0  0  0  0
  -29.3400  -22.8470   21.6030 C   0  0  0  0  0  3  0  0  0  0  0  0
  -28.3500  -22.6530   19.4430 C   0  0  0  0  0  0  0  0  0  0  0  0
  -29.2130  -20.5400   20.5840 C   0  0  0  0  0  0  0  0  0  0  0  0
  -28.6440  -23.5200   20.5510 C   0  0  0  0  0  0  0  0  0  0  0  0
  -29.6130  -21.4310   21.6290 C   0  0  0  0  0  0  0  0  0  0  0  0
  -30.2210  -20.9080   22.7670 N   0  0  0  0  0  0  0  0  0  0  0  0
  -30.2720  -21.4600   23.6180 H   0  0  0  0  0  0  0  0  0  0  0  0
  -30.2130  -19.9060   22.9270 H   0  0  0  0  0  0  0  0  0  0  0  0
  -29.1070  -18.9290   20.7710 C   0  0  0  0  0  2  0  0  0  0  0  0
  -30.4840  -17.8590   18.8640 C   0  0  0  0  0  1  0  0  0  0  0  0
  -30.1760  -17.7550   20.3650 C   0  0  0  0  0  3  0  0  0  0  0  0
  -29.7890  -16.2030   20.7870 C   0  0  0  0  0  2  0  0  0  0  0  0
  -30.6250  -14.8600   20.4080 C   0  0  0  0  0  0  0  0  0  0  0  0
  -30.4810  -12.5640   19.3870 C   0  0  0  0  0  2  0  0  0  0  0  0
  -29.5470  -12.6250   18.1550 C   0  0  0  0  0  2  0  0  0  0  0  0
  -28.0750  -12.4340   18.5700 C   0  0  0  0  0  2  0  0  0  0  0  0
  -27.6830  -13.3200   19.7810 C   0  0  0  0  0  3  0  0  0  0  0  0
  -28.7340  -13.2430   20.9100 C   0  0  0  0  0  2  0  0  0  0  0  0
  -30.0370  -13.6100   20.3410 N   0  0  0  0  0  0  0  0  0  0  0  0
  -31.8050  -14.9710   20.0570 O   0  0  0  0  0  0  0  0  0  0  0  0
  -25.2870  -13.9050   20.4860 C   0  0  0  0  0  0  0  0  0  0  0  0
  -24.2200  -13.1300   20.8480 C   0  0  0  0  0  0  0  0  0  0  0  0
  -24.6880  -11.7790   20.8290 C   0  0  0  0  0  0  0  0  0  0  0  0
  -26.3370  -13.0280   20.2620 N   0  0  0  0  0  0  0  0  0  0  0  0
  -25.9830  -11.7450   20.5330 N   0  0  0  0  0  0  0  0  0  0  0  0
  -23.9650  -10.5150   21.0160 C   0  0  0  0  0  0  0  0  0  0  0  0
  -24.3850   -9.5550   21.9630 C   0  0  0  0  0  3  0  0  0  0  0  0
  -23.6600   -8.3570   22.1390 C   0  0  0  0  0  3  0  0  0  0  0  0
  -22.4990   -8.1100   21.3680 C   0  0  0  0  0  0  0  0  0  0  0  0
  -22.0970   -9.0590   20.4110 C   0  0  0  0  0  3  0  0  0  0  0  0
  -22.8240  -10.2480   20.2330 C   0  0  0  0  0  3  0  0  0  0  0  0
  -21.7480   -6.9630   21.4520 O   0  0  0  0  0  0  0  0  0  0  0  0
  -21.6760   -6.2330   22.6110 C   0  0  0  0  0  0  0  0  0  0  0  0
  -21.2090   -6.7960   23.8190 C   0  0  0  0  0  3  0  0  0  0  0  0
  -21.0870   -5.9910   24.9690 C   0  0  0  0  0  3  0  0  0  0  0  0
  -21.4200   -4.6250   24.9130 C   0  0  0  0  0  0  0  0  0  0  0  0
  -21.8800   -4.0620   23.7100 C   0  0  0  0  0  3  0  0  0  0  0  0
  -22.0050   -4.8630   22.5610 C   0  0  0  0  0  0  0  0  0  0  0  0
  -22.4280   -4.3100   21.3990 F   0  0  0  0  0  0  0  0  0  0  0  0
  -21.2940   -3.8500   26.0160 F   0  0  0  0  0  0  0  0  0  0  0  0
  -22.8180  -13.6030   21.1020 C   0  0  0  0  0  0  0  0  0  0  0  0
  -22.0830  -12.9090   21.9630 N   0  0  0  0  0  0  0  0  0  0  0  0
  -22.3820  -14.6240   20.5720 O   0  0  0  0  0  0  0  0  0  0  0  0
  -22.4480  -12.0820   22.4130 H   0  0  0  0  0  0  0  0  0  0  0  0
  -21.1430  -13.2090   22.1770 H   0  0  0  0  0  0  0  0  0  0  0  0
  -25.4480  -15.2760   20.3050 N   0  0  0  0  0  0  0  0  0  0  0  0
  -24.6760  -15.9260   20.4100 H   0  0  0  0  0  0  0  0  0  0  0  0
  -26.2980  -15.7200   19.9860 H   0  0  0  0  0  0  0  0  0  0  0  0
  -27.6500  -23.2100   18.2090 C   0  0  0  0  0  2  0  0  0  0  0  0
  -26.2280  -22.8380   18.1690 N   0  0  0  0  0  4  0  0  0  0  0  0
  -26.1310  -21.8400   18.1300 H   0  0  0  0  0  0  0  0  0  0  0  0
  -25.8000  -23.2260   17.3480 H   0  0  0  0  0  0  0  0  0  0  0  0
  -25.7430  -23.1750   18.9790 H   0  0  0  0  0  0  0  0  0  0  0  0
  -27.9600  -24.9670   20.8210 C   0  0  0  0  0  2  0  0  0  0  0  0
  -28.3110  -26.3200   20.2270 O   0  0  0  0  0  0  0  0  0  0  0  0
  -24.6220  -31.8870   23.2260 C   0  0  0  0  0  0  0  0  0  0  0  0
  -27.2520  -27.2720   20.1860 C   0  0  0  0  0  0  0  0  0  0  0  0
  -23.4320  -30.4820   21.5860 C   0  0  0  0  0  3  0  0  0  0  0  0
  -24.8950  -28.9340   20.1600 C   0  0  0  0  0  0  0  0  0  0  0  0
  -25.9780  -30.7930   21.4160 C   0  0  0  0  0  2  0  0  0  0  0  0
  -26.0670  -29.4080   20.7670 C   0  0  0  0  0  0  0  0  0  0  0  0
  -27.2510  -28.5910   20.7690 C   0  0  0  0  0  3  0  0  0  0  0  0
  -26.0620  -26.8880   19.5300 C   0  0  0  0  0  3  0  0  0  0  0  0
  -24.9000  -27.6830   19.5280 C   0  0  0  0  0  3  0  0  0  0  0  0
  -23.6560  -29.8090   20.2070 C   0  0  0  0  0  2  0  0  0  0  0  0
  -24.6960  -31.0730   22.1310 N   0  0  0  0  0  0  0  0  0  0  0  0
  -23.5340  -32.1610   23.7560 O   0  0  0  0  0  0  0  0  0  0  0  0
  -22.7670  -29.4640   22.5450 C   0  0  0  0  0  0  0  0  0  0  0  0
  -21.4400  -29.2870   22.4220 N   0  0  0  0  0  0  0  0  0  0  0  0
  -23.4460  -28.8380   23.3630 O   0  0  0  0  0  0  0  0  0  0  0  0
  -20.9500  -29.8440   21.7360 H   0  0  0  0  0  0  0  0  0  0  0  0
  -18.0640  -28.0850   22.9390 C   0  0  0  0  0  0  0  0  0  0  0  0
  -20.6240  -28.3460   23.1920 C   0  0  0  0  0  3  0  0  0  0  0  0
  -20.7220  -26.9160   22.6100 C   0  0  0  0  0  2  0  0  0  0  0  0
  -19.6150  -26.5980   21.6020 C   0  0  0  0  0  2  0  0  0  0  0  0
  -18.2360  -26.7390   22.2540 C   0  0  0  0  0  2  0  0  0  0  0  0
  -19.1850  -28.8460   23.3640 C   0  0  0  0  0  0  0  0  0  0  0  0
  -18.9680  -30.1050   23.9660 C   0  0  0  0  0  3  0  0  0  0  0  0
  -17.6640  -30.6050   24.1430 C   0  0  0  0  0  3  0  0  0  0  0  0
  -16.5580  -29.8410   23.7320 C   0  0  0  0  0  3  0  0  0  0  0  0
  -16.7580  -28.5820   23.1370 C   0  0  0  0  0  3  0  0  0  0  0  0
  -25.8970  -32.5290   23.8520 C   0  0  0  0  0  3  0  0  0  0  0  0
  -26.4100  -31.7670   25.1360 C   0  0  1  0  0  0  0  0  0  0  0  0
  -25.3110  -31.5300   26.1990 C   0  0  0  0  0  1  0  0  0  0  0  0
  -27.0010  -30.3900   24.7580 C   0  0  0  0  0  1  0  0  0  0  0  0
  -27.5530  -32.5710   25.8000 C   0  0  0  0  0  1  0  0  0  0  0  0
  -25.5780  -33.9280   24.1770 N   0  0  0  0  0  0  0  0  0  0  0  0
  -25.9070  -34.9830   23.4190 C   0  0  0  0  0  0  0  0  0  0  0  0
  -26.5810  -34.8790   22.3900 O   0  0  0  0  0  0  0  0  0  0  0  0
  -24.9810  -34.0810   24.9770 H   0  0  0  0  0  0  0  0  0  0  0  0
  -24.1790  -36.7720   23.0510 C   0  0  0  0  0  1  0  0  0  0  0  0
  -25.4140  -36.3690   23.8730 C   0  0  0  0  0  3  0  0  0  0  0  0
  -27.5380  -37.2590   24.7270 C   0  0  0  0  0  1  0  0  0  0  0  0
  -26.4440  -37.4250   23.7700 N   0  0  0  0  0  0  0  0  0  0  0  0
  -26.0350  -38.3440   23.9130 H   0  0  0  0  0  0  0  0  0  0  0  0
  1  4  1  0
  2  6  1  0
  3  1  2  0
  3  5  1  0
  4 10  1  0
  4  6  2  0
  5 55  1  0
  5  2  2  0
  6  7  1  0
  7  9  1  0
  7  8  1  0
 12 11  1  0
 12 10  1  0
 12 13  1  0
 14 13  1  0
 15 20  1  0
 16 17  1  0
 16 15  1  0
 18 17  1  0
 18 25  1  0
 18 19  1  0
 20 14  1  0
 20 19  1  0
 21 14  2  0
 22 23  2  0
 23 42  1  0
 24 23  1  0
 24 27  1  0
 25 22  1  0
 25 26  1  0
 26 24  2  0
 27 28  1  0
 28 29  2  0
 30 33  1  0
 30 29  1  0
 31 30  2  0
 32 31  1  0
 32 27  2  0
 33 34  1  0
 34 35  1  0
 35 36  2  0
 37 36  1  0
 37 41  1  0
 38 37  2  0
 39 34  2  0
 39 38  1  0
 40 39  1  0
 42 43  1  0
 43 46  1  0
 43 45  1  0
 44 42  2  0
 47 48  1  0
 47 22  1  0
 49 47  1  0
 50  3  1  0
 51 50  1  0
 51 54  1  0
 52 51  1  0
 53 51  1  0
 56 55  1  0
 57 68  2  0
 58 56  1  0
 58 63  1  0
 59 67  1  0
 59 69  1  0
 60 66  1  0
 60 62  1  0
 61 67  1  0
 62 63  2  0
 62 61  1  0
 64 58  2  0
 65 64  1  0
 65 60  2  0
 66 59  1  0
 67 57  1  0
 69 71  2  0
 70 69  1  0
 72 70  1  0
 73 82  2  0
 73 78  1  0
 74 70  1  0
 74 78  1  0
 75 74  1  0
 76 77  1  0
 76 75  1  0
 77 73  1  0
 78 79  2  0
 79 80  1  0
 81 80  2  0
 82 81  1  0
 83 57  1  0
 83 88  1  0
 83 84  1  0
 84 87  1  1
 84 85  1  0
 86 84  1  0
 88 91  1  0
 89 93  1  0
 89 88  1  0
 90 89  2  0
 93 92  1  0
 95 93  1  0
 95 96  1  0
 95 94  1  0
M  ISO  4  13 100  14 100  55 101  56 101
M  END
>  <TORSDO>  (58) 
F 23

>  <SCORE>  (58) 
-13.446

>  <name>  (58) 
57

>  <ligand_id>  (58) 
57

>  <original_smiles>  (58) 
[H]c1c([H])c([H])c2c(c1[H])C([H])([H])C([H])([H])C([H])([H])C2([H])N([H])C(=O)C1([H])N(C(=O)C([H])(N([H])C(=O)C([H])(N([H])C([H])([H])[H])C([H])([H])[H])C(C([H])([H])[H])(C([H])([H])[H])C([H])([H])[H])C([H])([H])c2c([H])c(OC([H])([H])c3c([H])c(N([H])[H])c(C([H])([H])C([H])(C([H])([H])[H])C([H])([H])C(=O)N4C([H])([H])C([H])([H])C([H])([H])C([H])(n5nc(-c6c([H])c([H])c(Oc7c([H])c([H])c(F)c([H])c7F)c([H])c6[H])c(C(=O)N([H])[H])c5N([H])[H])C4([H])[H])c([H])c3C([H])([H])[N+]([H])([H])[H])c([H])c([H])c2C1([H])[H]

>  <smiles>  (58) 
[H]c1c([H])c([H])c2c(c1[H])C([H])([H])C([H])([H])C([H])([H])C2([H])N([H])C(=O)C1([H])N(C(=O)C([H])(N([H])C(=O)C([H])(N([H])C([H])([H])[H])C([H])([H])[H])C(C([H])([H])[H])(C([H])([H])[H])C([H])([H])[H])C([H])([H])c2c([H])c(OC([H])([H])c3c([H])c(N([H])[H])c(C([H])([H])C([H])(C([H])([H])[H])C([H])([H])C(=O)N4C([H])([H])C([H])([H])C([H])([H])C([H])(n5nc(-c6c([H])c([H])c(Oc7c([H])c([H])c(F)c([H])c7F)c([H])c6[H])c(C(=O)N([H])[H])c5N([H])[H])C4([H])[H])c([H])c3C([H])([H])[N+]([H])([H])[H])c([H])c([H])c2C1([H])[H]

$$$$
58:0:0
     RDKit          3D

 90 98  0  0  1  0  0  0  0  0999 V2000
  -30.1890  -23.5910   19.8670 C   0  0  0  0  0  2  0  0  0  0  0  0
  -27.7650  -22.8710   19.9750 C   0  0  0  0  0  2  0  0  0  0  0  0
  -29.9050  -24.6760   20.9520 C   0  0  0  0  0  2  0  0  0  0  0  0
  -27.4750  -24.1010   20.9090 C   0  0  0  0  0  2  0  0  0  0  0  0
  -29.2350  -22.3520   19.8250 C   0  0  0  0  0  3  0  0  0  0  0  0
  -28.4810  -25.3040   20.9550 C   0  0  0  0  0  3  0  0  0  0  0  0
  -29.7260  -21.0150   20.5460 C   0  0  0  0  0  0  0  0  0  0  0  0
  -29.3580  -19.7890   20.0570 N   0  0  0  0  0  0  0  0  0  0  0  0
  -30.5590  -21.0970   21.4500 O   0  0  0  0  0  0  0  0  0  0  0  0
  -28.5820  -19.8410   19.4090 H   0  0  0  0  0  0  0  0  0  0  0  0
  -30.1420  -18.4960   19.9330 C   0  0  0  0  0  2  0  0  0  0  0  0
  -30.2180  -17.4310   21.1120 C   0  0  0  0  0  2  0  0  0  0  0  0
  -29.6870  -15.9250   20.9390 C   0  0  0  0  0  2  0  0  0  0  0  0
  -30.5610  -14.6820   20.4610 C   0  0  0  0  0  0  0  0  0  0  0  0
  -30.3970  -12.4420   19.3550 C   0  0  0  0  0  2  0  0  0  0  0  0
  -29.4540  -12.5680   18.1340 C   0  0  0  0  0  2  0  0  0  0  0  0
  -27.9780  -12.3960   18.5480 C   0  0  0  0  0  2  0  0  0  0  0  0
  -27.6090  -13.2530   19.7860 C   0  0  0  0  0  3  0  0  0  0  0  0
  -28.6580  -13.0840   20.9070 C   0  0  0  0  0  2  0  0  0  0  0  0
  -29.9740  -13.4430   20.3550 N   0  0  0  0  0  0  0  0  0  0  0  0
  -31.7160  -14.8600   20.0630 O   0  0  0  0  0  0  0  0  0  0  0  0
  -25.2120  -13.8680   20.4790 C   0  0  0  0  0  0  0  0  0  0  0  0
  -24.1400  -13.1020   20.8460 C   0  0  0  0  0  0  0  0  0  0  0  0
  -24.5990  -11.7500   20.8360 C   0  0  0  0  0  0  0  0  0  0  0  0
  -26.2560  -12.9810   20.2620 N   0  0  0  0  0  0  0  0  0  0  0  0
  -25.8920  -11.7020   20.5370 N   0  0  0  0  0  0  0  0  0  0  0  0
  -23.8690  -10.4920   21.0350 C   0  0  0  0  0  0  0  0  0  0  0  0
  -24.3050   -9.5230   21.9660 C   0  0  0  0  0  3  0  0  0  0  0  0
  -23.5770   -8.3290   22.1520 C   0  0  0  0  0  3  0  0  0  0  0  0
  -22.3980   -8.0940   21.4050 C   0  0  0  0  0  0  0  0  0  0  0  0
  -21.9800   -9.0500   20.4630 C   0  0  0  0  0  3  0  0  0  0  0  0
  -22.7100  -10.2370   20.2760 C   0  0  0  0  0  3  0  0  0  0  0  0
  -21.6410   -6.9510   21.4980 O   0  0  0  0  0  0  0  0  0  0  0  0
  -21.6130   -6.1990   22.6450 C   0  0  0  0  0  0  0  0  0  0  0  0
  -21.2350   -6.7500   23.8880 C   0  0  0  0  0  3  0  0  0  0  0  0
  -21.1520   -5.9260   25.0280 C   0  0  0  0  0  3  0  0  0  0  0  0
  -21.4390   -4.5510   24.9260 C   0  0  0  0  0  0  0  0  0  0  0  0
  -21.8110   -3.9990   23.6880 C   0  0  0  0  0  3  0  0  0  0  0  0
  -21.8950   -4.8210   22.5500 C   0  0  0  0  0  0  0  0  0  0  0  0
  -22.2350   -4.2800   21.3560 F   0  0  0  0  0  0  0  0  0  0  0  0
  -21.3540   -3.7580   26.0190 F   0  0  0  0  0  0  0  0  0  0  0  0
  -22.7410  -13.5850   21.1000 C   0  0  0  0  0  0  0  0  0  0  0  0
  -22.0050  -12.9000   21.9680 N   0  0  0  0  0  0  0  0  0  0  0  0
  -22.3070  -14.6030   20.5610 O   0  0  0  0  0  0  0  0  0  0  0  0
  -22.3690  -12.0760   22.4240 H   0  0  0  0  0  0  0  0  0  0  0  0
  -21.0660  -13.2050   22.1810 H   0  0  0  0  0  0  0  0  0  0  0  0
  -25.3830  -15.2370   20.2900 N   0  0  0  0  0  0  0  0  0  0  0  0
  -24.6220  -15.8990   20.3890 H   0  0  0  0  0  0  0  0  0  0  0  0
  -26.2440  -15.6680   19.9790 H   0  0  0  0  0  0  0  0  0  0  0  0
  -28.3630  -26.4980   20.0910 O   0  0  0  0  0  0  0  0  0  0  0  0
  -24.6110  -31.8670   23.2140 C   0  0  0  0  0  0  0  0  0  0  0  0
  -27.2300  -27.3150   20.1670 C   0  0  0  0  0  0  0  0  0  0  0  0
  -23.4060  -30.4630   21.5780 C   0  0  0  0  0  3  0  0  0  0  0  0
  -24.8580  -28.9070   20.1580 C   0  0  0  0  0  0  0  0  0  0  0  0
  -25.9420  -30.7890   21.3870 C   0  0  0  0  0  2  0  0  0  0  0  0
  -26.0240  -29.4060   20.7530 C   0  0  0  0  0  0  0  0  0  0  0  0
  -27.2150  -28.6210   20.7490 C   0  0  0  0  0  3  0  0  0  0  0  0
  -26.0470  -26.8670   19.5490 C   0  0  0  0  0  3  0  0  0  0  0  0
  -24.8680  -27.6400   19.5510 C   0  0  0  0  0  3  0  0  0  0  0  0
  -23.6180  -29.7780   20.2020 C   0  0  0  0  0  2  0  0  0  0  0  0
  -24.6720  -31.0570   22.1160 N   0  0  0  0  0  0  0  0  0  0  0  0
  -23.5290  -32.1430   23.7530 O   0  0  0  0  0  0  0  0  0  0  0  0
  -22.7470  -29.4480   22.5430 C   0  0  0  0  0  0  0  0  0  0  0  0
  -21.4200  -29.2770   22.4280 N   0  0  0  0  0  0  0  0  0  0  0  0
  -23.4290  -28.8160   23.3540 O   0  0  0  0  0  0  0  0  0  0  0  0
  -20.9280  -29.8380   21.7460 H   0  0  0  0  0  0  0  0  0  0  0  0
  -18.0400  -28.0950   22.9510 C   0  0  0  0  0  0  0  0  0  0  0  0
  -20.6020  -28.3420   23.2030 C   0  0  0  0  0  3  0  0  0  0  0  0
  -20.6940  -26.9120   22.6230 C   0  0  0  0  0  2  0  0  0  0  0  0
  -19.5830  -26.5960   21.6160 C   0  0  0  0  0  2  0  0  0  0  0  0
  -18.2060  -26.7460   22.2710 C   0  0  0  0  0  2  0  0  0  0  0  0
  -19.1660  -28.8520   23.3740 C   0  0  0  0  0  0  0  0  0  0  0  0
  -18.9570  -30.1140   23.9690 C   0  0  0  0  0  3  0  0  0  0  0  0
  -17.6550  -30.6220   24.1450 C   0  0  0  0  0  3  0  0  0  0  0  0
  -16.5450  -29.8620   23.7390 C   0  0  0  0  0  3  0  0  0  0  0  0
  -16.7380  -28.6000   23.1480 C   0  0  0  0  0  3  0  0  0  0  0  0
  -25.8950  -32.5020   23.8320 C   0  0  0  0  0  3  0  0  0  0  0  0
  -26.4220  -31.7260   25.1020 C   0  0  1  0  0  0  0  0  0  0  0  0
  -25.3370  -31.4820   26.1760 C   0  0  0  0  0  1  0  0  0  0  0  0
  -27.0050  -30.3520   24.7010 C   0  0  0  0  0  1  0  0  0  0  0  0
  -27.5760  -32.5200   25.7590 C   0  0  0  0  0  1  0  0  0  0  0  0
  -25.5810  -33.8980   24.1710 N   0  0  0  0  0  0  0  0  0  0  0  0
  -25.9070  -34.9570   23.4160 C   0  0  0  0  0  0  0  0  0  0  0  0
  -26.5710  -34.8610   22.3810 O   0  0  0  0  0  0  0  0  0  0  0  0
  -24.9900  -34.0450   24.9750 H   0  0  0  0  0  0  0  0  0  0  0  0
  -24.1680  -36.7440   23.0850 C   0  0  0  0  0  1  0  0  0  0  0  0
  -25.4180  -36.3410   23.8840 C   0  0  0  0  0  3  0  0  0  0  0  0
  -27.5580  -37.2290   24.6980 C   0  0  0  0  0  1  0  0  0  0  0  0
  -26.4460  -37.3990   23.7670 N   0  0  0  0  0  0  0  0  0  0  0  0
  -26.0370  -38.3160   23.9250 H   0  0  0  0  0  0  0  0  0  0  0  0
  1  3  1  0
  2  4  1  0
  3  6  1  0
  4  6  1  0
  5  1  1  0
  5  2  1  0
  5  7  1  0
  6 50  1  0
  7  9  2  0
  8  7  1  0
 10  8  1  0
 11  8  1  0
 11 12  1  0
 13 12  1  0
 14 13  1  0
 15 20  1  0
 16 17  1  0
 16 15  1  0
 18 17  1  0
 18 25  1  0
 18 19  1  0
 20 14  1  0
 20 19  1  0
 21 14  2  0
 22 23  2  0
 23 42  1  0
 24 23  1  0
 24 27  1  0
 25 22  1  0
 25 26  1  0
 26 24  2  0
 27 28  1  0
 28 29  2  0
 30 33  1  0
 30 29  1  0
 31 30  2  0
 32 31  1  0
 32 27  2  0
 33 34  1  0
 34 35  1  0
 35 36  2  0
 37 36  1  0
 37 41  1  0
 38 37  2  0
 39 34  2  0
 39 38  1  0
 40 39  1  0
 42 43  1  0
 43 46  1  0
 43 45  1  0
 44 42  2  0
 47 48  1  0
 47 22  1  0
 49 47  1  0
 50 52  1  0
 51 62  2  0
 52 57  1  0
 53 61  1  0
 53 63  1  0
 54 60  1  0
 54 56  1  0
 55 61  1  0
 56 55  1  0
 57 56  2  0
 58 59  1  0
 58 52  2  0
 59 54  2  0
 60 53  1  0
 61 51  1  0
 63 65  2  0
 64 63  1  0
 66 64  1  0
 67 76  2  0
 67 72  1  0
 68 64  1  0
 68 72  1  0
 69 68  1  0
 70 71  1  0
 70 69  1  0
 71 67  1  0
 72 73  2  0
 73 74  1  0
 75 74  2  0
 76 75  1  0
 77 51  1  0
 77 82  1  0
 77 78  1  0
 78 81  1  1
 78 79  1  0
 80 78  1  0
 82 85  1  0
 83 87  1  0
 83 82  1  0
 84 83  2  0
 87 86  1  0
 89 87  1  0
 89 90  1  0
 89 88  1  0
M  ISO  4   6 101  13 100  14 100  50 101
M  END
>  <TORSDO>  (59) 
F 20

>  <SCORE>  (59) 
-13.865

>  <name>  (59) 
58

>  <ligand_id>  (59) 
58

>  <original_smiles>  (59) 
[H]c1c([H])c([H])c2c(c1[H])C([H])([H])C([H])([H])C([H])([H])C2([H])N([H])C(=O)C1([H])N(C(=O)C([H])(N([H])C(=O)C([H])(N([H])C([H])([H])[H])C([H])([H])[H])C(C([H])([H])[H])(C([H])([H])[H])C([H])([H])[H])C([H])([H])c2c([H])c(OC3([H])C([H])([H])C([H])([H])C([H])(C(=O)N([H])C([H])([H])C([H])([H])C([H])([H])C(=O)N4C([H])([H])C([H])([H])C([H])([H])C([H])(n5nc(-c6c([H])c([H])c(Oc7c([H])c([H])c(F)c([H])c7F)c([H])c6[H])c(C(=O)N([H])[H])c5N([H])[H])C4([H])[H])C([H])([H])C3([H])[H])c([H])c([H])c2C1([H])[H]

>  <smiles>  (59) 
[H]c1c([H])c([H])c2c(c1[H])C([H])([H])C([H])([H])C([H])([H])C2([H])N([H])C(=O)C1([H])N(C(=O)C([H])(N([H])C(=O)C([H])(N([H])C([H])([H])[H])C([H])([H])[H])C(C([H])([H])[H])(C([H])([H])[H])C([H])([H])[H])C([H])([H])c2c([H])c(OC3([H])C([H])([H])C([H])([H])C([H])(C(=O)N([H])C([H])([H])C([H])([H])C([H])([H])C(=O)N4C([H])([H])C([H])([H])C([H])([H])C([H])(n5nc(-c6c([H])c([H])c(Oc7c([H])c([H])c(F)c([H])c7F)c([H])c6[H])c(C(=O)N([H])[H])c5N([H])[H])C4([H])[H])C([H])([H])C3([H])[H])c([H])c([H])c2C1([H])[H]

$$$$
59:0:0
     RDKit          3D

101106  0  0  1  0  0  0  0  0999 V2000
  -16.4200  -26.8310   21.8560 C   0  0  0  0  0  3  0  0  0  0  0  0
  -16.7580  -28.2880   21.0820 C   0  0  0  0  0  3  0  0  0  0  0  0
  -17.5200  -25.8890   22.7010 C   0  0  0  0  0  2  0  0  0  0  0  0
  -18.2480  -29.0530   21.0410 C   0  0  0  0  0  2  0  0  0  0  0  0
  -19.1670  -26.3230   22.8010 C   0  0  0  0  0  2  0  0  0  0  0  0
  -19.6190  -28.3820   21.7670 C   0  0  0  0  0  2  0  0  0  0  0  0
  -20.0020  -24.8720   23.4700 C   0  0  0  0  0  2  0  0  0  0  0  0
  -21.5610  -23.8910   23.4640 C   0  0  0  0  0  2  0  0  0  0  0  0
  -22.1460  -22.6050   22.6050 N   0  0  0  0  0  4  0  0  0  0  0  0
  -21.9780  -22.8070   21.6340 H   0  0  0  0  0  0  0  0  0  0  0  0
  -21.5260  -21.8440   22.8290 H   0  0  0  0  0  0  0  0  0  0  0  0
  -23.6720  -21.9550   22.6740 C   0  0  0  0  0  3  0  0  0  0  0  0
  -24.3080  -20.3870   22.0880 C   0  0  0  0  0  3  0  0  0  0  0  0
  -25.9630  -19.7130   21.9260 C   0  0  0  0  0  2  0  0  0  0  0  0
  -26.6120  -18.0960   21.5060 C   0  0  0  0  0  3  0  0  0  0  0  0
  -28.2650  -17.4510   21.2340 C   0  0  0  0  0  3  0  0  0  0  0  0
  -29.9700  -15.0500   20.6510 C   0  0  0  0  0  0  0  0  0  0  0  0
  -30.4170  -12.7310   19.5680 C   0  0  0  0  0  2  0  0  0  0  0  0
  -29.5260  -12.5820   18.3000 C   0  0  0  0  0  2  0  0  0  0  0  0
  -28.0540  -12.2860   18.6670 C   0  0  0  0  0  2  0  0  0  0  0  0
  -27.5790  -13.1780   19.8370 C   0  0  0  0  0  3  0  0  0  0  0  0
  -28.5450  -13.0720   21.0200 C   0  0  0  0  0  2  0  0  0  0  0  0
  -29.7540  -13.6800   20.5250 N   0  0  0  0  0  0  0  0  0  0  0  0
  -31.1300  -15.3960   20.3260 O   0  0  0  0  0  0  0  0  0  0  0  0
  -28.8030  -15.8980   21.0170 N   0  0  0  0  0  0  0  0  0  0  0  0
  -28.0430  -15.2680   21.2210 H   0  0  0  0  0  0  0  0  0  0  0  0
  -25.2230  -13.8010   20.5510 C   0  0  0  0  0  0  0  0  0  0  0  0
  -24.1570  -13.0340   20.9220 C   0  0  0  0  0  0  0  0  0  0  0  0
  -24.6130  -11.6810   20.8770 C   0  0  0  0  0  0  0  0  0  0  0  0
  -26.2410  -12.9050   20.2880 N   0  0  0  0  0  0  0  0  0  0  0  0
  -25.8940  -11.6280   20.5550 N   0  0  0  0  0  0  0  0  0  0  0  0
  -23.8890  -10.4220   21.0490 C   0  0  0  0  0  0  0  0  0  0  0  0
  -24.3520   -9.4150   21.9230 C   0  0  0  0  0  3  0  0  0  0  0  0
  -23.6230   -8.2170   22.0760 C   0  0  0  0  0  3  0  0  0  0  0  0
  -22.4210   -8.0230   21.3550 C   0  0  0  0  0  0  0  0  0  0  0  0
  -21.9830   -9.0190   20.4650 C   0  0  0  0  0  3  0  0  0  0  0  0
  -22.7110  -10.2070   20.3090 C   0  0  0  0  0  3  0  0  0  0  0  0
  -21.6580   -6.8830   21.4250 O   0  0  0  0  0  0  0  0  0  0  0  0
  -21.6820   -6.0710   22.5300 C   0  0  0  0  0  0  0  0  0  0  0  0
  -21.3980   -6.5620   23.8230 C   0  0  0  0  0  3  0  0  0  0  0  0
  -21.3650   -5.6780   24.9190 C   0  0  0  0  0  3  0  0  0  0  0  0
  -21.6050   -4.3040   24.7240 C   0  0  0  0  0  0  0  0  0  0  0  0
  -21.8820   -3.8130   23.4360 C   0  0  0  0  0  3  0  0  0  0  0  0
  -21.9180   -4.6940   22.3420 C   0  0  0  0  0  0  0  0  0  0  0  0
  -22.1650   -4.2140   21.1000 F   0  0  0  0  0  0  0  0  0  0  0  0
  -21.5630   -3.4530   25.7760 F   0  0  0  0  0  0  0  0  0  0  0  0
  -22.7650  -13.5210   21.1930 C   0  0  0  0  0  0  0  0  0  0  0  0
  -22.0290  -12.8250   22.0500 N   0  0  0  0  0  0  0  0  0  0  0  0
  -22.3400  -14.5540   20.6770 O   0  0  0  0  0  0  0  0  0  0  0  0
  -22.3870  -11.9910   22.4910 H   0  0  0  0  0  0  0  0  0  0  0  0
  -21.0920  -13.1320   22.2710 H   0  0  0  0  0  0  0  0  0  0  0  0
  -25.4040  -15.1710   20.3900 N   0  0  0  0  0  0  0  0  0  0  0  0
  -24.6240  -15.8110   20.4870 H   0  0  0  0  0  0  0  0  0  0  0  0
  -26.2030  -15.5970   19.9410 H   0  0  0  0  0  0  0  0  0  0  0  0
  -20.6390  -29.8930   22.4040 C   0  0  0  0  0  2  0  0  0  0  0  0
  -22.0060  -30.0850   23.6490 N   0  0  0  0  0  4  0  0  0  0  0  0
  -21.4950  -30.0630   24.5180 H   0  0  0  0  0  0  0  0  0  0  0  0
  -22.3030  -31.0570   23.5680 H   0  0  0  0  0  0  0  0  0  0  0  0
  -23.5890  -29.2250   24.0950 C   0  0  0  0  0  1  0  0  0  0  0  0
  -25.3170  -28.5870   23.2980 C   0  0  0  0  0  1  0  0  0  0  0  0
  -26.1970  -27.5050   22.1970 O   0  0  0  0  0  0  0  0  0  0  0  0
  -24.5940  -31.8770   23.0880 C   0  0  0  0  0  0  0  0  0  0  0  0
  -26.7710  -27.6740   20.9070 C   0  0  0  0  0  3  0  0  0  0  0  0
  -23.3980  -30.3480   21.2850 C   0  0  0  0  0  3  0  0  0  0  0  0
  -25.0200  -29.2490   19.6960 C   0  0  0  0  0  0  0  0  0  0  0  0
  -25.8800  -31.0610   21.1860 C   0  0  0  0  0  2  0  0  0  0  0  0
  -26.0810  -29.7710   20.4510 C   0  0  0  0  0  0  0  0  0  0  0  0
  -27.1870  -28.9790   20.7640 C   0  0  0  0  0  2  0  0  0  0  0  0
  -26.0590  -27.0780   19.8260 C   0  0  0  0  0  2  0  0  0  0  0  0
  -25.0770  -27.9050   19.2360 C   0  0  0  0  0  2  0  0  0  0  0  0
  -23.7350  -30.0580   19.7940 C   0  0  0  0  0  2  0  0  0  0  0  0
  -24.6140  -31.0730   21.9540 N   0  0  0  0  0  0  0  0  0  0  0  0
  -23.5180  -32.1770   23.6190 O   0  0  0  0  0  0  0  0  0  0  0  0
  -22.9940  -28.7900   21.6120 C   0  0  0  0  0  0  0  0  0  0  0  0
  -22.1560  -28.0060   22.3710 N   0  0  1  0  0  4  0  0  0  0  0  0
  -23.7710  -27.9250   21.6030 O   0  0  0  0  0  0  0  0  0  0  0  0
  -22.5880  -27.1260   22.1450 H   0  0  0  0  0  0  0  0  0  0  0  0
  -17.9490  -28.1570   23.2330 C   0  0  0  0  0  2  0  0  0  0  0  0
  -21.0930  -27.6210   23.4560 C   0  0  0  0  0  2  0  0  0  0  0  0
  -21.3320  -26.5660   21.8550 C   0  0  0  0  0  3  0  0  0  0  0  0
  -20.1690  -26.2920   20.5770 C   0  0  0  0  0  2  0  0  0  0  0  0
  -18.5020  -26.7300   20.7400 C   0  0  0  0  0  1  0  0  0  0  0  0
  -19.3160  -28.4310   24.0800 C   0  0  0  0  0  2  0  0  0  0  0  0
  -19.1400  -29.7370   24.6730 C   0  0  0  0  0  2  0  0  0  0  0  0
  -17.9800  -30.5670   24.5420 C   0  0  0  0  0  3  0  0  0  0  0  0
  -16.7560  -30.0850   24.0880 C   0  0  0  0  0  3  0  0  0  0  0  0
  -16.7180  -28.7880   23.6440 C   0  0  0  0  0  2  0  0  0  0  0  0
  -25.8840  -32.4810   23.7980 C   0  0  0  0  0  3  0  0  0  0  0  0
  -25.5350  -33.8590   24.1780 N   0  0  0  0  0  0  0  0  0  0  0  0
  -25.8980  -34.9560   23.4990 C   0  0  0  0  0  0  0  0  0  0  0  0
  -26.5830  -34.9090   22.4730 O   0  0  0  0  0  0  0  0  0  0  0  0
  -24.9290  -33.9700   24.9800 H   0  0  0  0  0  0  0  0  0  0  0  0
  -24.1430  -36.7390   23.2640 C   0  0  0  0  0  1  0  0  0  0  0  0
  -25.4070  -36.3170   24.0300 C   0  0  0  0  0  3  0  0  0  0  0  0
  -27.5570  -37.1810   24.8470 C   0  0  0  0  0  1  0  0  0  0  0  0
  -26.4270  -37.3840   23.9440 N   0  0  0  0  0  0  0  0  0  0  0  0
  -26.0180  -38.2900   24.1550 H   0  0  0  0  0  0  0  0  0  0  0  0
  -26.4830  -31.7330   25.0840 C   0  0  1  0  0  0  0  0  0  0  0  0
  -25.4370  -31.4300   26.1940 C   0  0  0  0  0  1  0  0  0  0  0  0
  -27.3090  -30.4590   24.7550 C   0  0  0  0  0  1  0  0  0  0  0  0
  -27.5640  -32.6390   25.7300 C   0  0  0  0  0  1  0  0  0  0  0  0
  1  3  1  0
  2  1  2  0
  3  5  1  0
  4  2  1  0
  4  6  1  0
  5  7  1  0
  6 55  1  0
  8  7  1  0
  9 12  1  0
  9 11  1  0
  9  8  1  0
 10  9  1  0
 13 12  2  0
 14 13  1  0
 15 14  1  0
 16 15  2  0
 17 25  1  0
 18 23  1  0
 19 20  1  0
 19 18  1  0
 21 20  1  0
 21 30  1  0
 21 22  1  0
 23 17  1  0
 23 22  1  0
 24 17  2  0
 25 26  1  0
 25 16  1  0
 27 28  2  0
 28 47  1  0
 29 28  1  0
 29 32  1  0
 30 27  1  0
 30 31  1  0
 31 29  2  0
 32 33  1  0
 33 34  2  0
 35 38  1  0
 35 34  1  0
 36 35  2  0
 37 36  1  0
 37 32  2  0
 38 39  1  0
 39 40  1  0
 40 41  2  0
 42 41  1  0
 42 46  1  0
 43 42  2  0
 44 39  2  0
 44 43  1  0
 45 44  1  0
 47 48  1  0
 48 51  1  0
 48 50  1  0
 49 47  2  0
 52 53  1  0
 52 27  1  0
 54 52  1  0
 55 56  1  0
 56 59  1  0
 56 57  1  0
 58 56  1  0
 61 60  1  0
 62 73  2  0
 63 61  1  0
 64 74  1  0
 64 72  1  0
 65 71  1  0
 65 67  2  0
 66 72  1  0
 67 68  1  0
 67 66  1  0
 68 63  1  0
 69 63  1  0
 70 65  1  0
 70 69  1  0
 71 64  1  0
 72 62  1  0
 74 75  1  0
 75 79  1  0
 76 74  2  0
 75 77  1  1
 78 87  1  0
 78 83  1  0
 80 81  1  0
 80 75  1  0
 80 79  1  0
 81 82  1  0
 83 84  1  0
 85 84  1  0
 86 85  2  0
 87 86  1  0
 88 62  1  0
 88 89  1  0
 88 98  1  0
 89 92  1  0
 90 94  1  0
 90 89  1  0
 91 90  2  0
 94 93  1  0
 96 94  1  0
 96 97  1  0
 96 95  1  0
 98101  1  1
 98 99  1  0
100 98  1  0
M  ISO  4  17 100  25 100  60 101  61 101
M  END
>  <TORSDO>  (60) 
F 28

>  <SCORE>  (60) 
34.492

>  <name>  (60) 
59

>  <ligand_id>  (60) 
59

>  <original_smiles>  (60) 
[H]c1c([H])c([H])c2c(c1[H])C([H])([H])C([H])([H])C([H])([H])C2([H])N([H])C(=O)C1([H])N(C(=O)C([H])(N([H])C(=O)C([H])(N([H])C([H])([H])[H])C([H])([H])[H])C(C([H])([H])[H])(C([H])([H])[H])C([H])([H])[H])C([H])([H])c2c([H])c(OC([H])([H])C([H])([H])[N+]([H])([H])C([H])([H])c3c([H])c([H])c([H])c([H])c3C([H])([H])C([H])([H])[N+]([H])([H])C([H])([H])C([H])([H])C([H])([H])C([H])([H])C([H])([H])N([H])C(=O)N3C([H])([H])C([H])([H])C([H])([H])C([H])(n4nc(-c5c([H])c([H])c(Oc6c([H])c([H])c(F)c([H])c6F)c([H])c5[H])c(C(=O)N([H])[H])c4N([H])[H])C3([H])[H])c([H])c([H])c2C1([H])[H]

>  <smiles>  (60) 
[H]c1c([H])c([H])c2c(c1[H])C([H])([H])C([H])([H])C([H])([H])C2([H])N([H])C(=O)C1([H])N(C(=O)C([H])(N([H])C(=O)C([H])(N([H])C([H])([H])[H])C([H])([H])[H])C(C([H])([H])[H])(C([H])([H])[H])C([H])([H])[H])C([H])([H])c2c([H])c(OC([H])([H])C([H])([H])[N+]([H])([H])C([H])([H])c3c([H])c([H])c([H])c([H])c3C([H])([H])C([H])([H])[N+]([H])([H])C([H])([H])C([H])([H])C([H])([H])C([H])([H])C([H])([H])N([H])C(=O)N3C([H])([H])C([H])([H])C([H])([H])C([H])(n4nc(-c5c([H])c([H])c(Oc6c([H])c([H])c(F)c([H])c6F)c([H])c5[H])c(C(=O)N([H])[H])c4N([H])[H])C3([H])[H])c([H])c([H])c2C1([H])[H]

$$$$
60:0:0
     RDKit          3D

 93102  0  0  1  0  0  0  0  0999 V2000
  -30.9130  -14.6300   20.3440 C   0  0  0  0  0  0  0  0  0  0  0  0
  -30.5670  -12.3900   19.3340 C   0  0  0  0  0  2  0  0  0  0  0  0
  -29.6550  -12.4530   18.0930 C   0  0  0  0  0  2  0  0  0  0  0  0
  -28.1770  -12.3150   18.5090 C   0  0  0  0  0  2  0  0  0  0  0  0
  -27.8030  -13.2750   19.6620 C   0  0  0  0  0  3  0  0  0  0  0  0
  -28.8390  -13.2360   20.8130 C   0  0  0  0  0  2  0  0  0  0  0  0
  -30.1710  -13.4810   20.2480 N   0  0  0  0  0  0  0  0  0  0  0  0
  -32.0680  -14.6620   19.9050 O   0  0  0  0  0  0  0  0  0  0  0  0
  -28.5890  -21.1360   21.1930 C   0  0  0  0  0  2  0  0  0  0  0  0
  -30.0890  -20.5580   19.2930 C   0  0  0  0  0  2  0  0  0  0  0  0
  -29.2190  -20.0010   22.0460 C   0  0  0  0  0  2  0  0  0  0  0  0
  -30.7490  -19.4190   20.1180 C   0  0  0  0  0  2  0  0  0  0  0  0
  -28.7910  -17.8380   20.7450 C   0  0  0  0  0  2  0  0  0  0  0  0
  -30.6980  -17.9520   22.2290 C   0  0  0  0  0  2  0  0  0  0  0  0
  -29.3140  -16.4930   20.1600 C   0  0  0  0  0  2  0  0  0  0  0  0
  -31.3090  -16.6680   21.6110 C   0  0  0  0  0  2  0  0  0  0  0  0
  -29.5840  -21.7330   20.1750 C   0  0  0  0  0  3  0  0  0  0  0  0
  -29.8640  -18.8170   21.2530 C   0  0  2  0  0  0  0  0  0  0  0  0
  -30.3670  -15.7620   20.9090 N   0  0  0  0  0  0  0  0  0  0  0  0
  -25.4270  -13.9840   20.3390 C   0  0  0  0  0  0  0  0  0  0  0  0
  -24.3350  -13.2580   20.7290 C   0  0  0  0  0  0  0  0  0  0  0  0
  -24.7610  -11.8950   20.7650 C   0  0  0  0  0  0  0  0  0  0  0  0
  -26.4460  -13.0620   20.1500 N   0  0  0  0  0  0  0  0  0  0  0  0
  -26.0520  -11.8060   20.4720 N   0  0  0  0  0  0  0  0  0  0  0  0
  -24.0030  -10.6620   21.0000 C   0  0  0  0  0  0  0  0  0  0  0  0
  -24.4330   -9.7020   21.9430 C   0  0  0  0  0  3  0  0  0  0  0  0
  -23.6790   -8.5290   22.1630 C   0  0  0  0  0  3  0  0  0  0  0  0
  -22.4800   -8.3120   21.4440 C   0  0  0  0  0  0  0  0  0  0  0  0
  -22.0700   -9.2590   20.4900 C   0  0  0  0  0  3  0  0  0  0  0  0
  -22.8240  -10.4230   20.2680 C   0  0  0  0  0  3  0  0  0  0  0  0
  -21.6950   -7.1920   21.5740 O   0  0  0  0  0  0  0  0  0  0  0  0
  -21.7020   -6.4370   22.7200 C   0  0  0  0  0  0  0  0  0  0  0  0
  -21.3950   -6.9940   23.9800 C   0  0  0  0  0  3  0  0  0  0  0  0
  -21.3460   -6.1670   25.1210 C   0  0  0  0  0  3  0  0  0  0  0  0
  -21.5930   -4.7870   25.0020 C   0  0  0  0  0  0  0  0  0  0  0  0
  -21.8950   -4.2310   23.7450 C   0  0  0  0  0  3  0  0  0  0  0  0
  -21.9470   -5.0540   22.6080 C   0  0  0  0  0  0  0  0  0  0  0  0
  -22.2170   -4.5090   21.3970 F   0  0  0  0  0  0  0  0  0  0  0  0
  -21.5370   -3.9910   26.0940 F   0  0  0  0  0  0  0  0  0  0  0  0
  -22.9470  -13.7830   20.9620 C   0  0  0  0  0  0  0  0  0  0  0  0
  -22.1910  -13.1530   21.8540 N   0  0  0  0  0  0  0  0  0  0  0  0
  -22.5400  -14.7880   20.3800 O   0  0  0  0  0  0  0  0  0  0  0  0
  -22.5330  -12.3420   22.3500 H   0  0  0  0  0  0  0  0  0  0  0  0
  -21.2590  -13.4940   22.0460 H   0  0  0  0  0  0  0  0  0  0  0  0
  -25.6280  -15.3420   20.1020 N   0  0  0  0  0  0  0  0  0  0  0  0
  -24.8810  -16.0240   20.1880 H   0  0  0  0  0  0  0  0  0  0  0  0
  -26.4870  -15.7430   19.7520 H   0  0  0  0  0  0  0  0  0  0  0  0
  -29.0000  -22.8470   19.3550 N   0  0  0  0  0  4  0  0  0  0  0  0
  -28.1490  -22.5260   18.9200 H   0  0  0  0  0  0  0  0  0  0  0  0
  -29.6550  -23.0100   18.6070 H   0  0  0  0  0  0  0  0  0  0  0  0
  -28.7480  -24.1800   20.0110 C   0  0  0  0  0  2  0  0  0  0  0  0
  -28.7530  -25.3680   18.9890 C   0  0  0  0  0  2  0  0  0  0  0  0
  -28.5970  -26.7040   19.5400 O   0  0  0  0  0  0  0  0  0  0  0  0
  -24.5920  -31.5480   22.9040 C   0  0  0  0  0  0  0  0  0  0  0  0
  -27.3830  -27.3870   19.5370 C   0  0  0  0  0  0  0  0  0  0  0  0
  -23.4340  -30.2410   21.1500 C   0  0  0  0  0  3  0  0  0  0  0  0
  -24.9400  -28.8500   19.6270 C   0  0  0  0  0  0  0  0  0  0  0  0
  -25.9500  -30.6800   20.9970 C   0  0  0  0  0  2  0  0  0  0  0  0
  -26.0810  -29.3600   20.2570 C   0  0  0  0  0  0  0  0  0  0  0  0
  -27.2990  -28.6350   20.2070 C   0  0  0  0  0  3  0  0  0  0  0  0
  -26.2100  -26.8910   18.9180 C   0  0  0  0  0  3  0  0  0  0  0  0
  -25.0020  -27.6180   18.9560 C   0  0  0  0  0  3  0  0  0  0  0  0
  -23.6690  -29.6640   19.7280 C   0  0  0  0  0  2  0  0  0  0  0  0
  -24.6760  -30.8350   21.7430 N   0  0  0  0  0  0  0  0  0  0  0  0
  -23.5020  -31.7490   23.4560 O   0  0  0  0  0  0  0  0  0  0  0  0
  -22.8060  -29.1380   22.0320 C   0  0  0  0  0  0  0  0  0  0  0  0
  -21.4750  -28.9860   21.9470 N   0  0  0  0  0  0  0  0  0  0  0  0
  -23.5140  -28.4200   22.7440 O   0  0  0  0  0  0  0  0  0  0  0  0
  -20.9620  -29.6110   21.3420 H   0  0  0  0  0  0  0  0  0  0  0  0
  -18.1010  -27.8330   22.5300 C   0  0  0  0  0  0  0  0  0  0  0  0
  -20.6790  -27.9820   22.6530 C   0  0  0  0  0  3  0  0  0  0  0  0
  -20.6900  -26.6340   21.8980 C   0  0  0  0  0  2  0  0  0  0  0  0
  -19.5120  -26.4720   20.9320 C   0  0  0  0  0  2  0  0  0  0  0  0
  -18.1840  -26.5750   21.6840 C   0  0  0  0  0  2  0  0  0  0  0  0
  -19.2730  -28.5030   22.9740 C   0  0  0  0  0  0  0  0  0  0  0  0
  -19.1400  -29.6890   23.7240 C   0  0  0  0  0  3  0  0  0  0  0  0
  -17.8690  -30.2040   24.0420 C   0  0  0  0  0  3  0  0  0  0  0  0
  -16.7120  -29.5290   23.6130 C   0  0  0  0  0  3  0  0  0  0  0  0
  -16.8300  -28.3460   22.8620 C   0  0  0  0  0  3  0  0  0  0  0  0
  -25.8580  -32.1630   23.5790 C   0  0  0  0  0  3  0  0  0  0  0  0
  -25.5070  -33.5220   24.0110 N   0  0  0  0  0  0  0  0  0  0  0  0
  -25.8280  -34.6400   23.3470 C   0  0  0  0  0  0  0  0  0  0  0  0
  -26.5230  -34.6390   22.3270 O   0  0  0  0  0  0  0  0  0  0  0  0
  -24.8870  -33.5990   24.8040 H   0  0  0  0  0  0  0  0  0  0  0  0
  -24.0520  -36.4060   23.1110 C   0  0  0  0  0  1  0  0  0  0  0  0
  -25.2940  -35.9730   23.9050 C   0  0  0  0  0  3  0  0  0  0  0  0
  -27.3920  -36.8500   24.8300 C   0  0  0  0  0  1  0  0  0  0  0  0
  -26.2940  -37.0620   23.8920 N   0  0  0  0  0  0  0  0  0  0  0  0
  -25.8560  -37.9520   24.1120 H   0  0  0  0  0  0  0  0  0  0  0  0
  -26.3930  -31.3130   24.7960 C   0  0  1  0  0  0  0  0  0  0  0  0
  -25.3080  -30.9850   25.8460 C   0  0  0  0  0  1  0  0  0  0  0  0
  -27.0010  -29.9760   24.3080 C   0  0  0  0  0  1  0  0  0  0  0  0
  -27.5230  -32.0830   25.5190 C   0  0  0  0  0  1  0  0  0  0  0  0
  1 19  1  0
  2  7  1  0
  3  4  1  0
  3  2  1  0
  5  4  1  0
  5 23  1  0
  5  6  1  0
  7  1  1  0
  7  6  1  0
  8  1  2  0
  9 11  1  0
 10 12  1  0
 10 17  1  0
 18 13  1  6
 15 13  1  0
 15 19  1  0
 16 14  1  0
 17 48  1  0
 17  9  1  0
 18 12  1  0
 18 11  1  0
 18 14  1  0
 19 16  1  0
 20 21  2  0
 21 22  1  0
 21 40  1  0
 22 25  1  0
 23 20  1  0
 23 24  1  0
 24 22  2  0
 25 26  1  0
 26 27  2  0
 28 31  1  0
 28 27  1  0
 29 28  2  0
 30 29  1  0
 30 25  2  0
 31 32  1  0
 32 33  1  0
 33 34  2  0
 35 34  1  0
 35 39  1  0
 36 35  2  0
 37 32  2  0
 37 36  1  0
 38 37  1  0
 40 41  1  0
 41 44  1  0
 41 43  1  0
 42 40  2  0
 45 46  1  0
 45 20  1  0
 47 45  1  0
 48 51  1  0
 49 48  1  0
 50 48  1  0
 52 53  1  0
 52 51  1  0
 54 65  2  0
 55 53  1  0
 55 60  1  0
 56 64  1  0
 56 66  1  0
 57 63  1  0
 57 59  1  0
 58 64  1  0
 59 58  1  0
 60 59  2  0
 61 62  1  0
 61 55  2  0
 62 57  2  0
 63 56  1  0
 64 54  1  0
 66 68  2  0
 67 66  1  0
 69 67  1  0
 70 79  2  0
 70 75  1  0
 71 67  1  0
 71 75  1  0
 72 71  1  0
 73 74  1  0
 73 72  1  0
 74 70  1  0
 75 76  2  0
 76 77  1  0
 78 77  2  0
 79 78  1  0
 80 54  1  0
 80 81  1  0
 80 90  1  0
 81 84  1  0
 82 86  1  0
 82 81  1  0
 83 82  2  0
 86 85  1  0
 88 86  1  0
 88 89  1  0
 88 87  1  0
 90 93  1  1
 90 91  1  0
 92 90  1  0
M  ISO  4   1 100  19 100  52 101  53 101
M  END
>  <TORSDO>  (61) 
F 18

>  <SCORE>  (61) 
-12.495

>  <name>  (61) 
60

>  <ligand_id>  (61) 
60

>  <original_smiles>  (61) 
[H]c1c([H])c([H])c2c(c1[H])C([H])([H])C([H])([H])C([H])([H])C2([H])N([H])C(=O)C1([H])N(C(=O)C([H])(N([H])C(=O)C([H])(N([H])C([H])([H])[H])C([H])([H])[H])C(C([H])([H])[H])(C([H])([H])[H])C([H])([H])[H])C([H])([H])c2c([H])c(OC([H])([H])C([H])([H])[N+]([H])([H])C3([H])C([H])([H])C([H])([H])C4(C([H])([H])C([H])([H])N(C(=O)N5C([H])([H])C([H])([H])C([H])([H])C([H])(n6nc(-c7c([H])c([H])c(Oc8c([H])c([H])c(F)c([H])c8F)c([H])c7[H])c(C(=O)N([H])[H])c6N([H])[H])C5([H])[H])C([H])([H])C4([H])[H])C([H])([H])C3([H])[H])c([H])c([H])c2C1([H])[H]

>  <smiles>  (61) 
[H]c1c([H])c([H])c2c(c1[H])C([H])([H])C([H])([H])C([H])([H])C2([H])N([H])C(=O)C1([H])N(C(=O)C([H])(N([H])C(=O)C([H])(N([H])C([H])([H])[H])C([H])([H])[H])C(C([H])([H])[H])(C([H])([H])[H])C([H])([H])[H])C([H])([H])c2c([H])c(OC([H])([H])C([H])([H])[N+]([H])([H])C3([H])C([H])([H])C([H])([H])C4(C([H])([H])C([H])([H])N(C(=O)N5C([H])([H])C([H])([H])C([H])([H])C([H])(n6nc(-c7c([H])c([H])c(Oc8c([H])c([H])c(F)c([H])c8F)c([H])c7[H])c(C(=O)N([H])[H])c6N([H])[H])C5([H])[H])C([H])([H])C4([H])[H])C([H])([H])C3([H])[H])c([H])c([H])c2C1([H])[H]

$$$$
61:0:0
     RDKit          3D

 96105  0  0  1  0  0  0  0  0999 V2000
  -31.0250  -14.2670   20.0590 C   0  0  0  0  0  0  0  0  0  0  0  0
  -30.5410  -12.0780   18.9810 C   0  0  0  0  0  2  0  0  0  0  0  0
  -29.5810  -12.3090   17.7970 C   0  0  0  0  0  2  0  0  0  0  0  0
  -28.1180  -12.2660   18.2750 C   0  0  0  0  0  2  0  0  0  0  0  0
  -27.8740  -13.1390   19.5370 C   0  0  0  0  0  3  0  0  0  0  0  0
  -28.9540  -12.9120   20.6130 C   0  0  0  0  0  2  0  0  0  0  0  0
  -30.2590  -13.1310   19.9790 N   0  0  0  0  0  0  0  0  0  0  0  0
  -32.1990  -14.2560   19.6700 O   0  0  0  0  0  0  0  0  0  0  0  0
  -30.8050  -21.3070   20.2340 C   0  0  0  0  0  0  0  0  0  0  0  0
  -28.1050  -20.4370   19.9330 C   0  0  0  0  0  2  0  0  0  0  0  0
  -28.4910  -19.1240   20.6640 C   0  0  0  0  0  2  0  0  0  0  0  0
  -30.4260  -17.9270   19.4060 C   0  0  0  0  0  2  0  0  0  0  0  0
  -30.0490  -17.5490   21.8250 C   0  0  0  0  0  2  0  0  0  0  0  0
  -28.4550  -21.7610   20.6810 C   0  0  0  0  0  2  0  0  0  0  0  0
  -29.9920  -16.4070   19.2720 C   0  0  0  0  0  2  0  0  0  0  0  0
  -30.8700  -16.2410   21.5350 C   0  0  0  0  0  2  0  0  0  0  0  0
  -30.8620  -19.9730   21.1050 C   0  0  0  0  0  3  0  0  0  0  0  0
  -29.9900  -18.6740   20.7120 C   0  0  2  0  0  0  0  0  0  0  0  0
  -29.8280  -22.2350   20.4620 N   0  0  0  0  0  0  0  0  0  0  0  0
  -30.4100  -15.4680   20.3600 N   0  0  0  0  0  0  0  0  0  0  0  0
  -31.7460  -21.5860   19.4850 O   0  0  0  0  0  0  0  0  0  0  0  0
  -25.5590  -13.9160   20.3270 C   0  0  0  0  0  0  0  0  0  0  0  0
  -24.4470  -13.2280   20.7290 C   0  0  0  0  0  0  0  0  0  0  0  0
  -24.8050  -11.8450   20.6930 C   0  0  0  0  0  0  0  0  0  0  0  0
  -26.5250  -12.9590   20.0670 N   0  0  0  0  0  0  0  0  0  0  0  0
  -26.0790  -11.7080   20.3480 N   0  0  0  0  0  0  0  0  0  0  0  0
  -23.9900  -10.6420   20.9080 C   0  0  0  0  0  0  0  0  0  0  0  0
  -24.4100   -9.6090   21.7740 C   0  0  0  0  0  3  0  0  0  0  0  0
  -23.5990   -8.4730   21.9790 C   0  0  0  0  0  3  0  0  0  0  0  0
  -22.3510   -8.3630   21.3210 C   0  0  0  0  0  0  0  0  0  0  0  0
  -21.9490   -9.3820   20.4400 C   0  0  0  0  0  3  0  0  0  0  0  0
  -22.7610  -10.5100   20.2320 C   0  0  0  0  0  3  0  0  0  0  0  0
  -21.5080   -7.2840   21.4410 O   0  0  0  0  0  0  0  0  0  0  0  0
  -21.5650   -6.4440   22.5240 C   0  0  0  0  0  0  0  0  0  0  0  0
  -21.3860   -6.9120   23.8440 C   0  0  0  0  0  3  0  0  0  0  0  0
  -21.3860   -6.0020   24.9190 C   0  0  0  0  0  3  0  0  0  0  0  0
  -21.5510   -4.6250   24.6770 C   0  0  0  0  0  0  0  0  0  0  0  0
  -21.7250   -4.1570   23.3630 C   0  0  0  0  0  3  0  0  0  0  0  0
  -21.7280   -5.0640   22.2890 C   0  0  0  0  0  0  0  0  0  0  0  0
  -21.8730   -4.6040   21.0230 F   0  0  0  0  0  0  0  0  0  0  0  0
  -21.5460   -3.7500   25.7100 F   0  0  0  0  0  0  0  0  0  0  0  0
  -23.0980  -13.8110   21.0370 C   0  0  0  0  0  0  0  0  0  0  0  0
  -22.3460  -13.1770   21.9290 N   0  0  0  0  0  0  0  0  0  0  0  0
  -22.7250  -14.8640   20.5220 O   0  0  0  0  0  0  0  0  0  0  0  0
  -22.6600  -12.3230   22.3680 H   0  0  0  0  0  0  0  0  0  0  0  0
  -21.4390  -13.5480   22.1770 H   0  0  0  0  0  0  0  0  0  0  0  0
  -25.8240  -15.2690   20.1380 N   0  0  0  0  0  0  0  0  0  0  0  0
  -25.1230  -15.9880   20.2830 H   0  0  0  0  0  0  0  0  0  0  0  0
  -26.7110  -15.6390   19.8250 H   0  0  0  0  0  0  0  0  0  0  0  0
  -32.3500  -19.6120   21.3910 C   0  0  0  0  0  2  0  0  0  0  0  0
  -33.1450  -20.6740   22.1850 C   0  0  0  0  0  2  0  0  0  0  0  0
  -35.4530  -21.3810   23.0210 C   0  0  0  0  0  1  0  0  0  0  0  0
  -34.6200  -20.2850   22.3490 C   0  0  0  0  0  2  0  0  0  0  0  0
  -30.1070  -23.6900   20.7950 C   0  0  0  0  0  2  0  0  0  0  0  0
  -29.5610  -24.8370   19.8450 C   0  0  0  0  0  2  0  0  0  0  0  0
  -29.4080  -26.1980   20.4330 O   0  0  0  0  0  0  0  0  0  0  0  0
  -25.0410  -31.2030   23.2640 C   0  0  0  0  0  0  0  0  0  0  0  0
  -28.2350  -26.9620   20.2870 C   0  0  0  0  0  0  0  0  0  0  0  0
  -24.1120  -29.8400   21.4310 C   0  0  0  0  0  3  0  0  0  0  0  0
  -25.7960  -28.4560   20.0990 C   0  0  0  0  0  0  0  0  0  0  0  0
  -26.6350  -30.2930   21.5600 C   0  0  0  0  0  2  0  0  0  0  0  0
  -26.8610  -28.9610   20.8540 C   0  0  0  0  0  0  0  0  0  0  0  0
  -28.0790  -28.2250   20.9420 C   0  0  0  0  0  3  0  0  0  0  0  0
  -27.1440  -26.5190   19.5000 C   0  0  0  0  0  3  0  0  0  0  0  0
  -25.9420  -27.2430   19.4140 C   0  0  0  0  0  3  0  0  0  0  0  0
  -24.5160  -29.2630   20.0490 C   0  0  0  0  0  2  0  0  0  0  0  0
  -25.2750  -30.4610   22.1420 N   0  0  0  0  0  0  0  0  0  0  0  0
  -23.8890  -31.3940   23.6820 O   0  0  0  0  0  0  0  0  0  0  0  0
  -23.4080  -28.7350   22.2540 C   0  0  0  0  0  0  0  0  0  0  0  0
  -22.0940  -28.5600   22.0310 N   0  0  0  0  0  0  0  0  0  0  0  0
  -24.0440  -28.0440   23.0530 O   0  0  0  0  0  0  0  0  0  0  0  0
  -21.6430  -29.1710   21.3650 H   0  0  0  0  0  0  0  0  0  0  0  0
  -18.6910  -27.3530   22.2710 C   0  0  0  0  0  0  0  0  0  0  0  0
  -21.2390  -27.5540   22.6650 C   0  0  0  0  0  3  0  0  0  0  0  0
  -21.3550  -26.1920   21.9420 C   0  0  0  0  0  2  0  0  0  0  0  0
  -20.2900  -25.9910   20.8590 C   0  0  0  0  0  2  0  0  0  0  0  0
  -18.8850  -26.0820   21.4610 C   0  0  0  0  0  2  0  0  0  0  0  0
  -19.7980  -28.0520   22.8230 C   0  0  0  0  0  0  0  0  0  0  0  0
  -19.5650  -29.2470   23.5370 C   0  0  0  0  0  3  0  0  0  0  0  0
  -18.2580  -29.7410   23.7090 C   0  0  0  0  0  3  0  0  0  0  0  0
  -17.1650  -29.0360   23.1760 C   0  0  0  0  0  3  0  0  0  0  0  0
  -17.3820  -27.8450   22.4600 C   0  0  0  0  0  3  0  0  0  0  0  0
  -26.2070  -31.8650   24.0610 C   0  0  0  0  0  3  0  0  0  0  0  0
  -26.5340  -31.1210   25.4140 C   0  0  1  0  0  0  0  0  0  0  0  0
  -25.2990  -30.8930   26.3190 C   0  0  0  0  0  1  0  0  0  0  0  0
  -27.1710  -29.7390   25.1370 C   0  0  0  0  0  1  0  0  0  0  0  0
  -27.5740  -31.9340   26.2180 C   0  0  0  0  0  1  0  0  0  0  0  0
  -25.8300  -33.2630   24.3190 N   0  0  0  0  0  0  0  0  0  0  0  0
  -26.2490  -34.3110   23.5970 C   0  0  0  0  0  0  0  0  0  0  0  0
  -27.0620  -34.2040   22.6740 O   0  0  0  0  0  0  0  0  0  0  0  0
  -25.1260  -33.4180   25.0260 H   0  0  0  0  0  0  0  0  0  0  0  0
  -24.5650  -36.0700   22.9680 C   0  0  0  0  0  1  0  0  0  0  0  0
  -25.6800  -35.6960   23.9580 C   0  0  0  0  0  3  0  0  0  0  0  0
  -27.6480  -36.6340   25.0850 C   0  0  0  0  0  1  0  0  0  0  0  0
  -26.7010  -36.7660   23.9810 N   0  0  0  0  0  0  0  0  0  0  0  0
  -26.2620  -37.6800   24.0460 H   0  0  0  0  0  0  0  0  0  0  0  0
  1 20  1  0
  2  7  1  0
  3  4  1  0
  3  2  1  0
  5  4  1  0
  5 25  1  0
  5  6  1  0
  7  1  1  0
  7  6  1  0
  8  1  2  0
  9 19  1  0
  9 17  1  0
 10 11  1  0
 10 14  1  0
 18 11  1  6
 15 12  1  0
 15 20  1  0
 16 13  1  0
 17 50  1  0
 18 12  1  0
 18 17  1  0
 18 13  1  0
 19 14  1  0
 19 54  1  0
 20 16  1  0
 21  9  2  0
 22 23  2  0
 23 42  1  0
 24 23  1  0
 24 27  1  0
 25 22  1  0
 25 26  1  0
 26 24  2  0
 27 28  1  0
 28 29  2  0
 30 33  1  0
 30 29  1  0
 31 30  2  0
 32 31  1  0
 32 27  2  0
 33 34  1  0
 34 35  1  0
 35 36  2  0
 37 36  1  0
 37 41  1  0
 38 37  2  0
 39 34  2  0
 39 38  1  0
 40 39  1  0
 42 43  1  0
 43 46  1  0
 43 45  1  0
 44 42  2  0
 47 48  1  0
 47 22  1  0
 49 47  1  0
 50 51  1  0
 51 53  1  0
 53 52  1  0
 55 56  1  0
 55 54  1  0
 57 68  2  0
 58 56  1  0
 58 63  1  0
 59 67  1  0
 59 69  1  0
 60 62  1  0
 61 67  1  0
 62 63  2  0
 62 61  1  0
 64 58  2  0
 65 64  1  0
 65 60  2  0
 66 60  1  0
 66 59  1  0
 67 57  1  0
 69 71  2  0
 70 69  1  0
 72 70  1  0
 73 82  2  0
 73 78  1  0
 74 70  1  0
 74 78  1  0
 75 74  1  0
 76 77  1  0
 76 75  1  0
 77 73  1  0
 78 79  2  0
 79 80  1  0
 81 80  2  0
 82 81  1  0
 83 57  1  0
 83 88  1  0
 83 84  1  0
 84 87  1  1
 84 85  1  0
 86 84  1  0
 88 91  1  0
 89 93  1  0
 89 88  1  0
 90 89  2  0
 93 92  1  0
 93 95  1  0
 95 96  1  0
 95 94  1  0
M  ISO  4   1 100  20 100  55 101  56 101
M  END
>  <TORSDO>  (62) 
F 20

>  <SCORE>  (62) 
-12.643

>  <name>  (62) 
61

>  <ligand_id>  (62) 
61

>  <original_smiles>  (62) 
[H]c1c([H])c([H])c2c(c1[H])C([H])([H])C([H])([H])C([H])([H])C2([H])N([H])C(=O)C1([H])N(C(=O)C([H])(N([H])C(=O)C([H])(N([H])C([H])([H])[H])C([H])([H])[H])C(C([H])([H])[H])(C([H])([H])[H])C([H])([H])[H])C([H])([H])c2c([H])c(OC([H])([H])C([H])([H])N3C(=O)C([H])(C([H])([H])C([H])([H])C([H])([H])C([H])([H])[H])C4(C([H])([H])C([H])([H])N(C(=O)N5C([H])([H])C([H])([H])C([H])([H])C([H])(n6nc(-c7c([H])c([H])c(Oc8c([H])c([H])c(F)c([H])c8F)c([H])c7[H])c(C(=O)N([H])[H])c6N([H])[H])C5([H])[H])C([H])([H])C4([H])[H])C([H])([H])C([H])([H])C3([H])[H])c([H])c([H])c2C1([H])[H]

>  <smiles>  (62) 
[H]c1c([H])c([H])c2c(c1[H])C([H])([H])C([H])([H])C([H])([H])C2([H])N([H])C(=O)C1([H])N(C(=O)C([H])(N([H])C(=O)C([H])(N([H])C([H])([H])[H])C([H])([H])[H])C(C([H])([H])[H])(C([H])([H])[H])C([H])([H])[H])C([H])([H])c2c([H])c(OC([H])([H])C([H])([H])N3C(=O)C([H])(C([H])([H])C([H])([H])C([H])([H])C([H])([H])[H])C4(C([H])([H])C([H])([H])N(C(=O)N5C([H])([H])C([H])([H])C([H])([H])C([H])(n6nc(-c7c([H])c([H])c(Oc8c([H])c([H])c(F)c([H])c8F)c([H])c7[H])c(C(=O)N([H])[H])c6N([H])[H])C5([H])[H])C([H])([H])C4([H])[H])C([H])([H])C([H])([H])C3([H])[H])c([H])c([H])c2C1([H])[H]

$$$$
62:0:0
     RDKit          3D

 97105  0  0  1  0  0  0  0  0999 V2000
  -30.3540  -21.2270   19.2900 C   0  0  0  0  0  3  0  0  0  0  0  0
  -30.0980  -22.6090   19.3340 C   0  0  0  0  0  3  0  0  0  0  0  0
  -31.0950  -20.6130   20.3160 C   0  0  0  0  0  3  0  0  0  0  0  0
  -31.3070  -22.7580   21.4500 C   0  0  0  0  0  3  0  0  0  0  0  0
  -30.5810  -23.3780   20.4110 C   0  0  0  0  0  0  0  0  0  0  0  0
  -31.5800  -21.3720   21.4050 C   0  0  0  0  0  0  0  0  0  0  0  0
  -33.6470  -21.4860   22.9080 C   0  0  0  0  0  1  0  0  0  0  0  0
  -32.3950  -20.6910   22.5000 C   0  0  0  0  0  3  0  0  0  0  0  0
  -31.5450  -20.4180   23.6790 N   0  0  0  0  0  4  0  0  0  0  0  0
  -31.9100  -20.9420   24.4570 H   0  0  0  0  0  0  0  0  0  0  0  0
  -30.6190  -20.7610   23.4910 H   0  0  0  0  0  0  0  0  0  0  0  0
  -31.4340  -18.9960   24.0650 C   0  0  0  0  0  2  0  0  0  0  0  0
  -30.1530  -18.3620   23.4940 C   0  0  0  0  0  2  0  0  0  0  0  0
  -30.2340  -16.8410   23.3220 C   0  0  0  0  0  2  0  0  0  0  0  0
  -31.0620  -16.4190   22.0970 C   0  0  0  0  0  2  0  0  0  0  0  0
  -30.6490  -15.0230   21.6240 C   0  0  0  0  0  2  0  0  0  0  0  0
  -31.7120  -13.7420   19.7430 C   0  0  0  0  0  0  0  0  0  0  0  0
  -30.9860  -11.7650   18.4540 C   0  0  0  0  0  2  0  0  0  0  0  0
  -29.9920  -12.1370   17.3380 C   0  0  0  0  0  2  0  0  0  0  0  0
  -28.5450  -12.1960   17.8700 C   0  0  0  0  0  2  0  0  0  0  0  0
  -28.4320  -13.0340   19.1720 C   0  0  0  0  0  3  0  0  0  0  0  0
  -29.4970  -12.5480   20.1770 C   0  0  0  0  0  2  0  0  0  0  0  0
  -30.8280  -12.7180   19.5650 N   0  0  0  0  0  0  0  0  0  0  0  0
  -32.6570  -13.9510   18.9790 O   0  0  0  0  0  0  0  0  0  0  0  0
  -31.7390  -14.3220   20.9520 N   0  0  0  0  0  0  0  0  0  0  0  0
  -32.6510  -14.6970   21.1690 H   0  0  0  0  0  0  0  0  0  0  0  0
  -26.1980  -13.9960   20.0340 C   0  0  0  0  0  0  0  0  0  0  0  0
  -25.0560  -13.3890   20.4830 C   0  0  0  0  0  0  0  0  0  0  0  0
  -25.3080  -11.9840   20.4240 C   0  0  0  0  0  0  0  0  0  0  0  0
  -27.0850  -12.9690   19.7370 N   0  0  0  0  0  0  0  0  0  0  0  0
  -26.5520  -11.7540   20.0210 N   0  0  0  0  0  0  0  0  0  0  0  0
  -24.4200  -10.8410   20.6730 C   0  0  0  0  0  0  0  0  0  0  0  0
  -24.7730   -9.8170   21.5800 C   0  0  0  0  0  3  0  0  0  0  0  0
  -23.8960   -8.7370   21.8150 C   0  0  0  0  0  3  0  0  0  0  0  0
  -22.6520   -8.6750   21.1450 C   0  0  0  0  0  0  0  0  0  0  0  0
  -22.3160   -9.6840   20.2270 C   0  0  0  0  0  3  0  0  0  0  0  0
  -23.1910  -10.7570   19.9900 C   0  0  0  0  0  3  0  0  0  0  0  0
  -21.7470   -7.6510   21.2930 O   0  0  0  0  0  0  0  0  0  0  0  0
  -21.6400   -6.9480   22.4650 C   0  0  0  0  0  0  0  0  0  0  0  0
  -21.4070   -7.5900   23.7010 C   0  0  0  0  0  3  0  0  0  0  0  0
  -21.2340   -6.8250   24.8710 C   0  0  0  0  0  3  0  0  0  0  0  0
  -21.2840   -5.4190   24.8080 C   0  0  0  0  0  0  0  0  0  0  0  0
  -21.5120   -4.7780   23.5780 C   0  0  0  0  0  3  0  0  0  0  0  0
  -21.6860   -5.5400   22.4110 C   0  0  0  0  0  0  0  0  0  0  0  0
  -21.8830   -4.9160   21.2230 F   0  0  0  0  0  0  0  0  0  0  0  0
  -21.1110   -4.6820   25.9300 F   0  0  0  0  0  0  0  0  0  0  0  0
  -23.7670  -14.0640   20.8590 C   0  0  0  0  0  0  0  0  0  0  0  0
  -23.0310  -13.5000   21.8100 N   0  0  0  0  0  0  0  0  0  0  0  0
  -23.4300  -15.1270   20.3400 O   0  0  0  0  0  0  0  0  0  0  0  0
  -23.3180  -12.6400   22.2530 H   0  0  0  0  0  0  0  0  0  0  0  0
  -22.1660  -13.9360   22.0990 H   0  0  0  0  0  0  0  0  0  0  0  0
  -26.5490  -15.3280   19.8390 N   0  0  0  0  0  0  0  0  0  0  0  0
  -25.8900  -16.0830   19.9890 H   0  0  0  0  0  0  0  0  0  0  0  0
  -27.4310  -15.6440   19.4570 H   0  0  0  0  0  0  0  0  0  0  0  0
  -30.3590  -24.8780   20.4350 C   0  0  0  0  0  2  0  0  0  0  0  0
  -28.8790  -25.2670   20.4920 C   0  0  0  0  0  2  0  0  0  0  0  0
  -28.8520  -26.6840   20.4830 O   0  0  0  0  0  0  0  0  0  0  0  0
  -24.7840  -31.7430   23.2910 C   0  0  0  0  0  0  0  0  0  0  0  0
  -27.6310  -27.3070   20.4310 C   0  0  0  0  0  0  0  0  0  0  0  0
  -23.6710  -30.2840   21.6290 C   0  0  0  0  0  3  0  0  0  0  0  0
  -25.2070  -28.7390   20.3110 C   0  0  0  0  0  0  0  0  0  0  0  0
  -26.1910  -30.6950   21.5250 C   0  0  0  0  0  2  0  0  0  0  0  0
  -26.3250  -29.3100   20.9300 C   0  0  0  0  0  0  0  0  0  0  0  0
  -27.5420  -28.6000   20.9820 C   0  0  0  0  0  3  0  0  0  0  0  0
  -26.4920  -26.7310   19.8250 C   0  0  0  0  0  3  0  0  0  0  0  0
  -25.2810  -27.4480   19.7600 C   0  0  0  0  0  3  0  0  0  0  0  0
  -23.9520  -29.5800   20.2750 C   0  0  0  0  0  2  0  0  0  0  0  0
  -24.8990  -30.9220   22.2090 N   0  0  0  0  0  0  0  0  0  0  0  0
  -23.6770  -32.0080   23.7780 O   0  0  0  0  0  0  0  0  0  0  0  0
  -22.9980  -29.2710   22.5830 C   0  0  0  0  0  0  0  0  0  0  0  0
  -21.6810  -29.0710   22.4090 N   0  0  0  0  0  0  0  0  0  0  0  0
  -23.6560  -28.6690   23.4360 O   0  0  0  0  0  0  0  0  0  0  0  0
  -21.2170  -29.6100   21.6930 H   0  0  0  0  0  0  0  0  0  0  0  0
  -18.3040  -27.8530   22.7860 C   0  0  0  0  0  0  0  0  0  0  0  0
  -20.8450  -28.1420   23.1650 C   0  0  0  0  0  3  0  0  0  0  0  0
  -20.9890  -26.7000   22.6260 C   0  0  0  0  0  2  0  0  0  0  0  0
  -19.9350  -26.3440   21.5730 C   0  0  0  0  0  2  0  0  0  0  0  0
  -18.5230  -26.4890   22.1520 C   0  0  0  0  0  2  0  0  0  0  0  0
  -19.3950  -28.6350   23.2480 C   0  0  0  0  0  0  0  0  0  0  0  0
  -19.1390  -29.9090   23.7990 C   0  0  0  0  0  3  0  0  0  0  0  0
  -17.8240  -30.4010   23.8950 C   0  0  0  0  0  3  0  0  0  0  0  0
  -16.7460  -29.6160   23.4510 C   0  0  0  0  0  3  0  0  0  0  0  0
  -16.9880  -28.3440   22.9010 C   0  0  0  0  0  3  0  0  0  0  0  0
  -26.0330  -32.4070   23.9500 C   0  0  0  0  0  3  0  0  0  0  0  0
  -26.5090  -31.6740   25.2620 C   0  0  1  0  0  0  0  0  0  0  0  0
  -25.3780  -31.4410   26.2900 C   0  0  0  0  0  1  0  0  0  0  0  0
  -27.1250  -30.2980   24.9150 C   0  0  0  0  0  1  0  0  0  0  0  0
  -27.6190  -32.4980   25.9550 C   0  0  0  0  0  1  0  0  0  0  0  0
  -25.6930  -33.8080   24.2300 N   0  0  0  0  0  0  0  0  0  0  0  0
  -26.0490  -34.8470   23.4610 C   0  0  0  0  0  0  0  0  0  0  0  0
  -26.7690  -34.7270   22.4660 O   0  0  0  0  0  0  0  0  0  0  0  0
  -25.0620  -33.9740   25.0020 H   0  0  0  0  0  0  0  0  0  0  0  0
  -24.3200  -36.6060   22.9700 C   0  0  0  0  0  1  0  0  0  0  0  0
  -25.5190  -36.2380   23.8580 C   0  0  0  0  0  3  0  0  0  0  0  0
  -27.5950  -37.1650   24.7820 C   0  0  0  0  0  1  0  0  0  0  0  0
  -26.5430  -37.3030   23.7790 N   0  0  0  0  0  0  0  0  0  0  0  0
  -26.1190  -38.2200   23.8940 H   0  0  0  0  0  0  0  0  0  0  0  0
  1  2  2  0
  1  3  1  0
  2  5  1  0
  3  6  2  0
  5 55  1  0
  5  4  2  0
  6  4  1  0
  6  8  1  0
  8  7  1  0
  8  9  1  0
  9 12  1  0
  9 10  1  0
 11  9  1  0
 13 12  1  0
 14 13  1  0
 15 14  1  0
 16 15  1  0
 17 25  1  0
 18 23  1  0
 19 20  1  0
 19 18  1  0
 21 20  1  0
 21 30  1  0
 21 22  1  0
 23 17  1  0
 23 22  1  0
 24 17  2  0
 25 26  1  0
 25 16  1  0
 27 28  2  0
 28 47  1  0
 29 28  1  0
 29 32  1  0
 30 31  1  0
 30 27  1  0
 31 29  2  0
 32 33  1  0
 33 34  2  0
 35 38  1  0
 35 34  1  0
 36 35  2  0
 37 36  1  0
 37 32  2  0
 38 39  1  0
 39 40  1  0
 40 41  2  0
 42 41  1  0
 42 46  1  0
 43 42  2  0
 44 39  2  0
 44 43  1  0
 45 44  1  0
 47 48  1  0
 48 51  1  0
 48 50  1  0
 49 47  2  0
 52 53  1  0
 52 27  1  0
 54 52  1  0
 55 56  1  0
 57 56  1  0
 58 69  2  0
 59 57  1  0
 59 64  1  0
 60 68  1  0
 60 70  1  0
 61 63  1  0
 62 68  1  0
 63 64  2  0
 63 62  1  0
 65 59  2  0
 66 65  1  0
 66 61  2  0
 67 61  1  0
 67 60  1  0
 68 58  1  0
 70 72  2  0
 71 70  1  0
 73 71  1  0
 74 83  2  0
 74 79  1  0
 75 71  1  0
 75 79  1  0
 76 75  1  0
 77 78  1  0
 77 76  1  0
 78 74  1  0
 79 80  2  0
 80 81  1  0
 82 81  2  0
 83 82  1  0
 84 58  1  0
 84 89  1  0
 84 85  1  0
 85 88  1  1
 85 86  1  0
 87 85  1  0
 89 92  1  0
 90 94  1  0
 90 89  1  0
 91 90  2  0
 94 93  1  0
 96 94  1  0
 96 97  1  0
 96 95  1  0
M  ISO  4  17 100  25 100  56 101  57 101
M  END
>  <TORSDO>  (63) 
F 25

>  <SCORE>  (63) 
-7.861

>  <name>  (63) 
62

>  <ligand_id>  (63) 
62

>  <original_smiles>  (63) 
[H]c1c([H])c([H])c2c(c1[H])C([H])([H])C([H])([H])C([H])([H])C2([H])N([H])C(=O)C1([H])N(C(=O)C([H])(N([H])C(=O)C([H])(N([H])C([H])([H])[H])C([H])([H])[H])C(C([H])([H])[H])(C([H])([H])[H])C([H])([H])[H])C([H])([H])c2c([H])c(OC([H])([H])C([H])([H])c3c([H])c([H])c([H])c(C([H])(C([H])([H])[H])[N+]([H])([H])C([H])([H])C([H])([H])C([H])([H])C([H])([H])C([H])([H])N([H])C(=O)N4C([H])([H])C([H])([H])C([H])([H])C([H])(n5nc(-c6c([H])c([H])c(Oc7c([H])c([H])c(F)c([H])c7F)c([H])c6[H])c(C(=O)N([H])[H])c5N([H])[H])C4([H])[H])c3[H])c([H])c([H])c2C1([H])[H]

>  <smiles>  (63) 
[H]c1c([H])c([H])c2c(c1[H])C([H])([H])C([H])([H])C([H])([H])C2([H])N([H])C(=O)C1([H])N(C(=O)C([H])(N([H])C(=O)C([H])(N([H])C([H])([H])[H])C([H])([H])[H])C(C([H])([H])[H])(C([H])([H])[H])C([H])([H])[H])C([H])([H])c2c([H])c(OC([H])([H])C([H])([H])c3c([H])c([H])c([H])c(C([H])(C([H])([H])[H])[N+]([H])([H])C([H])([H])C([H])([H])C([H])([H])C([H])([H])C([H])([H])N([H])C(=O)N4C([H])([H])C([H])([H])C([H])([H])C([H])(n5nc(-c6c([H])c([H])c(Oc7c([H])c([H])c(F)c([H])c7F)c([H])c6[H])c(C(=O)N([H])[H])c5N([H])[H])C4([H])[H])c3[H])c([H])c([H])c2C1([H])[H]

$$$$
63:0:0
     RDKit          3D

 98106  0  0  1  0  0  0  0  0999 V2000
  -28.0540  -21.3380   19.2970 C   0  0  0  0  0  3  0  0  0  0  0  0
  -29.2950  -20.5050   21.2230 C   0  0  0  0  0  3  0  0  0  0  0  0
  -28.7160  -22.8730   21.0680 C   0  0  0  0  0  3  0  0  0  0  0  0
  -28.6330  -20.2490   19.9950 C   0  0  0  0  0  0  0  0  0  0  0  0
  -28.0510  -22.6500   19.8440 C   0  0  0  0  0  0  0  0  0  0  0  0
  -29.3750  -21.8150   21.7430 C   0  0  0  0  0  0  0  0  0  0  0  0
  -28.4860  -18.8380   19.4570 C   0  0  0  0  0  0  0  0  0  0  0  0
  -29.3080  -17.8940   19.9500 N   0  0  0  0  0  0  0  0  0  0  0  0
  -27.6450  -18.5900   18.5890 O   0  0  0  0  0  0  0  0  0  0  0  0
  -29.9940  -18.1960   20.6290 H   0  0  0  0  0  0  0  0  0  0  0  0
  -29.3220  -16.4790   19.5470 C   0  0  0  0  0  2  0  0  0  0  0  0
  -29.9370  -15.5480   20.6260 C   0  0  0  0  0  2  0  0  0  0  0  0
  -30.5890  -14.2890   20.0130 C   0  0  0  0  0  0  0  0  0  0  0  0
  -30.2320  -12.1340   18.8940 C   0  0  0  0  0  2  0  0  0  0  0  0
  -29.1940  -12.3530   17.7720 C   0  0  0  0  0  2  0  0  0  0  0  0
  -27.7600  -12.1900   18.3070 C   0  0  0  0  0  2  0  0  0  0  0  0
  -27.5150  -12.9750   19.6210 C   0  0  0  0  0  3  0  0  0  0  0  0
  -28.6660  -12.7780   20.6330 C   0  0  0  0  0  2  0  0  0  0  0  0
  -29.9340  -13.1030   19.9600 N   0  0  0  0  0  0  0  0  0  0  0  0
  -31.6790  -14.4630   19.4560 O   0  0  0  0  0  0  0  0  0  0  0  0
  -25.1880  -13.5290   20.5660 C   0  0  0  0  0  0  0  0  0  0  0  0
  -24.1670  -12.7290   21.0050 C   0  0  0  0  0  0  0  0  0  0  0  0
  -24.6350  -11.3840   20.8820 C   0  0  0  0  0  0  0  0  0  0  0  0
  -26.2190  -12.6670   20.2130 N   0  0  0  0  0  0  0  0  0  0  0  0
  -25.8960  -11.3750   20.4630 N   0  0  0  0  0  0  0  0  0  0  0  0
  -23.9430  -10.1060   21.0910 C   0  0  0  0  0  0  0  0  0  0  0  0
  -24.4030   -9.1690   22.0400 C   0  0  0  0  0  3  0  0  0  0  0  0
  -23.7080   -7.9560   22.2400 C   0  0  0  0  0  3  0  0  0  0  0  0
  -22.5440   -7.6720   21.4880 C   0  0  0  0  0  0  0  0  0  0  0  0
  -22.1020   -8.5990   20.5280 C   0  0  0  0  0  3  0  0  0  0  0  0
  -22.7970   -9.8030   20.3260 C   0  0  0  0  0  3  0  0  0  0  0  0
  -21.8270   -6.5060   21.5910 O   0  0  0  0  0  0  0  0  0  0  0  0
  -21.7440   -5.8120   22.7710 C   0  0  0  0  0  0  0  0  0  0  0  0
  -21.1130   -6.3530   23.9100 C   0  0  0  0  0  3  0  0  0  0  0  0
  -20.9890   -5.5800   25.0830 C   0  0  0  0  0  3  0  0  0  0  0  0
  -21.4870   -4.2630   25.1140 C   0  0  0  0  0  0  0  0  0  0  0  0
  -22.1040   -3.7200   23.9750 C   0  0  0  0  0  3  0  0  0  0  0  0
  -22.2300   -4.4910   22.8080 C   0  0  0  0  0  0  0  0  0  0  0  0
  -22.8080   -3.9530   21.7060 F   0  0  0  0  0  0  0  0  0  0  0  0
  -21.3640   -3.5140   26.2350 F   0  0  0  0  0  0  0  0  0  0  0  0
  -22.7930  -13.1750   21.4160 C   0  0  0  0  0  0  0  0  0  0  0  0
  -22.1460  -12.4320   22.3030 N   0  0  0  0  0  0  0  0  0  0  0  0
  -22.3010  -14.2180   20.9830 O   0  0  0  0  0  0  0  0  0  0  0  0
  -22.5590  -11.5900   22.6810 H   0  0  0  0  0  0  0  0  0  0  0  0
  -21.2240  -12.7130   22.6060 H   0  0  0  0  0  0  0  0  0  0  0  0
  -25.3240  -14.9070   20.4180 N   0  0  0  0  0  0  0  0  0  0  0  0
  -24.5770  -15.5620   20.6160 H   0  0  0  0  0  0  0  0  0  0  0  0
  -26.1520  -15.3680   20.0630 H   0  0  0  0  0  0  0  0  0  0  0  0
  -30.5570  -23.3910   23.2060 C   0  0  0  0  0  1  0  0  0  0  0  0
  -30.1070  -22.0260   22.9240 N   0  0  0  0  0  0  0  0  0  0  0  0
  -30.7340  -21.2730   23.2030 H   0  0  0  0  0  0  0  0  0  0  0  0
  -27.2370  -23.7530   19.1530 C   0  0  0  0  0  3  0  0  0  0  0  0
  -25.9030  -23.7920   19.8060 N   0  0  0  0  0  4  0  0  0  0  0  0
  -25.9110  -24.3350   20.6540 H   0  0  0  0  0  0  0  0  0  0  0  0
  -25.6230  -22.8570   20.0520 H   0  0  0  0  0  0  0  0  0  0  0  0
  -25.1940  -24.1500   19.1880 H   0  0  0  0  0  0  0  0  0  0  0  0
  -27.9170  -25.1630   18.9020 C   0  0  0  0  0  2  0  0  0  0  0  0
  -27.8250  -26.2280   19.8900 O   0  0  0  0  0  0  0  0  0  0  0  0
  -24.3620  -31.6060   23.1320 C   0  0  0  0  0  0  0  0  0  0  0  0
  -26.7240  -27.0770   19.8790 C   0  0  0  0  0  0  0  0  0  0  0  0
  -23.0710  -30.3110   21.4700 C   0  0  0  0  0  3  0  0  0  0  0  0
  -24.4320  -28.7560   19.9610 C   0  0  0  0  0  0  0  0  0  0  0  0
  -25.6120  -30.5110   21.2760 C   0  0  0  0  0  2  0  0  0  0  0  0
  -25.6100  -29.1540   20.6000 C   0  0  0  0  0  0  0  0  0  0  0  0
  -26.7470  -28.3060   20.5930 C   0  0  0  0  0  3  0  0  0  0  0  0
  -25.5390  -26.7450   19.1800 C   0  0  0  0  0  3  0  0  0  0  0  0
  -24.3990  -27.5570   19.2380 C   0  0  0  0  0  3  0  0  0  0  0  0
  -23.2320  -29.6690   20.0630 C   0  0  0  0  0  2  0  0  0  0  0  0
  -24.3670  -30.8300   22.0130 N   0  0  0  0  0  0  0  0  0  0  0  0
  -23.3050  -31.9250   23.6900 O   0  0  0  0  0  0  0  0  0  0  0  0
  -22.3810  -29.2980   22.4100 C   0  0  0  0  0  0  0  0  0  0  0  0
  -21.0470  -29.1870   22.2930 N   0  0  0  0  0  0  0  0  0  0  0  0
  -23.0360  -28.6210   23.2070 O   0  0  0  0  0  0  0  0  0  0  0  0
  -20.5780  -29.7840   21.6270 H   0  0  0  0  0  0  0  0  0  0  0  0
  -17.6150  -28.1780   22.8190 C   0  0  0  0  0  0  0  0  0  0  0  0
  -20.1890  -28.2690   23.0430 C   0  0  0  0  0  3  0  0  0  0  0  0
  -20.1910  -26.8600   22.4050 C   0  0  0  0  0  2  0  0  0  0  0  0
  -19.0480  -26.6490   21.4070 C   0  0  0  0  0  2  0  0  0  0  0  0
  -17.6930  -26.8500   22.0880 C   0  0  0  0  0  2  0  0  0  0  0  0
  -18.7870  -28.8530   23.2530 C   0  0  0  0  0  0  0  0  0  0  0  0
  -18.6580  -30.1030   23.8980 C   0  0  0  0  0  3  0  0  0  0  0  0
  -17.3900  -30.6780   24.1100 C   0  0  0  0  0  3  0  0  0  0  0  0
  -16.2320  -29.9980   23.6940 C   0  0  0  0  0  3  0  0  0  0  0  0
  -16.3460  -28.7480   23.0570 C   0  0  0  0  0  3  0  0  0  0  0  0
  -25.6860  -32.1540   23.7540 C   0  0  0  0  0  3  0  0  0  0  0  0
  -26.1590  -31.3440   25.0240 C   0  0  1  0  0  0  0  0  0  0  0  0
  -25.0480  -31.1510   26.0840 C   0  0  0  0  0  1  0  0  0  0  0  0
  -26.6760  -29.9460   24.6150 C   0  0  0  0  0  1  0  0  0  0  0  0
  -27.3470  -32.0730   25.6970 C   0  0  0  0  0  1  0  0  0  0  0  0
  -25.4670  -33.5670   24.0910 N   0  0  0  0  0  0  0  0  0  0  0  0
  -25.8530  -34.6030   23.3350 C   0  0  0  0  0  0  0  0  0  0  0  0
  -26.5010  -34.4670   22.2940 O   0  0  0  0  0  0  0  0  0  0  0  0
  -24.8880  -33.7490   24.8990 H   0  0  0  0  0  0  0  0  0  0  0  0
  -24.2400  -36.5040   23.0040 C   0  0  0  0  0  1  0  0  0  0  0  0
  -25.4570  -36.0150   23.8060 C   0  0  0  0  0  3  0  0  0  0  0  0
  -27.6330  -36.7710   24.6570 C   0  0  0  0  0  1  0  0  0  0  0  0
  -26.5540  -37.0030   23.7000 N   0  0  0  0  0  0  0  0  0  0  0  0
  -26.2040  -37.9470   23.8400 H   0  0  0  0  0  0  0  0  0  0  0  0
  1  5  2  0
  1  4  1  0
  2  6  1  0
  3  6  2  0
  4  2  2  0
  5  3  1  0
  6 50  1  0
  7  8  1  0
  7  4  1  0
  8 10  1  0
  9  7  2  0
 11  8  1  0
 11 12  1  0
 13 12  1  0
 14 19  1  0
 15 16  1  0
 15 14  1  0
 17 16  1  0
 17 24  1  0
 17 18  1  0
 19 13  1  0
 19 18  1  0
 20 13  2  0
 21 22  2  0
 22 41  1  0
 23 22  1  0
 23 26  1  0
 24 25  1  0
 24 21  1  0
 25 23  2  0
 26 27  1  0
 27 28  2  0
 29 32  1  0
 29 28  1  0
 30 29  2  0
 31 30  1  0
 31 26  2  0
 32 33  1  0
 33 38  2  0
 33 34  1  0
 34 35  2  0
 35 36  1  0
 36 40  1  0
 37 36  2  0
 38 37  1  0
 39 38  1  0
 41 42  1  0
 42 45  1  0
 42 44  1  0
 43 41  2  0
 46 21  1  0
 46 47  1  0
 48 46  1  0
 50 51  1  0
 50 49  1  0
 52 57  1  0
 52 53  1  0
 52  5  1  0
 53 55  1  0
 53 54  1  0
 56 53  1  0
 57 58  1  0
 59 70  2  0
 60 58  1  0
 60 65  1  0
 61 69  1  0
 61 71  1  0
 62 68  1  0
 62 64  1  0
 63 69  1  0
 64 63  1  0
 65 64  2  0
 66 67  1  0
 66 60  2  0
 67 62  2  0
 68 61  1  0
 69 59  1  0
 71 73  2  0
 72 71  1  0
 74 72  1  0
 75 84  2  0
 75 80  1  0
 76 72  1  0
 76 80  1  0
 77 76  1  0
 78 79  1  0
 78 77  1  0
 79 75  1  0
 80 81  2  0
 81 82  1  0
 83 82  2  0
 84 83  1  0
 85 59  1  0
 85 90  1  0
 85 86  1  0
 86 89  1  1
 86 87  1  0
 88 86  1  0
 90 93  1  0
 91 95  1  0
 91 90  1  0
 92 91  2  0
 95 94  1  0
 97 95  1  0
 97 98  1  0
 97 96  1  0
M  ISO  4  12 100  13 100  57 101  58 101
M  END
>  <TORSDO>  (64) 
F 23

>  <SCORE>  (64) 
-11.942

>  <name>  (64) 
63

>  <ligand_id>  (64) 
63

>  <original_smiles>  (64) 
[H]c1c([H])c([H])c2c(c1[H])C([H])([H])C([H])([H])C([H])([H])C2([H])N([H])C(=O)C1([H])N(C(=O)C([H])(N([H])C(=O)C([H])(N([H])C([H])([H])[H])C([H])([H])[H])C(C([H])([H])[H])(C([H])([H])[H])C([H])([H])[H])C([H])([H])c2c([H])c(OC([H])([H])C([H])(c3c([H])c(C(=O)N([H])C([H])([H])C([H])([H])C(=O)N4C([H])([H])C([H])([H])C([H])([H])C([H])(n5nc(-c6c([H])c([H])c(Oc7c([H])c([H])c(F)c([H])c7F)c([H])c6[H])c(C(=O)N([H])[H])c5N([H])[H])C4([H])[H])c([H])c(N([H])C([H])([H])[H])c3[H])[N+]([H])([H])[H])c([H])c([H])c2C1([H])[H]

>  <smiles>  (64) 
[H]c1c([H])c([H])c2c(c1[H])C([H])([H])C([H])([H])C([H])([H])C2([H])N([H])C(=O)C1([H])N(C(=O)C([H])(N([H])C(=O)C([H])(N([H])C([H])([H])[H])C([H])([H])[H])C(C([H])([H])[H])(C([H])([H])[H])C([H])([H])[H])C([H])([H])c2c([H])c(OC([H])([H])C([H])(c3c([H])c(C(=O)N([H])C([H])([H])C([H])([H])C(=O)N4C([H])([H])C([H])([H])C([H])([H])C([H])(n5nc(-c6c([H])c([H])c(Oc7c([H])c([H])c(F)c([H])c7F)c([H])c6[H])c(C(=O)N([H])[H])c5N([H])[H])C4([H])[H])c([H])c(N([H])C([H])([H])[H])c3[H])[N+]([H])([H])[H])c([H])c([H])c2C1([H])[H]

$$$$
64:0:0
     RDKit          3D

 96104  0  0  1  0  0  0  0  0999 V2000
  -30.4670  -20.2200   21.2640 C   0  0  0  0  0  2  0  0  0  0  0  0
  -30.2330  -19.4130   19.9960 C   0  0  0  0  0  3  0  0  0  0  0  0
  -30.3150  -21.6610   20.7860 C   0  0  0  0  0  3  0  0  0  0  0  0
  -29.1790  -20.2720   19.2580 C   0  0  0  0  0  3  0  0  0  0  0  0
  -29.2160  -21.5690   19.8780 O   0  0  0  0  0  0  0  0  0  0  0  0
  -29.7540  -18.0320   20.2740 N   0  0  0  0  0  4  0  0  0  0  0  0
  -29.3960  -17.6450   19.4130 H   0  0  0  0  0  0  0  0  0  0  0  0
  -28.9870  -18.0800   20.9300 H   0  0  0  0  0  0  0  0  0  0  0  0
  -30.7580  -17.0700   20.7920 C   0  0  0  0  0  2  0  0  0  0  0  0
  -30.1100  -15.6920   21.1430 C   0  0  0  0  0  2  0  0  0  0  0  0
  -30.7320  -14.4740   20.4330 C   0  0  0  0  0  0  0  0  0  0  0  0
  -30.3510  -12.3400   19.2520 C   0  0  0  0  0  2  0  0  0  0  0  0
  -29.4260  -12.5900   18.0440 C   0  0  0  0  0  2  0  0  0  0  0  0
  -27.9470  -12.4840   18.4720 C   0  0  0  0  0  2  0  0  0  0  0  0
  -27.6220  -13.3030   19.7500 C   0  0  0  0  0  3  0  0  0  0  0  0
  -28.6840  -13.0660   20.8520 C   0  0  0  0  0  2  0  0  0  0  0  0
  -30.0140  -13.3280   20.2830 N   0  0  0  0  0  0  0  0  0  0  0  0
  -31.8430  -14.6190   19.9220 O   0  0  0  0  0  0  0  0  0  0  0  0
  -25.2170  -13.9030   20.4560 C   0  0  0  0  0  0  0  0  0  0  0  0
  -24.1520  -13.1220   20.8300 C   0  0  0  0  0  0  0  0  0  0  0  0
  -24.6200  -11.7750   20.8070 C   0  0  0  0  0  0  0  0  0  0  0  0
  -26.2670  -13.0240   20.2340 N   0  0  0  0  0  0  0  0  0  0  0  0
  -25.9110  -11.7410   20.5050 N   0  0  0  0  0  0  0  0  0  0  0  0
  -23.9010  -10.5070   21.0010 C   0  0  0  0  0  0  0  0  0  0  0  0
  -24.3300   -9.5480   21.9450 C   0  0  0  0  0  3  0  0  0  0  0  0
  -23.6080   -8.3480   22.1250 C   0  0  0  0  0  3  0  0  0  0  0  0
  -22.4420   -8.0990   21.3620 C   0  0  0  0  0  0  0  0  0  0  0  0
  -22.0360   -9.0460   20.4040 C   0  0  0  0  0  3  0  0  0  0  0  0
  -22.7600  -10.2360   20.2210 C   0  0  0  0  0  3  0  0  0  0  0  0
  -21.6960   -6.9470   21.4500 O   0  0  0  0  0  0  0  0  0  0  0  0
  -21.6380   -6.2140   22.6090 C   0  0  0  0  0  0  0  0  0  0  0  0
  -21.1770   -6.7750   23.8190 C   0  0  0  0  0  3  0  0  0  0  0  0
  -21.0650   -5.9710   24.9700 C   0  0  0  0  0  3  0  0  0  0  0  0
  -21.4000   -4.6050   24.9130 C   0  0  0  0  0  0  0  0  0  0  0  0
  -21.8490   -4.0410   23.7050 C   0  0  0  0  0  3  0  0  0  0  0  0
  -21.9620   -4.8430   22.5550 C   0  0  0  0  0  0  0  0  0  0  0  0
  -22.3780   -4.2920   21.3890 F   0  0  0  0  0  0  0  0  0  0  0  0
  -21.2840   -3.8270   26.0150 F   0  0  0  0  0  0  0  0  0  0  0  0
  -22.7520  -13.5950   21.0960 C   0  0  0  0  0  0  0  0  0  0  0  0
  -22.0190  -12.8940   21.9590 N   0  0  0  0  0  0  0  0  0  0  0  0
  -22.3090  -14.6180   20.5760 O   0  0  0  0  0  0  0  0  0  0  0  0
  -22.3790  -12.0660   22.4070 H   0  0  0  0  0  0  0  0  0  0  0  0
  -21.0810  -13.1960   22.1790 H   0  0  0  0  0  0  0  0  0  0  0  0
  -25.3720  -15.2720   20.2640 N   0  0  0  0  0  0  0  0  0  0  0  0
  -24.6060  -15.9320   20.3590 H   0  0  0  0  0  0  0  0  0  0  0  0
  -26.2140  -15.7050   19.9100 H   0  0  0  0  0  0  0  0  0  0  0  0
  -30.0310  -22.6390   21.9530 C   0  0  0  0  0  2  0  0  0  0  0  0
  -30.4000  -24.0500   21.6840 N   0  0  0  0  0  4  0  0  0  0  0  0
  -31.3670  -24.0940   21.4010 H   0  0  0  0  0  0  0  0  0  0  0  0
  -30.3340  -24.5580   22.5570 H   0  0  0  0  0  0  0  0  0  0  0  0
  -29.5880  -24.7740   20.6780 C   0  0  0  0  0  2  0  0  0  0  0  0
  -28.9930  -26.0890   21.2220 C   0  0  0  0  0  2  0  0  0  0  0  0
  -28.5690  -26.8280   20.0890 O   0  0  0  0  0  0  0  0  0  0  0  0
  -24.6270  -31.9020   23.2450 C   0  0  0  0  0  0  0  0  0  0  0  0
  -27.3880  -27.5110   20.2050 C   0  0  0  0  0  0  0  0  0  0  0  0
  -23.4670  -30.4840   21.5830 C   0  0  0  0  0  3  0  0  0  0  0  0
  -24.9660  -28.9470   20.2080 C   0  0  0  0  0  0  0  0  0  0  0  0
  -25.9900  -30.8720   21.4310 C   0  0  0  0  0  2  0  0  0  0  0  0
  -26.1040  -29.4950   20.8140 C   0  0  0  0  0  0  0  0  0  0  0  0
  -27.3190  -28.7760   20.8280 C   0  0  0  0  0  3  0  0  0  0  0  0
  -26.2380  -26.9710   19.5970 C   0  0  0  0  0  3  0  0  0  0  0  0
  -25.0200  -27.6750   19.6110 C   0  0  0  0  0  3  0  0  0  0  0  0
  -23.7150  -29.7940   20.2160 C   0  0  0  0  0  2  0  0  0  0  0  0
  -24.7130  -31.1010   22.1460 N   0  0  0  0  0  0  0  0  0  0  0  0
  -23.5320  -32.1620   23.7630 O   0  0  0  0  0  0  0  0  0  0  0  0
  -22.8120  -29.4590   22.5340 C   0  0  0  0  0  0  0  0  0  0  0  0
  -21.4900  -29.2770   22.3920 N   0  0  0  0  0  0  0  0  0  0  0  0
  -23.4910  -28.8280   23.3480 O   0  0  0  0  0  0  0  0  0  0  0  0
  -21.0050  -29.8390   21.7060 H   0  0  0  0  0  0  0  0  0  0  0  0
  -18.1060  -28.1130   22.8880 C   0  0  0  0  0  0  0  0  0  0  0  0
  -20.6670  -28.3310   23.1440 C   0  0  0  0  0  3  0  0  0  0  0  0
  -20.7480  -26.9110   22.5370 C   0  0  0  0  0  2  0  0  0  0  0  0
  -19.6350  -26.6270   21.5240 C   0  0  0  0  0  2  0  0  0  0  0  0
  -18.2600  -26.7770   22.1810 C   0  0  0  0  0  2  0  0  0  0  0  0
  -19.2380  -28.8510   23.3240 C   0  0  0  0  0  0  0  0  0  0  0  0
  -19.0400  -30.1060   23.9420 C   0  0  0  0  0  3  0  0  0  0  0  0
  -17.7430  -30.6220   24.1270 C   0  0  0  0  0  3  0  0  0  0  0  0
  -16.6260  -29.8820   23.7010 C   0  0  0  0  0  3  0  0  0  0  0  0
  -16.8090  -28.6290   23.0900 C   0  0  0  0  0  3  0  0  0  0  0  0
  -25.8930  -32.5460   23.8890 C   0  0  0  0  0  3  0  0  0  0  0  0
  -26.3950  -31.7850   25.1780 C   0  0  1  0  0  0  0  0  0  0  0  0
  -25.2860  -31.5390   26.2270 C   0  0  0  0  0  1  0  0  0  0  0  0
  -26.9960  -30.4120   24.7980 C   0  0  0  0  0  1  0  0  0  0  0  0
  -27.5260  -32.5920   25.8590 C   0  0  0  0  0  1  0  0  0  0  0  0
  -25.5700  -33.9440   24.2020 N   0  0  0  0  0  0  0  0  0  0  0  0
  -25.9090  -34.9920   23.4410 C   0  0  0  0  0  0  0  0  0  0  0  0
  -26.6000  -34.8830   22.4230 O   0  0  0  0  0  0  0  0  0  0  0  0
  -24.9630  -34.1020   24.9940 H   0  0  0  0  0  0  0  0  0  0  0  0
  -24.1770  -36.7680   23.0290 C   0  0  0  0  0  1  0  0  0  0  0  0
  -25.4010  -36.3810   23.8740 C   0  0  0  0  0  3  0  0  0  0  0  0
  -27.5110  -37.2860   24.7470 C   0  0  0  0  0  1  0  0  0  0  0  0
  -26.4290  -37.4390   23.7780 N   0  0  0  0  0  0  0  0  0  0  0  0
  -26.0150  -38.3570   23.9060 H   0  0  0  0  0  0  0  0  0  0  0  0
  -29.4580  -20.4170   17.7430 C   0  0  0  0  0  2  0  0  0  0  0  0
  -28.3080  -20.8590   17.0400 O   0  0  0  0  0  0  0  0  0  0  0  0
  -28.0690  -21.7190   17.3820 H   0  0  0  0  0  0  0  0  0  0  0  0
  2  6  1  0
  2  1  1  0
  3  1  1  0
  3 47  1  0
  4 94  1  0
  4  5  1  0
  4  2  1  0
  5  3  1  0
  6  9  1  0
  6  8  1  0
  7  6  1  0
  9 10  1  0
 11 10  1  0
 12 17  1  0
 13 14  1  0
 13 12  1  0
 15 14  1  0
 15 22  1  0
 15 16  1  0
 17 11  1  0
 17 16  1  0
 18 11  2  0
 19 20  2  0
 20 39  1  0
 21 20  1  0
 21 24  1  0
 22 19  1  0
 22 23  1  0
 23 21  2  0
 24 25  1  0
 25 26  2  0
 27 30  1  0
 27 26  1  0
 28 27  2  0
 29 28  1  0
 29 24  2  0
 30 31  1  0
 31 32  1  0
 32 33  2  0
 34 33  1  0
 34 38  1  0
 35 34  2  0
 36 31  2  0
 36 35  1  0
 37 36  1  0
 39 40  1  0
 40 43  1  0
 40 42  1  0
 41 39  2  0
 44 45  1  0
 44 19  1  0
 46 44  1  0
 48 47  1  0
 48 50  1  0
 49 48  1  0
 51 52  1  0
 51 48  1  0
 53 55  1  0
 53 52  1  0
 54 65  2  0
 55 60  1  0
 56 64  1  0
 56 66  1  0
 57 63  1  0
 57 59  1  0
 58 64  1  0
 59 60  2  0
 59 58  1  0
 61 62  1  0
 61 55  2  0
 62 57  2  0
 63 56  1  0
 64 54  1  0
 66 68  2  0
 67 66  1  0
 69 67  1  0
 70 79  2  0
 70 75  1  0
 71 67  1  0
 71 75  1  0
 72 71  1  0
 73 74  1  0
 73 72  1  0
 74 70  1  0
 75 76  2  0
 76 77  1  0
 78 77  2  0
 79 78  1  0
 80 54  1  0
 80 85  1  0
 80 81  1  0
 81 84  1  1
 81 82  1  0
 83 81  1  0
 85 88  1  0
 86 90  1  0
 86 85  1  0
 87 86  2  0
 90 89  1  0
 92 90  1  0
 92 93  1  0
 92 91  1  0
 95 96  1  0
 95 94  1  0
M  ISO  4  10 100  11 100  52 101  53 101
M  END
>  <TORSDO>  (65) 
F 25

>  <SCORE>  (65) 
-12.735

>  <name>  (65) 
64

>  <ligand_id>  (65) 
64

>  <original_smiles>  (65) 
[H]OC([H])([H])C1([H])OC([H])(C([H])([H])[N+]([H])([H])C([H])([H])C([H])([H])Oc2c([H])c([H])c3c(c2[H])C([H])([H])N(C(=O)C([H])(N([H])C(=O)C([H])(N([H])C([H])([H])[H])C([H])([H])[H])C(C([H])([H])[H])(C([H])([H])[H])C([H])([H])[H])C([H])(C(=O)N([H])C2([H])c4c([H])c([H])c([H])c([H])c4C([H])([H])C([H])([H])C2([H])[H])C3([H])[H])C([H])([H])C1([H])[N+]([H])([H])C([H])([H])C([H])([H])C(=O)N1C([H])([H])C([H])([H])C([H])([H])C([H])(n2nc(-c3c([H])c([H])c(Oc4c([H])c([H])c(F)c([H])c4F)c([H])c3[H])c(C(=O)N([H])[H])c2N([H])[H])C1([H])[H]

>  <smiles>  (65) 
[H]OC([H])([H])C1([H])OC([H])(C([H])([H])[N+]([H])([H])C([H])([H])C([H])([H])Oc2c([H])c([H])c3c(c2[H])C([H])([H])N(C(=O)C([H])(N([H])C(=O)C([H])(N([H])C([H])([H])[H])C([H])([H])[H])C(C([H])([H])[H])(C([H])([H])[H])C([H])([H])[H])C([H])(C(=O)N([H])C2([H])c4c([H])c([H])c([H])c([H])c4C([H])([H])C([H])([H])C2([H])[H])C3([H])[H])C([H])([H])C1([H])[N+]([H])([H])C([H])([H])C([H])([H])C(=O)N1C([H])([H])C([H])([H])C([H])([H])C([H])(n2nc(-c3c([H])c([H])c(Oc4c([H])c([H])c(F)c([H])c4F)c([H])c3[H])c(C(=O)N([H])[H])c2N([H])[H])C1([H])[H]

$$$$
65:0:0
     RDKit          3D

 93103  0  0  1  0  0  0  0  0999 V2000
  -30.9740  -20.4460   18.9080 C   0  0  0  0  0  3  0  0  0  0  0  0
  -30.3590  -21.6920   19.2540 C   0  0  0  0  0  3  0  0  0  0  0  0
  -28.7420  -20.4990   20.5660 C   0  0  0  0  0  3  0  0  0  0  0  0
  -30.4850  -19.1880   19.3620 C   0  0  0  0  0  0  0  0  0  0  0  0
  -29.3620  -19.2160   20.2120 C   0  0  0  0  0  0  0  0  0  0  0  0
  -29.2010  -21.7940   20.0740 C   0  0  0  0  0  0  0  0  0  0  0  0
  -29.4060  -17.6570   17.9760 C   0  0  0  0  0  2  0  0  0  0  0  0
  -30.8400  -17.8160   18.6380 C   0  0  0  0  0  3  0  0  0  0  0  0
  -29.1740  -16.7950   19.2310 C   0  0  0  0  0  3  0  0  0  0  0  0
  -28.8460  -17.7540   20.4890 C   0  0  1  0  0  0  0  0  0  0  0  0
  -30.6030  -16.1810   18.8060 C   0  0  1  0  0  0  0  0  0  0  0  0
  -29.5120  -17.2060   21.7610 C   0  0  0  0  0  1  0  0  0  0  0  0
  -27.3220  -17.7790   20.7020 C   0  0  0  0  0  1  0  0  0  0  0  0
  -30.9390  -15.5940   17.3780 C   0  0  0  0  0  1  0  0  0  0  0  0
  -31.3530  -14.9650   19.6700 C   0  0  0  0  0  0  0  0  0  0  0  0
  -31.1650  -12.5080   19.0850 C   0  0  0  0  0  2  0  0  0  0  0  0
  -30.1750  -12.2300   17.9210 C   0  0  0  0  0  2  0  0  0  0  0  0
  -28.7020  -12.2580   18.3730 C   0  0  0  0  0  2  0  0  0  0  0  0
  -28.3670  -13.3220   19.4530 C   0  0  0  0  0  3  0  0  0  0  0  0
  -29.4690  -13.4380   20.5230 C   0  0  0  0  0  2  0  0  0  0  0  0
  -30.7400  -13.7190   19.8380 N   0  0  0  0  0  0  0  0  0  0  0  0
  -32.5870  -14.9770   19.6630 O   0  0  0  0  0  0  0  0  0  0  0  0
  -26.0830  -14.0570   20.3640 C   0  0  0  0  0  0  0  0  0  0  0  0
  -24.9770  -13.3520   20.7480 C   0  0  0  0  0  0  0  0  0  0  0  0
  -25.3270  -11.9730   20.6220 C   0  0  0  0  0  0  0  0  0  0  0  0
  -27.0410  -13.1130   20.0270 N   0  0  0  0  0  0  0  0  0  0  0  0
  -26.5950  -11.8500   20.2540 N   0  0  0  0  0  0  0  0  0  0  0  0
  -24.5060  -10.7650   20.7730 C   0  0  0  0  0  0  0  0  0  0  0  0
  -24.8540   -9.7480   21.6900 C   0  0  0  0  0  3  0  0  0  0  0  0
  -24.0380   -8.6060   21.8340 C   0  0  0  0  0  3  0  0  0  0  0  0
  -22.8600   -8.4740   21.0610 C   0  0  0  0  0  0  0  0  0  0  0  0
  -22.5310   -9.4780   20.1340 C   0  0  0  0  0  3  0  0  0  0  0  0
  -23.3480  -10.6110   19.9870 C   0  0  0  0  0  3  0  0  0  0  0  0
  -22.0190   -7.3890   21.1180 O   0  0  0  0  0  0  0  0  0  0  0  0
  -21.8310   -6.6840   22.2800 C   0  0  0  0  0  0  0  0  0  0  0  0
  -21.3490   -7.3010   23.4550 C   0  0  0  0  0  3  0  0  0  0  0  0
  -21.1040   -6.5260   24.6060 C   0  0  0  0  0  3  0  0  0  0  0  0
  -21.3300   -5.1370   24.5820 C   0  0  0  0  0  0  0  0  0  0  0  0
  -21.8060   -4.5210   23.4120 C   0  0  0  0  0  3  0  0  0  0  0  0
  -22.0520   -5.2930   22.2630 C   0  0  0  0  0  0  0  0  0  0  0  0
  -22.4900   -4.6910   21.1310 F   0  0  0  0  0  0  0  0  0  0  0  0
  -21.0880   -4.3920   25.6860 F   0  0  0  0  0  0  0  0  0  0  0  0
  -23.6380  -13.9250   21.1080 C   0  0  0  0  0  0  0  0  0  0  0  0
  -22.9030  -13.2560   21.9900 N   0  0  0  0  0  0  0  0  0  0  0  0
  -23.2570  -15.0000   20.6460 O   0  0  0  0  0  0  0  0  0  0  0  0
  -23.2270  -12.3860   22.3860 H   0  0  0  0  0  0  0  0  0  0  0  0
  -22.0060  -13.6220   22.2730 H   0  0  0  0  0  0  0  0  0  0  0  0
  -26.3340  -15.4180   20.2450 N   0  0  0  0  0  0  0  0  0  0  0  0
  -25.6180  -16.1120   20.4270 H   0  0  0  0  0  0  0  0  0  0  0  0
  -27.1850  -15.8150   19.8740 H   0  0  0  0  0  0  0  0  0  0  0  0
  -28.6480  -23.2630   20.5380 C   0  0  0  0  0  2  0  0  0  0  0  0
  -27.9880  -24.4520   19.5890 C   0  0  0  0  0  2  0  0  0  0  0  0
  -28.0940  -25.9590   19.8960 O   0  0  0  0  0  0  0  0  0  0  0  0
  -24.5170  -31.5890   22.8740 C   0  0  0  0  0  0  0  0  0  0  0  0
  -27.0050  -26.8880   19.8100 C   0  0  0  0  0  0  0  0  0  0  0  0
  -23.2650  -30.1870   21.2750 C   0  0  0  0  0  3  0  0  0  0  0  0
  -24.6690  -28.6040   19.8190 C   0  0  0  0  0  0  0  0  0  0  0  0
  -25.8080  -30.4560   21.0360 C   0  0  0  0  0  2  0  0  0  0  0  0
  -25.8600  -29.0630   20.3950 C   0  0  0  0  0  0  0  0  0  0  0  0
  -27.0260  -28.2190   20.3760 C   0  0  0  0  0  3  0  0  0  0  0  0
  -25.7940  -26.5220   19.1810 C   0  0  0  0  0  3  0  0  0  0  0  0
  -24.6460  -27.3450   19.1980 C   0  0  0  0  0  3  0  0  0  0  0  0
  -23.4430  -29.4980   19.8950 C   0  0  0  0  0  2  0  0  0  0  0  0
  -24.5510  -30.7650   21.7830 N   0  0  0  0  0  0  0  0  0  0  0  0
  -23.4480  -31.8800   23.4310 O   0  0  0  0  0  0  0  0  0  0  0  0
  -22.6120  -29.1890   22.2630 C   0  0  0  0  0  0  0  0  0  0  0  0
  -21.2750  -29.0550   22.2010 N   0  0  0  0  0  0  0  0  0  0  0  0
  -23.3070  -28.5360   23.0450 O   0  0  0  0  0  0  0  0  0  0  0  0
  -20.7710  -29.6310   21.5410 H   0  0  0  0  0  0  0  0  0  0  0  0
  -17.8870  -27.9860   22.9010 C   0  0  0  0  0  0  0  0  0  0  0  0
  -20.4670  -28.1350   23.0060 C   0  0  0  0  0  3  0  0  0  0  0  0
  -20.4690  -26.7140   22.3960 C   0  0  0  0  0  2  0  0  0  0  0  0
  -19.2910  -26.4610   21.4500 C   0  0  0  0  0  2  0  0  0  0  0  0
  -17.9610  -26.6470   22.1860 C   0  0  0  0  0  2  0  0  0  0  0  0
  -19.0620  -28.6920   23.2720 C   0  0  0  0  0  0  0  0  0  0  0  0
  -18.9350  -29.9470   23.9050 C   0  0  0  0  0  3  0  0  0  0  0  0
  -17.6660  -30.4960   24.1690 C   0  0  0  0  0  3  0  0  0  0  0  0
  -16.5060  -29.7860   23.8120 C   0  0  0  0  0  3  0  0  0  0  0  0
  -16.6170  -28.5330   23.1840 C   0  0  0  0  0  3  0  0  0  0  0  0
  -25.8170  -32.2190   23.4610 C   0  0  0  0  0  3  0  0  0  0  0  0
  -25.4880  -33.5800   23.9130 N   0  0  0  0  0  0  0  0  0  0  0  0
  -25.7570  -34.6990   23.2270 C   0  0  0  0  0  0  0  0  0  0  0  0
  -26.3750  -34.6950   22.1590 O   0  0  0  0  0  0  0  0  0  0  0  0
  -24.9310  -33.6540   24.7520 H   0  0  0  0  0  0  0  0  0  0  0  0
  -23.9660  -36.4640   23.1130 C   0  0  0  0  0  1  0  0  0  0  0  0
  -25.2630  -36.0350   23.8180 C   0  0  0  0  0  3  0  0  0  0  0  0
  -27.4160  -36.9220   24.5980 C   0  0  0  0  0  1  0  0  0  0  0  0
  -26.2600  -37.1230   23.7290 N   0  0  0  0  0  0  0  0  0  0  0  0
  -25.8390  -38.0180   23.9630 H   0  0  0  0  0  0  0  0  0  0  0  0
  -26.4340  -31.3790   24.6450 C   0  0  1  0  0  0  0  0  0  0  0  0
  -25.4190  -31.0350   25.7610 C   0  0  0  0  0  1  0  0  0  0  0  0
  -27.0280  -30.0490   24.1250 C   0  0  0  0  0  1  0  0  0  0  0  0
  -27.6040  -32.1610   25.2890 C   0  0  0  0  0  1  0  0  0  0  0  0
  1  2  2  0
  1  4  1  0
  2  6  1  0
  4  5  2  0
  5 10  1  0
  5  3  1  0
  6 51  1  0
  6  3  2  0
  8  7  1  0
  8 11  1  0
  8  4  1  0
  9  7  1  0
  9 10  1  0
 10 13  1  1
 10 12  1  0
 11 14  1  6
 11  9  1  0
 11 15  1  0
 15 21  1  0
 16 21  1  0
 17 18  1  0
 17 16  1  0
 19 18  1  0
 19 26  1  0
 19 20  1  0
 21 20  1  0
 22 15  2  0
 23 24  2  0
 24 43  1  0
 25 24  1  0
 25 28  1  0
 26 27  1  0
 26 23  1  0
 27 25  2  0
 28 29  1  0
 29 30  2  0
 31 34  1  0
 31 30  1  0
 32 31  2  0
 33 32  1  0
 33 28  2  0
 34 35  1  0
 35 36  1  0
 36 37  2  0
 38 37  1  0
 38 42  1  0
 39 38  2  0
 40 35  2  0
 40 39  1  0
 41 40  1  0
 43 44  1  0
 44 47  1  0
 44 46  1  0
 45 43  2  0
 48 23  1  0
 48 49  1  0
 50 48  1  0
 52 53  1  0
 52 51  1  0
 54 65  2  0
 55 53  1  0
 55 60  1  0
 56 64  1  0
 56 66  1  0
 57 63  1  0
 57 59  1  0
 58 64  1  0
 59 58  1  0
 60 59  2  0
 61 62  1  0
 61 55  2  0
 62 57  2  0
 63 56  1  0
 64 54  1  0
 66 68  2  0
 67 66  1  0
 69 67  1  0
 70 79  2  0
 70 75  1  0
 71 67  1  0
 71 75  1  0
 72 71  1  0
 73 74  1  0
 73 72  1  0
 74 70  1  0
 75 76  2  0
 76 77  1  0
 78 77  2  0
 79 78  1  0
 80 54  1  0
 80 81  1  0
 80 90  1  0
 81 84  1  0
 82 86  1  0
 82 81  1  0
 83 82  2  0
 86 85  1  0
 88 86  1  0
 88 89  1  0
 88 87  1  0
 90 93  1  1
 90 91  1  0
 92 90  1  0
M  ISO  4  11 100  15 100  52 101  53 101
M  END
>  <TORSDO>  (66) 
F 18

>  <SCORE>  (66) 
-11.986

>  <name>  (66) 
65

>  <ligand_id>  (66) 
65

>  <original_smiles>  (66) 
[H]c1c([H])c([H])c2c(c1[H])C([H])([H])C([H])([H])C([H])([H])C2([H])N([H])C(=O)C1([H])N(C(=O)C([H])(N([H])C(=O)C([H])(N([H])C([H])([H])[H])C([H])([H])[H])C(C([H])([H])[H])(C([H])([H])[H])C([H])([H])[H])C([H])([H])c2c([H])c(OC([H])([H])C([H])([H])c3c([H])c([H])c4c(c3[H])C(C([H])([H])[H])(C([H])([H])[H])C3([H])C([H])([H])C4([H])C3(C(=O)N3C([H])([H])C([H])([H])C([H])([H])C([H])(n4nc(-c5c([H])c([H])c(Oc6c([H])c([H])c(F)c([H])c6F)c([H])c5[H])c(C(=O)N([H])[H])c4N([H])[H])C3([H])[H])C([H])([H])[H])c([H])c([H])c2C1([H])[H]

>  <smiles>  (66) 
[H]c1c([H])c([H])c2c(c1[H])C([H])([H])C([H])([H])C([H])([H])C2([H])N([H])C(=O)C1([H])N(C(=O)C([H])(N([H])C(=O)C([H])(N([H])C([H])([H])[H])C([H])([H])[H])C(C([H])([H])[H])(C([H])([H])[H])C([H])([H])[H])C([H])([H])c2c([H])c(OC([H])([H])C([H])([H])c3c([H])c([H])c4c(c3[H])C(C([H])([H])[H])(C([H])([H])[H])C3([H])C([H])([H])C4([H])C3(C(=O)N3C([H])([H])C([H])([H])C([H])([H])C([H])(n4nc(-c5c([H])c([H])c(Oc6c([H])c([H])c(F)c([H])c6F)c([H])c5[H])c(C(=O)N([H])[H])c4N([H])[H])C3([H])[H])C([H])([H])[H])c([H])c([H])c2C1([H])[H]

$$$$
66:0:0
     RDKit          3D

 90 99  0  0  1  0  0  0  0  0999 V2000
  -27.5990  -20.1960   18.8240 C   0  0  0  0  0  3  0  0  0  0  0  0
  -28.2820  -19.0490   19.3170 C   0  0  0  0  0  3  0  0  0  0  0  0
  -29.4940  -20.5380   20.7800 C   0  0  0  0  0  3  0  0  0  0  0  0
  -27.8480  -21.5230   19.2710 C   0  0  0  0  0  0  0  0  0  0  0  0
  -28.7810  -21.7610   20.3020 C   0  0  0  0  0  0  0  0  0  0  0  0
  -29.2890  -19.1370   20.3020 C   0  0  0  0  0  0  0  0  0  0  0  0
  -27.0960  -22.6960   18.6230 C   0  0  0  0  0  2  0  0  0  0  0  0
  -28.9460  -23.3340   20.7760 C   0  0  0  0  0  2  0  0  0  0  0  0
  -27.7870  -24.0920   18.7040 C   0  0  0  0  0  2  0  0  0  0  0  0
  -27.9830  -24.5740   20.1610 C   0  0  0  0  0  3  0  0  0  0  0  0
  -28.2080  -26.1340   20.2910 O   0  0  0  0  0  0  0  0  0  0  0  0
  -24.5920  -31.8820   23.2650 C   0  0  0  0  0  0  0  0  0  0  0  0
  -27.1510  -27.1320   20.2370 C   0  0  0  0  0  0  0  0  0  0  0  0
  -23.3910  -30.4950   21.6230 C   0  0  0  0  0  3  0  0  0  0  0  0
  -24.8330  -28.9140   20.2020 C   0  0  0  0  0  0  0  0  0  0  0  0
  -25.9510  -30.7450   21.4610 C   0  0  0  0  0  2  0  0  0  0  0  0
  -26.0200  -29.3510   20.8060 C   0  0  0  0  0  0  0  0  0  0  0  0
  -27.1810  -28.4820   20.7940 C   0  0  0  0  0  3  0  0  0  0  0  0
  -25.9200  -26.7980   19.6280 C   0  0  0  0  0  3  0  0  0  0  0  0
  -24.7990  -27.6520   19.5980 C   0  0  0  0  0  3  0  0  0  0  0  0
  -23.6120  -29.8220   20.2440 C   0  0  0  0  0  2  0  0  0  0  0  0
  -24.6650  -31.0620   22.1710 N   0  0  0  0  0  0  0  0  0  0  0  0
  -23.5040  -32.1680   23.7900 O   0  0  0  0  0  0  0  0  0  0  0  0
  -22.7080  -29.4870   22.5830 C   0  0  0  0  0  0  0  0  0  0  0  0
  -21.3800  -29.3130   22.4490 N   0  0  0  0  0  0  0  0  0  0  0  0
  -23.3750  -28.8650   23.4130 O   0  0  0  0  0  0  0  0  0  0  0  0
  -20.8970  -29.8670   21.7550 H   0  0  0  0  0  0  0  0  0  0  0  0
  -17.9980  -28.1080   22.9400 C   0  0  0  0  0  0  0  0  0  0  0  0
  -20.5550  -28.3770   23.2180 C   0  0  0  0  0  3  0  0  0  0  0  0
  -20.6620  -26.9420   22.6470 C   0  0  0  0  0  2  0  0  0  0  0  0
  -19.5640  -26.6150   21.6300 C   0  0  0  0  0  2  0  0  0  0  0  0
  -18.1800  -26.7580   22.2660 C   0  0  0  0  0  2  0  0  0  0  0  0
  -19.1120  -28.8740   23.3740 C   0  0  0  0  0  0  0  0  0  0  0  0
  -18.8860  -30.1350   23.9650 C   0  0  0  0  0  3  0  0  0  0  0  0
  -17.5780  -30.6320   24.1280 C   0  0  0  0  0  3  0  0  0  0  0  0
  -16.4790  -29.8630   23.7100 C   0  0  0  0  0  3  0  0  0  0  0  0
  -16.6890  -28.6030   23.1210 C   0  0  0  0  0  3  0  0  0  0  0  0
  -25.8690  -32.5160   23.8960 C   0  0  0  0  0  3  0  0  0  0  0  0
  -25.5630  -33.9220   24.2090 N   0  0  0  0  0  0  0  0  0  0  0  0
  -25.9040  -34.9670   23.4440 C   0  0  0  0  0  0  0  0  0  0  0  0
  -26.5740  -34.8500   22.4150 O   0  0  0  0  0  0  0  0  0  0  0  0
  -24.9700  -34.0870   25.0090 H   0  0  0  0  0  0  0  0  0  0  0  0
  -24.1940  -36.7790   23.0750 C   0  0  0  0  0  1  0  0  0  0  0  0
  -25.4280  -36.3640   23.8910 C   0  0  0  0  0  3  0  0  0  0  0  0
  -27.5650  -37.2410   24.7280 C   0  0  0  0  0  1  0  0  0  0  0  0
  -26.4720  -37.4070   23.7740 N   0  0  0  0  0  0  0  0  0  0  0  0
  -26.0710  -38.3320   23.9080 H   0  0  0  0  0  0  0  0  0  0  0  0
  -26.3590  -31.7600   25.1920 C   0  0  1  0  0  0  0  0  0  0  0  0
  -25.2500  -31.5490   26.2510 C   0  0  0  0  0  1  0  0  0  0  0  0
  -26.9360  -30.3720   24.8340 C   0  0  0  0  0  1  0  0  0  0  0  0
  -27.5080  -32.5560   25.8570 C   0  0  0  0  0  1  0  0  0  0  0  0
  -30.1430  -17.7670   20.7140 C   0  0  0  0  0  2  0  0  0  0  0  0
  -30.5190  -15.0350   20.4040 C   0  0  0  0  0  0  0  0  0  0  0  0
  -30.4200  -12.6770   19.4500 C   0  0  0  0  0  2  0  0  0  0  0  0
  -29.4890  -12.6040   18.2180 C   0  0  0  0  0  2  0  0  0  0  0  0
  -28.0300  -12.3740   18.6520 C   0  0  0  0  0  2  0  0  0  0  0  0
  -27.6080  -13.3010   19.8230 C   0  0  0  0  0  3  0  0  0  0  0  0
  -28.6630  -13.3380   20.9490 C   0  0  0  0  0  2  0  0  0  0  0  0
  -29.9250  -13.7740   20.3350 N   0  0  0  0  0  0  0  0  0  0  0  0
  -31.7290  -15.0900   20.1580 O   0  0  0  0  0  0  0  0  0  0  0  0
  -29.7500  -16.2330   20.5570 N   0  0  0  0  0  0  0  0  0  0  0  0
  -28.7630  -16.0550   20.6690 H   0  0  0  0  0  0  0  0  0  0  0  0
  -25.2240  -13.8500   20.5680 C   0  0  0  0  0  0  0  0  0  0  0  0
  -24.1680  -13.0630   20.9330 C   0  0  0  0  0  0  0  0  0  0  0  0
  -24.6460  -11.7170   20.8940 C   0  0  0  0  0  0  0  0  0  0  0  0
  -26.2770  -12.9850   20.3230 N   0  0  0  0  0  0  0  0  0  0  0  0
  -25.9380  -11.6950   20.5870 N   0  0  0  0  0  0  0  0  0  0  0  0
  -23.9310  -10.4470   21.0740 C   0  0  0  0  0  0  0  0  0  0  0  0
  -24.3670   -9.4770   22.0040 C   0  0  0  0  0  3  0  0  0  0  0  0
  -23.6480   -8.2740   22.1720 C   0  0  0  0  0  3  0  0  0  0  0  0
  -22.4800   -8.0310   21.4110 C   0  0  0  0  0  0  0  0  0  0  0  0
  -22.0640   -8.9900   20.4700 C   0  0  0  0  0  3  0  0  0  0  0  0
  -22.7830  -10.1840   20.3000 C   0  0  0  0  0  3  0  0  0  0  0  0
  -21.7320   -6.8800   21.4900 O   0  0  0  0  0  0  0  0  0  0  0  0
  -21.6740   -6.1380   22.6420 C   0  0  0  0  0  0  0  0  0  0  0  0
  -21.2000   -6.6820   23.8560 C   0  0  0  0  0  3  0  0  0  0  0  0
  -21.0910   -5.8630   24.9980 C   0  0  0  0  0  3  0  0  0  0  0  0
  -21.4470   -4.5030   24.9280 C   0  0  0  0  0  0  0  0  0  0  0  0
  -21.9120   -3.9590   23.7180 C   0  0  0  0  0  3  0  0  0  0  0  0
  -22.0240   -4.7730   22.5780 C   0  0  0  0  0  0  0  0  0  0  0  0
  -22.4540   -4.2390   21.4100 F   0  0  0  0  0  0  0  0  0  0  0  0
  -21.3340   -3.7160   26.0230 F   0  0  0  0  0  0  0  0  0  0  0  0
  -22.7660  -13.5250   21.2010 C   0  0  0  0  0  0  0  0  0  0  0  0
  -22.0400  -12.8160   22.0580 N   0  0  0  0  0  0  0  0  0  0  0  0
  -22.3230  -14.5520   20.6880 O   0  0  0  0  0  0  0  0  0  0  0  0
  -22.4110  -11.9840   22.4940 H   0  0  0  0  0  0  0  0  0  0  0  0
  -21.1000  -13.1090   22.2840 H   0  0  0  0  0  0  0  0  0  0  0  0
  -25.3710  -15.2240   20.3960 N   0  0  0  0  0  0  0  0  0  0  0  0
  -24.5910  -15.8630   20.5050 H   0  0  0  0  0  0  0  0  0  0  0  0
  -26.2020  -15.6770   20.0400 H   0  0  0  0  0  0  0  0  0  0  0  0
  1  4  2  0
  1  2  1  0
  2  6  2  0
  4  5  1  0
  5  8  1  0
  5  3  2  0
  6 52  1  0
  6  3  1  0
  7  9  1  0
  7  4  1  0
  9 10  1  0
 10 11  1  0
 10  8  1  0
 12 23  2  0
 13 11  1  0
 13 18  1  0
 14 22  1  0
 14 24  1  0
 15 21  1  0
 15 17  1  0
 16 22  1  0
 17 16  1  0
 18 17  2  0
 19 13  2  0
 20 19  1  0
 20 15  2  0
 21 14  1  0
 22 12  1  0
 24 26  2  0
 25 24  1  0
 27 25  1  0
 28 37  2  0
 28 33  1  0
 29 25  1  0
 29 33  1  0
 30 29  1  0
 31 32  1  0
 31 30  1  0
 32 28  1  0
 33 34  2  0
 34 35  1  0
 36 35  2  0
 37 36  1  0
 38 12  1  0
 38 39  1  0
 38 48  1  0
 39 42  1  0
 40 44  1  0
 40 39  1  0
 41 40  2  0
 44 43  1  0
 46 44  1  0
 46 47  1  0
 46 45  1  0
 48 51  1  1
 48 49  1  0
 50 48  1  0
 53 61  1  0
 54 59  1  0
 55 56  1  0
 55 54  1  0
 57 56  1  0
 57 66  1  0
 57 58  1  0
 59 53  1  0
 59 58  1  0
 60 53  2  0
 61 62  1  0
 61 52  1  0
 63 64  2  0
 64 83  1  0
 65 64  1  0
 65 68  1  0
 66 63  1  0
 66 67  1  0
 67 65  2  0
 68 69  1  0
 69 70  2  0
 71 74  1  0
 71 70  1  0
 72 71  2  0
 73 72  1  0
 73 68  2  0
 74 75  1  0
 75 76  1  0
 76 77  2  0
 78 77  1  0
 78 82  1  0
 79 78  2  0
 80 75  2  0
 80 79  1  0
 81 80  1  0
 83 84  1  0
 84 87  1  0
 84 86  1  0
 85 83  2  0
 88 89  1  0
 88 63  1  0
 90 88  1  0
M  ISO  4  10 101  11 101  53 100  61 100
M  END
>  <TORSDO>  (67) 
F 17

>  <SCORE>  (67) 
-15.236

>  <name>  (67) 
66

>  <ligand_id>  (67) 
66

>  <original_smiles>  (67) 
[H]c1c([H])c([H])c2c(c1[H])C([H])([H])C([H])([H])C([H])([H])C2([H])N([H])C(=O)C1([H])N(C(=O)C([H])(N([H])C(=O)C([H])(N([H])C([H])([H])[H])C([H])([H])[H])C(C([H])([H])[H])(C([H])([H])[H])C([H])([H])[H])C([H])([H])c2c([H])c(OC3([H])C([H])([H])c4c([H])c(C([H])([H])N([H])C(=O)N5C([H])([H])C([H])([H])C([H])([H])C([H])(n6nc(-c7c([H])c([H])c(Oc8c([H])c([H])c(F)c([H])c8F)c([H])c7[H])c(C(=O)N([H])[H])c6N([H])[H])C5([H])[H])c([H])c([H])c4C([H])([H])C3([H])[H])c([H])c([H])c2C1([H])[H]

>  <smiles>  (67) 
[H]c1c([H])c([H])c2c(c1[H])C([H])([H])C([H])([H])C([H])([H])C2([H])N([H])C(=O)C1([H])N(C(=O)C([H])(N([H])C(=O)C([H])(N([H])C([H])([H])[H])C([H])([H])[H])C(C([H])([H])[H])(C([H])([H])[H])C([H])([H])[H])C([H])([H])c2c([H])c(OC3([H])C([H])([H])c4c([H])c(C([H])([H])N([H])C(=O)N5C([H])([H])C([H])([H])C([H])([H])C([H])(n6nc(-c7c([H])c([H])c(Oc8c([H])c([H])c(F)c([H])c8F)c([H])c7[H])c(C(=O)N([H])[H])c6N([H])[H])C5([H])[H])c([H])c([H])c4C([H])([H])C3([H])[H])c([H])c([H])c2C1([H])[H]

$$$$
67:0:0
     RDKit          3D

 91 99  0  0  1  0  0  0  0  0999 V2000
  -29.3730  -23.1670   20.6860 C   0  0  0  0  0  3  0  0  0  0  0  0
  -28.9150  -21.8800   20.1990 C   0  0  0  0  0  0  0  0  0  0  0  0
  -28.4370  -24.1890   20.6330 C   0  0  0  0  0  0  0  0  0  0  0  0
  -27.6150  -21.9670   19.7410 C   0  0  0  0  0  0  0  0  0  0  0  0
  -26.7710  -20.9220   19.0760 C   0  0  0  0  0  1  0  0  0  0  0  0
  -26.9500  -23.5720   19.9700 S   0  0  0  0  0  0  0  0  0  0  0  0
  -29.7710  -20.6220   20.0940 C   0  0  0  0  0  0  0  0  0  0  0  0
  -29.1850  -19.4490   20.4290 N   0  0  0  0  0  0  0  0  0  0  0  0
  -30.9350  -20.6710   19.6970 O   0  0  0  0  0  0  0  0  0  0  0  0
  -28.2610  -19.5490   20.8300 H   0  0  0  0  0  0  0  0  0  0  0  0
  -29.5620  -18.0720   20.0070 C   0  0  0  0  0  2  0  0  0  0  0  0
  -30.3670  -17.2140   21.0430 C   0  0  0  0  0  2  0  0  0  0  0  0
  -29.9630  -15.6990   21.2040 C   0  0  0  0  0  2  0  0  0  0  0  0
  -30.6570  -14.5760   20.3600 C   0  0  0  0  0  0  0  0  0  0  0  0
  -30.4000  -12.4210   19.1400 C   0  0  0  0  0  2  0  0  0  0  0  0
  -29.4270  -12.6150   17.9560 C   0  0  0  0  0  2  0  0  0  0  0  0
  -27.9590  -12.4720   18.4060 C   0  0  0  0  0  2  0  0  0  0  0  0
  -27.6430  -13.2970   19.6840 C   0  0  0  0  0  3  0  0  0  0  0  0
  -28.7130  -13.0350   20.7670 C   0  0  0  0  0  2  0  0  0  0  0  0
  -30.0230  -13.3780   20.1920 N   0  0  0  0  0  0  0  0  0  0  0  0
  -31.7510  -14.8050   19.8290 O   0  0  0  0  0  0  0  0  0  0  0  0
  -25.2580  -13.9320   20.4090 C   0  0  0  0  0  0  0  0  0  0  0  0
  -24.1870  -13.1720   20.7980 C   0  0  0  0  0  0  0  0  0  0  0  0
  -24.6360  -11.8160   20.7740 C   0  0  0  0  0  0  0  0  0  0  0  0
  -26.2930  -13.0390   20.1760 N   0  0  0  0  0  0  0  0  0  0  0  0
  -25.9220  -11.7620   20.4520 N   0  0  0  0  0  0  0  0  0  0  0  0
  -23.9020  -10.5630   20.9810 C   0  0  0  0  0  0  0  0  0  0  0  0
  -24.3450   -9.5930   21.9070 C   0  0  0  0  0  3  0  0  0  0  0  0
  -23.6120   -8.4030   22.1030 C   0  0  0  0  0  3  0  0  0  0  0  0
  -22.4230   -8.1730   21.3730 C   0  0  0  0  0  0  0  0  0  0  0  0
  -21.9980   -9.1310   20.4350 C   0  0  0  0  0  3  0  0  0  0  0  0
  -22.7310  -10.3120   20.2380 C   0  0  0  0  0  3  0  0  0  0  0  0
  -21.6610   -7.0340   21.4800 O   0  0  0  0  0  0  0  0  0  0  0  0
  -21.6370   -6.2880   22.6310 C   0  0  0  0  0  0  0  0  0  0  0  0
  -21.2640   -6.8460   23.8720 C   0  0  0  0  0  3  0  0  0  0  0  0
  -21.1840   -6.0270   25.0170 C   0  0  0  0  0  3  0  0  0  0  0  0
  -21.4710   -4.6520   24.9220 C   0  0  0  0  0  0  0  0  0  0  0  0
  -21.8400   -4.0940   23.6850 C   0  0  0  0  0  3  0  0  0  0  0  0
  -21.9210   -4.9100   22.5420 C   0  0  0  0  0  0  0  0  0  0  0  0
  -22.2570   -4.3630   21.3490 F   0  0  0  0  0  0  0  0  0  0  0  0
  -21.3890   -3.8640   26.0190 F   0  0  0  0  0  0  0  0  0  0  0  0
  -22.7960  -13.6630   21.0820 C   0  0  0  0  0  0  0  0  0  0  0  0
  -22.0730  -12.9810   21.9650 N   0  0  0  0  0  0  0  0  0  0  0  0
  -22.3590  -14.6860   20.5560 O   0  0  0  0  0  0  0  0  0  0  0  0
  -22.4390  -12.1570   22.4140 H   0  0  0  0  0  0  0  0  0  0  0  0
  -21.1420  -13.2950   22.1990 H   0  0  0  0  0  0  0  0  0  0  0  0
  -25.4300  -15.2990   20.2130 N   0  0  0  0  0  0  0  0  0  0  0  0
  -24.6670  -15.9580   20.3120 H   0  0  0  0  0  0  0  0  0  0  0  0
  -26.2790  -15.7250   19.8650 H   0  0  0  0  0  0  0  0  0  0  0  0
  -28.5230  -25.6200   21.1790 C   0  0  0  0  0  2  0  0  0  0  0  0
  -28.3890  -26.6320   20.1480 O   0  0  0  0  0  0  0  0  0  0  0  0
  -24.5970  -31.8890   23.2590 C   0  0  0  0  0  0  0  0  0  0  0  0
  -27.2490  -27.4180   20.1900 C   0  0  0  0  0  0  0  0  0  0  0  0
  -23.3990  -30.4950   21.6040 C   0  0  0  0  0  3  0  0  0  0  0  0
  -24.8630  -28.9560   20.1840 C   0  0  0  0  0  0  0  0  0  0  0  0
  -25.9300  -30.8400   21.4290 C   0  0  0  0  0  2  0  0  0  0  0  0
  -26.0190  -29.4650   20.7910 C   0  0  0  0  0  0  0  0  0  0  0  0
  -27.2160  -28.7000   20.7970 C   0  0  0  0  0  3  0  0  0  0  0  0
  -26.0810  -26.9450   19.5590 C   0  0  0  0  0  3  0  0  0  0  0  0
  -24.8910  -27.6960   19.5630 C   0  0  0  0  0  3  0  0  0  0  0  0
  -23.6200  -29.8210   20.2240 C   0  0  0  0  0  2  0  0  0  0  0  0
  -24.6600  -31.0910   22.1540 N   0  0  0  0  0  0  0  0  0  0  0  0
  -23.5110  -32.1590   23.7940 O   0  0  0  0  0  0  0  0  0  0  0  0
  -22.7410  -29.4710   22.5570 C   0  0  0  0  0  0  0  0  0  0  0  0
  -21.4150  -29.2990   22.4290 N   0  0  0  0  0  0  0  0  0  0  0  0
  -23.4200  -28.8360   23.3690 O   0  0  0  0  0  0  0  0  0  0  0  0
  -20.9280  -29.8640   21.7470 H   0  0  0  0  0  0  0  0  0  0  0  0
  -18.0330  -28.1240   22.9280 C   0  0  0  0  0  0  0  0  0  0  0  0
  -20.5940  -28.3610   23.1930 C   0  0  0  0  0  3  0  0  0  0  0  0
  -20.6830  -26.9350   22.6010 C   0  0  0  0  0  2  0  0  0  0  0  0
  -19.5750  -26.6310   21.5880 C   0  0  0  0  0  2  0  0  0  0  0  0
  -18.1960  -26.7800   22.2390 C   0  0  0  0  0  2  0  0  0  0  0  0
  -19.1590  -28.8720   23.3630 C   0  0  0  0  0  0  0  0  0  0  0  0
  -18.9530  -30.1300   23.9690 C   0  0  0  0  0  3  0  0  0  0  0  0
  -17.6530  -30.6410   24.1440 C   0  0  0  0  0  3  0  0  0  0  0  0
  -16.5410  -29.8900   23.7240 C   0  0  0  0  0  3  0  0  0  0  0  0
  -16.7320  -28.6320   23.1240 C   0  0  0  0  0  3  0  0  0  0  0  0
  -25.8800  -32.5170   23.8880 C   0  0  0  0  0  3  0  0  0  0  0  0
  -25.5730  -33.9160   24.2130 N   0  0  0  0  0  0  0  0  0  0  0  0
  -25.9120  -34.9660   23.4510 C   0  0  0  0  0  0  0  0  0  0  0  0
  -26.5860  -34.8570   22.4230 O   0  0  0  0  0  0  0  0  0  0  0  0
  -24.9770  -34.0760   25.0120 H   0  0  0  0  0  0  0  0  0  0  0  0
  -24.1860  -36.7590   23.0880 C   0  0  0  0  0  1  0  0  0  0  0  0
  -25.4260  -36.3570   23.9020 C   0  0  0  0  0  3  0  0  0  0  0  0
  -27.5620  -37.2420   24.7270 C   0  0  0  0  0  1  0  0  0  0  0  0
  -26.4610  -37.4080   23.7820 N   0  0  0  0  0  0  0  0  0  0  0  0
  -26.0560  -38.3300   23.9240 H   0  0  0  0  0  0  0  0  0  0  0  0
  -26.3860  -31.7450   25.1690 C   0  0  1  0  0  0  0  0  0  0  0  0
  -25.2860  -31.5130   26.2290 C   0  0  0  0  0  1  0  0  0  0  0  0
  -26.9660  -30.3650   24.7810 C   0  0  0  0  0  1  0  0  0  0  0  0
  -27.5330  -32.5370   25.8370 C   0  0  0  0  0  1  0  0  0  0  0  0
  2  1  1  0
  3  1  2  0
  3 50  1  0
  4  6  1  0
  4  2  2  0
  5  4  1  0
  6  3  1  0
  7  2  1  0
  7  8  1  0
  8 10  1  0
  9  7  2  0
 11  8  1  0
 11 12  1  0
 12 13  1  0
 14 13  1  0
 15 20  1  0
 16 17  1  0
 16 15  1  0
 18 17  1  0
 18 25  1  0
 18 19  1  0
 20 14  1  0
 20 19  1  0
 21 14  2  0
 22 23  2  0
 23 42  1  0
 24 23  1  0
 24 27  1  0
 25 22  1  0
 25 26  1  0
 26 24  2  0
 27 28  1  0
 28 29  2  0
 30 33  1  0
 30 29  1  0
 31 30  2  0
 32 31  1  0
 32 27  2  0
 33 34  1  0
 34 35  1  0
 35 36  2  0
 37 36  1  0
 37 41  1  0
 38 37  2  0
 39 34  2  0
 39 38  1  0
 40 39  1  0
 42 43  1  0
 43 46  1  0
 43 45  1  0
 44 42  2  0
 47 48  1  0
 47 22  1  0
 49 47  1  0
 51 53  1  0
 51 50  1  0
 52 63  2  0
 53 58  1  0
 54 62  1  0
 54 64  1  0
 55 61  1  0
 55 57  1  0
 56 62  1  0
 57 58  2  0
 57 56  1  0
 59 60  1  0
 59 53  2  0
 60 55  2  0
 61 54  1  0
 62 52  1  0
 64 66  2  0
 65 64  1  0
 67 65  1  0
 68 77  2  0
 68 73  1  0
 69 65  1  0
 69 73  1  0
 70 69  1  0
 71 72  1  0
 71 70  1  0
 72 68  1  0
 73 74  2  0
 74 75  1  0
 76 75  2  0
 77 76  1  0
 78 52  1  0
 78 79  1  0
 78 88  1  0
 79 82  1  0
 80 84  1  0
 80 79  1  0
 81 80  2  0
 84 83  1  0
 86 84  1  0
 86 87  1  0
 86 85  1  0
 88 91  1  1
 88 89  1  0
 90 88  1  0
M  ISO  4  13 100  14 100  50 101  51 101
M  END
>  <TORSDO>  (68) 
F 21

>  <SCORE>  (68) 
-13.482

>  <name>  (68) 
67

>  <ligand_id>  (68) 
67

>  <original_smiles>  (68) 
[H]c1c([H])c([H])c2c(c1[H])C([H])([H])C([H])([H])C([H])([H])C2([H])N([H])C(=O)C1([H])N(C(=O)C([H])(N([H])C(=O)C([H])(N([H])C([H])([H])[H])C([H])([H])[H])C(C([H])([H])[H])(C([H])([H])[H])C([H])([H])[H])C([H])([H])c2c([H])c(OC([H])([H])c3sc(C([H])([H])[H])c(C(=O)N([H])C([H])([H])C([H])([H])C([H])([H])C(=O)N4C([H])([H])C([H])([H])C([H])([H])C([H])(n5nc(-c6c([H])c([H])c(Oc7c([H])c([H])c(F)c([H])c7F)c([H])c6[H])c(C(=O)N([H])[H])c5N([H])[H])C4([H])[H])c3[H])c([H])c([H])c2C1([H])[H]

>  <smiles>  (68) 
[H]c1c([H])c([H])c2c(c1[H])C([H])([H])C([H])([H])C([H])([H])C2([H])N([H])C(=O)C1([H])N(C(=O)C([H])(N([H])C(=O)C([H])(N([H])C([H])([H])[H])C([H])([H])[H])C(C([H])([H])[H])(C([H])([H])[H])C([H])([H])[H])C([H])([H])c2c([H])c(OC([H])([H])c3sc(C([H])([H])[H])c(C(=O)N([H])C([H])([H])C([H])([H])C([H])([H])C(=O)N4C([H])([H])C([H])([H])C([H])([H])C([H])(n5nc(-c6c([H])c([H])c(Oc7c([H])c([H])c(F)c([H])c7F)c([H])c6[H])c(C(=O)N([H])[H])c5N([H])[H])C4([H])[H])c3[H])c([H])c([H])c2C1([H])[H]

$$$$
68:0:0
     RDKit          3D

 97106  0  0  1  0  0  0  0  0999 V2000
  -31.1180  -19.9390   21.7630 C   0  0  0  0  0  3  0  0  0  0  0  0
  -30.7490  -21.2810   21.9690 C   0  0  0  0  0  3  0  0  0  0  0  0
  -29.3350  -21.2110   19.9890 C   0  0  0  0  0  0  0  0  0  0  0  0
  -29.6560  -19.8220   19.8180 C   0  0  0  0  0  0  0  0  0  0  0  0
  -30.5660  -19.1830   20.7110 C   0  0  0  0  0  0  0  0  0  0  0  0
  -29.8460  -21.9390   21.1090 C   0  0  0  0  0  0  0  0  0  0  0  0
  -28.4250  -21.8440   18.9980 C   0  0  0  0  0  0  0  0  0  0  0  0
  -28.9740  -19.0160   18.6980 C   0  0  0  0  0  2  0  0  0  0  0  0
  -28.9980  -21.9540   17.5850 C   0  0  0  0  0  2  0  0  0  0  0  0
  -29.4470  -19.4180   17.2900 C   0  0  0  0  0  2  0  0  0  0  0  0
  -28.7580  -20.6850   16.7470 C   0  0  0  0  0  2  0  0  0  0  0  0
  -27.2800  -22.2380   19.2380 O   0  0  0  0  0  0  0  0  0  0  0  0
  -29.4720  -23.2500   21.5000 N   0  0  0  0  0  0  0  0  0  0  0  0
  -29.6930  -23.4700   22.4680 H   0  0  0  0  0  0  0  0  0  0  0  0
  -29.5200  -24.4360   20.6270 C   0  0  0  0  0  2  0  0  0  0  0  0
  -28.2460  -25.3180   20.7600 C   0  0  0  0  0  2  0  0  0  0  0  0
  -28.3920  -26.6520   20.2250 O   0  0  0  0  0  0  0  0  0  0  0  0
  -24.5810  -31.8870   23.2430 C   0  0  0  0  0  0  0  0  0  0  0  0
  -27.2350  -27.4100   20.2050 C   0  0  0  0  0  0  0  0  0  0  0  0
  -23.3830  -30.4780   21.6030 C   0  0  0  0  0  3  0  0  0  0  0  0
  -24.8430  -28.9370   20.1890 C   0  0  0  0  0  0  0  0  0  0  0  0
  -25.9130  -30.8310   21.4160 C   0  0  0  0  0  2  0  0  0  0  0  0
  -26.0020  -29.4570   20.7790 C   0  0  0  0  0  0  0  0  0  0  0  0
  -27.2010  -28.7040   20.7780 C   0  0  0  0  0  3  0  0  0  0  0  0
  -26.0600  -26.9130   19.5990 C   0  0  0  0  0  3  0  0  0  0  0  0
  -24.8690  -27.6650   19.5930 C   0  0  0  0  0  3  0  0  0  0  0  0
  -23.5990  -29.7970   20.2260 C   0  0  0  0  0  2  0  0  0  0  0  0
  -24.6450  -31.0810   22.1460 N   0  0  0  0  0  0  0  0  0  0  0  0
  -23.4970  -32.1630   23.7740 O   0  0  0  0  0  0  0  0  0  0  0  0
  -22.7300  -29.4590   22.5630 C   0  0  0  0  0  0  0  0  0  0  0  0
  -21.4050  -29.2750   22.4320 N   0  0  0  0  0  0  0  0  0  0  0  0
  -23.4080  -28.8360   23.3840 O   0  0  0  0  0  0  0  0  0  0  0  0
  -20.9190  -29.8330   21.7440 H   0  0  0  0  0  0  0  0  0  0  0  0
  -18.0260  -28.0960   22.9290 C   0  0  0  0  0  0  0  0  0  0  0  0
  -20.5850  -28.3420   23.2030 C   0  0  0  0  0  3  0  0  0  0  0  0
  -20.6800  -26.9110   22.6260 C   0  0  0  0  0  2  0  0  0  0  0  0
  -19.5760  -26.5940   21.6120 C   0  0  0  0  0  2  0  0  0  0  0  0
  -18.1940  -26.7460   22.2540 C   0  0  0  0  0  2  0  0  0  0  0  0
  -19.1480  -28.8540   23.3590 C   0  0  0  0  0  0  0  0  0  0  0  0
  -18.9360  -30.1190   23.9470 C   0  0  0  0  0  3  0  0  0  0  0  0
  -17.6330  -30.6250   24.1160 C   0  0  0  0  0  3  0  0  0  0  0  0
  -16.5250  -29.8650   23.7020 C   0  0  0  0  0  3  0  0  0  0  0  0
  -16.7230  -28.6040   23.1130 C   0  0  0  0  0  3  0  0  0  0  0  0
  -25.8640  -32.5210   23.8660 C   0  0  0  0  0  3  0  0  0  0  0  0
  -25.5540  -33.9200   24.1860 N   0  0  0  0  0  0  0  0  0  0  0  0
  -25.8980  -34.9690   23.4260 C   0  0  0  0  0  0  0  0  0  0  0  0
  -26.5760  -34.8610   22.4020 O   0  0  0  0  0  0  0  0  0  0  0  0
  -24.9530  -34.0800   24.9810 H   0  0  0  0  0  0  0  0  0  0  0  0
  -24.1760  -36.7620   23.0400 C   0  0  0  0  0  1  0  0  0  0  0  0
  -25.4040  -36.3590   23.8720 C   0  0  0  0  0  3  0  0  0  0  0  0
  -27.5310  -37.2360   24.7280 C   0  0  0  0  0  1  0  0  0  0  0  0
  -26.4380  -37.4110   23.7760 N   0  0  0  0  0  0  0  0  0  0  0  0
  -26.0310  -38.3310   23.9250 H   0  0  0  0  0  0  0  0  0  0  0  0
  -26.3770  -31.7560   25.1470 C   0  0  1  0  0  0  0  0  0  0  0  0
  -25.2800  -31.5240   26.2140 C   0  0  0  0  0  1  0  0  0  0  0  0
  -26.9640  -30.3780   24.7600 C   0  0  0  0  0  1  0  0  0  0  0  0
  -27.5250  -32.5550   25.8090 C   0  0  0  0  0  1  0  0  0  0  0  0
  -30.9520  -17.6960   20.6050 C   0  0  0  0  0  2  0  0  0  0  0  0
  -30.0910  -16.8050   21.5340 C   0  0  0  0  0  2  0  0  0  0  0  0
  -30.6580  -14.4890   20.5040 C   0  0  0  0  0  0  0  0  0  0  0  0
  -30.3940  -12.3890   19.2130 C   0  0  0  0  0  2  0  0  0  0  0  0
  -29.4290  -12.6340   18.0330 C   0  0  0  0  0  2  0  0  0  0  0  0
  -27.9530  -12.4900   18.4680 C   0  0  0  0  0  2  0  0  0  0  0  0
  -27.6360  -13.2670   19.7730 C   0  0  0  0  0  3  0  0  0  0  0  0
  -28.6970  -12.9470   20.8500 C   0  0  0  0  0  2  0  0  0  0  0  0
  -30.0180  -13.3060   20.2990 N   0  0  0  0  0  0  0  0  0  0  0  0
  -31.7650  -14.7520   20.0240 O   0  0  0  0  0  0  0  0  0  0  0  0
  -29.9120  -15.3870   21.1730 N   0  0  0  0  0  0  0  0  0  0  0  0
  -29.0220  -15.0040   21.4560 H   0  0  0  0  0  0  0  0  0  0  0  0
  -25.2340  -13.8850   20.4680 C   0  0  0  0  0  0  0  0  0  0  0  0
  -24.1650  -13.1160   20.8460 C   0  0  0  0  0  0  0  0  0  0  0  0
  -24.6270  -11.7640   20.8250 C   0  0  0  0  0  0  0  0  0  0  0  0
  -26.2800  -13.0010   20.2470 N   0  0  0  0  0  0  0  0  0  0  0  0
  -25.9160  -11.7210   20.5160 N   0  0  0  0  0  0  0  0  0  0  0  0
  -23.9010  -10.5040   21.0260 C   0  0  0  0  0  0  0  0  0  0  0  0
  -24.3390   -9.5420   21.9620 C   0  0  0  0  0  3  0  0  0  0  0  0
  -23.6170   -8.3450   22.1500 C   0  0  0  0  0  3  0  0  0  0  0  0
  -22.4420   -8.1000   21.4000 C   0  0  0  0  0  0  0  0  0  0  0  0
  -22.0230   -9.0510   20.4520 C   0  0  0  0  0  3  0  0  0  0  0  0
  -22.7470  -10.2410   20.2640 C   0  0  0  0  0  3  0  0  0  0  0  0
  -21.6890   -6.9550   21.4950 O   0  0  0  0  0  0  0  0  0  0  0  0
  -21.6500   -6.2150   22.6490 C   0  0  0  0  0  0  0  0  0  0  0  0
  -21.2350   -6.7740   23.8790 C   0  0  0  0  0  3  0  0  0  0  0  0
  -21.1420   -5.9600   25.0260 C   0  0  0  0  0  3  0  0  0  0  0  0
  -21.4530   -4.5890   24.9450 C   0  0  0  0  0  0  0  0  0  0  0  0
  -21.8620   -4.0310   23.7210 C   0  0  0  0  0  3  0  0  0  0  0  0
  -21.9570   -4.8410   22.5760 C   0  0  0  0  0  0  0  0  0  0  0  0
  -22.3290   -4.2940   21.3950 F   0  0  0  0  0  0  0  0  0  0  0  0
  -21.3570   -3.8060   26.0440 F   0  0  0  0  0  0  0  0  0  0  0  0
  -22.7680  -13.5950   21.1180 C   0  0  0  0  0  0  0  0  0  0  0  0
  -22.0420  -12.9020   21.9880 N   0  0  0  0  0  0  0  0  0  0  0  0
  -22.3280  -14.6170   20.5940 O   0  0  0  0  0  0  0  0  0  0  0  0
  -22.4110  -12.0740   22.4300 H   0  0  0  0  0  0  0  0  0  0  0  0
  -21.1050  -13.2040   22.2120 H   0  0  0  0  0  0  0  0  0  0  0  0
  -25.4010  -15.2530   20.2760 N   0  0  0  0  0  0  0  0  0  0  0  0
  -24.6340  -15.9100   20.3650 H   0  0  0  0  0  0  0  0  0  0  0  0
  -26.2460  -15.6760   19.9100 H   0  0  0  0  0  0  0  0  0  0  0  0
  1  2  1  0
  3  6  1  0
  4  3  2  0
  4  5  1  0
  5  1  2  0
  6 13  1  0
  6  2  2  0
  7 12  2  0
  7  3  1  0
  8  4  1  0
  9  7  1  0
 10  8  1  0
 11 10  1  0
 11  9  1  0
 13 14  1  0
 15 16  1  0
 15 13  1  0
 17 16  1  0
 18 29  2  0
 19 17  1  0
 19 24  1  0
 20 28  1  0
 20 30  1  0
 21 27  1  0
 21 23  1  0
 22 28  1  0
 23 22  1  0
 24 23  2  0
 25 19  2  0
 26 25  1  0
 26 21  2  0
 27 20  1  0
 28 18  1  0
 30 32  2  0
 31 30  1  0
 33 31  1  0
 34 43  2  0
 34 39  1  0
 35 31  1  0
 35 39  1  0
 36 35  1  0
 37 38  1  0
 37 36  1  0
 38 34  1  0
 39 40  2  0
 40 41  1  0
 42 41  2  0
 43 42  1  0
 44 18  1  0
 44 45  1  0
 44 54  1  0
 45 48  1  0
 46 50  1  0
 46 45  1  0
 47 46  2  0
 50 49  1  0
 52 50  1  0
 52 53  1  0
 52 51  1  0
 54 57  1  1
 54 55  1  0
 56 54  1  0
 58  5  1  0
 58 59  1  0
 60 68  1  0
 61 66  1  0
 62 63  1  0
 62 61  1  0
 64 63  1  0
 64 73  1  0
 64 65  1  0
 66 60  1  0
 66 65  1  0
 67 60  2  0
 68 69  1  0
 68 59  1  0
 70 71  2  0
 71 90  1  0
 72 71  1  0
 72 75  1  0
 73 70  1  0
 73 74  1  0
 74 72  2  0
 75 76  1  0
 76 77  2  0
 78 81  1  0
 78 77  1  0
 79 78  2  0
 80 79  1  0
 80 75  2  0
 81 82  1  0
 82 83  1  0
 83 84  2  0
 85 84  1  0
 85 89  1  0
 86 85  2  0
 87 82  2  0
 87 86  1  0
 88 87  1  0
 90 91  1  0
 91 94  1  0
 91 93  1  0
 92 90  2  0
 95 96  1  0
 95 70  1  0
 97 95  1  0
M  ISO  4  16 101  17 101  60 100  68 100
M  END
>  <TORSDO>  (69) 
F 21

>  <SCORE>  (69) 
-14.074

>  <name>  (69) 
68

>  <ligand_id>  (69) 
68

>  <original_smiles>  (69) 
[H]c1c([H])c([H])c2c(c1[H])C([H])([H])C([H])([H])C([H])([H])C2([H])N([H])C(=O)C1([H])N(C(=O)C([H])(N([H])C(=O)C([H])(N([H])C([H])([H])[H])C([H])([H])[H])C(C([H])([H])[H])(C([H])([H])[H])C([H])([H])[H])C([H])([H])c2c([H])c(OC([H])([H])C([H])([H])N([H])c3c([H])c([H])c(C([H])([H])C([H])([H])N([H])C(=O)N4C([H])([H])C([H])([H])C([H])([H])C([H])(n5nc(-c6c([H])c([H])c(Oc7c([H])c([H])c(F)c([H])c7F)c([H])c6[H])c(C(=O)N([H])[H])c5N([H])[H])C4([H])[H])c4c3C(=O)C([H])([H])C([H])([H])C([H])([H])C4([H])[H])c([H])c([H])c2C1([H])[H]

>  <smiles>  (69) 
[H]c1c([H])c([H])c2c(c1[H])C([H])([H])C([H])([H])C([H])([H])C2([H])N([H])C(=O)C1([H])N(C(=O)C([H])(N([H])C(=O)C([H])(N([H])C([H])([H])[H])C([H])([H])[H])C(C([H])([H])[H])(C([H])([H])[H])C([H])([H])[H])C([H])([H])c2c([H])c(OC([H])([H])C([H])([H])N([H])c3c([H])c([H])c(C([H])([H])C([H])([H])N([H])C(=O)N4C([H])([H])C([H])([H])C([H])([H])C([H])(n5nc(-c6c([H])c([H])c(Oc7c([H])c([H])c(F)c([H])c7F)c([H])c6[H])c(C(=O)N([H])[H])c5N([H])[H])C4([H])[H])c4c3C(=O)C([H])([H])C([H])([H])C([H])([H])C4([H])[H])c([H])c([H])c2C1([H])[H]

$$$$
69:0:0
     RDKit          3D

 97106  0  0  1  0  0  0  0  0999 V2000
  -26.3950  -21.8670   17.8530 C   0  0  0  0  0  3  0  0  0  0  0  0
  -26.2990  -22.7270   16.7360 C   0  0  0  0  0  3  0  0  0  0  0  0
  -27.5360  -23.6060   19.0920 C   0  0  0  0  0  0  0  0  0  0  0  0
  -27.5020  -24.4270   17.9640 C   0  0  0  0  0  0  0  0  0  0  0  0
  -27.0490  -22.2780   19.0410 C   0  0  0  0  0  0  0  0  0  0  0  0
  -26.8790  -24.0120   16.7740 C   0  0  0  0  0  0  0  0  0  0  0  0
  -28.1310  -24.3330   20.2760 C   0  0  0  0  0  2  0  0  0  0  0  0
  -28.2050  -25.7430   18.1950 C   0  0  0  0  0  2  0  0  0  0  0  0
  -28.6330  -25.6770   19.6870 C   0  0  0  0  0  3  0  0  0  0  0  0
  -26.8340  -24.8390   15.6920 O   0  0  0  0  0  0  0  0  0  0  0  0
  -26.3630  -24.4650   14.9530 H   0  0  0  0  0  0  0  0  0  0  0  0
  -28.3840  -26.8380   20.4990 O   0  0  0  0  0  0  0  0  0  0  0  0
  -24.5900  -32.0620   23.4800 C   0  0  0  0  0  0  0  0  0  0  0  0
  -27.1750  -27.5080   20.5040 C   0  0  0  0  0  0  0  0  0  0  0  0
  -23.3720  -30.6600   21.8470 C   0  0  0  0  0  3  0  0  0  0  0  0
  -24.8030  -29.0580   20.4810 C   0  0  0  0  0  0  0  0  0  0  0  0
  -25.9080  -30.9540   21.6770 C   0  0  0  0  0  2  0  0  0  0  0  0
  -25.9660  -29.5690   21.0670 C   0  0  0  0  0  0  0  0  0  0  0  0
  -27.1510  -28.8020   21.0760 C   0  0  0  0  0  3  0  0  0  0  0  0
  -25.9750  -26.9910   19.9630 C   0  0  0  0  0  3  0  0  0  0  0  0
  -24.8000  -27.7640   19.9330 C   0  0  0  0  0  3  0  0  0  0  0  0
  -23.5830  -29.9470   20.4850 C   0  0  0  0  0  2  0  0  0  0  0  0
  -24.6410  -31.2420   22.3920 N   0  0  0  0  0  0  0  0  0  0  0  0
  -23.5080  -32.3700   23.9990 O   0  0  0  0  0  0  0  0  0  0  0  0
  -22.6860  -29.6710   22.8160 C   0  0  0  0  0  0  0  0  0  0  0  0
  -21.3680  -29.4820   22.6420 N   0  0  0  0  0  0  0  0  0  0  0  0
  -23.3380  -29.0750   23.6780 O   0  0  0  0  0  0  0  0  0  0  0  0
  -20.9050  -30.0150   21.9190 H   0  0  0  0  0  0  0  0  0  0  0  0
  -17.9850  -28.2710   23.0130 C   0  0  0  0  0  0  0  0  0  0  0  0
  -20.5210  -28.5720   23.4100 C   0  0  0  0  0  3  0  0  0  0  0  0
  -20.6680  -27.1170   22.9080 C   0  0  0  0  0  2  0  0  0  0  0  0
  -19.6260  -26.7350   21.8530 C   0  0  0  0  0  2  0  0  0  0  0  0
  -18.2100  -26.8940   22.4140 C   0  0  0  0  0  2  0  0  0  0  0  0
  -19.0710  -29.0650   23.4670 C   0  0  0  0  0  0  0  0  0  0  0  0
  -18.8100  -30.3540   23.9830 C   0  0  0  0  0  3  0  0  0  0  0  0
  -17.4930  -30.8480   24.0520 C   0  0  0  0  0  3  0  0  0  0  0  0
  -16.4200  -30.0520   23.6160 C   0  0  0  0  0  3  0  0  0  0  0  0
  -16.6660  -28.7660   23.1030 C   0  0  0  0  0  3  0  0  0  0  0  0
  -25.8830  -32.6730   24.1060 C   0  0  0  0  0  3  0  0  0  0  0  0
  -25.6030  -34.0820   24.4130 N   0  0  0  0  0  0  0  0  0  0  0  0
  -25.9460  -35.1130   23.6290 C   0  0  0  0  0  0  0  0  0  0  0  0
  -26.6040  -34.9770   22.5940 O   0  0  0  0  0  0  0  0  0  0  0  0
  -25.0190  -34.2630   25.2160 H   0  0  0  0  0  0  0  0  0  0  0  0
  -24.2290  -36.9140   23.2690 C   0  0  0  0  0  1  0  0  0  0  0  0
  -25.4850  -36.5170   24.0620 C   0  0  0  0  0  3  0  0  0  0  0  0
  -27.6460  -37.3970   24.8230 C   0  0  0  0  0  1  0  0  0  0  0  0
  -26.5270  -37.5560   23.9000 N   0  0  0  0  0  0  0  0  0  0  0  0
  -26.1340  -38.4850   24.0310 H   0  0  0  0  0  0  0  0  0  0  0  0
  -26.3720  -31.9070   25.3970 C   0  0  1  0  0  0  0  0  0  0  0  0
  -25.2540  -31.6720   26.4410 C   0  0  0  0  0  1  0  0  0  0  0  0
  -26.9630  -30.5280   25.0220 C   0  0  0  0  0  1  0  0  0  0  0  0
  -27.5080  -32.7030   26.0820 C   0  0  0  0  0  1  0  0  0  0  0  0
  -27.2830  -21.2590   20.1540 C   0  0  0  0  0  2  0  0  0  0  0  0
  -28.2800  -20.1770   19.6730 C   0  0  0  0  0  2  0  0  0  0  0  0
  -28.5630  -19.0850   20.6400 N   0  0  0  0  0  4  0  0  0  0  0  0
  -27.7010  -18.7930   21.0690 H   0  0  0  0  0  0  0  0  0  0  0  0
  -29.1740  -19.4330   21.3630 H   0  0  0  0  0  0  0  0  0  0  0  0
  -29.1850  -17.9170   19.9680 C   0  0  0  0  0  2  0  0  0  0  0  0
  -29.5750  -16.7370   20.8880 C   0  0  0  0  0  2  0  0  0  0  0  0
  -30.7910  -14.5950   20.3910 C   0  0  0  0  0  0  0  0  0  0  0  0
  -30.4360  -12.4030   19.3560 C   0  0  0  0  0  2  0  0  0  0  0  0
  -29.5290  -12.5980   18.1140 C   0  0  0  0  0  2  0  0  0  0  0  0
  -28.0540  -12.9360   18.4590 C   0  0  0  0  0  2  0  0  0  0  0  0
  -27.7600  -12.8430   19.9580 C   0  0  0  0  0  3  0  0  0  0  0  0
  -28.7940  -13.2720   20.9960 C   0  0  0  0  0  2  0  0  0  0  0  0
  -30.0950  -13.4420   20.3400 N   0  0  0  0  0  0  0  0  0  0  0  0
  -31.9880  -14.6790   20.1320 O   0  0  0  0  0  0  0  0  0  0  0  0
  -30.0370  -15.6410   20.0340 N   0  0  0  0  0  0  0  0  0  0  0  0
  -30.3770  -16.0020   19.1530 H   0  0  0  0  0  0  0  0  0  0  0  0
  -25.3750  -13.8510   20.5700 C   0  0  0  0  0  0  0  0  0  0  0  0
  -24.2570  -13.1390   20.9420 C   0  0  0  0  0  0  0  0  0  0  0  0
  -24.6410  -11.7680   20.9140 C   0  0  0  0  0  0  0  0  0  0  0  0
  -26.3640  -12.8810   20.3660 N   0  0  0  0  0  0  0  0  0  0  0  0
  -25.8980  -11.6490   20.6050 N   0  0  0  0  0  0  0  0  0  0  0  0
  -23.9130  -10.5240   21.1010 C   0  0  0  0  0  0  0  0  0  0  0  0
  -24.3710   -9.5500   22.0160 C   0  0  0  0  0  3  0  0  0  0  0  0
  -23.6630   -8.3430   22.1770 C   0  0  0  0  0  3  0  0  0  0  0  0
  -22.4910   -8.1110   21.4190 C   0  0  0  0  0  0  0  0  0  0  0  0
  -22.0630   -9.0720   20.4880 C   0  0  0  0  0  3  0  0  0  0  0  0
  -22.7710  -10.2710   20.3240 C   0  0  0  0  0  3  0  0  0  0  0  0
  -21.7430   -6.9640   21.4980 O   0  0  0  0  0  0  0  0  0  0  0  0
  -21.6930   -6.2220   22.6480 C   0  0  0  0  0  0  0  0  0  0  0  0
  -21.2540   -6.7710   23.8730 C   0  0  0  0  0  3  0  0  0  0  0  0
  -21.1550   -5.9500   25.0150 C   0  0  0  0  0  3  0  0  0  0  0  0
  -21.4820   -4.5830   24.9290 C   0  0  0  0  0  0  0  0  0  0  0  0
  -21.9170   -4.0360   23.7100 C   0  0  0  0  0  3  0  0  0  0  0  0
  -22.0190   -4.8550   22.5720 C   0  0  0  0  0  0  0  0  0  0  0  0
  -22.4190   -4.3210   21.3920 F   0  0  0  0  0  0  0  0  0  0  0  0
  -21.3750   -3.7930   26.0220 F   0  0  0  0  0  0  0  0  0  0  0  0
  -22.8770  -13.6540   21.2340 C   0  0  0  0  0  0  0  0  0  0  0  0
  -22.1430  -12.9610   22.1000 N   0  0  0  0  0  0  0  0  0  0  0  0
  -22.4540  -14.6900   20.7270 O   0  0  0  0  0  0  0  0  0  0  0  0
  -22.4980  -12.1200   22.5290 H   0  0  0  0  0  0  0  0  0  0  0  0
  -21.2140  -13.2780   22.3380 H   0  0  0  0  0  0  0  0  0  0  0  0
  -25.6200  -15.2100   20.3940 N   0  0  0  0  0  0  0  0  0  0  0  0
  -24.9010  -15.9190   20.4910 H   0  0  0  0  0  0  0  0  0  0  0  0
  -26.5070  -15.5720   20.0720 H   0  0  0  0  0  0  0  0  0  0  0  0
  1  5  1  0
  2  6  1  0
  2  1  2  0
  3  7  1  0
  4  8  1  0
  4  3  1  0
  5  3  2  0
  5 53  1  0
  6  4  2  0
  8  9  1  0
  9  7  1  0
  9 12  1  0
 10  6  1  0
 11 10  1  0
 12 14  1  0
 13 24  2  0
 14 19  1  0
 15 23  1  0
 15 25  1  0
 16 22  1  0
 16 18  1  0
 17 23  1  0
 18 19  2  0
 18 17  1  0
 20 14  2  0
 21 20  1  0
 21 16  2  0
 22 15  1  0
 23 13  1  0
 25 27  2  0
 26 25  1  0
 28 26  1  0
 29 38  2  0
 29 34  1  0
 30 26  1  0
 30 34  1  0
 31 30  1  0
 32 33  1  0
 32 31  1  0
 33 29  1  0
 34 35  2  0
 35 36  1  0
 37 36  2  0
 38 37  1  0
 39 13  1  0
 39 40  1  0
 39 49  1  0
 40 43  1  0
 41 45  1  0
 41 40  1  0
 42 41  2  0
 45 44  1  0
 47 48  1  0
 47 45  1  0
 47 46  1  0
 49 52  1  1
 49 50  1  0
 51 49  1  0
 54 53  1  0
 54 55  1  0
 55 56  1  0
 55 57  1  0
 58 55  1  0
 58 59  1  0
 61 66  1  0
 62 63  1  0
 62 61  1  0
 64 63  1  0
 64 73  1  0
 64 65  1  0
 66 60  1  0
 66 65  1  0
 67 60  2  0
 68 60  1  0
 68 59  1  0
 69 68  1  0
 70 71  2  0
 71 90  1  0
 72 71  1  0
 72 75  1  0
 73 70  1  0
 73 74  1  0
 74 72  2  0
 75 76  1  0
 76 77  2  0
 78 81  1  0
 78 77  1  0
 79 78  2  0
 80 79  1  0
 80 75  2  0
 81 82  1  0
 82 83  1  0
 83 84  2  0
 85 84  1  0
 85 89  1  0
 86 85  2  0
 87 82  2  0
 87 86  1  0
 88 87  1  0
 90 91  1  0
 91 94  1  0
 91 93  1  0
 92 90  2  0
 95 96  1  0
 95 70  1  0
 97 95  1  0
M  ISO  4   9 101  12 101  60 100  68 100
M  END
>  <TORSDO>  (70) 
F 22

>  <SCORE>  (70) 
-11.557

>  <name>  (70) 
69

>  <ligand_id>  (70) 
69

>  <original_smiles>  (70) 
[H]Oc1c([H])c([H])c(C([H])([H])C([H])([H])[N+]([H])([H])C([H])([H])C([H])([H])N([H])C(=O)N2C([H])([H])C([H])([H])C([H])([H])C([H])(n3nc(-c4c([H])c([H])c(Oc5c([H])c([H])c(F)c([H])c5F)c([H])c4[H])c(C(=O)N([H])[H])c3N([H])[H])C2([H])[H])c2c1C([H])([H])C([H])(Oc1c([H])c([H])c3c(c1[H])C([H])([H])N(C(=O)C([H])(N([H])C(=O)C([H])(N([H])C([H])([H])[H])C([H])([H])[H])C(C([H])([H])[H])(C([H])([H])[H])C([H])([H])[H])C([H])(C(=O)N([H])C1([H])c4c([H])c([H])c([H])c([H])c4C([H])([H])C([H])([H])C1([H])[H])C3([H])[H])C2([H])[H]

>  <smiles>  (70) 
[H]Oc1c([H])c([H])c(C([H])([H])C([H])([H])[N+]([H])([H])C([H])([H])C([H])([H])N([H])C(=O)N2C([H])([H])C([H])([H])C([H])([H])C([H])(n3nc(-c4c([H])c([H])c(Oc5c([H])c([H])c(F)c([H])c5F)c([H])c4[H])c(C(=O)N([H])[H])c3N([H])[H])C2([H])[H])c2c1C([H])([H])C([H])(Oc1c([H])c([H])c3c(c1[H])C([H])([H])N(C(=O)C([H])(N([H])C(=O)C([H])(N([H])C([H])([H])[H])C([H])([H])[H])C(C([H])([H])[H])(C([H])([H])[H])C([H])([H])[H])C([H])(C(=O)N([H])C1([H])c4c([H])c([H])c([H])c([H])c4C([H])([H])C([H])([H])C1([H])[H])C3([H])[H])C2([H])[H]

$$$$
70:0:0
     RDKit          3D

101109  0  0  1  0  0  0  0  0999 V2000
  -28.5060  -22.6530   18.8280 C   0  0  0  0  0  3  0  0  0  0  0  0
  -28.9350  -23.9070   19.2840 C   0  0  0  0  0  0  0  0  0  0  0  0
  -27.2450  -22.1300   19.1730 C   0  0  0  0  0  0  0  0  0  0  0  0
  -26.3500  -22.9240   19.9460 C   0  0  0  0  0  0  0  0  0  0  0  0
  -26.7630  -24.2150   20.3800 C   0  0  0  0  0  0  0  0  0  0  0  0
  -28.0820  -24.6770   20.1030 C   0  0  0  0  0  0  0  0  0  0  0  0
  -30.3350  -24.3700   18.9200 C   0  0  0  0  0  1  0  0  0  0  0  0
  -24.9620  -22.4260   20.3540 C   0  0  0  0  0  1  0  0  0  0  0  0
  -25.8030  -25.0940   21.1820 C   0  0  0  0  0  1  0  0  0  0  0  0
  -26.9850  -20.6880   18.7440 C   0  0  0  0  0  2  0  0  0  0  0  0
  -25.3330  -20.9190   16.8200 C   0  0  0  0  0  1  0  0  0  0  0  0
  -26.7710  -20.5130   17.2120 C   0  0  0  0  0  3  0  0  0  0  0  0
  -27.0580  -19.1330   16.7370 N   0  0  0  0  0  4  0  0  0  0  0  0
  -26.3940  -18.4770   17.1150 H   0  0  0  0  0  0  0  0  0  0  0  0
  -26.9240  -19.1470   15.7380 H   0  0  0  0  0  0  0  0  0  0  0  0
  -28.4490  -18.6570   16.9610 C   0  0  0  0  0  2  0  0  0  0  0  0
  -28.5730  -17.8830   18.2900 C   0  0  0  0  0  2  0  0  0  0  0  0
  -29.8400  -18.2130   19.1010 C   0  0  0  0  0  2  0  0  0  0  0  0
  -29.5680  -18.1440   20.6180 C   0  0  0  0  0  2  0  0  0  0  0  0
  -30.8460  -18.0250   21.4750 C   0  0  0  0  0  2  0  0  0  0  0  0
  -31.0030  -16.7130   22.2790 C   0  0  0  0  0  2  0  0  0  0  0  0
  -30.7490  -14.9530   20.4910 C   0  0  0  0  0  0  0  0  0  0  0  0
  -30.4290  -12.8950   19.1670 C   0  0  0  0  0  2  0  0  0  0  0  0
  -29.4760  -13.0670   17.9720 C   0  0  0  0  0  2  0  0  0  0  0  0
  -28.0170  -12.8630   18.4140 C   0  0  0  0  0  2  0  0  0  0  0  0
  -27.6510  -13.7030   19.6630 C   0  0  0  0  0  3  0  0  0  0  0  0
  -28.7020  -13.5080   20.7780 C   0  0  0  0  0  2  0  0  0  0  0  0
  -30.0360  -13.8290   20.2300 N   0  0  0  0  0  0  0  0  0  0  0  0
  -31.6910  -15.3460   19.7980 O   0  0  0  0  0  0  0  0  0  0  0  0
  -30.4240  -15.5290   21.6530 N   0  0  0  0  0  0  0  0  0  0  0  0
  -29.6810  -15.0770   22.1690 H   0  0  0  0  0  0  0  0  0  0  0  0
  -25.2310  -14.2360   20.3610 C   0  0  0  0  0  0  0  0  0  0  0  0
  -24.1830  -13.4260   20.7260 C   0  0  0  0  0  0  0  0  0  0  0  0
  -24.6910  -12.0910   20.6980 C   0  0  0  0  0  0  0  0  0  0  0  0
  -26.3050  -13.3880   20.1380 N   0  0  0  0  0  0  0  0  0  0  0  0
  -25.9830  -12.0940   20.3910 N   0  0  0  0  0  0  0  0  0  0  0  0
  -24.0060  -10.8060   20.8870 C   0  0  0  0  0  0  0  0  0  0  0  0
  -24.4460   -9.8690   21.8490 C   0  0  0  0  0  3  0  0  0  0  0  0
  -23.7590   -8.6490   22.0250 C   0  0  0  0  0  3  0  0  0  0  0  0
  -22.6210   -8.3550   21.2360 C   0  0  0  0  0  0  0  0  0  0  0  0
  -22.2010   -9.2810   20.2640 C   0  0  0  0  0  3  0  0  0  0  0  0
  -22.8870  -10.4940   20.0880 C   0  0  0  0  0  3  0  0  0  0  0  0
  -21.9100   -7.1820   21.3180 O   0  0  0  0  0  0  0  0  0  0  0  0
  -21.8250   -6.4720   22.4890 C   0  0  0  0  0  0  0  0  0  0  0  0
  -21.3140   -7.0460   23.6740 C   0  0  0  0  0  3  0  0  0  0  0  0
  -21.1800   -6.2620   24.8370 C   0  0  0  0  0  3  0  0  0  0  0  0
  -21.5480   -4.9030   24.8170 C   0  0  0  0  0  0  0  0  0  0  0  0
  -22.0500   -4.3280   23.6360 C   0  0  0  0  0  3  0  0  0  0  0  0
  -22.1870   -5.1100   22.4770 C   0  0  0  0  0  0  0  0  0  0  0  0
  -22.6520   -4.5460   21.3350 F   0  0  0  0  0  0  0  0  0  0  0  0
  -21.4110   -4.1460   25.9310 F   0  0  0  0  0  0  0  0  0  0  0  0
  -22.7710  -13.8580   20.9930 C   0  0  0  0  0  0  0  0  0  0  0  0
  -22.0680  -13.1400   21.8650 N   0  0  0  0  0  0  0  0  0  0  0  0
  -22.2940  -14.8610   20.4680 O   0  0  0  0  0  0  0  0  0  0  0  0
  -22.4640  -12.3290   22.3140 H   0  0  0  0  0  0  0  0  0  0  0  0
  -21.1220  -13.4120   22.0880 H   0  0  0  0  0  0  0  0  0  0  0  0
  -25.3490  -15.6090   20.1810 N   0  0  0  0  0  0  0  0  0  0  0  0
  -24.5680  -16.2430   20.3060 H   0  0  0  0  0  0  0  0  0  0  0  0
  -26.2060  -16.0750   19.9050 H   0  0  0  0  0  0  0  0  0  0  0  0
  -28.6590  -25.9120   20.7960 C   0  0  0  0  0  2  0  0  0  0  0  0
  -28.6910  -27.0970   20.0020 O   0  0  0  0  0  0  0  0  0  0  0  0
  -24.6950  -31.9810   23.2090 C   0  0  0  0  0  0  0  0  0  0  0  0
  -27.5120  -27.7820   19.9910 C   0  0  0  0  0  0  0  0  0  0  0  0
  -23.5510  -30.6010   21.5010 C   0  0  0  0  0  3  0  0  0  0  0  0
  -25.0690  -29.1700   20.0390 C   0  0  0  0  0  0  0  0  0  0  0  0
  -26.0580  -31.0600   21.3450 C   0  0  0  0  0  2  0  0  0  0  0  0
  -26.1950  -29.7160   20.6660 C   0  0  0  0  0  0  0  0  0  0  0  0
  -27.4140  -29.0160   20.6640 C   0  0  0  0  0  3  0  0  0  0  0  0
  -26.3860  -27.2580   19.3290 C   0  0  0  0  0  3  0  0  0  0  0  0
  -25.1540  -27.9350   19.3780 C   0  0  0  0  0  3  0  0  0  0  0  0
  -23.7980  -29.9790   20.1020 C   0  0  0  0  0  2  0  0  0  0  0  0
  -24.7850  -31.2280   22.0790 N   0  0  0  0  0  0  0  0  0  0  0  0
  -23.5980  -32.1930   23.7460 O   0  0  0  0  0  0  0  0  0  0  0  0
  -22.9290  -29.5230   22.4120 C   0  0  0  0  0  0  0  0  0  0  0  0
  -21.6100  -29.3060   22.2760 N   0  0  0  0  0  0  0  0  0  0  0  0
  -23.6310  -28.8760   23.1940 O   0  0  0  0  0  0  0  0  0  0  0  0
  -21.0980  -29.8670   21.6070 H   0  0  0  0  0  0  0  0  0  0  0  0
  -18.2720  -28.0300   22.7560 C   0  0  0  0  0  0  0  0  0  0  0  0
  -20.8290  -28.3160   23.0110 C   0  0  0  0  0  3  0  0  0  0  0  0
  -20.9490  -26.9220   22.3560 C   0  0  0  0  0  2  0  0  0  0  0  0
  -19.8410  -26.6340   21.3400 C   0  0  0  0  0  2  0  0  0  0  0  0
  -18.4650  -26.7200   22.0070 C   0  0  0  0  0  2  0  0  0  0  0  0
  -19.3830  -28.7860   23.2150 C   0  0  0  0  0  0  0  0  0  0  0  0
  -19.1510  -30.0130   23.8710 C   0  0  0  0  0  3  0  0  0  0  0  0
  -17.8440  -30.4850   24.0790 C   0  0  0  0  0  3  0  0  0  0  0  0
  -16.7460  -29.7240   23.6390 C   0  0  0  0  0  3  0  0  0  0  0  0
  -16.9610  -28.5000   22.9800 C   0  0  0  0  0  3  0  0  0  0  0  0
  -25.9570  -32.6330   23.8600 C   0  0  0  0  0  3  0  0  0  0  0  0
  -26.4650  -31.8630   25.1400 C   0  0  1  0  0  0  0  0  0  0  0  0
  -25.3500  -31.6040   26.1820 C   0  0  0  0  0  1  0  0  0  0  0  0
  -27.0880  -30.4970   24.7560 C   0  0  0  0  0  1  0  0  0  0  0  0
  -27.5830  -32.6790   25.8310 C   0  0  0  0  0  1  0  0  0  0  0  0
  -25.6270  -34.0250   24.1830 N   0  0  0  0  0  0  0  0  0  0  0  0
  -25.9430  -35.0780   23.4160 C   0  0  0  0  0  0  0  0  0  0  0  0
  -26.6200  -34.9800   22.3890 O   0  0  0  0  0  0  0  0  0  0  0  0
  -25.0340  -34.1830   24.9880 H   0  0  0  0  0  0  0  0  0  0  0  0
  -24.1790  -36.8270   23.0390 C   0  0  0  0  0  1  0  0  0  0  0  0
  -25.4210  -36.4540   23.8620 C   0  0  0  0  0  3  0  0  0  0  0  0
  -27.5310  -37.3940   24.6970 C   0  0  0  0  0  1  0  0  0  0  0  0
  -26.4270  -37.5300   23.7500 N   0  0  0  0  0  0  0  0  0  0  0  0
  -25.9930  -38.4370   23.8910 H   0  0  0  0  0  0  0  0  0  0  0  0
  1  3  2  0
  1  2  1  0
  2  6  2  0
  3  4  1  0
  4  8  1  0
  4  5  2  0
  5  9  1  0
  6  5  1  0
  6 60  1  0
  7  2  1  0
 10  3  1  0
 12 11  1  0
 12 10  1  0
 13 16  1  0
 13 14  1  0
 13 12  1  0
 15 13  1  0
 16 17  1  0
 17 18  1  0
 18 19  1  0
 19 20  1  0
 20 21  1  0
 22 30  1  0
 23 28  1  0
 24 25  1  0
 24 23  1  0
 26 25  1  0
 26 35  1  0
 26 27  1  0
 28 22  1  0
 28 27  1  0
 29 22  2  0
 30 31  1  0
 30 21  1  0
 32 33  2  0
 33 52  1  0
 34 33  1  0
 34 37  1  0
 35 32  1  0
 35 36  1  0
 36 34  2  0
 37 38  1  0
 38 39  2  0
 40 43  1  0
 40 39  1  0
 41 40  2  0
 42 41  1  0
 42 37  2  0
 43 44  1  0
 44 45  1  0
 45 46  2  0
 47 46  1  0
 47 51  1  0
 48 47  2  0
 49 44  2  0
 49 48  1  0
 50 49  1  0
 52 53  1  0
 53 56  1  0
 53 55  1  0
 54 52  2  0
 57 58  1  0
 57 32  1  0
 59 57  1  0
 61 60  1  0
 62 73  2  0
 63 61  1  0
 63 68  1  0
 64 72  1  0
 64 74  1  0
 65 71  1  0
 65 67  1  0
 66 72  1  0
 67 66  1  0
 68 67  2  0
 69 70  1  0
 69 63  2  0
 70 65  2  0
 71 64  1  0
 72 62  1  0
 74 76  2  0
 75 74  1  0
 77 75  1  0
 78 87  2  0
 78 83  1  0
 79 75  1  0
 79 83  1  0
 80 79  1  0
 81 82  1  0
 81 80  1  0
 82 78  1  0
 83 84  2  0
 84 85  1  0
 86 85  2  0
 87 86  1  0
 88 62  1  0
 88 93  1  0
 88 89  1  0
 89 92  1  1
 89 90  1  0
 91 89  1  0
 93 96  1  0
 94 98  1  0
 94 93  1  0
 95 94  2  0
 98 97  1  0
100 98  1  0
100101  1  0
100 99  1  0
M  ISO  4  22 100  30 100  60 101  61 101
M  END
>  <TORSDO>  (71) 
F 26

>  <SCORE>  (71) 
-10.880

>  <name>  (71) 
70

>  <ligand_id>  (71) 
70

>  <original_smiles>  (71) 
[H]c1c([H])c([H])c2c(c1[H])C([H])([H])C([H])([H])C([H])([H])C2([H])N([H])C(=O)C1([H])N(C(=O)C([H])(N([H])C(=O)C([H])(N([H])C([H])([H])[H])C([H])([H])[H])C(C([H])([H])[H])(C([H])([H])[H])C([H])([H])[H])C([H])([H])c2c([H])c(OC([H])([H])c3c(C([H])([H])[H])c([H])c(C([H])([H])C([H])(C([H])([H])[H])[N+]([H])([H])C([H])([H])C([H])([H])C([H])([H])C([H])([H])C([H])([H])C([H])([H])N([H])C(=O)N4C([H])([H])C([H])([H])C([H])([H])C([H])(n5nc(-c6c([H])c([H])c(Oc7c([H])c([H])c(F)c([H])c7F)c([H])c6[H])c(C(=O)N([H])[H])c5N([H])[H])C4([H])[H])c(C([H])([H])[H])c3C([H])([H])[H])c([H])c([H])c2C1([H])[H]

>  <smiles>  (71) 
[H]c1c([H])c([H])c2c(c1[H])C([H])([H])C([H])([H])C([H])([H])C2([H])N([H])C(=O)C1([H])N(C(=O)C([H])(N([H])C(=O)C([H])(N([H])C([H])([H])[H])C([H])([H])[H])C(C([H])([H])[H])(C([H])([H])[H])C([H])([H])[H])C([H])([H])c2c([H])c(OC([H])([H])c3c(C([H])([H])[H])c([H])c(C([H])([H])C([H])(C([H])([H])[H])[N+]([H])([H])C([H])([H])C([H])([H])C([H])([H])C([H])([H])C([H])([H])C([H])([H])N([H])C(=O)N4C([H])([H])C([H])([H])C([H])([H])C([H])(n5nc(-c6c([H])c([H])c(Oc7c([H])c([H])c(F)c([H])c7F)c([H])c6[H])c(C(=O)N([H])[H])c5N([H])[H])C4([H])[H])c(C([H])([H])[H])c3C([H])([H])[H])c([H])c([H])c2C1([H])[H]

$$$$
71:0:0
     RDKit          3D

 95104  0  0  1  0  0  0  0  0999 V2000
  -30.4670  -20.4690   20.3380 C   0  0  0  0  0  3  0  0  0  0  0  0
  -30.5110  -21.8810   20.2640 C   0  0  0  0  0  3  0  0  0  0  0  0
  -28.1720  -20.4880   19.5150 C   0  0  0  0  0  0  0  0  0  0  0  0
  -28.2300  -21.9170   19.4200 C   0  0  0  0  0  0  0  0  0  0  0  0
  -29.3000  -19.7480   19.9990 C   0  0  0  0  0  0  0  0  0  0  0  0
  -29.3920  -22.6190   19.8440 C   0  0  0  0  0  0  0  0  0  0  0  0
  -26.8870  -19.7460   19.1250 C   0  0  0  0  0  2  0  0  0  0  0  0
  -27.0270  -22.7220   18.9100 C   0  0  0  0  0  2  0  0  0  0  0  0
  -25.6580  -20.6240   18.8560 C   0  0  0  0  0  2  0  0  0  0  0  0
  -26.0140  -21.9020   18.1040 C   0  0  0  0  0  2  0  0  0  0  0  0
  -29.4320  -24.0280   19.9330 N   0  0  0  0  0  0  0  0  0  0  0  0
  -28.6950  -24.3830   20.5350 H   0  0  0  0  0  0  0  0  0  0  0  0
  -29.4400  -24.7660   18.6640 C   0  0  0  0  0  2  0  0  0  0  0  0
  -30.2770  -26.0800   18.6690 C   0  0  0  0  0  2  0  0  0  0  0  0
  -29.8300  -27.1540   19.5170 O   0  0  0  0  0  0  0  0  0  0  0  0
  -24.9000  -30.8690   23.0060 C   0  0  0  0  0  0  0  0  0  0  0  0
  -28.5280  -27.6210   19.4660 C   0  0  0  0  0  0  0  0  0  0  0  0
  -24.0710  -29.5490   21.0850 C   0  0  0  0  0  3  0  0  0  0  0  0
  -25.8660  -28.6000   19.5340 C   0  0  0  0  0  0  0  0  0  0  0  0
  -26.4700  -30.4390   21.1170 C   0  0  0  0  0  2  0  0  0  0  0  0
  -26.8620  -29.2380   20.2780 C   0  0  0  0  0  0  0  0  0  0  0  0
  -28.1890  -28.7530   20.2470 C   0  0  0  0  0  3  0  0  0  0  0  0
  -27.5120  -27.0120   18.6940 C   0  0  0  0  0  3  0  0  0  0  0  0
  -26.1880  -27.4880   18.7330 C   0  0  0  0  0  3  0  0  0  0  0  0
  -24.4650  -29.1610   19.6310 C   0  0  0  0  0  2  0  0  0  0  0  0
  -25.1590  -30.2960   21.7970 N   0  0  0  0  0  0  0  0  0  0  0  0
  -23.7680  -30.8250   23.5090 O   0  0  0  0  0  0  0  0  0  0  0  0
  -23.6140  -28.2740   21.8310 C   0  0  0  0  0  0  0  0  0  0  0  0
  -22.3680  -27.8450   21.5720 N   0  0  0  0  0  0  0  0  0  0  0  0
  -24.3790  -27.6810   22.5970 O   0  0  0  0  0  0  0  0  0  0  0  0
  -21.8020  -28.3960   20.9440 H   0  0  0  0  0  0  0  0  0  0  0  0
  -19.3130  -25.9150   21.6200 C   0  0  0  0  0  0  0  0  0  0  0  0
  -21.7390  -26.6460   22.1260 C   0  0  0  0  0  3  0  0  0  0  0  0
  -22.1690  -25.3800   21.3530 C   0  0  0  0  0  2  0  0  0  0  0  0
  -21.2150  -25.0180   20.2130 C   0  0  0  0  0  2  0  0  0  0  0  0
  -19.8030  -24.7670   20.7530 C   0  0  0  0  0  2  0  0  0  0  0  0
  -20.2190  -26.8080   22.2510 C   0  0  0  0  0  0  0  0  0  0  0  0
  -19.7080  -27.8840   23.0100 C   0  0  0  0  0  3  0  0  0  0  0  0
  -18.3200  -28.0740   23.1430 C   0  0  0  0  0  3  0  0  0  0  0  0
  -17.4270  -27.1760   22.5330 C   0  0  0  0  0  3  0  0  0  0  0  0
  -17.9230  -26.1010   21.7750 C   0  0  0  0  0  3  0  0  0  0  0  0
  -26.0020  -31.6340   23.8020 C   0  0  0  0  0  3  0  0  0  0  0  0
  -25.4470  -32.9340   24.1950 N   0  0  0  0  0  0  0  0  0  0  0  0
  -25.7010  -34.0910   23.5690 C   0  0  0  0  0  0  0  0  0  0  0  0
  -26.4980  -34.1820   22.6300 O   0  0  0  0  0  0  0  0  0  0  0  0
  -24.7450  -32.9190   24.9190 H   0  0  0  0  0  0  0  0  0  0  0  0
  -23.7730  -35.6430   23.1250 C   0  0  0  0  0  1  0  0  0  0  0  0
  -24.9550  -35.3450   24.0620 C   0  0  0  0  0  3  0  0  0  0  0  0
  -26.8220  -36.4380   25.2240 C   0  0  0  0  0  1  0  0  0  0  0  0
  -25.8200  -36.5410   24.1660 N   0  0  0  0  0  0  0  0  0  0  0  0
  -25.2620  -37.3740   24.3400 H   0  0  0  0  0  0  0  0  0  0  0  0
  -26.5150  -30.8420   25.0670 C   0  0  1  0  0  0  0  0  0  0  0  0
  -25.3820  -30.3570   26.0010 C   0  0  0  0  0  1  0  0  0  0  0  0
  -27.3390  -29.6030   24.6430 C   0  0  0  0  0  1  0  0  0  0  0  0
  -27.4610  -31.7390   25.9000 C   0  0  0  0  0  1  0  0  0  0  0  0
  -29.2400  -18.2230   20.3010 C   0  0  0  0  0  2  0  0  0  0  0  0
  -29.9910  -17.2350   19.3620 C   0  0  0  0  0  2  0  0  0  0  0  0
  -30.8540  -14.8480   19.6810 C   0  0  0  0  0  0  0  0  0  0  0  0
  -30.7040  -12.5090   18.9240 C   0  0  0  0  0  2  0  0  0  0  0  0
  -29.6880  -12.4670   17.7620 C   0  0  0  0  0  2  0  0  0  0  0  0
  -28.2490  -12.3170   18.2940 C   0  0  0  0  0  2  0  0  0  0  0  0
  -27.9190  -13.3220   19.4290 C   0  0  0  0  0  3  0  0  0  0  0  0
  -29.0330  -13.3210   20.5010 C   0  0  0  0  0  2  0  0  0  0  0  0
  -30.3090  -13.6080   19.8220 N   0  0  0  0  0  0  0  0  0  0  0  0
  -31.9590  -15.0440   19.1700 O   0  0  0  0  0  0  0  0  0  0  0  0
  -29.9880  -15.8590   19.9080 N   0  0  0  0  0  0  0  0  0  0  0  0
  -29.1200  -15.5660   20.3360 H   0  0  0  0  0  0  0  0  0  0  0  0
  -25.6230  -13.9590   20.4020 C   0  0  0  0  0  0  0  0  0  0  0  0
  -24.5590  -13.1970   20.8040 C   0  0  0  0  0  0  0  0  0  0  0  0
  -24.9540  -11.8370   20.6210 C   0  0  0  0  0  0  0  0  0  0  0  0
  -26.6030  -13.0620   20.0050 N   0  0  0  0  0  0  0  0  0  0  0  0
  -26.2080  -11.7770   20.1910 N   0  0  0  0  0  0  0  0  0  0  0  0
  -24.1930  -10.5900   20.7690 C   0  0  0  0  0  0  0  0  0  0  0  0
  -24.6770   -9.5190   21.5510 C   0  0  0  0  0  3  0  0  0  0  0  0
  -23.9200   -8.3370   21.6960 C   0  0  0  0  0  3  0  0  0  0  0  0
  -22.6620   -8.2180   21.0580 C   0  0  0  0  0  0  0  0  0  0  0  0
  -22.1940   -9.2780   20.2620 C   0  0  0  0  0  3  0  0  0  0  0  0
  -22.9530  -10.4510   20.1150 C   0  0  0  0  0  3  0  0  0  0  0  0
  -21.8670   -7.0990   21.1210 O   0  0  0  0  0  0  0  0  0  0  0  0
  -21.9320   -6.2310   22.1800 C   0  0  0  0  0  0  0  0  0  0  0  0
  -21.7180   -6.6580   23.5090 C   0  0  0  0  0  3  0  0  0  0  0  0
  -21.7240   -5.7180   24.5590 C   0  0  0  0  0  3  0  0  0  0  0  0
  -21.9340   -4.3540   24.2840 C   0  0  0  0  0  0  0  0  0  0  0  0
  -22.1410   -3.9270   22.9610 C   0  0  0  0  0  3  0  0  0  0  0  0
  -22.1380   -4.8630   21.9110 C   0  0  0  0  0  0  0  0  0  0  0  0
  -22.3160   -4.4430   20.6360 F   0  0  0  0  0  0  0  0  0  0  0  0
  -21.9300   -3.4510   25.2920 F   0  0  0  0  0  0  0  0  0  0  0  0
  -23.2130  -13.7000   21.2430 C   0  0  0  0  0  0  0  0  0  0  0  0
  -22.5530  -12.9760   22.1390 N   0  0  0  0  0  0  0  0  0  0  0  0
  -22.7620  -14.7660   20.8250 O   0  0  0  0  0  0  0  0  0  0  0  0
  -22.9360  -12.1130   22.4980 H   0  0  0  0  0  0  0  0  0  0  0  0
  -21.6510  -13.2860   22.4710 H   0  0  0  0  0  0  0  0  0  0  0  0
  -25.8290  -15.3330   20.3180 N   0  0  0  0  0  0  0  0  0  0  0  0
  -25.0890  -15.9930   20.5330 H   0  0  0  0  0  0  0  0  0  0  0  0
  -26.6430  -15.7700   19.9050 H   0  0  0  0  0  0  0  0  0  0  0  0
  2  1  1  0
  3  5  1  0
  4  3  2  0
  4  6  1  0
  5 56  1  0
  5  1  2  0
  6 11  1  0
  6  2  2  0
  7  3  1  0
  8  4  1  0
  9  7  1  0
 10  9  1  0
 10  8  1  0
 11 12  1  0
 13 14  1  0
 13 11  1  0
 14 15  1  0
 16 27  2  0
 17 15  1  0
 17 22  1  0
 18 26  1  0
 18 28  1  0
 19 25  1  0
 19 21  1  0
 20 26  1  0
 21 20  1  0
 22 21  2  0
 23 24  1  0
 23 17  2  0
 24 19  2  0
 25 18  1  0
 26 16  1  0
 28 30  2  0
 29 28  1  0
 31 29  1  0
 32 41  2  0
 32 37  1  0
 33 29  1  0
 33 37  1  0
 34 33  1  0
 35 36  1  0
 35 34  1  0
 36 32  1  0
 37 38  2  0
 38 39  1  0
 40 39  2  0
 41 40  1  0
 42 16  1  0
 42 43  1  0
 42 52  1  0
 43 46  1  0
 44 48  1  0
 44 43  1  0
 45 44  2  0
 48 47  1  0
 48 50  1  0
 50 51  1  0
 50 49  1  0
 52 55  1  1
 52 53  1  0
 54 52  1  0
 57 66  1  0
 57 56  1  0
 58 64  1  0
 58 66  1  0
 59 64  1  0
 60 61  1  0
 60 59  1  0
 62 61  1  0
 62 71  1  0
 62 63  1  0
 64 63  1  0
 65 58  2  0
 66 67  1  0
 68 69  2  0
 69 88  1  0
 70 73  1  0
 70 69  1  0
 71 72  1  0
 71 68  1  0
 72 70  2  0
 73 74  1  0
 74 75  2  0
 76 79  1  0
 76 75  1  0
 77 76  2  0
 78 77  1  0
 78 73  2  0
 79 80  1  0
 80 81  1  0
 81 82  2  0
 83 82  1  0
 83 87  1  0
 84 83  2  0
 85 80  2  0
 85 84  1  0
 86 85  1  0
 88 89  1  0
 89 92  1  0
 89 91  1  0
 90 88  2  0
 93 68  1  0
 93 94  1  0
 95 93  1  0
M  ISO  4  14 101  15 101  58 100  66 100
M  END
>  <TORSDO>  (72) 
F 21

>  <SCORE>  (72) 
-9.353

>  <name>  (72) 
71

>  <ligand_id>  (72) 
71

>  <original_smiles>  (72) 
[H]c1c([H])c([H])c2c(c1[H])C([H])([H])C([H])([H])C([H])([H])C2([H])N([H])C(=O)C1([H])N(C(=O)C([H])(N([H])C(=O)C([H])(N([H])C([H])([H])[H])C([H])([H])[H])C(C([H])([H])[H])(C([H])([H])[H])C([H])([H])[H])C([H])([H])c2c([H])c(OC([H])([H])C([H])([H])N([H])c3c([H])c([H])c(C([H])([H])C([H])([H])N([H])C(=O)N4C([H])([H])C([H])([H])C([H])([H])C([H])(n5nc(-c6c([H])c([H])c(Oc7c([H])c([H])c(F)c([H])c7F)c([H])c6[H])c(C(=O)N([H])[H])c5N([H])[H])C4([H])[H])c4c3C([H])([H])C([H])([H])C([H])([H])C4([H])[H])c([H])c([H])c2C1([H])[H]

>  <smiles>  (72) 
[H]c1c([H])c([H])c2c(c1[H])C([H])([H])C([H])([H])C([H])([H])C2([H])N([H])C(=O)C1([H])N(C(=O)C([H])(N([H])C(=O)C([H])(N([H])C([H])([H])[H])C([H])([H])[H])C(C([H])([H])[H])(C([H])([H])[H])C([H])([H])[H])C([H])([H])c2c([H])c(OC([H])([H])C([H])([H])N([H])c3c([H])c([H])c(C([H])([H])C([H])([H])N([H])C(=O)N4C([H])([H])C([H])([H])C([H])([H])C([H])(n5nc(-c6c([H])c([H])c(Oc7c([H])c([H])c(F)c([H])c7F)c([H])c6[H])c(C(=O)N([H])[H])c5N([H])[H])C4([H])[H])c4c3C([H])([H])C([H])([H])C([H])([H])C4([H])[H])c([H])c([H])c2C1([H])[H]

$$$$
72:0:0
     RDKit          3D

 96104  0  0  1  0  0  0  0  0999 V2000
  -26.7230  -25.3780   21.2240 C   0  0  0  0  0  3  0  0  0  0  0  0
  -25.7260  -24.4110   21.0150 C   0  0  0  0  0  3  0  0  0  0  0  0
  -28.4240  -23.7530   20.5980 C   0  0  0  0  0  3  0  0  0  0  0  0
  -27.4290  -22.7540   20.4130 C   0  0  0  0  0  0  0  0  0  0  0  0
  -28.0790  -25.0760   20.9870 C   0  0  0  0  0  0  0  0  0  0  0  0
  -26.0600  -23.1070   20.6000 C   0  0  0  0  0  0  0  0  0  0  0  0
  -27.8250  -21.3500   20.0080 C   0  0  0  0  0  0  0  0  0  0  0  0
  -28.4450  -20.6170   20.9470 N   0  0  0  0  0  0  0  0  0  0  0  0
  -27.4790  -20.8880   18.9190 O   0  0  0  0  0  0  0  0  0  0  0  0
  -28.6920  -21.1200   21.7890 H   0  0  0  0  0  0  0  0  0  0  0  0
  -28.3940  -19.1460   21.0560 C   0  0  0  0  0  2  0  0  0  0  0  0
  -29.4480  -18.3730   20.2260 C   0  0  0  0  0  2  0  0  0  0  0  0
  -29.6380  -16.8970   20.6850 C   0  0  0  0  0  2  0  0  0  0  0  0
  -31.2470  -15.0880   19.9150 C   0  0  0  0  0  0  0  0  0  0  0  0
  -31.0160  -12.8100   19.0340 C   0  0  0  0  0  2  0  0  0  0  0  0
  -30.0450  -12.8530   17.8350 C   0  0  0  0  0  2  0  0  0  0  0  0
  -28.5890  -12.6930   18.3160 C   0  0  0  0  0  2  0  0  0  0  0  0
  -28.2340  -13.6320   19.5000 C   0  0  0  0  0  3  0  0  0  0  0  0
  -29.3270  -13.5930   20.5930 C   0  0  0  0  0  2  0  0  0  0  0  0
  -30.6120  -13.8870   19.9470 N   0  0  0  0  0  0  0  0  0  0  0  0
  -32.4100  -15.2140   19.5390 O   0  0  0  0  0  0  0  0  0  0  0  0
  -30.4580  -16.1600   19.7210 N   0  0  0  0  0  0  0  0  0  0  0  0
  -30.9140  -16.7930   19.0820 H   0  0  0  0  0  0  0  0  0  0  0  0
  -25.8770  -14.2110   20.3600 C   0  0  0  0  0  0  0  0  0  0  0  0
  -24.8310  -13.4220   20.7600 C   0  0  0  0  0  0  0  0  0  0  0  0
  -25.2910  -12.0740   20.6580 C   0  0  0  0  0  0  0  0  0  0  0  0
  -26.9090  -13.3380   20.0450 N   0  0  0  0  0  0  0  0  0  0  0  0
  -26.5640  -12.0470   20.2840 N   0  0  0  0  0  0  0  0  0  0  0  0
  -24.5740  -10.8050   20.8410 C   0  0  0  0  0  0  0  0  0  0  0  0
  -24.9450   -9.8860   21.8480 C   0  0  0  0  0  3  0  0  0  0  0  0
  -24.2310   -8.6810   22.0150 C   0  0  0  0  0  3  0  0  0  0  0  0
  -23.1330   -8.3830   21.1740 C   0  0  0  0  0  0  0  0  0  0  0  0
  -22.7820   -9.2890   20.1580 C   0  0  0  0  0  3  0  0  0  0  0  0
  -23.4970  -10.4870   19.9900 C   0  0  0  0  0  3  0  0  0  0  0  0
  -22.3950   -7.2260   21.2480 O   0  0  0  0  0  0  0  0  0  0  0  0
  -22.1230   -6.6230   22.4500 C   0  0  0  0  0  0  0  0  0  0  0  0
  -21.4690   -7.3080   23.4960 C   0  0  0  0  0  3  0  0  0  0  0  0
  -21.1440   -6.6290   24.6880 C   0  0  0  0  0  3  0  0  0  0  0  0
  -21.4630   -5.2660   24.8330 C   0  0  0  0  0  0  0  0  0  0  0  0
  -22.1080   -4.5800   23.7890 C   0  0  0  0  0  3  0  0  0  0  0  0
  -22.4350   -5.2570   22.6000 C   0  0  0  0  0  0  0  0  0  0  0  0
  -23.0400   -4.5850   21.5910 F   0  0  0  0  0  0  0  0  0  0  0  0
  -21.1430   -4.6120   25.9730 F   0  0  0  0  0  0  0  0  0  0  0  0
  -23.4500  -13.8870   21.1190 C   0  0  0  0  0  0  0  0  0  0  0  0
  -22.7870  -13.1910   22.0360 N   0  0  0  0  0  0  0  0  0  0  0  0
  -22.9670  -14.9020   20.6210 O   0  0  0  0  0  0  0  0  0  0  0  0
  -23.1880  -12.3690   22.4640 H   0  0  0  0  0  0  0  0  0  0  0  0
  -21.8620  -13.4860   22.3170 H   0  0  0  0  0  0  0  0  0  0  0  0
  -26.0300  -15.5870   20.2200 N   0  0  0  0  0  0  0  0  0  0  0  0
  -25.2670  -16.2330   20.3900 H   0  0  0  0  0  0  0  0  0  0  0  0
  -26.8500  -16.0370   19.8300 H   0  0  0  0  0  0  0  0  0  0  0  0
  -25.0020  -22.2140   20.4020 N   0  0  0  0  0  0  0  0  0  0  0  0
  -24.0630  -22.5920   20.3320 H   0  0  0  0  0  0  0  0  0  0  0  0
  -25.1480  -21.4270   19.7780 H   0  0  0  0  0  0  0  0  0  0  0  0
  -29.1430  -26.1610   21.2210 C   0  0  0  0  0  2  0  0  0  0  0  0
  -29.0970  -27.3050   20.3490 O   0  0  0  0  0  0  0  0  0  0  0  0
  -25.0230  -31.9770   23.8900 C   0  0  0  0  0  0  0  0  0  0  0  0
  -27.9430  -28.0520   20.4010 C   0  0  0  0  0  0  0  0  0  0  0  0
  -23.9540  -30.8130   21.9870 C   0  0  0  0  0  3  0  0  0  0  0  0
  -25.5300  -29.5190   20.4550 C   0  0  0  0  0  0  0  0  0  0  0  0
  -26.4790  -31.2260   22.0120 C   0  0  0  0  0  2  0  0  0  0  0  0
  -26.6340  -29.9600   21.1970 C   0  0  0  0  0  0  0  0  0  0  0  0
  -27.8460  -29.2320   21.1740 C   0  0  0  0  0  3  0  0  0  0  0  0
  -26.8370  -27.6390   19.6330 C   0  0  0  0  0  3  0  0  0  0  0  0
  -25.6270  -28.3550   19.6690 C   0  0  0  0  0  3  0  0  0  0  0  0
  -24.2660  -30.3440   20.5400 C   0  0  0  0  0  2  0  0  0  0  0  0
  -25.1660  -31.3470   22.6900 N   0  0  0  0  0  0  0  0  0  0  0  0
  -23.9050  -32.1550   24.3930 O   0  0  0  0  0  0  0  0  0  0  0  0
  -23.2690  -29.6540   22.7460 C   0  0  0  0  0  0  0  0  0  0  0  0
  -21.9590  -29.4760   22.5070 N   0  0  0  0  0  0  0  0  0  0  0  0
  -23.9130  -28.9280   23.5080 O   0  0  0  0  0  0  0  0  0  0  0  0
  -21.5020  -30.1200   21.8760 H   0  0  0  0  0  0  0  0  0  0  0  0
  -18.5690  -28.2360   22.6810 C   0  0  0  0  0  0  0  0  0  0  0  0
  -21.1160  -28.4270   23.0780 C   0  0  0  0  0  3  0  0  0  0  0  0
  -21.2370  -27.1120   22.2730 C   0  0  0  0  0  2  0  0  0  0  0  0
  -20.1700  -26.9730   21.1830 C   0  0  0  0  0  2  0  0  0  0  0  0
  -18.7690  -27.0170   21.7960 C   0  0  0  0  0  2  0  0  0  0  0  0
  -19.6730  -28.9060   23.2720 C   0  0  0  0  0  0  0  0  0  0  0  0
  -19.4350  -30.0530   24.0610 C   0  0  0  0  0  3  0  0  0  0  0  0
  -18.1260  -30.5290   24.2630 C   0  0  0  0  0  3  0  0  0  0  0  0
  -17.0370  -29.8520   23.6880 C   0  0  0  0  0  3  0  0  0  0  0  0
  -17.2580  -28.7040   22.9050 C   0  0  0  0  0  3  0  0  0  0  0  0
  -26.2550  -32.5290   24.6750 C   0  0  0  0  0  3  0  0  0  0  0  0
  -25.9770  -33.9350   25.0000 N   0  0  0  0  0  0  0  0  0  0  0  0
  -26.4300  -34.9820   24.2970 C   0  0  0  0  0  0  0  0  0  0  0  0
  -27.1940  -34.8620   23.3350 O   0  0  0  0  0  0  0  0  0  0  0  0
  -25.3140  -34.1040   25.7420 H   0  0  0  0  0  0  0  0  0  0  0  0
  -24.8170  -36.8490   23.8130 C   0  0  0  0  0  1  0  0  0  0  0  0
  -25.9590  -36.3830   24.7300 C   0  0  0  0  0  3  0  0  0  0  0  0
  -28.0370  -37.1730   25.7740 C   0  0  0  0  0  1  0  0  0  0  0  0
  -27.0400  -37.3930   24.7270 N   0  0  0  0  0  0  0  0  0  0  0  0
  -26.6600  -38.3290   24.8440 H   0  0  0  0  0  0  0  0  0  0  0  0
  -26.5780  -31.7070   25.9830 C   0  0  1  0  0  0  0  0  0  0  0  0
  -25.3470  -31.4760   26.8900 C   0  0  0  0  0  1  0  0  0  0  0  0
  -27.1710  -30.3240   25.6270 C   0  0  0  0  0  1  0  0  0  0  0  0
  -27.6510  -32.4460   26.8160 C   0  0  0  0  0  1  0  0  0  0  0  0
  2  1  1  0
  3  5  1  0
  4  3  2  0
  4  6  1  0
  5 55  1  0
  5  1  2  0
  6  2  2  0
  7  4  1  0
  7  8  1  0
  8 11  1  0
  8 10  1  0
  9  7  2  0
 12 13  1  0
 12 11  1  0
 14 20  1  0
 15 20  1  0
 16 17  1  0
 16 15  1  0
 18 17  1  0
 18 27  1  0
 18 19  1  0
 20 19  1  0
 21 14  2  0
 22 14  1  0
 22 13  1  0
 23 22  1  0
 24 25  2  0
 25 44  1  0
 26 25  1  0
 26 29  1  0
 27 28  1  0
 27 24  1  0
 28 26  2  0
 29 30  1  0
 30 31  2  0
 32 35  1  0
 32 31  1  0
 33 32  2  0
 34 33  1  0
 34 29  2  0
 35 36  1  0
 36 41  2  0
 36 37  1  0
 37 38  2  0
 38 39  1  0
 39 43  1  0
 40 39  2  0
 41 40  1  0
 42 41  1  0
 44 45  1  0
 45 48  1  0
 45 47  1  0
 46 44  2  0
 49 24  1  0
 49 50  1  0
 51 49  1  0
 52  6  1  0
 53 52  1  0
 54 52  1  0
 56 58  1  0
 56 55  1  0
 57 68  2  0
 58 63  1  0
 59 67  1  0
 59 69  1  0
 60 66  1  0
 60 62  1  0
 61 67  1  0
 62 61  1  0
 63 62  2  0
 64 65  1  0
 64 58  2  0
 65 60  2  0
 66 59  1  0
 67 57  1  0
 69 71  2  0
 70 69  1  0
 72 70  1  0
 73 82  2  0
 73 78  1  0
 74 70  1  0
 74 78  1  0
 75 74  1  0
 76 77  1  0
 76 75  1  0
 77 73  1  0
 78 79  2  0
 79 80  1  0
 81 80  2  0
 82 81  1  0
 83 57  1  0
 83 84  1  0
 83 93  1  0
 84 87  1  0
 85 89  1  0
 85 84  1  0
 86 85  2  0
 89 88  1  0
 91 89  1  0
 91 92  1  0
 91 90  1  0
 93 96  1  1
 93 94  1  0
 95 93  1  0
M  ISO  4  14 100  22 100  55 101  56 101
M  END
>  <TORSDO>  (73) 
F 22

>  <SCORE>  (73) 
-10.532

>  <name>  (73) 
72

>  <ligand_id>  (73) 
72

>  <original_smiles>  (73) 
[H]c1c([H])c([H])c2c(c1[H])C([H])([H])C([H])([H])C([H])([H])C2([H])N([H])C(=O)C1([H])N(C(=O)C([H])(N([H])C(=O)C([H])(N([H])C([H])([H])[H])C([H])([H])[H])C(C([H])([H])[H])(C([H])([H])[H])C([H])([H])[H])C([H])([H])c2c([H])c(OC([H])([H])c3c([H])c([H])c(N([H])[H])c(C(=O)N([H])C([H])([H])C([H])([H])C([H])([H])N([H])C(=O)N4C([H])([H])C([H])([H])C([H])([H])C([H])(n5nc(-c6c([H])c([H])c(Oc7c([H])c([H])c(F)c([H])c7F)c([H])c6[H])c(C(=O)N([H])[H])c5N([H])[H])C4([H])[H])c3[H])c([H])c([H])c2C1([H])[H]

>  <smiles>  (73) 
[H]c1c([H])c([H])c2c(c1[H])C([H])([H])C([H])([H])C([H])([H])C2([H])N([H])C(=O)C1([H])N(C(=O)C([H])(N([H])C(=O)C([H])(N([H])C([H])([H])[H])C([H])([H])[H])C(C([H])([H])[H])(C([H])([H])[H])C([H])([H])[H])C([H])([H])c2c([H])c(OC([H])([H])c3c([H])c([H])c(N([H])[H])c(C(=O)N([H])C([H])([H])C([H])([H])C([H])([H])N([H])C(=O)N4C([H])([H])C([H])([H])C([H])([H])C([H])(n5nc(-c6c([H])c([H])c(Oc7c([H])c([H])c(F)c([H])c7F)c([H])c6[H])c(C(=O)N([H])[H])c5N([H])[H])C4([H])[H])c3[H])c([H])c([H])c2C1([H])[H]

$$$$
73:0:0
     RDKit          3D

 94102  0  0  1  0  0  0  0  0999 V2000
  -31.2970  -24.0390   21.2100 C   0  0  0  0  0  3  0  0  0  0  0  0
  -29.2510  -23.6390   19.9470 C   0  0  0  0  0  3  0  0  0  0  0  0
  -29.8490  -25.9080   20.5980 C   0  0  0  0  0  3  0  0  0  0  0  0
  -30.4080  -23.1350   20.5870 C   0  0  0  0  0  0  0  0  0  0  0  0
  -31.0180  -25.4220   21.2210 C   0  0  0  0  0  0  0  0  0  0  0  0
  -28.9690  -25.0200   19.9440 C   0  0  0  0  0  0  0  0  0  0  0  0
  -31.9710  -26.3870   21.8990 C   0  0  0  0  0  1  0  0  0  0  0  0
  -30.7340  -21.6680   20.5310 C   0  0  0  0  0  0  0  0  0  0  0  0
  -29.7000  -20.8570   20.2760 N   0  0  0  0  0  0  0  0  0  0  0  0
  -31.8880  -21.2640   20.6920 O   0  0  0  0  0  0  0  0  0  0  0  0
  -28.7910  -21.2950   20.2270 H   0  0  0  0  0  0  0  0  0  0  0  0
  -29.8160  -19.5150   19.7180 C   0  0  0  0  0  2  0  0  0  0  0  0
  -29.6420  -18.3710   20.7360 C   0  0  0  0  0  2  0  0  0  0  0  0
  -29.7640  -17.0360   19.9820 C   0  0  0  0  0  2  0  0  0  0  0  0
  -30.5190  -14.8120   20.6900 C   0  0  0  0  0  0  0  0  0  0  0  0
  -30.4370  -12.5250   19.8280 C   0  0  0  0  0  2  0  0  0  0  0  0
  -29.5880  -12.5460   18.5400 C   0  0  0  0  0  2  0  0  0  0  0  0
  -28.0940  -12.3570   18.8730 C   0  0  0  0  0  2  0  0  0  0  0  0
  -27.6060  -13.3070   19.9990 C   0  0  0  0  0  3  0  0  0  0  0  0
  -28.5800  -13.2890   21.2010 C   0  0  0  0  0  2  0  0  0  0  0  0
  -29.9330  -13.5900   20.7040 N   0  0  0  0  0  0  0  0  0  0  0  0
  -31.6800  -15.0060   20.3190 O   0  0  0  0  0  0  0  0  0  0  0  0
  -29.6620  -15.8350   20.8150 N   0  0  0  0  0  0  0  0  0  0  0  0
  -28.7400  -15.5890   21.1460 H   0  0  0  0  0  0  0  0  0  0  0  0
  -25.1350  -13.8260   20.5020 C   0  0  0  0  0  0  0  0  0  0  0  0
  -24.0860  -13.0220   20.8590 C   0  0  0  0  0  0  0  0  0  0  0  0
  -24.6180  -11.7010   20.9580 C   0  0  0  0  0  0  0  0  0  0  0  0
  -26.2390  -12.9920   20.4060 N   0  0  0  0  0  0  0  0  0  0  0  0
  -25.9270  -11.7140   20.7380 N   0  0  0  0  0  0  0  0  0  0  0  0
  -23.9490  -10.4140   21.1940 C   0  0  0  0  0  0  0  0  0  0  0  0
  -24.3660   -9.5430   22.2250 C   0  0  0  0  0  3  0  0  0  0  0  0
  -23.6960   -8.3210   22.4450 C   0  0  0  0  0  3  0  0  0  0  0  0
  -22.5940   -7.9600   21.6330 C   0  0  0  0  0  0  0  0  0  0  0  0
  -22.1970   -8.8210   20.5940 C   0  0  0  0  0  3  0  0  0  0  0  0
  -22.8690  -10.0340   20.3740 C   0  0  0  0  0  3  0  0  0  0  0  0
  -21.9000   -6.7810   21.7560 O   0  0  0  0  0  0  0  0  0  0  0  0
  -21.8160   -6.1180   22.9540 C   0  0  0  0  0  0  0  0  0  0  0  0
  -21.2310   -6.7090   24.0940 C   0  0  0  0  0  3  0  0  0  0  0  0
  -21.1020   -5.9670   25.2850 C   0  0  0  0  0  3  0  0  0  0  0  0
  -21.5500   -4.6330   25.3350 C   0  0  0  0  0  0  0  0  0  0  0  0
  -22.1280   -4.0410   24.1980 C   0  0  0  0  0  3  0  0  0  0  0  0
  -22.2580   -4.7810   23.0110 C   0  0  0  0  0  0  0  0  0  0  0  0
  -22.7970   -4.1990   21.9120 F   0  0  0  0  0  0  0  0  0  0  0  0
  -21.4190   -3.9150   26.4750 F   0  0  0  0  0  0  0  0  0  0  0  0
  -22.6490  -13.4360   21.0060 C   0  0  0  0  0  0  0  0  0  0  0  0
  -21.9030  -12.7620   21.8740 N   0  0  0  0  0  0  0  0  0  0  0  0
  -22.1930  -14.3950   20.3840 O   0  0  0  0  0  0  0  0  0  0  0  0
  -22.2820  -11.9890   22.3990 H   0  0  0  0  0  0  0  0  0  0  0  0
  -20.9390  -13.0270   22.0180 H   0  0  0  0  0  0  0  0  0  0  0  0
  -25.2370  -15.1870   20.2340 N   0  0  0  0  0  0  0  0  0  0  0  0
  -24.4290  -15.7990   20.2470 H   0  0  0  0  0  0  0  0  0  0  0  0
  -26.0770  -15.6510   19.9150 H   0  0  0  0  0  0  0  0  0  0  0  0
  -27.6980  -25.5200   19.2740 C   0  0  0  0  0  2  0  0  0  0  0  0
  -27.7620  -26.9060   18.9440 O   0  0  0  0  0  0  0  0  0  0  0  0
  -24.5340  -31.6890   23.0410 C   0  0  0  0  0  0  0  0  0  0  0  0
  -26.6120  -27.6340   19.1380 C   0  0  0  0  0  0  0  0  0  0  0  0
  -23.0890  -30.5680   21.3750 C   0  0  0  0  0  3  0  0  0  0  0  0
  -24.3020  -29.1850   19.6100 C   0  0  0  0  0  0  0  0  0  0  0  0
  -25.5890  -30.8690   20.9400 C   0  0  0  0  0  2  0  0  0  0  0  0
  -25.5380  -29.5950   20.1240 C   0  0  0  0  0  0  0  0  0  0  0  0
  -26.6960  -28.8290   19.8810 C   0  0  0  0  0  3  0  0  0  0  0  0
  -25.3600  -27.2280   18.6250 C   0  0  0  0  0  3  0  0  0  0  0  0
  -24.2050  -28.0000   18.8580 C   0  0  0  0  0  3  0  0  0  0  0  0
  -23.1140  -30.0720   19.9030 C   0  0  0  0  0  2  0  0  0  0  0  0
  -24.4300  -31.0460   21.8440 N   0  0  0  0  0  0  0  0  0  0  0  0
  -23.5320  -31.9230   23.7310 O   0  0  0  0  0  0  0  0  0  0  0  0
  -22.4930  -29.4510   22.2610 C   0  0  0  0  0  0  0  0  0  0  0  0
  -21.1560  -29.3410   22.2640 N   0  0  0  0  0  0  0  0  0  0  0  0
  -23.2260  -28.6930   22.9030 O   0  0  0  0  0  0  0  0  0  0  0  0
  -20.6240  -30.0050   21.7170 H   0  0  0  0  0  0  0  0  0  0  0  0
  -17.7940  -28.2200   22.9600 C   0  0  0  0  0  0  0  0  0  0  0  0
  -20.3750  -28.3410   22.9900 C   0  0  0  0  0  3  0  0  0  0  0  0
  -20.3450  -26.9950   22.2290 C   0  0  0  0  0  2  0  0  0  0  0  0
  -19.1320  -26.8520   21.3050 C   0  0  0  0  0  2  0  0  0  0  0  0
  -17.8320  -26.9640   22.1060 C   0  0  0  0  0  2  0  0  0  0  0  0
  -18.9870  -28.8750   23.3630 C   0  0  0  0  0  0  0  0  0  0  0  0
  -18.8950  -30.0590   24.1270 C   0  0  0  0  0  3  0  0  0  0  0  0
  -17.6410  -30.5840   24.4900 C   0  0  0  0  0  3  0  0  0  0  0  0
  -16.4630  -29.9240   24.1040 C   0  0  0  0  0  3  0  0  0  0  0  0
  -16.5410  -28.7430   23.3440 C   0  0  0  0  0  3  0  0  0  0  0  0
  -25.9120  -32.1790   23.5890 C   0  0  0  0  0  3  0  0  0  0  0  0
  -25.6990  -33.4990   24.1950 N   0  0  0  0  0  0  0  0  0  0  0  0
  -26.0990  -34.6580   23.6530 C   0  0  0  0  0  0  0  0  0  0  0  0
  -26.7560  -34.7180   22.6100 O   0  0  0  0  0  0  0  0  0  0  0  0
  -25.1200  -33.5300   25.0210 H   0  0  0  0  0  0  0  0  0  0  0  0
  -24.5140  -36.6090   23.6700 C   0  0  0  0  0  1  0  0  0  0  0  0
  -25.7080  -35.9560   24.3840 C   0  0  0  0  0  3  0  0  0  0  0  0
  -27.8800  -36.4970   25.3930 C   0  0  0  0  0  1  0  0  0  0  0  0
  -26.8160  -36.9300   24.4890 N   0  0  0  0  0  0  0  0  0  0  0  0
  -26.4760  -37.8310   24.8100 H   0  0  0  0  0  0  0  0  0  0  0  0
  -26.5590  -31.1840   24.6280 C   0  0  1  0  0  0  0  0  0  0  0  0
  -25.6060  -30.7740   25.7750 C   0  0  0  0  0  1  0  0  0  0  0  0
  -27.0290  -29.8920   23.9180 C   0  0  0  0  0  1  0  0  0  0  0  0
  -27.8160  -31.8270   25.2570 C   0  0  0  0  0  1  0  0  0  0  0  0
  1  5  1  0
  2  4  1  0
  3  5  2  0
  4  1  2  0
  5  7  1  0
  6  2  2  0
  6  3  1  0
  8  4  1  0
  8 10  2  0
  9  8  1  0
 11  9  1  0
 12  9  1  0
 12 13  1  0
 14 13  1  0
 14 23  1  0
 15 21  1  0
 15 23  1  0
 16 21  1  0
 17 18  1  0
 17 16  1  0
 19 18  1  0
 19 28  1  0
 19 20  1  0
 21 20  1  0
 22 15  2  0
 23 24  1  0
 25 26  2  0
 26 27  1  0
 26 45  1  0
 27 30  1  0
 28 25  1  0
 28 29  1  0
 29 27  2  0
 30 31  1  0
 31 32  2  0
 33 36  1  0
 33 32  1  0
 34 33  2  0
 35 34  1  0
 35 30  2  0
 36 37  1  0
 37 42  2  0
 37 38  1  0
 38 39  2  0
 39 40  1  0
 40 44  1  0
 41 40  2  0
 42 41  1  0
 43 42  1  0
 45 46  1  0
 46 49  1  0
 46 48  1  0
 47 45  2  0
 50 51  1  0
 50 25  1  0
 52 50  1  0
 53  6  1  0
 54 56  1  0
 54 53  1  0
 55 66  2  0
 56 61  1  0
 57 65  1  0
 57 67  1  0
 58 64  1  0
 58 60  1  0
 59 65  1  0
 60 59  1  0
 61 60  2  0
 62 63  1  0
 62 56  2  0
 63 58  2  0
 64 57  1  0
 65 55  1  0
 67 68  1  0
 67 69  2  0
 70 68  1  0
 71 80  2  0
 71 76  1  0
 72 68  1  0
 72 76  1  0
 73 72  1  0
 74 75  1  0
 74 73  1  0
 75 71  1  0
 76 77  2  0
 77 78  1  0
 79 78  2  0
 80 79  1  0
 81 55  1  0
 81 82  1  0
 81 91  1  0
 82 85  1  0
 83 82  1  0
 83 87  1  0
 84 83  2  0
 87 86  1  0
 87 89  1  0
 89 90  1  0
 89 88  1  0
 91 94  1  1
 91 92  1  0
 93 91  1  0
M  ISO  4  15 100  23 100  53 101  54 101
M  END
>  <TORSDO>  (74) 
F 21

>  <SCORE>  (74) 
-11.185

>  <name>  (74) 
73

>  <ligand_id>  (74) 
73

>  <original_smiles>  (74) 
[H]c1c([H])c([H])c2c(c1[H])C([H])([H])C([H])([H])C([H])([H])C2([H])N([H])C(=O)C1([H])N(C(=O)C([H])(N([H])C(=O)C([H])(N([H])C([H])([H])[H])C([H])([H])[H])C(C([H])([H])[H])(C([H])([H])[H])C([H])([H])[H])C([H])([H])c2c([H])c(OC([H])([H])c3c([H])c(C(=O)N([H])C([H])([H])C([H])([H])C([H])([H])N([H])C(=O)N4C([H])([H])C([H])([H])C([H])([H])C([H])(n5nc(-c6c([H])c([H])c(Oc7c([H])c([H])c(F)c([H])c7F)c([H])c6[H])c(C(=O)N([H])[H])c5N([H])[H])C4([H])[H])c([H])c(C([H])([H])[H])c3[H])c([H])c([H])c2C1([H])[H]

>  <smiles>  (74) 
[H]c1c([H])c([H])c2c(c1[H])C([H])([H])C([H])([H])C([H])([H])C2([H])N([H])C(=O)C1([H])N(C(=O)C([H])(N([H])C(=O)C([H])(N([H])C([H])([H])[H])C([H])([H])[H])C(C([H])([H])[H])(C([H])([H])[H])C([H])([H])[H])C([H])([H])c2c([H])c(OC([H])([H])c3c([H])c(C(=O)N([H])C([H])([H])C([H])([H])C([H])([H])N([H])C(=O)N4C([H])([H])C([H])([H])C([H])([H])C([H])(n5nc(-c6c([H])c([H])c(Oc7c([H])c([H])c(F)c([H])c7F)c([H])c6[H])c(C(=O)N([H])[H])c5N([H])[H])C4([H])[H])c([H])c(C([H])([H])[H])c3[H])c([H])c([H])c2C1([H])[H]

$$$$
74:0:0
     RDKit          3D

 93101  0  0  1  0  0  0  0  0999 V2000
  -28.8230  -20.5190   20.5010 C   0  0  0  0  0  3  0  0  0  0  0  0
  -29.2060  -21.6910   18.3960 C   0  0  0  0  0  3  0  0  0  0  0  0
  -29.5200  -19.2740   18.5230 C   0  0  0  0  0  3  0  0  0  0  0  0
  -28.8390  -21.7360   19.7590 C   0  0  0  0  0  0  0  0  0  0  0  0
  -29.1550  -19.2750   19.8860 C   0  0  0  0  0  0  0  0  0  0  0  0
  -29.5520  -20.4710   17.7840 C   0  0  0  0  0  0  0  0  0  0  0  0
  -29.8970  -20.4410   16.4350 N   0  0  0  0  0  0  0  0  0  0  0  0
  -29.6260  -21.2220   15.8470 H   0  0  0  0  0  0  0  0  0  0  0  0
  -29.8790  -19.5490   15.9470 H   0  0  0  0  0  0  0  0  0  0  0  0
  -28.3750  -23.0770   20.3710 C   0  0  0  0  0  2  0  0  0  0  0  0
  -29.2970  -24.3140   20.1210 C   0  0  0  0  0  2  0  0  0  0  0  0
  -28.6650  -25.5380   19.3850 C   0  0  0  0  0  2  0  0  0  0  0  0
  -28.4190  -26.6840   20.2330 O   0  0  0  0  0  0  0  0  0  0  0  0
  -24.5880  -31.8860   23.2500 C   0  0  0  0  0  0  0  0  0  0  0  0
  -27.2340  -27.4090   20.1760 C   0  0  0  0  0  0  0  0  0  0  0  0
  -23.3830  -30.4810   21.6100 C   0  0  0  0  0  3  0  0  0  0  0  0
  -24.8360  -28.9400   20.1870 C   0  0  0  0  0  0  0  0  0  0  0  0
  -25.9120  -30.8290   21.4180 C   0  0  0  0  0  2  0  0  0  0  0  0
  -25.9970  -29.4570   20.7760 C   0  0  0  0  0  0  0  0  0  0  0  0
  -27.1930  -28.6970   20.7690 C   0  0  0  0  0  3  0  0  0  0  0  0
  -26.0430  -26.9090   19.5980 C   0  0  0  0  0  3  0  0  0  0  0  0
  -24.8570  -27.6670   19.5990 C   0  0  0  0  0  3  0  0  0  0  0  0
  -23.5930  -29.7990   20.2330 C   0  0  0  0  0  2  0  0  0  0  0  0
  -24.6470  -31.0810   22.1500 N   0  0  0  0  0  0  0  0  0  0  0  0
  -23.5050  -32.1610   23.7860 O   0  0  0  0  0  0  0  0  0  0  0  0
  -22.7300  -29.4620   22.5730 C   0  0  0  0  0  0  0  0  0  0  0  0
  -21.4050  -29.2830   22.4450 N   0  0  0  0  0  0  0  0  0  0  0  0
  -23.4120  -28.8360   23.3870 O   0  0  0  0  0  0  0  0  0  0  0  0
  -20.9160  -29.8370   21.7570 H   0  0  0  0  0  0  0  0  0  0  0  0
  -18.0270  -28.1060   22.9530 C   0  0  0  0  0  0  0  0  0  0  0  0
  -20.5870  -28.3480   23.2160 C   0  0  0  0  0  3  0  0  0  0  0  0
  -20.6800  -26.9180   22.6360 C   0  0  0  0  0  2  0  0  0  0  0  0
  -19.5720  -26.6040   21.6250 C   0  0  0  0  0  2  0  0  0  0  0  0
  -18.1940  -26.7560   22.2740 C   0  0  0  0  0  2  0  0  0  0  0  0
  -19.1510  -28.8600   23.3810 C   0  0  0  0  0  0  0  0  0  0  0  0
  -18.9420  -30.1250   23.9740 C   0  0  0  0  0  3  0  0  0  0  0  0
  -17.6410  -30.6330   24.1440 C   0  0  0  0  0  3  0  0  0  0  0  0
  -16.5300  -29.8750   23.7340 C   0  0  0  0  0  3  0  0  0  0  0  0
  -16.7250  -28.6130   23.1440 C   0  0  0  0  0  3  0  0  0  0  0  0
  -25.8730  -32.5170   23.8690 C   0  0  0  0  0  3  0  0  0  0  0  0
  -25.5660  -33.9180   24.1930 N   0  0  0  0  0  0  0  0  0  0  0  0
  -25.9030  -34.9660   23.4300 C   0  0  0  0  0  0  0  0  0  0  0  0
  -26.5770  -34.8580   22.4020 O   0  0  0  0  0  0  0  0  0  0  0  0
  -24.9670  -34.0780   24.9890 H   0  0  0  0  0  0  0  0  0  0  0  0
  -24.1800  -36.7610   23.0590 C   0  0  0  0  0  1  0  0  0  0  0  0
  -25.4160  -36.3570   23.8800 C   0  0  0  0  0  3  0  0  0  0  0  0
  -27.5460  -37.2390   24.7220 C   0  0  0  0  0  1  0  0  0  0  0  0
  -26.4510  -37.4070   23.7710 N   0  0  0  0  0  0  0  0  0  0  0  0
  -26.0460  -38.3290   23.9120 H   0  0  0  0  0  0  0  0  0  0  0  0
  -26.3880  -31.7520   25.1500 C   0  0  1  0  0  0  0  0  0  0  0  0
  -25.2940  -31.5210   26.2180 C   0  0  0  0  0  1  0  0  0  0  0  0
  -26.9700  -30.3720   24.7640 C   0  0  0  0  0  1  0  0  0  0  0  0
  -27.5380  -32.5490   25.8090 C   0  0  0  0  0  1  0  0  0  0  0  0
  -29.0060  -17.9230   20.6140 C   0  0  0  0  0  2  0  0  0  0  0  0
  -30.2440  -16.9740   20.5790 C   0  0  0  0  0  2  0  0  0  0  0  0
  -30.6530  -14.5060   20.4350 C   0  0  0  0  0  0  0  0  0  0  0  0
  -30.3610  -12.3420   19.2980 C   0  0  0  0  0  2  0  0  0  0  0  0
  -29.4150  -12.5550   18.0970 C   0  0  0  0  0  2  0  0  0  0  0  0
  -27.9410  -12.4150   18.5310 C   0  0  0  0  0  2  0  0  0  0  0  0
  -27.6090  -13.2450   19.8010 C   0  0  0  0  0  3  0  0  0  0  0  0
  -28.6690  -13.0240   20.9060 C   0  0  0  0  0  2  0  0  0  0  0  0
  -29.9900  -13.3230   20.3320 N   0  0  0  0  0  0  0  0  0  0  0  0
  -31.7890  -14.6770   19.9820 O   0  0  0  0  0  0  0  0  0  0  0  0
  -29.9190  -15.5570   20.8580 N   0  0  0  0  0  0  0  0  0  0  0  0
  -29.0070  -15.3490   21.2350 H   0  0  0  0  0  0  0  0  0  0  0  0
  -25.2120  -13.8480   20.5070 C   0  0  0  0  0  0  0  0  0  0  0  0
  -24.1460  -13.0760   20.8830 C   0  0  0  0  0  0  0  0  0  0  0  0
  -24.6100  -11.7240   20.8580 C   0  0  0  0  0  0  0  0  0  0  0  0
  -26.2580  -12.9680   20.2820 N   0  0  0  0  0  0  0  0  0  0  0  0
  -25.8990  -11.6860   20.5490 N   0  0  0  0  0  0  0  0  0  0  0  0
  -23.8860  -10.4630   21.0540 C   0  0  0  0  0  0  0  0  0  0  0  0
  -24.3300   -9.4940   21.9820 C   0  0  0  0  0  3  0  0  0  0  0  0
  -23.6060   -8.2960   22.1650 C   0  0  0  0  0  3  0  0  0  0  0  0
  -22.4260   -8.0580   21.4220 C   0  0  0  0  0  0  0  0  0  0  0  0
  -22.0020   -9.0150   20.4840 C   0  0  0  0  0  3  0  0  0  0  0  0
  -22.7250  -10.2050   20.2980 C   0  0  0  0  0  3  0  0  0  0  0  0
  -21.6740   -6.9130   21.5160 O   0  0  0  0  0  0  0  0  0  0  0  0
  -21.6460   -6.1610   22.6630 C   0  0  0  0  0  0  0  0  0  0  0  0
  -21.2410   -6.7060   23.9010 C   0  0  0  0  0  3  0  0  0  0  0  0
  -21.1610   -5.8810   25.0400 C   0  0  0  0  0  3  0  0  0  0  0  0
  -21.4760   -4.5120   24.9430 C   0  0  0  0  0  0  0  0  0  0  0  0
  -21.8730   -3.9670   23.7100 C   0  0  0  0  0  3  0  0  0  0  0  0
  -21.9550   -4.7890   22.5730 C   0  0  0  0  0  0  0  0  0  0  0  0
  -22.3190   -4.2540   21.3820 F   0  0  0  0  0  0  0  0  0  0  0  0
  -21.3920   -3.7170   26.0360 F   0  0  0  0  0  0  0  0  0  0  0  0
  -22.7490  -13.5520   21.1560 C   0  0  0  0  0  0  0  0  0  0  0  0
  -22.0250  -12.8560   22.0260 N   0  0  0  0  0  0  0  0  0  0  0  0
  -22.3070  -14.5740   20.6320 O   0  0  0  0  0  0  0  0  0  0  0  0
  -22.3980  -12.0310   22.4720 H   0  0  0  0  0  0  0  0  0  0  0  0
  -21.0860  -13.1550   22.2520 H   0  0  0  0  0  0  0  0  0  0  0  0
  -25.3730  -15.2180   20.3200 N   0  0  0  0  0  0  0  0  0  0  0  0
  -24.5970  -15.8660   20.4070 H   0  0  0  0  0  0  0  0  0  0  0  0
  -26.2140  -15.6530   19.9620 H   0  0  0  0  0  0  0  0  0  0  0  0
  2  4  1  0
  3  5  2  0
  4 10  1  0
  4  1  2  0
  5  1  1  0
  5 54  1  0
  6  2  2  0
  6  3  1  0
  7  6  1  0
  8  7  1  0
  9  7  1  0
 11 10  1  0
 12 11  1  0
 12 13  1  0
 14 25  2  0
 15 13  1  0
 15 20  1  0
 16 24  1  0
 16 26  1  0
 17 23  1  0
 17 19  1  0
 18 24  1  0
 19 18  1  0
 20 19  2  0
 21 22  1  0
 21 15  2  0
 22 17  2  0
 23 16  1  0
 24 14  1  0
 26 28  2  0
 27 26  1  0
 29 27  1  0
 30 39  2  0
 30 35  1  0
 31 27  1  0
 31 35  1  0
 32 31  1  0
 33 34  1  0
 33 32  1  0
 34 30  1  0
 35 36  2  0
 36 37  1  0
 38 37  2  0
 39 38  1  0
 40 14  1  0
 40 41  1  0
 40 50  1  0
 41 44  1  0
 42 46  1  0
 42 41  1  0
 43 42  2  0
 46 45  1  0
 48 46  1  0
 48 49  1  0
 48 47  1  0
 50 53  1  1
 50 51  1  0
 52 50  1  0
 55 54  1  0
 55 64  1  0
 56 64  1  0
 57 62  1  0
 58 59  1  0
 58 57  1  0
 60 59  1  0
 60 69  1  0
 60 61  1  0
 62 56  1  0
 62 61  1  0
 63 56  2  0
 64 65  1  0
 66 67  2  0
 67 86  1  0
 68 67  1  0
 68 71  1  0
 69 66  1  0
 69 70  1  0
 70 68  2  0
 71 72  1  0
 72 73  2  0
 74 77  1  0
 74 73  1  0
 75 74  2  0
 76 75  1  0
 76 71  2  0
 77 78  1  0
 78 79  1  0
 79 80  2  0
 81 80  1  0
 81 85  1  0
 82 81  2  0
 83 78  2  0
 83 82  1  0
 84 83  1  0
 86 87  1  0
 87 90  1  0
 87 89  1  0
 88 86  2  0
 91 92  1  0
 91 66  1  0
 93 91  1  0
M  ISO  4  12 101  13 101  56 100  64 100
M  END
>  <TORSDO>  (75) 
F 22

>  <SCORE>  (75) 
-13.377

>  <name>  (75) 
74

>  <ligand_id>  (75) 
74

>  <original_smiles>  (75) 
[H]c1c([H])c([H])c2c(c1[H])C([H])([H])C([H])([H])C([H])([H])C2([H])N([H])C(=O)C1([H])N(C(=O)C([H])(N([H])C(=O)C([H])(N([H])C([H])([H])[H])C([H])([H])[H])C(C([H])([H])[H])(C([H])([H])[H])C([H])([H])[H])C([H])([H])c2c([H])c(OC([H])([H])C([H])([H])C([H])([H])c3c([H])c(N([H])[H])c([H])c(C([H])([H])C([H])([H])N([H])C(=O)N4C([H])([H])C([H])([H])C([H])([H])C([H])(n5nc(-c6c([H])c([H])c(Oc7c([H])c([H])c(F)c([H])c7F)c([H])c6[H])c(C(=O)N([H])[H])c5N([H])[H])C4([H])[H])c3[H])c([H])c([H])c2C1([H])[H]

>  <smiles>  (75) 
[H]c1c([H])c([H])c2c(c1[H])C([H])([H])C([H])([H])C([H])([H])C2([H])N([H])C(=O)C1([H])N(C(=O)C([H])(N([H])C(=O)C([H])(N([H])C([H])([H])[H])C([H])([H])[H])C(C([H])([H])[H])(C([H])([H])[H])C([H])([H])[H])C([H])([H])c2c([H])c(OC([H])([H])C([H])([H])C([H])([H])c3c([H])c(N([H])[H])c([H])c(C([H])([H])C([H])([H])N([H])C(=O)N4C([H])([H])C([H])([H])C([H])([H])C([H])(n5nc(-c6c([H])c([H])c(Oc7c([H])c([H])c(F)c([H])c7F)c([H])c6[H])c(C(=O)N([H])[H])c5N([H])[H])C4([H])[H])c3[H])c([H])c([H])c2C1([H])[H]

$$$$
75:0:0
     RDKit          3D

 96104  0  0  1  0  0  0  0  0999 V2000
  -29.4700  -21.8220   20.4640 C   0  0  0  0  0  1  0  0  0  0  0  0
  -27.9660  -22.1790   20.5170 C   0  0  0  0  0  3  0  0  0  0  0  0
  -27.6390  -23.0290   21.6920 N   0  0  0  0  0  4  0  0  0  0  0  0
  -26.6740  -22.8420   21.9140 H   0  0  0  0  0  0  0  0  0  0  0  0
  -28.1770  -22.7480   22.4970 H   0  0  0  0  0  0  0  0  0  0  0  0
  -27.7090  -24.4970   21.5050 C   0  0  0  0  0  2  0  0  0  0  0  0
  -29.1450  -25.0650   21.4880 C   0  0  0  0  0  2  0  0  0  0  0  0
  -29.1850  -26.5820   21.2900 C   0  0  0  0  0  2  0  0  0  0  0  0
  -28.5570  -26.8610   20.0430 O   0  0  0  0  0  0  0  0  0  0  0  0
  -24.6600  -31.9130   23.2070 C   0  0  0  0  0  0  0  0  0  0  0  0
  -27.3920  -27.5800   20.1000 C   0  0  0  0  0  0  0  0  0  0  0  0
  -23.4810  -30.5180   21.5350 C   0  0  0  0  0  3  0  0  0  0  0  0
  -24.9670  -29.0110   20.1140 C   0  0  0  0  0  0  0  0  0  0  0  0
  -25.9940  -30.9250   21.3530 C   0  0  0  0  0  2  0  0  0  0  0  0
  -26.1050  -29.5590   20.7150 C   0  0  0  0  0  0  0  0  0  0  0  0
  -27.3200  -28.8490   20.7140 C   0  0  0  0  0  3  0  0  0  0  0  0
  -26.2420  -27.0380   19.4910 C   0  0  0  0  0  3  0  0  0  0  0  0
  -25.0250  -27.7440   19.5070 C   0  0  0  0  0  3  0  0  0  0  0  0
  -23.7100  -29.8490   20.1520 C   0  0  0  0  0  2  0  0  0  0  0  0
  -24.7300  -31.1320   22.0930 N   0  0  0  0  0  0  0  0  0  0  0  0
  -23.5730  -32.1660   23.7440 O   0  0  0  0  0  0  0  0  0  0  0  0
  -22.8330  -29.4820   22.4780 C   0  0  0  0  0  0  0  0  0  0  0  0
  -21.5140  -29.2850   22.3300 N   0  0  0  0  0  0  0  0  0  0  0  0
  -23.5150  -28.8550   23.2950 O   0  0  0  0  0  0  0  0  0  0  0  0
  -21.0280  -29.8380   21.6380 H   0  0  0  0  0  0  0  0  0  0  0  0
  -18.1450  -28.0690   22.7760 C   0  0  0  0  0  0  0  0  0  0  0  0
  -20.6970  -28.3330   23.0810 C   0  0  0  0  0  3  0  0  0  0  0  0
  -20.8150  -26.9120   22.4840 C   0  0  0  0  0  2  0  0  0  0  0  0
  -19.7260  -26.6020   21.4510 C   0  0  0  0  0  2  0  0  0  0  0  0
  -18.3360  -26.7320   22.0810 C   0  0  0  0  0  2  0  0  0  0  0  0
  -19.2540  -28.8290   23.2300 C   0  0  0  0  0  0  0  0  0  0  0  0
  -19.0250  -30.0820   23.8380 C   0  0  0  0  0  3  0  0  0  0  0  0
  -17.7160  -30.5750   23.9980 C   0  0  0  0  0  3  0  0  0  0  0  0
  -16.6190  -29.8120   23.5620 C   0  0  0  0  0  3  0  0  0  0  0  0
  -16.8340  -28.5610   22.9550 C   0  0  0  0  0  3  0  0  0  0  0  0
  -25.9360  -32.5440   23.8490 C   0  0  0  0  0  3  0  0  0  0  0  0
  -25.6200  -33.9390   24.1800 N   0  0  0  0  0  0  0  0  0  0  0  0
  -25.9580  -34.9950   23.4250 C   0  0  0  0  0  0  0  0  0  0  0  0
  -26.6420  -34.8960   22.4040 O   0  0  0  0  0  0  0  0  0  0  0  0
  -25.0110  -34.0910   24.9720 H   0  0  0  0  0  0  0  0  0  0  0  0
  -24.2250  -36.7780   23.0490 C   0  0  0  0  0  1  0  0  0  0  0  0
  -25.4560  -36.3780   23.8780 C   0  0  0  0  0  3  0  0  0  0  0  0
  -27.5740  -37.2720   24.7400 C   0  0  0  0  0  1  0  0  0  0  0  0
  -26.4820  -37.4390   23.7830 N   0  0  0  0  0  0  0  0  0  0  0  0
  -26.0690  -38.3550   23.9320 H   0  0  0  0  0  0  0  0  0  0  0  0
  -26.4460  -31.7650   25.1220 C   0  0  1  0  0  0  0  0  0  0  0  0
  -25.3440  -31.4970   26.1730 C   0  0  0  0  0  1  0  0  0  0  0  0
  -27.0490  -30.4010   24.7140 C   0  0  0  0  0  1  0  0  0  0  0  0
  -27.5810  -32.5620   25.8080 C   0  0  0  0  0  1  0  0  0  0  0  0
  -27.0510  -20.9240   20.5130 C   0  0  0  0  0  2  0  0  0  0  0  0
  -27.4110  -18.6980   17.3950 C   0  0  0  0  0  3  0  0  0  0  0  0
  -28.4060  -17.7960   17.8200 C   0  0  0  0  0  3  0  0  0  0  0  0
  -26.9530  -19.7110   18.2630 C   0  0  0  0  0  3  0  0  0  0  0  0
  -28.4680  -18.9000   19.9880 C   0  0  0  0  0  3  0  0  0  0  0  0
  -28.9370  -17.8940   19.1240 C   0  0  0  0  0  0  0  0  0  0  0  0
  -27.4930  -19.8220   19.5610 C   0  0  0  0  0  0  0  0  0  0  0  0
  -30.0260  -16.9570   19.6030 C   0  0  0  0  0  2  0  0  0  0  0  0
  -29.7080  -16.3380   20.9860 C   0  0  0  0  0  2  0  0  0  0  0  0
  -31.3550  -14.5040   20.8610 C   0  0  0  0  0  0  0  0  0  0  0  0
  -31.1000  -12.1880   20.0540 C   0  0  0  0  0  2  0  0  0  0  0  0
  -30.3210  -12.1550   18.7250 C   0  0  0  0  0  2  0  0  0  0  0  0
  -28.8010  -12.1190   18.9800 C   0  0  0  0  0  2  0  0  0  0  0  0
  -28.3420  -13.1980   19.9950 C   0  0  0  0  0  3  0  0  0  0  0  0
  -29.2390  -13.1660   21.2540 C   0  0  0  0  0  2  0  0  0  0  0  0
  -30.6350  -13.3500   20.8240 N   0  0  0  0  0  0  0  0  0  0  0  0
  -32.4940  -14.5960   20.3870 O   0  0  0  0  0  0  0  0  0  0  0  0
  -31.6840  -16.3100   22.4370 C   0  0  0  0  0  1  0  0  0  0  0  0
  -30.8130  -15.5350   21.5460 N   0  0  0  0  0  0  0  0  0  0  0  0
  -25.9450  -14.0260   20.4450 C   0  0  0  0  0  0  0  0  0  0  0  0
  -24.7810  -13.3540   20.6990 C   0  0  0  0  0  0  0  0  0  0  0  0
  -25.1250  -11.9670   20.7180 C   0  0  0  0  0  0  0  0  0  0  0  0
  -26.9280  -13.0540   20.3280 N   0  0  0  0  0  0  0  0  0  0  0  0
  -26.4300  -11.8120   20.5460 N   0  0  0  0  0  0  0  0  0  0  0  0
  -24.2780  -10.7760   20.8360 C   0  0  0  0  0  0  0  0  0  0  0  0
  -24.5440   -9.7740   21.7960 C   0  0  0  0  0  3  0  0  0  0  0  0
  -23.7050   -8.6430   21.9020 C   0  0  0  0  0  3  0  0  0  0  0  0
  -22.5870   -8.5080   21.0460 C   0  0  0  0  0  0  0  0  0  0  0  0
  -22.3400   -9.4960   20.0770 C   0  0  0  0  0  3  0  0  0  0  0  0
  -23.1780  -10.6190   19.9700 C   0  0  0  0  0  3  0  0  0  0  0  0
  -21.7310   -7.4320   21.0600 O   0  0  0  0  0  0  0  0  0  0  0  0
  -21.5300   -6.6880   22.1940 C   0  0  0  0  0  0  0  0  0  0  0  0
  -21.0620   -7.2690   23.3930 C   0  0  0  0  0  3  0  0  0  0  0  0
  -20.8030   -6.4540   24.5130 C   0  0  0  0  0  3  0  0  0  0  0  0
  -21.0010   -5.0620   24.4350 C   0  0  0  0  0  0  0  0  0  0  0  0
  -21.4610   -4.4830   23.2400 C   0  0  0  0  0  3  0  0  0  0  0  0
  -21.7220   -5.2940   22.1210 C   0  0  0  0  0  0  0  0  0  0  0  0
  -22.1460   -4.7280   20.9660 F   0  0  0  0  0  0  0  0  0  0  0  0
  -20.7440   -4.2800   25.5090 F   0  0  0  0  0  0  0  0  0  0  0  0
  -23.4100  -13.9520   20.8260 C   0  0  0  0  0  0  0  0  0  0  0  0
  -22.5460  -13.3380   21.6250 N   0  0  0  0  0  0  0  0  0  0  0  0
  -23.1130  -15.0000   20.2520 O   0  0  0  0  0  0  0  0  0  0  0  0
  -22.7970  -12.4900   22.1110 H   0  0  0  0  0  0  0  0  0  0  0  0
  -21.6190  -13.7190   21.7510 H   0  0  0  0  0  0  0  0  0  0  0  0
  -26.2400  -15.3760   20.2870 N   0  0  0  0  0  0  0  0  0  0  0  0
  -25.5220  -16.0890   20.3240 H   0  0  0  0  0  0  0  0  0  0  0  0
  -27.1550  -15.7590   20.0780 H   0  0  0  0  0  0  0  0  0  0  0  0
  2  1  1  0
  2  3  1  0
  3  4  1  0
  3  5  1  0
  6  3  1  0
  7  6  1  0
  8  7  1  0
  9 11  1  0
  9  8  1  0
 10 21  2  0
 11 16  1  0
 12 20  1  0
 12 22  1  0
 13 19  1  0
 13 15  1  0
 14 20  1  0
 15 14  1  0
 16 15  2  0
 17 18  1  0
 17 11  2  0
 18 13  2  0
 19 12  1  0
 20 10  1  0
 22 24  2  0
 23 22  1  0
 25 23  1  0
 26 35  2  0
 26 31  1  0
 27 23  1  0
 27 31  1  0
 28 27  1  0
 29 30  1  0
 29 28  1  0
 30 26  1  0
 31 32  2  0
 32 33  1  0
 34 33  2  0
 35 34  1  0
 36 10  1  0
 36 37  1  0
 36 46  1  0
 37 40  1  0
 38 42  1  0
 38 37  1  0
 39 38  2  0
 42 41  1  0
 44 42  1  0
 44 45  1  0
 44 43  1  0
 46 49  1  1
 46 47  1  0
 48 46  1  0
 50  2  1  0
 51 52  2  0
 51 53  1  0
 52 55  1  0
 53 56  2  0
 55 57  1  0
 55 54  2  0
 56 54  1  0
 56 50  1  0
 57 58  1  0
 58 68  1  0
 59 68  1  0
 60 65  1  0
 61 62  1  0
 61 60  1  0
 63 62  1  0
 63 72  1  0
 63 64  1  0
 65 59  1  0
 65 64  1  0
 66 59  2  0
 68 67  1  0
 69 70  2  0
 70 71  1  0
 70 89  1  0
 71 74  1  0
 72 69  1  0
 72 73  1  0
 73 71  2  0
 74 75  1  0
 75 76  2  0
 77 80  1  0
 77 76  1  0
 78 77  2  0
 79 78  1  0
 79 74  2  0
 80 81  1  0
 81 82  1  0
 82 83  2  0
 84 83  1  0
 84 88  1  0
 85 84  2  0
 86 81  2  0
 86 85  1  0
 87 86  1  0
 89 90  1  0
 90 93  1  0
 90 92  1  0
 91 89  2  0
 94 95  1  0
 94 69  1  0
 96 94  1  0
M  ISO  4   8 101   9 101  59 100  68 100
M  END
>  <TORSDO>  (76) 
F 24

>  <SCORE>  (76) 
-10.284

>  <name>  (76) 
75

>  <ligand_id>  (76) 
75

>  <original_smiles>  (76) 
[H]c1c([H])c([H])c2c(c1[H])C([H])([H])C([H])([H])C([H])([H])C2([H])N([H])C(=O)C1([H])N(C(=O)C([H])(N([H])C(=O)C([H])(N([H])C([H])([H])[H])C([H])([H])[H])C(C([H])([H])[H])(C([H])([H])[H])C([H])([H])[H])C([H])([H])c2c([H])c(OC([H])([H])C([H])([H])C([H])([H])[N+]([H])([H])C([H])(C([H])([H])[H])C([H])([H])c3c([H])c([H])c([H])c(C([H])([H])C([H])([H])N(C(=O)N4C([H])([H])C([H])([H])C([H])([H])C([H])(n5nc(-c6c([H])c([H])c(Oc7c([H])c([H])c(F)c([H])c7F)c([H])c6[H])c(C(=O)N([H])[H])c5N([H])[H])C4([H])[H])C([H])([H])[H])c3[H])c([H])c([H])c2C1([H])[H]

>  <smiles>  (76) 
[H]c1c([H])c([H])c2c(c1[H])C([H])([H])C([H])([H])C([H])([H])C2([H])N([H])C(=O)C1([H])N(C(=O)C([H])(N([H])C(=O)C([H])(N([H])C([H])([H])[H])C([H])([H])[H])C(C([H])([H])[H])(C([H])([H])[H])C([H])([H])[H])C([H])([H])c2c([H])c(OC([H])([H])C([H])([H])C([H])([H])[N+]([H])([H])C([H])(C([H])([H])[H])C([H])([H])c3c([H])c([H])c([H])c(C([H])([H])C([H])([H])N(C(=O)N4C([H])([H])C([H])([H])C([H])([H])C([H])(n5nc(-c6c([H])c([H])c(Oc7c([H])c([H])c(F)c([H])c7F)c([H])c6[H])c(C(=O)N([H])[H])c5N([H])[H])C4([H])[H])C([H])([H])[H])c3[H])c([H])c([H])c2C1([H])[H]

$$$$
76:0:0
     RDKit          3D

100109  0  0  1  0  0  0  0  0999 V2000
  -29.5430  -20.8410   22.0880 C   0  0  0  0  0  2  0  0  0  0  0  0
  -31.6700  -21.6070   23.2340 C   0  0  0  0  0  2  0  0  0  0  0  0
  -29.2830  -19.8580   23.2420 C   0  0  0  0  0  2  0  0  0  0  0  0
  -31.4050  -20.5910   24.3640 C   0  0  0  0  0  2  0  0  0  0  0  0
  -30.3710  -22.0760   22.5320 C   0  0  0  0  0  3  0  0  0  0  0  0
  -30.5930  -19.3690   23.8910 C   0  0  0  0  0  3  0  0  0  0  0  0
  -31.3950  -18.5340   22.9670 N   0  0  0  0  0  4  0  0  0  0  0  0
  -32.2990  -18.3910   23.3890 H   0  0  0  0  0  0  0  0  0  0  0  0
  -31.5370  -19.0360   22.1080 H   0  0  0  0  0  0  0  0  0  0  0  0
  -30.8420  -17.1980   22.6560 C   0  0  0  0  0  2  0  0  0  0  0  0
  -31.6420  -16.5320   21.5240 C   0  0  0  0  0  2  0  0  0  0  0  0
  -31.6050  -14.9960   21.5420 C   0  0  0  0  0  2  0  0  0  0  0  0
  -30.2790  -14.0610   19.6660 C   0  0  0  0  0  0  0  0  0  0  0  0
  -29.7860  -11.9820   18.4500 C   0  0  0  0  0  2  0  0  0  0  0  0
  -28.6830  -12.0780   17.3860 C   0  0  0  0  0  2  0  0  0  0  0  0
  -27.3030  -11.8550   18.0240 C   0  0  0  0  0  2  0  0  0  0  0  0
  -27.0750  -12.7600   19.2610 C   0  0  0  0  0  3  0  0  0  0  0  0
  -28.2630  -12.6800   20.2430 C   0  0  0  0  0  2  0  0  0  0  0  0
  -29.5120  -12.9590   19.5110 N   0  0  0  0  0  0  0  0  0  0  0  0
  -31.0280  -14.5130   18.7940 O   0  0  0  0  0  0  0  0  0  0  0  0
  -30.4000  -14.4160   20.9520 N   0  0  0  0  0  0  0  0  0  0  0  0
  -29.7750  -13.9330   21.5830 H   0  0  0  0  0  0  0  0  0  0  0  0
  -24.7730  -13.2850   20.2920 C   0  0  0  0  0  0  0  0  0  0  0  0
  -23.7940  -12.4770   20.8010 C   0  0  0  0  0  0  0  0  0  0  0  0
  -24.2940  -11.1420   20.7050 C   0  0  0  0  0  0  0  0  0  0  0  0
  -25.8090  -12.4420   19.9210 N   0  0  0  0  0  0  0  0  0  0  0  0
  -25.5300  -11.1480   20.2230 N   0  0  0  0  0  0  0  0  0  0  0  0
  -23.6470   -9.8550   20.9880 C   0  0  0  0  0  0  0  0  0  0  0  0
  -24.1810   -8.9530   21.9350 C   0  0  0  0  0  3  0  0  0  0  0  0
  -23.5310   -7.7290   22.2040 C   0  0  0  0  0  3  0  0  0  0  0  0
  -22.3330   -7.3970   21.5270 C   0  0  0  0  0  0  0  0  0  0  0  0
  -21.8190   -8.2890   20.5690 C   0  0  0  0  0  3  0  0  0  0  0  0
  -22.4690   -9.5050   20.2980 C   0  0  0  0  0  3  0  0  0  0  0  0
  -21.6470   -6.2210   21.7040 O   0  0  0  0  0  0  0  0  0  0  0  0
  -21.6430   -5.5650   22.9080 C   0  0  0  0  0  0  0  0  0  0  0  0
  -21.1900   -6.1850   24.0940 C   0  0  0  0  0  3  0  0  0  0  0  0
  -21.1380   -5.4520   25.2960 C   0  0  0  0  0  3  0  0  0  0  0  0
  -21.5260   -4.1000   25.3150 C   0  0  0  0  0  0  0  0  0  0  0  0
  -21.9720   -3.4790   24.1350 C   0  0  0  0  0  3  0  0  0  0  0  0
  -22.0270   -4.2080   22.9350 C   0  0  0  0  0  0  0  0  0  0  0  0
  -22.4360   -3.5990   21.7960 F   0  0  0  0  0  0  0  0  0  0  0  0
  -21.4680   -3.3930   26.4670 F   0  0  0  0  0  0  0  0  0  0  0  0
  -22.4290  -12.9030   21.2630 C   0  0  0  0  0  0  0  0  0  0  0  0
  -21.8610  -12.1950   22.2310 N   0  0  0  0  0  0  0  0  0  0  0  0
  -21.8800  -13.9010   20.7970 O   0  0  0  0  0  0  0  0  0  0  0  0
  -22.3200  -11.3880   22.6280 H   0  0  0  0  0  0  0  0  0  0  0  0
  -20.9510  -12.4650   22.5820 H   0  0  0  0  0  0  0  0  0  0  0  0
  -24.8640  -14.6600   20.0970 N   0  0  0  0  0  0  0  0  0  0  0  0
  -24.0990  -15.2930   20.3110 H   0  0  0  0  0  0  0  0  0  0  0  0
  -25.6550  -15.1280   19.6710 H   0  0  0  0  0  0  0  0  0  0  0  0
  -31.2890  -24.3820   21.7820 C   0  0  0  0  0  1  0  0  0  0  0  0
  -30.6520  -23.0450   21.3400 C   0  0  0  0  0  3  0  0  0  0  0  0
  -27.2320  -24.3810   20.1500 C   0  0  0  0  0  2  0  0  0  0  0  0
  -29.2450  -25.0630   18.7370 C   0  0  0  0  0  2  0  0  0  0  0  0
  -28.3290  -24.0130   21.1530 C   0  0  0  0  0  2  0  0  0  0  0  0
  -29.6890  -23.6250   19.0760 C   0  0  0  0  0  2  0  0  0  0  0  0
  -27.7620  -25.3510   19.0680 C   0  0  0  0  0  3  0  0  0  0  0  0
  -29.4310  -23.2490   20.5000 N   0  0  1  0  0  4  0  0  0  0  0  0
  -29.0670  -22.3110   20.4100 H   0  0  0  0  0  0  0  0  0  0  0  0
  -27.7530  -26.7050   19.5140 O   0  0  0  0  0  0  0  0  0  0  0  0
  -24.4020  -31.7910   23.1210 C   0  0  0  0  0  0  0  0  0  0  0  0
  -26.5740  -27.4070   19.6280 C   0  0  0  0  0  0  0  0  0  0  0  0
  -22.9900  -30.4940   21.5570 C   0  0  0  0  0  3  0  0  0  0  0  0
  -24.2390  -28.9670   19.9440 C   0  0  0  0  0  0  0  0  0  0  0  0
  -25.4940  -30.7780   21.1280 C   0  0  0  0  0  2  0  0  0  0  0  0
  -25.4630  -29.4320   20.4360 C   0  0  0  0  0  0  0  0  0  0  0  0
  -26.6290  -28.6550   20.2820 C   0  0  0  0  0  3  0  0  0  0  0  0
  -25.3300  -26.9520   19.1290 C   0  0  0  0  0  3  0  0  0  0  0  0
  -24.1650  -27.7230   19.2950 C   0  0  0  0  0  3  0  0  0  0  0  0
  -23.0370  -29.8600   20.1420 C   0  0  0  0  0  2  0  0  0  0  0  0
  -24.3190  -31.0330   21.9920 N   0  0  0  0  0  0  0  0  0  0  0  0
  -23.3880  -32.0800   23.7710 O   0  0  0  0  0  0  0  0  0  0  0  0
  -22.3980  -29.4590   22.5390 C   0  0  0  0  0  0  0  0  0  0  0  0
  -21.0730  -29.2570   22.4660 N   0  0  0  0  0  0  0  0  0  0  0  0
  -23.1260  -28.8400   23.3200 O   0  0  0  0  0  0  0  0  0  0  0  0
  -20.5440  -29.8080   21.8050 H   0  0  0  0  0  0  0  0  0  0  0  0
  -17.7580  -27.9390   23.0250 C   0  0  0  0  0  0  0  0  0  0  0  0
  -20.3040  -28.3060   23.2670 C   0  0  0  0  0  3  0  0  0  0  0  0
  -20.4610  -26.8670   22.7240 C   0  0  0  0  0  2  0  0  0  0  0  0
  -19.3650  -26.4760   21.7280 C   0  0  0  0  0  2  0  0  0  0  0  0
  -17.9830  -26.5820   22.3800 C   0  0  0  0  0  2  0  0  0  0  0  0
  -18.8470  -28.7550   23.4260 C   0  0  0  0  0  0  0  0  0  0  0  0
  -18.5830  -30.0240   23.9850 C   0  0  0  0  0  3  0  0  0  0  0  0
  -17.2610  -30.4780   24.1490 C   0  0  0  0  0  3  0  0  0  0  0  0
  -16.1850  -29.6590   23.7630 C   0  0  0  0  0  3  0  0  0  0  0  0
  -16.4340  -28.3920   23.2080 C   0  0  0  0  0  3  0  0  0  0  0  0
  -25.7650  -32.3520   23.6320 C   0  0  0  0  0  3  0  0  0  0  0  0
  -25.5380  -33.7360   24.0670 N   0  0  0  0  0  0  0  0  0  0  0  0
  -25.8460  -34.8190   23.3420 C   0  0  0  0  0  0  0  0  0  0  0  0
  -26.4260  -34.7560   22.2540 O   0  0  0  0  0  0  0  0  0  0  0  0
  -25.0150  -33.8620   24.9220 H   0  0  0  0  0  0  0  0  0  0  0  0
  -24.1600  -36.6810   23.2350 C   0  0  0  0  0  1  0  0  0  0  0  0
  -25.4490  -36.1930   23.9150 C   0  0  0  0  0  3  0  0  0  0  0  0
  -27.6760  -36.9590   24.6090 C   0  0  0  0  0  1  0  0  0  0  0  0
  -26.5060  -37.2180   23.7740 N   0  0  0  0  0  0  0  0  0  0  0  0
  -26.1480  -38.1390   24.0090 H   0  0  0  0  0  0  0  0  0  0  0  0
  -26.3940  -31.4950   24.7990 C   0  0  1  0  0  0  0  0  0  0  0  0
  -25.4140  -31.2170   25.9640 C   0  0  0  0  0  1  0  0  0  0  0  0
  -26.8930  -30.1300   24.2690 C   0  0  0  0  0  1  0  0  0  0  0  0
  -27.6300  -32.2240   25.3750 C   0  0  0  0  0  1  0  0  0  0  0  0
  1  5  1  0
  1  3  1  0
  2  4  1  0
  3  6  1  0
  5 52  1  0
  5  2  1  0
  6  7  1  0
  6  4  1  0
  7  8  1  0
  9  7  1  0
 10  7  1  0
 11 12  1  0
 11 10  1  0
 13 21  1  0
 14 19  1  0
 15 16  1  0
 15 14  1  0
 17 16  1  0
 17 26  1  0
 17 18  1  0
 19 13  1  0
 19 18  1  0
 20 13  2  0
 21 12  1  0
 21 22  1  0
 23 24  2  0
 24 43  1  0
 25 24  1  0
 25 28  1  0
 26 27  1  0
 26 23  1  0
 27 25  2  0
 28 29  1  0
 29 30  2  0
 31 34  1  0
 31 30  1  0
 32 31  2  0
 33 32  1  0
 33 28  2  0
 34 35  1  0
 35 40  2  0
 35 36  1  0
 36 37  2  0
 37 38  1  0
 38 42  1  0
 39 38  2  0
 40 39  1  0
 41 40  1  0
 43 44  1  0
 44 47  1  0
 44 46  1  0
 45 43  2  0
 48 23  1  0
 48 49  1  0
 50 48  1  0
 52 51  1  0
 53 55  1  0
 54 57  1  0
 54 56  1  0
 56 58  1  0
 57 60  1  0
 57 53  1  0
 58 55  1  0
 58 52  1  0
 58 59  1  6
 60 62  1  0
 61 72  2  0
 62 67  1  0
 63 71  1  0
 63 73  1  0
 64 70  1  0
 64 66  1  0
 65 71  1  0
 66 65  1  0
 67 66  2  0
 68 69  1  0
 68 62  2  0
 69 64  2  0
 70 63  1  0
 71 61  1  0
 73 75  2  0
 74 73  1  0
 76 74  1  0
 77 86  2  0
 77 82  1  0
 78 74  1  0
 78 82  1  0
 79 78  1  0
 80 81  1  0
 80 79  1  0
 81 77  1  0
 82 83  2  0
 83 84  1  0
 85 84  2  0
 86 85  1  0
 87 61  1  0
 87 88  1  0
 87 97  1  0
 88 91  1  0
 89 93  1  0
 89 88  1  0
 90 89  2  0
 93 92  1  0
 95 93  1  0
 95 96  1  0
 95 94  1  0
 97100  1  1
 97 98  1  0
 99 97  1  0
M  ISO  4  13 100  21 100  57 101  60 101
M  END
>  <TORSDO>  (77) 
F 22

>  <SCORE>  (77) 
-6.706

>  <name>  (77) 
76

>  <ligand_id>  (77) 
76

>  <original_smiles>  (77) 
[H]c1c([H])c([H])c2c(c1[H])C([H])([H])C([H])([H])C([H])([H])C2([H])N([H])C(=O)C1([H])N(C(=O)C([H])(N([H])C(=O)C([H])(N([H])C([H])([H])[H])C([H])([H])[H])C(C([H])([H])[H])(C([H])([H])[H])C([H])([H])[H])C([H])([H])c2c([H])c(OC3([H])C([H])([H])C([H])([H])[N+]([H])(C([H])(C([H])([H])[H])C4([H])C([H])([H])C([H])([H])C([H])([N+]([H])([H])C([H])([H])C([H])([H])C([H])([H])N([H])C(=O)N5C([H])([H])C([H])([H])C([H])([H])C([H])(n6nc(-c7c([H])c([H])c(Oc8c([H])c([H])c(F)c([H])c8F)c([H])c7[H])c(C(=O)N([H])[H])c6N([H])[H])C5([H])[H])C([H])([H])C4([H])[H])C([H])([H])C3([H])[H])c([H])c([H])c2C1([H])[H]

>  <smiles>  (77) 
[H]c1c([H])c([H])c2c(c1[H])C([H])([H])C([H])([H])C([H])([H])C2([H])N([H])C(=O)C1([H])N(C(=O)C([H])(N([H])C(=O)C([H])(N([H])C([H])([H])[H])C([H])([H])[H])C(C([H])([H])[H])(C([H])([H])[H])C([H])([H])[H])C([H])([H])c2c([H])c(OC3([H])C([H])([H])C([H])([H])[N+]([H])(C([H])(C([H])([H])[H])C4([H])C([H])([H])C([H])([H])C([H])([N+]([H])([H])C([H])([H])C([H])([H])C([H])([H])N([H])C(=O)N5C([H])([H])C([H])([H])C([H])([H])C([H])(n6nc(-c7c([H])c([H])c(Oc8c([H])c([H])c(F)c([H])c8F)c([H])c7[H])c(C(=O)N([H])[H])c6N([H])[H])C5([H])[H])C([H])([H])C4([H])[H])C([H])([H])C3([H])[H])c([H])c([H])c2C1([H])[H]

$$$$
77:0:0
     RDKit          3D

 95102  0  0  1  0  0  0  0  0999 V2000
  -29.7120  -21.9230   18.2670 N   0  0  0  0  0  4  0  0  0  0  0  0
  -30.5740  -22.4410   18.3040 H   0  0  0  0  0  0  0  0  0  0  0  0
  -29.2120  -22.2470   17.4520 H   0  0  0  0  0  0  0  0  0  0  0  0
  -30.0320  -20.4920   18.0550 C   0  0  0  0  0  2  0  0  0  0  0  0
  -30.9600  -19.8960   19.1470 C   0  0  0  0  0  3  0  0  0  0  0  0
  -32.2600  -20.5500   19.0800 N   0  0  0  0  0  0  0  0  0  0  0  0
  -32.6170  -20.5520   18.1300 H   0  0  0  0  0  0  0  0  0  0  0  0
  -32.2390  -21.5220   19.3700 H   0  0  0  0  0  0  0  0  0  0  0  0
  -31.2370  -18.3880   18.9360 C   0  0  0  0  0  2  0  0  0  0  0  0
  -30.1700  -17.4080   19.4710 C   0  0  0  0  0  2  0  0  0  0  0  0
  -30.4250  -16.8820   20.9110 C   0  0  0  0  0  2  0  0  0  0  0  0
  -30.6980  -14.4440   20.5340 C   0  0  0  0  0  0  0  0  0  0  0  0
  -30.3700  -12.3200   19.3570 C   0  0  0  0  0  2  0  0  0  0  0  0
  -29.4370  -12.5620   18.1510 C   0  0  0  0  0  2  0  0  0  0  0  0
  -27.9620  -12.4160   18.5740 C   0  0  0  0  0  2  0  0  0  0  0  0
  -27.6250  -13.2350   19.8480 C   0  0  0  0  0  3  0  0  0  0  0  0
  -28.6730  -13.0010   20.9620 C   0  0  0  0  0  2  0  0  0  0  0  0
  -30.0050  -13.2850   20.4030 N   0  0  0  0  0  0  0  0  0  0  0  0
  -31.8210  -14.6150   20.0530 O   0  0  0  0  0  0  0  0  0  0  0  0
  -30.0160  -15.4780   21.0550 N   0  0  0  0  0  0  0  0  0  0  0  0
  -29.1080  -15.2870   21.4550 H   0  0  0  0  0  0  0  0  0  0  0  0
  -25.2140  -13.8400   20.5210 C   0  0  0  0  0  0  0  0  0  0  0  0
  -24.1430  -13.0690   20.8890 C   0  0  0  0  0  0  0  0  0  0  0  0
  -24.6060  -11.7180   20.8670 C   0  0  0  0  0  0  0  0  0  0  0  0
  -26.2660  -12.9590   20.3150 N   0  0  0  0  0  0  0  0  0  0  0  0
  -25.8990  -11.6770   20.5740 N   0  0  0  0  0  0  0  0  0  0  0  0
  -23.8780  -10.4560   21.0590 C   0  0  0  0  0  0  0  0  0  0  0  0
  -24.3140   -9.4860   21.9880 C   0  0  0  0  0  3  0  0  0  0  0  0
  -23.5880   -8.2890   22.1670 C   0  0  0  0  0  3  0  0  0  0  0  0
  -22.4120   -8.0530   21.4160 C   0  0  0  0  0  0  0  0  0  0  0  0
  -21.9950   -9.0130   20.4760 C   0  0  0  0  0  3  0  0  0  0  0  0
  -22.7220  -10.2020   20.2950 C   0  0  0  0  0  3  0  0  0  0  0  0
  -21.6580   -6.9080   21.5020 O   0  0  0  0  0  0  0  0  0  0  0  0
  -21.6230   -6.1530   22.6470 C   0  0  0  0  0  0  0  0  0  0  0  0
  -21.2230   -6.6980   23.8870 C   0  0  0  0  0  3  0  0  0  0  0  0
  -21.1340   -5.8700   25.0240 C   0  0  0  0  0  3  0  0  0  0  0  0
  -21.4360   -4.5000   24.9250 C   0  0  0  0  0  0  0  0  0  0  0  0
  -21.8310   -3.9540   23.6900 C   0  0  0  0  0  3  0  0  0  0  0  0
  -21.9210   -4.7780   22.5540 C   0  0  0  0  0  0  0  0  0  0  0  0
  -22.2800   -4.2420   21.3620 F   0  0  0  0  0  0  0  0  0  0  0  0
  -21.3450   -3.7040   26.0150 F   0  0  0  0  0  0  0  0  0  0  0  0
  -22.7430  -13.5490   21.1520 C   0  0  0  0  0  0  0  0  0  0  0  0
  -22.0090  -12.8560   22.0170 N   0  0  0  0  0  0  0  0  0  0  0  0
  -22.3070  -14.5710   20.6250 O   0  0  0  0  0  0  0  0  0  0  0  0
  -22.3760  -12.0300   22.4650 H   0  0  0  0  0  0  0  0  0  0  0  0
  -21.0700  -13.1590   22.2350 H   0  0  0  0  0  0  0  0  0  0  0  0
  -25.3780  -15.2080   20.3320 N   0  0  0  0  0  0  0  0  0  0  0  0
  -24.6040  -15.8600   20.3880 H   0  0  0  0  0  0  0  0  0  0  0  0
  -26.2370  -15.6460   20.0250 H   0  0  0  0  0  0  0  0  0  0  0  0
  -28.9050  -22.2320   19.4680 C   0  0  0  0  0  2  0  0  0  0  0  0
  -29.6870  -23.1180   20.4570 C   0  0  0  0  0  2  0  0  0  0  0  0
  -29.6350  -24.6360   20.1490 C   0  0  0  0  0  2  0  0  0  0  0  0
  -28.1840  -25.3610   22.1340 C   0  0  0  0  0  1  0  0  0  0  0  0
  -28.3440  -25.3540   20.6000 C   0  0  0  0  0  3  0  0  0  0  0  0
  -28.4100  -26.7140   20.1450 O   0  0  0  0  0  0  0  0  0  0  0  0
  -24.5820  -31.8630   23.2320 C   0  0  0  0  0  0  0  0  0  0  0  0
  -27.2300  -27.4290   20.1460 C   0  0  0  0  0  0  0  0  0  0  0  0
  -23.3750  -30.4550   21.5960 C   0  0  0  0  0  3  0  0  0  0  0  0
  -24.8290  -28.9200   20.1680 C   0  0  0  0  0  0  0  0  0  0  0  0
  -25.9010  -30.8210   21.3910 C   0  0  0  0  0  2  0  0  0  0  0  0
  -25.9870  -29.4530   20.7460 C   0  0  0  0  0  0  0  0  0  0  0  0
  -27.1940  -28.7170   20.7240 C   0  0  0  0  0  3  0  0  0  0  0  0
  -26.0530  -26.9060   19.5630 C   0  0  0  0  0  3  0  0  0  0  0  0
  -24.8540  -27.6460   19.5760 C   0  0  0  0  0  3  0  0  0  0  0  0
  -23.5810  -29.7720   20.2190 C   0  0  0  0  0  2  0  0  0  0  0  0
  -24.6380  -31.0570   22.1330 N   0  0  0  0  0  0  0  0  0  0  0  0
  -23.5020  -32.1350   23.7730 O   0  0  0  0  0  0  0  0  0  0  0  0
  -22.7270  -29.4340   22.5570 C   0  0  0  0  0  0  0  0  0  0  0  0
  -21.4030  -29.2520   22.4340 N   0  0  0  0  0  0  0  0  0  0  0  0
  -23.4130  -28.8060   23.3670 O   0  0  0  0  0  0  0  0  0  0  0  0
  -20.9100  -29.8050   21.7460 H   0  0  0  0  0  0  0  0  0  0  0  0
  -18.0280  -28.0700   22.9410 C   0  0  0  0  0  0  0  0  0  0  0  0
  -20.5870  -28.3150   23.2060 C   0  0  0  0  0  3  0  0  0  0  0  0
  -20.6790  -26.8840   22.6250 C   0  0  0  0  0  2  0  0  0  0  0  0
  -19.5730  -26.5720   21.6130 C   0  0  0  0  0  2  0  0  0  0  0  0
  -18.1960  -26.7220   22.2640 C   0  0  0  0  0  2  0  0  0  0  0  0
  -19.1500  -28.8270   23.3690 C   0  0  0  0  0  0  0  0  0  0  0  0
  -18.9370  -30.0930   23.9590 C   0  0  0  0  0  3  0  0  0  0  0  0
  -17.6340  -30.5990   24.1280 C   0  0  0  0  0  3  0  0  0  0  0  0
  -16.5260  -29.8360   23.7180 C   0  0  0  0  0  3  0  0  0  0  0  0
  -16.7240  -28.5750   23.1290 C   0  0  0  0  0  3  0  0  0  0  0  0
  -25.8680  -32.4970   23.8470 C   0  0  0  0  0  3  0  0  0  0  0  0
  -26.3920  -31.7250   25.1200 C   0  0  1  0  0  0  0  0  0  0  0  0
  -25.3050  -31.4830   26.1940 C   0  0  0  0  0  1  0  0  0  0  0  0
  -26.9690  -30.3480   24.7210 C   0  0  0  0  0  1  0  0  0  0  0  0
  -27.5470  -32.5170   25.7750 C   0  0  0  0  0  1  0  0  0  0  0  0
  -25.5600  -33.8930   24.1760 N   0  0  0  0  0  0  0  0  0  0  0  0
  -25.8970  -34.9460   23.4170 C   0  0  0  0  0  0  0  0  0  0  0  0
  -26.5680  -34.8400   22.3860 O   0  0  0  0  0  0  0  0  0  0  0  0
  -24.9520  -34.0450   24.9680 H   0  0  0  0  0  0  0  0  0  0  0  0
  -24.1710  -36.7380   23.0540 C   0  0  0  0  0  1  0  0  0  0  0  0
  -25.4080  -36.3340   23.8730 C   0  0  0  0  0  3  0  0  0  0  0  0
  -27.5410  -37.2130   24.7100 C   0  0  0  0  0  1  0  0  0  0  0  0
  -26.4420  -37.3860   23.7640 N   0  0  0  0  0  0  0  0  0  0  0  0
  -26.0390  -38.3080   23.9120 H   0  0  0  0  0  0  0  0  0  0  0  0
  1  2  1  0
  1 50  1  0
  3  1  1  0
  4  1  1  0
  5  4  1  0
  6  5  1  0
  6  8  1  0
  7  6  1  0
  9  5  1  0
  9 10  1  0
 10 11  1  0
 11 20  1  0
 12 20  1  0
 13 18  1  0
 14 15  1  0
 14 13  1  0
 16 15  1  0
 16 25  1  0
 16 17  1  0
 18 12  1  0
 18 17  1  0
 19 12  2  0
 20 21  1  0
 22 23  2  0
 23 42  1  0
 24 23  1  0
 24 27  1  0
 25 22  1  0
 25 26  1  0
 26 24  2  0
 27 28  1  0
 28 29  2  0
 30 33  1  0
 30 29  1  0
 31 30  2  0
 32 31  1  0
 32 27  2  0
 33 34  1  0
 34 35  1  0
 35 36  2  0
 37 36  1  0
 37 41  1  0
 38 37  2  0
 39 34  2  0
 39 38  1  0
 40 39  1  0
 42 43  1  0
 43 46  1  0
 43 45  1  0
 44 42  2  0
 47 48  1  0
 47 22  1  0
 49 47  1  0
 50 51  1  0
 52 51  1  0
 52 54  1  0
 54 53  1  0
 55 57  1  0
 55 54  1  0
 56 67  2  0
 57 62  1  0
 58 66  1  0
 58 68  1  0
 59 65  1  0
 59 61  1  0
 60 66  1  0
 61 60  1  0
 62 61  2  0
 63 64  1  0
 63 57  2  0
 64 59  2  0
 65 58  1  0
 66 56  1  0
 68 70  2  0
 69 68  1  0
 71 69  1  0
 72 81  2  0
 72 77  1  0
 73 69  1  0
 73 77  1  0
 74 73  1  0
 75 76  1  0
 75 74  1  0
 76 72  1  0
 77 78  2  0
 78 79  1  0
 80 79  2  0
 81 80  1  0
 82 56  1  0
 82 87  1  0
 82 83  1  0
 83 86  1  1
 83 84  1  0
 85 83  1  0
 87 90  1  0
 88 92  1  0
 88 87  1  0
 89 88  2  0
 92 91  1  0
 94 92  1  0
 94 95  1  0
 94 93  1  0
M  ISO  4  12 100  20 100  54 101  55 101
M  END
>  <TORSDO>  (78) 
F 26

>  <SCORE>  (78) 
-11.951

>  <name>  (78) 
77

>  <ligand_id>  (78) 
77

>  <original_smiles>  (78) 
[H]c1c([H])c([H])c2c(c1[H])C([H])([H])C([H])([H])C([H])([H])C2([H])N([H])C(=O)C1([H])N(C(=O)C([H])(N([H])C(=O)C([H])(N([H])C([H])([H])[H])C([H])([H])[H])C(C([H])([H])[H])(C([H])([H])[H])C([H])([H])[H])C([H])([H])c2c([H])c(OC([H])(C([H])([H])[H])C([H])([H])C([H])([H])C([H])([H])[N+]([H])([H])C([H])([H])C([H])(N([H])[H])C([H])([H])C([H])([H])C([H])([H])N([H])C(=O)N3C([H])([H])C([H])([H])C([H])([H])C([H])(n4nc(-c5c([H])c([H])c(Oc6c([H])c([H])c(F)c([H])c6F)c([H])c5[H])c(C(=O)N([H])[H])c4N([H])[H])C3([H])[H])c([H])c([H])c2C1([H])[H]

>  <smiles>  (78) 
[H]c1c([H])c([H])c2c(c1[H])C([H])([H])C([H])([H])C([H])([H])C2([H])N([H])C(=O)C1([H])N(C(=O)C([H])(N([H])C(=O)C([H])(N([H])C([H])([H])[H])C([H])([H])[H])C(C([H])([H])[H])(C([H])([H])[H])C([H])([H])[H])C([H])([H])c2c([H])c(OC([H])(C([H])([H])[H])C([H])([H])C([H])([H])C([H])([H])[N+]([H])([H])C([H])([H])C([H])(N([H])[H])C([H])([H])C([H])([H])C([H])([H])N([H])C(=O)N3C([H])([H])C([H])([H])C([H])([H])C([H])(n4nc(-c5c([H])c([H])c(Oc6c([H])c([H])c(F)c([H])c6F)c([H])c5[H])c(C(=O)N([H])[H])c4N([H])[H])C3([H])[H])c([H])c([H])c2C1([H])[H]

$$$$
78:0:0
     RDKit          3D

 84 91  0  0  1  0  0  0  0  0999 V2000
  -28.9710  -22.8010   20.2220 C   0  0  0  0  0  3  0  0  0  0  0  0
  -28.6640  -19.8520   20.1350 C   0  0  0  0  0  0  0  0  0  0  0  0
  -27.3430  -19.1120   20.0310 C   0  0  0  0  0  1  0  0  0  0  0  0
  -28.4060  -21.2500   20.1420 N   0  0  0  0  0  0  0  0  0  0  0  0
  -29.8370  -18.5340   20.1800 C   0  0  0  0  0  3  0  0  0  0  0  0
  -29.5080  -16.7730   20.3550 C   0  0  0  0  0  3  0  0  0  0  0  0
  -30.4190  -15.2860   20.1980 C   0  0  0  0  0  0  0  0  0  0  0  0
  -30.4560  -12.8250   19.3710 C   0  0  0  0  0  2  0  0  0  0  0  0
  -29.5260  -12.6220   18.1460 C   0  0  0  0  0  2  0  0  0  0  0  0
  -28.0750  -12.3570   18.5870 C   0  0  0  0  0  2  0  0  0  0  0  0
  -27.6270  -13.3240   19.7090 C   0  0  0  0  0  3  0  0  0  0  0  0
  -28.6780  -13.4650   20.8280 C   0  0  0  0  0  2  0  0  0  0  0  0
  -29.9170  -13.9560   20.2080 N   0  0  0  0  0  0  0  0  0  0  0  0
  -31.6270  -15.3320   19.9250 O   0  0  0  0  0  0  0  0  0  0  0  0
  -25.2630  -13.8800   20.4920 C   0  0  0  0  0  0  0  0  0  0  0  0
  -24.2030  -13.0990   20.8630 C   0  0  0  0  0  0  0  0  0  0  0  0
  -24.6680  -11.7500   20.8160 C   0  0  0  0  0  0  0  0  0  0  0  0
  -26.3020  -13.0060   20.2270 N   0  0  0  0  0  0  0  0  0  0  0  0
  -25.9570  -11.7180   20.4900 N   0  0  0  0  0  0  0  0  0  0  0  0
  -23.9420  -10.4860   21.0010 C   0  0  0  0  0  0  0  0  0  0  0  0
  -24.3600   -9.5230   21.9450 C   0  0  0  0  0  3  0  0  0  0  0  0
  -23.6310   -8.3260   22.1190 C   0  0  0  0  0  3  0  0  0  0  0  0
  -22.4700   -8.0840   21.3480 C   0  0  0  0  0  0  0  0  0  0  0  0
  -22.0700   -9.0360   20.3930 C   0  0  0  0  0  3  0  0  0  0  0  0
  -22.8000  -10.2230   20.2170 C   0  0  0  0  0  3  0  0  0  0  0  0
  -21.7140   -6.9390   21.4300 O   0  0  0  0  0  0  0  0  0  0  0  0
  -21.6200   -6.2200   22.5950 C   0  0  0  0  0  0  0  0  0  0  0  0
  -21.1260   -6.7940   23.7860 C   0  0  0  0  0  3  0  0  0  0  0  0
  -20.9800   -6.0010   24.9420 C   0  0  0  0  0  3  0  0  0  0  0  0
  -21.3180   -4.6360   24.9070 C   0  0  0  0  0  0  0  0  0  0  0  0
  -21.8050   -4.0610   23.7200 C   0  0  0  0  0  3  0  0  0  0  0  0
  -21.9520   -4.8510   22.5660 C   0  0  0  0  0  0  0  0  0  0  0  0
  -22.4010   -4.2870   21.4190 F   0  0  0  0  0  0  0  0  0  0  0  0
  -21.1710   -3.8720   26.0150 F   0  0  0  0  0  0  0  0  0  0  0  0
  -22.8090  -13.5750   21.1490 C   0  0  0  0  0  0  0  0  0  0  0  0
  -22.0900  -12.8780   22.0220 N   0  0  0  0  0  0  0  0  0  0  0  0
  -22.3650  -14.6020   20.6340 O   0  0  0  0  0  0  0  0  0  0  0  0
  -22.4610  -12.0490   22.4600 H   0  0  0  0  0  0  0  0  0  0  0  0
  -21.1550  -13.1800   22.2580 H   0  0  0  0  0  0  0  0  0  0  0  0
  -25.4240  -15.2520   20.3290 N   0  0  0  0  0  0  0  0  0  0  0  0
  -24.6600  -15.9060   20.4620 H   0  0  0  0  0  0  0  0  0  0  0  0
  -26.2740  -15.6950   20.0040 H   0  0  0  0  0  0  0  0  0  0  0  0
  -27.9610  -24.2910   20.1380 C   0  0  0  0  0  3  0  0  0  0  0  0
  -28.2200  -25.9110   20.2680 O   0  0  0  0  0  0  0  0  0  0  0  0
  -24.6480  -31.8520   23.2400 C   0  0  0  0  0  0  0  0  0  0  0  0
  -27.2020  -26.9950   20.2160 C   0  0  0  0  0  0  0  0  0  0  0  0
  -23.4560  -30.4680   21.5900 C   0  0  0  0  0  3  0  0  0  0  0  0
  -24.9050  -28.8670   20.1680 C   0  0  0  0  0  0  0  0  0  0  0  0
  -26.0220  -30.6770   21.4540 C   0  0  0  0  0  2  0  0  0  0  0  0
  -26.0910  -29.2720   20.7920 C   0  0  0  0  0  0  0  0  0  0  0  0
  -27.2370  -28.3580   20.7890 C   0  0  0  0  0  3  0  0  0  0  0  0
  -25.9840  -26.7360   19.5500 C   0  0  0  0  0  3  0  0  0  0  0  0
  -24.8740  -27.6190   19.5280 C   0  0  0  0  0  3  0  0  0  0  0  0
  -23.6890  -29.7900   20.2120 C   0  0  0  0  0  2  0  0  0  0  0  0
  -24.7300  -31.0250   22.1480 N   0  0  0  0  0  0  0  0  0  0  0  0
  -23.5570  -32.1420   23.7570 O   0  0  0  0  0  0  0  0  0  0  0  0
  -22.7550  -29.4700   22.5480 C   0  0  0  0  0  0  0  0  0  0  0  0
  -21.4250  -29.3120   22.4180 N   0  0  0  0  0  0  0  0  0  0  0  0
  -23.4140  -28.8370   23.3770 O   0  0  0  0  0  0  0  0  0  0  0  0
  -20.9460  -29.8720   21.7280 H   0  0  0  0  0  0  0  0  0  0  0  0
  -18.0330  -28.1220   22.9150 C   0  0  0  0  0  0  0  0  0  0  0  0
  -20.5940  -28.3750   23.1820 C   0  0  0  0  0  3  0  0  0  0  0  0
  -20.6880  -26.9450   22.6000 C   0  0  0  0  0  2  0  0  0  0  0  0
  -19.5860  -26.6340   21.5820 C   0  0  0  0  0  2  0  0  0  0  0  0
  -18.2050  -26.7780   22.2260 C   0  0  0  0  0  2  0  0  0  0  0  0
  -19.1550  -28.8790   23.3480 C   0  0  0  0  0  0  0  0  0  0  0  0
  -18.9380  -30.1350   23.9560 C   0  0  0  0  0  3  0  0  0  0  0  0
  -17.6340  -30.6350   24.1290 C   0  0  0  0  0  3  0  0  0  0  0  0
  -16.5280  -29.8770   23.7100 C   0  0  0  0  0  3  0  0  0  0  0  0
  -16.7280  -28.6220   23.1080 C   0  0  0  0  0  3  0  0  0  0  0  0
  -25.9180  -32.4870   23.8810 C   0  0  0  0  0  3  0  0  0  0  0  0
  -26.4090  -31.7230   25.1730 C   0  0  1  0  0  0  0  0  0  0  0  0
  -25.2980  -31.5010   26.2260 C   0  0  0  0  0  1  0  0  0  0  0  0
  -26.9880  -30.3370   24.8080 C   0  0  0  0  0  1  0  0  0  0  0  0
  -27.5550  -32.5150   25.8460 C   0  0  0  0  0  1  0  0  0  0  0  0
  -25.6060  -33.8900   24.2110 N   0  0  0  0  0  0  0  0  0  0  0  0
  -25.9220  -34.9460   23.4500 C   0  0  0  0  0  0  0  0  0  0  0  0
  -26.5690  -34.8440   22.4060 O   0  0  0  0  0  0  0  0  0  0  0  0
  -25.0280  -34.0420   25.0240 H   0  0  0  0  0  0  0  0  0  0  0  0
  -24.1700  -36.7330   23.1650 C   0  0  0  0  0  1  0  0  0  0  0  0
  -25.4490  -36.3370   23.9220 C   0  0  0  0  0  3  0  0  0  0  0  0
  -27.6090  -37.2440   24.6590 C   0  0  0  0  0  1  0  0  0  0  0  0
  -26.4690  -37.3960   23.7590 N   0  0  0  0  0  0  0  0  0  0  0  0
  -26.0630  -38.3150   23.9150 H   0  0  0  0  0  0  0  0  0  0  0  0
  2  4  2  0
  2  5  1  0
  3  2  1  0
  4  1  1  0
  5  6  2  0
  7 13  1  0
  7  6  1  0
  8 13  1  0
  9 10  1  0
  9  8  1  0
 11 10  1  0
 11 18  1  0
 11 12  1  0
 13 12  1  0
 14  7  2  0
 15 16  2  0
 16 35  1  0
 17 16  1  0
 17 20  1  0
 18 19  1  0
 18 15  1  0
 19 17  2  0
 20 21  1  0
 21 22  2  0
 23 26  1  0
 23 22  1  0
 24 23  2  0
 25 24  1  0
 25 20  2  0
 26 27  1  0
 27 28  1  0
 28 29  2  0
 30 29  1  0
 30 34  1  0
 31 30  2  0
 32 27  2  0
 32 31  1  0
 33 32  1  0
 35 36  1  0
 36 39  1  0
 36 38  1  0
 37 35  2  0
 40 41  1  0
 40 15  1  0
 42 40  1  0
 43  1  2  0
 43 44  1  0
 45 56  2  0
 46 44  1  0
 46 51  1  0
 47 55  1  0
 47 57  1  0
 48 54  1  0
 48 50  1  0
 49 55  1  0
 50 49  1  0
 51 50  2  0
 52 46  2  0
 53 52  1  0
 53 48  2  0
 54 47  1  0
 55 45  1  0
 57 59  2  0
 58 57  1  0
 60 58  1  0
 61 70  2  0
 61 66  1  0
 62 58  1  0
 62 66  1  0
 63 62  1  0
 64 65  1  0
 64 63  1  0
 65 61  1  0
 66 67  2  0
 67 68  1  0
 69 68  2  0
 70 69  1  0
 71 45  1  0
 71 76  1  0
 71 72  1  0
 72 75  1  1
 72 73  1  0
 74 72  1  0
 76 79  1  0
 77 81  1  0
 77 76  1  0
 78 77  2  0
 81 80  1  0
 83 84  1  0
 83 81  1  0
 83 82  1  0
M  ISO  4   6 100   7 100  43 101  44 101
M  END
>  <TORSDO>  (79) 
F 20

>  <SCORE>  (79) 
-15.521

>  <name>  (79) 
78

>  <ligand_id>  (79) 
78

>  <original_smiles>  (79) 
[H]c1c([H])c([H])c2c(c1[H])C([H])([H])C([H])([H])C([H])([H])C2([H])N([H])C(=O)C1([H])N(C(=O)C([H])(N([H])C(=O)C([H])(N([H])C([H])([H])[H])C([H])([H])[H])C(C([H])([H])[H])(C([H])([H])[H])C([H])([H])[H])C([H])([H])c2c([H])c(OC([H])([H])C([H])([H])N=C(C([H])([H])[H])C([H])([H])C([H])([H])C(=O)N3C([H])([H])C([H])([H])C([H])([H])C([H])(n4nc(-c5c([H])c([H])c(Oc6c([H])c([H])c(F)c([H])c6F)c([H])c5[H])c(C(=O)N([H])[H])c4N([H])[H])C3([H])[H])c([H])c([H])c2C1([H])[H]

>  <smiles>  (79) 
[H]c1c([H])c([H])c2c(c1[H])C([H])([H])C([H])([H])C([H])([H])C2([H])N([H])C(=O)C1([H])N(C(=O)C([H])(N([H])C(=O)C([H])(N([H])C([H])([H])[H])C([H])([H])[H])C(C([H])([H])[H])(C([H])([H])[H])C([H])([H])[H])C([H])([H])c2c([H])c(OC([H])([H])C([H])([H])N=C(C([H])([H])[H])C([H])([H])C([H])([H])C(=O)N3C([H])([H])C([H])([H])C([H])([H])C([H])(n4nc(-c5c([H])c([H])c(Oc6c([H])c([H])c(F)c([H])c6F)c([H])c5[H])c(C(=O)N([H])[H])c4N([H])[H])C3([H])[H])c([H])c([H])c2C1([H])[H]

$$$$
79:0:0
     RDKit          3D

 97106  0  0  1  0  0  0  0  0999 V2000
  -29.3030  -20.3320   20.4000 N   0  0  0  0  0  4  0  0  0  0  0  0
  -29.1600  -20.6780   21.3340 H   0  0  0  0  0  0  0  0  0  0  0  0
  -28.4840  -19.8070   20.1470 H   0  0  0  0  0  0  0  0  0  0  0  0
  -31.2540  -17.3160   24.1070 C   0  0  0  0  0  3  0  0  0  0  0  0
  -30.9520  -18.6940   24.2060 C   0  0  0  0  0  3  0  0  0  0  0  0
  -31.3010  -16.6810   22.8470 C   0  0  0  0  0  3  0  0  0  0  0  0
  -30.6840  -19.4560   23.0470 C   0  0  0  0  0  3  0  0  0  0  0  0
  -31.0330  -17.4520   21.7010 C   0  0  0  0  0  0  0  0  0  0  0  0
  -30.7160  -18.8060   21.7970 C   0  0  0  0  0  0  0  0  0  0  0  0
  -30.3370  -18.1520   19.5260 C   0  0  0  0  0  2  0  0  0  0  0  0
  -31.0640  -16.9870   20.2660 C   0  0  0  0  0  3  0  0  0  0  0  0
  -30.4740  -19.4180   20.4340 C   0  0  0  0  0  3  0  0  0  0  0  0
  -31.0420  -14.6210   19.4360 C   0  0  0  0  0  0  0  0  0  0  0  0
  -30.6060  -12.3840   18.4860 C   0  0  0  0  0  2  0  0  0  0  0  0
  -29.5500  -12.4900   17.3670 C   0  0  0  0  0  2  0  0  0  0  0  0
  -28.1250  -12.4140   17.9480 C   0  0  0  0  0  2  0  0  0  0  0  0
  -27.9180  -13.3700   19.1530 C   0  0  0  0  0  3  0  0  0  0  0  0
  -29.0720  -13.2260   20.1710 C   0  0  0  0  0  2  0  0  0  0  0  0
  -30.3380  -13.4570   19.4550 N   0  0  0  0  0  0  0  0  0  0  0  0
  -32.0890  -14.7630   18.7970 O   0  0  0  0  0  0  0  0  0  0  0  0
  -30.4790  -15.6510   20.0900 N   0  0  0  0  0  0  0  0  0  0  0  0
  -29.6090  -15.4650   20.5640 H   0  0  0  0  0  0  0  0  0  0  0  0
  -25.6570  -14.1020   20.1410 C   0  0  0  0  0  0  0  0  0  0  0  0
  -24.5940  -13.3850   20.6220 C   0  0  0  0  0  0  0  0  0  0  0  0
  -24.9670  -12.0090   20.5200 C   0  0  0  0  0  0  0  0  0  0  0  0
  -26.6140  -13.1660   19.7810 N   0  0  0  0  0  0  0  0  0  0  0  0
  -26.2080  -11.9010   20.0640 N   0  0  0  0  0  0  0  0  0  0  0  0
  -24.1930  -10.7870   20.7760 C   0  0  0  0  0  0  0  0  0  0  0  0
  -24.6590   -9.7920   21.6630 C   0  0  0  0  0  3  0  0  0  0  0  0
  -23.8890   -8.6340   21.9070 C   0  0  0  0  0  3  0  0  0  0  0  0
  -22.6400   -8.4640   21.2640 C   0  0  0  0  0  0  0  0  0  0  0  0
  -22.1920   -9.4480   20.3650 C   0  0  0  0  0  3  0  0  0  0  0  0
  -22.9620  -10.5970   20.1190 C   0  0  0  0  0  3  0  0  0  0  0  0
  -21.8350   -7.3610   21.4200 O   0  0  0  0  0  0  0  0  0  0  0  0
  -21.8240   -6.6390   22.5860 C   0  0  0  0  0  0  0  0  0  0  0  0
  -21.5160   -7.2330   23.8290 C   0  0  0  0  0  3  0  0  0  0  0  0
  -21.4470   -6.4400   24.9920 C   0  0  0  0  0  3  0  0  0  0  0  0
  -21.6760   -5.0530   24.9140 C   0  0  0  0  0  0  0  0  0  0  0  0
  -21.9790   -4.4590   23.6760 C   0  0  0  0  0  3  0  0  0  0  0  0
  -22.0490   -5.2480   22.5150 C   0  0  0  0  0  0  0  0  0  0  0  0
  -22.3200   -4.6670   21.3220 F   0  0  0  0  0  0  0  0  0  0  0  0
  -21.6030   -4.2890   26.0280 F   0  0  0  0  0  0  0  0  0  0  0  0
  -23.2690  -13.9360   21.0630 C   0  0  0  0  0  0  0  0  0  0  0  0
  -22.6140  -13.2770   22.0120 N   0  0  0  0  0  0  0  0  0  0  0  0
  -22.8270  -14.9860   20.5980 O   0  0  0  0  0  0  0  0  0  0  0  0
  -22.9860  -12.4260   22.4090 H   0  0  0  0  0  0  0  0  0  0  0  0
  -21.7290  -13.6270   22.3480 H   0  0  0  0  0  0  0  0  0  0  0  0
  -25.8820  -15.4630   19.9640 N   0  0  0  0  0  0  0  0  0  0  0  0
  -25.1730  -16.1600   20.1660 H   0  0  0  0  0  0  0  0  0  0  0  0
  -26.7130  -15.8560   19.5390 H   0  0  0  0  0  0  0  0  0  0  0  0
  -29.4500  -21.5110   19.5080 C   0  0  0  0  0  2  0  0  0  0  0  0
  -27.9890  -23.6300   19.5820 C   0  0  0  0  0  3  0  0  0  0  0  0
  -28.1440  -22.3020   19.3540 C   0  0  0  0  0  0  0  0  0  0  0  0
  -26.9670  -21.4740   18.8680 C   0  0  0  0  0  1  0  0  0  0  0  0
  -29.0260  -24.6420   20.0560 C   0  0  0  0  0  2  0  0  0  0  0  0
  -28.4050  -25.9560   20.5930 C   0  0  0  0  0  2  0  0  0  0  0  0
  -28.2240  -26.9380   19.5650 O   0  0  0  0  0  0  0  0  0  0  0  0
  -24.6420  -31.9100   23.2210 C   0  0  0  0  0  0  0  0  0  0  0  0
  -27.0790  -27.6890   19.7030 C   0  0  0  0  0  0  0  0  0  0  0  0
  -23.3380  -30.6380   21.5470 C   0  0  0  0  0  3  0  0  0  0  0  0
  -24.7030  -29.1950   19.9450 C   0  0  0  0  0  0  0  0  0  0  0  0
  -25.8530  -30.9970   21.2430 C   0  0  0  0  0  2  0  0  0  0  0  0
  -25.8940  -29.6730   20.5070 C   0  0  0  0  0  0  0  0  0  0  0  0
  -27.0890  -28.9280   20.3840 C   0  0  0  0  0  3  0  0  0  0  0  0
  -25.8760  -27.2210   19.1390 C   0  0  0  0  0  3  0  0  0  0  0  0
  -24.6880  -27.9660   19.2590 C   0  0  0  0  0  3  0  0  0  0  0  0
  -23.4710  -30.0550   20.1130 C   0  0  0  0  0  2  0  0  0  0  0  0
  -24.6320  -31.1920   22.0610 N   0  0  0  0  0  0  0  0  0  0  0  0
  -23.5920  -32.1490   23.8340 O   0  0  0  0  0  0  0  0  0  0  0  0
  -22.7270  -29.5550   22.4650 C   0  0  0  0  0  0  0  0  0  0  0  0
  -21.4050  -29.3450   22.3470 N   0  0  0  0  0  0  0  0  0  0  0  0
  -23.4380  -28.9060   23.2390 O   0  0  0  0  0  0  0  0  0  0  0  0
  -20.8920  -29.9220   21.6950 H   0  0  0  0  0  0  0  0  0  0  0  0
  -18.0830  -27.9890   22.7660 C   0  0  0  0  0  0  0  0  0  0  0  0
  -20.6230  -28.3520   23.0800 C   0  0  0  0  0  3  0  0  0  0  0  0
  -20.7970  -26.9430   22.4660 C   0  0  0  0  0  2  0  0  0  0  0  0
  -19.7230  -26.6020   21.4280 C   0  0  0  0  0  2  0  0  0  0  0  0
  -18.3280  -26.6680   22.0570 C   0  0  0  0  0  2  0  0  0  0  0  0
  -19.1620  -28.7870   23.2330 C   0  0  0  0  0  0  0  0  0  0  0  0
  -18.8800  -30.0230   23.8540 C   0  0  0  0  0  3  0  0  0  0  0  0
  -17.5520  -30.4620   24.0140 C   0  0  0  0  0  3  0  0  0  0  0  0
  -16.4880  -29.6610   23.5650 C   0  0  0  0  0  3  0  0  0  0  0  0
  -16.7550  -28.4270   22.9460 C   0  0  0  0  0  3  0  0  0  0  0  0
  -25.9640  -32.4860   23.8170 C   0  0  0  0  0  3  0  0  0  0  0  0
  -25.7100  -33.8820   24.1900 N   0  0  0  0  0  0  0  0  0  0  0  0
  -26.0520  -34.9430   23.4460 C   0  0  0  0  0  0  0  0  0  0  0  0
  -26.6860  -34.8450   22.3920 O   0  0  0  0  0  0  0  0  0  0  0  0
  -25.1450  -34.0350   25.0120 H   0  0  0  0  0  0  0  0  0  0  0  0
  -24.3570  -36.7850   23.2010 C   0  0  0  0  0  1  0  0  0  0  0  0
  -25.6220  -36.3330   23.9510 C   0  0  0  0  0  3  0  0  0  0  0  0
  -27.8080  -37.1490   24.7120 C   0  0  0  0  0  1  0  0  0  0  0  0
  -26.6760  -37.3620   23.8150 N   0  0  0  0  0  0  0  0  0  0  0  0
  -26.3000  -38.2890   23.9920 H   0  0  0  0  0  0  0  0  0  0  0  0
  -26.5000  -31.6640   25.0530 C   0  0  1  0  0  0  0  0  0  0  0  0
  -25.4230  -31.3910   26.1300 C   0  0  0  0  0  1  0  0  0  0  0  0
  -27.0690  -30.3000   24.5960 C   0  0  0  0  0  1  0  0  0  0  0  0
  -27.6640  -32.4280   25.7250 C   0  0  0  0  0  1  0  0  0  0  0  0
  1  2  1  0
  3  1  1  0
  4  5  1  0
  6  4  2  0
  7  5  2  0
  8  9  2  0
  8  6  1  0
  9  7  1  0
 10 11  1  0
 10 12  1  0
 11 21  1  0
 11  8  1  0
 12  1  1  0
 12  9  1  0
 13 19  1  0
 13 21  1  0
 14 19  1  0
 15 16  1  0
 15 14  1  0
 17 16  1  0
 17 26  1  0
 17 18  1  0
 19 18  1  0
 20 13  2  0
 21 22  1  0
 23 24  2  0
 24 43  1  0
 25 24  1  0
 25 28  1  0
 26 27  1  0
 26 23  1  0
 27 25  2  0
 28 29  1  0
 29 30  2  0
 31 34  1  0
 31 30  1  0
 32 31  2  0
 33 32  1  0
 33 28  2  0
 34 35  1  0
 35 36  1  0
 36 37  2  0
 38 37  1  0
 38 42  1  0
 39 38  2  0
 40 35  2  0
 40 39  1  0
 41 40  1  0
 43 44  1  0
 44 47  1  0
 44 46  1  0
 45 43  2  0
 48 23  1  0
 48 49  1  0
 50 48  1  0
 51  1  1  0
 52 55  1  0
 53 51  1  0
 53 52  2  0
 54 53  1  0
 55 56  1  0
 57 59  1  0
 57 56  1  0
 58 69  2  0
 59 64  1  0
 60 68  1  0
 60 70  1  0
 61 67  1  0
 61 63  1  0
 62 68  1  0
 63 62  1  0
 64 63  2  0
 65 66  1  0
 65 59  2  0
 66 61  2  0
 67 60  1  0
 68 58  1  0
 70 72  2  0
 71 70  1  0
 73 71  1  0
 74 83  2  0
 74 79  1  0
 75 71  1  0
 75 79  1  0
 76 75  1  0
 77 78  1  0
 77 76  1  0
 78 74  1  0
 79 80  2  0
 80 81  1  0
 82 81  2  0
 83 82  1  0
 84 58  1  0
 84 85  1  0
 84 94  1  0
 85 88  1  0
 86 90  1  0
 86 85  1  0
 87 86  2  0
 90 89  1  0
 92 90  1  0
 92 93  1  0
 92 91  1  0
 94 97  1  1
 94 95  1  0
 96 94  1  0
M  ISO  4  13 100  21 100  56 101  57 101
M  END
>  <TORSDO>  (80) 
F 21

>  <SCORE>  (80) 
-9.486

>  <name>  (80) 
79

>  <ligand_id>  (80) 
79

>  <original_smiles>  (80) 
[H]C(=C(C([H])([H])[H])C([H])([H])[N+]([H])([H])C1([H])c2c([H])c([H])c([H])c([H])c2C([H])(N([H])C(=O)N2C([H])([H])C([H])([H])C([H])([H])C([H])(n3nc(-c4c([H])c([H])c(Oc5c([H])c([H])c(F)c([H])c5F)c([H])c4[H])c(C(=O)N([H])[H])c3N([H])[H])C2([H])[H])C1([H])[H])C([H])([H])C([H])([H])Oc1c([H])c([H])c2c(c1[H])C([H])([H])N(C(=O)C([H])(N([H])C(=O)C([H])(N([H])C([H])([H])[H])C([H])([H])[H])C(C([H])([H])[H])(C([H])([H])[H])C([H])([H])[H])C([H])(C(=O)N([H])C1([H])c3c([H])c([H])c([H])c([H])c3C([H])([H])C([H])([H])C1([H])[H])C2([H])[H]

>  <smiles>  (80) 
[H]C(=C(C([H])([H])[H])C([H])([H])[N+]([H])([H])C1([H])c2c([H])c([H])c([H])c([H])c2C([H])(N([H])C(=O)N2C([H])([H])C([H])([H])C([H])([H])C([H])(n3nc(-c4c([H])c([H])c(Oc5c([H])c([H])c(F)c([H])c5F)c([H])c4[H])c(C(=O)N([H])[H])c3N([H])[H])C2([H])[H])C1([H])[H])C([H])([H])C([H])([H])Oc1c([H])c([H])c2c(c1[H])C([H])([H])N(C(=O)C([H])(N([H])C(=O)C([H])(N([H])C([H])([H])[H])C([H])([H])[H])C(C([H])([H])[H])(C([H])([H])[H])C([H])([H])[H])C([H])(C(=O)N([H])C1([H])c3c([H])c([H])c([H])c([H])c3C([H])([H])C([H])([H])C1([H])[H])C2([H])[H]

$$$$
80:0:0
     RDKit          3D

103111  0  0  1  0  0  0  0  0999 V2000
  -26.0140  -19.5260   18.7220 C   0  0  0  0  0  3  0  0  0  0  0  0
  -25.6730  -20.4930   17.7540 C   0  0  0  0  0  0  0  0  0  0  0  0
  -26.9500  -19.8550   19.7510 C   0  0  0  0  0  0  0  0  0  0  0  0
  -27.1150  -21.2320   20.0830 C   0  0  0  0  0  0  0  0  0  0  0  0
  -26.5570  -22.2140   19.2220 C   0  0  0  0  0  0  0  0  0  0  0  0
  -26.1740  -21.7950   17.9260 C   0  0  0  0  0  0  0  0  0  0  0  0
  -24.9220  -20.0870   16.4810 C   0  0  0  0  0  1  0  0  0  0  0  0
  -27.9750  -21.7060   21.2600 C   0  0  0  0  0  1  0  0  0  0  0  0
  -26.5070  -23.7100   19.5710 C   0  0  0  0  0  1  0  0  0  0  0  0
  -26.8630  -22.4930   16.7530 C   0  0  0  0  0  2  0  0  0  0  0  0
  -27.6850  -23.6840   17.3110 C   0  0  0  0  0  2  0  0  0  0  0  0
  -26.2080  -25.5760   16.4320 C   0  0  0  0  0  1  0  0  0  0  0  0
  -27.6520  -25.0510   16.5700 C   0  0  0  0  0  3  0  0  0  0  0  0
  -28.5940  -26.0370   17.2160 N   0  0  0  0  0  4  0  0  0  0  0  0
  -29.5400  -25.7710   16.9940 H   0  0  0  0  0  0  0  0  0  0  0  0
  -28.4490  -26.9400   16.7980 H   0  0  0  0  0  0  0  0  0  0  0  0
  -28.4420  -26.1440   18.6870 C   0  0  0  0  0  3  0  0  0  0  0  0
  -29.3680  -27.0270   19.5620 C   0  0  0  0  0  3  0  0  0  0  0  0
  -29.1060  -27.0210   21.0070 O   0  0  0  0  0  0  0  0  0  0  0  0
  -25.4890  -29.0470   26.8700 C   0  0  0  0  0  0  0  0  0  0  0  0
  -28.0810  -27.7870   21.5620 C   0  0  0  0  0  0  0  0  0  0  0  0
  -24.5040  -29.6900   24.7060 C   0  0  0  0  0  3  0  0  0  0  0  0
  -26.0080  -29.3930   22.6830 C   0  0  0  0  0  0  0  0  0  0  0  0
  -27.0360  -29.3660   24.9400 C   0  0  0  0  0  2  0  0  0  0  0  0
  -27.0710  -28.9610   23.4800 C   0  0  0  0  0  0  0  0  0  0  0  0
  -28.1200  -28.1780   22.9250 C   0  0  0  0  0  3  0  0  0  0  0  0
  -26.9080  -28.1330   20.8500 C   0  0  0  0  0  3  0  0  0  0  0  0
  -25.9250  -28.9790   21.3540 C   0  0  0  0  0  3  0  0  0  0  0  0
  -24.9250  -30.2300   23.3190 C   0  0  0  0  0  2  0  0  0  0  0  0
  -25.6830  -29.3290   25.5510 N   0  0  0  0  0  0  0  0  0  0  0  0
  -24.3630  -29.1180   27.3820 O   0  0  0  0  0  0  0  0  0  0  0  0
  -23.5150  -28.5240   24.5120 C   0  0  0  0  0  0  0  0  0  0  0  0
  -22.3330  -28.8440   23.9610 N   0  0  0  0  0  0  0  0  0  0  0  0
  -23.8270  -27.3730   24.8280 O   0  0  0  0  0  0  0  0  0  0  0  0
  -22.1860  -29.8010   23.6850 H   0  0  0  0  0  0  0  0  0  0  0  0
  -19.1980  -28.4990   22.1830 C   0  0  0  0  0  0  0  0  0  0  0  0
  -21.2720  -27.9090   23.6000 C   0  0  0  0  0  3  0  0  0  0  0  0
  -21.7200  -27.0360   22.4070 C   0  0  0  0  0  2  0  0  0  0  0  0
  -21.2710  -27.6470   21.0760 C   0  0  0  0  0  2  0  0  0  0  0  0
  -19.7510  -27.6900   21.0190 C   0  0  0  0  0  2  0  0  0  0  0  0
  -19.9300  -28.6300   23.3920 C   0  0  0  0  0  0  0  0  0  0  0  0
  -19.4170  -29.4570   24.4180 C   0  0  0  0  0  3  0  0  0  0  0  0
  -18.1940  -30.1260   24.2470 C   0  0  0  0  0  3  0  0  0  0  0  0
  -17.4840  -29.9960   23.0390 C   0  0  0  0  0  3  0  0  0  0  0  0
  -17.9760  -29.1780   22.0160 C   0  0  0  0  0  3  0  0  0  0  0  0
  -26.6730  -28.6370   27.7970 C   0  0  0  0  0  3  0  0  0  0  0  0
  -26.6110  -27.1290   28.2510 C   0  0  1  0  0  0  0  0  0  0  0  0
  -25.2410  -26.7190   28.8370 C   0  0  0  0  0  1  0  0  0  0  0  0
  -26.9280  -26.1950   27.0630 C   0  0  0  0  0  1  0  0  0  0  0  0
  -27.6960  -26.8600   29.3190 C   0  0  0  0  0  1  0  0  0  0  0  0
  -26.6330  -29.5260   28.9600 N   0  0  0  0  0  0  0  0  0  0  0  0
  -27.5290  -30.4910   29.2120 C   0  0  0  0  0  0  0  0  0  0  0  0
  -28.5340  -30.6720   28.5200 O   0  0  0  0  0  0  0  0  0  0  0  0
  -25.7950  -29.4860   29.5180 H   0  0  0  0  0  0  0  0  0  0  0  0
  -26.7600  -32.7650   29.9620 C   0  0  0  0  0  1  0  0  0  0  0  0
  -27.2720  -31.3940   30.4350 C   0  0  0  0  0  3  0  0  0  0  0  0
  -28.8520  -30.3560   32.0000 C   0  0  0  0  0  1  0  0  0  0  0  0
  -28.4640  -31.5730   31.2920 N   0  0  0  0  0  0  0  0  0  0  0  0
  -28.3030  -32.2980   31.9860 H   0  0  0  0  0  0  0  0  0  0  0  0
  -27.8410  -18.7580   20.3760 C   0  0  0  0  0  2  0  0  0  0  0  0
  -28.0150  -17.6290   19.4410 N   0  0  0  0  0  4  0  0  0  0  0  0
  -27.1420  -17.1050   19.4630 H   0  0  0  0  0  0  0  0  0  0  0  0
  -28.1130  -18.0480   18.5340 H   0  0  0  0  0  0  0  0  0  0  0  0
  -29.1560  -16.7110   19.6650 C   0  0  0  0  0  2  0  0  0  0  0  0
  -29.1710  -16.1320   21.1010 C   0  0  0  0  0  2  0  0  0  0  0  0
  -31.0510  -14.4080   20.9860 C   0  0  0  0  0  0  0  0  0  0  0  0
  -30.9750  -11.9820   20.5100 C   0  0  0  0  0  2  0  0  0  0  0  0
  -30.2080  -11.6950   19.2060 C   0  0  0  0  0  2  0  0  0  0  0  0
  -28.6880  -11.6280   19.4440 C   0  0  0  0  0  2  0  0  0  0  0  0
  -28.1620  -12.7980   20.3120 C   0  0  0  0  0  3  0  0  0  0  0  0
  -29.0530  -12.9790   21.5690 C   0  0  0  0  0  2  0  0  0  0  0  0
  -30.4210  -13.2050   21.0960 N   0  0  0  0  0  0  0  0  0  0  0  0
  -32.1910  -14.5120   20.5230 O   0  0  0  0  0  0  0  0  0  0  0  0
  -30.4440  -15.4910   21.5050 N   0  0  0  0  0  0  0  0  0  0  0  0
  -31.1340  -16.1730   21.7900 H   0  0  0  0  0  0  0  0  0  0  0  0
  -25.7780  -13.5750   20.8740 C   0  0  0  0  0  0  0  0  0  0  0  0
  -24.6270  -12.8840   21.1230 C   0  0  0  0  0  0  0  0  0  0  0  0
  -24.9650  -11.4960   21.0310 C   0  0  0  0  0  0  0  0  0  0  0  0
  -26.7570  -12.6200   20.6640 N   0  0  0  0  0  0  0  0  0  0  0  0
  -26.2670  -11.3640   20.8180 N   0  0  0  0  0  0  0  0  0  0  0  0
  -24.1180  -10.3010   21.0650 C   0  0  0  0  0  0  0  0  0  0  0  0
  -24.2800   -9.3110   22.0610 C   0  0  0  0  0  3  0  0  0  0  0  0
  -23.4490   -8.1710   22.0800 C   0  0  0  0  0  3  0  0  0  0  0  0
  -22.4360   -8.0120   21.1050 C   0  0  0  0  0  0  0  0  0  0  0  0
  -22.2890   -8.9870   20.1030 C   0  0  0  0  0  3  0  0  0  0  0  0
  -23.1210  -10.1200   20.0810 C   0  0  0  0  0  3  0  0  0  0  0  0
  -21.5850   -6.9340   21.0460 O   0  0  0  0  0  0  0  0  0  0  0  0
  -21.1630   -6.2820   22.1760 C   0  0  0  0  0  0  0  0  0  0  0  0
  -20.4020   -6.9340   23.1710 C   0  0  0  0  0  3  0  0  0  0  0  0
  -19.9330   -6.2150   24.2880 C   0  0  0  0  0  3  0  0  0  0  0  0
  -20.2060   -4.8400   24.4070 C   0  0  0  0  0  0  0  0  0  0  0  0
  -20.9560   -4.1850   23.4170 C   0  0  0  0  0  3  0  0  0  0  0  0
  -21.4350   -4.9030   22.3030 C   0  0  0  0  0  0  0  0  0  0  0  0
  -22.1440   -4.2600   21.3450 F   0  0  0  0  0  0  0  0  0  0  0  0
  -19.7470   -4.1470   25.4760 F   0  0  0  0  0  0  0  0  0  0  0  0
  -23.2520  -13.4610   21.3100 C   0  0  0  0  0  0  0  0  0  0  0  0
  -22.3940  -12.7940   22.0700 N   0  0  0  0  0  0  0  0  0  0  0  0
  -22.9500  -14.5470   20.8120 O   0  0  0  0  0  0  0  0  0  0  0  0
  -22.6420  -11.9170   22.5060 H   0  0  0  0  0  0  0  0  0  0  0  0
  -21.4810  -13.1890   22.2460 H   0  0  0  0  0  0  0  0  0  0  0  0
  -26.0780  -14.9330   20.7540 N   0  0  0  0  0  0  0  0  0  0  0  0
  -25.2100  -15.4200   20.9730 H   0  0  0  0  0  0  0  0  0  0  0  0
  -26.2120  -15.0300   19.7540 H   0  0  0  0  0  0  0  0  0  0  0  0
  1  3  1  0
  2  6  1  0
  2  1  2  0
  3  4  2  0
  3 60  1  0
  4  8  1  0
  5  9  1  0
  5  4  1  0
  6  5  2  0
  7  2  1  0
 10 11  1  0
 10  6  1  0
 13 12  1  0
 13 14  1  0
 13 11  1  0
 14 17  1  0
 15 14  1  0
 16 14  1  0
 17 18  2  0
 18 19  1  0
 19 21  1  0
 20 31  2  0
 21 26  1  0
 22 32  1  0
 22 30  1  0
 23 29  1  0
 23 25  1  0
 24 30  1  0
 25 24  1  0
 26 25  2  0
 27 28  1  0
 27 21  2  0
 28 23  2  0
 29 22  1  0
 30 20  1  0
 32 34  2  0
 33 32  1  0
 35 33  1  0
 36 41  1  0
 37 33  1  0
 38 37  1  0
 39 38  1  0
 40 39  1  0
 40 36  1  0
 41 37  1  0
 41 42  2  0
 43 42  1  0
 44 43  2  0
 45 36  2  0
 45 44  1  0
 46 20  1  0
 46 47  1  0
 46 51  1  0
 47 48  1  1
 47 50  1  0
 49 47  1  0
 51 52  1  0
 51 54  1  0
 52 56  1  0
 53 52  2  0
 56 55  1  0
 56 58  1  0
 58 59  1  0
 58 57  1  0
 61 62  1  0
 61 64  1  0
 61 60  1  0
 63 61  1  0
 64 65  1  0
 65 74  1  0
 66 72  1  0
 66 74  1  0
 67 72  1  0
 68 69  1  0
 68 67  1  0
 70 69  1  0
 70 79  1  0
 70 71  1  0
 72 71  1  0
 73 66  2  0
 74 75  1  0
 76 77  2  0
 77 96  1  0
 78 81  1  0
 78 77  1  0
 79 80  1  0
 79 76  1  0
 80 78  2  0
 81 82  1  0
 82 83  2  0
 84 83  1  0
 85 84  2  0
 86 85  1  0
 86 81  2  0
 87 84  1  0
 87 88  1  0
 88 93  2  0
 88 89  1  0
 89 90  2  0
 90 91  1  0
 91 95  1  0
 92 91  2  0
 93 92  1  0
 94 93  1  0
 96 97  1  0
 97100  1  0
 97 99  1  0
 98 96  2  0
101 76  1  0
101102  1  0
103101  1  0
M  ISO  4  18 101  19 101  66 100  74 100
M  END
>  <TORSDO>  (81) 
F 26

>  <SCORE>  (81) 
-3.485

>  <name>  (81) 
80

>  <ligand_id>  (81) 
80

>  <original_smiles>  (81) 
[H]c1c([H])c([H])c2c(c1[H])C([H])([H])C([H])([H])C([H])([H])C2([H])N([H])C(=O)C1([H])N(C(=O)C([H])(N([H])C(=O)C([H])(N([H])C([H])([H])[H])C([H])([H])[H])C(C([H])([H])[H])(C([H])([H])[H])C([H])([H])[H])C([H])([H])c2c([H])c(OC([H])([H])C([H])([H])[N+]([H])([H])C([H])(C([H])([H])[H])C([H])([H])C([H])([H])c3c(C([H])([H])[H])c([H])c(C([H])([H])[N+]([H])([H])C([H])([H])C([H])([H])N([H])C(=O)N4C([H])([H])C([H])([H])C([H])([H])C([H])(n5nc(-c6c([H])c([H])c(Oc7c([H])c([H])c(F)c([H])c7F)c([H])c6[H])c(C(=O)N([H])[H])c5N([H])[H])C4([H])[H])c(C([H])([H])[H])c3C([H])([H])[H])c([H])c([H])c2C1([H])[H]

>  <smiles>  (81) 
[H]c1c([H])c([H])c2c(c1[H])C([H])([H])C([H])([H])C([H])([H])C2([H])N([H])C(=O)C1([H])N(C(=O)C([H])(N([H])C(=O)C([H])(N([H])C([H])([H])[H])C([H])([H])[H])C(C([H])([H])[H])(C([H])([H])[H])C([H])([H])[H])C([H])([H])c2c([H])c(OC([H])([H])C([H])([H])[N+]([H])([H])C([H])(C([H])([H])[H])C([H])([H])C([H])([H])c3c(C([H])([H])[H])c([H])c(C([H])([H])[N+]([H])([H])C([H])([H])C([H])([H])N([H])C(=O)N4C([H])([H])C([H])([H])C([H])([H])C([H])(n5nc(-c6c([H])c([H])c(Oc7c([H])c([H])c(F)c([H])c7F)c([H])c6[H])c(C(=O)N([H])[H])c5N([H])[H])C4([H])[H])c(C([H])([H])[H])c3C([H])([H])[H])c([H])c([H])c2C1([H])[H]

$$$$
81:0:0
     RDKit          3D

 95103  0  0  1  0  0  0  0  0999 V2000
  -28.6880  -24.4260   22.2370 C   0  0  0  0  0  3  0  0  0  0  0  0
  -30.4940  -23.2380   20.4550 C   0  0  0  0  0  3  0  0  0  0  0  0
  -28.8880  -23.0300   22.2770 C   0  0  0  0  0  0  0  0  0  0  0  0
  -29.7940  -22.4270   21.3710 C   0  0  0  0  0  0  0  0  0  0  0  0
  -30.2930  -24.6330   20.4080 C   0  0  0  0  0  0  0  0  0  0  0  0
  -29.3740  -25.2350   21.3040 C   0  0  0  0  0  0  0  0  0  0  0  0
  -28.1140  -22.2000   23.2870 C   0  0  0  0  0  1  0  0  0  0  0  0
  -32.5250  -25.6800   19.8300 C   0  0  0  0  0  1  0  0  0  0  0  0
  -31.0810  -25.4360   19.3820 C   0  0  0  0  0  2  0  0  0  0  0  0
  -30.0390  -20.9240   21.3360 C   0  0  0  0  0  2  0  0  0  0  0  0
  -31.1260  -20.4600   22.3280 C   0  0  0  0  0  2  0  0  0  0  0  0
  -31.8840  -19.1980   21.8670 C   0  0  0  0  0  2  0  0  0  0  0  0
  -31.0430  -17.9800   21.8620 N   0  0  0  0  0  4  0  0  0  0  0  0
  -30.8540  -17.7100   22.8150 H   0  0  0  0  0  0  0  0  0  0  0  0
  -30.1620  -18.1960   21.4250 H   0  0  0  0  0  0  0  0  0  0  0  0
  -31.6540  -16.8430   21.1310 C   0  0  0  0  0  2  0  0  0  0  0  0
  -30.7590  -15.5820   21.1270 C   0  0  0  0  0  2  0  0  0  0  0  0
  -31.2230  -14.4820   20.1530 C   0  0  0  0  0  0  0  0  0  0  0  0
  -30.7770  -12.3260   19.0200 C   0  0  0  0  0  2  0  0  0  0  0  0
  -29.8260  -12.5090   17.8240 C   0  0  0  0  0  2  0  0  0  0  0  0
  -28.3550  -12.4530   18.2830 C   0  0  0  0  0  2  0  0  0  0  0  0
  -28.0760  -13.3850   19.4910 C   0  0  0  0  0  3  0  0  0  0  0  0
  -29.1290  -13.1680   20.6010 C   0  0  0  0  0  2  0  0  0  0  0  0
  -30.4650  -13.3630   20.0130 N   0  0  0  0  0  0  0  0  0  0  0  0
  -32.2650  -14.6530   19.5100 O   0  0  0  0  0  0  0  0  0  0  0  0
  -25.7340  -14.1650   20.2290 C   0  0  0  0  0  0  0  0  0  0  0  0
  -24.6250  -13.4690   20.6300 C   0  0  0  0  0  0  0  0  0  0  0  0
  -24.9950  -12.0910   20.6110 C   0  0  0  0  0  0  0  0  0  0  0  0
  -26.7150  -13.2130   19.9950 N   0  0  0  0  0  0  0  0  0  0  0  0
  -26.2740  -11.9600   20.2790 N   0  0  0  0  0  0  0  0  0  0  0  0
  -24.1920  -10.8810   20.8340 C   0  0  0  0  0  0  0  0  0  0  0  0
  -24.5670   -9.9120   21.7910 C   0  0  0  0  0  3  0  0  0  0  0  0
  -23.7700   -8.7670   22.0000 C   0  0  0  0  0  3  0  0  0  0  0  0
  -22.5820   -8.5830   21.2520 C   0  0  0  0  0  0  0  0  0  0  0  0
  -22.2270   -9.5390   20.2840 C   0  0  0  0  0  3  0  0  0  0  0  0
  -23.0250  -10.6760   20.0740 C   0  0  0  0  0  3  0  0  0  0  0  0
  -21.7580   -7.4890   21.3680 O   0  0  0  0  0  0  0  0  0  0  0  0
  -21.6450   -6.7970   22.5470 C   0  0  0  0  0  0  0  0  0  0  0  0
  -21.2430   -7.4260   23.7460 C   0  0  0  0  0  3  0  0  0  0  0  0
  -21.0720   -6.6630   24.9190 C   0  0  0  0  0  3  0  0  0  0  0  0
  -21.2920   -5.2730   24.8940 C   0  0  0  0  0  0  0  0  0  0  0  0
  -21.6880   -4.6440   23.7000 C   0  0  0  0  0  3  0  0  0  0  0  0
  -21.8600   -5.4040   22.5290 C   0  0  0  0  0  0  0  0  0  0  0  0
  -22.2200   -4.7890   21.3770 F   0  0  0  0  0  0  0  0  0  0  0  0
  -21.1210   -4.5390   26.0170 F   0  0  0  0  0  0  0  0  0  0  0  0
  -23.2670  -14.0410   20.9210 C   0  0  0  0  0  0  0  0  0  0  0  0
  -22.5180  -13.4130   21.8220 N   0  0  0  0  0  0  0  0  0  0  0  0
  -22.8800  -15.0810   20.3880 O   0  0  0  0  0  0  0  0  0  0  0  0
  -22.8420  -12.5720   22.2750 H   0  0  0  0  0  0  0  0  0  0  0  0
  -21.6070  -13.7800   22.0620 H   0  0  0  0  0  0  0  0  0  0  0  0
  -25.9850  -15.5180   20.0260 N   0  0  0  0  0  0  0  0  0  0  0  0
  -25.2650  -16.2250   20.1360 H   0  0  0  0  0  0  0  0  0  0  0  0
  -26.8570  -15.8940   19.6750 H   0  0  0  0  0  0  0  0  0  0  0  0
  -29.0710  -26.7250   21.2560 C   0  0  0  0  0  2  0  0  0  0  0  0
  -28.4200  -27.0490   20.0320 O   0  0  0  0  0  0  0  0  0  0  0  0
  -24.5030  -31.9990   23.3470 C   0  0  0  0  0  0  0  0  0  0  0  0
  -27.2480  -27.7530   20.1250 C   0  0  0  0  0  0  0  0  0  0  0  0
  -23.3220  -30.6210   21.6630 C   0  0  0  0  0  3  0  0  0  0  0  0
  -24.8090  -29.1610   20.1900 C   0  0  0  0  0  0  0  0  0  0  0  0
  -25.8310  -31.0570   21.4640 C   0  0  0  0  0  2  0  0  0  0  0  0
  -25.9490  -29.7050   20.7950 C   0  0  0  0  0  0  0  0  0  0  0  0
  -27.1720  -29.0050   20.7710 C   0  0  0  0  0  3  0  0  0  0  0  0
  -26.1010  -27.2180   19.5070 C   0  0  0  0  0  3  0  0  0  0  0  0
  -24.8770  -27.9110   19.5460 C   0  0  0  0  0  3  0  0  0  0  0  0
  -23.5420  -29.9830   20.2630 C   0  0  0  0  0  2  0  0  0  0  0  0
  -24.5690  -31.2390   22.2180 N   0  0  0  0  0  0  0  0  0  0  0  0
  -23.4180  -32.2300   23.8990 O   0  0  0  0  0  0  0  0  0  0  0  0
  -22.7000  -29.5560   22.5930 C   0  0  0  0  0  0  0  0  0  0  0  0
  -21.3880  -29.3190   22.4340 N   0  0  0  0  0  0  0  0  0  0  0  0
  -23.3950  -28.9470   23.4110 O   0  0  0  0  0  0  0  0  0  0  0  0
  -20.8900  -29.8670   21.7480 H   0  0  0  0  0  0  0  0  0  0  0  0
  -18.0690  -27.9380   22.7940 C   0  0  0  0  0  0  0  0  0  0  0  0
  -20.5960  -28.3320   23.1680 C   0  0  0  0  0  3  0  0  0  0  0  0
  -20.7980  -26.9120   22.5890 C   0  0  0  0  0  2  0  0  0  0  0  0
  -19.7550  -26.5360   21.5310 C   0  0  0  0  0  2  0  0  0  0  0  0
  -18.3440  -26.6040   22.1220 C   0  0  0  0  0  2  0  0  0  0  0  0
  -19.1280  -28.7560   23.2700 C   0  0  0  0  0  0  0  0  0  0  0  0
  -18.8180  -30.0040   23.8540 C   0  0  0  0  0  3  0  0  0  0  0  0
  -17.4830  -30.4350   23.9690 C   0  0  0  0  0  3  0  0  0  0  0  0
  -16.4390  -29.6130   23.5110 C   0  0  0  0  0  3  0  0  0  0  0  0
  -16.7320  -28.3670   22.9280 C   0  0  0  0  0  3  0  0  0  0  0  0
  -25.7780  -32.6360   23.9830 C   0  0  0  0  0  3  0  0  0  0  0  0
  -25.4590  -34.0310   24.3080 N   0  0  0  0  0  0  0  0  0  0  0  0
  -25.7990  -35.0830   23.5510 C   0  0  0  0  0  0  0  0  0  0  0  0
  -26.4860  -34.9820   22.5310 O   0  0  0  0  0  0  0  0  0  0  0  0
  -24.8480  -34.1850   25.0960 H   0  0  0  0  0  0  0  0  0  0  0  0
  -24.0620  -36.8610   23.1720 C   0  0  0  0  0  1  0  0  0  0  0  0
  -25.2970  -36.4700   23.9980 C   0  0  0  0  0  3  0  0  0  0  0  0
  -27.4210  -37.3680   24.8410 C   0  0  0  0  0  1  0  0  0  0  0  0
  -26.3220  -37.5300   23.8910 N   0  0  0  0  0  0  0  0  0  0  0  0
  -25.9100  -38.4470   24.0380 H   0  0  0  0  0  0  0  0  0  0  0  0
  -26.2870  -31.8650   25.2620 C   0  0  1  0  0  0  0  0  0  0  0  0
  -25.1830  -31.6110   26.3170 C   0  0  0  0  0  1  0  0  0  0  0  0
  -26.8910  -30.4970   24.8690 C   0  0  0  0  0  1  0  0  0  0  0  0
  -27.4210  -32.6690   25.9410 C   0  0  0  0  0  1  0  0  0  0  0  0
  1  3  1  0
  2  4  1  0
  3  7  1  0
  4  3  2  0
  5  2  2  0
  5  6  1  0
  6  1  2  0
  9  8  1  0
  9  5  1  0
 10  4  1  0
 10 11  1  0
 12 11  1  0
 13 12  1  0
 13 14  1  0
 15 13  1  0
 16 13  1  0
 17 16  1  0
 18 17  1  0
 19 24  1  0
 20 21  1  0
 20 19  1  0
 22 21  1  0
 22 29  1  0
 22 23  1  0
 24 18  1  0
 24 23  1  0
 25 18  2  0
 26 27  2  0
 27 46  1  0
 28 27  1  0
 28 31  1  0
 29 26  1  0
 29 30  1  0
 30 28  2  0
 31 32  1  0
 32 33  2  0
 34 37  1  0
 34 33  1  0
 35 34  2  0
 36 35  1  0
 36 31  2  0
 37 38  1  0
 38 39  1  0
 39 40  2  0
 41 40  1  0
 41 45  1  0
 42 41  2  0
 43 38  2  0
 43 42  1  0
 44 43  1  0
 46 47  1  0
 47 50  1  0
 47 49  1  0
 48 46  2  0
 51 52  1  0
 51 26  1  0
 53 51  1  0
 54  6  1  0
 55 57  1  0
 55 54  1  0
 56 67  2  0
 57 62  1  0
 58 66  1  0
 58 68  1  0
 59 65  1  0
 59 61  1  0
 60 66  1  0
 61 60  1  0
 62 61  2  0
 63 64  1  0
 63 57  2  0
 64 59  2  0
 65 58  1  0
 66 56  1  0
 68 70  2  0
 69 68  1  0
 71 69  1  0
 72 81  2  0
 72 77  1  0
 73 69  1  0
 73 77  1  0
 74 73  1  0
 75 76  1  0
 75 74  1  0
 76 72  1  0
 77 78  2  0
 78 79  1  0
 80 79  2  0
 81 80  1  0
 82 56  1  0
 82 83  1  0
 82 92  1  0
 83 86  1  0
 84 88  1  0
 84 83  1  0
 85 84  2  0
 88 87  1  0
 90 88  1  0
 90 91  1  0
 90 89  1  0
 92 95  1  1
 92 93  1  0
 94 92  1  0
M  ISO  4  17 100  18 100  54 101  55 101
M  END
>  <TORSDO>  (82) 
F 24

>  <SCORE>  (82) 
-10.281

>  <name>  (82) 
81

>  <ligand_id>  (82) 
81

>  <original_smiles>  (82) 
[H]c1c([H])c([H])c2c(c1[H])C([H])([H])C([H])([H])C([H])([H])C2([H])N([H])C(=O)C1([H])N(C(=O)C([H])(N([H])C(=O)C([H])(N([H])C([H])([H])[H])C([H])([H])[H])C(C([H])([H])[H])(C([H])([H])[H])C([H])([H])[H])C([H])([H])c2c([H])c(OC([H])([H])c3c([H])c(C([H])([H])[H])c(C([H])([H])C([H])([H])C([H])([H])[N+]([H])([H])C([H])([H])C([H])([H])C(=O)N4C([H])([H])C([H])([H])C([H])([H])C([H])(n5nc(-c6c([H])c([H])c(Oc7c([H])c([H])c(F)c([H])c7F)c([H])c6[H])c(C(=O)N([H])[H])c5N([H])[H])C4([H])[H])c([H])c3C([H])([H])C([H])([H])[H])c([H])c([H])c2C1([H])[H]

>  <smiles>  (82) 
[H]c1c([H])c([H])c2c(c1[H])C([H])([H])C([H])([H])C([H])([H])C2([H])N([H])C(=O)C1([H])N(C(=O)C([H])(N([H])C(=O)C([H])(N([H])C([H])([H])[H])C([H])([H])[H])C(C([H])([H])[H])(C([H])([H])[H])C([H])([H])[H])C([H])([H])c2c([H])c(OC([H])([H])c3c([H])c(C([H])([H])[H])c(C([H])([H])C([H])([H])C([H])([H])[N+]([H])([H])C([H])([H])C([H])([H])C(=O)N4C([H])([H])C([H])([H])C([H])([H])C([H])(n5nc(-c6c([H])c([H])c(Oc7c([H])c([H])c(F)c([H])c7F)c([H])c6[H])c(C(=O)N([H])[H])c5N([H])[H])C4([H])[H])c([H])c3C([H])([H])C([H])([H])[H])c([H])c([H])c2C1([H])[H]

$$$$
82:0:0
     RDKit          3D

 92100  0  0  1  0  0  0  0  0999 V2000
  -26.3730  -23.0180   21.4280 C   0  0  0  0  0  3  0  0  0  0  0  0
  -27.2670  -21.9330   21.4130 C   0  0  0  0  0  3  0  0  0  0  0  0
  -26.8580  -24.3310   21.3140 C   0  0  0  0  0  3  0  0  0  0  0  0
  -29.1290  -23.4680   21.0850 C   0  0  0  0  0  3  0  0  0  0  0  0
  -28.6530  -22.1350   21.2420 C   0  0  0  0  0  0  0  0  0  0  0  0
  -28.2350  -24.5770   21.1420 C   0  0  0  0  0  0  0  0  0  0  0  0
  -29.6030  -20.9320   21.4270 C   0  0  0  0  0  2  0  0  0  0  0  0
  -28.5160  -19.8290   19.2980 C   0  0  0  0  0  1  0  0  0  0  0  0
  -29.6420  -19.7760   20.3570 C   0  0  0  0  0  3  0  0  0  0  0  0
  -29.7540  -18.4430   21.0410 N   0  0  0  0  0  4  0  0  0  0  0  0
  -30.4670  -18.5470   21.7460 H   0  0  0  0  0  0  0  0  0  0  0  0
  -28.8850  -18.2620   21.5200 H   0  0  0  0  0  0  0  0  0  0  0  0
  -30.1170  -17.2260   20.2490 C   0  0  0  0  0  2  0  0  0  0  0  0
  -30.1130  -15.9290   21.1290 C   0  0  0  0  0  2  0  0  0  0  0  0
  -30.7900  -14.6880   20.4770 C   0  0  0  0  0  0  0  0  0  0  0  0
  -30.5390  -12.5040   19.3440 C   0  0  0  0  0  2  0  0  0  0  0  0
  -29.6120  -12.6850   18.1240 C   0  0  0  0  0  2  0  0  0  0  0  0
  -28.1270  -12.5570   18.5240 C   0  0  0  0  0  2  0  0  0  0  0  0
  -27.7710  -13.3910   19.7860 C   0  0  0  0  0  3  0  0  0  0  0  0
  -28.8150  -13.1710   20.9070 C   0  0  0  0  0  2  0  0  0  0  0  0
  -30.1390  -13.4950   20.3570 N   0  0  0  0  0  0  0  0  0  0  0  0
  -31.9160  -14.8500   20.0010 O   0  0  0  0  0  0  0  0  0  0  0  0
  -25.3560  -14.0010   20.4370 C   0  0  0  0  0  0  0  0  0  0  0  0
  -24.2820  -13.2330   20.7970 C   0  0  0  0  0  0  0  0  0  0  0  0
  -24.7450  -11.8820   20.7980 C   0  0  0  0  0  0  0  0  0  0  0  0
  -26.4090  -13.1180   20.2430 N   0  0  0  0  0  0  0  0  0  0  0  0
  -26.0420  -11.8390   20.5170 N   0  0  0  0  0  0  0  0  0  0  0  0
  -24.0160  -10.6220   20.9960 C   0  0  0  0  0  0  0  0  0  0  0  0
  -24.4400   -9.6690   21.9480 C   0  0  0  0  0  3  0  0  0  0  0  0
  -23.7140   -8.4710   22.1340 C   0  0  0  0  0  3  0  0  0  0  0  0
  -22.5520   -8.2200   21.3680 C   0  0  0  0  0  0  0  0  0  0  0  0
  -22.1480   -9.1610   20.4050 C   0  0  0  0  0  3  0  0  0  0  0  0
  -22.8740  -10.3490   20.2160 C   0  0  0  0  0  3  0  0  0  0  0  0
  -21.8010   -7.0720   21.4600 O   0  0  0  0  0  0  0  0  0  0  0  0
  -21.7400   -6.3430   22.6190 C   0  0  0  0  0  0  0  0  0  0  0  0
  -21.3100   -6.9120   23.8370 C   0  0  0  0  0  3  0  0  0  0  0  0
  -21.1970   -6.1080   24.9890 C   0  0  0  0  0  3  0  0  0  0  0  0
  -21.5030   -4.7360   24.9250 C   0  0  0  0  0  0  0  0  0  0  0  0
  -21.9270   -4.1660   23.7120 C   0  0  0  0  0  3  0  0  0  0  0  0
  -22.0430   -4.9660   22.5610 C   0  0  0  0  0  0  0  0  0  0  0  0
  -22.4300   -4.4070   21.3900 F   0  0  0  0  0  0  0  0  0  0  0  0
  -21.3880   -3.9620   26.0290 F   0  0  0  0  0  0  0  0  0  0  0  0
  -22.8780  -13.7110   21.0340 C   0  0  0  0  0  0  0  0  0  0  0  0
  -22.1360  -13.0300   21.8990 N   0  0  0  0  0  0  0  0  0  0  0  0
  -22.4460  -14.7230   20.4830 O   0  0  0  0  0  0  0  0  0  0  0  0
  -22.4980  -12.2120   22.3670 H   0  0  0  0  0  0  0  0  0  0  0  0
  -21.1920  -13.3300   22.0950 H   0  0  0  0  0  0  0  0  0  0  0  0
  -25.5220  -15.3680   20.2350 N   0  0  0  0  0  0  0  0  0  0  0  0
  -24.7440  -16.0160   20.2970 H   0  0  0  0  0  0  0  0  0  0  0  0
  -26.3650  -15.7980   19.8750 H   0  0  0  0  0  0  0  0  0  0  0  0
  -28.7350  -26.0300   21.1460 C   0  0  0  0  0  2  0  0  0  0  0  0
  -28.3570  -26.8200   20.0090 O   0  0  0  0  0  0  0  0  0  0  0  0
  -24.5710  -31.9780   23.2480 C   0  0  0  0  0  0  0  0  0  0  0  0
  -27.1940  -27.5560   20.1100 C   0  0  0  0  0  0  0  0  0  0  0  0
  -23.3500  -30.5790   21.6130 C   0  0  0  0  0  3  0  0  0  0  0  0
  -24.7930  -29.0490   20.1650 C   0  0  0  0  0  0  0  0  0  0  0  0
  -25.8700  -30.9450   21.3860 C   0  0  0  0  0  2  0  0  0  0  0  0
  -25.9530  -29.5730   20.7490 C   0  0  0  0  0  0  0  0  0  0  0  0
  -27.1600  -28.8310   20.7250 C   0  0  0  0  0  3  0  0  0  0  0  0
  -26.0250  -27.0590   19.5050 C   0  0  0  0  0  3  0  0  0  0  0  0
  -24.8230  -27.7890   19.5390 C   0  0  0  0  0  3  0  0  0  0  0  0
  -23.5460  -29.9000   20.2280 C   0  0  0  0  0  2  0  0  0  0  0  0
  -24.6160  -31.1840   22.1410 N   0  0  0  0  0  0  0  0  0  0  0  0
  -23.4970  -32.2420   23.8060 O   0  0  0  0  0  0  0  0  0  0  0  0
  -22.7140  -29.5510   22.5790 C   0  0  0  0  0  0  0  0  0  0  0  0
  -21.3910  -29.3610   22.4650 N   0  0  0  0  0  0  0  0  0  0  0  0
  -23.4110  -28.9310   23.3860 O   0  0  0  0  0  0  0  0  0  0  0  0
  -20.8920  -29.9180   21.7860 H   0  0  0  0  0  0  0  0  0  0  0  0
  -18.0340  -28.1230   22.9710 C   0  0  0  0  0  0  0  0  0  0  0  0
  -20.5890  -28.4140   23.2400 C   0  0  0  0  0  3  0  0  0  0  0  0
  -20.7110  -26.9840   22.6660 C   0  0  0  0  0  2  0  0  0  0  0  0
  -19.6110  -26.6430   21.6550 C   0  0  0  0  0  2  0  0  0  0  0  0
  -18.2280  -26.7720   22.3000 C   0  0  0  0  0  2  0  0  0  0  0  0
  -19.1430  -28.8990   23.3970 C   0  0  0  0  0  0  0  0  0  0  0  0
  -18.9100  -30.1600   23.9870 C   0  0  0  0  0  3  0  0  0  0  0  0
  -17.5990  -30.6470   24.1520 C   0  0  0  0  0  3  0  0  0  0  0  0
  -16.5050  -29.8670   23.7430 C   0  0  0  0  0  3  0  0  0  0  0  0
  -16.7230  -28.6070   23.1570 C   0  0  0  0  0  3  0  0  0  0  0  0
  -25.8640  -32.6100   23.8530 C   0  0  0  0  0  3  0  0  0  0  0  0
  -25.5590  -34.0080   24.1830 N   0  0  0  0  0  0  0  0  0  0  0  0
  -25.8940  -35.0590   23.4230 C   0  0  0  0  0  0  0  0  0  0  0  0
  -26.5620  -34.9540   22.3900 O   0  0  0  0  0  0  0  0  0  0  0  0
  -24.9700  -34.1650   24.9860 H   0  0  0  0  0  0  0  0  0  0  0  0
  -24.1740  -36.8610   23.0680 C   0  0  0  0  0  1  0  0  0  0  0  0
  -25.4110  -36.4500   23.8810 C   0  0  0  0  0  3  0  0  0  0  0  0
  -27.5490  -37.3260   24.7130 C   0  0  0  0  0  1  0  0  0  0  0  0
  -26.4480  -37.4970   23.7690 N   0  0  0  0  0  0  0  0  0  0  0  0
  -26.0480  -38.4200   23.9160 H   0  0  0  0  0  0  0  0  0  0  0  0
  -26.3940  -31.8410   25.1250 C   0  0  1  0  0  0  0  0  0  0  0  0
  -25.3170  -31.6060   26.2100 C   0  0  0  0  0  1  0  0  0  0  0  0
  -26.9700  -30.4630   24.7230 C   0  0  0  0  0  1  0  0  0  0  0  0
  -27.5520  -32.6400   25.7720 C   0  0  0  0  0  1  0  0  0  0  0  0
  2  1  1  0
  3  1  2  0
  4  6  2  0
  4  5  1  0
  5  2  2  0
  5  7  1  0
  6 51  1  0
  6  3  1  0
  9  8  1  0
  9 10  1  0
  9  7  1  0
 10 12  1  0
 10 11  1  0
 13 10  1  0
 13 14  1  0
 15 14  1  0
 16 21  1  0
 17 18  1  0
 17 16  1  0
 19 18  1  0
 19 26  1  0
 19 20  1  0
 21 15  1  0
 21 20  1  0
 22 15  2  0
 23 24  2  0
 24 25  1  0
 24 43  1  0
 25 28  1  0
 26 23  1  0
 26 27  1  0
 27 25  2  0
 28 29  1  0
 29 30  2  0
 31 34  1  0
 31 30  1  0
 32 31  2  0
 33 32  1  0
 33 28  2  0
 34 35  1  0
 35 36  1  0
 36 37  2  0
 38 37  1  0
 38 42  1  0
 39 38  2  0
 40 35  2  0
 40 39  1  0
 41 40  1  0
 43 44  1  0
 44 47  1  0
 44 46  1  0
 45 43  2  0
 48 49  1  0
 48 23  1  0
 50 48  1  0
 52 54  1  0
 52 51  1  0
 53 64  2  0
 54 59  1  0
 55 63  1  0
 55 65  1  0
 56 62  1  0
 56 58  1  0
 57 63  1  0
 58 57  1  0
 59 58  2  0
 60 61  1  0
 60 54  2  0
 61 56  2  0
 62 55  1  0
 63 53  1  0
 65 67  2  0
 66 65  1  0
 68 66  1  0
 69 78  2  0
 69 74  1  0
 70 66  1  0
 70 74  1  0
 71 70  1  0
 72 73  1  0
 72 71  1  0
 73 69  1  0
 74 75  2  0
 75 76  1  0
 77 76  2  0
 78 77  1  0
 79 53  1  0
 79 80  1  0
 79 89  1  0
 80 83  1  0
 81 85  1  0
 81 80  1  0
 82 81  2  0
 85 84  1  0
 87 85  1  0
 87 88  1  0
 87 86  1  0
 89 92  1  1
 89 90  1  0
 91 89  1  0
M  ISO  4  14 100  15 100  51 101  52 101
M  END
>  <TORSDO>  (83) 
F 22

>  <SCORE>  (83) 
-13.023

>  <name>  (83) 
82

>  <ligand_id>  (83) 
82

>  <original_smiles>  (83) 
[H]c1c([H])c([H])c2c(c1[H])C([H])([H])C([H])([H])C([H])([H])C2([H])N([H])C(=O)C1([H])N(C(=O)C([H])(N([H])C(=O)C([H])(N([H])C([H])([H])[H])C([H])([H])[H])C(C([H])([H])[H])(C([H])([H])[H])C([H])([H])[H])C([H])([H])c2c([H])c(OC([H])([H])c3c([H])c([H])c([H])c(C([H])([H])C([H])(C([H])([H])[H])[N+]([H])([H])C([H])([H])C([H])([H])C(=O)N4C([H])([H])C([H])([H])C([H])([H])C([H])(n5nc(-c6c([H])c([H])c(Oc7c([H])c([H])c(F)c([H])c7F)c([H])c6[H])c(C(=O)N([H])[H])c5N([H])[H])C4([H])[H])c3[H])c([H])c([H])c2C1([H])[H]

>  <smiles>  (83) 
[H]c1c([H])c([H])c2c(c1[H])C([H])([H])C([H])([H])C([H])([H])C2([H])N([H])C(=O)C1([H])N(C(=O)C([H])(N([H])C(=O)C([H])(N([H])C([H])([H])[H])C([H])([H])[H])C(C([H])([H])[H])(C([H])([H])[H])C([H])([H])[H])C([H])([H])c2c([H])c(OC([H])([H])c3c([H])c([H])c([H])c(C([H])([H])C([H])(C([H])([H])[H])[N+]([H])([H])C([H])([H])C([H])([H])C(=O)N4C([H])([H])C([H])([H])C([H])([H])C([H])(n5nc(-c6c([H])c([H])c(Oc7c([H])c([H])c(F)c([H])c7F)c([H])c6[H])c(C(=O)N([H])[H])c5N([H])[H])C4([H])[H])c3[H])c([H])c([H])c2C1([H])[H]

$$$$
83:0:0
     RDKit          3D

 94102  0  0  1  0  0  0  0  0999 V2000
  -28.7630  -24.8490   16.4090 C   0  0  0  0  0  3  0  0  0  0  0  0
  -29.1930  -23.5100   16.3700 C   0  0  0  0  0  3  0  0  0  0  0  0
  -28.5330  -25.4750   17.6460 C   0  0  0  0  0  3  0  0  0  0  0  0
  -29.1700  -23.4280   18.8050 C   0  0  0  0  0  3  0  0  0  0  0  0
  -29.4070  -22.7920   17.5670 C   0  0  0  0  0  0  0  0  0  0  0  0
  -28.7300  -24.7660   18.8490 C   0  0  0  0  0  0  0  0  0  0  0  0
  -29.7880  -21.3430   17.5110 C   0  0  0  0  0  0  0  0  0  0  0  0
  -30.5790  -20.9010   18.4990 N   0  0  0  0  0  0  0  0  0  0  0  0
  -29.3920  -20.6290   16.5870 O   0  0  0  0  0  0  0  0  0  0  0  0
  -30.9300  -21.5830   19.1590 H   0  0  0  0  0  0  0  0  0  0  0  0
  -30.9470  -19.5050   18.6960 C   0  0  0  0  0  2  0  0  0  0  0  0
  -30.5590  -18.9800   20.0920 C   0  0  0  0  0  2  0  0  0  0  0  0
  -30.5530  -17.4450   20.0640 C   0  0  0  0  0  2  0  0  0  0  0  0
  -30.5530  -16.7410   21.4350 C   0  0  0  0  0  2  0  0  0  0  0  0
  -30.7460  -14.3980   20.5780 C   0  0  0  0  0  0  0  0  0  0  0  0
  -30.3830  -12.3040   19.3340 C   0  0  0  0  0  2  0  0  0  0  0  0
  -29.4450  -12.5430   18.1330 C   0  0  0  0  0  2  0  0  0  0  0  0
  -27.9690  -12.4320   18.5610 C   0  0  0  0  0  2  0  0  0  0  0  0
  -27.6440  -13.2620   19.8330 C   0  0  0  0  0  3  0  0  0  0  0  0
  -28.6870  -12.9870   20.9410 C   0  0  0  0  0  2  0  0  0  0  0  0
  -30.0270  -13.2630   20.3920 N   0  0  0  0  0  0  0  0  0  0  0  0
  -31.8380  -14.6070   20.0450 O   0  0  0  0  0  0  0  0  0  0  0  0
  -30.1340  -15.3440   21.3040 N   0  0  0  0  0  0  0  0  0  0  0  0
  -29.2390  -15.0930   21.6990 H   0  0  0  0  0  0  0  0  0  0  0  0
  -25.2410  -13.9040   20.5060 C   0  0  0  0  0  0  0  0  0  0  0  0
  -24.1590  -13.1460   20.8710 C   0  0  0  0  0  0  0  0  0  0  0  0
  -24.6080  -11.7900   20.8580 C   0  0  0  0  0  0  0  0  0  0  0  0
  -26.2810  -13.0100   20.2970 N   0  0  0  0  0  0  0  0  0  0  0  0
  -25.9010  -11.7340   20.5660 N   0  0  0  0  0  0  0  0  0  0  0  0
  -23.8680  -10.5370   21.0520 C   0  0  0  0  0  0  0  0  0  0  0  0
  -24.2940   -9.5630   21.9840 C   0  0  0  0  0  3  0  0  0  0  0  0
  -23.5560   -8.3740   22.1660 C   0  0  0  0  0  3  0  0  0  0  0  0
  -22.3770   -8.1490   21.4160 C   0  0  0  0  0  0  0  0  0  0  0  0
  -21.9690   -9.1100   20.4750 C   0  0  0  0  0  3  0  0  0  0  0  0
  -22.7080  -10.2910   20.2900 C   0  0  0  0  0  3  0  0  0  0  0  0
  -21.6100   -7.0110   21.5050 O   0  0  0  0  0  0  0  0  0  0  0  0
  -21.5710   -6.2570   22.6510 C   0  0  0  0  0  0  0  0  0  0  0  0
  -21.1880   -6.8090   23.8920 C   0  0  0  0  0  3  0  0  0  0  0  0
  -21.0930   -5.9860   25.0310 C   0  0  0  0  0  3  0  0  0  0  0  0
  -21.3720   -4.6090   24.9300 C   0  0  0  0  0  0  0  0  0  0  0  0
  -21.7470   -4.0560   23.6930 C   0  0  0  0  0  3  0  0  0  0  0  0
  -21.8440   -4.8780   22.5560 C   0  0  0  0  0  0  0  0  0  0  0  0
  -22.1870   -4.3360   21.3620 F   0  0  0  0  0  0  0  0  0  0  0  0
  -21.2750   -3.8150   26.0210 F   0  0  0  0  0  0  0  0  0  0  0  0
  -22.7640  -13.6410   21.1220 C   0  0  0  0  0  0  0  0  0  0  0  0
  -22.0160  -12.9640   21.9890 N   0  0  0  0  0  0  0  0  0  0  0  0
  -22.3410  -14.6630   20.5840 O   0  0  0  0  0  0  0  0  0  0  0  0
  -22.3640  -12.1370   22.4490 H   0  0  0  0  0  0  0  0  0  0  0  0
  -21.0800  -13.2840   22.1940 H   0  0  0  0  0  0  0  0  0  0  0  0
  -25.4160  -15.2720   20.3150 N   0  0  0  0  0  0  0  0  0  0  0  0
  -24.6560  -15.9340   20.4180 H   0  0  0  0  0  0  0  0  0  0  0  0
  -26.2720  -15.7030   19.9850 H   0  0  0  0  0  0  0  0  0  0  0  0
  -28.4490  -25.4070   20.1950 C   0  0  0  0  0  2  0  0  0  0  0  0
  -28.4240  -26.8270   20.1480 O   0  0  0  0  0  0  0  0  0  0  0  0
  -24.5800  -31.8740   23.2230 C   0  0  0  0  0  0  0  0  0  0  0  0
  -27.2110  -27.4710   20.1330 C   0  0  0  0  0  0  0  0  0  0  0  0
  -23.3570  -30.4760   21.5850 C   0  0  0  0  0  3  0  0  0  0  0  0
  -24.8000  -28.9380   20.1550 C   0  0  0  0  0  0  0  0  0  0  0  0
  -25.8730  -30.8520   21.3590 C   0  0  0  0  0  2  0  0  0  0  0  0
  -25.9560  -29.4830   20.7220 C   0  0  0  0  0  0  0  0  0  0  0  0
  -27.1630  -28.7590   20.7020 C   0  0  0  0  0  3  0  0  0  0  0  0
  -26.0340  -26.9220   19.5710 C   0  0  0  0  0  3  0  0  0  0  0  0
  -24.8310  -27.6540   19.5780 C   0  0  0  0  0  3  0  0  0  0  0  0
  -23.5530  -29.7910   20.2050 C   0  0  0  0  0  2  0  0  0  0  0  0
  -24.6230  -31.0810   22.1150 N   0  0  0  0  0  0  0  0  0  0  0  0
  -23.5050  -32.1450   23.7740 O   0  0  0  0  0  0  0  0  0  0  0  0
  -22.7160  -29.4540   22.5510 C   0  0  0  0  0  0  0  0  0  0  0  0
  -21.3900  -29.2730   22.4330 N   0  0  0  0  0  0  0  0  0  0  0  0
  -23.4060  -28.8280   23.3590 O   0  0  0  0  0  0  0  0  0  0  0  0
  -20.8970  -29.8260   21.7470 H   0  0  0  0  0  0  0  0  0  0  0  0
  -18.0210  -28.0800   22.9430 C   0  0  0  0  0  0  0  0  0  0  0  0
  -20.5800  -28.3360   23.2080 C   0  0  0  0  0  3  0  0  0  0  0  0
  -20.6800  -26.9060   22.6310 C   0  0  0  0  0  2  0  0  0  0  0  0
  -19.5740  -26.5830   21.6220 C   0  0  0  0  0  2  0  0  0  0  0  0
  -18.1950  -26.7290   22.2700 C   0  0  0  0  0  2  0  0  0  0  0  0
  -19.1410  -28.8410   23.3700 C   0  0  0  0  0  0  0  0  0  0  0  0
  -18.9250  -30.1070   23.9600 C   0  0  0  0  0  3  0  0  0  0  0  0
  -17.6210  -30.6100   24.1270 C   0  0  0  0  0  3  0  0  0  0  0  0
  -16.5150  -29.8440   23.7160 C   0  0  0  0  0  3  0  0  0  0  0  0
  -16.7160  -28.5810   23.1300 C   0  0  0  0  0  3  0  0  0  0  0  0
  -25.8750  -32.4990   23.8330 C   0  0  0  0  0  3  0  0  0  0  0  0
  -25.5700  -33.8940   24.1750 N   0  0  0  0  0  0  0  0  0  0  0  0
  -25.9010  -34.9500   23.4200 C   0  0  0  0  0  0  0  0  0  0  0  0
  -26.5670  -34.8520   22.3850 O   0  0  0  0  0  0  0  0  0  0  0  0
  -24.9800  -34.0440   24.9790 H   0  0  0  0  0  0  0  0  0  0  0  0
  -24.1770  -36.7470   23.0810 C   0  0  0  0  0  1  0  0  0  0  0  0
  -25.4180  -36.3350   23.8880 C   0  0  0  0  0  3  0  0  0  0  0  0
  -27.5570  -37.2080   24.7210 C   0  0  0  0  0  1  0  0  0  0  0  0
  -26.4520  -37.3870   23.7820 N   0  0  0  0  0  0  0  0  0  0  0  0
  -26.0470  -38.3070   23.9380 H   0  0  0  0  0  0  0  0  0  0  0  0
  -26.4110  -31.7160   25.0950 C   0  0  1  0  0  0  0  0  0  0  0  0
  -25.3330  -31.4700   26.1750 C   0  0  0  0  0  1  0  0  0  0  0  0
  -26.9860  -30.3420   24.6790 C   0  0  0  0  0  1  0  0  0  0  0  0
  -27.5710  -32.5060   25.7470 C   0  0  0  0  0  1  0  0  0  0  0  0
  1  3  1  0
  2  1  2  0
  2  5  1  0
  3  6  2  0
  4  6  1  0
  5  4  2  0
  6 53  1  0
  7  5  1  0
  7  8  1  0
  8 11  1  0
  8 10  1  0
  9  7  2  0
 11 12  1  0
 13 12  1  0
 13 14  1  0
 15 23  1  0
 16 21  1  0
 17 18  1  0
 17 16  1  0
 19 18  1  0
 19 28  1  0
 19 20  1  0
 21 15  1  0
 21 20  1  0
 22 15  2  0
 23 14  1  0
 23 24  1  0
 25 26  2  0
 26 45  1  0
 27 26  1  0
 27 30  1  0
 28 25  1  0
 28 29  1  0
 29 27  2  0
 30 31  1  0
 31 32  2  0
 33 36  1  0
 33 32  1  0
 34 33  2  0
 35 34  1  0
 35 30  2  0
 36 37  1  0
 37 38  1  0
 38 39  2  0
 40 39  1  0
 40 44  1  0
 41 40  2  0
 42 37  2  0
 42 41  1  0
 43 42  1  0
 45 46  1  0
 46 49  1  0
 46 48  1  0
 47 45  2  0
 50 51  1  0
 50 25  1  0
 52 50  1  0
 54 53  1  0
 55 66  2  0
 56 54  1  0
 56 61  1  0
 57 65  1  0
 57 67  1  0
 58 64  1  0
 58 60  1  0
 59 65  1  0
 60 59  1  0
 61 60  2  0
 62 63  1  0
 62 56  2  0
 63 58  2  0
 64 57  1  0
 65 55  1  0
 67 69  2  0
 68 67  1  0
 70 68  1  0
 71 80  2  0
 71 76  1  0
 72 68  1  0
 72 76  1  0
 73 72  1  0
 74 75  1  0
 74 73  1  0
 75 71  1  0
 76 77  2  0
 77 78  1  0
 79 78  2  0
 80 79  1  0
 81 55  1  0
 81 82  1  0
 81 91  1  0
 82 85  1  0
 83 87  1  0
 83 82  1  0
 84 83  2  0
 87 86  1  0
 89 87  1  0
 89 90  1  0
 89 88  1  0
 91 94  1  1
 91 92  1  0
 93 91  1  0
M  ISO  4  15 100  23 100  53 101  54 101
M  END
>  <TORSDO>  (84) 
F 22

>  <SCORE>  (84) 
-12.977

>  <name>  (84) 
83

>  <ligand_id>  (84) 
83

>  <original_smiles>  (84) 
[H]c1c([H])c(C(=O)N([H])C([H])([H])C([H])([H])C([H])([H])C([H])([H])N([H])C(=O)N2C([H])([H])C([H])([H])C([H])([H])C([H])(n3nc(-c4c([H])c([H])c(Oc5c([H])c([H])c(F)c([H])c5F)c([H])c4[H])c(C(=O)N([H])[H])c3N([H])[H])C2([H])[H])c([H])c(C([H])([H])Oc2c([H])c([H])c3c(c2[H])C([H])([H])N(C(=O)C([H])(N([H])C(=O)C([H])(N([H])C([H])([H])[H])C([H])([H])[H])C(C([H])([H])[H])(C([H])([H])[H])C([H])([H])[H])C([H])(C(=O)N([H])C2([H])c4c([H])c([H])c([H])c([H])c4C([H])([H])C([H])([H])C2([H])[H])C3([H])[H])c1[H]

>  <smiles>  (84) 
[H]c1c([H])c(C(=O)N([H])C([H])([H])C([H])([H])C([H])([H])C([H])([H])N([H])C(=O)N2C([H])([H])C([H])([H])C([H])([H])C([H])(n3nc(-c4c([H])c([H])c(Oc5c([H])c([H])c(F)c([H])c5F)c([H])c4[H])c(C(=O)N([H])[H])c3N([H])[H])C2([H])[H])c([H])c(C([H])([H])Oc2c([H])c([H])c3c(c2[H])C([H])([H])N(C(=O)C([H])(N([H])C(=O)C([H])(N([H])C([H])([H])[H])C([H])([H])[H])C(C([H])([H])[H])(C([H])([H])[H])C([H])([H])[H])C([H])(C(=O)N([H])C2([H])c4c([H])c([H])c([H])c([H])c4C([H])([H])C([H])([H])C2([H])[H])C3([H])[H])c1[H]

$$$$
84:0:0
     RDKit          3D

 88 96  0  0  1  0  0  0  0  0999 V2000
  -28.9350  -20.8150   21.0260 C   0  0  0  0  0  0  0  0  0  0  0  0
  -29.3090  -19.2150   21.1660 C   0  0  0  0  0  2  0  0  0  0  0  0
  -30.0710  -19.1970   18.8400 C   0  0  0  0  0  2  0  0  0  0  0  0
  -29.3570  -20.6760   18.6710 C   0  0  0  0  0  2  0  0  0  0  0  0
  -29.4350  -18.1960   19.9080 C   0  0  0  0  0  3  0  0  0  0  0  0
  -29.0200  -21.5880   19.8670 N   0  0  0  0  0  0  0  0  0  0  0  0
  -28.6100  -21.3700   22.0820 O   0  0  0  0  0  0  0  0  0  0  0  0
  -30.5100  -15.3990   19.8400 C   0  0  0  0  0  0  0  0  0  0  0  0
  -30.4790  -12.9840   18.9550 C   0  0  0  0  0  2  0  0  0  0  0  0
  -29.4760  -12.8170   17.7870 C   0  0  0  0  0  2  0  0  0  0  0  0
  -28.0630  -12.5330   18.3270 C   0  0  0  0  0  2  0  0  0  0  0  0
  -27.6760  -13.4860   19.4850 C   0  0  0  0  0  3  0  0  0  0  0  0
  -28.7920  -13.5930   20.5460 C   0  0  0  0  0  2  0  0  0  0  0  0
  -29.9930  -14.0900   19.8490 N   0  0  0  0  0  0  0  0  0  0  0  0
  -31.6920  -15.4940   19.4840 O   0  0  0  0  0  0  0  0  0  0  0  0
  -29.6530  -16.5590   20.0440 N   0  0  0  0  0  0  0  0  0  0  0  0
  -28.7630  -16.1690   20.3200 H   0  0  0  0  0  0  0  0  0  0  0  0
  -25.3570  -14.0220   20.4240 C   0  0  0  0  0  0  0  0  0  0  0  0
  -24.3220  -13.2290   20.8340 C   0  0  0  0  0  0  0  0  0  0  0  0
  -24.7810  -11.8820   20.7100 C   0  0  0  0  0  0  0  0  0  0  0  0
  -26.3780  -13.1590   20.0660 N   0  0  0  0  0  0  0  0  0  0  0  0
  -26.0470  -11.8620   20.3030 N   0  0  0  0  0  0  0  0  0  0  0  0
  -24.0650  -10.6120   20.8980 C   0  0  0  0  0  0  0  0  0  0  0  0
  -24.4740   -9.6650   21.8620 C   0  0  0  0  0  3  0  0  0  0  0  0
  -23.7560   -8.4610   22.0290 C   0  0  0  0  0  3  0  0  0  0  0  0
  -22.6170   -8.1950   21.2320 C   0  0  0  0  0  0  0  0  0  0  0  0
  -22.2280   -9.1320   20.2610 C   0  0  0  0  0  3  0  0  0  0  0  0
  -22.9460  -10.3270   20.0910 C   0  0  0  0  0  3  0  0  0  0  0  0
  -21.8760   -7.0410   21.3140 O   0  0  0  0  0  0  0  0  0  0  0  0
  -21.6750   -6.3950   22.5080 C   0  0  0  0  0  0  0  0  0  0  0  0
  -21.0060   -7.0140   23.5860 C   0  0  0  0  0  3  0  0  0  0  0  0
  -20.7570   -6.2880   24.7700 C   0  0  0  0  0  3  0  0  0  0  0  0
  -21.1700   -4.9440   24.8730 C   0  0  0  0  0  0  0  0  0  0  0  0
  -21.8290   -4.3260   23.7970 C   0  0  0  0  0  3  0  0  0  0  0  0
  -22.0790   -5.0480   22.6180 C   0  0  0  0  0  0  0  0  0  0  0  0
  -22.6980   -4.4420   21.5760 F   0  0  0  0  0  0  0  0  0  0  0  0
  -20.9230   -4.2460   26.0050 F   0  0  0  0  0  0  0  0  0  0  0  0
  -22.9490  -13.6970   21.2220 C   0  0  0  0  0  0  0  0  0  0  0  0
  -22.2750  -12.9650   22.1020 N   0  0  0  0  0  0  0  0  0  0  0  0
  -22.4890  -14.7510   20.7830 O   0  0  0  0  0  0  0  0  0  0  0  0
  -22.6580  -12.1080   22.4780 H   0  0  0  0  0  0  0  0  0  0  0  0
  -21.3630  -13.2730   22.4100 H   0  0  0  0  0  0  0  0  0  0  0  0
  -25.5010  -15.4000   20.2990 N   0  0  0  0  0  0  0  0  0  0  0  0
  -24.7130  -16.0170   20.4690 H   0  0  0  0  0  0  0  0  0  0  0  0
  -26.2840  -15.8690   19.8620 H   0  0  0  0  0  0  0  0  0  0  0  0
  -29.0880  -23.2350   19.7350 C   0  0  0  0  0  3  0  0  0  0  0  0
  -27.9600  -24.5650   19.9780 C   0  0  0  0  0  3  0  0  0  0  0  0
  -28.1840  -26.1730   19.9100 O   0  0  0  0  0  0  0  0  0  0  0  0
  -24.6500  -31.9480   23.1640 C   0  0  0  0  0  0  0  0  0  0  0  0
  -27.1410  -27.2170   19.9330 C   0  0  0  0  0  0  0  0  0  0  0  0
  -23.4160  -30.5890   21.5250 C   0  0  0  0  0  3  0  0  0  0  0  0
  -24.8260  -29.0410   20.0210 C   0  0  0  0  0  0  0  0  0  0  0  0
  -25.9720  -30.8370   21.3030 C   0  0  0  0  0  2  0  0  0  0  0  0
  -26.0300  -29.4510   20.6050 C   0  0  0  0  0  0  0  0  0  0  0  0
  -27.1860  -28.5610   20.5340 C   0  0  0  0  0  3  0  0  0  0  0  0
  -25.9040  -26.9430   19.3120 C   0  0  0  0  0  3  0  0  0  0  0  0
  -24.7800  -27.8050   19.3590 C   0  0  0  0  0  3  0  0  0  0  0  0
  -23.6070  -29.9510   20.1230 C   0  0  0  0  0  2  0  0  0  0  0  0
  -24.7020  -31.1490   22.0520 N   0  0  0  0  0  0  0  0  0  0  0  0
  -23.5750  -32.2160   23.7250 O   0  0  0  0  0  0  0  0  0  0  0  0
  -22.7610  -29.5570   22.4790 C   0  0  0  0  0  0  0  0  0  0  0  0
  -21.4350  -29.3600   22.3660 N   0  0  0  0  0  0  0  0  0  0  0  0
  -23.4520  -28.9350   23.2910 O   0  0  0  0  0  0  0  0  0  0  0  0
  -20.9280  -29.9130   21.6890 H   0  0  0  0  0  0  0  0  0  0  0  0
  -18.0870  -28.0730   22.9040 C   0  0  0  0  0  0  0  0  0  0  0  0
  -20.6450  -28.3920   23.1340 C   0  0  0  0  0  3  0  0  0  0  0  0
  -20.7690  -26.9710   22.5370 C   0  0  0  0  0  2  0  0  0  0  0  0
  -19.6590  -26.6370   21.5350 C   0  0  0  0  0  2  0  0  0  0  0  0
  -18.2860  -26.7400   22.2020 C   0  0  0  0  0  2  0  0  0  0  0  0
  -19.1950  -28.8540   23.3290 C   0  0  0  0  0  0  0  0  0  0  0  0
  -18.9520  -30.0990   23.9510 C   0  0  0  0  0  3  0  0  0  0  0  0
  -17.6370  -30.5620   24.1470 C   0  0  0  0  0  3  0  0  0  0  0  0
  -16.5460  -29.7770   23.7340 C   0  0  0  0  0  3  0  0  0  0  0  0
  -16.7730  -28.5330   23.1200 C   0  0  0  0  0  3  0  0  0  0  0  0
  -25.9370  -32.5800   23.7750 C   0  0  0  0  0  3  0  0  0  0  0  0
  -25.6240  -33.9670   24.1590 N   0  0  0  0  0  0  0  0  0  0  0  0
  -25.8900  -35.0460   23.4080 C   0  0  0  0  0  0  0  0  0  0  0  0
  -26.4870  -34.9780   22.3330 O   0  0  0  0  0  0  0  0  0  0  0  0
  -25.0880  -34.0930   25.0040 H   0  0  0  0  0  0  0  0  0  0  0  0
  -24.1060  -36.8130   23.2420 C   0  0  0  0  0  1  0  0  0  0  0  0
  -25.4170  -36.4150   23.9380 C   0  0  0  0  0  3  0  0  0  0  0  0
  -27.5880  -37.3320   24.6270 C   0  0  0  0  0  1  0  0  0  0  0  0
  -26.4180  -37.4890   23.7660 N   0  0  0  0  0  0  0  0  0  0  0  0
  -26.0080  -38.3990   23.9580 H   0  0  0  0  0  0  0  0  0  0  0  0
  -26.4900  -31.7830   25.0210 C   0  0  1  0  0  0  0  0  0  0  0  0
  -25.4180  -31.4930   26.0970 C   0  0  0  0  0  1  0  0  0  0  0  0
  -27.0960  -30.4300   24.5860 C   0  0  0  0  0  1  0  0  0  0  0  0
  -27.6410  -32.5790   25.6840 C   0  0  0  0  0  1  0  0  0  0  0  0
  1  2  1  0
  1  7  2  0
  3  5  1  0
  4  3  1  0
  4  6  1  0
  5 16  1  0
  5  2  1  0
  6  1  1  0
  8 14  1  0
  8 16  1  0
  9 14  1  0
 10 11  1  0
 10  9  1  0
 12 11  1  0
 12 21  1  0
 12 13  1  0
 14 13  1  0
 15  8  2  0
 16 17  1  0
 18 19  2  0
 19 38  1  0
 20 19  1  0
 20 23  1  0
 21 22  1  0
 21 18  1  0
 22 20  2  0
 23 24  1  0
 24 25  2  0
 26 29  1  0
 26 25  1  0
 27 26  2  0
 28 27  1  0
 28 23  2  0
 29 30  1  0
 30 35  2  0
 30 31  1  0
 31 32  2  0
 32 33  1  0
 33 37  1  0
 34 33  2  0
 35 34  1  0
 36 35  1  0
 38 39  1  0
 39 42  1  0
 39 41  1  0
 40 38  2  0
 43 18  1  0
 43 44  1  0
 45 43  1  0
 46  6  1  0
 46 47  2  0
 48 50  1  0
 48 47  1  0
 49 60  2  0
 50 55  1  0
 51 59  1  0
 51 61  1  0
 52 58  1  0
 52 54  1  0
 53 59  1  0
 54 53  1  0
 55 54  2  0
 56 57  1  0
 56 50  2  0
 57 52  2  0
 58 51  1  0
 59 49  1  0
 61 63  2  0
 62 61  1  0
 64 62  1  0
 65 74  2  0
 65 70  1  0
 66 62  1  0
 66 70  1  0
 67 66  1  0
 68 69  1  0
 68 67  1  0
 69 65  1  0
 70 71  2  0
 71 72  1  0
 73 72  2  0
 74 73  1  0
 75 49  1  0
 75 76  1  0
 75 85  1  0
 76 79  1  0
 77 81  1  0
 77 76  1  0
 78 77  2  0
 81 80  1  0
 83 81  1  0
 83 84  1  0
 83 82  1  0
 85 88  1  1
 85 86  1  0
 87 85  1  0
M  ISO  4   8 100  16 100  47 101  48 101
M  END
>  <TORSDO>  (85) 
F 18

>  <SCORE>  (85) 
-14.642

>  <name>  (85) 
84

>  <ligand_id>  (85) 
84

>  <original_smiles>  (85) 
[H]c1c([H])c([H])c2c(c1[H])C([H])([H])C([H])([H])C([H])([H])C2([H])N([H])C(=O)C1([H])N(C(=O)C([H])(N([H])C(=O)C([H])(N([H])C([H])([H])[H])C([H])([H])[H])C(C([H])([H])[H])(C([H])([H])[H])C([H])([H])[H])C([H])([H])c2c([H])c(OC([H])([H])C([H])([H])N3C(=O)C([H])([H])C([H])(N([H])C(=O)N4C([H])([H])C([H])([H])C([H])([H])C([H])(n5nc(-c6c([H])c([H])c(Oc7c([H])c([H])c(F)c([H])c7F)c([H])c6[H])c(C(=O)N([H])[H])c5N([H])[H])C4([H])[H])C([H])([H])C3([H])[H])c([H])c([H])c2C1([H])[H]

>  <smiles>  (85) 
[H]c1c([H])c([H])c2c(c1[H])C([H])([H])C([H])([H])C([H])([H])C2([H])N([H])C(=O)C1([H])N(C(=O)C([H])(N([H])C(=O)C([H])(N([H])C([H])([H])[H])C([H])([H])[H])C(C([H])([H])[H])(C([H])([H])[H])C([H])([H])[H])C([H])([H])c2c([H])c(OC([H])([H])C([H])([H])N3C(=O)C([H])([H])C([H])(N([H])C(=O)N4C([H])([H])C([H])([H])C([H])([H])C([H])(n5nc(-c6c([H])c([H])c(Oc7c([H])c([H])c(F)c([H])c7F)c([H])c6[H])c(C(=O)N([H])[H])c5N([H])[H])C4([H])[H])C([H])([H])C3([H])[H])c([H])c([H])c2C1([H])[H]

$$$$
85:0:0
     RDKit          3D

 98106  0  0  1  0  0  0  0  0999 V2000
  -27.9940  -24.1600   20.7870 C   0  0  0  0  0  3  0  0  0  0  0  0
  -28.1070  -22.8120   21.2020 C   0  0  0  0  0  3  0  0  0  0  0  0
  -28.6520  -23.5380   18.5400 C   0  0  0  0  0  3  0  0  0  0  0  0
  -28.3040  -24.5200   19.4570 C   0  0  0  0  0  0  0  0  0  0  0  0
  -28.7490  -22.1670   18.9320 C   0  0  0  0  0  0  0  0  0  0  0  0
  -28.4660  -21.8440   20.2630 C   0  0  0  0  0  0  0  0  0  0  0  0
  -28.5230  -20.5060   20.7020 N   0  0  0  0  0  0  0  0  0  0  0  0
  -28.0130  -20.2450   21.5250 H   0  0  0  0  0  0  0  0  0  0  0  0
  -28.4650  -19.8090   19.9850 H   0  0  0  0  0  0  0  0  0  0  0  0
  -29.1590  -21.1100   17.8890 C   0  0  0  0  0  2  0  0  0  0  0  0
  -30.5410  -20.7200   17.8600 C   0  0  0  0  0  3  0  0  0  0  0  0
  -31.2470  -19.4460   17.3210 C   0  0  0  0  0  3  0  0  0  0  0  0
  -32.8070  -19.4170   17.4360 C   0  0  0  0  0  2  0  0  0  0  0  0
  -33.3420  -18.1420   18.1240 C   0  0  0  0  0  2  0  0  0  0  0  0
  -33.3600  -18.1780   19.6780 C   0  0  0  0  0  2  0  0  0  0  0  0
  -32.8250  -16.9470   20.3020 N   0  0  0  0  0  4  0  0  0  0  0  0
  -33.0870  -16.1630   19.7210 H   0  0  0  0  0  0  0  0  0  0  0  0
  -33.2520  -16.8380   21.2150 H   0  0  0  0  0  0  0  0  0  0  0  0
  -31.3460  -16.9360   20.4480 C   0  0  0  0  0  2  0  0  0  0  0  0
  -30.7070  -15.5770   20.8140 C   0  0  0  0  0  2  0  0  0  0  0  0
  -31.1030  -14.4590   19.8350 C   0  0  0  0  0  0  0  0  0  0  0  0
  -30.7270  -12.2020   18.9460 C   0  0  0  0  0  2  0  0  0  0  0  0
  -29.7070  -12.1800   17.7930 C   0  0  0  0  0  2  0  0  0  0  0  0
  -28.2770  -12.0370   18.3340 C   0  0  0  0  0  2  0  0  0  0  0  0
  -27.9870  -13.0840   19.4340 C   0  0  0  0  0  3  0  0  0  0  0  0
  -29.0900  -13.0930   20.5030 C   0  0  0  0  0  2  0  0  0  0  0  0
  -30.3790  -13.3030   19.8370 N   0  0  0  0  0  0  0  0  0  0  0  0
  -32.0670  -14.6640   19.0750 O   0  0  0  0  0  0  0  0  0  0  0  0
  -25.6850  -13.8080   20.3800 C   0  0  0  0  0  0  0  0  0  0  0  0
  -24.6070  -13.1000   20.7910 C   0  0  0  0  0  0  0  0  0  0  0  0
  -24.9730  -11.7150   20.6850 C   0  0  0  0  0  0  0  0  0  0  0  0
  -26.6710  -12.8850   20.0400 N   0  0  0  0  0  0  0  0  0  0  0  0
  -26.2250  -11.6270   20.2550 N   0  0  0  0  0  0  0  0  0  0  0  0
  -24.2000  -10.4950   20.8920 C   0  0  0  0  0  0  0  0  0  0  0  0
  -24.5800   -9.5170   21.8390 C   0  0  0  0  0  3  0  0  0  0  0  0
  -23.8100   -8.3530   22.0200 C   0  0  0  0  0  3  0  0  0  0  0  0
  -22.6240   -8.1740   21.2780 C   0  0  0  0  0  0  0  0  0  0  0  0
  -22.2620   -9.1280   20.3000 C   0  0  0  0  0  3  0  0  0  0  0  0
  -23.0350  -10.2890   20.1250 C   0  0  0  0  0  3  0  0  0  0  0  0
  -21.8280   -7.0630   21.3840 O   0  0  0  0  0  0  0  0  0  0  0  0
  -21.6940   -6.3690   22.5600 C   0  0  0  0  0  0  0  0  0  0  0  0
  -21.1880   -6.9780   23.7240 C   0  0  0  0  0  3  0  0  0  0  0  0
  -21.0040   -6.2200   24.8950 C   0  0  0  0  0  3  0  0  0  0  0  0
  -21.3180   -4.8520   24.8990 C   0  0  0  0  0  0  0  0  0  0  0  0
  -21.7930   -4.2310   23.7230 C   0  0  0  0  0  3  0  0  0  0  0  0
  -21.9760   -4.9890   22.5550 C   0  0  0  0  0  0  0  0  0  0  0  0
  -22.4330   -4.3840   21.4420 F   0  0  0  0  0  0  0  0  0  0  0  0
  -21.1150   -4.1130   26.0200 F   0  0  0  0  0  0  0  0  0  0  0  0
  -23.2680  -13.6470   21.2160 C   0  0  0  0  0  0  0  0  0  0  0  0
  -22.5770  -12.9560   22.1010 N   0  0  0  0  0  0  0  0  0  0  0  0
  -22.8440  -14.7230   20.7580 O   0  0  0  0  0  0  0  0  0  0  0  0
  -22.9010  -12.0880   22.5070 H   0  0  0  0  0  0  0  0  0  0  0  0
  -21.6790  -13.2890   22.4200 H   0  0  0  0  0  0  0  0  0  0  0  0
  -25.9100  -15.1790   20.2290 N   0  0  0  0  0  0  0  0  0  0  0  0
  -25.2030  -15.8800   20.4470 H   0  0  0  0  0  0  0  0  0  0  0  0
  -26.7550  -15.5840   19.8350 H   0  0  0  0  0  0  0  0  0  0  0  0
  -28.2450  -25.9580   18.9880 C   0  0  0  0  0  2  0  0  0  0  0  0
  -28.0620  -26.9070   20.0350 O   0  0  0  0  0  0  0  0  0  0  0  0
  -24.4880  -32.0350   23.3690 C   0  0  0  0  0  0  0  0  0  0  0  0
  -26.8600  -27.5590   20.1320 C   0  0  0  0  0  0  0  0  0  0  0  0
  -23.1620  -30.6790   21.7580 C   0  0  0  0  0  3  0  0  0  0  0  0
  -24.5020  -29.1060   20.2810 C   0  0  0  0  0  0  0  0  0  0  0  0
  -25.6790  -30.9760   21.4540 C   0  0  0  0  0  2  0  0  0  0  0  0
  -25.6970  -29.5950   20.7940 C   0  0  0  0  0  0  0  0  0  0  0  0
  -26.8900  -28.8490   20.7140 C   0  0  0  0  0  3  0  0  0  0  0  0
  -25.6270  -27.0480   19.6820 C   0  0  0  0  0  3  0  0  0  0  0  0
  -24.4590  -27.8090   19.7100 C   0  0  0  0  0  3  0  0  0  0  0  0
  -23.2980  -30.0120   20.3670 C   0  0  0  0  0  2  0  0  0  0  0  0
  -24.4600  -31.2310   22.2510 N   0  0  0  0  0  0  0  0  0  0  0  0
  -23.4360  -32.3040   23.9490 O   0  0  0  0  0  0  0  0  0  0  0  0
  -22.5280  -29.6500   22.7330 C   0  0  0  0  0  0  0  0  0  0  0  0
  -21.2140  -29.4220   22.5970 N   0  0  0  0  0  0  0  0  0  0  0  0
  -23.2120  -29.0810   23.5890 O   0  0  0  0  0  0  0  0  0  0  0  0
  -20.7230  -29.9460   21.8930 H   0  0  0  0  0  0  0  0  0  0  0  0
  -17.9200  -28.0150   22.9580 C   0  0  0  0  0  0  0  0  0  0  0  0
  -20.4220  -28.4800   23.3720 C   0  0  0  0  0  3  0  0  0  0  0  0
  -20.6630  -27.0300   22.9170 C   0  0  0  0  0  2  0  0  0  0  0  0
  -19.6530  -26.5500   21.8590 C   0  0  0  0  0  2  0  0  0  0  0  0
  -18.2220  -26.6360   22.3980 C   0  0  0  0  0  2  0  0  0  0  0  0
  -18.9520  -28.8860   23.4000 C   0  0  0  0  0  0  0  0  0  0  0  0
  -18.5930  -30.1600   23.8960 C   0  0  0  0  0  3  0  0  0  0  0  0
  -17.2530  -30.5830   23.9260 C   0  0  0  0  0  3  0  0  0  0  0  0
  -16.2350  -29.7090   23.5060 C   0  0  0  0  0  3  0  0  0  0  0  0
  -16.5690  -28.4260   23.0260 C   0  0  0  0  0  3  0  0  0  0  0  0
  -25.8340  -32.6060   23.9370 C   0  0  0  0  0  3  0  0  0  0  0  0
  -25.5700  -34.0090   24.2630 N   0  0  0  0  0  0  0  0  0  0  0  0
  -25.8920  -35.0450   23.4790 C   0  0  0  0  0  0  0  0  0  0  0  0
  -26.5120  -34.9150   22.4120 O   0  0  0  0  0  0  0  0  0  0  0  0
  -25.0440  -34.1970   25.1030 H   0  0  0  0  0  0  0  0  0  0  0  0
  -24.2150  -36.9060   23.1820 C   0  0  0  0  0  1  0  0  0  0  0  0
  -25.4700  -36.4630   23.9520 C   0  0  0  0  0  3  0  0  0  0  0  0
  -27.6720  -37.2730   24.6920 C   0  0  0  0  0  1  0  0  0  0  0  0
  -26.5440  -37.4730   23.7860 N   0  0  0  0  0  0  0  0  0  0  0  0
  -26.1780  -38.4070   23.9380 H   0  0  0  0  0  0  0  0  0  0  0  0
  -26.3690  -31.8260   25.1880 C   0  0  1  0  0  0  0  0  0  0  0  0
  -25.3060  -31.6040   26.2850 C   0  0  0  0  0  1  0  0  0  0  0  0
  -26.9140  -30.4410   24.7690 C   0  0  0  0  0  1  0  0  0  0  0  0
  -27.5490  -32.5960   25.8100 C   0  0  0  0  0  1  0  0  0  0  0  0
  1  2  1  0
  3  5  2  0
  3  4  1  0
  4  1  2  0
  5  6  1  0
  6  7  1  0
  6  2  2  0
  7  8  1  0
  9  7  1  0
 10  5  1  0
 11 10  1  0
 12 13  1  0
 12 11  2  0
 13 14  1  0
 14 15  1  0
 15 16  1  0
 16 19  1  0
 16 18  1  0
 17 16  1  0
 19 20  1  0
 21 27  1  0
 21 20  1  0
 22 27  1  0
 23 24  1  0
 23 22  1  0
 25 24  1  0
 25 32  1  0
 25 26  1  0
 27 26  1  0
 28 21  2  0
 29 30  2  0
 30 49  1  0
 31 30  1  0
 31 34  1  0
 32 33  1  0
 32 29  1  0
 33 31  2  0
 34 35  1  0
 35 36  2  0
 37 40  1  0
 37 36  1  0
 38 37  2  0
 39 38  1  0
 39 34  2  0
 40 41  1  0
 41 42  1  0
 42 43  2  0
 43 44  1  0
 44 48  1  0
 45 44  2  0
 46 41  2  0
 46 45  1  0
 47 46  1  0
 49 50  1  0
 50 53  1  0
 50 52  1  0
 51 49  2  0
 54 29  1  0
 54 55  1  0
 56 54  1  0
 57  4  1  0
 57 58  1  0
 58 60  1  0
 59 70  2  0
 60 65  1  0
 61 69  1  0
 61 71  1  0
 62 68  1  0
 62 64  1  0
 63 69  1  0
 64 63  1  0
 65 64  2  0
 66 67  1  0
 66 60  2  0
 67 62  2  0
 68 61  1  0
 69 59  1  0
 71 73  2  0
 72 71  1  0
 74 72  1  0
 75 84  2  0
 75 80  1  0
 76 72  1  0
 76 80  1  0
 77 76  1  0
 78 79  1  0
 78 77  1  0
 79 75  1  0
 80 81  2  0
 81 82  1  0
 83 82  2  0
 84 83  1  0
 85 59  1  0
 85 86  1  0
 85 95  1  0
 86 89  1  0
 87 91  1  0
 87 86  1  0
 88 87  2  0
 91 90  1  0
 93 94  1  0
 93 91  1  0
 93 92  1  0
 95 98  1  1
 95 96  1  0
 97 95  1  0
M  ISO  4  20 100  21 100  57 101  58 101
M  END
>  <TORSDO>  (86) 
F 27

>  <SCORE>  (86) 
-11.369

>  <name>  (86) 
85

>  <ligand_id>  (86) 
85

>  <original_smiles>  (86) 
[H]c1c([H])c([H])c2c(c1[H])C([H])([H])C([H])([H])C([H])([H])C2([H])N([H])C(=O)C1([H])N(C(=O)C([H])(N([H])C(=O)C([H])(N([H])C([H])([H])[H])C([H])([H])[H])C(C([H])([H])[H])(C([H])([H])[H])C([H])([H])[H])C([H])([H])c2c([H])c(OC([H])([H])c3c([H])c([H])c(N([H])[H])c(C([H])([H])C([H])([H])C([H])([H])C([H])([H])C([H])([H])C([H])([H])[N+]([H])([H])C([H])([H])C([H])([H])C(=O)N4C([H])([H])C([H])([H])C([H])([H])C([H])(n5nc(-c6c([H])c([H])c(Oc7c([H])c([H])c(F)c([H])c7F)c([H])c6[H])c(C(=O)N([H])[H])c5N([H])[H])C4([H])[H])c3[H])c([H])c([H])c2C1([H])[H]

>  <smiles>  (86) 
[H]c1c([H])c([H])c2c(c1[H])C([H])([H])C([H])([H])C([H])([H])C2([H])N([H])C(=O)C1([H])N(C(=O)C([H])(N([H])C(=O)C([H])(N([H])C([H])([H])[H])C([H])([H])[H])C(C([H])([H])[H])(C([H])([H])[H])C([H])([H])[H])C([H])([H])c2c([H])c(OC([H])([H])c3c([H])c([H])c(N([H])[H])c(C([H])([H])C([H])([H])C([H])([H])C([H])([H])C([H])([H])C([H])([H])[N+]([H])([H])C([H])([H])C([H])([H])C(=O)N4C([H])([H])C([H])([H])C([H])([H])C([H])(n5nc(-c6c([H])c([H])c(Oc7c([H])c([H])c(F)c([H])c7F)c([H])c6[H])c(C(=O)N([H])[H])c5N([H])[H])C4([H])[H])c3[H])c([H])c([H])c2C1([H])[H]

$$$$
86:0:0
     RDKit          3D

 93101  0  0  1  0  0  0  0  0999 V2000
  -28.5720  -19.5150   19.3600 C   0  0  0  0  0  3  0  0  0  0  0  0
  -28.2990  -21.9500   19.5020 C   0  0  0  0  0  3  0  0  0  0  0  0
  -30.3070  -20.8900   20.3660 C   0  0  0  0  0  3  0  0  0  0  0  0
  -27.8090  -20.6830   19.1220 C   0  0  0  0  0  0  0  0  0  0  0  0
  -29.8360  -19.5860   19.9970 C   0  0  0  0  0  0  0  0  0  0  0  0
  -29.5540  -22.0830   20.1240 C   0  0  0  0  0  0  0  0  0  0  0  0
  -26.4580  -20.5900   18.4330 C   0  0  0  0  0  1  0  0  0  0  0  0
  -29.9850  -23.3600   20.5690 N   0  0  0  0  0  0  0  0  0  0  0  0
  -29.6570  -23.5860   21.5040 H   0  0  0  0  0  0  0  0  0  0  0  0
  -29.9240  -24.5480   19.6790 C   0  0  0  0  0  2  0  0  0  0  0  0
  -28.6610  -25.4700   19.7950 C   0  0  0  0  0  2  0  0  0  0  0  0
  -28.8370  -26.9090   20.0250 O   0  0  0  0  0  0  0  0  0  0  0  0
  -24.7590  -31.8110   23.3620 C   0  0  0  0  0  0  0  0  0  0  0  0
  -27.6680  -27.6720   20.0360 C   0  0  0  0  0  0  0  0  0  0  0  0
  -23.6620  -30.4900   21.5900 C   0  0  0  0  0  3  0  0  0  0  0  0
  -25.2220  -29.1430   20.0910 C   0  0  0  0  0  0  0  0  0  0  0  0
  -26.1860  -30.9500   21.5030 C   0  0  0  0  0  2  0  0  0  0  0  0
  -26.3490  -29.6350   20.7630 C   0  0  0  0  0  0  0  0  0  0  0  0
  -27.5760  -28.9110   20.7330 C   0  0  0  0  0  3  0  0  0  0  0  0
  -26.5060  -27.2280   19.3530 C   0  0  0  0  0  3  0  0  0  0  0  0
  -25.3020  -27.9400   19.3840 C   0  0  0  0  0  3  0  0  0  0  0  0
  -23.9450  -29.9530   20.1640 C   0  0  0  0  0  2  0  0  0  0  0  0
  -24.8860  -31.0950   22.2080 N   0  0  0  0  0  0  0  0  0  0  0  0
  -23.6520  -31.9870   23.8920 O   0  0  0  0  0  0  0  0  0  0  0  0
  -23.0460  -29.3550   22.4430 C   0  0  0  0  0  0  0  0  0  0  0  0
  -21.7380  -29.1040   22.2600 N   0  0  0  0  0  0  0  0  0  0  0  0
  -23.7410  -28.7070   23.2280 O   0  0  0  0  0  0  0  0  0  0  0  0
  -21.2270  -29.6930   21.6150 H   0  0  0  0  0  0  0  0  0  0  0  0
  -18.4280  -27.7040   22.5930 C   0  0  0  0  0  0  0  0  0  0  0  0
  -20.9600  -28.0690   22.9400 C   0  0  0  0  0  3  0  0  0  0  0  0
  -21.1460  -26.6930   22.2610 C   0  0  0  0  0  2  0  0  0  0  0  0
  -20.0830  -26.3950   21.1990 C   0  0  0  0  0  2  0  0  0  0  0  0
  -18.6830  -26.4220   21.8210 C   0  0  0  0  0  2  0  0  0  0  0  0
  -19.4950  -28.4870   23.1040 C   0  0  0  0  0  0  0  0  0  0  0  0
  -19.2030  -29.6910   23.7840 C   0  0  0  0  0  3  0  0  0  0  0  0
  -17.8700  -30.1140   23.9520 C   0  0  0  0  0  3  0  0  0  0  0  0
  -16.8150  -29.3330   23.4530 C   0  0  0  0  0  3  0  0  0  0  0  0
  -17.0920  -28.1270   22.7810 C   0  0  0  0  0  3  0  0  0  0  0  0
  -25.9980  -32.4580   24.0560 C   0  0  0  0  0  3  0  0  0  0  0  0
  -25.6570  -33.8560   24.3560 N   0  0  0  0  0  0  0  0  0  0  0  0
  -26.0370  -34.9060   23.6140 C   0  0  0  0  0  0  0  0  0  0  0  0
  -26.7860  -34.8020   22.6400 O   0  0  0  0  0  0  0  0  0  0  0  0
  -25.0170  -34.0130   25.1210 H   0  0  0  0  0  0  0  0  0  0  0  0
  -24.3260  -36.6730   23.1050 C   0  0  0  0  0  1  0  0  0  0  0  0
  -25.5020  -36.2940   24.0200 C   0  0  0  0  0  3  0  0  0  0  0  0
  -27.5430  -37.2110   25.0260 C   0  0  0  0  0  1  0  0  0  0  0  0
  -26.5290  -37.3580   23.9850 N   0  0  0  0  0  0  0  0  0  0  0  0
  -26.1020  -38.2750   24.0850 H   0  0  0  0  0  0  0  0  0  0  0  0
  -26.4440  -31.6970   25.3650 C   0  0  1  0  0  0  0  0  0  0  0  0
  -25.2920  -31.4510   26.3650 C   0  0  0  0  0  1  0  0  0  0  0  0
  -27.0570  -30.3200   25.0180 C   0  0  0  0  0  1  0  0  0  0  0  0
  -27.5460  -32.4990   26.0950 C   0  0  0  0  0  1  0  0  0  0  0  0
  -30.7310  -18.3200   20.2390 C   0  0  0  0  0  2  0  0  0  0  0  0
  -29.0740  -16.6020   21.3480 C   0  0  0  0  0  1  0  0  0  0  0  0
  -30.1530  -16.8320   20.2610 C   0  0  0  0  0  3  0  0  0  0  0  0
  -31.6200  -14.7250   19.8220 C   0  0  0  0  0  0  0  0  0  0  0  0
  -31.2510  -12.3790   19.0980 C   0  0  0  0  0  2  0  0  0  0  0  0
  -30.3060  -12.3520   17.8800 C   0  0  0  0  0  2  0  0  0  0  0  0
  -28.8350  -12.3160   18.3430 C   0  0  0  0  0  2  0  0  0  0  0  0
  -28.5190  -13.3760   19.4340 C   0  0  0  0  0  3  0  0  0  0  0  0
  -29.5890  -13.3870   20.5430 C   0  0  0  0  0  2  0  0  0  0  0  0
  -30.9050  -13.5640   19.9130 N   0  0  0  0  0  0  0  0  0  0  0  0
  -32.7020  -14.7690   19.2320 O   0  0  0  0  0  0  0  0  0  0  0  0
  -31.2300  -15.8280   20.5120 N   0  0  0  0  0  0  0  0  0  0  0  0
  -32.0730  -16.3350   20.7480 H   0  0  0  0  0  0  0  0  0  0  0  0
  -26.2410  -14.1570   20.3500 C   0  0  0  0  0  0  0  0  0  0  0  0
  -25.1280  -13.4670   20.7470 C   0  0  0  0  0  0  0  0  0  0  0  0
  -25.4450  -12.0850   20.5990 C   0  0  0  0  0  0  0  0  0  0  0  0
  -27.1780  -13.1990   19.9870 N   0  0  0  0  0  0  0  0  0  0  0  0
  -26.7040  -11.9420   20.1980 N   0  0  0  0  0  0  0  0  0  0  0  0
  -24.6040  -10.8910   20.7670 C   0  0  0  0  0  0  0  0  0  0  0  0
  -24.9440   -9.8710   21.6810 C   0  0  0  0  0  3  0  0  0  0  0  0
  -24.1140   -8.7380   21.8340 C   0  0  0  0  0  3  0  0  0  0  0  0
  -22.9240   -8.6250   21.0760 C   0  0  0  0  0  0  0  0  0  0  0  0
  -22.6010   -9.6300   20.1490 C   0  0  0  0  0  3  0  0  0  0  0  0
  -23.4320  -10.7520   19.9940 C   0  0  0  0  0  3  0  0  0  0  0  0
  -22.0670   -7.5540   21.1390 O   0  0  0  0  0  0  0  0  0  0  0  0
  -21.8650   -6.8630   22.3080 C   0  0  0  0  0  0  0  0  0  0  0  0
  -21.3390   -7.4870   23.4600 C   0  0  0  0  0  3  0  0  0  0  0  0
  -21.0870   -6.7270   24.6190 C   0  0  0  0  0  3  0  0  0  0  0  0
  -21.3410   -5.3430   24.6230 C   0  0  0  0  0  0  0  0  0  0  0  0
  -21.8550   -4.7170   23.4730 C   0  0  0  0  0  3  0  0  0  0  0  0
  -22.1180   -5.4760   22.3200 C   0  0  0  0  0  0  0  0  0  0  0  0
  -22.5990   -4.8640   21.2110 F   0  0  0  0  0  0  0  0  0  0  0  0
  -21.0880   -4.6130   25.7340 F   0  0  0  0  0  0  0  0  0  0  0  0
  -23.8070  -14.0630   21.1490 C   0  0  0  0  0  0  0  0  0  0  0  0
  -23.0810  -13.4080   22.0470 N   0  0  0  0  0  0  0  0  0  0  0  0
  -23.4410  -15.1470   20.7010 O   0  0  0  0  0  0  0  0  0  0  0  0
  -23.3870  -12.5230   22.4270 H   0  0  0  0  0  0  0  0  0  0  0  0
  -22.1940  -13.7840   22.3540 H   0  0  0  0  0  0  0  0  0  0  0  0
  -26.5080  -15.5190   20.2380 N   0  0  0  0  0  0  0  0  0  0  0  0
  -25.7720  -16.2010   20.3950 H   0  0  0  0  0  0  0  0  0  0  0  0
  -27.3680  -15.9410   19.9180 H   0  0  0  0  0  0  0  0  0  0  0  0
  1  5  1  0
  2  6  2  0
  4  1  2  0
  4  2  1  0
  5 53  1  0
  5  3  2  0
  6  3  1  0
  6  8  1  0
  7  4  1  0
  8  9  1  0
 10 11  1  0
 10  8  1  0
 11 12  1  0
 12 14  1  0
 13 24  2  0
 14 19  1  0
 15 23  1  0
 15 25  1  0
 16 22  1  0
 16 18  1  0
 17 23  1  0
 18 17  1  0
 19 18  2  0
 20 21  1  0
 20 14  2  0
 21 16  2  0
 22 15  1  0
 23 13  1  0
 25 27  2  0
 26 25  1  0
 28 26  1  0
 29 38  2  0
 29 34  1  0
 30 26  1  0
 30 34  1  0
 31 30  1  0
 32 33  1  0
 32 31  1  0
 33 29  1  0
 34 35  2  0
 35 36  1  0
 37 36  2  0
 38 37  1  0
 39 13  1  0
 39 40  1  0
 39 49  1  0
 40 43  1  0
 41 45  1  0
 41 40  1  0
 42 41  2  0
 45 44  1  0
 47 45  1  0
 47 48  1  0
 47 46  1  0
 49 52  1  1
 49 50  1  0
 51 49  1  0
 53 55  1  0
 55 64  1  0
 55 54  1  0
 56 62  1  0
 56 64  1  0
 57 62  1  0
 58 59  1  0
 58 57  1  0
 60 59  1  0
 60 69  1  0
 60 61  1  0
 62 61  1  0
 63 56  2  0
 64 65  1  0
 66 67  2  0
 67 86  1  0
 68 67  1  0
 68 71  1  0
 69 70  1  0
 69 66  1  0
 70 68  2  0
 71 72  1  0
 72 73  2  0
 74 77  1  0
 74 73  1  0
 75 74  2  0
 76 75  1  0
 76 71  2  0
 77 78  1  0
 78 83  2  0
 78 79  1  0
 79 80  2  0
 80 81  1  0
 81 85  1  0
 82 81  2  0
 83 82  1  0
 84 83  1  0
 86 87  1  0
 87 90  1  0
 87 89  1  0
 88 86  2  0
 91 66  1  0
 91 92  1  0
 93 91  1  0
M  ISO  4  11 101  12 101  56 100  64 100
M  END
>  <TORSDO>  (87) 
F 21

>  <SCORE>  (87) 
-12.092

>  <name>  (87) 
86

>  <ligand_id>  (87) 
86

>  <original_smiles>  (87) 
[H]c1c([H])c([H])c2c(c1[H])C([H])([H])C([H])([H])C([H])([H])C2([H])N([H])C(=O)C1([H])N(C(=O)C([H])(N([H])C(=O)C([H])(N([H])C([H])([H])[H])C([H])([H])[H])C(C([H])([H])[H])(C([H])([H])[H])C([H])([H])[H])C([H])([H])c2c([H])c(OC([H])([H])C([H])([H])N([H])c3c([H])c(C([H])([H])[H])c([H])c(C([H])([H])C([H])(N([H])C(=O)N4C([H])([H])C([H])([H])C([H])([H])C([H])(n5nc(-c6c([H])c([H])c(Oc7c([H])c([H])c(F)c([H])c7F)c([H])c6[H])c(C(=O)N([H])[H])c5N([H])[H])C4([H])[H])C([H])([H])[H])c3[H])c([H])c([H])c2C1([H])[H]

>  <smiles>  (87) 
[H]c1c([H])c([H])c2c(c1[H])C([H])([H])C([H])([H])C([H])([H])C2([H])N([H])C(=O)C1([H])N(C(=O)C([H])(N([H])C(=O)C([H])(N([H])C([H])([H])[H])C([H])([H])[H])C(C([H])([H])[H])(C([H])([H])[H])C([H])([H])[H])C([H])([H])c2c([H])c(OC([H])([H])C([H])([H])N([H])c3c([H])c(C([H])([H])[H])c([H])c(C([H])([H])C([H])(N([H])C(=O)N4C([H])([H])C([H])([H])C([H])([H])C([H])(n5nc(-c6c([H])c([H])c(Oc7c([H])c([H])c(F)c([H])c7F)c([H])c6[H])c(C(=O)N([H])[H])c5N([H])[H])C4([H])[H])C([H])([H])[H])c3[H])c([H])c([H])c2C1([H])[H]

$$$$
87:0:0
     RDKit          3D

 96104  0  0  1  0  0  0  0  0999 V2000
  -25.5530  -21.3070   19.6500 C   0  0  0  0  0  2  0  0  0  0  0  0
  -26.4840  -22.4710   19.2990 C   0  0  0  0  0  2  0  0  0  0  0  0
  -26.0900  -19.9950   19.0710 C   0  0  0  0  0  2  0  0  0  0  0  0
  -28.4420  -20.8080   19.2090 C   0  0  0  0  0  3  0  0  0  0  0  0
  -27.9510  -22.2200   19.7560 C   0  0  0  0  0  3  0  0  0  0  0  0
  -27.4610  -19.7540   19.5550 N   0  0  0  0  0  4  0  0  0  0  0  0
  -27.7910  -18.8810   19.1810 H   0  0  0  0  0  0  0  0  0  0  0  0
  -27.4530  -19.6590   20.5570 H   0  0  0  0  0  0  0  0  0  0  0  0
  -29.8320  -20.2650   19.6490 C   0  0  0  0  0  0  0  0  0  0  0  0
  -30.1410  -19.0020   19.2670 N   0  0  0  0  0  0  0  0  0  0  0  0
  -30.5730  -20.9230   20.3810 O   0  0  0  0  0  0  0  0  0  0  0  0
  -29.5240  -18.5540   18.6030 H   0  0  0  0  0  0  0  0  0  0  0  0
  -31.3870  -18.2670   19.5440 C   0  0  0  0  0  2  0  0  0  0  0  0
  -31.4260  -17.5450   20.9180 C   0  0  0  0  0  2  0  0  0  0  0  0
  -30.6900  -16.1790   21.0470 C   0  0  0  0  0  2  0  0  0  0  0  0
  -31.4260  -14.9300   20.4980 C   0  0  0  0  0  0  0  0  0  0  0  0
  -31.2370  -12.6020   19.6700 C   0  0  0  0  0  2  0  0  0  0  0  0
  -30.3600  -12.5790   18.4010 C   0  0  0  0  0  2  0  0  0  0  0  0
  -28.8660  -12.4750   18.7680 C   0  0  0  0  0  2  0  0  0  0  0  0
  -28.4460  -13.5050   19.8490 C   0  0  0  0  0  3  0  0  0  0  0  0
  -29.4360  -13.4900   21.0350 C   0  0  0  0  0  2  0  0  0  0  0  0
  -30.7870  -13.7260   20.5030 N   0  0  0  0  0  0  0  0  0  0  0  0
  -32.5480  -15.0700   20.0000 O   0  0  0  0  0  0  0  0  0  0  0  0
  -26.0650  -14.2170   20.5220 C   0  0  0  0  0  0  0  0  0  0  0  0
  -24.9500  -13.4920   20.8460 C   0  0  0  0  0  0  0  0  0  0  0  0
  -25.3410  -12.1200   20.7870 C   0  0  0  0  0  0  0  0  0  0  0  0
  -27.0680  -13.2900   20.2900 N   0  0  0  0  0  0  0  0  0  0  0  0
  -26.6340  -12.0210   20.5050 N   0  0  0  0  0  0  0  0  0  0  0  0
  -24.5460  -10.8930   20.9250 C   0  0  0  0  0  0  0  0  0  0  0  0
  -24.8330   -9.9370   21.9240 C   0  0  0  0  0  3  0  0  0  0  0  0
  -24.0440   -8.7720   22.0480 C   0  0  0  0  0  3  0  0  0  0  0  0
  -22.9540   -8.5590   21.1710 C   0  0  0  0  0  0  0  0  0  0  0  0
  -22.6880   -9.5020   20.1640 C   0  0  0  0  0  3  0  0  0  0  0  0
  -23.4780  -10.6580   20.0380 C   0  0  0  0  0  3  0  0  0  0  0  0
  -22.1480   -7.4460   21.2000 O   0  0  0  0  0  0  0  0  0  0  0  0
  -21.8510   -6.8050   22.3760 C   0  0  0  0  0  0  0  0  0  0  0  0
  -21.1780   -7.4590   23.4310 C   0  0  0  0  0  3  0  0  0  0  0  0
  -20.8280   -6.7430   24.5940 C   0  0  0  0  0  3  0  0  0  0  0  0
  -21.1400   -5.3750   24.7000 C   0  0  0  0  0  0  0  0  0  0  0  0
  -21.8040   -4.7200   23.6480 C   0  0  0  0  0  3  0  0  0  0  0  0
  -22.1550   -5.4330   22.4870 C   0  0  0  0  0  0  0  0  0  0  0  0
  -22.7760   -4.7930   21.4670 F   0  0  0  0  0  0  0  0  0  0  0  0
  -20.7980   -4.6850   25.8130 F   0  0  0  0  0  0  0  0  0  0  0  0
  -23.5730  -14.0350   21.1020 C   0  0  0  0  0  0  0  0  0  0  0  0
  -22.7960  -13.3630   21.9440 N   0  0  0  0  0  0  0  0  0  0  0  0
  -23.1950  -15.0890   20.5920 O   0  0  0  0  0  0  0  0  0  0  0  0
  -23.1130  -12.5090   22.3790 H   0  0  0  0  0  0  0  0  0  0  0  0
  -21.8710  -13.7070   22.1590 H   0  0  0  0  0  0  0  0  0  0  0  0
  -26.3020  -15.5820   20.3820 N   0  0  0  0  0  0  0  0  0  0  0  0
  -25.5530  -16.2610   20.4550 H   0  0  0  0  0  0  0  0  0  0  0  0
  -27.1670  -15.9660   20.0280 H   0  0  0  0  0  0  0  0  0  0  0  0
  -28.7270  -23.3870   19.2920 N   0  0  0  0  0  0  0  0  0  0  0  0
  -28.4800  -23.5910   18.3270 H   0  0  0  0  0  0  0  0  0  0  0  0
  -28.5220  -24.5990   20.1110 C   0  0  0  0  0  2  0  0  0  0  0  0
  -28.9710  -25.8880   19.3780 C   0  0  0  0  0  2  0  0  0  0  0  0
  -28.7560  -27.0810   20.1510 O   0  0  0  0  0  0  0  0  0  0  0  0
  -24.6660  -31.9580   23.3550 C   0  0  0  0  0  0  0  0  0  0  0  0
  -27.5310  -27.7290   20.1440 C   0  0  0  0  0  0  0  0  0  0  0  0
  -23.5460  -30.5960   21.6210 C   0  0  0  0  0  3  0  0  0  0  0  0
  -25.0810  -29.1610   20.1730 C   0  0  0  0  0  0  0  0  0  0  0  0
  -26.0630  -31.0320   21.5090 C   0  0  0  0  0  2  0  0  0  0  0  0
  -26.2080  -29.6930   20.8120 C   0  0  0  0  0  0  0  0  0  0  0  0
  -27.4300  -28.9820   20.7970 C   0  0  0  0  0  3  0  0  0  0  0  0
  -26.3760  -27.2070   19.5140 C   0  0  0  0  0  3  0  0  0  0  0  0
  -25.1600  -27.9170   19.5260 C   0  0  0  0  0  3  0  0  0  0  0  0
  -23.8110  -29.9800   20.2220 C   0  0  0  0  0  2  0  0  0  0  0  0
  -24.7740  -31.2090   22.2200 N   0  0  0  0  0  0  0  0  0  0  0  0
  -23.5640  -32.1740   23.8770 O   0  0  0  0  0  0  0  0  0  0  0  0
  -22.9020  -29.5150   22.5190 C   0  0  0  0  0  0  0  0  0  0  0  0
  -21.5940  -29.2750   22.3250 N   0  0  0  0  0  0  0  0  0  0  0  0
  -23.5770  -28.8940   23.3440 O   0  0  0  0  0  0  0  0  0  0  0  0
  -21.1100  -29.8320   21.6350 H   0  0  0  0  0  0  0  0  0  0  0  0
  -18.2610  -27.9110   22.6240 C   0  0  0  0  0  0  0  0  0  0  0  0
  -20.7890  -28.2750   23.0250 C   0  0  0  0  0  3  0  0  0  0  0  0
  -20.9850  -26.8700   22.4080 C   0  0  0  0  0  2  0  0  0  0  0  0
  -19.9470  -26.5330   21.3330 C   0  0  0  0  0  2  0  0  0  0  0  0
  -18.5320  -26.5940   21.9140 C   0  0  0  0  0  2  0  0  0  0  0  0
  -19.3230  -28.7070   23.1310 C   0  0  0  0  0  0  0  0  0  0  0  0
  -19.0190  -29.9400   23.7490 C   0  0  0  0  0  3  0  0  0  0  0  0
  -17.6860  -30.3770   23.8680 C   0  0  0  0  0  3  0  0  0  0  0  0
  -16.6400  -29.5770   23.3790 C   0  0  0  0  0  3  0  0  0  0  0  0
  -16.9270  -28.3450   22.7630 C   0  0  0  0  0  3  0  0  0  0  0  0
  -25.9160  -32.5970   24.0370 C   0  0  0  0  0  3  0  0  0  0  0  0
  -25.6040  -34.0080   24.3000 N   0  0  0  0  0  0  0  0  0  0  0  0
  -25.9950  -35.0300   23.5270 C   0  0  0  0  0  0  0  0  0  0  0  0
  -26.7260  -34.8840   22.5430 O   0  0  0  0  0  0  0  0  0  0  0  0
  -24.9630  -34.1960   25.0570 H   0  0  0  0  0  0  0  0  0  0  0  0
  -24.3100  -36.8220   23.0010 C   0  0  0  0  0  1  0  0  0  0  0  0
  -25.4940  -36.4370   23.9030 C   0  0  0  0  0  3  0  0  0  0  0  0
  -27.5760  -37.3400   24.8390 C   0  0  0  0  0  1  0  0  0  0  0  0
  -26.5410  -37.4780   23.8170 N   0  0  0  0  0  0  0  0  0  0  0  0
  -26.1360  -38.4060   23.9000 H   0  0  0  0  0  0  0  0  0  0  0  0
  -26.3430  -31.8640   25.3670 C   0  0  1  0  0  0  0  0  0  0  0  0
  -25.1790  -31.6620   26.3670 C   0  0  0  0  0  1  0  0  0  0  0  0
  -26.9440  -30.4740   25.0570 C   0  0  0  0  0  1  0  0  0  0  0  0
  -27.4500  -32.6760   26.0800 C   0  0  0  0  0  1  0  0  0  0  0  0
  2  1  1  0
  2  5  1  0
  3  6  1  0
  3  1  1  0
  4  6  1  0
  4  9  1  0
  4  5  1  0
  5 52  1  0
  6  8  1  0
  7  6  1  0
  9 11  2  0
 10 13  1  0
 10  9  1  0
 12 10  1  0
 13 14  1  0
 14 15  1  0
 16 22  1  0
 16 15  1  0
 17 22  1  0
 18 19  1  0
 18 17  1  0
 20 19  1  0
 20 27  1  0
 20 21  1  0
 22 21  1  0
 23 16  2  0
 24 25  2  0
 25 44  1  0
 26 25  1  0
 26 29  1  0
 27 28  1  0
 27 24  1  0
 28 26  2  0
 29 30  1  0
 30 31  2  0
 32 35  1  0
 32 31  1  0
 33 32  2  0
 34 33  1  0
 34 29  2  0
 35 36  1  0
 36 41  2  0
 36 37  1  0
 37 38  2  0
 38 39  1  0
 39 43  1  0
 40 39  2  0
 41 40  1  0
 42 41  1  0
 44 45  1  0
 45 48  1  0
 45 47  1  0
 46 44  2  0
 49 50  1  0
 49 24  1  0
 51 49  1  0
 52 54  1  0
 53 52  1  0
 55 54  1  0
 55 56  1  0
 57 68  2  0
 58 56  1  0
 58 63  1  0
 59 67  1  0
 59 69  1  0
 60 66  1  0
 60 62  1  0
 61 67  1  0
 62 61  1  0
 63 62  2  0
 64 65  1  0
 64 58  2  0
 65 60  2  0
 66 59  1  0
 67 57  1  0
 69 71  2  0
 70 69  1  0
 72 70  1  0
 73 82  2  0
 73 78  1  0
 74 70  1  0
 74 78  1  0
 75 74  1  0
 76 77  1  0
 76 75  1  0
 77 73  1  0
 78 79  2  0
 79 80  1  0
 81 80  2  0
 82 81  1  0
 83 57  1  0
 83 84  1  0
 83 93  1  0
 84 87  1  0
 85 89  1  0
 85 84  1  0
 86 85  2  0
 89 88  1  0
 91 92  1  0
 91 89  1  0
 91 90  1  0
 93 96  1  1
 93 94  1  0
 95 93  1  0
M  ISO  4  15 100  16 100  55 101  56 101
M  END
>  <TORSDO>  (88) 
F 23

>  <SCORE>  (88) 
-10.542

>  <name>  (88) 
87

>  <ligand_id>  (88) 
87

>  <original_smiles>  (88) 
[H]c1c([H])c([H])c2c(c1[H])C([H])([H])C([H])([H])C([H])([H])C2([H])N([H])C(=O)C1([H])N(C(=O)C([H])(N([H])C(=O)C([H])(N([H])C([H])([H])[H])C([H])([H])[H])C(C([H])([H])[H])(C([H])([H])[H])C([H])([H])[H])C([H])([H])c2c([H])c(OC([H])([H])C([H])([H])N([H])C3([H])C([H])([H])C([H])([H])C([H])([H])[N+]([H])([H])C3([H])C(=O)N([H])C([H])([H])C([H])([H])C([H])([H])C(=O)N3C([H])([H])C([H])([H])C([H])([H])C([H])(n4nc(-c5c([H])c([H])c(Oc6c([H])c([H])c(F)c([H])c6F)c([H])c5[H])c(C(=O)N([H])[H])c4N([H])[H])C3([H])[H])c([H])c([H])c2C1([H])[H]

>  <smiles>  (88) 
[H]c1c([H])c([H])c2c(c1[H])C([H])([H])C([H])([H])C([H])([H])C2([H])N([H])C(=O)C1([H])N(C(=O)C([H])(N([H])C(=O)C([H])(N([H])C([H])([H])[H])C([H])([H])[H])C(C([H])([H])[H])(C([H])([H])[H])C([H])([H])[H])C([H])([H])c2c([H])c(OC([H])([H])C([H])([H])N([H])C3([H])C([H])([H])C([H])([H])C([H])([H])[N+]([H])([H])C3([H])C(=O)N([H])C([H])([H])C([H])([H])C([H])([H])C(=O)N3C([H])([H])C([H])([H])C([H])([H])C([H])(n4nc(-c5c([H])c([H])c(Oc6c([H])c([H])c(F)c([H])c6F)c([H])c5[H])c(C(=O)N([H])[H])c4N([H])[H])C3([H])[H])c([H])c([H])c2C1([H])[H]

$$$$
88:0:0
     RDKit          3D

 95103  0  0  1  0  0  0  0  0999 V2000
  -30.7770  -27.4220   24.0860 C   0  0  0  0  0  3  0  0  0  0  0  0
  -29.5070  -27.9970   23.9350 C   0  0  0  0  0  3  0  0  0  0  0  0
  -31.1510  -26.3410   23.2690 C   0  0  0  0  0  3  0  0  0  0  0  0
  -28.6320  -27.5150   22.9440 C   0  0  0  0  0  3  0  0  0  0  0  0
  -30.2710  -25.8350   22.2850 C   0  0  0  0  0  0  0  0  0  0  0  0
  -29.0110  -26.4650   22.0770 C   0  0  0  0  0  0  0  0  0  0  0  0
  -30.7020  -24.5720   21.5430 C   0  0  0  0  0  2  0  0  0  0  0  0
  -29.8290  -23.2230   23.5660 C   0  0  0  0  0  1  0  0  0  0  0  0
  -29.9670  -23.2900   22.0260 C   0  0  0  0  0  3  0  0  0  0  0  0
  -30.6300  -22.0840   21.4730 N   0  0  0  0  0  4  0  0  0  0  0  0
  -30.6470  -22.1760   20.4700 H   0  0  0  0  0  0  0  0  0  0  0  0
  -31.5870  -22.0560   21.7860 H   0  0  0  0  0  0  0  0  0  0  0  0
  -29.9810  -20.7890   21.7870 C   0  0  0  0  0  2  0  0  0  0  0  0
  -30.7400  -19.6140   21.1500 C   0  0  0  0  0  2  0  0  0  0  0  0
  -30.1910  -18.2390   21.5650 C   0  0  0  0  0  2  0  0  0  0  0  0
  -30.9400  -17.1030   20.8530 C   0  0  0  0  0  2  0  0  0  0  0  0
  -30.4110  -15.6920   21.1890 C   0  0  0  0  0  2  0  0  0  0  0  0
  -30.9700  -14.6090   20.2470 C   0  0  0  0  0  0  0  0  0  0  0  0
  -30.5830  -12.5450   18.9490 C   0  0  0  0  0  2  0  0  0  0  0  0
  -29.5850  -12.8280   17.8100 C   0  0  0  0  0  2  0  0  0  0  0  0
  -28.1320  -12.6760   18.3050 C   0  0  0  0  0  2  0  0  0  0  0  0
  -27.8670  -13.4480   19.6260 C   0  0  0  0  0  3  0  0  0  0  0  0
  -28.9710  -13.1490   20.6650 C   0  0  0  0  0  2  0  0  0  0  0  0
  -30.2710  -13.4610   20.0540 N   0  0  0  0  0  0  0  0  0  0  0  0
  -32.0190  -14.8470   19.6380 O   0  0  0  0  0  0  0  0  0  0  0  0
  -25.5100  -14.0340   20.4860 C   0  0  0  0  0  0  0  0  0  0  0  0
  -24.4530  -13.2490   20.8610 C   0  0  0  0  0  0  0  0  0  0  0  0
  -24.8960  -11.8980   20.7250 C   0  0  0  0  0  0  0  0  0  0  0  0
  -26.5340  -13.1600   20.1530 N   0  0  0  0  0  0  0  0  0  0  0  0
  -26.1680  -11.8670   20.3500 N   0  0  0  0  0  0  0  0  0  0  0  0
  -24.1660  -10.6330   20.8760 C   0  0  0  0  0  0  0  0  0  0  0  0
  -24.5490   -9.6690   21.8360 C   0  0  0  0  0  3  0  0  0  0  0  0
  -23.8200   -8.4680   21.9740 C   0  0  0  0  0  3  0  0  0  0  0  0
  -22.6970   -8.2210   21.1520 C   0  0  0  0  0  0  0  0  0  0  0  0
  -22.3340   -9.1730   20.1820 C   0  0  0  0  0  3  0  0  0  0  0  0
  -23.0630  -10.3660   20.0420 C   0  0  0  0  0  3  0  0  0  0  0  0
  -21.9450   -7.0710   21.1970 O   0  0  0  0  0  0  0  0  0  0  0  0
  -21.7210   -6.4040   22.3740 C   0  0  0  0  0  0  0  0  0  0  0  0
  -21.0790   -7.0210   23.4690 C   0  0  0  0  0  3  0  0  0  0  0  0
  -20.8070   -6.2780   24.6350 C   0  0  0  0  0  3  0  0  0  0  0  0
  -21.1670   -4.9190   24.7050 C   0  0  0  0  0  0  0  0  0  0  0  0
  -21.8020   -4.3010   23.6120 C   0  0  0  0  0  3  0  0  0  0  0  0
  -22.0750   -5.0420   22.4500 C   0  0  0  0  0  0  0  0  0  0  0  0
  -22.6680   -4.4370   21.3920 F   0  0  0  0  0  0  0  0  0  0  0  0
  -20.8980   -4.2020   25.8220 F   0  0  0  0  0  0  0  0  0  0  0  0
  -23.0760  -13.7200   21.2340 C   0  0  0  0  0  0  0  0  0  0  0  0
  -22.3840  -12.9740   22.0870 N   0  0  0  0  0  0  0  0  0  0  0  0
  -22.6250  -14.7820   20.8060 O   0  0  0  0  0  0  0  0  0  0  0  0
  -22.7610  -12.1140   22.4560 H   0  0  0  0  0  0  0  0  0  0  0  0
  -21.4620  -13.2690   22.3790 H   0  0  0  0  0  0  0  0  0  0  0  0
  -25.6810  -15.4110   20.3830 N   0  0  0  0  0  0  0  0  0  0  0  0
  -24.9280  -16.0650   20.5680 H   0  0  0  0  0  0  0  0  0  0  0  0
  -26.5240  -15.8620   20.0510 H   0  0  0  0  0  0  0  0  0  0  0  0
  -28.0340  -26.0370   20.9760 C   0  0  0  0  0  2  0  0  0  0  0  0
  -27.9170  -27.0020   19.9240 O   0  0  0  0  0  0  0  0  0  0  0  0
  -24.5190  -32.1290   23.4400 C   0  0  0  0  0  0  0  0  0  0  0  0
  -26.7900  -27.7800   20.0060 C   0  0  0  0  0  0  0  0  0  0  0  0
  -23.1540  -30.8580   21.8130 C   0  0  0  0  0  3  0  0  0  0  0  0
  -24.4530  -29.3380   20.2300 C   0  0  0  0  0  0  0  0  0  0  0  0
  -25.6700  -31.1470   21.4620 C   0  0  0  0  0  2  0  0  0  0  0  0
  -25.6630  -29.8110   20.7520 C   0  0  0  0  0  0  0  0  0  0  0  0
  -26.8390  -29.0480   20.6170 C   0  0  0  0  0  3  0  0  0  0  0  0
  -25.5700  -27.3090   19.4790 C   0  0  0  0  0  3  0  0  0  0  0  0
  -24.4000  -28.0880   19.5840 C   0  0  0  0  0  3  0  0  0  0  0  0
  -23.2460  -30.2320   20.3940 C   0  0  0  0  0  2  0  0  0  0  0  0
  -24.4710  -31.3860   22.2980 N   0  0  0  0  0  0  0  0  0  0  0  0
  -23.4880  -32.4140   24.0620 O   0  0  0  0  0  0  0  0  0  0  0  0
  -22.5230  -29.8190   22.7660 C   0  0  0  0  0  0  0  0  0  0  0  0
  -21.2070  -29.5940   22.6170 N   0  0  0  0  0  0  0  0  0  0  0  0
  -23.2140  -29.2160   23.5930 O   0  0  0  0  0  0  0  0  0  0  0  0
  -20.7110  -30.1360   21.9230 H   0  0  0  0  0  0  0  0  0  0  0  0
  -17.8970  -28.1850   22.9420 C   0  0  0  0  0  0  0  0  0  0  0  0
  -20.4060  -28.6320   23.3730 C   0  0  0  0  0  3  0  0  0  0  0  0
  -20.6450  -27.1900   22.8690 C   0  0  0  0  0  2  0  0  0  0  0  0
  -19.6420  -26.7510   21.7990 C   0  0  0  0  0  2  0  0  0  0  0  0
  -18.2110  -26.8260   22.3410 C   0  0  0  0  0  2  0  0  0  0  0  0
  -18.9290  -29.0400   23.4120 C   0  0  0  0  0  0  0  0  0  0  0  0
  -18.5870  -30.3090   23.9290 C   0  0  0  0  0  3  0  0  0  0  0  0
  -17.2430  -30.7240   23.9830 C   0  0  0  0  0  3  0  0  0  0  0  0
  -16.2240  -29.8680   23.5320 C   0  0  0  0  0  3  0  0  0  0  0  0
  -16.5510  -28.6000   23.0180 C   0  0  0  0  0  3  0  0  0  0  0  0
  -25.8680  -32.6760   24.0070 C   0  0  0  0  0  3  0  0  0  0  0  0
  -26.3580  -31.9070   25.2940 C   0  0  1  0  0  0  0  0  0  0  0  0
  -25.2710  -31.7610   26.3840 C   0  0  0  0  0  1  0  0  0  0  0  0
  -26.8470  -30.4900   24.9230 C   0  0  0  0  0  1  0  0  0  0  0  0
  -27.5640  -32.6450   25.9180 C   0  0  0  0  0  1  0  0  0  0  0  0
  -25.6830  -34.1040   24.2930 N   0  0  0  0  0  0  0  0  0  0  0  0
  -26.1020  -35.0970   23.4970 C   0  0  0  0  0  0  0  0  0  0  0  0
  -26.7570  -34.9020   22.4700 O   0  0  0  0  0  0  0  0  0  0  0  0
  -25.1060  -34.3360   25.0880 H   0  0  0  0  0  0  0  0  0  0  0  0
  -24.5330  -37.0170   23.0840 C   0  0  0  0  0  1  0  0  0  0  0  0
  -25.7370  -36.5360   23.9090 C   0  0  0  0  0  3  0  0  0  0  0  0
  -27.9390  -37.2650   24.7160 C   0  0  0  0  0  1  0  0  0  0  0  0
  -26.8560  -37.4930   23.7610 N   0  0  0  0  0  0  0  0  0  0  0  0
  -26.5300  -38.4490   23.8760 H   0  0  0  0  0  0  0  0  0  0  0  0
  2  1  1  0
  3  1  2  0
  4  2  2  0
  5  3  1  0
  6  5  2  0
  6  4  1  0
  7  9  1  0
  7  5  1  0
  9  8  1  0
 10 12  1  0
 10 13  1  0
 10  9  1  0
 11 10  1  0
 14 15  1  0
 14 13  1  0
 16 17  1  0
 16 15  1  0
 18 17  1  0
 19 24  1  0
 20 21  1  0
 20 19  1  0
 22 21  1  0
 22 29  1  0
 22 23  1  0
 24 18  1  0
 24 23  1  0
 25 18  2  0
 26 27  2  0
 27 46  1  0
 28 27  1  0
 28 31  1  0
 29 30  1  0
 29 26  1  0
 30 28  2  0
 31 32  1  0
 32 33  2  0
 34 37  1  0
 34 33  1  0
 35 34  2  0
 36 35  1  0
 36 31  2  0
 37 38  1  0
 38 43  2  0
 38 39  1  0
 39 40  2  0
 40 41  1  0
 41 45  1  0
 42 41  2  0
 43 42  1  0
 44 43  1  0
 46 47  1  0
 47 50  1  0
 47 49  1  0
 48 46  2  0
 51 26  1  0
 51 52  1  0
 53 51  1  0
 54  6  1  0
 55 57  1  0
 55 54  1  0
 56 67  2  0
 57 62  1  0
 58 66  1  0
 58 68  1  0
 59 65  1  0
 59 61  1  0
 60 66  1  0
 61 60  1  0
 62 61  2  0
 63 64  1  0
 63 57  2  0
 64 59  2  0
 65 58  1  0
 66 56  1  0
 68 70  2  0
 69 68  1  0
 71 69  1  0
 72 81  2  0
 72 77  1  0
 73 69  1  0
 73 77  1  0
 74 73  1  0
 75 76  1  0
 75 74  1  0
 76 72  1  0
 77 78  2  0
 78 79  1  0
 80 79  2  0
 81 80  1  0
 82 56  1  0
 82 87  1  0
 82 83  1  0
 83 86  1  1
 83 84  1  0
 85 83  1  0
 87 90  1  0
 88 92  1  0
 88 87  1  0
 89 88  2  0
 92 91  1  0
 94 95  1  0
 94 92  1  0
 94 93  1  0
M  ISO  4  17 100  18 100  54 101  55 101
M  END
>  <TORSDO>  (89) 
F 25

>  <SCORE>  (89) 
-10.334

>  <name>  (89) 
88

>  <ligand_id>  (89) 
88

>  <original_smiles>  (89) 
[H]c1c([H])c([H])c(C([H])([H])C([H])(C([H])([H])[H])[N+]([H])([H])C([H])([H])C([H])([H])C([H])([H])C([H])([H])C([H])([H])C(=O)N2C([H])([H])C([H])([H])C([H])([H])C([H])(n3nc(-c4c([H])c([H])c(Oc5c([H])c([H])c(F)c([H])c5F)c([H])c4[H])c(C(=O)N([H])[H])c3N([H])[H])C2([H])[H])c(C([H])([H])Oc2c([H])c([H])c3c(c2[H])C([H])([H])N(C(=O)C([H])(N([H])C(=O)C([H])(N([H])C([H])([H])[H])C([H])([H])[H])C(C([H])([H])[H])(C([H])([H])[H])C([H])([H])[H])C([H])(C(=O)N([H])C2([H])c4c([H])c([H])c([H])c([H])c4C([H])([H])C([H])([H])C2([H])[H])C3([H])[H])c1[H]

>  <smiles>  (89) 
[H]c1c([H])c([H])c(C([H])([H])C([H])(C([H])([H])[H])[N+]([H])([H])C([H])([H])C([H])([H])C([H])([H])C([H])([H])C([H])([H])C(=O)N2C([H])([H])C([H])([H])C([H])([H])C([H])(n3nc(-c4c([H])c([H])c(Oc5c([H])c([H])c(F)c([H])c5F)c([H])c4[H])c(C(=O)N([H])[H])c3N([H])[H])C2([H])[H])c(C([H])([H])Oc2c([H])c([H])c3c(c2[H])C([H])([H])N(C(=O)C([H])(N([H])C(=O)C([H])(N([H])C([H])([H])[H])C([H])([H])[H])C(C([H])([H])[H])(C([H])([H])[H])C([H])([H])[H])C([H])(C(=O)N([H])C2([H])c4c([H])c([H])c([H])c([H])c4C([H])([H])C([H])([H])C2([H])[H])C3([H])[H])c1[H]

$$$$
89:0:0
     RDKit          3D

 97106  0  0  1  0  0  0  0  0999 V2000
  -27.5880  -22.6280   22.2150 C   0  0  0  0  0  2  0  0  0  0  0  0
  -28.1290  -21.8750   19.8250 C   0  0  0  0  0  2  0  0  0  0  0  0
  -26.2830  -23.2360   21.6800 C   0  0  0  0  0  2  0  0  0  0  0  0
  -26.8360  -22.5640   19.3420 C   0  0  0  0  0  2  0  0  0  0  0  0
  -28.1280  -21.4880   21.3250 C   0  0  0  0  0  3  0  0  0  0  0  0
  -26.4380  -23.7530   20.2330 C   0  0  0  0  0  3  0  0  0  0  0  0
  -27.4460  -24.8270   20.0570 N   0  0  0  0  0  4  0  0  0  0  0  0
  -26.9510  -25.6680   19.8000 H   0  0  0  0  0  0  0  0  0  0  0  0
  -28.0090  -24.5710   19.2640 H   0  0  0  0  0  0  0  0  0  0  0  0
  -28.3730  -25.1490   21.1670 C   0  0  0  0  0  2  0  0  0  0  0  0
  -29.7620  -25.4690   20.5740 C   0  0  0  0  0  2  0  0  0  0  0  0
  -30.7170  -26.2780   21.4690 C   0  0  0  0  0  2  0  0  0  0  0  0
  -30.7950  -27.6250   21.0170 O   0  0  0  0  0  0  0  0  0  0  0  0
  -27.5770  -31.5500   25.9610 C   0  0  0  0  0  0  0  0  0  0  0  0
  -29.6980  -28.3660   21.3510 C   0  0  0  0  0  0  0  0  0  0  0  0
  -26.1750  -30.8800   24.0350 C   0  0  0  0  0  3  0  0  0  0  0  0
  -27.4270  -29.8630   22.0610 C   0  0  0  0  0  0  0  0  0  0  0  0
  -28.7060  -31.1500   23.7840 C   0  0  0  0  0  2  0  0  0  0  0  0
  -28.6430  -30.0870   22.7120 C   0  0  0  0  0  0  0  0  0  0  0  0
  -29.7860  -29.3380   22.3670 C   0  0  0  0  0  3  0  0  0  0  0  0
  -28.4810  -28.1650   20.6790 C   0  0  0  0  0  3  0  0  0  0  0  0
  -27.3340  -28.8970   21.0420 C   0  0  0  0  0  3  0  0  0  0  0  0
  -26.2580  -30.7190   22.4940 C   0  0  0  0  0  2  0  0  0  0  0  0
  -27.5080  -31.1870   24.6520 N   0  0  0  0  0  0  0  0  0  0  0  0
  -26.5500  -31.6690   26.6460 O   0  0  0  0  0  0  0  0  0  0  0  0
  -25.5020  -29.6230   24.6280 C   0  0  0  0  0  0  0  0  0  0  0  0
  -24.3910  -29.1940   24.0090 N   0  0  0  0  0  0  0  0  0  0  0  0
  -25.9880  -29.0420   25.6040 O   0  0  0  0  0  0  0  0  0  0  0  0
  -24.0550  -29.7310   23.2230 H   0  0  0  0  0  0  0  0  0  0  0  0
  -21.9550  -26.8300   22.7740 C   0  0  0  0  0  0  0  0  0  0  0  0
  -23.6030  -28.0180   24.3720 C   0  0  0  0  0  3  0  0  0  0  0  0
  -24.4570  -26.7290   24.2740 C   0  0  0  0  0  2  0  0  0  0  0  0
  -24.3520  -26.0490   22.9080 C   0  0  0  0  0  2  0  0  0  0  0  0
  -22.9020  -25.6540   22.6210 C   0  0  0  0  0  2  0  0  0  0  0  0
  -22.2930  -27.9490   23.5800 C   0  0  0  0  0  0  0  0  0  0  0  0
  -21.3950  -29.0360   23.6540 C   0  0  0  0  0  3  0  0  0  0  0  0
  -20.1810  -29.0180   22.9420 C   0  0  0  0  0  3  0  0  0  0  0  0
  -19.8420  -27.9010   22.1600 C   0  0  0  0  0  3  0  0  0  0  0  0
  -20.7250  -26.8100   22.0830 C   0  0  0  0  0  3  0  0  0  0  0  0
  -28.9410  -31.8510   26.6570 C   0  0  0  0  0  3  0  0  0  0  0  0
  -28.7310  -32.9690   27.5860 N   0  0  0  0  0  0  0  0  0  0  0  0
  -29.2250  -34.2020   27.4110 C   0  0  0  0  0  0  0  0  0  0  0  0
  -29.9740  -34.4990   26.4770 O   0  0  0  0  0  0  0  0  0  0  0  0
  -28.0820  -32.8160   28.3450 H   0  0  0  0  0  0  0  0  0  0  0  0
  -27.7650  -36.2090   27.8150 C   0  0  0  0  0  1  0  0  0  0  0  0
  -28.8180  -35.2760   28.4360 C   0  0  0  0  0  3  0  0  0  0  0  0
  -30.8660  -35.3100   29.7890 C   0  0  0  0  0  1  0  0  0  0  0  0
  -29.9590  -36.0740   28.9350 N   0  0  0  0  0  0  0  0  0  0  0  0
  -29.6310  -36.8810   29.4580 H   0  0  0  0  0  0  0  0  0  0  0  0
  -29.5430  -30.6000   27.4090 C   0  0  1  0  0  0  0  0  0  0  0  0
  -28.5430  -29.9100   28.3670 C   0  0  0  0  0  1  0  0  0  0  0  0
  -30.0390  -29.5410   26.3970 C   0  0  0  0  0  1  0  0  0  0  0  0
  -30.7820  -31.0320   28.2280 C   0  0  0  0  0  1  0  0  0  0  0  0
  -29.5450  -21.1160   21.7960 C   0  0  0  0  0  2  0  0  0  0  0  0
  -30.3770  -20.2840   20.8080 C   0  0  0  0  0  2  0  0  0  0  0  0
  -34.4440  -19.5830   17.4110 C   0  0  0  0  0  0  0  0  0  0  0  0
  -35.5690  -17.7290   16.2390 C   0  0  0  0  0  2  0  0  0  0  0  0
  -34.5600  -16.9920   15.3370 C   0  0  0  0  0  2  0  0  0  0  0  0
  -33.8210  -15.8950   16.1270 C   0  0  0  0  0  2  0  0  0  0  0  0
  -33.2440  -16.4140   17.4730 C   0  0  0  0  0  3  0  0  0  0  0  0
  -34.3160  -17.2070   18.2570 C   0  0  0  0  0  2  0  0  0  0  0  0
  -34.8290  -18.2800   17.3830 N   0  0  0  0  0  0  0  0  0  0  0  0
  -34.8200  -20.4210   16.5820 O   0  0  0  0  0  0  0  0  0  0  0  0
  -31.4550  -21.2910   18.7210 C   0  0  0  0  0  2  0  0  0  0  0  0
  -32.9180  -20.4470   20.6460 C   0  0  0  0  0  2  0  0  0  0  0  0
  -32.1390  -20.1620   17.9240 C   0  0  0  0  0  2  0  0  0  0  0  0
  -33.9780  -20.6000   19.5520 C   0  0  0  0  0  2  0  0  0  0  0  0
  -31.5700  -21.0870   20.2500 C   0  0  0  0  0  3  0  0  0  0  0  0
  -33.5290  -19.8980   18.3450 N   0  0  0  0  0  0  0  0  0  0  0  0
  -31.3860  -15.1250   18.7060 C   0  0  0  0  0  0  0  0  0  0  0  0
  -31.3880  -13.9200   19.3560 C   0  0  0  0  0  0  0  0  0  0  0  0
  -32.7270  -13.4280   19.2720 C   0  0  0  0  0  0  0  0  0  0  0  0
  -32.6870  -15.3250   18.2720 N   0  0  0  0  0  0  0  0  0  0  0  0
  -33.5060  -14.3170   18.6680 N   0  0  0  0  0  0  0  0  0  0  0  0
  -33.3010  -12.1420   19.6860 C   0  0  0  0  0  0  0  0  0  0  0  0
  -34.5020  -12.0680   20.4240 C   0  0  0  0  0  3  0  0  0  0  0  0
  -35.0220  -10.8210   20.8270 C   0  0  0  0  0  3  0  0  0  0  0  0
  -34.3400   -9.6250   20.4950 C   0  0  0  0  0  0  0  0  0  0  0  0
  -33.1580   -9.7020   19.7380 C   0  0  0  0  0  3  0  0  0  0  0  0
  -32.6440  -10.9460   19.3340 C   0  0  0  0  0  3  0  0  0  0  0  0
  -34.7870   -8.3660   20.8180 O   0  0  0  0  0  0  0  0  0  0  0  0
  -35.7000   -8.1640   21.8210 C   0  0  0  0  0  0  0  0  0  0  0  0
  -35.4400   -8.5530   23.1550 C   0  0  0  0  0  3  0  0  0  0  0  0
  -36.3770   -8.2620   24.1660 C   0  0  0  0  0  3  0  0  0  0  0  0
  -37.5650   -7.5750   23.8490 C   0  0  0  0  0  0  0  0  0  0  0  0
  -37.8230   -7.1880   22.5230 C   0  0  0  0  0  3  0  0  0  0  0  0
  -36.8900   -7.4770   21.5130 C   0  0  0  0  0  0  0  0  0  0  0  0
  -37.1310   -7.0780   20.2410 F   0  0  0  0  0  0  0  0  0  0  0  0
  -38.4620   -7.2880   24.8230 F   0  0  0  0  0  0  0  0  0  0  0  0
  -30.1970  -13.2160   19.9360 C   0  0  0  0  0  0  0  0  0  0  0  0
  -30.3910  -12.4720   21.0200 N   0  0  0  0  0  0  0  0  0  0  0  0
  -29.0740  -13.3600   19.4570 O   0  0  0  0  0  0  0  0  0  0  0  0
  -31.3110  -12.3680   21.4240 H   0  0  0  0  0  0  0  0  0  0  0  0
  -29.6060  -12.0040   21.4510 H   0  0  0  0  0  0  0  0  0  0  0  0
  -30.3900  -16.0570   18.4290 N   0  0  0  0  0  0  0  0  0  0  0  0
  -29.4270  -15.9210   18.7100 H   0  0  0  0  0  0  0  0  0  0  0  0
  -30.5350  -16.9120   17.9070 H   0  0  0  0  0  0  0  0  0  0  0  0
  2  5  1  0
  3  1  1  0
  4  2  1  0
  4  6  1  0
  5 54  1  0
  5  1  1  0
  6  7  1  0
  6  3  1  0
  7 10  1  0
  8  7  1  0
  9  7  1  0
 11 10  1  0
 11 12  1  0
 13 15  1  0
 13 12  1  0
 14 25  2  0
 15 20  1  0
 16 26  1  0
 16 24  1  0
 17 23  1  0
 17 19  1  0
 18 24  1  0
 19 18  1  0
 20 19  2  0
 21 22  1  0
 21 15  2  0
 22 17  2  0
 23 16  1  0
 24 14  1  0
 26 28  2  0
 27 26  1  0
 29 27  1  0
 30 35  1  0
 31 27  1  0
 32 31  1  0
 33 32  1  0
 34 30  1  0
 34 33  1  0
 35 36  2  0
 35 31  1  0
 37 36  1  0
 38 37  2  0
 39 38  1  0
 39 30  2  0
 40 14  1  0
 40 50  1  0
 40 41  1  0
 41 44  1  0
 42 41  1  0
 42 46  1  0
 43 42  2  0
 46 45  1  0
 46 48  1  0
 48 49  1  0
 48 47  1  0
 50 53  1  1
 50 51  1  0
 52 50  1  0
 55 54  1  0
 56 69  1  0
 57 62  1  0
 58 59  1  0
 58 57  1  0
 60 59  1  0
 60 61  1  0
 60 73  1  0
 62 56  1  0
 62 61  1  0
 63 56  2  0
 64 68  1  0
 66 69  1  0
 66 64  1  0
 67 65  1  0
 68 65  1  0
 68 55  1  0
 69 67  1  0
 70 71  2  0
 71 90  1  0
 72 71  1  0
 72 75  1  0
 73 74  1  0
 73 70  1  0
 74 72  2  0
 75 76  1  0
 76 77  2  0
 78 81  1  0
 78 77  1  0
 79 78  2  0
 80 75  2  0
 80 79  1  0
 81 82  1  0
 82 83  1  0
 83 84  2  0
 85 84  1  0
 85 89  1  0
 86 85  2  0
 87 82  2  0
 87 86  1  0
 88 87  1  0
 90 91  1  0
 91 93  1  0
 91 94  1  0
 92 90  2  0
 95 70  1  0
 95 96  1  0
 97 95  1  0
M  ISO  4  12 101  13 101  56 100  69 100
M  END
>  <TORSDO>  (90) 
F 22

>  <SCORE>  (90) 
-5.516

>  <name>  (90) 
89

>  <ligand_id>  (90) 
89

>  <original_smiles>  (90) 
[H]c1c([H])c([H])c2c(c1[H])C([H])([H])C([H])([H])C([H])([H])C2([H])N([H])C(=O)C1([H])N(C(=O)C([H])(N([H])C(=O)C([H])(N([H])C([H])([H])[H])C([H])([H])[H])C(C([H])([H])[H])(C([H])([H])[H])C([H])([H])[H])C([H])([H])c2c([H])c(OC([H])([H])C([H])([H])C([H])([H])[N+]([H])([H])C3([H])C([H])([H])C([H])([H])C([H])(C([H])([H])C([H])([H])C4([H])C([H])([H])C([H])([H])N(C(=O)N5C([H])([H])C([H])([H])C([H])([H])C([H])(n6nc(-c7c([H])c([H])c(Oc8c([H])c([H])c(F)c([H])c8F)c([H])c7[H])c(C(=O)N([H])[H])c6N([H])[H])C5([H])[H])C([H])([H])C4([H])[H])C([H])([H])C3([H])[H])c([H])c([H])c2C1([H])[H]

>  <smiles>  (90) 
[H]c1c([H])c([H])c2c(c1[H])C([H])([H])C([H])([H])C([H])([H])C2([H])N([H])C(=O)C1([H])N(C(=O)C([H])(N([H])C(=O)C([H])(N([H])C([H])([H])[H])C([H])([H])[H])C(C([H])([H])[H])(C([H])([H])[H])C([H])([H])[H])C([H])([H])c2c([H])c(OC([H])([H])C([H])([H])C([H])([H])[N+]([H])([H])C3([H])C([H])([H])C([H])([H])C([H])(C([H])([H])C([H])([H])C4([H])C([H])([H])C([H])([H])N(C(=O)N5C([H])([H])C([H])([H])C([H])([H])C([H])(n6nc(-c7c([H])c([H])c(Oc8c([H])c([H])c(F)c([H])c8F)c([H])c7[H])c(C(=O)N([H])[H])c6N([H])[H])C5([H])[H])C([H])([H])C4([H])[H])C([H])([H])C3([H])[H])c([H])c([H])c2C1([H])[H]

$$$$
90:0:0
     RDKit          3D

 94102  0  0  1  0  0  0  0  0999 V2000
  -25.3450  -23.0960   18.5150 C   0  0  0  0  0  2  0  0  0  0  0  0
  -26.5210  -23.5570   17.6380 C   0  0  0  0  0  2  0  0  0  0  0  0
  -25.7450  -22.7500   19.9610 C   0  0  0  0  0  2  0  0  0  0  0  0
  -27.8920  -23.2040   18.2450 C   0  0  0  0  0  2  0  0  0  0  0  0
  -26.8290  -23.6860   20.5360 C   0  0  0  0  0  2  0  0  0  0  0  0
  -28.1410  -23.7580   19.6940 C   0  0  1  0  0  0  0  0  0  0  0  0
  -30.6500  -22.8960   19.8090 C   0  0  0  0  0  1  0  0  0  0  0  0
  -29.2240  -22.7210   20.3700 C   0  0  0  0  0  3  0  0  0  0  0  0
  -28.8190  -21.2250   20.3700 N   0  0  0  0  0  4  0  0  0  0  0  0
  -28.0540  -21.1270   21.0180 H   0  0  0  0  0  0  0  0  0  0  0  0
  -28.4480  -21.0280   19.4550 H   0  0  0  0  0  0  0  0  0  0  0  0
  -29.8150  -20.0990   20.6840 C   0  0  0  0  0  2  0  0  0  0  0  0
  -29.3070  -18.5630   20.6360 C   0  0  0  0  0  3  0  0  0  0  0  0
  -30.3630  -17.3700   20.8900 C   0  0  0  0  0  3  0  0  0  0  0  0
  -30.6590  -14.8100   20.4610 C   0  0  0  0  0  0  0  0  0  0  0  0
  -30.4380  -12.5670   19.3870 C   0  0  0  0  0  2  0  0  0  0  0  0
  -29.4970  -12.6890   18.1690 C   0  0  0  0  0  2  0  0  0  0  0  0
  -28.0300  -12.5030   18.6000 C   0  0  0  0  0  2  0  0  0  0  0  0
  -27.6610  -13.3570   19.8430 C   0  0  0  0  0  3  0  0  0  0  0  0
  -28.7250  -13.2420   20.9570 C   0  0  0  0  0  2  0  0  0  0  0  0
  -30.0220  -13.5950   20.3670 N   0  0  0  0  0  0  0  0  0  0  0  0
  -31.8290  -14.9340   20.0900 O   0  0  0  0  0  0  0  0  0  0  0  0
  -29.9100  -15.9170   20.8010 N   0  0  0  0  0  0  0  0  0  0  0  0
  -28.9520  -15.7270   21.0490 H   0  0  0  0  0  0  0  0  0  0  0  0
  -25.2660  -13.9180   20.5720 C   0  0  0  0  0  0  0  0  0  0  0  0
  -24.2110  -13.1320   20.9420 C   0  0  0  0  0  0  0  0  0  0  0  0
  -24.6870  -11.7840   20.8970 C   0  0  0  0  0  0  0  0  0  0  0  0
  -26.3200  -13.0520   20.3300 N   0  0  0  0  0  0  0  0  0  0  0  0
  -25.9770  -11.7630   20.5860 N   0  0  0  0  0  0  0  0  0  0  0  0
  -23.9700  -10.5150   21.0790 C   0  0  0  0  0  0  0  0  0  0  0  0
  -24.4060   -9.5470   22.0110 C   0  0  0  0  0  3  0  0  0  0  0  0
  -23.6890   -8.3420   22.1810 C   0  0  0  0  0  3  0  0  0  0  0  0
  -22.5230   -8.0980   21.4190 C   0  0  0  0  0  0  0  0  0  0  0  0
  -22.1050   -9.0530   20.4750 C   0  0  0  0  0  3  0  0  0  0  0  0
  -22.8230  -10.2480   20.3040 C   0  0  0  0  0  3  0  0  0  0  0  0
  -21.7780   -6.9460   21.4980 O   0  0  0  0  0  0  0  0  0  0  0  0
  -21.7140   -6.2070   22.6520 C   0  0  0  0  0  0  0  0  0  0  0  0
  -21.2280   -6.7520   23.8610 C   0  0  0  0  0  3  0  0  0  0  0  0
  -21.1160   -5.9400   25.0050 C   0  0  0  0  0  3  0  0  0  0  0  0
  -21.4800   -4.5810   24.9430 C   0  0  0  0  0  0  0  0  0  0  0  0
  -21.9580   -4.0340   23.7390 C   0  0  0  0  0  3  0  0  0  0  0  0
  -22.0720   -4.8440   22.5970 C   0  0  0  0  0  0  0  0  0  0  0  0
  -22.5150   -4.3090   21.4330 F   0  0  0  0  0  0  0  0  0  0  0  0
  -21.3650   -3.7950   26.0390 F   0  0  0  0  0  0  0  0  0  0  0  0
  -22.8090  -13.5900   21.2220 C   0  0  0  0  0  0  0  0  0  0  0  0
  -22.0930  -12.8750   22.0800 N   0  0  0  0  0  0  0  0  0  0  0  0
  -22.3610  -14.6190   20.7160 O   0  0  0  0  0  0  0  0  0  0  0  0
  -22.4740  -12.0420   22.5060 H   0  0  0  0  0  0  0  0  0  0  0  0
  -21.1520  -13.1630   22.3150 H   0  0  0  0  0  0  0  0  0  0  0  0
  -25.4070  -15.2930   20.4010 N   0  0  0  0  0  0  0  0  0  0  0  0
  -24.6130  -15.9180   20.4830 H   0  0  0  0  0  0  0  0  0  0  0  0
  -26.2290  -15.7460   20.0240 H   0  0  0  0  0  0  0  0  0  0  0  0
  -28.5250  -25.3390   19.4240 C   0  0  0  0  0  2  0  0  0  0  0  0
  -28.3140  -26.5380   20.2830 O   0  0  0  0  0  0  0  0  0  0  0  0
  -24.5830  -31.9590   23.2510 C   0  0  0  0  0  0  0  0  0  0  0  0
  -27.1940  -27.3910   20.1810 C   0  0  0  0  0  0  0  0  0  0  0  0
  -23.3760  -30.5550   21.6200 C   0  0  0  0  0  3  0  0  0  0  0  0
  -24.8230  -29.0050   20.1880 C   0  0  0  0  0  0  0  0  0  0  0  0
  -25.9130  -30.8780   21.4180 C   0  0  0  0  0  2  0  0  0  0  0  0
  -25.9920  -29.4930   20.7820 C   0  0  0  0  0  0  0  0  0  0  0  0
  -27.1740  -28.6910   20.7810 C   0  0  0  0  0  3  0  0  0  0  0  0
  -26.0050  -26.9680   19.5510 C   0  0  0  0  0  3  0  0  0  0  0  0
  -24.8310  -27.7450   19.5690 C   0  0  0  0  0  3  0  0  0  0  0  0
  -23.5850  -29.8730   20.2410 C   0  0  0  0  0  2  0  0  0  0  0  0
  -24.6440  -31.1500   22.1520 N   0  0  0  0  0  0  0  0  0  0  0  0
  -23.5020  -32.2330   23.7930 O   0  0  0  0  0  0  0  0  0  0  0  0
  -22.7230  -29.5390   22.5870 C   0  0  0  0  0  0  0  0  0  0  0  0
  -21.3970  -29.3480   22.4590 N   0  0  0  0  0  0  0  0  0  0  0  0
  -23.4060  -28.9270   23.4110 O   0  0  0  0  0  0  0  0  0  0  0  0
  -20.9020  -29.8950   21.7670 H   0  0  0  0  0  0  0  0  0  0  0  0
  -18.0370  -28.1150   22.9720 C   0  0  0  0  0  0  0  0  0  0  0  0
  -20.5910  -28.4080   23.2400 C   0  0  0  0  0  3  0  0  0  0  0  0
  -20.7090  -26.9720   22.6760 C   0  0  0  0  0  2  0  0  0  0  0  0
  -19.6120  -26.6280   21.6640 C   0  0  0  0  0  2  0  0  0  0  0  0
  -18.2280  -26.7620   22.3080 C   0  0  0  0  0  2  0  0  0  0  0  0
  -19.1450  -28.8930   23.3970 C   0  0  0  0  0  0  0  0  0  0  0  0
  -18.9130  -30.1550   23.9840 C   0  0  0  0  0  3  0  0  0  0  0  0
  -17.6020  -30.6420   24.1470 C   0  0  0  0  0  3  0  0  0  0  0  0
  -16.5080  -29.8650   23.7330 C   0  0  0  0  0  3  0  0  0  0  0  0
  -16.7250  -28.6030   23.1530 C   0  0  0  0  0  3  0  0  0  0  0  0
  -25.8670  -32.5960   23.8640 C   0  0  0  0  0  3  0  0  0  0  0  0
  -25.5540  -33.9990   24.1830 N   0  0  0  0  0  0  0  0  0  0  0  0
  -25.8930  -35.0470   23.4220 C   0  0  0  0  0  0  0  0  0  0  0  0
  -26.5720  -34.9370   22.3960 O   0  0  0  0  0  0  0  0  0  0  0  0
  -24.9490  -34.1560   24.9760 H   0  0  0  0  0  0  0  0  0  0  0  0
  -24.1850  -36.8530   23.0300 C   0  0  0  0  0  1  0  0  0  0  0  0
  -25.4060  -36.4400   23.8670 C   0  0  0  0  0  3  0  0  0  0  0  0
  -27.5270  -37.3170   24.7430 C   0  0  0  0  0  1  0  0  0  0  0  0
  -26.4470  -37.4850   23.7730 N   0  0  0  0  0  0  0  0  0  0  0  0
  -26.0440  -38.4080   23.9050 H   0  0  0  0  0  0  0  0  0  0  0  0
  -26.3890  -31.8350   25.1460 C   0  0  1  0  0  0  0  0  0  0  0  0
  -25.2980  -31.6010   26.2160 C   0  0  0  0  0  1  0  0  0  0  0  0
  -26.9730  -30.4550   24.7650 C   0  0  0  0  0  1  0  0  0  0  0  0
  -27.5370  -32.6390   25.7990 C   0  0  0  0  0  1  0  0  0  0  0  0
  1  3  1  0
  2  4  1  0
  2  1  1  0
  3  5  1  0
  4  6  1  0
  6  8  1  0
  6  5  1  0
  8  7  1  0
  8  9  1  0
  9 12  1  0
  9 10  1  0
 11  9  1  0
 13 12  1  0
 13 14  2  0
 15 23  1  0
 16 21  1  0
 17 18  1  0
 17 16  1  0
 19 18  1  0
 19 28  1  0
 19 20  1  0
 21 15  1  0
 21 20  1  0
 22 15  2  0
 23 14  1  0
 23 24  1  0
 25 26  2  0
 26 45  1  0
 27 26  1  0
 27 30  1  0
 28 25  1  0
 28 29  1  0
 29 27  2  0
 30 31  1  0
 31 32  2  0
 33 36  1  0
 33 32  1  0
 34 33  2  0
 35 34  1  0
 35 30  2  0
 36 37  1  0
 37 38  1  0
 38 39  2  0
 40 39  1  0
 40 44  1  0
 41 40  2  0
 42 37  2  0
 42 41  1  0
 43 42  1  0
 45 46  1  0
 46 49  1  0
 46 48  1  0
 47 45  2  0
 50 51  1  0
 50 25  1  0
 52 50  1  0
  6 53  1  6
 53 54  1  0
 55 66  2  0
 56 54  1  0
 56 61  1  0
 57 65  1  0
 57 67  1  0
 58 64  1  0
 58 60  1  0
 59 65  1  0
 60 59  1  0
 61 60  2  0
 62 63  1  0
 62 56  2  0
 63 58  2  0
 64 57  1  0
 65 55  1  0
 67 69  2  0
 68 67  1  0
 70 68  1  0
 71 80  2  0
 71 76  1  0
 72 68  1  0
 72 76  1  0
 73 72  1  0
 74 75  1  0
 74 73  1  0
 75 71  1  0
 76 77  2  0
 77 78  1  0
 79 78  2  0
 80 79  1  0
 81 55  1  0
 81 82  1  0
 81 91  1  0
 82 85  1  0
 83 87  1  0
 83 82  1  0
 84 83  2  0
 87 86  1  0
 89 87  1  0
 89 90  1  0
 89 88  1  0
 91 94  1  1
 91 92  1  0
 93 91  1  0
M  ISO  4  15 100  23 100  53 101  54 101
M  END
>  <TORSDO>  (91) 
F 22

>  <SCORE>  (91) 
-13.015

>  <name>  (91) 
90

>  <ligand_id>  (91) 
90

>  <original_smiles>  (91) 
[H]c1c([H])c([H])c2c(c1[H])C([H])([H])C([H])([H])C([H])([H])C2([H])N([H])C(=O)C1([H])N(C(=O)C([H])(N([H])C(=O)C([H])(N([H])C([H])([H])[H])C([H])([H])[H])C(C([H])([H])[H])(C([H])([H])[H])C([H])([H])[H])C([H])([H])c2c([H])c(OC([H])([H])C3(C([H])(C([H])([H])[H])[N+]([H])([H])C([H])([H])C([H])([H])C([H])([H])N([H])C(=O)N4C([H])([H])C([H])([H])C([H])([H])C([H])(n5nc(-c6c([H])c([H])c(Oc7c([H])c([H])c(F)c([H])c7F)c([H])c6[H])c(C(=O)N([H])[H])c5N([H])[H])C4([H])[H])C([H])([H])C([H])([H])C([H])([H])C([H])([H])C3([H])[H])c([H])c([H])c2C1([H])[H]

>  <smiles>  (91) 
[H]c1c([H])c([H])c2c(c1[H])C([H])([H])C([H])([H])C([H])([H])C2([H])N([H])C(=O)C1([H])N(C(=O)C([H])(N([H])C(=O)C([H])(N([H])C([H])([H])[H])C([H])([H])[H])C(C([H])([H])[H])(C([H])([H])[H])C([H])([H])[H])C([H])([H])c2c([H])c(OC([H])([H])C3(C([H])(C([H])([H])[H])[N+]([H])([H])C([H])([H])C([H])([H])C([H])([H])N([H])C(=O)N4C([H])([H])C([H])([H])C([H])([H])C([H])(n5nc(-c6c([H])c([H])c(Oc7c([H])c([H])c(F)c([H])c7F)c([H])c6[H])c(C(=O)N([H])[H])c5N([H])[H])C4([H])[H])C([H])([H])C([H])([H])C([H])([H])C([H])([H])C3([H])[H])c([H])c([H])c2C1([H])[H]

$$$$
91:0:0
     RDKit          3D

 95104  0  0  1  0  0  0  0  0999 V2000
  -32.6090  -23.3110   19.5200 C   0  0  0  0  0  2  0  0  0  0  0  0
  -31.7610  -24.0770   18.5200 C   0  0  0  0  0  2  0  0  0  0  0  0
  -31.8460  -22.0520   19.9150 C   0  0  0  0  0  2  0  0  0  0  0  0
  -30.4670  -24.4860   19.2140 C   0  0  0  0  0  2  0  0  0  0  0  0
  -30.3910  -22.2340   20.4550 C   0  0  0  0  0  3  0  0  0  0  0  0
  -29.6350  -23.3380   19.6900 N   0  0  1  0  0  4  0  0  0  0  0  0
  -29.3590  -22.8660   18.8420 H   0  0  0  0  0  0  0  0  0  0  0  0
  -29.1440  -18.4660   19.6460 C   0  0  0  0  0  3  0  0  0  0  0  0
  -29.9300  -18.3660   20.7660 C   0  0  0  0  0  0  0  0  0  0  0  0
  -30.2730  -19.7000   21.2550 C   0  0  0  0  0  0  0  0  0  0  0  0
  -29.8620  -20.7650   20.4460 C   0  0  0  0  0  0  0  0  0  0  0  0
  -31.1070  -19.8900   22.4950 C   0  0  0  0  0  1  0  0  0  0  0  0
  -28.8850  -20.1310   19.1420 S   0  0  0  0  0  0  0  0  0  0  0  0
  -30.4380  -17.0360   21.3950 C   0  0  0  0  0  2  0  0  0  0  0  0
  -30.6230  -14.6380   20.4790 C   0  0  0  0  0  0  0  0  0  0  0  0
  -30.3660  -12.4310   19.3570 C   0  0  0  0  0  2  0  0  0  0  0  0
  -29.4180  -12.5670   18.1450 C   0  0  0  0  0  2  0  0  0  0  0  0
  -27.9470  -12.4180   18.5840 C   0  0  0  0  0  2  0  0  0  0  0  0
  -27.5990  -13.2740   19.8310 C   0  0  0  0  0  3  0  0  0  0  0  0
  -28.6610  -13.1060   20.9390 C   0  0  0  0  0  2  0  0  0  0  0  0
  -29.9630  -13.4450   20.3510 N   0  0  0  0  0  0  0  0  0  0  0  0
  -31.7810  -14.7750   20.0760 O   0  0  0  0  0  0  0  0  0  0  0  0
  -29.9090  -15.7070   20.9420 N   0  0  0  0  0  0  0  0  0  0  0  0
  -28.9480  -15.5180   21.1820 H   0  0  0  0  0  0  0  0  0  0  0  0
  -25.2100  -13.8780   20.5590 C   0  0  0  0  0  0  0  0  0  0  0  0
  -24.1410  -13.1080   20.9330 C   0  0  0  0  0  0  0  0  0  0  0  0
  -24.6010  -11.7540   20.8980 C   0  0  0  0  0  0  0  0  0  0  0  0
  -26.2510  -12.9960   20.3200 N   0  0  0  0  0  0  0  0  0  0  0  0
  -25.8900  -11.7130   20.5840 N   0  0  0  0  0  0  0  0  0  0  0  0
  -23.8740  -10.4930   21.0910 C   0  0  0  0  0  0  0  0  0  0  0  0
  -24.3220   -9.5140   22.0050 C   0  0  0  0  0  3  0  0  0  0  0  0
  -23.5960   -8.3180   22.1860 C   0  0  0  0  0  3  0  0  0  0  0  0
  -22.4060   -8.0910   21.4520 C   0  0  0  0  0  0  0  0  0  0  0  0
  -21.9790   -9.0590   20.5270 C   0  0  0  0  0  3  0  0  0  0  0  0
  -22.7070  -10.2460   20.3440 C   0  0  0  0  0  3  0  0  0  0  0  0
  -21.6500   -6.9470   21.5410 O   0  0  0  0  0  0  0  0  0  0  0  0
  -21.6350   -6.1810   22.6780 C   0  0  0  0  0  0  0  0  0  0  0  0
  -21.2600   -6.7130   23.9310 C   0  0  0  0  0  3  0  0  0  0  0  0
  -21.1900   -5.8730   25.0600 C   0  0  0  0  0  3  0  0  0  0  0  0
  -21.4860   -4.5030   24.9400 C   0  0  0  0  0  0  0  0  0  0  0  0
  -21.8540   -3.9690   23.6940 C   0  0  0  0  0  3  0  0  0  0  0  0
  -21.9250   -4.8050   22.5640 C   0  0  0  0  0  0  0  0  0  0  0  0
  -22.2570   -4.2810   21.3610 F   0  0  0  0  0  0  0  0  0  0  0  0
  -21.4140   -3.6950   26.0260 F   0  0  0  0  0  0  0  0  0  0  0  0
  -22.7450  -13.5860   21.2090 C   0  0  0  0  0  0  0  0  0  0  0  0
  -22.0190  -12.8900   22.0780 N   0  0  0  0  0  0  0  0  0  0  0  0
  -22.3080  -14.6120   20.6910 O   0  0  0  0  0  0  0  0  0  0  0  0
  -22.3870  -12.0640   22.5210 H   0  0  0  0  0  0  0  0  0  0  0  0
  -21.0820  -13.1940   22.3010 H   0  0  0  0  0  0  0  0  0  0  0  0
  -25.3770  -15.2490   20.3830 N   0  0  0  0  0  0  0  0  0  0  0  0
  -24.6180  -15.9100   20.5020 H   0  0  0  0  0  0  0  0  0  0  0  0
  -26.2240  -15.6820   20.0400 H   0  0  0  0  0  0  0  0  0  0  0  0
  -28.3390  -23.8840   20.2600 C   0  0  0  0  0  2  0  0  0  0  0  0
  -28.3330  -25.3110   20.9800 C   0  0  0  0  0  2  0  0  0  0  0  0
  -28.3930  -26.5670   20.2090 O   0  0  0  0  0  0  0  0  0  0  0  0
  -24.6190  -31.9050   23.2340 C   0  0  0  0  0  0  0  0  0  0  0  0
  -27.2590  -27.3780   20.2060 C   0  0  0  0  0  0  0  0  0  0  0  0
  -23.4170  -30.4900   21.6020 C   0  0  0  0  0  3  0  0  0  0  0  0
  -24.8770  -28.9390   20.1860 C   0  0  0  0  0  0  0  0  0  0  0  0
  -25.9500  -30.8380   21.4050 C   0  0  0  0  0  2  0  0  0  0  0  0
  -26.0410  -29.4570   20.7710 C   0  0  0  0  0  0  0  0  0  0  0  0
  -27.2390  -28.6880   20.7690 C   0  0  0  0  0  3  0  0  0  0  0  0
  -26.0770  -26.8970   19.6070 C   0  0  0  0  0  3  0  0  0  0  0  0
  -24.8960  -27.6640   19.5960 C   0  0  0  0  0  3  0  0  0  0  0  0
  -23.6320  -29.8010   20.2280 C   0  0  0  0  0  2  0  0  0  0  0  0
  -24.6800  -31.0950   22.1380 N   0  0  0  0  0  0  0  0  0  0  0  0
  -23.5370  -32.1780   23.7710 O   0  0  0  0  0  0  0  0  0  0  0  0
  -22.7670  -29.4770   22.5710 C   0  0  0  0  0  0  0  0  0  0  0  0
  -21.4430  -29.2850   22.4450 N   0  0  0  0  0  0  0  0  0  0  0  0
  -23.4520  -28.8620   23.3940 O   0  0  0  0  0  0  0  0  0  0  0  0
  -20.9500  -29.8300   21.7510 H   0  0  0  0  0  0  0  0  0  0  0  0
  -18.0770  -28.0610   22.9410 C   0  0  0  0  0  0  0  0  0  0  0  0
  -20.6310  -28.3480   23.2200 C   0  0  0  0  0  3  0  0  0  0  0  0
  -20.7510  -26.9120   22.6600 C   0  0  0  0  0  2  0  0  0  0  0  0
  -19.6580  -26.5680   21.6430 C   0  0  0  0  0  2  0  0  0  0  0  0
  -18.2710  -26.7060   22.2790 C   0  0  0  0  0  2  0  0  0  0  0  0
  -19.1860  -28.8380   23.3680 C   0  0  0  0  0  0  0  0  0  0  0  0
  -18.9530  -30.1040   23.9460 C   0  0  0  0  0  3  0  0  0  0  0  0
  -17.6420  -30.5960   24.1010 C   0  0  0  0  0  3  0  0  0  0  0  0
  -16.5470  -29.8160   23.6900 C   0  0  0  0  0  3  0  0  0  0  0  0
  -16.7660  -28.5500   23.1160 C   0  0  0  0  0  3  0  0  0  0  0  0
  -25.9020  -32.5480   23.8490 C   0  0  0  0  0  3  0  0  0  0  0  0
  -26.4250  -31.7860   25.1290 C   0  0  1  0  0  0  0  0  0  0  0  0
  -25.3360  -31.5530   26.2020 C   0  0  0  0  0  1  0  0  0  0  0  0
  -27.0110  -30.4070   24.7440 C   0  0  0  0  0  1  0  0  0  0  0  0
  -27.5730  -32.5890   25.7850 C   0  0  0  0  0  1  0  0  0  0  0  0
  -25.5860  -33.9460   24.1720 N   0  0  0  0  0  0  0  0  0  0  0  0
  -25.9120  -34.9970   23.4070 C   0  0  0  0  0  0  0  0  0  0  0  0
  -26.5810  -34.8920   22.3760 O   0  0  0  0  0  0  0  0  0  0  0  0
  -24.9910  -34.1000   24.9720 H   0  0  0  0  0  0  0  0  0  0  0  0
  -24.1740  -36.7800   23.0490 C   0  0  0  0  0  1  0  0  0  0  0  0
  -25.4190  -36.3860   23.8590 C   0  0  0  0  0  3  0  0  0  0  0  0
  -27.5530  -37.2840   24.6780 C   0  0  0  0  0  1  0  0  0  0  0  0
  -26.4460  -37.4430   23.7390 N   0  0  0  0  0  0  0  0  0  0  0  0
  -26.0360  -38.3610   23.8860 H   0  0  0  0  0  0  0  0  0  0  0  0
  1  3  1  0
  2  4  1  0
  2  1  1  0
  3  5  1  0
  4  6  1  0
  5 11  1  0
  6 53  1  0
  6  5  1  0
  6  7  1  6
  8  9  2  0
  9 10  1  0
  9 14  1  0
 10 12  1  0
 11 10  2  0
 13  8  1  0
 13 11  1  0
 15 23  1  0
 16 21  1  0
 17 18  1  0
 17 16  1  0
 19 18  1  0
 19 28  1  0
 19 20  1  0
 21 15  1  0
 21 20  1  0
 22 15  2  0
 23 24  1  0
 23 14  1  0
 25 26  2  0
 26 45  1  0
 27 26  1  0
 27 30  1  0
 28 25  1  0
 28 29  1  0
 29 27  2  0
 30 31  1  0
 31 32  2  0
 33 36  1  0
 33 32  1  0
 34 33  2  0
 35 34  1  0
 35 30  2  0
 36 37  1  0
 37 38  1  0
 38 39  2  0
 40 39  1  0
 40 44  1  0
 41 40  2  0
 42 37  2  0
 42 41  1  0
 43 42  1  0
 45 46  1  0
 46 49  1  0
 46 48  1  0
 47 45  2  0
 50 51  1  0
 50 25  1  0
 52 50  1  0
 53 54  1  0
 55 54  1  0
 56 67  2  0
 57 55  1  0
 57 62  1  0
 58 66  1  0
 58 68  1  0
 59 65  1  0
 59 61  1  0
 60 66  1  0
 61 60  1  0
 62 61  2  0
 63 57  2  0
 64 63  1  0
 64 59  2  0
 65 58  1  0
 66 56  1  0
 68 70  2  0
 69 68  1  0
 71 69  1  0
 72 81  2  0
 72 77  1  0
 73 69  1  0
 73 77  1  0
 74 73  1  0
 75 76  1  0
 75 74  1  0
 76 72  1  0
 77 78  2  0
 78 79  1  0
 80 79  2  0
 81 80  1  0
 82 56  1  0
 82 87  1  0
 82 83  1  0
 83 86  1  1
 83 84  1  0
 85 83  1  0
 87 90  1  0
 88 92  1  0
 88 87  1  0
 89 88  2  0
 92 91  1  0
 94 92  1  0
 94 95  1  0
 94 93  1  0
M  ISO  4  15 100  23 100  54 101  55 101
M  END
>  <TORSDO>  (92) 
F 20

>  <SCORE>  (92) 
-14.092

>  <name>  (92) 
91

>  <ligand_id>  (92) 
91

>  <original_smiles>  (92) 
[H]c1sc(C2([H])C([H])([H])C([H])([H])C([H])([H])C([H])([H])[N+]2([H])C([H])([H])C([H])([H])Oc2c([H])c([H])c3c(c2[H])C([H])([H])N(C(=O)C([H])(N([H])C(=O)C([H])(N([H])C([H])([H])[H])C([H])([H])[H])C(C([H])([H])[H])(C([H])([H])[H])C([H])([H])[H])C([H])(C(=O)N([H])C2([H])c4c([H])c([H])c([H])c([H])c4C([H])([H])C([H])([H])C2([H])[H])C3([H])[H])c(C([H])([H])[H])c1C([H])([H])N([H])C(=O)N1C([H])([H])C([H])([H])C([H])([H])C([H])(n2nc(-c3c([H])c([H])c(Oc4c([H])c([H])c(F)c([H])c4F)c([H])c3[H])c(C(=O)N([H])[H])c2N([H])[H])C1([H])[H]

>  <smiles>  (92) 
[H]c1sc(C2([H])C([H])([H])C([H])([H])C([H])([H])C([H])([H])[N+]2([H])C([H])([H])C([H])([H])Oc2c([H])c([H])c3c(c2[H])C([H])([H])N(C(=O)C([H])(N([H])C(=O)C([H])(N([H])C([H])([H])[H])C([H])([H])[H])C(C([H])([H])[H])(C([H])([H])[H])C([H])([H])[H])C([H])(C(=O)N([H])C2([H])c4c([H])c([H])c([H])c([H])c4C([H])([H])C([H])([H])C2([H])[H])C3([H])[H])c(C([H])([H])[H])c1C([H])([H])N([H])C(=O)N1C([H])([H])C([H])([H])C([H])([H])C([H])(n2nc(-c3c([H])c([H])c(Oc4c([H])c([H])c(F)c([H])c4F)c([H])c3[H])c(C(=O)N([H])[H])c2N([H])[H])C1([H])[H]

$$$$
92:0:0
     RDKit          3D

 97105  0  0  1  0  0  0  0  0999 V2000
  -31.5200  -20.0820   19.4030 C   0  0  0  0  0  2  0  0  0  0  0  0
  -29.4340  -18.3530   16.6480 C   0  0  0  0  0  3  0  0  0  0  0  0
  -29.8340  -19.0830   15.5140 C   0  0  0  0  0  3  0  0  0  0  0  0
  -31.3020  -20.4250   16.9150 C   0  0  0  0  0  3  0  0  0  0  0  0
  -29.9500  -18.6550   17.9280 C   0  0  0  0  0  0  0  0  0  0  0  0
  -30.9050  -19.7000   18.0610 C   0  0  0  0  0  0  0  0  0  0  0  0
  -30.7680  -20.1250   15.6490 C   0  0  0  0  0  0  0  0  0  0  0  0
  -31.1660  -20.8460   14.5610 O   0  0  0  0  0  0  0  0  0  0  0  0
  -30.7410  -20.5750   13.7520 H   0  0  0  0  0  0  0  0  0  0  0  0
  -29.4650  -17.8110   19.1090 C   0  0  0  0  0  2  0  0  0  0  0  0
  -30.5020  -16.7530   19.5130 C   0  0  0  0  0  2  0  0  0  0  0  0
  -30.6900  -14.4810   20.3020 C   0  0  0  0  0  0  0  0  0  0  0  0
  -30.3200  -12.3390   19.2160 C   0  0  0  0  0  2  0  0  0  0  0  0
  -29.3920  -12.5960   18.0130 C   0  0  0  0  0  2  0  0  0  0  0  0
  -27.9190  -12.4700   18.4480 C   0  0  0  0  0  2  0  0  0  0  0  0
  -27.5890  -13.3040   19.7160 C   0  0  0  0  0  3  0  0  0  0  0  0
  -28.6490  -13.1040   20.8240 C   0  0  0  0  0  2  0  0  0  0  0  0
  -29.9770  -13.3340   20.2380 N   0  0  0  0  0  0  0  0  0  0  0  0
  -31.8930  -14.5490   20.0420 O   0  0  0  0  0  0  0  0  0  0  0  0
  -29.9570  -15.6000   20.2360 N   0  0  0  0  0  0  0  0  0  0  0  0
  -28.9630  -15.5400   20.3880 H   0  0  0  0  0  0  0  0  0  0  0  0
  -25.1910  -13.8980   20.4310 C   0  0  0  0  0  0  0  0  0  0  0  0
  -24.1300  -13.1200   20.8100 C   0  0  0  0  0  0  0  0  0  0  0  0
  -24.6020  -11.7730   20.7910 C   0  0  0  0  0  0  0  0  0  0  0  0
  -26.2410  -13.0220   20.2040 N   0  0  0  0  0  0  0  0  0  0  0  0
  -25.8920  -11.7400   20.4810 N   0  0  0  0  0  0  0  0  0  0  0  0
  -23.8880  -10.5070   20.9920 C   0  0  0  0  0  0  0  0  0  0  0  0
  -24.3320   -9.5500   21.9310 C   0  0  0  0  0  3  0  0  0  0  0  0
  -23.6170   -8.3470   22.1200 C   0  0  0  0  0  3  0  0  0  0  0  0
  -22.4450   -8.0930   21.3680 C   0  0  0  0  0  0  0  0  0  0  0  0
  -22.0200   -9.0370   20.4180 C   0  0  0  0  0  3  0  0  0  0  0  0
  -22.7350  -10.2330   20.2280 C   0  0  0  0  0  3  0  0  0  0  0  0
  -21.7010   -6.9420   21.4660 O   0  0  0  0  0  0  0  0  0  0  0  0
  -21.6680   -6.2030   22.6210 C   0  0  0  0  0  0  0  0  0  0  0  0
  -21.2500   -6.7580   23.8490 C   0  0  0  0  0  3  0  0  0  0  0  0
  -21.1660   -5.9460   24.9970 C   0  0  0  0  0  3  0  0  0  0  0  0
  -21.4870   -4.5780   24.9180 C   0  0  0  0  0  0  0  0  0  0  0  0
  -21.8960   -4.0200   23.6940 C   0  0  0  0  0  3  0  0  0  0  0  0
  -21.9850   -4.8310   22.5480 C   0  0  0  0  0  0  0  0  0  0  0  0
  -22.3610   -4.2850   21.3660 F   0  0  0  0  0  0  0  0  0  0  0  0
  -21.3980   -3.7940   26.0180 F   0  0  0  0  0  0  0  0  0  0  0  0
  -22.7290  -13.5890   21.0780 C   0  0  0  0  0  0  0  0  0  0  0  0
  -22.0080  -12.8910   21.9490 N   0  0  0  0  0  0  0  0  0  0  0  0
  -22.2820  -14.6060   20.5520 O   0  0  0  0  0  0  0  0  0  0  0  0
  -22.3830  -12.0710   22.4010 H   0  0  0  0  0  0  0  0  0  0  0  0
  -21.0660  -13.1820   22.1700 H   0  0  0  0  0  0  0  0  0  0  0  0
  -25.3440  -15.2680   20.2410 N   0  0  0  0  0  0  0  0  0  0  0  0
  -24.5700  -15.9150   20.3420 H   0  0  0  0  0  0  0  0  0  0  0  0
  -26.1880  -15.7130   19.9030 H   0  0  0  0  0  0  0  0  0  0  0  0
  -30.6240  -21.0320   20.2060 C   0  0  0  0  0  2  0  0  0  0  0  0
  -30.7460  -22.5010   19.7760 C   0  0  0  0  0  2  0  0  0  0  0  0
  -29.6070  -23.2820   20.2860 N   0  0  0  0  0  4  0  0  0  0  0  0
  -29.4630  -23.0630   21.2600 H   0  0  0  0  0  0  0  0  0  0  0  0
  -28.7890  -22.9740   19.7840 H   0  0  0  0  0  0  0  0  0  0  0  0
  -29.7370  -24.7480   20.1410 C   0  0  0  0  0  2  0  0  0  0  0  0
  -28.3550  -25.3870   20.0120 C   0  0  0  0  0  2  0  0  0  0  0  0
  -28.4220  -26.7800   20.2960 O   0  0  0  0  0  0  0  0  0  0  0  0
  -24.5590  -31.9180   23.3110 C   0  0  0  0  0  0  0  0  0  0  0  0
  -27.2280  -27.4670   20.2860 C   0  0  0  0  0  0  0  0  0  0  0  0
  -23.3680  -30.5040   21.6710 C   0  0  0  0  0  3  0  0  0  0  0  0
  -24.8310  -28.9610   20.2770 C   0  0  0  0  0  0  0  0  0  0  0  0
  -25.8960  -30.8650   21.4940 C   0  0  0  0  0  2  0  0  0  0  0  0
  -25.9850  -29.4910   20.8680 C   0  0  0  0  0  0  0  0  0  0  0  0
  -27.1870  -28.7510   20.8700 C   0  0  0  0  0  3  0  0  0  0  0  0
  -26.0470  -26.9440   19.7040 C   0  0  0  0  0  3  0  0  0  0  0  0
  -24.8550  -27.6840   19.6990 C   0  0  0  0  0  3  0  0  0  0  0  0
  -23.5890  -29.8190   20.2990 C   0  0  0  0  0  2  0  0  0  0  0  0
  -24.6260  -31.1090   22.2170 N   0  0  0  0  0  0  0  0  0  0  0  0
  -23.4720  -32.1970   23.8360 O   0  0  0  0  0  0  0  0  0  0  0  0
  -22.7100  -29.4860   22.6280 C   0  0  0  0  0  0  0  0  0  0  0  0
  -21.3890  -29.2960   22.4790 N   0  0  0  0  0  0  0  0  0  0  0  0
  -23.3850  -28.8700   23.4570 O   0  0  0  0  0  0  0  0  0  0  0  0
  -20.9070  -29.8480   21.7830 H   0  0  0  0  0  0  0  0  0  0  0  0
  -18.0110  -28.1010   22.9270 C   0  0  0  0  0  0  0  0  0  0  0  0
  -20.5610  -28.3650   23.2460 C   0  0  0  0  0  3  0  0  0  0  0  0
  -20.6780  -26.9280   22.6870 C   0  0  0  0  0  2  0  0  0  0  0  0
  -19.5960  -26.5920   21.6570 C   0  0  0  0  0  2  0  0  0  0  0  0
  -18.2030  -26.7420   22.2730 C   0  0  0  0  0  2  0  0  0  0  0  0
  -19.1200  -28.8690   23.3690 C   0  0  0  0  0  0  0  0  0  0  0  0
  -18.8900  -30.1410   23.9390 C   0  0  0  0  0  3  0  0  0  0  0  0
  -17.5820  -30.6430   24.0720 C   0  0  0  0  0  3  0  0  0  0  0  0
  -16.4860  -29.8720   23.6480 C   0  0  0  0  0  3  0  0  0  0  0  0
  -16.7010  -28.6030   23.0800 C   0  0  0  0  0  3  0  0  0  0  0  0
  -25.8410  -32.5510   23.9390 C   0  0  0  0  0  3  0  0  0  0  0  0
  -26.3320  -31.8000   25.2360 C   0  0  1  0  0  0  0  0  0  0  0  0
  -25.2210  -31.5920   26.2900 C   0  0  0  0  0  1  0  0  0  0  0  0
  -26.9130  -30.4130   24.8770 C   0  0  0  0  0  1  0  0  0  0  0  0
  -27.4780  -32.5990   25.9020 C   0  0  0  0  0  1  0  0  0  0  0  0
  -25.5390  -33.9580   24.2330 N   0  0  0  0  0  0  0  0  0  0  0  0
  -25.8960  -34.9890   23.4570 C   0  0  0  0  0  0  0  0  0  0  0  0
  -26.5840  -34.8560   22.4420 O   0  0  0  0  0  0  0  0  0  0  0  0
  -24.9290  -34.1370   25.0180 H   0  0  0  0  0  0  0  0  0  0  0  0
  -24.1880  -36.7820   23.0260 C   0  0  0  0  0  1  0  0  0  0  0  0
  -25.4080  -36.3890   23.8740 C   0  0  0  0  0  3  0  0  0  0  0  0
  -27.5290  -37.2750   24.7330 C   0  0  0  0  0  1  0  0  0  0  0  0
  -26.4500  -37.4320   23.7600 N   0  0  0  0  0  0  0  0  0  0  0  0
  -26.0470  -38.3570   23.8830 H   0  0  0  0  0  0  0  0  0  0  0  0
  1 50  1  0
  2  5  1  0
  3  7  1  0
  3  2  2  0
  4  6  1  0
  5  6  2  0
  5 10  1  0
  6  1  1  0
  7  4  2  0
  8  7  1  0
  9  8  1  0
 10 11  1  0
 11 20  1  0
 13 18  1  0
 14 15  1  0
 14 13  1  0
 16 15  1  0
 16 25  1  0
 16 17  1  0
 18 12  1  0
 18 17  1  0
 19 12  2  0
 20 12  1  0
 20 21  1  0
 22 23  2  0
 23 42  1  0
 24 23  1  0
 24 27  1  0
 25 22  1  0
 25 26  1  0
 26 24  2  0
 27 28  1  0
 28 29  2  0
 30 33  1  0
 30 29  1  0
 31 30  2  0
 32 31  1  0
 32 27  2  0
 33 34  1  0
 34 35  1  0
 35 36  2  0
 37 36  1  0
 37 41  1  0
 38 37  2  0
 39 34  2  0
 39 38  1  0
 40 39  1  0
 42 43  1  0
 43 46  1  0
 43 45  1  0
 44 42  2  0
 47 48  1  0
 47 22  1  0
 49 47  1  0
 51 50  1  0
 51 52  1  0
 52 53  1  0
 54 52  1  0
 55 52  1  0
 56 55  1  0
 56 57  1  0
 58 69  2  0
 59 57  1  0
 59 64  1  0
 60 68  1  0
 60 70  1  0
 61 67  1  0
 61 63  1  0
 62 68  1  0
 63 64  2  0
 63 62  1  0
 65 59  2  0
 66 65  1  0
 66 61  2  0
 67 60  1  0
 68 58  1  0
 70 72  2  0
 71 70  1  0
 73 71  1  0
 74 83  2  0
 74 79  1  0
 75 71  1  0
 75 79  1  0
 76 75  1  0
 77 78  1  0
 77 76  1  0
 78 74  1  0
 79 80  2  0
 80 81  1  0
 82 81  2  0
 83 82  1  0
 84 58  1  0
 84 89  1  0
 84 85  1  0
 85 88  1  1
 85 86  1  0
 87 85  1  0
 89 92  1  0
 90 94  1  0
 90 89  1  0
 91 90  2  0
 94 93  1  0
 96 94  1  0
 96 97  1  0
 96 95  1  0
M  ISO  4  12 100  20 100  56 101  57 101
M  END
>  <TORSDO>  (93) 
F 25

>  <SCORE>  (93) 
-12.266

>  <name>  (93) 
92

>  <ligand_id>  (93) 
92

>  <original_smiles>  (93) 
[H]Oc1c([H])c([H])c(C([H])([H])C([H])([H])N([H])C(=O)N2C([H])([H])C([H])([H])C([H])([H])C([H])(n3nc(-c4c([H])c([H])c(Oc5c([H])c([H])c(F)c([H])c5F)c([H])c4[H])c(C(=O)N([H])[H])c3N([H])[H])C2([H])[H])c(C([H])([H])C([H])([H])C([H])([H])[N+]([H])([H])C([H])([H])C([H])([H])Oc2c([H])c([H])c3c(c2[H])C([H])([H])N(C(=O)C([H])(N([H])C(=O)C([H])(N([H])C([H])([H])[H])C([H])([H])[H])C(C([H])([H])[H])(C([H])([H])[H])C([H])([H])[H])C([H])(C(=O)N([H])C2([H])c4c([H])c([H])c([H])c([H])c4C([H])([H])C([H])([H])C2([H])[H])C3([H])[H])c1[H]

>  <smiles>  (93) 
[H]Oc1c([H])c([H])c(C([H])([H])C([H])([H])N([H])C(=O)N2C([H])([H])C([H])([H])C([H])([H])C([H])(n3nc(-c4c([H])c([H])c(Oc5c([H])c([H])c(F)c([H])c5F)c([H])c4[H])c(C(=O)N([H])[H])c3N([H])[H])C2([H])[H])c(C([H])([H])C([H])([H])C([H])([H])[N+]([H])([H])C([H])([H])C([H])([H])Oc2c([H])c([H])c3c(c2[H])C([H])([H])N(C(=O)C([H])(N([H])C(=O)C([H])(N([H])C([H])([H])[H])C([H])([H])[H])C(C([H])([H])[H])(C([H])([H])[H])C([H])([H])[H])C([H])(C(=O)N([H])C2([H])c4c([H])c([H])c([H])c([H])c4C([H])([H])C([H])([H])C2([H])[H])C3([H])[H])c1[H]

$$$$
93:0:0
     RDKit          3D

 91 99  0  0  1  0  0  0  0  0999 V2000
  -29.3020  -20.9270   21.0460 N   0  0  0  0  0  4  0  0  0  0  0  0
  -30.2090  -21.2500   21.3580 H   0  0  0  0  0  0  0  0  0  0  0  0
  -28.7340  -20.9570   21.8810 H   0  0  0  0  0  0  0  0  0  0  0  0
  -29.5410  -19.3880   20.6970 C   0  0  0  0  0  3  0  0  0  0  0  0
  -30.6630  -18.8290   21.2910 C   0  0  0  0  0  0  0  0  0  0  0  0
  -28.6320  -18.4780   19.9470 C   0  0  0  0  0  0  0  0  0  0  0  0
  -31.0710  -17.3200   21.1170 C   0  0  0  0  0  2  0  0  0  0  0  0
  -28.9960  -16.9500   19.7500 C   0  0  0  0  0  2  0  0  0  0  0  0
  -29.9530  -16.2480   20.7950 C   0  0  0  0  0  3  0  0  0  0  0  0
  -31.5060  -19.4090   22.0110 O   0  0  0  0  0  0  0  0  0  0  0  0
  -27.5890  -18.9010   19.4520 O   0  0  0  0  0  0  0  0  0  0  0  0
  -30.5940  -14.8110   20.3660 C   0  0  0  0  0  0  0  0  0  0  0  0
  -30.3760  -12.5100   19.3890 C   0  0  0  0  0  2  0  0  0  0  0  0
  -29.4520  -12.5690   18.1530 C   0  0  0  0  0  2  0  0  0  0  0  0
  -27.9840  -12.3820   18.5750 C   0  0  0  0  0  2  0  0  0  0  0  0
  -27.5980  -13.2850   19.7770 C   0  0  0  0  0  3  0  0  0  0  0  0
  -28.6500  -13.2450   20.9060 C   0  0  0  0  0  2  0  0  0  0  0  0
  -29.9500  -13.5870   20.3240 N   0  0  0  0  0  0  0  0  0  0  0  0
  -31.7620  -14.8370   19.9670 O   0  0  0  0  0  0  0  0  0  0  0  0
  -25.2110  -13.8630   20.5080 C   0  0  0  0  0  0  0  0  0  0  0  0
  -24.1490  -13.0860   20.8830 C   0  0  0  0  0  0  0  0  0  0  0  0
  -24.6210  -11.7370   20.8610 C   0  0  0  0  0  0  0  0  0  0  0  0
  -26.2580  -12.9890   20.2740 N   0  0  0  0  0  0  0  0  0  0  0  0
  -25.9110  -11.7050   20.5510 N   0  0  0  0  0  0  0  0  0  0  0  0
  -23.8990  -10.4720   21.0540 C   0  0  0  0  0  0  0  0  0  0  0  0
  -24.3450   -9.5020   21.9790 C   0  0  0  0  0  3  0  0  0  0  0  0
  -23.6230   -8.3030   22.1620 C   0  0  0  0  0  3  0  0  0  0  0  0
  -22.4420   -8.0670   21.4210 C   0  0  0  0  0  0  0  0  0  0  0  0
  -22.0160   -9.0240   20.4840 C   0  0  0  0  0  3  0  0  0  0  0  0
  -22.7380  -10.2140   20.2990 C   0  0  0  0  0  3  0  0  0  0  0  0
  -21.6900   -6.9210   21.5140 O   0  0  0  0  0  0  0  0  0  0  0  0
  -21.6680   -6.1660   22.6600 C   0  0  0  0  0  0  0  0  0  0  0  0
  -21.2740   -6.7090   23.9020 C   0  0  0  0  0  3  0  0  0  0  0  0
  -21.1990   -5.8800   25.0400 C   0  0  0  0  0  3  0  0  0  0  0  0
  -21.5070   -4.5110   24.9360 C   0  0  0  0  0  0  0  0  0  0  0  0
  -21.8930   -3.9670   23.6990 C   0  0  0  0  0  3  0  0  0  0  0  0
  -21.9700   -4.7930   22.5630 C   0  0  0  0  0  0  0  0  0  0  0  0
  -22.3220   -4.2590   21.3670 F   0  0  0  0  0  0  0  0  0  0  0  0
  -21.4270   -3.7130   26.0260 F   0  0  0  0  0  0  0  0  0  0  0  0
  -22.7490  -13.5580   21.1490 C   0  0  0  0  0  0  0  0  0  0  0  0
  -22.0230  -12.8650   22.0190 N   0  0  0  0  0  0  0  0  0  0  0  0
  -22.3070  -14.5780   20.6190 O   0  0  0  0  0  0  0  0  0  0  0  0
  -22.3920  -12.0430   22.4730 H   0  0  0  0  0  0  0  0  0  0  0  0
  -21.0830  -13.1620   22.2370 H   0  0  0  0  0  0  0  0  0  0  0  0
  -25.3660  -15.2330   20.3230 N   0  0  0  0  0  0  0  0  0  0  0  0
  -24.5920  -15.8810   20.4270 H   0  0  0  0  0  0  0  0  0  0  0  0
  -26.2000  -15.6750   19.9630 H   0  0  0  0  0  0  0  0  0  0  0  0
  -28.7500  -22.0670   20.1600 C   0  0  0  0  0  2  0  0  0  0  0  0
  -28.8890  -23.6220   20.6820 C   0  0  0  0  0  3  0  0  0  0  0  0
  -28.0340  -24.8450   20.0190 C   0  0  0  0  0  3  0  0  0  0  0  0
  -28.2410  -26.3200   20.3280 O   0  0  0  0  0  0  0  0  0  0  0  0
  -24.5970  -31.8940   23.2620 C   0  0  0  0  0  0  0  0  0  0  0  0
  -27.1640  -27.2460   20.2280 C   0  0  0  0  0  0  0  0  0  0  0  0
  -23.3870  -30.5000   21.6280 C   0  0  0  0  0  3  0  0  0  0  0  0
  -24.8270  -28.9360   20.1980 C   0  0  0  0  0  0  0  0  0  0  0  0
  -25.9330  -30.7840   21.4510 C   0  0  0  0  0  2  0  0  0  0  0  0
  -26.0040  -29.4010   20.8000 C   0  0  0  0  0  0  0  0  0  0  0  0
  -27.1720  -28.5660   20.8090 C   0  0  0  0  0  3  0  0  0  0  0  0
  -25.9700  -26.8710   19.5710 C   0  0  0  0  0  3  0  0  0  0  0  0
  -24.8190  -27.6810   19.5710 C   0  0  0  0  0  3  0  0  0  0  0  0
  -23.5970  -29.8220   20.2470 C   0  0  0  0  0  2  0  0  0  0  0  0
  -24.6580  -31.0780   22.1700 N   0  0  0  0  0  0  0  0  0  0  0  0
  -23.5160  -32.1810   23.7970 O   0  0  0  0  0  0  0  0  0  0  0  0
  -22.7160  -29.4910   22.5940 C   0  0  0  0  0  0  0  0  0  0  0  0
  -21.3900  -29.3140   22.4650 N   0  0  0  0  0  0  0  0  0  0  0  0
  -23.3900  -28.8690   23.4190 O   0  0  0  0  0  0  0  0  0  0  0  0
  -20.9060  -29.8670   21.7720 H   0  0  0  0  0  0  0  0  0  0  0  0
  -18.0100  -28.1180   22.9620 C   0  0  0  0  0  0  0  0  0  0  0  0
  -20.5680  -28.3820   23.2400 C   0  0  0  0  0  3  0  0  0  0  0  0
  -20.6730  -26.9470   22.6760 C   0  0  0  0  0  2  0  0  0  0  0  0
  -19.5750  -26.6150   21.6620 C   0  0  0  0  0  2  0  0  0  0  0  0
  -18.1900  -26.7640   22.2970 C   0  0  0  0  0  2  0  0  0  0  0  0
  -19.1260  -28.8840   23.3910 C   0  0  0  0  0  0  0  0  0  0  0  0
  -18.9040  -30.1510   23.9740 C   0  0  0  0  0  3  0  0  0  0  0  0
  -17.5970  -30.6510   24.1320 C   0  0  0  0  0  3  0  0  0  0  0  0
  -16.4960  -29.8800   23.7230 C   0  0  0  0  0  3  0  0  0  0  0  0
  -16.7030  -28.6160   23.1410 C   0  0  0  0  0  3  0  0  0  0  0  0
  -25.8790  -32.5260   23.8820 C   0  0  0  0  0  3  0  0  0  0  0  0
  -26.3880  -31.7650   25.1670 C   0  0  1  0  0  0  0  0  0  0  0  0
  -25.2910  -31.5440   26.2360 C   0  0  0  0  0  1  0  0  0  0  0  0
  -26.9650  -30.3810   24.7930 C   0  0  0  0  0  1  0  0  0  0  0  0
  -27.5450  -32.5570   25.8220 C   0  0  0  0  0  1  0  0  0  0  0  0
  -25.5770  -33.9290   24.2020 N   0  0  0  0  0  0  0  0  0  0  0  0
  -25.9130  -34.9780   23.4380 C   0  0  0  0  0  0  0  0  0  0  0  0
  -26.5790  -34.8630   22.4050 O   0  0  0  0  0  0  0  0  0  0  0  0
  -24.9870  -34.0900   25.0040 H   0  0  0  0  0  0  0  0  0  0  0  0
  -24.1900  -36.7770   23.0840 C   0  0  0  0  0  1  0  0  0  0  0  0
  -25.4340  -36.3720   23.8910 C   0  0  0  0  0  3  0  0  0  0  0  0
  -27.5770  -37.2490   24.7040 C   0  0  0  0  0  1  0  0  0  0  0  0
  -26.4710  -37.4190   23.7670 N   0  0  0  0  0  0  0  0  0  0  0  0
  -26.0700  -38.3430   23.9140 H   0  0  0  0  0  0  0  0  0  0  0  0
  1  2  1  0
  1  3  1  0
  4  1  1  0
  4  5  1  0
  5 10  2  0
  6  4  1  0
  7  5  1  0
  8  6  1  0
  8  9  1  0
  9 12  1  0
  9  7  1  0
 11  6  2  0
 13 18  1  0
 14 15  1  0
 14 13  1  0
 16 15  1  0
 16 23  1  0
 16 17  1  0
 18 12  1  0
 18 17  1  0
 19 12  2  0
 20 21  2  0
 21 40  1  0
 22 21  1  0
 22 25  1  0
 23 20  1  0
 23 24  1  0
 24 22  2  0
 25 26  1  0
 26 27  2  0
 28 31  1  0
 28 27  1  0
 29 28  2  0
 30 29  1  0
 30 25  2  0
 31 32  1  0
 32 33  1  0
 33 34  2  0
 35 34  1  0
 35 39  1  0
 36 35  2  0
 37 32  2  0
 37 36  1  0
 38 37  1  0
 40 41  1  0
 41 44  1  0
 41 43  1  0
 42 40  2  0
 45 46  1  0
 45 20  1  0
 47 45  1  0
 48 49  1  0
 48  1  1  0
 50 51  1  0
 50 49  2  0
 52 63  2  0
 53 51  1  0
 53 58  1  0
 54 62  1  0
 54 64  1  0
 55 61  1  0
 55 57  1  0
 56 62  1  0
 57 58  2  0
 57 56  1  0
 59 53  2  0
 60 59  1  0
 60 55  2  0
 61 54  1  0
 62 52  1  0
 64 66  2  0
 65 64  1  0
 67 65  1  0
 68 77  2  0
 68 73  1  0
 69 65  1  0
 69 73  1  0
 70 69  1  0
 71 72  1  0
 71 70  1  0
 72 68  1  0
 73 74  2  0
 74 75  1  0
 76 75  2  0
 77 76  1  0
 78 52  1  0
 78 83  1  0
 78 79  1  0
 79 82  1  1
 79 80  1  0
 81 79  1  0
 83 86  1  0
 84 88  1  0
 84 83  1  0
 85 84  2  0
 88 87  1  0
 90 88  1  0
 90 91  1  0
 90 89  1  0
M  ISO  4   9 100  12 100  50 101  51 101
M  END
>  <TORSDO>  (94) 
F 20

>  <SCORE>  (94) 
-14.135

>  <name>  (94) 
93

>  <ligand_id>  (94) 
93

>  <original_smiles>  (94) 
[H]c1c([H])c([H])c2c(c1[H])C([H])([H])C([H])([H])C([H])([H])C2([H])N([H])C(=O)C1([H])N(C(=O)C([H])(N([H])C(=O)C([H])(N([H])C([H])([H])[H])C([H])([H])[H])C(C([H])([H])[H])(C([H])([H])[H])C([H])([H])[H])C([H])([H])c2c([H])c(OC([H])([H])C([H])([H])C([H])([H])[N+]([H])([H])C3=C([O-])C([H])([H])C([H])(C(=O)N4C([H])([H])C([H])([H])C([H])([H])C([H])(n5nc(-c6c([H])c([H])c(Oc7c([H])c([H])c(F)c([H])c7F)c([H])c6[H])c(C(=O)N([H])[H])c5N([H])[H])C4([H])[H])C([H])([H])C3=O)c([H])c([H])c2C1([H])[H]

>  <smiles>  (94) 
[H]c1c([H])c([H])c2c(c1[H])C([H])([H])C([H])([H])C([H])([H])C2([H])N([H])C(=O)C1([H])N(C(=O)C([H])(N([H])C(=O)C([H])(N([H])C([H])([H])[H])C([H])([H])[H])C(C([H])([H])[H])(C([H])([H])[H])C([H])([H])[H])C([H])([H])c2c([H])c(OC([H])([H])C([H])([H])C([H])([H])[N+]([H])([H])C3=C([O-])C([H])([H])C([H])(C(=O)N4C([H])([H])C([H])([H])C([H])([H])C([H])(n5nc(-c6c([H])c([H])c(Oc7c([H])c([H])c(F)c([H])c7F)c([H])c6[H])c(C(=O)N([H])[H])c5N([H])[H])C4([H])[H])C([H])([H])C3=O)c([H])c([H])c2C1([H])[H]

$$$$
94:0:0
     RDKit          3D

 99107  0  0  1  0  0  0  0  0999 V2000
  -27.8670  -23.8610   20.6670 C   0  0  0  0  0  3  0  0  0  0  0  0
  -26.9810  -23.7490   18.4040 C   0  0  0  0  0  3  0  0  0  0  0  0
  -26.2520  -22.1340   20.0750 C   0  0  0  0  0  3  0  0  0  0  0  0
  -27.7860  -24.3960   19.3680 C   0  0  0  0  0  0  0  0  0  0  0  0
  -27.1070  -22.7300   21.0340 C   0  0  0  0  0  0  0  0  0  0  0  0
  -26.1930  -22.6380   18.7640 C   0  0  0  0  0  0  0  0  0  0  0  0
  -25.3330  -22.0540   17.8380 N   0  0  0  0  0  0  0  0  0  0  0  0
  -25.3610  -22.2930   16.8520 H   0  0  0  0  0  0  0  0  0  0  0  0
  -24.8560  -21.1800   18.0390 H   0  0  0  0  0  0  0  0  0  0  0  0
  -25.8550  -22.3350   23.2270 C   0  0  0  0  0  1  0  0  0  0  0  0
  -27.1860  -22.2020   22.4630 C   0  0  0  0  0  3  0  0  0  0  0  0
  -27.8060  -20.8550   22.5130 N   0  0  0  0  0  4  0  0  0  0  0  0
  -28.4230  -20.7900   21.7190 H   0  0  0  0  0  0  0  0  0  0  0  0
  -28.3880  -20.8240   23.3380 H   0  0  0  0  0  0  0  0  0  0  0  0
  -26.9020  -19.6810   22.5270 C   0  0  0  0  0  2  0  0  0  0  0  0
  -27.6410  -18.3600   22.2470 C   0  0  0  0  0  2  0  0  0  0  0  0
  -28.6260  -17.9420   23.3580 C   0  0  0  0  0  2  0  0  0  0  0  0
  -29.1660  -16.5140   23.2050 C   0  0  0  0  0  2  0  0  0  0  0  0
  -30.0460  -16.2950   21.9670 C   0  0  0  0  0  2  0  0  0  0  0  0
  -30.7610  -14.2960   20.7340 C   0  0  0  0  0  0  0  0  0  0  0  0
  -30.4330  -12.2790   19.3620 C   0  0  0  0  0  2  0  0  0  0  0  0
  -29.4860  -12.5680   18.1800 C   0  0  0  0  0  2  0  0  0  0  0  0
  -28.0080  -12.4180   18.5960 C   0  0  0  0  0  2  0  0  0  0  0  0
  -27.6780  -13.1980   19.8930 C   0  0  0  0  0  3  0  0  0  0  0  0
  -28.7160  -12.8650   20.9910 C   0  0  0  0  0  2  0  0  0  0  0  0
  -30.0770  -13.1590   20.4780 N   0  0  0  0  0  0  0  0  0  0  0  0
  -31.7050  -14.7290   20.0620 O   0  0  0  0  0  0  0  0  0  0  0  0
  -30.3370  -14.8840   21.8490 N   0  0  0  0  0  0  0  0  0  0  0  0
  -29.7340  -14.2730   22.3820 H   0  0  0  0  0  0  0  0  0  0  0  0
  -25.2640  -13.8140   20.5670 C   0  0  0  0  0  0  0  0  0  0  0  0
  -24.1900  -13.0450   20.9150 C   0  0  0  0  0  0  0  0  0  0  0  0
  -24.6420  -11.6880   20.8700 C   0  0  0  0  0  0  0  0  0  0  0  0
  -26.3120  -12.9290   20.3450 N   0  0  0  0  0  0  0  0  0  0  0  0
  -25.9350  -11.6470   20.5780 N   0  0  0  0  0  0  0  0  0  0  0  0
  -23.9080  -10.4280   21.0380 C   0  0  0  0  0  0  0  0  0  0  0  0
  -24.3620   -9.4210   21.9160 C   0  0  0  0  0  3  0  0  0  0  0  0
  -23.6280   -8.2250   22.0760 C   0  0  0  0  0  3  0  0  0  0  0  0
  -22.4260   -8.0270   21.3550 C   0  0  0  0  0  0  0  0  0  0  0  0
  -21.9890   -9.0260   20.4660 C   0  0  0  0  0  3  0  0  0  0  0  0
  -22.7230  -10.2130   20.3040 C   0  0  0  0  0  3  0  0  0  0  0  0
  -21.6630   -6.8870   21.4230 O   0  0  0  0  0  0  0  0  0  0  0  0
  -21.6860   -6.0720   22.5260 C   0  0  0  0  0  0  0  0  0  0  0  0
  -21.4020   -6.5620   23.8200 C   0  0  0  0  0  3  0  0  0  0  0  0
  -21.3660   -5.6780   24.9150 C   0  0  0  0  0  3  0  0  0  0  0  0
  -21.6050   -4.3050   24.7220 C   0  0  0  0  0  0  0  0  0  0  0  0
  -21.8810   -3.8130   23.4350 C   0  0  0  0  0  3  0  0  0  0  0  0
  -21.9190   -4.6940   22.3390 C   0  0  0  0  0  0  0  0  0  0  0  0
  -22.1650   -4.2130   21.0980 F   0  0  0  0  0  0  0  0  0  0  0  0
  -21.5640   -3.4530   25.7740 F   0  0  0  0  0  0  0  0  0  0  0  0
  -22.7910  -13.5230   21.1800 C   0  0  0  0  0  0  0  0  0  0  0  0
  -22.0550  -12.8260   22.0380 N   0  0  0  0  0  0  0  0  0  0  0  0
  -22.3610  -14.5530   20.6610 O   0  0  0  0  0  0  0  0  0  0  0  0
  -22.4180  -11.9960   22.4770 H   0  0  0  0  0  0  0  0  0  0  0  0
  -21.1190  -13.1330   22.2570 H   0  0  0  0  0  0  0  0  0  0  0  0
  -25.4390  -15.1860   20.4040 N   0  0  0  0  0  0  0  0  0  0  0  0
  -24.6650  -15.8380   20.4780 H   0  0  0  0  0  0  0  0  0  0  0  0
  -26.2950  -15.6140   20.0730 H   0  0  0  0  0  0  0  0  0  0  0  0
  -28.5230  -25.6850   19.0230 C   0  0  0  0  0  2  0  0  0  0  0  0
  -28.3910  -26.7330   20.0000 O   0  0  0  0  0  0  0  0  0  0  0  0
  -24.6140  -31.8730   23.2180 C   0  0  0  0  0  0  0  0  0  0  0  0
  -27.2100  -27.4490   20.0460 C   0  0  0  0  0  0  0  0  0  0  0  0
  -23.3960  -30.5070   21.5590 C   0  0  0  0  0  3  0  0  0  0  0  0
  -24.8320  -28.9840   20.1150 C   0  0  0  0  0  0  0  0  0  0  0  0
  -25.9290  -30.8350   21.3770 C   0  0  0  0  0  2  0  0  0  0  0  0
  -25.9980  -29.4750   20.7170 C   0  0  0  0  0  0  0  0  0  0  0  0
  -27.1870  -28.7070   20.6940 C   0  0  0  0  0  3  0  0  0  0  0  0
  -26.0150  -26.9790   19.4540 C   0  0  0  0  0  3  0  0  0  0  0  0
  -24.8340  -27.7310   19.4900 C   0  0  0  0  0  3  0  0  0  0  0  0
  -23.6040  -29.8580   20.1680 C   0  0  0  0  0  2  0  0  0  0  0  0
  -24.6650  -31.0840   22.1090 N   0  0  0  0  0  0  0  0  0  0  0  0
  -23.5340  -32.1480   23.7590 O   0  0  0  0  0  0  0  0  0  0  0  0
  -22.7390  -29.4690   22.4990 C   0  0  0  0  0  0  0  0  0  0  0  0
  -21.4120  -29.3010   22.3710 N   0  0  0  0  0  0  0  0  0  0  0  0
  -23.4180  -28.8230   23.3020 O   0  0  0  0  0  0  0  0  0  0  0  0
  -20.9240  -29.8690   21.6910 H   0  0  0  0  0  0  0  0  0  0  0  0
  -18.0300  -28.1400   22.8530 C   0  0  0  0  0  0  0  0  0  0  0  0
  -20.5870  -28.3680   23.1370 C   0  0  0  0  0  3  0  0  0  0  0  0
  -20.6790  -26.9390   22.5560 C   0  0  0  0  0  2  0  0  0  0  0  0
  -19.5790  -26.6260   21.5400 C   0  0  0  0  0  2  0  0  0  0  0  0
  -18.1960  -26.7900   22.1760 C   0  0  0  0  0  2  0  0  0  0  0  0
  -19.1540  -28.8870   23.2910 C   0  0  0  0  0  0  0  0  0  0  0  0
  -18.9450  -30.1500   23.8890 C   0  0  0  0  0  3  0  0  0  0  0  0
  -17.6430  -30.6610   24.0550 C   0  0  0  0  0  3  0  0  0  0  0  0
  -16.5360  -29.9090   23.6320 C   0  0  0  0  0  3  0  0  0  0  0  0
  -16.7290  -28.6510   23.0370 C   0  0  0  0  0  3  0  0  0  0  0  0
  -25.9050  -32.4840   23.8430 C   0  0  0  0  0  3  0  0  0  0  0  0
  -26.4500  -31.6620   25.0750 C   0  0  1  0  0  0  0  0  0  0  0  0
  -25.3760  -31.3740   26.1470 C   0  0  0  0  0  1  0  0  0  0  0  0
  -27.0290  -30.3040   24.6140 C   0  0  0  0  0  1  0  0  0  0  0  0
  -27.6070  -32.4330   25.7510 C   0  0  0  0  0  1  0  0  0  0  0  0
  -25.5910  -33.8650   24.2330 N   0  0  0  0  0  0  0  0  0  0  0  0
  -25.9050  -34.9490   23.5110 C   0  0  0  0  0  0  0  0  0  0  0  0
  -26.5570  -34.8920   22.4650 O   0  0  0  0  0  0  0  0  0  0  0  0
  -25.0090  -33.9850   25.0490 H   0  0  0  0  0  0  0  0  0  0  0  0
  -24.1500  -36.7320   23.2630 C   0  0  0  0  0  1  0  0  0  0  0  0
  -25.4120  -36.3110   24.0330 C   0  0  0  0  0  3  0  0  0  0  0  0
  -27.5580  -37.1820   24.8450 C   0  0  0  0  0  1  0  0  0  0  0  0
  -26.4300  -37.3780   23.9410 N   0  0  0  0  0  0  0  0  0  0  0  0
  -26.0180  -38.2850   24.1390 H   0  0  0  0  0  0  0  0  0  0  0  0
  1  5  1  0
  2  6  2  0
  2  4  1  0
  3  5  2  0
  4  1  2  0
  5 11  1  0
  6  3  1  0
  7  9  1  0
  7  6  1  0
  8  7  1  0
 11 12  1  0
 11 10  1  0
 12 15  1  0
 12 14  1  0
 13 12  1  0
 16 15  1  0
 16 17  1  0
 18 17  1  0
 19 18  1  0
 20 28  1  0
 21 26  1  0
 22 23  1  0
 22 21  1  0
 24 23  1  0
 24 33  1  0
 24 25  1  0
 26 20  1  0
 26 25  1  0
 27 20  2  0
 28 19  1  0
 28 29  1  0
 30 31  2  0
 31 50  1  0
 32 31  1  0
 32 35  1  0
 33 30  1  0
 33 34  1  0
 34 32  2  0
 35 36  1  0
 36 37  2  0
 38 41  1  0
 38 37  1  0
 39 38  2  0
 40 39  1  0
 40 35  2  0
 41 42  1  0
 42 43  1  0
 43 44  2  0
 45 44  1  0
 45 49  1  0
 46 45  2  0
 47 42  2  0
 47 46  1  0
 48 47  1  0
 50 51  1  0
 51 54  1  0
 51 53  1  0
 52 50  2  0
 55 56  1  0
 55 30  1  0
 57 55  1  0
 58  4  1  0
 58 59  1  0
 59 61  1  0
 60 71  2  0
 61 66  1  0
 62 70  1  0
 62 72  1  0
 63 69  1  0
 63 65  1  0
 64 70  1  0
 65 64  1  0
 66 65  2  0
 67 68  1  0
 67 61  2  0
 68 63  2  0
 69 62  1  0
 70 60  1  0
 72 74  2  0
 73 72  1  0
 75 73  1  0
 76 85  2  0
 76 81  1  0
 77 73  1  0
 77 81  1  0
 78 77  1  0
 79 80  1  0
 79 78  1  0
 80 76  1  0
 81 82  2  0
 82 83  1  0
 84 83  2  0
 85 84  1  0
 86 60  1  0
 86 91  1  0
 86 87  1  0
 87 90  1  1
 87 88  1  0
 89 87  1  0
 91 94  1  0
 92 96  1  0
 92 91  1  0
 93 92  2  0
 96 95  1  0
 98 96  1  0
 98 99  1  0
 98 97  1  0
M  ISO  4  20 100  28 100  58 101  59 101
M  END
>  <TORSDO>  (95) 
F 25

>  <SCORE>  (95) 
16.220

>  <name>  (95) 
94

>  <ligand_id>  (95) 
94

>  <original_smiles>  (95) 
[H]c1c([H])c([H])c2c(c1[H])C([H])([H])C([H])([H])C([H])([H])C2([H])N([H])C(=O)C1([H])N(C(=O)C([H])(N([H])C(=O)C([H])(N([H])C([H])([H])[H])C([H])([H])[H])C(C([H])([H])[H])(C([H])([H])[H])C([H])([H])[H])C([H])([H])c2c([H])c(OC([H])([H])c3c([H])c(N([H])[H])c([H])c(C([H])(C([H])([H])[H])[N+]([H])([H])C([H])([H])C([H])([H])C([H])([H])C([H])([H])C([H])([H])N([H])C(=O)N4C([H])([H])C([H])([H])C([H])([H])C([H])(n5nc(-c6c([H])c([H])c(Oc7c([H])c([H])c(F)c([H])c7F)c([H])c6[H])c(C(=O)N([H])[H])c5N([H])[H])C4([H])[H])c3[H])c([H])c([H])c2C1([H])[H]

>  <smiles>  (95) 
[H]c1c([H])c([H])c2c(c1[H])C([H])([H])C([H])([H])C([H])([H])C2([H])N([H])C(=O)C1([H])N(C(=O)C([H])(N([H])C(=O)C([H])(N([H])C([H])([H])[H])C([H])([H])[H])C(C([H])([H])[H])(C([H])([H])[H])C([H])([H])[H])C([H])([H])c2c([H])c(OC([H])([H])c3c([H])c(N([H])[H])c([H])c(C([H])(C([H])([H])[H])[N+]([H])([H])C([H])([H])C([H])([H])C([H])([H])C([H])([H])C([H])([H])N([H])C(=O)N4C([H])([H])C([H])([H])C([H])([H])C([H])(n5nc(-c6c([H])c([H])c(Oc7c([H])c([H])c(F)c([H])c7F)c([H])c6[H])c(C(=O)N([H])[H])c5N([H])[H])C4([H])[H])c3[H])c([H])c([H])c2C1([H])[H]

$$$$
95:0:0
     RDKit          3D

 90 99  0  0  1  0  0  0  0  0999 V2000
  -28.8770  -21.0390   20.5710 C   0  0  0  0  0  0  0  0  0  0  0  0
  -27.9990  -21.1030   21.8190 C   0  0  0  0  0  1  0  0  0  0  0  0
  -29.0990  -22.2050   19.9360 N   0  0  0  0  0  0  0  0  0  0  0  0
  -30.1790  -18.8430   21.5220 C   0  0  0  0  0  2  0  0  0  0  0  0
  -30.3200  -19.1670   19.0950 C   0  0  0  0  0  2  0  0  0  0  0  0
  -28.2100  -18.4180   20.0720 C   0  0  0  0  0  2  0  0  0  0  0  0
  -30.5830  -17.3100   21.4020 C   0  0  0  0  0  2  0  0  0  0  0  0
  -30.7870  -17.6410   18.9880 C   0  0  0  0  0  2  0  0  0  0  0  0
  -28.6520  -16.8910   19.9240 C   0  0  0  0  0  2  0  0  0  0  0  0
  -29.3790  -19.4510   20.3040 C   0  0  2  0  0  0  0  0  0  0  0  0
  -30.1850  -16.6330   20.0540 C   0  0  2  0  0  0  0  0  0  0  0  0
  -30.7900  -15.0820   19.8660 C   0  0  0  0  0  0  0  0  0  0  0  0
  -30.5350  -12.7480   18.9380 C   0  0  0  0  0  2  0  0  0  0  0  0
  -29.5330  -12.7330   17.7630 C   0  0  0  0  0  2  0  0  0  0  0  0
  -28.1010  -12.5170   18.2840 C   0  0  0  0  0  2  0  0  0  0  0  0
  -27.7710  -13.4380   19.4870 C   0  0  0  0  0  3  0  0  0  0  0  0
  -28.8960  -13.4660   20.5440 C   0  0  0  0  0  2  0  0  0  0  0  0
  -30.1370  -13.8510   19.8610 N   0  0  0  0  0  0  0  0  0  0  0  0
  -31.9770  -15.0380   19.5290 O   0  0  0  0  0  0  0  0  0  0  0  0
  -25.4590  -14.0130   20.4210 C   0  0  0  0  0  0  0  0  0  0  0  0
  -24.4140  -13.2350   20.8340 C   0  0  0  0  0  0  0  0  0  0  0  0
  -24.8580  -11.8810   20.7130 C   0  0  0  0  0  0  0  0  0  0  0  0
  -26.4720  -13.1340   20.0730 N   0  0  0  0  0  0  0  0  0  0  0  0
  -26.1240  -11.8450   20.3150 N   0  0  0  0  0  0  0  0  0  0  0  0
  -24.1300  -10.6200   20.8960 C   0  0  0  0  0  0  0  0  0  0  0  0
  -24.5680   -9.6400   21.8130 C   0  0  0  0  0  3  0  0  0  0  0  0
  -23.8370   -8.4440   21.9860 C   0  0  0  0  0  3  0  0  0  0  0  0
  -22.6540   -8.2210   21.2410 C   0  0  0  0  0  0  0  0  0  0  0  0
  -22.2370   -9.1900   20.3120 C   0  0  0  0  0  3  0  0  0  0  0  0
  -22.9690  -10.3770   20.1370 C   0  0  0  0  0  3  0  0  0  0  0  0
  -21.8950   -7.0800   21.3230 O   0  0  0  0  0  0  0  0  0  0  0  0
  -21.7980   -6.3620   22.4870 C   0  0  0  0  0  0  0  0  0  0  0  0
  -21.2900   -6.9330   23.6740 C   0  0  0  0  0  3  0  0  0  0  0  0
  -21.1440   -6.1420   24.8310 C   0  0  0  0  0  3  0  0  0  0  0  0
  -21.4950   -4.7780   24.8000 C   0  0  0  0  0  0  0  0  0  0  0  0
  -21.9950   -4.2060   23.6170 C   0  0  0  0  0  3  0  0  0  0  0  0
  -22.1430   -4.9960   22.4630 C   0  0  0  0  0  0  0  0  0  0  0  0
  -22.6060   -4.4360   21.3200 F   0  0  0  0  0  0  0  0  0  0  0  0
  -21.3480   -4.0140   25.9080 F   0  0  0  0  0  0  0  0  0  0  0  0
  -23.0460  -13.7150   21.2180 C   0  0  0  0  0  0  0  0  0  0  0  0
  -22.3740  -12.9980   22.1110 N   0  0  0  0  0  0  0  0  0  0  0  0
  -22.5850  -14.7610   20.7620 O   0  0  0  0  0  0  0  0  0  0  0  0
  -22.7640  -12.1510   22.5000 H   0  0  0  0  0  0  0  0  0  0  0  0
  -21.4580  -13.2980   22.4110 H   0  0  0  0  0  0  0  0  0  0  0  0
  -25.6180  -15.3870   20.2860 N   0  0  0  0  0  0  0  0  0  0  0  0
  -24.8640  -16.0360   20.4830 H   0  0  0  0  0  0  0  0  0  0  0  0
  -26.4420  -15.8380   19.9110 H   0  0  0  0  0  0  0  0  0  0  0  0
  -28.6510  -23.6160   20.4860 C   0  0  0  0  0  3  0  0  0  0  0  0
  -28.5840  -24.9850   19.5470 C   0  0  0  0  0  3  0  0  0  0  0  0
  -28.4910  -26.4400   20.0540 O   0  0  0  0  0  0  0  0  0  0  0  0
  -24.7160  -31.8800   23.1520 C   0  0  0  0  0  0  0  0  0  0  0  0
  -27.3660  -27.3240   19.9890 C   0  0  0  0  0  0  0  0  0  0  0  0
  -23.5210  -30.4870   21.5040 C   0  0  0  0  0  3  0  0  0  0  0  0
  -24.9830  -28.9720   20.0280 C   0  0  0  0  0  0  0  0  0  0  0  0
  -26.0600  -30.8270   21.3010 C   0  0  0  0  0  2  0  0  0  0  0  0
  -26.1550  -29.4520   20.6250 C   0  0  0  0  0  0  0  0  0  0  0  0
  -27.3430  -28.6390   20.5930 C   0  0  0  0  0  3  0  0  0  0  0  0
  -26.1660  -26.9280   19.3630 C   0  0  0  0  0  3  0  0  0  0  0  0
  -24.9970  -27.7220   19.3870 C   0  0  0  0  0  3  0  0  0  0  0  0
  -23.7320  -29.8340   20.1120 C   0  0  0  0  0  2  0  0  0  0  0  0
  -24.7850  -31.0850   22.0410 N   0  0  0  0  0  0  0  0  0  0  0  0
  -23.6330  -32.1290   23.7040 O   0  0  0  0  0  0  0  0  0  0  0  0
  -22.8840  -29.4480   22.4600 C   0  0  0  0  0  0  0  0  0  0  0  0
  -21.5600  -29.2410   22.3430 N   0  0  0  0  0  0  0  0  0  0  0  0
  -23.5820  -28.8300   23.2660 O   0  0  0  0  0  0  0  0  0  0  0  0
  -21.0510  -29.7960   21.6710 H   0  0  0  0  0  0  0  0  0  0  0  0
  -18.2260  -27.9260   22.8460 C   0  0  0  0  0  0  0  0  0  0  0  0
  -20.7760  -28.2670   23.1070 C   0  0  0  0  0  3  0  0  0  0  0  0
  -20.9200  -26.8460   22.5160 C   0  0  0  0  0  2  0  0  0  0  0  0
  -19.8250  -26.4980   21.5030 C   0  0  0  0  0  2  0  0  0  0  0  0
  -18.4430  -26.5910   22.1540 C   0  0  0  0  0  2  0  0  0  0  0  0
  -19.3210  -28.7190   23.2780 C   0  0  0  0  0  0  0  0  0  0  0  0
  -19.0630  -29.9670   23.8840 C   0  0  0  0  0  3  0  0  0  0  0  0
  -17.7440  -30.4250   24.0610 C   0  0  0  0  0  3  0  0  0  0  0  0
  -16.6630  -29.6280   23.6430 C   0  0  0  0  0  3  0  0  0  0  0  0
  -16.9060  -28.3800   23.0420 C   0  0  0  0  0  3  0  0  0  0  0  0
  -25.9900  -32.5320   23.7710 C   0  0  0  0  0  3  0  0  0  0  0  0
  -26.5340  -31.7560   25.0330 C   0  0  1  0  0  0  0  0  0  0  0  0
  -25.4570  -31.4790   26.1080 C   0  0  0  0  0  1  0  0  0  0  0  0
  -27.1450  -30.3970   24.6210 C   0  0  0  0  0  1  0  0  0  0  0  0
  -27.6730  -32.5660   25.6950 C   0  0  0  0  0  1  0  0  0  0  0  0
  -25.6540  -33.9190   24.1300 N   0  0  0  0  0  0  0  0  0  0  0  0
  -25.9490  -34.9940   23.3860 C   0  0  0  0  0  0  0  0  0  0  0  0
  -26.5990  -34.9240   22.3400 O   0  0  0  0  0  0  0  0  0  0  0  0
  -25.0720  -34.0440   24.9450 H   0  0  0  0  0  0  0  0  0  0  0  0
  -24.1740  -36.7560   23.1060 C   0  0  0  0  0  1  0  0  0  0  0  0
  -25.4420  -36.3640   23.8800 C   0  0  0  0  0  3  0  0  0  0  0  0
  -27.5720  -37.2860   24.6830 C   0  0  0  0  0  1  0  0  0  0  0  0
  -26.4500  -37.4410   23.7620 N   0  0  0  0  0  0  0  0  0  0  0  0
  -26.0270  -38.3510   23.9270 H   0  0  0  0  0  0  0  0  0  0  0  0
  1  2  1  0
  3 48  1  0
  3  1  2  0
  5 10  1  0
  6 10  1  0
  7  4  1  0
  8  5  1  0
  8 11  1  0
  9 11  1  0
  9  6  1  0
 10  1  1  1
 10  4  1  0
 11 12  1  1
 11  7  1  0
 13 18  1  0
 14 15  1  0
 14 13  1  0
 16 15  1  0
 16 23  1  0
 16 17  1  0
 18 12  1  0
 18 17  1  0
 19 12  2  0
 20 21  2  0
 21 40  1  0
 22 21  1  0
 22 25  1  0
 23 24  1  0
 23 20  1  0
 24 22  2  0
 25 26  1  0
 26 27  2  0
 28 31  1  0
 28 27  1  0
 29 28  2  0
 30 29  1  0
 30 25  2  0
 31 32  1  0
 32 33  1  0
 33 34  2  0
 35 34  1  0
 35 39  1  0
 36 35  2  0
 37 32  2  0
 37 36  1  0
 38 37  1  0
 40 41  1  0
 41 44  1  0
 41 43  1  0
 42 40  2  0
 45 20  1  0
 45 46  1  0
 47 45  1  0
 49 50  1  0
 49 48  2  0
 51 62  2  0
 52 50  1  0
 52 57  1  0
 53 61  1  0
 53 63  1  0
 54 60  1  0
 54 56  1  0
 55 61  1  0
 56 55  1  0
 57 56  2  0
 58 59  1  0
 58 52  2  0
 59 54  2  0
 60 53  1  0
 61 51  1  0
 63 65  2  0
 64 63  1  0
 66 64  1  0
 67 76  2  0
 67 72  1  0
 68 64  1  0
 68 72  1  0
 69 68  1  0
 70 71  1  0
 70 69  1  0
 71 67  1  0
 72 73  2  0
 73 74  1  0
 75 74  2  0
 76 75  1  0
 77 51  1  0
 77 82  1  0
 77 78  1  0
 78 81  1  1
 78 79  1  0
 80 78  1  0
 82 85  1  0
 83 87  1  0
 83 82  1  0
 84 83  2  0
 87 86  1  0
 89 87  1  0
 89 90  1  0
 89 88  1  0
M  ISO  4  11 100  12 100  49 101  50 101
M  END
>  <TORSDO>  (96) 
F 19

>  <SCORE>  (96) 
-13.340

>  <name>  (96) 
95

>  <ligand_id>  (96) 
95

>  <original_smiles>  (96) 
[H]c1c([H])c([H])c2c(c1[H])C([H])([H])C([H])([H])C([H])([H])C2([H])N([H])C(=O)C1([H])N(C(=O)C([H])(N([H])C(=O)C([H])(N([H])C([H])([H])[H])C([H])([H])[H])C(C([H])([H])[H])(C([H])([H])[H])C([H])([H])[H])C([H])([H])c2c([H])c(OC([H])([H])C([H])([H])N=C(C([H])([H])[H])C34C([H])([H])C([H])([H])C(C(=O)N5C([H])([H])C([H])([H])C([H])([H])C([H])(n6nc(-c7c([H])c([H])c(Oc8c([H])c([H])c(F)c([H])c8F)c([H])c7[H])c(C(=O)N([H])[H])c6N([H])[H])C5([H])[H])(C([H])([H])C3([H])[H])C([H])([H])C4([H])[H])c([H])c([H])c2C1([H])[H]

>  <smiles>  (96) 
[H]c1c([H])c([H])c2c(c1[H])C([H])([H])C([H])([H])C([H])([H])C2([H])N([H])C(=O)C1([H])N(C(=O)C([H])(N([H])C(=O)C([H])(N([H])C([H])([H])[H])C([H])([H])[H])C(C([H])([H])[H])(C([H])([H])[H])C([H])([H])[H])C([H])([H])c2c([H])c(OC([H])([H])C([H])([H])N=C(C([H])([H])[H])C34C([H])([H])C([H])([H])C(C(=O)N5C([H])([H])C([H])([H])C([H])([H])C([H])(n6nc(-c7c([H])c([H])c(Oc8c([H])c([H])c(F)c([H])c8F)c([H])c7[H])c(C(=O)N([H])[H])c6N([H])[H])C5([H])[H])(C([H])([H])C3([H])[H])C([H])([H])C4([H])[H])c([H])c([H])c2C1([H])[H]

$$$$
96:0:0
     RDKit          3D

 98 99  0  0  1  0  0  0  0  0999 V2000
  -26.5820  -27.7970   24.4950 C   0  0  0  0  0  3  0  0  0  0  0  0
  -27.7680  -27.1720   24.1590 C   0  0  0  0  0  3  0  0  0  0  0  0
  -25.6490  -25.9580   23.2640 C   0  0  0  0  0  3  0  0  0  0  0  0
  -25.3220  -27.4750   24.0200 C   0  0  0  0  0  0  0  0  0  0  0  0
  -28.0020  -25.9260   23.4560 C   0  0  0  0  0  0  0  0  0  0  0  0
  -26.9880  -24.9920   22.8990 C   0  0  0  0  0  3  0  0  0  0  0  0
  -29.5110  -25.9310   23.1430 C   0  0  0  0  0  1  0  0  0  0  0  0
  -24.0380  -28.7600   24.5900 C   0  0  0  0  0  0  0  0  0  0  0  0
  -22.8130  -29.7420   23.9170 N   0  0  0  0  0  2  0  0  0  0  0  0
  -23.8890  -28.7940   25.8280 O   0  0  0  0  0  0  0  0  0  0  0  0
  -22.1690  -29.9920   24.6540 H   0  0  0  0  0  0  0  0  0  0  0  0
  -21.9200  -30.0740   22.1040 C   0  0  0  0  0 15  0  0  0  0  0  0
  -22.3880  -28.6770   20.3090 C   0  0  0  0  0 15  0  0  0  0  0  0
  -23.9230  -27.5040   20.2980 O   0  0  0  0  0  1  0  0  0  0  0  0
  -24.6780  -31.7880   23.2920 C   0  0  0  0  0  0  0  0  0  0  0  0
  -25.3870  -27.4150   20.1930 C   0  0  0  0  0  3  0  0  0  0  0  0
  -24.0710  -29.4300   21.8440 C   0  0  0  0  0  2  0  0  0  0  0  0
  -25.1040  -29.7390   19.5770 C   0  0  0  0  0  3  0  0  0  0  0  0
  -26.1760  -30.6740   21.6700 C   0  0  0  0  0  2  0  0  0  0  0  0
  -26.1280  -29.6440   20.5280 C   0  0  0  0  0  3  0  0  0  0  0  0
  -26.3290  -28.2960   20.8240 C   0  0  0  0  0  2  0  0  0  0  0  0
  -25.4890  -27.4310   18.8480 C   0  0  0  0  0  2  0  0  0  0  0  0
  -24.9130  -28.7070   18.6050 C   0  0  0  0  0  2  0  0  0  0  0  0
  -24.0500  -30.3320   20.3720 C   0  0  0  0  0  2  0  0  0  0  0  0
  -24.9340  -30.5880   22.5380 N   0  0  0  0  0  0  0  0  0  0  0  0
  -23.5430  -32.2260   23.6500 O   0  0  0  0  0  0  0  0  0  0  0  0
  -22.6860  -27.8130   22.4470 C   0  0  0  0  0  2  0  0  0  0  0  0
  -21.2320  -27.9010   22.3760 N   0  0  0  0  0  0  0  0  0  0  0  0
  -22.7990  -26.9820   23.2680 O   0  0  0  0  0  1  0  0  0  0  0  0
  -20.8960  -28.1710   21.4700 H   0  0  0  0  0  0  0  0  0  0  0  0
  -17.5440  -28.2070   22.8440 C   0  0  0  0  0  0  0  0  0  0  0  0
  -20.1120  -27.9380   23.3750 C   0  0  0  0  0  3  0  0  0  0  0  0
  -19.7580  -26.4920   23.1290 C   0  0  0  0  0  2  0  0  0  0  0  0
  -18.9180  -26.3200   21.8590 C   0  0  0  0  0  2  0  0  0  0  0  0
  -17.5310  -26.8080   22.2500 C   0  0  0  0  0  2  0  0  0  0  0  0
  -18.7710  -28.8320   23.2540 C   0  0  0  0  0  0  0  0  0  0  0  0
  -18.6340  -30.1530   23.7800 C   0  0  0  0  0  3  0  0  0  0  0  0
  -17.3750  -30.8090   23.8790 C   0  0  0  0  0  3  0  0  0  0  0  0
  -16.1920  -30.1600   23.4860 C   0  0  0  0  0  3  0  0  0  0  0  0
  -16.2870  -28.8570   22.9800 C   0  0  0  0  0  3  0  0  0  0  0  0
  -25.8460  -32.5890   23.8590 C   0  0  0  0  0  3  0  0  0  0  0  0
  -25.3970  -33.9520   24.1000 N   0  0  0  0  0  0  0  0  0  0  0  0
  -25.6990  -35.0120   23.3290 C   0  0  0  0  0  0  0  0  0  0  0  0
  -26.3850  -34.8750   22.3060 O   0  0  0  0  0  0  0  0  0  0  0  0
  -24.7100  -34.0580   24.8310 H   0  0  0  0  0  0  0  0  0  0  0  0
  -24.0180  -36.8830   23.0460 C   0  0  0  0  0  1  0  0  0  0  0  0
  -25.2610  -36.3990   23.7990 C   0  0  0  0  0  3  0  0  0  0  0  0
  -27.4820  -37.2110   24.5110 C   0  0  0  0  0  1  0  0  0  0  0  0
  -26.3340  -37.4010   23.6280 N   0  0  0  0  0  0  0  0  0  0  0  0
  -25.9600  -38.3330   23.7400 H   0  0  0  0  0  0  0  0  0  0  0  0
  -26.3990  -31.9440   25.1790 C   0  0  1  0  0  0  0  0  0  0  0  0
  -25.2730  -31.6210   26.2140 C   0  0  0  0  0  1  0  0  0  0  0  0
  -27.3350  -30.7480   24.9540 C   0  0  0  0  0  1  0  0  0  0  0  0
  -27.3570  -32.9460   25.8340 C   0  0  0  0  0  1  0  0  0  0  0  0
  -27.6810  -23.3030   21.9270 C   0  0  0  0  0  2  0  0  0  0  0  0
  -27.7040  -21.4260   21.7290 N   0  0  0  0  0  4  0  0  0  0  0  0
  -26.8680  -21.3460   21.1960 H   0  0  0  0  0  0  0  0  0  0  0  0
  -27.4430  -21.1210   22.6470 H   0  0  0  0  0  0  0  0  0  0  0  0
  -28.6950  -20.0230   20.9240 C   0  0  0  0  0  1  0  0  0  0  0  0
  -28.7620  -17.9370   20.5250 C   0  0  0  0  0 15  0  0  0  0  0  0
  -29.7460  -16.2680   19.9470 C   0  0  0  0  0  2  0  0  0  0  0  0
  -30.1360  -13.6780   18.9370 C   0  0  0  0  0  2  0  0  0  0  0  0
  -29.2560  -13.0400   17.7850 C   0  0  0  0  0  2  0  0  0  0  0  0
  -27.9410  -12.4920   18.3560 C   0  0  0  0  0  2  0  0  0  0  0  0
  -27.3960  -13.5050   19.3770 C   0  0  0  0  0  3  0  0  0  0  0  0
  -28.4160  -13.9670   20.4470 C   0  0  0  0  0  2  0  0  0  0  0  0
  -29.4380  -14.8020   19.7910 N   0  0  0  0  0  0  0  0  0  0  0  0
  -30.9170  -16.3040   19.5020 O   0  0  0  0  0  1  0  0  0  0  0  0
  -25.1530  -13.9440   20.4240 C   0  0  0  0  0  0  0  0  0  0  0  0
  -24.1370  -13.1350   20.8450 C   0  0  0  0  0  0  0  0  0  0  0  0
  -24.5950  -11.7960   20.6610 C   0  0  0  0  0  0  0  0  0  0  0  0
  -26.1490  -13.1020   19.9790 N   0  0  0  0  0  0  0  0  0  0  0  0
  -25.8380  -11.7980   20.1900 N   0  0  0  0  0  0  0  0  0  0  0  0
  -23.9030  -10.5140   20.8380 C   0  0  0  0  0  0  0  0  0  0  0  0
  -24.4090   -9.5070   21.6920 C   0  0  0  0  0  3  0  0  0  0  0  0
  -23.7000   -8.2980   21.8640 C   0  0  0  0  0  3  0  0  0  0  0  0
  -22.4790   -8.0870   21.1820 C   0  0  0  0  0  0  0  0  0  0  0  0
  -21.9950   -9.0820   20.3150 C   0  0  0  0  0  3  0  0  0  0  0  0
  -22.7020  -10.2830   20.1380 C   0  0  0  0  0  3  0  0  0  0  0  0
  -21.7370   -6.9330   21.2670 O   0  0  0  0  0  0  0  0  0  0  0  0
  -21.7300   -6.1690   22.4050 C   0  0  0  0  0  0  0  0  0  0  0  0
  -21.3510   -6.6990   23.6580 C   0  0  0  0  0  3  0  0  0  0  0  0
  -21.2880   -5.8590   24.7890 C   0  0  0  0  0  3  0  0  0  0  0  0
  -21.5930   -4.4900   24.6670 C   0  0  0  0  0  0  0  0  0  0  0  0
  -21.9630   -3.9590   23.4180 C   0  0  0  0  0  3  0  0  0  0  0  0
  -22.0290   -4.7960   22.2920 C   0  0  0  0  0  0  0  0  0  0  0  0
  -22.3670   -4.2740   21.0890 F   0  0  0  0  0  0  0  0  0  0  0  0
  -21.5240   -3.6810   25.7520 F   0  0  0  0  0  0  0  0  0  0  0  0
  -22.7860  -13.5760   21.3220 C   0  0  0  0  0  0  0  0  0  0  0  0
  -22.1750  -12.8160   22.2250 N   0  0  0  0  0  0  0  0  0  0  0  0
  -22.2940  -14.6320   20.9300 O   0  0  0  0  0  0  0  0  0  0  0  0
  -22.6020  -11.9600   22.5540 H   0  0  0  0  0  0  0  0  0  0  0  0
  -21.2690  -13.0930   22.5800 H   0  0  0  0  0  0  0  0  0  0  0  0
  -25.2850  -15.3260   20.3300 N   0  0  0  0  0  0  0  0  0  0  0  0
  -24.5430  -15.9660   20.5940 H   0  0  0  0  0  0  0  0  0  0  0  0
  -26.0930  -15.8010   19.9510 H   0  0  0  0  0  0  0  0  0  0  0  0
  -28.4770  -25.1340   19.9930 C   0  0  0  0  0  1  0  0  0  0  0  0
  -28.4810  -23.7110   20.6190 C   0  0  0  0  0  2  0  0  0  0  0  0
  2  1  1  0
  3  4  1  0
  4  1  2  0
  4  8  1  0
  5  2  2  0
  6  3  2  0
  6  5  1  0
  7  5  1  0
  8 10  2  0
  9  8  1  0
  9 11  1  0
 15 26  2  0
 16 14  1  0
 16 21  1  0
 17 25  1  0
 18 23  1  0
 18 24  1  0
 18 20  1  0
 19 25  1  0
 20 21  1  0
 20 19  1  0
 22 16  1  0
 23 22  1  0
 24 17  1  0
 25 15  1  0
 27 29  1  0
 28 27  1  0
 30 28  1  0
 31 40  2  0
 31 36  1  0
 32 28  1  0
 33 32  1  0
 34 35  1  0
 34 33  1  0
 35 31  1  0
 36 32  1  0
 36 37  2  0
 37 38  1  0
 39 38  2  0
 40 39  1  0
 41 15  1  0
 41 42  1  0
 41 51  1  0
 42 45  1  0
 43 47  1  0
 43 42  1  0
 44 43  2  0
 47 46  1  0
 49 50  1  0
 49 47  1  0
 49 48  1  0
 51 54  1  1
 51 52  1  0
 53 51  1  0
 56 55  1  0
 56 58  1  0
 57 56  1  0
 59 56  1  0
 62 67  1  0
 63 64  1  0
 63 62  1  0
 65 64  1  0
 65 72  1  0
 65 66  1  0
 67 61  1  0
 67 66  1  0
 68 61  1  0
 69 70  2  0
 70 89  1  0
 71 74  1  0
 71 70  1  0
 72 73  1  0
 72 69  1  0
 73 71  2  0
 74 75  1  0
 75 76  2  0
 77 80  1  0
 77 76  1  0
 78 77  2  0
 79 78  1  0
 79 74  2  0
 80 81  1  0
 81 82  1  0
 82 83  2  0
 84 83  1  0
 84 88  1  0
 85 84  2  0
 86 81  2  0
 86 85  1  0
 87 86  1  0
 89 90  1  0
 90 92  1  0
 90 93  1  0
 91 89  2  0
 94 69  1  0
 94 95  1  0
 96 94  1  0
 97 98  1  0
 98 55  1  0
M  ISO  4  13 101  14 101  60 100  61 100
M  END
>  <TORSDO>  (97) 
F 24

>  <SCORE>  (97) 
-16.003

>  <name>  (97) 
96

>  <ligand_id>  (97) 
96

>  <original_smiles>  (97) 
[H]c1c([H])c([H])c2c(c1[H])C([H])([H])C([H])([H])C([H])([H])C2([H])N([H])C(=O)C1([H])N(C(=O)C([H])(N([H])C(=O)C([H])(N([H])C([H])([H])[H])C([H])([H])[H])C(C([H])([H])[H])(C([H])([H])[H])C([H])([H])[H])C([H])([H])c2c([H])c(OC([H])([H])C([H])([H])N([H])C(=O)c3c([H])c([H])c(C([H])([H])[H])c(C([H])(C([H])([H])C([H])([H])[H])[N+]([H])([H])C([H])([H])C([H])([H])C(=O)N4C([H])([H])C([H])([H])C([H])([H])C([H])(n5nc(-c6c([H])c([H])c(Oc7c([H])c([H])c(F)c([H])c7F)c([H])c6[H])c(C(=O)N([H])[H])c5N([H])[H])C4([H])[H])c3[H])c([H])c([H])c2C1([H])[H]

>  <smiles>  (97) 
[H]c1c([H])c([H])c2c(c1[H])C([H])([H])C([H])([H])C([H])([H])C2([H])N([H])C(=O)C1([H])N(C(=O)C([H])(N([H])C(=O)C([H])(N([H])C([H])([H])[H])C([H])([H])[H])C(C([H])([H])[H])(C([H])([H])[H])C([H])([H])[H])C([H])([H])c2c([H])c(OC([H])([H])C([H])([H])N([H])C(=O)c3c([H])c([H])c(C([H])([H])[H])c(C([H])(C([H])([H])C([H])([H])[H])[N+]([H])([H])C([H])([H])C([H])([H])C(=O)N4C([H])([H])C([H])([H])C([H])([H])C([H])(n5nc(-c6c([H])c([H])c(Oc7c([H])c([H])c(F)c([H])c7F)c([H])c6[H])c(C(=O)N([H])[H])c5N([H])[H])C4([H])[H])c3[H])c([H])c([H])c2C1([H])[H]

$$$$
97:0:0
     RDKit          3D

 96104  0  0  1  0  0  0  0  0999 V2000
  -29.1420  -19.4660   20.4760 C   0  0  0  0  0  3  0  0  0  0  0  0
  -29.5050  -20.8090   20.5230 C   0  0  0  0  0  3  0  0  0  0  0  0
  -29.9910  -18.5420   19.8590 C   0  0  0  0  0  0  0  0  0  0  0  0
  -30.7080  -21.2510   19.9390 C   0  0  0  0  0  0  0  0  0  0  0  0
  -31.2000  -18.9570   19.2400 C   0  0  0  0  0  0  0  0  0  0  0  0
  -31.5130  -20.3400   19.2020 C   0  0  0  0  0  0  0  0  0  0  0  0
  -32.1770  -17.9390   18.6540 C   0  0  0  0  0  1  0  0  0  0  0  0
  -32.6700  -20.8690   18.3530 C   0  0  0  0  0  1  0  0  0  0  0  0
  -29.6050  -17.1000   19.9940 C   0  0  0  0  0  2  0  0  0  0  0  0
  -30.2910  -16.5700   21.2570 C   0  0  0  0  0  2  0  0  0  0  0  0
  -30.7080  -14.2800   20.5760 C   0  0  0  0  0  0  0  0  0  0  0  0
  -30.3560  -12.2250   19.3020 C   0  0  0  0  0  2  0  0  0  0  0  0
  -29.4170  -12.5620   18.1270 C   0  0  0  0  0  2  0  0  0  0  0  0
  -27.9350  -12.4440   18.5310 C   0  0  0  0  0  2  0  0  0  0  0  0
  -27.6290  -13.2210   19.8390 C   0  0  0  0  0  3  0  0  0  0  0  0
  -28.6660  -12.8610   20.9300 C   0  0  0  0  0  2  0  0  0  0  0  0
  -30.0160  -13.1330   20.3990 N   0  0  0  0  0  0  0  0  0  0  0  0
  -31.7480  -14.5670   19.9750 O   0  0  0  0  0  0  0  0  0  0  0  0
  -30.1010  -15.1460   21.3780 N   0  0  0  0  0  0  0  0  0  0  0  0
  -29.2910  -14.8210   21.8840 H   0  0  0  0  0  0  0  0  0  0  0  0
  -25.2150  -13.8600   20.4960 C   0  0  0  0  0  0  0  0  0  0  0  0
  -24.1460  -13.0960   20.8650 C   0  0  0  0  0  0  0  0  0  0  0  0
  -24.6030  -11.7420   20.8560 C   0  0  0  0  0  0  0  0  0  0  0  0
  -26.2660  -12.9740   20.2960 N   0  0  0  0  0  0  0  0  0  0  0  0
  -25.8950  -11.6970   20.5640 N   0  0  0  0  0  0  0  0  0  0  0  0
  -23.8770  -10.4840   21.0470 C   0  0  0  0  0  0  0  0  0  0  0  0
  -24.3160   -9.5140   21.9750 C   0  0  0  0  0  3  0  0  0  0  0  0
  -23.5890   -8.3180   22.1590 C   0  0  0  0  0  3  0  0  0  0  0  0
  -22.4060   -8.0860   21.4170 C   0  0  0  0  0  0  0  0  0  0  0  0
  -21.9890   -9.0420   20.4720 C   0  0  0  0  0  3  0  0  0  0  0  0
  -22.7160  -10.2300   20.2860 C   0  0  0  0  0  3  0  0  0  0  0  0
  -21.6460   -6.9450   21.5140 O   0  0  0  0  0  0  0  0  0  0  0  0
  -21.6190   -6.1920   22.6610 C   0  0  0  0  0  0  0  0  0  0  0  0
  -21.2350   -6.7360   23.9050 C   0  0  0  0  0  3  0  0  0  0  0  0
  -21.1620   -5.9100   25.0450 C   0  0  0  0  0  3  0  0  0  0  0  0
  -21.4530   -4.5360   24.9370 C   0  0  0  0  0  0  0  0  0  0  0  0
  -21.8240   -3.9900   23.6950 C   0  0  0  0  0  3  0  0  0  0  0  0
  -21.9050   -4.8160   22.5620 C   0  0  0  0  0  0  0  0  0  0  0  0
  -22.2460   -4.2810   21.3640 F   0  0  0  0  0  0  0  0  0  0  0  0
  -21.3740   -3.7350   26.0250 F   0  0  0  0  0  0  0  0  0  0  0  0
  -22.7440  -13.5740   21.1220 C   0  0  0  0  0  0  0  0  0  0  0  0
  -22.0100  -12.8960   21.9940 N   0  0  0  0  0  0  0  0  0  0  0  0
  -22.3120  -14.5910   20.5780 O   0  0  0  0  0  0  0  0  0  0  0  0
  -22.3670  -12.0640   22.4440 H   0  0  0  0  0  0  0  0  0  0  0  0
  -21.0700  -13.2000   22.2040 H   0  0  0  0  0  0  0  0  0  0  0  0
  -25.3800  -15.2300   20.2990 N   0  0  0  0  0  0  0  0  0  0  0  0
  -24.6050  -15.8800   20.3980 H   0  0  0  0  0  0  0  0  0  0  0  0
  -26.2420  -15.6830   20.0240 H   0  0  0  0  0  0  0  0  0  0  0  0
  -31.0630  -22.7230   20.0820 C   0  0  0  0  0  2  0  0  0  0  0  0
  -30.8990  -23.3080   21.5200 C   0  0  0  0  0  2  0  0  0  0  0  0
  -30.9390  -24.7880   21.5200 N   0  0  0  0  0  4  0  0  0  0  0  0
  -31.8430  -25.1280   21.2160 H   0  0  0  0  0  0  0  0  0  0  0  0
  -30.8120  -25.1060   22.4690 H   0  0  0  0  0  0  0  0  0  0  0  0
  -29.8550  -25.3160   20.6590 C   0  0  0  0  0  2  0  0  0  0  0  0
  -29.2930  -26.6830   21.0160 C   0  0  0  0  0  2  0  0  0  0  0  0
  -28.3600  -26.7960   19.9580 O   0  0  0  0  0  0  0  0  0  0  0  0
  -24.5630  -31.9120   23.2240 C   0  0  0  0  0  0  0  0  0  0  0  0
  -27.2110  -27.5110   20.1300 C   0  0  0  0  0  0  0  0  0  0  0  0
  -23.3540  -30.5070   21.5840 C   0  0  0  0  0  3  0  0  0  0  0  0
  -24.8060  -28.9590   20.1760 C   0  0  0  0  0  0  0  0  0  0  0  0
  -25.8730  -30.8740   21.3810 C   0  0  0  0  0  2  0  0  0  0  0  0
  -25.9590  -29.4950   20.7650 C   0  0  0  0  0  0  0  0  0  0  0  0
  -27.1680  -28.7690   20.7630 C   0  0  0  0  0  3  0  0  0  0  0  0
  -26.0470  -26.9750   19.5500 C   0  0  0  0  0  3  0  0  0  0  0  0
  -24.8360  -27.6880   19.5790 C   0  0  0  0  0  3  0  0  0  0  0  0
  -23.5660  -29.8190   20.2080 C   0  0  0  0  0  2  0  0  0  0  0  0
  -24.6160  -31.1110   22.1230 N   0  0  0  0  0  0  0  0  0  0  0  0
  -23.4810  -32.1850   23.7640 O   0  0  0  0  0  0  0  0  0  0  0  0
  -22.7030  -29.4870   22.5480 C   0  0  0  0  0  0  0  0  0  0  0  0
  -21.3770  -29.3110   22.4270 N   0  0  0  0  0  0  0  0  0  0  0  0
  -23.3880  -28.8570   23.3580 O   0  0  0  0  0  0  0  0  0  0  0  0
  -20.8830  -29.8720   21.7490 H   0  0  0  0  0  0  0  0  0  0  0  0
  -18.0010  -28.1450   22.9520 C   0  0  0  0  0  0  0  0  0  0  0  0
  -20.5620  -28.3770   23.2040 C   0  0  0  0  0  3  0  0  0  0  0  0
  -20.6480  -26.9450   22.6250 C   0  0  0  0  0  2  0  0  0  0  0  0
  -19.5340  -26.6350   21.6200 C   0  0  0  0  0  2  0  0  0  0  0  0
  -18.1580  -26.7960   22.2740 C   0  0  0  0  0  2  0  0  0  0  0  0
  -19.1290  -28.8940   23.3790 C   0  0  0  0  0  0  0  0  0  0  0  0
  -18.9280  -30.1600   23.9720 C   0  0  0  0  0  3  0  0  0  0  0  0
  -17.6280  -30.6740   24.1430 C   0  0  0  0  0  3  0  0  0  0  0  0
  -16.5130  -29.9200   23.7360 C   0  0  0  0  0  3  0  0  0  0  0  0
  -16.7010  -28.6590   23.1450 C   0  0  0  0  0  3  0  0  0  0  0  0
  -25.8510  -32.5430   23.8400 C   0  0  0  0  0  3  0  0  0  0  0  0
  -25.5440  -33.9390   24.1740 N   0  0  0  0  0  0  0  0  0  0  0  0
  -25.8770  -34.9910   23.4150 C   0  0  0  0  0  0  0  0  0  0  0  0
  -26.5500  -34.8900   22.3840 O   0  0  0  0  0  0  0  0  0  0  0  0
  -24.9600  -34.0970   24.9820 H   0  0  0  0  0  0  0  0  0  0  0  0
  -24.1570  -36.7850   23.0480 C   0  0  0  0  0  1  0  0  0  0  0  0
  -25.3870  -36.3790   23.8740 C   0  0  0  0  0  3  0  0  0  0  0  0
  -27.5190  -37.2490   24.7240 C   0  0  0  0  0  1  0  0  0  0  0  0
  -26.4230  -37.4320   23.7750 N   0  0  0  0  0  0  0  0  0  0  0  0
  -26.0200  -38.3520   23.9310 H   0  0  0  0  0  0  0  0  0  0  0  0
  -26.3800  -31.7670   25.1070 C   0  0  1  0  0  0  0  0  0  0  0  0
  -25.2990  -31.5170   26.1850 C   0  0  0  0  0  1  0  0  0  0  0  0
  -26.9600  -30.3960   24.6970 C   0  0  0  0  0  1  0  0  0  0  0  0
  -27.5400  -32.5550   25.7620 C   0  0  0  0  0  1  0  0  0  0  0  0
  1  2  1  0
  3  9  1  0
  3  1  2  0
  4 49  1  0
  4  2  2  0
  5  3  1  0
  6  5  2  0
  6  4  1  0
  7  5  1  0
  8  6  1  0
  9 10  1  0
 10 19  1  0
 11 19  1  0
 12 17  1  0
 13 14  1  0
 13 12  1  0
 15 14  1  0
 15 24  1  0
 15 16  1  0
 17 11  1  0
 17 16  1  0
 18 11  2  0
 19 20  1  0
 21 22  2  0
 22 41  1  0
 23 22  1  0
 23 26  1  0
 24 21  1  0
 24 25  1  0
 25 23  2  0
 26 27  1  0
 27 28  2  0
 29 32  1  0
 29 28  1  0
 30 29  2  0
 31 30  1  0
 31 26  2  0
 32 33  1  0
 33 34  1  0
 34 35  2  0
 36 35  1  0
 36 40  1  0
 37 36  2  0
 38 33  2  0
 38 37  1  0
 39 38  1  0
 41 42  1  0
 42 45  1  0
 42 44  1  0
 43 41  2  0
 46 47  1  0
 46 21  1  0
 48 46  1  0
 49 50  1  0
 50 51  1  0
 51 53  1  0
 52 51  1  0
 54 55  1  0
 54 51  1  0
 56 58  1  0
 56 55  1  0
 57 68  2  0
 58 63  1  0
 59 67  1  0
 59 69  1  0
 60 66  1  0
 60 62  1  0
 61 67  1  0
 62 61  1  0
 63 62  2  0
 64 65  1  0
 64 58  2  0
 65 60  2  0
 66 59  1  0
 67 57  1  0
 69 71  2  0
 70 69  1  0
 72 70  1  0
 73 82  2  0
 73 78  1  0
 74 70  1  0
 74 78  1  0
 75 74  1  0
 76 77  1  0
 76 75  1  0
 77 73  1  0
 78 79  2  0
 79 80  1  0
 81 80  2  0
 82 81  1  0
 83 57  1  0
 83 84  1  0
 83 93  1  0
 84 87  1  0
 85 89  1  0
 85 84  1  0
 86 85  2  0
 89 88  1  0
 91 89  1  0
 91 92  1  0
 91 90  1  0
 93 96  1  1
 93 94  1  0
 95 93  1  0
M  ISO  4  11 100  19 100  55 101  56 101
M  END
>  <TORSDO>  (98) 
F 23

>  <SCORE>  (98) 
-13.194

>  <name>  (98) 
97

>  <ligand_id>  (98) 
97

>  <original_smiles>  (98) 
[H]c1c([H])c([H])c2c(c1[H])C([H])([H])C([H])([H])C([H])([H])C2([H])N([H])C(=O)C1([H])N(C(=O)C([H])(N([H])C(=O)C([H])(N([H])C([H])([H])[H])C([H])([H])[H])C(C([H])([H])[H])(C([H])([H])[H])C([H])([H])[H])C([H])([H])c2c([H])c(OC([H])([H])C([H])([H])[N+]([H])([H])C([H])([H])C([H])([H])c3c([H])c([H])c(C([H])([H])C([H])([H])N([H])C(=O)N4C([H])([H])C([H])([H])C([H])([H])C([H])(n5nc(-c6c([H])c([H])c(Oc7c([H])c([H])c(F)c([H])c7F)c([H])c6[H])c(C(=O)N([H])[H])c5N([H])[H])C4([H])[H])c(C([H])([H])[H])c3C([H])([H])[H])c([H])c([H])c2C1([H])[H]

>  <smiles>  (98) 
[H]c1c([H])c([H])c2c(c1[H])C([H])([H])C([H])([H])C([H])([H])C2([H])N([H])C(=O)C1([H])N(C(=O)C([H])(N([H])C(=O)C([H])(N([H])C([H])([H])[H])C([H])([H])[H])C(C([H])([H])[H])(C([H])([H])[H])C([H])([H])[H])C([H])([H])c2c([H])c(OC([H])([H])C([H])([H])[N+]([H])([H])C([H])([H])C([H])([H])c3c([H])c([H])c(C([H])([H])C([H])([H])N([H])C(=O)N4C([H])([H])C([H])([H])C([H])([H])C([H])(n5nc(-c6c([H])c([H])c(Oc7c([H])c([H])c(F)c([H])c7F)c([H])c6[H])c(C(=O)N([H])[H])c5N([H])[H])C4([H])[H])c(C([H])([H])[H])c3C([H])([H])[H])c([H])c([H])c2C1([H])[H]

$$$$
98:0:0
     RDKit          3D

 98107  0  0  1  0  0  0  0  0999 V2000
  -29.7950  -23.5950   23.2050 C   0  0  0  0  0  2  0  0  0  0  0  0
  -27.8720  -26.3530   21.9090 C   0  0  0  0  0  2  0  0  0  0  0  0
  -29.6880  -26.0450   20.1340 C   0  0  0  0  0  2  0  0  0  0  0  0
  -28.9340  -25.9880   22.9590 C   0  0  0  0  0  2  0  0  0  0  0  0
  -29.8360  -24.7300   20.9290 C   0  0  0  0  0  2  0  0  0  0  0  0
  -28.4920  -26.9090   20.5950 C   0  0  0  0  0  3  0  0  0  0  0  0
  -29.9900  -24.9490   22.4620 C   0  0  2  0  0  0  0  0  0  0  0  0
  -31.4030  -25.5080   22.7650 C   0  0  0  0  0  1  0  0  0  0  0  0
  -27.5960  -26.9490   19.4770 O   0  0  0  0  0  0  0  0  0  0  0  0
  -24.0630  -31.9150   23.1460 C   0  0  0  0  0  0  0  0  0  0  0  0
  -26.4760  -27.7270   19.6020 C   0  0  0  0  0  0  0  0  0  0  0  0
  -22.7400  -30.5970   21.5250 C   0  0  0  0  0  3  0  0  0  0  0  0
  -24.0820  -29.1760   19.8910 C   0  0  0  0  0  0  0  0  0  0  0  0
  -25.2330  -31.0130   21.1390 C   0  0  0  0  0  2  0  0  0  0  0  0
  -25.2750  -29.6850   20.4170 C   0  0  0  0  0  0  0  0  0  0  0  0
  -26.4810  -28.9720   20.2660 C   0  0  0  0  0  3  0  0  0  0  0  0
  -25.2770  -27.2280   19.0600 C   0  0  0  0  0  3  0  0  0  0  0  0
  -24.0780  -27.9470   19.2060 C   0  0  0  0  0  3  0  0  0  0  0  0
  -22.8350  -30.0040   20.0940 C   0  0  0  0  0  2  0  0  0  0  0  0
  -24.0350  -31.1850   21.9960 N   0  0  0  0  0  0  0  0  0  0  0  0
  -23.0280  -32.1430   23.7850 O   0  0  0  0  0  0  0  0  0  0  0  0
  -22.1770  -29.5140   22.4700 C   0  0  0  0  0  0  0  0  0  0  0  0
  -20.8650  -29.2450   22.3550 N   0  0  0  0  0  0  0  0  0  0  0  0
  -22.9140  -28.9160   23.2600 O   0  0  0  0  0  0  0  0  0  0  0  0
  -20.3300  -29.7880   21.6920 H   0  0  0  0  0  0  0  0  0  0  0  0
  -17.6180  -27.7160   22.7650 C   0  0  0  0  0  0  0  0  0  0  0  0
  -20.1270  -28.2370   23.1160 C   0  0  0  0  0  3  0  0  0  0  0  0
  -20.3960  -26.8150   22.5690 C   0  0  0  0  0  2  0  0  0  0  0  0
  -19.3690  -26.3670   21.5250 C   0  0  0  0  0  2  0  0  0  0  0  0
  -17.9560  -26.3820   22.1190 C   0  0  0  0  0  2  0  0  0  0  0  0
  -18.6390  -28.5930   23.2170 C   0  0  0  0  0  0  0  0  0  0  0  0
  -18.2720  -29.8370   23.7760 C   0  0  0  0  0  3  0  0  0  0  0  0
  -16.9180  -30.2050   23.8880 C   0  0  0  0  0  3  0  0  0  0  0  0
  -15.9120  -29.3250   23.4560 C   0  0  0  0  0  3  0  0  0  0  0  0
  -16.2620  -28.0830   22.8990 C   0  0  0  0  0  3  0  0  0  0  0  0
  -25.3940  -32.5230   23.6950 C   0  0  0  0  0  3  0  0  0  0  0  0
  -25.1340  -33.9260   24.0470 N   0  0  0  0  0  0  0  0  0  0  0  0
  -25.5400  -34.9800   23.3210 C   0  0  0  0  0  0  0  0  0  0  0  0
  -26.2440  -34.8650   22.3140 O   0  0  0  0  0  0  0  0  0  0  0  0
  -24.5170  -34.0940   24.8260 H   0  0  0  0  0  0  0  0  0  0  0  0
  -23.9300  -36.8670   22.9020 C   0  0  0  0  0  1  0  0  0  0  0  0
  -25.0890  -36.3790   23.7870 C   0  0  0  0  0  3  0  0  0  0  0  0
  -27.2000  -37.1170   24.7960 C   0  0  0  0  0  1  0  0  0  0  0  0
  -26.1770  -37.3790   23.7880 N   0  0  0  0  0  0  0  0  0  0  0  0
  -25.8080  -38.3140   23.9470 H   0  0  0  0  0  0  0  0  0  0  0  0
  -25.9780  -31.7340   24.9310 C   0  0  1  0  0  0  0  0  0  0  0  0
  -24.9360  -31.4680   26.0400 C   0  0  0  0  0  1  0  0  0  0  0  0
  -26.5500  -30.3680   24.4860 C   0  0  0  0  0  1  0  0  0  0  0  0
  -27.1570  -32.5230   25.5530 C   0  0  0  0  0  1  0  0  0  0  0  0
  -30.6830  -22.5540   22.6470 N   0  0  0  0  0  4  0  0  0  0  0  0
  -30.3650  -22.3590   21.7130 H   0  0  0  0  0  0  0  0  0  0  0  0
  -31.6200  -22.9190   22.5850 H   0  0  0  0  0  0  0  0  0  0  0  0
  -30.7480  -21.2670   23.3580 C   0  0  0  0  0  2  0  0  0  0  0  0
  -32.4530  -19.0340   20.7550 C   0  0  0  0  0  3  0  0  0  0  0  0
  -30.0500  -18.6410   20.6470 C   0  0  0  0  0  3  0  0  0  0  0  0
  -32.2620  -19.9160   21.8360 C   0  0  0  0  0  3  0  0  0  0  0  0
  -29.8590  -19.5240   21.7280 C   0  0  0  0  0  3  0  0  0  0  0  0
  -31.3470  -18.4140   20.1370 C   0  0  0  0  0  0  0  0  0  0  0  0
  -30.9620  -20.1890   22.3100 C   0  0  0  0  0  0  0  0  0  0  0  0
  -31.5530  -17.5330   18.9150 C   0  0  0  0  0  2  0  0  0  0  0  0
  -31.6010  -15.0450   18.6050 C   0  0  0  0  0  0  0  0  0  0  0  0
  -31.6600  -12.5900   18.8860 C   0  0  0  0  0  2  0  0  0  0  0  0
  -30.6940  -11.8570   17.9400 C   0  0  0  0  0  2  0  0  0  0  0  0
  -29.2770  -11.7870   18.5400 C   0  0  0  0  0  2  0  0  0  0  0  0
  -28.7820  -13.1710   19.0390 C   0  0  0  0  0  3  0  0  0  0  0  0
  -29.8470  -13.8270   19.9400 C   0  0  0  0  0  2  0  0  0  0  0  0
  -31.1080  -13.9200   19.1790 N   0  0  0  0  0  0  0  0  0  0  0  0
  -32.4980  -15.0460   17.7560 O   0  0  0  0  0  0  0  0  0  0  0  0
  -31.1080  -16.1670   19.1410 N   0  0  0  0  0  0  0  0  0  0  0  0
  -30.3940  -16.0420   19.8400 H   0  0  0  0  0  0  0  0  0  0  0  0
  -26.6770  -14.0700   20.2180 C   0  0  0  0  0  0  0  0  0  0  0  0
  -25.5660  -13.4370   20.7060 C   0  0  0  0  0  0  0  0  0  0  0  0
  -25.7690  -12.0430   20.4690 C   0  0  0  0  0  0  0  0  0  0  0  0
  -27.4980  -13.0680   19.7240 N   0  0  0  0  0  0  0  0  0  0  0  0
  -26.9610  -11.8370   19.9290 N   0  0  0  0  0  0  0  0  0  0  0  0
  -24.8730  -10.8980   20.6750 C   0  0  0  0  0  0  0  0  0  0  0  0
  -25.2180   -9.8400   21.5440 C   0  0  0  0  0  3  0  0  0  0  0  0
  -24.3340   -8.7560   21.7390 C   0  0  0  0  0  3  0  0  0  0  0  0
  -23.0890   -8.7260   21.0650 C   0  0  0  0  0  0  0  0  0  0  0  0
  -22.7610   -9.7710   20.1850 C   0  0  0  0  0  3  0  0  0  0  0  0
  -23.6440  -10.8460   19.9890 C   0  0  0  0  0  3  0  0  0  0  0  0
  -22.1790   -7.7040   21.1710 O   0  0  0  0  0  0  0  0  0  0  0  0
  -21.9070   -7.1070   22.3760 C   0  0  0  0  0  0  0  0  0  0  0  0
  -21.4830   -7.8500   23.4990 C   0  0  0  0  0  3  0  0  0  0  0  0
  -21.1480   -7.1870   24.6960 C   0  0  0  0  0  3  0  0  0  0  0  0
  -21.2260   -5.7840   24.7700 C   0  0  0  0  0  0  0  0  0  0  0  0
  -21.6430   -5.0410   23.6510 C   0  0  0  0  0  3  0  0  0  0  0  0
  -21.9790   -5.7010   22.4560 C   0  0  0  0  0  0  0  0  0  0  0  0
  -22.3600   -4.9810   21.3740 F   0  0  0  0  0  0  0  0  0  0  0  0
  -20.8980   -5.1440   25.9170 F   0  0  0  0  0  0  0  0  0  0  0  0
  -24.3400  -14.0910   21.2720 C   0  0  0  0  0  0  0  0  0  0  0  0
  -23.6830  -13.4420   22.2280 N   0  0  0  0  0  0  0  0  0  0  0  0
  -23.9810  -15.2100   20.9030 O   0  0  0  0  0  0  0  0  0  0  0  0
  -23.9870  -12.5320   22.5470 H   0  0  0  0  0  0  0  0  0  0  0  0
  -22.8650  -13.8580   22.6500 H   0  0  0  0  0  0  0  0  0  0  0  0
  -27.0510  -15.4090   20.1380 N   0  0  0  0  0  0  0  0  0  0  0  0
  -26.4440  -16.1600   20.4480 H   0  0  0  0  0  0  0  0  0  0  0  0
  -27.9080  -15.7380   19.7100 H   0  0  0  0  0  0  0  0  0  0  0  0
  2  4  1  0
  3  6  1  0
  3  5  1  0
  5  7  1  0
  6  9  1  0
  6  2  1  0
  7  8  1  6
  7  4  1  0
  7  1  1  0
  9 11  1  0
 10 21  2  0
 11 16  1  0
 12 20  1  0
 12 22  1  0
 13 19  1  0
 13 15  1  0
 14 20  1  0
 15 14  1  0
 16 15  2  0
 17 18  1  0
 17 11  2  0
 18 13  2  0
 19 12  1  0
 20 10  1  0
 22 24  2  0
 23 22  1  0
 25 23  1  0
 26 35  2  0
 26 31  1  0
 27 23  1  0
 27 31  1  0
 28 27  1  0
 29 30  1  0
 29 28  1  0
 30 26  1  0
 31 32  2  0
 32 33  1  0
 34 33  2  0
 35 34  1  0
 36 10  1  0
 36 37  1  0
 36 46  1  0
 37 40  1  0
 38 42  1  0
 38 37  1  0
 39 38  2  0
 42 41  1  0
 42 44  1  0
 44 45  1  0
 44 43  1  0
 46 49  1  1
 46 47  1  0
 48 46  1  0
 50  1  1  0
 50 53  1  0
 51 50  1  0
 52 50  1  0
 54 56  1  0
 55 57  2  0
 56 59  2  0
 57 59  1  0
 58 55  1  0
 58 54  2  0
 59 53  1  0
 60 69  1  0
 60 58  1  0
 61 69  1  0
 61 67  1  0
 62 67  1  0
 63 64  1  0
 63 62  1  0
 65 64  1  0
 65 74  1  0
 65 66  1  0
 67 66  1  0
 68 61  2  0
 69 70  1  0
 71 72  2  0
 72 91  1  0
 73 76  1  0
 73 72  1  0
 74 75  1  0
 74 71  1  0
 75 73  2  0
 76 77  1  0
 77 78  2  0
 79 82  1  0
 79 78  1  0
 80 79  2  0
 81 80  1  0
 81 76  2  0
 82 83  1  0
 83 88  2  0
 83 84  1  0
 84 85  2  0
 85 86  1  0
 86 90  1  0
 87 86  2  0
 88 87  1  0
 89 88  1  0
 91 92  1  0
 92 94  1  0
 92 95  1  0
 93 91  2  0
 96 71  1  0
 96 97  1  0
 98 96  1  0
M  ISO  4   6 101   9 101  61 100  69 100
M  END
>  <TORSDO>  (99) 
F 21

>  <SCORE>  (99) 
-9.121

>  <name>  (99) 
98

>  <ligand_id>  (99) 
98

>  <original_smiles>  (99) 
[H]c1c([H])c([H])c2c(c1[H])C([H])([H])C([H])([H])C([H])([H])C2([H])N([H])C(=O)C1([H])N(C(=O)C([H])(N([H])C(=O)C([H])(N([H])C([H])([H])[H])C([H])([H])[H])C(C([H])([H])[H])(C([H])([H])[H])C([H])([H])[H])C([H])([H])c2c([H])c(OC3([H])C([H])([H])C([H])([H])C(C([H])([H])[H])(C([H])([H])[N+]([H])([H])C([H])([H])c4c([H])c([H])c(C([H])([H])N([H])C(=O)N5C([H])([H])C([H])([H])C([H])([H])C([H])(n6nc(-c7c([H])c([H])c(Oc8c([H])c([H])c(F)c([H])c8F)c([H])c7[H])c(C(=O)N([H])[H])c6N([H])[H])C5([H])[H])c([H])c4[H])C([H])([H])C3([H])[H])c([H])c([H])c2C1([H])[H]

>  <smiles>  (99) 
[H]c1c([H])c([H])c2c(c1[H])C([H])([H])C([H])([H])C([H])([H])C2([H])N([H])C(=O)C1([H])N(C(=O)C([H])(N([H])C(=O)C([H])(N([H])C([H])([H])[H])C([H])([H])[H])C(C([H])([H])[H])(C([H])([H])[H])C([H])([H])[H])C([H])([H])c2c([H])c(OC3([H])C([H])([H])C([H])([H])C(C([H])([H])[H])(C([H])([H])[N+]([H])([H])C([H])([H])c4c([H])c([H])c(C([H])([H])N([H])C(=O)N5C([H])([H])C([H])([H])C([H])([H])C([H])(n6nc(-c7c([H])c([H])c(Oc8c([H])c([H])c(F)c([H])c8F)c([H])c7[H])c(C(=O)N([H])[H])c6N([H])[H])C5([H])[H])c([H])c4[H])C([H])([H])C3([H])[H])c([H])c([H])c2C1([H])[H]

$$$$
