0:0:0
     RDKit          3D

 99104  0  0  1  0  0  0  0  0999 V2000
  -30.6300  -10.0890   18.7780 C   0  0  0  0  0  3  0  0  0  0  0  0
  -29.8380  -11.3650   18.6120 C   0  0  0  0  0  2  0  0  0  0  0  0
  -29.0940  -13.1100   19.1140 C   0  0  0  0  0  3  0  0  0  0  0  0
  -29.5170  -10.6500   19.4000 C   0  0  0  0  0  3  0  0  0  0  0  0
  -29.7980  -13.9410   19.0090 C   0  0  0  0  0  2  0  0  0  0  0  0
  -31.6380   -9.7400   19.4220 O   0  0  0  0  0  0  0  0  0  0  0  0
  -28.7410   -9.4550   20.0440 N   0  0  0  0  0  4  0  0  0  0  0  0
  -28.4780   -8.8750   19.2610 H   0  0  0  0  0  0  0  0  0  0  0  0
  -27.8500   -9.7630   20.4130 H   0  0  0  0  0  0  0  0  0  0  0  0
  -29.4820   -8.4980   20.9980 C   0  0  0  0  0  2  0  0  0  0  0  0
  -29.9240   -8.9380   22.4730 C   0  0  0  0  0  2  0  0  0  0  0  0
  -30.7010  -10.2300   23.0300 C   0  0  0  0  0  2  0  0  0  0  0  0
  -31.9110  -12.2870   22.1330 C   0  0  0  0  0  0  0  0  0  0  0  0
  -31.6610  -13.5760   19.7690 C   0  0  0  0  0 15  0  0  0  0  0  0
  -30.0930  -14.8750   18.5220 C   0  0  0  0  0  2  0  0  0  0  0  0
  -27.8980  -14.5550   19.0680 C   0  0  0  0  0  2  0  0  0  0  0  0
  -27.4340  -13.4650   20.8840 C   0  0  0  0  0  1  0  0  0  0  0  0
  -29.0430  -12.6220   22.2350 C   0  0  0  0  0 15  0  0  0  0  0  0
  -30.9370  -12.7050   21.4760 N   0  0  0  0  0  1  0  0  0  0  0  0
  -32.9390  -12.9270   21.9840 O   0  0  0  0  0  0  0  0  0  0  0  0
  -31.8050  -10.9480   22.3340 N   0  0  0  0  0  0  0  0  0  0  0  0
  -32.7010  -10.4860   22.4100 H   0  0  0  0  0  0  0  0  0  0  0  0
  -25.1610  -13.9370   21.2720 C   0  0  0  0  0  0  0  0  0  0  0  0
  -24.1340  -13.0860   21.3410 C   0  0  0  0  0  0  0  0  0  0  0  0
  -24.6780  -11.7630   21.3870 C   0  0  0  0  0  0  0  0  0  0  0  0
  -26.2090  -13.0700   21.1730 N   0  0  0  0  0  0  0  0  0  0  0  0
  -25.9880  -11.7720   21.3320 N   0  0  0  0  0  0  0  0  0  0  0  0
  -24.0310  -10.4780   21.4010 C   0  0  0  0  0  0  0  0  0  0  0  0
  -24.2100   -9.5810   22.4740 C   0  0  0  0  0  3  0  0  0  0  0  0
  -23.5060   -8.3630   22.4850 C   0  0  0  0  0  3  0  0  0  0  0  0
  -22.6270   -8.0530   21.4210 C   0  0  0  0  0  0  0  0  0  0  0  0
  -22.4970   -8.9360   20.3380 C   0  0  0  0  0  3  0  0  0  0  0  0
  -23.2000  -10.1450   20.3210 C   0  0  0  0  0  3  0  0  0  0  0  0
  -21.8960   -6.8980   21.3410 O   0  0  0  0  0  0  0  0  0  0  0  0
  -21.3380   -6.3320   22.4550 C   0  0  0  0  0  0  0  0  0  0  0  0
  -20.3120   -6.9700   23.1850 C   0  0  0  0  0  3  0  0  0  0  0  0
  -19.7220   -6.3130   24.2830 C   0  0  0  0  0  3  0  0  0  0  0  0
  -20.1490   -5.0190   24.6420 C   0  0  0  0  0  0  0  0  0  0  0  0
  -21.1690   -4.3850   23.9130 C   0  0  0  0  0  3  0  0  0  0  0  0
  -21.7620   -5.0410   22.8210 C   0  0  0  0  0  0  0  0  0  0  0  0
  -22.7310   -4.4220   22.1050 F   0  0  0  0  0  0  0  0  0  0  0  0
  -19.5750   -4.3820   25.6890 F   0  0  0  0  0  0  0  0  0  0  0  0
  -22.7310  -13.5290   21.2540 C   0  0  0  0  0  0  0  0  0  0  0  0
  -21.8580  -12.8460   21.9690 N   0  0  0  0  0  0  0  0  0  0  0  0
  -22.4300  -14.5250   20.5970 O   0  0  0  0  0  0  0  0  0  0  0  0
  -22.1450  -12.0480   22.5150 H   0  0  0  0  0  0  0  0  0  0  0  0
  -20.8860  -13.1190   21.9800 H   0  0  0  0  0  0  0  0  0  0  0  0
  -25.2780  -15.3360   21.2140 N   0  0  0  0  0  0  0  0  0  0  0  0
  -24.4570  -15.9330   21.1870 H   0  0  0  0  0  0  0  0  0  0  0  0
  -26.1440  -15.8510   21.1210 H   0  0  0  0  0  0  0  0  0  0  0  0
  -28.9020  -15.7020   18.9710 C   0  0  0  0  0  3  0  0  0  0  0  0
  -27.6350  -18.1570   20.0900 C   0  0  0  0  0  3  0  0  0  0  0  0
  -29.7880  -18.5640   19.6670 C   0  0  0  0  0  3  0  0  0  0  0  0
  -27.4260  -19.6250   20.4040 C   0  0  0  0  0  3  0  0  0  0  0  0
  -29.5740  -20.0500   19.9840 C   0  0  0  0  0  3  0  0  0  0  0  0
  -28.8390  -17.4100   19.6690 C   0  0  0  0  0  0  0  0  0  0  0  0
  -28.3460  -20.7880   20.3930 C   0  0  0  0  0  0  0  0  0  0  0  0
  -27.8100  -22.5480   20.5590 C   0  0  0  0  0  2  0  0  0  0  0  0
  -28.2700  -24.1250   21.0970 O   0  0  0  0  0  0  0  0  0  0  0  0
  -25.1650  -30.8650   23.4830 C   0  0  0  0  0  0  0  0  0  0  0  0
  -27.4770  -25.4360   20.9650 C   0  0  0  0  0  0  0  0  0  0  0  0
  -24.0230  -29.4750   21.8160 C   0  0  0  0  0  3  0  0  0  0  0  0
  -25.4360  -27.6340   20.6510 C   0  0  0  0  0  0  0  0  0  0  0  0
  -26.6060  -29.3800   21.9640 C   0  0  0  0  0  2  0  0  0  0  0  0
  -26.5980  -27.9160   21.3790 C   0  0  0  0  0  0  0  0  0  0  0  0
  -27.6160  -26.8370   21.5130 C   0  0  0  0  0  3  0  0  0  0  0  0
  -26.3000  -25.3580   20.1940 C   0  0  0  0  0  3  0  0  0  0  0  0
  -25.3220  -26.3730   20.0510 C   0  0  0  0  0  3  0  0  0  0  0  0
  -24.3300  -28.6850   20.5160 C   0  0  0  0  0  2  0  0  0  0  0  0
  -25.2870  -29.9390   22.4730 N   0  0  0  0  0  0  0  0  0  0  0  0
  -24.0570  -31.2940   23.8520 O   0  0  0  0  0  0  0  0  0  0  0  0
  -23.1260  -28.6220   22.7520 C   0  0  0  0  0  0  0  0  0  0  0  0
  -21.8100  -28.5600   22.4800 N   0  0  0  0  0  0  0  0  0  0  0  0
  -23.6300  -28.0130   23.7000 O   0  0  0  0  0  0  0  0  0  0  0  0
  -21.4590  -29.0990   21.6990 H   0  0  0  0  0  0  0  0  0  0  0  0
  -18.2780  -27.7460   22.7340 C   0  0  0  0  0  0  0  0  0  0  0  0
  -20.8230  -27.7530   23.2080 C   0  0  0  0  0  3  0  0  0  0  0  0
  -20.8120  -26.2920   22.6980 C   0  0  0  0  0  2  0  0  0  0  0  0
  -19.7700  -26.0440   21.6030 C   0  0  0  0  0  2  0  0  0  0  0  0
  -18.3630  -26.3590   22.1190 C   0  0  0  0  0  2  0  0  0  0  0  0
  -19.4340  -28.4070   23.2300 C   0  0  0  0  0  0  0  0  0  0  0  0
  -19.3010  -29.7070   23.7650 C   0  0  0  0  0  3  0  0  0  0  0  0
  -18.0460  -30.3440   23.8070 C   0  0  0  0  0  3  0  0  0  0  0  0
  -16.9050  -29.6810   23.3240 C   0  0  0  0  0  3  0  0  0  0  0  0
  -17.0200  -28.3840   22.7940 C   0  0  0  0  0  3  0  0  0  0  0  0
  -26.4090  -31.4460   24.2190 C   0  0  0  0  0  3  0  0  0  0  0  0
  -26.1600  -32.8770   24.4830 N   0  0  0  0  0  0  0  0  0  0  0  0
  -26.5450  -33.8860   23.6900 C   0  0  0  0  0  0  0  0  0  0  0  0
  -27.2080  -33.7090   22.6650 O   0  0  0  0  0  0  0  0  0  0  0  0
  -25.5720  -33.0910   25.2750 H   0  0  0  0  0  0  0  0  0  0  0  0
  -24.8720  -35.7360   23.3320 C   0  0  0  0  0  1  0  0  0  0  0  0
  -26.1370  -35.3180   24.0980 C   0  0  0  0  0  3  0  0  0  0  0  0
  -28.3240  -36.1940   24.7990 C   0  0  0  0  0  1  0  0  0  0  0  0
  -27.2000  -36.3220   23.8750 N   0  0  0  0  0  0  0  0  0  0  0  0
  -26.8290  -37.2650   23.9570 H   0  0  0  0  0  0  0  0  0  0  0  0
  -26.7270  -30.6990   25.5750 C   0  0  1  0  0  0  0  0  0  0  0  0
  -25.4990  -30.5380   26.5020 C   0  0  0  0  0  1  0  0  0  0  0  0
  -27.2990  -29.2880   25.3120 C   0  0  0  0  0  1  0  0  0  0  0  0
  -27.8160  -31.4740   26.3560 C   0  0  0  0  0  1  0  0  0  0  0  0
  1  4  1  0
  1  6  2  0
  3  2  1  0
  4  2  1  0
  4  7  1  0
  5  3  1  0
  7  9  1  0
  7 10  1  0
  8  7  1  0
 10 11  1  0
 11 12  1  0
 13 21  1  0
 15 51  1  0
 15  5  1  0
 16  3  1  0
 17 26  1  0
 19 13  1  0
 20 13  2  0
 21 22  1  0
 21 12  1  0
 23 24  2  0
 24 25  1  0
 25 28  1  0
 26 23  1  0
 26 27  1  0
 27 25  2  0
 28 29  1  0
 29 30  2  0
 31 30  1  0
 32 31  2  0
 33 32  1  0
 33 28  2  0
 34 31  1  0
 34 35  1  0
 35 40  2  0
 35 36  1  0
 36 37  2  0
 37 38  1  0
 38 42  1  0
 39 38  2  0
 40 39  1  0
 41 40  1  0
 43 24  1  0
 43 44  1  0
 44 47  1  0
 44 46  1  0
 45 43  2  0
 48 23  1  0
 49 48  1  0
 50 48  1  0
 51 16  1  0
 51 56  1  0
 52 54  1  0
 53 56  1  0
 53 55  2  0
 55 57  1  0
 56 52  2  0
 57 54  2  0
 57 58  1  0
 58 59  1  0
 60 71  2  0
 61 59  1  0
 61 66  1  0
 62 70  1  0
 62 72  1  0
 63 65  1  0
 64 70  1  0
 65 66  2  0
 65 64  1  0
 67 61  2  0
 68 67  1  0
 68 63  2  0
 69 63  1  0
 69 62  1  0
 70 60  1  0
 72 74  2  0
 73 72  1  0
 75 73  1  0
 76 85  2  0
 76 81  1  0
 77 73  1  0
 77 81  1  0
 78 77  1  0
 79 80  1  0
 79 78  1  0
 80 76  1  0
 81 82  2  0
 82 83  1  0
 84 83  2  0
 85 84  1  0
 86 60  1  0
 86 87  1  0
 86 96  1  0
 87 90  1  0
 88 92  1  0
 88 87  1  0
 89 88  2  0
 92 91  1  0
 94 95  1  0
 94 92  1  0
 94 93  1  0
 96 99  1  1
 96 97  1  0
 98 96  1  0
M  ISO  4  13 100  21 100  58 101  59 101
M  END
>  <TORSDO>  (1) 
F 23

>  <SCORE>  (1) 
-9.111

>  <name>  (1) 
0

>  <ligand_id>  (1) 
0

>  <original_smiles>  (1) 
[H]c1c([H])c([H])c2c(c1[H])C([H])([H])C([H])([H])C([H])([H])C2([H])N([H])C(=O)C1([H])N(C(=O)C([H])(N([H])C(=O)C([H])(N([H])C([H])([H])[H])C([H])([H])[H])C(C([H])([H])[H])(C([H])([H])[H])C([H])([H])[H])C([H])([H])c2c([H])c(OC([H])([H])c3c([H])c([H])c(C([H])([H])C4([H])C([H])([H])C(=O)C([H])([N+]([H])([H])C([H])([H])C([H])([H])C([H])([H])N([H])C(=O)N5C([H])([H])C([H])([H])C([H])([H])C([H])(n6nc(-c7c([H])c([H])c(Oc8c([H])c([H])c(F)c([H])c8F)c([H])c7[H])c(C(=O)N([H])[H])c6N([H])[H])C5([H])[H])C4([H])[H])c([H])c3[H])c([H])c([H])c2C1([H])[H]

>  <smiles>  (1) 
[H]c1c([H])c([H])c2c(c1[H])C([H])([H])C([H])([H])C([H])([H])C2([H])N([H])C(=O)C1([H])N(C(=O)C([H])(N([H])C(=O)C([H])(N([H])C([H])([H])[H])C([H])([H])[H])C(C([H])([H])[H])(C([H])([H])[H])C([H])([H])[H])C([H])([H])c2c([H])c(OC([H])([H])c3c([H])c([H])c(C([H])([H])C4([H])C([H])([H])C(=O)C([H])([N+]([H])([H])C([H])([H])C([H])([H])C([H])([H])N([H])C(=O)N5C([H])([H])C([H])([H])C([H])([H])C([H])(n6nc(-c7c([H])c([H])c(Oc8c([H])c([H])c(F)c([H])c8F)c([H])c7[H])c(C(=O)N([H])[H])c6N([H])[H])C5([H])[H])C4([H])[H])c([H])c3[H])c([H])c([H])c2C1([H])[H]

$$$$
1:0:0
     RDKit          3D

 97105  0  0  1  0  0  0  0  0999 V2000
  -28.9520  -22.8170   19.0540 C   0  0  0  0  0  3  0  0  0  0  0  0
  -29.2430  -21.5550   21.1210 C   0  0  0  0  0  3  0  0  0  0  0  0
  -28.7320  -23.9540   21.1950 C   0  0  0  0  0  3  0  0  0  0  0  0
  -29.1890  -21.5620   19.7170 C   0  0  0  0  0  0  0  0  0  0  0  0
  -28.7070  -24.0330   19.7840 C   0  0  0  0  0  0  0  0  0  0  0  0
  -29.0150  -22.7420   21.8490 C   0  0  0  0  0  0  0  0  0  0  0  0
  -29.0770  -22.6950   23.2370 N   0  0  0  0  0  0  0  0  0  0  0  0
  -29.4920  -21.9110   23.7300 H   0  0  0  0  0  0  0  0  0  0  0  0
  -28.9890  -23.5440   23.7840 H   0  0  0  0  0  0  0  0  0  0  0  0
  -29.3040  -20.2120   18.9500 C   0  0  0  0  0  2  0  0  0  0  0  0
  -30.0460  -19.0890   19.6240 N   0  0  0  0  0  4  0  0  0  0  0  0
  -30.2960  -19.3410   20.5640 H   0  0  0  0  0  0  0  0  0  0  0  0
  -30.9170  -18.9770   19.1300 H   0  0  0  0  0  0  0  0  0  0  0  0
  -29.3770  -17.7530   19.6430 C   0  0  0  0  0  2  0  0  0  0  0  0
  -30.3140  -16.5120   19.4680 C   0  0  0  0  0  3  0  0  0  0  0  0
  -31.2250  -14.5930   20.7950 C   0  0  0  0  0  0  0  0  0  0  0  0
  -30.9220  -12.4180   19.6890 C   0  0  0  0  0  2  0  0  0  0  0  0
  -30.0530  -12.5990   18.4280 C   0  0  0  0  0  2  0  0  0  0  0  0
  -28.5540  -12.5300   18.7760 C   0  0  0  0  0  2  0  0  0  0  0  0
  -28.1570  -13.4250   19.9820 C   0  0  0  0  0  3  0  0  0  0  0  0
  -29.1460  -13.2280   21.1560 C   0  0  0  0  0  2  0  0  0  0  0  0
  -30.5070  -13.4490   20.6480 N   0  0  0  0  0  0  0  0  0  0  0  0
  -32.4470  -14.6490   20.6620 O   0  0  0  0  0  0  0  0  0  0  0  0
  -30.5120  -15.7330   20.7200 N   0  0  0  0  0  0  0  0  0  0  0  0
  -30.6190  -16.3060   21.5440 H   0  0  0  0  0  0  0  0  0  0  0  0
  -25.7440  -14.1340   20.5170 C   0  0  0  0  0  0  0  0  0  0  0  0
  -24.6170  -13.4090   20.8020 C   0  0  0  0  0  0  0  0  0  0  0  0
  -25.0280  -12.0380   20.8190 C   0  0  0  0  0  0  0  0  0  0  0  0
  -26.7650  -13.2080   20.3730 N   0  0  0  0  0  0  0  0  0  0  0  0
  -26.3360  -11.9450   20.6140 N   0  0  0  0  0  0  0  0  0  0  0  0
  -24.2470  -10.8090   20.9650 C   0  0  0  0  0  0  0  0  0  0  0  0
  -24.5950   -9.8170   21.9120 C   0  0  0  0  0  3  0  0  0  0  0  0
  -23.8130   -8.6480   22.0440 C   0  0  0  0  0  3  0  0  0  0  0  0
  -22.6710   -8.4650   21.2270 C   0  0  0  0  0  0  0  0  0  0  0  0
  -22.3480   -9.4400   20.2630 C   0  0  0  0  0  3  0  0  0  0  0  0
  -23.1330  -10.5990   20.1330 C   0  0  0  0  0  3  0  0  0  0  0  0
  -21.8670   -7.3570   21.2670 O   0  0  0  0  0  0  0  0  0  0  0  0
  -21.7290   -6.6120   22.4110 C   0  0  0  0  0  0  0  0  0  0  0  0
  -21.2810   -7.1800   23.6210 C   0  0  0  0  0  3  0  0  0  0  0  0
  -21.0960   -6.3650   24.7570 C   0  0  0  0  0  3  0  0  0  0  0  0
  -21.3480   -4.9820   24.6840 C   0  0  0  0  0  0  0  0  0  0  0  0
  -21.7870   -4.4130   23.4760 C   0  0  0  0  0  3  0  0  0  0  0  0
  -21.9760   -5.2240   22.3450 C   0  0  0  0  0  0  0  0  0  0  0  0
  -22.3770   -4.6690   21.1790 F   0  0  0  0  0  0  0  0  0  0  0  0
  -21.1550   -4.1960   25.7690 F   0  0  0  0  0  0  0  0  0  0  0  0
  -23.2220  -13.9420   20.9570 C   0  0  0  0  0  0  0  0  0  0  0  0
  -22.4060  -13.2880   21.7790 N   0  0  0  0  0  0  0  0  0  0  0  0
  -22.8640  -14.9650   20.3760 O   0  0  0  0  0  0  0  0  0  0  0  0
  -22.7100  -12.4680   22.2850 H   0  0  0  0  0  0  0  0  0  0  0  0
  -21.4610  -13.6150   21.9090 H   0  0  0  0  0  0  0  0  0  0  0  0
  -25.9890  -15.4960   20.3620 N   0  0  0  0  0  0  0  0  0  0  0  0
  -25.2940  -16.2100   20.5450 H   0  0  0  0  0  0  0  0  0  0  0  0
  -26.9260  -15.8560   20.2670 H   0  0  0  0  0  0  0  0  0  0  0  0
  -31.2190  -17.0530   17.1220 C   0  0  0  0  0  1  0  0  0  0  0  0
  -31.5810  -16.7790   18.5950 C   0  0  0  0  0  2  0  0  0  0  0  0
  -28.5160  -25.4230   19.1000 C   0  0  0  0  0  2  0  0  0  0  0  0
  -28.3850  -26.6280   19.9410 O   0  0  0  0  0  0  0  0  0  0  0  0
  -24.6770  -31.8570   23.2580 C   0  0  0  0  0  0  0  0  0  0  0  0
  -27.2210  -27.4050   19.9710 C   0  0  0  0  0  0  0  0  0  0  0  0
  -23.4340  -30.5220   21.5940 C   0  0  0  0  0  3  0  0  0  0  0  0
  -24.8430  -28.9990   20.0930 C   0  0  0  0  0  0  0  0  0  0  0  0
  -25.9760  -30.8130   21.3920 C   0  0  0  0  0  2  0  0  0  0  0  0
  -26.0270  -29.4650   20.6840 C   0  0  0  0  0  0  0  0  0  0  0  0
  -27.2110  -28.6770   20.6150 C   0  0  0  0  0  3  0  0  0  0  0  0
  -26.0050  -26.9560   19.4130 C   0  0  0  0  0  3  0  0  0  0  0  0
  -24.8330  -27.7420   19.4580 C   0  0  0  0  0  3  0  0  0  0  0  0
  -23.6200  -29.8950   20.1850 C   0  0  0  0  0  2  0  0  0  0  0  0
  -24.7160  -31.0790   22.1350 N   0  0  0  0  0  0  0  0  0  0  0  0
  -23.6050  -32.1290   23.8130 O   0  0  0  0  0  0  0  0  0  0  0  0
  -22.7790  -29.4760   22.5260 C   0  0  0  0  0  0  0  0  0  0  0  0
  -21.4510  -29.3120   22.4140 N   0  0  0  0  0  0  0  0  0  0  0  0
  -23.4640  -28.8250   23.3170 O   0  0  0  0  0  0  0  0  0  0  0  0
  -20.9540  -29.8990   21.7570 H   0  0  0  0  0  0  0  0  0  0  0  0
  -18.0790  -28.1020   22.9040 C   0  0  0  0  0  0  0  0  0  0  0  0
  -20.6380  -28.3550   23.1680 C   0  0  0  0  0  3  0  0  0  0  0  0
  -20.7370  -26.9360   22.5620 C   0  0  0  0  0  2  0  0  0  0  0  0
  -19.6310  -26.6360   21.5450 C   0  0  0  0  0  2  0  0  0  0  0  0
  -18.2520  -26.7680   22.1950 C   0  0  0  0  0  2  0  0  0  0  0  0
  -19.2000  -28.8530   23.3460 C   0  0  0  0  0  0  0  0  0  0  0  0
  -18.9830  -30.1030   23.9660 C   0  0  0  0  0  3  0  0  0  0  0  0
  -17.6800  -30.6020   24.1490 C   0  0  0  0  0  3  0  0  0  0  0  0
  -16.5730  -29.8460   23.7240 C   0  0  0  0  0  3  0  0  0  0  0  0
  -16.7740  -28.5980   23.1070 C   0  0  0  0  0  3  0  0  0  0  0  0
  -25.9720  -32.4610   23.8810 C   0  0  0  0  0  3  0  0  0  0  0  0
  -25.6700  -33.8440   24.2800 N   0  0  0  0  0  0  0  0  0  0  0  0
  -26.0030  -34.9350   23.5780 C   0  0  0  0  0  0  0  0  0  0  0  0
  -26.6670  -34.8810   22.5420 O   0  0  0  0  0  0  0  0  0  0  0  0
  -25.0760  -33.9610   25.0910 H   0  0  0  0  0  0  0  0  0  0  0  0
  -24.2820  -36.7540   23.3220 C   0  0  0  0  0  1  0  0  0  0  0  0
  -25.5210  -36.3000   24.1110 C   0  0  0  0  0  3  0  0  0  0  0  0
  -27.6590  -37.1260   24.9890 C   0  0  0  0  0  1  0  0  0  0  0  0
  -26.5590  -37.3520   24.0550 N   0  0  0  0  0  0  0  0  0  0  0  0
  -26.1570  -38.2660   24.2530 H   0  0  0  0  0  0  0  0  0  0  0  0
  -26.5170  -31.6390   25.1150 C   0  0  1  0  0  0  0  0  0  0  0  0
  -25.4470  -31.3630   26.1960 C   0  0  0  0  0  1  0  0  0  0  0  0
  -27.0900  -30.2790   24.6620 C   0  0  0  0  0  1  0  0  0  0  0  0
  -27.6780  -32.4080   25.7890 C   0  0  0  0  0  1  0  0  0  0  0  0
  1  4  2  0
  1  5  1  0
  2  6  2  0
  3  6  1  0
  4  2  1  0
  5  3  2  0
  6  7  1  0
  7  8  1  0
  7  9  1  0
 10 11  1  0
 10  4  1  0
 11 14  1  0
 11 12  1  0
 13 11  1  0
 15 55  1  0
 15 14  1  0
 15 24  1  0
 17 22  1  0
 18 19  1  0
 18 17  1  0
 20 19  1  0
 20 29  1  0
 20 21  1  0
 22 16  1  0
 22 21  1  0
 23 16  2  0
 24 16  1  0
 24 25  1  0
 26 27  2  0
 27 28  1  0
 27 46  1  0
 28 31  1  0
 29 26  1  0
 29 30  1  0
 30 28  2  0
 31 32  1  0
 32 33  2  0
 34 37  1  0
 34 33  1  0
 35 34  2  0
 36 35  1  0
 36 31  2  0
 37 38  1  0
 38 39  1  0
 39 40  2  0
 41 40  1  0
 41 45  1  0
 42 41  2  0
 43 38  2  0
 43 42  1  0
 44 43  1  0
 46 47  1  0
 47 50  1  0
 47 49  1  0
 48 46  2  0
 51 26  1  0
 51 52  1  0
 53 51  1  0
 54 55  1  0
 56  5  1  0
 56 57  1  0
 57 59  1  0
 58 69  2  0
 59 64  1  0
 60 68  1  0
 60 70  1  0
 61 67  1  0
 61 63  1  0
 62 68  1  0
 63 62  1  0
 64 63  2  0
 65 66  1  0
 65 59  2  0
 66 61  2  0
 67 60  1  0
 68 58  1  0
 70 72  2  0
 71 70  1  0
 73 71  1  0
 74 83  2  0
 74 79  1  0
 75 71  1  0
 75 79  1  0
 76 75  1  0
 77 78  1  0
 77 76  1  0
 78 74  1  0
 79 80  2  0
 80 81  1  0
 82 81  2  0
 83 82  1  0
 84 58  1  0
 84 85  1  0
 84 94  1  0
 85 88  1  0
 86 90  1  0
 86 85  1  0
 87 86  2  0
 90 89  1  0
 92 90  1  0
 92 93  1  0
 92 91  1  0
 94 97  1  1
 94 95  1  0
 96 94  1  0
M  ISO  4  16 100  24 100  56 101  57 101
M  END
>  <TORSDO>  (2) 
F 23

>  <SCORE>  (2) 
-12.459

>  <name>  (2) 
1

>  <ligand_id>  (2) 
1

>  <original_smiles>  (2) 
[H]c1c([H])c([H])c2c(c1[H])C([H])([H])C([H])([H])C([H])([H])C2([H])N([H])C(=O)C1([H])N(C(=O)C([H])(N([H])C(=O)C([H])(N([H])C([H])([H])[H])C([H])([H])[H])C(C([H])([H])[H])(C([H])([H])[H])C([H])([H])[H])C([H])([H])c2c([H])c(OC([H])([H])c3c([H])c(N([H])[H])c([H])c(C([H])([H])[N+]([H])([H])C([H])([H])C([H])(N([H])C(=O)N4C([H])([H])C([H])([H])C([H])([H])C([H])(n5nc(-c6c([H])c([H])c(Oc7c([H])c([H])c(F)c([H])c7F)c([H])c6[H])c(C(=O)N([H])[H])c5N([H])[H])C4([H])[H])C([H])([H])C([H])([H])[H])c3[H])c([H])c([H])c2C1([H])[H]

>  <smiles>  (2) 
[H]c1c([H])c([H])c2c(c1[H])C([H])([H])C([H])([H])C([H])([H])C2([H])N([H])C(=O)C1([H])N(C(=O)C([H])(N([H])C(=O)C([H])(N([H])C([H])([H])[H])C([H])([H])[H])C(C([H])([H])[H])(C([H])([H])[H])C([H])([H])[H])C([H])([H])c2c([H])c(OC([H])([H])c3c([H])c(N([H])[H])c([H])c(C([H])([H])[N+]([H])([H])C([H])([H])C([H])(N([H])C(=O)N4C([H])([H])C([H])([H])C([H])([H])C([H])(n5nc(-c6c([H])c([H])c(Oc7c([H])c([H])c(F)c([H])c7F)c([H])c6[H])c(C(=O)N([H])[H])c5N([H])[H])C4([H])[H])C([H])([H])C([H])([H])[H])c3[H])c([H])c([H])c2C1([H])[H]

$$$$
2:0:0
     RDKit          3D

 94 92  0  0  1  0  0  0  0  0999 V2000
  -29.3280  -12.4570   19.5640 C   0  0  0  0  0 15  0  0  0  0  0  0
  -27.3940  -15.4660   20.0190 C   0  0  0  0  0  1  0  0  0  0  0  0
  -30.3170  -16.2550   19.8790 C   0  0  0  0  0  1  0  0  0  0  0  0
  -27.5050  -13.4440   19.8610 C   0  0  0  0  0  1  0  0  0  0  0  0
  -31.1100  -14.4620   19.6320 C   0  0  0  0  0  1  0  0  0  0  0  0
  -28.6010  -17.0080   19.9600 C   0  0  0  0  0  2  0  0  0  0  0  0
  -26.2240  -12.6320   19.8130 C   0  0  0  0  0  1  0  0  0  0  0  0
  -32.2110  -14.9510   18.5710 C   0  0  0  0  0  2  0  0  0  0  0  0
  -32.8190  -17.1960   19.6210 C   0  0  0  0  0  1  0  0  0  0  0  0
  -32.6080  -16.4390   18.2860 C   0  0  0  0  0  3  0  0  0  0  0  0
  -31.7670  -17.1730   17.3050 N   0  0  0  0  0  4  0  0  0  0  0  0
  -30.8300  -16.8300   17.4560 H   0  0  0  0  0  0  0  0  0  0  0  0
  -31.7470  -18.1510   17.5440 H   0  0  0  0  0  0  0  0  0  0  0  0
  -32.0320  -16.9840   15.8530 C   0  0  0  0  0  2  0  0  0  0  0  0
  -32.5590  -18.2450   15.1190 C   0  0  0  0  0  2  0  0  0  0  0  0
  -32.6510  -18.1720   13.5710 C   0  0  0  0  0  2  0  0  0  0  0  0
  -33.9180  -18.7870   12.9270 C   0  0  0  0  0  0  0  0  0  0  0  0
  -35.6700  -20.4360   12.4500 C   0  0  0  0  0  2  0  0  0  0  0  0
  -36.8780  -21.0550   13.7430 C   0  0  0  0  0  1  0  0  0  0  0  0
  -36.1320  -21.9320   15.5860 C   0  0  0  0  0 15  0  0  0  0  0  0
  -33.8160  -22.0640   15.3620 C   0  0  0  0  0  1  0  0  0  0  0  0
  -33.1240  -21.0540   13.7920 C   0  0  0  0  0  1  0  0  0  0  0  0
  -34.0950  -20.1480   12.7860 N   0  0  0  0  0  0  0  0  0  0  0  0
  -34.8300  -17.9840   12.7110 O   0  0  0  0  0  0  0  0  0  0  0  0
  -31.7260  -23.7720   14.8650 C   0  0  0  0  0  0  0  0  0  0  0  0
  -31.0920  -24.7280   14.1260 C   0  0  0  0  0  0  0  0  0  0  0  0
  -31.8400  -25.0450   12.9620 C   0  0  0  0  0  0  0  0  0  0  0  0
  -32.8640  -23.3120   14.3650 N   0  0  0  0  0  0  0  0  0  0  0  0
  -32.9630  -24.2070   13.1320 N   0  0  0  0  0  0  0  0  0  0  0  0
  -31.4000  -26.1030   11.8760 C   0  0  0  0  0  0  0  0  0  0  0  0
  -30.7810  -25.8130   10.6170 C   0  0  0  0  0  3  0  0  0  0  0  0
  -30.2280  -26.8190    9.7520 C   0  0  0  0  0  3  0  0  0  0  0  0
  -30.2470  -28.1930   10.1060 C   0  0  0  0  0  0  0  0  0  0  0  0
  -30.8520  -28.5090   11.3390 C   0  0  0  0  0  3  0  0  0  0  0  0
  -31.4070  -27.5030   12.1810 C   0  0  0  0  0  3  0  0  0  0  0  0
  -29.7760  -29.2420    9.3210 O   0  0  0  0  0  0  0  0  0  0  0  0
  -28.6310  -29.1740    8.5500 C   0  0  0  0  0  0  0  0  0  0  0  0
  -27.3600  -28.9480    9.1260 C   0  0  0  0  0  3  0  0  0  0  0  0
  -26.2010  -28.9420    8.3190 C   0  0  0  0  0  3  0  0  0  0  0  0
  -26.2980  -29.1700    6.9350 C   0  0  0  0  0  0  0  0  0  0  0  0
  -27.5530  -29.4190    6.3570 C   0  0  0  0  0  3  0  0  0  0  0  0
  -28.7110  -29.4310    7.1590 C   0  0  0  0  0  0  0  0  0  0  0  0
  -29.9070  -29.7030    6.5830 F   0  0  0  0  0  0  0  0  0  0  0  0
  -25.1850  -29.1500    6.1610 F   0  0  0  0  0  0  0  0  0  0  0  0
  -29.8330  -25.3330   14.6200 C   0  0  0  0  0  0  0  0  0  0  0  0
  -28.7240  -25.1230   13.9330 N   0  0  0  0  0  0  0  0  0  0  0  0
  -29.8310  -25.9210   15.7010 O   0  0  0  0  0  0  0  0  0  0  0  0
  -28.7430  -24.6060   13.0650 H   0  0  0  0  0  0  0  0  0  0  0  0
  -27.8450  -25.4850   14.2730 H   0  0  0  0  0  0  0  0  0  0  0  0
  -31.4360  -23.1760   16.0530 N   0  0  0  0  0  0  0  0  0  0  0  0
  -30.6750  -23.5030   16.6370 H   0  0  0  0  0  0  0  0  0  0  0  0
  -32.1070  -22.6010   16.5480 H   0  0  0  0  0  0  0  0  0  0  0  0
  -27.9680  -19.4690   19.9850 C   0  0  0  0  0 15  0  0  0  0  0  0
  -28.0340  -21.8850   20.1600 O   0  0  0  0  0 15  0  0  0  0  0  0
  -27.5070  -29.8920   24.2960 C   0  0  0  0  0  0  0  0  0  0  0  0
  -27.4090  -23.5870   20.7940 C   0  0  0  0  0  3  0  0  0  0  0  0
  -25.9540  -28.0220   24.5010 C   0  0  0  0  0  3  0  0  0  0  0  0
  -25.8600  -26.1080   22.5770 C   0  0  0  0  0  0  0  0  0  0  0  0
  -27.2280  -28.1220   22.2270 C   0  0  0  0  0  2  0  0  0  0  0  0
  -26.9960  -26.4760   21.8590 C   0  0  0  0  0  0  0  0  0  0  0  0
  -27.6830  -25.2660   20.9930 C   0  0  0  0  0  3  0  0  0  0  0  0
  -26.1220  -23.7500   21.4710 C   0  0  0  0  0  3  0  0  0  0  0  0
  -25.4460  -24.7920   22.2680 C   0  0  0  0  0  3  0  0  0  0  0  0
  -25.1130  -27.0500   23.5980 C   0  0  0  0  0  2  0  0  0  0  0  0
  -26.9450  -28.7620   23.6550 N   0  0  0  0  0  0  0  0  0  0  0  0
  -27.2850  -30.1620   25.4960 O   0  0  0  0  0  0  0  0  0  0  0  0
  -26.6580  -27.2500   25.6570 C   0  0  0  0  0  0  0  0  0  0  0  0
  -26.3650  -27.5470   26.9410 N   0  0  0  0  0  0  0  0  0  0  0  0
  -27.4650  -26.3620   25.3700 O   0  0  0  0  0  0  0  0  0  0  0  0
  -25.7200  -28.3040   27.1280 H   0  0  0  0  0  0  0  0  0  0  0  0
  -26.7060  -27.5340   30.5780 C   0  0  0  0  0  0  0  0  0  0  0  0
  -26.8460  -26.7800   28.1020 C   0  0  0  0  0  3  0  0  0  0  0  0
  -25.8260  -25.6860   28.4960 C   0  0  0  0  0  2  0  0  0  0  0  0
  -24.8420  -26.1450   29.5770 C   0  0  0  0  0  2  0  0  0  0  0  0
  -25.5920  -26.5380   30.8520 C   0  0  0  0  0  2  0  0  0  0  0  0
  -27.2830  -27.6600   29.2840 C   0  0  0  0  0  0  0  0  0  0  0  0
  -28.3010  -28.6180   29.0820 C   0  0  0  0  0  3  0  0  0  0  0  0
  -28.7370  -29.4410   30.1390 C   0  0  0  0  0  3  0  0  0  0  0  0
  -28.1690  -29.3050   31.4170 C   0  0  0  0  0  3  0  0  0  0  0  0
  -27.1600  -28.3500   31.6350 C   0  0  0  0  0  3  0  0  0  0  0  0
  -28.4600  -30.9220   23.5990 C   0  0  0  0  0  3  0  0  0  0  0  0
  -28.2570  -32.2830   24.1810 N   0  0  0  0  0  0  0  0  0  0  0  0
  -27.4750  -33.2580   23.6890 C   0  0  0  0  0  0  0  0  0  0  0  0
  -26.8140  -33.1060   22.6590 O   0  0  0  0  0  0  0  0  0  0  0  0
  -28.7200  -32.4560   25.0600 H   0  0  0  0  0  0  0  0  0  0  0  0
  -26.1190  -34.6860   25.2820 C   0  0  0  0  0  1  0  0  0  0  0  0
  -27.4050  -34.6110   24.4420 C   0  0  0  0  0  3  0  0  0  0  0  0
  -28.7890  -36.0530   23.0030 C   0  0  0  0  0  1  0  0  0  0  0  0
  -27.4630  -35.7970   23.5560 N   0  0  0  0  0  0  0  0  0  0  0  0
  -27.1600  -36.6300   24.0520 H   0  0  0  0  0  0  0  0  0  0  0  0
  -29.9890  -30.5500   23.7620 C   0  0  1  0  0  0  0  0  0  0  0  0
  -30.3730  -30.0430   25.1730 C   0  0  0  0  0  1  0  0  0  0  0  0
  -30.4040  -29.4610   22.7560 C   0  0  0  0  0  1  0  0  0  0  0  0
  -30.8730  -31.7820   23.4510 C   0  0  0  0  0  1  0  0  0  0  0  0
  3  6  1  0
  6  2  1  0
  7  4  1  0
  8  5  1  0
 10  8  1  0
 10  9  1  0
 11 12  1  0
 11 13  1  0
 11 10  1  0
 14 11  1  0
 15 14  1  0
 16 15  1  0
 17 16  1  0
 18 23  1  0
 18 19  1  0
 23 17  1  0
 23 22  1  0
 24 17  2  0
 25 50  1  0
 26 45  1  0
 26 25  2  0
 27 29  2  0
 27 26  1  0
 28 25  1  0
 28 21  1  0
 29 28  1  0
 30 35  1  0
 30 27  1  0
 31 30  2  0
 32 33  2  0
 32 31  1  0
 33 34  1  0
 34 35  2  0
 36 33  1  0
 37 38  1  0
 37 36  1  0
 39 38  2  0
 40 39  1  0
 41 40  2  0
 41 42  1  0
 42 37  2  0
 43 42  1  0
 44 40  1  0
 45 47  2  0
 46 49  1  0
 46 45  1  0
 48 46  1  0
 50 52  1  0
 50 51  1  0
 55 66  2  0
 56 61  2  0
 56 62  1  0
 57 67  1  0
 58 64  1  0
 59 65  1  0
 60 59  1  0
 60 58  2  0
 61 60  1  0
 62 63  2  0
 63 58  1  0
 64 57  1  0
 65 55  1  0
 65 57  1  0
 67 68  1  0
 68 70  1  0
 69 67  2  0
 71 75  1  0
 71 80  1  0
 72 68  1  0
 72 73  1  0
 72 76  1  0
 73 74  1  0
 74 75  1  0
 76 71  2  0
 77 76  1  0
 77 78  2  0
 78 79  1  0
 79 80  2  0
 81 91  1  0
 81 82  1  0
 81 55  1  0
 82 85  1  0
 83 82  1  0
 83 87  1  0
 84 83  2  0
 87 86  1  0
 88 89  1  0
 89 90  1  0
 89 87  1  0
 91 92  1  1
 93 91  1  0
 94 91  1  0
M  ISO  4  16 100  17 100  53 101  54 101
M  END
>  <TORSDO>  (3) 
F 23

>  <SCORE>  (3) 
-6.634

>  <name>  (3) 
2

>  <ligand_id>  (3) 
2

>  <original_smiles>  (3) 
[H]c1c([H])c([H])c2c(c1[H])C([H])([H])C([H])([H])C([H])([H])C2([H])N([H])C(=O)C1([H])N(C(=O)C([H])(N([H])C(=O)C([H])(N([H])C([H])([H])[H])C([H])([H])[H])C(C([H])([H])[H])(C([H])([H])[H])C([H])([H])[H])C([H])([H])c2c([H])c(OC([H])([H])c3c([H])c(C([H])([H])[H])c([H])c(C([H])([H])C([H])(C([H])([H])[H])[N+]([H])([H])C([H])([H])C([H])([H])C([H])([H])C(=O)N4C([H])([H])C([H])([H])C([H])([H])C([H])(n5nc(-c6c([H])c([H])c(Oc7c([H])c([H])c(F)c([H])c7F)c([H])c6[H])c(C(=O)N([H])[H])c5N([H])[H])C4([H])[H])c3[H])c([H])c([H])c2C1([H])[H]

>  <smiles>  (3) 
[H]c1c([H])c([H])c2c(c1[H])C([H])([H])C([H])([H])C([H])([H])C2([H])N([H])C(=O)C1([H])N(C(=O)C([H])(N([H])C(=O)C([H])(N([H])C([H])([H])[H])C([H])([H])[H])C(C([H])([H])[H])(C([H])([H])[H])C([H])([H])[H])C([H])([H])c2c([H])c(OC([H])([H])c3c([H])c(C([H])([H])[H])c([H])c(C([H])([H])C([H])(C([H])([H])[H])[N+]([H])([H])C([H])([H])C([H])([H])C([H])([H])C(=O)N4C([H])([H])C([H])([H])C([H])([H])C([H])(n5nc(-c6c([H])c([H])c(Oc7c([H])c([H])c(F)c([H])c7F)c([H])c6[H])c(C(=O)N([H])[H])c5N([H])[H])C4([H])[H])c3[H])c([H])c([H])c2C1([H])[H]

$$$$
3:0:0
     RDKit          3D

100109  0  0  1  0  0  0  0  0999 V2000
  -28.7390  -25.5210   24.7270 C   0  0  0  0  0  3  0  0  0  0  0  0
  -29.4760  -25.1290   25.8610 C   0  0  0  0  0  3  0  0  0  0  0  0
  -30.4530  -24.5610   23.2890 C   0  0  0  0  0  3  0  0  0  0  0  0
  -29.2210  -25.2330   23.4340 C   0  0  0  0  0  0  0  0  0  0  0  0
  -31.2000  -24.1580   24.4190 C   0  0  0  0  0  0  0  0  0  0  0  0
  -30.7010  -24.4480   25.7130 C   0  0  0  0  0  0  0  0  0  0  0  0
  -31.4000  -24.0860   26.8280 O   0  0  0  0  0  0  0  0  0  0  0  0
  -30.9750  -24.3490   27.6400 H   0  0  0  0  0  0  0  0  0  0  0  0
  -28.4060  -25.6140   22.2070 C   0  0  0  0  0  2  0  0  0  0  0  0
  -29.1390  -26.5700   21.2440 C   0  0  0  0  0  2  0  0  0  0  0  0
  -28.3950  -26.7230   20.0360 O   0  0  0  0  0  0  0  0  0  0  0  0
  -24.6120  -31.8720   23.2150 C   0  0  0  0  0  0  0  0  0  0  0  0
  -27.2500  -27.4790   20.1000 C   0  0  0  0  0  0  0  0  0  0  0  0
  -23.3990  -30.4930   21.5540 C   0  0  0  0  0  3  0  0  0  0  0  0
  -24.8480  -28.9600   20.1220 C   0  0  0  0  0  0  0  0  0  0  0  0
  -25.9210  -30.8490   21.3630 C   0  0  0  0  0  2  0  0  0  0  0  0
  -26.0010  -29.4820   20.7210 C   0  0  0  0  0  0  0  0  0  0  0  0
  -27.2030  -28.7480   20.7160 C   0  0  0  0  0  3  0  0  0  0  0  0
  -26.0870  -26.9650   19.4900 C   0  0  0  0  0  3  0  0  0  0  0  0
  -24.8830  -27.6950   19.5060 C   0  0  0  0  0  3  0  0  0  0  0  0
  -23.6070  -29.8220   20.1690 C   0  0  0  0  0  2  0  0  0  0  0  0
  -24.6610  -31.0860   22.1030 N   0  0  0  0  0  0  0  0  0  0  0  0
  -23.5320  -32.1450   23.7560 O   0  0  0  0  0  0  0  0  0  0  0  0
  -22.7410  -29.4670   22.5030 C   0  0  0  0  0  0  0  0  0  0  0  0
  -21.4140  -29.3030   22.3750 N   0  0  0  0  0  0  0  0  0  0  0  0
  -23.4190  -28.8220   23.3060 O   0  0  0  0  0  0  0  0  0  0  0  0
  -20.9310  -29.8760   21.6980 H   0  0  0  0  0  0  0  0  0  0  0  0
  -18.0270  -28.1380   22.8490 C   0  0  0  0  0  0  0  0  0  0  0  0
  -20.5860  -28.3660   23.1330 C   0  0  0  0  0  3  0  0  0  0  0  0
  -20.6770  -26.9400   22.5430 C   0  0  0  0  0  2  0  0  0  0  0  0
  -19.5750  -26.6390   21.5220 C   0  0  0  0  0  2  0  0  0  0  0  0
  -18.1920  -26.7930   22.1620 C   0  0  0  0  0  2  0  0  0  0  0  0
  -19.1520  -28.8840   23.2910 C   0  0  0  0  0  0  0  0  0  0  0  0
  -18.9450  -30.1450   23.8910 C   0  0  0  0  0  3  0  0  0  0  0  0
  -17.6450  -30.6580   24.0580 C   0  0  0  0  0  3  0  0  0  0  0  0
  -16.5340  -29.9090   23.6320 C   0  0  0  0  0  3  0  0  0  0  0  0
  -16.7260  -28.6510   23.0330 C   0  0  0  0  0  3  0  0  0  0  0  0
  -25.9030  -32.4840   23.8440 C   0  0  0  0  0  3  0  0  0  0  0  0
  -26.4480  -31.6580   25.0740 C   0  0  1  0  0  0  0  0  0  0  0  0
  -25.3790  -31.3670   26.1520 C   0  0  0  0  0  1  0  0  0  0  0  0
  -27.0310  -30.3030   24.6060 C   0  0  0  0  0  1  0  0  0  0  0  0
  -27.6080  -32.4290   25.7470 C   0  0  0  0  0  1  0  0  0  0  0  0
  -25.5900  -33.8640   24.2380 N   0  0  0  0  0  0  0  0  0  0  0  0
  -25.9030  -34.9480   23.5160 C   0  0  0  0  0  0  0  0  0  0  0  0
  -26.5560  -34.8920   22.4700 O   0  0  0  0  0  0  0  0  0  0  0  0
  -25.0130  -33.9820   25.0580 H   0  0  0  0  0  0  0  0  0  0  0  0
  -24.1480  -36.7320   23.2640 C   0  0  0  0  0  1  0  0  0  0  0  0
  -25.4100  -36.3130   24.0350 C   0  0  0  0  0  3  0  0  0  0  0  0
  -27.5580  -37.1810   24.8460 C   0  0  0  0  0  1  0  0  0  0  0  0
  -26.4300  -37.3800   23.9410 N   0  0  0  0  0  0  0  0  0  0  0  0
  -26.0200  -38.2890   24.1400 H   0  0  0  0  0  0  0  0  0  0  0  0
  -32.5470  -23.4590   24.2220 C   0  0  0  0  0  2  0  0  0  0  0  0
  -32.4920  -22.3350   23.2650 N   0  0  0  0  0  4  0  0  0  0  0  0
  -33.4440  -22.0660   23.0760 H   0  0  0  0  0  0  0  0  0  0  0  0
  -32.0980  -22.6730   22.4040 H   0  0  0  0  0  0  0  0  0  0  0  0
  -31.7520  -21.1370   23.7170 C   0  0  0  0  0  2  0  0  0  0  0  0
  -31.6950  -20.0730   22.6040 C   0  0  0  0  0  2  0  0  0  0  0  0
  -31.0480  -18.7420   23.0410 C   0  0  0  0  0  2  0  0  0  0  0  0
  -29.7590  -16.7510   20.1520 C   0  0  0  0  0  2  0  0  0  0  0  0
  -29.9340  -18.0580   20.9150 C   0  0  0  0  0  2  0  0  0  0  0  0
  -30.8100  -16.3540   22.3190 C   0  0  0  0  0  2  0  0  0  0  0  0
  -29.9840  -15.6550   21.2120 C   0  0  0  0  0  3  0  0  0  0  0  0
  -30.9790  -17.7710   21.9180 N   0  0  2  0  0  4  0  0  0  0  0  0
  -31.8650  -17.8040   21.4350 H   0  0  0  0  0  0  0  0  0  0  0  0
  -30.6980  -14.4300   20.5920 C   0  0  0  0  0  0  0  0  0  0  0  0
  -30.4270  -12.2860   19.4070 C   0  0  0  0  0  2  0  0  0  0  0  0
  -29.4930  -12.5090   18.1980 C   0  0  0  0  0  2  0  0  0  0  0  0
  -28.0110  -12.3840   18.6070 C   0  0  0  0  0  2  0  0  0  0  0  0
  -27.6670  -13.2000   19.8820 C   0  0  0  0  0  3  0  0  0  0  0  0
  -28.7100  -12.9270   20.9880 C   0  0  0  0  0  2  0  0  0  0  0  0
  -30.0400  -13.2480   20.4500 N   0  0  0  0  0  0  0  0  0  0  0  0
  -31.8220  -14.6160   20.1140 O   0  0  0  0  0  0  0  0  0  0  0  0
  -25.2610  -13.8150   20.5680 C   0  0  0  0  0  0  0  0  0  0  0  0
  -24.1850  -13.0450   20.9170 C   0  0  0  0  0  0  0  0  0  0  0  0
  -24.6380  -11.6910   20.8730 C   0  0  0  0  0  0  0  0  0  0  0  0
  -26.3050  -12.9310   20.3400 N   0  0  0  0  0  0  0  0  0  0  0  0
  -25.9310  -11.6470   20.5770 N   0  0  0  0  0  0  0  0  0  0  0  0
  -23.9040  -10.4310   21.0410 C   0  0  0  0  0  0  0  0  0  0  0  0
  -24.3610   -9.4220   21.9180 C   0  0  0  0  0  3  0  0  0  0  0  0
  -23.6300   -8.2260   22.0750 C   0  0  0  0  0  3  0  0  0  0  0  0
  -22.4280   -8.0290   21.3550 C   0  0  0  0  0  0  0  0  0  0  0  0
  -21.9900   -9.0260   20.4650 C   0  0  0  0  0  3  0  0  0  0  0  0
  -22.7220  -10.2140   20.3050 C   0  0  0  0  0  3  0  0  0  0  0  0
  -21.6650   -6.8880   21.4240 O   0  0  0  0  0  0  0  0  0  0  0  0
  -21.6860   -6.0730   22.5270 C   0  0  0  0  0  0  0  0  0  0  0  0
  -21.4010   -6.5630   23.8210 C   0  0  0  0  0  3  0  0  0  0  0  0
  -21.3670   -5.6780   24.9170 C   0  0  0  0  0  3  0  0  0  0  0  0
  -21.6050   -4.3050   24.7230 C   0  0  0  0  0  0  0  0  0  0  0  0
  -21.8820   -3.8140   23.4350 C   0  0  0  0  0  3  0  0  0  0  0  0
  -21.9200   -4.6960   22.3400 C   0  0  0  0  0  0  0  0  0  0  0  0
  -22.1670   -4.2140   21.0980 F   0  0  0  0  0  0  0  0  0  0  0  0
  -21.5650   -3.4540   25.7740 F   0  0  0  0  0  0  0  0  0  0  0  0
  -22.7880  -13.5250   21.1840 C   0  0  0  0  0  0  0  0  0  0  0  0
  -22.0510  -12.8250   22.0390 N   0  0  0  0  0  0  0  0  0  0  0  0
  -22.3560  -14.5560   20.6680 O   0  0  0  0  0  0  0  0  0  0  0  0
  -22.4100  -11.9920   22.4800 H   0  0  0  0  0  0  0  0  0  0  0  0
  -21.1120  -13.1290   22.2570 H   0  0  0  0  0  0  0  0  0  0  0  0
  -25.4360  -15.1870   20.4090 N   0  0  0  0  0  0  0  0  0  0  0  0
  -24.6710  -15.8450   20.5140 H   0  0  0  0  0  0  0  0  0  0  0  0
  -26.2890  -15.6250   20.0860 H   0  0  0  0  0  0  0  0  0  0  0  0
  1  2  1  0
  3  4  1  0
  3  5  2  0
  4  1  2  0
  5  6  1  0
  6  2  2  0
  6  7  1  0
  7  8  1  0
  9  4  1  0
 10  9  1  0
 11 13  1  0
 11 10  1  0
 12 23  2  0
 13 18  1  0
 14 22  1  0
 14 24  1  0
 15 21  1  0
 15 17  1  0
 16 22  1  0
 17 16  1  0
 18 17  2  0
 19 20  1  0
 19 13  2  0
 20 15  2  0
 21 14  1  0
 22 12  1  0
 24 26  2  0
 25 24  1  0
 27 25  1  0
 28 37  2  0
 28 33  1  0
 29 25  1  0
 29 33  1  0
 30 29  1  0
 31 32  1  0
 31 30  1  0
 32 28  1  0
 33 34  2  0
 34 35  1  0
 36 35  2  0
 37 36  1  0
 38 12  1  0
 38 43  1  0
 38 39  1  0
 39 42  1  1
 39 40  1  0
 41 39  1  0
 43 46  1  0
 44 48  1  0
 44 43  1  0
 45 44  2  0
 48 47  1  0
 50 48  1  0
 50 51  1  0
 50 49  1  0
 52  5  1  0
 53 56  1  0
 53 52  1  0
 54 53  1  0
 55 53  1  0
 57 58  1  0
 57 56  1  0
 59 60  1  0
 59 62  1  0
 60 63  1  0
 62 65  1  0
 62 61  1  0
 63 61  1  0
 63 58  1  0
 63 64  1  6
 66 71  1  0
 67 68  1  0
 67 66  1  0
 69 68  1  0
 69 76  1  0
 69 70  1  0
 71 65  1  0
 71 70  1  0
 72 65  2  0
 73 74  2  0
 74 93  1  0
 75 74  1  0
 75 78  1  0
 76 73  1  0
 76 77  1  0
 77 75  2  0
 78 79  1  0
 79 80  2  0
 81 84  1  0
 81 80  1  0
 82 81  2  0
 83 82  1  0
 83 78  2  0
 84 85  1  0
 85 86  1  0
 86 87  2  0
 88 87  1  0
 88 92  1  0
 89 88  2  0
 90 85  2  0
 90 89  1  0
 91 90  1  0
 93 94  1  0
 94 97  1  0
 94 96  1  0
 95 93  2  0
 98 99  1  0
 98 73  1  0
100 98  1  0
M  ISO  4  10 101  11 101  62 100  65 100
M  END
>  <TORSDO>  (4) 
F 25

>  <SCORE>  (4) 
12.597

>  <name>  (4) 
3

>  <ligand_id>  (4) 
3

>  <original_smiles>  (4) 
[H]Oc1c([H])c([H])c(C([H])([H])C([H])([H])Oc2c([H])c([H])c3c(c2[H])C([H])([H])N(C(=O)C([H])(N([H])C(=O)C([H])(N([H])C([H])([H])[H])C([H])([H])[H])C(C([H])([H])[H])(C([H])([H])[H])C([H])([H])[H])C([H])(C(=O)N([H])C2([H])c4c([H])c([H])c([H])c([H])c4C([H])([H])C([H])([H])C2([H])[H])C3([H])[H])c([H])c1C([H])([H])[N+]([H])([H])C([H])([H])C([H])([H])C([H])([H])[N+]1([H])C([H])([H])C([H])([H])C([H])(C(=O)N2C([H])([H])C([H])([H])C([H])([H])C([H])(n3nc(-c4c([H])c([H])c(Oc5c([H])c([H])c(F)c([H])c5F)c([H])c4[H])c(C(=O)N([H])[H])c3N([H])[H])C2([H])[H])C1([H])[H]

>  <smiles>  (4) 
[H]Oc1c([H])c([H])c(C([H])([H])C([H])([H])Oc2c([H])c([H])c3c(c2[H])C([H])([H])N(C(=O)C([H])(N([H])C(=O)C([H])(N([H])C([H])([H])[H])C([H])([H])[H])C(C([H])([H])[H])(C([H])([H])[H])C([H])([H])[H])C([H])(C(=O)N([H])C2([H])c4c([H])c([H])c([H])c([H])c4C([H])([H])C([H])([H])C2([H])[H])C3([H])[H])c([H])c1C([H])([H])[N+]([H])([H])C([H])([H])C([H])([H])C([H])([H])[N+]1([H])C([H])([H])C([H])([H])C([H])(C(=O)N2C([H])([H])C([H])([H])C([H])([H])C([H])(n3nc(-c4c([H])c([H])c(Oc5c([H])c([H])c(F)c([H])c5F)c([H])c4[H])c(C(=O)N([H])[H])c3N([H])[H])C2([H])[H])C1([H])[H]

$$$$
4:0:0
     RDKit          3D

 97106  0  0  1  0  0  0  0  0999 V2000
  -30.9090  -20.5650   17.4000 C   0  0  0  0  0  2  0  0  0  0  0  0
  -32.1830  -22.4170   18.0830 C   0  0  0  0  0  3  0  0  0  0  0  0
  -31.2020  -20.4240   18.8930 C   0  0  0  0  0  3  0  0  0  0  0  0
  -31.1920  -21.9660   17.1000 N   0  0  0  0  0  0  0  0  0  0  0  0
  -32.3370  -21.3320   19.0670 N   0  0  0  0  0  4  0  0  0  0  0  0
  -30.3620  -22.5320   17.2440 H   0  0  0  0  0  0  0  0  0  0  0  0
  -32.4070  -21.6920   20.0030 H   0  0  0  0  0  0  0  0  0  0  0  0
  -33.1910  -20.8450   18.8480 H   0  0  0  0  0  0  0  0  0  0  0  0
  -31.5580  -24.8580   17.8520 C   0  0  0  0  0  3  0  0  0  0  0  0
  -31.4030  -23.8610   20.0710 C   0  0  0  0  0  3  0  0  0  0  0  0
  -30.9720  -26.0420   18.3410 C   0  0  0  0  0  3  0  0  0  0  0  0
  -30.8280  -25.0480   20.5620 C   0  0  0  0  0  3  0  0  0  0  0  0
  -31.7310  -23.7390   18.7000 C   0  0  0  0  0  0  0  0  0  0  0  0
  -30.5630  -26.1200   19.6880 C   0  0  0  0  0  0  0  0  0  0  0  0
  -29.6490  -27.2310   20.1520 C   0  0  0  0  0  2  0  0  0  0  0  0
  -28.3500  -26.6670   20.1530 O   0  0  0  0  0  0  0  0  0  0  0  0
  -24.5680  -31.8880   23.2380 C   0  0  0  0  0  0  0  0  0  0  0  0
  -27.2390  -27.4660   20.2000 C   0  0  0  0  0  0  0  0  0  0  0  0
  -23.3690  -30.4750   21.5960 C   0  0  0  0  0  3  0  0  0  0  0  0
  -24.8350  -28.9320   20.1960 C   0  0  0  0  0  0  0  0  0  0  0  0
  -25.8930  -30.8470   21.4080 C   0  0  0  0  0  2  0  0  0  0  0  0
  -25.9880  -29.4740   20.7810 C   0  0  0  0  0  0  0  0  0  0  0  0
  -27.1990  -28.7500   20.7830 C   0  0  0  0  0  3  0  0  0  0  0  0
  -26.0700  -26.9200   19.6370 C   0  0  0  0  0  3  0  0  0  0  0  0
  -24.8670  -27.6490   19.6230 C   0  0  0  0  0  3  0  0  0  0  0  0
  -23.5880  -29.7840   20.2250 C   0  0  0  0  0  2  0  0  0  0  0  0
  -24.6280  -31.0830   22.1400 N   0  0  0  0  0  0  0  0  0  0  0  0
  -23.4840  -32.1620   23.7720 O   0  0  0  0  0  0  0  0  0  0  0  0
  -22.7130  -29.4600   22.5590 C   0  0  0  0  0  0  0  0  0  0  0  0
  -21.3880  -29.2830   22.4280 N   0  0  0  0  0  0  0  0  0  0  0  0
  -23.3920  -28.8340   23.3770 O   0  0  0  0  0  0  0  0  0  0  0  0
  -20.9030  -29.8400   21.7400 H   0  0  0  0  0  0  0  0  0  0  0  0
  -18.0020  -28.1350   22.9380 C   0  0  0  0  0  0  0  0  0  0  0  0
  -20.5640  -28.3520   23.1980 C   0  0  0  0  0  3  0  0  0  0  0  0
  -20.6420  -26.9220   22.6130 C   0  0  0  0  0  2  0  0  0  0  0  0
  -19.5310  -26.6220   21.6040 C   0  0  0  0  0  2  0  0  0  0  0  0
  -18.1550  -26.7860   22.2560 C   0  0  0  0  0  2  0  0  0  0  0  0
  -19.1340  -28.8770   23.3660 C   0  0  0  0  0  0  0  0  0  0  0  0
  -18.9380  -30.1420   23.9610 C   0  0  0  0  0  3  0  0  0  0  0  0
  -17.6420  -30.6640   24.1330 C   0  0  0  0  0  3  0  0  0  0  0  0
  -16.5240  -29.9160   23.7240 C   0  0  0  0  0  3  0  0  0  0  0  0
  -16.7050  -28.6540   23.1320 C   0  0  0  0  0  3  0  0  0  0  0  0
  -25.8530  -32.5190   23.8610 C   0  0  0  0  0  3  0  0  0  0  0  0
  -25.5460  -33.9200   24.1790 N   0  0  0  0  0  0  0  0  0  0  0  0
  -25.8940  -34.9650   23.4170 C   0  0  0  0  0  0  0  0  0  0  0  0
  -26.5810  -34.8510   22.3980 O   0  0  0  0  0  0  0  0  0  0  0  0
  -24.9390  -34.0830   24.9690 H   0  0  0  0  0  0  0  0  0  0  0  0
  -24.1910  -36.7670   23.0020 C   0  0  0  0  0  1  0  0  0  0  0  0
  -25.4030  -36.3580   23.8550 C   0  0  0  0  0  3  0  0  0  0  0  0
  -27.5170  -37.2270   24.7490 C   0  0  0  0  0  1  0  0  0  0  0  0
  -26.4470  -37.4040   23.7720 N   0  0  0  0  0  0  0  0  0  0  0  0
  -26.0440  -38.3280   23.9080 H   0  0  0  0  0  0  0  0  0  0  0  0
  -26.3640  -31.7510   25.1410 C   0  0  1  0  0  0  0  0  0  0  0  0
  -25.2670  -31.5120   26.2040 C   0  0  0  0  0  1  0  0  0  0  0  0
  -26.9510  -30.3730   24.7520 C   0  0  0  0  0  1  0  0  0  0  0  0
  -27.5090  -32.5470   25.8070 C   0  0  0  0  0  1  0  0  0  0  0  0
  -31.5650  -18.9860   19.3230 C   0  0  0  0  0  2  0  0  0  0  0  0
  -30.5130  -18.2570   20.0460 N   0  0  0  0  0  0  0  0  0  0  0  0
  -29.6570  -18.2620   19.4950 H   0  0  0  0  0  0  0  0  0  0  0  0
  -31.0200  -16.8870   20.1290 C   0  0  0  0  0  2  0  0  0  0  0  0
  -30.1440  -15.7950   20.8040 C   0  0  0  0  0  2  0  0  0  0  0  0
  -30.7720  -14.4200   20.4750 C   0  0  0  0  0  0  0  0  0  0  0  0
  -30.3560  -12.2960   19.3400 C   0  0  0  0  0  2  0  0  0  0  0  0
  -29.4290  -12.5640   18.1380 C   0  0  0  0  0  2  0  0  0  0  0  0
  -27.9570  -12.4410   18.5680 C   0  0  0  0  0  2  0  0  0  0  0  0
  -27.6350  -13.2770   19.8360 C   0  0  0  0  0  3  0  0  0  0  0  0
  -28.6940  -13.0760   20.9440 C   0  0  0  0  0  2  0  0  0  0  0  0
  -30.0260  -13.2940   20.3680 N   0  0  0  0  0  0  0  0  0  0  0  0
  -31.9490  -14.4340   20.1080 O   0  0  0  0  0  0  0  0  0  0  0  0
  -25.2430  -13.8920   20.5530 C   0  0  0  0  0  0  0  0  0  0  0  0
  -24.1700  -13.1230   20.9150 C   0  0  0  0  0  0  0  0  0  0  0  0
  -24.6230  -11.7690   20.8820 C   0  0  0  0  0  0  0  0  0  0  0  0
  -26.2830  -13.0050   20.3210 N   0  0  0  0  0  0  0  0  0  0  0  0
  -25.9150  -11.7240   20.5800 N   0  0  0  0  0  0  0  0  0  0  0  0
  -23.8900  -10.5100   21.0660 C   0  0  0  0  0  0  0  0  0  0  0  0
  -24.3110   -9.5390   22.0020 C   0  0  0  0  0  3  0  0  0  0  0  0
  -23.5770   -8.3460   22.1730 C   0  0  0  0  0  3  0  0  0  0  0  0
  -22.4080   -8.1140   21.4090 C   0  0  0  0  0  0  0  0  0  0  0  0
  -22.0070   -9.0750   20.4630 C   0  0  0  0  0  3  0  0  0  0  0  0
  -22.7410  -10.2600   20.2900 C   0  0  0  0  0  3  0  0  0  0  0  0
  -21.6470   -6.9730   21.4890 O   0  0  0  0  0  0  0  0  0  0  0  0
  -21.5870   -6.2290   22.6400 C   0  0  0  0  0  0  0  0  0  0  0  0
  -21.1380   -6.7800   23.8600 C   0  0  0  0  0  3  0  0  0  0  0  0
  -21.0250   -5.9620   25.0020 C   0  0  0  0  0  3  0  0  0  0  0  0
  -21.3480   -4.5940   24.9240 C   0  0  0  0  0  0  0  0  0  0  0  0
  -21.7900   -4.0430   23.7080 C   0  0  0  0  0  3  0  0  0  0  0  0
  -21.9050   -4.8580   22.5680 C   0  0  0  0  0  0  0  0  0  0  0  0
  -22.3100   -4.3180   21.3940 F   0  0  0  0  0  0  0  0  0  0  0  0
  -21.2320   -3.8070   26.0190 F   0  0  0  0  0  0  0  0  0  0  0  0
  -22.7740  -13.6080   21.1850 C   0  0  0  0  0  0  0  0  0  0  0  0
  -22.0370  -12.9100   22.0400 N   0  0  0  0  0  0  0  0  0  0  0  0
  -22.3470  -14.6430   20.6730 O   0  0  0  0  0  0  0  0  0  0  0  0
  -22.3960  -12.0730   22.4760 H   0  0  0  0  0  0  0  0  0  0  0  0
  -21.1020  -13.2180   22.2650 H   0  0  0  0  0  0  0  0  0  0  0  0
  -25.4160  -15.2620   20.3810 N   0  0  0  0  0  0  0  0  0  0  0  0
  -24.6540  -15.9210   20.4950 H   0  0  0  0  0  0  0  0  0  0  0  0
  -26.2790  -15.6990   20.0800 H   0  0  0  0  0  0  0  0  0  0  0  0
  1  3  1  0
  2 13  1  0
  2  5  1  0
  3  5  1  0
  3 57  1  0
  4  6  1  0
  4  1  1  0
  4  2  1  0
  5  7  1  0
  8  5  1  0
  9 11  2  0
  9 13  1  0
 10 12  1  0
 11 14  1  0
 13 10  2  0
 14 15  1  0
 14 12  2  0
 15 16  1  0
 16 18  1  0
 17 28  2  0
 18 23  1  0
 19 27  1  0
 19 29  1  0
 20 26  1  0
 20 22  1  0
 21 27  1  0
 22 23  2  0
 22 21  1  0
 24 18  2  0
 25 24  1  0
 25 20  2  0
 26 19  1  0
 27 17  1  0
 29 31  2  0
 30 29  1  0
 32 30  1  0
 33 42  2  0
 33 38  1  0
 34 30  1  0
 34 38  1  0
 35 34  1  0
 36 37  1  0
 36 35  1  0
 37 33  1  0
 38 39  2  0
 39 40  1  0
 41 40  2  0
 42 41  1  0
 43 17  1  0
 43 44  1  0
 43 53  1  0
 44 47  1  0
 45 49  1  0
 45 44  1  0
 46 45  2  0
 49 48  1  0
 51 49  1  0
 51 52  1  0
 51 50  1  0
 53 56  1  1
 53 54  1  0
 55 53  1  0
 57 58  1  0
 58 60  1  0
 59 58  1  0
 60 61  1  0
 62 61  1  0
 63 68  1  0
 64 65  1  0
 64 63  1  0
 66 65  1  0
 66 73  1  0
 66 67  1  0
 68 62  1  0
 68 67  1  0
 69 62  2  0
 70 71  2  0
 71 90  1  0
 72 71  1  0
 72 75  1  0
 73 70  1  0
 73 74  1  0
 74 72  2  0
 75 76  1  0
 76 77  2  0
 78 81  1  0
 78 77  1  0
 79 78  2  0
 80 79  1  0
 80 75  2  0
 81 82  1  0
 82 83  1  0
 83 84  2  0
 85 84  1  0
 85 89  1  0
 86 85  2  0
 87 82  2  0
 87 86  1  0
 88 87  1  0
 90 91  1  0
 91 94  1  0
 91 93  1  0
 92 90  2  0
 95 96  1  0
 95 70  1  0
 97 95  1  0
M  ISO  4  15 101  16 101  61 100  62 100
M  END
>  <TORSDO>  (5) 
F 22

>  <SCORE>  (5) 
-13.022

>  <name>  (5) 
4

>  <ligand_id>  (5) 
4

>  <original_smiles>  (5) 
[H]c1c([H])c([H])c2c(c1[H])C([H])([H])C([H])([H])C([H])([H])C2([H])N([H])C(=O)C1([H])N(C(=O)C([H])(N([H])C(=O)C([H])(N([H])C([H])([H])[H])C([H])([H])[H])C(C([H])([H])[H])(C([H])([H])[H])C([H])([H])[H])C([H])([H])c2c([H])c(OC([H])([H])c3c([H])c([H])c(C4([H])N([H])C([H])([H])C([H])(C([H])([H])N([H])C([H])([H])C([H])([H])C(=O)N5C([H])([H])C([H])([H])C([H])([H])C([H])(n6nc(-c7c([H])c([H])c(Oc8c([H])c([H])c(F)c([H])c8F)c([H])c7[H])c(C(=O)N([H])[H])c6N([H])[H])C5([H])[H])[N+]4([H])[H])c([H])c3[H])c([H])c([H])c2C1([H])[H]

>  <smiles>  (5) 
[H]c1c([H])c([H])c2c(c1[H])C([H])([H])C([H])([H])C([H])([H])C2([H])N([H])C(=O)C1([H])N(C(=O)C([H])(N([H])C(=O)C([H])(N([H])C([H])([H])[H])C([H])([H])[H])C(C([H])([H])[H])(C([H])([H])[H])C([H])([H])[H])C([H])([H])c2c([H])c(OC([H])([H])c3c([H])c([H])c(C4([H])N([H])C([H])([H])C([H])(C([H])([H])N([H])C([H])([H])C([H])([H])C(=O)N5C([H])([H])C([H])([H])C([H])([H])C([H])(n6nc(-c7c([H])c([H])c(Oc8c([H])c([H])c(F)c([H])c8F)c([H])c7[H])c(C(=O)N([H])[H])c6N([H])[H])C5([H])[H])[N+]4([H])[H])c([H])c3[H])c([H])c([H])c2C1([H])[H]

$$$$
5:0:0
     RDKit          3D

 97105  0  0  1  0  0  0  0  0999 V2000
  -28.5620  -24.0460   15.7950 C   0  0  0  0  0  3  0  0  0  0  0  0
  -28.9390  -25.3860   15.9860 C   0  0  0  0  0  3  0  0  0  0  0  0
  -28.3590  -23.7670   18.2010 C   0  0  0  0  0  3  0  0  0  0  0  0
  -28.2800  -23.2240   16.9030 C   0  0  0  0  0  0  0  0  0  0  0  0
  -29.0390  -25.9290   17.2850 C   0  0  0  0  0  0  0  0  0  0  0  0
  -28.7330  -25.1160   18.4120 C   0  0  0  0  0  0  0  0  0  0  0  0
  -29.4840  -27.3750   17.4160 C   0  0  0  0  0  1  0  0  0  0  0  0
  -27.8700  -21.7730   16.6800 C   0  0  0  0  0  2  0  0  0  0  0  0
  -29.0430  -20.8500   16.2830 C   0  0  0  0  0  2  0  0  0  0  0  0
  -29.8570  -20.4000   17.4370 N   0  0  0  0  0  4  0  0  0  0  0  0
  -29.8120  -21.0930   18.1640 H   0  0  0  0  0  0  0  0  0  0  0  0
  -30.8140  -20.3530   17.1230 H   0  0  0  0  0  0  0  0  0  0  0  0
  -29.4880  -19.0630   17.9620 C   0  0  0  0  0  2  0  0  0  0  0  0
  -30.4270  -18.5730   19.0850 C   0  0  0  0  0  2  0  0  0  0  0  0
  -30.0880  -17.1400   19.5450 C   0  0  0  0  0  2  0  0  0  0  0  0
  -30.7710  -17.3480   22.0020 C   0  0  0  0  0  1  0  0  0  0  0  0
  -30.9830  -16.5890   20.6820 C   0  0  0  0  0  3  0  0  0  0  0  0
  -31.3690  -14.1290   20.4030 C   0  0  0  0  0  0  0  0  0  0  0  0
  -30.9600  -11.9970   19.2500 C   0  0  0  0  0  2  0  0  0  0  0  0
  -30.0580  -12.2850   18.0320 C   0  0  0  0  0  2  0  0  0  0  0  0
  -28.5670  -12.2650   18.4310 C   0  0  0  0  0  2  0  0  0  0  0  0
  -28.2700  -13.1100   19.6970 C   0  0  0  0  0  3  0  0  0  0  0  0
  -29.2830  -12.7880   20.8200 C   0  0  0  0  0  2  0  0  0  0  0  0
  -30.6400  -12.9910   20.2820 N   0  0  0  0  0  0  0  0  0  0  0  0
  -32.5030  -14.2650   19.9340 O   0  0  0  0  0  0  0  0  0  0  0  0
  -30.6770  -15.1710   20.8900 N   0  0  0  0  0  0  0  0  0  0  0  0
  -29.7630  -14.9510   21.2550 H   0  0  0  0  0  0  0  0  0  0  0  0
  -25.9020  -13.8920   20.3350 C   0  0  0  0  0  0  0  0  0  0  0  0
  -24.7760  -13.2010   20.6980 C   0  0  0  0  0  0  0  0  0  0  0  0
  -25.1460  -11.8210   20.7030 C   0  0  0  0  0  0  0  0  0  0  0  0
  -26.8890  -12.9380   20.1470 N   0  0  0  0  0  0  0  0  0  0  0  0
  -26.4360  -11.6880   20.4220 N   0  0  0  0  0  0  0  0  0  0  0  0
  -24.3340  -10.6130   20.9030 C   0  0  0  0  0  0  0  0  0  0  0  0
  -24.6770   -9.6480   21.8740 C   0  0  0  0  0  3  0  0  0  0  0  0
  -23.8720   -8.5040   22.0600 C   0  0  0  0  0  3  0  0  0  0  0  0
  -22.7090   -8.3170   21.2770 C   0  0  0  0  0  0  0  0  0  0  0  0
  -22.3850   -9.2690   20.2940 C   0  0  0  0  0  3  0  0  0  0  0  0
  -23.1900  -10.4060   20.1070 C   0  0  0  0  0  3  0  0  0  0  0  0
  -21.8850   -7.2240   21.3700 O   0  0  0  0  0  0  0  0  0  0  0  0
  -21.7360   -6.5310   22.5440 C   0  0  0  0  0  0  0  0  0  0  0  0
  -21.2920   -7.1580   23.7290 C   0  0  0  0  0  3  0  0  0  0  0  0
  -21.0880   -6.3950   24.8950 C   0  0  0  0  0  3  0  0  0  0  0  0
  -21.3180   -5.0060   24.8790 C   0  0  0  0  0  0  0  0  0  0  0  0
  -21.7530   -4.3790   23.6990 C   0  0  0  0  0  3  0  0  0  0  0  0
  -21.9580   -5.1390   22.5330 C   0  0  0  0  0  0  0  0  0  0  0  0
  -22.3590   -4.5260   21.3930 F   0  0  0  0  0  0  0  0  0  0  0  0
  -21.1130   -4.2720   25.9970 F   0  0  0  0  0  0  0  0  0  0  0  0
  -23.4090  -13.7740   20.9340 C   0  0  0  0  0  0  0  0  0  0  0  0
  -22.6250  -13.1490   21.8050 N   0  0  0  0  0  0  0  0  0  0  0  0
  -23.0450  -14.8100   20.3800 O   0  0  0  0  0  0  0  0  0  0  0  0
  -22.9300  -12.3090   22.2770 H   0  0  0  0  0  0  0  0  0  0  0  0
  -21.7030  -13.5140   22.0050 H   0  0  0  0  0  0  0  0  0  0  0  0
  -26.1640  -15.2440   20.1340 N   0  0  0  0  0  0  0  0  0  0  0  0
  -25.4440  -15.9540   20.2080 H   0  0  0  0  0  0  0  0  0  0  0  0
  -27.0510  -15.6120   19.8150 H   0  0  0  0  0  0  0  0  0  0  0  0
  -28.8610  -25.5860   19.8650 C   0  0  0  0  0  2  0  0  0  0  0  0
  -28.7450  -26.9880   20.1130 O   0  0  0  0  0  0  0  0  0  0  0  0
  -24.6470  -31.9120   23.1700 C   0  0  0  0  0  0  0  0  0  0  0  0
  -27.5070  -27.5950   20.1050 C   0  0  0  0  0  0  0  0  0  0  0  0
  -23.5140  -30.4660   21.5120 C   0  0  0  0  0  3  0  0  0  0  0  0
  -25.0430  -28.9830   20.1100 C   0  0  0  0  0  0  0  0  0  0  0  0
  -26.0230  -30.9280   21.3410 C   0  0  0  0  0  2  0  0  0  0  0  0
  -26.1710  -29.5610   20.7050 C   0  0  0  0  0  0  0  0  0  0  0  0
  -27.4030  -28.8730   20.6980 C   0  0  0  0  0  3  0  0  0  0  0  0
  -26.3540  -27.0180   19.5220 C   0  0  0  0  0  3  0  0  0  0  0  0
  -25.1280  -27.7100   19.5220 C   0  0  0  0  0  3  0  0  0  0  0  0
  -23.7670  -29.7940   20.1350 C   0  0  0  0  0  2  0  0  0  0  0  0
  -24.7450  -31.1170   22.0670 N   0  0  0  0  0  0  0  0  0  0  0  0
  -23.5490  -32.1390   23.6980 O   0  0  0  0  0  0  0  0  0  0  0  0
  -22.8940  -29.4190   22.4650 C   0  0  0  0  0  0  0  0  0  0  0  0
  -21.5820  -29.1790   22.3160 N   0  0  0  0  0  0  0  0  0  0  0  0
  -23.5920  -28.8250   23.2920 O   0  0  0  0  0  0  0  0  0  0  0  0
  -21.0790  -29.7180   21.6250 H   0  0  0  0  0  0  0  0  0  0  0  0
  -18.2600  -27.8200   22.7350 C   0  0  0  0  0  0  0  0  0  0  0  0
  -20.7930  -28.2080   23.0730 C   0  0  0  0  0  3  0  0  0  0  0  0
  -20.9830  -26.7780   22.5160 C   0  0  0  0  0  2  0  0  0  0  0  0
  -19.9270  -26.3910   21.4750 C   0  0  0  0  0  2  0  0  0  0  0  0
  -18.5230  -26.4730   22.0800 C   0  0  0  0  0  2  0  0  0  0  0  0
  -19.3280  -28.6400   23.1870 C   0  0  0  0  0  0  0  0  0  0  0  0
  -19.0310  -29.8970   23.7570 C   0  0  0  0  0  3  0  0  0  0  0  0
  -17.6990  -30.3360   23.8790 C   0  0  0  0  0  3  0  0  0  0  0  0
  -16.6460  -29.5120   23.4440 C   0  0  0  0  0  3  0  0  0  0  0  0
  -16.9260  -28.2570   22.8780 C   0  0  0  0  0  3  0  0  0  0  0  0
  -25.8980  -32.5930   23.8040 C   0  0  0  0  0  3  0  0  0  0  0  0
  -25.5260  -33.9720   24.1480 N   0  0  0  0  0  0  0  0  0  0  0  0
  -25.8240  -35.0490   23.4070 C   0  0  0  0  0  0  0  0  0  0  0  0
  -26.5130  -34.9880   22.3850 O   0  0  0  0  0  0  0  0  0  0  0  0
  -24.9130  -34.0910   24.9420 H   0  0  0  0  0  0  0  0  0  0  0  0
  -24.0240  -36.7690   23.0510 C   0  0  0  0  0  1  0  0  0  0  0  0
  -25.2710  -36.4080   23.8760 C   0  0  0  0  0  3  0  0  0  0  0  0
  -27.3550  -37.3720   24.7450 C   0  0  0  0  0  1  0  0  0  0  0  0
  -26.2570  -37.5070   23.7910 N   0  0  0  0  0  0  0  0  0  0  0  0
  -25.8100  -38.4060   23.9470 H   0  0  0  0  0  0  0  0  0  0  0  0
  -26.4470  -31.8310   25.0720 C   0  0  1  0  0  0  0  0  0  0  0  0
  -25.3650  -31.5280   26.1320 C   0  0  0  0  0  1  0  0  0  0  0  0
  -27.0930  -30.4880   24.6590 C   0  0  0  0  0  1  0  0  0  0  0  0
  -27.5600  -32.6670   25.7480 C   0  0  0  0  0  1  0  0  0  0  0  0
  1  2  2  0
  1  4  1  0
  2  5  1  0
  3  6  1  0
  4  3  2  0
  5  7  1  0
  5  6  2  0
  6 56  1  0
  8  4  1  0
  9  8  1  0
  9 10  1  0
 10 13  1  0
 10 11  1  0
 12 10  1  0
 13 14  1  0
 14 15  1  0
 15 17  1  0
 17 26  1  0
 17 16  1  0
 18 26  1  0
 19 24  1  0
 20 21  1  0
 20 19  1  0
 22 21  1  0
 22 31  1  0
 22 23  1  0
 24 18  1  0
 24 23  1  0
 25 18  2  0
 26 27  1  0
 28 29  2  0
 29 30  1  0
 29 48  1  0
 30 33  1  0
 31 28  1  0
 31 32  1  0
 32 30  2  0
 33 34  1  0
 34 35  2  0
 36 39  1  0
 36 35  1  0
 37 36  2  0
 38 37  1  0
 38 33  2  0
 39 40  1  0
 40 41  1  0
 41 42  2  0
 43 42  1  0
 43 47  1  0
 44 43  2  0
 45 40  2  0
 45 44  1  0
 46 45  1  0
 48 49  1  0
 49 52  1  0
 49 51  1  0
 50 48  2  0
 53 54  1  0
 53 28  1  0
 55 53  1  0
 56 57  1  0
 58 69  2  0
 59 57  1  0
 59 64  1  0
 60 68  1  0
 60 70  1  0
 61 67  1  0
 61 63  1  0
 62 68  1  0
 63 62  1  0
 64 63  2  0
 65 59  2  0
 66 65  1  0
 66 61  2  0
 67 60  1  0
 68 58  1  0
 70 72  2  0
 71 70  1  0
 73 71  1  0
 74 83  2  0
 74 79  1  0
 75 71  1  0
 75 79  1  0
 76 75  1  0
 77 78  1  0
 77 76  1  0
 78 74  1  0
 79 80  2  0
 80 81  1  0
 82 81  2  0
 83 82  1  0
 84 58  1  0
 84 85  1  0
 84 94  1  0
 85 88  1  0
 86 90  1  0
 86 85  1  0
 87 86  2  0
 90 89  1  0
 92 90  1  0
 92 93  1  0
 92 91  1  0
 94 97  1  1
 94 95  1  0
 96 94  1  0
M  ISO  4  18 100  26 100  56 101  57 101
M  END
>  <TORSDO>  (6) 
F 24

>  <SCORE>  (6) 
-10.612

>  <name>  (6) 
5

>  <ligand_id>  (6) 
5

>  <original_smiles>  (6) 
[H]c1c([H])c([H])c2c(c1[H])C([H])([H])C([H])([H])C([H])([H])C2([H])N([H])C(=O)C1([H])N(C(=O)C([H])(N([H])C(=O)C([H])(N([H])C([H])([H])[H])C([H])([H])[H])C(C([H])([H])[H])(C([H])([H])[H])C([H])([H])[H])C([H])([H])c2c([H])c(OC([H])([H])c3c([H])c(C([H])([H])C([H])([H])[N+]([H])([H])C([H])([H])C([H])([H])C([H])([H])C([H])(N([H])C(=O)N4C([H])([H])C([H])([H])C([H])([H])C([H])(n5nc(-c6c([H])c([H])c(Oc7c([H])c([H])c(F)c([H])c7F)c([H])c6[H])c(C(=O)N([H])[H])c5N([H])[H])C4([H])[H])C([H])([H])[H])c([H])c([H])c3C([H])([H])[H])c([H])c([H])c2C1([H])[H]

>  <smiles>  (6) 
[H]c1c([H])c([H])c2c(c1[H])C([H])([H])C([H])([H])C([H])([H])C2([H])N([H])C(=O)C1([H])N(C(=O)C([H])(N([H])C(=O)C([H])(N([H])C([H])([H])[H])C([H])([H])[H])C(C([H])([H])[H])(C([H])([H])[H])C([H])([H])[H])C([H])([H])c2c([H])c(OC([H])([H])c3c([H])c(C([H])([H])C([H])([H])[N+]([H])([H])C([H])([H])C([H])([H])C([H])([H])C([H])(N([H])C(=O)N4C([H])([H])C([H])([H])C([H])([H])C([H])(n5nc(-c6c([H])c([H])c(Oc7c([H])c([H])c(F)c([H])c7F)c([H])c6[H])c(C(=O)N([H])[H])c5N([H])[H])C4([H])[H])C([H])([H])[H])c([H])c([H])c3C([H])([H])[H])c([H])c([H])c2C1([H])[H]

$$$$
6:0:0
     RDKit          3D

 98100  0  0  1  0  0  0  0  0999 V2000
  -32.4070  -22.1340   18.3400 C   0  0  0  0  0  2  0  0  0  0  0  0
  -31.0040  -24.0590   17.4730 C   0  0  0  0  0  3  0  0  0  0  0  0
  -31.7560  -24.1340   19.7910 C   0  0  0  0  0  3  0  0  0  0  0  0
  -30.2700  -25.2440   17.6690 C   0  0  0  0  0  3  0  0  0  0  0  0
  -31.0230  -25.3250   19.9860 C   0  0  0  0  0  3  0  0  0  0  0  0
  -31.7290  -23.4830   18.5370 C   0  0  0  0  0  0  0  0  0  0  0  0
  -30.2550  -25.8690   18.9340 C   0  0  0  0  0  0  0  0  0  0  0  0
  -29.3460  -27.0600   19.1880 C   0  0  0  0  0  2  0  0  0  0  0  0
  -28.2590  -26.6410   19.9990 O   0  0  0  0  0  0  0  0  0  0  0  0
  -24.5420  -31.8250   23.1610 C   0  0  0  0  0  0  0  0  0  0  0  0
  -27.1410  -27.4330   19.9990 C   0  0  0  0  0  0  0  0  0  0  0  0
  -23.3130  -30.4480   21.5140 C   0  0  0  0  0  3  0  0  0  0  0  0
  -24.7490  -28.9200   20.0610 C   0  0  0  0  0  0  0  0  0  0  0  0
  -25.8360  -30.8040   21.2950 C   0  0  0  0  0  2  0  0  0  0  0  0
  -25.9140  -29.4440   20.6370 C   0  0  0  0  0  0  0  0  0  0  0  0
  -27.1180  -28.7060   20.6060 C   0  0  0  0  0  3  0  0  0  0  0  0
  -25.9620  -26.9090   19.4360 C   0  0  0  0  0  3  0  0  0  0  0  0
  -24.7650  -27.6500   19.4570 C   0  0  0  0  0  3  0  0  0  0  0  0
  -23.5050  -29.7790   20.1270 C   0  0  0  0  0  2  0  0  0  0  0  0
  -24.5830  -31.0380   22.0500 N   0  0  0  0  0  0  0  0  0  0  0  0
  -23.4680  -32.0990   23.7140 O   0  0  0  0  0  0  0  0  0  0  0  0
  -22.6630  -29.4220   22.4700 C   0  0  0  0  0  0  0  0  0  0  0  0
  -21.3330  -29.2690   22.3670 N   0  0  0  0  0  0  0  0  0  0  0  0
  -23.3510  -28.7670   23.2580 O   0  0  0  0  0  0  0  0  0  0  0  0
  -20.8400  -29.8460   21.7000 H   0  0  0  0  0  0  0  0  0  0  0  0
  -17.9460  -28.1320   22.9060 C   0  0  0  0  0  0  0  0  0  0  0  0
  -20.5130  -28.3340   23.1360 C   0  0  0  0  0  3  0  0  0  0  0  0
  -20.5760  -26.9120   22.5330 C   0  0  0  0  0  2  0  0  0  0  0  0
  -19.4500  -26.6290   21.5340 C   0  0  0  0  0  2  0  0  0  0  0  0
  -18.0830  -26.7910   22.2060 C   0  0  0  0  0  2  0  0  0  0  0  0
  -19.0870  -28.8640   23.3280 C   0  0  0  0  0  0  0  0  0  0  0  0
  -18.9050  -30.1220   23.9430 C   0  0  0  0  0  3  0  0  0  0  0  0
  -17.6140  -30.6470   24.1380 C   0  0  0  0  0  3  0  0  0  0  0  0
  -16.4870  -29.9110   23.7330 C   0  0  0  0  0  3  0  0  0  0  0  0
  -16.6550  -28.6560   23.1220 C   0  0  0  0  0  3  0  0  0  0  0  0
  -25.8390  -32.4400   23.7770 C   0  0  0  0  0  3  0  0  0  0  0  0
  -25.5410  -33.8320   24.1360 N   0  0  0  0  0  0  0  0  0  0  0  0
  -25.8770  -34.8950   23.3960 C   0  0  0  0  0  0  0  0  0  0  0  0
  -26.5420  -34.8070   22.3590 O   0  0  0  0  0  0  0  0  0  0  0  0
  -24.9500  -33.9750   24.9420 H   0  0  0  0  0  0  0  0  0  0  0  0
  -24.1630  -36.7050   23.0770 C   0  0  0  0  0  1  0  0  0  0  0  0
  -25.4010  -36.2770   23.8800 C   0  0  0  0  0  3  0  0  0  0  0  0
  -27.5400  -37.1290   24.7310 C   0  0  0  0  0  1  0  0  0  0  0  0
  -26.4430  -37.3240   23.7860 N   0  0  0  0  0  0  0  0  0  0  0  0
  -26.0450  -38.2450   23.9460 H   0  0  0  0  0  0  0  0  0  0  0  0
  -26.3730  -31.6390   25.0270 C   0  0  1  0  0  0  0  0  0  0  0  0
  -25.2960  -31.3810   26.1070 C   0  0  0  0  0  1  0  0  0  0  0  0
  -26.9450  -30.2700   24.5940 C   0  0  0  0  0  1  0  0  0  0  0  0
  -27.5370  -32.4160   25.6890 C   0  0  0  0  0  1  0  0  0  0  0  0
  -31.4240  -21.0680   18.6030 N   0  0  0  0  0  4  0  0  0  0  0  0
  -30.5480  -21.3790   18.2180 H   0  0  0  0  0  0  0  0  0  0  0  0
  -31.3090  -20.9910   19.6000 H   0  0  0  0  0  0  0  0  0  0  0  0
  -31.7300  -19.7410   18.0240 C   0  0  0  0  0  2  0  0  0  0  0  0
  -30.7260  -18.6910   18.5410 C   0  0  0  0  0  2  0  0  0  0  0  0
  -30.8100  -17.3100   17.8610 C   0  0  0  0  0  2  0  0  0  0  0  0
  -30.0390  -16.2530   18.6750 C   0  0  0  0  0  2  0  0  0  0  0  0
  -30.0550  -14.8370   18.0470 C   0  0  0  0  0  2  0  0  0  0  0  0
  -29.3340  -13.7400   18.8400 N   0  0  0  0  0  0  0  0  0  0  0  0
  -28.5550  -14.2400   19.2290 H   0  0  0  0  0  0  0  0  0  0  0  0
  -28.9470  -13.1580   18.1080 H   0  0  0  0  0  0  0  0  0  0  0  0
  -29.7000  -12.0510   20.4560 C   0  0  0  0  0  1  0  0  0  0  0  0
  -30.8730  -12.2970   21.6470 C   0  0  0  0  0  2  0  0  0  0  0  0
  -31.5480  -13.6870   21.4830 C   0  0  0  0  0  3  0  0  0  0  0  0
  -31.6310  -12.6490   19.1970 C   0  0  0  0  0 15  0  0  0  0  0  0
  -30.3000  -11.5040   18.1330 C   0  0  0  0  0 15  0  0  0  0  0  0
  -28.3070  -11.6620   18.5950 C   0  0  0  0  0 15  0  0  0  0  0  0
  -27.7230  -13.0920   19.9110 C   0  0  0  0  0  1  0  0  0  0  0  0
  -29.0810  -14.1350   20.9290 C   0  0  0  0  0  1  0  0  0  0  0  0
  -30.8930  -13.8970   20.4940 N   0  0  0  0  0  2  0  0  0  0  0  0
  -32.7370  -13.9450   21.3280 O   0  0  0  0  0  1  0  0  0  0  0  0
  -25.5780  -13.8520   20.6890 C   0  0  0  0  0  0  0  0  0  0  0  0
  -24.4830  -13.1140   20.9650 C   0  0  0  0  0  0  0  0  0  0  0  0
  -24.9080  -11.7460   21.0000 C   0  0  0  0  0  0  0  0  0  0  0  0
  -26.5420  -12.8980   20.5430 N   0  0  0  0  0  0  0  0  0  0  0  0
  -26.2010  -11.6390   20.7940 N   0  0  0  0  0  0  0  0  0  0  0  0
  -24.1640  -10.5140   21.1390 C   0  0  0  0  0  0  0  0  0  0  0  0
  -24.5520   -9.5430   22.0810 C   0  0  0  0  0  3  0  0  0  0  0  0
  -23.7900   -8.3700   22.2310 C   0  0  0  0  0  3  0  0  0  0  0  0
  -22.6370   -8.1730   21.4340 C   0  0  0  0  0  0  0  0  0  0  0  0
  -22.2880   -9.1310   20.4670 C   0  0  0  0  0  3  0  0  0  0  0  0
  -23.0500  -10.2950   20.3120 C   0  0  0  0  0  3  0  0  0  0  0  0
  -21.8390   -7.0610   21.5080 O   0  0  0  0  0  0  0  0  0  0  0  0
  -21.7520   -6.3240   22.6580 C   0  0  0  0  0  0  0  0  0  0  0  0
  -21.3530   -6.8970   23.8860 C   0  0  0  0  0  3  0  0  0  0  0  0
  -21.2050   -6.0830   25.0250 C   0  0  0  0  0  3  0  0  0  0  0  0
  -21.4500   -4.6990   24.9390 C   0  0  0  0  0  0  0  0  0  0  0  0
  -21.8480   -4.1290   23.7180 C   0  0  0  0  0  3  0  0  0  0  0  0
  -21.9940   -4.9400   22.5800 C   0  0  0  0  0  0  0  0  0  0  0  0
  -22.3570   -4.3830   21.3970 F   0  0  0  0  0  0  0  0  0  0  0  0
  -21.3010   -3.9140   26.0310 F   0  0  0  0  0  0  0  0  0  0  0  0
  -23.1010  -13.6490   21.0620 C   0  0  0  0  0  0  0  0  0  0  0  0
  -22.2820  -13.0230   21.8920 N   0  0  0  0  0  0  0  0  0  0  0  0
  -22.7670  -14.6630   20.4480 O   0  0  0  0  0  0  0  0  0  0  0  0
  -22.5830  -12.2090   22.4080 H   0  0  0  0  0  0  0  0  0  0  0  0
  -21.3390  -13.3630   22.0150 H   0  0  0  0  0  0  0  0  0  0  0  0
  -25.8290  -15.2110   20.4620 N   0  0  0  0  0  0  0  0  0  0  0  0
  -25.0880  -15.8990   20.5330 H   0  0  0  0  0  0  0  0  0  0  0  0
  -26.7260  -15.6390   20.2830 H   0  0  0  0  0  0  0  0  0  0  0  0
  1  6  1  0
  1 50  1  0
  2  4  2  0
  2  6  1  0
  3  5  1  0
  4  7  1  0
  6  3  2  0
  7  8  1  0
  7  5  2  0
  8  9  1  0
  9 11  1  0
 10 21  2  0
 11 16  1  0
 12 20  1  0
 12 22  1  0
 13 19  1  0
 13 15  1  0
 14 20  1  0
 15 14  1  0
 16 15  2  0
 17 18  1  0
 17 11  2  0
 18 13  2  0
 19 12  1  0
 20 10  1  0
 22 24  2  0
 23 22  1  0
 25 23  1  0
 26 35  2  0
 26 31  1  0
 27 23  1  0
 27 31  1  0
 28 27  1  0
 29 30  1  0
 29 28  1  0
 30 26  1  0
 31 32  2  0
 32 33  1  0
 34 33  2  0
 35 34  1  0
 36 10  1  0
 36 37  1  0
 36 46  1  0
 37 40  1  0
 38 42  1  0
 38 37  1  0
 39 38  2  0
 42 41  1  0
 44 42  1  0
 44 45  1  0
 44 43  1  0
 46 49  1  1
 46 47  1  0
 48 46  1  0
 50 52  1  0
 51 50  1  0
 53 54  1  0
 53 50  1  0
 55 54  1  0
 55 56  1  0
 57 56  1  0
 57 58  1  0
 58 59  1  0
 60 58  1  0
 61 62  1  0
 63 70  1  0
 63 62  1  0
 67 74  1  0
 69 68  1  0
 69 63  1  0
 71 72  2  0
 72 73  1  0
 72 91  1  0
 73 76  1  0
 74 71  1  0
 74 75  1  0
 75 73  2  0
 76 77  1  0
 77 78  2  0
 79 82  1  0
 79 78  1  0
 80 79  2  0
 81 80  1  0
 81 76  2  0
 82 83  1  0
 83 84  1  0
 84 85  2  0
 86 85  1  0
 86 90  1  0
 87 86  2  0
 88 83  2  0
 88 87  1  0
 89 88  1  0
 91 92  1  0
 92 95  1  0
 92 94  1  0
 93 91  2  0
 96 97  1  0
 96 71  1  0
 98 96  1  0
M  ISO  4   8 101   9 101  62 100  63 100
M  END
>  <TORSDO>  (7) 
F 27

>  <SCORE>  (7) 
-10.809

>  <name>  (7) 
6

>  <ligand_id>  (7) 
6

>  <original_smiles>  (7) 
[H]c1c([H])c([H])c2c(c1[H])C([H])([H])C([H])([H])C([H])([H])C2([H])N([H])C(=O)C1([H])N(C(=O)C([H])(N([H])C(=O)C([H])(N([H])C([H])([H])[H])C([H])([H])[H])C(C([H])([H])[H])(C([H])([H])[H])C([H])([H])[H])C([H])([H])c2c([H])c(OC([H])([H])c3c([H])c([H])c(C([H])([H])[N+]([H])([H])C([H])([H])C([H])([H])C([H])([H])C([H])([H])C([H])([H])[N+]([H])([H])C([H])([H])C([H])([H])C(=O)N4C([H])([H])C([H])([H])C([H])([H])C([H])(n5nc(-c6c([H])c([H])c(Oc7c([H])c([H])c(F)c([H])c7F)c([H])c6[H])c(C(=O)N([H])[H])c5N([H])[H])C4([H])[H])c([H])c3[H])c([H])c([H])c2C1([H])[H]

>  <smiles>  (7) 
[H]c1c([H])c([H])c2c(c1[H])C([H])([H])C([H])([H])C([H])([H])C2([H])N([H])C(=O)C1([H])N(C(=O)C([H])(N([H])C(=O)C([H])(N([H])C([H])([H])[H])C([H])([H])[H])C(C([H])([H])[H])(C([H])([H])[H])C([H])([H])[H])C([H])([H])c2c([H])c(OC([H])([H])c3c([H])c([H])c(C([H])([H])[N+]([H])([H])C([H])([H])C([H])([H])C([H])([H])C([H])([H])C([H])([H])[N+]([H])([H])C([H])([H])C([H])([H])C(=O)N4C([H])([H])C([H])([H])C([H])([H])C([H])(n5nc(-c6c([H])c([H])c(Oc7c([H])c([H])c(F)c([H])c7F)c([H])c6[H])c(C(=O)N([H])[H])c5N([H])[H])C4([H])[H])c([H])c3[H])c([H])c([H])c2C1([H])[H]

$$$$
7:0:0
     RDKit          3D

101110  0  0  1  0  0  0  0  0999 V2000
  -29.3960  -20.9510   17.2740 C   0  0  0  0  0  3  0  0  0  0  0  0
  -29.2190  -19.5810   17.0120 C   0  0  0  0  0  3  0  0  0  0  0  0
  -31.3050  -20.4320   18.6870 C   0  0  0  0  0  3  0  0  0  0  0  0
  -30.4460  -21.3890   18.1050 C   0  0  0  0  0  0  0  0  0  0  0  0
  -30.0890  -18.6230   17.5720 C   0  0  0  0  0  0  0  0  0  0  0  0
  -31.1370  -19.0510   18.4300 C   0  0  0  0  0  0  0  0  0  0  0  0
  -29.8740  -17.1570   17.2230 C   0  0  0  0  0  1  0  0  0  0  0  0
  -32.1910  -24.8660   18.0510 C   0  0  0  0  0  2  0  0  0  0  0  0
  -32.0390  -23.3490   17.8510 C   0  0  0  0  0  2  0  0  0  0  0  0
  -31.9110  -25.2700   19.5100 C   0  0  0  0  0  2  0  0  0  0  0  0
  -30.4220  -23.3190   19.8000 C   0  0  0  0  0  2  0  0  0  0  0  0
  -30.6540  -22.8850   18.3350 C   0  0  0  0  0  3  0  0  0  0  0  0
  -30.5750  -24.7920   19.9530 N   0  0  1  0  0  4  0  0  0  0  0  0
  -29.8910  -25.2030   19.3300 H   0  0  0  0  0  0  0  0  0  0  0  0
  -30.1820  -25.2880   21.2970 C   0  0  0  0  0  2  0  0  0  0  0  0
  -29.4170  -26.6140   21.1940 C   0  0  0  0  0  2  0  0  0  0  0  0
  -28.4250  -26.4270   20.1870 O   0  0  0  0  0  0  0  0  0  0  0  0
  -24.5930  -31.6490   23.2110 C   0  0  0  0  0  0  0  0  0  0  0  0
  -27.3040  -27.2240   20.2070 C   0  0  0  0  0  0  0  0  0  0  0  0
  -23.4240  -30.2670   21.5230 C   0  0  0  0  0  3  0  0  0  0  0  0
  -24.9100  -28.7220   20.1420 C   0  0  0  0  0  0  0  0  0  0  0  0
  -25.9510  -30.6140   21.4030 C   0  0  0  0  0  2  0  0  0  0  0  0
  -26.0480  -29.2440   20.7700 C   0  0  0  0  0  0  0  0  0  0  0  0
  -27.2470  -28.5040   20.8060 C   0  0  0  0  0  3  0  0  0  0  0  0
  -26.1540  -26.7140   19.5700 C   0  0  0  0  0  3  0  0  0  0  0  0
  -24.9550  -27.4520   19.5390 C   0  0  0  0  0  3  0  0  0  0  0  0
  -23.6710  -29.5880   20.1480 C   0  0  0  0  0  2  0  0  0  0  0  0
  -24.6720  -30.8560   22.1060 N   0  0  0  0  0  0  0  0  0  0  0  0
  -23.4980  -31.9310   23.7190 O   0  0  0  0  0  0  0  0  0  0  0  0
  -22.7330  -29.2490   22.4570 C   0  0  0  0  0  0  0  0  0  0  0  0
  -21.4100  -29.0880   22.2890 N   0  0  0  0  0  0  0  0  0  0  0  0
  -23.3830  -28.6080   23.2870 O   0  0  0  0  0  0  0  0  0  0  0  0
  -20.9490  -29.6560   21.5910 H   0  0  0  0  0  0  0  0  0  0  0  0
  -18.0040  -27.9500   22.6770 C   0  0  0  0  0  0  0  0  0  0  0  0
  -20.5560  -28.1590   23.0280 C   0  0  0  0  0  3  0  0  0  0  0  0
  -20.6510  -26.7310   22.4410 C   0  0  0  0  0  2  0  0  0  0  0  0
  -19.5740  -26.4370   21.3930 C   0  0  0  0  0  2  0  0  0  0  0  0
  -18.1760  -26.6030   21.9960 C   0  0  0  0  0  2  0  0  0  0  0  0
  -19.1230  -28.6880   23.1470 C   0  0  0  0  0  0  0  0  0  0  0  0
  -18.9120  -29.9510   23.7410 C   0  0  0  0  0  3  0  0  0  0  0  0
  -17.6120  -30.4770   23.8690 C   0  0  0  0  0  3  0  0  0  0  0  0
  -16.5060  -29.7370   23.4170 C   0  0  0  0  0  3  0  0  0  0  0  0
  -16.7020  -28.4740   22.8280 C   0  0  0  0  0  3  0  0  0  0  0  0
  -25.8670  -32.2600   23.8750 C   0  0  0  0  0  3  0  0  0  0  0  0
  -25.5600  -33.6540   24.2210 N   0  0  0  0  0  0  0  0  0  0  0  0
  -25.9100  -34.7150   23.4820 C   0  0  0  0  0  0  0  0  0  0  0  0
  -26.5970  -34.6220   22.4600 O   0  0  0  0  0  0  0  0  0  0  0  0
  -24.9540  -33.8000   25.0160 H   0  0  0  0  0  0  0  0  0  0  0  0
  -24.1920  -36.5130   23.1240 C   0  0  0  0  0  1  0  0  0  0  0  0
  -25.4200  -36.0980   23.9480 C   0  0  0  0  0  3  0  0  0  0  0  0
  -27.5480  -36.9620   24.8180 C   0  0  0  0  0  1  0  0  0  0  0  0
  -26.4560  -37.1500   23.8640 N   0  0  0  0  0  0  0  0  0  0  0  0
  -26.0500  -38.0670   24.0280 H   0  0  0  0  0  0  0  0  0  0  0  0
  -26.3520  -31.4590   25.1460 C   0  0  1  0  0  0  0  0  0  0  0  0
  -25.2340  -31.2060   26.1830 C   0  0  0  0  0  1  0  0  0  0  0  0
  -26.9360  -30.0870   24.7350 C   0  0  0  0  0  1  0  0  0  0  0  0
  -27.4920  -32.2320   25.8490 C   0  0  0  0  0  1  0  0  0  0  0  0
  -32.1070  -18.0640   19.0740 C   0  0  0  0  0  2  0  0  0  0  0  0
  -31.4330  -17.2220   20.0790 N   0  0  0  0  0  4  0  0  0  0  0  0
  -30.7850  -16.6370   19.5820 H   0  0  0  0  0  0  0  0  0  0  0  0
  -30.9210  -17.8170   20.7090 H   0  0  0  0  0  0  0  0  0  0  0  0
  -32.3620  -16.3650   20.8460 C   0  0  0  0  0  2  0  0  0  0  0  0
  -31.6680  -15.3400   21.7840 C   0  0  0  0  0  2  0  0  0  0  0  0
  -30.6830  -13.9210   19.9050 C   0  0  0  0  0  0  0  0  0  0  0  0
  -29.9050  -12.1630   18.3650 C   0  0  0  0  0  2  0  0  0  0  0  0
  -28.8370  -12.5870   17.3440 C   0  0  0  0  0  2  0  0  0  0  0  0
  -27.4310  -12.4320   17.9420 C   0  0  0  0  0  2  0  0  0  0  0  0
  -27.3050  -13.1410   19.3100 C   0  0  0  0  0  3  0  0  0  0  0  0
  -28.4630  -12.7600   20.2550 C   0  0  0  0  0  2  0  0  0  0  0  0
  -29.7700  -12.9590   19.5940 N   0  0  0  0  0  0  0  0  0  0  0  0
  -31.3660  -14.4620   19.0320 O   0  0  0  0  0  0  0  0  0  0  0  0
  -30.6500  -13.2050   22.2990 C   0  0  0  0  0  1  0  0  0  0  0  0
  -30.8930  -14.1950   21.2290 N   0  0  0  0  0  0  0  0  0  0  0  0
  -24.9960  -13.7650   20.2690 C   0  0  0  0  0  0  0  0  0  0  0  0
  -23.9700  -13.0020   20.7560 C   0  0  0  0  0  0  0  0  0  0  0  0
  -24.4180  -11.6460   20.6870 C   0  0  0  0  0  0  0  0  0  0  0  0
  -26.0070  -12.8770   19.9320 N   0  0  0  0  0  0  0  0  0  0  0  0
  -25.6680  -11.5990   20.2410 N   0  0  0  0  0  0  0  0  0  0  0  0
  -23.7110  -10.3900   20.9630 C   0  0  0  0  0  0  0  0  0  0  0  0
  -24.2240   -9.4340   21.8680 C   0  0  0  0  0  3  0  0  0  0  0  0
  -23.5150   -8.2420   22.1280 C   0  0  0  0  0  3  0  0  0  0  0  0
  -22.2780   -7.9960   21.4850 C   0  0  0  0  0  0  0  0  0  0  0  0
  -21.7830   -8.9400   20.5690 C   0  0  0  0  0  3  0  0  0  0  0  0
  -22.4920  -10.1240   20.3060 C   0  0  0  0  0  3  0  0  0  0  0  0
  -21.5340   -6.8540   21.6580 O   0  0  0  0  0  0  0  0  0  0  0  0
  -21.5910   -6.1250   22.8180 C   0  0  0  0  0  0  0  0  0  0  0  0
  -21.3070   -6.7010   24.0750 C   0  0  0  0  0  3  0  0  0  0  0  0
  -21.3090   -5.8990   25.2340 C   0  0  0  0  0  3  0  0  0  0  0  0
  -21.5860   -4.5230   25.1380 C   0  0  0  0  0  0  0  0  0  0  0  0
  -21.8640   -3.9460   23.8860 C   0  0  0  0  0  3  0  0  0  0  0  0
  -21.8630   -4.7450   22.7300 C   0  0  0  0  0  0  0  0  0  0  0  0
  -22.1100   -4.1790   21.5240 F   0  0  0  0  0  0  0  0  0  0  0  0
  -21.5810   -3.7510   26.2500 F   0  0  0  0  0  0  0  0  0  0  0  0
  -22.6110  -13.4870   21.1720 C   0  0  0  0  0  0  0  0  0  0  0  0
  -21.9810  -12.8080   22.1250 N   0  0  0  0  0  0  0  0  0  0  0  0
  -22.1180  -14.5030   20.6820 O   0  0  0  0  0  0  0  0  0  0  0  0
  -22.3950  -11.9850   22.5390 H   0  0  0  0  0  0  0  0  0  0  0  0
  -21.0740  -13.1150   22.4450 H   0  0  0  0  0  0  0  0  0  0  0  0
  -25.1500  -15.1340   20.0670 N   0  0  0  0  0  0  0  0  0  0  0  0
  -24.4050  -15.7970   20.2520 H   0  0  0  0  0  0  0  0  0  0  0  0
  -25.9670  -15.5630   19.6530 H   0  0  0  0  0  0  0  0  0  0  0  0
  1  4  1  0
  2  1  2  0
  2  5  1  0
  4  3  2  0
  5  6  2  0
  6  3  1  0
  6 58  1  0
  7  5  1  0
  8 10  1  0
  9  8  1  0
  9 12  1  0
 10 13  1  0
 11 13  1  0
 12  4  1  0
 12 11  1  0
 13 15  1  0
 13 14  1  6
 16 15  1  0
 17 19  1  0
 17 16  1  0
 18 29  2  0
 19 24  1  0
 20 28  1  0
 20 30  1  0
 21 27  1  0
 21 23  1  0
 22 28  1  0
 23 24  2  0
 23 22  1  0
 25 19  2  0
 26 25  1  0
 26 21  2  0
 27 20  1  0
 28 18  1  0
 30 32  2  0
 31 30  1  0
 33 31  1  0
 34 43  2  0
 34 39  1  0
 35 31  1  0
 35 39  1  0
 36 35  1  0
 37 38  1  0
 37 36  1  0
 38 34  1  0
 39 40  2  0
 40 41  1  0
 42 41  2  0
 43 42  1  0
 44 18  1  0
 44 45  1  0
 44 54  1  0
 45 48  1  0
 46 50  1  0
 46 45  1  0
 47 46  2  0
 50 49  1  0
 52 50  1  0
 52 53  1  0
 52 51  1  0
 54 57  1  1
 54 55  1  0
 56 54  1  0
 58 59  1  0
 59 61  1  0
 59 62  1  0
 60 59  1  0
 62 63  1  0
 64 73  1  0
 65 70  1  0
 66 67  1  0
 66 65  1  0
 68 67  1  0
 68 77  1  0
 68 69  1  0
 70 64  1  0
 70 69  1  0
 71 64  2  0
 73 63  1  0
 73 72  1  0
 74 75  2  0
 75 94  1  0
 76 75  1  0
 76 79  1  0
 77 78  1  0
 77 74  1  0
 78 76  2  0
 79 80  1  0
 80 81  2  0
 82 85  1  0
 82 81  1  0
 83 82  2  0
 84 83  1  0
 84 79  2  0
 85 86  1  0
 86 87  1  0
 87 88  2  0
 89 88  1  0
 89 93  1  0
 90 89  2  0
 91 86  2  0
 91 90  1  0
 92 91  1  0
 94 95  1  0
 95 98  1  0
 95 97  1  0
 96 94  2  0
 99100  1  0
 99 74  1  0
101 99  1  0
M  ISO  4  16 101  17 101  64 100  73 100
M  END
>  <TORSDO>  (8) 
F 23

>  <SCORE>  (8) 
-9.177

>  <name>  (8) 
7

>  <ligand_id>  (8) 
7

>  <original_smiles>  (8) 
[H]c1c([H])c([H])c2c(c1[H])C([H])([H])C([H])([H])C([H])([H])C2([H])N([H])C(=O)C1([H])N(C(=O)C([H])(N([H])C(=O)C([H])(N([H])C([H])([H])[H])C([H])([H])[H])C(C([H])([H])[H])(C([H])([H])[H])C([H])([H])[H])C([H])([H])c2c([H])c(OC([H])([H])C([H])([H])[N+]3([H])C([H])([H])C([H])([H])C([H])([H])C([H])(c4c([H])c([H])c(C([H])([H])[H])c(C([H])([H])[N+]([H])([H])C([H])([H])C([H])([H])N(C(=O)N5C([H])([H])C([H])([H])C([H])([H])C([H])(n6nc(-c7c([H])c([H])c(Oc8c([H])c([H])c(F)c([H])c8F)c([H])c7[H])c(C(=O)N([H])[H])c6N([H])[H])C5([H])[H])C([H])([H])[H])c4[H])C3([H])[H])c([H])c([H])c2C1([H])[H]

>  <smiles>  (8) 
[H]c1c([H])c([H])c2c(c1[H])C([H])([H])C([H])([H])C([H])([H])C2([H])N([H])C(=O)C1([H])N(C(=O)C([H])(N([H])C(=O)C([H])(N([H])C([H])([H])[H])C([H])([H])[H])C(C([H])([H])[H])(C([H])([H])[H])C([H])([H])[H])C([H])([H])c2c([H])c(OC([H])([H])C([H])([H])[N+]3([H])C([H])([H])C([H])([H])C([H])([H])C([H])(c4c([H])c([H])c(C([H])([H])[H])c(C([H])([H])[N+]([H])([H])C([H])([H])C([H])([H])N(C(=O)N5C([H])([H])C([H])([H])C([H])([H])C([H])(n6nc(-c7c([H])c([H])c(Oc8c([H])c([H])c(F)c([H])c8F)c([H])c7[H])c(C(=O)N([H])[H])c6N([H])[H])C5([H])[H])C([H])([H])[H])c4[H])C3([H])[H])c([H])c([H])c2C1([H])[H]

$$$$
8:0:0
     RDKit          3D

 96104  0  0  1  0  0  0  0  0999 V2000
  -25.9880  -24.8220   21.0390 C   0  0  0  0  0  3  0  0  0  0  0  0
  -24.8500  -24.0760   20.6910 C   0  0  0  0  0  3  0  0  0  0  0  0
  -26.2870  -22.5120   19.5370 C   0  0  0  0  0  3  0  0  0  0  0  0
  -27.2870  -24.4940   20.5800 C   0  0  0  0  0  0  0  0  0  0  0  0
  -27.4560  -23.1940   19.9610 C   0  0  0  0  0  0  0  0  0  0  0  0
  -24.9980  -22.9430   19.8840 C   0  0  0  0  0  0  0  0  0  0  0  0
  -23.9100  -22.2320   19.4690 O   0  0  0  0  0  0  0  0  0  0  0  0
  -23.0810  -22.6220   19.7330 H   0  0  0  0  0  0  0  0  0  0  0  0
  -28.7830  -22.4040   19.7510 C   0  0  0  0  0  2  0  0  0  0  0  0
  -29.0270  -21.3020   22.0730 C   0  0  0  0  0  1  0  0  0  0  0  0
  -28.8570  -21.0300   20.5630 C   0  0  0  0  0  3  0  0  0  0  0  0
  -29.8570  -20.0070   20.0840 N   0  0  0  0  0  4  0  0  0  0  0  0
  -29.9320  -20.0860   19.0830 H   0  0  0  0  0  0  0  0  0  0  0  0
  -30.7640  -20.2270   20.4590 H   0  0  0  0  0  0  0  0  0  0  0  0
  -29.5050  -18.5650   20.3800 C   0  0  0  0  0  3  0  0  0  0  0  0
  -30.6550  -17.5020   20.2300 C   0  0  0  0  0  3  0  0  0  0  0  0
  -30.9970  -14.9830   20.1970 C   0  0  0  0  0  0  0  0  0  0  0  0
  -30.7900  -12.6770   19.3390 C   0  0  0  0  0  2  0  0  0  0  0  0
  -29.8530  -12.6800   18.1130 C   0  0  0  0  0  2  0  0  0  0  0  0
  -28.3800  -12.5540   18.5480 C   0  0  0  0  0  2  0  0  0  0  0  0
  -28.0000  -13.5270   19.6960 C   0  0  0  0  0  3  0  0  0  0  0  0
  -29.0520  -13.4900   20.8290 C   0  0  0  0  0  2  0  0  0  0  0  0
  -30.3650  -13.7740   20.2270 N   0  0  0  0  0  0  0  0  0  0  0  0
  -32.1500  -15.1060   19.7710 O   0  0  0  0  0  0  0  0  0  0  0  0
  -30.2440  -16.0810   20.4610 N   0  0  0  0  0  0  0  0  0  0  0  0
  -29.2990  -15.9100   20.7760 H   0  0  0  0  0  0  0  0  0  0  0  0
  -25.6290  -14.1630   20.4570 C   0  0  0  0  0  0  0  0  0  0  0  0
  -24.5530  -13.4080   20.8330 C   0  0  0  0  0  0  0  0  0  0  0  0
  -24.9850  -12.0480   20.7700 C   0  0  0  0  0  0  0  0  0  0  0  0
  -26.6510  -13.2660   20.1920 N   0  0  0  0  0  0  0  0  0  0  0  0
  -26.2690  -11.9850   20.4420 N   0  0  0  0  0  0  0  0  0  0  0  0
  -24.2350  -10.8000   20.9500 C   0  0  0  0  0  0  0  0  0  0  0  0
  -24.6180   -9.8430   21.9160 C   0  0  0  0  0  3  0  0  0  0  0  0
  -23.8730   -8.6560   22.0830 C   0  0  0  0  0  3  0  0  0  0  0  0
  -22.7280   -8.4170   21.2880 C   0  0  0  0  0  0  0  0  0  0  0  0
  -22.3640   -9.3610   20.3120 C   0  0  0  0  0  3  0  0  0  0  0  0
  -23.1090  -10.5390   20.1410 C   0  0  0  0  0  3  0  0  0  0  0  0
  -21.9520   -7.2840   21.3660 O   0  0  0  0  0  0  0  0  0  0  0  0
  -21.7890   -6.6050   22.5470 C   0  0  0  0  0  0  0  0  0  0  0  0
  -21.2630   -7.2280   23.6980 C   0  0  0  0  0  3  0  0  0  0  0  0
  -21.0450   -6.4740   24.8690 C   0  0  0  0  0  3  0  0  0  0  0  0
  -21.3440   -5.0990   24.8880 C   0  0  0  0  0  0  0  0  0  0  0  0
  -21.8640   -4.4750   23.7390 C   0  0  0  0  0  3  0  0  0  0  0  0
  -22.0830   -5.2270   22.5720 C   0  0  0  0  0  0  0  0  0  0  0  0
  -22.5620   -4.6150   21.4630 F   0  0  0  0  0  0  0  0  0  0  0  0
  -21.1260   -4.3750   26.0120 F   0  0  0  0  0  0  0  0  0  0  0  0
  -23.1700  -13.9110   21.1350 C   0  0  0  0  0  0  0  0  0  0  0  0
  -22.4490  -13.2190   22.0090 N   0  0  0  0  0  0  0  0  0  0  0  0
  -22.7410  -14.9470   20.6300 O   0  0  0  0  0  0  0  0  0  0  0  0
  -22.8120  -12.3860   22.4460 H   0  0  0  0  0  0  0  0  0  0  0  0
  -21.5190  -13.5290   22.2490 H   0  0  0  0  0  0  0  0  0  0  0  0
  -25.8120  -15.5340   20.2910 N   0  0  0  0  0  0  0  0  0  0  0  0
  -25.0440  -16.1810   20.4240 H   0  0  0  0  0  0  0  0  0  0  0  0
  -26.6240  -15.9660   19.8700 H   0  0  0  0  0  0  0  0  0  0  0  0
  -28.3890  -25.5620   20.8670 C   0  0  0  0  0  2  0  0  0  0  0  0
  -28.3900  -26.8420   20.1240 O   0  0  0  0  0  0  0  0  0  0  0  0
  -24.5700  -31.9950   23.3760 C   0  0  0  0  0  0  0  0  0  0  0  0
  -27.2720  -27.6660   20.1420 C   0  0  0  0  0  0  0  0  0  0  0  0
  -23.4010  -30.6590   21.6570 C   0  0  0  0  0  3  0  0  0  0  0  0
  -24.8910  -29.2150   20.1650 C   0  0  0  0  0  0  0  0  0  0  0  0
  -25.9330  -31.0320   21.5200 C   0  0  0  0  0  2  0  0  0  0  0  0
  -26.0370  -29.6890   20.8160 C   0  0  0  0  0  0  0  0  0  0  0  0
  -27.2320  -28.9190   20.8110 C   0  0  0  0  0  3  0  0  0  0  0  0
  -26.1360  -27.2730   19.4080 C   0  0  0  0  0  3  0  0  0  0  0  0
  -24.9380  -28.0070   19.4520 C   0  0  0  0  0  3  0  0  0  0  0  0
  -23.6380  -30.0620   20.2450 C   0  0  0  0  0  2  0  0  0  0  0  0
  -24.6520  -31.2420   22.2420 N   0  0  0  0  0  0  0  0  0  0  0  0
  -23.4770  -32.2330   23.9110 O   0  0  0  0  0  0  0  0  0  0  0  0
  -22.7490  -29.5830   22.5560 C   0  0  0  0  0  0  0  0  0  0  0  0
  -21.4270  -29.3950   22.4080 N   0  0  0  0  0  0  0  0  0  0  0  0
  -23.4290  -28.9290   23.3520 O   0  0  0  0  0  0  0  0  0  0  0  0
  -20.9350  -29.9810   21.7480 H   0  0  0  0  0  0  0  0  0  0  0  0
  -18.0630  -28.1390   22.8180 C   0  0  0  0  0  0  0  0  0  0  0  0
  -20.6150  -28.4080   23.1220 C   0  0  0  0  0  3  0  0  0  0  0  0
  -20.7380  -27.0110   22.4720 C   0  0  0  0  0  2  0  0  0  0  0  0
  -19.6470  -26.7290   21.4340 C   0  0  0  0  0  2  0  0  0  0  0  0
  -18.2600  -26.8270   22.0750 C   0  0  0  0  0  2  0  0  0  0  0  0
  -19.1700  -28.8890   23.2950 C   0  0  0  0  0  0  0  0  0  0  0  0
  -18.9330  -30.1200   23.9460 C   0  0  0  0  0  3  0  0  0  0  0  0
  -17.6230  -30.6010   24.1250 C   0  0  0  0  0  3  0  0  0  0  0  0
  -16.5300  -29.8460   23.6650 C   0  0  0  0  0  3  0  0  0  0  0  0
  -16.7500  -28.6170   23.0190 C   0  0  0  0  0  3  0  0  0  0  0  0
  -25.8390  -32.6140   24.0420 C   0  0  0  0  0  3  0  0  0  0  0  0
  -25.5340  -34.0150   24.3640 N   0  0  0  0  0  0  0  0  0  0  0  0
  -25.8900  -35.0640   23.6090 C   0  0  0  0  0  0  0  0  0  0  0  0
  -26.5810  -34.9540   22.5920 O   0  0  0  0  0  0  0  0  0  0  0  0
  -24.9300  -34.1760   25.1570 H   0  0  0  0  0  0  0  0  0  0  0  0
  -24.1750  -36.8610   23.2220 C   0  0  0  0  0  1  0  0  0  0  0  0
  -25.4010  -36.4550   24.0540 C   0  0  0  0  0  3  0  0  0  0  0  0
  -27.5270  -37.3340   24.9140 C   0  0  0  0  0  1  0  0  0  0  0  0
  -26.4390  -37.5020   23.9530 N   0  0  0  0  0  0  0  0  0  0  0  0
  -26.0360  -38.4240   24.0920 H   0  0  0  0  0  0  0  0  0  0  0  0
  -26.3070  -31.8340   25.3290 C   0  0  1  0  0  0  0  0  0  0  0  0
  -25.1790  -31.6030   26.3620 C   0  0  0  0  0  1  0  0  0  0  0  0
  -26.8900  -30.4510   24.9540 C   0  0  0  0  0  1  0  0  0  0  0  0
  -27.4420  -32.6150   26.0330 C   0  0  0  0  0  1  0  0  0  0  0  0
  2  1  1  0
  3  6  1  0
  3  5  2  0
  4 55  1  0
  4  1  2  0
  5  4  1  0
  6  2  2  0
  7  8  1  0
  7  6  1  0
  9  5  1  0
  9 11  1  0
 11 10  1  0
 12 15  1  0
 12 14  1  0
 12 11  1  0
 13 12  1  0
 16 15  2  0
 16 25  1  0
 17 23  1  0
 17 25  1  0
 18 23  1  0
 19 20  1  0
 19 18  1  0
 21 20  1  0
 21 30  1  0
 21 22  1  0
 23 22  1  0
 24 17  2  0
 25 26  1  0
 27 28  2  0
 28 47  1  0
 29 28  1  0
 29 32  1  0
 30 31  1  0
 30 27  1  0
 31 29  2  0
 32 33  1  0
 33 34  2  0
 35 38  1  0
 35 34  1  0
 36 35  2  0
 37 36  1  0
 37 32  2  0
 38 39  1  0
 39 44  2  0
 39 40  1  0
 40 41  2  0
 41 42  1  0
 42 46  1  0
 43 42  2  0
 44 43  1  0
 45 44  1  0
 47 48  1  0
 48 51  1  0
 48 50  1  0
 49 47  2  0
 52 53  1  0
 52 27  1  0
 54 52  1  0
 56 58  1  0
 56 55  1  0
 57 68  2  0
 58 63  1  0
 59 67  1  0
 59 69  1  0
 60 66  1  0
 60 62  1  0
 61 67  1  0
 62 61  1  0
 63 62  2  0
 64 65  1  0
 64 58  2  0
 65 60  2  0
 66 59  1  0
 67 57  1  0
 69 71  2  0
 70 69  1  0
 72 70  1  0
 73 82  2  0
 73 78  1  0
 74 70  1  0
 74 78  1  0
 75 74  1  0
 76 77  1  0
 76 75  1  0
 77 73  1  0
 78 79  2  0
 79 80  1  0
 81 80  2  0
 82 81  1  0
 83 57  1  0
 83 84  1  0
 83 93  1  0
 84 87  1  0
 85 89  1  0
 85 84  1  0
 86 85  2  0
 89 88  1  0
 91 89  1  0
 91 92  1  0
 91 90  1  0
 93 96  1  1
 93 94  1  0
 95 93  1  0
M  ISO  4  17 100  25 100  55 101  56 101
M  END
>  <TORSDO>  (9) 
F 23

>  <SCORE>  (9) 
-12.827

>  <name>  (9) 
8

>  <ligand_id>  (9) 
8

>  <original_smiles>  (9) 
[H]Oc1c([H])c([H])c(C([H])([H])Oc2c([H])c([H])c3c(c2[H])C([H])([H])N(C(=O)C([H])(N([H])C(=O)C([H])(N([H])C([H])([H])[H])C([H])([H])[H])C(C([H])([H])[H])(C([H])([H])[H])C([H])([H])[H])C([H])(C(=O)N([H])C2([H])c4c([H])c([H])c([H])c([H])c4C([H])([H])C([H])([H])C2([H])[H])C3([H])[H])c(C([H])([H])C([H])(C([H])([H])[H])[N+]([H])([H])C([H])([H])C([H])([H])N([H])C(=O)N2C([H])([H])C([H])([H])C([H])([H])C([H])(n3nc(-c4c([H])c([H])c(Oc5c([H])c([H])c(F)c([H])c5F)c([H])c4[H])c(C(=O)N([H])[H])c3N([H])[H])C2([H])[H])c1[H]

>  <smiles>  (9) 
[H]Oc1c([H])c([H])c(C([H])([H])Oc2c([H])c([H])c3c(c2[H])C([H])([H])N(C(=O)C([H])(N([H])C(=O)C([H])(N([H])C([H])([H])[H])C([H])([H])[H])C(C([H])([H])[H])(C([H])([H])[H])C([H])([H])[H])C([H])(C(=O)N([H])C2([H])c4c([H])c([H])c([H])c([H])c4C([H])([H])C([H])([H])C2([H])[H])C3([H])[H])c(C([H])([H])C([H])(C([H])([H])[H])[N+]([H])([H])C([H])([H])C([H])([H])N([H])C(=O)N2C([H])([H])C([H])([H])C([H])([H])C([H])(n3nc(-c4c([H])c([H])c(Oc5c([H])c([H])c(F)c([H])c5F)c([H])c4[H])c(C(=O)N([H])[H])c3N([H])[H])C2([H])[H])c1[H]

$$$$
9:0:0
     RDKit          3D

 95104  0  0  1  0  0  0  0  0999 V2000
  -29.5490  -23.5330   20.1970 C   0  0  0  0  0  3  0  0  0  0  0  0
  -29.2490  -24.7980   19.6600 C   0  0  0  0  0  3  0  0  0  0  0  0
  -28.7970  -25.6410   21.8970 C   0  0  0  0  0  3  0  0  0  0  0  0
  -29.5040  -23.3140   21.5910 C   0  0  0  0  0  0  0  0  0  0  0  0
  -28.8910  -25.8630   20.5060 C   0  0  0  0  0  0  0  0  0  0  0  0
  -29.1020  -24.3760   22.4370 C   0  0  0  0  0  0  0  0  0  0  0  0
  -29.0460  -24.1980   23.7790 F   0  0  0  0  0  0  0  0  0  0  0  0
  -28.7330  -27.1070   19.9490 O   0  0  0  0  0  0  0  0  0  0  0  0
  -24.7030  -31.9680   23.2300 C   0  0  0  0  0  0  0  0  0  0  0  0
  -27.5240  -27.7460   20.0340 C   0  0  0  0  0  0  0  0  0  0  0  0
  -23.5610  -30.5960   21.5140 C   0  0  0  0  0  3  0  0  0  0  0  0
  -25.0810  -29.1490   20.0660 C   0  0  0  0  0  0  0  0  0  0  0  0
  -26.0750  -31.0380   21.3720 C   0  0  0  0  0  2  0  0  0  0  0  0
  -26.2090  -29.6930   20.6920 C   0  0  0  0  0  0  0  0  0  0  0  0
  -27.4340  -28.9960   20.6780 C   0  0  0  0  0  3  0  0  0  0  0  0
  -26.3840  -27.2000   19.4110 C   0  0  0  0  0  3  0  0  0  0  0  0
  -25.1600  -27.8970   19.4260 C   0  0  0  0  0  3  0  0  0  0  0  0
  -23.8120  -29.9690   20.1150 C   0  0  0  0  0  2  0  0  0  0  0  0
  -24.7960  -31.2140   22.0970 N   0  0  0  0  0  0  0  0  0  0  0  0
  -23.6070  -32.1890   23.7620 O   0  0  0  0  0  0  0  0  0  0  0  0
  -22.9260  -29.5220   22.4260 C   0  0  0  0  0  0  0  0  0  0  0  0
  -21.6100  -29.3060   22.2660 N   0  0  0  0  0  0  0  0  0  0  0  0
  -23.6120  -28.8870   23.2310 O   0  0  0  0  0  0  0  0  0  0  0  0
  -21.1170  -29.8730   21.5910 H   0  0  0  0  0  0  0  0  0  0  0  0
  -18.2570  -28.0330   22.6830 C   0  0  0  0  0  0  0  0  0  0  0  0
  -20.8080  -28.3200   22.9850 C   0  0  0  0  0  3  0  0  0  0  0  0
  -20.9380  -26.9200   22.3410 C   0  0  0  0  0  2  0  0  0  0  0  0
  -19.8480  -26.6290   21.3040 C   0  0  0  0  0  2  0  0  0  0  0  0
  -18.4600  -26.7210   21.9450 C   0  0  0  0  0  2  0  0  0  0  0  0
  -19.3590  -28.7920   23.1580 C   0  0  0  0  0  0  0  0  0  0  0  0
  -19.1170  -30.0230   23.8050 C   0  0  0  0  0  3  0  0  0  0  0  0
  -17.8030  -30.4950   23.9850 C   0  0  0  0  0  3  0  0  0  0  0  0
  -16.7140  -29.7320   23.5270 C   0  0  0  0  0  3  0  0  0  0  0  0
  -16.9420  -28.5040   22.8830 C   0  0  0  0  0  3  0  0  0  0  0  0
  -25.9630  -32.6070   23.8930 C   0  0  0  0  0  3  0  0  0  0  0  0
  -25.6320  -34.0010   24.2180 N   0  0  0  0  0  0  0  0  0  0  0  0
  -25.9650  -35.0560   23.4630 C   0  0  0  0  0  0  0  0  0  0  0  0
  -26.6540  -34.9600   22.4420 O   0  0  0  0  0  0  0  0  0  0  0  0
  -25.0220  -34.1500   25.0080 H   0  0  0  0  0  0  0  0  0  0  0  0
  -24.2200  -36.8240   23.0720 C   0  0  0  0  0  1  0  0  0  0  0  0
  -25.4510  -36.4380   23.9080 C   0  0  0  0  0  3  0  0  0  0  0  0
  -27.5500  -37.3570   24.7890 C   0  0  0  0  0  1  0  0  0  0  0  0
  -26.4710  -37.5050   23.8160 N   0  0  0  0  0  0  0  0  0  0  0  0
  -26.0480  -38.4200   23.9490 H   0  0  0  0  0  0  0  0  0  0  0  0
  -26.4490  -31.8340   25.1800 C   0  0  1  0  0  0  0  0  0  0  0  0
  -25.3230  -31.5630   26.2050 C   0  0  0  0  0  1  0  0  0  0  0  0
  -27.0780  -30.4730   24.7960 C   0  0  0  0  0  1  0  0  0  0  0  0
  -27.5580  -32.6460   25.8920 C   0  0  0  0  0  1  0  0  0  0  0  0
  -29.9870  -21.9880   22.1770 C   0  0  0  0  0  2  0  0  0  0  0  0
  -29.3500  -20.7090   21.5770 C   0  0  0  0  0  2  0  0  0  0  0  0
  -31.8640  -19.1660   18.9980 C   0  0  0  0  0  2  0  0  0  0  0  0
  -30.9200  -20.1750   19.6510 C   0  0  0  0  0  2  0  0  0  0  0  0
  -31.2200  -17.7720   18.8960 C   0  0  0  0  0  2  0  0  0  0  0  0
  -29.7890  -18.2690   20.8920 C   0  0  0  0  0  2  0  0  0  0  0  0
  -30.3820  -19.6990   21.0140 C   0  0  0  0  0  3  0  0  0  0  0  0
  -30.7480  -17.2010   20.2700 C   0  0  2  0  0  0  0  0  0  0  0  0
  -31.9540  -16.9560   21.2030 C   0  0  0  0  0  3  0  0  0  0  0  0
  -31.7980  -16.6100   22.3770 O   0  0  0  0  0  0  0  0  0  0  0  0
  -29.9500  -15.8540   20.1520 C   0  0  0  0  0  2  0  0  0  0  0  0
  -30.6710  -14.6000   19.5910 C   0  0  0  0  0  0  0  0  0  0  0  0
  -30.3700  -12.3070   18.7320 C   0  0  0  0  0  2  0  0  0  0  0  0
  -29.2980  -12.3270   17.6220 C   0  0  0  0  0  2  0  0  0  0  0  0
  -27.8850  -12.1850   18.2210 C   0  0  0  0  0  2  0  0  0  0  0  0
  -27.6340  -13.1620   19.4000 C   0  0  0  0  0  3  0  0  0  0  0  0
  -28.8070  -13.1240   20.4040 C   0  0  0  0  0  2  0  0  0  0  0  0
  -30.0520  -13.3930   19.6700 N   0  0  0  0  0  0  0  0  0  0  0  0
  -31.7380  -14.7350   18.9900 O   0  0  0  0  0  0  0  0  0  0  0  0
  -25.3820  -13.7940   20.4740 C   0  0  0  0  0  0  0  0  0  0  0  0
  -24.3530  -13.0310   20.9570 C   0  0  0  0  0  0  0  0  0  0  0  0
  -24.7650  -11.6710   20.8010 C   0  0  0  0  0  0  0  0  0  0  0  0
  -26.3560  -12.8990   20.0550 N   0  0  0  0  0  0  0  0  0  0  0  0
  -25.9950  -11.6150   20.3080 N   0  0  0  0  0  0  0  0  0  0  0  0
  -24.0360  -10.4190   21.0380 C   0  0  0  0  0  0  0  0  0  0  0  0
  -24.4810   -9.4720   21.9870 C   0  0  0  0  0  3  0  0  0  0  0  0
  -23.7530   -8.2840   22.2090 C   0  0  0  0  0  3  0  0  0  0  0  0
  -22.5670   -8.0320   21.4800 C   0  0  0  0  0  0  0  0  0  0  0  0
  -22.1400   -8.9660   20.5190 C   0  0  0  0  0  3  0  0  0  0  0  0
  -22.8690  -10.1460   20.2960 C   0  0  0  0  0  3  0  0  0  0  0  0
  -21.8090   -6.8920   21.6100 O   0  0  0  0  0  0  0  0  0  0  0  0
  -21.6980   -6.2340   22.8080 C   0  0  0  0  0  0  0  0  0  0  0  0
  -21.1440   -6.8540   23.9490 C   0  0  0  0  0  3  0  0  0  0  0  0
  -20.9850   -6.1190   25.1410 C   0  0  0  0  0  3  0  0  0  0  0  0
  -21.3700   -4.7660   25.1930 C   0  0  0  0  0  0  0  0  0  0  0  0
  -21.9170   -4.1460   24.0550 C   0  0  0  0  0  3  0  0  0  0  0  0
  -22.0780   -4.8780   22.8650 C   0  0  0  0  0  0  0  0  0  0  0  0
  -22.5860   -4.2700   21.7660 F   0  0  0  0  0  0  0  0  0  0  0  0
  -21.2100   -4.0570   26.3340 F   0  0  0  0  0  0  0  0  0  0  0  0
  -23.0240  -13.5260   21.4490 C   0  0  0  0  0  0  0  0  0  0  0  0
  -22.4050  -12.8050   22.3770 N   0  0  0  0  0  0  0  0  0  0  0  0
  -22.5490  -14.5870   21.0450 O   0  0  0  0  0  0  0  0  0  0  0  0
  -22.8060  -11.9450   22.7230 H   0  0  0  0  0  0  0  0  0  0  0  0
  -21.5190  -13.1160   22.7480 H   0  0  0  0  0  0  0  0  0  0  0  0
  -25.5620  -15.1670   20.3360 N   0  0  0  0  0  0  0  0  0  0  0  0
  -24.8420  -15.8350   20.5870 H   0  0  0  0  0  0  0  0  0  0  0  0
  -26.3760  -15.6010   19.9200 H   0  0  0  0  0  0  0  0  0  0  0  0
  1  4  1  0
  2  1  2  0
  2  5  1  0
  3  6  1  0
  4 49  1  0
  4  6  2  0
  5  3  2  0
  6  7  1  0
  8 10  1  0
  8  5  1  0
  9 20  2  0
 10 15  1  0
 11 19  1  0
 11 21  1  0
 12 18  1  0
 12 14  1  0
 13 19  1  0
 14 13  1  0
 15 14  2  0
 16 17  1  0
 16 10  2  0
 17 12  2  0
 18 11  1  0
 19  9  1  0
 21 23  2  0
 22 21  1  0
 24 22  1  0
 25 34  2  0
 25 30  1  0
 26 22  1  0
 26 30  1  0
 27 26  1  0
 28 29  1  0
 28 27  1  0
 29 25  1  0
 30 31  2  0
 31 32  1  0
 33 32  2  0
 34 33  1  0
 35  9  1  0
 35 36  1  0
 35 45  1  0
 36 39  1  0
 37 41  1  0
 37 36  1  0
 38 37  2  0
 41 40  1  0
 43 41  1  0
 43 44  1  0
 43 42  1  0
 45 48  1  1
 45 46  1  0
 47 45  1  0
 50 49  1  0
 51 52  1  0
 52 55  1  0
 53 51  1  0
 53 56  1  0
 54 55  1  0
 55 50  1  0
 56 59  1  6
 56 54  1  0
 56 57  1  0
 57 58  2  0
 60 66  1  0
 60 59  1  0
 61 66  1  0
 62 63  1  0
 62 61  1  0
 64 63  1  0
 64 71  1  0
 64 65  1  0
 66 65  1  0
 67 60  2  0
 68 69  2  0
 69 88  1  0
 70 69  1  0
 70 73  1  0
 71 72  1  0
 71 68  1  0
 72 70  2  0
 73 74  1  0
 74 75  2  0
 76 79  1  0
 76 75  1  0
 77 76  2  0
 78 77  1  0
 78 73  2  0
 79 80  1  0
 80 85  2  0
 80 81  1  0
 81 82  2  0
 82 83  1  0
 83 87  1  0
 84 83  2  0
 85 84  1  0
 86 85  1  0
 88 89  1  0
 89 91  1  0
 89 92  1  0
 90 88  2  0
 93 68  1  0
 93 94  1  0
 95 93  1  0
M  ISO  4   5 101   8 101  59 100  60 100
M  END
>  <TORSDO>  (10) 
F 21

>  <SCORE>  (10) 
-11.944

>  <name>  (10) 
9

>  <ligand_id>  (10) 
9

>  <original_smiles>  (10) 
[H]C(=O)C1(C([H])([H])C(=O)N2C([H])([H])C([H])([H])C([H])([H])C([H])(n3nc(-c4c([H])c([H])c(Oc5c([H])c([H])c(F)c([H])c5F)c([H])c4[H])c(C(=O)N([H])[H])c3N([H])[H])C2([H])[H])C([H])([H])C([H])([H])C([H])([H])C([H])(C([H])([H])C([H])([H])c2c([H])c([H])c(Oc3c([H])c([H])c4c(c3[H])C([H])([H])N(C(=O)C([H])(N([H])C(=O)C([H])(N([H])C([H])([H])[H])C([H])([H])[H])C(C([H])([H])[H])(C([H])([H])[H])C([H])([H])[H])C([H])(C(=O)N([H])C3([H])c5c([H])c([H])c([H])c([H])c5C([H])([H])C([H])([H])C3([H])[H])C4([H])[H])c([H])c2F)C1([H])[H]

>  <smiles>  (10) 
[H]C(=O)C1(C([H])([H])C(=O)N2C([H])([H])C([H])([H])C([H])([H])C([H])(n3nc(-c4c([H])c([H])c(Oc5c([H])c([H])c(F)c([H])c5F)c([H])c4[H])c(C(=O)N([H])[H])c3N([H])[H])C2([H])[H])C([H])([H])C([H])([H])C([H])([H])C([H])(C([H])([H])C([H])([H])c2c([H])c([H])c(Oc3c([H])c([H])c4c(c3[H])C([H])([H])N(C(=O)C([H])(N([H])C(=O)C([H])(N([H])C([H])([H])[H])C([H])([H])[H])C(C([H])([H])[H])(C([H])([H])[H])C([H])([H])[H])C([H])(C(=O)N([H])C3([H])c5c([H])c([H])c([H])c([H])c5C([H])([H])C([H])([H])C3([H])[H])C4([H])[H])c([H])c2F)C1([H])[H]

$$$$
10:0:0
     RDKit          3D

 99107  0  0  1  0  0  0  0  0999 V2000
  -30.4140  -21.8480   16.6920 C   0  0  0  0  0  3  0  0  0  0  0  0
  -32.2340  -22.1210   18.2910 C   0  0  0  0  0  3  0  0  0  0  0  0
  -30.3160  -23.2490   16.5640 C   0  0  0  0  0  3  0  0  0  0  0  0
  -32.1410  -23.5210   18.1560 C   0  0  0  0  0  3  0  0  0  0  0  0
  -31.3820  -21.2770   17.5470 C   0  0  0  0  0  0  0  0  0  0  0  0
  -31.1910  -24.0930   17.2810 C   0  0  0  0  0  0  0  0  0  0  0  0
  -31.1470  -25.6000   17.0690 C   0  0  0  0  0  2  0  0  0  0  0  0
  -30.2040  -26.2870   17.9700 N   0  0  0  0  0  4  0  0  0  0  0  0
  -29.3130  -25.8170   17.9270 H   0  0  0  0  0  0  0  0  0  0  0  0
  -30.0670  -27.2130   17.5960 H   0  0  0  0  0  0  0  0  0  0  0  0
  -30.6300  -26.4120   19.3860 C   0  0  0  0  0  2  0  0  0  0  0  0
  -29.6470  -27.2910   20.1670 C   0  0  0  0  0  2  0  0  0  0  0  0
  -28.3920  -26.6200   20.1430 O   0  0  0  0  0  0  0  0  0  0  0  0
  -24.5720  -31.8340   23.2160 C   0  0  0  0  0  0  0  0  0  0  0  0
  -27.2520  -27.3870   20.2080 C   0  0  0  0  0  0  0  0  0  0  0  0
  -23.3780  -30.4170   21.5740 C   0  0  0  0  0  3  0  0  0  0  0  0
  -24.8440  -28.8580   20.1900 C   0  0  0  0  0  0  0  0  0  0  0  0
  -25.9000  -30.7790   21.3950 C   0  0  0  0  0  2  0  0  0  0  0  0
  -25.9910  -29.3990   20.7820 C   0  0  0  0  0  0  0  0  0  0  0  0
  -27.1970  -28.6720   20.7970 C   0  0  0  0  0  3  0  0  0  0  0  0
  -26.0850  -26.8420   19.6370 C   0  0  0  0  0  3  0  0  0  0  0  0
  -24.8810  -27.5730   19.6200 C   0  0  0  0  0  3  0  0  0  0  0  0
  -23.6000  -29.7150   20.2070 C   0  0  0  0  0  2  0  0  0  0  0  0
  -24.6340  -31.0240   22.1220 N   0  0  0  0  0  0  0  0  0  0  0  0
  -23.4880  -32.1170   23.7430 O   0  0  0  0  0  0  0  0  0  0  0  0
  -22.7130  -29.4100   22.5400 C   0  0  0  0  0  0  0  0  0  0  0  0
  -21.3880  -29.2400   22.4040 N   0  0  0  0  0  0  0  0  0  0  0  0
  -23.3850  -28.7850   23.3640 O   0  0  0  0  0  0  0  0  0  0  0  0
  -20.9110  -29.7940   21.7060 H   0  0  0  0  0  0  0  0  0  0  0  0
  -17.9970  -28.0950   22.8900 C   0  0  0  0  0  0  0  0  0  0  0  0
  -20.5560  -28.3180   23.1740 C   0  0  0  0  0  3  0  0  0  0  0  0
  -20.6420  -26.8830   22.6030 C   0  0  0  0  0  2  0  0  0  0  0  0
  -19.5400  -26.5720   21.5860 C   0  0  0  0  0  2  0  0  0  0  0  0
  -18.1580  -26.7410   22.2210 C   0  0  0  0  0  2  0  0  0  0  0  0
  -19.1230  -28.8440   23.3210 C   0  0  0  0  0  0  0  0  0  0  0  0
  -18.9210  -30.1140   23.9030 C   0  0  0  0  0  3  0  0  0  0  0  0
  -17.6220  -30.6350   24.0590 C   0  0  0  0  0  3  0  0  0  0  0  0
  -16.5100  -29.8840   23.6430 C   0  0  0  0  0  3  0  0  0  0  0  0
  -16.6980  -28.6160   23.0640 C   0  0  0  0  0  3  0  0  0  0  0  0
  -25.8570  -32.4640   23.8430 C   0  0  0  0  0  3  0  0  0  0  0  0
  -26.3740  -31.6870   25.1160 C   0  0  1  0  0  0  0  0  0  0  0  0
  -25.2800  -31.4440   26.1820 C   0  0  0  0  0  1  0  0  0  0  0  0
  -26.9590  -30.3120   24.7160 C   0  0  0  0  0  1  0  0  0  0  0  0
  -27.5240  -32.4790   25.7810 C   0  0  0  0  0  1  0  0  0  0  0  0
  -25.5470  -33.8600   24.1750 N   0  0  0  0  0  0  0  0  0  0  0  0
  -25.8830  -34.9140   23.4180 C   0  0  0  0  0  0  0  0  0  0  0  0
  -26.5590  -34.8130   22.3900 O   0  0  0  0  0  0  0  0  0  0  0  0
  -24.9500  -34.0140   24.9740 H   0  0  0  0  0  0  0  0  0  0  0  0
  -24.1550  -36.7040   23.0540 C   0  0  0  0  0  1  0  0  0  0  0  0
  -25.3920  -36.3010   23.8730 C   0  0  0  0  0  3  0  0  0  0  0  0
  -27.5230  -37.1830   24.7150 C   0  0  0  0  0  1  0  0  0  0  0  0
  -26.4240  -37.3550   23.7690 N   0  0  0  0  0  0  0  0  0  0  0  0
  -26.0160  -38.2740   23.9190 H   0  0  0  0  0  0  0  0  0  0  0  0
  -31.5230  -19.7640   17.6390 C   0  0  0  0  0  2  0  0  0  0  0  0
  -30.5010  -19.1850   18.5300 N   0  0  0  0  0  4  0  0  0  0  0  0
  -29.9970  -18.5000   17.9930 H   0  0  0  0  0  0  0  0  0  0  0  0
  -29.8580  -19.9180   18.7760 H   0  0  0  0  0  0  0  0  0  0  0  0
  -31.0180  -18.5460   19.7580 C   0  0  0  0  0  2  0  0  0  0  0  0
  -29.8820  -17.9160   20.5930 C   0  0  0  0  0  2  0  0  0  0  0  0
  -30.3460  -17.3240   21.9360 C   0  0  0  0  0  2  0  0  0  0  0  0
  -31.2120  -16.0550   21.8350 C   0  0  0  0  0  2  0  0  0  0  0  0
  -30.8030  -14.1750   20.2470 C   0  0  0  0  0  0  0  0  0  0  0  0
  -30.2820  -12.1830   18.8900 C   0  0  0  0  0  2  0  0  0  0  0  0
  -29.2730  -12.5060   17.7730 C   0  0  0  0  0  2  0  0  0  0  0  0
  -27.8270  -12.3950   18.2890 C   0  0  0  0  0  2  0  0  0  0  0  0
  -27.6060  -13.1650   19.6180 C   0  0  0  0  0  3  0  0  0  0  0  0
  -28.7100  -12.8180   20.6390 C   0  0  0  0  0  2  0  0  0  0  0  0
  -30.0230  -13.0870   20.0220 N   0  0  0  0  0  0  0  0  0  0  0  0
  -31.7820  -14.4650   19.5520 O   0  0  0  0  0  0  0  0  0  0  0  0
  -30.4670  -14.9090   21.3160 N   0  0  0  0  0  0  0  0  0  0  0  0
  -29.6700  -14.5900   21.8490 H   0  0  0  0  0  0  0  0  0  0  0  0
  -25.2570  -13.8140   20.4600 C   0  0  0  0  0  0  0  0  0  0  0  0
  -24.1960  -13.0570   20.8760 C   0  0  0  0  0  0  0  0  0  0  0  0
  -24.6250  -11.6980   20.7980 C   0  0  0  0  0  0  0  0  0  0  0  0
  -26.2720  -12.9150   20.1630 N   0  0  0  0  0  0  0  0  0  0  0  0
  -25.8950  -11.6360   20.4210 N   0  0  0  0  0  0  0  0  0  0  0  0
  -23.8840  -10.4480   21.0120 C   0  0  0  0  0  0  0  0  0  0  0  0
  -24.3560   -9.4550   21.8970 C   0  0  0  0  0  3  0  0  0  0  0  0
  -23.6180   -8.2700   22.1030 C   0  0  0  0  0  3  0  0  0  0  0  0
  -22.3920   -8.0710   21.4240 C   0  0  0  0  0  0  0  0  0  0  0  0
  -21.9400   -9.0520   20.5240 C   0  0  0  0  0  3  0  0  0  0  0  0
  -22.6780  -10.2280   20.3170 C   0  0  0  0  0  3  0  0  0  0  0  0
  -21.6200   -6.9410   21.5410 O   0  0  0  0  0  0  0  0  0  0  0  0
  -21.6410   -6.1680   22.6740 C   0  0  0  0  0  0  0  0  0  0  0  0
  -21.3390   -6.7010   23.9460 C   0  0  0  0  0  3  0  0  0  0  0  0
  -21.3020   -5.8550   25.0730 C   0  0  0  0  0  3  0  0  0  0  0  0
  -21.5580   -4.4780   24.9290 C   0  0  0  0  0  0  0  0  0  0  0  0
  -21.8500   -3.9450   23.6610 C   0  0  0  0  0  3  0  0  0  0  0  0
  -21.8880   -4.7870   22.5360 C   0  0  0  0  0  0  0  0  0  0  0  0
  -22.1500   -4.2660   21.3130 F   0  0  0  0  0  0  0  0  0  0  0  0
  -21.5140   -3.6620   26.0080 F   0  0  0  0  0  0  0  0  0  0  0  0
  -22.8260  -13.5540   21.2350 C   0  0  0  0  0  0  0  0  0  0  0  0
  -22.1400  -12.8610   22.1370 N   0  0  0  0  0  0  0  0  0  0  0  0
  -22.3750  -14.5920   20.7500 O   0  0  0  0  0  0  0  0  0  0  0  0
  -22.5240  -12.0270   22.5580 H   0  0  0  0  0  0  0  0  0  0  0  0
  -21.2160  -13.1660   22.4070 H   0  0  0  0  0  0  0  0  0  0  0  0
  -25.4310  -15.1850   20.2950 N   0  0  0  0  0  0  0  0  0  0  0  0
  -24.6690  -15.8380   20.4470 H   0  0  0  0  0  0  0  0  0  0  0  0
  -26.2690  -15.6310   19.9470 H   0  0  0  0  0  0  0  0  0  0  0  0
  1  5  1  0
  3  1  2  0
  3  6  1  0
  4  2  1  0
  5 54  1  0
  5  2  2  0
  6  4  2  0
  7  6  1  0
  7  8  1  0
  8 11  1  0
  9  8  1  0
 10  8  1  0
 11 12  1  0
 13 12  1  0
 13 15  1  0
 14 25  2  0
 15 20  1  0
 16 24  1  0
 16 26  1  0
 17 23  1  0
 17 19  1  0
 18 24  1  0
 19 20  2  0
 19 18  1  0
 21 15  2  0
 22 21  1  0
 22 17  2  0
 23 16  1  0
 24 14  1  0
 26 28  2  0
 27 26  1  0
 29 27  1  0
 30 39  2  0
 30 35  1  0
 31 27  1  0
 31 35  1  0
 32 31  1  0
 33 34  1  0
 33 32  1  0
 34 30  1  0
 35 36  2  0
 36 37  1  0
 38 37  2  0
 39 38  1  0
 40 14  1  0
 40 45  1  0
 40 41  1  0
 41 44  1  1
 41 42  1  0
 43 41  1  0
 45 48  1  0
 46 50  1  0
 46 45  1  0
 47 46  2  0
 50 49  1  0
 52 50  1  0
 52 53  1  0
 52 51  1  0
 54 55  1  0
 55 57  1  0
 55 58  1  0
 56 55  1  0
 58 59  1  0
 59 60  1  0
 61 60  1  0
 62 70  1  0
 63 68  1  0
 64 65  1  0
 64 63  1  0
 66 65  1  0
 66 75  1  0
 66 67  1  0
 68 62  1  0
 68 67  1  0
 69 62  2  0
 70 61  1  0
 70 71  1  0
 72 73  2  0
 73 92  1  0
 74 73  1  0
 74 77  1  0
 75 76  1  0
 75 72  1  0
 76 74  2  0
 77 78  1  0
 78 79  2  0
 80 83  1  0
 80 79  1  0
 81 80  2  0
 82 81  1  0
 82 77  2  0
 83 84  1  0
 84 85  1  0
 85 86  2  0
 87 86  1  0
 87 91  1  0
 88 87  2  0
 89 84  2  0
 89 88  1  0
 90 89  1  0
 92 93  1  0
 93 96  1  0
 93 95  1  0
 94 92  2  0
 97 98  1  0
 97 72  1  0
 99 97  1  0
M  ISO  4  12 101  13 101  62 100  70 100
M  END
>  <TORSDO>  (11) 
F 26

>  <SCORE>  (11) 
-11.657

>  <name>  (11) 
10

>  <ligand_id>  (11) 
10

>  <original_smiles>  (11) 
[H]c1c([H])c([H])c2c(c1[H])C([H])([H])C([H])([H])C([H])([H])C2([H])N([H])C(=O)C1([H])N(C(=O)C([H])(N([H])C(=O)C([H])(N([H])C([H])([H])[H])C([H])([H])[H])C(C([H])([H])[H])(C([H])([H])[H])C([H])([H])[H])C([H])([H])c2c([H])c(OC([H])([H])C([H])([H])[N+]([H])([H])C([H])([H])c3c([H])c([H])c(C([H])([H])[N+]([H])([H])C([H])([H])C([H])([H])C([H])([H])C([H])([H])N([H])C(=O)N4C([H])([H])C([H])([H])C([H])([H])C([H])(n5nc(-c6c([H])c([H])c(Oc7c([H])c([H])c(F)c([H])c7F)c([H])c6[H])c(C(=O)N([H])[H])c5N([H])[H])C4([H])[H])c([H])c3[H])c([H])c([H])c2C1([H])[H]

>  <smiles>  (11) 
[H]c1c([H])c([H])c2c(c1[H])C([H])([H])C([H])([H])C([H])([H])C2([H])N([H])C(=O)C1([H])N(C(=O)C([H])(N([H])C(=O)C([H])(N([H])C([H])([H])[H])C([H])([H])[H])C(C([H])([H])[H])(C([H])([H])[H])C([H])([H])[H])C([H])([H])c2c([H])c(OC([H])([H])C([H])([H])[N+]([H])([H])C([H])([H])c3c([H])c([H])c(C([H])([H])[N+]([H])([H])C([H])([H])C([H])([H])C([H])([H])C([H])([H])N([H])C(=O)N4C([H])([H])C([H])([H])C([H])([H])C([H])(n5nc(-c6c([H])c([H])c(Oc7c([H])c([H])c(F)c([H])c7F)c([H])c6[H])c(C(=O)N([H])[H])c5N([H])[H])C4([H])[H])c([H])c3[H])c([H])c([H])c2C1([H])[H]

$$$$
11:0:0
     RDKit          3D

 98106  0  0  1  0  0  0  0  0999 V2000
  -30.4070  -25.8040   19.2130 C   0  0  0  0  0  0  0  0  0  0  0  0
  -29.3500  -27.7440   18.0620 C   0  0  0  0  0  2  0  0  0  0  0  0
  -28.7730  -26.7540   17.0230 C   0  0  0  0  0  2  0  0  0  0  0  0
  -29.7140  -24.8160   18.2490 C   0  0  0  0  0  3  0  0  0  0  0  0
  -29.6140  -27.1120   19.4590 C   0  0  2  0  0  0  0  0  0  0  0  0
  -30.4080  -28.0850   20.3620 C   0  0  0  0  0  1  0  0  0  0  0  0
  -29.5830  -25.5140   16.9480 N   0  0  0  0  0  4  0  0  0  0  0  0
  -31.5100  -25.6010   19.7340 O   0  0  0  0  0  0  0  0  0  0  0  0
  -30.5010  -25.7330   16.5920 H   0  0  0  0  0  0  0  0  0  0  0  0
  -29.1460  -24.8940   16.2840 H   0  0  0  0  0  0  0  0  0  0  0  0
  -28.3980  -26.6860   20.0970 O   0  0  0  0  0  0  0  0  0  0  0  0
  -24.6360  -31.8800   23.2430 C   0  0  0  0  0  0  0  0  0  0  0  0
  -27.2730  -27.4780   20.1270 C   0  0  0  0  0  0  0  0  0  0  0  0
  -23.4130  -30.4780   21.6090 C   0  0  0  0  0  3  0  0  0  0  0  0
  -24.8590  -28.9430   20.1720 C   0  0  0  0  0  0  0  0  0  0  0  0
  -25.9320  -30.8480   21.3870 C   0  0  0  0  0  2  0  0  0  0  0  0
  -26.0170  -29.4800   20.7480 C   0  0  0  0  0  0  0  0  0  0  0  0
  -27.2240  -28.7500   20.7360 C   0  0  0  0  0  3  0  0  0  0  0  0
  -26.0930  -26.9370   19.5770 C   0  0  0  0  0  3  0  0  0  0  0  0
  -24.8880  -27.6650   19.5880 C   0  0  0  0  0  3  0  0  0  0  0  0
  -23.6100  -29.7940   20.2290 C   0  0  0  0  0  2  0  0  0  0  0  0
  -24.6790  -31.0820   22.1390 N   0  0  0  0  0  0  0  0  0  0  0  0
  -23.5600  -32.1510   23.7950 O   0  0  0  0  0  0  0  0  0  0  0  0
  -22.7710  -29.4580   22.5750 C   0  0  0  0  0  0  0  0  0  0  0  0
  -21.4460  -29.2740   22.4550 N   0  0  0  0  0  0  0  0  0  0  0  0
  -23.4610  -28.8340   23.3870 O   0  0  0  0  0  0  0  0  0  0  0  0
  -20.9520  -29.8300   21.7710 H   0  0  0  0  0  0  0  0  0  0  0  0
  -18.0760  -28.0810   22.9670 C   0  0  0  0  0  0  0  0  0  0  0  0
  -20.6340  -28.3380   23.2310 C   0  0  0  0  0  3  0  0  0  0  0  0
  -20.7340  -26.9060   22.6570 C   0  0  0  0  0  2  0  0  0  0  0  0
  -19.6300  -26.5820   21.6470 C   0  0  0  0  0  2  0  0  0  0  0  0
  -18.2500  -26.7290   22.2950 C   0  0  0  0  0  2  0  0  0  0  0  0
  -19.1970  -28.8420   23.3920 C   0  0  0  0  0  0  0  0  0  0  0  0
  -18.9800  -30.1080   23.9790 C   0  0  0  0  0  3  0  0  0  0  0  0
  -17.6770  -30.6120   24.1470 C   0  0  0  0  0  3  0  0  0  0  0  0
  -16.5710  -29.8460   23.7390 C   0  0  0  0  0  3  0  0  0  0  0  0
  -16.7720  -28.5830   23.1550 C   0  0  0  0  0  3  0  0  0  0  0  0
  -25.9300  -32.5070   23.8520 C   0  0  0  0  0  3  0  0  0  0  0  0
  -25.6300  -33.9060   24.1800 N   0  0  0  0  0  0  0  0  0  0  0  0
  -25.9680  -34.9550   23.4180 C   0  0  0  0  0  0  0  0  0  0  0  0
  -26.6380  -34.8450   22.3870 O   0  0  0  0  0  0  0  0  0  0  0  0
  -25.0370  -34.0660   24.9810 H   0  0  0  0  0  0  0  0  0  0  0  0
  -24.2520  -36.7560   23.0520 C   0  0  0  0  0  1  0  0  0  0  0  0
  -25.4870  -36.3460   23.8710 C   0  0  0  0  0  3  0  0  0  0  0  0
  -27.6260  -37.2150   24.7080 C   0  0  0  0  0  1  0  0  0  0  0  0
  -26.5260  -37.3930   23.7620 N   0  0  0  0  0  0  0  0  0  0  0  0
  -26.1260  -38.3150   23.9110 H   0  0  0  0  0  0  0  0  0  0  0  0
  -26.4590  -31.7340   25.1210 C   0  0  1  0  0  0  0  0  0  0  0  0
  -25.3770  -31.5000   26.2020 C   0  0  0  0  0  1  0  0  0  0  0  0
  -27.0330  -30.3550   24.7200 C   0  0  0  0  0  1  0  0  0  0  0  0
  -27.6190  -32.5250   25.7700 C   0  0  0  0  0  1  0  0  0  0  0  0
  -30.4310  -23.4470   18.1080 C   0  0  0  0  0  2  0  0  0  0  0  0
  -30.3910  -22.5830   19.3850 C   0  0  0  0  0  2  0  0  0  0  0  0
  -30.5680  -21.1780   19.0390 N   0  0  0  0  0  0  0  0  0  0  0  0
  -31.4530  -21.0400   18.5510 H   0  0  0  0  0  0  0  0  0  0  0  0
  -30.5390  -20.3270   20.2250 C   0  0  0  0  0  2  0  0  0  0  0  0
  -29.9890  -18.9310   19.8620 C   0  0  0  0  0  2  0  0  0  0  0  0
  -30.4330  -17.8850   20.8070 N   0  0  0  0  0  4  0  0  0  0  0  0
  -31.3880  -17.6510   20.5850 H   0  0  0  0  0  0  0  0  0  0  0  0
  -30.4140  -18.2660   21.7390 H   0  0  0  0  0  0  0  0  0  0  0  0
  -29.5930  -16.6630   20.7770 C   0  0  0  0  0  2  0  0  0  0  0  0
  -30.2190  -15.4600   21.5250 C   0  0  0  0  0  2  0  0  0  0  0  0
  -30.7020  -14.3710   20.5520 C   0  0  0  0  0  0  0  0  0  0  0  0
  -30.3370  -12.2910   19.2740 C   0  0  0  0  0  2  0  0  0  0  0  0
  -29.3750  -12.5420   18.0960 C   0  0  0  0  0  2  0  0  0  0  0  0
  -27.9070  -12.3970   18.5420 C   0  0  0  0  0  2  0  0  0  0  0  0
  -27.5990  -13.1960   19.8370 C   0  0  0  0  0  3  0  0  0  0  0  0
  -28.6660  -12.9140   20.9150 C   0  0  0  0  0  2  0  0  0  0  0  0
  -29.9900  -13.2290   20.3530 N   0  0  0  0  0  0  0  0  0  0  0  0
  -31.7400  -14.6170   19.9300 O   0  0  0  0  0  0  0  0  0  0  0  0
  -25.2060  -13.7990   20.5780 C   0  0  0  0  0  0  0  0  0  0  0  0
  -24.1430  -13.0240   20.9560 C   0  0  0  0  0  0  0  0  0  0  0  0
  -24.6030  -11.6730   20.9040 C   0  0  0  0  0  0  0  0  0  0  0  0
  -26.2480  -12.9200   20.3260 N   0  0  0  0  0  0  0  0  0  0  0  0
  -25.8880  -11.6360   20.5760 N   0  0  0  0  0  0  0  0  0  0  0  0
  -23.8800  -10.4090   21.0930 C   0  0  0  0  0  0  0  0  0  0  0  0
  -24.3370   -9.4260   21.9990 C   0  0  0  0  0  3  0  0  0  0  0  0
  -23.6140   -8.2260   22.1750 C   0  0  0  0  0  3  0  0  0  0  0  0
  -22.4220   -8.0000   21.4470 C   0  0  0  0  0  0  0  0  0  0  0  0
  -21.9850   -8.9730   20.5300 C   0  0  0  0  0  3  0  0  0  0  0  0
  -22.7070  -10.1640   20.3510 C   0  0  0  0  0  3  0  0  0  0  0  0
  -21.6690   -6.8550   21.5340 O   0  0  0  0  0  0  0  0  0  0  0  0
  -21.6630   -6.0830   22.6680 C   0  0  0  0  0  0  0  0  0  0  0  0
  -21.2920   -6.6070   23.9250 C   0  0  0  0  0  3  0  0  0  0  0  0
  -21.2330   -5.7610   25.0520 C   0  0  0  0  0  3  0  0  0  0  0  0
  -21.5350   -4.3930   24.9210 C   0  0  0  0  0  0  0  0  0  0  0  0
  -21.8990   -3.8680   23.6690 C   0  0  0  0  0  3  0  0  0  0  0  0
  -21.9600   -4.7100   22.5450 C   0  0  0  0  0  0  0  0  0  0  0  0
  -22.2910   -4.1950   21.3370 F   0  0  0  0  0  0  0  0  0  0  0  0
  -21.4710   -3.5790   26.0010 F   0  0  0  0  0  0  0  0  0  0  0  0
  -22.7490  -13.4980   21.2550 C   0  0  0  0  0  0  0  0  0  0  0  0
  -22.0320  -12.7900   22.1190 N   0  0  0  0  0  0  0  0  0  0  0  0
  -22.3050  -14.5330   20.7570 O   0  0  0  0  0  0  0  0  0  0  0  0
  -22.4030  -11.9530   22.5450 H   0  0  0  0  0  0  0  0  0  0  0  0
  -21.0980  -13.0890   22.3600 H   0  0  0  0  0  0  0  0  0  0  0  0
  -25.3670  -15.1720   20.4100 N   0  0  0  0  0  0  0  0  0  0  0  0
  -24.5970  -15.8210   20.5280 H   0  0  0  0  0  0  0  0  0  0  0  0
  -26.2020  -15.6110   20.0450 H   0  0  0  0  0  0  0  0  0  0  0  0
  1  5  1  0
  1  8  2  0
  2  5  1  0
  3  2  1  0
  4 52  1  0
  4  1  1  0
  5 11  1  0
  5  6  1  1
  7  3  1  0
  7  4  1  0
  9  7  1  0
 10  7  1  0
 11 13  1  0
 12 23  2  0
 13 18  1  0
 14 22  1  0
 14 24  1  0
 15 21  1  0
 15 17  1  0
 16 22  1  0
 17 16  1  0
 18 17  2  0
 19 20  1  0
 19 13  2  0
 20 15  2  0
 21 14  1  0
 22 12  1  0
 24 26  2  0
 25 24  1  0
 27 25  1  0
 28 37  2  0
 28 33  1  0
 29 25  1  0
 29 33  1  0
 30 29  1  0
 31 32  1  0
 31 30  1  0
 32 28  1  0
 33 34  2  0
 34 35  1  0
 36 35  2  0
 37 36  1  0
 38 12  1  0
 38 39  1  0
 38 48  1  0
 39 42  1  0
 40 44  1  0
 40 39  1  0
 41 40  2  0
 44 43  1  0
 46 44  1  0
 46 47  1  0
 46 45  1  0
 48 51  1  1
 48 49  1  0
 50 48  1  0
 52 53  1  0
 54 53  1  0
 54 56  1  0
 55 54  1  0
 57 56  1  0
 57 58  1  0
 58 60  1  0
 59 58  1  0
 61 58  1  0
 61 62  1  0
 63 62  1  0
 64 69  1  0
 65 66  1  0
 65 64  1  0
 67 66  1  0
 67 74  1  0
 67 68  1  0
 69 63  1  0
 69 68  1  0
 70 63  2  0
 71 72  2  0
 72 91  1  0
 73 72  1  0
 73 76  1  0
 74 75  1  0
 74 71  1  0
 75 73  2  0
 76 77  1  0
 77 78  2  0
 79 82  1  0
 79 78  1  0
 80 79  2  0
 81 80  1  0
 81 76  2  0
 82 83  1  0
 83 84  1  0
 84 85  2  0
 86 85  1  0
 86 90  1  0
 87 86  2  0
 88 83  2  0
 88 87  1  0
 89 88  1  0
 91 92  1  0
 92 95  1  0
 92 94  1  0
 93 91  2  0
 96 97  1  0
 96 71  1  0
 98 96  1  0
M  ISO  4   5 101  11 101  62 100  63 100
M  END
>  <TORSDO>  (12) 
F 24

>  <SCORE>  (12) 
-12.331

>  <name>  (12) 
11

>  <ligand_id>  (12) 
11

>  <original_smiles>  (12) 
[H]c1c([H])c([H])c2c(c1[H])C([H])([H])C([H])([H])C([H])([H])C2([H])N([H])C(=O)C1([H])N(C(=O)C([H])(N([H])C(=O)C([H])(N([H])C([H])([H])[H])C([H])([H])[H])C(C([H])([H])[H])(C([H])([H])[H])C([H])([H])[H])C([H])([H])c2c([H])c(OC3(C([H])([H])[H])C(=O)C([H])(C([H])([H])C([H])([H])N([H])C([H])([H])C([H])([H])[N+]([H])([H])C([H])([H])C([H])([H])C(=O)N4C([H])([H])C([H])([H])C([H])([H])C([H])(n5nc(-c6c([H])c([H])c(Oc7c([H])c([H])c(F)c([H])c7F)c([H])c6[H])c(C(=O)N([H])[H])c5N([H])[H])C4([H])[H])[N+]([H])([H])C([H])([H])C3([H])[H])c([H])c([H])c2C1([H])[H]

>  <smiles>  (12) 
[H]c1c([H])c([H])c2c(c1[H])C([H])([H])C([H])([H])C([H])([H])C2([H])N([H])C(=O)C1([H])N(C(=O)C([H])(N([H])C(=O)C([H])(N([H])C([H])([H])[H])C([H])([H])[H])C(C([H])([H])[H])(C([H])([H])[H])C([H])([H])[H])C([H])([H])c2c([H])c(OC3(C([H])([H])[H])C(=O)C([H])(C([H])([H])C([H])([H])N([H])C([H])([H])C([H])([H])[N+]([H])([H])C([H])([H])C([H])([H])C(=O)N4C([H])([H])C([H])([H])C([H])([H])C([H])(n5nc(-c6c([H])c([H])c(Oc7c([H])c([H])c(F)c([H])c7F)c([H])c6[H])c(C(=O)N([H])[H])c5N([H])[H])C4([H])[H])[N+]([H])([H])C([H])([H])C3([H])[H])c([H])c([H])c2C1([H])[H]

$$$$
12:0:0
     RDKit          3D

 98106  0  0  1  0  0  0  0  0999 V2000
  -29.3560  -20.5520   19.5100 C   0  0  0  0  0  3  0  0  0  0  0  0
  -29.6760  -21.1190   22.2310 C   0  0  0  0  0  3  0  0  0  0  0  0
  -30.2660  -19.7960   20.2670 C   0  0  0  0  0  0  0  0  0  0  0  0
  -28.6300  -21.6120   20.0820 C   0  0  0  0  0  0  0  0  0  0  0  0
  -30.4040  -20.0550   21.6530 C   0  0  0  0  0  0  0  0  0  0  0  0
  -28.8160  -21.9290   21.4570 C   0  0  0  0  0  0  0  0  0  0  0  0
  -31.0790  -18.7320   19.5490 C   0  0  0  0  0  1  0  0  0  0  0  0
  -27.7130  -22.3810   19.1480 C   0  0  0  0  0  1  0  0  0  0  0  0
  -31.2930  -19.1960   22.5430 C   0  0  0  0  0  2  0  0  0  0  0  0
  -30.5150  -18.0450   23.0340 N   0  0  0  0  0  4  0  0  0  0  0  0
  -29.7100  -17.9300   22.4400 H   0  0  0  0  0  0  0  0  0  0  0  0
  -30.1740  -18.2920   23.9480 H   0  0  0  0  0  0  0  0  0  0  0  0
  -31.2590  -16.7680   23.1490 C   0  0  0  0  0  2  0  0  0  0  0  0
  -31.4850  -16.0600   21.7970 C   0  0  0  0  0  2  0  0  0  0  0  0
  -30.2320  -15.3220   21.2720 C   0  0  0  0  0  2  0  0  0  0  0  0
  -30.4990  -14.4540   20.0340 C   0  0  0  0  0  0  0  0  0  0  0  0
  -30.0320  -12.4140   18.7180 C   0  0  0  0  0  2  0  0  0  0  0  0
  -28.9810  -12.6460   17.6220 C   0  0  0  0  0  2  0  0  0  0  0  0
  -27.5570  -12.4680   18.1820 C   0  0  0  0  0  2  0  0  0  0  0  0
  -27.3290  -13.2730   19.4870 C   0  0  0  0  0  3  0  0  0  0  0  0
  -28.4750  -13.0240   20.4900 C   0  0  0  0  0  2  0  0  0  0  0  0
  -29.7550  -13.3380   19.8280 N   0  0  0  0  0  0  0  0  0  0  0  0
  -31.4160  -14.7870   19.2740 O   0  0  0  0  0  0  0  0  0  0  0  0
  -24.9770  -13.8320   20.3810 C   0  0  0  0  0  0  0  0  0  0  0  0
  -23.9600  -13.0390   20.8440 C   0  0  0  0  0  0  0  0  0  0  0  0
  -24.4510  -11.6980   20.7850 C   0  0  0  0  0  0  0  0  0  0  0  0
  -26.0230  -12.9750   20.0750 N   0  0  0  0  0  0  0  0  0  0  0  0
  -25.7120  -11.6860   20.3730 N   0  0  0  0  0  0  0  0  0  0  0  0
  -23.7740  -10.4210   21.0440 C   0  0  0  0  0  0  0  0  0  0  0  0
  -24.2740   -9.4990   21.9900 C   0  0  0  0  0  3  0  0  0  0  0  0
  -23.5960   -8.2840   22.2340 C   0  0  0  0  0  3  0  0  0  0  0  0
  -22.4050   -7.9840   21.5320 C   0  0  0  0  0  0  0  0  0  0  0  0
  -21.9240   -8.8940   20.5740 C   0  0  0  0  0  3  0  0  0  0  0  0
  -22.6030  -10.1000   20.3290 C   0  0  0  0  0  3  0  0  0  0  0  0
  -21.6940   -6.8170   21.6840 O   0  0  0  0  0  0  0  0  0  0  0  0
  -21.6780   -6.1340   22.8740 C   0  0  0  0  0  0  0  0  0  0  0  0
  -21.2430   -6.7380   24.0730 C   0  0  0  0  0  3  0  0  0  0  0  0
  -21.1760   -5.9790   25.2600 C   0  0  0  0  0  3  0  0  0  0  0  0
  -21.5340   -4.6170   25.2470 C   0  0  0  0  0  0  0  0  0  0  0  0
  -21.9620   -4.0140   24.0510 C   0  0  0  0  0  3  0  0  0  0  0  0
  -22.0310   -4.7690   22.8690 C   0  0  0  0  0  0  0  0  0  0  0  0
  -22.4240   -4.1760   21.7150 F   0  0  0  0  0  0  0  0  0  0  0  0
  -21.4620   -3.8880   26.3830 F   0  0  0  0  0  0  0  0  0  0  0  0
  -22.5780  -13.4840   21.2260 C   0  0  0  0  0  0  0  0  0  0  0  0
  -21.9440  -12.7840   22.1620 N   0  0  0  0  0  0  0  0  0  0  0  0
  -22.0680  -14.4870   20.7280 O   0  0  0  0  0  0  0  0  0  0  0  0
  -22.3690  -11.9740   22.5860 H   0  0  0  0  0  0  0  0  0  0  0  0
  -21.0200  -13.0650   22.4580 H   0  0  0  0  0  0  0  0  0  0  0  0
  -25.0930  -15.2060   20.1800 N   0  0  0  0  0  0  0  0  0  0  0  0
  -24.3230  -15.8460   20.3390 H   0  0  0  0  0  0  0  0  0  0  0  0
  -25.9050  -15.6550   19.7770 H   0  0  0  0  0  0  0  0  0  0  0  0
  -28.1490  -23.1280   22.1380 C   0  0  0  0  0  2  0  0  0  0  0  0
  -29.0530  -24.3020   22.2490 N   0  0  0  0  0  4  0  0  0  0  0  0
  -29.8290  -24.0180   22.8250 H   0  0  0  0  0  0  0  0  0  0  0  0
  -28.5640  -25.0250   22.7540 H   0  0  0  0  0  0  0  0  0  0  0  0
  -29.6100  -24.8680   20.9910 C   0  0  0  0  0  2  0  0  0  0  0  0
  -28.5540  -25.4780   20.0490 C   0  0  0  0  0  2  0  0  0  0  0  0
  -28.5570  -26.8940   20.1730 O   0  0  0  0  0  0  0  0  0  0  0  0
  -24.6270  -31.8870   23.2290 C   0  0  0  0  0  0  0  0  0  0  0  0
  -27.3500  -27.5510   20.1150 C   0  0  0  0  0  0  0  0  0  0  0  0
  -23.4420  -30.4890   21.5660 C   0  0  0  0  0  3  0  0  0  0  0  0
  -24.9210  -28.9930   20.1220 C   0  0  0  0  0  0  0  0  0  0  0  0
  -25.9560  -30.9010   21.3650 C   0  0  0  0  0  2  0  0  0  0  0  0
  -26.0630  -29.5390   20.7210 C   0  0  0  0  0  0  0  0  0  0  0  0
  -27.2770  -28.8240   20.7160 C   0  0  0  0  0  3  0  0  0  0  0  0
  -26.1970  -27.0250   19.4820 C   0  0  0  0  0  3  0  0  0  0  0  0
  -24.9820  -27.7350   19.4950 C   0  0  0  0  0  3  0  0  0  0  0  0
  -23.6580  -29.8220   20.1810 C   0  0  0  0  0  2  0  0  0  0  0  0
  -24.6940  -31.1040   22.1140 N   0  0  0  0  0  0  0  0  0  0  0  0
  -23.5420  -32.1320   23.7730 O   0  0  0  0  0  0  0  0  0  0  0  0
  -22.8080  -29.4430   22.5090 C   0  0  0  0  0  0  0  0  0  0  0  0
  -21.4840  -29.2560   22.3850 N   0  0  0  0  0  0  0  0  0  0  0  0
  -23.5010  -28.8010   23.3040 O   0  0  0  0  0  0  0  0  0  0  0  0
  -20.9850  -29.8230   21.7160 H   0  0  0  0  0  0  0  0  0  0  0  0
  -18.1150  -28.0580   22.8980 C   0  0  0  0  0  0  0  0  0  0  0  0
  -20.6780  -28.2980   23.1400 C   0  0  0  0  0  3  0  0  0  0  0  0
  -20.7670  -26.8840   22.5200 C   0  0  0  0  0  2  0  0  0  0  0  0
  -19.6490  -26.5950   21.5130 C   0  0  0  0  0  2  0  0  0  0  0  0
  -18.2770  -26.7260   22.1820 C   0  0  0  0  0  2  0  0  0  0  0  0
  -19.2430  -28.8020   23.3340 C   0  0  0  0  0  0  0  0  0  0  0  0
  -19.0420  -30.0500   23.9620 C   0  0  0  0  0  3  0  0  0  0  0  0
  -17.7420  -30.5550   24.1590 C   0  0  0  0  0  3  0  0  0  0  0  0
  -16.6280  -29.8050   23.7410 C   0  0  0  0  0  3  0  0  0  0  0  0
  -16.8160  -28.5580   23.1190 C   0  0  0  0  0  3  0  0  0  0  0  0
  -25.9020  -32.5260   23.8630 C   0  0  0  0  0  3  0  0  0  0  0  0
  -26.4200  -31.7490   25.1340 C   0  0  1  0  0  0  0  0  0  0  0  0
  -25.3260  -31.4950   26.1950 C   0  0  0  0  0  1  0  0  0  0  0  0
  -27.0160  -30.3810   24.7260 C   0  0  0  0  0  1  0  0  0  0  0  0
  -27.5590  -32.5490   25.8110 C   0  0  0  0  0  1  0  0  0  0  0  0
  -25.5760  -33.9180   24.2000 N   0  0  0  0  0  0  0  0  0  0  0  0
  -25.8890  -34.9770   23.4410 C   0  0  0  0  0  0  0  0  0  0  0  0
  -26.5570  -34.8870   22.4060 O   0  0  0  0  0  0  0  0  0  0  0  0
  -24.9940  -34.0630   25.0110 H   0  0  0  0  0  0  0  0  0  0  0  0
  -24.1270  -36.7380   23.1070 C   0  0  0  0  0  1  0  0  0  0  0  0
  -25.3840  -36.3570   23.9060 C   0  0  0  0  0  3  0  0  0  0  0  0
  -27.5130  -37.2760   24.7130 C   0  0  0  0  0  1  0  0  0  0  0  0
  -26.3980  -37.4280   23.7830 N   0  0  0  0  0  0  0  0  0  0  0  0
  -25.9780  -38.3400   23.9380 H   0  0  0  0  0  0  0  0  0  0  0  0
  1  4  2  0
  1  3  1  0
  3  5  2  0
  4  6  1  0
  5  2  1  0
  5  9  1  0
  6 52  1  0
  6  2  2  0
  7  3  1  0
  8  4  1  0
  9 10  1  0
 10 13  1  0
 10 12  1  0
 11 10  1  0
 14 13  1  0
 15 14  1  0
 16 15  1  0
 17 22  1  0
 18 19  1  0
 18 17  1  0
 20 19  1  0
 20 27  1  0
 20 21  1  0
 22 16  1  0
 22 21  1  0
 23 16  2  0
 24 25  2  0
 25 44  1  0
 26 25  1  0
 26 29  1  0
 27 28  1  0
 27 24  1  0
 28 26  2  0
 29 30  1  0
 30 31  2  0
 32 35  1  0
 32 31  1  0
 33 32  2  0
 34 33  1  0
 34 29  2  0
 35 36  1  0
 36 37  1  0
 37 38  2  0
 39 38  1  0
 39 43  1  0
 40 39  2  0
 41 36  2  0
 41 40  1  0
 42 41  1  0
 44 45  1  0
 45 48  1  0
 45 47  1  0
 46 44  2  0
 49 50  1  0
 49 24  1  0
 51 49  1  0
 52 53  1  0
 53 55  1  0
 53 54  1  0
 56 53  1  0
 57 58  1  0
 57 56  1  0
 59 70  2  0
 60 58  1  0
 60 65  1  0
 61 69  1  0
 61 71  1  0
 62 68  1  0
 62 64  1  0
 63 69  1  0
 64 63  1  0
 65 64  2  0
 66 67  1  0
 66 60  2  0
 67 62  2  0
 68 61  1  0
 69 59  1  0
 71 73  2  0
 72 71  1  0
 74 72  1  0
 75 84  2  0
 75 80  1  0
 76 72  1  0
 76 80  1  0
 77 76  1  0
 78 79  1  0
 78 77  1  0
 79 75  1  0
 80 81  2  0
 81 82  1  0
 83 82  2  0
 84 83  1  0
 85 59  1  0
 85 90  1  0
 85 86  1  0
 86 89  1  1
 86 87  1  0
 88 86  1  0
 90 93  1  0
 91 95  1  0
 91 90  1  0
 92 91  2  0
 95 94  1  0
 97 95  1  0
 97 98  1  0
 97 96  1  0
M  ISO  4  15 100  16 100  57 101  58 101
M  END
>  <TORSDO>  (13) 
F 25

>  <SCORE>  (13) 
-10.819

>  <name>  (13) 
12

>  <ligand_id>  (13) 
12

>  <original_smiles>  (13) 
[H]c1c([H])c([H])c2c(c1[H])C([H])([H])C([H])([H])C([H])([H])C2([H])N([H])C(=O)C1([H])N(C(=O)C([H])(N([H])C(=O)C([H])(N([H])C([H])([H])[H])C([H])([H])[H])C(C([H])([H])[H])(C([H])([H])[H])C([H])([H])[H])C([H])([H])c2c([H])c(OC([H])([H])C([H])([H])[N+]([H])([H])C([H])([H])c3c([H])c(C([H])([H])[N+]([H])([H])C([H])([H])C([H])([H])C([H])([H])C(=O)N4C([H])([H])C([H])([H])C([H])([H])C([H])(n5nc(-c6c([H])c([H])c(Oc7c([H])c([H])c(F)c([H])c7F)c([H])c6[H])c(C(=O)N([H])[H])c5N([H])[H])C4([H])[H])c(C([H])([H])[H])c([H])c3C([H])([H])[H])c([H])c([H])c2C1([H])[H]

>  <smiles>  (13) 
[H]c1c([H])c([H])c2c(c1[H])C([H])([H])C([H])([H])C([H])([H])C2([H])N([H])C(=O)C1([H])N(C(=O)C([H])(N([H])C(=O)C([H])(N([H])C([H])([H])[H])C([H])([H])[H])C(C([H])([H])[H])(C([H])([H])[H])C([H])([H])[H])C([H])([H])c2c([H])c(OC([H])([H])C([H])([H])[N+]([H])([H])C([H])([H])c3c([H])c(C([H])([H])[N+]([H])([H])C([H])([H])C([H])([H])C([H])([H])C(=O)N4C([H])([H])C([H])([H])C([H])([H])C([H])(n5nc(-c6c([H])c([H])c(Oc7c([H])c([H])c(F)c([H])c7F)c([H])c6[H])c(C(=O)N([H])[H])c5N([H])[H])C4([H])[H])c(C([H])([H])[H])c([H])c3C([H])([H])[H])c([H])c([H])c2C1([H])[H]

$$$$
13:0:0
     RDKit          3D

 96104  0  0  1  0  0  0  0  0999 V2000
  -29.2190  -23.5740   20.0350 C   0  0  0  0  0  2  0  0  0  0  0  0
  -26.7520  -22.6440   21.3670 C   0  0  0  0  0  2  0  0  0  0  0  0
  -28.9320  -22.3380   19.1680 C   0  0  0  0  0  2  0  0  0  0  0  0
  -26.9040  -21.4170   20.4460 C   0  0  0  0  0  2  0  0  0  0  0  0
  -28.0600  -24.5910   20.1550 C   0  0  0  0  0  3  0  0  0  0  0  0
  -26.6750  -23.9960   20.6150 C   0  0  0  0  0  3  0  0  0  0  0  0
  -28.3350  -21.1540   19.9540 C   0  0  0  0  0  3  0  0  0  0  0  0
  -28.3730  -19.9310   19.1230 N   0  0  0  0  0  4  0  0  0  0  0  0
  -28.2860  -20.2040   18.1570 H   0  0  0  0  0  0  0  0  0  0  0  0
  -27.5770  -19.3510   19.3350 H   0  0  0  0  0  0  0  0  0  0  0  0
  -29.5990  -19.1160   19.2770 C   0  0  0  0  0  2  0  0  0  0  0  0
  -29.3830  -17.9290   20.2330 C   0  0  0  0  0  2  0  0  0  0  0  0
  -30.7000  -17.2300   20.6240 C   0  0  0  0  0  2  0  0  0  0  0  0
  -31.0840  -14.7860   20.5040 C   0  0  0  0  0  0  0  0  0  0  0  0
  -30.7030  -12.6000   19.4440 C   0  0  0  0  0  2  0  0  0  0  0  0
  -29.8460  -12.7670   18.1640 C   0  0  0  0  0  2  0  0  0  0  0  0
  -28.3610  -13.0990   18.4420 C   0  0  0  0  0  2  0  0  0  0  0  0
  -28.0110  -13.0440   19.9300 C   0  0  0  0  0  3  0  0  0  0  0  0
  -29.0030  -13.4950   21.0000 C   0  0  0  0  0  2  0  0  0  0  0  0
  -30.3440  -13.6560   20.4090 N   0  0  0  0  0  0  0  0  0  0  0  0
  -32.2020  -14.9090   20.0050 O   0  0  0  0  0  0  0  0  0  0  0  0
  -30.4390  -15.8440   21.0080 N   0  0  0  0  0  0  0  0  0  0  0  0
  -29.5530  -15.6470   21.4460 H   0  0  0  0  0  0  0  0  0  0  0  0
  -25.6130  -14.0740   20.4480 C   0  0  0  0  0  0  0  0  0  0  0  0
  -24.4800  -13.3740   20.7990 C   0  0  0  0  0  0  0  0  0  0  0  0
  -24.8580  -12.0000   20.8100 C   0  0  0  0  0  0  0  0  0  0  0  0
  -26.6020  -13.0960   20.2900 N   0  0  0  0  0  0  0  0  0  0  0  0
  -26.1240  -11.8710   20.5410 N   0  0  0  0  0  0  0  0  0  0  0  0
  -24.1220  -10.7620   20.9980 C   0  0  0  0  0  0  0  0  0  0  0  0
  -24.5300   -9.8180   21.9670 C   0  0  0  0  0  3  0  0  0  0  0  0
  -23.8160   -8.6150   22.1240 C   0  0  0  0  0  3  0  0  0  0  0  0
  -22.6850   -8.3570   21.3140 C   0  0  0  0  0  0  0  0  0  0  0  0
  -22.3070   -9.2890   20.3340 C   0  0  0  0  0  3  0  0  0  0  0  0
  -23.0240  -10.4830   20.1700 C   0  0  0  0  0  3  0  0  0  0  0  0
  -21.9380   -7.2100   21.3880 O   0  0  0  0  0  0  0  0  0  0  0  0
  -21.8090   -6.5130   22.5600 C   0  0  0  0  0  0  0  0  0  0  0  0
  -21.2620   -7.0990   23.7210 C   0  0  0  0  0  3  0  0  0  0  0  0
  -21.0880   -6.3230   24.8830 C   0  0  0  0  0  3  0  0  0  0  0  0
  -21.4490   -4.9610   24.8840 C   0  0  0  0  0  0  0  0  0  0  0  0
  -21.9910   -4.3780   23.7260 C   0  0  0  0  0  3  0  0  0  0  0  0
  -22.1690   -5.1510   22.5660 C   0  0  0  0  0  0  0  0  0  0  0  0
  -22.6740   -4.5810   21.4440 F   0  0  0  0  0  0  0  0  0  0  0  0
  -21.2770   -4.2120   25.9970 F   0  0  0  0  0  0  0  0  0  0  0  0
  -23.0940  -13.9010   21.0380 C   0  0  0  0  0  0  0  0  0  0  0  0
  -22.3230  -13.2210   21.8820 N   0  0  0  0  0  0  0  0  0  0  0  0
  -22.6940  -14.9330   20.5020 O   0  0  0  0  0  0  0  0  0  0  0  0
  -22.6510  -12.3800   22.3350 H   0  0  0  0  0  0  0  0  0  0  0  0
  -21.3860  -13.5450   22.0760 H   0  0  0  0  0  0  0  0  0  0  0  0
  -25.8670  -15.4290   20.2540 N   0  0  0  0  0  0  0  0  0  0  0  0
  -26.7660  -15.7940   19.9680 H   0  0  0  0  0  0  0  0  0  0  0  0
  -25.1500  -16.1410   20.3390 H   0  0  0  0  0  0  0  0  0  0  0  0
  -28.5820  -25.8740   20.8670 C   0  0  0  0  0  2  0  0  0  0  0  0
  -28.5880  -27.0070   19.9930 O   0  0  0  0  0  0  0  0  0  0  0  0
  -24.6810  -31.9020   23.3310 C   0  0  0  0  0  0  0  0  0  0  0  0
  -27.4270  -27.7360   19.9970 C   0  0  0  0  0  0  0  0  0  0  0  0
  -23.5260  -30.6170   21.5610 C   0  0  0  0  0  3  0  0  0  0  0  0
  -25.0270  -29.2090   20.0560 C   0  0  0  0  0  0  0  0  0  0  0  0
  -26.0500  -31.0080   21.4560 C   0  0  0  0  0  2  0  0  0  0  0  0
  -26.1620  -29.6910   20.7210 C   0  0  0  0  0  0  0  0  0  0  0  0
  -27.3670  -28.9570   20.6970 C   0  0  0  0  0  3  0  0  0  0  0  0
  -26.2910  -27.2860   19.2920 C   0  0  0  0  0  3  0  0  0  0  0  0
  -25.0840  -28.0030   19.3400 C   0  0  0  0  0  3  0  0  0  0  0  0
  -23.7720  -30.0450   20.1390 C   0  0  0  0  0  2  0  0  0  0  0  0
  -24.7690  -31.1840   22.1750 N   0  0  0  0  0  0  0  0  0  0  0  0
  -23.5870  -32.1260   23.8620 O   0  0  0  0  0  0  0  0  0  0  0  0
  -22.8590  -29.5210   22.4240 C   0  0  0  0  0  0  0  0  0  0  0  0
  -21.5350  -29.3620   22.2670 N   0  0  0  0  0  0  0  0  0  0  0  0
  -23.5290  -28.8250   23.1910 O   0  0  0  0  0  0  0  0  0  0  0  0
  -21.0580  -29.9780   21.6240 H   0  0  0  0  0  0  0  0  0  0  0  0
  -18.1320  -28.2320   22.7020 C   0  0  0  0  0  0  0  0  0  0  0  0
  -20.7020  -28.3710   22.9480 C   0  0  0  0  0  3  0  0  0  0  0  0
  -20.7450  -27.0110   22.2140 C   0  0  0  0  0  2  0  0  0  0  0  0
  -19.6140  -26.8410   21.1950 C   0  0  0  0  0  2  0  0  0  0  0  0
  -18.2490  -26.9590   21.8790 C   0  0  0  0  0  2  0  0  0  0  0  0
  -19.2840  -28.9030   23.1910 C   0  0  0  0  0  0  0  0  0  0  0  0
  -19.1200  -30.1020   23.9190 C   0  0  0  0  0  3  0  0  0  0  0  0
  -17.8380  -30.6280   24.1620 C   0  0  0  0  0  3  0  0  0  0  0  0
  -16.7010  -29.9490   23.6920 C   0  0  0  0  0  3  0  0  0  0  0  0
  -16.8480  -28.7520   22.9680 C   0  0  0  0  0  3  0  0  0  0  0  0
  -25.9500  -32.4870   24.0270 C   0  0  0  0  0  3  0  0  0  0  0  0
  -25.6700  -33.8930   24.3400 N   0  0  0  0  0  0  0  0  0  0  0  0
  -26.0610  -34.9300   23.5860 C   0  0  0  0  0  0  0  0  0  0  0  0
  -26.7640  -34.8000   22.5800 O   0  0  0  0  0  0  0  0  0  0  0  0
  -25.0500  -34.0720   25.1160 H   0  0  0  0  0  0  0  0  0  0  0  0
  -24.3820  -36.7560   23.1680 C   0  0  0  0  0  1  0  0  0  0  0  0
  -25.5960  -36.3340   24.0140 C   0  0  0  0  0  3  0  0  0  0  0  0
  -27.7260  -37.1860   24.8900 C   0  0  0  0  0  1  0  0  0  0  0  0
  -26.6560  -37.3610   23.9100 N   0  0  0  0  0  0  0  0  0  0  0  0
  -26.2690  -38.2930   24.0300 H   0  0  0  0  0  0  0  0  0  0  0  0
  -26.3670  -31.6960   25.3270 C   0  0  1  0  0  0  0  0  0  0  0  0
  -25.2050  -31.4870   26.3250 C   0  0  0  0  0  1  0  0  0  0  0  0
  -26.9320  -30.3040   24.9600 C   0  0  0  0  0  1  0  0  0  0  0  0
  -27.5010  -32.4520   26.0590 C   0  0  0  0  0  1  0  0  0  0  0  0
  -25.6630  -24.9480   21.3300 C   0  0  0  0  0  2  0  0  0  0  0  0
  -23.5600  -24.0380   20.6300 C   0  0  0  0  0  1  0  0  0  0  0  0
  -24.4710  -25.1250   20.5690 O   0  0  0  0  0  0  0  0  0  0  0  0
  1  5  1  0
  3  7  1  0
  3  1  1  0
  4  2  1  0
  5  6  1  0
  5 52  1  0
  6 94  1  0
  6  2  1  0
  7  8  1  0
  7  4  1  0
  8 11  1  0
  8 10  1  0
  9  8  1  0
 11 12  1  0
 12 13  1  0
 13 22  1  0
 14 22  1  0
 15 20  1  0
 16 17  1  0
 16 15  1  0
 18 17  1  0
 18 27  1  0
 18 19  1  0
 20 14  1  0
 20 19  1  0
 21 14  2  0
 22 23  1  0
 24 25  2  0
 25 26  1  0
 25 44  1  0
 26 29  1  0
 27 24  1  0
 27 28  1  0
 28 26  2  0
 29 30  1  0
 30 31  2  0
 32 35  1  0
 32 31  1  0
 33 32  2  0
 34 33  1  0
 34 29  2  0
 35 36  1  0
 36 41  2  0
 36 37  1  0
 37 38  2  0
 38 39  1  0
 39 43  1  0
 40 39  2  0
 41 40  1  0
 42 41  1  0
 44 45  1  0
 45 48  1  0
 45 47  1  0
 46 44  2  0
 49 51  1  0
 49 24  1  0
 50 49  1  0
 53 55  1  0
 53 52  1  0
 54 65  2  0
 55 60  1  0
 56 64  1  0
 56 66  1  0
 57 63  1  0
 57 59  1  0
 58 64  1  0
 59 58  1  0
 60 59  2  0
 61 62  1  0
 61 55  2  0
 62 57  2  0
 63 56  1  0
 64 54  1  0
 66 68  2  0
 67 66  1  0
 69 67  1  0
 70 79  2  0
 70 75  1  0
 71 67  1  0
 71 75  1  0
 72 71  1  0
 73 74  1  0
 73 72  1  0
 74 70  1  0
 75 76  2  0
 76 77  1  0
 78 77  2  0
 79 78  1  0
 80 54  1  0
 80 81  1  0
 80 90  1  0
 81 84  1  0
 82 86  1  0
 82 81  1  0
 83 82  2  0
 86 85  1  0
 88 86  1  0
 88 89  1  0
 88 87  1  0
 90 93  1  1
 90 91  1  0
 92 90  1  0
 96 95  1  0
 96 94  1  0
M  ISO  4  14 100  22 100  52 101  53 101
M  END
>  <TORSDO>  (14) 
F 23

>  <SCORE>  (14) 
-11.950

>  <name>  (14) 
13

>  <ligand_id>  (14) 
13

>  <original_smiles>  (14) 
[H]c1c([H])c([H])c2c(c1[H])C([H])([H])C([H])([H])C([H])([H])C2([H])N([H])C(=O)C1([H])N(C(=O)C([H])(N([H])C(=O)C([H])(N([H])C([H])([H])[H])C([H])([H])[H])C(C([H])([H])[H])(C([H])([H])[H])C([H])([H])[H])C([H])([H])c2c([H])c(OC([H])([H])C3([H])C([H])([H])C([H])([H])C([H])([N+]([H])([H])C([H])([H])C([H])([H])C([H])([H])N([H])C(=O)N4C([H])([H])C([H])([H])C([H])([H])C([H])(n5nc(-c6c([H])c([H])c(Oc7c([H])c([H])c(F)c([H])c7F)c([H])c6[H])c(C(=O)N([H])[H])c5N([H])[H])C4([H])[H])C([H])([H])C([H])([H])C3([H])C([H])([H])OC([H])([H])[H])c([H])c([H])c2C1([H])[H]

>  <smiles>  (14) 
[H]c1c([H])c([H])c2c(c1[H])C([H])([H])C([H])([H])C([H])([H])C2([H])N([H])C(=O)C1([H])N(C(=O)C([H])(N([H])C(=O)C([H])(N([H])C([H])([H])[H])C([H])([H])[H])C(C([H])([H])[H])(C([H])([H])[H])C([H])([H])[H])C([H])([H])c2c([H])c(OC([H])([H])C3([H])C([H])([H])C([H])([H])C([H])([N+]([H])([H])C([H])([H])C([H])([H])C([H])([H])N([H])C(=O)N4C([H])([H])C([H])([H])C([H])([H])C([H])(n5nc(-c6c([H])c([H])c(Oc7c([H])c([H])c(F)c([H])c7F)c([H])c6[H])c(C(=O)N([H])[H])c5N([H])[H])C4([H])[H])C([H])([H])C([H])([H])C3([H])C([H])([H])OC([H])([H])[H])c([H])c([H])c2C1([H])[H]

$$$$
14:0:0
     RDKit          3D

 94102  0  0  1  0  0  0  0  0999 V2000
  -29.0540  -23.1480   17.7740 C   0  0  0  0  0  0  0  0  0  0  0  0
  -28.9990  -21.6560   17.5090 C   0  0  0  0  0  2  0  0  0  0  0  0
  -29.7890  -22.1390   19.7230 C   0  0  0  0  0  2  0  0  0  0  0  0
  -29.9110  -21.0650   18.6080 C   0  0  1  0  0  0  0  0  0  0  0  0
  -29.5050  -23.3820   19.0130 N   0  0  0  0  0  0  0  0  0  0  0  0
  -28.7230  -23.9960   16.9420 O   0  0  0  0  0  0  0  0  0  0  0  0
  -29.3930  -19.6680   19.0460 C   0  0  0  0  0  2  0  0  0  0  0  0
  -30.1720  -18.9490   20.1650 C   0  0  0  0  0  2  0  0  0  0  0  0
  -29.7090  -17.4910   20.3140 C   0  0  0  0  0  2  0  0  0  0  0  0
  -30.4370  -16.7130   21.4250 C   0  0  0  0  0  2  0  0  0  0  0  0
  -30.7020  -14.3870   20.5840 C   0  0  0  0  0  0  0  0  0  0  0  0
  -30.3790  -12.2820   19.3440 C   0  0  0  0  0  2  0  0  0  0  0  0
  -29.4370  -12.5270   18.1470 C   0  0  0  0  0  2  0  0  0  0  0  0
  -27.9610  -12.4010   18.5700 C   0  0  0  0  0  2  0  0  0  0  0  0
  -27.6320  -13.2150   19.8500 C   0  0  0  0  0  3  0  0  0  0  0  0
  -28.6770  -12.9340   20.9540 C   0  0  0  0  0  2  0  0  0  0  0  0
  -30.0150  -13.2300   20.4080 N   0  0  0  0  0  0  0  0  0  0  0  0
  -31.7670  -14.6390   20.0150 O   0  0  0  0  0  0  0  0  0  0  0  0
  -30.0890  -15.2970   21.3570 N   0  0  0  0  0  0  0  0  0  0  0  0
  -29.2350  -15.0060   21.8110 H   0  0  0  0  0  0  0  0  0  0  0  0
  -25.2210  -13.8300   20.5210 C   0  0  0  0  0  0  0  0  0  0  0  0
  -24.1500  -13.0600   20.8870 C   0  0  0  0  0  0  0  0  0  0  0  0
  -24.6110  -11.7090   20.8690 C   0  0  0  0  0  0  0  0  0  0  0  0
  -26.2710  -12.9470   20.3110 N   0  0  0  0  0  0  0  0  0  0  0  0
  -25.9030  -11.6670   20.5720 N   0  0  0  0  0  0  0  0  0  0  0  0
  -23.8830  -10.4500   21.0640 C   0  0  0  0  0  0  0  0  0  0  0  0
  -24.3230   -9.4780   21.9880 C   0  0  0  0  0  3  0  0  0  0  0  0
  -23.5980   -8.2810   22.1710 C   0  0  0  0  0  3  0  0  0  0  0  0
  -22.4170   -8.0470   21.4270 C   0  0  0  0  0  0  0  0  0  0  0  0
  -21.9940   -9.0080   20.4920 C   0  0  0  0  0  3  0  0  0  0  0  0
  -22.7210  -10.1970   20.3080 C   0  0  0  0  0  3  0  0  0  0  0  0
  -21.6620   -6.9030   21.5180 O   0  0  0  0  0  0  0  0  0  0  0  0
  -21.6400   -6.1450   22.6600 C   0  0  0  0  0  0  0  0  0  0  0  0
  -21.2640   -6.6880   23.9090 C   0  0  0  0  0  3  0  0  0  0  0  0
  -21.1890   -5.8560   25.0440 C   0  0  0  0  0  3  0  0  0  0  0  0
  -21.4770   -4.4830   24.9320 C   0  0  0  0  0  0  0  0  0  0  0  0
  -21.8480   -3.9390   23.6890 C   0  0  0  0  0  3  0  0  0  0  0  0
  -21.9250   -4.7680   22.5560 C   0  0  0  0  0  0  0  0  0  0  0  0
  -22.2610   -4.2360   21.3560 F   0  0  0  0  0  0  0  0  0  0  0  0
  -21.3990   -3.6820   26.0210 F   0  0  0  0  0  0  0  0  0  0  0  0
  -22.7510  -13.5400   21.1460 C   0  0  0  0  0  0  0  0  0  0  0  0
  -22.0200  -12.8500   22.0150 N   0  0  0  0  0  0  0  0  0  0  0  0
  -22.3150  -14.5610   20.6170 O   0  0  0  0  0  0  0  0  0  0  0  0
  -22.3880  -12.0260   22.4670 H   0  0  0  0  0  0  0  0  0  0  0  0
  -21.0820  -13.1530   22.2360 H   0  0  0  0  0  0  0  0  0  0  0  0
  -25.3860  -15.1990   20.3350 N   0  0  0  0  0  0  0  0  0  0  0  0
  -24.6160  -15.8500   20.4350 H   0  0  0  0  0  0  0  0  0  0  0  0
  -26.2410  -15.6390   20.0170 H   0  0  0  0  0  0  0  0  0  0  0  0
  -31.3840  -21.0160   18.1040 C   0  0  0  0  0  2  0  0  0  0  0  0
  -31.5440  -20.0740   17.0580 O   0  0  0  0  0  0  0  0  0  0  0  0
  -30.9130  -20.2780   16.3760 H   0  0  0  0  0  0  0  0  0  0  0  0
  -29.6960  -24.7060   19.6140 C   0  0  0  0  0  2  0  0  0  0  0  0
  -28.3590  -25.3000   20.0910 C   0  0  0  0  0  2  0  0  0  0  0  0
  -28.4080  -26.7320   20.0970 O   0  0  0  0  0  0  0  0  0  0  0  0
  -24.6010  -31.8760   23.2170 C   0  0  0  0  0  0  0  0  0  0  0  0
  -27.2130  -27.4260   20.1140 C   0  0  0  0  0  0  0  0  0  0  0  0
  -23.3790  -30.4750   21.5890 C   0  0  0  0  0  3  0  0  0  0  0  0
  -24.8160  -28.9390   20.1550 C   0  0  0  0  0  0  0  0  0  0  0  0
  -25.9060  -30.8300   21.3680 C   0  0  0  0  0  2  0  0  0  0  0  0
  -25.9820  -29.4590   20.7300 C   0  0  0  0  0  0  0  0  0  0  0  0
  -27.1810  -28.7110   20.7060 C   0  0  0  0  0  3  0  0  0  0  0  0
  -26.0210  -26.9270   19.5310 C   0  0  0  0  0  3  0  0  0  0  0  0
  -24.8310  -27.6720   19.5550 C   0  0  0  0  0  3  0  0  0  0  0  0
  -23.5750  -29.7970   20.2090 C   0  0  0  0  0  2  0  0  0  0  0  0
  -24.6480  -31.0750   22.1170 N   0  0  0  0  0  0  0  0  0  0  0  0
  -23.5250  -32.1500   23.7670 O   0  0  0  0  0  0  0  0  0  0  0  0
  -22.7370  -29.4520   22.5530 C   0  0  0  0  0  0  0  0  0  0  0  0
  -21.4120  -29.2700   22.4360 N   0  0  0  0  0  0  0  0  0  0  0  0
  -23.4280  -28.8260   23.3630 O   0  0  0  0  0  0  0  0  0  0  0  0
  -20.9180  -29.8280   21.7550 H   0  0  0  0  0  0  0  0  0  0  0  0
  -18.0410  -28.0750   22.9490 C   0  0  0  0  0  0  0  0  0  0  0  0
  -20.6000  -28.3340   23.2120 C   0  0  0  0  0  3  0  0  0  0  0  0
  -20.7010  -26.9010   22.6380 C   0  0  0  0  0  2  0  0  0  0  0  0
  -19.5950  -26.5760   21.6290 C   0  0  0  0  0  2  0  0  0  0  0  0
  -18.2150  -26.7230   22.2770 C   0  0  0  0  0  2  0  0  0  0  0  0
  -19.1620  -28.8390   23.3720 C   0  0  0  0  0  0  0  0  0  0  0  0
  -18.9440  -30.1050   23.9580 C   0  0  0  0  0  3  0  0  0  0  0  0
  -17.6410  -30.6090   24.1240 C   0  0  0  0  0  3  0  0  0  0  0  0
  -16.5350  -29.8420   23.7180 C   0  0  0  0  0  3  0  0  0  0  0  0
  -16.7350  -28.5770   23.1360 C   0  0  0  0  0  3  0  0  0  0  0  0
  -25.8940  -32.5050   23.8250 C   0  0  0  0  0  3  0  0  0  0  0  0
  -25.5880  -33.9000   24.1680 N   0  0  0  0  0  0  0  0  0  0  0  0
  -25.9100  -34.9570   23.4100 C   0  0  0  0  0  0  0  0  0  0  0  0
  -26.5710  -34.8610   22.3710 O   0  0  0  0  0  0  0  0  0  0  0  0
  -25.0020  -34.0490   24.9750 H   0  0  0  0  0  0  0  0  0  0  0  0
  -24.1750  -36.7460   23.0810 C   0  0  0  0  0  1  0  0  0  0  0  0
  -25.4240  -36.3410   23.8790 C   0  0  0  0  0  3  0  0  0  0  0  0
  -27.5670  -37.2230   24.6910 C   0  0  0  0  0  1  0  0  0  0  0  0
  -26.4540  -37.3970   23.7620 N   0  0  0  0  0  0  0  0  0  0  0  0
  -26.0480  -38.3150   23.9240 H   0  0  0  0  0  0  0  0  0  0  0  0
  -26.4320  -31.7240   25.0860 C   0  0  1  0  0  0  0  0  0  0  0  0
  -25.3550  -31.4770   26.1680 C   0  0  0  0  0  1  0  0  0  0  0  0
  -27.0100  -30.3520   24.6710 C   0  0  0  0  0  1  0  0  0  0  0  0
  -27.5910  -32.5150   25.7370 C   0  0  0  0  0  1  0  0  0  0  0  0
  1  5  1  0
  2  1  1  0
  2  4  1  0
  4 49  1  6
  4  7  1  0
  4  3  1  0
  5 52  1  0
  5  3  1  0
  6  1  2  0
  7  8  1  0
  8  9  1  0
  9 10  1  0
 11 19  1  0
 12 17  1  0
 13 14  1  0
 13 12  1  0
 15 14  1  0
 15 24  1  0
 15 16  1  0
 17 11  1  0
 17 16  1  0
 18 11  2  0
 19 10  1  0
 19 20  1  0
 21 22  2  0
 22 41  1  0
 23 22  1  0
 23 26  1  0
 24 21  1  0
 24 25  1  0
 25 23  2  0
 26 27  1  0
 27 28  2  0
 29 32  1  0
 29 28  1  0
 30 29  2  0
 31 30  1  0
 31 26  2  0
 32 33  1  0
 33 34  1  0
 34 35  2  0
 36 35  1  0
 36 40  1  0
 37 36  2  0
 38 33  2  0
 38 37  1  0
 39 38  1  0
 41 42  1  0
 42 45  1  0
 42 44  1  0
 43 41  2  0
 46 47  1  0
 46 21  1  0
 48 46  1  0
 50 49  1  0
 51 50  1  0
 52 53  1  0
 53 54  1  0
 54 56  1  0
 55 66  2  0
 56 61  1  0
 57 65  1  0
 57 67  1  0
 58 64  1  0
 58 60  1  0
 59 65  1  0
 60 59  1  0
 61 60  2  0
 62 63  1  0
 62 56  2  0
 63 58  2  0
 64 57  1  0
 65 55  1  0
 67 69  2  0
 68 67  1  0
 70 68  1  0
 71 80  2  0
 71 76  1  0
 72 68  1  0
 72 76  1  0
 73 72  1  0
 74 75  1  0
 74 73  1  0
 75 71  1  0
 76 77  2  0
 77 78  1  0
 79 78  2  0
 80 79  1  0
 81 55  1  0
 81 82  1  0
 81 91  1  0
 82 85  1  0
 83 87  1  0
 83 82  1  0
 84 83  2  0
 87 86  1  0
 89 87  1  0
 89 90  1  0
 89 88  1  0
 91 94  1  1
 91 92  1  0
 93 91  1  0
M  ISO  4  11 100  19 100  53 101  54 101
M  END
>  <TORSDO>  (15) 
F 24

>  <SCORE>  (15) 
-12.697

>  <name>  (15) 
14

>  <ligand_id>  (15) 
14

>  <original_smiles>  (15) 
[H]OC([H])([H])C1(C([H])([H])C([H])([H])C([H])([H])C([H])([H])N([H])C(=O)N2C([H])([H])C([H])([H])C([H])([H])C([H])(n3nc(-c4c([H])c([H])c(Oc5c([H])c([H])c(F)c([H])c5F)c([H])c4[H])c(C(=O)N([H])[H])c3N([H])[H])C2([H])[H])C([H])([H])C(=O)N(C([H])([H])C([H])([H])Oc2c([H])c([H])c3c(c2[H])C([H])([H])N(C(=O)C([H])(N([H])C(=O)C([H])(N([H])C([H])([H])[H])C([H])([H])[H])C(C([H])([H])[H])(C([H])([H])[H])C([H])([H])[H])C([H])(C(=O)N([H])C2([H])c4c([H])c([H])c([H])c([H])c4C([H])([H])C([H])([H])C2([H])[H])C3([H])[H])C1([H])[H]

>  <smiles>  (15) 
[H]OC([H])([H])C1(C([H])([H])C([H])([H])C([H])([H])C([H])([H])N([H])C(=O)N2C([H])([H])C([H])([H])C([H])([H])C([H])(n3nc(-c4c([H])c([H])c(Oc5c([H])c([H])c(F)c([H])c5F)c([H])c4[H])c(C(=O)N([H])[H])c3N([H])[H])C2([H])[H])C([H])([H])C(=O)N(C([H])([H])C([H])([H])Oc2c([H])c([H])c3c(c2[H])C([H])([H])N(C(=O)C([H])(N([H])C(=O)C([H])(N([H])C([H])([H])[H])C([H])([H])[H])C(C([H])([H])[H])(C([H])([H])[H])C([H])([H])[H])C([H])(C(=O)N([H])C2([H])c4c([H])c([H])c([H])c([H])c4C([H])([H])C([H])([H])C2([H])[H])C3([H])[H])C1([H])[H]

$$$$
15:0:0
     RDKit          3D

100109  0  0  1  0  0  0  0  0999 V2000
  -28.1840  -19.2480   21.5140 C   0  0  0  0  0  3  0  0  0  0  0  0
  -30.0200  -19.3660   19.9190 C   0  0  0  0  0  3  0  0  0  0  0  0
  -27.9350  -20.6220   21.3280 C   0  0  0  0  0  3  0  0  0  0  0  0
  -29.7690  -20.7380   19.7330 C   0  0  0  0  0  3  0  0  0  0  0  0
  -29.2220  -18.6100   20.8020 C   0  0  0  0  0  0  0  0  0  0  0  0
  -28.7230  -21.3770   20.4260 C   0  0  0  0  0  0  0  0  0  0  0  0
  -28.5210  -22.7370   20.1640 N   0  0  0  0  0  0  0  0  0  0  0  0
  -28.7650  -23.1060   19.2490 H   0  0  0  0  0  0  0  0  0  0  0  0
  -27.9830  -23.6760   21.1380 C   0  0  0  0  0  2  0  0  0  0  0  0
  -29.1490  -27.2520   21.5130 C   0  0  0  0  0  2  0  0  0  0  0  0
  -28.7910  -25.9670   22.0290 C   0  0  0  0  0  0  0  0  0  0  0  0
  -28.5880  -25.0420   21.0270 C   0  0  0  0  0  0  0  0  0  0  0  0
  -29.1440  -27.3000   20.1430 C   0  0  0  0  0  3  0  0  0  0  0  0
  -28.5600  -25.7150   23.4910 C   0  0  0  0  0  1  0  0  0  0  0  0
  -28.9800  -25.7110   19.4580 S   0  0  0  0  0  0  0  0  0  0  0  0
  -28.9890  -28.3310   19.2780 O   0  0  0  0  0  0  0  0  0  0  0  0
  -24.3570  -31.5910   23.4960 C   0  0  0  0  0  0  0  0  0  0  0  0
  -27.7090  -28.8140   19.3760 C   0  0  0  0  0  0  0  0  0  0  0  0
  -23.3880  -30.2440   21.6600 C   0  0  0  0  0  3  0  0  0  0  0  0
  -25.0220  -29.5070   19.8460 C   0  0  0  0  0  0  0  0  0  0  0  0
  -25.6780  -31.3510   21.4030 C   0  0  0  0  0  2  0  0  0  0  0  0
  -26.0530  -30.2210   20.4740 C   0  0  0  0  0  0  0  0  0  0  0  0
  -27.4020  -29.8750   20.2490 C   0  0  0  0  0  3  0  0  0  0  0  0
  -26.6640  -28.1300   18.7160 C   0  0  0  0  0  3  0  0  0  0  0  0
  -25.3220  -28.4580   18.9630 C   0  0  0  0  0  3  0  0  0  0  0  0
  -23.6070  -29.9370   20.1540 C   0  0  0  0  0  2  0  0  0  0  0  0
  -24.4950  -31.0690   22.2450 N   0  0  0  0  0  0  0  0  0  0  0  0
  -23.3120  -31.4360   24.1410 O   0  0  0  0  0  0  0  0  0  0  0  0
  -23.1520  -28.9130   22.4100 C   0  0  0  0  0  0  0  0  0  0  0  0
  -21.9980  -28.2790   22.1490 N   0  0  0  0  0  0  0  0  0  0  0  0
  -24.0020  -28.4630   23.1830 O   0  0  0  0  0  0  0  0  0  0  0  0
  -21.3530  -28.7200   21.5080 H   0  0  0  0  0  0  0  0  0  0  0  0
  -19.4300  -25.7440   22.0060 C   0  0  0  0  0  0  0  0  0  0  0  0
  -21.5770  -26.9970   22.7150 C   0  0  0  0  0  3  0  0  0  0  0  0
  -22.3510  -25.8240   22.0720 C   0  0  0  0  0  2  0  0  0  0  0  0
  -21.6270  -25.2080   20.8720 C   0  0  0  0  0  2  0  0  0  0  0  0
  -20.2490  -24.6850   21.2850 C   0  0  0  0  0  2  0  0  0  0  0  0
  -20.0530  -26.8370   22.6640 C   0  0  0  0  0  0  0  0  0  0  0  0
  -19.2450  -27.8090   23.2900 C   0  0  0  0  0  3  0  0  0  0  0  0
  -17.8400  -27.7040   23.2670 C   0  0  0  0  0  3  0  0  0  0  0  0
  -17.2290  -26.6130   22.6240 C   0  0  0  0  0  3  0  0  0  0  0  0
  -18.0230  -25.6340   22.0000 C   0  0  0  0  0  3  0  0  0  0  0  0
  -25.4950  -32.4290   24.1610 C   0  0  0  0  0  3  0  0  0  0  0  0
  -24.9820  -33.7930   24.3500 N   0  0  0  0  0  0  0  0  0  0  0  0
  -25.3090  -34.8390   23.5800 C   0  0  0  0  0  0  0  0  0  0  0  0
  -26.1390  -34.7690   22.6700 O   0  0  0  0  0  0  0  0  0  0  0  0
  -24.2590  -33.9130   25.0420 H   0  0  0  0  0  0  0  0  0  0  0  0
  -23.5020  -36.4100   22.8140 C   0  0  0  0  0  1  0  0  0  0  0  0
  -24.6000  -36.1760   23.8640 C   0  0  0  0  0  3  0  0  0  0  0  0
  -26.4440  -37.3100   25.0210 C   0  0  0  0  0  1  0  0  0  0  0  0
  -25.5170  -37.3340   23.8920 N   0  0  0  0  0  0  0  0  0  0  0  0
  -24.9990  -38.2070   23.9230 H   0  0  0  0  0  0  0  0  0  0  0  0
  -25.9980  -31.8230   25.5280 C   0  0  1  0  0  0  0  0  0  0  0  0
  -24.8540  -31.4850   26.5110 C   0  0  0  0  0  1  0  0  0  0  0  0
  -26.8110  -30.5270   25.2830 C   0  0  0  0  0  1  0  0  0  0  0  0
  -26.9510  -32.8220   26.2240 C   0  0  0  0  0  1  0  0  0  0  0  0
  -29.4790  -17.1250   20.9840 C   0  0  0  0  0  2  0  0  0  0  0  0
  -30.9060  -16.8880   21.2730 N   0  0  0  0  0  4  0  0  0  0  0  0
  -31.2770  -17.6730   21.7830 H   0  0  0  0  0  0  0  0  0  0  0  0
  -31.3880  -16.8390   20.3920 H   0  0  0  0  0  0  0  0  0  0  0  0
  -31.1970  -15.6330   21.9950 C   0  0  0  0  0  2  0  0  0  0  0  0
  -32.4090  -14.8810   21.3940 C   0  0  0  0  0  2  0  0  0  0  0  0
  -32.4840  -13.6490   19.2190 C   0  0  0  0  0  0  0  0  0  0  0  0
  -31.8590  -11.2740   18.9840 C   0  0  0  0  0  2  0  0  0  0  0  0
  -30.8160  -11.0240   17.8810 C   0  0  0  0  0  2  0  0  0  0  0  0
  -29.3950  -11.1700   18.4530 C   0  0  0  0  0  2  0  0  0  0  0  0
  -29.2140  -12.5040   19.2180 C   0  0  0  0  0  3  0  0  0  0  0  0
  -30.3550  -12.7300   20.2260 C   0  0  0  0  0  2  0  0  0  0  0  0
  -31.6570  -12.6190   19.5420 N   0  0  0  0  0  0  0  0  0  0  0  0
  -33.3290  -13.5810   18.3240 O   0  0  0  0  0  0  0  0  0  0  0  0
  -32.3750  -14.7830   19.9240 N   0  0  0  0  0  0  0  0  0  0  0  0
  -32.9310  -15.5010   19.4780 H   0  0  0  0  0  0  0  0  0  0  0  0
  -27.2330  -13.6790   20.3720 C   0  0  0  0  0  0  0  0  0  0  0  0
  -26.0290  -13.2150   20.8230 C   0  0  0  0  0  0  0  0  0  0  0  0
  -26.0290  -11.8100   20.5650 C   0  0  0  0  0  0  0  0  0  0  0  0
  -27.9080  -12.5760   19.8730 N   0  0  0  0  0  0  0  0  0  0  0  0
  -27.1930  -11.4360   20.0480 N   0  0  0  0  0  0  0  0  0  0  0  0
  -24.9680  -10.8080   20.7290 C   0  0  0  0  0  0  0  0  0  0  0  0
  -25.1420   -9.6780   21.5590 C   0  0  0  0  0  3  0  0  0  0  0  0
  -24.1040   -8.7350   21.7140 C   0  0  0  0  0  3  0  0  0  0  0  0
  -22.8740   -8.9180   21.0390 C   0  0  0  0  0  0  0  0  0  0  0  0
  -22.7100  -10.0340   20.1990 C   0  0  0  0  0  3  0  0  0  0  0  0
  -23.7480  -10.9680   20.0420 C   0  0  0  0  0  3  0  0  0  0  0  0
  -21.8200   -8.0400   21.1060 O   0  0  0  0  0  0  0  0  0  0  0  0
  -21.5610   -7.3110   22.2390 C   0  0  0  0  0  0  0  0  0  0  0  0
  -21.3040   -7.9320   23.4810 C   0  0  0  0  0  3  0  0  0  0  0  0
  -20.9800   -7.1470   24.6060 C   0  0  0  0  0  3  0  0  0  0  0  0
  -20.8990   -5.7460   24.4880 C   0  0  0  0  0  0  0  0  0  0  0  0
  -21.1450   -5.1270   23.2500 C   0  0  0  0  0  3  0  0  0  0  0  0
  -21.4740   -5.9090   22.1290 C   0  0  0  0  0  0  0  0  0  0  0  0
  -21.6960   -5.3110   20.9340 F   0  0  0  0  0  0  0  0  0  0  0  0
  -20.5780   -4.9930   25.5650 F   0  0  0  0  0  0  0  0  0  0  0  0
  -24.8980  -14.0390   21.3680 C   0  0  0  0  0  0  0  0  0  0  0  0
  -24.1240  -13.4800   22.2920 N   0  0  0  0  0  0  0  0  0  0  0  0
  -24.7280  -15.2040   21.0120 O   0  0  0  0  0  0  0  0  0  0  0  0
  -24.2840  -12.5330   22.5970 H   0  0  0  0  0  0  0  0  0  0  0  0
  -23.3660  -14.0060   22.7050 H   0  0  0  0  0  0  0  0  0  0  0  0
  -27.8050  -14.9460   20.3270 N   0  0  0  0  0  0  0  0  0  0  0  0
  -27.2590  -15.7650   20.5660 H   0  0  0  0  0  0  0  0  0  0  0  0
  -28.6150  -15.1560   19.7570 H   0  0  0  0  0  0  0  0  0  0  0  0
  2  5  1  0
  3  1  1  0
  4  2  2  0
  4  6  1  0
  5 57  1  0
  5  1  2  0
  6  3  2  0
  7  6  1  0
  7  9  1  0
  8  7  1  0
 10 11  1  0
 11 14  1  0
 12  9  1  0
 12 11  2  0
 13 16  1  0
 13 10  1  0
 15 13  1  0
 15 12  1  0
 16 18  1  0
 17 28  2  0
 18 23  1  0
 19 27  1  0
 19 29  1  0
 20 26  1  0
 20 22  1  0
 21 27  1  0
 22 21  1  0
 23 22  2  0
 24 25  1  0
 24 18  2  0
 25 20  2  0
 26 19  1  0
 27 17  1  0
 29 31  2  0
 30 29  1  0
 32 30  1  0
 33 38  1  0
 34 30  1  0
 35 34  1  0
 36 37  1  0
 36 35  1  0
 37 33  1  0
 38 34  1  0
 38 39  2  0
 40 39  1  0
 41 40  2  0
 42 33  2  0
 42 41  1  0
 43 17  1  0
 43 44  1  0
 43 53  1  0
 44 47  1  0
 45 49  1  0
 45 44  1  0
 46 45  2  0
 49 48  1  0
 49 51  1  0
 51 52  1  0
 51 50  1  0
 53 56  1  1
 53 54  1  0
 55 53  1  0
 57 58  1  0
 58 59  1  0
 58 61  1  0
 60 58  1  0
 62 61  1  0
 63 69  1  0
 63 71  1  0
 64 69  1  0
 65 66  1  0
 65 64  1  0
 67 66  1  0
 67 76  1  0
 67 68  1  0
 69 68  1  0
 70 63  2  0
 71 62  1  0
 72 71  1  0
 73 74  2  0
 74 93  1  0
 75 78  1  0
 75 74  1  0
 76 77  1  0
 76 73  1  0
 77 75  2  0
 78 79  1  0
 79 80  2  0
 81 84  1  0
 81 80  1  0
 82 81  2  0
 83 82  1  0
 83 78  2  0
 84 85  1  0
 85 86  1  0
 86 87  2  0
 88 87  1  0
 88 92  1  0
 89 88  2  0
 90 85  2  0
 90 89  1  0
 91 90  1  0
 93 94  1  0
 94 96  1  0
 94 97  1  0
 95 93  2  0
 98 73  1  0
 98 99  1  0
100 98  1  0
M  ISO  4  13 101  16 101  63 100  71 100
M  END
>  <TORSDO>  (16) 
F 23

>  <SCORE>  (16) 
-3.321

>  <name>  (16) 
15

>  <ligand_id>  (16) 
15

>  <original_smiles>  (16) 
[H]c1c([H])c([H])c2c(c1[H])C([H])([H])C([H])([H])C([H])([H])C2([H])N([H])C(=O)C1([H])N(C(=O)C([H])(N([H])C(=O)C([H])(N([H])C([H])([H])[H])C([H])([H])[H])C(C([H])([H])[H])(C([H])([H])[H])C([H])([H])[H])C([H])([H])c2c([H])c(Oc3sc(C([H])([H])N([H])c4c([H])c([H])c(C([H])([H])[N+]([H])([H])C([H])([H])C([H])([H])N([H])C(=O)N5C([H])([H])C([H])([H])C([H])([H])C([H])(n6nc(-c7c([H])c([H])c(Oc8c([H])c([H])c(F)c([H])c8F)c([H])c7[H])c(C(=O)N([H])[H])c6N([H])[H])C5([H])[H])c([H])c4[H])c(C([H])([H])[H])c3[H])c([H])c([H])c2C1([H])[H]

>  <smiles>  (16) 
[H]c1c([H])c([H])c2c(c1[H])C([H])([H])C([H])([H])C([H])([H])C2([H])N([H])C(=O)C1([H])N(C(=O)C([H])(N([H])C(=O)C([H])(N([H])C([H])([H])[H])C([H])([H])[H])C(C([H])([H])[H])(C([H])([H])[H])C([H])([H])[H])C([H])([H])c2c([H])c(Oc3sc(C([H])([H])N([H])c4c([H])c([H])c(C([H])([H])[N+]([H])([H])C([H])([H])C([H])([H])N([H])C(=O)N5C([H])([H])C([H])([H])C([H])([H])C([H])(n6nc(-c7c([H])c([H])c(Oc8c([H])c([H])c(F)c([H])c8F)c([H])c7[H])c(C(=O)N([H])[H])c6N([H])[H])C5([H])[H])c([H])c4[H])c(C([H])([H])[H])c3[H])c([H])c([H])c2C1([H])[H]

$$$$
16:0:0
     RDKit          3D

105114  0  0  1  0  0  0  0  0999 V2000
  -25.5100  -21.4780   19.9610 N   0  0  0  0  0  4  0  0  0  0  0  0
  -25.4550  -21.3330   20.9580 H   0  0  0  0  0  0  0  0  0  0  0  0
  -26.4350  -21.1970   19.6890 H   0  0  0  0  0  0  0  0  0  0  0  0
  -27.4580  -24.2910   20.6310 C   0  0  0  0  0  3  0  0  0  0  0  0
  -26.7510  -23.5290   19.6570 C   0  0  0  0  0  0  0  0  0  0  0  0
  -27.4110  -23.4740   18.4590 C   0  0  0  0  0  0  0  0  0  0  0  0
  -28.6040  -24.8560   20.1300 C   0  0  0  0  0  0  0  0  0  0  0  0
  -26.7890  -22.9650   17.2070 C   0  0  0  0  0  2  0  0  0  0  0  0
  -25.2960  -23.3660   17.1540 C   0  0  0  0  0  3  0  0  0  0  0  0
  -24.5560  -23.4030   18.5330 C   0  0  0  0  0  3  0  0  0  0  0  0
  -25.3710  -22.9490   19.7810 C   0  0  0  0  0  3  0  0  0  0  0  0
  -28.9550  -24.2720   18.5230 S   0  0  0  0  0  0  0  0  0  0  0  0
  -29.4220  -25.9470   20.7450 C   0  0  0  0  0  2  0  0  0  0  0  0
  -29.2090  -27.1380   19.9810 O   0  0  0  0  0  0  0  0  0  0  0  0
  -24.8270  -31.5600   23.4210 C   0  0  0  0  0  0  0  0  0  0  0  0
  -27.9560  -27.7060   20.0570 C   0  0  0  0  0  0  0  0  0  0  0  0
  -23.7940  -30.2210   21.6130 C   0  0  0  0  0  3  0  0  0  0  0  0
  -25.4220  -28.9590   20.1150 C   0  0  0  0  0  0  0  0  0  0  0  0
  -26.2780  -30.8180   21.5460 C   0  0  0  0  0  2  0  0  0  0  0  0
  -26.5060  -29.5290   20.7920 C   0  0  0  0  0  0  0  0  0  0  0  0
  -27.7730  -28.9070   20.7690 C   0  0  0  0  0  3  0  0  0  0  0  0
  -26.8550  -27.1490   19.3680 C   0  0  0  0  0  3  0  0  0  0  0  0
  -25.5890  -27.7580   19.4050 C   0  0  0  0  0  3  0  0  0  0  0  0
  -24.1060  -29.6970   20.1870 C   0  0  0  0  0  2  0  0  0  0  0  0
  -24.9790  -30.8760   22.2530 N   0  0  0  0  0  0  0  0  0  0  0  0
  -23.7140  -31.6840   23.9500 O   0  0  0  0  0  0  0  0  0  0  0  0
  -23.2130  -29.0570   22.4510 C   0  0  0  0  0  0  0  0  0  0  0  0
  -21.9600  -28.6760   22.1550 N   0  0  0  0  0  0  0  0  0  0  0  0
  -23.8880  -28.5040   23.3220 O   0  0  0  0  0  0  0  0  0  0  0  0
  -21.4720  -29.1760   21.4270 H   0  0  0  0  0  0  0  0  0  0  0  0
  -18.8080  -26.9130   22.1480 C   0  0  0  0  0  0  0  0  0  0  0  0
  -21.2180  -27.5890   22.7940 C   0  0  0  0  0  3  0  0  0  0  0  0
  -21.6500  -26.2160   22.2270 C   0  0  0  0  0  2  0  0  0  0  0  0
  -20.7760  -25.7410   21.0630 C   0  0  0  0  0  2  0  0  0  0  0  0
  -19.3080  -25.6360   21.4920 C   0  0  0  0  0  2  0  0  0  0  0  0
  -19.7070  -27.8370   22.7450 C   0  0  0  0  0  0  0  0  0  0  0  0
  -19.1930  -29.0270   23.3090 C   0  0  0  0  0  3  0  0  0  0  0  0
  -17.8130  -29.2950   23.2890 C   0  0  0  0  0  3  0  0  0  0  0  0
  -16.9250  -28.3700   22.7120 C   0  0  0  0  0  3  0  0  0  0  0  0
  -17.4230  -27.1800   22.1480 C   0  0  0  0  0  3  0  0  0  0  0  0
  -26.0360  -32.2380   24.1380 C   0  0  0  0  0  3  0  0  0  0  0  0
  -25.6510  -33.6210   24.4440 N   0  0  0  0  0  0  0  0  0  0  0  0
  -25.9850  -34.6880   23.7040 C   0  0  0  0  0  0  0  0  0  0  0  0
  -26.7250  -34.6150   22.7180 O   0  0  0  0  0  0  0  0  0  0  0  0
  -25.0040  -33.7430   25.2100 H   0  0  0  0  0  0  0  0  0  0  0  0
  -24.1950  -36.3940   23.2470 C   0  0  0  0  0  1  0  0  0  0  0  0
  -25.4070  -36.0520   24.1280 C   0  0  0  0  0  3  0  0  0  0  0  0
  -27.4430  -37.0430   25.0740 C   0  0  0  0  0  1  0  0  0  0  0  0
  -26.3910  -37.1530   24.0680 N   0  0  0  0  0  0  0  0  0  0  0  0
  -25.9310  -38.0500   24.1930 H   0  0  0  0  0  0  0  0  0  0  0  0
  -26.4890  -31.4800   25.4440 C   0  0  1  0  0  0  0  0  0  0  0  0
  -25.3260  -31.1470   26.4050 C   0  0  0  0  0  1  0  0  0  0  0  0
  -27.1980  -30.1510   25.0890 C   0  0  0  0  0  1  0  0  0  0  0  0
  -27.5120  -32.3390   26.2220 C   0  0  0  0  0  1  0  0  0  0  0  0
  -24.5030  -20.5760   19.3460 C   0  0  0  0  0  2  0  0  0  0  0  0
  -25.0170  -19.7980   18.1030 C   0  0  0  0  0  2  0  0  0  0  0  0
  -25.9490  -18.5920   18.3600 C   0  0  0  0  0  2  0  0  0  0  0  0
  -27.1800  -18.8990   19.2310 C   0  0  0  0  0  2  0  0  0  0  0  0
  -28.4880  -18.1860   18.8200 C   0  0  0  0  0  3  0  0  0  0  0  0
  -28.2740  -16.7580   18.5110 N   0  0  0  0  0  4  0  0  0  0  0  0
  -27.8120  -16.2680   19.2790 H   0  0  0  0  0  0  0  0  0  0  0  0
  -29.1460  -16.3050   18.3040 H   0  0  0  0  0  0  0  0  0  0  0  0
  -27.6790  -16.6590   17.7090 H   0  0  0  0  0  0  0  0  0  0  0  0
  -29.6060  -18.3970   19.8750 C   0  0  0  0  0  2  0  0  0  0  0  0
  -29.6250  -17.3650   21.0220 C   0  0  0  0  0  2  0  0  0  0  0  0
  -31.0220  -17.1170   21.6110 C   0  0  0  0  0  2  0  0  0  0  0  0
  -31.0600  -15.9290   22.5960 C   0  0  0  0  0  2  0  0  0  0  0  0
  -31.1600  -14.0420   20.9680 C   0  0  0  0  0  0  0  0  0  0  0  0
  -30.5240  -12.9830   18.8480 C   0  0  0  0  0  2  0  0  0  0  0  0
  -29.6210  -13.9690   18.0730 C   0  0  0  0  0  2  0  0  0  0  0  0
  -28.1450  -13.7980   18.4870 C   0  0  0  0  0  2  0  0  0  0  0  0
  -27.9550  -13.8020   20.0230 C   0  0  0  0  0  3  0  0  0  0  0  0
  -28.9620  -12.8460   20.7070 C   0  0  0  0  0  2  0  0  0  0  0  0
  -30.3190  -13.2290   20.2790 N   0  0  0  0  0  0  0  0  0  0  0  0
  -32.3010  -14.3210   20.5950 O   0  0  0  0  0  0  0  0  0  0  0  0
  -30.5710  -14.6980   21.9770 N   0  0  0  0  0  0  0  0  0  0  0  0
  -29.6350  -14.4060   22.2120 H   0  0  0  0  0  0  0  0  0  0  0  0
  -25.5010  -14.3680   20.5590 C   0  0  0  0  0  0  0  0  0  0  0  0
  -24.4190  -13.5730   20.8190 C   0  0  0  0  0  0  0  0  0  0  0  0
  -24.9060  -12.2320   20.8030 C   0  0  0  0  0  0  0  0  0  0  0  0
  -26.5760  -13.5080   20.3940 N   0  0  0  0  0  0  0  0  0  0  0  0
  -26.2170  -12.2190   20.5980 N   0  0  0  0  0  0  0  0  0  0  0  0
  -24.1940  -10.9540   20.9160 C   0  0  0  0  0  0  0  0  0  0  0  0
  -24.5940   -9.9670   21.8440 C   0  0  0  0  0  3  0  0  0  0  0  0
  -23.8830   -8.7510   21.9440 C   0  0  0  0  0  3  0  0  0  0  0  0
  -22.7570   -8.5180   21.1200 C   0  0  0  0  0  0  0  0  0  0  0  0
  -22.3740   -9.4960   20.1870 C   0  0  0  0  0  3  0  0  0  0  0  0
  -23.0870  -10.7020   20.0820 C   0  0  0  0  0  3  0  0  0  0  0  0
  -22.0200   -7.3600   21.1350 O   0  0  0  0  0  0  0  0  0  0  0  0
  -21.8290   -6.6470   22.2890 C   0  0  0  0  0  0  0  0  0  0  0  0
  -21.3270   -7.2490   23.4630 C   0  0  0  0  0  3  0  0  0  0  0  0
  -21.0760   -6.4630   24.6040 C   0  0  0  0  0  3  0  0  0  0  0  0
  -21.3240   -5.0760   24.5710 C   0  0  0  0  0  0  0  0  0  0  0  0
  -21.8240   -4.4750   23.4020 C   0  0  0  0  0  3  0  0  0  0  0  0
  -22.0700   -5.2590   22.2630 C   0  0  0  0  0  0  0  0  0  0  0  0
  -22.5270   -4.6740   21.1300 F   0  0  0  0  0  0  0  0  0  0  0  0
  -21.0780   -4.3180   25.6640 F   0  0  0  0  0  0  0  0  0  0  0  0
  -22.9990  -14.0270   20.9960 C   0  0  0  0  0  0  0  0  0  0  0  0
  -22.2360  -13.3380   21.8370 N   0  0  0  0  0  0  0  0  0  0  0  0
  -22.5770  -15.0320   20.4260 O   0  0  0  0  0  0  0  0  0  0  0  0
  -22.5910  -12.5300   22.3250 H   0  0  0  0  0  0  0  0  0  0  0  0
  -21.2780  -13.6190   21.9900 H   0  0  0  0  0  0  0  0  0  0  0  0
  -25.6580  -15.7460   20.4490 N   0  0  0  0  0  0  0  0  0  0  0  0
  -24.8240  -16.1880   20.8270 H   0  0  0  0  0  0  0  0  0  0  0  0
  -26.4630  -16.0330   20.9960 H   0  0  0  0  0  0  0  0  0  0  0  0
  1  2  1  0
  3  1  1  0
  5 11  1  0
  5  4  1  0
  6 12  1  0
  6  5  2  0
  7  4  2  0
  7 13  1  0
  8  6  1  0
  9  8  1  0
  9 10  2  0
 10 11  1  0
 11  1  1  0
 12  7  1  0
 14 16  1  0
 14 13  1  0
 15 26  2  0
 16 21  1  0
 17 25  1  0
 17 27  1  0
 18 24  1  0
 18 20  1  0
 19 25  1  0
 20 19  1  0
 21 20  2  0
 22 23  1  0
 22 16  2  0
 23 18  2  0
 24 17  1  0
 25 15  1  0
 27 29  2  0
 28 27  1  0
 30 28  1  0
 31 36  1  0
 32 28  1  0
 33 32  1  0
 34 35  1  0
 34 33  1  0
 35 31  1  0
 36 32  1  0
 36 37  2  0
 38 37  1  0
 39 38  2  0
 40 31  2  0
 40 39  1  0
 41 15  1  0
 41 42  1  0
 41 51  1  0
 42 45  1  0
 43 47  1  0
 43 42  1  0
 44 43  2  0
 47 46  1  0
 49 47  1  0
 49 50  1  0
 49 48  1  0
 51 54  1  1
 51 52  1  0
 53 51  1  0
 55  1  1  0
 56 57  1  0
 56 55  1  0
 57 58  1  0
 59 58  1  0
 59 64  1  0
 60 59  1  0
 60 61  1  0
 62 60  1  0
 63 60  1  0
 64 65  1  0
 65 66  1  0
 66 67  1  0
 68 76  1  0
 69 74  1  0
 70 71  1  0
 70 69  1  0
 72 71  1  0
 72 81  1  0
 72 73  1  0
 74 73  1  0
 74 68  1  0
 75 68  2  0
 76 77  1  0
 76 67  1  0
 78 79  2  0
 79 98  1  0
 80 79  1  0
 80 83  1  0
 81 78  1  0
 81 82  1  0
 82 80  2  0
 83 84  1  0
 84 85  2  0
 86 89  1  0
 86 85  1  0
 87 86  2  0
 88 87  1  0
 88 83  2  0
 89 90  1  0
 90 91  1  0
 91 92  2  0
 93 92  1  0
 93 97  1  0
 94 93  2  0
 95 90  2  0
 95 94  1  0
 96 95  1  0
 98 99  1  0
 99102  1  0
 99101  1  0
100 98  2  0
103 78  1  0
103104  1  0
103105  1  0
M  ISO  4  13 101  14 101  68 100  76 100
M  END
>  <TORSDO>  (17) 
F 28

>  <SCORE>  (17) 
-5.779

>  <name>  (17) 
16

>  <ligand_id>  (17) 
16

>  <original_smiles>  (17) 
[H]c1c([H])c([H])c2c(c1[H])C([H])([H])C([H])([H])C([H])([H])C2([H])N([H])C(=O)C1([H])N(C(=O)C([H])(N([H])C(=O)C([H])(N([H])C([H])([H])[H])C([H])([H])[H])C(C([H])([H])[H])(C([H])([H])[H])C([H])([H])[H])C([H])([H])c2c([H])c(OC([H])([H])c3sc4c(c3[H])C([H])([N+]([H])([H])C([H])([H])C([H])([H])C([H])([H])C([H])([H])C([H])(C([H])([H])C([H])([H])C([H])([H])C([H])([H])N([H])C(=O)N3C([H])([H])C([H])([H])C([H])([H])C([H])(n5nc(-c6c([H])c([H])c(Oc7c([H])c([H])c(F)c([H])c7F)c([H])c6[H])c(C(=O)N([H])[H])c5N([H])[H])C3([H])[H])[N+]([H])([H])[H])C([H])([H])C([H])([H])C4([H])[H])c([H])c([H])c2C1([H])[H]

>  <smiles>  (17) 
[H]c1c([H])c([H])c2c(c1[H])C([H])([H])C([H])([H])C([H])([H])C2([H])N([H])C(=O)C1([H])N(C(=O)C([H])(N([H])C(=O)C([H])(N([H])C([H])([H])[H])C([H])([H])[H])C(C([H])([H])[H])(C([H])([H])[H])C([H])([H])[H])C([H])([H])c2c([H])c(OC([H])([H])c3sc4c(c3[H])C([H])([N+]([H])([H])C([H])([H])C([H])([H])C([H])([H])C([H])([H])C([H])(C([H])([H])C([H])([H])C([H])([H])C([H])([H])N([H])C(=O)N3C([H])([H])C([H])([H])C([H])([H])C([H])(n5nc(-c6c([H])c([H])c(Oc7c([H])c([H])c(F)c([H])c7F)c([H])c6[H])c(C(=O)N([H])[H])c5N([H])[H])C3([H])[H])[N+]([H])([H])[H])C([H])([H])C([H])([H])C4([H])[H])c([H])c([H])c2C1([H])[H]

$$$$
17:0:0
     RDKit          3D

 96104  0  0  1  0  0  0  0  0999 V2000
  -28.4740  -21.0390   21.1030 C   0  0  0  0  0  3  0  0  0  0  0  0
  -27.9160  -20.8220   19.8120 C   0  0  0  0  0  0  0  0  0  0  0  0
  -28.4710  -22.3980   21.2920 C   0  0  0  0  0  0  0  0  0  0  0  0
  -27.6240  -22.0350   19.2660 C   0  0  0  0  0  0  0  0  0  0  0  0
  -27.9510  -23.0390   20.1650 N   0  0  0  0  0  0  0  0  0  0  0  0
  -27.6570  -19.6030   19.1720 N   0  0  0  0  0  0  0  0  0  0  0  0
  -27.2450  -19.5830   18.2440 H   0  0  0  0  0  0  0  0  0  0  0  0
  -28.0790  -18.3360   19.7550 C   0  0  0  0  0  2  0  0  0  0  0  0
  -29.5860  -18.0860   19.5620 C   0  0  0  0  0  2  0  0  0  0  0  0
  -29.9690  -16.6190   19.2630 C   0  0  0  0  0  2  0  0  0  0  0  0
  -30.7570  -14.5090   20.1060 C   0  0  0  0  0  0  0  0  0  0  0  0
  -30.3750  -12.3690   18.9570 C   0  0  0  0  0  2  0  0  0  0  0  0
  -29.3920  -12.5960   17.7900 C   0  0  0  0  0  2  0  0  0  0  0  0
  -27.9320  -12.4720   18.2700 C   0  0  0  0  0  2  0  0  0  0  0  0
  -27.6490  -13.2910   19.5580 C   0  0  0  0  0  3  0  0  0  0  0  0
  -28.7460  -13.0510   20.6160 C   0  0  0  0  0  2  0  0  0  0  0  0
  -30.0460  -13.3530   20.0000 N   0  0  0  0  0  0  0  0  0  0  0  0
  -31.8910  -14.6250   19.6280 O   0  0  0  0  0  0  0  0  0  0  0  0
  -30.0350  -15.6270   20.3690 N   0  0  0  0  0  0  0  0  0  0  0  0
  -25.2820  -13.8930   20.3670 C   0  0  0  0  0  0  0  0  0  0  0  0
  -24.2290  -13.1170   20.7740 C   0  0  0  0  0  0  0  0  0  0  0  0
  -24.6890  -11.7660   20.7170 C   0  0  0  0  0  0  0  0  0  0  0  0
  -26.3170  -13.0120   20.0900 N   0  0  0  0  0  0  0  0  0  0  0  0
  -25.9650  -11.7290   20.3580 N   0  0  0  0  0  0  0  0  0  0  0  0
  -23.9710  -10.5020   20.9280 C   0  0  0  0  0  0  0  0  0  0  0  0
  -24.4280   -9.5400   21.8560 C   0  0  0  0  0  3  0  0  0  0  0  0
  -23.7090   -8.3420   22.0550 C   0  0  0  0  0  3  0  0  0  0  0  0
  -22.5210   -8.0960   21.3260 C   0  0  0  0  0  0  0  0  0  0  0  0
  -22.0840   -9.0470   20.3870 C   0  0  0  0  0  3  0  0  0  0  0  0
  -22.8020  -10.2370   20.1860 C   0  0  0  0  0  3  0  0  0  0  0  0
  -21.7720   -6.9500   21.4350 O   0  0  0  0  0  0  0  0  0  0  0  0
  -21.7290   -6.2250   22.5990 C   0  0  0  0  0  0  0  0  0  0  0  0
  -21.3160   -6.8000   23.8200 C   0  0  0  0  0  3  0  0  0  0  0  0
  -21.2230   -6.0010   24.9780 C   0  0  0  0  0  3  0  0  0  0  0  0
  -21.5310   -4.6300   24.9150 C   0  0  0  0  0  0  0  0  0  0  0  0
  -21.9360   -4.0530   23.6970 C   0  0  0  0  0  3  0  0  0  0  0  0
  -22.0320   -4.8490   22.5420 C   0  0  0  0  0  0  0  0  0  0  0  0
  -22.4040   -4.2840   21.3680 F   0  0  0  0  0  0  0  0  0  0  0  0
  -21.4320   -3.8600   26.0240 F   0  0  0  0  0  0  0  0  0  0  0  0
  -22.8430  -13.5930   21.1060 C   0  0  0  0  0  0  0  0  0  0  0  0
  -22.1510  -12.8920   21.9970 N   0  0  0  0  0  0  0  0  0  0  0  0
  -22.3840  -14.6210   20.6090 O   0  0  0  0  0  0  0  0  0  0  0  0
  -22.5350  -12.0600   22.4200 H   0  0  0  0  0  0  0  0  0  0  0  0
  -21.2230  -13.1910   22.2610 H   0  0  0  0  0  0  0  0  0  0  0  0
  -25.4430  -15.2630   20.1910 N   0  0  0  0  0  0  0  0  0  0  0  0
  -24.6880  -15.9240   20.3410 H   0  0  0  0  0  0  0  0  0  0  0  0
  -26.2930  -15.6980   19.8590 H   0  0  0  0  0  0  0  0  0  0  0  0
  -31.1240  -16.6880   22.3730 C   0  0  0  0  0  1  0  0  0  0  0  0
  -29.8480  -16.0910   21.7570 C   0  0  0  0  0  2  0  0  0  0  0  0
  -28.8700  -23.1000   22.3880 O   0  0  0  0  0  0  0  0  0  0  0  0
  -29.2150  -22.4800   23.0230 H   0  0  0  0  0  0  0  0  0  0  0  0
  -27.0620  -22.3150   18.0570 O   0  0  0  0  0  0  0  0  0  0  0  0
  -26.8960  -21.4820   17.6320 H   0  0  0  0  0  0  0  0  0  0  0  0
  -27.6500  -24.4490   19.9320 C   0  0  0  0  0  2  0  0  0  0  0  0
  -28.4580  -25.5070   20.7130 C   0  0  0  0  0  2  0  0  0  0  0  0
  -28.4240  -26.8200   20.1290 O   0  0  0  0  0  0  0  0  0  0  0  0
  -24.5950  -31.9490   23.2660 C   0  0  0  0  0  0  0  0  0  0  0  0
  -27.2350  -27.5160   20.1800 C   0  0  0  0  0  0  0  0  0  0  0  0
  -23.3840  -30.5470   21.6280 C   0  0  0  0  0  3  0  0  0  0  0  0
  -24.8350  -29.0120   20.2070 C   0  0  0  0  0  0  0  0  0  0  0  0
  -25.9110  -30.9060   21.4290 C   0  0  0  0  0  2  0  0  0  0  0  0
  -25.9930  -29.5320   20.8000 C   0  0  0  0  0  0  0  0  0  0  0  0
  -27.1940  -28.7880   20.7920 C   0  0  0  0  0  3  0  0  0  0  0  0
  -26.0680  -27.0300   19.5510 C   0  0  0  0  0  3  0  0  0  0  0  0
  -24.8660  -27.7540   19.5840 C   0  0  0  0  0  3  0  0  0  0  0  0
  -23.5920  -29.8690   20.2490 C   0  0  0  0  0  2  0  0  0  0  0  0
  -24.6470  -31.1490   22.1650 N   0  0  0  0  0  0  0  0  0  0  0  0
  -23.5130  -32.2210   23.8080 O   0  0  0  0  0  0  0  0  0  0  0  0
  -22.7370  -29.5230   22.5880 C   0  0  0  0  0  0  0  0  0  0  0  0
  -21.4120  -29.3410   22.4620 N   0  0  0  0  0  0  0  0  0  0  0  0
  -23.4230  -28.8970   23.4000 O   0  0  0  0  0  0  0  0  0  0  0  0
  -20.9210  -29.8970   21.7760 H   0  0  0  0  0  0  0  0  0  0  0  0
  -18.0400  -28.1540   22.9620 C   0  0  0  0  0  0  0  0  0  0  0  0
  -20.5980  -28.4040   23.2320 C   0  0  0  0  0  3  0  0  0  0  0  0
  -20.6970  -26.9730   22.6550 C   0  0  0  0  0  2  0  0  0  0  0  0
  -19.5930  -26.6540   21.6420 C   0  0  0  0  0  2  0  0  0  0  0  0
  -18.2120  -26.8030   22.2880 C   0  0  0  0  0  2  0  0  0  0  0  0
  -19.1610  -28.9110   23.3920 C   0  0  0  0  0  0  0  0  0  0  0  0
  -18.9470  -30.1760   23.9810 C   0  0  0  0  0  3  0  0  0  0  0  0
  -17.6440  -30.6820   24.1480 C   0  0  0  0  0  3  0  0  0  0  0  0
  -16.5370  -29.9210   23.7370 C   0  0  0  0  0  3  0  0  0  0  0  0
  -16.7360  -28.6580   23.1490 C   0  0  0  0  0  3  0  0  0  0  0  0
  -25.8830  -32.5790   23.8820 C   0  0  0  0  0  3  0  0  0  0  0  0
  -26.4040  -31.8100   25.1580 C   0  0  1  0  0  0  0  0  0  0  0  0
  -25.3130  -31.5720   26.2280 C   0  0  0  0  0  1  0  0  0  0  0  0
  -26.9870  -30.4330   24.7650 C   0  0  0  0  0  1  0  0  0  0  0  0
  -27.5540  -32.6060   25.8170 C   0  0  0  0  0  1  0  0  0  0  0  0
  -25.5780  -33.9790   24.2070 N   0  0  0  0  0  0  0  0  0  0  0  0
  -25.9060  -35.0270   23.4390 C   0  0  0  0  0  0  0  0  0  0  0  0
  -26.5730  -34.9190   22.4060 O   0  0  0  0  0  0  0  0  0  0  0  0
  -24.9880  -34.1390   25.0100 H   0  0  0  0  0  0  0  0  0  0  0  0
  -24.1740  -36.8140   23.0820 C   0  0  0  0  0  1  0  0  0  0  0  0
  -25.4200  -36.4180   23.8890 C   0  0  0  0  0  3  0  0  0  0  0  0
  -27.5570  -37.3080   24.7040 C   0  0  0  0  0  1  0  0  0  0  0  0
  -26.4510  -37.4710   23.7650 N   0  0  0  0  0  0  0  0  0  0  0  0
  -26.0430  -38.3910   23.9110 H   0  0  0  0  0  0  0  0  0  0  0  0
  1  3  2  0
  2  1  1  0
  3 50  1  0
  4  2  2  0
  4  5  1  0
  5  3  1  0
  6  8  1  0
  6  2  1  0
  7  6  1  0
  9  8  1  0
 10  9  1  0
 10 19  1  0
 11 19  1  0
 12 17  1  0
 13 14  1  0
 13 12  1  0
 15 14  1  0
 15 23  1  0
 15 16  1  0
 17 11  1  0
 17 16  1  0
 18 11  2  0
 19 49  1  0
 20 21  2  0
 21 40  1  0
 22 21  1  0
 22 25  1  0
 23 24  1  0
 23 20  1  0
 24 22  2  0
 25 26  1  0
 26 27  2  0
 28 31  1  0
 28 27  1  0
 29 28  2  0
 30 29  1  0
 30 25  2  0
 31 32  1  0
 32 33  1  0
 33 34  2  0
 35 34  1  0
 35 39  1  0
 36 35  2  0
 37 32  2  0
 37 36  1  0
 38 37  1  0
 40 41  1  0
 41 44  1  0
 41 43  1  0
 42 40  2  0
 45 46  1  0
 45 20  1  0
 47 45  1  0
 49 48  1  0
 50 51  1  0
 52  4  1  0
 53 52  1  0
 54  5  1  0
 54 55  1  0
 56 58  1  0
 56 55  1  0
 57 68  2  0
 58 63  1  0
 59 67  1  0
 59 69  1  0
 60 66  1  0
 60 62  1  0
 61 67  1  0
 62 61  1  0
 63 62  2  0
 64 65  1  0
 64 58  2  0
 65 60  2  0
 66 59  1  0
 67 57  1  0
 69 71  2  0
 70 69  1  0
 72 70  1  0
 73 82  2  0
 73 78  1  0
 74 70  1  0
 74 78  1  0
 75 74  1  0
 76 77  1  0
 76 75  1  0
 77 73  1  0
 78 79  2  0
 79 80  1  0
 81 80  2  0
 82 81  1  0
 83 57  1  0
 83 88  1  0
 83 84  1  0
 84 87  1  1
 84 85  1  0
 86 84  1  0
 88 91  1  0
 89 93  1  0
 89 88  1  0
 90 89  2  0
 93 92  1  0
 95 93  1  0
 95 96  1  0
 95 94  1  0
M  ISO  4  11 100  19 100  55 101  56 101
M  END
>  <TORSDO>  (18) 
F 25

>  <SCORE>  (18) 
-12.646

>  <name>  (18) 
17

>  <ligand_id>  (18) 
17

>  <original_smiles>  (18) 
[H]Oc1c([H])c(N([H])C([H])([H])C([H])([H])C([H])([H])N(C(=O)N2C([H])([H])C([H])([H])C([H])([H])C([H])(n3nc(-c4c([H])c([H])c(Oc5c([H])c([H])c(F)c([H])c5F)c([H])c4[H])c(C(=O)N([H])[H])c3N([H])[H])C2([H])[H])C([H])([H])C([H])([H])[H])c(O[H])n1C([H])([H])C([H])([H])Oc1c([H])c([H])c2c(c1[H])C([H])([H])N(C(=O)C([H])(N([H])C(=O)C([H])(N([H])C([H])([H])[H])C([H])([H])[H])C(C([H])([H])[H])(C([H])([H])[H])C([H])([H])[H])C([H])(C(=O)N([H])C1([H])c3c([H])c([H])c([H])c([H])c3C([H])([H])C([H])([H])C1([H])[H])C2([H])[H]

>  <smiles>  (18) 
[H]Oc1c([H])c(N([H])C([H])([H])C([H])([H])C([H])([H])N(C(=O)N2C([H])([H])C([H])([H])C([H])([H])C([H])(n3nc(-c4c([H])c([H])c(Oc5c([H])c([H])c(F)c([H])c5F)c([H])c4[H])c(C(=O)N([H])[H])c3N([H])[H])C2([H])[H])C([H])([H])C([H])([H])[H])c(O[H])n1C([H])([H])C([H])([H])Oc1c([H])c([H])c2c(c1[H])C([H])([H])N(C(=O)C([H])(N([H])C(=O)C([H])(N([H])C([H])([H])[H])C([H])([H])[H])C(C([H])([H])[H])(C([H])([H])[H])C([H])([H])[H])C([H])(C(=O)N([H])C1([H])c3c([H])c([H])c([H])c([H])c3C([H])([H])C([H])([H])C1([H])[H])C2([H])[H]

$$$$
18:0:0
     RDKit          3D

101109  0  0  1  0  0  0  0  0999 V2000
  -34.3610  -27.4130   19.1200 N   0  0  0  0  0  4  0  0  0  0  0  0
  -35.3370  -27.6520   19.0710 H   0  0  0  0  0  0  0  0  0  0  0  0
  -33.9970  -27.4900   18.1870 H   0  0  0  0  0  0  0  0  0  0  0  0
  -33.7730  -28.4500   19.9990 C   0  0  0  0  0  2  0  0  0  0  0  0
  -31.4350  -28.4290   19.0400 C   0  0  0  0  0  3  0  0  0  0  0  0
  -31.7700  -27.6910   21.3500 C   0  0  0  0  0  3  0  0  0  0  0  0
  -30.1080  -27.9630   19.0880 C   0  0  0  0  0  3  0  0  0  0  0  0
  -30.4440  -27.2240   21.3920 C   0  0  0  0  0  3  0  0  0  0  0  0
  -32.2810  -28.2310   20.1500 C   0  0  0  0  0  0  0  0  0  0  0  0
  -29.6350  -27.3180   20.2490 C   0  0  0  0  0  0  0  0  0  0  0  0
  -28.4110  -26.7160   20.2740 O   0  0  0  0  0  0  0  0  0  0  0  0
  -24.6060  -31.9620   23.2510 C   0  0  0  0  0  0  0  0  0  0  0  0
  -27.2800  -27.4860   20.2920 C   0  0  0  0  0  0  0  0  0  0  0  0
  -23.4150  -30.5150   21.6350 C   0  0  0  0  0  3  0  0  0  0  0  0
  -24.8790  -28.9480   20.2630 C   0  0  0  0  0  0  0  0  0  0  0  0
  -25.9350  -30.8850   21.4470 C   0  0  0  0  0  2  0  0  0  0  0  0
  -26.0270  -29.5010   20.8450 C   0  0  0  0  0  0  0  0  0  0  0  0
  -27.2290  -28.7730   20.8720 C   0  0  0  0  0  3  0  0  0  0  0  0
  -26.1200  -26.9370   19.7150 C   0  0  0  0  0  3  0  0  0  0  0  0
  -24.9150  -27.6610   19.7000 C   0  0  0  0  0  3  0  0  0  0  0  0
  -23.6360  -29.8020   20.2730 C   0  0  0  0  0  2  0  0  0  0  0  0
  -24.6700  -31.1350   22.1690 N   0  0  0  0  0  0  0  0  0  0  0  0
  -23.5200  -32.2450   23.7740 O   0  0  0  0  0  0  0  0  0  0  0  0
  -22.7610  -29.5150   22.6160 C   0  0  0  0  0  0  0  0  0  0  0  0
  -21.4380  -29.3310   22.4870 N   0  0  0  0  0  0  0  0  0  0  0  0
  -23.4390  -28.9080   23.4500 O   0  0  0  0  0  0  0  0  0  0  0  0
  -20.9510  -29.8740   21.7870 H   0  0  0  0  0  0  0  0  0  0  0  0
  -18.0590  -28.1610   22.9850 C   0  0  0  0  0  0  0  0  0  0  0  0
  -20.6150  -28.4140   23.2720 C   0  0  0  0  0  3  0  0  0  0  0  0
  -20.7170  -26.9700   22.7310 C   0  0  0  0  0  2  0  0  0  0  0  0
  -19.6230  -26.6280   21.7150 C   0  0  0  0  0  2  0  0  0  0  0  0
  -18.2360  -26.7950   22.3450 C   0  0  0  0  0  2  0  0  0  0  0  0
  -19.1770  -28.9290   23.4070 C   0  0  0  0  0  0  0  0  0  0  0  0
  -18.9590  -30.2090   23.9630 C   0  0  0  0  0  3  0  0  0  0  0  0
  -17.6560  -30.7200   24.1070 C   0  0  0  0  0  3  0  0  0  0  0  0
  -16.5520  -29.9480   23.7020 C   0  0  0  0  0  3  0  0  0  0  0  0
  -16.7540  -28.6720   23.1470 C   0  0  0  0  0  3  0  0  0  0  0  0
  -25.8890  -32.6120   23.8620 C   0  0  0  0  0  3  0  0  0  0  0  0
  -25.5660  -34.0080   24.1810 N   0  0  0  0  0  0  0  0  0  0  0  0
  -25.9010  -35.0570   23.4200 C   0  0  0  0  0  0  0  0  0  0  0  0
  -26.5860  -34.9530   22.3970 O   0  0  0  0  0  0  0  0  0  0  0  0
  -24.9550  -34.1630   24.9720 H   0  0  0  0  0  0  0  0  0  0  0  0
  -24.1740  -36.8420   23.0230 C   0  0  0  0  0  1  0  0  0  0  0  0
  -25.3980  -36.4440   23.8620 C   0  0  0  0  0  3  0  0  0  0  0  0
  -27.5110  -37.3380   24.7370 C   0  0  0  0  0  1  0  0  0  0  0  0
  -26.4270  -37.5010   23.7710 N   0  0  0  0  0  0  0  0  0  0  0  0
  -26.0110  -38.4170   23.9150 H   0  0  0  0  0  0  0  0  0  0  0  0
  -26.4210  -31.8530   25.1390 C   0  0  1  0  0  0  0  0  0  0  0  0
  -25.3380  -31.6100   26.2140 C   0  0  0  0  0  1  0  0  0  0  0  0
  -27.0150  -30.4780   24.7500 C   0  0  0  0  0  1  0  0  0  0  0  0
  -27.5640  -32.6650   25.7940 C   0  0  0  0  0  1  0  0  0  0  0  0
  -34.3090  -26.0020   19.5850 C   0  0  0  0  0  2  0  0  0  0  0  0
  -33.0280  -25.2050   19.2190 C   0  0  0  0  0  2  0  0  0  0  0  0
  -33.1680  -23.7250   19.6220 C   0  0  0  0  0  2  0  0  0  0  0  0
  -31.8740  -22.8790   19.5820 C   0  0  0  0  0  2  0  0  0  0  0  0
  -32.2030  -21.3760   19.7130 C   0  0  0  0  0  2  0  0  0  0  0  0
  -31.0400  -20.5030   20.0000 N   0  0  0  0  0  4  0  0  0  0  0  0
  -30.2460  -20.8080   19.4600 H   0  0  0  0  0  0  0  0  0  0  0  0
  -30.8110  -20.5880   20.9750 H   0  0  0  0  0  0  0  0  0  0  0  0
  -31.3000  -19.0800   19.6780 C   0  0  0  0  0  2  0  0  0  0  0  0
  -30.3940  -18.0720   20.4370 C   0  0  0  0  0  2  0  0  0  0  0  0
  -29.4120  -16.7290   18.5160 C   0  0  0  0  0  1  0  0  0  0  0  0
  -30.3520  -16.6950   19.7330 C   0  0  0  0  0  3  0  0  0  0  0  0
  -30.7070  -14.5090   20.8430 C   0  0  0  0  0  0  0  0  0  0  0  0
  -30.4810  -12.2920   19.8720 C   0  0  0  0  0  2  0  0  0  0  0  0
  -29.6380  -12.4530   18.5920 C   0  0  0  0  0  2  0  0  0  0  0  0
  -28.1300  -12.3480   18.9080 C   0  0  0  0  0  2  0  0  0  0  0  0
  -27.6950  -13.2230   20.1160 C   0  0  0  0  0  3  0  0  0  0  0  0
  -28.6760  -13.0850   21.3040 C   0  0  0  0  0  2  0  0  0  0  0  0
  -30.0380  -13.3310   20.8100 N   0  0  0  0  0  0  0  0  0  0  0  0
  -31.9260  -14.6000   20.6930 O   0  0  0  0  0  0  0  0  0  0  0  0
  -29.9310  -15.5850   20.6130 N   0  0  0  0  0  0  0  0  0  0  0  0
  -28.9390  -15.4350   20.7070 H   0  0  0  0  0  0  0  0  0  0  0  0
  -25.2570  -13.8230   20.6650 C   0  0  0  0  0  0  0  0  0  0  0  0
  -24.1750  -13.0450   20.9730 C   0  0  0  0  0  0  0  0  0  0  0  0
  -24.6480  -11.6960   21.0060 C   0  0  0  0  0  0  0  0  0  0  0  0
  -26.3190  -12.9440   20.5160 N   0  0  0  0  0  0  0  0  0  0  0  0
  -25.9560  -11.6640   20.7840 N   0  0  0  0  0  0  0  0  0  0  0  0
  -23.9240  -10.4310   21.1760 C   0  0  0  0  0  0  0  0  0  0  0  0
  -24.3220   -9.4760   22.1350 C   0  0  0  0  0  3  0  0  0  0  0  0
  -23.5990   -8.2730   22.2880 C   0  0  0  0  0  3  0  0  0  0  0  0
  -22.4610   -8.0220   21.4820 C   0  0  0  0  0  0  0  0  0  0  0  0
  -22.0830   -8.9670   20.5130 C   0  0  0  0  0  3  0  0  0  0  0  0
  -22.8070  -10.1600   20.3610 C   0  0  0  0  0  3  0  0  0  0  0  0
  -21.7140   -6.8720   21.5400 O   0  0  0  0  0  0  0  0  0  0  0  0
  -21.6440   -6.1190   22.6850 C   0  0  0  0  0  0  0  0  0  0  0  0
  -21.1960   -6.6640   23.9090 C   0  0  0  0  0  3  0  0  0  0  0  0
  -21.0740   -5.8370   25.0430 C   0  0  0  0  0  3  0  0  0  0  0  0
  -21.3830   -4.4670   24.9570 C   0  0  0  0  0  0  0  0  0  0  0  0
  -21.8180   -3.9220   23.7350 C   0  0  0  0  0  3  0  0  0  0  0  0
  -21.9460   -4.7450   22.6040 C   0  0  0  0  0  0  0  0  0  0  0  0
  -22.3480   -4.2080   21.4270 F   0  0  0  0  0  0  0  0  0  0  0  0
  -21.2540   -3.6730   26.0460 F   0  0  0  0  0  0  0  0  0  0  0  0
  -22.7570  -13.5110   21.1400 C   0  0  0  0  0  0  0  0  0  0  0  0
  -21.9800  -12.8250   21.9670 N   0  0  0  0  0  0  0  0  0  0  0  0
  -22.3460  -14.5230   20.5730 O   0  0  0  0  0  0  0  0  0  0  0  0
  -22.3250  -12.0090   22.4500 H   0  0  0  0  0  0  0  0  0  0  0  0
  -21.0240  -13.1190   22.1150 H   0  0  0  0  0  0  0  0  0  0  0  0
  -25.4200  -15.1960   20.4770 N   0  0  0  0  0  0  0  0  0  0  0  0
  -24.6350  -15.8350   20.5080 H   0  0  0  0  0  0  0  0  0  0  0  0
  -26.2770  -15.6480   20.1840 H   0  0  0  0  0  0  0  0  0  0  0  0
  1 52  1  0
  1  4  1  0
  2  1  1  0
  3  1  1  0
  4  9  1  0
  5  7  2  0
  5  9  1  0
  6  8  1  0
  7 10  1  0
  9  6  2  0
 10 11  1  0
 10  8  2  0
 11 13  1  0
 12 23  2  0
 13 18  1  0
 14 22  1  0
 14 24  1  0
 15 21  1  0
 15 17  1  0
 16 22  1  0
 17 18  2  0
 17 16  1  0
 19 13  2  0
 20 19  1  0
 20 15  2  0
 21 14  1  0
 22 12  1  0
 24 26  2  0
 25 24  1  0
 27 25  1  0
 28 37  2  0
 28 33  1  0
 29 25  1  0
 29 33  1  0
 30 29  1  0
 31 32  1  0
 31 30  1  0
 32 28  1  0
 33 34  2  0
 34 35  1  0
 36 35  2  0
 37 36  1  0
 38 12  1  0
 38 39  1  0
 38 48  1  0
 39 42  1  0
 40 44  1  0
 40 39  1  0
 41 40  2  0
 44 43  1  0
 46 44  1  0
 46 47  1  0
 46 45  1  0
 48 51  1  1
 48 49  1  0
 50 48  1  0
 53 52  1  0
 53 54  1  0
 55 54  1  0
 55 56  1  0
 56 57  1  0
 57 59  1  0
 58 57  1  0
 60 57  1  0
 60 61  1  0
 63 62  1  0
 63 61  1  0
 63 72  1  0
 65 70  1  0
 66 67  1  0
 66 65  1  0
 68 67  1  0
 68 77  1  0
 68 69  1  0
 70 64  1  0
 70 69  1  0
 71 64  2  0
 72 73  1  0
 72 64  1  0
 74 75  2  0
 75 76  1  0
 75 94  1  0
 76 79  1  0
 77 74  1  0
 77 78  1  0
 78 76  2  0
 79 80  1  0
 80 81  2  0
 82 85  1  0
 82 81  1  0
 83 82  2  0
 84 83  1  0
 84 79  2  0
 85 86  1  0
 86 87  1  0
 87 88  2  0
 89 88  1  0
 89 93  1  0
 90 89  2  0
 91 86  2  0
 91 90  1  0
 92 91  1  0
 94 95  1  0
 95 98  1  0
 95 97  1  0
 96 94  2  0
 99100  1  0
 99 74  1  0
101 99  1  0
M  ISO  4  10 101  11 101  64 100  72 100
M  END
>  <TORSDO>  (19) 
F 27

>  <SCORE>  (19) 
-11.379

>  <name>  (19) 
18

>  <ligand_id>  (19) 
18

>  <original_smiles>  (19) 
[H]c1c([H])c([H])c2c(c1[H])C([H])([H])C([H])([H])C([H])([H])C2([H])N([H])C(=O)C1([H])N(C(=O)C([H])(N([H])C(=O)C([H])(N([H])C([H])([H])[H])C([H])([H])[H])C(C([H])([H])[H])(C([H])([H])[H])C([H])([H])[H])C([H])([H])c2c([H])c(Oc3c([H])c([H])c(C([H])([H])[N+]([H])([H])C([H])([H])C([H])([H])C([H])([H])C([H])([H])C([H])([H])[N+]([H])([H])C([H])([H])C([H])([H])C([H])(N([H])C(=O)N4C([H])([H])C([H])([H])C([H])([H])C([H])(n5nc(-c6c([H])c([H])c(Oc7c([H])c([H])c(F)c([H])c7F)c([H])c6[H])c(C(=O)N([H])[H])c5N([H])[H])C4([H])[H])C([H])([H])[H])c([H])c3[H])c([H])c([H])c2C1([H])[H]

>  <smiles>  (19) 
[H]c1c([H])c([H])c2c(c1[H])C([H])([H])C([H])([H])C([H])([H])C2([H])N([H])C(=O)C1([H])N(C(=O)C([H])(N([H])C(=O)C([H])(N([H])C([H])([H])[H])C([H])([H])[H])C(C([H])([H])[H])(C([H])([H])[H])C([H])([H])[H])C([H])([H])c2c([H])c(Oc3c([H])c([H])c(C([H])([H])[N+]([H])([H])C([H])([H])C([H])([H])C([H])([H])C([H])([H])C([H])([H])[N+]([H])([H])C([H])([H])C([H])([H])C([H])(N([H])C(=O)N4C([H])([H])C([H])([H])C([H])([H])C([H])(n5nc(-c6c([H])c([H])c(Oc7c([H])c([H])c(F)c([H])c7F)c([H])c6[H])c(C(=O)N([H])[H])c5N([H])[H])C4([H])[H])C([H])([H])[H])c([H])c3[H])c([H])c([H])c2C1([H])[H]

$$$$
19:0:0
     RDKit          3D

108117  0  0  1  0  0  0  0  0999 V2000
  -35.5000  -28.1560   20.5120 C   0  0  0  0  0  3  0  0  0  0  0  0
  -33.5060  -29.5660   20.4520 C   0  0  0  0  0  3  0  0  0  0  0  0
  -33.3150  -27.2090   21.0380 C   0  0  0  0  0  3  0  0  0  0  0  0
  -34.9010  -29.4200   20.3130 C   0  0  0  0  0  0  0  0  0  0  0  0
  -34.7060  -27.0460   20.8780 C   0  0  0  0  0  0  0  0  0  0  0  0
  -32.7050  -28.4580   20.8000 C   0  0  0  0  0  0  0  0  0  0  0  0
  -35.7540  -30.6220   19.9520 C   0  0  0  0  0  1  0  0  0  0  0  0
  -35.3140  -25.6630   21.0660 C   0  0  0  0  0  2  0  0  0  0  0  0
  -34.5500  -24.6940   20.2580 N   0  0  0  0  0  4  0  0  0  0  0  0
  -35.0850  -24.4810   19.4320 H   0  0  0  0  0  0  0  0  0  0  0  0
  -33.7150  -25.1660   19.9570 H   0  0  0  0  0  0  0  0  0  0  0  0
  -34.1550  -23.4420   20.9410 C   0  0  0  0  0  2  0  0  0  0  0  0
  -33.5760  -22.4410   19.9220 C   0  0  0  0  0  2  0  0  0  0  0  0
  -31.5920  -19.9720   22.1490 C   0  0  0  0  0  3  0  0  0  0  0  0
  -32.2090  -21.1640   21.7160 C   0  0  0  0  0  3  0  0  0  0  0  0
  -31.6270  -18.8150   21.3430 C   0  0  0  0  0  3  0  0  0  0  0  0
  -32.9030  -20.0370   19.6720 C   0  0  0  0  0  3  0  0  0  0  0  0
  -32.8770  -21.2000   20.4700 C   0  0  0  0  0  0  0  0  0  0  0  0
  -32.2860  -18.8430   20.0940 C   0  0  0  0  0  0  0  0  0  0  0  0
  -32.3650  -17.7400   19.2350 N   0  0  0  0  0  0  0  0  0  0  0  0
  -32.9370  -17.8080   18.3970 H   0  0  0  0  0  0  0  0  0  0  0  0
  -31.7580  -16.4520   19.5310 C   0  0  0  0  0  2  0  0  0  0  0  0
  -32.4500  -15.7320   20.7010 C   0  0  0  0  0  2  0  0  0  0  0  0
  -32.2470  -13.2690   20.3610 C   0  0  0  0  0  0  0  0  0  0  0  0
  -31.7110  -10.8840   20.0320 C   0  0  0  0  0  2  0  0  0  0  0  0
  -30.8240  -10.6660   18.7920 C   0  0  0  0  0  2  0  0  0  0  0  0
  -29.3340  -10.8450   19.1420 C   0  0  0  0  0  2  0  0  0  0  0  0
  -29.0630  -12.1570   19.9250 C   0  0  0  0  0  3  0  0  0  0  0  0
  -30.0450  -12.2930   21.1090 C   0  0  0  0  0  2  0  0  0  0  0  0
  -31.4230  -12.2130   20.5870 N   0  0  0  0  0  0  0  0  0  0  0  0
  -33.2990  -13.1810   19.7200 O   0  0  0  0  0  0  0  0  0  0  0  0
  -31.8450  -14.4210   20.9100 N   0  0  0  0  0  0  0  0  0  0  0  0
  -30.9980  -14.3880   21.4600 H   0  0  0  0  0  0  0  0  0  0  0  0
  -26.8740  -13.3510   20.5750 C   0  0  0  0  0  0  0  0  0  0  0  0
  -25.6400  -12.8710   20.9250 C   0  0  0  0  0  0  0  0  0  0  0  0
  -25.7510  -11.4470   20.9090 C   0  0  0  0  0  0  0  0  0  0  0  0
  -27.6730  -12.2360   20.3690 N   0  0  0  0  0  0  0  0  0  0  0  0
  -26.9960  -11.0860   20.6230 N   0  0  0  0  0  0  0  0  0  0  0  0
  -24.7340  -10.4050   21.0890 C   0  0  0  0  0  0  0  0  0  0  0  0
  -24.9000   -9.3650   22.0290 C   0  0  0  0  0  3  0  0  0  0  0  0
  -23.9000   -8.3820   22.1950 C   0  0  0  0  0  3  0  0  0  0  0  0
  -22.7160   -8.4370   21.4210 C   0  0  0  0  0  0  0  0  0  0  0  0
  -22.5670   -9.4610   20.4680 C   0  0  0  0  0  3  0  0  0  0  0  0
  -23.5660  -10.4350   20.3000 C   0  0  0  0  0  3  0  0  0  0  0  0
  -21.7000   -7.5150   21.4990 O   0  0  0  0  0  0  0  0  0  0  0  0
  -21.4860   -6.7710   22.6310 C   0  0  0  0  0  0  0  0  0  0  0  0
  -21.1710   -7.3740   23.8700 C   0  0  0  0  0  3  0  0  0  0  0  0
  -20.8920   -6.5690   24.9920 C   0  0  0  0  0  3  0  0  0  0  0  0
  -20.9160   -5.1650   24.8760 C   0  0  0  0  0  0  0  0  0  0  0  0
  -21.2230   -4.5650   23.6430 C   0  0  0  0  0  3  0  0  0  0  0  0
  -21.5040   -5.3660   22.5220 C   0  0  0  0  0  0  0  0  0  0  0  0
  -21.7790   -4.7830   21.3310 F   0  0  0  0  0  0  0  0  0  0  0  0
  -20.6390   -4.3910   25.9520 F   0  0  0  0  0  0  0  0  0  0  0  0
  -24.3990  -13.6810   21.1670 C   0  0  0  0  0  0  0  0  0  0  0  0
  -23.5220  -13.2120   22.0480 N   0  0  0  0  0  0  0  0  0  0  0  0
  -24.2250  -14.7630   20.6070 O   0  0  0  0  0  0  0  0  0  0  0  0
  -23.6740  -12.3350   22.5240 H   0  0  0  0  0  0  0  0  0  0  0  0
  -22.6810  -13.7360   22.2480 H   0  0  0  0  0  0  0  0  0  0  0  0
  -27.3800  -14.6350   20.4000 N   0  0  0  0  0  0  0  0  0  0  0  0
  -26.8050  -15.4660   20.4910 H   0  0  0  0  0  0  0  0  0  0  0  0
  -28.3260  -14.8370   20.1030 H   0  0  0  0  0  0  0  0  0  0  0  0
  -31.1920  -28.6050   20.9240 C   0  0  0  0  0  2  0  0  0  0  0  0
  -30.4650  -28.0690   19.7500 N   0  0  0  0  0  4  0  0  0  0  0  0
  -30.9580  -28.3530   18.9190 H   0  0  0  0  0  0  0  0  0  0  0  0
  -29.5660  -28.5200   19.7170 H   0  0  0  0  0  0  0  0  0  0  0  0
  -30.2830  -26.5950   19.7190 C   0  0  0  0  0  2  0  0  0  0  0  0
  -28.8730  -26.1680   19.2840 C   0  0  0  0  0  2  0  0  0  0  0  0
  -28.0480  -26.0870   20.4450 O   0  0  0  0  0  0  0  0  0  0  0  0
  -24.3120  -31.5010   23.1480 C   0  0  0  0  0  0  0  0  0  0  0  0
  -26.9130  -26.8500   20.3960 C   0  0  0  0  0  0  0  0  0  0  0  0
  -23.1160  -30.0610   21.5260 C   0  0  0  0  0  3  0  0  0  0  0  0
  -24.5670  -28.3950   20.2510 C   0  0  0  0  0  0  0  0  0  0  0  0
  -25.6550  -30.3250   21.4170 C   0  0  0  0  0  2  0  0  0  0  0  0
  -25.7120  -28.9190   20.8630 C   0  0  0  0  0  0  0  0  0  0  0  0
  -26.8880  -28.1450   20.9500 C   0  0  0  0  0  3  0  0  0  0  0  0
  -25.7520  -26.3220   19.7980 C   0  0  0  0  0  3  0  0  0  0  0  0
  -24.5740  -27.0910   19.7240 C   0  0  0  0  0  3  0  0  0  0  0  0
  -23.3550  -29.2950   20.1960 C   0  0  0  0  0  2  0  0  0  0  0  0
  -24.3770  -30.6430   22.0920 N   0  0  0  0  0  0  0  0  0  0  0  0
  -23.2210  -31.8430   23.6260 O   0  0  0  0  0  0  0  0  0  0  0  0
  -22.3850  -29.1190   22.5090 C   0  0  0  0  0  0  0  0  0  0  0  0
  -21.0550  -29.0170   22.3600 N   0  0  0  0  0  0  0  0  0  0  0  0
  -23.0140  -28.4810   23.3580 O   0  0  0  0  0  0  0  0  0  0  0  0
  -20.6170  -29.5830   21.6480 H   0  0  0  0  0  0  0  0  0  0  0  0
  -17.5920  -28.1310   22.8760 C   0  0  0  0  0  0  0  0  0  0  0  0
  -20.1640  -28.1630   23.1430 C   0  0  0  0  0  3  0  0  0  0  0  0
  -20.1390  -26.7230   22.5810 C   0  0  0  0  0  2  0  0  0  0  0  0
  -19.0110  -26.4890   21.5710 C   0  0  0  0  0  2  0  0  0  0  0  0
  -17.6500  -26.7620   22.2160 C   0  0  0  0  0  2  0  0  0  0  0  0
  -18.7750  -28.7950   23.2960 C   0  0  0  0  0  0  0  0  0  0  0  0
  -18.6710  -30.0810   23.8690 C   0  0  0  0  0  3  0  0  0  0  0  0
  -17.4160  -30.6980   24.0310 C   0  0  0  0  0  3  0  0  0  0  0  0
  -16.2480  -30.0290   23.6280 C   0  0  0  0  0  3  0  0  0  0  0  0
  -16.3370  -28.7480   23.0550 C   0  0  0  0  0  3  0  0  0  0  0  0
  -25.5970  -32.1100   23.7900 C   0  0  0  0  0  3  0  0  0  0  0  0
  -25.3040  -33.5100   24.1230 N   0  0  0  0  0  0  0  0  0  0  0  0
  -25.6950  -34.5590   23.3880 C   0  0  0  0  0  0  0  0  0  0  0  0
  -26.4090  -34.4480   22.3860 O   0  0  0  0  0  0  0  0  0  0  0  0
  -24.6670  -33.6680   24.8910 H   0  0  0  0  0  0  0  0  0  0  0  0
  -24.0350  -36.3980   22.9600 C   0  0  0  0  0  1  0  0  0  0  0  0
  -25.2190  -35.9530   23.8340 C   0  0  0  0  0  3  0  0  0  0  0  0
  -27.3200  -36.7820   24.7980 C   0  0  0  0  0  1  0  0  0  0  0  0
  -26.2830  -36.9790   23.7890 N   0  0  0  0  0  0  0  0  0  0  0  0
  -25.8920  -37.9090   23.9100 H   0  0  0  0  0  0  0  0  0  0  0  0
  -26.0830  -31.3210   25.0660 C   0  0  1  0  0  0  0  0  0  0  0  0
  -24.9760  -31.1180   26.1270 C   0  0  0  0  0  1  0  0  0  0  0  0
  -26.6220  -29.9270   24.6680 C   0  0  0  0  0  1  0  0  0  0  0  0
  -27.2540  -32.0710   25.7410 C   0  0  0  0  0  1  0  0  0  0  0  0
  1  5  1  0
  2  6  2  0
  4  2  1  0
  4  1  2  0
  5  3  2  0
  5  8  1  0
  6 62  1  0
  6  3  1  0
  7  4  1  0
  9 12  1  0
  9  8  1  0
 10  9  1  0
 11  9  1  0
 13 18  1  0
 13 12  1  0
 15 14  1  0
 16 14  2  0
 17 19  2  0
 17 18  1  0
 18 15  2  0
 19 16  1  0
 20 22  1  0
 20 19  1  0
 21 20  1  0
 22 23  1  0
 23 32  1  0
 24 30  1  0
 24 32  1  0
 25 30  1  0
 26 27  1  0
 26 25  1  0
 28 27  1  0
 28 37  1  0
 28 29  1  0
 30 29  1  0
 31 24  2  0
 32 33  1  0
 34 35  2  0
 35 54  1  0
 36 35  1  0
 36 39  1  0
 37 34  1  0
 37 38  1  0
 38 36  2  0
 39 40  1  0
 40 41  2  0
 42 45  1  0
 42 41  1  0
 43 42  2  0
 44 43  1  0
 44 39  2  0
 45 46  1  0
 46 47  1  0
 47 48  2  0
 49 48  1  0
 49 53  1  0
 50 49  2  0
 51 46  2  0
 51 50  1  0
 52 51  1  0
 54 55  1  0
 55 58  1  0
 55 57  1  0
 56 54  2  0
 59 60  1  0
 59 34  1  0
 61 59  1  0
 63 62  1  0
 64 63  1  0
 65 63  1  0
 66 63  1  0
 67 66  1  0
 67 68  1  0
 69 80  2  0
 70 68  1  0
 70 75  1  0
 71 79  1  0
 71 81  1  0
 72 74  1  0
 73 79  1  0
 74 75  2  0
 74 73  1  0
 76 70  2  0
 77 76  1  0
 77 72  2  0
 78 72  1  0
 78 71  1  0
 79 69  1  0
 81 83  2  0
 82 81  1  0
 84 82  1  0
 85 94  2  0
 85 90  1  0
 86 82  1  0
 86 90  1  0
 87 86  1  0
 88 89  1  0
 88 87  1  0
 89 85  1  0
 90 91  2  0
 91 92  1  0
 93 92  2  0
 94 93  1  0
 95 69  1  0
 95 96  1  0
 95105  1  0
 96 99  1  0
 97101  1  0
 97 96  1  0
 98 97  2  0
101100  1  0
103101  1  0
103104  1  0
103102  1  0
105108  1  1
105106  1  0
107105  1  0
M  ISO  4  24 100  32 100  67 101  68 101
M  END
>  <TORSDO>  (20) 
F 28

>  <SCORE>  (20) 
-9.149

>  <name>  (20) 
19

>  <ligand_id>  (20) 
19

>  <original_smiles>  (20) 
[H]c1c([H])c([H])c2c(c1[H])C([H])([H])C([H])([H])C([H])([H])C2([H])N([H])C(=O)C1([H])N(C(=O)C([H])(N([H])C(=O)C([H])(N([H])C([H])([H])[H])C([H])([H])[H])C(C([H])([H])[H])(C([H])([H])[H])C([H])([H])[H])C([H])([H])c2c([H])c(OC([H])([H])C([H])([H])[N+]([H])([H])C([H])([H])c3c([H])c(C([H])([H])[H])c([H])c(C([H])([H])[N+]([H])([H])C([H])([H])C([H])([H])c4c([H])c([H])c([H])c(N([H])C([H])([H])C([H])([H])N([H])C(=O)N5C([H])([H])C([H])([H])C([H])([H])C([H])(n6nc(-c7c([H])c([H])c(Oc8c([H])c([H])c(F)c([H])c8F)c([H])c7[H])c(C(=O)N([H])[H])c6N([H])[H])C5([H])[H])c4[H])c3[H])c([H])c([H])c2C1([H])[H]

>  <smiles>  (20) 
[H]c1c([H])c([H])c2c(c1[H])C([H])([H])C([H])([H])C([H])([H])C2([H])N([H])C(=O)C1([H])N(C(=O)C([H])(N([H])C(=O)C([H])(N([H])C([H])([H])[H])C([H])([H])[H])C(C([H])([H])[H])(C([H])([H])[H])C([H])([H])[H])C([H])([H])c2c([H])c(OC([H])([H])C([H])([H])[N+]([H])([H])C([H])([H])c3c([H])c(C([H])([H])[H])c([H])c(C([H])([H])[N+]([H])([H])C([H])([H])C([H])([H])c4c([H])c([H])c([H])c(N([H])C([H])([H])C([H])([H])N([H])C(=O)N5C([H])([H])C([H])([H])C([H])([H])C([H])(n6nc(-c7c([H])c([H])c(Oc8c([H])c([H])c(F)c([H])c8F)c([H])c7[H])c(C(=O)N([H])[H])c6N([H])[H])C5([H])[H])c4[H])c3[H])c([H])c([H])c2C1([H])[H]

$$$$
20:0:0
     RDKit          3D

 96104  0  0  1  0  0  0  0  0999 V2000
  -25.5520  -24.6660   21.7250 C   0  0  0  0  0  3  0  0  0  0  0  0
  -26.4240  -25.3840   22.5300 C   0  0  0  0  0  3  0  0  0  0  0  0
  -28.3230  -24.6930   21.1980 C   0  0  0  0  0  3  0  0  0  0  0  0
  -27.4800  -23.6420   20.7460 C   0  0  0  0  0  0  0  0  0  0  0  0
  -26.0700  -23.8410   20.7290 C   0  0  0  0  0  0  0  0  0  0  0  0
  -27.7930  -25.6020   22.1390 C   0  0  0  0  0  0  0  0  0  0  0  0
  -27.8990  -22.3170   21.2680 C   0  0  0  0  0  3  0  0  0  0  0  0
  -29.0670  -21.9370   21.3750 O   0  0  0  0  0  0  0  0  0  0  0  0
  -28.5560  -26.6630   22.6570 O   0  0  0  0  0  0  0  0  0  0  0  0
  -23.6690  -28.1940   27.4620 C   0  0  0  0  0  0  0  0  0  0  0  0
  -27.7390  -27.6910   23.0500 C   0  0  0  0  0  0  0  0  0  0  0  0
  -23.3220  -29.0840   25.1810 C   0  0  0  0  0  3  0  0  0  0  0  0
  -25.3760  -29.0700   23.6600 C   0  0  0  0  0  0  0  0  0  0  0  0
  -25.6800  -28.7360   26.1210 C   0  0  0  0  0  2  0  0  0  0  0  0
  -26.1610  -28.5480   24.6930 C   0  0  0  0  0  0  0  0  0  0  0  0
  -27.3400  -27.8450   24.3980 C   0  0  0  0  0  3  0  0  0  0  0  0
  -27.0140  -28.3660   22.0310 C   0  0  0  0  0  3  0  0  0  0  0  0
  -25.8010  -28.9790   22.3200 C   0  0  0  0  0  3  0  0  0  0  0  0
  -24.1150  -29.7850   24.0410 C   0  0  0  0  0  2  0  0  0  0  0  0
  -24.2130  -28.6330   26.2910 N   0  0  0  0  0  0  0  0  0  0  0  0
  -22.4510  -28.2140   27.6430 O   0  0  0  0  0  0  0  0  0  0  0  0
  -22.4470  -27.9410   24.6050 C   0  0  0  0  0  0  0  0  0  0  0  0
  -21.3790  -28.3150   23.8820 N   0  0  0  0  0  0  0  0  0  0  0  0
  -22.7570  -26.7600   24.7770 O   0  0  0  0  0  0  0  0  0  0  0  0
  -21.2230  -29.3030   23.7370 H   0  0  0  0  0  0  0  0  0  0  0  0
  -18.4070  -28.1780   21.8430 C   0  0  0  0  0  0  0  0  0  0  0  0
  -20.4420  -27.4140   23.2150 C   0  0  0  0  0  3  0  0  0  0  0  0
  -21.0320  -26.9030   21.8770 C   0  0  0  0  0  2  0  0  0  0  0  0
  -20.6070  -27.7170   20.6560 C   0  0  0  0  0  2  0  0  0  0  0  0
  -19.0810  -27.7460   20.5510 C   0  0  0  0  0  2  0  0  0  0  0  0
  -19.0470  -28.0210   23.0930 C   0  0  0  0  0  0  0  0  0  0  0  0
  -18.4040  -28.4510   24.2670 C   0  0  0  0  0  3  0  0  0  0  0  0
  -17.1450  -29.0660   24.1970 C   0  0  0  0  0  3  0  0  0  0  0  0
  -16.4840  -29.1840   22.9490 C   0  0  0  0  0  3  0  0  0  0  0  0
  -17.1150  -28.7360   21.7770 C   0  0  0  0  0  3  0  0  0  0  0  0
  -24.5550  -27.6910   28.6470 C   0  0  0  0  0  3  0  0  0  0  0  0
  -23.9060  -28.1050   29.8990 N   0  0  0  0  0  0  0  0  0  0  0  0
  -24.2660  -29.1650   30.6350 C   0  0  0  0  0  0  0  0  0  0  0  0
  -25.2480  -29.8640   30.3600 O   0  0  0  0  0  0  0  0  0  0  0  0
  -23.0590  -27.6140   30.1550 H   0  0  0  0  0  0  0  0  0  0  0  0
  -22.4440  -30.6480   31.5290 C   0  0  0  0  0  1  0  0  0  0  0  0
  -23.4090  -29.4990   31.8690 C   0  0  0  0  0  3  0  0  0  0  0  0
  -24.9660  -28.7340   33.6050 C   0  0  0  0  0  1  0  0  0  0  0  0
  -24.2040  -29.8570   33.0660 N   0  0  0  0  0  0  0  0  0  0  0  0
  -23.6060  -30.2150   33.8070 H   0  0  0  0  0  0  0  0  0  0  0  0
  -24.7980  -26.1290   28.6360 C   0  0  1  0  0  0  0  0  0  0  0  0
  -23.4960  -25.3050   28.5210 C   0  0  0  0  0  1  0  0  0  0  0  0
  -25.7150  -25.7200   27.4600 C   0  0  0  0  0  1  0  0  0  0  0  0
  -25.5260  -25.6970   29.9350 C   0  0  0  0  0  1  0  0  0  0  0  0
  -24.9530  -23.0270   20.0690 C   0  0  0  0  0  2  0  0  0  0  0  0
  -24.9390  -22.7880   18.6110 N   0  0  0  0  0  4  0  0  0  0  0  0
  -24.8670  -23.6710   18.1410 H   0  0  0  0  0  0  0  0  0  0  0  0
  -24.0800  -22.3020   18.4300 H   0  0  0  0  0  0  0  0  0  0  0  0
  -26.0510  -21.9770   18.0700 C   0  0  0  0  0  2  0  0  0  0  0  0
  -26.5770  -22.4040   16.6790 C   0  0  0  0  0  2  0  0  0  0  0  0
  -28.1110  -22.2030   16.6290 C   0  0  0  0  0  2  0  0  0  0  0  0
  -28.7370  -22.3630   15.2250 C   0  0  0  0  0  2  0  0  0  0  0  0
  -30.2810  -22.1800   15.1560 C   0  0  0  0  0  2  0  0  0  0  0  0
  -31.8060  -22.1660   13.1900 C   0  0  0  0  0  0  0  0  0  0  0  0
  -32.6390  -23.4350   11.2110 C   0  0  0  0  0  2  0  0  0  0  0  0
  -32.4110  -24.9530   11.3620 C   0  0  0  0  0  2  0  0  0  0  0  0
  -31.0010  -25.3290   10.8820 C   0  0  0  0  0  2  0  0  0  0  0  0
  -29.8980  -24.4470   11.5220 C   0  0  0  0  0  3  0  0  0  0  0  0
  -30.2680  -22.9530   11.3800 C   0  0  0  0  0  2  0  0  0  0  0  0
  -31.5950  -22.7340   11.9720 N   0  0  0  0  0  0  0  0  0  0  0  0
  -32.9100  -22.1980   13.7460 O   0  0  0  0  0  0  0  0  0  0  0  0
  -30.2320  -20.3280   13.5340 C   0  0  0  0  0  1  0  0  0  0  0  0
  -30.7050  -21.6910   13.8260 N   0  0  0  0  0  0  0  0  0  0  0  0
  -27.5180  -25.4570   11.5420 C   0  0  0  0  0  0  0  0  0  0  0  0
  -26.5460  -25.5330   10.5900 C   0  0  0  0  0  0  0  0  0  0  0  0
  -27.0980  -24.9070    9.4260 C   0  0  0  0  0  0  0  0  0  0  0  0
  -28.5740  -24.7630   10.9740 N   0  0  0  0  0  0  0  0  0  0  0  0
  -28.2910  -24.4050    9.6920 N   0  0  0  0  0  0  0  0  0  0  0  0
  -26.5630  -24.7780    8.0660 C   0  0  0  0  0  0  0  0  0  0  0  0
  -26.4010  -23.5160    7.4490 C   0  0  0  0  0  3  0  0  0  0  0  0
  -25.8770  -23.4250    6.1430 C   0  0  0  0  0  3  0  0  0  0  0  0
  -25.5150  -24.6070    5.4440 C   0  0  0  0  0  0  0  0  0  0  0  0
  -25.7130  -25.8560    6.0540 C   0  0  0  0  0  3  0  0  0  0  0  0
  -26.2390  -25.9430    7.3520 C   0  0  0  0  0  3  0  0  0  0  0  0
  -25.0410  -24.6240    4.1540 O   0  0  0  0  0  0  0  0  0  0  0  0
  -24.2630  -23.6100    3.6660 C   0  0  0  0  0  0  0  0  0  0  0  0
  -23.0520  -23.2320    4.2910 C   0  0  0  0  0  3  0  0  0  0  0  0
  -22.2470  -22.2340    3.7100 C   0  0  0  0  0  3  0  0  0  0  0  0
  -22.6490  -21.6120    2.5120 C   0  0  0  0  0  0  0  0  0  0  0  0
  -23.8530  -21.9860    1.8930 C   0  0  0  0  0  3  0  0  0  0  0  0
  -24.6560  -22.9870    2.4660 C   0  0  0  0  0  0  0  0  0  0  0  0
  -25.8020  -23.3680    1.8500 F   0  0  0  0  0  0  0  0  0  0  0  0
  -21.8750  -20.6520    1.9520 F   0  0  0  0  0  0  0  0  0  0  0  0
  -25.2210  -26.2270   10.7200 C   0  0  0  0  0  0  0  0  0  0  0  0
  -24.2020  -25.7480    9.9950 N   0  0  0  0  0  0  0  0  0  0  0  0
  -25.0590  -27.1490   11.5120 O   0  0  0  0  0  0  0  0  0  0  0  0
  -24.3440  -24.9400    9.4070 H   0  0  0  0  0  0  0  0  0  0  0  0
  -23.2750  -26.1540   10.0410 H   0  0  0  0  0  0  0  0  0  0  0  0
  -27.5800  -25.9470   12.8420 N   0  0  0  0  0  0  0  0  0  0  0  0
  -26.8340  -26.4810   13.2570 H   0  0  0  0  0  0  0  0  0  0  0  0
  -28.4050  -25.9330   13.4080 H   0  0  0  0  0  0  0  0  0  0  0  0
  1  2  1  0
  3  6  1  0
  4  3  2  0
  4  7  1  0
  5  4  1  0
  5  1  2  0
  6  2  2  0
  6  9  1  0
  7  8  2  0
  9 11  1  0
 10 21  2  0
 11 16  1  0
 12 22  1  0
 12 20  1  0
 13 19  1  0
 13 15  1  0
 14 20  1  0
 15 14  1  0
 16 15  2  0
 17 18  1  0
 17 11  2  0
 18 13  2  0
 19 12  1  0
 20 10  1  0
 22 24  2  0
 23 22  1  0
 25 23  1  0
 26 31  1  0
 27 23  1  0
 28 27  1  0
 29 28  1  0
 30 29  1  0
 30 26  1  0
 31 27  1  0
 31 32  2  0
 33 32  1  0
 34 33  2  0
 35 26  2  0
 35 34  1  0
 36 10  1  0
 36 37  1  0
 37 40  1  0
 37 38  1  0
 38 42  1  0
 39 38  2  0
 42 41  1  0
 42 44  1  0
 44 43  1  0
 44 45  1  0
 46 36  1  0
 46 49  1  1
 47 46  1  0
 48 46  1  0
 50  5  1  0
 51 50  1  0
 52 51  1  0
 53 51  1  0
 54 51  1  0
 55 54  1  0
 56 55  1  0
 57 56  1  0
 58 57  1  0
 59 66  2  0
 59 68  1  0
 60 61  1  0
 60 65  1  0
 62 61  1  0
 63 62  1  0
 64 63  1  0
 64 65  1  0
 65 59  1  0
 67 68  1  0
 68 58  1  0
 69 94  1  0
 70 89  1  0
 70 69  2  0
 71 73  2  0
 71 70  1  0
 72 63  1  0
 72 69  1  0
 73 72  1  0
 74 71  1  0
 75 74  1  0
 76 75  2  0
 77 78  2  0
 77 76  1  0
 78 79  1  0
 79 74  2  0
 80 77  1  0
 81 80  1  0
 81 82  1  0
 83 82  2  0
 84 83  1  0
 85 86  1  0
 85 84  2  0
 86 81  2  0
 87 86  1  0
 88 84  1  0
 89 91  2  0
 90 93  1  0
 90 89  1  0
 92 90  1  0
 94 95  1  0
 94 96  1  0
M  ISO  4   6 101   9 101  59 100  68 100
M  END
>  <TORSDO>  (21) 
F 24

>  <SCORE>  (21) 
4.003

>  <name>  (21) 
20

>  <ligand_id>  (21) 
20

>  <original_smiles>  (21) 
[H]C(=O)c1c([H])c(Oc2c([H])c([H])c3c(c2[H])C([H])([H])N(C(=O)C([H])(N([H])C(=O)C([H])(N([H])C([H])([H])[H])C([H])([H])[H])C(C([H])([H])[H])(C([H])([H])[H])C([H])([H])[H])C([H])(C(=O)N([H])C2([H])c4c([H])c([H])c([H])c([H])c4C([H])([H])C([H])([H])C2([H])[H])C3([H])[H])c([H])c([H])c1C([H])([H])[N+]([H])([H])C([H])([H])C([H])([H])C([H])([H])C([H])([H])C([H])([H])N(C(=O)N1C([H])([H])C([H])([H])C([H])([H])C([H])(n2nc(-c3c([H])c([H])c(Oc4c([H])c([H])c(F)c([H])c4F)c([H])c3[H])c(C(=O)N([H])[H])c2N([H])[H])C1([H])[H])C([H])([H])[H]

>  <smiles>  (21) 
[H]C(=O)c1c([H])c(Oc2c([H])c([H])c3c(c2[H])C([H])([H])N(C(=O)C([H])(N([H])C(=O)C([H])(N([H])C([H])([H])[H])C([H])([H])[H])C(C([H])([H])[H])(C([H])([H])[H])C([H])([H])[H])C([H])(C(=O)N([H])C2([H])c4c([H])c([H])c([H])c([H])c4C([H])([H])C([H])([H])C2([H])[H])C3([H])[H])c([H])c([H])c1C([H])([H])[N+]([H])([H])C([H])([H])C([H])([H])C([H])([H])C([H])([H])C([H])([H])N(C(=O)N1C([H])([H])C([H])([H])C([H])([H])C([H])(n2nc(-c3c([H])c([H])c(Oc4c([H])c([H])c(F)c([H])c4F)c([H])c3[H])c(C(=O)N([H])[H])c2N([H])[H])C1([H])[H])C([H])([H])[H]

$$$$
21:0:0
     RDKit          3D

 99107  0  0  1  0  0  0  0  0999 V2000
  -30.8180  -24.5310   19.7530 C   0  0  0  0  0  3  0  0  0  0  0  0
  -32.3430  -24.4980   17.8390 C   0  0  0  0  0  3  0  0  0  0  0  0
  -30.1190  -25.4500   17.6000 C   0  0  0  0  0  3  0  0  0  0  0  0
  -32.0790  -24.1970   19.1910 C   0  0  0  0  0  0  0  0  0  0  0  0
  -29.8320  -25.1440   18.9470 C   0  0  0  0  0  0  0  0  0  0  0  0
  -31.3680  -25.1280   17.0440 C   0  0  0  0  0  0  0  0  0  0  0  0
  -31.6320  -25.4450   15.7130 N   0  0  0  0  0  0  0  0  0  0  0  0
  -32.4570  -25.1060   15.2290 H   0  0  0  0  0  0  0  0  0  0  0  0
  -30.9090  -25.8220   15.1070 H   0  0  0  0  0  0  0  0  0  0  0  0
  -28.4470  -25.4590   19.4820 C   0  0  0  0  0  2  0  0  0  0  0  0
  -28.3810  -26.7320   20.1240 O   0  0  0  0  0  0  0  0  0  0  0  0
  -24.6160  -31.8890   23.2680 C   0  0  0  0  0  0  0  0  0  0  0  0
  -27.1760  -27.4120   20.1600 C   0  0  0  0  0  0  0  0  0  0  0  0
  -23.3780  -30.5080   21.6350 C   0  0  0  0  0  3  0  0  0  0  0  0
  -24.7930  -28.9450   20.2050 C   0  0  0  0  0  0  0  0  0  0  0  0
  -25.9090  -30.8220   21.4250 C   0  0  0  0  0  2  0  0  0  0  0  0
  -25.9640  -29.4530   20.7820 C   0  0  0  0  0  0  0  0  0  0  0  0
  -27.1530  -28.6930   20.7560 C   0  0  0  0  0  3  0  0  0  0  0  0
  -25.9720  -26.9030   19.6120 C   0  0  0  0  0  3  0  0  0  0  0  0
  -24.7910  -27.6680   19.6230 C   0  0  0  0  0  3  0  0  0  0  0  0
  -23.5680  -29.8270   20.2550 C   0  0  0  0  0  2  0  0  0  0  0  0
  -24.6540  -31.0890   22.1670 N   0  0  0  0  0  0  0  0  0  0  0  0
  -23.5410  -32.1830   23.8120 O   0  0  0  0  0  0  0  0  0  0  0  0
  -22.7130  -29.4970   22.5980 C   0  0  0  0  0  0  0  0  0  0  0  0
  -21.3960  -29.2890   22.4320 N   0  0  0  0  0  0  0  0  0  0  0  0
  -23.3810  -28.8950   23.4450 O   0  0  0  0  0  0  0  0  0  0  0  0
  -20.9200  -29.8290   21.7230 H   0  0  0  0  0  0  0  0  0  0  0  0
  -18.0400  -28.0020   22.7910 C   0  0  0  0  0  0  0  0  0  0  0  0
  -20.5670  -28.3570   23.1950 C   0  0  0  0  0  3  0  0  0  0  0  0
  -20.7470  -26.9070   22.6890 C   0  0  0  0  0  2  0  0  0  0  0  0
  -19.7160  -26.5050   21.6310 C   0  0  0  0  0  2  0  0  0  0  0  0
  -18.2960  -26.6310   22.1890 C   0  0  0  0  0  2  0  0  0  0  0  0
  -19.1080  -28.8200   23.2480 C   0  0  0  0  0  0  0  0  0  0  0  0
  -18.8170  -30.1000   23.7660 C   0  0  0  0  0  3  0  0  0  0  0  0
  -17.4900  -30.5660   23.8320 C   0  0  0  0  0  3  0  0  0  0  0  0
  -16.4350  -29.7470   23.3930 C   0  0  0  0  0  3  0  0  0  0  0  0
  -16.7110  -28.4660   22.8810 C   0  0  0  0  0  3  0  0  0  0  0  0
  -25.9140  -32.5000   23.8850 C   0  0  0  0  0  3  0  0  0  0  0  0
  -26.4300  -31.7110   25.1510 C   0  0  1  0  0  0  0  0  0  0  0  0
  -25.3430  -31.4810   26.2280 C   0  0  0  0  0  1  0  0  0  0  0  0
  -26.9890  -30.3290   24.7400 C   0  0  0  0  0  1  0  0  0  0  0  0
  -27.5950  -32.4860   25.8080 C   0  0  0  0  0  1  0  0  0  0  0  0
  -25.6300  -33.9000   24.2230 N   0  0  0  0  0  0  0  0  0  0  0  0
  -25.9540  -34.9480   23.4550 C   0  0  0  0  0  0  0  0  0  0  0  0
  -26.5980  -34.8360   22.4070 O   0  0  0  0  0  0  0  0  0  0  0  0
  -25.0610  -34.0640   25.0420 H   0  0  0  0  0  0  0  0  0  0  0  0
  -24.2270  -36.7460   23.1490 C   0  0  0  0  0  1  0  0  0  0  0  0
  -25.4930  -36.3410   23.9210 C   0  0  0  0  0  3  0  0  0  0  0  0
  -27.6610  -37.2100   24.6760 C   0  0  0  0  0  1  0  0  0  0  0  0
  -26.5290  -37.3860   23.7690 N   0  0  0  0  0  0  0  0  0  0  0  0
  -26.1370  -38.3100   23.9250 H   0  0  0  0  0  0  0  0  0  0  0  0
  -33.2090  -23.5390   19.9740 C   0  0  0  0  0  2  0  0  0  0  0  0
  -32.8400  -22.9990   21.2970 N   0  0  0  0  0  4  0  0  0  0  0  0
  -32.0430  -23.4930   21.6550 H   0  0  0  0  0  0  0  0  0  0  0  0
  -33.6160  -23.2180   21.9050 H   0  0  0  0  0  0  0  0  0  0  0  0
  -32.6600  -21.5330   21.3880 C   0  0  0  0  0  2  0  0  0  0  0  0
  -31.2940  -21.1510   21.9850 C   0  0  0  0  0  2  0  0  0  0  0  0
  -31.2020  -19.6690   22.4080 C   0  0  0  0  0  2  0  0  0  0  0  0
  -30.9410  -18.7130   21.2330 C   0  0  0  0  0  2  0  0  0  0  0  0
  -31.0190  -17.2270   21.6120 C   0  0  0  0  0  2  0  0  0  0  0  0
  -30.5400  -16.3670   20.4290 C   0  0  0  0  0  2  0  0  0  0  0  0
  -30.9380  -13.9550   20.0840 C   0  0  0  0  0  0  0  0  0  0  0  0
  -30.4610  -11.8340   18.9300 C   0  0  0  0  0  2  0  0  0  0  0  0
  -29.4810  -12.1040   17.7690 C   0  0  0  0  0  2  0  0  0  0  0  0
  -28.0170  -12.0630   18.2510 C   0  0  0  0  0  2  0  0  0  0  0  0
  -27.7790  -12.9100   19.5270 C   0  0  0  0  0  3  0  0  0  0  0  0
  -28.8620  -12.6170   20.5890 C   0  0  0  0  0  2  0  0  0  0  0  0
  -30.1950  -12.8240   19.9830 N   0  0  0  0  0  0  0  0  0  0  0  0
  -32.0060  -14.1290   19.4860 O   0  0  0  0  0  0  0  0  0  0  0  0
  -30.3630  -14.9560   20.7610 N   0  0  0  0  0  0  0  0  0  0  0  0
  -29.5270  -14.7170   21.2780 H   0  0  0  0  0  0  0  0  0  0  0  0
  -25.4300  -13.6550   20.2890 C   0  0  0  0  0  0  0  0  0  0  0  0
  -24.3460  -12.9420   20.7300 C   0  0  0  0  0  0  0  0  0  0  0  0
  -24.7490  -11.5730   20.7380 C   0  0  0  0  0  0  0  0  0  0  0  0
  -26.4310  -12.7190   20.0620 N   0  0  0  0  0  0  0  0  0  0  0  0
  -26.0230  -11.4640   20.3860 N   0  0  0  0  0  0  0  0  0  0  0  0
  -23.9800  -10.3550   21.0100 C   0  0  0  0  0  0  0  0  0  0  0  0
  -24.3950   -9.4210   21.9880 C   0  0  0  0  0  3  0  0  0  0  0  0
  -23.6290   -8.2620   22.2380 C   0  0  0  0  0  3  0  0  0  0  0  0
  -22.4330   -8.0340   21.5170 C   0  0  0  0  0  0  0  0  0  0  0  0
  -22.0410   -8.9500   20.5230 C   0  0  0  0  0  3  0  0  0  0  0  0
  -22.8070  -10.1000   20.2690 C   0  0  0  0  0  3  0  0  0  0  0  0
  -21.6340   -6.9270   21.6780 O   0  0  0  0  0  0  0  0  0  0  0  0
  -21.5620   -6.2540   22.8720 C   0  0  0  0  0  0  0  0  0  0  0  0
  -21.1590   -6.8950   24.0630 C   0  0  0  0  0  3  0  0  0  0  0  0
  -21.0320   -6.1550   25.2550 C   0  0  0  0  0  3  0  0  0  0  0  0
  -21.2990   -4.7730   25.2580 C   0  0  0  0  0  0  0  0  0  0  0  0
  -21.6950   -4.1300   24.0730 C   0  0  0  0  0  3  0  0  0  0  0  0
  -21.8220   -4.8670   22.8820 C   0  0  0  0  0  0  0  0  0  0  0  0
  -22.1860   -4.2370   21.7400 F   0  0  0  0  0  0  0  0  0  0  0  0
  -21.1680   -4.0620   26.4030 F   0  0  0  0  0  0  0  0  0  0  0  0
  -22.9810  -13.4900   21.0320 C   0  0  0  0  0  0  0  0  0  0  0  0
  -22.2530  -12.8660   21.9530 N   0  0  0  0  0  0  0  0  0  0  0  0
  -22.5650  -14.5060   20.4780 O   0  0  0  0  0  0  0  0  0  0  0  0
  -22.6020  -12.0440   22.4240 H   0  0  0  0  0  0  0  0  0  0  0  0
  -21.3330  -13.2170   22.1880 H   0  0  0  0  0  0  0  0  0  0  0  0
  -25.6420  -15.0130   20.0530 N   0  0  0  0  0  0  0  0  0  0  0  0
  -24.9000  -15.6980   20.1500 H   0  0  0  0  0  0  0  0  0  0  0  0
  -26.4980  -15.4060   19.6740 H   0  0  0  0  0  0  0  0  0  0  0  0
  2  4  2  0
  3  5  1  0
  4  1  1  0
  4 52  1  0
  5 10  1  0
  5  1  2  0
  6  3  2  0
  6  2  1  0
  7  6  1  0
  8  7  1  0
  9  7  1  0
 10 11  1  0
 11 13  1  0
 12 23  2  0
 13 18  1  0
 14 22  1  0
 14 24  1  0
 15 21  1  0
 15 17  1  0
 16 22  1  0
 17 16  1  0
 18 17  2  0
 19 20  1  0
 19 13  2  0
 20 15  2  0
 21 14  1  0
 22 12  1  0
 24 26  2  0
 25 24  1  0
 27 25  1  0
 28 37  2  0
 28 33  1  0
 29 25  1  0
 29 33  1  0
 30 29  1  0
 31 32  1  0
 31 30  1  0
 32 28  1  0
 33 34  2  0
 34 35  1  0
 36 35  2  0
 37 36  1  0
 38 12  1  0
 38 43  1  0
 38 39  1  0
 39 42  1  1
 39 40  1  0
 41 39  1  0
 43 46  1  0
 44 48  1  0
 44 43  1  0
 45 44  2  0
 48 47  1  0
 50 48  1  0
 50 51  1  0
 50 49  1  0
 52 53  1  0
 53 56  1  0
 53 54  1  0
 53 55  1  0
 56 57  1  0
 57 58  1  0
 59 60  1  0
 59 58  1  0
 61 70  1  0
 61 60  1  0
 62 70  1  0
 63 68  1  0
 64 65  1  0
 64 63  1  0
 66 65  1  0
 66 75  1  0
 66 67  1  0
 68 62  1  0
 68 67  1  0
 69 62  2  0
 70 71  1  0
 72 73  2  0
 73 74  1  0
 73 92  1  0
 74 77  1  0
 75 72  1  0
 75 76  1  0
 76 74  2  0
 77 78  1  0
 78 79  2  0
 80 83  1  0
 80 79  1  0
 81 80  2  0
 82 81  1  0
 82 77  2  0
 83 84  1  0
 84 89  2  0
 84 85  1  0
 85 86  2  0
 86 87  1  0
 87 91  1  0
 88 87  2  0
 89 88  1  0
 90 89  1  0
 92 93  1  0
 93 96  1  0
 93 95  1  0
 94 92  2  0
 97 98  1  0
 97 72  1  0
 99 97  1  0
M  ISO  4  10 101  11 101  62 100  70 100
M  END
>  <TORSDO>  (22) 
F 26

>  <SCORE>  (22) 
-10.829

>  <name>  (22) 
21

>  <ligand_id>  (22) 
21

>  <original_smiles>  (22) 
[H]c1c([H])c([H])c2c(c1[H])C([H])([H])C([H])([H])C([H])([H])C2([H])N([H])C(=O)C1([H])N(C(=O)C([H])(N([H])C(=O)C([H])(N([H])C([H])([H])[H])C([H])([H])[H])C(C([H])([H])[H])(C([H])([H])[H])C([H])([H])[H])C([H])([H])c2c([H])c(OC([H])([H])c3c([H])c(N([H])[H])c([H])c(C([H])([H])[N+]([H])([H])C([H])([H])C([H])([H])C([H])([H])C([H])([H])C([H])([H])C([H])([H])N([H])C(=O)N4C([H])([H])C([H])([H])C([H])([H])C([H])(n5nc(-c6c([H])c([H])c(Oc7c([H])c([H])c(F)c([H])c7F)c([H])c6[H])c(C(=O)N([H])[H])c5N([H])[H])C4([H])[H])c3[H])c([H])c([H])c2C1([H])[H]

>  <smiles>  (22) 
[H]c1c([H])c([H])c2c(c1[H])C([H])([H])C([H])([H])C([H])([H])C2([H])N([H])C(=O)C1([H])N(C(=O)C([H])(N([H])C(=O)C([H])(N([H])C([H])([H])[H])C([H])([H])[H])C(C([H])([H])[H])(C([H])([H])[H])C([H])([H])[H])C([H])([H])c2c([H])c(OC([H])([H])c3c([H])c(N([H])[H])c([H])c(C([H])([H])[N+]([H])([H])C([H])([H])C([H])([H])C([H])([H])C([H])([H])C([H])([H])C([H])([H])N([H])C(=O)N4C([H])([H])C([H])([H])C([H])([H])C([H])(n5nc(-c6c([H])c([H])c(Oc7c([H])c([H])c(F)c([H])c7F)c([H])c6[H])c(C(=O)N([H])[H])c5N([H])[H])C4([H])[H])c3[H])c([H])c([H])c2C1([H])[H]

$$$$
22:0:0
     RDKit          3D

 94102  0  0  1  0  0  0  0  0999 V2000
  -30.2930  -20.6350   22.4910 C   0  0  0  0  0  0  0  0  0  0  0  0
  -29.3260  -21.5670   22.3680 N   0  0  0  0  0  0  0  0  0  0  0  0
  -31.3850  -20.8850   23.0030 O   0  0  0  0  0  0  0  0  0  0  0  0
  -28.4730  -21.2810   21.9040 H   0  0  0  0  0  0  0  0  0  0  0  0
  -29.9680  -19.1940   22.0570 C   0  0  0  0  0  2  0  0  0  0  0  0
  -31.0830  -16.9760   21.2460 C   0  0  0  0  0  0  0  0  0  0  0  0
  -29.7200  -18.2630   18.9420 C   0  0  0  0  0  2  0  0  0  0  0  0
  -30.8620  -18.9890   19.6560 C   0  0  0  0  0  2  0  0  0  0  0  0
  -29.9760  -16.7500   18.9430 C   0  0  0  0  0  2  0  0  0  0  0  0
  -31.0170  -18.5260   21.1160 C   0  0  0  0  0  3  0  0  0  0  0  0
  -30.1530  -16.0840   20.3490 C   0  0  2  0  0  0  0  0  0  0  0  0
  -28.8080  -16.0710   21.1190 C   0  0  0  0  0  1  0  0  0  0  0  0
  -31.7740  -16.4870   22.1460 O   0  0  0  0  0  0  0  0  0  0  0  0
  -30.8230  -14.6700   20.0460 C   0  0  0  0  0  0  0  0  0  0  0  0
  -30.4980  -12.4730   18.9500 C   0  0  0  0  0  2  0  0  0  0  0  0
  -29.5130  -12.6270   17.7680 C   0  0  0  0  0  2  0  0  0  0  0  0
  -28.0530  -12.4700   18.2380 C   0  0  0  0  0  2  0  0  0  0  0  0
  -27.7490  -13.3280   19.4920 C   0  0  0  0  0  3  0  0  0  0  0  0
  -28.8430  -13.1180   20.5670 C   0  0  0  0  0  2  0  0  0  0  0  0
  -30.1410  -13.4790   19.9750 N   0  0  0  0  0  0  0  0  0  0  0  0
  -31.9750  -14.7180   19.6020 O   0  0  0  0  0  0  0  0  0  0  0  0
  -25.3770  -13.9640   20.2720 C   0  0  0  0  0  0  0  0  0  0  0  0
  -24.3210  -13.2030   20.6970 C   0  0  0  0  0  0  0  0  0  0  0  0
  -24.7750  -11.8510   20.6580 C   0  0  0  0  0  0  0  0  0  0  0  0
  -26.4110  -13.0750   20.0190 N   0  0  0  0  0  0  0  0  0  0  0  0
  -26.0520  -11.7990   20.3080 N   0  0  0  0  0  0  0  0  0  0  0  0
  -24.0490  -10.5930   20.8750 C   0  0  0  0  0  0  0  0  0  0  0  0
  -24.4690   -9.6600   21.8470 C   0  0  0  0  0  3  0  0  0  0  0  0
  -23.7470   -8.4640   22.0470 C   0  0  0  0  0  3  0  0  0  0  0  0
  -22.5890   -8.1950   21.2780 C   0  0  0  0  0  0  0  0  0  0  0  0
  -22.1900   -9.1190   20.2950 C   0  0  0  0  0  3  0  0  0  0  0  0
  -22.9130  -10.3060   20.0930 C   0  0  0  0  0  3  0  0  0  0  0  0
  -21.8400   -7.0490   21.3860 O   0  0  0  0  0  0  0  0  0  0  0  0
  -21.7230   -6.3760   22.5750 C   0  0  0  0  0  0  0  0  0  0  0  0
  -21.2230   -7.0020   23.7390 C   0  0  0  0  0  3  0  0  0  0  0  0
  -21.0500   -6.2540   24.9210 C   0  0  0  0  0  3  0  0  0  0  0  0
  -21.3720   -4.8830   24.9410 C   0  0  0  0  0  0  0  0  0  0  0  0
  -21.8660   -4.2580   23.7830 C   0  0  0  0  0  3  0  0  0  0  0  0
  -22.0370   -5.0020   22.6020 C   0  0  0  0  0  0  0  0  0  0  0  0
  -22.4920   -4.3900   21.4820 F   0  0  0  0  0  0  0  0  0  0  0  0
  -21.2010   -4.1640   26.0750 F   0  0  0  0  0  0  0  0  0  0  0  0
  -22.9370  -13.6910   21.0140 C   0  0  0  0  0  0  0  0  0  0  0  0
  -22.2360  -13.0000   21.9070 N   0  0  0  0  0  0  0  0  0  0  0  0
  -22.4890  -14.7180   20.5070 O   0  0  0  0  0  0  0  0  0  0  0  0
  -22.6150  -12.1710   22.3390 H   0  0  0  0  0  0  0  0  0  0  0  0
  -21.3110  -13.3140   22.1650 H   0  0  0  0  0  0  0  0  0  0  0  0
  -25.5290  -15.3290   20.0580 N   0  0  0  0  0  0  0  0  0  0  0  0
  -24.7410  -15.9620   20.1210 H   0  0  0  0  0  0  0  0  0  0  0  0
  -26.3320  -15.7400   19.5980 H   0  0  0  0  0  0  0  0  0  0  0  0
  -29.2630  -22.8310   23.1170 C   0  0  0  0  0  2  0  0  0  0  0  0
  -29.7940  -24.0870   22.3820 C   0  0  0  0  0  2  0  0  0  0  0  0
  -28.7960  -24.8140   21.4470 C   0  0  0  0  0  2  0  0  0  0  0  0
  -29.2100  -26.2830   21.1650 C   0  0  0  0  0  2  0  0  0  0  0  0
  -28.5820  -26.7980   19.9910 O   0  0  0  0  0  0  0  0  0  0  0  0
  -24.6690  -31.8710   23.2190 C   0  0  0  0  0  0  0  0  0  0  0  0
  -27.4140  -27.5110   20.1240 C   0  0  0  0  0  0  0  0  0  0  0  0
  -23.4940  -30.4600   21.5640 C   0  0  0  0  0  3  0  0  0  0  0  0
  -24.9840  -28.9570   20.1400 C   0  0  0  0  0  0  0  0  0  0  0  0
  -26.0110  -30.8720   21.3720 C   0  0  0  0  0  2  0  0  0  0  0  0
  -26.1280  -29.5010   20.7410 C   0  0  0  0  0  0  0  0  0  0  0  0
  -27.3470  -28.7830   20.7410 C   0  0  0  0  0  3  0  0  0  0  0  0
  -26.2590  -26.9850   19.5140 C   0  0  0  0  0  3  0  0  0  0  0  0
  -25.0440  -27.6950   19.5250 C   0  0  0  0  0  3  0  0  0  0  0  0
  -23.7230  -29.7930   20.1800 C   0  0  0  0  0  2  0  0  0  0  0  0
  -24.7420  -31.0830   22.1100 N   0  0  0  0  0  0  0  0  0  0  0  0
  -23.5810  -32.1160   23.7610 O   0  0  0  0  0  0  0  0  0  0  0  0
  -22.8620  -29.4180   22.5140 C   0  0  0  0  0  0  0  0  0  0  0  0
  -21.5410  -29.2180   22.3920 N   0  0  0  0  0  0  0  0  0  0  0  0
  -23.5600  -28.7930   23.3180 O   0  0  0  0  0  0  0  0  0  0  0  0
  -21.0370  -29.7740   21.7140 H   0  0  0  0  0  0  0  0  0  0  0  0
  -18.1810  -27.9990   22.9210 C   0  0  0  0  0  0  0  0  0  0  0  0
  -20.7420  -28.2620   23.1570 C   0  0  0  0  0  3  0  0  0  0  0  0
  -20.8390  -26.8450   22.5460 C   0  0  0  0  0  2  0  0  0  0  0  0
  -19.7210  -26.5400   21.5440 C   0  0  0  0  0  2  0  0  0  0  0  0
  -18.3490  -26.6660   22.2130 C   0  0  0  0  0  2  0  0  0  0  0  0
  -19.3040  -28.7570   23.3500 C   0  0  0  0  0  0  0  0  0  0  0  0
  -19.0890  -30.0070   23.9700 C   0  0  0  0  0  3  0  0  0  0  0  0
  -17.7860  -30.4990   24.1670 C   0  0  0  0  0  3  0  0  0  0  0  0
  -16.6780  -29.7400   23.7520 C   0  0  0  0  0  3  0  0  0  0  0  0
  -16.8760  -28.4930   23.1350 C   0  0  0  0  0  3  0  0  0  0  0  0
  -25.9420  -32.5210   23.8470 C   0  0  0  0  0  3  0  0  0  0  0  0
  -25.6130  -33.9160   24.1700 N   0  0  0  0  0  0  0  0  0  0  0  0
  -25.9400  -34.9700   23.4100 C   0  0  0  0  0  0  0  0  0  0  0  0
  -26.6240  -34.8720   22.3880 O   0  0  0  0  0  0  0  0  0  0  0  0
  -25.0080  -34.0660   24.9650 H   0  0  0  0  0  0  0  0  0  0  0  0
  -24.1950  -36.7380   23.0220 C   0  0  0  0  0  1  0  0  0  0  0  0
  -25.4270  -36.3520   23.8570 C   0  0  0  0  0  3  0  0  0  0  0  0
  -27.5360  -37.2640   24.7220 C   0  0  0  0  0  1  0  0  0  0  0  0
  -26.4460  -37.4190   23.7610 N   0  0  0  0  0  0  0  0  0  0  0  0
  -26.0240  -38.3330   23.9030 H   0  0  0  0  0  0  0  0  0  0  0  0
  -26.4650  -31.7580   25.1270 C   0  0  1  0  0  0  0  0  0  0  0  0
  -25.3690  -31.5040   26.1870 C   0  0  0  0  0  1  0  0  0  0  0  0
  -27.0700  -30.3880   24.7350 C   0  0  0  0  0  1  0  0  0  0  0  0
  -27.5970  -32.5700   25.7960 C   0  0  0  0  0  1  0  0  0  0  0  0
  1  3  2  0
  2  1  1  0
  2 50  1  0
  4  2  1  0
  5  1  1  0
  6 13  2  0
  7  9  1  0
  7  8  1  0
  8 10  1  0
  9 11  1  0
 10  6  1  0
 10  5  1  0
 11 12  1  1
 11  6  1  0
 14 11  1  0
 15 20  1  0
 16 17  1  0
 16 15  1  0
 18 17  1  0
 18 25  1  0
 18 19  1  0
 20 14  1  0
 20 19  1  0
 21 14  2  0
 22 23  2  0
 23 42  1  0
 24 23  1  0
 24 27  1  0
 25 22  1  0
 25 26  1  0
 26 24  2  0
 27 28  1  0
 28 29  2  0
 30 33  1  0
 30 29  1  0
 31 30  2  0
 32 31  1  0
 32 27  2  0
 33 34  1  0
 34 39  2  0
 34 35  1  0
 35 36  2  0
 36 37  1  0
 37 41  1  0
 38 37  2  0
 39 38  1  0
 40 39  1  0
 42 43  1  0
 43 46  1  0
 43 45  1  0
 44 42  2  0
 47 48  1  0
 47 22  1  0
 49 47  1  0
 51 50  1  0
 52 51  1  0
 53 52  1  0
 54 56  1  0
 54 53  1  0
 55 66  2  0
 56 61  1  0
 57 65  1  0
 57 67  1  0
 58 64  1  0
 58 60  1  0
 59 65  1  0
 60 61  2  0
 60 59  1  0
 62 63  1  0
 62 56  2  0
 63 58  2  0
 64 57  1  0
 65 55  1  0
 67 69  2  0
 68 67  1  0
 70 68  1  0
 71 80  2  0
 71 76  1  0
 72 68  1  0
 72 76  1  0
 73 72  1  0
 74 75  1  0
 74 73  1  0
 75 71  1  0
 76 77  2  0
 77 78  1  0
 79 78  2  0
 80 79  1  0
 81 55  1  0
 81 82  1  0
 81 91  1  0
 82 85  1  0
 83 87  1  0
 83 82  1  0
 84 83  2  0
 87 86  1  0
 89 87  1  0
 89 90  1  0
 89 88  1  0
 91 94  1  1
 91 92  1  0
 93 91  1  0
M  ISO  4  11 100  14 100  53 101  54 101
M  END
>  <TORSDO>  (23) 
F 22

>  <SCORE>  (23) 
-12.018

>  <name>  (23) 
22

>  <ligand_id>  (23) 
22

>  <original_smiles>  (23) 
[H]c1c([H])c([H])c2c(c1[H])C([H])([H])C([H])([H])C([H])([H])C2([H])N([H])C(=O)C1([H])N(C(=O)C([H])(N([H])C(=O)C([H])(N([H])C([H])([H])[H])C([H])([H])[H])C(C([H])([H])[H])(C([H])([H])[H])C([H])([H])[H])C([H])([H])c2c([H])c(OC([H])([H])C([H])([H])C([H])([H])C([H])([H])N([H])C(=O)C([H])([H])C3([H])C(=O)C(C(=O)N4C([H])([H])C([H])([H])C([H])([H])C([H])(n5nc(-c6c([H])c([H])c(Oc7c([H])c([H])c(F)c([H])c7F)c([H])c6[H])c(C(=O)N([H])[H])c5N([H])[H])C4([H])[H])(C([H])([H])[H])C([H])([H])C([H])([H])C3([H])[H])c([H])c([H])c2C1([H])[H]

>  <smiles>  (23) 
[H]c1c([H])c([H])c2c(c1[H])C([H])([H])C([H])([H])C([H])([H])C2([H])N([H])C(=O)C1([H])N(C(=O)C([H])(N([H])C(=O)C([H])(N([H])C([H])([H])[H])C([H])([H])[H])C(C([H])([H])[H])(C([H])([H])[H])C([H])([H])[H])C([H])([H])c2c([H])c(OC([H])([H])C([H])([H])C([H])([H])C([H])([H])N([H])C(=O)C([H])([H])C3([H])C(=O)C(C(=O)N4C([H])([H])C([H])([H])C([H])([H])C([H])(n5nc(-c6c([H])c([H])c(Oc7c([H])c([H])c(F)c([H])c7F)c([H])c6[H])c(C(=O)N([H])[H])c5N([H])[H])C4([H])[H])(C([H])([H])[H])C([H])([H])C([H])([H])C3([H])[H])c([H])c([H])c2C1([H])[H]

$$$$
23:0:0
     RDKit          3D

 99108  0  0  1  0  0  0  0  0999 V2000
  -29.0730  -22.5260   23.7130 C   0  0  0  0  0  3  0  0  0  0  0  0
  -30.8840  -23.4270   22.3670 C   0  0  0  0  0  3  0  0  0  0  0  0
  -29.7070  -21.2660   23.7240 C   0  0  0  0  0  3  0  0  0  0  0  0
  -31.5210  -22.1700   22.3850 C   0  0  0  0  0  3  0  0  0  0  0  0
  -29.6540  -23.6180   23.0340 C   0  0  0  0  0  0  0  0  0  0  0  0
  -30.9390  -21.0740   23.0530 C   0  0  0  0  0  0  0  0  0  0  0  0
  -31.6330  -19.8540   23.0460 N   0  0  0  0  0  0  0  0  0  0  0  0
  -32.6050  -19.8810   22.7500 H   0  0  0  0  0  0  0  0  0  0  0  0
  -30.9470  -18.5760   22.8670 C   0  0  0  0  0  2  0  0  0  0  0  0
  -30.7140  -18.2590   20.3210 C   0  0  0  0  0  2  0  0  0  0  0  0
  -30.9300  -17.1030   19.3370 C   0  0  0  0  0  2  0  0  0  0  0  0
  -31.1850  -16.3260   21.6460 C   0  0  0  0  0  2  0  0  0  0  0  0
  -31.4300  -17.8370   21.6050 C   0  0  0  0  0  3  0  0  0  0  0  0
  -31.2770  -15.8580   20.1820 C   0  0  0  0  0  3  0  0  0  0  0  0
  -30.6140  -13.7680   18.9830 C   0  0  0  0  0  0  0  0  0  0  0  0
  -30.2240  -11.4170   18.3430 C   0  0  0  0  0  2  0  0  0  0  0  0
  -29.0990  -11.2510   17.3080 C   0  0  0  0  0  2  0  0  0  0  0  0
  -27.7330  -11.1440   18.0070 C   0  0  0  0  0  2  0  0  0  0  0  0
  -27.5090  -12.2760   19.0430 C   0  0  0  0  0  3  0  0  0  0  0  0
  -28.7260  -12.4200   19.9830 C   0  0  0  0  0  2  0  0  0  0  0  0
  -29.9390  -12.6040   19.1640 N   0  0  0  0  0  0  0  0  0  0  0  0
  -31.4480  -13.9320   18.0870 O   0  0  0  0  0  0  0  0  0  0  0  0
  -30.4160  -14.6970   19.9300 N   0  0  0  0  0  0  0  0  0  0  0  0
  -29.7290  -14.4700   20.6320 H   0  0  0  0  0  0  0  0  0  0  0  0
  -25.3810  -13.0100   20.2960 C   0  0  0  0  0  0  0  0  0  0  0  0
  -24.3530  -12.2940   20.8490 C   0  0  0  0  0  0  0  0  0  0  0  0
  -24.6730  -10.9180   20.6410 C   0  0  0  0  0  0  0  0  0  0  0  0
  -26.2700  -12.0720   19.7920 N   0  0  0  0  0  0  0  0  0  0  0  0
  -25.8570  -10.8040   20.0520 N   0  0  0  0  0  0  0  0  0  0  0  0
  -23.8960   -9.7030   20.9180 C   0  0  0  0  0  0  0  0  0  0  0  0
  -24.3490   -8.7290   21.8340 C   0  0  0  0  0  3  0  0  0  0  0  0
  -23.5740   -7.5780   22.0970 C   0  0  0  0  0  3  0  0  0  0  0  0
  -22.3330   -7.3940   21.4430 C   0  0  0  0  0  0  0  0  0  0  0  0
  -21.8980   -8.3560   20.5150 C   0  0  0  0  0  3  0  0  0  0  0  0
  -22.6720   -9.4980   20.2510 C   0  0  0  0  0  3  0  0  0  0  0  0
  -21.5260   -6.2950   21.6160 O   0  0  0  0  0  0  0  0  0  0  0  0
  -21.4430   -5.6450   22.8210 C   0  0  0  0  0  0  0  0  0  0  0  0
  -20.9990   -6.2990   23.9920 C   0  0  0  0  0  3  0  0  0  0  0  0
  -20.8620   -5.5760   25.1930 C   0  0  0  0  0  3  0  0  0  0  0  0
  -21.1590   -4.2010   25.2260 C   0  0  0  0  0  0  0  0  0  0  0  0
  -21.5950   -3.5470   24.0600 C   0  0  0  0  0  3  0  0  0  0  0  0
  -21.7340   -4.2670   22.8600 C   0  0  0  0  0  0  0  0  0  0  0  0
  -22.1340   -3.6280   21.7350 F   0  0  0  0  0  0  0  0  0  0  0  0
  -21.0200   -3.5040   26.3780 F   0  0  0  0  0  0  0  0  0  0  0  0
  -23.0970  -12.8530   21.4530 C   0  0  0  0  0  0  0  0  0  0  0  0
  -22.5460  -12.1780   22.4560 N   0  0  0  0  0  0  0  0  0  0  0  0
  -22.6250  -13.9230   21.0700 O   0  0  0  0  0  0  0  0  0  0  0  0
  -22.9470  -11.3130   22.7860 H   0  0  0  0  0  0  0  0  0  0  0  0
  -21.7100  -12.5330   22.9000 H   0  0  0  0  0  0  0  0  0  0  0  0
  -25.6250  -14.3730   20.1620 N   0  0  0  0  0  0  0  0  0  0  0  0
  -24.9640  -15.0760   20.4740 H   0  0  0  0  0  0  0  0  0  0  0  0
  -26.4320  -14.7690   19.6960 H   0  0  0  0  0  0  0  0  0  0  0  0
  -29.0090  -25.0050   23.0670 C   0  0  0  0  0  2  0  0  0  0  0  0
  -28.0700  -25.2820   21.9560 N   0  0  0  0  0  4  0  0  0  0  0  0
  -27.9130  -26.2770   21.9540 H   0  0  0  0  0  0  0  0  0  0  0  0
  -27.1880  -24.8420   22.1690 H   0  0  0  0  0  0  0  0  0  0  0  0
  -28.5180  -24.8870   20.5980 C   0  0  0  0  0  2  0  0  0  0  0  0
  -27.4960  -25.2780   19.5070 C   0  0  0  0  0  2  0  0  0  0  0  0
  -27.5460  -26.6910   19.2550 O   0  0  0  0  0  0  0  0  0  0  0  0
  -24.6340  -31.7690   23.2540 C   0  0  0  0  0  0  0  0  0  0  0  0
  -26.4190  -27.4550   19.4740 C   0  0  0  0  0  0  0  0  0  0  0  0
  -23.0820  -30.6010   21.7240 C   0  0  0  0  0  3  0  0  0  0  0  0
  -24.1720  -29.1040   19.9690 C   0  0  0  0  0  0  0  0  0  0  0  0
  -25.5620  -30.8180   21.1440 C   0  0  0  0  0  2  0  0  0  0  0  0
  -25.4420  -29.5030   20.4000 C   0  0  0  0  0  0  0  0  0  0  0  0
  -26.5670  -28.6880   20.1460 C   0  0  0  0  0  3  0  0  0  0  0  0
  -25.1340  -27.0770   19.0230 C   0  0  0  0  0  3  0  0  0  0  0  0
  -24.0120  -27.8910   19.2750 C   0  0  0  0  0  3  0  0  0  0  0  0
  -23.0180  -30.0310   20.2820 C   0  0  0  0  0  2  0  0  0  0  0  0
  -24.4550  -31.0690   22.0980 N   0  0  0  0  0  0  0  0  0  0  0  0
  -23.6760  -32.0620   23.9820 O   0  0  0  0  0  0  0  0  0  0  0  0
  -22.5100  -29.5430   22.6940 C   0  0  0  0  0  0  0  0  0  0  0  0
  -21.2030  -29.2610   22.5690 N   0  0  0  0  0  0  0  0  0  0  0  0
  -23.2400  -28.9750   23.5120 O   0  0  0  0  0  0  0  0  0  0  0  0
  -20.6700  -29.7750   21.8800 H   0  0  0  0  0  0  0  0  0  0  0  0
  -18.0090  -27.6040   22.8640 C   0  0  0  0  0  0  0  0  0  0  0  0
  -20.4560  -28.2750   23.3490 C   0  0  0  0  0  3  0  0  0  0  0  0
  -20.8280  -26.8350   22.9260 C   0  0  0  0  0  2  0  0  0  0  0  0
  -19.9020  -26.2650   21.8480 C   0  0  0  0  0  2  0  0  0  0  0  0
  -18.4520  -26.2470   22.3400 C   0  0  0  0  0  2  0  0  0  0  0  0
  -18.9510  -28.5610   23.3220 C   0  0  0  0  0  0  0  0  0  0  0  0
  -18.4890  -29.8190   23.7670 C   0  0  0  0  0  3  0  0  0  0  0  0
  -17.1150  -30.1250   23.7590 C   0  0  0  0  0  3  0  0  0  0  0  0
  -16.1840  -29.1650   23.3220 C   0  0  0  0  0  3  0  0  0  0  0  0
  -16.6320  -27.9070   22.8800 C   0  0  0  0  0  3  0  0  0  0  0  0
  -26.0470  -32.2560   23.7050 C   0  0  0  0  0  3  0  0  0  0  0  0
  -25.9170  -33.6550   24.1360 N   0  0  0  0  0  0  0  0  0  0  0  0
  -26.2500  -34.7140   23.3850 C   0  0  0  0  0  0  0  0  0  0  0  0
  -26.7730  -34.6100   22.2710 O   0  0  0  0  0  0  0  0  0  0  0  0
  -25.4460  -33.8160   25.0130 H   0  0  0  0  0  0  0  0  0  0  0  0
  -24.6750  -36.6720   23.3310 C   0  0  0  0  0  1  0  0  0  0  0  0
  -25.9570  -36.1110   23.9640 C   0  0  0  0  0  3  0  0  0  0  0  0
  -28.2480  -36.7510   24.5700 C   0  0  0  0  0  1  0  0  0  0  0  0
  -27.0670  -37.0710   23.7750 N   0  0  0  0  0  0  0  0  0  0  0  0
  -26.7730  -38.0140   24.0150 H   0  0  0  0  0  0  0  0  0  0  0  0
  -26.6750  -31.3730   24.8530 C   0  0  1  0  0  0  0  0  0  0  0  0
  -25.7230  -31.1340   26.0460 C   0  0  0  0  0  1  0  0  0  0  0  0
  -27.1030  -29.9920   24.3050 C   0  0  0  0  0  1  0  0  0  0  0  0
  -27.9540  -32.0530   25.3940 C   0  0  0  0  0  1  0  0  0  0  0  0
  1  3  1  0
  2  4  2  0
  2  5  1  0
  4  6  1  0
  5 53  1  0
  5  1  2  0
  6  3  2  0
  7  6  1  0
  8  7  1  0
  9  7  1  0
 10 13  1  0
 11 14  1  0
 11 10  1  0
 13 12  1  0
 13  9  1  0
 14 23  1  0
 14 12  1  0
 15 21  1  0
 15 23  1  0
 16 21  1  0
 17 18  1  0
 17 16  1  0
 19 18  1  0
 19 28  1  0
 19 20  1  0
 21 20  1  0
 22 15  2  0
 23 24  1  0
 25 26  2  0
 26 45  1  0
 27 26  1  0
 27 30  1  0
 28 29  1  0
 28 25  1  0
 29 27  2  0
 30 31  1  0
 31 32  2  0
 33 36  1  0
 33 32  1  0
 34 33  2  0
 35 34  1  0
 35 30  2  0
 36 37  1  0
 37 42  2  0
 37 38  1  0
 38 39  2  0
 39 40  1  0
 40 44  1  0
 41 40  2  0
 42 41  1  0
 43 42  1  0
 45 46  1  0
 46 48  1  0
 46 49  1  0
 47 45  2  0
 50 25  1  0
 50 51  1  0
 52 50  1  0
 54 56  1  0
 54 53  1  0
 55 54  1  0
 57 54  1  0
 58 57  1  0
 59 61  1  0
 59 58  1  0
 60 71  2  0
 61 66  1  0
 62 70  1  0
 62 72  1  0
 63 69  1  0
 63 65  1  0
 64 70  1  0
 65 64  1  0
 66 65  2  0
 67 68  1  0
 67 61  2  0
 68 63  2  0
 69 62  1  0
 70 60  1  0
 72 74  2  0
 73 72  1  0
 75 73  1  0
 76 85  2  0
 76 81  1  0
 77 73  1  0
 78 77  1  0
 79 80  1  0
 79 78  1  0
 80 76  1  0
 81 77  1  0
 81 82  2  0
 83 82  1  0
 84 83  2  0
 85 84  1  0
 86 60  1  0
 86 87  1  0
 86 96  1  0
 87 90  1  0
 88 92  1  0
 88 87  1  0
 89 88  2  0
 92 91  1  0
 94 92  1  0
 94 95  1  0
 94 93  1  0
 96 99  1  1
 96 97  1  0
 98 96  1  0
M  ISO  4  15 100  23 100  58 101  59 101
M  END
>  <TORSDO>  (24) 
F 23

>  <SCORE>  (24) 
-7.870

>  <name>  (24) 
23

>  <ligand_id>  (24) 
23

>  <original_smiles>  (24) 
[H]c1c([H])c([H])c2c(c1[H])C([H])([H])C([H])([H])C([H])([H])C2([H])N([H])C(=O)C1([H])N(C(=O)C([H])(N([H])C(=O)C([H])(N([H])C([H])([H])[H])C([H])([H])[H])C(C([H])([H])[H])(C([H])([H])[H])C([H])([H])[H])C([H])([H])c2c([H])c(OC([H])([H])C([H])([H])[N+]([H])([H])C([H])([H])c3c([H])c([H])c(N([H])C([H])([H])C4([H])C([H])([H])C([H])([H])C([H])(N([H])C(=O)N5C([H])([H])C([H])([H])C([H])([H])C([H])(n6nc(-c7c([H])c([H])c(Oc8c([H])c([H])c(F)c([H])c8F)c([H])c7[H])c(C(=O)N([H])[H])c6N([H])[H])C5([H])[H])C4([H])[H])c([H])c3[H])c([H])c([H])c2C1([H])[H]

>  <smiles>  (24) 
[H]c1c([H])c([H])c2c(c1[H])C([H])([H])C([H])([H])C([H])([H])C2([H])N([H])C(=O)C1([H])N(C(=O)C([H])(N([H])C(=O)C([H])(N([H])C([H])([H])[H])C([H])([H])[H])C(C([H])([H])[H])(C([H])([H])[H])C([H])([H])[H])C([H])([H])c2c([H])c(OC([H])([H])C([H])([H])[N+]([H])([H])C([H])([H])c3c([H])c([H])c(N([H])C([H])([H])C4([H])C([H])([H])C([H])([H])C([H])(N([H])C(=O)N5C([H])([H])C([H])([H])C([H])([H])C([H])(n6nc(-c7c([H])c([H])c(Oc8c([H])c([H])c(F)c([H])c8F)c([H])c7[H])c(C(=O)N([H])[H])c6N([H])[H])C5([H])[H])C4([H])[H])c([H])c3[H])c([H])c([H])c2C1([H])[H]

$$$$
24:0:0
     RDKit          3D

 95103  0  0  1  0  0  0  0  0999 V2000
  -28.6690  -21.7950   20.9430 N   0  0  0  0  0  4  0  0  0  0  0  0
  -27.7000  -21.8000   20.6730 H   0  0  0  0  0  0  0  0  0  0  0  0
  -29.2190  -21.7500   20.1010 H   0  0  0  0  0  0  0  0  0  0  0  0
  -28.9130  -20.5480   21.7120 C   0  0  0  0  0  2  0  0  0  0  0  0
  -33.1990  -19.8960   21.8050 C   0  0  0  0  0  3  0  0  0  0  0  0
  -32.6050  -20.8680   22.6240 C   0  0  0  0  0  3  0  0  0  0  0  0
  -32.4030  -19.0520   21.0100 C   0  0  0  0  0  3  0  0  0  0  0  0
  -31.2100  -21.0240   22.5950 C   0  0  0  0  0  3  0  0  0  0  0  0
  -30.9910  -19.1430   21.0170 C   0  0  0  0  0  0  0  0  0  0  0  0
  -30.4020  -20.2040   21.7690 C   0  0  0  0  0  0  0  0  0  0  0  0
  -30.1360  -18.1170   20.2390 C   0  0  0  0  0  2  0  0  0  0  0  0
  -30.8410  -16.8420   19.6750 C   0  0  0  0  0  2  0  0  0  0  0  0
  -31.2070  -14.4220   19.8490 C   0  0  0  0  0  0  0  0  0  0  0  0
  -30.8710  -12.1140   18.9980 C   0  0  0  0  0  2  0  0  0  0  0  0
  -29.9280  -12.1290   17.7740 C   0  0  0  0  0  2  0  0  0  0  0  0
  -28.4540  -12.0420   18.2220 C   0  0  0  0  0  2  0  0  0  0  0  0
  -28.1330  -13.0570   19.3500 C   0  0  0  0  0  3  0  0  0  0  0  0
  -29.1850  -12.9920   20.4690 C   0  0  0  0  0  2  0  0  0  0  0  0
  -30.5090  -13.2470   19.8750 N   0  0  0  0  0  0  0  0  0  0  0  0
  -32.2550  -14.5210   19.1920 O   0  0  0  0  0  0  0  0  0  0  0  0
  -30.2600  -15.6240   21.8040 C   0  0  0  0  0  1  0  0  0  0  0  0
  -30.6100  -15.5410   20.3710 N   0  0  0  0  0  0  0  0  0  0  0  0
  -25.8320  -13.8280   20.1930 C   0  0  0  0  0  0  0  0  0  0  0  0
  -24.7360  -13.1350   20.6170 C   0  0  0  0  0  0  0  0  0  0  0  0
  -25.0940  -11.7530   20.5550 C   0  0  0  0  0  0  0  0  0  0  0  0
  -26.7910  -12.8740   19.8890 N   0  0  0  0  0  0  0  0  0  0  0  0
  -26.3530  -11.6180   20.1640 N   0  0  0  0  0  0  0  0  0  0  0  0
  -24.2930  -10.5470   20.7890 C   0  0  0  0  0  0  0  0  0  0  0  0
  -24.6670   -9.5900   21.7570 C   0  0  0  0  0  3  0  0  0  0  0  0
  -23.8700   -8.4450   21.9770 C   0  0  0  0  0  3  0  0  0  0  0  0
  -22.6840   -8.2540   21.2310 C   0  0  0  0  0  0  0  0  0  0  0  0
  -22.3260   -9.2010   20.2530 C   0  0  0  0  0  3  0  0  0  0  0  0
  -23.1230  -10.3360   20.0330 C   0  0  0  0  0  3  0  0  0  0  0  0
  -21.8610   -7.1630   21.3560 O   0  0  0  0  0  0  0  0  0  0  0  0
  -21.7290   -6.4930   22.5470 C   0  0  0  0  0  0  0  0  0  0  0  0
  -21.3000   -7.1460   23.7230 C   0  0  0  0  0  3  0  0  0  0  0  0
  -21.1050   -6.4070   24.9070 C   0  0  0  0  0  3  0  0  0  0  0  0
  -21.3300   -5.0170   24.9160 C   0  0  0  0  0  0  0  0  0  0  0  0
  -21.7540   -4.3660   23.7450 C   0  0  0  0  0  3  0  0  0  0  0  0
  -21.9510   -5.1020   22.5640 C   0  0  0  0  0  0  0  0  0  0  0  0
  -22.3360   -4.4640   21.4320 F   0  0  0  0  0  0  0  0  0  0  0  0
  -21.1370   -4.3090   26.0530 F   0  0  0  0  0  0  0  0  0  0  0  0
  -23.3950  -13.7140   20.9660 C   0  0  0  0  0  0  0  0  0  0  0  0
  -22.6850  -13.0910   21.8990 N   0  0  0  0  0  0  0  0  0  0  0  0
  -22.9960  -14.7560   20.4460 O   0  0  0  0  0  0  0  0  0  0  0  0
  -23.0320  -12.2520   22.3370 H   0  0  0  0  0  0  0  0  0  0  0  0
  -21.7870  -13.4600   22.1820 H   0  0  0  0  0  0  0  0  0  0  0  0
  -26.0950  -15.1850   20.0250 N   0  0  0  0  0  0  0  0  0  0  0  0
  -25.4190  -15.9030   20.2620 H   0  0  0  0  0  0  0  0  0  0  0  0
  -26.9680  -15.5590   19.6800 H   0  0  0  0  0  0  0  0  0  0  0  0
  -28.9620  -23.0730   21.6420 C   0  0  0  0  0  2  0  0  0  0  0  0
  -28.6980  -24.3080   20.7510 C   0  0  0  0  0  2  0  0  0  0  0  0
  -28.9570  -25.6530   21.4680 C   0  0  0  0  0  2  0  0  0  0  0  0
  -29.1060  -26.8540   20.5100 C   0  0  0  0  0  2  0  0  0  0  0  0
  -28.0630  -26.8720   19.5390 O   0  0  0  0  0  0  0  0  0  0  0  0
  -24.5390  -31.9470   23.1700 C   0  0  0  0  0  0  0  0  0  0  0  0
  -26.9360  -27.6340   19.7550 C   0  0  0  0  0  0  0  0  0  0  0  0
  -23.2020  -30.6230   21.5570 C   0  0  0  0  0  3  0  0  0  0  0  0
  -24.5420  -29.1290   19.9810 C   0  0  0  0  0  0  0  0  0  0  0  0
  -25.7050  -30.9780   21.1970 C   0  0  0  0  0  2  0  0  0  0  0  0
  -25.7360  -29.6260   20.5160 C   0  0  0  0  0  0  0  0  0  0  0  0
  -26.9340  -28.8860   20.4160 C   0  0  0  0  0  3  0  0  0  0  0  0
  -25.7280  -27.1520   19.2090 C   0  0  0  0  0  3  0  0  0  0  0  0
  -24.5290  -27.8820   19.3290 C   0  0  0  0  0  3  0  0  0  0  0  0
  -23.3080  -29.9940   20.1400 C   0  0  0  0  0  2  0  0  0  0  0  0
  -24.5030  -31.1970   22.0310 N   0  0  0  0  0  0  0  0  0  0  0  0
  -23.5030  -32.2070   23.8000 O   0  0  0  0  0  0  0  0  0  0  0  0
  -22.6110  -29.5670   22.5180 C   0  0  0  0  0  0  0  0  0  0  0  0
  -21.2880  -29.3550   22.4310 N   0  0  0  0  0  0  0  0  0  0  0  0
  -23.3370  -28.9410   23.2970 O   0  0  0  0  0  0  0  0  0  0  0  0
  -20.7600  -29.9130   21.7770 H   0  0  0  0  0  0  0  0  0  0  0  0
  -17.9740  -28.0250   22.9490 C   0  0  0  0  0  0  0  0  0  0  0  0
  -20.5200  -28.3850   23.2080 C   0  0  0  0  0  3  0  0  0  0  0  0
  -20.6760  -26.9570   22.6330 C   0  0  0  0  0  2  0  0  0  0  0  0
  -19.5830  -26.5900   21.6240 C   0  0  0  0  0  2  0  0  0  0  0  0
  -18.2000  -26.6830   22.2730 C   0  0  0  0  0  2  0  0  0  0  0  0
  -19.0630  -28.8310   23.3730 C   0  0  0  0  0  0  0  0  0  0  0  0
  -18.7980  -30.0860   23.9620 C   0  0  0  0  0  3  0  0  0  0  0  0
  -17.4750  -30.5360   24.1340 C   0  0  0  0  0  3  0  0  0  0  0  0
  -16.4010  -29.7270   23.7280 C   0  0  0  0  0  3  0  0  0  0  0  0
  -16.6500  -28.4730   23.1430 C   0  0  0  0  0  3  0  0  0  0  0  0
  -25.8760  -32.5340   23.7230 C   0  0  0  0  0  3  0  0  0  0  0  0
  -25.6060  -33.9140   24.1460 N   0  0  0  0  0  0  0  0  0  0  0  0
  -25.9170  -35.0030   23.4300 C   0  0  0  0  0  0  0  0  0  0  0  0
  -26.5360  -34.9480   22.3630 O   0  0  0  0  0  0  0  0  0  0  0  0
  -25.0570  -34.0300   24.9870 H   0  0  0  0  0  0  0  0  0  0  0  0
  -24.2100  -36.8370   23.2370 C   0  0  0  0  0  1  0  0  0  0  0  0
  -25.4700  -36.3680   23.9830 C   0  0  0  0  0  3  0  0  0  0  0  0
  -27.6520  -37.1660   24.7820 C   0  0  0  0  0  1  0  0  0  0  0  0
  -26.5180  -37.4120   23.8930 N   0  0  0  0  0  0  0  0  0  0  0  0
  -26.1350  -38.3270   24.1140 H   0  0  0  0  0  0  0  0  0  0  0  0
  -26.4820  -31.6940   24.9120 C   0  0  1  0  0  0  0  0  0  0  0  0
  -25.4730  -31.4060   26.0470 C   0  0  0  0  0  1  0  0  0  0  0  0
  -27.0220  -30.3380   24.4010 C   0  0  0  0  0  1  0  0  0  0  0  0
  -27.6830  -32.4460   25.5300 C   0  0  0  0  0  1  0  0  0  0  0  0
  1 51  1  0
  1  4  1  0
  2  1  1  0
  3  1  1  0
  4 10  1  0
  5  6  1  0
  7  9  1  0
  7  5  2  0
  8  6  2  0
  9 10  2  0
 10  8  1  0
 11  9  1  0
 12 11  1  0
 12 22  1  0
 13 19  1  0
 13 22  1  0
 14 19  1  0
 15 16  1  0
 15 14  1  0
 17 16  1  0
 17 26  1  0
 17 18  1  0
 19 18  1  0
 20 13  2  0
 22 21  1  0
 23 24  2  0
 24 43  1  0
 25 24  1  0
 25 28  1  0
 26 27  1  0
 26 23  1  0
 27 25  2  0
 28 29  1  0
 29 30  2  0
 31 34  1  0
 31 30  1  0
 32 31  2  0
 33 32  1  0
 33 28  2  0
 34 35  1  0
 35 40  2  0
 35 36  1  0
 36 37  2  0
 37 38  1  0
 38 42  1  0
 39 38  2  0
 40 39  1  0
 41 40  1  0
 43 44  1  0
 44 47  1  0
 44 46  1  0
 45 43  2  0
 48 23  1  0
 48 49  1  0
 50 48  1  0
 52 53  1  0
 52 51  1  0
 54 53  1  0
 55 57  1  0
 55 54  1  0
 56 67  2  0
 57 62  1  0
 58 66  1  0
 58 68  1  0
 59 65  1  0
 59 61  1  0
 60 66  1  0
 61 60  1  0
 62 61  2  0
 63 64  1  0
 63 57  2  0
 64 59  2  0
 65 58  1  0
 66 56  1  0
 68 70  2  0
 69 68  1  0
 71 69  1  0
 72 81  2  0
 72 77  1  0
 73 69  1  0
 73 77  1  0
 74 73  1  0
 75 76  1  0
 75 74  1  0
 76 72  1  0
 77 78  2  0
 78 79  1  0
 80 79  2  0
 81 80  1  0
 82 56  1  0
 82 83  1  0
 82 92  1  0
 83 86  1  0
 84 88  1  0
 84 83  1  0
 85 84  2  0
 88 87  1  0
 90 88  1  0
 90 91  1  0
 90 89  1  0
 92 95  1  1
 92 93  1  0
 94 92  1  0
M  ISO  4  13 100  22 100  54 101  55 101
M  END
>  <TORSDO>  (25) 
F 24

>  <SCORE>  (25) 
-11.729

>  <name>  (25) 
24

>  <ligand_id>  (25) 
24

>  <original_smiles>  (25) 
[H]c1c([H])c([H])c(C([H])([H])[N+]([H])([H])C([H])([H])C([H])([H])C([H])([H])C([H])([H])Oc2c([H])c([H])c3c(c2[H])C([H])([H])N(C(=O)C([H])(N([H])C(=O)C([H])(N([H])C([H])([H])[H])C([H])([H])[H])C(C([H])([H])[H])(C([H])([H])[H])C([H])([H])[H])C([H])(C(=O)N([H])C2([H])c4c([H])c([H])c([H])c([H])c4C([H])([H])C([H])([H])C2([H])[H])C3([H])[H])c(C([H])([H])C([H])([H])N(C(=O)N2C([H])([H])C([H])([H])C([H])([H])C([H])(n3nc(-c4c([H])c([H])c(Oc5c([H])c([H])c(F)c([H])c5F)c([H])c4[H])c(C(=O)N([H])[H])c3N([H])[H])C2([H])[H])C([H])([H])[H])c1[H]

>  <smiles>  (25) 
[H]c1c([H])c([H])c(C([H])([H])[N+]([H])([H])C([H])([H])C([H])([H])C([H])([H])C([H])([H])Oc2c([H])c([H])c3c(c2[H])C([H])([H])N(C(=O)C([H])(N([H])C(=O)C([H])(N([H])C([H])([H])[H])C([H])([H])[H])C(C([H])([H])[H])(C([H])([H])[H])C([H])([H])[H])C([H])(C(=O)N([H])C2([H])c4c([H])c([H])c([H])c([H])c4C([H])([H])C([H])([H])C2([H])[H])C3([H])[H])c(C([H])([H])C([H])([H])N(C(=O)N2C([H])([H])C([H])([H])C([H])([H])C([H])(n3nc(-c4c([H])c([H])c(Oc5c([H])c([H])c(F)c([H])c5F)c([H])c4[H])c(C(=O)N([H])[H])c3N([H])[H])C2([H])[H])C([H])([H])[H])c1[H]

$$$$
25:0:0
     RDKit          3D

 98106  0  0  1  0  0  0  0  0999 V2000
  -31.2430  -22.1610   19.1530 C   0  0  0  0  0  3  0  0  0  0  0  0
  -33.5330  -22.2660   17.5520 C   0  0  0  0  0  3  0  0  0  0  0  0
  -32.1000  -21.0330   19.1140 C   0  0  0  0  0  0  0  0  0  0  0  0
  -31.4680  -23.2900   18.3320 C   0  0  0  0  0  0  0  0  0  0  0  0
  -33.2270  -21.0770   18.2460 C   0  0  0  0  0  0  0  0  0  0  0  0
  -32.6620  -23.3690   17.5790 C   0  0  0  0  0  0  0  0  0  0  0  0
  -34.0920  -19.8680   17.9320 C   0  0  0  0  0  1  0  0  0  0  0  0
  -32.9570  -24.4670   16.8220 O   0  0  0  0  0  0  0  0  0  0  0  0
  -33.7520  -24.3630   16.3040 H   0  0  0  0  0  0  0  0  0  0  0  0
  -30.3330  -24.2870   18.1120 C   0  0  0  0  0  2  0  0  0  0  0  0
  -30.0360  -25.2820   19.2420 C   0  0  0  0  0  2  0  0  0  0  0  0
  -28.6280  -25.8690   19.0840 C   0  0  0  0  0  2  0  0  0  0  0  0
  -28.4120  -26.8580   20.0820 O   0  0  0  0  0  0  0  0  0  0  0  0
  -24.5360  -31.8830   23.1900 C   0  0  0  0  0  0  0  0  0  0  0  0
  -27.2030  -27.5190   20.0750 C   0  0  0  0  0  0  0  0  0  0  0  0
  -23.3240  -30.4910   21.5330 C   0  0  0  0  0  3  0  0  0  0  0  0
  -24.7830  -28.9770   20.0980 C   0  0  0  0  0  0  0  0  0  0  0  0
  -25.8270  -30.8970   21.3010 C   0  0  0  0  0  2  0  0  0  0  0  0
  -25.9300  -29.5160   20.6920 C   0  0  0  0  0  0  0  0  0  0  0  0
  -27.1340  -28.7830   20.7020 C   0  0  0  0  0  3  0  0  0  0  0  0
  -26.0340  -26.9890   19.4730 C   0  0  0  0  0  3  0  0  0  0  0  0
  -24.8260  -27.7090   19.4990 C   0  0  0  0  0  3  0  0  0  0  0  0
  -23.5290  -29.8160   20.1470 C   0  0  0  0  0  2  0  0  0  0  0  0
  -24.5840  -31.0970   22.0770 N   0  0  0  0  0  0  0  0  0  0  0  0
  -23.4590  -32.1490   23.7400 O   0  0  0  0  0  0  0  0  0  0  0  0
  -22.6790  -29.4650   22.4920 C   0  0  0  0  0  0  0  0  0  0  0  0
  -21.3560  -29.2800   22.3720 N   0  0  0  0  0  0  0  0  0  0  0  0
  -23.3680  -28.8350   23.2980 O   0  0  0  0  0  0  0  0  0  0  0  0
  -20.8450  -29.8490   21.7110 H   0  0  0  0  0  0  0  0  0  0  0  0
  -17.9940  -28.0840   22.8730 C   0  0  0  0  0  0  0  0  0  0  0  0
  -20.5530  -28.3300   23.1400 C   0  0  0  0  0  3  0  0  0  0  0  0
  -20.6510  -26.9050   22.5460 C   0  0  0  0  0  2  0  0  0  0  0  0
  -19.5450  -26.6020   21.5310 C   0  0  0  0  0  2  0  0  0  0  0  0
  -18.1650  -26.7430   22.1790 C   0  0  0  0  0  2  0  0  0  0  0  0
  -19.1160  -28.8360   23.3110 C   0  0  0  0  0  0  0  0  0  0  0  0
  -18.9040  -30.0970   23.9100 C   0  0  0  0  0  3  0  0  0  0  0  0
  -17.6020  -30.6020   24.0820 C   0  0  0  0  0  3  0  0  0  0  0  0
  -16.4940  -29.8470   23.6580 C   0  0  0  0  0  3  0  0  0  0  0  0
  -16.6920  -28.5900   23.0590 C   0  0  0  0  0  3  0  0  0  0  0  0
  -25.8280  -32.5090   23.8050 C   0  0  0  0  0  3  0  0  0  0  0  0
  -26.3490  -31.7280   25.0740 C   0  0  1  0  0  0  0  0  0  0  0  0
  -25.2570  -31.4890   26.1410 C   0  0  0  0  0  1  0  0  0  0  0  0
  -26.9330  -30.3540   24.6580 C   0  0  0  0  0  1  0  0  0  0  0  0
  -27.4890  -32.5190   25.7550 C   0  0  0  0  0  1  0  0  0  0  0  0
  -25.5260  -33.9060   24.1390 N   0  0  0  0  0  0  0  0  0  0  0  0
  -25.8680  -34.9590   23.3840 C   0  0  0  0  0  0  0  0  0  0  0  0
  -26.5490  -34.8570   22.3590 O   0  0  0  0  0  0  0  0  0  0  0  0
  -24.9220  -34.0610   24.9340 H   0  0  0  0  0  0  0  0  0  0  0  0
  -24.1580  -36.7680   23.0100 C   0  0  0  0  0  1  0  0  0  0  0  0
  -25.3790  -36.3430   23.8400 C   0  0  0  0  0  3  0  0  0  0  0  0
  -27.4980  -37.2230   24.7190 C   0  0  0  0  0  1  0  0  0  0  0  0
  -26.4140  -37.3950   23.7560 N   0  0  0  0  0  0  0  0  0  0  0  0
  -26.0010  -38.3090   23.9120 H   0  0  0  0  0  0  0  0  0  0  0  0
  -31.6890  -19.7710   19.8930 C   0  0  0  0  0  2  0  0  0  0  0  0
  -33.6070  -19.5340   21.5140 C   0  0  0  0  0  1  0  0  0  0  0  0
  -32.1450  -19.7270   21.3110 N   0  0  2  0  0  4  0  0  0  0  0  0
  -31.9700  -20.6600   21.6510 H   0  0  0  0  0  0  0  0  0  0  0  0
  -31.2960  -18.8700   22.1900 C   0  0  0  0  0  2  0  0  0  0  0  0
  -31.2780  -17.3450   21.9000 C   0  0  0  0  0  2  0  0  0  0  0  0
  -30.0510  -16.8630   21.0900 C   0  0  0  0  0  2  0  0  0  0  0  0
  -30.4820  -14.4960   20.4220 C   0  0  0  0  0  0  0  0  0  0  0  0
  -30.1910  -12.3730   19.2140 C   0  0  0  0  0  2  0  0  0  0  0  0
  -29.2250  -12.6360   18.0450 C   0  0  0  0  0  2  0  0  0  0  0  0
  -27.7590  -12.4730   18.4960 C   0  0  0  0  0  2  0  0  0  0  0  0
  -27.4420  -13.2360   19.8140 C   0  0  0  0  0  3  0  0  0  0  0  0
  -28.5300  -12.9740   20.8820 C   0  0  0  0  0  2  0  0  0  0  0  0
  -29.8410  -13.3090   20.2920 N   0  0  0  0  0  0  0  0  0  0  0  0
  -31.5250  -14.7790   19.8210 O   0  0  0  0  0  0  0  0  0  0  0  0
  -29.8380  -15.4140   21.1490 N   0  0  0  0  0  0  0  0  0  0  0  0
  -29.0010  -15.0830   21.6140 H   0  0  0  0  0  0  0  0  0  0  0  0
  -25.0180  -13.7560   20.5270 C   0  0  0  0  0  0  0  0  0  0  0  0
  -23.9870  -12.9440   20.9210 C   0  0  0  0  0  0  0  0  0  0  0  0
  -24.5040  -11.6120   20.9060 C   0  0  0  0  0  0  0  0  0  0  0  0
  -26.1010  -12.9150   20.3030 N   0  0  0  0  0  0  0  0  0  0  0  0
  -25.7920  -11.6230   20.5870 N   0  0  0  0  0  0  0  0  0  0  0  0
  -23.8330  -10.3230   21.1220 C   0  0  0  0  0  0  0  0  0  0  0  0
  -24.2970   -9.4010   22.0860 C   0  0  0  0  0  3  0  0  0  0  0  0
  -23.6210   -8.1780   22.2910 C   0  0  0  0  0  3  0  0  0  0  0  0
  -22.4670   -7.8690   21.5320 C   0  0  0  0  0  0  0  0  0  0  0  0
  -22.0250   -8.7790   20.5540 C   0  0  0  0  0  3  0  0  0  0  0  0
  -22.7030   -9.9930   20.3480 C   0  0  0  0  0  3  0  0  0  0  0  0
  -21.7590   -6.6960   21.6470 O   0  0  0  0  0  0  0  0  0  0  0  0
  -21.7220   -5.9880   22.8230 C   0  0  0  0  0  0  0  0  0  0  0  0
  -21.2380   -6.5570   24.0210 C   0  0  0  0  0  3  0  0  0  0  0  0
  -21.1520   -5.7740   25.1870 C   0  0  0  0  0  3  0  0  0  0  0  0
  -21.5380   -4.4180   25.1570 C   0  0  0  0  0  0  0  0  0  0  0  0
  -22.0210   -3.8510   23.9640 C   0  0  0  0  0  3  0  0  0  0  0  0
  -22.1080   -4.6330   22.7990 C   0  0  0  0  0  0  0  0  0  0  0  0
  -22.5480   -4.0740   21.6460 F   0  0  0  0  0  0  0  0  0  0  0  0
  -21.4510   -3.6630   26.2760 F   0  0  0  0  0  0  0  0  0  0  0  0
  -22.5740  -13.3660   21.2050 C   0  0  0  0  0  0  0  0  0  0  0  0
  -21.8850  -12.6540   22.0900 N   0  0  0  0  0  0  0  0  0  0  0  0
  -22.0860  -14.3640   20.6740 O   0  0  0  0  0  0  0  0  0  0  0  0
  -22.2910  -11.8480   22.5420 H   0  0  0  0  0  0  0  0  0  0  0  0
  -20.9370  -12.9190   22.3180 H   0  0  0  0  0  0  0  0  0  0  0  0
  -25.1240  -15.1290   20.3290 N   0  0  0  0  0  0  0  0  0  0  0  0
  -24.3310  -15.7540   20.4420 H   0  0  0  0  0  0  0  0  0  0  0  0
  -25.9600  -15.6060   20.0150 H   0  0  0  0  0  0  0  0  0  0  0  0
  2  6  2  0
  2  5  1  0
  3  1  1  0
  3 54  1  0
  4  1  2  0
  5  3  2  0
  6  4  1  0
  7  5  1  0
  8  6  1  0
  9  8  1  0
 10  4  1  0
 10 11  1  0
 12 11  1  0
 12 13  1  0
 14 25  2  0
 15 13  1  0
 15 20  1  0
 16 24  1  0
 16 26  1  0
 17 23  1  0
 17 19  1  0
 18 24  1  0
 19 20  2  0
 19 18  1  0
 21 22  1  0
 21 15  2  0
 22 17  2  0
 23 16  1  0
 24 14  1  0
 26 28  2  0
 27 26  1  0
 29 27  1  0
 30 39  2  0
 30 35  1  0
 31 27  1  0
 31 35  1  0
 32 31  1  0
 33 34  1  0
 33 32  1  0
 34 30  1  0
 35 36  2  0
 36 37  1  0
 38 37  2  0
 39 38  1  0
 40 14  1  0
 40 45  1  0
 40 41  1  0
 41 44  1  1
 41 42  1  0
 43 41  1  0
 45 48  1  0
 46 50  1  0
 46 45  1  0
 47 46  2  0
 50 49  1  0
 52 50  1  0
 52 53  1  0
 52 51  1  0
 54 56  1  0
 56 55  1  0
 56 57  1  1
 56 58  1  0
 59 58  1  0
 60 69  1  0
 60 59  1  0
 61 69  1  0
 62 67  1  0
 63 64  1  0
 63 62  1  0
 65 64  1  0
 65 74  1  0
 65 66  1  0
 67 61  1  0
 67 66  1  0
 68 61  2  0
 69 70  1  0
 71 72  2  0
 72 91  1  0
 73 72  1  0
 73 76  1  0
 74 71  1  0
 74 75  1  0
 75 73  2  0
 76 77  1  0
 77 78  2  0
 79 82  1  0
 79 78  1  0
 80 79  2  0
 81 80  1  0
 81 76  2  0
 82 83  1  0
 83 84  1  0
 84 85  2  0
 86 85  1  0
 86 90  1  0
 87 86  2  0
 88 83  2  0
 88 87  1  0
 89 88  1  0
 91 92  1  0
 92 95  1  0
 92 94  1  0
 93 91  2  0
 96 97  1  0
 96 71  1  0
 98 96  1  0
M  ISO  4  12 101  13 101  61 100  69 100
M  END
>  <TORSDO>  (26) 
F 25

>  <SCORE>  (26) 
-12.136

>  <name>  (26) 
25

>  <ligand_id>  (26) 
25

>  <original_smiles>  (26) 
[H]Oc1c([H])c(C([H])([H])[H])c(C([H])([H])[N+]([H])(C([H])([H])[H])C([H])([H])C([H])([H])C([H])([H])N([H])C(=O)N2C([H])([H])C([H])([H])C([H])([H])C([H])(n3nc(-c4c([H])c([H])c(Oc5c([H])c([H])c(F)c([H])c5F)c([H])c4[H])c(C(=O)N([H])[H])c3N([H])[H])C2([H])[H])c([H])c1C([H])([H])C([H])([H])C([H])([H])Oc1c([H])c([H])c2c(c1[H])C([H])([H])N(C(=O)C([H])(N([H])C(=O)C([H])(N([H])C([H])([H])[H])C([H])([H])[H])C(C([H])([H])[H])(C([H])([H])[H])C([H])([H])[H])C([H])(C(=O)N([H])C1([H])c3c([H])c([H])c([H])c([H])c3C([H])([H])C([H])([H])C1([H])[H])C2([H])[H]

>  <smiles>  (26) 
[H]Oc1c([H])c(C([H])([H])[H])c(C([H])([H])[N+]([H])(C([H])([H])[H])C([H])([H])C([H])([H])C([H])([H])N([H])C(=O)N2C([H])([H])C([H])([H])C([H])([H])C([H])(n3nc(-c4c([H])c([H])c(Oc5c([H])c([H])c(F)c([H])c5F)c([H])c4[H])c(C(=O)N([H])[H])c3N([H])[H])C2([H])[H])c([H])c1C([H])([H])C([H])([H])C([H])([H])Oc1c([H])c([H])c2c(c1[H])C([H])([H])N(C(=O)C([H])(N([H])C(=O)C([H])(N([H])C([H])([H])[H])C([H])([H])[H])C(C([H])([H])[H])(C([H])([H])[H])C([H])([H])[H])C([H])(C(=O)N([H])C1([H])c3c([H])c([H])c([H])c([H])c3C([H])([H])C([H])([H])C1([H])[H])C2([H])[H]

$$$$
26:0:0
     RDKit          3D

102108  0  0  1  0  0  0  0  0999 V2000
  -27.2630  -31.6810   26.8640 C   0  0  0  0  0  1  0  0  0  0  0  0
  -28.6930  -30.6180   25.9140 C   0  0  0  0  0 15  0  0  0  0  0  0
  -25.3350  -31.1990   26.3980 C   0  0  0  0  0  1  0  0  0  0  0  0
  -26.5160  -29.0730   23.9480 C   0  0  0  0  0  2  0  0  0  0  0  0
  -28.3330  -29.4380   24.3290 C   0  0  0  0  0  2  0  0  0  0  0  0
  -25.1270  -29.6780   25.1050 C   0  0  0  0  0  2  0  0  0  0  0  0
  -29.3190  -28.1440   23.6510 C   0  0  0  0  0  2  0  0  0  0  0  0
  -29.1670  -26.3340   23.6370 C   0  0  0  0  0  2  0  0  0  0  0  0
  -30.8340  -23.7900   22.9400 C   0  0  0  0  0  2  0  0  0  0  0  0
  -28.6390  -23.8940   21.8810 C   0  0  0  0  0  2  0  0  0  0  0  0
  -30.7460  -22.1150   22.7980 C   0  0  0  0  0  2  0  0  0  0  0  0
  -28.6340  -22.2250   21.8780 C   0  0  0  0  0  2  0  0  0  0  0  0
  -29.6680  -24.9050   22.6500 C   0  0  0  0  0  3  0  0  0  0  0  0
  -29.9250  -21.2670   21.6680 C   0  0  0  0  0  3  0  0  0  0  0  0
  -29.7380  -19.6160   21.7860 N   0  0  0  0  0  4  0  0  0  0  0  0
  -28.7390  -19.4880   21.8220 H   0  0  0  0  0  0  0  0  0  0  0  0
  -30.0620  -19.3930   22.7120 H   0  0  0  0  0  0  0  0  0  0  0  0
  -30.2630  -18.3550   20.8460 C   0  0  0  0  0  3  0  0  0  0  0  0
  -29.8910  -16.6060   20.9930 C   0  0  0  0  0  3  0  0  0  0  0  0
  -30.4610  -15.1770   20.1690 C   0  0  0  0  0  0  0  0  0  0  0  0
  -30.2910  -12.8250   19.0280 C   0  0  0  0  0  2  0  0  0  0  0  0
  -29.2740  -12.6910   17.8590 C   0  0  0  0  0  2  0  0  0  0  0  0
  -27.8700  -12.3650   18.3860 C   0  0  0  0  0  2  0  0  0  0  0  0
  -27.4970  -13.2690   19.5840 C   0  0  0  0  0  3  0  0  0  0  0  0
  -28.6250  -13.3680   20.6490 C   0  0  0  0  0  2  0  0  0  0  0  0
  -29.8500  -13.8920   20.0120 N   0  0  0  0  0  0  0  0  0  0  0  0
  -31.5550  -15.2500   19.5950 O   0  0  0  0  0  0  0  0  0  0  0  0
  -25.1710  -13.7420   20.5390 C   0  0  0  0  0  0  0  0  0  0  0  0
  -24.1530  -12.9290   20.9520 C   0  0  0  0  0  0  0  0  0  0  0  0
  -24.6300  -11.5900   20.8010 C   0  0  0  0  0  0  0  0  0  0  0  0
  -26.2060  -12.9030   20.1650 N   0  0  0  0  0  0  0  0  0  0  0  0
  -25.8930  -11.5970   20.3790 N   0  0  0  0  0  0  0  0  0  0  0  0
  -23.9330  -10.3080   20.9790 C   0  0  0  0  0  0  0  0  0  0  0  0
  -24.3840   -9.3430   21.9090 C   0  0  0  0  0  3  0  0  0  0  0  0
  -23.6850   -8.1280   22.0790 C   0  0  0  0  0  3  0  0  0  0  0  0
  -22.5200   -7.8670   21.3190 C   0  0  0  0  0  0  0  0  0  0  0  0
  -22.0870   -8.8200   20.3800 C   0  0  0  0  0  3  0  0  0  0  0  0
  -22.7870  -10.0270   20.2080 C   0  0  0  0  0  3  0  0  0  0  0  0
  -21.7910   -6.7050   21.3970 O   0  0  0  0  0  0  0  0  0  0  0  0
  -21.6740   -6.0060   22.5730 C   0  0  0  0  0  0  0  0  0  0  0  0
  -21.1080   -6.5850   23.7310 C   0  0  0  0  0  3  0  0  0  0  0  0
  -20.9430   -5.8100   24.8960 C   0  0  0  0  0  3  0  0  0  0  0  0
  -21.3330   -4.4580   24.9050 C   0  0  0  0  0  0  0  0  0  0  0  0
  -21.8920   -3.8790   23.7520 C   0  0  0  0  0  3  0  0  0  0  0  0
  -22.0590   -4.6500   22.5890 C   0  0  0  0  0  0  0  0  0  0  0  0
  -22.5770   -4.0800   21.4750 F   0  0  0  0  0  0  0  0  0  0  0  0
  -21.1680   -3.7110   26.0230 F   0  0  0  0  0  0  0  0  0  0  0  0
  -22.7790  -13.3670   21.3710 C   0  0  0  0  0  0  0  0  0  0  0  0
  -22.1380  -12.6160   22.2580 N   0  0  0  0  0  0  0  0  0  0  0  0
  -22.2850  -14.4110   20.9460 O   0  0  0  0  0  0  0  0  0  0  0  0
  -22.5500  -11.7710   22.6230 H   0  0  0  0  0  0  0  0  0  0  0  0
  -21.2210  -12.8920   22.5790 H   0  0  0  0  0  0  0  0  0  0  0  0
  -25.3010  -15.1250   20.4320 N   0  0  0  0  0  0  0  0  0  0  0  0
  -24.5390  -15.7590   20.6450 H   0  0  0  0  0  0  0  0  0  0  0  0
  -26.1170  -15.5960   20.0590 H   0  0  0  0  0  0  0  0  0  0  0  0
  -24.3210  -28.3290   25.4450 C   0  0  0  0  0  2  0  0  0  0  0  0
  -24.4150  -27.0650   24.5180 N   0  0  0  0  0  4  0  0  0  0  0  0
  -23.8500  -26.3580   24.9510 H   0  0  0  0  0  0  0  0  0  0  0  0
  -23.8380  -27.4380   23.7660 H   0  0  0  0  0  0  0  0  0  0  0  0
  -25.5930  -26.3000   23.8720 C   0  0  0  0  0  2  0  0  0  0  0  0
  -25.8350  -26.2910   22.2370 C   0  0  0  0  0  2  0  0  0  0  0  0
  -27.0700  -26.5700   21.3330 O   0  0  0  0  0  0  0  0  0  0  0  0
  -24.4330  -32.0270   23.0490 C   0  0  0  0  0  0  0  0  0  0  0  0
  -26.6800  -27.3880   20.3200 C   0  0  0  0  0  0  0  0  0  0  0  0
  -23.0480  -30.7090   21.4630 C   0  0  0  0  0  3  0  0  0  0  0  0
  -24.4330  -29.0000   20.1010 C   0  0  0  0  0  0  0  0  0  0  0  0
  -25.6050  -30.8830   21.2060 C   0  0  0  0  0  2  0  0  0  0  0  0
  -25.6290  -29.5150   20.6140 C   0  0  0  0  0  0  0  0  0  0  0  0
  -26.8020  -28.7420   20.6400 C   0  0  0  0  0  3  0  0  0  0  0  0
  -25.5870  -26.9250   19.5630 C   0  0  0  0  0  3  0  0  0  0  0  0
  -24.4150  -27.7160   19.5190 C   0  0  0  0  0  3  0  0  0  0  0  0
  -23.2240  -29.9240   20.1320 C   0  0  0  0  0  2  0  0  0  0  0  0
  -24.3750  -31.2020   21.9730 N   0  0  0  0  0  0  0  0  0  0  0  0
  -23.4150  -32.3910   23.6540 O   0  0  0  0  0  0  0  0  0  0  0  0
  -22.3470  -29.7260   22.4000 C   0  0  0  0  0  0  0  0  0  0  0  0
  -21.0250  -29.6020   22.4900 N   0  0  0  0  0  0  0  0  0  0  0  0
  -23.0360  -28.9190   22.9410 O   0  0  0  0  0  0  0  0  0  0  0  0
  -20.4360  -30.2120   21.9340 H   0  0  0  0  0  0  0  0  0  0  0  0
  -17.8120  -28.2040   23.1180 C   0  0  0  0  0  0  0  0  0  0  0  0
  -20.3330  -28.6510   23.3750 C   0  0  0  0  0  3  0  0  0  0  0  0
  -20.5320  -27.1630   22.9760 C   0  0  0  0  0  2  0  0  0  0  0  0
  -19.4760  -26.6640   21.9880 C   0  0  0  0  0  2  0  0  0  0  0  0
  -18.0770  -26.7980   22.5940 C   0  0  0  0  0  2  0  0  0  0  0  0
  -18.8750  -29.0600   23.4990 C   0  0  0  0  0  0  0  0  0  0  0  0
  -18.5910  -30.3610   23.9600 C   0  0  0  0  0  3  0  0  0  0  0  0
  -17.2660  -30.8230   24.0330 C   0  0  0  0  0  3  0  0  0  0  0  0
  -16.2110  -29.9720   23.6590 C   0  0  0  0  0  3  0  0  0  0  0  0
  -16.4820  -28.6650   23.2110 C   0  0  0  0  0  3  0  0  0  0  0  0
  -25.8350  -32.4540   23.6070 C   0  0  0  0  0  0  0  0  0  0  0  0
  -26.9820  -31.4030   24.5170 C   0  0  0  0  0  2  0  0  0  0  0  0
  -26.7600  -30.3360   27.0160 C   0  0  0  0  0  3  0  0  0  0  0  0
  -27.0050  -29.4880   26.3020 C   0  0  0  0  0  1  0  0  0  0  0  0
  -28.1740  -32.4990   23.9350 C   0  0  0  0  0  1  0  0  0  0  0  0
  -25.5920  -33.8810   24.0620 N   0  0  0  0  0  4  0  0  0  0  0  0
  -25.8990  -35.0040   23.3600 C   0  0  0  0  0  0  0  0  0  0  0  0
  -26.5220  -34.9650   22.2930 O   0  0  0  0  0  0  0  0  0  0  0  0
  -25.0130  -33.9880   24.8790 H   0  0  0  0  0  0  0  0  0  0  0  0
  -24.1830  -36.8570   23.1010 C   0  0  0  0  0  1  0  0  0  0  0  0
  -25.4330  -36.3910   23.8750 C   0  0  0  0  0  3  0  0  0  0  0  0
  -27.5940  -37.2460   24.6690 C   0  0  0  0  0  1  0  0  0  0  0  0
  -26.4680  -37.4500   23.7620 N   0  0  0  0  0  0  0  0  0  0  0  0
  -26.0730  -38.3670   23.9460 H   0  0  0  0  0  0  0  0  0  0  0  0
  1 91  1  0
  3 91  1  0
  4  5  1  0
  4  6  1  0
  6 56  1  0
  7  5  1  0
  8  7  1  0
 10 13  1  0
 11  9  1  0
 12 10  1  0
 13  9  1  0
 13  8  1  0
 14 15  1  0
 14 12  1  0
 14 11  1  0
 15 16  1  0
 15 17  1  0
 18 19  2  0
 18 15  1  0
 20 19  1  0
 21 26  1  0
 22 23  1  0
 22 21  1  0
 24 23  1  0
 24 31  1  0
 24 25  1  0
 26 20  1  0
 26 25  1  0
 27 20  2  0
 28 29  2  0
 29 48  1  0
 30 29  1  0
 30 33  1  0
 31 32  1  0
 31 28  1  0
 32 30  2  0
 33 34  1  0
 34 35  2  0
 36 39  1  0
 36 35  1  0
 37 36  2  0
 38 37  1  0
 38 33  2  0
 39 40  1  0
 40 45  2  0
 40 41  1  0
 41 42  2  0
 42 43  1  0
 43 47  1  0
 44 43  2  0
 45 44  1  0
 46 45  1  0
 48 49  1  0
 49 52  1  0
 49 51  1  0
 50 48  2  0
 53 28  1  0
 53 54  1  0
 55 53  1  0
 57 58  1  0
 57 56  1  0
 59 57  1  0
 60 57  1  0
 61 60  1  0
 62 61  1  0
 63 89  1  0
 63 74  2  0
 64 69  1  0
 64 62  1  0
 65 73  1  0
 65 75  1  0
 66 72  1  0
 66 68  1  0
 67 73  1  0
 68 69  2  0
 68 67  1  0
 70 64  2  0
 71 70  1  0
 71 66  2  0
 72 65  1  0
 73 63  1  0
 75 76  1  0
 75 77  2  0
 78 76  1  0
 79 88  2  0
 79 84  1  0
 80 76  1  0
 80 84  1  0
 81 80  1  0
 82 83  1  0
 82 81  1  0
 83 79  1  0
 84 85  2  0
 85 86  1  0
 87 86  2  0
 88 87  1  0
 89 94  2  3
 89 90  1  0
 92 91  1  0
 93 90  1  0
 94 97  1  0
 95 99  1  0
 95 94  1  0
 96 95  2  0
 99 98  1  0
101 99  1  0
101102  1  0
101100  1  0
M  ISO  4  19 100  20 100  61 101  62 101
M  END
>  <TORSDO>  (27) 
F 26

>  <SCORE>  (27) 
-13.278

>  <name>  (27) 
26

>  <ligand_id>  (27) 
26

>  <original_smiles>  (27) 
[H]c1c([H])c([H])c2c(c1[H])C([H])([H])C([H])([H])C([H])([H])C2([H])N([H])C(=O)C1([H])N(C(=O)C([H])(N([H])C(=O)C([H])(N([H])C([H])([H])[H])C([H])([H])[H])C(C([H])([H])[H])(C([H])([H])[H])C([H])([H])[H])C([H])([H])c2c([H])c(OC([H])([H])C([H])([H])[N+]([H])([H])C([H])([H])c3c([H])c([H])c([H])c(C([H])([H])C([H])([H])C4([H])C([H])([H])C([H])([H])C([H])([N+]([H])([H])C([H])([H])C([H])([H])C(=O)N5C([H])([H])C([H])([H])C([H])([H])C([H])(n6nc(-c7c([H])c([H])c(Oc8c([H])c([H])c(F)c([H])c8F)c([H])c7[H])c(C(=O)N([H])[H])c6N([H])[H])C5([H])[H])C([H])([H])C4([H])[H])c3[H])c([H])c([H])c2C1([H])[H]

>  <smiles>  (27) 
[H]c1c([H])c([H])c2c(c1[H])C([H])([H])C([H])([H])C([H])([H])C2([H])N([H])C(=O)C1([H])N(C(=O)C([H])(N([H])C(=O)C([H])(N([H])C([H])([H])[H])C([H])([H])[H])C(C([H])([H])[H])(C([H])([H])[H])C([H])([H])[H])C([H])([H])c2c([H])c(OC([H])([H])C([H])([H])[N+]([H])([H])C([H])([H])c3c([H])c([H])c([H])c(C([H])([H])C([H])([H])C4([H])C([H])([H])C([H])([H])C([H])([N+]([H])([H])C([H])([H])C([H])([H])C(=O)N5C([H])([H])C([H])([H])C([H])([H])C([H])(n6nc(-c7c([H])c([H])c(Oc8c([H])c([H])c(F)c([H])c8F)c([H])c7[H])c(C(=O)N([H])[H])c6N([H])[H])C5([H])[H])C([H])([H])C4([H])[H])c3[H])c([H])c([H])c2C1([H])[H]

$$$$
27:0:0
     RDKit          3D

101109  0  0  1  0  0  0  0  0999 V2000
  -29.9910  -23.3970   23.4150 N   0  0  0  0  0  4  0  0  0  0  0  0
  -29.3360  -23.6840   24.1260 H   0  0  0  0  0  0  0  0  0  0  0  0
  -30.6630  -24.1460   23.3390 H   0  0  0  0  0  0  0  0  0  0  0  0
  -27.5120  -25.2960   22.1360 C   0  0  0  0  0  2  0  0  0  0  0  0
  -27.8220  -25.6830   20.6670 C   0  0  0  0  0  2  0  0  0  0  0  0
  -27.7490  -23.7980   22.4400 C   0  0  0  0  0  2  0  0  0  0  0  0
  -29.8380  -24.1940   20.9960 C   0  0  0  0  0  2  0  0  0  0  0  0
  -28.7640  -24.6700   19.9840 C   0  0  0  0  0  3  0  0  0  0  0  0
  -29.2130  -23.3060   22.1380 C   0  0  1  0  0  0  0  0  0  0  0  0
  -28.8630  -20.7670   22.7800 C   0  0  0  0  0  1  0  0  0  0  0  0
  -29.1420  -21.8110   21.6790 C   0  0  0  0  0  2  0  0  0  0  0  0
  -29.2510  -25.1300   18.6830 O   0  0  0  0  0  0  0  0  0  0  0  0
  -26.3270  -26.7990   12.5660 C   0  0  0  0  0  0  0  0  0  0  0  0
  -28.3790  -26.0310   18.1130 C   0  0  0  0  0  0  0  0  0  0  0  0
  -26.4470  -28.6530   14.2080 C   0  0  0  0  0  3  0  0  0  0  0  0
  -26.9520  -27.9640   16.6240 C   0  0  0  0  0  0  0  0  0  0  0  0
  -26.1570  -26.2400   14.9870 C   0  0  0  0  0  2  0  0  0  0  0  0
  -26.9100  -26.6180   16.2440 C   0  0  0  0  0  0  0  0  0  0  0  0
  -27.5960  -25.6500   16.9990 C   0  0  0  0  0  3  0  0  0  0  0  0
  -28.3770  -27.3800   18.5260 C   0  0  0  0  0  3  0  0  0  0  0  0
  -27.6730  -28.3500   17.7750 C   0  0  0  0  0  3  0  0  0  0  0  0
  -26.2200  -28.9380   15.7270 C   0  0  0  0  0  2  0  0  0  0  0  0
  -26.3370  -27.1960   13.8700 N   0  0  0  0  0  0  0  0  0  0  0  0
  -26.3570  -27.6250   11.6450 O   0  0  0  0  0  0  0  0  0  0  0  0
  -27.7900  -29.2850   13.7800 C   0  0  0  0  0  0  0  0  0  0  0  0
  -28.8970  -28.7460   14.3160 N   0  0  0  0  0  0  0  0  0  0  0  0
  -27.8230  -30.2090   12.9630 O   0  0  0  0  0  0  0  0  0  0  0  0
  -28.7770  -28.0030   14.9890 H   0  0  0  0  0  0  0  0  0  0  0  0
  -31.8670  -27.8110   12.4800 C   0  0  0  0  0  0  0  0  0  0  0  0
  -30.2760  -29.1380   14.0290 C   0  0  0  0  0  3  0  0  0  0  0  0
  -30.3330  -30.2510   12.9580 C   0  0  0  0  0  2  0  0  0  0  0  0
  -30.4950  -29.7150   11.5330 C   0  0  0  0  0  2  0  0  0  0  0  0
  -31.7810  -28.8920   11.4140 C   0  0  0  0  0  2  0  0  0  0  0  0
  -31.1460  -27.9190   13.6980 C   0  0  0  0  0  0  0  0  0  0  0  0
  -31.2290  -26.8740   14.6430 C   0  0  0  0  0  3  0  0  0  0  0  0
  -32.0210  -25.7400   14.3950 C   0  0  0  0  0  3  0  0  0  0  0  0
  -32.7510  -25.6460   13.1970 C   0  0  0  0  0  3  0  0  0  0  0  0
  -32.6740  -26.6780   12.2450 C   0  0  0  0  0  3  0  0  0  0  0  0
  -26.2580  -25.2870   12.1720 C   0  0  0  0  0  3  0  0  0  0  0  0
  -24.9080  -25.0180   11.6600 N   0  0  0  0  0  0  0  0  0  0  0  0
  -24.0610  -24.1190   12.1810 C   0  0  0  0  0  0  0  0  0  0  0  0
  -24.3720  -23.3660   13.1080 O   0  0  0  0  0  0  0  0  0  0  0  0
  -24.5720  -25.6370   10.9390 H   0  0  0  0  0  0  0  0  0  0  0  0
  -21.6070  -24.3820   12.6690 C   0  0  0  0  0  1  0  0  0  0  0  0
  -22.6440  -24.0440   11.5850 C   0  0  0  0  0  3  0  0  0  0  0  0
  -23.1180  -22.4330    9.7950 C   0  0  0  0  0  1  0  0  0  0  0  0
  -22.3220  -22.7320   10.9820 N   0  0  0  0  0  0  0  0  0  0  0  0
  -21.3390  -22.6870   10.7200 H   0  0  0  0  0  0  0  0  0  0  0  0
  -27.3510  -24.8770   11.1070 C   0  0  1  0  0  0  0  0  0  0  0  0
  -27.3260  -25.7250    9.8130 C   0  0  0  0  0  1  0  0  0  0  0  0
  -28.7670  -24.9880   11.7210 C   0  0  0  0  0  1  0  0  0  0  0  0
  -27.1470  -23.4020   10.6890 C   0  0  0  0  0  1  0  0  0  0  0  0
  -30.7150  -22.2060   23.9300 C   0  0  0  0  0  2  0  0  0  0  0  0
  -31.4650  -21.4660   22.7850 C   0  0  0  0  0  2  0  0  0  0  0  0
  -31.3940  -22.0990   21.3760 C   0  0  0  0  0  2  0  0  0  0  0  0
  -32.7310  -22.7140   20.9020 C   0  0  0  0  0  2  0  0  0  0  0  0
  -33.8070  -21.6700   20.5210 C   0  0  0  0  0  2  0  0  0  0  0  0
  -33.4430  -20.9130   19.2960 N   0  0  0  0  0  4  0  0  0  0  0  0
  -33.8100  -21.3750   18.4760 H   0  0  0  0  0  0  0  0  0  0  0  0
  -32.4400  -20.9240   19.2240 H   0  0  0  0  0  0  0  0  0  0  0  0
  -33.8750  -19.4960   19.2800 C   0  0  0  0  0  2  0  0  0  0  0  0
  -35.1980  -19.3120   18.5030 C   0  0  0  0  0  2  0  0  0  0  0  0
  -35.0480  -18.5550   17.1670 C   0  0  0  0  0  2  0  0  0  0  0  0
  -32.7100  -19.2890   16.7240 C   0  0  0  0  0  0  0  0  0  0  0  0
  -31.4430  -21.3840   16.7470 C   0  0  0  0  0  2  0  0  0  0  0  0
  -29.9470  -21.2950   16.4250 C   0  0  0  0  0  2  0  0  0  0  0  0
  -29.7250  -21.3860   14.9080 C   0  0  0  0  0  2  0  0  0  0  0  0
  -30.5860  -20.3550   14.1340 C   0  0  0  0  0  3  0  0  0  0  0  0
  -32.0700  -20.4110   14.5740 C   0  0  0  0  0  2  0  0  0  0  0  0
  -32.1550  -20.3140   16.0430 N   0  0  0  0  0  0  0  0  0  0  0  0
  -32.2990  -18.8650   17.8080 O   0  0  0  0  0  0  0  0  0  0  0  0
  -33.9690  -19.0800   16.3250 N   0  0  0  0  0  0  0  0  0  0  0  0
  -34.2470  -19.6110   15.5140 H   0  0  0  0  0  0  0  0  0  0  0  0
  -30.7590  -21.6210   11.8960 C   0  0  0  0  0  0  0  0  0  0  0  0
  -30.5030  -21.2380   10.6070 C   0  0  0  0  0  0  0  0  0  0  0  0
  -30.0330  -19.8920   10.6810 C   0  0  0  0  0  0  0  0  0  0  0  0
  -30.4380  -20.5310   12.6900 N   0  0  0  0  0  0  0  0  0  0  0  0
  -29.9510  -19.5030   11.9460 N   0  0  0  0  0  0  0  0  0  0  0  0
  -29.7140  -18.9300    9.6180 C   0  0  0  0  0  0  0  0  0  0  0  0
  -28.4510  -18.3030    9.5470 C   0  0  0  0  0  3  0  0  0  0  0  0
  -28.1600  -17.3960    8.5060 C   0  0  0  0  0  3  0  0  0  0  0  0
  -29.1330  -17.1110    7.5190 C   0  0  0  0  0  0  0  0  0  0  0  0
  -30.3980  -17.7190    7.6090 C   0  0  0  0  0  3  0  0  0  0  0  0
  -30.6880  -18.6180    8.6490 C   0  0  0  0  0  3  0  0  0  0  0  0
  -28.9500  -16.2230    6.4870 O   0  0  0  0  0  0  0  0  0  0  0  0
  -27.6970  -15.8850    6.0450 C   0  0  0  0  0  0  0  0  0  0  0  0
  -26.6450  -16.8270    5.9880 C   0  0  0  0  0  3  0  0  0  0  0  0
  -25.3930  -16.4550    5.4620 C   0  0  0  0  0  3  0  0  0  0  0  0
  -25.1900  -15.1470    4.9800 C   0  0  0  0  0  0  0  0  0  0  0  0
  -26.2380  -14.2090    5.0290 C   0  0  0  0  0  3  0  0  0  0  0  0
  -27.4880  -14.5790    5.5550 C   0  0  0  0  0  0  0  0  0  0  0  0
  -28.4990  -13.6780    5.5810 F   0  0  0  0  0  0  0  0  0  0  0  0
  -23.9910  -14.7900    4.4660 F   0  0  0  0  0  0  0  0  0  0  0  0
  -30.7670  -22.0390    9.3650 C   0  0  0  0  0  0  0  0  0  0  0  0
  -29.9530  -21.8550    8.3320 N   0  0  0  0  0  0  0  0  0  0  0  0
  -31.6700  -22.8760    9.3240 O   0  0  0  0  0  0  0  0  0  0  0  0
  -29.2000  -21.1850    8.3760 H   0  0  0  0  0  0  0  0  0  0  0  0
  -30.0900  -22.3870    7.4830 H   0  0  0  0  0  0  0  0  0  0  0  0
  -31.2540  -22.7950   12.4570 N   0  0  0  0  0  0  0  0  0  0  0  0
  -31.5500  -23.5820   11.8880 H   0  0  0  0  0  0  0  0  0  0  0  0
  -31.4230  -22.9360   13.4460 H   0  0  0  0  0  0  0  0  0  0  0  0
  1 53  1  0
  1  2  1  0
  3  1  1  0
  4  6  1  0
  5  4  1  0
  7  9  1  0
  8 12  1  0
  8  5  1  0
  8  7  1  0
  9 11  1  6
  9  6  1  0
  9  1  1  0
 11 10  1  0
 13 23  1  0
 14 20  1  0
 14 12  1  0
 15 25  1  0
 15 22  1  0
 16 21  1  0
 17 18  1  0
 18 16  2  0
 18 19  1  0
 19 14  2  0
 21 20  2  0
 22 16  1  0
 23 15  1  0
 23 17  1  0
 24 13  2  0
 25 26  1  0
 26 28  1  0
 27 25  2  0
 29 34  1  0
 30 26  1  0
 31 30  1  0
 32 31  1  0
 33 32  1  0
 33 29  1  0
 34 30  1  0
 34 35  2  0
 36 35  1  0
 37 36  2  0
 38 29  2  0
 38 37  1  0
 39 13  1  0
 40 39  1  0
 40 41  1  0
 41 42  2  0
 43 40  1  0
 45 41  1  0
 45 44  1  0
 46 47  1  0
 47 45  1  0
 48 47  1  0
 49 51  1  1
 49 39  1  0
 50 49  1  0
 52 49  1  0
 54 53  1  0
 55 54  1  0
 56 55  1  0
 57 56  1  0
 58 57  1  0
 59 58  1  0
 60 58  1  0
 61 58  1  0
 62 61  1  0
 63 62  1  0
 64 71  2  0
 66 65  1  0
 67 66  1  0
 68 77  1  0
 68 69  1  0
 68 67  1  0
 69 70  1  0
 70 64  1  0
 70 65  1  0
 72 64  1  0
 72 63  1  0
 73 72  1  0
 74 99  1  0
 74 77  1  0
 75 76  1  0
 75 74  2  0
 76 78  2  0
 78 77  1  0
 79 76  1  0
 80 79  1  0
 81 80  2  0
 82 83  2  0
 82 81  1  0
 83 84  1  0
 84 79  2  0
 85 82  1  0
 86 85  1  0
 87 86  1  0
 88 87  2  0
 89 90  2  0
 89 88  1  0
 90 91  1  0
 91 92  1  0
 91 86  2  0
 93 89  1  0
 94 75  1  0
 95 97  1  0
 95 94  1  0
 96 94  2  0
 98 95  1  0
 99101  1  0
100 99  1  0
M  ISO  4   8 101  12 101  64 100  72 100
M  END
>  <TORSDO>  (28) 
F 27

>  <SCORE>  (28) 
-0.893

>  <name>  (28) 
27

>  <ligand_id>  (28) 
27

>  <original_smiles>  (28) 
[H]c1c([H])c([H])c2c(c1[H])C([H])([H])C([H])([H])C([H])([H])C2([H])N([H])C(=O)C1([H])N(C(=O)C([H])(N([H])C(=O)C([H])(N([H])C([H])([H])[H])C([H])([H])[H])C(C([H])([H])[H])(C([H])([H])[H])C([H])([H])[H])C([H])([H])c2c([H])c(OC3([H])C([H])([H])C([H])([H])C([H])([H])C(C([H])([H])C([H])([H])[H])([N+]([H])([H])C([H])([H])C([H])([H])C([H])([H])C([H])([H])C([H])([H])[N+]([H])([H])C([H])([H])C([H])([H])C([H])([H])N([H])C(=O)N4C([H])([H])C([H])([H])C([H])([H])C([H])(n5nc(-c6c([H])c([H])c(Oc7c([H])c([H])c(F)c([H])c7F)c([H])c6[H])c(C(=O)N([H])[H])c5N([H])[H])C4([H])[H])C3([H])[H])c([H])c([H])c2C1([H])[H]

>  <smiles>  (28) 
[H]c1c([H])c([H])c2c(c1[H])C([H])([H])C([H])([H])C([H])([H])C2([H])N([H])C(=O)C1([H])N(C(=O)C([H])(N([H])C(=O)C([H])(N([H])C([H])([H])[H])C([H])([H])[H])C(C([H])([H])[H])(C([H])([H])[H])C([H])([H])[H])C([H])([H])c2c([H])c(OC3([H])C([H])([H])C([H])([H])C([H])([H])C(C([H])([H])C([H])([H])[H])([N+]([H])([H])C([H])([H])C([H])([H])C([H])([H])C([H])([H])C([H])([H])[N+]([H])([H])C([H])([H])C([H])([H])C([H])([H])N([H])C(=O)N4C([H])([H])C([H])([H])C([H])([H])C([H])(n5nc(-c6c([H])c([H])c(Oc7c([H])c([H])c(F)c([H])c7F)c([H])c6[H])c(C(=O)N([H])[H])c5N([H])[H])C4([H])[H])C3([H])[H])c([H])c([H])c2C1([H])[H]

$$$$
28:0:0
     RDKit          3D

 99108  0  0  1  0  0  0  0  0999 V2000
  -26.7760  -19.9240   18.9470 C   0  0  0  0  0  3  0  0  0  0  0  0
  -26.1710  -20.9560   18.1830 C   0  0  0  0  0  3  0  0  0  0  0  0
  -28.1430  -22.3690   18.4740 C   0  0  0  0  0  3  0  0  0  0  0  0
  -28.7110  -21.3540   19.2640 C   0  0  0  0  0  0  0  0  0  0  0  0
  -28.0600  -20.1410   19.4870 C   0  0  0  0  0  0  0  0  0  0  0  0
  -26.8450  -22.1820   17.9410 C   0  0  0  0  0  0  0  0  0  0  0  0
  -29.9670  -21.3950   20.0160 C   0  0  0  0  0  0  0  0  0  0  0  0
  -30.0580  -20.1220   20.8600 C   0  0  0  0  0  2  0  0  0  0  0  0
  -28.8600  -19.2290   20.4100 C   0  0  0  0  0  3  0  0  0  0  0  0
  -30.8260  -22.2870   20.0030 O   0  0  0  0  0  0  0  0  0  0  0  0
  -29.3110  -17.9590   19.7730 N   0  0  0  0  0  4  0  0  0  0  0  0
  -29.3460  -18.0310   18.7640 H   0  0  0  0  0  0  0  0  0  0  0  0
  -28.5990  -17.2700   19.9620 H   0  0  0  0  0  0  0  0  0  0  0  0
  -30.5820  -17.3960   20.2900 C   0  0  0  0  0  2  0  0  0  0  0  0
  -30.8900  -15.9850   19.7820 C   0  0  0  0  0  2  0  0  0  0  0  0
  -31.6890  -15.1510   20.7940 C   0  0  0  0  0  2  0  0  0  0  0  0
  -32.9210  -12.9890   20.7520 C   0  0  0  0  0  0  0  0  0  0  0  0
  -32.3100  -10.6170   20.9930 C   0  0  0  0  0  2  0  0  0  0  0  0
  -31.5030  -10.1120   19.7790 C   0  0  0  0  0  2  0  0  0  0  0  0
  -29.9970  -10.3710   19.9820 C   0  0  0  0  0  2  0  0  0  0  0  0
  -29.6930  -11.8200   20.4520 C   0  0  0  0  0  3  0  0  0  0  0  0
  -30.6240  -12.2180   21.6220 C   0  0  0  0  0  2  0  0  0  0  0  0
  -32.0130  -12.0510   21.1620 N   0  0  0  0  0  0  0  0  0  0  0  0
  -34.1070  -12.6840   20.6060 O   0  0  0  0  0  0  0  0  0  0  0  0
  -32.4730  -14.1130   20.1150 N   0  0  0  0  0  0  0  0  0  0  0  0
  -27.5310  -13.1450   20.9200 C   0  0  0  0  0  0  0  0  0  0  0  0
  -26.2530  -12.7320   21.2000 C   0  0  0  0  0  0  0  0  0  0  0  0
  -26.2840  -11.3060   21.1850 C   0  0  0  0  0  0  0  0  0  0  0  0
  -28.2810  -11.9820   20.7960 N   0  0  0  0  0  0  0  0  0  0  0  0
  -27.5270  -10.8740   21.0080 N   0  0  0  0  0  0  0  0  0  0  0  0
  -25.1880  -10.3270   21.2580 C   0  0  0  0  0  0  0  0  0  0  0  0
  -25.2090   -9.2550   22.1770 C   0  0  0  0  0  3  0  0  0  0  0  0
  -24.1310   -8.3440   22.2380 C   0  0  0  0  0  3  0  0  0  0  0  0
  -23.0180   -8.5030   21.3760 C   0  0  0  0  0  0  0  0  0  0  0  0
  -23.0180   -9.5520   20.4400 C   0  0  0  0  0  3  0  0  0  0  0  0
  -24.0940  -10.4540   20.3790 C   0  0  0  0  0  3  0  0  0  0  0  0
  -21.9390   -7.6500   21.3470 O   0  0  0  0  0  0  0  0  0  0  0  0
  -21.5810   -6.9030   22.4420 C   0  0  0  0  0  0  0  0  0  0  0  0
  -21.2140   -7.5030   23.6660 C   0  0  0  0  0  3  0  0  0  0  0  0
  -20.7890   -6.7010   24.7430 C   0  0  0  0  0  3  0  0  0  0  0  0
  -20.7200   -5.3020   24.5980 C   0  0  0  0  0  0  0  0  0  0  0  0
  -21.0800   -4.7030   23.3770 C   0  0  0  0  0  3  0  0  0  0  0  0
  -21.5060   -5.5020   22.3020 C   0  0  0  0  0  0  0  0  0  0  0  0
  -21.8290   -4.9230   21.1210 F   0  0  0  0  0  0  0  0  0  0  0  0
  -20.3050   -4.5320   25.6300 F   0  0  0  0  0  0  0  0  0  0  0  0
  -25.0560  -13.6230   21.3450 C   0  0  0  0  0  0  0  0  0  0  0  0
  -24.0970  -13.2220   22.1740 N   0  0  0  0  0  0  0  0  0  0  0  0
  -24.9940  -14.7050   20.7680 O   0  0  0  0  0  0  0  0  0  0  0  0
  -24.1620  -12.3400   22.6590 H   0  0  0  0  0  0  0  0  0  0  0  0
  -23.2840  -13.8010   22.3240 H   0  0  0  0  0  0  0  0  0  0  0  0
  -28.0700  -14.4140   20.7230 N   0  0  0  0  0  0  0  0  0  0  0  0
  -27.3430  -15.0430   20.3950 H   0  0  0  0  0  0  0  0  0  0  0  0
  -28.8500  -14.4200   20.0740 H   0  0  0  0  0  0  0  0  0  0  0  0
  -32.9560  -14.1780   17.6120 C   0  0  0  0  0  1  0  0  0  0  0  0
  -33.2880  -14.7130   19.0170 C   0  0  0  0  0  2  0  0  0  0  0  0
  -26.1310  -23.2960   17.1590 C   0  0  0  0  0  3  0  0  0  0  0  0
  -26.9230  -24.6220   17.0170 C   0  0  0  0  0  3  0  0  0  0  0  0
  -26.1260  -25.8370   16.4910 C   0  0  0  0  0  2  0  0  0  0  0  0
  -26.6650  -27.0600   17.0260 O   0  0  0  0  0  0  0  0  0  0  0  0
  -25.7540  -29.8920   23.5420 C   0  0  0  0  0  0  0  0  0  0  0  0
  -25.8730  -27.8080   17.8780 C   0  0  0  0  0  0  0  0  0  0  0  0
  -23.8390  -30.0570   21.9970 C   0  0  0  0  0  3  0  0  0  0  0  0
  -24.3080  -29.4440   19.5800 C   0  0  0  0  0  0  0  0  0  0  0  0
  -26.2310  -29.9230   21.0940 C   0  0  0  0  0  2  0  0  0  0  0  0
  -25.6640  -29.2480   19.8600 C   0  0  0  0  0  0  0  0  0  0  0  0
  -26.4500  -28.4230   19.0150 C   0  0  0  0  0  3  0  0  0  0  0  0
  -24.4900  -27.9970   17.6430 C   0  0  0  0  0  3  0  0  0  0  0  0
  -23.7130  -28.8090   18.4810 C   0  0  0  0  0  3  0  0  0  0  0  0
  -23.5260  -30.3380   20.5100 C   0  0  0  0  0  2  0  0  0  0  0  0
  -25.3070  -29.9330   22.2550 N   0  0  0  0  0  0  0  0  0  0  0  0
  -24.9720  -30.0010   24.4970 O   0  0  0  0  0  0  0  0  0  0  0  0
  -23.0260  -28.8250   22.4530 C   0  0  0  0  0  0  0  0  0  0  0  0
  -21.6890  -28.9420   22.3980 N   0  0  0  0  0  0  0  0  0  0  0  0
  -23.5960  -27.7940   22.8170 O   0  0  0  0  0  0  0  0  0  0  0  0
  -21.3030  -29.8330   22.1180 H   0  0  0  0  0  0  0  0  0  0  0  0
  -18.2140  -27.9820   22.0740 C   0  0  0  0  0  0  0  0  0  0  0  0
  -20.7190  -27.8870   22.7140 C   0  0  0  0  0  3  0  0  0  0  0  0
  -20.8280  -26.7110   21.7130 C   0  0  0  0  0  2  0  0  0  0  0  0
  -19.8660  -26.8520   20.5340 C   0  0  0  0  0  2  0  0  0  0  0  0
  -18.4130  -26.8970   21.0270 C   0  0  0  0  0  2  0  0  0  0  0  0
  -19.3030  -28.4570   22.8560 C   0  0  0  0  0  0  0  0  0  0  0  0
  -19.0770  -29.5010   23.7810 C   0  0  0  0  0  3  0  0  0  0  0  0
  -17.7950  -30.0620   23.9340 C   0  0  0  0  0  3  0  0  0  0  0  0
  -16.7180  -29.5750   23.1740 C   0  0  0  0  0  3  0  0  0  0  0  0
  -16.9290  -28.5440   22.2410 C   0  0  0  0  0  3  0  0  0  0  0  0
  -27.2710  -29.7310   23.8730 C   0  0  0  0  0  3  0  0  0  0  0  0
  -27.5400  -30.4960   25.0990 N   0  0  0  0  0  0  0  0  0  0  0  0
  -28.2030  -31.6570   25.1370 C   0  0  0  0  0  0  0  0  0  0  0  0
  -28.7210  -32.1650   24.1380 O   0  0  0  0  0  0  0  0  0  0  0  0
  -27.0830  -30.1810   25.9410 H   0  0  0  0  0  0  0  0  0  0  0  0
  -27.3240  -33.5570   26.5340 C   0  0  0  0  0  1  0  0  0  0  0  0
  -28.3050  -32.3740   26.4960 C   0  0  0  0  0  3  0  0  0  0  0  0
  -30.6130  -31.7680   27.0590 C   0  0  0  0  0  1  0  0  0  0  0  0
  -29.6680  -32.8510   26.8090 N   0  0  0  0  0  0  0  0  0  0  0  0
  -29.6630  -33.4610   27.6190 H   0  0  0  0  0  0  0  0  0  0  0  0
  -27.7190  -28.2250   24.0420 C   0  0  1  0  0  0  0  0  0  0  0  0
  -26.8380  -27.4220   25.0250 C   0  0  0  0  0  1  0  0  0  0  0  0
  -27.6940  -27.4900   22.6810 C   0  0  0  0  0  1  0  0  0  0  0  0
  -29.1790  -28.1650   24.5490 C   0  0  0  0  0  1  0  0  0  0  0  0
  1  5  1  0
  2  1  2  0
  3  4  1  0
  4  5  2  0
  4  7  1  0
  5  9  1  0
  6  2  1  0
  6  3  2  0
  7  8  1  0
  9 11  1  0
  9  8  1  0
 10  7  2  0
 11 13  1  0
 11 14  1  0
 12 11  1  0
 15 14  1  0
 15 16  1  0
 17 23  1  0
 18 23  1  0
 19 20  1  0
 19 18  1  0
 21 20  1  0
 21 29  1  0
 21 22  1  0
 23 22  1  0
 24 17  2  0
 25 17  1  0
 25 16  1  0
 26 27  2  0
 27 46  1  0
 28 27  1  0
 28 31  1  0
 29 26  1  0
 29 30  1  0
 30 28  2  0
 31 32  1  0
 32 33  2  0
 34 33  1  0
 35 34  2  0
 36 35  1  0
 36 31  2  0
 37 34  1  0
 37 38  1  0
 38 39  1  0
 39 40  2  0
 41 40  1  0
 41 45  1  0
 42 41  2  0
 43 38  2  0
 43 42  1  0
 44 43  1  0
 46 47  1  0
 47 50  1  0
 47 49  1  0
 48 46  2  0
 51 26  1  0
 52 51  1  0
 53 51  1  0
 54 55  1  0
 55 25  1  0
 56  6  1  0
 57 56  2  0
 58 57  1  0
 58 59  1  0
 59 61  1  0
 60 71  2  0
 61 66  1  0
 62 70  1  0
 62 72  1  0
 63 65  1  0
 63 69  1  0
 64 70  1  0
 65 64  1  0
 66 65  2  0
 67 61  2  0
 67 68  1  0
 68 63  2  0
 69 62  1  0
 70 60  1  0
 72 74  2  0
 73 72  1  0
 75 73  1  0
 76 85  2  0
 76 81  1  0
 77 73  1  0
 77 81  1  0
 78 77  1  0
 79 80  1  0
 79 78  1  0
 80 76  1  0
 81 82  2  0
 82 83  1  0
 84 83  2  0
 85 84  1  0
 86 60  1  0
 86 96  1  0
 86 87  1  0
 87 88  1  0
 87 90  1  0
 88 92  1  0
 89 88  2  0
 92 91  1  0
 92 94  1  0
 94 93  1  0
 94 95  1  0
 96 99  1  1
 96 97  1  0
 98 96  1  0
M  ISO  4  17 100  25 100  58 101  59 101
M  END
>  <TORSDO>  (29) 
F 24

>  <SCORE>  (29) 
-9.457

>  <name>  (29) 
28

>  <ligand_id>  (29) 
28

>  <original_smiles>  (29) 
[H]c1c([H])c([H])c2c(c1[H])C([H])([H])C([H])([H])C([H])([H])C2([H])N([H])C(=O)C1([H])N(C(=O)C([H])(N([H])C(=O)C([H])(N([H])C([H])([H])[H])C([H])([H])[H])C(C([H])([H])[H])(C([H])([H])[H])C([H])([H])[H])C([H])([H])c2c([H])c(OC([H])([H])C([H])([H])C([H])([H])c3c([H])c([H])c4c(c3[H])C(=O)C([H])([H])C4([H])[N+]([H])([H])C([H])([H])C([H])([H])C([H])([H])N(C(=O)N3C([H])([H])C([H])([H])C([H])([H])C([H])(n4nc(-c5c([H])c([H])c(Oc6c([H])c([H])c(F)c([H])c6F)c([H])c5[H])c(C(=O)N([H])[H])c4N([H])[H])C3([H])[H])C([H])([H])C([H])([H])[H])c([H])c([H])c2C1([H])[H]

>  <smiles>  (29) 
[H]c1c([H])c([H])c2c(c1[H])C([H])([H])C([H])([H])C([H])([H])C2([H])N([H])C(=O)C1([H])N(C(=O)C([H])(N([H])C(=O)C([H])(N([H])C([H])([H])[H])C([H])([H])[H])C(C([H])([H])[H])(C([H])([H])[H])C([H])([H])[H])C([H])([H])c2c([H])c(OC([H])([H])C([H])([H])C([H])([H])c3c([H])c([H])c4c(c3[H])C(=O)C([H])([H])C4([H])[N+]([H])([H])C([H])([H])C([H])([H])C([H])([H])N(C(=O)N3C([H])([H])C([H])([H])C([H])([H])C([H])(n4nc(-c5c([H])c([H])c(Oc6c([H])c([H])c(F)c([H])c6F)c([H])c5[H])c(C(=O)N([H])[H])c4N([H])[H])C3([H])[H])C([H])([H])C([H])([H])[H])c([H])c([H])c2C1([H])[H]

$$$$
29:0:0
     RDKit          3D

 94102  0  0  1  0  0  0  0  0999 V2000
  -31.5000  -21.4800   20.4310 N   0  0  0  0  0  4  0  0  0  0  0  0
  -30.8680  -21.0320   21.0750 H   0  0  0  0  0  0  0  0  0  0  0  0
  -31.2610  -21.1770   19.5000 H   0  0  0  0  0  0  0  0  0  0  0  0
  -32.8780  -21.0400   20.7370 C   0  0  0  0  0  2  0  0  0  0  0  0
  -33.0660  -19.5140   20.6250 C   0  0  0  0  0  2  0  0  0  0  0  0
  -30.9360  -18.1850   23.5500 C   0  0  0  0  0  3  0  0  0  0  0  0
  -31.7800  -19.0180   22.7910 C   0  0  0  0  0  3  0  0  0  0  0  0
  -30.4630  -16.9740   23.0140 C   0  0  0  0  0  3  0  0  0  0  0  0
  -31.6450  -17.4420   20.9370 C   0  0  0  0  0  3  0  0  0  0  0  0
  -32.1290  -18.6560   21.4710 C   0  0  0  0  0  0  0  0  0  0  0  0
  -30.8310  -16.5780   21.7120 C   0  0  0  0  0  0  0  0  0  0  0  0
  -30.7990  -14.5360   20.2640 C   0  0  0  0  0  0  0  0  0  0  0  0
  -30.3850  -12.4920   18.9440 C   0  0  0  0  0  2  0  0  0  0  0  0
  -29.4080  -12.7800   17.7880 C   0  0  0  0  0  2  0  0  0  0  0  0
  -27.9480  -12.6350   18.2590 C   0  0  0  0  0  2  0  0  0  0  0  0
  -27.6660  -13.4110   19.5720 C   0  0  0  0  0  3  0  0  0  0  0  0
  -28.7480  -13.1060   20.6320 C   0  0  0  0  0  2  0  0  0  0  0  0
  -30.0690  -13.4090   20.0490 N   0  0  0  0  0  0  0  0  0  0  0  0
  -31.8190  -14.7990   19.6190 O   0  0  0  0  0  0  0  0  0  0  0  0
  -30.3320  -15.3300   21.2420 N   0  0  0  0  0  0  0  0  0  0  0  0
  -29.5460  -14.9490   21.7460 H   0  0  0  0  0  0  0  0  0  0  0  0
  -25.2750  -14.0060   20.3210 C   0  0  0  0  0  0  0  0  0  0  0  0
  -24.2210  -13.2280   20.7210 C   0  0  0  0  0  0  0  0  0  0  0  0
  -24.6940  -11.8800   20.6930 C   0  0  0  0  0  0  0  0  0  0  0  0
  -26.3230  -13.1310   20.0780 N   0  0  0  0  0  0  0  0  0  0  0  0
  -25.9760  -11.8480   20.3560 N   0  0  0  0  0  0  0  0  0  0  0  0
  -23.9830  -10.6140   20.9120 C   0  0  0  0  0  0  0  0  0  0  0  0
  -24.4310   -9.6710   21.8630 C   0  0  0  0  0  3  0  0  0  0  0  0
  -23.7230   -8.4680   22.0680 C   0  0  0  0  0  3  0  0  0  0  0  0
  -22.5490   -8.2000   21.3220 C   0  0  0  0  0  0  0  0  0  0  0  0
  -22.1190   -9.1320   20.3620 C   0  0  0  0  0  3  0  0  0  0  0  0
  -22.8290  -10.3260   20.1550 C   0  0  0  0  0  3  0  0  0  0  0  0
  -21.8100   -7.0480   21.4360 O   0  0  0  0  0  0  0  0  0  0  0  0
  -21.7560   -6.3400   22.6100 C   0  0  0  0  0  0  0  0  0  0  0  0
  -21.3180   -6.9290   23.8170 C   0  0  0  0  0  3  0  0  0  0  0  0
  -21.2130   -6.1460   24.9830 C   0  0  0  0  0  3  0  0  0  0  0  0
  -21.5330   -4.7760   24.9440 C   0  0  0  0  0  0  0  0  0  0  0  0
  -21.9640   -4.1870   23.7430 C   0  0  0  0  0  3  0  0  0  0  0  0
  -22.0720   -4.9670   22.5780 C   0  0  0  0  0  0  0  0  0  0  0  0
  -22.4670   -4.3890   21.4180 F   0  0  0  0  0  0  0  0  0  0  0  0
  -21.4240   -4.0220   26.0630 F   0  0  0  0  0  0  0  0  0  0  0  0
  -22.8250  -13.6970   21.0200 C   0  0  0  0  0  0  0  0  0  0  0  0
  -22.1250  -13.0070   21.9120 N   0  0  0  0  0  0  0  0  0  0  0  0
  -22.3650  -14.7110   20.4960 O   0  0  0  0  0  0  0  0  0  0  0  0
  -22.5080  -12.1870   22.3600 H   0  0  0  0  0  0  0  0  0  0  0  0
  -21.1900  -13.3040   22.1530 H   0  0  0  0  0  0  0  0  0  0  0  0
  -25.4240  -15.3770   20.1270 N   0  0  0  0  0  0  0  0  0  0  0  0
  -24.6590  -16.0300   20.2530 H   0  0  0  0  0  0  0  0  0  0  0  0
  -26.2740  -15.8190   19.7990 H   0  0  0  0  0  0  0  0  0  0  0  0
  -31.3270  -22.9470   20.5170 C   0  0  0  0  0  2  0  0  0  0  0  0
  -29.8950  -23.4060   20.1890 C   0  0  0  0  0  2  0  0  0  0  0  0
  -29.7580  -24.9360   20.2740 C   0  0  0  0  0  2  0  0  0  0  0  0
  -28.3540  -25.4570   19.9410 C   0  0  0  0  0  2  0  0  0  0  0  0
  -28.3600  -26.8620   20.1640 O   0  0  0  0  0  0  0  0  0  0  0  0
  -24.5470  -31.9680   23.2740 C   0  0  0  0  0  0  0  0  0  0  0  0
  -27.1570  -27.5310   20.1730 C   0  0  0  0  0  0  0  0  0  0  0  0
  -23.3190  -30.5610   21.6510 C   0  0  0  0  0  3  0  0  0  0  0  0
  -24.7520  -29.0150   20.2180 C   0  0  0  0  0  0  0  0  0  0  0  0
  -25.8380  -30.9230   21.4190 C   0  0  0  0  0  2  0  0  0  0  0  0
  -25.9150  -29.5490   20.7850 C   0  0  0  0  0  0  0  0  0  0  0  0
  -27.1180  -28.8140   20.7590 C   0  0  0  0  0  3  0  0  0  0  0  0
  -25.9730  -27.0000   19.6090 C   0  0  0  0  0  3  0  0  0  0  0  0
  -24.7750  -27.7390   19.6300 C   0  0  0  0  0  3  0  0  0  0  0  0
  -23.5080  -29.8730   20.2730 C   0  0  0  0  0  2  0  0  0  0  0  0
  -24.5870  -31.1650   22.1730 N   0  0  0  0  0  0  0  0  0  0  0  0
  -23.4730  -32.2430   23.8270 O   0  0  0  0  0  0  0  0  0  0  0  0
  -22.6790  -29.5440   22.6240 C   0  0  0  0  0  0  0  0  0  0  0  0
  -21.3560  -29.3490   22.4980 N   0  0  0  0  0  0  0  0  0  0  0  0
  -23.3690  -28.9330   23.4440 O   0  0  0  0  0  0  0  0  0  0  0  0
  -20.8620  -29.8940   21.8060 H   0  0  0  0  0  0  0  0  0  0  0  0
  -17.9970  -28.1180   22.9900 C   0  0  0  0  0  0  0  0  0  0  0  0
  -20.5470  -28.4130   23.2770 C   0  0  0  0  0  3  0  0  0  0  0  0
  -20.6740  -26.9740   22.7230 C   0  0  0  0  0  2  0  0  0  0  0  0
  -19.5830  -26.6220   21.7070 C   0  0  0  0  0  2  0  0  0  0  0  0
  -18.1950  -26.7600   22.3380 C   0  0  0  0  0  2  0  0  0  0  0  0
  -19.1010  -28.9010   23.4160 C   0  0  0  0  0  0  0  0  0  0  0  0
  -18.8640  -30.1720   23.9840 C   0  0  0  0  0  3  0  0  0  0  0  0
  -17.5520  -30.6600   24.1290 C   0  0  0  0  0  3  0  0  0  0  0  0
  -16.4600  -29.8750   23.7200 C   0  0  0  0  0  3  0  0  0  0  0  0
  -16.6830  -28.6060   23.1570 C   0  0  0  0  0  3  0  0  0  0  0  0
  -25.8430  -32.5980   23.8760 C   0  0  0  0  0  3  0  0  0  0  0  0
  -25.5420  -33.9970   24.2060 N   0  0  0  0  0  0  0  0  0  0  0  0
  -25.8640  -35.0450   23.4360 C   0  0  0  0  0  0  0  0  0  0  0  0
  -26.5190  -34.9360   22.3960 O   0  0  0  0  0  0  0  0  0  0  0  0
  -24.9590  -34.1560   25.0150 H   0  0  0  0  0  0  0  0  0  0  0  0
  -24.1310  -36.8340   23.0970 C   0  0  0  0  0  1  0  0  0  0  0  0
  -25.3830  -36.4360   23.8920 C   0  0  0  0  0  3  0  0  0  0  0  0
  -27.5310  -37.3230   24.6850 C   0  0  0  0  0  1  0  0  0  0  0  0
  -26.4160  -37.4870   23.7580 N   0  0  0  0  0  0  0  0  0  0  0  0
  -26.0120  -38.4080   23.9080 H   0  0  0  0  0  0  0  0  0  0  0  0
  -26.3780  -31.8270   25.1460 C   0  0  1  0  0  0  0  0  0  0  0  0
  -25.3000  -31.5900   26.2290 C   0  0  0  0  0  1  0  0  0  0  0  0
  -26.9530  -30.4500   24.7430 C   0  0  0  0  0  1  0  0  0  0  0  0
  -27.5380  -32.6210   25.7910 C   0  0  0  0  0  1  0  0  0  0  0  0
  1 50  1  0
  1  4  1  0
  1  2  1  0
  3  1  1  0
  5  4  1  0
  5 10  1  0
  7  6  2  0
  8  6  1  0
  9 10  2  0
  9 11  1  0
 10  7  1  0
 11  8  2  0
 12 20  1  0
 13 18  1  0
 14 15  1  0
 14 13  1  0
 16 15  1  0
 16 25  1  0
 16 17  1  0
 18 12  1  0
 18 17  1  0
 19 12  2  0
 20 11  1  0
 20 21  1  0
 22 23  2  0
 23 42  1  0
 24 23  1  0
 24 27  1  0
 25 22  1  0
 25 26  1  0
 26 24  2  0
 27 28  1  0
 28 29  2  0
 30 33  1  0
 30 29  1  0
 31 30  2  0
 32 31  1  0
 32 27  2  0
 33 34  1  0
 34 35  1  0
 35 36  2  0
 37 36  1  0
 37 41  1  0
 38 37  2  0
 39 34  2  0
 39 38  1  0
 40 39  1  0
 42 43  1  0
 43 46  1  0
 43 45  1  0
 44 42  2  0
 47 48  1  0
 47 22  1  0
 49 47  1  0
 51 52  1  0
 51 50  1  0
 53 54  1  0
 53 52  1  0
 54 56  1  0
 55 66  2  0
 56 61  1  0
 57 65  1  0
 57 67  1  0
 58 64  1  0
 58 60  1  0
 59 65  1  0
 60 59  1  0
 61 60  2  0
 62 63  1  0
 62 56  2  0
 63 58  2  0
 64 57  1  0
 65 55  1  0
 67 69  2  0
 68 67  1  0
 70 68  1  0
 71 80  2  0
 71 76  1  0
 72 68  1  0
 72 76  1  0
 73 72  1  0
 74 75  1  0
 74 73  1  0
 75 71  1  0
 76 77  2  0
 77 78  1  0
 79 78  2  0
 80 79  1  0
 81 55  1  0
 81 82  1  0
 81 91  1  0
 82 85  1  0
 83 87  1  0
 83 82  1  0
 84 83  2  0
 87 86  1  0
 89 87  1  0
 89 90  1  0
 89 88  1  0
 91 94  1  1
 91 92  1  0
 93 91  1  0
M  ISO  4  12 100  20 100  53 101  54 101
M  END
>  <TORSDO>  (30) 
F 23

>  <SCORE>  (30) 
-11.875

>  <name>  (30) 
29

>  <ligand_id>  (30) 
29

>  <original_smiles>  (30) 
[H]c1c([H])c([H])c2c(c1[H])C([H])([H])C([H])([H])C([H])([H])C2([H])N([H])C(=O)C1([H])N(C(=O)C([H])(N([H])C(=O)C([H])(N([H])C([H])([H])[H])C([H])([H])[H])C(C([H])([H])[H])(C([H])([H])[H])C([H])([H])[H])C([H])([H])c2c([H])c(OC([H])([H])C([H])([H])C([H])([H])C([H])([H])[N+]([H])([H])C([H])([H])C([H])([H])c3c([H])c([H])c([H])c(N([H])C(=O)N4C([H])([H])C([H])([H])C([H])([H])C([H])(n5nc(-c6c([H])c([H])c(Oc7c([H])c([H])c(F)c([H])c7F)c([H])c6[H])c(C(=O)N([H])[H])c5N([H])[H])C4([H])[H])c3[H])c([H])c([H])c2C1([H])[H]

>  <smiles>  (30) 
[H]c1c([H])c([H])c2c(c1[H])C([H])([H])C([H])([H])C([H])([H])C2([H])N([H])C(=O)C1([H])N(C(=O)C([H])(N([H])C(=O)C([H])(N([H])C([H])([H])[H])C([H])([H])[H])C(C([H])([H])[H])(C([H])([H])[H])C([H])([H])[H])C([H])([H])c2c([H])c(OC([H])([H])C([H])([H])C([H])([H])C([H])([H])[N+]([H])([H])C([H])([H])C([H])([H])c3c([H])c([H])c([H])c(N([H])C(=O)N4C([H])([H])C([H])([H])C([H])([H])C([H])(n5nc(-c6c([H])c([H])c(Oc7c([H])c([H])c(F)c([H])c7F)c([H])c6[H])c(C(=O)N([H])[H])c5N([H])[H])C4([H])[H])c3[H])c([H])c([H])c2C1([H])[H]

$$$$
30:0:0
     RDKit          3D

102111  0  0  1  0  0  0  0  0999 V2000
  -23.9660  -22.3920   18.7510 C   0  0  0  0  0  2  0  0  0  0  0  0
  -24.0550  -23.1250   20.1010 C   0  0  0  0  0  2  0  0  0  0  0  0
  -25.8400  -21.4530   19.9560 C   0  0  0  0  0  2  0  0  0  0  0  0
  -25.3070  -21.6780   18.5310 C   0  0  0  0  0  3  0  0  0  0  0  0
  -25.3720  -22.6760   20.7730 C   0  0  0  0  0  3  0  0  0  0  0  0
  -26.4280  -23.7230   20.9150 N   0  0  0  0  0  4  0  0  0  0  0  0
  -27.3010  -23.2520   21.0910 H   0  0  0  0  0  0  0  0  0  0  0  0
  -26.2210  -24.2420   21.7520 H   0  0  0  0  0  0  0  0  0  0  0  0
  -26.6170  -24.7110   19.8220 C   0  0  0  0  0  2  0  0  0  0  0  0
  -28.0780  -25.2040   19.6970 C   0  0  0  0  0  2  0  0  0  0  0  0
  -28.3560  -26.2160   18.5530 C   0  0  0  0  0  2  0  0  0  0  0  0
  -28.3330  -27.5940   18.9510 O   0  0  0  0  0  0  0  0  0  0  0  0
  -24.7310  -31.8090   23.3810 C   0  0  0  0  0  0  0  0  0  0  0  0
  -27.1330  -28.2270   19.1900 C   0  0  0  0  0  0  0  0  0  0  0  0
  -23.3850  -30.6880   21.6360 C   0  0  0  0  0  3  0  0  0  0  0  0
  -24.7100  -29.5620   19.7740 C   0  0  0  0  0  0  0  0  0  0  0  0
  -25.8530  -31.2310   21.2360 C   0  0  0  0  0  2  0  0  0  0  0  0
  -25.9100  -30.0180   20.3330 C   0  0  0  0  0  0  0  0  0  0  0  0
  -27.1220  -29.3500   20.0510 C   0  0  0  0  0  3  0  0  0  0  0  0
  -25.9160  -27.8130   18.6020 C   0  0  0  0  0  3  0  0  0  0  0  0
  -24.7070  -28.4570   18.9120 C   0  0  0  0  0  3  0  0  0  0  0  0
  -23.4490  -30.3140   20.1320 C   0  0  0  0  0  2  0  0  0  0  0  0
  -24.6810  -31.2450   22.1420 N   0  0  0  0  0  0  0  0  0  0  0  0
  -23.7150  -31.9050   24.0850 O   0  0  0  0  0  0  0  0  0  0  0  0
  -22.8960  -29.4560   22.4330 C   0  0  0  0  0  0  0  0  0  0  0  0
  -21.6100  -29.1070   22.2680 N   0  0  0  0  0  0  0  0  0  0  0  0
  -23.6710  -28.8220   23.1550 O   0  0  0  0  0  0  0  0  0  0  0  0
  -21.0420  -29.6740   21.6540 H   0  0  0  0  0  0  0  0  0  0  0  0
  -18.5020  -27.2780   22.3790 C   0  0  0  0  0  0  0  0  0  0  0  0
  -20.9370  -27.9710   22.8990 C   0  0  0  0  0  3  0  0  0  0  0  0
  -21.3500  -26.6400   22.2330 C   0  0  0  0  0  2  0  0  0  0  0  0
  -20.4080  -26.2110   21.1030 C   0  0  0  0  0  2  0  0  0  0  0  0
  -18.9790  -26.0470   21.6280 C   0  0  0  0  0  2  0  0  0  0  0  0
  -19.4210  -28.1860   22.9680 C   0  0  0  0  0  0  0  0  0  0  0  0
  -18.9250  -29.3250   23.6360 C   0  0  0  0  0  3  0  0  0  0  0  0
  -17.5400  -29.5620   23.7220 C   0  0  0  0  0  3  0  0  0  0  0  0
  -16.6340  -28.6540   23.1480 C   0  0  0  0  0  3  0  0  0  0  0  0
  -17.1150  -27.5150   22.4810 C   0  0  0  0  0  3  0  0  0  0  0  0
  -26.0600  -32.3820   23.9690 C   0  0  0  0  0  3  0  0  0  0  0  0
  -26.6750  -31.4810   25.1080 C   0  0  1  0  0  0  0  0  0  0  0  0
  -25.6630  -31.1020   26.2130 C   0  0  0  0  0  1  0  0  0  0  0  0
  -27.2400  -30.1660   24.5190 C   0  0  0  0  0  1  0  0  0  0  0  0
  -27.8640  -32.2120   25.7750 C   0  0  0  0  0  1  0  0  0  0  0  0
  -25.7800  -33.7330   24.4680 N   0  0  0  0  0  0  0  0  0  0  0  0
  -26.0770  -34.8630   23.8110 C   0  0  0  0  0  0  0  0  0  0  0  0
  -26.6900  -34.8720   22.7400 O   0  0  0  0  0  0  0  0  0  0  0  0
  -25.2330  -33.8030   25.3140 H   0  0  0  0  0  0  0  0  0  0  0  0
  -24.3510  -36.6850   23.7260 C   0  0  0  0  0  1  0  0  0  0  0  0
  -25.6170  -36.1900   24.4420 C   0  0  0  0  0  3  0  0  0  0  0  0
  -27.7900  -36.9620   25.2830 C   0  0  0  0  0  1  0  0  0  0  0  0
  -26.6520  -37.2460   24.4150 N   0  0  0  0  0  0  0  0  0  0  0  0
  -26.2580  -38.1410   24.6860 H   0  0  0  0  0  0  0  0  0  0  0  0
  -25.1920  -20.4150   17.6350 C   0  0  0  0  0  2  0  0  0  0  0  0
  -26.3570  -19.5030   17.7150 N   0  0  0  0  0  4  0  0  0  0  0  0
  -26.3010  -18.9630   18.5620 H   0  0  0  0  0  0  0  0  0  0  0  0
  -26.2940  -18.8540   16.9460 H   0  0  0  0  0  0  0  0  0  0  0  0
  -27.6850  -20.1420   17.6470 C   0  0  0  0  0  2  0  0  0  0  0  0
  -30.5760  -17.6510   17.3580 C   0  0  0  0  0  3  0  0  0  0  0  0
  -30.8320  -17.3680   18.7130 C   0  0  0  0  0  3  0  0  0  0  0  0
  -29.5460  -18.5430   17.0090 C   0  0  0  0  0  3  0  0  0  0  0  0
  -29.0090  -18.8410   19.3720 C   0  0  0  0  0  3  0  0  0  0  0  0
  -30.0410  -17.9490   19.7320 C   0  0  0  0  0  0  0  0  0  0  0  0
  -28.7690  -19.1500   18.0160 C   0  0  0  0  0  0  0  0  0  0  0  0
  -30.2840  -17.6160   21.2030 C   0  0  0  0  0  2  0  0  0  0  0  0
  -30.8330  -15.2120   21.1380 C   0  0  0  0  0  0  0  0  0  0  0  0
  -30.6970  -13.1070   19.8880 C   0  0  0  0  0  2  0  0  0  0  0  0
  -29.8710  -13.3580   18.6090 C   0  0  0  0  0  2  0  0  0  0  0  0
  -28.3640  -13.1870   18.8870 C   0  0  0  0  0  2  0  0  0  0  0  0
  -27.8860  -13.9340   20.1590 C   0  0  0  0  0  3  0  0  0  0  0  0
  -28.8420  -13.6860   21.3480 C   0  0  0  0  0  2  0  0  0  0  0  0
  -30.2080  -14.0290   20.9210 N   0  0  0  0  0  0  0  0  0  0  0  0
  -32.0030  -15.4340   20.8160 O   0  0  0  0  0  0  0  0  0  0  0  0
  -30.0250  -16.2110   21.4980 N   0  0  0  0  0  0  0  0  0  0  0  0
  -29.0870  -15.9650   21.7700 H   0  0  0  0  0  0  0  0  0  0  0  0
  -25.3930  -14.3990   20.6080 C   0  0  0  0  0  0  0  0  0  0  0  0
  -24.3390  -13.5630   20.8670 C   0  0  0  0  0  0  0  0  0  0  0  0
  -24.8800  -12.2420   20.8910 C   0  0  0  0  0  0  0  0  0  0  0  0
  -26.5060  -13.5830   20.4940 N   0  0  0  0  0  0  0  0  0  0  0  0
  -26.1940  -12.2790   20.7210 N   0  0  0  0  0  0  0  0  0  0  0  0
  -24.2140  -10.9390   21.0130 C   0  0  0  0  0  0  0  0  0  0  0  0
  -24.6040  -10.0020   21.9940 C   0  0  0  0  0  3  0  0  0  0  0  0
  -23.9360   -8.7620   22.1070 C   0  0  0  0  0  3  0  0  0  0  0  0
  -22.8650   -8.4520   21.2340 C   0  0  0  0  0  0  0  0  0  0  0  0
  -22.4920   -9.3830   20.2480 C   0  0  0  0  0  3  0  0  0  0  0  0
  -23.1620  -10.6130   20.1360 C   0  0  0  0  0  3  0  0  0  0  0  0
  -22.1720   -7.2640   21.2530 O   0  0  0  0  0  0  0  0  0  0  0  0
  -21.9720   -6.5670   22.4160 C   0  0  0  0  0  0  0  0  0  0  0  0
  -21.3480   -7.1540   23.5390 C   0  0  0  0  0  3  0  0  0  0  0  0
  -21.0990   -6.3800   24.6890 C   0  0  0  0  0  3  0  0  0  0  0  0
  -21.4610   -5.0190   24.7160 C   0  0  0  0  0  0  0  0  0  0  0  0
  -22.0760   -4.4330   23.5960 C   0  0  0  0  0  3  0  0  0  0  0  0
  -22.3270   -5.2030   22.4480 C   0  0  0  0  0  0  0  0  0  0  0  0
  -22.9030   -4.6270   21.3630 F   0  0  0  0  0  0  0  0  0  0  0  0
  -21.2130   -4.2730   25.8170 F   0  0  0  0  0  0  0  0  0  0  0  0
  -22.8960  -13.9590   20.9880 C   0  0  0  0  0  0  0  0  0  0  0  0
  -22.1270  -13.2250   21.7860 N   0  0  0  0  0  0  0  0  0  0  0  0
  -22.4520  -14.9490   20.4100 O   0  0  0  0  0  0  0  0  0  0  0  0
  -22.4950  -12.4280   22.2820 H   0  0  0  0  0  0  0  0  0  0  0  0
  -21.1540  -13.4690   21.9060 H   0  0  0  0  0  0  0  0  0  0  0  0
  -25.4920  -15.7770   20.4420 N   0  0  0  0  0  0  0  0  0  0  0  0
  -24.6790  -16.3790   20.5070 H   0  0  0  0  0  0  0  0  0  0  0  0
  -26.3490  -16.2760   20.2490 H   0  0  0  0  0  0  0  0  0  0  0  0
  1  2  1  0
  2  5  1  0
  3  5  1  0
  4 53  1  0
  4  1  1  0
  4  3  1  0
  5  6  1  0
  6  7  1  0
  6  8  1  0
  9  6  1  0
 10  9  1  0
 11 12  1  0
 11 10  1  0
 12 14  1  0
 13 24  2  0
 14 19  1  0
 15 23  1  0
 15 25  1  0
 16 22  1  0
 16 18  1  0
 17 23  1  0
 18 17  1  0
 19 18  2  0
 20 21  1  0
 20 14  2  0
 21 16  2  0
 22 15  1  0
 23 13  1  0
 25 27  2  0
 26 25  1  0
 28 26  1  0
 29 38  2  0
 29 34  1  0
 30 26  1  0
 30 34  1  0
 31 30  1  0
 32 33  1  0
 32 31  1  0
 33 29  1  0
 34 35  2  0
 35 36  1  0
 37 36  2  0
 38 37  1  0
 39 13  1  0
 39 44  1  0
 39 40  1  0
 40 43  1  1
 40 41  1  0
 42 40  1  0
 44 47  1  0
 45 49  1  0
 45 44  1  0
 46 45  2  0
 49 48  1  0
 51 49  1  0
 51 52  1  0
 51 50  1  0
 53 54  1  0
 54 55  1  0
 56 54  1  0
 57 54  1  0
 57 63  1  0
 58 59  1  0
 59 62  2  0
 60 58  2  0
 60 63  1  0
 61 62  1  0
 62 64  1  0
 63 61  2  0
 64 73  1  0
 65 73  1  0
 66 71  1  0
 67 68  1  0
 67 66  1  0
 69 68  1  0
 69 78  1  0
 69 70  1  0
 71 65  1  0
 71 70  1  0
 72 65  2  0
 73 74  1  0
 75 76  2  0
 76 77  1  0
 76 95  1  0
 77 80  1  0
 78 75  1  0
 78 79  1  0
 79 77  2  0
 80 81  1  0
 81 82  2  0
 83 86  1  0
 83 82  1  0
 84 83  2  0
 85 84  1  0
 85 80  2  0
 86 87  1  0
 87 92  2  0
 87 88  1  0
 88 89  2  0
 89 90  1  0
 90 94  1  0
 91 90  2  0
 92 91  1  0
 93 92  1  0
 95 96  1  0
 96 99  1  0
 96 98  1  0
 97 95  2  0
100101  1  0
100 75  1  0
102100  1  0
M  ISO  4  11 101  12 101  65 100  73 100
M  END
>  <TORSDO>  (31) 
F 25

>  <SCORE>  (31) 
-8.671

>  <name>  (31) 
30

>  <ligand_id>  (31) 
30

>  <original_smiles>  (31) 
[H]c1c([H])c([H])c2c(c1[H])C([H])([H])C([H])([H])C([H])([H])C2([H])N([H])C(=O)C1([H])N(C(=O)C([H])(N([H])C(=O)C([H])(N([H])C([H])([H])[H])C([H])([H])[H])C(C([H])([H])[H])(C([H])([H])[H])C([H])([H])[H])C([H])([H])c2c([H])c(OC([H])([H])C([H])([H])C([H])([H])[N+]([H])([H])C3([H])C([H])([H])C([H])([H])C([H])(C([H])([H])[N+]([H])([H])C([H])([H])c4c([H])c([H])c([H])c(C([H])([H])N([H])C(=O)N5C([H])([H])C([H])([H])C([H])([H])C([H])(n6nc(-c7c([H])c([H])c(Oc8c([H])c([H])c(F)c([H])c8F)c([H])c7[H])c(C(=O)N([H])[H])c6N([H])[H])C5([H])[H])c4[H])C3([H])[H])c([H])c([H])c2C1([H])[H]

>  <smiles>  (31) 
[H]c1c([H])c([H])c2c(c1[H])C([H])([H])C([H])([H])C([H])([H])C2([H])N([H])C(=O)C1([H])N(C(=O)C([H])(N([H])C(=O)C([H])(N([H])C([H])([H])[H])C([H])([H])[H])C(C([H])([H])[H])(C([H])([H])[H])C([H])([H])[H])C([H])([H])c2c([H])c(OC([H])([H])C([H])([H])C([H])([H])[N+]([H])([H])C3([H])C([H])([H])C([H])([H])C([H])(C([H])([H])[N+]([H])([H])C([H])([H])c4c([H])c([H])c([H])c(C([H])([H])N([H])C(=O)N5C([H])([H])C([H])([H])C([H])([H])C([H])(n6nc(-c7c([H])c([H])c(Oc8c([H])c([H])c(F)c([H])c8F)c([H])c7[H])c(C(=O)N([H])[H])c6N([H])[H])C5([H])[H])c4[H])C3([H])[H])c([H])c([H])c2C1([H])[H]

$$$$
31:0:0
     RDKit          3D

 99108  0  0  1  0  0  0  0  0999 V2000
  -29.2020  -20.6670   21.3860 C   0  0  0  0  0  2  0  0  0  0  0  0
  -27.5790  -24.8100   20.4870 C   0  0  0  0  0  2  0  0  0  0  0  0
  -29.3360  -21.3360   20.0130 C   0  0  0  0  0  2  0  0  0  0  0  0
  -27.7570  -23.2930   20.3170 C   0  0  0  0  0  2  0  0  0  0  0  0
  -29.7960  -25.1850   19.3480 C   0  0  0  0  0  2  0  0  0  0  0  0
  -29.9470  -22.9810   21.6170 C   0  0  0  0  0  2  0  0  0  0  0  0
  -29.9910  -23.6670   19.1430 C   0  0  0  0  0  3  0  0  0  0  0  0
  -29.5130  -21.7530   22.4370 C   0  0  0  0  0  3  0  0  0  0  0  0
  -28.3130  -25.5940   19.3780 C   0  0  0  0  0  3  0  0  0  0  0  0
  -29.2450  -22.8550   20.2460 C   0  0  1  0  0  0  0  0  0  0  0  0
  -29.6330  -23.2460   17.7020 C   0  0  0  0  0  1  0  0  0  0  0  0
  -30.5290  -21.3360   23.4320 N   0  0  0  0  0  4  0  0  0  0  0  0
  -30.6790  -22.1020   24.0720 H   0  0  0  0  0  0  0  0  0  0  0  0
  -31.4040  -21.1830   22.9570 H   0  0  0  0  0  0  0  0  0  0  0  0
  -30.1490  -20.1490   24.2380 C   0  0  0  0  0  2  0  0  0  0  0  0
  -31.2480  -19.0620   24.2880 C   0  0  0  0  0  2  0  0  0  0  0  0
  -31.5070  -18.3160   22.9540 C   0  0  0  0  0  2  0  0  0  0  0  0
  -30.4740  -17.3020   22.6270 N   0  0  0  0  0  4  0  0  0  0  0  0
  -30.4320  -16.6310   23.3780 H   0  0  0  0  0  0  0  0  0  0  0  0
  -29.5680  -17.7370   22.5630 H   0  0  0  0  0  0  0  0  0  0  0  0
  -30.7210  -16.5810   21.3550 C   0  0  0  0  0  2  0  0  0  0  0  0
  -29.7040  -15.4400   21.1250 C   0  0  0  0  0  2  0  0  0  0  0  0
  -30.0730  -14.5020   19.9620 C   0  0  0  0  0  0  0  0  0  0  0  0
  -29.8150  -12.3020   18.8600 C   0  0  0  0  0  2  0  0  0  0  0  0
  -28.7530  -12.3120   17.7470 C   0  0  0  0  0  2  0  0  0  0  0  0
  -27.3500  -12.0600   18.3290 C   0  0  0  0  0  2  0  0  0  0  0  0
  -27.0390  -12.9770   19.5400 C   0  0  0  0  0  3  0  0  0  0  0  0
  -28.1960  -12.9440   20.5630 C   0  0  0  0  0  2  0  0  0  0  0  0
  -29.4410  -13.3050   19.8650 N   0  0  0  0  0  0  0  0  0  0  0  0
  -30.9620  -14.8460   19.1750 O   0  0  0  0  0  0  0  0  0  0  0  0
  -24.7050  -13.4460   20.5280 C   0  0  0  0  0  0  0  0  0  0  0  0
  -23.7250  -12.6090   20.9920 C   0  0  0  0  0  0  0  0  0  0  0  0
  -24.2440  -11.2850   20.8670 C   0  0  0  0  0  0  0  0  0  0  0  0
  -25.7590  -12.6260   20.1570 N   0  0  0  0  0  0  0  0  0  0  0  0
  -25.4900  -11.3200   20.4140 N   0  0  0  0  0  0  0  0  0  0  0  0
  -23.6080   -9.9820   21.0990 C   0  0  0  0  0  0  0  0  0  0  0  0
  -24.1360   -9.0570   22.0260 C   0  0  0  0  0  3  0  0  0  0  0  0
  -23.4950   -7.8180   22.2440 C   0  0  0  0  0  3  0  0  0  0  0  0
  -22.3140   -7.4950   21.5360 C   0  0  0  0  0  0  0  0  0  0  0  0
  -21.8060   -8.4110   20.5980 C   0  0  0  0  0  3  0  0  0  0  0  0
  -22.4460   -9.6410   20.3770 C   0  0  0  0  0  3  0  0  0  0  0  0
  -21.6400   -6.3050   21.6640 O   0  0  0  0  0  0  0  0  0  0  0  0
  -21.6280   -5.6080   22.8450 C   0  0  0  0  0  0  0  0  0  0  0  0
  -21.1350   -6.1750   24.0410 C   0  0  0  0  0  3  0  0  0  0  0  0
  -21.0770   -5.3990   25.2160 C   0  0  0  0  0  3  0  0  0  0  0  0
  -21.5010   -4.0580   25.1970 C   0  0  0  0  0  0  0  0  0  0  0  0
  -21.9880   -3.4900   24.0060 C   0  0  0  0  0  3  0  0  0  0  0  0
  -22.0480   -4.2630   22.8330 C   0  0  0  0  0  0  0  0  0  0  0  0
  -22.4980   -3.7040   21.6830 F   0  0  0  0  0  0  0  0  0  0  0  0
  -21.4390   -3.3100   26.3230 F   0  0  0  0  0  0  0  0  0  0  0  0
  -22.3450  -13.0070   21.4350 C   0  0  0  0  0  0  0  0  0  0  0  0
  -21.7670  -12.2670   22.3750 N   0  0  0  0  0  0  0  0  0  0  0  0
  -21.7910  -14.0070   20.9820 O   0  0  0  0  0  0  0  0  0  0  0  0
  -22.2300  -11.4560   22.7610 H   0  0  0  0  0  0  0  0  0  0  0  0
  -20.8480  -12.5150   22.7130 H   0  0  0  0  0  0  0  0  0  0  0  0
  -24.7820  -14.8270   20.3750 N   0  0  0  0  0  0  0  0  0  0  0  0
  -24.0020  -15.4410   20.5890 H   0  0  0  0  0  0  0  0  0  0  0  0
  -25.5710  -15.3150   19.9690 H   0  0  0  0  0  0  0  0  0  0  0  0
  -28.2750  -26.9970   19.6300 O   0  0  0  0  0  0  0  0  0  0  0  0
  -24.5050  -31.8940   23.0930 C   0  0  0  0  0  0  0  0  0  0  0  0
  -27.0630  -27.6490   19.6950 C   0  0  0  0  0  0  0  0  0  0  0  0
  -23.2370  -30.5450   21.4510 C   0  0  0  0  0  3  0  0  0  0  0  0
  -24.6390  -29.0940   19.8950 C   0  0  0  0  0  0  0  0  0  0  0  0
  -25.7410  -30.9570   21.1460 C   0  0  0  0  0  2  0  0  0  0  0  0
  -25.8150  -29.6160   20.4470 C   0  0  0  0  0  0  0  0  0  0  0  0
  -27.0260  -28.9010   20.3460 C   0  0  0  0  0  3  0  0  0  0  0  0
  -25.8660  -27.1370   19.1370 C   0  0  0  0  0  3  0  0  0  0  0  0
  -24.6580  -27.8500   19.2410 C   0  0  0  0  0  3  0  0  0  0  0  0
  -23.3860  -29.9260   20.0360 C   0  0  0  0  0  2  0  0  0  0  0  0
  -24.5150  -31.1450   21.9540 N   0  0  0  0  0  0  0  0  0  0  0  0
  -23.4480  -32.1270   23.6960 O   0  0  0  0  0  0  0  0  0  0  0  0
  -22.6500  -29.4740   22.3970 C   0  0  0  0  0  0  0  0  0  0  0  0
  -21.3300  -29.2520   22.2990 N   0  0  0  0  0  0  0  0  0  0  0  0
  -23.3770  -28.8470   23.1720 O   0  0  0  0  0  0  0  0  0  0  0  0
  -20.8020  -29.8130   21.6460 H   0  0  0  0  0  0  0  0  0  0  0  0
  -18.0160  -27.9120   22.8210 C   0  0  0  0  0  0  0  0  0  0  0  0
  -20.5650  -28.2660   23.0620 C   0  0  0  0  0  3  0  0  0  0  0  0
  -20.7150  -26.8530   22.4550 C   0  0  0  0  0  2  0  0  0  0  0  0
  -19.6120  -26.5080   21.4490 C   0  0  0  0  0  2  0  0  0  0  0  0
  -18.2350  -26.5840   22.1160 C   0  0  0  0  0  2  0  0  0  0  0  0
  -19.1100  -28.7090   23.2520 C   0  0  0  0  0  0  0  0  0  0  0  0
  -18.8510  -29.9520   23.8690 C   0  0  0  0  0  3  0  0  0  0  0  0
  -17.5300  -30.3990   24.0620 C   0  0  0  0  0  3  0  0  0  0  0  0
  -16.4510  -29.5990   23.6490 C   0  0  0  0  0  3  0  0  0  0  0  0
  -16.6950  -28.3580   23.0330 C   0  0  0  0  0  3  0  0  0  0  0  0
  -25.8130  -32.5160   23.6760 C   0  0  0  0  0  3  0  0  0  0  0  0
  -25.5080  -33.8980   24.0700 N   0  0  0  0  0  0  0  0  0  0  0  0
  -25.8150  -34.9810   23.3440 C   0  0  0  0  0  0  0  0  0  0  0  0
  -26.4570  -34.9240   22.2920 O   0  0  0  0  0  0  0  0  0  0  0  0
  -24.9350  -34.0180   24.8910 H   0  0  0  0  0  0  0  0  0  0  0  0
  -24.0720  -36.7770   23.0990 C   0  0  0  0  0  1  0  0  0  0  0  0
  -25.3300  -36.3460   23.8690 C   0  0  0  0  0  3  0  0  0  0  0  0
  -27.4760  -37.2080   24.6960 C   0  0  0  0  0  1  0  0  0  0  0  0
  -26.3560  -37.4080   23.7790 N   0  0  0  0  0  0  0  0  0  0  0  0
  -25.9500  -38.3190   23.9710 H   0  0  0  0  0  0  0  0  0  0  0  0
  -26.4010  -31.7020   24.8940 C   0  0  1  0  0  0  0  0  0  0  0  0
  -25.3630  -31.4070   26.0010 C   0  0  0  0  0  1  0  0  0  0  0  0
  -26.9810  -30.3510   24.4180 C   0  0  0  0  0  1  0  0  0  0  0  0
  -27.5710  -32.4860   25.5340 C   0  0  0  0  0  1  0  0  0  0  0  0
  1  8  1  0
  3  1  1  0
  4  2  1  0
  5  9  1  0
  6  8  1  0
  7 11  1  0
  7  5  1  0
  7 10  1  0
  8 12  1  0
  9 59  1  0
  9  2  1  0
 10  3  1  6
 10  4  1  0
 10  6  1  0
 12 13  1  0
 12 15  1  0
 14 12  1  0
 15 16  1  0
 17 16  1  0
 18 17  1  0
 18 19  1  0
 20 18  1  0
 21 18  1  0
 22 21  1  0
 23 22  1  0
 24 29  1  0
 25 26  1  0
 25 24  1  0
 27 26  1  0
 27 34  1  0
 27 28  1  0
 29 23  1  0
 29 28  1  0
 30 23  2  0
 31 32  2  0
 32 51  1  0
 33 32  1  0
 33 36  1  0
 34 35  1  0
 34 31  1  0
 35 33  2  0
 36 37  1  0
 37 38  2  0
 39 42  1  0
 39 38  1  0
 40 39  2  0
 41 40  1  0
 41 36  2  0
 42 43  1  0
 43 44  1  0
 44 45  2  0
 46 45  1  0
 46 50  1  0
 47 46  2  0
 48 43  2  0
 48 47  1  0
 49 48  1  0
 51 52  1  0
 52 55  1  0
 52 54  1  0
 53 51  2  0
 56 31  1  0
 56 57  1  0
 58 56  1  0
 59 61  1  0
 60 71  2  0
 61 66  1  0
 62 70  1  0
 62 72  1  0
 63 69  1  0
 63 65  1  0
 64 70  1  0
 65 64  1  0
 66 65  2  0
 67 68  1  0
 67 61  2  0
 68 63  2  0
 69 62  1  0
 70 60  1  0
 72 74  2  0
 73 72  1  0
 75 73  1  0
 76 85  2  0
 76 81  1  0
 77 73  1  0
 77 81  1  0
 78 77  1  0
 79 80  1  0
 79 78  1  0
 80 76  1  0
 81 82  2  0
 82 83  1  0
 84 83  2  0
 85 84  1  0
 86 60  1  0
 86 87  1  0
 86 96  1  0
 87 90  1  0
 88 92  1  0
 88 87  1  0
 89 88  2  0
 92 91  1  0
 94 92  1  0
 94 95  1  0
 94 93  1  0
 96 99  1  1
 96 97  1  0
 98 96  1  0
M  ISO  4   9 101  22 100  23 100  59 101
M  END
>  <TORSDO>  (32) 
F 23

>  <SCORE>  (32) 
-10.618

>  <name>  (32) 
31

>  <ligand_id>  (32) 
31

>  <original_smiles>  (32) 
[H]c1c([H])c([H])c2c(c1[H])C([H])([H])C([H])([H])C([H])([H])C2([H])N([H])C(=O)C1([H])N(C(=O)C([H])(N([H])C(=O)C([H])(N([H])C([H])([H])[H])C([H])([H])[H])C(C([H])([H])[H])(C([H])([H])[H])C([H])([H])[H])C([H])([H])c2c([H])c(OC3([H])C([H])([H])C([H])([H])C4(C([H])([H])C([H])([H])C([H])([N+]([H])([H])C([H])([H])C([H])([H])C([H])([H])[N+]([H])([H])C([H])([H])C([H])([H])C(=O)N5C([H])([H])C([H])([H])C([H])([H])C([H])(n6nc(-c7c([H])c([H])c(Oc8c([H])c([H])c(F)c([H])c8F)c([H])c7[H])c(C(=O)N([H])[H])c6N([H])[H])C5([H])[H])C4([H])[H])C([H])(C([H])([H])[H])C3([H])[H])c([H])c([H])c2C1([H])[H]

>  <smiles>  (32) 
[H]c1c([H])c([H])c2c(c1[H])C([H])([H])C([H])([H])C([H])([H])C2([H])N([H])C(=O)C1([H])N(C(=O)C([H])(N([H])C(=O)C([H])(N([H])C([H])([H])[H])C([H])([H])[H])C(C([H])([H])[H])(C([H])([H])[H])C([H])([H])[H])C([H])([H])c2c([H])c(OC3([H])C([H])([H])C([H])([H])C4(C([H])([H])C([H])([H])C([H])([N+]([H])([H])C([H])([H])C([H])([H])C([H])([H])[N+]([H])([H])C([H])([H])C([H])([H])C(=O)N5C([H])([H])C([H])([H])C([H])([H])C([H])(n6nc(-c7c([H])c([H])c(Oc8c([H])c([H])c(F)c([H])c8F)c([H])c7[H])c(C(=O)N([H])[H])c6N([H])[H])C5([H])[H])C4([H])[H])C([H])(C([H])([H])[H])C3([H])[H])c([H])c([H])c2C1([H])[H]

$$$$
32:0:0
     RDKit          3D

108116  0  0  1  0  0  0  0  0999 V2000
  -26.2440  -18.9670   20.2430 C   0  0  0  0  0  2  0  0  0  0  0  0
  -26.2300  -19.8730   19.0750 N   0  0  0  0  0  4  0  0  0  0  0  0
  -27.1510  -19.8580   18.6750 H   0  0  0  0  0  0  0  0  0  0  0  0
  -25.5770  -19.5350   18.3850 H   0  0  0  0  0  0  0  0  0  0  0  0
  -25.9760  -21.3070   19.3090 C   0  0  0  0  0  2  0  0  0  0  0  0
  -26.8490  -22.1230   18.3370 C   0  0  0  0  0  2  0  0  0  0  0  0
  -28.9790  -22.1920   19.7310 C   0  0  0  0  0  3  0  0  0  0  0  0
  -31.1130  -21.4080   18.8530 C   0  0  0  0  0  3  0  0  0  0  0  0
  -29.1040  -21.3000   17.4610 C   0  0  0  0  0  3  0  0  0  0  0  0
  -30.3560  -21.9640   19.9050 C   0  0  0  0  0  0  0  0  0  0  0  0
  -28.3400  -21.8510   18.5170 C   0  0  0  0  0  0  0  0  0  0  0  0
  -30.4950  -21.1080   17.6160 C   0  0  0  0  0  0  0  0  0  0  0  0
  -31.0160  -22.3790   21.2080 C   0  0  0  0  0  1  0  0  0  0  0  0
  -31.3540  -20.6950   16.4190 C   0  0  0  0  0  2  0  0  0  0  0  0
  -31.0060  -21.3530   15.1910 O   0  0  0  0  0  0  0  0  0  0  0  0
  -32.0680  -27.5230   18.5930 C   0  0  0  0  0  0  0  0  0  0  0  0
  -30.6570  -22.6750   15.3370 C   0  0  0  0  0  0  0  0  0  0  0  0
  -30.0020  -27.3620   17.2450 C   0  0  0  0  0  3  0  0  0  0  0  0
  -29.8560  -25.3590   15.6810 C   0  0  0  0  0  0  0  0  0  0  0  0
  -32.0790  -26.0050   16.6170 C   0  0  0  0  0  2  0  0  0  0  0  0
  -31.1480  -24.9610   16.0420 C   0  0  0  0  0  0  0  0  0  0  0  0
  -31.5610  -23.6190   15.8690 C   0  0  0  0  0  3  0  0  0  0  0  0
  -29.3670  -23.0960   14.9550 C   0  0  0  0  0  3  0  0  0  0  0  0
  -28.9560  -24.4250   15.1400 C   0  0  0  0  0  3  0  0  0  0  0  0
  -29.4960  -26.8130   15.8870 C   0  0  0  0  0  2  0  0  0  0  0  0
  -31.4180  -26.9620   17.5350 N   0  0  0  0  0  0  0  0  0  0  0  0
  -31.5270  -28.3890   19.2920 O   0  0  0  0  0  0  0  0  0  0  0  0
  -29.0040  -26.9360   18.3480 C   0  0  0  0  0  0  0  0  0  0  0  0
  -28.1330  -27.8720   18.7600 N   0  0  0  0  0  0  0  0  0  0  0  0
  -29.0060  -25.7830   18.7930 O   0  0  0  0  0  0  0  0  0  0  0  0
  -28.2070  -28.7940   18.3540 H   0  0  0  0  0  0  0  0  0  0  0  0
  -26.0340  -29.6190   21.1260 C   0  0  0  0  0  0  0  0  0  0  0  0
  -27.0840  -27.6910   19.7610 C   0  0  0  0  0  3  0  0  0  0  0  0
  -25.6980  -27.5470   19.0940 C   0  0  0  0  0  2  0  0  0  0  0  0
  -24.9480  -28.8780   18.9650 C   0  0  0  0  0  2  0  0  0  0  0  0
  -24.7360  -29.5100   20.3460 C   0  0  0  0  0  2  0  0  0  0  0  0
  -27.1410  -28.7770   20.8420 C   0  0  0  0  0  0  0  0  0  0  0  0
  -28.3360  -28.9430   21.5760 C   0  0  0  0  0  3  0  0  0  0  0  0
  -28.4380  -29.9320   22.5710 C   0  0  0  0  0  3  0  0  0  0  0  0
  -27.3340  -30.7530   22.8610 C   0  0  0  0  0  3  0  0  0  0  0  0
  -26.1340  -30.5900   22.1460 C   0  0  0  0  0  3  0  0  0  0  0  0
  -33.5310  -27.1210   18.9630 C   0  0  0  0  0  3  0  0  0  0  0  0
  -34.2350  -28.3440   19.3660 N   0  0  0  0  0  0  0  0  0  0  0  0
  -35.0350  -29.0590   18.5630 C   0  0  0  0  0  0  0  0  0  0  0  0
  -35.3180  -28.7040   17.4140 O   0  0  0  0  0  0  0  0  0  0  0  0
  -34.0080  -28.7240   20.2750 H   0  0  0  0  0  0  0  0  0  0  0  0
  -34.7810  -31.5590   18.6150 C   0  0  0  0  0  1  0  0  0  0  0  0
  -35.6170  -30.3720   19.1210 C   0  0  0  0  0  3  0  0  0  0  0  0
  -37.9380  -29.6310   19.4310 C   0  0  0  0  0  1  0  0  0  0  0  0
  -37.0420  -30.5790   18.7740 N   0  0  0  0  0  0  0  0  0  0  0  0
  -37.3410  -31.5190   19.0150 H   0  0  0  0  0  0  0  0  0  0  0  0
  -33.6110  -26.0300   20.1030 C   0  0  1  0  0  0  0  0  0  0  0  0
  -32.8450  -26.4140   21.3910 C   0  0  0  0  0  1  0  0  0  0  0  0
  -33.0450  -24.6790   19.6060 C   0  0  0  0  0  1  0  0  0  0  0  0
  -35.0900  -25.7740   20.4760 C   0  0  0  0  0  1  0  0  0  0  0  0
  -27.6360  -18.3150   20.4320 C   0  0  0  0  0  2  0  0  0  0  0  0
  -28.1700  -17.5290   19.2090 C   0  0  0  0  0  2  0  0  0  0  0  0
  -29.4530  -18.1370   18.5890 C   0  0  0  0  0  2  0  0  0  0  0  0
  -29.3020  -18.4540   17.1500 N   0  0  0  0  0  4  0  0  0  0  0  0
  -30.2020  -18.3290   16.7140 H   0  0  0  0  0  0  0  0  0  0  0  0
  -29.0700  -19.4270   17.0470 H   0  0  0  0  0  0  0  0  0  0  0  0
  -28.3420  -17.6140   16.3960 C   0  0  0  0  0  2  0  0  0  0  0  0
  -27.9080  -18.2410   15.0440 C   0  0  0  0  0  2  0  0  0  0  0  0
  -27.0550  -19.5340   15.1430 C   0  0  0  0  0  2  0  0  0  0  0  0
  -25.6930  -19.2930   15.6800 N   0  0  0  0  0  4  0  0  0  0  0  0
  -25.2170  -18.6480   15.0700 H   0  0  0  0  0  0  0  0  0  0  0  0
  -25.7610  -18.8550   16.5810 H   0  0  0  0  0  0  0  0  0  0  0  0
  -24.8480  -20.5030   15.8180 C   0  0  0  0  0  2  0  0  0  0  0  0
  -23.6510  -20.2700   16.7680 C   0  0  0  0  0  2  0  0  0  0  0  0
  -24.0040  -20.3430   18.2740 C   0  0  0  0  0  2  0  0  0  0  0  0
  -22.9810  -22.6740   18.7180 C   0  0  0  0  0  0  0  0  0  0  0  0
  -21.6980  -24.4410   19.8710 C   0  0  0  0  0  2  0  0  0  0  0  0
  -22.2310  -25.8660   19.6570 C   0  0  0  0  0  2  0  0  0  0  0  0
  -23.3200  -26.1900   20.6930 C   0  0  0  0  0  2  0  0  0  0  0  0
  -24.4250  -25.1050   20.7330 C   0  0  0  0  0  3  0  0  0  0  0  0
  -23.8020  -23.6960   20.8670 C   0  0  0  0  0  2  0  0  0  0  0  0
  -22.8160  -23.4920   19.7860 N   0  0  0  0  0  0  0  0  0  0  0  0
  -22.3870  -22.8220   17.6480 O   0  0  0  0  0  0  0  0  0  0  0  0
  -23.6990  -21.5800   19.0130 N   0  0  0  0  0  0  0  0  0  0  0  0
  -24.0490  -21.5950   19.9610 H   0  0  0  0  0  0  0  0  0  0  0  0
  -26.7790  -25.3030   21.7670 C   0  0  0  0  0  0  0  0  0  0  0  0
  -27.2040  -25.7170   23.0010 C   0  0  0  0  0  0  0  0  0  0  0  0
  -26.0210  -26.0310   23.7370 C   0  0  0  0  0  0  0  0  0  0  0  0
  -25.3940  -25.3710   21.7980 N   0  0  0  0  0  0  0  0  0  0  0  0
  -24.9410  -25.7670   23.0150 N   0  0  0  0  0  0  0  0  0  0  0  0
  -25.8550  -26.6290   25.0680 C   0  0  0  0  0  0  0  0  0  0  0  0
  -25.1850  -25.9470   26.1110 C   0  0  0  0  0  3  0  0  0  0  0  0
  -25.0560  -26.5400   27.3860 C   0  0  0  0  0  3  0  0  0  0  0  0
  -25.6030  -27.8220   27.6320 C   0  0  0  0  0  0  0  0  0  0  0  0
  -26.2460  -28.5060   26.5860 C   0  0  0  0  0  3  0  0  0  0  0  0
  -26.3680  -27.9180   25.3150 C   0  0  0  0  0  3  0  0  0  0  0  0
  -25.5040  -28.4830   28.8320 O   0  0  0  0  0  0  0  0  0  0  0  0
  -25.5440  -27.8130   30.0290 C   0  0  0  0  0  0  0  0  0  0  0  0
  -26.6400  -26.9960   30.3880 C   0  0  0  0  0  3  0  0  0  0  0  0
  -26.6720  -26.3810   31.6560 C   0  0  0  0  0  3  0  0  0  0  0  0
  -25.6190  -26.5890   32.5670 C   0  0  0  0  0  0  0  0  0  0  0  0
  -24.5310  -27.4060   32.2120 C   0  0  0  0  0  3  0  0  0  0  0  0
  -24.4980  -28.0200   30.9490 C   0  0  0  0  0  0  0  0  0  0  0  0
  -23.4570  -28.8240   30.6190 F   0  0  0  0  0  0  0  0  0  0  0  0
  -25.6540  -26.0050   33.7880 F   0  0  0  0  0  0  0  0  0  0  0  0
  -28.6240  -25.9000   23.4460 C   0  0  0  0  0  0  0  0  0  0  0  0
  -28.8890  -25.7470   24.7390 N   0  0  0  0  0  0  0  0  0  0  0  0
  -29.5190  -26.1380   22.6360 O   0  0  0  0  0  0  0  0  0  0  0  0
  -28.1590  -25.5300   25.4020 H   0  0  0  0  0  0  0  0  0  0  0  0
  -29.8370  -25.8510   25.0750 H   0  0  0  0  0  0  0  0  0  0  0  0
  -27.4540  -24.8940   20.6210 N   0  0  0  0  0  0  0  0  0  0  0  0
  -28.4640  -24.9160   20.5650 H   0  0  0  0  0  0  0  0  0  0  0  0
  -27.0020  -24.6700   19.7450 H   0  0  0  0  0  0  0  0  0  0  0  0
  1 56  1  0
  2  5  1  0
  2  1  1  0
  3  2  1  0
  4  2  1  0
  6 11  1  0
  6  5  1  0
  7 10  1  0
  8 10  2  0
  9 12  2  0
  9 11  1  0
 10 13  1  0
 11  7  2  0
 12  8  1  0
 14 12  1  0
 15 17  1  0
 15 14  1  0
 16 27  2  0
 17 22  1  0
 18 26  1  0
 18 28  1  0
 19 25  1  0
 19 21  1  0
 20 26  1  0
 21 20  1  0
 22 21  2  0
 23 24  1  0
 23 17  2  0
 24 19  2  0
 25 18  1  0
 26 16  1  0
 28 29  1  0
 28 30  2  0
 31 29  1  0
 32 41  1  0
 33 29  1  0
 33 37  1  0
 34 33  1  0
 35 34  1  0
 35 36  1  0
 36 32  1  0
 37 32  2  0
 37 38  1  0
 38 39  2  0
 39 40  1  0
 41 40  2  0
 42 16  1  0
 42 43  1  0
 42 52  1  0
 43 46  1  0
 44 48  1  0
 44 43  1  0
 45 44  2  0
 48 47  1  0
 50 51  1  0
 50 48  1  0
 50 49  1  0
 52 55  1  1
 52 53  1  0
 54 52  1  0
 57 56  1  0
 58 57  1  0
 59 58  1  0
 60 59  1  0
 61 59  1  0
 62 59  1  0
 63 64  1  0
 63 62  1  0
 64 65  1  0
 65 68  1  0
 65 67  1  0
 66 65  1  0
 68 69  1  0
 69 70  1  0
 70 79  1  0
 71 79  1  0
 71 77  1  0
 73 72  1  0
 73 74  1  0
 75 74  1  0
 75 76  1  0
 75 84  1  0
 77 72  1  0
 77 76  1  0
 78 71  2  0
 79 80  1  0
 81 84  1  0
 81 82  2  0
 82101  1  0
 82 83  1  0
 83 86  1  0
 84 85  1  0
 85 83  2  0
 86 91  2  0
 86 87  1  0
 87 88  2  0
 88 89  1  0
 89 92  1  0
 90 89  2  0
 91 90  1  0
 92 93  1  0
 93 94  2  0
 93 98  1  0
 94 95  1  0
 95 96  2  0
 96100  1  0
 97 96  1  0
 98 97  2  0
 99 98  1  0
101102  1  0
102105  1  0
102104  1  0
103101  2  0
106 81  1  0
107106  1  0
108106  1  0
M  ISO  4  14 101  15 101  71 100  79 100
M  END
>  <TORSDO>  (33) 
F 32

>  <SCORE>  (33) 
3.450

>  <name>  (33) 
32

>  <ligand_id>  (33) 
32

>  <original_smiles>  (33) 
[H]c1c([H])c([H])c2c(c1[H])C([H])([H])C([H])([H])C([H])([H])C2([H])N([H])C(=O)C1([H])N(C(=O)C([H])(N([H])C(=O)C([H])(N([H])C([H])([H])[H])C([H])([H])[H])C(C([H])([H])[H])(C([H])([H])[H])C([H])([H])[H])C([H])([H])c2c([H])c(OC([H])([H])c3c([H])c(C([H])([H])[H])c([H])c(C([H])([H])C([H])([H])[N+]([H])([H])C([H])([H])C([H])([H])C([H])([H])C([H])([H])[N+]([H])([H])C([H])([H])C([H])([H])C([H])([H])[N+]([H])([H])C([H])([H])C([H])([H])C([H])([H])N([H])C(=O)N4C([H])([H])C([H])([H])C([H])([H])C([H])(n5nc(-c6c([H])c([H])c(Oc7c([H])c([H])c(F)c([H])c7F)c([H])c6[H])c(C(=O)N([H])[H])c5N([H])[H])C4([H])[H])c3[H])c([H])c([H])c2C1([H])[H]

>  <smiles>  (33) 
[H]c1c([H])c([H])c2c(c1[H])C([H])([H])C([H])([H])C([H])([H])C2([H])N([H])C(=O)C1([H])N(C(=O)C([H])(N([H])C(=O)C([H])(N([H])C([H])([H])[H])C([H])([H])[H])C(C([H])([H])[H])(C([H])([H])[H])C([H])([H])[H])C([H])([H])c2c([H])c(OC([H])([H])c3c([H])c(C([H])([H])[H])c([H])c(C([H])([H])C([H])([H])[N+]([H])([H])C([H])([H])C([H])([H])C([H])([H])C([H])([H])[N+]([H])([H])C([H])([H])C([H])([H])C([H])([H])[N+]([H])([H])C([H])([H])C([H])([H])C([H])([H])N([H])C(=O)N4C([H])([H])C([H])([H])C([H])([H])C([H])(n5nc(-c6c([H])c([H])c(Oc7c([H])c([H])c(F)c([H])c7F)c([H])c6[H])c(C(=O)N([H])[H])c5N([H])[H])C4([H])[H])c3[H])c([H])c([H])c2C1([H])[H]

$$$$
33:0:0
     RDKit          3D

103111  0  0  1  0  0  0  0  0999 V2000
  -30.5440  -22.9050   21.7350 C   0  0  0  0  0  3  0  0  0  0  0  0
  -30.0760  -20.3430   21.7090 C   0  0  0  0  0  3  0  0  0  0  0  0
  -30.2350  -19.5780   19.5280 C   0  0  0  0  0  3  0  0  0  0  0  0
  -29.9580  -19.2180   20.8240 C   0  0  0  0  0  0  0  0  0  0  0  0
  -30.3870  -21.5370   21.0830 C   0  0  0  0  0  0  0  0  0  0  0  0
  -30.6400  -21.2700   19.3780 S   0  0  0  0  0  0  0  0  0  0  0  0
  -29.5190  -17.8160   21.2100 C   0  0  0  0  0  2  0  0  0  0  0  0
  -30.6630  -16.7930   21.4080 C   0  0  0  0  0  2  0  0  0  0  0  0
  -30.7500  -14.4240   20.6150 C   0  0  0  0  0  0  0  0  0  0  0  0
  -30.4130  -12.2820   19.4390 C   0  0  0  0  0  2  0  0  0  0  0  0
  -29.4950  -12.4890   18.2180 C   0  0  0  0  0  2  0  0  0  0  0  0
  -28.0140  -12.3500   18.6230 C   0  0  0  0  0  2  0  0  0  0  0  0
  -27.6580  -13.2030   19.8660 C   0  0  0  0  0  3  0  0  0  0  0  0
  -28.6890  -13.0000   20.9970 C   0  0  0  0  0  2  0  0  0  0  0  0
  -30.0350  -13.2740   20.4610 N   0  0  0  0  0  0  0  0  0  0  0  0
  -31.8280  -14.6160   20.0550 O   0  0  0  0  0  0  0  0  0  0  0  0
  -30.1820  -15.3960   21.3520 N   0  0  0  0  0  0  0  0  0  0  0  0
  -29.3250  -15.1660   21.8320 H   0  0  0  0  0  0  0  0  0  0  0  0
  -25.2580  -13.8180   20.5660 C   0  0  0  0  0  0  0  0  0  0  0  0
  -24.1830  -13.0440   20.9170 C   0  0  0  0  0  0  0  0  0  0  0  0
  -24.6380  -11.6930   20.8720 C   0  0  0  0  0  0  0  0  0  0  0  0
  -26.2980  -12.9340   20.3270 N   0  0  0  0  0  0  0  0  0  0  0  0
  -25.9290  -11.6510   20.5700 N   0  0  0  0  0  0  0  0  0  0  0  0
  -23.9070  -10.4290   21.0400 C   0  0  0  0  0  0  0  0  0  0  0  0
  -24.3630   -9.4190   21.9180 C   0  0  0  0  0  3  0  0  0  0  0  0
  -23.6290   -8.2240   22.0760 C   0  0  0  0  0  3  0  0  0  0  0  0
  -22.4240   -8.0310   21.3570 C   0  0  0  0  0  0  0  0  0  0  0  0
  -21.9890   -9.0290   20.4650 C   0  0  0  0  0  3  0  0  0  0  0  0
  -22.7260  -10.2140   20.3030 C   0  0  0  0  0  3  0  0  0  0  0  0
  -21.6620   -6.8900   21.4250 O   0  0  0  0  0  0  0  0  0  0  0  0
  -21.6840   -6.0730   22.5290 C   0  0  0  0  0  0  0  0  0  0  0  0
  -21.4040   -6.5640   23.8230 C   0  0  0  0  0  3  0  0  0  0  0  0
  -21.3650   -5.6790   24.9190 C   0  0  0  0  0  3  0  0  0  0  0  0
  -21.6020   -4.3050   24.7230 C   0  0  0  0  0  0  0  0  0  0  0  0
  -21.8820   -3.8150   23.4360 C   0  0  0  0  0  3  0  0  0  0  0  0
  -21.9190   -4.6960   22.3400 C   0  0  0  0  0  0  0  0  0  0  0  0
  -22.1650   -4.2160   21.0970 F   0  0  0  0  0  0  0  0  0  0  0  0
  -21.5610   -3.4530   25.7740 F   0  0  0  0  0  0  0  0  0  0  0  0
  -22.7830  -13.5250   21.1830 C   0  0  0  0  0  0  0  0  0  0  0  0
  -22.0460  -12.8250   22.0390 N   0  0  0  0  0  0  0  0  0  0  0  0
  -22.3490  -14.5530   20.6680 O   0  0  0  0  0  0  0  0  0  0  0  0
  -22.4070  -11.9960   22.4850 H   0  0  0  0  0  0  0  0  0  0  0  0
  -21.1070  -13.1280   22.2560 H   0  0  0  0  0  0  0  0  0  0  0  0
  -25.4350  -15.1900   20.4080 N   0  0  0  0  0  0  0  0  0  0  0  0
  -24.6860  -15.8630   20.5300 H   0  0  0  0  0  0  0  0  0  0  0  0
  -26.3000  -15.6180   20.1050 H   0  0  0  0  0  0  0  0  0  0  0  0
  -29.5740  -23.9970   21.3970 N   0  0  0  0  0  4  0  0  0  0  0  0
  -29.1070  -24.1870   22.2710 H   0  0  0  0  0  0  0  0  0  0  0  0
  -30.0760  -24.8400   21.1760 H   0  0  0  0  0  0  0  0  0  0  0  0
  -28.4720  -23.8220   20.4160 C   0  0  0  0  0  2  0  0  0  0  0  0
  -28.6910  -24.4840   19.0280 C   0  0  0  0  0  3  0  0  0  0  0  0
  -28.8360  -26.0300   18.9430 C   0  0  0  0  0  3  0  0  0  0  0  0
  -28.4290  -26.7480   20.1100 O   0  0  0  0  0  0  0  0  0  0  0  0
  -24.6120  -31.8710   23.2140 C   0  0  0  0  0  0  0  0  0  0  0  0
  -27.2480  -27.4570   20.0830 C   0  0  0  0  0  0  0  0  0  0  0  0
  -23.3980  -30.4970   21.5520 C   0  0  0  0  0  3  0  0  0  0  0  0
  -24.8490  -28.9700   20.1050 C   0  0  0  0  0  0  0  0  0  0  0  0
  -25.9290  -30.8400   21.3710 C   0  0  0  0  0  2  0  0  0  0  0  0
  -26.0060  -29.4770   20.7120 C   0  0  0  0  0  0  0  0  0  0  0  0
  -27.2000  -28.7240   20.7090 C   0  0  0  0  0  3  0  0  0  0  0  0
  -26.0730  -26.9520   19.4830 C   0  0  0  0  0  3  0  0  0  0  0  0
  -24.8780  -27.7040   19.4890 C   0  0  0  0  0  3  0  0  0  0  0  0
  -23.6070  -29.8360   20.1630 C   0  0  0  0  0  2  0  0  0  0  0  0
  -24.6640  -31.0850   22.1020 N   0  0  0  0  0  0  0  0  0  0  0  0
  -23.5310  -32.1470   23.7540 O   0  0  0  0  0  0  0  0  0  0  0  0
  -22.7390  -29.4680   22.4990 C   0  0  0  0  0  0  0  0  0  0  0  0
  -21.4110  -29.3040   22.3690 N   0  0  0  0  0  0  0  0  0  0  0  0
  -23.4190  -28.8250   23.3070 O   0  0  0  0  0  0  0  0  0  0  0  0
  -20.9270  -29.8630   21.6790 H   0  0  0  0  0  0  0  0  0  0  0  0
  -18.0260  -28.1380   22.8490 C   0  0  0  0  0  0  0  0  0  0  0  0
  -20.5850  -28.3700   23.1350 C   0  0  0  0  0  3  0  0  0  0  0  0
  -20.6820  -26.9440   22.5470 C   0  0  0  0  0  2  0  0  0  0  0  0
  -19.5770  -26.6390   21.5280 C   0  0  0  0  0  2  0  0  0  0  0  0
  -18.1910  -26.7930   22.1630 C   0  0  0  0  0  2  0  0  0  0  0  0
  -19.1500  -28.8840   23.2920 C   0  0  0  0  0  0  0  0  0  0  0  0
  -18.9420  -30.1450   23.8910 C   0  0  0  0  0  3  0  0  0  0  0  0
  -17.6420  -30.6600   24.0570 C   0  0  0  0  0  3  0  0  0  0  0  0
  -16.5310  -29.9090   23.6300 C   0  0  0  0  0  3  0  0  0  0  0  0
  -16.7260  -28.6520   23.0320 C   0  0  0  0  0  3  0  0  0  0  0  0
  -25.9010  -32.4830   23.8430 C   0  0  0  0  0  3  0  0  0  0  0  0
  -25.5870  -33.8650   24.2300 N   0  0  0  0  0  0  0  0  0  0  0  0
  -25.9050  -34.9490   23.5120 C   0  0  0  0  0  0  0  0  0  0  0  0
  -26.5680  -34.8920   22.4700 O   0  0  0  0  0  0  0  0  0  0  0  0
  -24.9840  -33.9860   25.0320 H   0  0  0  0  0  0  0  0  0  0  0  0
  -24.1490  -36.7340   23.2650 C   0  0  0  0  0  1  0  0  0  0  0  0
  -25.4110  -36.3120   24.0330 C   0  0  0  0  0  3  0  0  0  0  0  0
  -27.5560  -37.1830   24.8440 C   0  0  0  0  0  1  0  0  0  0  0  0
  -26.4260  -37.3820   23.9400 N   0  0  0  0  0  0  0  0  0  0  0  0
  -26.0130  -38.2890   24.1390 H   0  0  0  0  0  0  0  0  0  0  0  0
  -26.4450  -31.6630   25.0760 C   0  0  1  0  0  0  0  0  0  0  0  0
  -25.3660  -31.3830   26.1490 C   0  0  0  0  0  1  0  0  0  0  0  0
  -27.0280  -30.3060   24.6130 C   0  0  0  0  0  1  0  0  0  0  0  0
  -27.5980  -32.4420   25.7520 C   0  0  0  0  0  1  0  0  0  0  0  0
  -32.2400  -24.2480   23.1010 C   0  0  0  0  0  1  0  0  0  0  0  0
  -32.0120  -23.4430   21.7970 C   0  0  0  0  0  3  0  0  0  0  0  0
  -32.4500  -24.1690   20.4790 C   0  0  0  0  0  2  0  0  0  0  0  0
  -33.4470  -25.3350   20.5920 C   0  0  0  0  0  0  0  0  0  0  0  0
  -32.9410  -26.5490   20.8720 N   0  0  0  0  0  0  0  0  0  0  0  0
  -34.6410  -25.1540   20.3540 O   0  0  0  0  0  0  0  0  0  0  0  0
  -31.9700  -26.6100   21.1340 H   0  0  0  0  0  0  0  0  0  0  0  0
  -33.6570  -27.8200   20.7580 C   0  0  0  0  0  2  0  0  0  0  0  0
  -31.5600  -28.9310   19.7360 C   0  0  0  0  0  1  0  0  0  0  0  0
  -32.6950  -29.0280   20.7690 C   0  0  0  0  0  2  0  0  0  0  0  0
  1 47  1  0
  1 95  1  0
  3  4  2  0
  4  7  1  0
  4  2  1  0
  5  2  2  0
  5  1  1  0
  6  3  1  0
  6  5  1  0
  7  8  1  0
  9 17  1  0
 10 15  1  0
 11 12  1  0
 11 10  1  0
 13 12  1  0
 13 22  1  0
 13 14  1  0
 15  9  1  0
 15 14  1  0
 16  9  2  0
 17  8  1  0
 17 18  1  0
 19 20  2  0
 20 39  1  0
 21 20  1  0
 21 24  1  0
 22 19  1  0
 22 23  1  0
 23 21  2  0
 24 25  1  0
 25 26  2  0
 27 30  1  0
 27 26  1  0
 28 27  2  0
 29 28  1  0
 29 24  2  0
 30 31  1  0
 31 32  1  0
 32 33  2  0
 34 33  1  0
 34 38  1  0
 35 34  2  0
 36 31  2  0
 36 35  1  0
 37 36  1  0
 39 40  1  0
 40 43  1  0
 40 42  1  0
 41 39  2  0
 44 45  1  0
 44 19  1  0
 46 44  1  0
 47 48  1  0
 49 47  1  0
 50 47  1  0
 51 50  1  0
 52 51  2  0
 52 53  1  0
 54 65  2  0
 55 53  1  0
 55 60  1  0
 56 64  1  0
 56 66  1  0
 57 63  1  0
 57 59  1  0
 58 64  1  0
 59 58  1  0
 60 59  2  0
 61 62  1  0
 61 55  2  0
 62 57  2  0
 63 56  1  0
 64 54  1  0
 66 68  2  0
 67 66  1  0
 69 67  1  0
 70 79  2  0
 70 75  1  0
 71 67  1  0
 71 75  1  0
 72 71  1  0
 73 74  1  0
 73 72  1  0
 74 70  1  0
 75 76  2  0
 76 77  1  0
 78 77  2  0
 79 78  1  0
 80 54  1  0
 80 81  1  0
 80 90  1  0
 81 84  1  0
 82 86  1  0
 82 81  1  0
 83 82  2  0
 86 85  1  0
 88 86  1  0
 88 89  1  0
 88 87  1  0
 90 93  1  1
 90 91  1  0
 92 90  1  0
 95 94  1  0
 96 97  1  0
 96 95  1  0
 97 98  1  0
 98100  1  0
 99 97  2  0
101103  1  0
101 98  1  0
102103  1  0
M  ISO  4   9 100  17 100  52 101  53 101
M  END
>  <TORSDO>  (34) 
F 28

>  <SCORE>  (34) 
-5.219

>  <name>  (34) 
33

>  <ligand_id>  (34) 
33

>  <original_smiles>  (34) 
[H]c1sc(C([H])(C([H])(C([H])([H])[H])C([H])([H])C(=O)N([H])C([H])([H])C([H])([H])C([H])([H])[H])[N+]([H])([H])C([H])([H])C([H])([H])C([H])([H])Oc2c([H])c([H])c3c(c2[H])C([H])([H])N(C(=O)C([H])(N([H])C(=O)C([H])(N([H])C([H])([H])[H])C([H])([H])[H])C(C([H])([H])[H])(C([H])([H])[H])C([H])([H])[H])C([H])(C(=O)N([H])C2([H])c4c([H])c([H])c([H])c([H])c4C([H])([H])C([H])([H])C2([H])[H])C3([H])[H])c([H])c1C([H])([H])C([H])([H])N([H])C(=O)N1C([H])([H])C([H])([H])C([H])([H])C([H])(n2nc(-c3c([H])c([H])c(Oc4c([H])c([H])c(F)c([H])c4F)c([H])c3[H])c(C(=O)N([H])[H])c2N([H])[H])C1([H])[H]

>  <smiles>  (34) 
[H]c1sc(C([H])(C([H])(C([H])([H])[H])C([H])([H])C(=O)N([H])C([H])([H])C([H])([H])C([H])([H])[H])[N+]([H])([H])C([H])([H])C([H])([H])C([H])([H])Oc2c([H])c([H])c3c(c2[H])C([H])([H])N(C(=O)C([H])(N([H])C(=O)C([H])(N([H])C([H])([H])[H])C([H])([H])[H])C(C([H])([H])[H])(C([H])([H])[H])C([H])([H])[H])C([H])(C(=O)N([H])C2([H])c4c([H])c([H])c([H])c([H])c4C([H])([H])C([H])([H])C2([H])[H])C3([H])[H])c([H])c1C([H])([H])C([H])([H])N([H])C(=O)N1C([H])([H])C([H])([H])C([H])([H])C([H])(n2nc(-c3c([H])c([H])c(Oc4c([H])c([H])c(F)c([H])c4F)c([H])c3[H])c(C(=O)N([H])[H])c2N([H])[H])C1([H])[H]

$$$$
34:0:0
     RDKit          3D

 97105  0  0  1  0  0  0  0  0999 V2000
  -33.1130  -24.4520   20.3610 C   0  0  0  0  0  0  0  0  0  0  0  0
  -32.9930  -23.5540   19.3740 N   0  0  0  0  0  0  0  0  0  0  0  0
  -33.8510  -24.2980   21.3370 O   0  0  0  0  0  0  0  0  0  0  0  0
  -32.3620  -23.8220   18.6320 H   0  0  0  0  0  0  0  0  0  0  0  0
  -31.6180  -26.0230   19.0480 C   0  0  0  0  0  3  0  0  0  0  0  0
  -30.3690  -26.6640   18.9610 C   0  0  0  0  0  3  0  0  0  0  0  0
  -31.3890  -25.9260   21.4720 C   0  0  0  0  0  3  0  0  0  0  0  0
  -32.0650  -25.5290   20.2960 C   0  0  0  0  0  0  0  0  0  0  0  0
  -30.1300  -26.5620   21.3850 C   0  0  0  0  0  0  0  0  0  0  0  0
  -29.5670  -26.8040   20.1110 C   0  0  0  0  0  0  0  0  0  0  0  0
  -29.3150  -26.7860   22.6470 C   0  0  0  0  0  1  0  0  0  0  0  0
  -28.2300  -26.5920   19.9320 O   0  0  0  0  0  0  0  0  0  0  0  0
  -24.5240  -31.8330   23.1340 C   0  0  0  0  0  0  0  0  0  0  0  0
  -27.1840  -27.4740   19.9810 C   0  0  0  0  0  0  0  0  0  0  0  0
  -23.3210  -30.4490   21.4770 C   0  0  0  0  0  3  0  0  0  0  0  0
  -24.7850  -28.9470   20.0340 C   0  0  0  0  0  0  0  0  0  0  0  0
  -25.8460  -30.8320   21.2790 C   0  0  0  0  0  2  0  0  0  0  0  0
  -25.9470  -29.4730   20.6210 C   0  0  0  0  0  0  0  0  0  0  0  0
  -27.1630  -28.7450   20.5960 C   0  0  0  0  0  3  0  0  0  0  0  0
  -26.0080  -26.9600   19.4050 C   0  0  0  0  0  3  0  0  0  0  0  0
  -24.8070  -27.6850   19.4240 C   0  0  0  0  0  3  0  0  0  0  0  0
  -23.5330  -29.7920   20.0900 C   0  0  0  0  0  2  0  0  0  0  0  0
  -24.5810  -31.0480   22.0230 N   0  0  0  0  0  0  0  0  0  0  0  0
  -23.4420  -32.0950   23.6790 O   0  0  0  0  0  0  0  0  0  0  0  0
  -22.6720  -29.4110   22.4230 C   0  0  0  0  0  0  0  0  0  0  0  0
  -21.3500  -29.2210   22.2870 N   0  0  0  0  0  0  0  0  0  0  0  0
  -23.3550  -28.7830   23.2360 O   0  0  0  0  0  0  0  0  0  0  0  0
  -20.8580  -29.7830   21.6070 H   0  0  0  0  0  0  0  0  0  0  0  0
  -17.9850  -27.9820   22.7350 C   0  0  0  0  0  0  0  0  0  0  0  0
  -20.5340  -28.2710   23.0450 C   0  0  0  0  0  3  0  0  0  0  0  0
  -20.6630  -26.8410   22.4700 C   0  0  0  0  0  2  0  0  0  0  0  0
  -19.5800  -26.5050   21.4410 C   0  0  0  0  0  2  0  0  0  0  0  0
  -18.1870  -26.6340   22.0630 C   0  0  0  0  0  2  0  0  0  0  0  0
  -19.0860  -28.7560   23.1820 C   0  0  0  0  0  0  0  0  0  0  0  0
  -18.8440  -30.0180   23.7670 C   0  0  0  0  0  3  0  0  0  0  0  0
  -17.5310  -30.5050   23.9110 C   0  0  0  0  0  3  0  0  0  0  0  0
  -16.4430  -29.7260   23.4820 C   0  0  0  0  0  3  0  0  0  0  0  0
  -16.6690  -28.4660   22.9000 C   0  0  0  0  0  3  0  0  0  0  0  0
  -25.8080  -32.4600   23.7590 C   0  0  0  0  0  3  0  0  0  0  0  0
  -25.4920  -33.8460   24.1270 N   0  0  0  0  0  0  0  0  0  0  0  0
  -25.8090  -34.9200   23.3890 C   0  0  0  0  0  0  0  0  0  0  0  0
  -26.4720  -34.8450   22.3520 O   0  0  0  0  0  0  0  0  0  0  0  0
  -24.9010  -33.9760   24.9370 H   0  0  0  0  0  0  0  0  0  0  0  0
  -24.0620  -36.7030   23.0870 C   0  0  0  0  0  1  0  0  0  0  0  0
  -25.3120  -36.2920   23.8820 C   0  0  0  0  0  3  0  0  0  0  0  0
  -27.4470  -37.1720   24.7180 C   0  0  0  0  0  1  0  0  0  0  0  0
  -26.3350  -37.3560   23.7880 N   0  0  0  0  0  0  0  0  0  0  0  0
  -25.9230  -38.2680   23.9670 H   0  0  0  0  0  0  0  0  0  0  0  0
  -26.3500  -31.6560   25.0050 C   0  0  1  0  0  0  0  0  0  0  0  0
  -25.2730  -31.3770   26.0790 C   0  0  0  0  0  1  0  0  0  0  0  0
  -26.9400  -30.2970   24.5620 C   0  0  0  0  0  1  0  0  0  0  0  0
  -27.5020  -32.4420   25.6750 C   0  0  0  0  0  1  0  0  0  0  0  0
  -33.3840  -22.1480   19.3860 C   0  0  0  0  0  2  0  0  0  0  0  0
  -32.5200  -21.3250   20.3730 C   0  0  0  0  0  2  0  0  0  0  0  0
  -32.5200  -19.8780   20.0630 N   0  0  0  0  0  4  0  0  0  0  0  0
  -31.9640  -19.7390   19.2350 H   0  0  0  0  0  0  0  0  0  0  0  0
  -33.4570  -19.5770   19.8540 H   0  0  0  0  0  0  0  0  0  0  0  0
  -31.9770  -19.0220   21.1450 C   0  0  0  0  0  2  0  0  0  0  0  0
  -31.2680  -17.7590   20.6080 C   0  0  0  0  0  2  0  0  0  0  0  0
  -30.9300  -16.7470   21.7250 C   0  0  0  0  0  2  0  0  0  0  0  0
  -30.0050  -15.5630   21.3300 C   0  0  0  0  0  2  0  0  0  0  0  0
  -30.6090  -14.4790   20.4070 C   0  0  0  0  0  0  0  0  0  0  0  0
  -30.2960  -12.3700   19.1510 C   0  0  0  0  0  2  0  0  0  0  0  0
  -29.3370  -12.5940   17.9650 C   0  0  0  0  0  2  0  0  0  0  0  0
  -27.8640  -12.4480   18.4040 C   0  0  0  0  0  2  0  0  0  0  0  0
  -27.5400  -13.2550   19.6910 C   0  0  0  0  0  3  0  0  0  0  0  0
  -28.6060  -12.9970   20.7760 C   0  0  0  0  0  2  0  0  0  0  0  0
  -29.9270  -13.3200   20.2110 N   0  0  0  0  0  0  0  0  0  0  0  0
  -31.6730  -14.7160   19.8260 O   0  0  0  0  0  0  0  0  0  0  0  0
  -25.1380  -13.8500   20.4090 C   0  0  0  0  0  0  0  0  0  0  0  0
  -24.0820  -13.0720   20.8010 C   0  0  0  0  0  0  0  0  0  0  0  0
  -24.5550  -11.7240   20.7840 C   0  0  0  0  0  0  0  0  0  0  0  0
  -26.1910  -12.9750   20.1820 N   0  0  0  0  0  0  0  0  0  0  0  0
  -25.8420  -11.6930   20.4610 N   0  0  0  0  0  0  0  0  0  0  0  0
  -23.8420  -10.4590   20.9980 C   0  0  0  0  0  0  0  0  0  0  0  0
  -24.3050   -9.5020   21.9300 C   0  0  0  0  0  3  0  0  0  0  0  0
  -23.5930   -8.3000   22.1340 C   0  0  0  0  0  3  0  0  0  0  0  0
  -22.4080   -8.0440   21.4060 C   0  0  0  0  0  0  0  0  0  0  0  0
  -21.9650   -8.9870   20.4610 C   0  0  0  0  0  3  0  0  0  0  0  0
  -22.6760  -10.1810   20.2560 C   0  0  0  0  0  3  0  0  0  0  0  0
  -21.6670   -6.8920   21.5180 O   0  0  0  0  0  0  0  0  0  0  0  0
  -21.6610   -6.1480   22.6700 C   0  0  0  0  0  0  0  0  0  0  0  0
  -21.2820   -6.7000   23.9140 C   0  0  0  0  0  3  0  0  0  0  0  0
  -21.2260   -5.8830   25.0600 C   0  0  0  0  0  3  0  0  0  0  0  0
  -21.5380   -4.5130   24.9640 C   0  0  0  0  0  0  0  0  0  0  0  0
  -21.9100   -3.9600   23.7260 C   0  0  0  0  0  3  0  0  0  0  0  0
  -21.9690   -4.7750   22.5830 C   0  0  0  0  0  0  0  0  0  0  0  0
  -22.3080   -4.2340   21.3870 F   0  0  0  0  0  0  0  0  0  0  0  0
  -21.4750   -3.7230   26.0620 F   0  0  0  0  0  0  0  0  0  0  0  0
  -22.6830  -13.5380   21.0850 C   0  0  0  0  0  0  0  0  0  0  0  0
  -21.9710  -12.8450   21.9690 N   0  0  0  0  0  0  0  0  0  0  0  0
  -22.2290  -14.5500   20.5550 O   0  0  0  0  0  0  0  0  0  0  0  0
  -22.3520  -12.0290   22.4260 H   0  0  0  0  0  0  0  0  0  0  0  0
  -21.0290  -13.1340   22.1900 H   0  0  0  0  0  0  0  0  0  0  0  0
  -25.2910  -15.2190   20.2120 N   0  0  0  0  0  0  0  0  0  0  0  0
  -24.5260  -15.8760   20.3160 H   0  0  0  0  0  0  0  0  0  0  0  0
  -26.1440  -15.6590   19.8860 H   0  0  0  0  0  0  0  0  0  0  0  0
  1  3  2  0
  2 53  1  0
  2  1  1  0
  4  2  1  0
  5  8  1  0
  6  5  2  0
  6 10  1  0
  8  1  1  0
  8  7  2  0
  9  7  1  0
  9 11  1  0
 10  9  2  0
 12 14  1  0
 12 10  1  0
 13 24  2  0
 14 19  1  0
 15 23  1  0
 15 25  1  0
 16 22  1  0
 16 18  1  0
 17 23  1  0
 18 17  1  0
 19 18  2  0
 20 21  1  0
 20 14  2  0
 21 16  2  0
 22 15  1  0
 23 13  1  0
 25 27  2  0
 26 25  1  0
 28 26  1  0
 29 38  2  0
 29 34  1  0
 30 26  1  0
 30 34  1  0
 31 30  1  0
 32 33  1  0
 32 31  1  0
 33 29  1  0
 34 35  2  0
 35 36  1  0
 37 36  2  0
 38 37  1  0
 39 13  1  0
 39 40  1  0
 39 49  1  0
 40 43  1  0
 41 45  1  0
 41 40  1  0
 42 41  2  0
 45 44  1  0
 47 45  1  0
 47 48  1  0
 47 46  1  0
 49 52  1  1
 49 50  1  0
 51 49  1  0
 53 54  1  0
 55 54  1  0
 55 58  1  0
 56 55  1  0
 57 55  1  0
 59 58  1  0
 59 60  1  0
 61 60  1  0
 62 61  1  0
 63 68  1  0
 64 65  1  0
 64 63  1  0
 66 65  1  0
 66 73  1  0
 66 67  1  0
 68 62  1  0
 68 67  1  0
 69 62  2  0
 70 71  2  0
 71 90  1  0
 72 71  1  0
 72 75  1  0
 73 70  1  0
 73 74  1  0
 74 72  2  0
 75 76  1  0
 76 77  2  0
 78 81  1  0
 78 77  1  0
 79 78  2  0
 80 79  1  0
 80 75  2  0
 81 82  1  0
 82 83  1  0
 83 84  2  0
 85 84  1  0
 85 89  1  0
 86 85  2  0
 87 82  2  0
 87 86  1  0
 88 87  1  0
 90 91  1  0
 91 94  1  0
 91 93  1  0
 92 90  2  0
 95 96  1  0
 95 70  1  0
 97 95  1  0
M  ISO  4  10 101  12 101  61 100  62 100
M  END
>  <TORSDO>  (35) 
F 24

>  <SCORE>  (35) 
-10.953

>  <name>  (35) 
34

>  <ligand_id>  (35) 
34

>  <original_smiles>  (35) 
[H]c1c([H])c([H])c2c(c1[H])C([H])([H])C([H])([H])C([H])([H])C2([H])N([H])C(=O)C1([H])N(C(=O)C([H])(N([H])C(=O)C([H])(N([H])C([H])([H])[H])C([H])([H])[H])C(C([H])([H])[H])(C([H])([H])[H])C([H])([H])[H])C([H])([H])c2c([H])c(Oc3c([H])c([H])c(C(=O)N([H])C([H])([H])C([H])([H])[N+]([H])([H])C([H])([H])C([H])([H])C([H])([H])C([H])([H])C(=O)N4C([H])([H])C([H])([H])C([H])([H])C([H])(n5nc(-c6c([H])c([H])c(Oc7c([H])c([H])c(F)c([H])c7F)c([H])c6[H])c(C(=O)N([H])[H])c5N([H])[H])C4([H])[H])c([H])c3C([H])([H])[H])c([H])c([H])c2C1([H])[H]

>  <smiles>  (35) 
[H]c1c([H])c([H])c2c(c1[H])C([H])([H])C([H])([H])C([H])([H])C2([H])N([H])C(=O)C1([H])N(C(=O)C([H])(N([H])C(=O)C([H])(N([H])C([H])([H])[H])C([H])([H])[H])C(C([H])([H])[H])(C([H])([H])[H])C([H])([H])[H])C([H])([H])c2c([H])c(Oc3c([H])c([H])c(C(=O)N([H])C([H])([H])C([H])([H])[N+]([H])([H])C([H])([H])C([H])([H])C([H])([H])C([H])([H])C(=O)N4C([H])([H])C([H])([H])C([H])([H])C([H])(n5nc(-c6c([H])c([H])c(Oc7c([H])c([H])c(F)c([H])c7F)c([H])c6[H])c(C(=O)N([H])[H])c5N([H])[H])C4([H])[H])c([H])c3C([H])([H])[H])c([H])c([H])c2C1([H])[H]

$$$$
35:0:0
     RDKit          3D

 96104  0  0  1  0  0  0  0  0999 V2000
  -29.9920  -19.4540   24.6480 C   0  0  0  0  0  3  0  0  0  0  0  0
  -30.9710  -20.5510   22.7020 C   0  0  0  0  0  3  0  0  0  0  0  0
  -29.8300  -21.8750   24.4030 C   0  0  0  0  0  3  0  0  0  0  0  0
  -30.6930  -19.3680   23.4270 C   0  0  0  0  0  0  0  0  0  0  0  0
  -29.5530  -20.7030   25.1340 C   0  0  0  0  0  0  0  0  0  0  0  0
  -30.5460  -21.8070   23.1880 C   0  0  0  0  0  0  0  0  0  0  0  0
  -28.7940  -20.7880   26.4420 C   0  0  0  0  0  1  0  0  0  0  0  0
  -31.1860  -18.0350   22.9420 C   0  0  0  0  0  0  0  0  0  0  0  0
  -31.0610  -17.8220   21.6290 N   0  0  0  0  0  0  0  0  0  0  0  0
  -31.6490  -17.2020   23.7240 O   0  0  0  0  0  0  0  0  0  0  0  0
  -30.6240  -18.5580   21.0910 H   0  0  0  0  0  0  0  0  0  0  0  0
  -31.6150  -16.6910   20.8890 C   0  0  0  0  0  2  0  0  0  0  0  0
  -30.7880  -15.3880   21.0210 C   0  0  0  0  0  2  0  0  0  0  0  0
  -31.4100  -14.2120   20.2430 C   0  0  0  0  0  0  0  0  0  0  0  0
  -31.1570  -11.9840   19.2130 C   0  0  0  0  0  2  0  0  0  0  0  0
  -30.2480  -12.0750   17.9730 C   0  0  0  0  0  2  0  0  0  0  0  0
  -28.7670  -11.9390   18.3750 C   0  0  0  0  0  2  0  0  0  0  0  0
  -28.3790  -12.8740   19.5520 C   0  0  0  0  0  3  0  0  0  0  0  0
  -29.4050  -12.7710   20.7030 C   0  0  0  0  0  2  0  0  0  0  0  0
  -30.7420  -13.0330   20.1520 N   0  0  0  0  0  0  0  0  0  0  0  0
  -32.4890  -14.3960   19.6710 O   0  0  0  0  0  0  0  0  0  0  0  0
  -25.9670  -13.4960   20.2060 C   0  0  0  0  0  0  0  0  0  0  0  0
  -24.8930  -12.7310   20.5730 C   0  0  0  0  0  0  0  0  0  0  0  0
  -25.3540  -11.3790   20.5770 C   0  0  0  0  0  0  0  0  0  0  0  0
  -27.0160  -12.6110   20.0120 N   0  0  0  0  0  0  0  0  0  0  0  0
  -26.6490  -11.3340   20.2900 N   0  0  0  0  0  0  0  0  0  0  0  0
  -24.6250  -10.1200   20.7820 C   0  0  0  0  0  0  0  0  0  0  0  0
  -24.9990   -9.2070   21.7920 C   0  0  0  0  0  3  0  0  0  0  0  0
  -24.2720   -8.0130   21.9820 C   0  0  0  0  0  3  0  0  0  0  0  0
  -23.1560   -7.7220   21.1590 C   0  0  0  0  0  0  0  0  0  0  0  0
  -22.8030   -8.6240   20.1410 C   0  0  0  0  0  3  0  0  0  0  0  0
  -23.5310   -9.8100   19.9500 C   0  0  0  0  0  3  0  0  0  0  0  0
  -22.4070   -6.5750   21.2540 O   0  0  0  0  0  0  0  0  0  0  0  0
  -22.2050   -5.9440   22.4550 C   0  0  0  0  0  0  0  0  0  0  0  0
  -21.5670   -6.5880   23.5370 C   0  0  0  0  0  3  0  0  0  0  0  0
  -21.3180   -5.8800   24.7290 C   0  0  0  0  0  3  0  0  0  0  0  0
  -21.6950   -4.5280   24.8390 C   0  0  0  0  0  0  0  0  0  0  0  0
  -22.3250   -3.8840   23.7610 C   0  0  0  0  0  3  0  0  0  0  0  0
  -22.5760   -4.5880   22.5700 C   0  0  0  0  0  0  0  0  0  0  0  0
  -23.1650   -3.9570   21.5260 F   0  0  0  0  0  0  0  0  0  0  0  0
  -21.4490   -3.8450   25.9820 F   0  0  0  0  0  0  0  0  0  0  0  0
  -23.4910  -13.2130   20.8150 C   0  0  0  0  0  0  0  0  0  0  0  0
  -22.7590  -12.5470   21.7000 N   0  0  0  0  0  0  0  0  0  0  0  0
  -23.0530  -14.2160   20.2520 O   0  0  0  0  0  0  0  0  0  0  0  0
  -23.1240  -11.7360   22.1770 H   0  0  0  0  0  0  0  0  0  0  0  0
  -21.8180  -12.8530   21.9060 H   0  0  0  0  0  0  0  0  0  0  0  0
  -26.1350  -14.8630   20.0020 N   0  0  0  0  0  0  0  0  0  0  0  0
  -25.3680  -15.5220   20.0850 H   0  0  0  0  0  0  0  0  0  0  0  0
  -26.9950  -15.2960   19.6920 H   0  0  0  0  0  0  0  0  0  0  0  0
  -30.8710  -23.0840   22.4270 C   0  0  0  0  0  2  0  0  0  0  0  0
  -29.7450  -23.4870   21.5650 N   0  0  0  0  0  4  0  0  0  0  0  0
  -28.9030  -23.3900   22.1110 H   0  0  0  0  0  0  0  0  0  0  0  0
  -29.6860  -22.8340   20.8000 H   0  0  0  0  0  0  0  0  0  0  0  0
  -29.8350  -24.8760   21.0500 C   0  0  0  0  0  2  0  0  0  0  0  0
  -28.6110  -25.2650   20.2020 C   0  0  0  0  0  2  0  0  0  0  0  0
  -28.6650  -26.6680   19.9340 O   0  0  0  0  0  0  0  0  0  0  0  0
  -24.6120  -31.6110   23.0050 C   0  0  0  0  0  0  0  0  0  0  0  0
  -27.4590  -27.3280   19.9090 C   0  0  0  0  0  0  0  0  0  0  0  0
  -23.4780  -30.1840   21.3320 C   0  0  0  0  0  3  0  0  0  0  0  0
  -25.0050  -28.7210   19.9090 C   0  0  0  0  0  0  0  0  0  0  0  0
  -25.9870  -30.6480   21.1650 C   0  0  0  0  0  2  0  0  0  0  0  0
  -26.1330  -29.2890   20.5120 C   0  0  0  0  0  0  0  0  0  0  0  0
  -27.3640  -28.6010   20.5060 C   0  0  0  0  0  3  0  0  0  0  0  0
  -26.3160  -26.7680   19.2930 C   0  0  0  0  0  3  0  0  0  0  0  0
  -25.0890  -27.4580   19.2970 C   0  0  0  0  0  3  0  0  0  0  0  0
  -23.7270  -29.5270   19.9470 C   0  0  0  0  0  2  0  0  0  0  0  0
  -24.7090  -30.8280   21.8940 N   0  0  0  0  0  0  0  0  0  0  0  0
  -23.5170  -31.8360   23.5350 O   0  0  0  0  0  0  0  0  0  0  0  0
  -22.8560  -29.1280   22.2720 C   0  0  0  0  0  0  0  0  0  0  0  0
  -21.5320  -28.9340   22.1600 N   0  0  0  0  0  0  0  0  0  0  0  0
  -23.5590  -28.4870   23.0580 O   0  0  0  0  0  0  0  0  0  0  0  0
  -21.0250  -29.5060   21.4990 H   0  0  0  0  0  0  0  0  0  0  0  0
  -18.1690  -27.7450   22.7300 C   0  0  0  0  0  0  0  0  0  0  0  0
  -20.7370  -27.9650   22.9150 C   0  0  0  0  0  3  0  0  0  0  0  0
  -20.8030  -26.5640   22.2640 C   0  0  0  0  0  2  0  0  0  0  0  0
  -19.6600  -26.3020   21.2790 C   0  0  0  0  0  2  0  0  0  0  0  0
  -18.3050  -26.4290   21.9820 C   0  0  0  0  0  2  0  0  0  0  0  0
  -19.3120  -28.4740   23.1530 C   0  0  0  0  0  0  0  0  0  0  0  0
  -19.1300  -29.7090   23.8120 C   0  0  0  0  0  3  0  0  0  0  0  0
  -17.8380  -30.2150   24.0510 C   0  0  0  0  0  3  0  0  0  0  0  0
  -16.7100  -29.4820   23.6440 C   0  0  0  0  0  3  0  0  0  0  0  0
  -16.8770  -28.2480   22.9890 C   0  0  0  0  0  3  0  0  0  0  0  0
  -25.8690  -32.2800   23.6470 C   0  0  0  0  0  3  0  0  0  0  0  0
  -25.4880  -33.6400   24.0480 N   0  0  0  0  0  0  0  0  0  0  0  0
  -25.7570  -34.7450   23.3390 C   0  0  0  0  0  0  0  0  0  0  0  0
  -26.4250  -34.7280   22.3010 O   0  0  0  0  0  0  0  0  0  0  0  0
  -24.8920  -33.7250   24.8580 H   0  0  0  0  0  0  0  0  0  0  0  0
  -23.9350  -36.4560   23.0730 C   0  0  0  0  0  1  0  0  0  0  0  0
  -25.1980  -36.0800   23.8640 C   0  0  0  0  0  3  0  0  0  0  0  0
  -27.2780  -37.0390   24.7460 C   0  0  0  0  0  1  0  0  0  0  0  0
  -26.1720  -37.1910   23.8050 N   0  0  0  0  0  0  0  0  0  0  0  0
  -25.7160  -38.0800   23.9910 H   0  0  0  0  0  0  0  0  0  0  0  0
  -26.4420  -31.4740   24.8770 C   0  0  1  0  0  0  0  0  0  0  0  0
  -25.3740  -31.1020   25.9300 C   0  0  0  0  0  1  0  0  0  0  0  0
  -27.1170  -30.1650   24.4030 C   0  0  0  0  0  1  0  0  0  0  0  0
  -27.5400  -32.3070   25.5830 C   0  0  0  0  0  1  0  0  0  0  0  0
  1  5  1  0
  2  6  2  0
  2  4  1  0
  3  5  2  0
  4  1  2  0
  5  7  1  0
  6  3  1  0
  8  4  1  0
  8 10  2  0
  9  8  1  0
 11  9  1  0
 12 13  1  0
 12  9  1  0
 14 13  1  0
 15 20  1  0
 16 17  1  0
 16 15  1  0
 18 17  1  0
 18 25  1  0
 18 19  1  0
 20 14  1  0
 20 19  1  0
 21 14  2  0
 22 23  2  0
 23 24  1  0
 23 42  1  0
 24 27  1  0
 25 22  1  0
 25 26  1  0
 26 24  2  0
 27 28  1  0
 28 29  2  0
 30 33  1  0
 30 29  1  0
 31 30  2  0
 32 31  1  0
 32 27  2  0
 33 34  1  0
 34 39  2  0
 34 35  1  0
 35 36  2  0
 36 37  1  0
 37 41  1  0
 38 37  2  0
 39 38  1  0
 40 39  1  0
 42 43  1  0
 43 46  1  0
 43 45  1  0
 44 42  2  0
 47 48  1  0
 47 22  1  0
 49 47  1  0
 50  6  1  0
 51 52  1  0
 51 50  1  0
 53 51  1  0
 54 51  1  0
 55 54  1  0
 56 55  1  0
 57 68  2  0
 58 56  1  0
 58 63  1  0
 59 67  1  0
 59 69  1  0
 60 66  1  0
 60 62  1  0
 61 67  1  0
 62 61  1  0
 63 62  2  0
 64 65  1  0
 64 58  2  0
 65 60  2  0
 66 59  1  0
 67 57  1  0
 69 71  2  0
 70 69  1  0
 72 70  1  0
 73 82  2  0
 73 78  1  0
 74 70  1  0
 74 78  1  0
 75 74  1  0
 76 77  1  0
 76 75  1  0
 77 73  1  0
 78 79  2  0
 79 80  1  0
 81 80  2  0
 82 81  1  0
 83 57  1  0
 83 84  1  0
 83 93  1  0
 84 87  1  0
 85 89  1  0
 85 84  1  0
 86 85  2  0
 89 88  1  0
 91 89  1  0
 91 92  1  0
 91 90  1  0
 93 96  1  1
 93 94  1  0
 95 93  1  0
M  ISO  4  13 100  14 100  55 101  56 101
M  END
>  <TORSDO>  (36) 
F 23

>  <SCORE>  (36) 
-3.817

>  <name>  (36) 
35

>  <ligand_id>  (36) 
35

>  <original_smiles>  (36) 
[H]c1c([H])c([H])c2c(c1[H])C([H])([H])C([H])([H])C([H])([H])C2([H])N([H])C(=O)C1([H])N(C(=O)C([H])(N([H])C(=O)C([H])(N([H])C([H])([H])[H])C([H])([H])[H])C(C([H])([H])[H])(C([H])([H])[H])C([H])([H])[H])C([H])([H])c2c([H])c(OC([H])([H])C([H])([H])[N+]([H])([H])C([H])([H])c3c([H])c(C(=O)N([H])C([H])([H])C([H])([H])C(=O)N4C([H])([H])C([H])([H])C([H])([H])C([H])(n5nc(-c6c([H])c([H])c(Oc7c([H])c([H])c(F)c([H])c7F)c([H])c6[H])c(C(=O)N([H])[H])c5N([H])[H])C4([H])[H])c([H])c(C([H])([H])[H])c3[H])c([H])c([H])c2C1([H])[H]

>  <smiles>  (36) 
[H]c1c([H])c([H])c2c(c1[H])C([H])([H])C([H])([H])C([H])([H])C2([H])N([H])C(=O)C1([H])N(C(=O)C([H])(N([H])C(=O)C([H])(N([H])C([H])([H])[H])C([H])([H])[H])C(C([H])([H])[H])(C([H])([H])[H])C([H])([H])[H])C([H])([H])c2c([H])c(OC([H])([H])C([H])([H])[N+]([H])([H])C([H])([H])c3c([H])c(C(=O)N([H])C([H])([H])C([H])([H])C(=O)N4C([H])([H])C([H])([H])C([H])([H])C([H])(n5nc(-c6c([H])c([H])c(Oc7c([H])c([H])c(F)c([H])c7F)c([H])c6[H])c(C(=O)N([H])[H])c5N([H])[H])C4([H])[H])c([H])c(C([H])([H])[H])c3[H])c([H])c([H])c2C1([H])[H]

$$$$
36:0:0
     RDKit          3D

 96104  0  0  1  0  0  0  0  0999 V2000
  -32.8650  -23.9540   19.9700 C   0  0  0  0  0  3  0  0  0  0  0  0
  -32.5890  -25.2720   19.6130 C   0  0  0  0  0  3  0  0  0  0  0  0
  -31.8190  -23.0260   20.0450 C   0  0  0  0  0  3  0  0  0  0  0  0
  -31.2630  -25.6900   19.3700 C   0  0  0  0  0  0  0  0  0  0  0  0
  -30.4570  -23.3910   19.8570 C   0  0  0  0  0  0  0  0  0  0  0  0
  -30.1570  -24.7970   19.5950 C   0  0  0  0  0  0  0  0  0  0  0  0
  -31.1180  -27.0730   18.8250 C   0  0  0  0  0  3  0  0  0  0  0  0
  -31.9930  -27.9440   18.8770 O   0  0  0  0  0  0  0  0  0  0  0  0
  -29.4200  -22.2120   19.8800 C   0  0  0  0  0  2  0  0  0  0  0  0
  -29.9820  -20.8210   20.1930 N   0  0  1  0  0  4  0  0  0  0  0  0
  -30.6830  -20.7150   19.4780 H   0  0  0  0  0  0  0  0  0  0  0  0
  -29.8090  -20.9190   22.7370 C   0  0  0  0  0  1  0  0  0  0  0  0
  -30.7140  -20.7850   21.4930 C   0  0  0  0  0  2  0  0  0  0  0  0
  -29.0720  -19.6240   19.9840 C   0  0  0  0  0  2  0  0  0  0  0  0
  -29.7170  -18.1790   19.7670 C   0  0  0  0  0  2  0  0  0  0  0  0
  -30.0000  -17.2180   20.9880 C   0  0  0  0  0  2  0  0  0  0  0  0
  -30.6590  -14.7400   20.4010 C   0  0  0  0  0  0  0  0  0  0  0  0
  -30.5130  -12.4860   19.3600 C   0  0  0  0  0  2  0  0  0  0  0  0
  -29.5620  -12.5590   18.1440 C   0  0  0  0  0  2  0  0  0  0  0  0
  -28.0890  -12.3910   18.5690 C   0  0  0  0  0  2  0  0  0  0  0  0
  -27.7130  -13.2820   19.7830 C   0  0  0  0  0  3  0  0  0  0  0  0
  -28.7680  -13.1460   20.9020 C   0  0  0  0  0  2  0  0  0  0  0  0
  -30.0740  -13.5060   20.3290 N   0  0  0  0  0  0  0  0  0  0  0  0
  -31.8070  -14.9520   20.0030 O   0  0  0  0  0  0  0  0  0  0  0  0
  -29.8200  -15.7450   20.7790 N   0  0  0  0  0  0  0  0  0  0  0  0
  -28.9090  -15.4000   21.0430 H   0  0  0  0  0  0  0  0  0  0  0  0
  -25.3240  -13.8800   20.5230 C   0  0  0  0  0  0  0  0  0  0  0  0
  -24.2550  -13.1020   20.8810 C   0  0  0  0  0  0  0  0  0  0  0  0
  -24.7110  -11.7500   20.8150 C   0  0  0  0  0  0  0  0  0  0  0  0
  -26.3630  -12.9990   20.2660 N   0  0  0  0  0  0  0  0  0  0  0  0
  -25.9990  -11.7130   20.5000 N   0  0  0  0  0  0  0  0  0  0  0  0
  -23.9820  -10.4850   20.9780 C   0  0  0  0  0  0  0  0  0  0  0  0
  -24.3680   -9.5290   21.9420 C   0  0  0  0  0  3  0  0  0  0  0  0
  -23.6420   -8.3290   22.0930 C   0  0  0  0  0  3  0  0  0  0  0  0
  -22.5130   -8.0770   21.2760 C   0  0  0  0  0  0  0  0  0  0  0  0
  -22.1470   -9.0200   20.3020 C   0  0  0  0  0  3  0  0  0  0  0  0
  -22.8750  -10.2120   20.1500 C   0  0  0  0  0  3  0  0  0  0  0  0
  -21.7630   -6.9260   21.3340 O   0  0  0  0  0  0  0  0  0  0  0  0
  -21.6140   -6.2210   22.5010 C   0  0  0  0  0  0  0  0  0  0  0  0
  -21.0310   -6.7980   23.6500 C   0  0  0  0  0  3  0  0  0  0  0  0
  -20.8340   -6.0160   24.8060 C   0  0  0  0  0  3  0  0  0  0  0  0
  -21.2100   -4.6600   24.8120 C   0  0  0  0  0  0  0  0  0  0  0  0
  -21.7850   -4.0830   23.6660 C   0  0  0  0  0  3  0  0  0  0  0  0
  -21.9850   -4.8620   22.5140 C   0  0  0  0  0  0  0  0  0  0  0  0
  -22.5200   -4.2960   21.4050 F   0  0  0  0  0  0  0  0  0  0  0  0
  -21.0130   -3.9070   25.9200 F   0  0  0  0  0  0  0  0  0  0  0  0
  -22.8600  -13.5770   21.1720 C   0  0  0  0  0  0  0  0  0  0  0  0
  -22.1350  -12.8600   22.0250 N   0  0  0  0  0  0  0  0  0  0  0  0
  -22.4210  -14.6150   20.6790 O   0  0  0  0  0  0  0  0  0  0  0  0
  -22.5010  -12.0180   22.4420 H   0  0  0  0  0  0  0  0  0  0  0  0
  -21.1990  -13.1570   22.2630 H   0  0  0  0  0  0  0  0  0  0  0  0
  -25.4960  -15.2530   20.3720 N   0  0  0  0  0  0  0  0  0  0  0  0
  -24.7330  -15.9120   20.4790 H   0  0  0  0  0  0  0  0  0  0  0  0
  -26.3380  -15.6800   20.0080 H   0  0  0  0  0  0  0  0  0  0  0  0
  -28.7100  -25.3990   19.5200 C   0  0  0  0  0  2  0  0  0  0  0  0
  -28.6120  -26.7730   20.0270 O   0  0  0  0  0  0  0  0  0  0  0  0
  -24.7710  -31.9260   23.1720 C   0  0  0  0  0  0  0  0  0  0  0  0
  -27.4350  -27.5200   19.9850 C   0  0  0  0  0  0  0  0  0  0  0  0
  -23.5800  -30.5690   21.4830 C   0  0  0  0  0  3  0  0  0  0  0  0
  -25.0430  -29.0680   20.0160 C   0  0  0  0  0  0  0  0  0  0  0  0
  -26.1080  -30.9250   21.3080 C   0  0  0  0  0  2  0  0  0  0  0  0
  -26.1980  -29.5650   20.6280 C   0  0  0  0  0  0  0  0  0  0  0  0
  -27.3940  -28.8010   20.6040 C   0  0  0  0  0  3  0  0  0  0  0  0
  -26.2560  -27.0520   19.3630 C   0  0  0  0  0  3  0  0  0  0  0  0
  -25.0700  -27.8160   19.3780 C   0  0  0  0  0  3  0  0  0  0  0  0
  -23.8000  -29.9300   20.0840 C   0  0  0  0  0  2  0  0  0  0  0  0
  -24.8390  -31.1540   22.0470 N   0  0  0  0  0  0  0  0  0  0  0  0
  -23.6850  -32.1750   23.7130 O   0  0  0  0  0  0  0  0  0  0  0  0
  -22.9250  -29.5180   22.4120 C   0  0  0  0  0  0  0  0  0  0  0  0
  -21.5990  -29.3470   22.2900 N   0  0  0  0  0  0  0  0  0  0  0  0
  -23.6100  -28.8630   23.2020 O   0  0  0  0  0  0  0  0  0  0  0  0
  -21.1030  -29.9330   21.6320 H   0  0  0  0  0  0  0  0  0  0  0  0
  -18.2240  -28.1510   22.7800 C   0  0  0  0  0  0  0  0  0  0  0  0
  -20.7860  -28.3820   23.0300 C   0  0  0  0  0  3  0  0  0  0  0  0
  -20.8720  -26.9760   22.3950 C   0  0  0  0  0  2  0  0  0  0  0  0
  -19.7560  -26.7000   21.3830 C   0  0  0  0  0  2  0  0  0  0  0  0
  -18.3820  -26.8310   22.0460 C   0  0  0  0  0  2  0  0  0  0  0  0
  -19.3520  -28.8860   23.2290 C   0  0  0  0  0  0  0  0  0  0  0  0
  -19.1490  -30.1240   23.8760 C   0  0  0  0  0  3  0  0  0  0  0  0
  -17.8520  -30.6310   24.0750 C   0  0  0  0  0  3  0  0  0  0  0  0
  -16.7360  -29.8930   23.6400 C   0  0  0  0  0  3  0  0  0  0  0  0
  -16.9240  -28.6540   23.0010 C   0  0  0  0  0  3  0  0  0  0  0  0
  -26.0480  -32.5490   23.8170 C   0  0  0  0  0  3  0  0  0  0  0  0
  -25.7400  -33.9410   24.1670 N   0  0  0  0  0  0  0  0  0  0  0  0
  -26.0930  -35.0070   23.4370 C   0  0  0  0  0  0  0  0  0  0  0  0
  -26.7840  -34.9210   22.4190 O   0  0  0  0  0  0  0  0  0  0  0  0
  -25.1420  -34.0870   24.9680 H   0  0  0  0  0  0  0  0  0  0  0  0
  -24.3800  -36.8070   23.0790 C   0  0  0  0  0  1  0  0  0  0  0  0
  -25.6000  -36.3860   23.9130 C   0  0  0  0  0  3  0  0  0  0  0  0
  -27.7130  -37.2530   24.8150 C   0  0  0  0  0  1  0  0  0  0  0  0
  -26.6380  -37.4370   23.8420 N   0  0  0  0  0  0  0  0  0  0  0  0
  -26.2300  -38.3560   23.9850 H   0  0  0  0  0  0  0  0  0  0  0  0
  -26.5490  -31.7580   25.0870 C   0  0  1  0  0  0  0  0  0  0  0  0
  -25.4460  -31.5080   26.1410 C   0  0  0  0  0  1  0  0  0  0  0  0
  -27.1300  -30.3880   24.6720 C   0  0  0  0  0  1  0  0  0  0  0  0
  -27.6910  -32.5410   25.7760 C   0  0  0  0  0  1  0  0  0  0  0  0
  1  3  1  0
  2  1  2  0
  4  6  2  0
  4  2  1  0
  5  9  1  0
  5  3  2  0
  6  5  1  0
  7  8  2  0
  7  4  1  0
  9 10  1  0
 10 13  1  0
 10 11  1  6
 13 12  1  0
 14 10  1  0
 15 14  1  0
 15 16  1  0
 17 25  1  0
 18 23  1  0
 19 20  1  0
 19 18  1  0
 21 20  1  0
 21 30  1  0
 21 22  1  0
 23 17  1  0
 23 22  1  0
 24 17  2  0
 25 16  1  0
 25 26  1  0
 27 28  2  0
 28 47  1  0
 29 28  1  0
 29 32  1  0
 30 31  1  0
 30 27  1  0
 31 29  2  0
 32 33  1  0
 33 34  2  0
 35 38  1  0
 35 34  1  0
 36 35  2  0
 37 36  1  0
 37 32  2  0
 38 39  1  0
 39 44  2  0
 39 40  1  0
 40 41  2  0
 41 42  1  0
 42 46  1  0
 43 42  2  0
 44 43  1  0
 45 44  1  0
 47 48  1  0
 48 51  1  0
 48 50  1  0
 49 47  2  0
 52 53  1  0
 52 27  1  0
 54 52  1  0
 55  6  1  0
 55 56  1  0
 57 68  2  0
 58 56  1  0
 58 63  1  0
 59 67  1  0
 59 69  1  0
 60 66  1  0
 60 62  1  0
 61 67  1  0
 62 61  1  0
 63 62  2  0
 64 65  1  0
 64 58  2  0
 65 60  2  0
 66 59  1  0
 67 57  1  0
 69 71  2  0
 70 69  1  0
 72 70  1  0
 73 82  2  0
 73 78  1  0
 74 70  1  0
 74 78  1  0
 75 74  1  0
 76 77  1  0
 76 75  1  0
 77 73  1  0
 78 79  2  0
 79 80  1  0
 81 80  2  0
 82 81  1  0
 83 57  1  0
 83 84  1  0
 83 93  1  0
 84 87  1  0
 85 89  1  0
 85 84  1  0
 86 85  2  0
 89 88  1  0
 91 89  1  0
 91 92  1  0
 91 90  1  0
 93 96  1  1
 93 94  1  0
 95 93  1  0
M  ISO  4  17 100  25 100  55 101  56 101
M  END
>  <TORSDO>  (37) 
F 24

>  <SCORE>  (37) 
-12.073

>  <name>  (37) 
36

>  <ligand_id>  (37) 
36

>  <original_smiles>  (37) 
[H]C(=O)c1c([H])c([H])c([H])c(C([H])([H])[N+]([H])(C([H])([H])C([H])([H])[H])C([H])([H])C([H])([H])C([H])([H])N([H])C(=O)N2C([H])([H])C([H])([H])C([H])([H])C([H])(n3nc(-c4c([H])c([H])c(Oc5c([H])c([H])c(F)c([H])c5F)c([H])c4[H])c(C(=O)N([H])[H])c3N([H])[H])C2([H])[H])c1C([H])([H])Oc1c([H])c([H])c2c(c1[H])C([H])([H])N(C(=O)C([H])(N([H])C(=O)C([H])(N([H])C([H])([H])[H])C([H])([H])[H])C(C([H])([H])[H])(C([H])([H])[H])C([H])([H])[H])C([H])(C(=O)N([H])C1([H])c3c([H])c([H])c([H])c([H])c3C([H])([H])C([H])([H])C1([H])[H])C2([H])[H]

>  <smiles>  (37) 
[H]C(=O)c1c([H])c([H])c([H])c(C([H])([H])[N+]([H])(C([H])([H])C([H])([H])[H])C([H])([H])C([H])([H])C([H])([H])N([H])C(=O)N2C([H])([H])C([H])([H])C([H])([H])C([H])(n3nc(-c4c([H])c([H])c(Oc5c([H])c([H])c(F)c([H])c5F)c([H])c4[H])c(C(=O)N([H])[H])c3N([H])[H])C2([H])[H])c1C([H])([H])Oc1c([H])c([H])c2c(c1[H])C([H])([H])N(C(=O)C([H])(N([H])C(=O)C([H])(N([H])C([H])([H])[H])C([H])([H])[H])C(C([H])([H])[H])(C([H])([H])[H])C([H])([H])[H])C([H])(C(=O)N([H])C1([H])c3c([H])c([H])c([H])c([H])c3C([H])([H])C([H])([H])C1([H])[H])C2([H])[H]

$$$$
37:0:0
     RDKit          3D

105113  0  0  1  0  0  0  0  0999 V2000
  -32.7380  -24.7880   16.7880 C   0  0  0  0  0  0  0  0  0  0  0  0
  -32.8500  -23.2720   16.9660 C   0  0  0  0  0  2  0  0  0  0  0  0
  -31.8860  -25.5660   17.7930 C   0  0  0  0  0  2  0  0  0  0  0  0
  -34.6940  -24.8510   19.1640 C   0  0  0  0  0  2  0  0  0  0  0  0
  -34.6070  -23.3190   18.9520 C   0  0  0  0  0  2  0  0  0  0  0  0
  -33.4600  -25.5020   19.8410 C   0  0  0  0  0  2  0  0  0  0  0  0
  -34.2110  -22.7710   17.5400 C   0  0  0  0  0  3  0  0  0  0  0  0
  -32.0770  -25.1170   19.2640 C   0  0  0  0  0  3  0  0  0  0  0  0
  -33.3100  -25.3630   15.8590 O   0  0  0  0  0  0  0  0  0  0  0  0
  -30.9790  -25.6210   20.1210 N   0  0  0  0  0  4  0  0  0  0  0  0
  -30.7940  -26.5900   19.9050 H   0  0  0  0  0  0  0  0  0  0  0  0
  -31.2800  -25.5870   21.0840 H   0  0  0  0  0  0  0  0  0  0  0  0
  -29.7140  -24.8500   20.0100 C   0  0  0  0  0  2  0  0  0  0  0  0
  -28.5720  -25.5600   20.7330 C   0  0  0  0  0  2  0  0  0  0  0  0
  -28.5190  -26.8600   20.1590 O   0  0  0  0  0  0  0  0  0  0  0  0
  -24.6220  -31.8960   23.2570 C   0  0  0  0  0  0  0  0  0  0  0  0
  -27.3140  -27.5050   20.2040 C   0  0  0  0  0  0  0  0  0  0  0  0
  -23.4250  -30.4760   21.6190 C   0  0  0  0  0  3  0  0  0  0  0  0
  -24.8940  -28.9450   20.2080 C   0  0  0  0  0  0  0  0  0  0  0  0
  -25.9410  -30.8730   21.4120 C   0  0  0  0  0  2  0  0  0  0  0  0
  -26.0410  -29.4990   20.7870 C   0  0  0  0  0  0  0  0  0  0  0  0
  -27.2550  -28.7870   20.7800 C   0  0  0  0  0  3  0  0  0  0  0  0
  -26.1530  -26.9480   19.6220 C   0  0  0  0  0  3  0  0  0  0  0  0
  -24.9420  -27.6650   19.6240 C   0  0  0  0  0  3  0  0  0  0  0  0
  -23.6390  -29.7870   20.2450 C   0  0  0  0  0  2  0  0  0  0  0  0
  -24.6800  -31.0970   22.1560 N   0  0  0  0  0  0  0  0  0  0  0  0
  -23.5380  -32.1590   23.8000 O   0  0  0  0  0  0  0  0  0  0  0  0
  -22.7880  -29.4530   22.5850 C   0  0  0  0  0  0  0  0  0  0  0  0
  -21.4650  -29.2550   22.4580 N   0  0  0  0  0  0  0  0  0  0  0  0
  -23.4790  -28.8370   23.4020 O   0  0  0  0  0  0  0  0  0  0  0  0
  -20.9690  -29.8040   21.7700 H   0  0  0  0  0  0  0  0  0  0  0  0
  -18.1030  -28.0390   22.9570 C   0  0  0  0  0  0  0  0  0  0  0  0
  -20.6590  -28.3130   23.2300 C   0  0  0  0  0  3  0  0  0  0  0  0
  -20.7710  -26.8810   22.6560 C   0  0  0  0  0  2  0  0  0  0  0  0
  -19.6720  -26.5500   21.6410 C   0  0  0  0  0  2  0  0  0  0  0  0
  -18.2900  -26.6880   22.2860 C   0  0  0  0  0  2  0  0  0  0  0  0
  -19.2170  -28.8080   23.3860 C   0  0  0  0  0  0  0  0  0  0  0  0
  -18.9910  -30.0720   23.9720 C   0  0  0  0  0  3  0  0  0  0  0  0
  -17.6840  -30.5670   24.1340 C   0  0  0  0  0  3  0  0  0  0  0  0
  -16.5840  -29.7950   23.7240 C   0  0  0  0  0  3  0  0  0  0  0  0
  -16.7950  -28.5330   23.1400 C   0  0  0  0  0  3  0  0  0  0  0  0
  -25.9030  -32.5400   23.8720 C   0  0  0  0  0  3  0  0  0  0  0  0
  -25.5900  -33.9400   24.1860 N   0  0  0  0  0  0  0  0  0  0  0  0
  -25.9260  -34.9850   23.4170 C   0  0  0  0  0  0  0  0  0  0  0  0
  -26.6090  -34.8720   22.3950 O   0  0  0  0  0  0  0  0  0  0  0  0
  -24.9870  -34.1010   24.9800 H   0  0  0  0  0  0  0  0  0  0  0  0
  -24.2050  -36.7710   23.0120 C   0  0  0  0  0  1  0  0  0  0  0  0
  -25.4280  -36.3760   23.8540 C   0  0  0  0  0  3  0  0  0  0  0  0
  -27.5440  -37.2660   24.7210 C   0  0  0  0  0  1  0  0  0  0  0  0
  -26.4610  -37.4290   23.7560 N   0  0  0  0  0  0  0  0  0  0  0  0
  -26.0510  -38.3490   23.8920 H   0  0  0  0  0  0  0  0  0  0  0  0
  -26.4250  -31.7830   25.1550 C   0  0  1  0  0  0  0  0  0  0  0  0
  -25.3350  -31.5490   26.2260 C   0  0  0  0  0  1  0  0  0  0  0  0
  -27.0150  -30.4060   24.7710 C   0  0  0  0  0  1  0  0  0  0  0  0
  -27.5710  -32.5900   25.8120 C   0  0  0  0  0  1  0  0  0  0  0  0
  -34.2470  -21.2840   17.6180 N   0  0  0  0  0  4  0  0  0  0  0  0
  -33.6420  -21.0050   18.3730 H   0  0  0  0  0  0  0  0  0  0  0  0
  -35.1830  -21.0240   17.8910 H   0  0  0  0  0  0  0  0  0  0  0  0
  -33.9060  -20.5340   16.3790 C   0  0  0  0  0  2  0  0  0  0  0  0
  -33.8780  -18.9980   16.5550 C   0  0  0  0  0  2  0  0  0  0  0  0
  -32.8760  -18.4380   17.5920 C   0  0  0  0  0  2  0  0  0  0  0  0
  -31.4640  -18.8170   17.3370 N   0  0  0  0  0  4  0  0  0  0  0  0
  -31.2860  -19.7640   17.6290 H   0  0  0  0  0  0  0  0  0  0  0  0
  -31.2900  -18.7800   16.3440 H   0  0  0  0  0  0  0  0  0  0  0  0
  -30.4400  -17.9470   17.9590 C   0  0  0  0  0  2  0  0  0  0  0  0
  -30.6170  -17.6850   19.4760 C   0  0  0  0  0  2  0  0  0  0  0  0
  -29.4920  -16.7490   19.9750 C   0  0  0  0  0  2  0  0  0  0  0  0
  -30.6630  -14.7260   20.7080 C   0  0  0  0  0  0  0  0  0  0  0  0
  -30.4630  -12.5500   19.6100 C   0  0  0  0  0  2  0  0  0  0  0  0
  -29.5730  -12.7480   18.3630 C   0  0  0  0  0  2  0  0  0  0  0  0
  -28.0760  -12.6120   18.7200 C   0  0  0  0  0  2  0  0  0  0  0  0
  -27.6740  -13.4270   19.9790 C   0  0  0  0  0  3  0  0  0  0  0  0
  -28.6880  -13.2240   21.1300 C   0  0  0  0  0  2  0  0  0  0  0  0
  -30.0360  -13.5250   20.6200 N   0  0  0  0  0  0  0  0  0  0  0  0
  -31.8060  -14.9290   20.2930 O   0  0  0  0  0  0  0  0  0  0  0  0
  -29.8400  -15.7470   20.9910 N   0  0  0  0  0  0  0  0  0  0  0  0
  -29.0480  -15.4700   21.5530 H   0  0  0  0  0  0  0  0  0  0  0  0
  -25.2340  -13.9820   20.5830 C   0  0  0  0  0  0  0  0  0  0  0  0
  -24.1710  -13.1850   20.9140 C   0  0  0  0  0  0  0  0  0  0  0  0
  -24.6680  -11.8460   20.9120 C   0  0  0  0  0  0  0  0  0  0  0  0
  -26.3080  -13.1240   20.4020 N   0  0  0  0  0  0  0  0  0  0  0  0
  -25.9680  -11.8370   20.6560 N   0  0  0  0  0  0  0  0  0  0  0  0
  -23.9690  -10.5660   21.0810 C   0  0  0  0  0  0  0  0  0  0  0  0
  -24.3880   -9.6190   22.0430 C   0  0  0  0  0  3  0  0  0  0  0  0
  -23.6900   -8.4030   22.2020 C   0  0  0  0  0  3  0  0  0  0  0  0
  -22.5620   -8.1220   21.3950 C   0  0  0  0  0  0  0  0  0  0  0  0
  -22.1650   -9.0570   20.4240 C   0  0  0  0  0  3  0  0  0  0  0  0
  -22.8630  -10.2650   20.2640 C   0  0  0  0  0  3  0  0  0  0  0  0
  -21.8380   -6.9570   21.4590 O   0  0  0  0  0  0  0  0  0  0  0  0
  -21.7440   -6.2310   22.6190 C   0  0  0  0  0  0  0  0  0  0  0  0
  -21.2260   -6.7890   23.8080 C   0  0  0  0  0  3  0  0  0  0  0  0
  -21.0850   -5.9870   24.9570 C   0  0  0  0  0  3  0  0  0  0  0  0
  -21.4500   -4.6280   24.9180 C   0  0  0  0  0  0  0  0  0  0  0  0
  -21.9560   -4.0680   23.7320 C   0  0  0  0  0  3  0  0  0  0  0  0
  -22.1020   -4.8690   22.5860 C   0  0  0  0  0  0  0  0  0  0  0  0
  -22.5700   -4.3190   21.4390 F   0  0  0  0  0  0  0  0  0  0  0  0
  -21.3080   -3.8550   26.0200 F   0  0  0  0  0  0  0  0  0  0  0  0
  -22.7510  -13.6260   21.1300 C   0  0  0  0  0  0  0  0  0  0  0  0
  -22.0100  -12.9110   21.9700 N   0  0  0  0  0  0  0  0  0  0  0  0
  -22.3060  -14.6390   20.5930 O   0  0  0  0  0  0  0  0  0  0  0  0
  -22.3840  -12.0890   22.4210 H   0  0  0  0  0  0  0  0  0  0  0  0
  -21.0580  -13.1860   22.1650 H   0  0  0  0  0  0  0  0  0  0  0  0
  -25.3830  -15.3550   20.4050 N   0  0  0  0  0  0  0  0  0  0  0  0
  -24.6130  -16.0110   20.4750 H   0  0  0  0  0  0  0  0  0  0  0  0
  -26.2530  -15.7960   20.1300 H   0  0  0  0  0  0  0  0  0  0  0  0
  1  2  1  0
  1  3  1  0
  2  7  1  0
  3  8  1  0
  4  6  1  0
  5  4  1  0
  7 56  1  0
  7  5  1  0
  8  6  1  0
  8 10  1  0
  9  1  2  0
 10 12  1  0
 11 10  1  0
 13 10  1  0
 13 14  1  0
 15 17  1  0
 15 14  1  0
 16 27  2  0
 17 22  1  0
 18 26  1  0
 18 28  1  0
 19 25  1  0
 19 21  1  0
 20 26  1  0
 21 20  1  0
 22 21  2  0
 23 24  1  0
 23 17  2  0
 24 19  2  0
 25 18  1  0
 26 16  1  0
 28 30  2  0
 29 28  1  0
 31 29  1  0
 32 41  2  0
 32 37  1  0
 33 29  1  0
 33 37  1  0
 34 33  1  0
 35 36  1  0
 35 34  1  0
 36 32  1  0
 37 38  2  0
 38 39  1  0
 40 39  2  0
 41 40  1  0
 42 16  1  0
 42 43  1  0
 42 52  1  0
 43 46  1  0
 44 48  1  0
 44 43  1  0
 45 44  2  0
 48 47  1  0
 50 48  1  0
 50 51  1  0
 50 49  1  0
 52 55  1  1
 52 53  1  0
 54 52  1  0
 56 58  1  0
 56 57  1  0
 59 60  1  0
 59 56  1  0
 60 61  1  0
 62 61  1  0
 62 63  1  0
 62 65  1  0
 64 62  1  0
 65 66  1  0
 66 67  1  0
 67 76  1  0
 68 76  1  0
 69 74  1  0
 70 71  1  0
 70 69  1  0
 72 71  1  0
 72 81  1  0
 72 73  1  0
 74 68  1  0
 74 73  1  0
 75 68  2  0
 76 77  1  0
 78 79  2  0
 79 98  1  0
 80 79  1  0
 80 83  1  0
 81 78  1  0
 81 82  1  0
 82 80  2  0
 83 84  1  0
 84 85  2  0
 86 89  1  0
 86 85  1  0
 87 86  2  0
 88 87  1  0
 88 83  2  0
 89 90  1  0
 90 91  1  0
 91 92  2  0
 93 92  1  0
 93 97  1  0
 94 93  2  0
 95 90  2  0
 95 94  1  0
 96 95  1  0
 98 99  1  0
 99102  1  0
 99101  1  0
100 98  2  0
103104  1  0
103 78  1  0
105103  1  0
M  ISO  4  14 101  15 101  68 100  76 100
M  END
>  <TORSDO>  (38) 
F 27

>  <SCORE>  (38) 
-11.502

>  <name>  (38) 
37

>  <ligand_id>  (38) 
37

>  <original_smiles>  (38) 
[H]c1c([H])c([H])c2c(c1[H])C([H])([H])C([H])([H])C([H])([H])C2([H])N([H])C(=O)C1([H])N(C(=O)C([H])(N([H])C(=O)C([H])(N([H])C([H])([H])[H])C([H])([H])[H])C(C([H])([H])[H])(C([H])([H])[H])C([H])([H])[H])C([H])([H])c2c([H])c(OC([H])([H])C([H])([H])[N+]([H])([H])C3([H])C([H])([H])C(=O)C([H])([H])C([H])([N+]([H])([H])C([H])([H])C([H])([H])C([H])([H])[N+]([H])([H])C([H])([H])C([H])([H])C([H])([H])N([H])C(=O)N4C([H])([H])C([H])([H])C([H])([H])C([H])(n5nc(-c6c([H])c([H])c(Oc7c([H])c([H])c(F)c([H])c7F)c([H])c6[H])c(C(=O)N([H])[H])c5N([H])[H])C4([H])[H])C([H])([H])C([H])([H])C3([H])[H])c([H])c([H])c2C1([H])[H]

>  <smiles>  (38) 
[H]c1c([H])c([H])c2c(c1[H])C([H])([H])C([H])([H])C([H])([H])C2([H])N([H])C(=O)C1([H])N(C(=O)C([H])(N([H])C(=O)C([H])(N([H])C([H])([H])[H])C([H])([H])[H])C(C([H])([H])[H])(C([H])([H])[H])C([H])([H])[H])C([H])([H])c2c([H])c(OC([H])([H])C([H])([H])[N+]([H])([H])C3([H])C([H])([H])C(=O)C([H])([H])C([H])([N+]([H])([H])C([H])([H])C([H])([H])C([H])([H])[N+]([H])([H])C([H])([H])C([H])([H])C([H])([H])N([H])C(=O)N4C([H])([H])C([H])([H])C([H])([H])C([H])(n5nc(-c6c([H])c([H])c(Oc7c([H])c([H])c(F)c([H])c7F)c([H])c6[H])c(C(=O)N([H])[H])c5N([H])[H])C4([H])[H])C([H])([H])C([H])([H])C3([H])[H])c([H])c([H])c2C1([H])[H]

$$$$
38:0:0
     RDKit          3D

 92100  0  0  1  0  0  0  0  0999 V2000
  -29.7470  -20.2720   20.1900 C   0  0  0  0  0  0  0  0  0  0  0  0
  -29.8300  -21.6190   20.3850 N   0  0  0  0  0  0  0  0  0  0  0  0
  -28.6680  -19.7200   19.9700 O   0  0  0  0  0  0  0  0  0  0  0  0
  -30.7510  -21.9770   20.6010 H   0  0  0  0  0  0  0  0  0  0  0  0
  -33.6290  -18.2450   20.3520 C   0  0  0  0  0  3  0  0  0  0  0  0
  -33.5090  -19.5830   19.9630 C   0  0  0  0  0  3  0  0  0  0  0  0
  -32.4770  -17.5020   20.6520 C   0  0  0  0  0  3  0  0  0  0  0  0
  -32.2390  -20.1790   19.9140 C   0  0  0  0  0  3  0  0  0  0  0  0
  -31.1760  -18.0550   20.5750 C   0  0  0  0  0  0  0  0  0  0  0  0
  -31.0530  -19.4690   20.2490 C   0  0  0  0  0  0  0  0  0  0  0  0
  -30.0400  -17.1240   20.8890 C   0  0  0  0  0  3  0  0  0  0  0  0
  -29.8160  -15.7700   20.8050 C   0  0  0  0  0  3  0  0  0  0  0  0
  -30.6220  -14.6480   20.2430 C   0  0  0  0  0  0  0  0  0  0  0  0
  -30.3150  -12.4910   19.0450 C   0  0  0  0  0  2  0  0  0  0  0  0
  -29.3200  -12.7190   17.8840 C   0  0  0  0  0  2  0  0  0  0  0  0
  -27.8600  -12.5720   18.3630 C   0  0  0  0  0  2  0  0  0  0  0  0
  -27.5810  -13.3540   19.6730 C   0  0  0  0  0  3  0  0  0  0  0  0
  -28.6800  -13.0650   20.7220 C   0  0  0  0  0  2  0  0  0  0  0  0
  -29.9740  -13.4420   20.1240 N   0  0  0  0  0  0  0  0  0  0  0  0
  -31.7430  -14.7870   19.7490 O   0  0  0  0  0  0  0  0  0  0  0  0
  -25.2150  -13.9660   20.4750 C   0  0  0  0  0  0  0  0  0  0  0  0
  -24.1530  -13.1950   20.8660 C   0  0  0  0  0  0  0  0  0  0  0  0
  -24.6020  -11.8410   20.7930 C   0  0  0  0  0  0  0  0  0  0  0  0
  -26.2440  -13.0810   20.1930 N   0  0  0  0  0  0  0  0  0  0  0  0
  -25.8800  -11.7960   20.4400 N   0  0  0  0  0  0  0  0  0  0  0  0
  -23.8730  -10.5810   20.9850 C   0  0  0  0  0  0  0  0  0  0  0  0
  -24.3070   -9.6120   21.9160 C   0  0  0  0  0  3  0  0  0  0  0  0
  -23.5790   -8.4150   22.0940 C   0  0  0  0  0  3  0  0  0  0  0  0
  -22.4040   -8.1810   21.3420 C   0  0  0  0  0  0  0  0  0  0  0  0
  -21.9910   -9.1380   20.4000 C   0  0  0  0  0  3  0  0  0  0  0  0
  -22.7180  -10.3270   20.2200 C   0  0  0  0  0  3  0  0  0  0  0  0
  -21.6470   -7.0370   21.4310 O   0  0  0  0  0  0  0  0  0  0  0  0
  -21.5640   -6.3180   22.5960 C   0  0  0  0  0  0  0  0  0  0  0  0
  -21.0890   -6.8930   23.7950 C   0  0  0  0  0  3  0  0  0  0  0  0
  -20.9530   -6.0990   24.9510 C   0  0  0  0  0  3  0  0  0  0  0  0
  -21.2830   -4.7320   24.9100 C   0  0  0  0  0  0  0  0  0  0  0  0
  -21.7510   -4.1560   23.7150 C   0  0  0  0  0  3  0  0  0  0  0  0
  -21.8890   -4.9470   22.5610 C   0  0  0  0  0  0  0  0  0  0  0  0
  -22.3200   -4.3820   21.4070 F   0  0  0  0  0  0  0  0  0  0  0  0
  -21.1470   -3.9670   26.0180 F   0  0  0  0  0  0  0  0  0  0  0  0
  -22.7710  -13.6770   21.1970 C   0  0  0  0  0  0  0  0  0  0  0  0
  -22.0680  -12.9680   22.0740 N   0  0  0  0  0  0  0  0  0  0  0  0
  -22.3230  -14.7160   20.7150 O   0  0  0  0  0  0  0  0  0  0  0  0
  -22.4430  -12.1260   22.4860 H   0  0  0  0  0  0  0  0  0  0  0  0
  -21.1420  -13.2710   22.3390 H   0  0  0  0  0  0  0  0  0  0  0  0
  -25.3850  -15.3390   20.3180 N   0  0  0  0  0  0  0  0  0  0  0  0
  -24.6290  -15.9990   20.4650 H   0  0  0  0  0  0  0  0  0  0  0  0
  -26.2290  -15.7770   19.9710 H   0  0  0  0  0  0  0  0  0  0  0  0
  -28.7310  -22.6170   20.2720 C   0  0  0  0  0  2  0  0  0  0  0  0
  -29.1530  -24.1380   20.3510 C   0  0  0  0  0  2  0  0  0  0  0  0
  -27.9870  -25.1520   20.0570 C   0  0  0  0  0  2  0  0  0  0  0  0
  -28.2180  -26.5900   20.2290 O   0  0  0  0  0  0  0  0  0  0  0  0
  -24.5530  -31.9790   23.2700 C   0  0  0  0  0  0  0  0  0  0  0  0
  -27.0890  -27.4180   20.1920 C   0  0  0  0  0  0  0  0  0  0  0  0
  -23.3120  -30.5830   21.6560 C   0  0  0  0  0  3  0  0  0  0  0  0
  -24.7270  -29.0200   20.2200 C   0  0  0  0  0  0  0  0  0  0  0  0
  -25.8490  -30.8890   21.4300 C   0  0  0  0  0  2  0  0  0  0  0  0
  -25.9080  -29.5110   20.7920 C   0  0  0  0  0  0  0  0  0  0  0  0
  -27.0930  -28.7210   20.7690 C   0  0  0  0  0  3  0  0  0  0  0  0
  -25.8820  -26.9760   19.5980 C   0  0  0  0  0  3  0  0  0  0  0  0
  -24.7130  -27.7550   19.6190 C   0  0  0  0  0  3  0  0  0  0  0  0
  -23.4980  -29.9000   20.2770 C   0  0  0  0  0  2  0  0  0  0  0  0
  -24.5910  -31.1660   22.1760 N   0  0  0  0  0  0  0  0  0  0  0  0
  -23.4810  -32.2680   23.8200 O   0  0  0  0  0  0  0  0  0  0  0  0
  -22.6570  -29.5740   22.6300 C   0  0  0  0  0  0  0  0  0  0  0  0
  -21.3360  -29.3760   22.4930 N   0  0  0  0  0  0  0  0  0  0  0  0
  -23.3370  -28.9720   23.4650 O   0  0  0  0  0  0  0  0  0  0  0  0
  -20.8460  -29.9160   21.7940 H   0  0  0  0  0  0  0  0  0  0  0  0
  -17.9760  -28.1240   22.9630 C   0  0  0  0  0  0  0  0  0  0  0  0
  -20.5220  -28.4460   23.2760 C   0  0  0  0  0  3  0  0  0  0  0  0
  -20.6640  -26.9980   22.7510 C   0  0  0  0  0  2  0  0  0  0  0  0
  -19.5900  -26.6210   21.7260 C   0  0  0  0  0  2  0  0  0  0  0  0
  -18.1920  -26.7570   22.3360 C   0  0  0  0  0  2  0  0  0  0  0  0
  -19.0690  -28.9230   23.3900 C   0  0  0  0  0  0  0  0  0  0  0  0
  -18.8130  -30.2000   23.9350 C   0  0  0  0  0  3  0  0  0  0  0  0
  -17.4950  -30.6800   24.0560 C   0  0  0  0  0  3  0  0  0  0  0  0
  -16.4150  -29.8790   23.6440 C   0  0  0  0  0  3  0  0  0  0  0  0
  -16.6570  -28.6030   23.1040 C   0  0  0  0  0  3  0  0  0  0  0  0
  -25.8520  -32.6020   23.8680 C   0  0  0  0  0  3  0  0  0  0  0  0
  -25.5550  -34.0010   24.2060 N   0  0  0  0  0  0  0  0  0  0  0  0
  -25.8670  -35.0530   23.4380 C   0  0  0  0  0  0  0  0  0  0  0  0
  -26.5060  -34.9470   22.3870 O   0  0  0  0  0  0  0  0  0  0  0  0
  -24.9850  -34.1560   25.0250 H   0  0  0  0  0  0  0  0  0  0  0  0
  -24.1270  -36.8450   23.1400 C   0  0  0  0  0  1  0  0  0  0  0  0
  -25.3960  -36.4420   23.9080 C   0  0  0  0  0  3  0  0  0  0  0  0
  -27.5570  -37.3300   24.6630 C   0  0  0  0  0  1  0  0  0  0  0  0
  -26.4240  -37.4930   23.7550 N   0  0  0  0  0  0  0  0  0  0  0  0
  -26.0240  -38.4150   23.9140 H   0  0  0  0  0  0  0  0  0  0  0  0
  -26.3870  -31.8250   25.1330 C   0  0  1  0  0  0  0  0  0  0  0  0
  -25.3090  -31.5790   26.2140 C   0  0  0  0  0  1  0  0  0  0  0  0
  -26.9690  -30.4520   24.7260 C   0  0  0  0  0  1  0  0  0  0  0  0
  -27.5440  -32.6200   25.7830 C   0  0  0  0  0  1  0  0  0  0  0  0
  1 10  1  0
  1  2  1  0
  2  4  1  0
  3  1  2  0
  5  7  1  0
  6  5  2  0
  8  6  1  0
  8 10  2  0
  9  7  2  0
  9 11  1  0
 10  9  1  0
 12 11  2  0
 13 12  1  0
 14 19  1  0
 15 16  1  0
 15 14  1  0
 17 16  1  0
 17 24  1  0
 17 18  1  0
 19 13  1  0
 19 18  1  0
 20 13  2  0
 21 22  2  0
 22 41  1  0
 23 22  1  0
 23 26  1  0
 24 25  1  0
 24 21  1  0
 25 23  2  0
 26 27  1  0
 27 28  2  0
 29 32  1  0
 29 28  1  0
 30 29  2  0
 31 30  1  0
 31 26  2  0
 32 33  1  0
 33 34  1  0
 34 35  2  0
 36 35  1  0
 36 40  1  0
 37 36  2  0
 38 33  2  0
 38 37  1  0
 39 38  1  0
 41 42  1  0
 42 45  1  0
 42 44  1  0
 43 41  2  0
 46 47  1  0
 46 21  1  0
 48 46  1  0
 49 50  1  0
 49  2  1  0
 51 52  1  0
 51 50  1  0
 53 64  2  0
 54 52  1  0
 54 59  1  0
 55 63  1  0
 55 65  1  0
 56 62  1  0
 56 58  1  0
 57 63  1  0
 58 57  1  0
 59 58  2  0
 60 61  1  0
 60 54  2  0
 61 56  2  0
 62 55  1  0
 63 53  1  0
 65 67  2  0
 66 65  1  0
 68 66  1  0
 69 78  2  0
 69 74  1  0
 70 66  1  0
 70 74  1  0
 71 70  1  0
 72 73  1  0
 72 71  1  0
 73 69  1  0
 74 75  2  0
 75 76  1  0
 77 76  2  0
 78 77  1  0
 79 53  1  0
 79 80  1  0
 79 89  1  0
 80 83  1  0
 81 85  1  0
 81 80  1  0
 82 81  2  0
 85 84  1  0
 87 85  1  0
 87 88  1  0
 87 86  1  0
 89 92  1  1
 89 90  1  0
 91 89  1  0
M  ISO  4  12 100  13 100  51 101  52 101
M  END
>  <TORSDO>  (39) 
F 21

>  <SCORE>  (39) 
-13.386

>  <name>  (39) 
38

>  <ligand_id>  (39) 
38

>  <original_smiles>  (39) 
[H]C(C(=O)N1C([H])([H])C([H])([H])C([H])([H])C([H])(n2nc(-c3c([H])c([H])c(Oc4c([H])c([H])c(F)c([H])c4F)c([H])c3[H])c(C(=O)N([H])[H])c2N([H])[H])C1([H])[H])=C([H])c1c([H])c([H])c([H])c([H])c1C(=O)N([H])C([H])([H])C([H])([H])C([H])([H])Oc1c([H])c([H])c2c(c1[H])C([H])([H])N(C(=O)C([H])(N([H])C(=O)C([H])(N([H])C([H])([H])[H])C([H])([H])[H])C(C([H])([H])[H])(C([H])([H])[H])C([H])([H])[H])C([H])(C(=O)N([H])C1([H])c3c([H])c([H])c([H])c([H])c3C([H])([H])C([H])([H])C1([H])[H])C2([H])[H]

>  <smiles>  (39) 
[H]C(C(=O)N1C([H])([H])C([H])([H])C([H])([H])C([H])(n2nc(-c3c([H])c([H])c(Oc4c([H])c([H])c(F)c([H])c4F)c([H])c3[H])c(C(=O)N([H])[H])c2N([H])[H])C1([H])[H])=C([H])c1c([H])c([H])c([H])c([H])c1C(=O)N([H])C([H])([H])C([H])([H])C([H])([H])Oc1c([H])c([H])c2c(c1[H])C([H])([H])N(C(=O)C([H])(N([H])C(=O)C([H])(N([H])C([H])([H])[H])C([H])([H])[H])C(C([H])([H])[H])(C([H])([H])[H])C([H])([H])[H])C([H])(C(=O)N([H])C1([H])c3c([H])c([H])c([H])c([H])c3C([H])([H])C([H])([H])C1([H])[H])C2([H])[H]

$$$$
39:0:0
     RDKit          3D

 99106  0  0  1  0  0  0  0  0999 V2000
  -32.1030  -11.3020   20.5670 C   0  0  0  0  0  2  0  0  0  0  0  0
  -32.3290  -12.8920   19.7160 C   0  0  0  0  0  2  0  0  0  0  0  0
  -31.7370  -13.6320   18.1640 C   0  0  0  0  0  2  0  0  0  0  0  0
  -32.4370  -13.9040   16.5040 C   0  0  0  0  0  3  0  0  0  0  0  0
  -33.4440  -12.8400   16.3100 N   0  0  0  0  0  4  0  0  0  0  0  0
  -34.2560  -12.9980   16.8800 H   0  0  0  0  0  0  0  0  0  0  0  0
  -33.7350  -12.8050   15.3480 H   0  0  0  0  0  0  0  0  0  0  0  0
  -33.0600  -11.9410   16.5460 H   0  0  0  0  0  0  0  0  0  0  0  0
  -33.1010  -15.3680   15.6630 C   0  0  0  0  0  2  0  0  0  0  0  0
  -34.5530  -16.1460   15.3750 O   0  0  0  0  0  0  0  0  0  0  0  0
  -40.4120  -15.9520   19.7010 C   0  0  0  0  0  0  0  0  0  0  0  0
  -35.9080  -15.6310   15.5420 C   0  0  0  0  0  0  0  0  0  0  0  0
  -40.6520  -16.4050   17.2990 C   0  0  0  0  0  3  0  0  0  0  0  0
  -38.7810  -15.5540   15.7620 C   0  0  0  0  0  0  0  0  0  0  0  0
  -38.8670  -14.7370   18.1030 C   0  0  0  0  0  2  0  0  0  0  0  0
  -38.0310  -15.0990   16.8520 C   0  0  0  0  0  0  0  0  0  0  0  0
  -36.5820  -15.1070   16.7410 C   0  0  0  0  0  3  0  0  0  0  0  0
  -36.7470  -15.8040   14.4370 C   0  0  0  0  0  3  0  0  0  0  0  0
  -38.1440  -15.8270   14.5490 C   0  0  0  0  0  3  0  0  0  0  0  0
  -40.2740  -15.7740   15.9320 C   0  0  0  0  0  2  0  0  0  0  0  0
  -39.9720  -15.7000   18.4310 N   0  0  0  0  0  0  0  0  0  0  0  0
  -41.3420  -16.7430   19.9220 O   0  0  0  0  0  0  0  0  0  0  0  0
  -40.3620  -17.9300   17.2800 C   0  0  0  0  0  0  0  0  0  0  0  0
  -41.1050  -18.6880   16.4520 N   0  0  0  0  0  0  0  0  0  0  0  0
  -39.4750  -18.4070   17.9930 O   0  0  0  0  0  0  0  0  0  0  0  0
  -41.8230  -18.2320   15.9070 H   0  0  0  0  0  0  0  0  0  0  0  0
  -42.4780  -21.5540   14.7110 C   0  0  0  0  0  0  0  0  0  0  0  0
  -40.9700  -20.1360   16.2630 C   0  0  0  0  0  3  0  0  0  0  0  0
  -39.8250  -20.4640   15.2760 C   0  0  0  0  0  2  0  0  0  0  0  0
  -40.3020  -20.6110   13.8260 C   0  0  0  0  0  2  0  0  0  0  0  0
  -41.3430  -21.7280   13.7140 C   0  0  0  0  0  2  0  0  0  0  0  0
  -42.3070  -20.7950   15.9000 C   0  0  0  0  0  0  0  0  0  0  0  0
  -43.4030  -20.6410   16.7760 C   0  0  0  0  0  3  0  0  0  0  0  0
  -44.6480  -21.2290   16.4820 C   0  0  0  0  0  3  0  0  0  0  0  0
  -44.8080  -21.9890   15.3110 C   0  0  0  0  0  3  0  0  0  0  0  0
  -43.7230  -22.1550   14.4320 C   0  0  0  0  0  3  0  0  0  0  0  0
  -39.7820  -15.2420   20.9360 C   0  0  0  0  0  3  0  0  0  0  0  0
  -39.0150  -16.2340   21.8940 C   0  0  1  0  0  0  0  0  0  0  0  0
  -39.9340  -16.9580   22.9070 C   0  0  0  0  0  1  0  0  0  0  0  0
  -38.2670  -17.3200   21.0870 C   0  0  0  0  0  1  0  0  0  0  0  0
  -37.9370  -15.4620   22.6930 C   0  0  0  0  0  1  0  0  0  0  0  0
  -40.8690  -14.5690   21.6660 N   0  0  0  0  0  0  0  0  0  0  0  0
  -41.2030  -13.2790   21.5280 C   0  0  0  0  0  0  0  0  0  0  0  0
  -40.5750  -12.5020   20.8040 O   0  0  0  0  0  0  0  0  0  0  0  0
  -41.4610  -15.1570   22.2340 H   0  0  0  0  0  0  0  0  0  0  0  0
  -43.6440  -12.6730   21.3830 C   0  0  0  0  0  1  0  0  0  0  0  0
  -42.4270  -12.7670   22.3170 C   0  0  0  0  0  3  0  0  0  0  0  0
  -41.2970  -11.5330   24.1160 C   0  0  0  0  0  1  0  0  0  0  0  0
  -42.2010  -11.4590   22.9710 N   0  0  0  0  0  0  0  0  0  0  0  0
  -43.0800  -11.0580   23.2870 H   0  0  0  0  0  0  0  0  0  0  0  0
  -31.3170  -10.7520   22.1110 C   0  0  0  0  0  2  0  0  0  0  0  0
  -30.3290   -9.3030   22.6580 C   0  0  0  0  0  2  0  0  0  0  0  0
  -31.5280   -6.4480   23.1330 C   0  0  0  0  0  0  0  0  0  0  0  0
  -30.5760   -7.6430   23.0760 N   0  0  0  0  0  0  0  0  0  0  0  0
  -31.0800   -5.5040   23.7770 O   0  0  0  0  0  0  0  0  0  0  0  0
  -29.7520   -7.3530   23.5900 H   0  0  0  0  0  0  0  0  0  0  0  0
  -33.1540   -6.0690   22.3280 C   0  0  0  0  0  3  0  0  0  0  0  0
  -34.1160   -6.6000   20.7410 C   0  0  0  0  0  3  0  0  0  0  0  0
  -35.6720   -6.3330   19.8300 C   0  0  0  0  0  2  0  0  0  0  0  0
  -37.4340   -6.2320   20.1070 C   0  0  0  0  0  3  0  0  0  0  0  0
  -38.9980   -6.3050   19.2060 C   0  0  0  0  0  3  0  0  0  0  0  0
  -41.9710   -6.8460   19.8270 C   0  0  0  0  0  0  0  0  0  0  0  0
  -42.0570   -8.1480   21.8280 C   0  0  0  0  0  2  0  0  0  0  0  0
  -40.5990   -7.9100   22.2610 C   0  0  0  0  0  2  0  0  0  0  0  0
  -39.7430   -8.9930   21.5640 C   0  0  0  0  0  2  0  0  0  0  0  0
  -40.0620   -9.1230   20.0420 C   0  0  0  0  0  3  0  0  0  0  0  0
  -41.5110   -9.2420   19.6970 C   0  0  0  0  0  2  0  0  0  0  0  0
  -42.0390   -8.0790   20.3640 N   0  0  0  0  0  0  0  0  0  0  0  0
  -43.0510   -6.2200   19.9460 O   0  0  0  0  0  0  0  0  0  0  0  0
  -40.6510   -6.2240   19.5610 N   0  0  0  0  0  0  0  0  0  0  0  0
  -40.8910   -5.2480   19.4450 H   0  0  0  0  0  0  0  0  0  0  0  0
  -37.8440  -10.0700   19.2950 C   0  0  0  0  0  0  0  0  0  0  0  0
  -37.5440  -10.9140   18.3210 C   0  0  0  0  0  0  0  0  0  0  0  0
  -38.8300  -10.8580   17.4480 C   0  0  0  0  0  0  0  0  0  0  0  0
  -39.1790   -9.7370   19.1470 N   0  0  0  0  0  0  0  0  0  0  0  0
  -39.7310  -10.1200   18.0300 N   0  0  0  0  0  0  0  0  0  0  0  0
  -39.5620  -11.4040   16.1900 C   0  0  0  0  0  0  0  0  0  0  0  0
  -38.8150  -11.9160   15.0910 C   0  0  0  0  0  3  0  0  0  0  0  0
  -39.4430  -12.5290   13.9710 C   0  0  0  0  0  3  0  0  0  0  0  0
  -40.8470  -12.7030   13.9470 C   0  0  0  0  0  0  0  0  0  0  0  0
  -41.6000  -12.1270   14.9470 C   0  0  0  0  0  3  0  0  0  0  0  0
  -40.9680  -11.3830   15.9270 C   0  0  0  0  0  3  0  0  0  0  0  0
  -41.6010  -13.3160   12.9860 O   0  0  0  0  0  0  0  0  0  0  0  0
  -41.9640  -14.6210   13.0980 C   0  0  0  0  0  0  0  0  0  0  0  0
  -43.1480  -15.0030   13.7590 C   0  0  0  0  0  3  0  0  0  0  0  0
  -43.5110  -16.3610   13.7990 C   0  0  0  0  0  3  0  0  0  0  0  0
  -42.6980  -17.3240   13.1730 C   0  0  0  0  0  0  0  0  0  0  0  0
  -41.5230  -16.9360   12.5030 C   0  0  0  0  0  3  0  0  0  0  0  0
  -41.1580  -15.5820   12.4620 C   0  0  0  0  0  0  0  0  0  0  0  0
  -40.0400  -15.1980   11.7990 F   0  0  0  0  0  0  0  0  0  0  0  0
  -43.0470  -18.6290   13.2120 F   0  0  0  0  0  0  0  0  0  0  0  0
  -36.1880  -11.8110   18.6210 C   0  0  0  0  0  0  0  0  0  0  0  0
  -35.9340  -12.9450   19.2870 N   0  0  0  0  0  0  0  0  0  0  0  0
  -35.0930  -11.5440   18.2690 O   0  0  0  0  0  0  0  0  0  0  0  0
  -36.7080  -13.5770   19.4510 H   0  0  0  0  0  0  0  0  0  0  0  0
  -34.9840  -13.2760   19.3290 H   0  0  0  0  0  0  0  0  0  0  0  0
  -37.0300   -9.6890   20.3440 N   0  0  0  0  0  0  0  0  0  0  0  0
  -36.1690  -10.1950   20.5160 H   0  0  0  0  0  0  0  0  0  0  0  0
  -37.3820   -9.2020   21.1570 H   0  0  0  0  0  0  0  0  0  0  0  0
  1 51  1  0
  2  1  1  0
  3  2  1  0
  4  9  1  0
  4  3  1  0
  5  4  1  0
  5  8  1  0
  5  6  1  0
  7  5  1  0
 10 12  1  0
 10  9  1  0
 11 22  2  0
 12 17  1  0
 13 23  1  0
 13 21  1  0
 14 20  1  0
 14 16  1  0
 15 21  1  0
 16 15  1  0
 17 16  2  0
 18 19  1  0
 18 12  2  0
 19 14  2  0
 20 13  1  0
 21 11  1  0
 23 25  2  0
 24 23  1  0
 26 24  1  0
 27 32  1  0
 28 24  1  0
 29 28  1  0
 30 29  1  0
 31 30  1  0
 31 27  1  0
 32 28  1  0
 32 33  2  0
 34 33  1  0
 35 34  2  0
 36 27  2  0
 36 35  1  0
 37 11  1  0
 37 42  1  0
 37 38  1  0
 38 41  1  1
 38 39  1  0
 40 38  1  0
 42 45  1  0
 43 42  1  0
 43 47  1  0
 44 43  2  0
 47 46  1  0
 47 49  1  0
 49 50  1  0
 49 48  1  0
 51 52  1  0
 52 54  1  0
 53 55  2  0
 54 53  1  0
 54 56  1  0
 57 53  1  0
 58 57  2  0
 59 60  1  0
 59 58  1  0
 61 70  1  0
 61 60  2  0
 62 69  2  0
 62 68  1  0
 63 64  1  0
 65 64  1  0
 66 75  1  0
 66 65  1  0
 67 66  1  0
 67 68  1  0
 68 63  1  0
 70 62  1  0
 71 70  1  0
 72 97  1  0
 73 92  1  0
 73 72  2  0
 74 76  2  0
 74 73  1  0
 75 72  1  0
 76 75  1  0
 77 74  1  0
 78 77  2  0
 79 78  1  0
 80 79  2  0
 80 81  1  0
 81 82  2  0
 82 77  1  0
 83 84  1  0
 83 80  1  0
 84 85  1  0
 85 86  2  0
 87 91  1  0
 87 86  1  0
 88 87  2  0
 89 88  1  0
 89 84  2  0
 90 89  1  0
 92 93  1  0
 93 96  1  0
 93 95  1  0
 94 92  2  0
 97 98  1  0
 97 99  1  0
M  ISO  4   9 101  10 101  62 100  70 100
M  END
>  <TORSDO>  (40) 
F 29

>  <SCORE>  (40) 
-2.676

>  <name>  (40) 
39

>  <ligand_id>  (40) 
39

>  <original_smiles>  (40) 
[H]c1c([H])c([H])c2c(c1[H])C([H])([H])C([H])([H])C([H])([H])C2([H])N([H])C(=O)C1([H])N(C(=O)C([H])(N([H])C(=O)C([H])(N([H])C([H])([H])[H])C([H])([H])[H])C(C([H])([H])[H])(C([H])([H])[H])C([H])([H])[H])C([H])([H])c2c([H])c(OC([H])([H])C([H])(C([H])([H])C([H])([H])C([H])([H])C([H])([H])C([H])([H])N([H])C(=O)C([H])([H])C([H])([H])C([H])([H])C([H])([H])C([H])([H])N([H])C(=O)N3C([H])([H])C([H])([H])C([H])([H])C([H])(n4nc(-c5c([H])c([H])c(Oc6c([H])c([H])c(F)c([H])c6F)c([H])c5[H])c(C(=O)N([H])[H])c4N([H])[H])C3([H])[H])[N+]([H])([H])[H])c([H])c([H])c2C1([H])[H]

>  <smiles>  (40) 
[H]c1c([H])c([H])c2c(c1[H])C([H])([H])C([H])([H])C([H])([H])C2([H])N([H])C(=O)C1([H])N(C(=O)C([H])(N([H])C(=O)C([H])(N([H])C([H])([H])[H])C([H])([H])[H])C(C([H])([H])[H])(C([H])([H])[H])C([H])([H])[H])C([H])([H])c2c([H])c(OC([H])([H])C([H])(C([H])([H])C([H])([H])C([H])([H])C([H])([H])C([H])([H])N([H])C(=O)C([H])([H])C([H])([H])C([H])([H])C([H])([H])C([H])([H])N([H])C(=O)N3C([H])([H])C([H])([H])C([H])([H])C([H])(n4nc(-c5c([H])c([H])c(Oc6c([H])c([H])c(F)c([H])c6F)c([H])c5[H])c(C(=O)N([H])[H])c4N([H])[H])C3([H])[H])[N+]([H])([H])[H])c([H])c([H])c2C1([H])[H]

$$$$
40:0:0
     RDKit          3D

 98106  0  0  1  0  0  0  0  0999 V2000
  -28.5490  -22.7530   19.5290 C   0  0  0  0  0  3  0  0  0  0  0  0
  -26.4410  -23.9530   19.4040 C   0  0  0  0  0  3  0  0  0  0  0  0
  -26.5010  -21.5660   18.9360 C   0  0  0  0  0  3  0  0  0  0  0  0
  -27.8450  -24.0000   19.5870 C   0  0  0  0  0  0  0  0  0  0  0  0
  -27.8930  -21.5210   19.1990 C   0  0  0  0  0  0  0  0  0  0  0  0
  -25.7800  -22.7620   19.0500 C   0  0  0  0  0  0  0  0  0  0  0  0
  -24.4130  -22.7720   18.7640 N   0  0  0  0  0  0  0  0  0  0  0  0
  -24.0010  -23.6780   18.5610 H   0  0  0  0  0  0  0  0  0  0  0  0
  -24.0780  -22.0760   18.1060 H   0  0  0  0  0  0  0  0  0  0  0  0
  -27.9990  -19.1710   18.0820 C   0  0  0  0  0  1  0  0  0  0  0  0
  -28.6040  -20.1390   19.1390 C   0  0  0  0  0  3  0  0  0  0  0  0
  -30.0870  -20.2660   18.9930 N   0  0  0  0  0  4  0  0  0  0  0  0
  -30.2150  -20.9200   18.2390 H   0  0  0  0  0  0  0  0  0  0  0  0
  -30.4740  -20.6900   19.8200 H   0  0  0  0  0  0  0  0  0  0  0  0
  -30.9170  -19.0700   18.6460 C   0  0  0  0  0  2  0  0  0  0  0  0
  -31.4290  -18.2140   19.8370 C   0  0  0  0  0  3  0  0  0  0  0  0
  -30.3530  -17.7670   20.8460 C   0  0  0  0  0  3  0  0  0  0  0  0
  -30.7860  -16.6660   21.8290 C   0  0  0  0  0  2  0  0  0  0  0  0
  -30.8300  -14.5470   20.5060 C   0  0  0  0  0  0  0  0  0  0  0  0
  -30.4830  -12.4710   19.2180 C   0  0  0  0  0  2  0  0  0  0  0  0
  -29.5180  -12.7210   18.0490 C   0  0  0  0  0  2  0  0  0  0  0  0
  -28.0490  -12.5930   18.5070 C   0  0  0  0  0  2  0  0  0  0  0  0
  -27.7430  -13.3740   19.8050 C   0  0  0  0  0  3  0  0  0  0  0  0
  -28.8120  -13.0740   20.8760 C   0  0  0  0  0  2  0  0  0  0  0  0
  -30.1330  -13.3980   20.3020 N   0  0  0  0  0  0  0  0  0  0  0  0
  -31.8680  -14.8340   19.9010 O   0  0  0  0  0  0  0  0  0  0  0  0
  -30.2890  -15.3610   21.4140 N   0  0  0  0  0  0  0  0  0  0  0  0
  -29.4320  -15.0370   21.8350 H   0  0  0  0  0  0  0  0  0  0  0  0
  -25.3450  -13.9600   20.5470 C   0  0  0  0  0  0  0  0  0  0  0  0
  -24.2840  -13.1770   20.9150 C   0  0  0  0  0  0  0  0  0  0  0  0
  -24.7530  -11.8300   20.8620 C   0  0  0  0  0  0  0  0  0  0  0  0
  -26.3920  -13.0880   20.2940 N   0  0  0  0  0  0  0  0  0  0  0  0
  -26.0360  -11.7980   20.5300 N   0  0  0  0  0  0  0  0  0  0  0  0
  -24.0380  -10.5580   21.0440 C   0  0  0  0  0  0  0  0  0  0  0  0
  -24.4730   -9.5960   21.9840 C   0  0  0  0  0  3  0  0  0  0  0  0
  -23.7580   -8.3920   22.1580 C   0  0  0  0  0  3  0  0  0  0  0  0
  -22.5930   -8.1420   21.3930 C   0  0  0  0  0  0  0  0  0  0  0  0
  -22.1830   -9.0900   20.4390 C   0  0  0  0  0  3  0  0  0  0  0  0
  -22.8990  -10.2850   20.2600 C   0  0  0  0  0  3  0  0  0  0  0  0
  -21.8550   -6.9860   21.4650 O   0  0  0  0  0  0  0  0  0  0  0  0
  -21.7900   -6.2520   22.6200 C   0  0  0  0  0  0  0  0  0  0  0  0
  -21.2860   -6.7970   23.8230 C   0  0  0  0  0  3  0  0  0  0  0  0
  -21.1720   -5.9880   24.9690 C   0  0  0  0  0  3  0  0  0  0  0  0
  -21.5470   -4.6330   24.9160 C   0  0  0  0  0  0  0  0  0  0  0  0
  -22.0460   -4.0890   23.7210 C   0  0  0  0  0  3  0  0  0  0  0  0
  -22.1610   -4.8950   22.5740 C   0  0  0  0  0  0  0  0  0  0  0  0
  -22.6220   -4.3560   21.4220 F   0  0  0  0  0  0  0  0  0  0  0  0
  -21.4260   -3.8540   26.0190 F   0  0  0  0  0  0  0  0  0  0  0  0
  -22.8890  -13.6470   21.2110 C   0  0  0  0  0  0  0  0  0  0  0  0
  -22.1790  -12.9340   22.0750 N   0  0  0  0  0  0  0  0  0  0  0  0
  -22.4330  -14.6680   20.6970 O   0  0  0  0  0  0  0  0  0  0  0  0
  -22.5650  -12.1150   22.5180 H   0  0  0  0  0  0  0  0  0  0  0  0
  -21.2350  -13.2210   22.3040 H   0  0  0  0  0  0  0  0  0  0  0  0
  -25.5010  -15.3360   20.3960 N   0  0  0  0  0  0  0  0  0  0  0  0
  -24.7460  -15.9880   20.5800 H   0  0  0  0  0  0  0  0  0  0  0  0
  -26.3630  -15.7830   20.1050 H   0  0  0  0  0  0  0  0  0  0  0  0
  -28.6610  -25.3400   19.6860 C   0  0  0  0  0  2  0  0  0  0  0  0
  -28.3950  -26.6520   20.3060 O   0  0  0  0  0  0  0  0  0  0  0  0
  -24.5890  -31.9450   23.2650 C   0  0  0  0  0  0  0  0  0  0  0  0
  -27.2530  -27.4400   20.1890 C   0  0  0  0  0  0  0  0  0  0  0  0
  -23.4140  -30.5600   21.6000 C   0  0  0  0  0  3  0  0  0  0  0  0
  -24.8870  -29.0330   20.1760 C   0  0  0  0  0  0  0  0  0  0  0  0
  -25.9580  -30.8700   21.4770 C   0  0  0  0  0  2  0  0  0  0  0  0
  -26.0370  -29.5030   20.8220 C   0  0  0  0  0  0  0  0  0  0  0  0
  -27.2080  -28.7010   20.8500 C   0  0  0  0  0  3  0  0  0  0  0  0
  -26.1080  -27.0600   19.4510 C   0  0  0  0  0  3  0  0  0  0  0  0
  -24.9210  -27.8100   19.4910 C   0  0  0  0  0  3  0  0  0  0  0  0
  -23.6460  -29.8990   20.2180 C   0  0  0  0  0  2  0  0  0  0  0  0
  -24.6710  -31.1390   22.1710 N   0  0  0  0  0  0  0  0  0  0  0  0
  -23.4940  -32.2230   23.7760 O   0  0  0  0  0  0  0  0  0  0  0  0
  -22.7470  -29.5230   22.5310 C   0  0  0  0  0  0  0  0  0  0  0  0
  -21.4250  -29.3420   22.3740 N   0  0  0  0  0  0  0  0  0  0  0  0
  -23.4120  -28.8890   23.3540 O   0  0  0  0  0  0  0  0  0  0  0  0
  -20.9530  -29.8960   21.6740 H   0  0  0  0  0  0  0  0  0  0  0  0
  -18.0260  -28.2090   22.8360 C   0  0  0  0  0  0  0  0  0  0  0  0
  -20.5870  -28.4050   23.1200 C   0  0  0  0  0  3  0  0  0  0  0  0
  -20.6640  -26.9870   22.5060 C   0  0  0  0  0  2  0  0  0  0  0  0
  -19.5560  -26.7140   21.4840 C   0  0  0  0  0  2  0  0  0  0  0  0
  -18.1750  -26.8730   22.1290 C   0  0  0  0  0  2  0  0  0  0  0  0
  -19.1580  -28.9370   23.2860 C   0  0  0  0  0  0  0  0  0  0  0  0
  -18.9640  -30.1920   23.9020 C   0  0  0  0  0  3  0  0  0  0  0  0
  -17.6690  -30.7160   24.0740 C   0  0  0  0  0  3  0  0  0  0  0  0
  -16.5500  -29.9820   23.6410 C   0  0  0  0  0  3  0  0  0  0  0  0
  -16.7300  -28.7300   23.0280 C   0  0  0  0  0  3  0  0  0  0  0  0
  -25.8600  -32.5680   23.9160 C   0  0  0  0  0  3  0  0  0  0  0  0
  -25.5520  -33.9710   24.2190 N   0  0  0  0  0  0  0  0  0  0  0  0
  -25.9160  -35.0120   23.4560 C   0  0  0  0  0  0  0  0  0  0  0  0
  -26.6150  -34.8910   22.4460 O   0  0  0  0  0  0  0  0  0  0  0  0
  -24.9370  -34.1420   25.0010 H   0  0  0  0  0  0  0  0  0  0  0  0
  -24.2140  -36.8080   23.0310 C   0  0  0  0  0  1  0  0  0  0  0  0
  -25.4260  -36.4070   23.8860 C   0  0  0  0  0  3  0  0  0  0  0  0
  -27.5310  -37.2860   24.7900 C   0  0  0  0  0  1  0  0  0  0  0  0
  -26.4710  -37.4490   23.7970 N   0  0  0  0  0  0  0  0  0  0  0  0
  -26.0700  -38.3770   23.9120 H   0  0  0  0  0  0  0  0  0  0  0  0
  -26.3350  -31.8040   25.2120 C   0  0  1  0  0  0  0  0  0  0  0  0
  -25.2000  -31.5740   26.2380 C   0  0  0  0  0  1  0  0  0  0  0  0
  -26.9300  -30.4240   24.8450 C   0  0  0  0  0  1  0  0  0  0  0  0
  -27.4670  -32.6000   25.9030 C   0  0  0  0  0  1  0  0  0  0  0  0
  1  4  1  0
  2  4  2  0
  3  6  2  0
  3  5  1  0
  4 57  1  0
  5  1  2  0
  6  2  1  0
  7  6  1  0
  8  7  1  0
  9  7  1  0
 11 10  1  0
 11  5  1  0
 12 11  1  0
 12 14  1  0
 13 12  1  0
 15 12  1  0
 15 16  1  0
 16 17  2  0
 17 18  1  0
 19 27  1  0
 20 25  1  0
 21 22  1  0
 21 20  1  0
 23 22  1  0
 23 32  1  0
 23 24  1  0
 25 19  1  0
 25 24  1  0
 26 19  2  0
 27 18  1  0
 27 28  1  0
 29 30  2  0
 30 49  1  0
 31 30  1  0
 31 34  1  0
 32 33  1  0
 32 29  1  0
 33 31  2  0
 34 35  1  0
 35 36  2  0
 37 40  1  0
 37 36  1  0
 38 37  2  0
 39 38  1  0
 39 34  2  0
 40 41  1  0
 41 42  1  0
 42 43  2  0
 44 43  1  0
 44 48  1  0
 45 44  2  0
 46 41  2  0
 46 45  1  0
 47 46  1  0
 49 50  1  0
 50 53  1  0
 50 52  1  0
 51 49  2  0
 54 29  1  0
 54 55  1  0
 56 54  1  0
 57 58  1  0
 59 70  2  0
 60 58  1  0
 60 65  1  0
 61 69  1  0
 61 71  1  0
 62 68  1  0
 62 64  1  0
 63 69  1  0
 64 65  2  0
 64 63  1  0
 66 67  1  0
 66 60  2  0
 67 62  2  0
 68 61  1  0
 69 59  1  0
 71 73  2  0
 72 71  1  0
 74 72  1  0
 75 84  2  0
 75 80  1  0
 76 72  1  0
 76 80  1  0
 77 76  1  0
 78 79  1  0
 78 77  1  0
 79 75  1  0
 80 81  2  0
 81 82  1  0
 83 82  2  0
 84 83  1  0
 85 59  1  0
 85 86  1  0
 85 95  1  0
 86 89  1  0
 87 91  1  0
 87 86  1  0
 88 87  2  0
 91 90  1  0
 93 91  1  0
 93 94  1  0
 93 92  1  0
 95 98  1  1
 95 96  1  0
 97 95  1  0
M  ISO  4  19 100  27 100  57 101  58 101
M  END
>  <TORSDO>  (41) 
F 24

>  <SCORE>  (41) 
-13.033

>  <name>  (41) 
40

>  <ligand_id>  (41) 
40

>  <original_smiles>  (41) 
[H]c1c([H])c([H])c2c(c1[H])C([H])([H])C([H])([H])C([H])([H])C2([H])N([H])C(=O)C1([H])N(C(=O)C([H])(N([H])C(=O)C([H])(N([H])C([H])([H])[H])C([H])([H])[H])C(C([H])([H])[H])(C([H])([H])[H])C([H])([H])[H])C([H])([H])c2c([H])c(OC([H])([H])c3c([H])c(N([H])[H])c([H])c(C([H])(C([H])([H])[H])[N+]([H])([H])C([H])([H])C([H])([H])C([H])([H])C([H])([H])N([H])C(=O)N4C([H])([H])C([H])([H])C([H])([H])C([H])(n5nc(-c6c([H])c([H])c(Oc7c([H])c([H])c(F)c([H])c7F)c([H])c6[H])c(C(=O)N([H])[H])c5N([H])[H])C4([H])[H])c3[H])c([H])c([H])c2C1([H])[H]

>  <smiles>  (41) 
[H]c1c([H])c([H])c2c(c1[H])C([H])([H])C([H])([H])C([H])([H])C2([H])N([H])C(=O)C1([H])N(C(=O)C([H])(N([H])C(=O)C([H])(N([H])C([H])([H])[H])C([H])([H])[H])C(C([H])([H])[H])(C([H])([H])[H])C([H])([H])[H])C([H])([H])c2c([H])c(OC([H])([H])c3c([H])c(N([H])[H])c([H])c(C([H])(C([H])([H])[H])[N+]([H])([H])C([H])([H])C([H])([H])C([H])([H])C([H])([H])N([H])C(=O)N4C([H])([H])C([H])([H])C([H])([H])C([H])(n5nc(-c6c([H])c([H])c(Oc7c([H])c([H])c(F)c([H])c7F)c([H])c6[H])c(C(=O)N([H])[H])c5N([H])[H])C4([H])[H])c3[H])c([H])c([H])c2C1([H])[H]

$$$$
41:0:0
     RDKit          3D

105113  0  0  1  0  0  0  0  0999 V2000
  -31.6140  -27.4830   22.9650 C   0  0  0  0  0  2  0  0  0  0  0  0
  -31.0660  -26.6870   21.8550 N   0  0  0  0  0  4  0  0  0  0  0  0
  -30.1160  -26.9810   21.7060 H   0  0  0  0  0  0  0  0  0  0  0  0
  -31.6050  -26.9420   21.0410 H   0  0  0  0  0  0  0  0  0  0  0  0
  -31.0850  -25.2230   22.0510 C   0  0  0  0  0  2  0  0  0  0  0  0
  -30.5520  -24.4920   20.8050 C   0  0  0  0  0  2  0  0  0  0  0  0
  -31.0210  -23.0310   20.6920 C   0  0  0  0  0  2  0  0  0  0  0  0
  -30.5550  -22.3790   19.3740 C   0  0  0  0  0  2  0  0  0  0  0  0
  -31.4650  -21.3080   18.9210 N   0  0  0  0  0  4  0  0  0  0  0  0
  -32.3570  -21.7260   18.7060 H   0  0  0  0  0  0  0  0  0  0  0  0
  -31.6030  -20.6470   19.6680 H   0  0  0  0  0  0  0  0  0  0  0  0
  -30.9810  -20.5800   17.7270 C   0  0  0  0  0  2  0  0  0  0  0  0
  -32.1340  -20.0070   16.8830 C   0  0  0  0  0  2  0  0  0  0  0  0
  -32.7090  -21.0270   15.8820 C   0  0  0  0  0  2  0  0  0  0  0  0
  -34.0970  -20.6530   15.3390 C   0  0  0  0  0  2  0  0  0  0  0  0
  -33.6690  -18.6670   13.8950 C   0  0  0  0  0  0  0  0  0  0  0  0
  -33.9020  -16.7600   12.3510 C   0  0  0  0  0  2  0  0  0  0  0  0
  -32.7800  -15.7200   12.4990 C   0  0  0  0  0  2  0  0  0  0  0  0
  -33.1330  -14.6990   13.5950 C   0  0  0  0  0  2  0  0  0  0  0  0
  -33.5600  -15.3820   14.9200 C   0  0  0  0  0  3  0  0  0  0  0  0
  -34.6280  -16.4670   14.6640 C   0  0  0  0  0  2  0  0  0  0  0  0
  -34.1180  -17.4110   13.6510 N   0  0  0  0  0  0  0  0  0  0  0  0
  -32.9500  -19.3010   13.1180 O   0  0  0  0  0  0  0  0  0  0  0  0
  -34.2000  -19.2400   14.9830 N   0  0  0  0  0  0  0  0  0  0  0  0
  -34.8230  -18.6660   15.5310 H   0  0  0  0  0  0  0  0  0  0  0  0
  -33.5700  -14.1710   17.1940 C   0  0  0  0  0  0  0  0  0  0  0  0
  -34.2820  -13.0960   17.6530 C   0  0  0  0  0  0  0  0  0  0  0  0
  -35.1450  -12.7070   16.5830 C   0  0  0  0  0  0  0  0  0  0  0  0
  -34.0180  -14.3990   15.9010 N   0  0  0  0  0  0  0  0  0  0  0  0
  -35.0100  -13.5380   15.5570 N   0  0  0  0  0  0  0  0  0  0  0  0
  -36.0530  -11.5600   16.4550 C   0  0  0  0  0  0  0  0  0  0  0  0
  -37.4140  -11.7280   16.1230 C   0  0  0  0  0  3  0  0  0  0  0  0
  -38.2700  -10.6100   16.0220 C   0  0  0  0  0  3  0  0  0  0  0  0
  -37.7680   -9.3080   16.2580 C   0  0  0  0  0  0  0  0  0  0  0  0
  -36.4060   -9.1450   16.5660 C   0  0  0  0  0  3  0  0  0  0  0  0
  -35.5540  -10.2580   16.6620 C   0  0  0  0  0  3  0  0  0  0  0  0
  -38.5190   -8.1610   16.1590 O   0  0  0  0  0  0  0  0  0  0  0  0
  -39.8750   -8.1690   16.3660 C   0  0  0  0  0  0  0  0  0  0  0  0
  -40.4410   -8.6220   17.5770 C   0  0  0  0  0  3  0  0  0  0  0  0
  -41.8340   -8.5460   17.7740 C   0  0  0  0  0  3  0  0  0  0  0  0
  -42.6620   -8.0130   16.7670 C   0  0  0  0  0  0  0  0  0  0  0  0
  -42.0980   -7.5570   15.5620 C   0  0  0  0  0  3  0  0  0  0  0  0
  -40.7090   -7.6320   15.3640 C   0  0  0  0  0  0  0  0  0  0  0  0
  -40.1690   -7.1730   14.2090 F   0  0  0  0  0  0  0  0  0  0  0  0
  -43.9990   -7.9340   16.9600 F   0  0  0  0  0  0  0  0  0  0  0  0
  -34.1060  -12.4040   18.9750 C   0  0  0  0  0  0  0  0  0  0  0  0
  -35.1820  -11.8580   19.5290 N   0  0  0  0  0  0  0  0  0  0  0  0
  -33.0160  -12.3860   19.5470 O   0  0  0  0  0  0  0  0  0  0  0  0
  -36.0790  -11.8900   19.0690 H   0  0  0  0  0  0  0  0  0  0  0  0
  -35.1080  -11.4010   20.4270 H   0  0  0  0  0  0  0  0  0  0  0  0
  -32.5710  -14.9610   17.7560 N   0  0  0  0  0  0  0  0  0  0  0  0
  -32.1870  -14.7750   18.6770 H   0  0  0  0  0  0  0  0  0  0  0  0
  -32.1020  -15.7180   17.2760 H   0  0  0  0  0  0  0  0  0  0  0  0
  -31.9220  -28.9150   22.4920 C   0  0  0  0  0  2  0  0  0  0  0  0
  -32.8240  -28.9330   21.3370 N   0  0  0  0  0  0  0  0  0  0  0  0
  -33.6800  -29.4660   21.4730 H   0  0  0  0  0  0  0  0  0  0  0  0
  -32.6400  -29.5200   17.6780 C   0  0  0  0  0  3  0  0  0  0  0  0
  -31.4410  -28.8620   17.3410 C   0  0  0  0  0  3  0  0  0  0  0  0
  -33.0810  -29.5430   19.0140 C   0  0  0  0  0  3  0  0  0  0  0  0
  -31.0980  -28.3040   19.6860 C   0  0  0  0  0  3  0  0  0  0  0  0
  -30.6690  -28.2340   18.3400 C   0  0  0  0  0  0  0  0  0  0  0  0
  -32.3170  -28.9320   20.0290 C   0  0  0  0  0  0  0  0  0  0  0  0
  -29.4010  -27.4830   17.9360 C   0  0  0  0  0  2  0  0  0  0  0  0
  -29.0260  -26.2790   18.8300 C   0  0  0  0  0  2  0  0  0  0  0  0
  -28.5550  -26.6870   20.1180 O   0  0  0  0  0  0  0  0  0  0  0  0
  -24.6630  -31.7460   23.2540 C   0  0  0  0  0  0  0  0  0  0  0  0
  -27.3670  -27.3780   20.1350 C   0  0  0  0  0  0  0  0  0  0  0  0
  -23.4830  -30.3660   21.5740 C   0  0  0  0  0  3  0  0  0  0  0  0
  -24.9600  -28.8500   20.1520 C   0  0  0  0  0  0  0  0  0  0  0  0
  -26.0080  -30.7350   21.4180 C   0  0  0  0  0  2  0  0  0  0  0  0
  -26.1050  -29.3720   20.7680 C   0  0  0  0  0  0  0  0  0  0  0  0
  -27.3060  -28.6350   20.7720 C   0  0  0  0  0  3  0  0  0  0  0  0
  -26.2020  -26.8520   19.5350 C   0  0  0  0  0  3  0  0  0  0  0  0
  -25.0000  -27.5850   19.5400 C   0  0  0  0  0  3  0  0  0  0  0  0
  -23.7130  -29.7040   20.1880 C   0  0  0  0  0  2  0  0  0  0  0  0
  -24.7350  -30.9630   22.1410 N   0  0  0  0  0  0  0  0  0  0  0  0
  -23.5730  -32.0110   23.7810 O   0  0  0  0  0  0  0  0  0  0  0  0
  -22.8190  -29.3300   22.5090 C   0  0  0  0  0  0  0  0  0  0  0  0
  -21.5040  -29.1250   22.3360 N   0  0  0  0  0  0  0  0  0  0  0  0
  -23.4870  -28.7130   23.3440 O   0  0  0  0  0  0  0  0  0  0  0  0
  -21.0280  -29.6720   21.6330 H   0  0  0  0  0  0  0  0  0  0  0  0
  -18.1490  -27.8270   22.6560 C   0  0  0  0  0  0  0  0  0  0  0  0
  -20.6760  -28.1710   23.0740 C   0  0  0  0  0  3  0  0  0  0  0  0
  -20.8580  -26.7370   22.5270 C   0  0  0  0  0  2  0  0  0  0  0  0
  -19.8290  -26.3640   21.4560 C   0  0  0  0  0  2  0  0  0  0  0  0
  -18.4070  -26.4740   22.0140 C   0  0  0  0  0  2  0  0  0  0  0  0
  -19.2150  -28.6300   23.1390 C   0  0  0  0  0  0  0  0  0  0  0  0
  -18.9230  -29.8960   23.6920 C   0  0  0  0  0  3  0  0  0  0  0  0
  -17.5960  -30.3580   23.7710 C   0  0  0  0  0  3  0  0  0  0  0  0
  -16.5420  -29.5500   23.3090 C   0  0  0  0  0  3  0  0  0  0  0  0
  -16.8190  -28.2870   22.7560 C   0  0  0  0  0  3  0  0  0  0  0  0
  -25.9400  -32.3660   23.9020 C   0  0  0  0  0  3  0  0  0  0  0  0
  -25.6360  -33.7640   24.2320 N   0  0  0  0  0  0  0  0  0  0  0  0
  -26.0210  -34.8170   23.5000 C   0  0  0  0  0  0  0  0  0  0  0  0
  -26.7440  -34.7140   22.5050 O   0  0  0  0  0  0  0  0  0  0  0  0
  -25.0100  -33.9200   25.0070 H   0  0  0  0  0  0  0  0  0  0  0  0
  -24.3420  -36.6350   23.0620 C   0  0  0  0  0  1  0  0  0  0  0  0
  -25.5270  -36.2070   23.9440 C   0  0  0  0  0  3  0  0  0  0  0  0
  -27.6240  -37.0470   24.9030 C   0  0  0  0  0  1  0  0  0  0  0  0
  -26.5780  -37.2460   23.9040 N   0  0  0  0  0  0  0  0  0  0  0  0
  -26.1780  -38.1700   24.0430 H   0  0  0  0  0  0  0  0  0  0  0  0
  -26.4290  -31.5840   25.1830 C   0  0  1  0  0  0  0  0  0  0  0  0
  -25.3150  -31.3470   26.2300 C   0  0  0  0  0  1  0  0  0  0  0  0
  -27.0120  -30.2050   24.7880 C   0  0  0  0  0  1  0  0  0  0  0  0
  -27.5700  -32.3680   25.8720 C   0  0  0  0  0  1  0  0  0  0  0  0
  2  5  1  0
  2  1  1  0
  3  2  1  0
  4  2  1  0
  6  5  1  0
  7  6  1  0
  8  7  1  0
  9  8  1  0
  9 11  1  0
 10  9  1  0
 12  9  1  0
 13 12  1  0
 14 13  1  0
 15 14  1  0
 16 24  1  0
 17 18  1  0
 17 22  1  0
 18 19  1  0
 20 19  1  0
 20 29  1  0
 21 20  1  0
 22 16  1  0
 22 21  1  0
 23 16  2  0
 24 15  1  0
 24 25  1  0
 26 27  2  0
 26 51  1  0
 27 46  1  0
 28 27  1  0
 29 26  1  0
 30 29  1  0
 30 28  2  0
 31 28  1  0
 31 36  1  0
 32 31  2  0
 33 32  1  0
 33 34  2  0
 34 35  1  0
 35 36  2  0
 37 34  1  0
 37 38  1  0
 38 39  1  0
 39 40  2  0
 41 45  1  0
 41 40  1  0
 42 41  2  0
 43 42  1  0
 43 38  2  0
 44 43  1  0
 46 47  1  0
 46 48  2  0
 47 50  1  0
 49 47  1  0
 51 52  1  0
 53 51  1  0
 54  1  1  0
 55 56  1  0
 55 54  1  0
 57 59  1  0
 58 57  2  0
 58 61  1  0
 59 62  2  0
 60 62  1  0
 61 60  2  0
 62 55  1  0
 63 61  1  0
 63 64  1  0
 64 65  1  0
 65 67  1  0
 66 77  2  0
 67 72  1  0
 68 76  1  0
 68 78  1  0
 69 75  1  0
 69 71  1  0
 70 76  1  0
 71 72  2  0
 71 70  1  0
 73 74  1  0
 73 67  2  0
 74 69  2  0
 75 68  1  0
 76 66  1  0
 78 80  2  0
 79 78  1  0
 81 79  1  0
 82 91  2  0
 82 87  1  0
 83 79  1  0
 83 87  1  0
 84 83  1  0
 85 86  1  0
 85 84  1  0
 86 82  1  0
 87 88  2  0
 88 89  1  0
 90 89  2  0
 91 90  1  0
 92 66  1  0
 92 93  1  0
 92102  1  0
 93 96  1  0
 94 98  1  0
 94 93  1  0
 95 94  2  0
 98 97  1  0
100 98  1  0
100101  1  0
100 99  1  0
102105  1  1
102103  1  0
104102  1  0
M  ISO  4  16 100  24 100  64 101  65 101
M  END
>  <TORSDO>  (42) 
F 31

>  <SCORE>  (42) 
-5.658

>  <name>  (42) 
41

>  <ligand_id>  (42) 
41

>  <original_smiles>  (42) 
[H]c1c([H])c(N([H])C([H])([H])C([H])([H])[N+]([H])([H])C([H])([H])C([H])([H])C([H])([H])C([H])([H])[N+]([H])([H])C([H])([H])C([H])([H])C([H])([H])C([H])([H])N([H])C(=O)N2C([H])([H])C([H])([H])C([H])([H])C([H])(n3nc(-c4c([H])c([H])c(Oc5c([H])c([H])c(F)c([H])c5F)c([H])c4[H])c(C(=O)N([H])[H])c3N([H])[H])C2([H])[H])c([H])c(C([H])([H])C([H])([H])Oc2c([H])c([H])c3c(c2[H])C([H])([H])N(C(=O)C([H])(N([H])C(=O)C([H])(N([H])C([H])([H])[H])C([H])([H])[H])C(C([H])([H])[H])(C([H])([H])[H])C([H])([H])[H])C([H])(C(=O)N([H])C2([H])c4c([H])c([H])c([H])c([H])c4C([H])([H])C([H])([H])C2([H])[H])C3([H])[H])c1[H]

>  <smiles>  (42) 
[H]c1c([H])c(N([H])C([H])([H])C([H])([H])[N+]([H])([H])C([H])([H])C([H])([H])C([H])([H])C([H])([H])[N+]([H])([H])C([H])([H])C([H])([H])C([H])([H])C([H])([H])N([H])C(=O)N2C([H])([H])C([H])([H])C([H])([H])C([H])(n3nc(-c4c([H])c([H])c(Oc5c([H])c([H])c(F)c([H])c5F)c([H])c4[H])c(C(=O)N([H])[H])c3N([H])[H])C2([H])[H])c([H])c(C([H])([H])C([H])([H])Oc2c([H])c([H])c3c(c2[H])C([H])([H])N(C(=O)C([H])(N([H])C(=O)C([H])(N([H])C([H])([H])[H])C([H])([H])[H])C(C([H])([H])[H])(C([H])([H])[H])C([H])([H])[H])C([H])(C(=O)N([H])C2([H])c4c([H])c([H])c([H])c([H])c4C([H])([H])C([H])([H])C2([H])[H])C3([H])[H])c1[H]

$$$$
42:0:0
     RDKit          3D

 98106  0  0  1  0  0  0  0  0999 V2000
  -27.8430  -21.9870   19.7720 C   0  0  0  0  0  3  0  0  0  0  0  0
  -27.5740  -24.2980   19.0420 C   0  0  0  0  0  3  0  0  0  0  0  0
  -29.3950  -23.7000   20.5460 C   0  0  0  0  0  3  0  0  0  0  0  0
  -27.1430  -22.9570   19.0220 C   0  0  0  0  0  0  0  0  0  0  0  0
  -28.9840  -22.3470   20.5260 C   0  0  0  0  0  0  0  0  0  0  0  0
  -28.6860  -24.6800   19.8190 C   0  0  0  0  0  0  0  0  0  0  0  0
  -25.9260  -22.5720   18.1920 C   0  0  0  0  0  2  0  0  0  0  0  0
  -26.3280  -21.9300   16.9350 N   0  0  0  0  0  4  0  0  0  0  0  0
  -26.9440  -22.5280   16.4160 H   0  0  0  0  0  0  0  0  0  0  0  0
  -25.5170  -21.7470   16.3750 H   0  0  0  0  0  0  0  0  0  0  0  0
  -26.7950  -21.0610   17.1150 H   0  0  0  0  0  0  0  0  0  0  0  0
  -29.7530  -21.3040   21.3430 C   0  0  0  0  0  2  0  0  0  0  0  0
  -30.0550  -20.0720   20.5820 N   0  0  0  0  0  4  0  0  0  0  0  0
  -30.5450  -20.3280   19.7410 H   0  0  0  0  0  0  0  0  0  0  0  0
  -29.1790  -19.6560   20.3200 H   0  0  0  0  0  0  0  0  0  0  0  0
  -30.8500  -19.0620   21.3200 C   0  0  0  0  0  2  0  0  0  0  0  0
  -30.6230  -17.6310   20.7820 C   0  0  0  0  0  2  0  0  0  0  0  0
  -31.3480  -16.5400   21.6010 C   0  0  0  0  0  2  0  0  0  0  0  0
  -31.3850  -14.3220   20.4200 C   0  0  0  0  0  0  0  0  0  0  0  0
  -30.9300  -12.2930   19.0930 C   0  0  0  0  0  2  0  0  0  0  0  0
  -29.9790  -12.6280   17.9290 C   0  0  0  0  0  2  0  0  0  0  0  0
  -28.5050  -12.5570   18.3770 C   0  0  0  0  0  2  0  0  0  0  0  0
  -28.2420  -13.3300   19.6960 C   0  0  0  0  0  3  0  0  0  0  0  0
  -29.2930  -12.9560   20.7640 C   0  0  0  0  0  2  0  0  0  0  0  0
  -30.6320  -13.2120   20.2010 N   0  0  0  0  0  0  0  0  0  0  0  0
  -32.4490  -14.5510   19.8380 O   0  0  0  0  0  0  0  0  0  0  0  0
  -30.8520  -15.2010   21.2790 N   0  0  0  0  0  0  0  0  0  0  0  0
  -29.9890  -14.9140   21.7180 H   0  0  0  0  0  0  0  0  0  0  0  0
  -25.8870  -14.0420   20.4660 C   0  0  0  0  0  0  0  0  0  0  0  0
  -24.7810  -13.3150   20.8150 C   0  0  0  0  0  0  0  0  0  0  0  0
  -25.1620  -11.9420   20.7100 C   0  0  0  0  0  0  0  0  0  0  0  0
  -26.8780  -13.1150   20.1780 N   0  0  0  0  0  0  0  0  0  0  0  0
  -26.4430  -11.8440   20.3780 N   0  0  0  0  0  0  0  0  0  0  0  0
  -24.3660  -10.7160   20.8520 C   0  0  0  0  0  0  0  0  0  0  0  0
  -24.6650   -9.7530   21.8410 C   0  0  0  0  0  3  0  0  0  0  0  0
  -23.8770   -8.5900   21.9690 C   0  0  0  0  0  3  0  0  0  0  0  0
  -22.7730   -8.3820   21.1080 C   0  0  0  0  0  0  0  0  0  0  0  0
  -22.4930   -9.3330   20.1110 C   0  0  0  0  0  3  0  0  0  0  0  0
  -23.2830  -10.4880   19.9800 C   0  0  0  0  0  3  0  0  0  0  0  0
  -21.9660   -7.2710   21.1420 O   0  0  0  0  0  0  0  0  0  0  0  0
  -21.6760   -6.6280   22.3190 C   0  0  0  0  0  0  0  0  0  0  0  0
  -20.9560   -7.2590   23.3560 C   0  0  0  0  0  3  0  0  0  0  0  0
  -20.6200   -6.5390   24.5190 C   0  0  0  0  0  3  0  0  0  0  0  0
  -20.9940   -5.1880   24.6450 C   0  0  0  0  0  0  0  0  0  0  0  0
  -21.7070   -4.5560   23.6110 C   0  0  0  0  0  3  0  0  0  0  0  0
  -22.0440   -5.2740   22.4510 C   0  0  0  0  0  0  0  0  0  0  0  0
  -22.7120   -4.6530   21.4470 F   0  0  0  0  0  0  0  0  0  0  0  0
  -20.6650   -4.4930   25.7590 F   0  0  0  0  0  0  0  0  0  0  0  0
  -23.4170  -13.8560   21.1370 C   0  0  0  0  0  0  0  0  0  0  0  0
  -22.6680  -13.1670   21.9890 N   0  0  0  0  0  0  0  0  0  0  0  0
  -23.0280  -14.9250   20.6670 O   0  0  0  0  0  0  0  0  0  0  0  0
  -22.9950  -12.3010   22.3910 H   0  0  0  0  0  0  0  0  0  0  0  0
  -21.7520  -13.5100   22.2450 H   0  0  0  0  0  0  0  0  0  0  0  0
  -26.1300  -15.4080   20.3530 N   0  0  0  0  0  0  0  0  0  0  0  0
  -25.4040  -16.1010   20.5010 H   0  0  0  0  0  0  0  0  0  0  0  0
  -27.0030  -15.8110   20.0360 H   0  0  0  0  0  0  0  0  0  0  0  0
  -29.1380  -26.1340   19.8250 C   0  0  0  0  0  2  0  0  0  0  0  0
  -28.7050  -26.8830   20.9620 O   0  0  0  0  0  0  0  0  0  0  0  0
  -24.7060  -32.1570   23.5430 C   0  0  0  0  0  0  0  0  0  0  0  0
  -27.5040  -27.5480   20.8750 C   0  0  0  0  0  0  0  0  0  0  0  0
  -23.5670  -30.6250   21.9670 C   0  0  0  0  0  3  0  0  0  0  0  0
  -25.0820  -29.0010   20.7130 C   0  0  0  0  0  0  0  0  0  0  0  0
  -26.0930  -30.9980   21.8290 C   0  0  0  0  0  2  0  0  0  0  0  0
  -26.2110  -29.5840   21.3040 C   0  0  0  0  0  0  0  0  0  0  0  0
  -27.4170  -28.8580   21.3960 C   0  0  0  0  0  3  0  0  0  0  0  0
  -26.3520  -26.9680   20.2960 C   0  0  0  0  0  3  0  0  0  0  0  0
  -25.1450  -27.6880   20.2160 C   0  0  0  0  0  3  0  0  0  0  0  0
  -23.8290  -29.8450   20.6510 C   0  0  0  0  0  2  0  0  0  0  0  0
  -24.8050  -31.2780   22.5050 N   0  0  0  0  0  0  0  0  0  0  0  0
  -23.6050  -32.4580   24.0250 O   0  0  0  0  0  0  0  0  0  0  0  0
  -22.8900  -29.6730   22.9770 C   0  0  0  0  0  0  0  0  0  0  0  0
  -21.6160  -29.3350   22.7190 N   0  0  0  0  0  0  0  0  0  0  0  0
  -23.5120  -29.2330   23.9480 O   0  0  0  0  0  0  0  0  0  0  0  0
  -21.1730  -29.7430   21.9070 H   0  0  0  0  0  0  0  0  0  0  0  0
  -18.3510  -27.8080   22.9300 C   0  0  0  0  0  0  0  0  0  0  0  0
  -20.7920  -28.4210   23.5100 C   0  0  0  0  0  3  0  0  0  0  0  0
  -21.1330  -26.9480   23.1890 C   0  0  0  0  0  2  0  0  0  0  0  0
  -20.2420  -26.3480   22.0960 C   0  0  0  0  0  2  0  0  0  0  0  0
  -18.7690  -26.4100   22.5080 C   0  0  0  0  0  2  0  0  0  0  0  0
  -19.3030  -28.7590   23.3840 C   0  0  0  0  0  0  0  0  0  0  0  0
  -18.8650  -30.0560   23.7280 C   0  0  0  0  0  3  0  0  0  0  0  0
  -17.5070  -30.4090   23.6250 C   0  0  0  0  0  3  0  0  0  0  0  0
  -16.5660  -29.4590   23.1890 C   0  0  0  0  0  3  0  0  0  0  0  0
  -16.9880  -28.1620   22.8470 C   0  0  0  0  0  3  0  0  0  0  0  0
  -25.9670  -32.8410   24.1600 C   0  0  0  0  0  3  0  0  0  0  0  0
  -25.6140  -34.2360   24.4520 N   0  0  0  0  0  0  0  0  0  0  0  0
  -25.8810  -35.2720   23.6450 C   0  0  0  0  0  0  0  0  0  0  0  0
  -26.5230  -35.1580   22.5980 O   0  0  0  0  0  0  0  0  0  0  0  0
  -25.0400  -34.3970   25.2660 H   0  0  0  0  0  0  0  0  0  0  0  0
  -24.0510  -36.9640   23.3070 C   0  0  0  0  0  1  0  0  0  0  0  0
  -25.3510  -36.6550   24.0690 C   0  0  0  0  0  3  0  0  0  0  0  0
  -27.4620  -37.6910   24.7720 C   0  0  0  0  0  1  0  0  0  0  0  0
  -26.3230  -37.7490   23.8600 N   0  0  0  0  0  0  0  0  0  0  0  0
  -25.8750  -38.6540   23.9700 H   0  0  0  0  0  0  0  0  0  0  0  0
  -26.4980  -32.1150   25.4560 C   0  0  1  0  0  0  0  0  0  0  0  0
  -25.3900  -31.7950   26.4860 C   0  0  0  0  0  1  0  0  0  0  0  0
  -27.1980  -30.7850   25.0890 C   0  0  0  0  0  1  0  0  0  0  0  0
  -27.5610  -32.9960   26.1540 C   0  0  0  0  0  1  0  0  0  0  0  0
  1  5  1  0
  2  6  2  0
  4  2  1  0
  4  1  2  0
  5  3  2  0
  5 12  1  0
  6 57  1  0
  6  3  1  0
  7  4  1  0
  8 11  1  0
  8  7  1  0
  9  8  1  0
 10  8  1  0
 13 16  1  0
 13 12  1  0
 14 13  1  0
 15 13  1  0
 17 16  1  0
 17 18  1  0
 19 27  1  0
 20 25  1  0
 21 22  1  0
 21 20  1  0
 23 22  1  0
 23 32  1  0
 23 24  1  0
 25 19  1  0
 25 24  1  0
 26 19  2  0
 27 18  1  0
 27 28  1  0
 29 30  2  0
 30 49  1  0
 31 30  1  0
 31 34  1  0
 32 33  1  0
 32 29  1  0
 33 31  2  0
 34 35  1  0
 35 36  2  0
 37 40  1  0
 37 36  1  0
 38 37  2  0
 39 38  1  0
 39 34  2  0
 40 41  1  0
 41 46  2  0
 41 42  1  0
 42 43  2  0
 43 44  1  0
 44 48  1  0
 45 44  2  0
 46 45  1  0
 47 46  1  0
 49 50  1  0
 50 53  1  0
 50 52  1  0
 51 49  2  0
 54 29  1  0
 54 55  1  0
 56 54  1  0
 57 58  1  0
 59 70  2  0
 60 58  1  0
 60 65  1  0
 61 69  1  0
 61 71  1  0
 62 64  1  0
 63 69  1  0
 64 65  2  0
 64 63  1  0
 66 60  2  0
 67 66  1  0
 67 62  2  0
 68 62  1  0
 68 61  1  0
 69 59  1  0
 71 73  2  0
 72 71  1  0
 74 72  1  0
 75 80  1  0
 76 72  1  0
 77 76  1  0
 78 79  1  0
 78 77  1  0
 79 75  1  0
 80 76  1  0
 80 81  2  0
 82 81  1  0
 83 82  2  0
 84 75  2  0
 84 83  1  0
 85 59  1  0
 85 86  1  0
 85 95  1  0
 86 89  1  0
 87 91  1  0
 87 86  1  0
 88 87  2  0
 91 90  1  0
 93 94  1  0
 93 91  1  0
 93 92  1  0
 95 98  1  1
 95 96  1  0
 97 95  1  0
M  ISO  4  19 100  27 100  57 101  58 101
M  END
>  <TORSDO>  (43) 
F 24

>  <SCORE>  (43) 
-10.731

>  <name>  (43) 
42

>  <ligand_id>  (43) 
42

>  <original_smiles>  (43) 
[H]c1c([H])c([H])c2c(c1[H])C([H])([H])C([H])([H])C([H])([H])C2([H])N([H])C(=O)C1([H])N(C(=O)C([H])(N([H])C(=O)C([H])(N([H])C([H])([H])[H])C([H])([H])[H])C(C([H])([H])[H])(C([H])([H])[H])C([H])([H])[H])C([H])([H])c2c([H])c(OC([H])([H])c3c([H])c(C([H])([H])[N+]([H])([H])[H])c([H])c(C([H])([H])[N+]([H])([H])C([H])([H])C([H])([H])C([H])([H])N([H])C(=O)N4C([H])([H])C([H])([H])C([H])([H])C([H])(n5nc(-c6c([H])c([H])c(Oc7c([H])c([H])c(F)c([H])c7F)c([H])c6[H])c(C(=O)N([H])[H])c5N([H])[H])C4([H])[H])c3[H])c([H])c([H])c2C1([H])[H]

>  <smiles>  (43) 
[H]c1c([H])c([H])c2c(c1[H])C([H])([H])C([H])([H])C([H])([H])C2([H])N([H])C(=O)C1([H])N(C(=O)C([H])(N([H])C(=O)C([H])(N([H])C([H])([H])[H])C([H])([H])[H])C(C([H])([H])[H])(C([H])([H])[H])C([H])([H])[H])C([H])([H])c2c([H])c(OC([H])([H])c3c([H])c(C([H])([H])[N+]([H])([H])[H])c([H])c(C([H])([H])[N+]([H])([H])C([H])([H])C([H])([H])C([H])([H])N([H])C(=O)N4C([H])([H])C([H])([H])C([H])([H])C([H])(n5nc(-c6c([H])c([H])c(Oc7c([H])c([H])c(F)c([H])c7F)c([H])c6[H])c(C(=O)N([H])[H])c5N([H])[H])C4([H])[H])c3[H])c([H])c([H])c2C1([H])[H]

$$$$
43:0:0
     RDKit          3D

 99107  0  0  1  0  0  0  0  0999 V2000
  -29.5170  -24.2470   18.3630 C   0  0  0  0  0  0  0  0  0  0  0  0
  -29.1410  -22.7850   18.0700 C   0  0  0  0  0  2  0  0  0  0  0  0
  -26.5910  -24.3490   17.0670 C   0  0  0  0  0  2  0  0  0  0  0  0
  -26.6770  -22.8360   17.3120 C   0  0  0  0  0  2  0  0  0  0  0  0
  -27.9230  -24.9860   16.6290 C   0  0  0  0  0  2  0  0  0  0  0  0
  -27.6740  -22.4280   18.4090 C   0  0  0  0  0  3  0  0  0  0  0  0
  -28.8220  -25.2500   17.7660 N   0  0  0  0  0  0  0  0  0  0  0  0
  -30.4590  -24.4380   19.1360 O   0  0  0  0  0  0  0  0  0  0  0  0
  -27.5700  -20.9750   18.5700 N   0  0  0  0  0  0  0  0  0  0  0  0
  -28.3420  -20.5300   18.0840 H   0  0  0  0  0  0  0  0  0  0  0  0
  -27.5010  -20.6210   19.9880 C   0  0  0  0  0  2  0  0  0  0  0  0
  -27.7690  -19.1260   20.2370 C   0  0  0  0  0  2  0  0  0  0  0  0
  -29.2130  -18.8250   20.1650 N   0  0  0  0  0  4  0  0  0  0  0  0
  -29.4820  -18.7820   19.1970 H   0  0  0  0  0  0  0  0  0  0  0  0
  -29.7130  -19.5880   20.5930 H   0  0  0  0  0  0  0  0  0  0  0  0
  -29.6160  -17.5670   20.8270 C   0  0  0  0  0  2  0  0  0  0  0  0
  -31.1330  -17.3200   20.7070 C   0  0  0  0  0  2  0  0  0  0  0  0
  -31.6400  -16.0920   21.4890 C   0  0  0  0  0  2  0  0  0  0  0  0
  -31.3470  -14.0410   20.0820 C   0  0  0  0  0  0  0  0  0  0  0  0
  -30.8430  -11.9190   18.9270 C   0  0  0  0  0  2  0  0  0  0  0  0
  -29.8700  -12.1300   17.7530 C   0  0  0  0  0  2  0  0  0  0  0  0
  -28.4070  -12.0960   18.2360 C   0  0  0  0  0  2  0  0  0  0  0  0
  -28.1660  -13.0160   19.4610 C   0  0  0  0  0  3  0  0  0  0  0  0
  -29.2290  -12.7590   20.5480 C   0  0  0  0  0  2  0  0  0  0  0  0
  -30.5660  -12.9400   19.9490 N   0  0  0  0  0  0  0  0  0  0  0  0
  -32.3340  -14.2740   19.3770 O   0  0  0  0  0  0  0  0  0  0  0  0
  -30.9840  -14.8510   21.0840 N   0  0  0  0  0  0  0  0  0  0  0  0
  -30.2020  -14.5380   21.6410 H   0  0  0  0  0  0  0  0  0  0  0  0
  -25.8520  -13.8230   20.2600 C   0  0  0  0  0  0  0  0  0  0  0  0
  -24.7390  -13.1410   20.6720 C   0  0  0  0  0  0  0  0  0  0  0  0
  -25.0820  -11.7550   20.6150 C   0  0  0  0  0  0  0  0  0  0  0  0
  -26.8110  -12.8590   19.9860 N   0  0  0  0  0  0  0  0  0  0  0  0
  -26.3500  -11.6090   20.2520 N   0  0  0  0  0  0  0  0  0  0  0  0
  -24.2630  -10.5570   20.8290 C   0  0  0  0  0  0  0  0  0  0  0  0
  -24.6180   -9.5780   21.7820 C   0  0  0  0  0  3  0  0  0  0  0  0
  -23.8020   -8.4430   21.9810 C   0  0  0  0  0  3  0  0  0  0  0  0
  -22.6160   -8.2800   21.2260 C   0  0  0  0  0  0  0  0  0  0  0  0
  -22.2800   -9.2460   20.2610 C   0  0  0  0  0  3  0  0  0  0  0  0
  -23.0960  -10.3720   20.0610 C   0  0  0  0  0  3  0  0  0  0  0  0
  -21.7770   -7.1990   21.3330 O   0  0  0  0  0  0  0  0  0  0  0  0
  -21.6360   -6.5110   22.5120 C   0  0  0  0  0  0  0  0  0  0  0  0
  -21.2020   -7.1440   23.6980 C   0  0  0  0  0  3  0  0  0  0  0  0
  -21.0030   -6.3860   24.8690 C   0  0  0  0  0  3  0  0  0  0  0  0
  -21.2300   -4.9960   24.8550 C   0  0  0  0  0  0  0  0  0  0  0  0
  -21.6560   -4.3640   23.6750 C   0  0  0  0  0  3  0  0  0  0  0  0
  -21.8550   -5.1190   22.5060 C   0  0  0  0  0  0  0  0  0  0  0  0
  -22.2460   -4.5000   21.3660 F   0  0  0  0  0  0  0  0  0  0  0  0
  -21.0320   -4.2660   25.9780 F   0  0  0  0  0  0  0  0  0  0  0  0
  -23.3990  -13.7320   21.0060 C   0  0  0  0  0  0  0  0  0  0  0  0
  -22.6570  -13.0950   21.9060 N   0  0  0  0  0  0  0  0  0  0  0  0
  -23.0240  -14.7900   20.5050 O   0  0  0  0  0  0  0  0  0  0  0  0
  -22.9740  -12.2360   22.3300 H   0  0  0  0  0  0  0  0  0  0  0  0
  -21.7600  -13.4720   22.1740 H   0  0  0  0  0  0  0  0  0  0  0  0
  -26.1240  -15.1760   20.0770 N   0  0  0  0  0  0  0  0  0  0  0  0
  -25.4040  -15.8820   20.1800 H   0  0  0  0  0  0  0  0  0  0  0  0
  -26.9680  -15.5250   19.6450 H   0  0  0  0  0  0  0  0  0  0  0  0
  -29.0080  -26.6980   18.0250 C   0  0  0  0  0  2  0  0  0  0  0  0
  -29.3540  -27.1540   19.4660 C   0  0  0  0  0  2  0  0  0  0  0  0
  -28.3730  -26.7360   20.4140 O   0  0  0  0  0  0  0  0  0  0  0  0
  -24.5480  -31.9680   23.3810 C   0  0  0  0  0  0  0  0  0  0  0  0
  -27.2240  -27.4820   20.4220 C   0  0  0  0  0  0  0  0  0  0  0  0
  -23.3590  -30.5460   21.7430 C   0  0  0  0  0  3  0  0  0  0  0  0
  -24.8310  -28.9660   20.3830 C   0  0  0  0  0  0  0  0  0  0  0  0
  -25.8880  -30.8930   21.5780 C   0  0  0  0  0  2  0  0  0  0  0  0
  -25.9810  -29.5090   20.9740 C   0  0  0  0  0  0  0  0  0  0  0  0
  -27.1860  -28.7730   20.9910 C   0  0  0  0  0  3  0  0  0  0  0  0
  -26.0560  -26.9310   19.8640 C   0  0  0  0  0  3  0  0  0  0  0  0
  -24.8590  -27.6730   19.8320 C   0  0  0  0  0  3  0  0  0  0  0  0
  -23.5880  -29.8280   20.3860 C   0  0  0  0  0  2  0  0  0  0  0  0
  -24.6180  -31.1480   22.2950 N   0  0  0  0  0  0  0  0  0  0  0  0
  -23.4600  -32.2640   23.8910 O   0  0  0  0  0  0  0  0  0  0  0  0
  -22.6780  -29.5530   22.7100 C   0  0  0  0  0  0  0  0  0  0  0  0
  -21.3600  -29.3630   22.5380 N   0  0  0  0  0  0  0  0  0  0  0  0
  -23.3340  -28.9510   23.5650 O   0  0  0  0  0  0  0  0  0  0  0  0
  -20.8910  -29.8950   21.8190 H   0  0  0  0  0  0  0  0  0  0  0  0
  -17.9740  -28.1780   22.9400 C   0  0  0  0  0  0  0  0  0  0  0  0
  -20.5180  -28.4460   23.3030 C   0  0  0  0  0  3  0  0  0  0  0  0
  -20.6460  -26.9990   22.7690 C   0  0  0  0  0  2  0  0  0  0  0  0
  -19.5830  -26.6480   21.7250 C   0  0  0  0  0  2  0  0  0  0  0  0
  -18.1760  -26.8110   22.3100 C   0  0  0  0  0  2  0  0  0  0  0  0
  -19.0750  -28.9540   23.3910 C   0  0  0  0  0  0  0  0  0  0  0  0
  -18.8330  -30.2350   23.9330 C   0  0  0  0  0  3  0  0  0  0  0  0
  -17.5220  -30.7390   24.0320 C   0  0  0  0  0  3  0  0  0  0  0  0
  -16.4350  -29.9580   23.6000 C   0  0  0  0  0  3  0  0  0  0  0  0
  -16.6630  -28.6810   23.0600 C   0  0  0  0  0  3  0  0  0  0  0  0
  -25.8300  -32.5930   24.0190 C   0  0  0  0  0  3  0  0  0  0  0  0
  -26.3160  -31.8280   25.3100 C   0  0  1  0  0  0  0  0  0  0  0  0
  -25.1960  -31.6000   26.3520 C   0  0  0  0  0  1  0  0  0  0  0  0
  -26.9020  -30.4460   24.9350 C   0  0  0  0  0  1  0  0  0  0  0  0
  -27.4600  -32.6190   25.9900 C   0  0  0  0  0  1  0  0  0  0  0  0
  -25.5310  -33.9980   24.3230 N   0  0  0  0  0  0  0  0  0  0  0  0
  -25.8930  -35.0320   23.5520 C   0  0  0  0  0  0  0  0  0  0  0  0
  -26.5820  -34.9010   22.5370 O   0  0  0  0  0  0  0  0  0  0  0  0
  -24.9230  -34.1730   25.1100 H   0  0  0  0  0  0  0  0  0  0  0  0
  -24.1990  -36.8360   23.1250 C   0  0  0  0  0  1  0  0  0  0  0  0
  -25.4150  -36.4320   23.9740 C   0  0  0  0  0  3  0  0  0  0  0  0
  -27.5400  -37.3070   24.8440 C   0  0  0  0  0  1  0  0  0  0  0  0
  -26.4640  -37.4700   23.8680 N   0  0  0  0  0  0  0  0  0  0  0  0
  -26.0660  -38.3970   23.9900 H   0  0  0  0  0  0  0  0  0  0  0  0
  1  8  2  0
  2  1  1  0
  2  6  1  0
  3  4  1  0
  4  6  1  0
  5  3  1  0
  5  7  1  0
  6  9  1  0
  7 57  1  0
  7  1  1  0
  9 11  1  0
 10  9  1  0
 11 12  1  0
 13 12  1  0
 13 15  1  0
 13 16  1  0
 14 13  1  0
 17 16  1  0
 17 18  1  0
 19 27  1  0
 20 25  1  0
 21 22  1  0
 21 20  1  0
 23 22  1  0
 23 32  1  0
 23 24  1  0
 25 19  1  0
 25 24  1  0
 26 19  2  0
 27 18  1  0
 27 28  1  0
 29 30  2  0
 30 49  1  0
 31 30  1  0
 31 34  1  0
 32 33  1  0
 32 29  1  0
 33 31  2  0
 34 35  1  0
 35 36  2  0
 37 40  1  0
 37 36  1  0
 38 37  2  0
 39 38  1  0
 39 34  2  0
 40 41  1  0
 41 42  1  0
 42 43  2  0
 44 43  1  0
 44 48  1  0
 45 44  2  0
 46 41  2  0
 46 45  1  0
 47 46  1  0
 49 50  1  0
 50 53  1  0
 50 52  1  0
 51 49  2  0
 54 55  1  0
 54 29  1  0
 56 54  1  0
 57 58  1  0
 58 59  1  0
 59 61  1  0
 60 71  2  0
 61 66  1  0
 62 70  1  0
 62 72  1  0
 63 69  1  0
 63 65  1  0
 64 70  1  0
 65 66  2  0
 65 64  1  0
 67 61  2  0
 68 67  1  0
 68 63  2  0
 69 62  1  0
 70 60  1  0
 72 74  2  0
 73 72  1  0
 75 73  1  0
 76 85  2  0
 76 81  1  0
 77 73  1  0
 77 81  1  0
 78 77  1  0
 79 80  1  0
 79 78  1  0
 80 76  1  0
 81 82  2  0
 82 83  1  0
 84 83  2  0
 85 84  1  0
 86 60  1  0
 86 91  1  0
 86 87  1  0
 87 90  1  1
 87 88  1  0
 89 87  1  0
 91 94  1  0
 92 96  1  0
 92 91  1  0
 93 92  2  0
 96 95  1  0
 98 96  1  0
 98 99  1  0
 98 97  1  0
M  ISO  4  19 100  27 100  58 101  59 101
M  END
>  <TORSDO>  (44) 
F 25

>  <SCORE>  (44) 
-11.111

>  <name>  (44) 
43

>  <ligand_id>  (44) 
43

>  <original_smiles>  (44) 
[H]c1c([H])c([H])c2c(c1[H])C([H])([H])C([H])([H])C([H])([H])C2([H])N([H])C(=O)C1([H])N(C(=O)C([H])(N([H])C(=O)C([H])(N([H])C([H])([H])[H])C([H])([H])[H])C(C([H])([H])[H])(C([H])([H])[H])C([H])([H])[H])C([H])([H])c2c([H])c(OC([H])([H])C([H])([H])N3C(=O)C([H])([H])C([H])(N([H])C([H])([H])C([H])([H])[N+]([H])([H])C([H])([H])C([H])([H])C([H])([H])N([H])C(=O)N4C([H])([H])C([H])([H])C([H])([H])C([H])(n5nc(-c6c([H])c([H])c(Oc7c([H])c([H])c(F)c([H])c7F)c([H])c6[H])c(C(=O)N([H])[H])c5N([H])[H])C4([H])[H])C([H])([H])C([H])([H])C3([H])[H])c([H])c([H])c2C1([H])[H]

>  <smiles>  (44) 
[H]c1c([H])c([H])c2c(c1[H])C([H])([H])C([H])([H])C([H])([H])C2([H])N([H])C(=O)C1([H])N(C(=O)C([H])(N([H])C(=O)C([H])(N([H])C([H])([H])[H])C([H])([H])[H])C(C([H])([H])[H])(C([H])([H])[H])C([H])([H])[H])C([H])([H])c2c([H])c(OC([H])([H])C([H])([H])N3C(=O)C([H])([H])C([H])(N([H])C([H])([H])C([H])([H])[N+]([H])([H])C([H])([H])C([H])([H])C([H])([H])N([H])C(=O)N4C([H])([H])C([H])([H])C([H])([H])C([H])(n5nc(-c6c([H])c([H])c(Oc7c([H])c([H])c(F)c([H])c7F)c([H])c6[H])c(C(=O)N([H])[H])c5N([H])[H])C4([H])[H])C([H])([H])C([H])([H])C3([H])[H])c([H])c([H])c2C1([H])[H]

$$$$
44:0:0
     RDKit          3D

100108  0  0  1  0  0  0  0  0999 V2000
  -25.4560  -22.3570   21.1060 C   0  0  0  0  0  2  0  0  0  0  0  0
  -25.4840  -21.5120   16.8140 C   0  0  0  0  0  3  0  0  0  0  0  0
  -24.6070  -22.4620   17.3590 C   0  0  0  0  0  3  0  0  0  0  0  0
  -26.4340  -20.8930   17.6430 C   0  0  0  0  0  3  0  0  0  0  0  0
  -24.6580  -22.7600   18.7310 C   0  0  0  0  0  3  0  0  0  0  0  0
  -26.4950  -21.1700   19.0300 C   0  0  0  0  0  0  0  0  0  0  0  0
  -25.5460  -22.0790   19.5980 C   0  0  0  0  0  0  0  0  0  0  0  0
  -27.6700  -20.5600   19.7980 C   0  0  0  0  0  2  0  0  0  0  0  0
  -28.5150  -19.6530   18.9870 N   0  0  0  0  0  4  0  0  0  0  0  0
  -28.5270  -20.0020   18.0430 H   0  0  0  0  0  0  0  0  0  0  0  0
  -28.0890  -18.7400   18.9790 H   0  0  0  0  0  0  0  0  0  0  0  0
  -29.9140  -19.5840   19.4820 C   0  0  0  0  0  2  0  0  0  0  0  0
  -30.7920  -18.4920   18.8270 C   0  0  0  0  0  2  0  0  0  0  0  0
  -32.1200  -18.3150   19.6010 C   0  0  0  0  0  2  0  0  0  0  0  0
  -32.7790  -16.9350   19.4250 C   0  0  0  0  0  0  0  0  0  0  0  0
  -32.8510  -14.5040   19.9000 C   0  0  0  0  0  2  0  0  0  0  0  0
  -32.0790  -13.6910   18.8440 C   0  0  0  0  0  2  0  0  0  0  0  0
  -30.5900  -13.5960   19.2270 C   0  0  0  0  0  2  0  0  0  0  0  0
  -29.9820  -14.9830   19.5620 C   0  0  0  0  0  3  0  0  0  0  0  0
  -30.8700  -15.7510   20.5610 C   0  0  0  0  0  2  0  0  0  0  0  0
  -32.2320  -15.8330   20.0060 N   0  0  0  0  0  0  0  0  0  0  0  0
  -33.8330  -16.8870   18.7820 O   0  0  0  0  0  0  0  0  0  0  0  0
  -27.7180  -15.8560   20.4240 C   0  0  0  0  0  0  0  0  0  0  0  0
  -26.5530  -15.2140   20.7410 C   0  0  0  0  0  0  0  0  0  0  0  0
  -26.8020  -13.8210   20.5390 C   0  0  0  0  0  0  0  0  0  0  0  0
  -28.6110  -14.8630   20.0510 N   0  0  0  0  0  0  0  0  0  0  0  0
  -28.0640  -13.6270   20.1780 N   0  0  0  0  0  0  0  0  0  0  0  0
  -25.8980  -12.6670   20.6110 C   0  0  0  0  0  0  0  0  0  0  0  0
  -26.0640  -11.6630   21.5890 C   0  0  0  0  0  3  0  0  0  0  0  0
  -25.1740  -10.5690   21.6490 C   0  0  0  0  0  3  0  0  0  0  0  0
  -24.1030  -10.4750   20.7280 C   0  0  0  0  0  0  0  0  0  0  0  0
  -23.9580  -11.4660   19.7410 C   0  0  0  0  0  3  0  0  0  0  0  0
  -24.8470  -12.5510   19.6810 C   0  0  0  0  0  3  0  0  0  0  0  0
  -23.2060   -9.4350   20.6910 O   0  0  0  0  0  0  0  0  0  0  0  0
  -22.7260   -8.8580   21.8400 C   0  0  0  0  0  0  0  0  0  0  0  0
  -22.0000   -9.5990   22.7980 C   0  0  0  0  0  3  0  0  0  0  0  0
  -21.4660   -8.9530   23.9300 C   0  0  0  0  0  3  0  0  0  0  0  0
  -21.6470   -7.5680   24.1020 C   0  0  0  0  0  0  0  0  0  0  0  0
  -22.3640   -6.8270   23.1450 C   0  0  0  0  0  3  0  0  0  0  0  0
  -22.9000   -7.4710   22.0170 C   0  0  0  0  0  0  0  0  0  0  0  0
  -23.5720   -6.7500   21.0880 F   0  0  0  0  0  0  0  0  0  0  0  0
  -21.1270   -6.9450   25.1840 F   0  0  0  0  0  0  0  0  0  0  0  0
  -25.2480  -15.8580   21.1130 C   0  0  0  0  0  0  0  0  0  0  0  0
  -24.4450  -15.1890   21.9320 N   0  0  0  0  0  0  0  0  0  0  0  0
  -24.9560  -16.9860   20.7160 O   0  0  0  0  0  0  0  0  0  0  0  0
  -24.6930  -14.2720   22.2710 H   0  0  0  0  0  0  0  0  0  0  0  0
  -23.5690  -15.6010   22.2200 H   0  0  0  0  0  0  0  0  0  0  0  0
  -28.0850  -17.2000   20.3930 N   0  0  0  0  0  0  0  0  0  0  0  0
  -27.3670  -17.9090   20.4740 H   0  0  0  0  0  0  0  0  0  0  0  0
  -28.9030  -17.5200   19.8910 H   0  0  0  0  0  0  0  0  0  0  0  0
  -24.1850  -22.9990   21.5320 N   0  0  0  0  0  4  0  0  0  0  0  0
  -24.2060  -23.9890   21.3490 H   0  0  0  0  0  0  0  0  0  0  0  0
  -24.1670  -22.9120   22.5370 H   0  0  0  0  0  0  0  0  0  0  0  0
  -22.9100  -22.3890   21.0650 C   0  0  0  0  0  2  0  0  0  0  0  0
  -22.0630  -23.2680   20.1040 C   0  0  0  0  0  2  0  0  0  0  0  0
  -21.9670  -22.7390   18.6560 C   0  0  0  0  0  2  0  0  0  0  0  0
  -21.7750  -23.8120   17.7370 O   0  0  0  0  0  0  0  0  0  0  0  0
  -22.0720  -23.4790   16.3750 C   0  0  0  0  0  2  0  0  0  0  0  0
  -21.5570  -24.5300   15.3560 C   0  0  0  0  0  2  0  0  0  0  0  0
  -22.3200  -25.7440   15.3080 O   0  0  0  0  0  0  0  0  0  0  0  0
  -24.9720  -27.8690   21.5350 C   0  0  0  0  0  0  0  0  0  0  0  0
  -22.2030  -26.6460   16.3440 C   0  0  0  0  0  0  0  0  0  0  0  0
  -22.7770  -28.8320   20.9220 C   0  0  0  0  0  3  0  0  0  0  0  0
  -22.0330  -28.4440   18.5190 C   0  0  0  0  0  0  0  0  0  0  0  0
  -24.4350  -28.1130   19.1150 C   0  0  0  0  0  2  0  0  0  0  0  0
  -23.2460  -27.8070   18.2320 C   0  0  0  0  0  0  0  0  0  0  0  0
  -23.3360  -26.9100   17.1460 C   0  0  0  0  0  3  0  0  0  0  0  0
  -20.9940  -27.3210   16.6350 C   0  0  0  0  0  3  0  0  0  0  0  0
  -20.9040  -28.2010   17.7250 C   0  0  0  0  0  3  0  0  0  0  0  0
  -22.0100  -29.3900   19.6940 C   0  0  0  0  0  2  0  0  0  0  0  0
  -24.0980  -28.2300   20.5530 N   0  0  0  0  0  0  0  0  0  0  0  0
  -24.7090  -28.0700   22.7280 O   0  0  0  0  0  0  0  0  0  0  0  0
  -21.8520  -27.8520   21.6800 C   0  0  0  0  0  0  0  0  0  0  0  0
  -20.6290  -28.3020   22.0000 N   0  0  0  0  0  0  0  0  0  0  0  0
  -22.2250  -26.7030   21.9380 O   0  0  0  0  0  0  0  0  0  0  0  0
  -20.3860  -29.2510   21.7470 H   0  0  0  0  0  0  0  0  0  0  0  0
  -17.0880  -28.2010   22.7000 C   0  0  0  0  0  0  0  0  0  0  0  0
  -19.5830  -27.5350   22.6730 C   0  0  0  0  0  3  0  0  0  0  0  0
  -19.1510  -26.3190   21.8230 C   0  0  0  0  0  2  0  0  0  0  0  0
  -17.9420  -26.6020   20.9310 C   0  0  0  0  0  2  0  0  0  0  0  0
  -16.7420  -27.0510   21.7680 C   0  0  0  0  0  2  0  0  0  0  0  0
  -18.4250  -28.4330   23.1180 C   0  0  0  0  0  0  0  0  0  0  0  0
  -18.6970  -29.5240   23.9710 C   0  0  0  0  0  3  0  0  0  0  0  0
  -17.6650  -30.3890   24.3830 C   0  0  0  0  0  3  0  0  0  0  0  0
  -16.3440  -30.1530   23.9670 C   0  0  0  0  0  3  0  0  0  0  0  0
  -16.0550  -29.0560   23.1370 C   0  0  0  0  0  3  0  0  0  0  0  0
  -26.3500  -27.2150   21.2050 C   0  0  0  0  0  3  0  0  0  0  0  0
  -27.3150  -27.6980   22.1990 N   0  0  0  0  0  0  0  0  0  0  0  0
  -28.2860  -28.5850   21.9470 C   0  0  0  0  0  0  0  0  0  0  0  0
  -28.5110  -29.0290   20.8150 O   0  0  0  0  0  0  0  0  0  0  0  0
  -27.1580  -27.4210   23.1570 H   0  0  0  0  0  0  0  0  0  0  0  0
  -28.7210  -30.4690   23.5560 C   0  0  0  0  0  1  0  0  0  0  0  0
  -29.1470  -29.0530   23.1350 C   0  0  0  0  0  3  0  0  0  0  0  0
  -31.1410  -27.6840   22.7120 C   0  0  0  0  0  1  0  0  0  0  0  0
  -30.6000  -29.0340   22.8550 N   0  0  0  0  0  0  0  0  0  0  0  0
  -31.1140  -29.5050   23.5940 H   0  0  0  0  0  0  0  0  0  0  0  0
  -26.3010  -25.6390   21.1880 C   0  0  1  0  0  0  0  0  0  0  0  0
  -25.6880  -25.0240   22.4680 C   0  0  0  0  0  1  0  0  0  0  0  0
  -25.4840  -25.1280   19.9760 C   0  0  0  0  0  1  0  0  0  0  0  0
  -27.7340  -25.0770   21.0260 C   0  0  0  0  0  1  0  0  0  0  0  0
  1 51  1  0
  2  3  2  0
  2  4  1  0
  3  5  1  0
  4  6  2  0
  5  7  2  0
  6  7  1  0
  6  8  1  0
  7  1  1  0
  9 12  1  0
  9  8  1  0
 10  9  1  0
 11  9  1  0
 13 12  1  0
 13 14  1  0
 15 14  1  0
 15 21  1  0
 16 21  1  0
 17 18  1  0
 17 16  1  0
 19 18  1  0
 19 26  1  0
 19 20  1  0
 21 20  1  0
 22 15  2  0
 23 24  2  0
 24 43  1  0
 25 28  1  0
 25 24  1  0
 26 27  1  0
 26 23  1  0
 27 25  2  0
 28 29  1  0
 29 30  2  0
 31 30  1  0
 32 31  2  0
 33 32  1  0
 33 28  2  0
 34 31  1  0
 34 35  1  0
 35 40  2  0
 35 36  1  0
 36 37  2  0
 37 38  1  0
 38 42  1  0
 39 38  2  0
 40 39  1  0
 41 40  1  0
 43 44  1  0
 44 47  1  0
 44 46  1  0
 45 43  2  0
 48 23  1  0
 48 49  1  0
 50 48  1  0
 51 53  1  0
 52 51  1  0
 54 51  1  0
 55 54  1  0
 56 55  1  0
 57 56  1  0
 58 57  1  0
 59 58  1  0
 60 59  1  0
 60 62  1  0
 61 72  2  0
 62 68  2  0
 62 67  1  0
 63 73  1  0
 64 70  1  0
 65 71  1  0
 66 64  1  0
 66 65  1  0
 67 66  2  0
 68 69  1  0
 69 64  2  0
 70 63  1  0
 71 63  1  0
 71 61  1  0
 73 75  2  0
 73 74  1  0
 76 74  1  0
 77 82  2  0
 77 86  1  0
 78 74  1  0
 78 82  1  0
 79 78  1  0
 80 81  1  0
 80 79  1  0
 81 77  1  0
 82 83  1  0
 83 84  2  0
 85 84  1  0
 86 85  2  0
 87 61  1  0
 87 88  1  0
 88 91  1  0
 89 88  1  0
 89 93  1  0
 90 89  2  0
 93 92  1  0
 94 95  1  0
 95 93  1  0
 95 96  1  0
 97 87  1  0
 97 98  1  1
 99 97  1  0
100 97  1  0
M  ISO  4  14 100  15 100  59 101  60 101
M  END
>  <TORSDO>  (45) 
F 29

>  <SCORE>  (45) 
1.928

>  <name>  (45) 
44

>  <ligand_id>  (45) 
44

>  <original_smiles>  (45) 
[H]c1c([H])c([H])c2c(c1[H])C([H])([H])C([H])([H])C([H])([H])C2([H])N([H])C(=O)C1([H])N(C(=O)C([H])(N([H])C(=O)C([H])(N([H])C([H])([H])[H])C([H])([H])[H])C(C([H])([H])[H])(C([H])([H])[H])C([H])([H])[H])C([H])([H])c2c([H])c(OC([H])([H])C([H])([H])OC([H])([H])C([H])([H])C([H])([H])[N+]([H])([H])C([H])([H])c3c([H])c([H])c([H])c([H])c3C([H])([H])[N+]([H])([H])C([H])([H])C([H])([H])C([H])([H])C(=O)N3C([H])([H])C([H])([H])C([H])([H])C([H])(n4nc(-c5c([H])c([H])c(Oc6c([H])c([H])c(F)c([H])c6F)c([H])c5[H])c(C(=O)N([H])[H])c4N([H])[H])C3([H])[H])c([H])c([H])c2C1([H])[H]

>  <smiles>  (45) 
[H]c1c([H])c([H])c2c(c1[H])C([H])([H])C([H])([H])C([H])([H])C2([H])N([H])C(=O)C1([H])N(C(=O)C([H])(N([H])C(=O)C([H])(N([H])C([H])([H])[H])C([H])([H])[H])C(C([H])([H])[H])(C([H])([H])[H])C([H])([H])[H])C([H])([H])c2c([H])c(OC([H])([H])C([H])([H])OC([H])([H])C([H])([H])C([H])([H])[N+]([H])([H])C([H])([H])c3c([H])c([H])c([H])c([H])c3C([H])([H])[N+]([H])([H])C([H])([H])C([H])([H])C([H])([H])C(=O)N3C([H])([H])C([H])([H])C([H])([H])C([H])(n4nc(-c5c([H])c([H])c(Oc6c([H])c([H])c(F)c([H])c6F)c([H])c5[H])c(C(=O)N([H])[H])c4N([H])[H])C3([H])[H])c([H])c([H])c2C1([H])[H]

$$$$
45:0:0
     RDKit          3D

 99107  0  0  1  0  0  0  0  0999 V2000
  -25.7610  -23.9940   22.1720 N   0  0  0  0  0  0  0  0  0  0  0  0
  -24.9300  -23.5270   22.5290 H   0  0  0  0  0  0  0  0  0  0  0  0
  -25.6530  -24.5010   17.9840 C   0  0  0  0  0  3  0  0  0  0  0  0
  -24.7370  -23.6330   18.6060 C   0  0  0  0  0  3  0  0  0  0  0  0
  -26.6210  -25.0360   20.1530 C   0  0  0  0  0  3  0  0  0  0  0  0
  -26.5730  -25.2420   18.7570 C   0  0  0  0  0  0  0  0  0  0  0  0
  -24.7370  -23.4790   20.0070 C   0  0  0  0  0  0  0  0  0  0  0  0
  -25.7060  -24.1640   20.7830 C   0  0  0  0  0  0  0  0  0  0  0  0
  -23.6810  -22.5930   20.6510 C   0  0  0  0  0  1  0  0  0  0  0  0
  -27.4290  -26.3110   18.0700 C   0  0  0  0  0  2  0  0  0  0  0  0
  -27.6680  -27.5170   18.8190 O   0  0  0  0  0  0  0  0  0  0  0  0
  -25.1540  -31.8880   23.8220 C   0  0  0  0  0  0  0  0  0  0  0  0
  -26.6100  -28.3270   19.1890 C   0  0  0  0  0  0  0  0  0  0  0  0
  -23.5110  -31.1150   22.1470 C   0  0  0  0  0  3  0  0  0  0  0  0
  -24.4780  -29.9540   20.0970 C   0  0  0  0  0  0  0  0  0  0  0  0
  -25.9920  -31.3030   21.5510 C   0  0  0  0  0  2  0  0  0  0  0  0
  -25.7780  -30.1730   20.5680 C   0  0  0  0  0  0  0  0  0  0  0  0
  -26.8430  -29.3550   20.1300 C   0  0  0  0  0  3  0  0  0  0  0  0
  -25.2970  -28.1600   18.6880 C   0  0  0  0  0  3  0  0  0  0  0  0
  -24.2320  -28.9420   19.1590 C   0  0  0  0  0  3  0  0  0  0  0  0
  -23.3850  -30.8520   20.6240 C   0  0  0  0  0  2  0  0  0  0  0  0
  -24.9140  -31.4350   22.5590 N   0  0  0  0  0  0  0  0  0  0  0  0
  -24.2260  -32.0780   24.6200 O   0  0  0  0  0  0  0  0  0  0  0  0
  -22.9070  -29.9130   22.9080 C   0  0  0  0  0  0  0  0  0  0  0  0
  -21.5880  -29.7170   22.7640 N   0  0  0  0  0  0  0  0  0  0  0  0
  -23.6230  -29.1700   23.5880 O   0  0  0  0  0  0  0  0  0  0  0  0
  -21.0710  -30.3740   22.1960 H   0  0  0  0  0  0  0  0  0  0  0  0
  -18.3420  -28.1290   22.7800 C   0  0  0  0  0  0  0  0  0  0  0  0
  -20.8120  -28.6280   23.3550 C   0  0  0  0  0  3  0  0  0  0  0  0
  -21.1410  -27.2810   22.6720 C   0  0  0  0  0  2  0  0  0  0  0  0
  -20.1860  -26.9380   21.5230 C   0  0  0  0  0  2  0  0  0  0  0  0
  -18.7390  -26.8750   22.0190 C   0  0  0  0  0  2  0  0  0  0  0  0
  -19.3160  -28.9600   23.3930 C   0  0  0  0  0  0  0  0  0  0  0  0
  -18.8940  -30.1320   24.0580 C   0  0  0  0  0  3  0  0  0  0  0  0
  -17.5320  -30.4780   24.1150 C   0  0  0  0  0  3  0  0  0  0  0  0
  -16.5710  -29.6450   23.5190 C   0  0  0  0  0  3  0  0  0  0  0  0
  -16.9750  -28.4700   22.8590 C   0  0  0  0  0  3  0  0  0  0  0  0
  -26.5990  -32.2100   24.3130 C   0  0  0  0  0  3  0  0  0  0  0  0
  -27.1600  -31.1440   25.3310 C   0  0  1  0  0  0  0  0  0  0  0  0
  -26.2090  -30.8560   26.5170 C   0  0  0  0  0  1  0  0  0  0  0  0
  -27.4440  -29.8020   24.6150 C   0  0  0  0  0  1  0  0  0  0  0  0
  -28.5090  -31.6320   25.9080 C   0  0  0  0  0  1  0  0  0  0  0  0
  -26.5730  -33.5460   24.9210 N   0  0  0  0  0  0  0  0  0  0  0  0
  -26.9680  -34.6690   24.3070 C   0  0  0  0  0  0  0  0  0  0  0  0
  -27.4720  -34.6750   23.1790 O   0  0  0  0  0  0  0  0  0  0  0  0
  -26.1240  -33.6210   25.8210 H   0  0  0  0  0  0  0  0  0  0  0  0
  -25.5210  -36.7120   24.5370 C   0  0  0  0  0  1  0  0  0  0  0  0
  -26.7750  -35.9960   25.0630 C   0  0  0  0  0  3  0  0  0  0  0  0
  -29.1150  -36.4100   25.6830 C   0  0  0  0  0  1  0  0  0  0  0  0
  -27.9400  -36.9020   24.9680 N   0  0  0  0  0  0  0  0  0  0  0  0
  -27.7120  -37.8250   25.3260 H   0  0  0  0  0  0  0  0  0  0  0  0
  -26.9660  -23.2990   22.6090 C   0  0  0  0  0  2  0  0  0  0  0  0
  -28.2540  -24.1050   22.3530 C   0  0  0  0  0  2  0  0  0  0  0  0
  -29.5150  -23.2340   22.4810 C   0  0  0  0  0  2  0  0  0  0  0  0
  -29.6210  -22.3060   21.3350 N   0  0  0  0  0  4  0  0  0  0  0  0
  -28.7000  -21.9440   21.1550 H   0  0  0  0  0  0  0  0  0  0  0  0
  -29.9150  -22.8230   20.5200 H   0  0  0  0  0  0  0  0  0  0  0  0
  -30.5300  -21.1590   21.5400 C   0  0  0  0  0  2  0  0  0  0  0  0
  -30.4170  -20.1340   20.3900 C   0  0  0  0  0  2  0  0  0  0  0  0
  -30.8280  -18.6910   20.8250 C   0  0  0  0  0  2  0  0  0  0  0  0
  -31.8080  -17.6880   20.1390 C   0  0  0  0  0  2  0  0  0  0  0  0
  -31.9350  -15.2240   19.8270 C   0  0  0  0  0  0  0  0  0  0  0  0
  -31.6530  -12.8320   19.3180 C   0  0  0  0  0  2  0  0  0  0  0  0
  -30.7180  -12.6550   18.1050 C   0  0  0  0  0  2  0  0  0  0  0  0
  -29.2410  -12.6350   18.5460 C   0  0  0  0  0  2  0  0  0  0  0  0
  -28.8840  -13.8130   19.4880 C   0  0  0  0  0  3  0  0  0  0  0  0
  -29.9210  -13.9330   20.6260 C   0  0  0  0  0  2  0  0  0  0  0  0
  -31.2580  -14.0640   20.0160 N   0  0  0  0  0  0  0  0  0  0  0  0
  -33.0000  -15.3030   19.2050 O   0  0  0  0  0  0  0  0  0  0  0  0
  -31.3380  -16.3150   20.3200 N   0  0  0  0  0  0  0  0  0  0  0  0
  -30.4730  -16.1760   20.8210 H   0  0  0  0  0  0  0  0  0  0  0  0
  -26.6240  -14.6740   20.3760 C   0  0  0  0  0  0  0  0  0  0  0  0
  -25.4740  -14.0210   20.7310 C   0  0  0  0  0  0  0  0  0  0  0  0
  -25.7370  -12.6300   20.5510 C   0  0  0  0  0  0  0  0  0  0  0  0
  -27.5240  -13.6840   20.0090 N   0  0  0  0  0  0  0  0  0  0  0  0
  -26.9950  -12.4450   20.1680 N   0  0  0  0  0  0  0  0  0  0  0  0
  -24.8510  -11.4640   20.6660 C   0  0  0  0  0  0  0  0  0  0  0  0
  -25.1710  -10.3710   21.5000 C   0  0  0  0  0  3  0  0  0  0  0  0
  -24.2910   -9.2710   21.6070 C   0  0  0  0  0  3  0  0  0  0  0  0
  -23.0780   -9.2590   20.8780 C   0  0  0  0  0  0  0  0  0  0  0  0
  -22.7760  -10.3400   20.0330 C   0  0  0  0  0  3  0  0  0  0  0  0
  -23.6540  -11.4310   19.9230 C   0  0  0  0  0  3  0  0  0  0  0  0
  -22.1770   -8.2220   20.9000 O   0  0  0  0  0  0  0  0  0  0  0  0
  -21.9820   -7.4610   22.0250 C   0  0  0  0  0  0  0  0  0  0  0  0
  -21.6080   -8.0380   23.2590 C   0  0  0  0  0  3  0  0  0  0  0  0
  -21.3490   -7.2120   24.3700 C   0  0  0  0  0  3  0  0  0  0  0  0
  -21.4560   -5.8130   24.2500 C   0  0  0  0  0  0  0  0  0  0  0  0
  -21.8250   -5.2390   23.0210 C   0  0  0  0  0  3  0  0  0  0  0  0
  -22.0840   -6.0610   21.9110 C   0  0  0  0  0  0  0  0  0  0  0  0
  -22.4190   -5.5010   20.7240 F   0  0  0  0  0  0  0  0  0  0  0  0
  -21.2000   -5.0190   25.3160 F   0  0  0  0  0  0  0  0  0  0  0  0
  -24.1720  -14.6570   21.1250 C   0  0  0  0  0  0  0  0  0  0  0  0
  -23.3970  -13.9910   21.9750 N   0  0  0  0  0  0  0  0  0  0  0  0
  -23.8550  -15.7730   20.7170 O   0  0  0  0  0  0  0  0  0  0  0  0
  -23.6660  -13.0850   22.3290 H   0  0  0  0  0  0  0  0  0  0  0  0
  -22.5240  -14.3990   22.2780 H   0  0  0  0  0  0  0  0  0  0  0  0
  -26.9730  -16.0190   20.3160 N   0  0  0  0  0  0  0  0  0  0  0  0
  -26.3110  -16.7580   20.5320 H   0  0  0  0  0  0  0  0  0  0  0  0
  -27.8650  -16.3690   19.9890 H   0  0  0  0  0  0  0  0  0  0  0  0
  1  2  1  0
  1 52  1  0
  3  4  2  0
  3  6  1  0
  4  7  1  0
  5  8  1  0
  6  5  2  0
  7  9  1  0
  7  8  2  0
  8  1  1  0
 10  6  1  0
 10 11  1  0
 11 13  1  0
 12 23  2  0
 13 18  1  0
 14 22  1  0
 14 24  1  0
 15 17  1  0
 15 21  1  0
 16 22  1  0
 17 16  1  0
 18 17  2  0
 19 20  1  0
 19 13  2  0
 20 15  2  0
 21 14  1  0
 22 12  1  0
 24 26  2  0
 25 24  1  0
 27 25  1  0
 28 37  2  0
 28 33  1  0
 29 25  1  0
 29 33  1  0
 30 29  1  0
 31 32  1  0
 31 30  1  0
 32 28  1  0
 33 34  2  0
 34 35  1  0
 36 35  2  0
 37 36  1  0
 38 12  1  0
 38 43  1  0
 38 39  1  0
 39 42  1  1
 39 40  1  0
 41 39  1  0
 43 46  1  0
 44 43  1  0
 44 48  1  0
 45 44  2  0
 48 47  1  0
 50 48  1  0
 50 51  1  0
 50 49  1  0
 53 54  1  0
 53 52  1  0
 55 58  1  0
 55 54  1  0
 56 55  1  0
 57 55  1  0
 59 60  1  0
 59 58  1  0
 61 70  1  0
 61 60  1  0
 62 68  1  0
 62 70  1  0
 63 68  1  0
 64 65  1  0
 64 63  1  0
 66 65  1  0
 66 75  1  0
 66 67  1  0
 68 67  1  0
 69 62  2  0
 70 71  1  0
 72 73  2  0
 73 92  1  0
 74 77  1  0
 74 73  1  0
 75 76  1  0
 75 72  1  0
 76 74  2  0
 77 78  1  0
 78 79  2  0
 80 83  1  0
 80 79  1  0
 81 80  2  0
 82 81  1  0
 82 77  2  0
 83 84  1  0
 84 85  1  0
 85 86  2  0
 87 86  1  0
 87 91  1  0
 88 87  2  0
 89 84  2  0
 89 88  1  0
 90 89  1  0
 92 93  1  0
 93 96  1  0
 93 95  1  0
 94 92  2  0
 97 72  1  0
 97 98  1  0
 99 97  1  0
M  ISO  4  10 101  11 101  62 100  70 100
M  END
>  <TORSDO>  (46) 
F 26

>  <SCORE>  (46) 
-7.231

>  <name>  (46) 
45

>  <ligand_id>  (46) 
45

>  <original_smiles>  (46) 
[H]c1c([H])c([H])c2c(c1[H])C([H])([H])C([H])([H])C([H])([H])C2([H])N([H])C(=O)C1([H])N(C(=O)C([H])(N([H])C(=O)C([H])(N([H])C([H])([H])[H])C([H])([H])[H])C(C([H])([H])[H])(C([H])([H])[H])C([H])([H])[H])C([H])([H])c2c([H])c(OC([H])([H])c3c([H])c([H])c(C([H])([H])[H])c(N([H])C([H])([H])C([H])([H])C([H])([H])[N+]([H])([H])C([H])([H])C([H])([H])C([H])([H])C([H])([H])N([H])C(=O)N4C([H])([H])C([H])([H])C([H])([H])C([H])(n5nc(-c6c([H])c([H])c(Oc7c([H])c([H])c(F)c([H])c7F)c([H])c6[H])c(C(=O)N([H])[H])c5N([H])[H])C4([H])[H])c3[H])c([H])c([H])c2C1([H])[H]

>  <smiles>  (46) 
[H]c1c([H])c([H])c2c(c1[H])C([H])([H])C([H])([H])C([H])([H])C2([H])N([H])C(=O)C1([H])N(C(=O)C([H])(N([H])C(=O)C([H])(N([H])C([H])([H])[H])C([H])([H])[H])C(C([H])([H])[H])(C([H])([H])[H])C([H])([H])[H])C([H])([H])c2c([H])c(OC([H])([H])c3c([H])c([H])c(C([H])([H])[H])c(N([H])C([H])([H])C([H])([H])C([H])([H])[N+]([H])([H])C([H])([H])C([H])([H])C([H])([H])C([H])([H])N([H])C(=O)N4C([H])([H])C([H])([H])C([H])([H])C([H])(n5nc(-c6c([H])c([H])c(Oc7c([H])c([H])c(F)c([H])c7F)c([H])c6[H])c(C(=O)N([H])[H])c5N([H])[H])C4([H])[H])c3[H])c([H])c([H])c2C1([H])[H]

$$$$
46:0:0
     RDKit          3D

100108  0  0  1  0  0  0  0  0999 V2000
  -24.8630  -22.8500   16.9210 C   0  0  0  0  0  3  0  0  0  0  0  0
  -24.5140  -24.1300   16.4480 C   0  0  0  0  0  3  0  0  0  0  0  0
  -27.1300  -23.6340   17.3190 C   0  0  0  0  0  3  0  0  0  0  0  0
  -26.1730  -22.5990   17.3730 C   0  0  0  0  0  0  0  0  0  0  0  0
  -25.4600  -25.1780   16.4340 C   0  0  0  0  0  0  0  0  0  0  0  0
  -26.7840  -24.9370   16.8850 C   0  0  0  0  0  0  0  0  0  0  0  0
  -25.0220  -26.5440   15.9250 C   0  0  0  0  0  1  0  0  0  0  0  0
  -26.5770  -21.2250   17.8940 C   0  0  0  0  0  2  0  0  0  0  0  0
  -26.9860  -21.2060   19.3920 C   0  0  0  0  0  2  0  0  0  0  0  0
  -28.3540  -20.6680   19.5790 N   0  0  0  0  0  4  0  0  0  0  0  0
  -29.0010  -21.3680   19.2520 H   0  0  0  0  0  0  0  0  0  0  0  0
  -28.4410  -19.8580   18.9860 H   0  0  0  0  0  0  0  0  0  0  0  0
  -28.7180  -20.2780   20.9660 C   0  0  0  0  0  2  0  0  0  0  0  0
  -30.2510  -20.1190   21.1800 C   0  0  0  0  0  2  0  0  0  0  0  0
  -30.9650  -18.9450   20.4580 C   0  0  0  0  0  2  0  0  0  0  0  0
  -30.7390  -17.6210   21.0830 N   0  0  0  0  0  4  0  0  0  0  0  0
  -31.0540  -17.6560   22.0390 H   0  0  0  0  0  0  0  0  0  0  0  0
  -29.7540  -17.4200   21.0930 H   0  0  0  0  0  0  0  0  0  0  0  0
  -31.4390  -16.5000   20.4030 C   0  0  0  0  0  2  0  0  0  0  0  0
  -31.0280  -15.1340   20.9860 C   0  0  0  0  0  2  0  0  0  0  0  0
  -31.5400  -13.9220   20.1770 C   0  0  0  0  0  0  0  0  0  0  0  0
  -31.1190  -11.6480   19.2950 C   0  0  0  0  0  2  0  0  0  0  0  0
  -30.1740  -11.7080   18.0790 C   0  0  0  0  0  2  0  0  0  0  0  0
  -28.6950  -11.7390   18.5230 C   0  0  0  0  0  2  0  0  0  0  0  0
  -28.4300  -12.7960   19.6290 C   0  0  0  0  0  3  0  0  0  0  0  0
  -29.4630  -12.6300   20.7650 C   0  0  0  0  0  2  0  0  0  0  0  0
  -30.8040  -12.7830   20.1730 N   0  0  0  0  0  0  0  0  0  0  0  0
  -32.5960  -14.0290   19.5420 O   0  0  0  0  0  0  0  0  0  0  0  0
  -26.1460  -13.7310   20.3740 C   0  0  0  0  0  0  0  0  0  0  0  0
  -24.9920  -13.1110   20.7690 C   0  0  0  0  0  0  0  0  0  0  0  0
  -25.2670  -11.7100   20.7330 C   0  0  0  0  0  0  0  0  0  0  0  0
  -27.0600  -12.7160   20.1310 N   0  0  0  0  0  0  0  0  0  0  0  0
  -26.5310  -11.4950   20.3960 N   0  0  0  0  0  0  0  0  0  0  0  0
  -24.3840  -10.5560   20.9430 C   0  0  0  0  0  0  0  0  0  0  0  0
  -24.7120   -9.5340   21.8610 C   0  0  0  0  0  3  0  0  0  0  0  0
  -23.8400   -8.4420   22.0600 C   0  0  0  0  0  3  0  0  0  0  0  0
  -22.6260   -8.3650   21.3360 C   0  0  0  0  0  0  0  0  0  0  0  0
  -22.3150   -9.3730   20.4060 C   0  0  0  0  0  3  0  0  0  0  0  0
  -23.1860  -10.4560   20.2080 C   0  0  0  0  0  3  0  0  0  0  0  0
  -21.7280   -7.3310   21.4470 O   0  0  0  0  0  0  0  0  0  0  0  0
  -21.6150   -6.5960   22.6010 C   0  0  0  0  0  0  0  0  0  0  0  0
  -21.3130   -7.1990   23.8420 C   0  0  0  0  0  3  0  0  0  0  0  0
  -21.1340   -6.3980   24.9880 C   0  0  0  0  0  3  0  0  0  0  0  0
  -21.2500   -4.9990   24.8940 C   0  0  0  0  0  0  0  0  0  0  0  0
  -21.5420   -4.3970   23.6590 C   0  0  0  0  0  3  0  0  0  0  0  0
  -21.7210   -5.1950   22.5150 C   0  0  0  0  0  0  0  0  0  0  0  0
  -21.9840   -4.6060   21.3220 F   0  0  0  0  0  0  0  0  0  0  0  0
  -21.0690   -4.2300   25.9940 F   0  0  0  0  0  0  0  0  0  0  0  0
  -23.6780  -13.7690   21.0740 C   0  0  0  0  0  0  0  0  0  0  0  0
  -22.8910  -13.1810   21.9680 N   0  0  0  0  0  0  0  0  0  0  0  0
  -23.3610  -14.8380   20.5530 O   0  0  0  0  0  0  0  0  0  0  0  0
  -23.1620  -12.3140   22.4100 H   0  0  0  0  0  0  0  0  0  0  0  0
  -22.0060  -13.6010   22.2140 H   0  0  0  0  0  0  0  0  0  0  0  0
  -26.4900  -15.0670   20.1830 N   0  0  0  0  0  0  0  0  0  0  0  0
  -25.8130  -15.8160   20.2810 H   0  0  0  0  0  0  0  0  0  0  0  0
  -27.3640  -15.3730   19.7770 H   0  0  0  0  0  0  0  0  0  0  0  0
  -27.8140  -26.0730   16.9110 C   0  0  0  0  0  2  0  0  0  0  0  0
  -28.9680  -25.9190   17.9210 C   0  0  0  0  0  2  0  0  0  0  0  0
  -28.5630  -25.8110   19.4090 C   0  0  0  0  0  2  0  0  0  0  0  0
  -28.4200  -27.0870   20.0240 O   0  0  0  0  0  0  0  0  0  0  0  0
  -24.5990  -31.9950   23.4250 C   0  0  0  0  0  0  0  0  0  0  0  0
  -27.1990  -27.7250   20.0750 C   0  0  0  0  0  0  0  0  0  0  0  0
  -23.3610  -30.6730   21.7360 C   0  0  0  0  0  3  0  0  0  0  0  0
  -24.7900  -29.2030   20.2220 C   0  0  0  0  0  0  0  0  0  0  0  0
  -25.8790  -31.0420   21.5120 C   0  0  0  0  0  2  0  0  0  0  0  0
  -25.9540  -29.7040   20.8130 C   0  0  0  0  0  0  0  0  0  0  0  0
  -27.1560  -28.9710   20.7400 C   0  0  0  0  0  3  0  0  0  0  0  0
  -26.0060  -27.2230   19.5040 C   0  0  0  0  0  3  0  0  0  0  0  0
  -24.8070  -27.9580   19.5690 C   0  0  0  0  0  3  0  0  0  0  0  0
  -23.5480  -30.0550   20.3250 C   0  0  0  0  0  2  0  0  0  0  0  0
  -24.6320  -31.2480   22.2850 N   0  0  0  0  0  0  0  0  0  0  0  0
  -23.5270  -32.2520   23.9920 O   0  0  0  0  0  0  0  0  0  0  0  0
  -22.7250  -29.6090   22.6590 C   0  0  0  0  0  0  0  0  0  0  0  0
  -21.4030  -29.4150   22.5260 N   0  0  0  0  0  0  0  0  0  0  0  0
  -23.4180  -28.9630   23.4510 O   0  0  0  0  0  0  0  0  0  0  0  0
  -20.9060  -29.9960   21.8640 H   0  0  0  0  0  0  0  0  0  0  0  0
  -18.0560  -28.1130   22.9220 C   0  0  0  0  0  0  0  0  0  0  0  0
  -20.5970  -28.4390   23.2590 C   0  0  0  0  0  3  0  0  0  0  0  0
  -20.7580  -27.0210   22.6600 C   0  0  0  0  0  2  0  0  0  0  0  0
  -19.6900  -26.6850   21.6150 C   0  0  0  0  0  2  0  0  0  0  0  0
  -18.2880  -26.7810   22.2250 C   0  0  0  0  0  2  0  0  0  0  0  0
  -19.1430  -28.8990   23.3910 C   0  0  0  0  0  0  0  0  0  0  0  0
  -18.8730  -30.1450   23.9980 C   0  0  0  0  0  3  0  0  0  0  0  0
  -17.5520  -30.6060   24.1430 C   0  0  0  0  0  3  0  0  0  0  0  0
  -16.4790  -29.8170   23.6930 C   0  0  0  0  0  3  0  0  0  0  0  0
  -16.7340  -28.5730   23.0860 C   0  0  0  0  0  3  0  0  0  0  0  0
  -25.8970  -32.5930   24.0540 C   0  0  0  0  0  3  0  0  0  0  0  0
  -25.6170  -33.9900   24.4070 N   0  0  0  0  0  0  0  0  0  0  0  0
  -25.9660  -35.0460   23.6600 C   0  0  0  0  0  0  0  0  0  0  0  0
  -26.6330  -34.9450   22.6260 O   0  0  0  0  0  0  0  0  0  0  0  0
  -25.0310  -34.1470   25.2140 H   0  0  0  0  0  0  0  0  0  0  0  0
  -24.2680  -36.8700   23.3300 C   0  0  0  0  0  1  0  0  0  0  0  0
  -25.5040  -36.4360   24.1360 C   0  0  0  0  0  3  0  0  0  0  0  0
  -27.6570  -37.2750   24.9660 C   0  0  0  0  0  1  0  0  0  0  0  0
  -26.5530  -37.4720   24.0300 N   0  0  0  0  0  0  0  0  0  0  0  0
  -26.1650  -38.3970   24.1930 H   0  0  0  0  0  0  0  0  0  0  0  0
  -26.4080  -31.7910   25.3140 C   0  0  1  0  0  0  0  0  0  0  0  0
  -25.3180  -31.5580   26.3830 C   0  0  0  0  0  1  0  0  0  0  0  0
  -26.9620  -30.4090   24.8920 C   0  0  0  0  0  1  0  0  0  0  0  0
  -27.5770  -32.5530   25.9840 C   0  0  0  0  0  1  0  0  0  0  0  0
  1  4  1  0
  2  1  2  0
  3  4  2  0
  4  8  1  0
  5  2  1  0
  5  6  2  0
  6 57  1  0
  6  3  1  0
  7  5  1  0
  8  9  1  0
  9 10  1  0
 10 13  1  0
 11 10  1  0
 12 10  1  0
 13 14  1  0
 15 16  1  0
 15 14  1  0
 16 18  1  0
 16 17  1  0
 19 20  1  0
 19 16  1  0
 21 20  1  0
 22 27  1  0
 23 24  1  0
 23 22  1  0
 25 24  1  0
 25 32  1  0
 25 26  1  0
 27 21  1  0
 27 26  1  0
 28 21  2  0
 29 30  2  0
 30 49  1  0
 31 30  1  0
 31 34  1  0
 32 29  1  0
 32 33  1  0
 33 31  2  0
 34 35  1  0
 35 36  2  0
 37 40  1  0
 37 36  1  0
 38 37  2  0
 39 38  1  0
 39 34  2  0
 40 41  1  0
 41 42  1  0
 42 43  2  0
 44 43  1  0
 44 48  1  0
 45 44  2  0
 46 41  2  0
 46 45  1  0
 47 46  1  0
 49 50  1  0
 50 53  1  0
 50 52  1  0
 51 49  2  0
 54 55  1  0
 54 29  1  0
 56 54  1  0
 57 58  1  0
 58 59  1  0
 59 60  1  0
 60 62  1  0
 61 72  2  0
 62 67  1  0
 63 71  1  0
 63 73  1  0
 64 70  1  0
 64 66  1  0
 65 71  1  0
 66 65  1  0
 67 66  2  0
 68 69  1  0
 68 62  2  0
 69 64  2  0
 70 63  1  0
 71 61  1  0
 73 75  2  0
 74 73  1  0
 76 74  1  0
 77 86  2  0
 77 82  1  0
 78 74  1  0
 78 82  1  0
 79 78  1  0
 80 81  1  0
 80 79  1  0
 81 77  1  0
 82 83  2  0
 83 84  1  0
 85 84  2  0
 86 85  1  0
 87 61  1  0
 87 88  1  0
 87 97  1  0
 88 91  1  0
 89 93  1  0
 89 88  1  0
 90 89  2  0
 93 92  1  0
 95 93  1  0
 95 96  1  0
 95 94  1  0
 97100  1  1
 97 98  1  0
 99 97  1  0
M  ISO  4  20 100  21 100  59 101  60 101
M  END
>  <TORSDO>  (47) 
F 28

>  <SCORE>  (47) 
-10.291

>  <name>  (47) 
46

>  <ligand_id>  (47) 
46

>  <original_smiles>  (47) 
[H]c1c([H])c([H])c2c(c1[H])C([H])([H])C([H])([H])C([H])([H])C2([H])N([H])C(=O)C1([H])N(C(=O)C([H])(N([H])C(=O)C([H])(N([H])C([H])([H])[H])C([H])([H])[H])C(C([H])([H])[H])(C([H])([H])[H])C([H])([H])[H])C([H])([H])c2c([H])c(OC([H])([H])C([H])([H])C([H])([H])c3c([H])c(C([H])([H])C([H])([H])[N+]([H])([H])C([H])([H])C([H])([H])C([H])([H])[N+]([H])([H])C([H])([H])C([H])([H])C(=O)N4C([H])([H])C([H])([H])C([H])([H])C([H])(n5nc(-c6c([H])c([H])c(Oc7c([H])c([H])c(F)c([H])c7F)c([H])c6[H])c(C(=O)N([H])[H])c5N([H])[H])C4([H])[H])c([H])c([H])c3C([H])([H])[H])c([H])c([H])c2C1([H])[H]

>  <smiles>  (47) 
[H]c1c([H])c([H])c2c(c1[H])C([H])([H])C([H])([H])C([H])([H])C2([H])N([H])C(=O)C1([H])N(C(=O)C([H])(N([H])C(=O)C([H])(N([H])C([H])([H])[H])C([H])([H])[H])C(C([H])([H])[H])(C([H])([H])[H])C([H])([H])[H])C([H])([H])c2c([H])c(OC([H])([H])C([H])([H])C([H])([H])c3c([H])c(C([H])([H])C([H])([H])[N+]([H])([H])C([H])([H])C([H])([H])C([H])([H])[N+]([H])([H])C([H])([H])C([H])([H])C(=O)N4C([H])([H])C([H])([H])C([H])([H])C([H])(n5nc(-c6c([H])c([H])c(Oc7c([H])c([H])c(F)c([H])c7F)c([H])c6[H])c(C(=O)N([H])[H])c5N([H])[H])C4([H])[H])c([H])c([H])c3C([H])([H])[H])c([H])c([H])c2C1([H])[H]

$$$$
47:0:0
     RDKit          3D

 98106  0  0  1  0  0  0  0  0999 V2000
  -29.0480  -21.5500   22.6760 C   0  0  0  0  0  2  0  0  0  0  0  0
  -28.5260  -22.9530   22.3430 C   0  0  0  0  0  2  0  0  0  0  0  0
  -30.9050  -23.1230   22.7170 C   0  0  0  0  0  2  0  0  0  0  0  0
  -30.4860  -21.7260   23.2050 C   0  0  0  0  0  3  0  0  0  0  0  0
  -29.6110  -23.9460   22.7980 C   0  0  0  0  0  3  0  0  0  0  0  0
  -29.6540  -25.1930   21.9920 N   0  0  0  0  0  4  0  0  0  0  0  0
  -29.7370  -24.9440   21.0180 H   0  0  0  0  0  0  0  0  0  0  0  0
  -30.4870  -25.7110   22.2360 H   0  0  0  0  0  0  0  0  0  0  0  0
  -28.4730  -26.0790   22.1560 C   0  0  0  0  0  2  0  0  0  0  0  0
  -28.4230  -27.1900   21.0940 C   0  0  0  0  0  2  0  0  0  0  0  0
  -27.1090  -27.7390   21.0670 O   0  0  0  0  0  0  0  0  0  0  0  0
  -28.0040  -31.5820   27.0340 C   0  0  0  0  0  0  0  0  0  0  0  0
  -26.6030  -28.2890   22.2200 C   0  0  0  0  0  0  0  0  0  0  0  0
  -25.8270  -30.4240   26.7920 C   0  0  0  0  0  3  0  0  0  0  0  0
  -25.3690  -29.4090   24.4980 C   0  0  0  0  0  0  0  0  0  0  0  0
  -27.1670  -31.1330   24.7350 C   0  0  0  0  0  2  0  0  0  0  0  0
  -26.5710  -29.9440   24.0160 C   0  0  0  0  0  0  0  0  0  0  0  0
  -27.1960  -29.3860   22.8830 C   0  0  0  0  0  3  0  0  0  0  0  0
  -25.3910  -27.7620   22.7110 C   0  0  0  0  0  3  0  0  0  0  0  0
  -24.7760  -28.3100   23.8540 C   0  0  0  0  0  3  0  0  0  0  0  0
  -24.7660  -30.0760   25.7130 C   0  0  0  0  0  2  0  0  0  0  0  0
  -27.0590  -31.0500   26.2090 N   0  0  0  0  0  0  0  0  0  0  0  0
  -27.8440  -31.6010   28.2620 O   0  0  0  0  0  0  0  0  0  0  0  0
  -26.1220  -29.1520   27.6170 C   0  0  0  0  0  0  0  0  0  0  0  0
  -25.4560  -29.0260   28.7760 N   0  0  0  0  0  0  0  0  0  0  0  0
  -26.9070  -28.2950   27.2020 O   0  0  0  0  0  0  0  0  0  0  0  0
  -24.8380  -29.7770   29.0480 H   0  0  0  0  0  0  0  0  0  0  0  0
  -24.6200  -27.9290   32.1140 C   0  0  0  0  0  0  0  0  0  0  0  0
  -25.5430  -27.8960   29.7000 C   0  0  0  0  0  3  0  0  0  0  0  0
  -24.4440  -26.8500   29.4020 C   0  0  0  0  0  2  0  0  0  0  0  0
  -23.1720  -27.0590   30.2290 C   0  0  0  0  0  2  0  0  0  0  0  0
  -23.4880  -26.9920   31.7270 C   0  0  0  0  0  2  0  0  0  0  0  0
  -25.5750  -28.3660   31.1580 C   0  0  0  0  0  0  0  0  0  0  0  0
  -26.5870  -29.2650   31.5610 C   0  0  0  0  0  3  0  0  0  0  0  0
  -26.6540  -29.7230   32.8900 C   0  0  0  0  0  3  0  0  0  0  0  0
  -25.7160  -29.2740   33.8350 C   0  0  0  0  0  3  0  0  0  0  0  0
  -24.7050  -28.3760   33.4480 C   0  0  0  0  0  3  0  0  0  0  0  0
  -29.3180  -32.2150   26.4750 C   0  0  0  0  0  3  0  0  0  0  0  0
  -30.5550  -31.2370   26.5330 C   0  0  1  0  0  0  0  0  0  0  0  0
  -30.7480  -30.5610   27.9110 C   0  0  0  0  0  1  0  0  0  0  0  0
  -30.4160  -30.1200   25.4720 C   0  0  0  0  0  1  0  0  0  0  0  0
  -31.8520  -32.0100   26.1950 C   0  0  0  0  0  1  0  0  0  0  0  0
  -29.5830  -33.4370   27.2450 N   0  0  0  0  0  0  0  0  0  0  0  0
  -29.4310  -34.6800   26.7710 C   0  0  0  0  0  0  0  0  0  0  0  0
  -29.1190  -34.9190   25.6010 O   0  0  0  0  0  0  0  0  0  0  0  0
  -29.7880  -33.3170   28.2260 H   0  0  0  0  0  0  0  0  0  0  0  0
  -28.3180  -36.5290   28.0640 C   0  0  0  0  0  1  0  0  0  0  0  0
  -29.6590  -35.8460   27.7520 C   0  0  0  0  0  3  0  0  0  0  0  0
  -31.9950  -36.3420   27.1770 C   0  0  0  0  0  1  0  0  0  0  0  0
  -30.6280  -36.8490   27.2580 N   0  0  0  0  0  0  0  0  0  0  0  0
  -30.6290  -37.6720   27.8540 H   0  0  0  0  0  0  0  0  0  0  0  0
  -31.4060  -20.6470   22.7710 N   0  0  0  0  0  4  0  0  0  0  0  0
  -32.1440  -20.5720   23.4560 H   0  0  0  0  0  0  0  0  0  0  0  0
  -31.8350  -20.9140   21.9010 H   0  0  0  0  0  0  0  0  0  0  0  0
  -30.7710  -19.3110   22.6440 C   0  0  0  0  0  2  0  0  0  0  0  0
  -31.1480  -18.5750   21.3370 C   0  0  0  0  0  2  0  0  0  0  0  0
  -30.7590  -19.2970   20.0230 C   0  0  0  0  0  2  0  0  0  0  0  0
  -29.3330  -19.7030   19.9770 N   0  0  0  0  0  4  0  0  0  0  0  0
  -28.7740  -18.9440   20.3360 H   0  0  0  0  0  0  0  0  0  0  0  0
  -29.1870  -20.5000   20.5740 H   0  0  0  0  0  0  0  0  0  0  0  0
  -28.8310  -20.0500   18.6250 C   0  0  0  0  0  2  0  0  0  0  0  0
  -27.3820  -20.5770   18.6830 C   0  0  0  0  0  2  0  0  0  0  0  0
  -26.5840  -20.4250   17.3760 C   0  0  0  0  0  0  0  0  0  0  0  0
  -24.3690  -20.3230   16.2720 C   0  0  0  0  0  2  0  0  0  0  0  0
  -23.9230  -21.6700   15.6760 C   0  0  0  0  0  2  0  0  0  0  0  0
  -23.2340  -22.5420   16.7430 C   0  0  0  0  0  2  0  0  0  0  0  0
  -24.0670  -22.6470   18.0470 C   0  0  0  0  0  3  0  0  0  0  0  0
  -24.5050  -21.2450   18.5240 C   0  0  0  0  0  2  0  0  0  0  0  0
  -25.2360  -20.5890   17.4260 N   0  0  0  0  0  0  0  0  0  0  0  0
  -27.1760  -20.1100   16.3370 O   0  0  0  0  0  0  0  0  0  0  0  0
  -23.8120  -24.2530   20.0470 C   0  0  0  0  0  0  0  0  0  0  0  0
  -22.7090  -24.6950   20.7290 C   0  0  0  0  0  0  0  0  0  0  0  0
  -21.5890  -24.0430   20.1300 C   0  0  0  0  0  0  0  0  0  0  0  0
  -23.3380  -23.3680   19.0900 N   0  0  0  0  0  0  0  0  0  0  0  0
  -21.9930  -23.2080   19.1810 N   0  0  0  0  0  0  0  0  0  0  0  0
  -20.1480  -24.2090   20.3640 C   0  0  0  0  0  0  0  0  0  0  0  0
  -19.3050  -23.0990   20.5920 C   0  0  0  0  0  3  0  0  0  0  0  0
  -17.9260  -23.2850   20.8320 C   0  0  0  0  0  3  0  0  0  0  0  0
  -17.3790  -24.5890   20.8500 C   0  0  0  0  0  0  0  0  0  0  0  0
  -18.2190  -25.6890   20.5990 C   0  0  0  0  0  3  0  0  0  0  0  0
  -19.5890  -25.5020   20.3560 C   0  0  0  0  0  3  0  0  0  0  0  0
  -16.0480  -24.8650   21.0490 O   0  0  0  0  0  0  0  0  0  0  0  0
  -15.2220  -23.9870   21.7050 C   0  0  0  0  0  0  0  0  0  0  0  0
  -15.3870  -23.6910   23.0750 C   0  0  0  0  0  3  0  0  0  0  0  0
  -14.4740  -22.8380   23.7260 C   0  0  0  0  0  3  0  0  0  0  0  0
  -13.3930  -22.2880   23.0130 C   0  0  0  0  0  0  0  0  0  0  0  0
  -13.2230  -22.5860   21.6500 C   0  0  0  0  0  3  0  0  0  0  0  0
  -14.1330  -23.4360   20.9980 C   0  0  0  0  0  0  0  0  0  0  0  0
  -13.9540  -23.7370   19.6900 F   0  0  0  0  0  0  0  0  0  0  0  0
  -12.5100  -21.4740   23.6400 F   0  0  0  0  0  0  0  0  0  0  0  0
  -22.6830  -25.7350   21.8110 C   0  0  0  0  0  0  0  0  0  0  0  0
  -21.7510  -25.6190   22.7510 N   0  0  0  0  0  0  0  0  0  0  0  0
  -23.5210  -26.6340   21.8550 O   0  0  0  0  0  0  0  0  0  0  0  0
  -21.0760  -24.8700   22.7270 H   0  0  0  0  0  0  0  0  0  0  0  0
  -21.7130  -26.2880   23.5060 H   0  0  0  0  0  0  0  0  0  0  0  0
  -25.1700  -24.5410   20.1490 N   0  0  0  0  0  0  0  0  0  0  0  0
  -25.5290  -25.2290   20.8020 H   0  0  0  0  0  0  0  0  0  0  0  0
  -25.8840  -24.1660   19.5370 H   0  0  0  0  0  0  0  0  0  0  0  0
  1  4  1  0
  2  1  1  0
  2  5  1  0
  3  5  1  0
  3  4  1  0
  4 52  1  0
  5  6  1  0
  6  9  1  0
  6  8  1  0
  7  6  1  0
 10  9  1  0
 11 10  1  0
 11 13  1  0
 12 23  2  0
 13 19  2  0
 13 18  1  0
 14 24  1  0
 15 21  1  0
 16 22  1  0
 17 15  1  0
 17 16  1  0
 18 17  2  0
 19 20  1  0
 20 15  2  0
 21 14  1  0
 22 14  1  0
 22 12  1  0
 24 25  1  0
 25 27  1  0
 26 24  2  0
 28 37  1  0
 29 25  1  0
 29 33  1  0
 30 29  1  0
 30 31  1  0
 31 32  1  0
 32 28  1  0
 33 34  1  0
 33 28  2  0
 34 35  2  0
 35 36  1  0
 37 36  2  0
 38 39  1  0
 38 12  1  0
 38 43  1  0
 39 40  1  1
 41 39  1  0
 42 39  1  0
 43 46  1  0
 44 43  1  0
 44 48  1  0
 45 44  2  0
 48 47  1  0
 49 50  1  0
 50 48  1  0
 50 51  1  0
 52 53  1  0
 54 52  1  0
 55 52  1  0
 56 55  1  0
 57 56  1  0
 58 57  1  0
 58 59  1  0
 58 60  1  0
 61 62  1  0
 61 58  1  0
 63 69  1  0
 63 62  1  0
 64 69  1  0
 65 64  1  0
 65 66  1  0
 67 66  1  0
 67 68  1  0
 67 74  1  0
 69 68  1  0
 70 63  2  0
 71 96  1  0
 71 72  2  0
 72 91  1  0
 73 76  1  0
 73 72  1  0
 74 75  1  0
 74 71  1  0
 75 73  2  0
 76 77  1  0
 77 78  2  0
 78 79  1  0
 79 82  1  0
 80 79  2  0
 81 76  2  0
 81 80  1  0
 82 83  1  0
 83 84  1  0
 84 85  2  0
 86 90  1  0
 86 85  1  0
 87 86  2  0
 88 87  1  0
 88 83  2  0
 89 88  1  0
 91 93  2  0
 91 92  1  0
 92 95  1  0
 94 92  1  0
 96 97  1  0
 98 96  1  0
M  ISO  4  10 101  11 101  62 100  63 100
M  END
>  <TORSDO>  (48) 
F 26

>  <SCORE>  (48) 
-3.752

>  <name>  (48) 
47

>  <ligand_id>  (48) 
47

>  <original_smiles>  (48) 
[H]c1c([H])c([H])c2c(c1[H])C([H])([H])C([H])([H])C([H])([H])C2([H])N([H])C(=O)C1([H])N(C(=O)C([H])(N([H])C(=O)C([H])(N([H])C([H])([H])[H])C([H])([H])[H])C(C([H])([H])[H])(C([H])([H])[H])C([H])([H])[H])C([H])([H])c2c([H])c(OC([H])([H])C([H])([H])[N+]([H])([H])C3([H])C([H])([H])C([H])([H])C([H])([N+]([H])([H])C([H])([H])C([H])([H])C([H])([H])[N+]([H])([H])C([H])([H])C([H])([H])C(=O)N4C([H])([H])C([H])([H])C([H])([H])C([H])(n5nc(-c6c([H])c([H])c(Oc7c([H])c([H])c(F)c([H])c7F)c([H])c6[H])c(C(=O)N([H])[H])c5N([H])[H])C4([H])[H])C3([H])[H])c([H])c([H])c2C1([H])[H]

>  <smiles>  (48) 
[H]c1c([H])c([H])c2c(c1[H])C([H])([H])C([H])([H])C([H])([H])C2([H])N([H])C(=O)C1([H])N(C(=O)C([H])(N([H])C(=O)C([H])(N([H])C([H])([H])[H])C([H])([H])[H])C(C([H])([H])[H])(C([H])([H])[H])C([H])([H])[H])C([H])([H])c2c([H])c(OC([H])([H])C([H])([H])[N+]([H])([H])C3([H])C([H])([H])C([H])([H])C([H])([N+]([H])([H])C([H])([H])C([H])([H])C([H])([H])[N+]([H])([H])C([H])([H])C([H])([H])C(=O)N4C([H])([H])C([H])([H])C([H])([H])C([H])(n5nc(-c6c([H])c([H])c(Oc7c([H])c([H])c(F)c([H])c7F)c([H])c6[H])c(C(=O)N([H])[H])c5N([H])[H])C4([H])[H])C3([H])[H])c([H])c([H])c2C1([H])[H]

$$$$
48:0:0
     RDKit          3D

 92 99  0  0  1  0  0  0  0  0999 V2000
  -30.7360  -21.6990   22.2720 C   0  0  0  0  0  0  0  0  0  0  0  0
  -30.6450  -22.7190   21.4140 N   0  0  0  0  0  0  0  0  0  0  0  0
  -29.9520  -21.5710   23.2180 O   0  0  0  0  0  0  0  0  0  0  0  0
  -31.3520  -22.8090   20.6940 H   0  0  0  0  0  0  0  0  0  0  0  0
  -31.8200  -20.6500   21.9960 C   0  0  0  0  0  2  0  0  0  0  0  0
  -31.6650  -19.3210   22.7840 C   0  0  0  0  0  2  0  0  0  0  0  0
  -30.3200  -18.5600   22.6410 C   0  0  0  0  0  2  0  0  0  0  0  0
  -29.9600  -18.2090   21.2470 N   0  0  0  0  0  4  0  0  0  0  0  0
  -28.9630  -18.0440   21.2100 H   0  0  0  0  0  0  0  0  0  0  0  0
  -30.1310  -19.0130   20.6650 H   0  0  0  0  0  0  0  0  0  0  0  0
  -30.6650  -17.0390   20.6700 C   0  0  0  0  0  2  0  0  0  0  0  0
  -30.0430  -15.6780   21.0740 C   0  0  0  0  0  2  0  0  0  0  0  0
  -30.7110  -14.4880   20.3610 C   0  0  0  0  0  0  0  0  0  0  0  0
  -30.3750  -12.3600   19.1610 C   0  0  0  0  0  2  0  0  0  0  0  0
  -29.4190  -12.6030   17.9750 C   0  0  0  0  0  2  0  0  0  0  0  0
  -27.9480  -12.4740   18.4210 C   0  0  0  0  0  2  0  0  0  0  0  0
  -27.6380  -13.3020   19.6970 C   0  0  0  0  0  3  0  0  0  0  0  0
  -28.7020  -13.0460   20.7880 C   0  0  0  0  0  2  0  0  0  0  0  0
  -30.0260  -13.3250   20.2110 N   0  0  0  0  0  0  0  0  0  0  0  0
  -31.8200  -14.6620   19.8460 O   0  0  0  0  0  0  0  0  0  0  0  0
  -25.2520  -13.9410   20.4250 C   0  0  0  0  0  0  0  0  0  0  0  0
  -24.1810  -13.1810   20.8130 C   0  0  0  0  0  0  0  0  0  0  0  0
  -24.6310  -11.8260   20.7860 C   0  0  0  0  0  0  0  0  0  0  0  0
  -26.2870  -13.0490   20.1890 N   0  0  0  0  0  0  0  0  0  0  0  0
  -25.9180  -11.7730   20.4660 N   0  0  0  0  0  0  0  0  0  0  0  0
  -23.8950  -10.5700   20.9940 C   0  0  0  0  0  0  0  0  0  0  0  0
  -24.3400   -9.6000   21.9180 C   0  0  0  0  0  3  0  0  0  0  0  0
  -23.6090   -8.4070   22.1100 C   0  0  0  0  0  3  0  0  0  0  0  0
  -22.4190   -8.1800   21.3800 C   0  0  0  0  0  0  0  0  0  0  0  0
  -21.9920   -9.1390   20.4440 C   0  0  0  0  0  3  0  0  0  0  0  0
  -22.7240  -10.3240   20.2510 C   0  0  0  0  0  3  0  0  0  0  0  0
  -21.6560   -7.0420   21.4820 O   0  0  0  0  0  0  0  0  0  0  0  0
  -21.6360   -6.2900   22.6310 C   0  0  0  0  0  0  0  0  0  0  0  0
  -21.2650   -6.8430   23.8750 C   0  0  0  0  0  3  0  0  0  0  0  0
  -21.1880   -6.0200   25.0160 C   0  0  0  0  0  3  0  0  0  0  0  0
  -21.4750   -4.6460   24.9160 C   0  0  0  0  0  0  0  0  0  0  0  0
  -21.8400   -4.0920   23.6740 C   0  0  0  0  0  3  0  0  0  0  0  0
  -21.9170   -4.9110   22.5360 C   0  0  0  0  0  0  0  0  0  0  0  0
  -22.2480   -4.3700   21.3390 F   0  0  0  0  0  0  0  0  0  0  0  0
  -21.3940   -3.8530   26.0090 F   0  0  0  0  0  0  0  0  0  0  0  0
  -22.7900  -13.6730   21.0960 C   0  0  0  0  0  0  0  0  0  0  0  0
  -22.0640  -12.9900   21.9730 N   0  0  0  0  0  0  0  0  0  0  0  0
  -22.3520  -14.6950   20.5700 O   0  0  0  0  0  0  0  0  0  0  0  0
  -22.4290  -12.1640   22.4240 H   0  0  0  0  0  0  0  0  0  0  0  0
  -21.1290  -13.2990   22.2000 H   0  0  0  0  0  0  0  0  0  0  0  0
  -25.4260  -15.3090   20.2320 N   0  0  0  0  0  0  0  0  0  0  0  0
  -24.6600  -15.9680   20.3220 H   0  0  0  0  0  0  0  0  0  0  0  0
  -26.2650  -15.7290   19.8540 H   0  0  0  0  0  0  0  0  0  0  0  0
  -29.4830  -23.6000   21.3490 C   0  0  0  0  0  2  0  0  0  0  0  0
  -29.6620  -24.7370   20.3310 C   0  0  0  0  0  2  0  0  0  0  0  0
  -28.3250  -25.3950   19.9580 C   0  0  0  0  0  2  0  0  0  0  0  0
  -28.3870  -26.8000   20.1690 O   0  0  0  0  0  0  0  0  0  0  0  0
  -24.5670  -31.9200   23.2560 C   0  0  0  0  0  0  0  0  0  0  0  0
  -27.1900  -27.4810   20.1670 C   0  0  0  0  0  0  0  0  0  0  0  0
  -23.3530  -30.5170   21.6270 C   0  0  0  0  0  3  0  0  0  0  0  0
  -24.7890  -28.9680   20.2070 C   0  0  0  0  0  0  0  0  0  0  0  0
  -25.8750  -30.8720   21.4110 C   0  0  0  0  0  2  0  0  0  0  0  0
  -25.9500  -29.4970   20.7820 C   0  0  0  0  0  0  0  0  0  0  0  0
  -27.1510  -28.7580   20.7610 C   0  0  0  0  0  3  0  0  0  0  0  0
  -26.0030  -26.9560   19.5950 C   0  0  0  0  0  3  0  0  0  0  0  0
  -24.8060  -27.6940   19.6160 C   0  0  0  0  0  3  0  0  0  0  0  0
  -23.5520  -29.8330   20.2480 C   0  0  0  0  0  2  0  0  0  0  0  0
  -24.6190  -31.1180   22.1590 N   0  0  0  0  0  0  0  0  0  0  0  0
  -23.4860  -32.1970   23.7980 O   0  0  0  0  0  0  0  0  0  0  0  0
  -22.7060  -29.4980   22.5930 C   0  0  0  0  0  0  0  0  0  0  0  0
  -21.3820  -29.3150   22.4680 N   0  0  0  0  0  0  0  0  0  0  0  0
  -23.3910  -28.8750   23.4090 O   0  0  0  0  0  0  0  0  0  0  0  0
  -20.8900  -29.8720   21.7830 H   0  0  0  0  0  0  0  0  0  0  0  0
  -18.0080  -28.1180   22.9700 C   0  0  0  0  0  0  0  0  0  0  0  0
  -20.5650  -28.3790   23.2420 C   0  0  0  0  0  3  0  0  0  0  0  0
  -20.6680  -26.9460   22.6730 C   0  0  0  0  0  2  0  0  0  0  0  0
  -19.5670  -26.6160   21.6620 C   0  0  0  0  0  2  0  0  0  0  0  0
  -18.1840  -26.7640   22.3040 C   0  0  0  0  0  2  0  0  0  0  0  0
  -19.1260  -28.8840   23.3960 C   0  0  0  0  0  0  0  0  0  0  0  0
  -18.9060  -30.1510   23.9790 C   0  0  0  0  0  3  0  0  0  0  0  0
  -17.6020  -30.6540   24.1390 C   0  0  0  0  0  3  0  0  0  0  0  0
  -16.4980  -29.8860   23.7270 C   0  0  0  0  0  3  0  0  0  0  0  0
  -16.7020  -28.6200   23.1500 C   0  0  0  0  0  3  0  0  0  0  0  0
  -25.8570  -32.5540   23.8670 C   0  0  0  0  0  3  0  0  0  0  0  0
  -26.3750  -31.7910   25.1480 C   0  0  1  0  0  0  0  0  0  0  0  0
  -25.2870  -31.5610   26.2230 C   0  0  0  0  0  1  0  0  0  0  0  0
  -26.9530  -30.4100   24.7570 C   0  0  0  0  0  1  0  0  0  0  0  0
  -27.5300  -32.5860   25.8010 C   0  0  0  0  0  1  0  0  0  0  0  0
  -25.5510  -33.9560   24.1870 N   0  0  0  0  0  0  0  0  0  0  0  0
  -25.8900  -35.0010   23.4240 C   0  0  0  0  0  0  0  0  0  0  0  0
  -26.5640  -34.8880   22.3960 O   0  0  0  0  0  0  0  0  0  0  0  0
  -24.9540  -34.1150   24.9850 H   0  0  0  0  0  0  0  0  0  0  0  0
  -24.1720  -36.8000   23.0400 C   0  0  0  0  0  1  0  0  0  0  0  0
  -25.4040  -36.3960   23.8660 C   0  0  0  0  0  3  0  0  0  0  0  0
  -27.5370  -37.2730   24.7100 C   0  0  0  0  0  1  0  0  0  0  0  0
  -26.4430  -37.4420   23.7580 N   0  0  0  0  0  0  0  0  0  0  0  0
  -26.0410  -38.3650   23.8960 H   0  0  0  0  0  0  0  0  0  0  0  0
  1  3  2  0
  2  1  1  0
  4  2  1  0
  5  1  1  0
  5  6  1  0
  7  6  1  0
  8  7  1  0
  9  8  1  0
 10  8  1  0
 11 12  1  0
 11  8  1  0
 13 12  1  0
 14 19  1  0
 15 16  1  0
 15 14  1  0
 17 16  1  0
 17 24  1  0
 17 18  1  0
 19 13  1  0
 19 18  1  0
 20 13  2  0
 21 22  2  0
 22 41  1  0
 23 22  1  0
 23 26  1  0
 24 21  1  0
 24 25  1  0
 25 23  2  0
 26 27  1  0
 27 28  2  0
 29 32  1  0
 29 28  1  0
 30 29  2  0
 31 30  1  0
 31 26  2  0
 32 33  1  0
 33 34  1  0
 34 35  2  0
 36 35  1  0
 36 40  1  0
 37 36  2  0
 38 33  2  0
 38 37  1  0
 39 38  1  0
 41 42  1  0
 42 45  1  0
 42 44  1  0
 43 41  2  0
 46 47  1  0
 46 21  1  0
 48 46  1  0
 49  2  1  0
 50 49  1  0
 51 52  1  0
 51 50  1  0
 53 64  2  0
 54 52  1  0
 54 59  1  0
 55 63  1  0
 55 65  1  0
 56 62  1  0
 56 58  1  0
 57 63  1  0
 58 57  1  0
 59 58  2  0
 60 61  1  0
 60 54  2  0
 61 56  2  0
 62 55  1  0
 63 53  1  0
 65 67  2  0
 66 65  1  0
 68 66  1  0
 69 78  2  0
 69 74  1  0
 70 66  1  0
 70 74  1  0
 71 70  1  0
 72 73  1  0
 72 71  1  0
 73 69  1  0
 74 75  2  0
 75 76  1  0
 77 76  2  0
 78 77  1  0
 79 53  1  0
 79 84  1  0
 79 80  1  0
 80 83  1  1
 80 81  1  0
 82 80  1  0
 84 87  1  0
 85 89  1  0
 85 84  1  0
 86 85  2  0
 89 88  1  0
 91 89  1  0
 91 92  1  0
 91 90  1  0
M  ISO  4  12 100  13 100  51 101  52 101
M  END
>  <TORSDO>  (49) 
F 25

>  <SCORE>  (49) 
-11.900

>  <name>  (49) 
48

>  <ligand_id>  (49) 
48

>  <original_smiles>  (49) 
[H]c1c([H])c([H])c2c(c1[H])C([H])([H])C([H])([H])C([H])([H])C2([H])N([H])C(=O)C1([H])N(C(=O)C([H])(N([H])C(=O)C([H])(N([H])C([H])([H])[H])C([H])([H])[H])C(C([H])([H])[H])(C([H])([H])[H])C([H])([H])[H])C([H])([H])c2c([H])c(OC([H])([H])C([H])([H])C([H])([H])N([H])C(=O)C([H])([H])C([H])([H])C([H])([H])[N+]([H])([H])C([H])([H])C([H])([H])C(=O)N3C([H])([H])C([H])([H])C([H])([H])C([H])(n4nc(-c5c([H])c([H])c(Oc6c([H])c([H])c(F)c([H])c6F)c([H])c5[H])c(C(=O)N([H])[H])c4N([H])[H])C3([H])[H])c([H])c([H])c2C1([H])[H]

>  <smiles>  (49) 
[H]c1c([H])c([H])c2c(c1[H])C([H])([H])C([H])([H])C([H])([H])C2([H])N([H])C(=O)C1([H])N(C(=O)C([H])(N([H])C(=O)C([H])(N([H])C([H])([H])[H])C([H])([H])[H])C(C([H])([H])[H])(C([H])([H])[H])C([H])([H])[H])C([H])([H])c2c([H])c(OC([H])([H])C([H])([H])C([H])([H])N([H])C(=O)C([H])([H])C([H])([H])C([H])([H])[N+]([H])([H])C([H])([H])C([H])([H])C(=O)N3C([H])([H])C([H])([H])C([H])([H])C([H])(n4nc(-c5c([H])c([H])c(Oc6c([H])c([H])c(F)c([H])c6F)c([H])c5[H])c(C(=O)N([H])[H])c4N([H])[H])C3([H])[H])c([H])c([H])c2C1([H])[H]

$$$$
49:0:0
     RDKit          3D

 99107  0  0  1  0  0  0  0  0999 V2000
  -30.2240  -25.1750   22.9800 C   0  0  0  0  0  2  0  0  0  0  0  0
  -29.1640  -22.8950   23.2750 C   0  0  0  0  0  3  0  0  0  0  0  0
  -31.5640  -23.1020   23.6680 C   0  0  0  0  0  3  0  0  0  0  0  0
  -29.2400  -21.5110   23.5170 C   0  0  0  0  0  3  0  0  0  0  0  0
  -31.6390  -21.7180   23.9210 C   0  0  0  0  0  3  0  0  0  0  0  0
  -30.3250  -23.6940   23.3220 C   0  0  0  0  0  0  0  0  0  0  0  0
  -30.4790  -20.9130   23.8290 C   0  0  0  0  0  0  0  0  0  0  0  0
  -30.5530  -19.4090   24.0490 C   0  0  0  0  0  2  0  0  0  0  0  0
  -30.8320  -18.7040   22.7840 N   0  0  0  0  0  4  0  0  0  0  0  0
  -31.7750  -18.9120   22.5030 H   0  0  0  0  0  0  0  0  0  0  0  0
  -30.2120  -19.0830   22.0880 H   0  0  0  0  0  0  0  0  0  0  0  0
  -30.6360  -17.2400   22.8520 C   0  0  0  0  0  2  0  0  0  0  0  0
  -30.8870  -16.5350   21.5030 C   0  0  0  0  0  2  0  0  0  0  0  0
  -30.1780  -15.1630   21.4260 C   0  0  0  0  0  2  0  0  0  0  0  0
  -30.5170  -14.3220   20.1820 C   0  0  0  0  0  0  0  0  0  0  0  0
  -30.0930  -12.3010   18.8170 C   0  0  0  0  0  2  0  0  0  0  0  0
  -29.0420  -12.5370   17.7180 C   0  0  0  0  0  2  0  0  0  0  0  0
  -27.6110  -12.3570   18.2620 C   0  0  0  0  0  2  0  0  0  0  0  0
  -27.3780  -13.1310   19.5860 C   0  0  0  0  0  3  0  0  0  0  0  0
  -28.5200  -12.8430   20.5880 C   0  0  0  0  0  2  0  0  0  0  0  0
  -29.7970  -13.1950   19.9420 N   0  0  0  0  0  0  0  0  0  0  0  0
  -31.4560  -14.6730   19.4580 O   0  0  0  0  0  0  0  0  0  0  0  0
  -25.0210  -13.6880   20.4650 C   0  0  0  0  0  0  0  0  0  0  0  0
  -23.9950  -12.8900   20.8980 C   0  0  0  0  0  0  0  0  0  0  0  0
  -24.4760  -11.5480   20.8110 C   0  0  0  0  0  0  0  0  0  0  0  0
  -26.0650  -12.8290   20.1520 N   0  0  0  0  0  0  0  0  0  0  0  0
  -25.7410  -11.5360   20.4110 N   0  0  0  0  0  0  0  0  0  0  0  0
  -23.7890  -10.2680   21.0320 C   0  0  0  0  0  0  0  0  0  0  0  0
  -24.2710   -9.3230   21.9630 C   0  0  0  0  0  3  0  0  0  0  0  0
  -23.5820   -8.1080   22.1710 C   0  0  0  0  0  3  0  0  0  0  0  0
  -22.3990   -7.8290   21.4460 C   0  0  0  0  0  0  0  0  0  0  0  0
  -21.9370   -8.7650   20.5050 C   0  0  0  0  0  3  0  0  0  0  0  0
  -22.6260   -9.9710   20.2940 C   0  0  0  0  0  3  0  0  0  0  0  0
  -21.6770   -6.6650   21.5650 O   0  0  0  0  0  0  0  0  0  0  0  0
  -21.6390   -5.9590   22.7410 C   0  0  0  0  0  0  0  0  0  0  0  0
  -21.1870   -6.5410   23.9460 C   0  0  0  0  0  3  0  0  0  0  0  0
  -21.0970   -5.7600   25.1150 C   0  0  0  0  0  3  0  0  0  0  0  0
  -21.4490   -4.3960   25.0800 C   0  0  0  0  0  0  0  0  0  0  0  0
  -21.8910   -3.8130   23.8800 C   0  0  0  0  0  3  0  0  0  0  0  0
  -21.9840   -4.5920   22.7140 C   0  0  0  0  0  0  0  0  0  0  0  0
  -22.3920   -4.0210   21.5550 F   0  0  0  0  0  0  0  0  0  0  0  0
  -21.3550   -3.6430   26.2010 F   0  0  0  0  0  0  0  0  0  0  0  0
  -22.6110  -13.3340   21.2780 C   0  0  0  0  0  0  0  0  0  0  0  0
  -21.9610  -12.6100   22.1820 N   0  0  0  0  0  0  0  0  0  0  0  0
  -22.1180  -14.3590   20.8100 O   0  0  0  0  0  0  0  0  0  0  0  0
  -22.3740  -11.7800   22.5820 H   0  0  0  0  0  0  0  0  0  0  0  0
  -21.0360  -12.8870   22.4770 H   0  0  0  0  0  0  0  0  0  0  0  0
  -25.1470  -15.0630   20.2970 N   0  0  0  0  0  0  0  0  0  0  0  0
  -24.3810  -15.7060   20.4710 H   0  0  0  0  0  0  0  0  0  0  0  0
  -25.9720  -15.5220   19.9290 H   0  0  0  0  0  0  0  0  0  0  0  0
  -29.8630  -25.4210   21.4870 C   0  0  0  0  0  3  0  0  0  0  0  0
  -31.0830  -25.2270   20.5530 C   0  0  0  0  0  2  0  0  0  0  0  0
  -32.2170  -26.2750   20.6930 C   0  0  0  0  0  2  0  0  0  0  0  0
  -33.5640  -25.6720   20.6120 N   0  0  0  0  0  4  0  0  0  0  0  0
  -33.6920  -24.9740   21.3230 H   0  0  0  0  0  0  0  0  0  0  0  0
  -34.2630  -26.3790   20.7620 H   0  0  0  0  0  0  0  0  0  0  0  0
  -33.7380  -25.2570   19.7150 H   0  0  0  0  0  0  0  0  0  0  0  0
  -29.0980  -26.7460   21.2540 C   0  0  0  0  0  2  0  0  0  0  0  0
  -28.3260  -26.6900   20.0450 O   0  0  0  0  0  0  0  0  0  0  0  0
  -24.5060  -31.8200   23.1520 C   0  0  0  0  0  0  0  0  0  0  0  0
  -27.1770  -27.4530   20.0370 C   0  0  0  0  0  0  0  0  0  0  0  0
  -23.2930  -30.4320   21.4950 C   0  0  0  0  0  3  0  0  0  0  0  0
  -24.7540  -28.9150   20.0460 C   0  0  0  0  0  0  0  0  0  0  0  0
  -25.8070  -30.8180   21.2830 C   0  0  0  0  0  2  0  0  0  0  0  0
  -25.9010  -29.4540   20.6360 C   0  0  0  0  0  0  0  0  0  0  0  0
  -27.1110  -28.7310   20.6340 C   0  0  0  0  0  3  0  0  0  0  0  0
  -26.0200  -26.9300   19.4240 C   0  0  0  0  0  3  0  0  0  0  0  0
  -24.8050  -27.6490   19.4320 C   0  0  0  0  0  3  0  0  0  0  0  0
  -23.5020  -29.7630   20.1050 C   0  0  0  0  0  2  0  0  0  0  0  0
  -24.5540  -31.0360   22.0370 N   0  0  0  0  0  0  0  0  0  0  0  0
  -23.4300  -32.0850   23.7020 O   0  0  0  0  0  0  0  0  0  0  0  0
  -22.6500  -29.4000   22.4490 C   0  0  0  0  0  0  0  0  0  0  0  0
  -21.3290  -29.2050   22.3150 N   0  0  0  0  0  0  0  0  0  0  0  0
  -23.3370  -28.7740   23.2640 O   0  0  0  0  0  0  0  0  0  0  0  0
  -20.8400  -29.7640   21.6290 H   0  0  0  0  0  0  0  0  0  0  0  0
  -17.9720  -27.9530   22.7550 C   0  0  0  0  0  0  0  0  0  0  0  0
  -20.5180  -28.2550   23.0740 C   0  0  0  0  0  3  0  0  0  0  0  0
  -20.6590  -26.8240   22.5040 C   0  0  0  0  0  2  0  0  0  0  0  0
  -19.5810  -26.4800   21.4700 C   0  0  0  0  0  2  0  0  0  0  0  0
  -18.1840  -26.6020   22.0900 C   0  0  0  0  0  2  0  0  0  0  0  0
  -19.0690  -28.7340   23.2040 C   0  0  0  0  0  0  0  0  0  0  0  0
  -18.8210  -29.9970   23.7830 C   0  0  0  0  0  3  0  0  0  0  0  0
  -17.5060  -30.4790   23.9200 C   0  0  0  0  0  3  0  0  0  0  0  0
  -16.4220  -29.6940   23.4880 C   0  0  0  0  0  3  0  0  0  0  0  0
  -16.6560  -28.4330   22.9110 C   0  0  0  0  0  3  0  0  0  0  0  0
  -25.7970  -32.4410   23.7730 C   0  0  0  0  0  3  0  0  0  0  0  0
  -25.4930  -33.8350   24.1170 N   0  0  0  0  0  0  0  0  0  0  0  0
  -25.8350  -34.8940   23.3750 C   0  0  0  0  0  0  0  0  0  0  0  0
  -26.5080  -34.8010   22.3430 O   0  0  0  0  0  0  0  0  0  0  0  0
  -24.8910  -33.9810   24.9140 H   0  0  0  0  0  0  0  0  0  0  0  0
  -24.1160  -36.6950   23.0250 C   0  0  0  0  0  1  0  0  0  0  0  0
  -25.3470  -36.2770   23.8440 C   0  0  0  0  0  3  0  0  0  0  0  0
  -27.4770  -37.1440   24.7050 C   0  0  0  0  0  1  0  0  0  0  0  0
  -26.3840  -37.3270   23.7530 N   0  0  0  0  0  0  0  0  0  0  0  0
  -25.9830  -38.2490   23.9050 H   0  0  0  0  0  0  0  0  0  0  0  0
  -26.3240  -31.6540   25.0340 C   0  0  1  0  0  0  0  0  0  0  0  0
  -25.2360  -31.4020   26.1040 C   0  0  0  0  0  1  0  0  0  0  0  0
  -26.9040  -30.2850   24.6120 C   0  0  0  0  0  1  0  0  0  0  0  0
  -27.4770  -32.4380   25.6980 C   0  0  0  0  0  1  0  0  0  0  0  0
  1  6  1  0
  2  6  2  0
  2  4  1  0
  3  5  2  0
  4  7  2  0
  6  3  1  0
  7  5  1  0
  7  8  1  0
  9 12  1  0
  9  8  1  0
 10  9  1  0
 11  9  1  0
 13 12  1  0
 14 13  1  0
 15 14  1  0
 16 21  1  0
 17 18  1  0
 17 16  1  0
 19 18  1  0
 19 26  1  0
 19 20  1  0
 21 15  1  0
 21 20  1  0
 22 15  2  0
 23 24  2  0
 24 43  1  0
 25 24  1  0
 25 28  1  0
 26 27  1  0
 26 23  1  0
 27 25  2  0
 28 29  1  0
 29 30  2  0
 31 34  1  0
 31 30  1  0
 32 31  2  0
 33 32  1  0
 33 28  2  0
 34 35  1  0
 35 36  1  0
 36 37  2  0
 38 37  1  0
 38 42  1  0
 39 38  2  0
 40 35  2  0
 40 39  1  0
 41 40  1  0
 43 44  1  0
 44 47  1  0
 44 46  1  0
 45 43  2  0
 48 23  1  0
 48 49  1  0
 50 48  1  0
 51 52  1  0
 51  1  1  0
 52 53  1  0
 54 53  1  0
 54 56  1  0
 54 55  1  0
 57 54  1  0
 58 51  1  0
 59 58  1  0
 60 71  2  0
 61 59  1  0
 61 66  1  0
 62 70  1  0
 62 72  1  0
 63 69  1  0
 63 65  1  0
 64 70  1  0
 65 64  1  0
 66 65  2  0
 67 68  1  0
 67 61  2  0
 68 63  2  0
 69 62  1  0
 70 60  1  0
 72 74  2  0
 73 72  1  0
 75 73  1  0
 76 85  2  0
 76 81  1  0
 77 73  1  0
 77 81  1  0
 78 77  1  0
 79 80  1  0
 79 78  1  0
 80 76  1  0
 81 82  2  0
 82 83  1  0
 84 83  2  0
 85 84  1  0
 86 60  1  0
 86 87  1  0
 86 96  1  0
 87 90  1  0
 88 92  1  0
 88 87  1  0
 89 88  2  0
 92 91  1  0
 94 92  1  0
 94 95  1  0
 94 93  1  0
 96 99  1  1
 96 97  1  0
 98 96  1  0
M  ISO  4  14 100  15 100  58 101  59 101
M  END
>  <TORSDO>  (50) 
F 27

>  <SCORE>  (50) 
-7.761

>  <name>  (50) 
49

>  <ligand_id>  (50) 
49

>  <original_smiles>  (50) 
[H]c1c([H])c([H])c2c(c1[H])C([H])([H])C([H])([H])C([H])([H])C2([H])N([H])C(=O)C1([H])N(C(=O)C([H])(N([H])C(=O)C([H])(N([H])C([H])([H])[H])C([H])([H])[H])C(C([H])([H])[H])(C([H])([H])[H])C([H])([H])[H])C([H])([H])c2c([H])c(OC([H])([H])C([H])(C([H])([H])c3c([H])c([H])c(C([H])([H])[N+]([H])([H])C([H])([H])C([H])([H])C([H])([H])C(=O)N4C([H])([H])C([H])([H])C([H])([H])C([H])(n5nc(-c6c([H])c([H])c(Oc7c([H])c([H])c(F)c([H])c7F)c([H])c6[H])c(C(=O)N([H])[H])c5N([H])[H])C4([H])[H])c([H])c3[H])C([H])([H])C([H])([H])[N+]([H])([H])[H])c([H])c([H])c2C1([H])[H]

>  <smiles>  (50) 
[H]c1c([H])c([H])c2c(c1[H])C([H])([H])C([H])([H])C([H])([H])C2([H])N([H])C(=O)C1([H])N(C(=O)C([H])(N([H])C(=O)C([H])(N([H])C([H])([H])[H])C([H])([H])[H])C(C([H])([H])[H])(C([H])([H])[H])C([H])([H])[H])C([H])([H])c2c([H])c(OC([H])([H])C([H])(C([H])([H])c3c([H])c([H])c(C([H])([H])[N+]([H])([H])C([H])([H])C([H])([H])C([H])([H])C(=O)N4C([H])([H])C([H])([H])C([H])([H])C([H])(n5nc(-c6c([H])c([H])c(Oc7c([H])c([H])c(F)c([H])c7F)c([H])c6[H])c(C(=O)N([H])[H])c5N([H])[H])C4([H])[H])c([H])c3[H])C([H])([H])C([H])([H])[N+]([H])([H])[H])c([H])c([H])c2C1([H])[H]

$$$$
50:0:0
     RDKit          3D

100104  0  0  1  0  0  0  0  0999 V2000
  -25.8100  -27.8030   21.4900 C   0  0  0  0  0  2  0  0  0  0  0  0
  -26.7620  -27.9880   18.7110 C   0  0  0  0  0  2  0  0  0  0  0  0
  -26.8460  -27.1030   18.9040 C   0  0  0  0  0  3  0  0  0  0  0  0
  -26.6790  -27.4850   22.5730 C   0  0  0  0  0  3  0  0  0  0  0  0
  -26.1770  -27.8290   20.9510 O   0  0  0  0  0  0  0  0  0  0  0  0
  -24.2920  -25.5100   25.7660 C   0  0  0  0  0  3  0  0  0  0  0  0
  -24.1860  -25.0170   24.4620 C   0  0  0  0  0  3  0  0  0  0  0  0
  -25.2780  -26.4670   26.0550 C   0  0  0  0  0  3  0  0  0  0  0  0
  -24.9890  -25.5490   23.4350 C   0  0  0  0  0  3  0  0  0  0  0  0
  -26.0650  -27.0250   25.0240 C   0  0  0  0  0  3  0  0  0  0  0  0
  -25.8630  -26.6690   23.6690 C   0  0  0  0  0  0  0  0  0  0  0  0
  -26.9370  -25.5610   18.1460 N   0  0  0  0  0  4  0  0  0  0  0  0
  -27.1760  -25.8060   17.1910 H   0  0  0  0  0  0  0  0  0  0  0  0
  -26.0110  -25.1720   18.0980 H   0  0  0  0  0  0  0  0  0  0  0  0
  -28.0090  -24.2750   18.4440 C   0  0  0  0  0  2  0  0  0  0  0  0
  -27.8410  -22.5550   18.9970 C   0  0  0  0  0  3  0  0  0  0  0  0
  -28.9880  -21.1410   19.0650 C   0  0  0  0  0  3  0  0  0  0  0  0
  -28.7310  -19.5280   19.4720 N   0  0  0  0  0  4  0  0  0  0  0  0
  -28.2850  -19.5480   20.3710 H   0  0  0  0  0  0  0  0  0  0  0  0
  -28.0150  -19.2340   18.8310 H   0  0  0  0  0  0  0  0  0  0  0  0
  -29.7740  -18.2150   19.5180 C   0  0  0  0  0  3  0  0  0  0  0  0
  -29.5290  -16.5570   20.1990 C   0  0  0  0  0  3  0  0  0  0  0  0
  -30.3630  -15.0080   20.1250 C   0  0  0  0  0  0  0  0  0  0  0  0
  -30.3280  -12.5620   19.3370 C   0  0  0  0  0  2  0  0  0  0  0  0
  -29.3470  -12.3530   18.1600 C   0  0  0  0  0  2  0  0  0  0  0  0
  -27.9400  -12.0520   18.7030 C   0  0  0  0  0  2  0  0  0  0  0  0
  -27.4990  -13.0710   19.7790 C   0  0  0  0  0  3  0  0  0  0  0  0
  -28.5830  -13.2590   20.8580 C   0  0  0  0  0  2  0  0  0  0  0  0
  -29.8150  -13.6990   20.1740 N   0  0  0  0  0  0  0  0  0  0  0  0
  -31.5920  -14.9830   19.9260 O   0  0  0  0  0  0  0  0  0  0  0  0
  -25.1470  -13.6370   20.6060 C   0  0  0  0  0  0  0  0  0  0  0  0
  -24.0850  -12.8650   20.9910 C   0  0  0  0  0  0  0  0  0  0  0  0
  -24.5490  -11.5140   20.9570 C   0  0  0  0  0  0  0  0  0  0  0  0
  -26.1840  -12.7630   20.3390 N   0  0  0  0  0  0  0  0  0  0  0  0
  -25.8380  -11.4790   20.6250 N   0  0  0  0  0  0  0  0  0  0  0  0
  -23.8240  -10.2510   21.1560 C   0  0  0  0  0  0  0  0  0  0  0  0
  -24.2760   -9.2700   22.0690 C   0  0  0  0  0  3  0  0  0  0  0  0
  -23.5490   -8.0740   22.2530 C   0  0  0  0  0  3  0  0  0  0  0  0
  -22.3570   -7.8460   21.5230 C   0  0  0  0  0  0  0  0  0  0  0  0
  -21.9260   -8.8150   20.6000 C   0  0  0  0  0  3  0  0  0  0  0  0
  -22.6540  -10.0010   20.4120 C   0  0  0  0  0  3  0  0  0  0  0  0
  -21.6010   -6.7030   21.6210 O   0  0  0  0  0  0  0  0  0  0  0  0
  -21.5950   -5.9390   22.7600 C   0  0  0  0  0  0  0  0  0  0  0  0
  -21.2080   -6.4690   24.0100 C   0  0  0  0  0  3  0  0  0  0  0  0
  -21.1510   -5.6330   25.1430 C   0  0  0  0  0  3  0  0  0  0  0  0
  -21.4650   -4.2670   25.0270 C   0  0  0  0  0  0  0  0  0  0  0  0
  -21.8440   -3.7340   23.7820 C   0  0  0  0  0  3  0  0  0  0  0  0
  -21.9050   -4.5670   22.6510 C   0  0  0  0  0  0  0  0  0  0  0  0
  -22.2510   -4.0440   21.4500 F   0  0  0  0  0  0  0  0  0  0  0  0
  -21.4010   -3.4620   26.1150 F   0  0  0  0  0  0  0  0  0  0  0  0
  -22.6890  -13.3430   21.2700 C   0  0  0  0  0  0  0  0  0  0  0  0
  -21.9650  -12.6630   22.1510 N   0  0  0  0  0  0  0  0  0  0  0  0
  -22.2440  -14.3590   20.7360 O   0  0  0  0  0  0  0  0  0  0  0  0
  -22.3310  -11.8440   22.6150 H   0  0  0  0  0  0  0  0  0  0  0  0
  -21.0280  -12.9740   22.3730 H   0  0  0  0  0  0  0  0  0  0  0  0
  -25.3180  -15.0070   20.4200 N   0  0  0  0  0  0  0  0  0  0  0  0
  -24.5590  -15.6700   20.5240 H   0  0  0  0  0  0  0  0  0  0  0  0
  -26.1620  -15.4250   20.0530 H   0  0  0  0  0  0  0  0  0  0  0  0
  -28.2070  -26.8930   22.6670 C   0  0  0  0  0  2  0  0  0  0  0  0
  -28.6360  -26.1290   21.5330 O   0  0  0  0  0  0  0  0  0  0  0  0
  -24.3700  -31.8580   23.1790 C   0  0  0  0  0  0  0  0  0  0  0  0
  -27.6890  -26.5580   20.8200 C   0  0  0  0  0  1  0  0  0  0  0  0
  -23.1650  -30.4110   21.5820 C   0  0  0  0  0  3  0  0  0  0  0  0
  -24.3600  -28.6460   20.1320 C   0  0  0  0  0  2  0  0  0  0  0  0
  -25.7440  -30.8940   21.2680 C   0  0  0  0  0  2  0  0  0  0  0  0
  -25.9790  -29.5670   20.5330 C   0  0  0  0  0  3  0  0  0  0  0  0
  -27.6490  -28.5720   20.6990 C   0  0  0  0  0  2  0  0  0  0  0  0
  -25.8940  -25.5180   20.5690 C   0  0  0  0  0 15  0  0  0  0  0  0
  -24.2990  -26.6770   20.0210 C   0  0  0  0  0 15  0  0  0  0  0  0
  -23.2170  -29.6250   20.2170 C   0  0  0  0  0  2  0  0  0  0  0  0
  -24.4620  -31.0360   22.0730 N   0  0  0  0  0  0  0  0  0  0  0  0
  -23.2780  -32.1590   23.6850 O   0  0  0  0  0  0  0  0  0  0  0  0
  -22.4290  -29.5190   22.6190 C   0  0  0  0  0  0  0  0  0  0  0  0
  -21.1020  -29.4140   22.4780 N   0  0  0  0  0  0  0  0  0  0  0  0
  -23.0270  -28.9200   23.5140 O   0  0  0  0  0  0  0  0  0  0  0  0
  -20.6600  -30.0160   21.7980 H   0  0  0  0  0  0  0  0  0  0  0  0
  -17.6560  -28.5220   23.0350 C   0  0  0  0  0  0  0  0  0  0  0  0
  -20.2280  -28.5430   23.2490 C   0  0  0  0  0  3  0  0  0  0  0  0
  -20.1870  -27.1200   22.6400 C   0  0  0  0  0  2  0  0  0  0  0  0
  -19.0380  -26.9220   21.6480 C   0  0  0  0  0  2  0  0  0  0  0  0
  -17.6930  -27.1740   22.3370 C   0  0  0  0  0  2  0  0  0  0  0  0
  -18.8480  -29.1760   23.4450 C   0  0  0  0  0  0  0  0  0  0  0  0
  -18.7620  -30.4490   24.0490 C   0  0  0  0  0  3  0  0  0  0  0  0
  -17.5120  -31.0650   24.2460 C   0  0  0  0  0  3  0  0  0  0  0  0
  -16.3340  -30.4060   23.8530 C   0  0  0  0  0  3  0  0  0  0  0  0
  -16.4080  -29.1330   23.2600 C   0  0  0  0  0  3  0  0  0  0  0  0
  -25.6180  -32.5150   23.8510 C   0  0  0  0  0  3  0  0  0  0  0  0
  -26.0780  -31.7940   25.1820 C   0  0  1  0  0  0  0  0  0  0  0  0
  -24.9730  -31.4980   26.2350 C   0  0  0  0  0  1  0  0  0  0  0  0
  -26.7740  -30.4510   24.8360 C   0  0  0  0  0  1  0  0  0  0  0  0
  -27.0700  -32.7040   25.9570 C   0  0  0  0  0  1  0  0  0  0  0  0
  -25.3160  -33.9290   24.1290 N   0  0  0  0  0  0  0  0  0  0  0  0
  -25.7680  -34.9660   23.4070 C   0  0  0  0  0  0  0  0  0  0  0  0
  -26.5150  -34.8250   22.4320 O   0  0  0  0  0  0  0  0  0  0  0  0
  -24.7060  -34.1260   24.9110 H   0  0  0  0  0  0  0  0  0  0  0  0
  -24.1440  -36.7940   22.9300 C   0  0  0  0  0  1  0  0  0  0  0  0
  -25.3140  -36.3750   23.8310 C   0  0  0  0  0  3  0  0  0  0  0  0
  -27.4280  -37.1590   24.7950 C   0  0  0  0  0  1  0  0  0  0  0  0
  -26.3980  -37.3860   23.7820 N   0  0  0  0  0  0  0  0  0  0  0  0
  -26.0320  -38.3320   23.8870 H   0  0  0  0  0  0  0  0  0  0  0  0
  2  3  2  0
  4  1  1  0
  4 59  1  0
  4 11  1  0
  5  1  1  0
  6  8  1  0
  7  6  2  0
  9 11  2  0
  9  7  1  0
 10  8  2  0
 11 10  1  0
 12 15  1  0
 12  3  1  0
 13 12  1  0
 14 12  1  0
 15 16  1  0
 16 17  2  0
 17 18  1  0
 18 21  1  0
 18 19  1  0
 20 18  1  0
 21 22  2  0
 23 29  1  0
 23 22  1  0
 24 29  1  0
 25 26  1  0
 25 24  1  0
 27 26  1  0
 27 34  1  0
 27 28  1  0
 29 28  1  0
 30 23  2  0
 31 32  2  0
 32 51  1  0
 33 32  1  0
 33 36  1  0
 34 31  1  0
 34 35  1  0
 35 33  2  0
 36 37  1  0
 37 38  2  0
 39 42  1  0
 39 38  1  0
 40 39  2  0
 41 40  1  0
 41 36  2  0
 42 43  1  0
 43 44  1  0
 44 45  2  0
 46 45  1  0
 46 50  1  0
 47 46  2  0
 48 43  2  0
 48 47  1  0
 49 48  1  0
 51 52  1  0
 52 55  1  0
 52 54  1  0
 53 51  2  0
 56 57  1  0
 56 31  1  0
 58 56  1  0
 60 59  1  0
 61 72  2  0
 62 60  1  0
 63 71  1  0
 63 73  1  0
 64 70  1  0
 64 66  1  0
 65 71  1  0
 66 67  1  0
 66 65  1  0
 67  5  1  0
 70 63  1  0
 71 61  1  0
 73 75  2  0
 74 73  1  0
 76 74  1  0
 77 86  2  0
 77 82  1  0
 78 74  1  0
 78 82  1  0
 79 78  1  0
 80 81  1  0
 80 79  1  0
 81 77  1  0
 82 83  2  0
 83 84  1  0
 85 84  2  0
 86 85  1  0
 87 61  1  0
 87 92  1  0
 87 88  1  0
 88 91  1  1
 88 89  1  0
 90 88  1  0
 92 95  1  0
 93 97  1  0
 93 92  1  0
 94 93  2  0
 97 96  1  0
 99 97  1  0
 99100  1  0
 99 98  1  0
M  ISO  4  22 100  23 100  59 101  60 101
M  END
>  <TORSDO>  (51) 
F 25

>  <SCORE>  (51) 
-14.450

>  <name>  (51) 
50

>  <ligand_id>  (51) 
50

>  <original_smiles>  (51) 
[H]c1c([H])c([H])c(C2(C([H])([H])Oc3c([H])c([H])c4c(c3[H])C([H])([H])N(C(=O)C([H])(N([H])C(=O)C([H])(N([H])C([H])([H])[H])C([H])([H])[H])C(C([H])([H])[H])(C([H])([H])[H])C([H])([H])[H])C([H])(C(=O)N([H])C3([H])c5c([H])c([H])c([H])c([H])c5C([H])([H])C([H])([H])C3([H])[H])C4([H])[H])OC([H])([H])C([H])([N+]([H])([H])C([H])([H])C([H])([H])C([H])([H])[N+]([H])([H])C([H])([H])C([H])([H])C(=O)N3C([H])([H])C([H])([H])C([H])([H])C([H])(n4nc(-c5c([H])c([H])c(Oc6c([H])c([H])c(F)c([H])c6F)c([H])c5[H])c(C(=O)N([H])[H])c4N([H])[H])C3([H])[H])C2([H])[H])c([H])c1[H]

>  <smiles>  (51) 
[H]c1c([H])c([H])c(C2(C([H])([H])Oc3c([H])c([H])c4c(c3[H])C([H])([H])N(C(=O)C([H])(N([H])C(=O)C([H])(N([H])C([H])([H])[H])C([H])([H])[H])C(C([H])([H])[H])(C([H])([H])[H])C([H])([H])[H])C([H])(C(=O)N([H])C3([H])c5c([H])c([H])c([H])c([H])c5C([H])([H])C([H])([H])C3([H])[H])C4([H])[H])OC([H])([H])C([H])([N+]([H])([H])C([H])([H])C([H])([H])C([H])([H])[N+]([H])([H])C([H])([H])C([H])([H])C(=O)N3C([H])([H])C([H])([H])C([H])([H])C([H])(n4nc(-c5c([H])c([H])c(Oc6c([H])c([H])c(F)c([H])c6F)c([H])c5[H])c(C(=O)N([H])[H])c4N([H])[H])C3([H])[H])C2([H])[H])c([H])c1[H]

$$$$
51:0:0
     RDKit          3D

 97106  0  0  1  0  0  0  0  0999 V2000
  -26.7060  -20.6840   19.1610 C   0  0  0  0  0  2  0  0  0  0  0  0
  -28.1300  -20.6620   21.2770 C   0  0  0  0  0  2  0  0  0  0  0  0
  -27.4040  -22.0110   18.7670 C   0  0  0  0  0  2  0  0  0  0  0  0
  -27.5290  -19.8040   20.1370 C   0  0  0  0  0  3  0  0  0  0  0  0
  -27.7030  -22.1420   21.2290 C   0  0  0  0  0  3  0  0  0  0  0  0
  -28.0570  -22.7320   19.9040 N   0  0  2  0  0  4  0  0  0  0  0  0
  -29.0400  -22.5220   19.8180 H   0  0  0  0  0  0  0  0  0  0  0  0
  -30.1450  -18.3370   17.6900 C   0  0  0  0  0  3  0  0  0  0  0  0
  -29.1620  -19.1820   18.2320 C   0  0  0  0  0  3  0  0  0  0  0  0
  -30.5700  -17.1970   18.3950 C   0  0  0  0  0  3  0  0  0  0  0  0
  -29.0160  -17.7410   20.1870 C   0  0  0  0  0  3  0  0  0  0  0  0
  -28.5900  -18.8990   19.4930 C   0  0  0  0  0  0  0  0  0  0  0  0
  -30.0030  -16.8820   19.6530 C   0  0  0  0  0  0  0  0  0  0  0  0
  -31.0880  -14.6830   19.9670 C   0  0  0  0  0  0  0  0  0  0  0  0
  -30.7590  -12.4850   18.9330 C   0  0  0  0  0  2  0  0  0  0  0  0
  -29.7720  -12.6820   17.7620 C   0  0  0  0  0  2  0  0  0  0  0  0
  -28.3120  -12.5840   18.2510 C   0  0  0  0  0  2  0  0  0  0  0  0
  -28.0380  -13.4580   19.5030 C   0  0  0  0  0  3  0  0  0  0  0  0
  -29.1290  -13.2320   20.5770 C   0  0  0  0  0  2  0  0  0  0  0  0
  -30.4380  -13.4920   19.9550 N   0  0  0  0  0  0  0  0  0  0  0  0
  -32.2140  -14.8480   19.4880 O   0  0  0  0  0  0  0  0  0  0  0  0
  -30.3370  -15.7110   20.3970 N   0  0  0  0  0  0  0  0  0  0  0  0
  -29.6120  -15.4200   21.0360 H   0  0  0  0  0  0  0  0  0  0  0  0
  -25.7070  -14.1390   20.3570 C   0  0  0  0  0  0  0  0  0  0  0  0
  -24.6270  -13.3970   20.7550 C   0  0  0  0  0  0  0  0  0  0  0  0
  -25.0280  -12.0310   20.6520 C   0  0  0  0  0  0  0  0  0  0  0  0
  -26.7000  -13.2250   20.0390 N   0  0  0  0  0  0  0  0  0  0  0  0
  -26.2970  -11.9510   20.2720 N   0  0  0  0  0  0  0  0  0  0  0  0
  -24.2610  -10.7920   20.8360 C   0  0  0  0  0  0  0  0  0  0  0  0
  -24.6290   -9.8330   21.8050 C   0  0  0  0  0  3  0  0  0  0  0  0
  -23.8670   -8.6570   21.9760 C   0  0  0  0  0  3  0  0  0  0  0  0
  -22.7230   -8.4310   21.1740 C   0  0  0  0  0  0  0  0  0  0  0  0
  -22.3720   -9.3780   20.1960 C   0  0  0  0  0  3  0  0  0  0  0  0
  -23.1350  -10.5470   20.0250 C   0  0  0  0  0  3  0  0  0  0  0  0
  -21.9380   -7.3060   21.2500 O   0  0  0  0  0  0  0  0  0  0  0  0
  -21.7100   -6.6660   22.4420 C   0  0  0  0  0  0  0  0  0  0  0  0
  -21.1130   -7.3260   23.5380 C   0  0  0  0  0  3  0  0  0  0  0  0
  -20.8350   -6.6150   24.7220 C   0  0  0  0  0  3  0  0  0  0  0  0
  -21.1400   -5.2430   24.8100 C   0  0  0  0  0  0  0  0  0  0  0  0
  -21.7280   -4.5830   23.7160 C   0  0  0  0  0  3  0  0  0  0  0  0
  -22.0100   -5.2910   22.5360 C   0  0  0  0  0  0  0  0  0  0  0  0
  -22.5570   -4.6460   21.4780 F   0  0  0  0  0  0  0  0  0  0  0  0
  -20.8650   -4.5580   25.9430 F   0  0  0  0  0  0  0  0  0  0  0  0
  -23.2670  -13.9210   21.1180 C   0  0  0  0  0  0  0  0  0  0  0  0
  -22.5770  -13.2490   22.0340 N   0  0  0  0  0  0  0  0  0  0  0  0
  -22.8270  -14.9600   20.6280 O   0  0  0  0  0  0  0  0  0  0  0  0
  -22.9440  -12.4070   22.4520 H   0  0  0  0  0  0  0  0  0  0  0  0
  -21.6670  -13.5820   22.3200 H   0  0  0  0  0  0  0  0  0  0  0  0
  -25.9210  -15.5070   20.2210 N   0  0  0  0  0  0  0  0  0  0  0  0
  -25.1870  -16.1860   20.3920 H   0  0  0  0  0  0  0  0  0  0  0  0
  -26.7650  -15.9200   19.8470 H   0  0  0  0  0  0  0  0  0  0  0  0
  -28.5130  -22.8610   22.1480 O   0  0  0  0  0  0  0  0  0  0  0  0
  -28.0110  -22.9530   22.9520 H   0  0  0  0  0  0  0  0  0  0  0  0
  -27.9690  -24.2190   19.7710 C   0  0  0  0  0  2  0  0  0  0  0  0
  -28.6650  -24.7260   18.4870 C   0  0  0  0  0  2  0  0  0  0  0  0
  -29.0440  -26.2170   18.5200 C   0  0  0  0  0  2  0  0  0  0  0  0
  -28.3420  -26.9290   17.5090 O   0  0  0  0  0  0  0  0  0  0  0  0
  -24.8170  -30.6160   22.4590 C   0  0  0  0  0  0  0  0  0  0  0  0
  -27.1510  -27.4590   17.9230 C   0  0  0  0  0  0  0  0  0  0  0  0
  -23.4290  -29.5390   20.7160 C   0  0  0  0  0  3  0  0  0  0  0  0
  -24.6980  -28.5890   18.7190 C   0  0  0  0  0  0  0  0  0  0  0  0
  -25.8350  -30.2410   20.2160 C   0  0  0  0  0  2  0  0  0  0  0  0
  -25.9000  -29.0890   19.2370 C   0  0  0  0  0  0  0  0  0  0  0  0
  -27.1310  -28.5290   18.8400 C   0  0  0  0  0  3  0  0  0  0  0  0
  -25.9400  -26.9560   17.4070 C   0  0  0  0  0  3  0  0  0  0  0  0
  -24.7110  -27.5220   17.8010 C   0  0  0  0  0  3  0  0  0  0  0  0
  -23.4240  -29.2520   19.1900 C   0  0  0  0  0  2  0  0  0  0  0  0
  -24.7210  -30.1350   21.1870 N   0  0  0  0  0  0  0  0  0  0  0  0
  -23.8400  -30.6170   23.2180 O   0  0  0  0  0  0  0  0  0  0  0  0
  -23.0400  -28.2430   21.4620 C   0  0  0  0  0  0  0  0  0  0  0  0
  -21.7430  -27.8980   21.4170 N   0  0  0  0  0  0  0  0  0  0  0  0
  -23.8940  -27.5600   22.0350 O   0  0  0  0  0  0  0  0  0  0  0  0
  -21.1050  -28.5150   20.9370 H   0  0  0  0  0  0  0  0  0  0  0  0
  -18.6770  -26.0170   21.7380 C   0  0  0  0  0  0  0  0  0  0  0  0
  -21.1560  -26.6940   22.0070 C   0  0  0  0  0  3  0  0  0  0  0  0
  -21.4840  -25.4410   21.1620 C   0  0  0  0  0  2  0  0  0  0  0  0
  -20.4020  -25.1160   20.1280 C   0  0  0  0  0  2  0  0  0  0  0  0
  -19.0570  -24.8720   20.8150 C   0  0  0  0  0  2  0  0  0  0  0  0
  -19.6600  -26.8830   22.2860 C   0  0  0  0  0  0  0  0  0  0  0  0
  -19.2480  -27.9550   23.1070 C   0  0  0  0  0  3  0  0  0  0  0  0
  -17.8830  -28.1650   23.3840 C   0  0  0  0  0  3  0  0  0  0  0  0
  -16.9140  -27.2940   22.8530 C   0  0  0  0  0  3  0  0  0  0  0  0
  -17.3130  -26.2210   22.0390 C   0  0  0  0  0  3  0  0  0  0  0  0
  -26.1510  -31.2120   23.0100 C   0  0  0  0  0  3  0  0  0  0  0  0
  -25.8110  -32.4170   23.7780 N   0  0  0  0  0  0  0  0  0  0  0  0
  -25.9970  -33.6720   23.3450 C   0  0  0  0  0  0  0  0  0  0  0  0
  -26.5480  -33.9360   22.2730 O   0  0  0  0  0  0  0  0  0  0  0  0
  -25.3060  -32.2790   24.6400 H   0  0  0  0  0  0  0  0  0  0  0  0
  -24.1740  -35.3720   23.6850 C   0  0  0  0  0  1  0  0  0  0  0  0
  -25.4930  -34.8160   24.2460 C   0  0  0  0  0  3  0  0  0  0  0  0
  -27.6490  -35.5360   25.1730 C   0  0  0  0  0  1  0  0  0  0  0  0
  -26.4700  -35.9140   24.4000 N   0  0  0  0  0  0  0  0  0  0  0  0
  -26.0390  -36.7180   24.8510 H   0  0  0  0  0  0  0  0  0  0  0  0
  -26.9670  -30.1940   23.8980 C   0  0  1  0  0  0  0  0  0  0  0  0
  -26.1310  -29.5460   25.0240 C   0  0  0  0  0  1  0  0  0  0  0  0
  -27.5520  -29.0590   23.0240 C   0  0  0  0  0  1  0  0  0  0  0  0
  -28.1710  -30.9160   24.5500 C   0  0  0  0  0  1  0  0  0  0  0  0
  1  4  1  0
  3  1  1  0
  3  6  1  0
  4 12  1  0
  4  2  1  0
  5  2  1  0
  5 52  1  0
  6  5  1  0
  6  7  1  6
  8  9  2  0
  8 10  1  0
  9 12  1  0
 10 13  2  0
 12 11  2  0
 13 11  1  0
 13 22  1  0
 14 22  1  0
 15 20  1  0
 16 17  1  0
 16 15  1  0
 18 17  1  0
 18 27  1  0
 18 19  1  0
 20 14  1  0
 20 19  1  0
 21 14  2  0
 22 23  1  0
 24 25  2  0
 25 44  1  0
 26 25  1  0
 26 29  1  0
 27 28  1  0
 27 24  1  0
 28 26  2  0
 29 30  1  0
 30 31  2  0
 32 35  1  0
 32 31  1  0
 33 32  2  0
 34 33  1  0
 34 29  2  0
 35 36  1  0
 36 41  2  0
 36 37  1  0
 37 38  2  0
 38 39  1  0
 39 43  1  0
 40 39  2  0
 41 40  1  0
 42 41  1  0
 44 45  1  0
 45 48  1  0
 45 47  1  0
 46 44  2  0
 49 24  1  0
 49 50  1  0
 51 49  1  0
 52 53  1  0
 54  6  1  0
 55 56  1  0
 55 54  1  0
 57 59  1  0
 57 56  1  0
 58 69  2  0
 59 64  1  0
 60 68  1  0
 60 70  1  0
 61 67  1  0
 61 63  1  0
 62 68  1  0
 63 62  1  0
 64 63  2  0
 65 66  1  0
 65 59  2  0
 66 61  2  0
 67 60  1  0
 68 58  1  0
 70 72  2  0
 71 70  1  0
 73 71  1  0
 74 83  2  0
 74 79  1  0
 75 71  1  0
 75 79  1  0
 76 75  1  0
 77 78  1  0
 77 76  1  0
 78 74  1  0
 79 80  2  0
 80 81  1  0
 82 81  2  0
 83 82  1  0
 84 58  1  0
 84 85  1  0
 84 94  1  0
 85 88  1  0
 86 85  1  0
 86 90  1  0
 87 86  2  0
 90 89  1  0
 90 92  1  0
 92 93  1  0
 92 91  1  0
 94 97  1  1
 94 95  1  0
 96 94  1  0
M  ISO  4  14 100  22 100  56 101  57 101
M  END
>  <TORSDO>  (52) 
F 21

>  <SCORE>  (52) 
-9.137

>  <name>  (52) 
51

>  <ligand_id>  (52) 
51

>  <original_smiles>  (52) 
[H]OC1([H])C([H])([H])C([H])(c2c([H])c([H])c([H])c(N([H])C(=O)N3C([H])([H])C([H])([H])C([H])([H])C([H])(n4nc(-c5c([H])c([H])c(Oc6c([H])c([H])c(F)c([H])c6F)c([H])c5[H])c(C(=O)N([H])[H])c4N([H])[H])C3([H])[H])c2[H])C([H])([H])C([H])([H])[N+]1([H])C([H])([H])C([H])([H])C([H])([H])Oc1c([H])c([H])c2c(c1[H])C([H])([H])N(C(=O)C([H])(N([H])C(=O)C([H])(N([H])C([H])([H])[H])C([H])([H])[H])C(C([H])([H])[H])(C([H])([H])[H])C([H])([H])[H])C([H])(C(=O)N([H])C1([H])c3c([H])c([H])c([H])c([H])c3C([H])([H])C([H])([H])C1([H])[H])C2([H])[H]

>  <smiles>  (52) 
[H]OC1([H])C([H])([H])C([H])(c2c([H])c([H])c([H])c(N([H])C(=O)N3C([H])([H])C([H])([H])C([H])([H])C([H])(n4nc(-c5c([H])c([H])c(Oc6c([H])c([H])c(F)c([H])c6F)c([H])c5[H])c(C(=O)N([H])[H])c4N([H])[H])C3([H])[H])c2[H])C([H])([H])C([H])([H])[N+]1([H])C([H])([H])C([H])([H])C([H])([H])Oc1c([H])c([H])c2c(c1[H])C([H])([H])N(C(=O)C([H])(N([H])C(=O)C([H])(N([H])C([H])([H])[H])C([H])([H])[H])C(C([H])([H])[H])(C([H])([H])[H])C([H])([H])[H])C([H])(C(=O)N([H])C1([H])c3c([H])c([H])c([H])c([H])c3C([H])([H])C([H])([H])C1([H])[H])C2([H])[H]

$$$$
52:0:0
     RDKit          3D

 95102  0  0  1  0  0  0  0  0999 V2000
  -30.3620  -23.2620   22.5400 C   0  0  0  0  0  0  0  0  0  0  0  0
  -30.0750  -24.5580   22.3500 N   0  0  0  0  0  0  0  0  0  0  0  0
  -30.4400  -22.4650   21.6050 O   0  0  0  0  0  0  0  0  0  0  0  0
  -30.0520  -25.1760   23.1500 H   0  0  0  0  0  0  0  0  0  0  0  0
  -30.6190  -22.7790   23.9750 C   0  0  0  0  0  2  0  0  0  0  0  0
  -29.6670  -21.6540   24.4740 C   0  0  0  0  0  2  0  0  0  0  0  0
  -30.1880  -20.2030   24.3050 C   0  0  0  0  0  2  0  0  0  0  0  0
  -30.0300  -19.6300   22.8810 C   0  0  0  0  0  2  0  0  0  0  0  0
  -31.0500  -18.5280   22.5270 C   0  0  0  0  0  2  0  0  0  0  0  0
  -30.9480  -18.1250   21.1050 N   0  0  0  0  0  4  0  0  0  0  0  0
  -29.9870  -17.9430   20.8660 H   0  0  0  0  0  0  0  0  0  0  0  0
  -31.2420  -18.9080   20.5420 H   0  0  0  0  0  0  0  0  0  0  0  0
  -31.7870  -16.9690   20.7030 C   0  0  0  0  0  2  0  0  0  0  0  0
  -31.1410  -15.6010   21.0290 C   0  0  0  0  0  2  0  0  0  0  0  0
  -31.7200  -14.4310   20.2060 C   0  0  0  0  0  0  0  0  0  0  0  0
  -31.2440  -12.3640   18.9420 C   0  0  0  0  0  2  0  0  0  0  0  0
  -30.3140  -12.7040   17.7580 C   0  0  0  0  0  2  0  0  0  0  0  0
  -28.8330  -12.6900   18.1920 C   0  0  0  0  0  2  0  0  0  0  0  0
  -28.5840  -13.5050   19.4900 C   0  0  0  0  0  3  0  0  0  0  0  0
  -29.6130  -13.1140   20.5750 C   0  0  0  0  0  2  0  0  0  0  0  0
  -30.9580  -13.3230   20.0170 N   0  0  0  0  0  0  0  0  0  0  0  0
  -32.8270  -14.5720   19.6710 O   0  0  0  0  0  0  0  0  0  0  0  0
  -26.2490  -14.3250   20.2060 C   0  0  0  0  0  0  0  0  0  0  0  0
  -25.1190  -13.6510   20.5740 C   0  0  0  0  0  0  0  0  0  0  0  0
  -25.4540  -12.2620   20.5270 C   0  0  0  0  0  0  0  0  0  0  0  0
  -27.2110  -13.3560   19.9640 N   0  0  0  0  0  0  0  0  0  0  0  0
  -26.7330  -12.1090   20.2100 N   0  0  0  0  0  0  0  0  0  0  0  0
  -24.6200  -11.0690   20.7020 C   0  0  0  0  0  0  0  0  0  0  0  0
  -24.9840  -10.0410   21.5990 C   0  0  0  0  0  3  0  0  0  0  0  0
  -24.1560   -8.9110   21.7660 C   0  0  0  0  0  3  0  0  0  0  0  0
  -22.9500   -8.8000   21.0340 C   0  0  0  0  0  0  0  0  0  0  0  0
  -22.6060   -9.8150   20.1230 C   0  0  0  0  0  3  0  0  0  0  0  0
  -23.4340  -10.9360   19.9540 C   0  0  0  0  0  3  0  0  0  0  0  0
  -22.0940   -7.7290   21.1150 O   0  0  0  0  0  0  0  0  0  0  0  0
  -21.9950   -6.9700   22.2530 C   0  0  0  0  0  0  0  0  0  0  0  0
  -21.6780   -7.5380   23.5050 C   0  0  0  0  0  3  0  0  0  0  0  0
  -21.5200   -6.7110   24.6350 C   0  0  0  0  0  3  0  0  0  0  0  0
  -21.6700   -5.3160   24.5140 C   0  0  0  0  0  0  0  0  0  0  0  0
  -21.9800   -4.7480   23.2660 C   0  0  0  0  0  3  0  0  0  0  0  0
  -22.1410   -5.5710   22.1390 C   0  0  0  0  0  0  0  0  0  0  0  0
  -22.4220   -5.0160   20.9360 F   0  0  0  0  0  0  0  0  0  0  0  0
  -21.5080   -4.5210   25.5970 F   0  0  0  0  0  0  0  0  0  0  0  0
  -23.7700  -14.2480   20.8610 C   0  0  0  0  0  0  0  0  0  0  0  0
  -22.9940  -13.6200   21.7370 N   0  0  0  0  0  0  0  0  0  0  0  0
  -23.4170  -15.3050   20.3400 O   0  0  0  0  0  0  0  0  0  0  0  0
  -23.2930  -12.7640   22.1820 H   0  0  0  0  0  0  0  0  0  0  0  0
  -22.0860  -14.0000   21.9670 H   0  0  0  0  0  0  0  0  0  0  0  0
  -26.5410  -15.6770   20.0380 N   0  0  0  0  0  0  0  0  0  0  0  0
  -25.8330  -16.3960   20.1320 H   0  0  0  0  0  0  0  0  0  0  0  0
  -27.4100  -16.0250   19.6560 H   0  0  0  0  0  0  0  0  0  0  0  0
  -29.7640  -25.1490   21.0400 C   0  0  0  0  0  3  0  0  0  0  0  0
  -31.0220  -25.7810   20.4180 C   0  0  0  0  0  3  0  0  0  0  0  0
  -31.9600  -25.1340   19.9430 O   0  0  0  0  0  0  0  0  0  0  0  0
  -28.6860  -26.2360   21.2180 C   0  0  0  0  0  2  0  0  0  0  0  0
  -28.1490  -26.5930   19.9480 O   0  0  0  0  0  0  0  0  0  0  0  0
  -24.6290  -31.8570   23.2150 C   0  0  0  0  0  0  0  0  0  0  0  0
  -27.0290  -27.3790   20.0210 C   0  0  0  0  0  0  0  0  0  0  0  0
  -23.3250  -30.5080   21.5980 C   0  0  0  0  0  3  0  0  0  0  0  0
  -24.6810  -28.9330   20.1230 C   0  0  0  0  0  0  0  0  0  0  0  0
  -25.8480  -30.7960   21.3200 C   0  0  0  0  0  2  0  0  0  0  0  0
  -25.8690  -29.4220   20.6820 C   0  0  0  0  0  0  0  0  0  0  0  0
  -27.0470  -28.6470   20.6410 C   0  0  0  0  0  3  0  0  0  0  0  0
  -25.8350  -26.9000   19.4500 C   0  0  0  0  0  3  0  0  0  0  0  0
  -24.6540  -27.6660   19.5130 C   0  0  0  0  0  3  0  0  0  0  0  0
  -23.4690  -29.8300   20.2080 C   0  0  0  0  0  2  0  0  0  0  0  0
  -24.6220  -31.0660   22.1030 N   0  0  0  0  0  0  0  0  0  0  0  0
  -23.5750  -32.1630   23.7910 O   0  0  0  0  0  0  0  0  0  0  0  0
  -22.6700  -29.5020   22.5700 C   0  0  0  0  0  0  0  0  0  0  0  0
  -21.3410  -29.3430   22.4570 N   0  0  0  0  0  0  0  0  0  0  0  0
  -23.3500  -28.8660   23.3790 O   0  0  0  0  0  0  0  0  0  0  0  0
  -20.8530  -29.9040   21.7730 H   0  0  0  0  0  0  0  0  0  0  0  0
  -17.9650  -28.1640   22.9360 C   0  0  0  0  0  0  0  0  0  0  0  0
  -20.5170  -28.4250   23.2400 C   0  0  0  0  0  3  0  0  0  0  0  0
  -20.6290  -26.9790   22.7010 C   0  0  0  0  0  2  0  0  0  0  0  0
  -19.5420  -26.6320   21.6800 C   0  0  0  0  0  2  0  0  0  0  0  0
  -18.1500  -26.7970   22.2990 C   0  0  0  0  0  2  0  0  0  0  0  0
  -19.0780  -28.9340   23.3640 C   0  0  0  0  0  0  0  0  0  0  0  0
  -18.8560  -30.2120   23.9190 C   0  0  0  0  0  3  0  0  0  0  0  0
  -17.5510  -30.7230   24.0520 C   0  0  0  0  0  3  0  0  0  0  0  0
  -16.4510  -29.9500   23.6430 C   0  0  0  0  0  3  0  0  0  0  0  0
  -16.6580  -28.6720   23.0930 C   0  0  0  0  0  3  0  0  0  0  0  0
  -25.9580  -32.4360   23.7970 C   0  0  0  0  0  3  0  0  0  0  0  0
  -25.7110  -33.8410   24.1480 N   0  0  0  0  0  0  0  0  0  0  0  0
  -26.0590  -34.8860   23.3870 C   0  0  0  0  0  0  0  0  0  0  0  0
  -26.6940  -34.7670   22.3360 O   0  0  0  0  0  0  0  0  0  0  0  0
  -25.1500  -34.0100   24.9700 H   0  0  0  0  0  0  0  0  0  0  0  0
  -24.3790  -36.7360   23.1050 C   0  0  0  0  0  1  0  0  0  0  0  0
  -25.6350  -36.2870   23.8680 C   0  0  0  0  0  3  0  0  0  0  0  0
  -27.8250  -37.0910   24.6290 C   0  0  0  0  0  1  0  0  0  0  0  0
  -26.6980  -37.3050   23.7250 N   0  0  0  0  0  0  0  0  0  0  0  0
  -26.3300  -38.2360   23.8990 H   0  0  0  0  0  0  0  0  0  0  0  0
  -26.4940  -31.6320   25.0430 C   0  0  1  0  0  0  0  0  0  0  0  0
  -25.4320  -31.4210   26.1460 C   0  0  0  0  0  1  0  0  0  0  0  0
  -27.0140  -30.2420   24.6080 C   0  0  0  0  0  1  0  0  0  0  0  0
  -27.6950  -32.3750   25.6750 C   0  0  0  0  0  1  0  0  0  0  0  0
  1  5  1  0
  2  1  1  0
  2  4  1  0
  3  1  2  0
  5  6  1  0
  7  6  1  0
  8  7  1  0
  9  8  1  0
 10  9  1  0
 11 10  1  0
 12 10  1  0
 13 14  1  0
 13 10  1  0
 15 14  1  0
 16 21  1  0
 17 18  1  0
 17 16  1  0
 19 18  1  0
 19 26  1  0
 19 20  1  0
 21 15  1  0
 21 20  1  0
 22 15  2  0
 23 24  2  0
 24 43  1  0
 25 24  1  0
 25 28  1  0
 26 23  1  0
 26 27  1  0
 27 25  2  0
 28 29  1  0
 29 30  2  0
 31 34  1  0
 31 30  1  0
 32 31  2  0
 33 32  1  0
 33 28  2  0
 34 35  1  0
 35 36  1  0
 36 37  2  0
 38 37  1  0
 38 42  1  0
 39 38  2  0
 40 35  2  0
 40 39  1  0
 41 40  1  0
 43 44  1  0
 44 47  1  0
 44 46  1  0
 45 43  2  0
 48 49  1  0
 48 23  1  0
 50 48  1  0
 51 52  1  0
 51 54  1  0
 51  2  1  0
 53 52  2  0
 55 57  1  0
 55 54  1  0
 56 67  2  0
 57 62  1  0
 58 66  1  0
 58 68  1  0
 59 65  1  0
 59 61  1  0
 60 66  1  0
 61 60  1  0
 62 61  2  0
 63 64  1  0
 63 57  2  0
 64 59  2  0
 65 58  1  0
 66 56  1  0
 68 70  2  0
 69 68  1  0
 71 69  1  0
 72 81  2  0
 72 77  1  0
 73 69  1  0
 73 77  1  0
 74 73  1  0
 75 76  1  0
 75 74  1  0
 76 72  1  0
 77 78  2  0
 78 79  1  0
 80 79  2  0
 81 80  1  0
 82 56  1  0
 82 83  1  0
 82 92  1  0
 83 86  1  0
 84 88  1  0
 84 83  1  0
 85 84  2  0
 88 87  1  0
 90 88  1  0
 90 91  1  0
 90 89  1  0
 92 95  1  1
 92 93  1  0
 94 92  1  0
M  ISO  4  14 100  15 100  54 101  55 101
M  END
>  <TORSDO>  (53) 
F 27

>  <SCORE>  (53) 
-9.294

>  <name>  (53) 
52

>  <ligand_id>  (53) 
52

>  <original_smiles>  (53) 
[H]C(=O)C([H])(N([H])C(=O)C([H])([H])C([H])([H])C([H])([H])C([H])([H])C([H])([H])[N+]([H])([H])C([H])([H])C([H])([H])C(=O)N1C([H])([H])C([H])([H])C([H])([H])C([H])(n2nc(-c3c([H])c([H])c(Oc4c([H])c([H])c(F)c([H])c4F)c([H])c3[H])c(C(=O)N([H])[H])c2N([H])[H])C1([H])[H])C([H])([H])Oc1c([H])c([H])c2c(c1[H])C([H])([H])N(C(=O)C([H])(N([H])C(=O)C([H])(N([H])C([H])([H])[H])C([H])([H])[H])C(C([H])([H])[H])(C([H])([H])[H])C([H])([H])[H])C([H])(C(=O)N([H])C1([H])c3c([H])c([H])c([H])c([H])c3C([H])([H])C([H])([H])C1([H])[H])C2([H])[H]

>  <smiles>  (53) 
[H]C(=O)C([H])(N([H])C(=O)C([H])([H])C([H])([H])C([H])([H])C([H])([H])C([H])([H])[N+]([H])([H])C([H])([H])C([H])([H])C(=O)N1C([H])([H])C([H])([H])C([H])([H])C([H])(n2nc(-c3c([H])c([H])c(Oc4c([H])c([H])c(F)c([H])c4F)c([H])c3[H])c(C(=O)N([H])[H])c2N([H])[H])C1([H])[H])C([H])([H])Oc1c([H])c([H])c2c(c1[H])C([H])([H])N(C(=O)C([H])(N([H])C(=O)C([H])(N([H])C([H])([H])[H])C([H])([H])[H])C(C([H])([H])[H])(C([H])([H])[H])C([H])([H])[H])C([H])(C(=O)N([H])C1([H])c3c([H])c([H])c([H])c([H])c3C([H])([H])C([H])([H])C1([H])[H])C2([H])[H]

$$$$
53:0:0
     RDKit          3D

 93102  0  0  1  0  0  0  0  0999 V2000
  -29.5610  -20.2740   20.8090 C   0  0  0  0  0  0  0  0  0  0  0  0
  -28.9000  -21.4950   20.3250 N   0  0  0  0  0  0  0  0  0  0  0  0
  -30.3470  -20.4720   21.7380 O   0  0  0  0  0  0  0  0  0  0  0  0
  -28.2250  -21.3210   19.5890 H   0  0  0  0  0  0  0  0  0  0  0  0
  -32.6160  -17.4210   19.2460 C   0  0  0  0  0  0  0  0  0  0  0  0
  -32.4850  -17.4950   17.7200 C   0  0  0  0  0  2  0  0  0  0  0  0
  -31.0900  -17.0960   17.2130 C   0  0  0  0  0  2  0  0  0  0  0  0
  -29.9280  -17.6410   18.0650 C   0  0  0  0  0  2  0  0  0  0  0  0
  -31.4680  -18.0110   20.0710 C   0  0  0  0  0  3  0  0  0  0  0  0
  -30.4100  -17.2060   20.9300 C   0  0  0  0  0  3  0  0  0  0  0  0
  -29.5020  -18.6000   20.3110 C   0  0  0  0  0  3  0  0  0  0  0  0
  -30.3940  -18.5140   19.1790 N   0  0  2  0  0  4  0  0  0  0  0  0
  -33.6880  -17.0130   19.6980 O   0  0  0  0  0  0  0  0  0  0  0  0
  -30.6120  -19.4400   18.8420 H   0  0  0  0  0  0  0  0  0  0  0  0
  -30.7600  -15.4730   20.8120 C   0  0  0  0  0  0  0  0  0  0  0  0
  -30.6980  -13.0080   20.0460 C   0  0  0  0  0  2  0  0  0  0  0  0
  -29.9240  -12.7640   18.7320 C   0  0  0  0  0  2  0  0  0  0  0  0
  -28.4460  -12.4960   19.0400 C   0  0  0  0  0  2  0  0  0  0  0  0
  -27.8770  -13.4980   20.0750 C   0  0  0  0  0  3  0  0  0  0  0  0
  -28.8060  -13.7560   21.2810 C   0  0  0  0  0  2  0  0  0  0  0  0
  -30.1010  -14.2110   20.7510 N   0  0  0  0  0  0  0  0  0  0  0  0
  -31.9760  -15.2650   20.7580 O   0  0  0  0  0  0  0  0  0  0  0  0
  -25.4410  -14.0110   20.6050 C   0  0  0  0  0  0  0  0  0  0  0  0
  -24.3670  -13.2170   20.8930 C   0  0  0  0  0  0  0  0  0  0  0  0
  -24.8670  -11.8780   20.9490 C   0  0  0  0  0  0  0  0  0  0  0  0
  -26.5190  -13.1580   20.4820 N   0  0  0  0  0  0  0  0  0  0  0  0
  -26.1830  -11.8710   20.7630 N   0  0  0  0  0  0  0  0  0  0  0  0
  -24.1530  -10.6030   21.1070 C   0  0  0  0  0  0  0  0  0  0  0  0
  -24.5260   -9.6620   22.0910 C   0  0  0  0  0  3  0  0  0  0  0  0
  -23.8080   -8.4550   22.2360 C   0  0  0  0  0  3  0  0  0  0  0  0
  -22.7020   -8.1810   21.3970 C   0  0  0  0  0  0  0  0  0  0  0  0
  -22.3500   -9.1110   20.4040 C   0  0  0  0  0  3  0  0  0  0  0  0
  -23.0680  -10.3090   20.2570 C   0  0  0  0  0  3  0  0  0  0  0  0
  -21.9620   -7.0250   21.4490 O   0  0  0  0  0  0  0  0  0  0  0  0
  -21.8400   -6.2990   22.6070 C   0  0  0  0  0  0  0  0  0  0  0  0
  -21.2960   -6.8600   23.7830 C   0  0  0  0  0  3  0  0  0  0  0  0
  -21.1230   -6.0600   24.9310 C   0  0  0  0  0  3  0  0  0  0  0  0
  -21.4850   -4.7010   24.9030 C   0  0  0  0  0  0  0  0  0  0  0  0
  -22.0220   -4.1390   23.7310 C   0  0  0  0  0  3  0  0  0  0  0  0
  -22.1950   -4.9360   22.5850 C   0  0  0  0  0  0  0  0  0  0  0  0
  -22.6930   -4.3840   21.4530 F   0  0  0  0  0  0  0  0  0  0  0  0
  -21.3130   -3.9300   26.0020 F   0  0  0  0  0  0  0  0  0  0  0  0
  -22.9410  -13.6660   21.0100 C   0  0  0  0  0  0  0  0  0  0  0  0
  -22.1540  -12.9930   21.8410 N   0  0  0  0  0  0  0  0  0  0  0  0
  -22.5310  -14.6530   20.4010 O   0  0  0  0  0  0  0  0  0  0  0  0
  -22.4980  -12.1970   22.3580 H   0  0  0  0  0  0  0  0  0  0  0  0
  -21.1920  -13.2790   21.9650 H   0  0  0  0  0  0  0  0  0  0  0  0
  -25.5880  -15.3800   20.4040 N   0  0  0  0  0  0  0  0  0  0  0  0
  -24.8000  -16.0170   20.4340 H   0  0  0  0  0  0  0  0  0  0  0  0
  -26.4570  -15.8360   20.1630 H   0  0  0  0  0  0  0  0  0  0  0  0
  -29.0270  -23.1040   20.6970 C   0  0  0  0  0  3  0  0  0  0  0  0
  -28.0910  -24.5370   20.2130 C   0  0  0  0  0  3  0  0  0  0  0  0
  -28.3150  -26.1400   20.4160 O   0  0  0  0  0  0  0  0  0  0  0  0
  -24.6280  -32.0150   23.2820 C   0  0  0  0  0  0  0  0  0  0  0  0
  -27.2870  -27.2000   20.3190 C   0  0  0  0  0  0  0  0  0  0  0  0
  -23.4710  -30.5910   21.6410 C   0  0  0  0  0  3  0  0  0  0  0  0
  -24.9590  -29.0110   20.2380 C   0  0  0  0  0  0  0  0  0  0  0  0
  -26.0320  -30.8560   21.5140 C   0  0  0  0  0  2  0  0  0  0  0  0
  -26.1310  -29.4480   20.8660 C   0  0  0  0  0  0  0  0  0  0  0  0
  -27.2930  -28.5620   20.8830 C   0  0  0  0  0  3  0  0  0  0  0  0
  -26.0850  -26.9010   19.6410 C   0  0  0  0  0  3  0  0  0  0  0  0
  -24.9580  -27.7590   19.6050 C   0  0  0  0  0  3  0  0  0  0  0  0
  -23.7230  -29.9070   20.2690 C   0  0  0  0  0  2  0  0  0  0  0  0
  -24.7310  -31.1800   22.1990 N   0  0  0  0  0  0  0  0  0  0  0  0
  -23.5300  -32.2890   23.7920 O   0  0  0  0  0  0  0  0  0  0  0  0
  -22.7890  -29.5860   22.6030 C   0  0  0  0  0  0  0  0  0  0  0  0
  -21.4640  -29.3970   22.4650 N   0  0  0  0  0  0  0  0  0  0  0  0
  -23.4570  -28.9780   23.4440 O   0  0  0  0  0  0  0  0  0  0  0  0
  -20.9780  -29.9390   21.7640 H   0  0  0  0  0  0  0  0  0  0  0  0
  -18.0940  -28.1470   22.9560 C   0  0  0  0  0  0  0  0  0  0  0  0
  -20.6480  -28.4500   23.2340 C   0  0  0  0  0  3  0  0  0  0  0  0
  -20.7730  -27.0170   22.6640 C   0  0  0  0  0  2  0  0  0  0  0  0
  -19.6810  -26.6770   21.6440 C   0  0  0  0  0  2  0  0  0  0  0  0
  -18.2940  -26.8010   22.2800 C   0  0  0  0  0  2  0  0  0  0  0  0
  -19.1990  -28.9290   23.3890 C   0  0  0  0  0  0  0  0  0  0  0  0
  -18.9560  -30.1860   23.9840 C   0  0  0  0  0  3  0  0  0  0  0  0
  -17.6410  -30.6640   24.1460 C   0  0  0  0  0  3  0  0  0  0  0  0
  -16.5510  -29.8800   23.7270 C   0  0  0  0  0  3  0  0  0  0  0  0
  -16.7790  -28.6240   23.1380 C   0  0  0  0  0  3  0  0  0  0  0  0
  -25.8840  -32.6800   23.9230 C   0  0  0  0  0  3  0  0  0  0  0  0
  -26.3690  -31.9500   25.2370 C   0  0  1  0  0  0  0  0  0  0  0  0
  -25.2450  -31.7170   26.2730 C   0  0  0  0  0  1  0  0  0  0  0  0
  -26.9910  -30.5750   24.9060 C   0  0  0  0  0  1  0  0  0  0  0  0
  -27.4830  -32.7820   25.9160 C   0  0  0  0  0  1  0  0  0  0  0  0
  -25.5510  -34.0850   24.2170 N   0  0  0  0  0  0  0  0  0  0  0  0
  -25.9050  -35.1320   23.4590 C   0  0  0  0  0  0  0  0  0  0  0  0
  -26.6090  -35.0170   22.4530 O   0  0  0  0  0  0  0  0  0  0  0  0
  -24.9290  -34.2470   24.9940 H   0  0  0  0  0  0  0  0  0  0  0  0
  -24.1890  -36.9230   23.0260 C   0  0  0  0  0  1  0  0  0  0  0  0
  -25.4010  -36.5270   23.8840 C   0  0  0  0  0  3  0  0  0  0  0  0
  -27.5030  -37.4290   24.7800 C   0  0  0  0  0  1  0  0  0  0  0  0
  -26.4370  -37.5800   23.7930 N   0  0  0  0  0  0  0  0  0  0  0  0
  -26.0240  -38.5030   23.9110 H   0  0  0  0  0  0  0  0  0  0  0  0
  1  3  2  0
  2 51  1  0
  2  1  1  0
  4  2  1  0
  5 13  2  0
  6  5  1  0
  7  6  1  0
  7  8  1  0
  8 12  1  0
  9  5  1  0
  9 10  1  0
 10 15  1  0
 11  1  1  0
 11 10  1  0
 12 14  1  6
 12  9  1  0
 12 11  1  0
 16 21  1  0
 17 18  1  0
 17 16  1  0
 19 18  1  0
 19 26  1  0
 19 20  1  0
 21 15  1  0
 21 20  1  0
 22 15  2  0
 23 24  2  0
 24 25  1  0
 24 43  1  0
 25 28  1  0
 26 23  1  0
 26 27  1  0
 27 25  2  0
 28 29  1  0
 29 30  2  0
 31 34  1  0
 31 30  1  0
 32 31  2  0
 33 32  1  0
 33 28  2  0
 34 35  1  0
 35 36  1  0
 36 37  2  0
 38 37  1  0
 38 42  1  0
 39 38  2  0
 40 35  2  0
 40 39  1  0
 41 40  1  0
 43 44  1  0
 44 47  1  0
 44 46  1  0
 45 43  2  0
 48 49  1  0
 48 23  1  0
 50 48  1  0
 52 53  1  0
 52 51  2  0
 54 65  2  0
 55 53  1  0
 55 60  1  0
 56 64  1  0
 56 66  1  0
 57 63  1  0
 57 59  1  0
 58 64  1  0
 59 60  2  0
 59 58  1  0
 61 55  2  0
 62 61  1  0
 62 57  2  0
 63 56  1  0
 64 54  1  0
 66 68  2  0
 67 66  1  0
 69 67  1  0
 70 79  2  0
 70 75  1  0
 71 67  1  0
 71 75  1  0
 72 71  1  0
 73 74  1  0
 73 72  1  0
 74 70  1  0
 75 76  2  0
 76 77  1  0
 78 77  2  0
 79 78  1  0
 80 54  1  0
 80 85  1  0
 80 81  1  0
 81 84  1  1
 81 82  1  0
 83 81  1  0
 85 88  1  0
 86 90  1  0
 86 85  1  0
 87 86  2  0
 90 89  1  0
 92 90  1  0
 92 93  1  0
 92 91  1  0
M  ISO  4  10 100  15 100  52 101  53 101
M  END
>  <TORSDO>  (54) 
F 19

>  <SCORE>  (54) 
-15.630

>  <name>  (54) 
53

>  <ligand_id>  (54) 
53

>  <original_smiles>  (54) 
[H]c1c([H])c([H])c2c(c1[H])C([H])([H])C([H])([H])C([H])([H])C2([H])N([H])C(=O)C1([H])N(C(=O)C([H])(N([H])C(=O)C([H])(N([H])C([H])([H])[H])C([H])([H])[H])C(C([H])([H])[H])(C([H])([H])[H])C([H])([H])[H])C([H])([H])c2c([H])c(OC([H])([H])C([H])([H])N([H])C(=O)C3([H])C([H])(C(=O)N4C([H])([H])C([H])([H])C([H])([H])C([H])(n5nc(-c6c([H])c([H])c(Oc7c([H])c([H])c(F)c([H])c7F)c([H])c6[H])c(C(=O)N([H])[H])c5N([H])[H])C4([H])[H])C4([H])C(=O)C([H])([H])C([H])([H])C([H])([H])[N+]34[H])c([H])c([H])c2C1([H])[H]

>  <smiles>  (54) 
[H]c1c([H])c([H])c2c(c1[H])C([H])([H])C([H])([H])C([H])([H])C2([H])N([H])C(=O)C1([H])N(C(=O)C([H])(N([H])C(=O)C([H])(N([H])C([H])([H])[H])C([H])([H])[H])C(C([H])([H])[H])(C([H])([H])[H])C([H])([H])[H])C([H])([H])c2c([H])c(OC([H])([H])C([H])([H])N([H])C(=O)C3([H])C([H])(C(=O)N4C([H])([H])C([H])([H])C([H])([H])C([H])(n5nc(-c6c([H])c([H])c(Oc7c([H])c([H])c(F)c([H])c7F)c([H])c6[H])c(C(=O)N([H])[H])c5N([H])[H])C4([H])[H])C4([H])C(=O)C([H])([H])C([H])([H])C([H])([H])[N+]34[H])c([H])c([H])c2C1([H])[H]

$$$$
54:0:0
     RDKit          3D

 99107  0  0  1  0  0  0  0  0999 V2000
  -33.0680  -21.7930   19.6910 C   0  0  0  0  0  3  0  0  0  0  0  0
  -32.5760  -20.6170   20.2880 C   0  0  0  0  0  3  0  0  0  0  0  0
  -32.1780  -22.8180   19.3150 C   0  0  0  0  0  3  0  0  0  0  0  0
  -30.3040  -21.4880   20.1320 C   0  0  0  0  0  3  0  0  0  0  0  0
  -31.1920  -20.4650   20.5170 C   0  0  0  0  0  0  0  0  0  0  0  0
  -30.7930  -22.6690   19.5380 C   0  0  0  0  0  0  0  0  0  0  0  0
  -30.6530  -19.2000   21.1560 C   0  0  0  0  0  2  0  0  0  0  0  0
  -31.0800  -19.0280   22.6320 C   0  0  0  0  0  2  0  0  0  0  0  0
  -30.5450  -17.7680   23.2120 N   0  0  1  0  0  4  0  0  0  0  0  0
  -29.5800  -17.7260   22.9220 H   0  0  0  0  0  0  0  0  0  0  0  0
  -31.1910  -16.5540   22.6440 C   0  0  0  0  0  2  0  0  0  0  0  0
  -30.1290  -15.6300   22.0130 C   0  0  0  0  0  2  0  0  0  0  0  0
  -30.5720  -14.8850   20.7420 C   0  0  0  0  0  0  0  0  0  0  0  0
  -30.3330  -12.8950   19.2920 C   0  0  0  0  0  2  0  0  0  0  0  0
  -29.3790  -13.1180   18.1070 C   0  0  0  0  0  2  0  0  0  0  0  0
  -27.9160  -12.8660   18.5210 C   0  0  0  0  0  2  0  0  0  0  0  0
  -27.5310  -13.6160   19.8230 C   0  0  0  0  0  3  0  0  0  0  0  0
  -28.5830  -13.3630   20.9230 C   0  0  0  0  0  2  0  0  0  0  0  0
  -29.9050  -13.7550   20.4020 N   0  0  0  0  0  0  0  0  0  0  0  0
  -31.5330  -15.3080   20.0900 O   0  0  0  0  0  0  0  0  0  0  0  0
  -25.1090  -14.0730   20.5730 C   0  0  0  0  0  0  0  0  0  0  0  0
  -24.0710  -13.2310   20.8720 C   0  0  0  0  0  0  0  0  0  0  0  0
  -24.5840  -11.9060   20.7250 C   0  0  0  0  0  0  0  0  0  0  0  0
  -26.1870  -13.2550   20.2700 N   0  0  0  0  0  0  0  0  0  0  0  0
  -25.8740  -11.9430   20.4150 N   0  0  0  0  0  0  0  0  0  0  0  0
  -23.9100  -10.6040   20.8040 C   0  0  0  0  0  0  0  0  0  0  0  0
  -24.4040   -9.5650   21.6250 C   0  0  0  0  0  3  0  0  0  0  0  0
  -23.7280   -8.3270   21.6960 C   0  0  0  0  0  3  0  0  0  0  0  0
  -22.5450   -8.1200   20.9480 C   0  0  0  0  0  0  0  0  0  0  0  0
  -22.0710   -9.1500   20.1170 C   0  0  0  0  0  3  0  0  0  0  0  0
  -22.7460  -10.3800   20.0430 C   0  0  0  0  0  3  0  0  0  0  0  0
  -21.8370   -6.9430   20.9360 O   0  0  0  0  0  0  0  0  0  0  0  0
  -21.8700   -6.0720   21.9970 C   0  0  0  0  0  0  0  0  0  0  0  0
  -21.5000   -6.4720   23.2990 C   0  0  0  0  0  3  0  0  0  0  0  0
  -21.4800   -5.5280   24.3450 C   0  0  0  0  0  3  0  0  0  0  0  0
  -21.8210   -4.1850   24.0910 C   0  0  0  0  0  0  0  0  0  0  0  0
  -22.1840   -3.7860   22.7930 C   0  0  0  0  0  3  0  0  0  0  0  0
  -22.2050   -4.7260   21.7480 C   0  0  0  0  0  0  0  0  0  0  0  0
  -22.5350   -4.3320   20.4950 F   0  0  0  0  0  0  0  0  0  0  0  0
  -21.7960   -3.2770   25.0940 F   0  0  0  0  0  0  0  0  0  0  0  0
  -22.6560  -13.6270   21.1840 C   0  0  0  0  0  0  0  0  0  0  0  0
  -21.9620  -12.8350   21.9950 N   0  0  0  0  0  0  0  0  0  0  0  0
  -22.1710  -14.6690   20.7460 O   0  0  0  0  0  0  0  0  0  0  0  0
  -22.3630  -11.9900   22.3720 H   0  0  0  0  0  0  0  0  0  0  0  0
  -21.0140  -13.0810   22.2430 H   0  0  0  0  0  0  0  0  0  0  0  0
  -25.2230  -15.4590   20.5150 N   0  0  0  0  0  0  0  0  0  0  0  0
  -24.4400  -16.0800   20.6810 H   0  0  0  0  0  0  0  0  0  0  0  0
  -26.0580  -15.9470   20.2160 H   0  0  0  0  0  0  0  0  0  0  0  0
  -30.4930  -17.7560   24.6990 C   0  0  0  0  0  2  0  0  0  0  0  0
  -29.2380  -18.5410   26.7870 C   0  0  0  0  0  1  0  0  0  0  0  0
  -29.3960  -18.6790   25.2650 C   0  0  0  0  0  2  0  0  0  0  0  0
  -29.8200  -23.7770   19.1660 C   0  0  0  0  0  2  0  0  0  0  0  0
  -29.3330  -24.4970   20.3590 N   0  0  0  0  0  4  0  0  0  0  0  0
  -28.9430  -23.8130   20.9850 H   0  0  0  0  0  0  0  0  0  0  0  0
  -28.5870  -25.1120   20.0710 H   0  0  0  0  0  0  0  0  0  0  0  0
  -30.3340  -25.2930   21.1090 C   0  0  0  0  0  2  0  0  0  0  0  0
  -30.7420  -26.5960   20.3920 C   0  0  0  0  0  2  0  0  0  0  0  0
  -29.6300  -27.6510   20.3640 C   0  0  0  0  0  2  0  0  0  0  0  0
  -28.4910  -27.1410   19.6700 O   0  0  0  0  0  0  0  0  0  0  0  0
  -24.5090  -31.9540   23.1310 C   0  0  0  0  0  0  0  0  0  0  0  0
  -27.3080  -27.8430   19.7810 C   0  0  0  0  0  0  0  0  0  0  0  0
  -23.3270  -30.5730   21.4450 C   0  0  0  0  0  3  0  0  0  0  0  0
  -24.8170  -29.1770   19.9180 C   0  0  0  0  0  0  0  0  0  0  0  0
  -25.8160  -31.0810   21.2040 C   0  0  0  0  0  2  0  0  0  0  0  0
  -25.9530  -29.7480   20.5010 C   0  0  0  0  0  0  0  0  0  0  0  0
  -27.1950  -29.0920   20.4330 C   0  0  0  0  0  3  0  0  0  0  0  0
  -26.1540  -27.2740   19.2020 C   0  0  0  0  0  3  0  0  0  0  0  0
  -24.9090  -27.9340   19.2640 C   0  0  0  0  0  3  0  0  0  0  0  0
  -23.5330  -29.9650   20.0300 C   0  0  0  0  0  2  0  0  0  0  0  0
  -24.5680  -31.2150   21.9870 N   0  0  0  0  0  0  0  0  0  0  0  0
  -23.4330  -32.1480   23.7110 O   0  0  0  0  0  0  0  0  0  0  0  0
  -22.7480  -29.4780   22.3710 C   0  0  0  0  0  0  0  0  0  0  0  0
  -21.4350  -29.2310   22.2490 N   0  0  0  0  0  0  0  0  0  0  0  0
  -23.4750  -28.8570   23.1500 O   0  0  0  0  0  0  0  0  0  0  0  0
  -20.9110  -29.7890   21.5910 H   0  0  0  0  0  0  0  0  0  0  0  0
  -18.1380  -27.8250   22.7010 C   0  0  0  0  0  0  0  0  0  0  0  0
  -20.6760  -28.2220   22.9840 C   0  0  0  0  0  3  0  0  0  0  0  0
  -20.8620  -26.8200   22.3580 C   0  0  0  0  0  2  0  0  0  0  0  0
  -19.7800  -26.4710   21.3320 C   0  0  0  0  0  2  0  0  0  0  0  0
  -18.3930  -26.5110   21.9800 C   0  0  0  0  0  2  0  0  0  0  0  0
  -19.2110  -28.6350   23.1560 C   0  0  0  0  0  0  0  0  0  0  0  0
  -18.9220  -29.8650   23.7880 C   0  0  0  0  0  3  0  0  0  0  0  0
  -17.5900  -30.2830   23.9710 C   0  0  0  0  0  3  0  0  0  0  0  0
  -16.5320  -29.4680   23.5340 C   0  0  0  0  0  3  0  0  0  0  0  0
  -16.8050  -28.2420   22.9040 C   0  0  0  0  0  3  0  0  0  0  0  0
  -25.7850  -32.6080   23.7520 C   0  0  0  0  0  3  0  0  0  0  0  0
  -25.4330  -33.9760   24.1500 N   0  0  0  0  0  0  0  0  0  0  0  0
  -25.7160  -35.0730   23.4360 C   0  0  0  0  0  0  0  0  0  0  0  0
  -26.3760  -35.0420   22.3930 O   0  0  0  0  0  0  0  0  0  0  0  0
  -24.8460  -34.0720   24.9670 H   0  0  0  0  0  0  0  0  0  0  0  0
  -23.9150  -36.8070   23.1750 C   0  0  0  0  0  1  0  0  0  0  0  0
  -25.1790  -36.4180   23.9600 C   0  0  0  0  0  3  0  0  0  0  0  0
  -27.2890  -37.3430   24.8080 C   0  0  0  0  0  1  0  0  0  0  0  0
  -26.1690  -37.5150   23.8850 N   0  0  0  0  0  0  0  0  0  0  0  0
  -25.7310  -38.4100   24.0840 H   0  0  0  0  0  0  0  0  0  0  0  0
  -26.3680  -31.8000   24.9750 C   0  0  1  0  0  0  0  0  0  0  0  0
  -25.3100  -31.4420   26.0450 C   0  0  0  0  0  1  0  0  0  0  0  0
  -27.0150  -30.4790   24.4950 C   0  0  0  0  0  1  0  0  0  0  0  0
  -27.4890  -32.6180   25.6580 C   0  0  0  0  0  1  0  0  0  0  0  0
  1  2  1  0
  2  5  2  0
  3  6  1  0
  3  1  2  0
  4  5  1  0
  5  7  1  0
  6  4  2  0
  7  8  1  0
  8  9  1  0
  9 49  1  0
  9 10  1  6
 11  9  1  0
 12 11  1  0
 13 12  1  0
 14 19  1  0
 15 16  1  0
 15 14  1  0
 17 16  1  0
 17 24  1  0
 17 18  1  0
 19 13  1  0
 19 18  1  0
 20 13  2  0
 21 22  2  0
 22 41  1  0
 23 26  1  0
 23 22  1  0
 24 25  1  0
 24 21  1  0
 25 23  2  0
 26 27  1  0
 27 28  2  0
 29 28  1  0
 30 29  2  0
 31 30  1  0
 31 26  2  0
 32 29  1  0
 32 33  1  0
 33 34  1  0
 34 35  2  0
 36 35  1  0
 36 40  1  0
 37 36  2  0
 38 33  2  0
 38 37  1  0
 39 38  1  0
 41 42  1  0
 42 45  1  0
 42 44  1  0
 43 41  2  0
 46 21  1  0
 46 47  1  0
 48 46  1  0
 49 51  1  0
 51 50  1  0
 52  6  1  0
 52 53  1  0
 53 54  1  0
 53 56  1  0
 55 53  1  0
 57 56  1  0
 58 57  1  0
 59 61  1  0
 59 58  1  0
 60 71  2  0
 61 66  1  0
 62 70  1  0
 62 72  1  0
 63 69  1  0
 63 65  1  0
 64 70  1  0
 65 64  1  0
 66 65  2  0
 67 68  1  0
 67 61  2  0
 68 63  2  0
 69 62  1  0
 70 60  1  0
 72 74  2  0
 73 72  1  0
 75 73  1  0
 76 85  2  0
 76 81  1  0
 77 73  1  0
 77 81  1  0
 78 77  1  0
 79 80  1  0
 79 78  1  0
 80 76  1  0
 81 82  2  0
 82 83  1  0
 84 83  2  0
 85 84  1  0
 86 60  1  0
 86 87  1  0
 86 96  1  0
 87 90  1  0
 88 92  1  0
 88 87  1  0
 89 88  2  0
 92 91  1  0
 94 92  1  0
 94 95  1  0
 94 93  1  0
 96 99  1  1
 96 97  1  0
 98 96  1  0
M  ISO  4  12 100  13 100  58 101  59 101
M  END
>  <TORSDO>  (55) 
F 28

>  <SCORE>  (55) 
-5.586

>  <name>  (55) 
54

>  <ligand_id>  (55) 
54

>  <original_smiles>  (55) 
[H]c1c([H])c([H])c2c(c1[H])C([H])([H])C([H])([H])C([H])([H])C2([H])N([H])C(=O)C1([H])N(C(=O)C([H])(N([H])C(=O)C([H])(N([H])C([H])([H])[H])C([H])([H])[H])C(C([H])([H])[H])(C([H])([H])[H])C([H])([H])[H])C([H])([H])c2c([H])c(OC([H])([H])C([H])([H])C([H])([H])[N+]([H])([H])C([H])([H])c3c([H])c([H])c([H])c(C([H])([H])C([H])([H])[N+]([H])(C([H])([H])C([H])([H])C(=O)N4C([H])([H])C([H])([H])C([H])([H])C([H])(n5nc(-c6c([H])c([H])c(Oc7c([H])c([H])c(F)c([H])c7F)c([H])c6[H])c(C(=O)N([H])[H])c5N([H])[H])C4([H])[H])C([H])([H])C([H])([H])C([H])([H])[H])c3[H])c([H])c([H])c2C1([H])[H]

>  <smiles>  (55) 
[H]c1c([H])c([H])c2c(c1[H])C([H])([H])C([H])([H])C([H])([H])C2([H])N([H])C(=O)C1([H])N(C(=O)C([H])(N([H])C(=O)C([H])(N([H])C([H])([H])[H])C([H])([H])[H])C(C([H])([H])[H])(C([H])([H])[H])C([H])([H])[H])C([H])([H])c2c([H])c(OC([H])([H])C([H])([H])C([H])([H])[N+]([H])([H])C([H])([H])c3c([H])c([H])c([H])c(C([H])([H])C([H])([H])[N+]([H])(C([H])([H])C([H])([H])C(=O)N4C([H])([H])C([H])([H])C([H])([H])C([H])(n5nc(-c6c([H])c([H])c(Oc7c([H])c([H])c(F)c([H])c7F)c([H])c6[H])c(C(=O)N([H])[H])c5N([H])[H])C4([H])[H])C([H])([H])C([H])([H])C([H])([H])[H])c3[H])c([H])c([H])c2C1([H])[H]

$$$$
55:0:0
     RDKit          3D

 92100  0  0  1  0  0  0  0  0999 V2000
  -27.9390  -21.8940   20.7260 C   0  0  0  0  0  2  0  0  0  0  0  0
  -28.5030  -18.0980   20.3010 C   0  0  0  0  0  3  0  0  0  0  0  0
  -30.3620  -19.0050   21.5730 C   0  0  0  0  0  3  0  0  0  0  0  0
  -27.9810  -19.4010   20.1350 C   0  0  0  0  0  3  0  0  0  0  0  0
  -29.8390  -20.3090   21.4100 C   0  0  0  0  0  3  0  0  0  0  0  0
  -29.6800  -17.8830   21.0510 C   0  0  0  0  0  0  0  0  0  0  0  0
  -28.6260  -20.5190   20.7140 C   0  0  0  0  0  0  0  0  0  0  0  0
  -30.1700  -16.4620   21.3430 C   0  0  0  0  0  2  0  0  0  0  0  0
  -31.0560  -14.5510   20.0630 C   0  0  0  0  0  0  0  0  0  0  0  0
  -30.6810  -12.3980   18.9380 C   0  0  0  0  0  2  0  0  0  0  0  0
  -29.7080  -12.6510   17.7690 C   0  0  0  0  0  2  0  0  0  0  0  0
  -28.2430  -12.5570   18.2430 C   0  0  0  0  0  2  0  0  0  0  0  0
  -27.9700  -13.3750   19.5340 C   0  0  0  0  0  3  0  0  0  0  0  0
  -29.0610  -13.1150   20.5980 C   0  0  0  0  0  2  0  0  0  0  0  0
  -30.3650  -13.3850   19.9780 N   0  0  0  0  0  0  0  0  0  0  0  0
  -32.2140  -14.6810   19.6640 O   0  0  0  0  0  0  0  0  0  0  0  0
  -30.2870  -15.6440   20.1430 N   0  0  0  0  0  0  0  0  0  0  0  0
  -30.4810  -16.2510   19.3630 H   0  0  0  0  0  0  0  0  0  0  0  0
  -25.6080  -14.0360   20.3140 C   0  0  0  0  0  0  0  0  0  0  0  0
  -24.5330  -13.2840   20.7100 C   0  0  0  0  0  0  0  0  0  0  0  0
  -24.9640  -11.9230   20.6640 C   0  0  0  0  0  0  0  0  0  0  0  0
  -26.6270  -13.1320   20.0540 N   0  0  0  0  0  0  0  0  0  0  0  0
  -26.2450  -11.8580   20.3220 N   0  0  0  0  0  0  0  0  0  0  0  0
  -24.2170  -10.6750   20.8720 C   0  0  0  0  0  0  0  0  0  0  0  0
  -24.6290   -9.7210   21.8290 C   0  0  0  0  0  3  0  0  0  0  0  0
  -23.8870   -8.5360   22.0260 C   0  0  0  0  0  3  0  0  0  0  0  0
  -22.7170   -8.2970   21.2640 C   0  0  0  0  0  0  0  0  0  0  0  0
  -22.3240   -9.2380   20.2970 C   0  0  0  0  0  3  0  0  0  0  0  0
  -23.0670  -10.4140   20.0990 C   0  0  0  0  0  3  0  0  0  0  0  0
  -21.9490   -7.1630   21.3690 O   0  0  0  0  0  0  0  0  0  0  0  0
  -21.8380   -6.4740   22.5490 C   0  0  0  0  0  0  0  0  0  0  0  0
  -21.3720   -7.0910   23.7310 C   0  0  0  0  0  3  0  0  0  0  0  0
  -21.2050   -6.3280   24.9040 C   0  0  0  0  0  3  0  0  0  0  0  0
  -21.4970   -4.9510   24.8960 C   0  0  0  0  0  0  0  0  0  0  0  0
  -21.9580   -4.3350   23.7190 C   0  0  0  0  0  3  0  0  0  0  0  0
  -22.1260   -5.0940   22.5490 C   0  0  0  0  0  0  0  0  0  0  0  0
  -22.5500   -4.4920   21.4110 F   0  0  0  0  0  0  0  0  0  0  0  0
  -21.3300   -4.2160   26.0200 F   0  0  0  0  0  0  0  0  0  0  0  0
  -23.1520  -13.7880   21.0170 C   0  0  0  0  0  0  0  0  0  0  0  0
  -22.4380  -13.1120   21.9110 N   0  0  0  0  0  0  0  0  0  0  0  0
  -22.7150  -14.8150   20.5010 O   0  0  0  0  0  0  0  0  0  0  0  0
  -22.8050  -12.2800   22.3490 H   0  0  0  0  0  0  0  0  0  0  0  0
  -21.5120  -13.4310   22.1610 H   0  0  0  0  0  0  0  0  0  0  0  0
  -25.7970  -15.4030   20.1300 N   0  0  0  0  0  0  0  0  0  0  0  0
  -25.0570  -16.0870   20.2520 H   0  0  0  0  0  0  0  0  0  0  0  0
  -26.6570  -15.8080   19.7820 H   0  0  0  0  0  0  0  0  0  0  0  0
  -28.5620  -22.9720   19.9180 N   0  0  0  0  0  4  0  0  0  0  0  0
  -28.4370  -22.7490   18.9420 H   0  0  0  0  0  0  0  0  0  0  0  0
  -29.5560  -22.9820   20.0950 H   0  0  0  0  0  0  0  0  0  0  0  0
  -27.9680  -24.3100   20.2340 C   0  0  0  0  0  2  0  0  0  0  0  0
  -28.4670  -25.4940   19.3680 C   0  0  0  0  0  2  0  0  0  0  0  0
  -28.3300  -26.7680   20.0270 O   0  0  0  0  0  0  0  0  0  0  0  0
  -24.5210  -31.8890   23.2090 C   0  0  0  0  0  0  0  0  0  0  0  0
  -27.1290  -27.4560   20.0400 C   0  0  0  0  0  0  0  0  0  0  0  0
  -23.2920  -30.4980   21.5740 C   0  0  0  0  0  3  0  0  0  0  0  0
  -24.7260  -28.9640   20.1190 C   0  0  0  0  0  0  0  0  0  0  0  0
  -25.8150  -30.8470   21.3490 C   0  0  0  0  0  2  0  0  0  0  0  0
  -25.8910  -29.4780   20.7000 C   0  0  0  0  0  0  0  0  0  0  0  0
  -27.0900  -28.7280   20.6650 C   0  0  0  0  0  3  0  0  0  0  0  0
  -25.9420  -26.9580   19.4540 C   0  0  0  0  0  3  0  0  0  0  0  0
  -24.7460  -27.7060   19.4930 C   0  0  0  0  0  3  0  0  0  0  0  0
  -23.4860  -29.8290   20.1860 C   0  0  0  0  0  2  0  0  0  0  0  0
  -24.5610  -31.0940   22.1020 N   0  0  0  0  0  0  0  0  0  0  0  0
  -23.4480  -32.1600   23.7670 O   0  0  0  0  0  0  0  0  0  0  0  0
  -22.6550  -29.4700   22.5360 C   0  0  0  0  0  0  0  0  0  0  0  0
  -21.3330  -29.2660   22.4040 N   0  0  0  0  0  0  0  0  0  0  0  0
  -23.3420  -28.8610   23.3570 O   0  0  0  0  0  0  0  0  0  0  0  0
  -20.8420  -29.7830   21.6870 H   0  0  0  0  0  0  0  0  0  0  0  0
  -17.9680  -28.0630   22.9410 C   0  0  0  0  0  0  0  0  0  0  0  0
  -20.5260  -28.3420   23.1980 C   0  0  0  0  0  3  0  0  0  0  0  0
  -20.6290  -26.8990   22.6550 C   0  0  0  0  0  2  0  0  0  0  0  0
  -19.5370  -26.5770   21.6290 C   0  0  0  0  0  2  0  0  0  0  0  0
  -18.1580  -26.7070   22.2830 C   0  0  0  0  0  2  0  0  0  0  0  0
  -19.0830  -28.8410   23.3540 C   0  0  0  0  0  0  0  0  0  0  0  0
  -18.8570  -30.1100   23.9260 C   0  0  0  0  0  3  0  0  0  0  0  0
  -17.5500  -30.6030   24.0910 C   0  0  0  0  0  3  0  0  0  0  0  0
  -16.4510  -29.8240   23.6990 C   0  0  0  0  0  3  0  0  0  0  0  0
  -16.6610  -28.5540   23.1300 C   0  0  0  0  0  3  0  0  0  0  0  0
  -25.8160  -32.5160   23.8150 C   0  0  0  0  0  3  0  0  0  0  0  0
  -25.5160  -33.9130   24.1530 N   0  0  0  0  0  0  0  0  0  0  0  0
  -25.8470  -34.9670   23.3940 C   0  0  0  0  0  0  0  0  0  0  0  0
  -26.5090  -34.8620   22.3570 O   0  0  0  0  0  0  0  0  0  0  0  0
  -24.9280  -34.0720   24.9590 H   0  0  0  0  0  0  0  0  0  0  0  0
  -24.1240  -36.7680   23.0500 C   0  0  0  0  0  1  0  0  0  0  0  0
  -25.3660  -36.3560   23.8570 C   0  0  0  0  0  3  0  0  0  0  0  0
  -27.5080  -37.2260   24.6850 C   0  0  0  0  0  1  0  0  0  0  0  0
  -26.4020  -37.4050   23.7460 N   0  0  0  0  0  0  0  0  0  0  0  0
  -26.0020  -38.3270   23.8980 H   0  0  0  0  0  0  0  0  0  0  0  0
  -26.3510  -31.7380   25.0780 C   0  0  1  0  0  0  0  0  0  0  0  0
  -25.2740  -31.4920   26.1610 C   0  0  0  0  0  1  0  0  0  0  0  0
  -26.9270  -30.3650   24.6660 C   0  0  0  0  0  1  0  0  0  0  0  0
  -27.5130  -32.5270   25.7260 C   0  0  0  0  0  1  0  0  0  0  0  0
  2  6  1  0
  4  2  2  0
  4  7  1  0
  5  3  1  0
  6  8  1  0
  6  3  2  0
  7  1  1  0
  7  5  2  0
  9 17  1  0
 10 15  1  0
 11 12  1  0
 11 10  1  0
 13 12  1  0
 13 22  1  0
 13 14  1  0
 15  9  1  0
 15 14  1  0
 16  9  2  0
 17  8  1  0
 18 17  1  0
 19 20  2  0
 20 39  1  0
 21 20  1  0
 21 24  1  0
 22 19  1  0
 22 23  1  0
 23 21  2  0
 24 25  1  0
 25 26  2  0
 27 30  1  0
 27 26  1  0
 28 27  2  0
 29 28  1  0
 29 24  2  0
 30 31  1  0
 31 32  1  0
 32 33  2  0
 34 33  1  0
 34 38  1  0
 35 34  2  0
 36 31  2  0
 36 35  1  0
 37 36  1  0
 39 40  1  0
 40 43  1  0
 40 42  1  0
 41 39  2  0
 44 45  1  0
 44 19  1  0
 46 44  1  0
 47 49  1  0
 47 50  1  0
 47  1  1  0
 48 47  1  0
 51 52  1  0
 51 50  1  0
 52 54  1  0
 53 64  2  0
 54 59  1  0
 55 63  1  0
 55 65  1  0
 56 62  1  0
 56 58  1  0
 57 63  1  0
 58 57  1  0
 59 58  2  0
 60 61  1  0
 60 54  2  0
 61 56  2  0
 62 55  1  0
 63 53  1  0
 65 67  2  0
 66 65  1  0
 68 66  1  0
 69 78  2  0
 69 74  1  0
 70 66  1  0
 70 74  1  0
 71 70  1  0
 72 73  1  0
 72 71  1  0
 73 69  1  0
 74 75  2  0
 75 76  1  0
 77 76  2  0
 78 77  1  0
 79 53  1  0
 79 80  1  0
 79 89  1  0
 80 83  1  0
 81 85  1  0
 81 80  1  0
 82 81  2  0
 85 84  1  0
 87 85  1  0
 87 88  1  0
 87 86  1  0
 89 92  1  1
 89 90  1  0
 91 89  1  0
M  ISO  4   9 100  17 100  51 101  52 101
M  END
>  <TORSDO>  (56) 
F 21

>  <SCORE>  (56) 
-13.256

>  <name>  (56) 
55

>  <ligand_id>  (56) 
55

>  <original_smiles>  (56) 
[H]c1c([H])c([H])c2c(c1[H])C([H])([H])C([H])([H])C([H])([H])C2([H])N([H])C(=O)C1([H])N(C(=O)C([H])(N([H])C(=O)C([H])(N([H])C([H])([H])[H])C([H])([H])[H])C(C([H])([H])[H])(C([H])([H])[H])C([H])([H])[H])C([H])([H])c2c([H])c(OC([H])([H])C([H])([H])[N+]([H])([H])C([H])([H])c3c([H])c([H])c(C([H])([H])N([H])C(=O)N4C([H])([H])C([H])([H])C([H])([H])C([H])(n5nc(-c6c([H])c([H])c(Oc7c([H])c([H])c(F)c([H])c7F)c([H])c6[H])c(C(=O)N([H])[H])c5N([H])[H])C4([H])[H])c([H])c3[H])c([H])c([H])c2C1([H])[H]

>  <smiles>  (56) 
[H]c1c([H])c([H])c2c(c1[H])C([H])([H])C([H])([H])C([H])([H])C2([H])N([H])C(=O)C1([H])N(C(=O)C([H])(N([H])C(=O)C([H])(N([H])C([H])([H])[H])C([H])([H])[H])C(C([H])([H])[H])(C([H])([H])[H])C([H])([H])[H])C([H])([H])c2c([H])c(OC([H])([H])C([H])([H])[N+]([H])([H])C([H])([H])c3c([H])c([H])c(C([H])([H])N([H])C(=O)N4C([H])([H])C([H])([H])C([H])([H])C([H])(n5nc(-c6c([H])c([H])c(Oc7c([H])c([H])c(F)c([H])c7F)c([H])c6[H])c(C(=O)N([H])[H])c5N([H])[H])C4([H])[H])c([H])c3[H])c([H])c([H])c2C1([H])[H]

$$$$
56:0:0
     RDKit          3D

111120  0  0  1  0  0  0  0  0999 V2000
  -26.3880  -23.6900   15.4390 C   0  0  0  0  0  2  0  0  0  0  0  0
  -27.0930  -25.8590   14.4010 C   0  0  0  0  0  1  0  0  0  0  0  0
  -27.5120  -24.7730   15.4160 C   0  0  0  0  0  3  0  0  0  0  0  0
  -28.8480  -24.2160   15.0570 N   0  0  0  0  0  4  0  0  0  0  0  0
  -28.8930  -23.2350   15.2740 H   0  0  0  0  0  0  0  0  0  0  0  0
  -28.9740  -24.3040   14.0610 H   0  0  0  0  0  0  0  0  0  0  0  0
  -30.0300  -24.8320   15.7120 C   0  0  0  0  0  2  0  0  0  0  0  0
  -31.5420  -21.8280   17.5750 C   0  0  0  0  0  3  0  0  0  0  0  0
  -31.1270  -23.6010   19.1870 C   0  0  0  0  0  3  0  0  0  0  0  0
  -31.0730  -22.6630   16.5420 C   0  0  0  0  0  3  0  0  0  0  0  0
  -30.6290  -24.4270   18.1600 C   0  0  0  0  0  3  0  0  0  0  0  0
  -31.5360  -22.2760   18.9190 C   0  0  0  0  0  0  0  0  0  0  0  0
  -30.5760  -23.9530   16.8310 C   0  0  0  0  0  0  0  0  0  0  0  0
  -31.9780  -21.3840   20.0850 C   0  0  0  0  0  2  0  0  0  0  0  0
  -31.9230  -19.9420   19.7730 N   0  0  0  0  0  4  0  0  0  0  0  0
  -32.8010  -19.5600   20.0840 H   0  0  0  0  0  0  0  0  0  0  0  0
  -31.8960  -19.8500   18.7730 H   0  0  0  0  0  0  0  0  0  0  0  0
  -30.8450  -19.1150   20.3770 C   0  0  0  0  0  2  0  0  0  0  0  0
  -31.0820  -17.6710   19.9030 C   0  0  0  0  0  2  0  0  0  0  0  0
  -30.2860  -16.4610   20.4880 C   0  0  0  0  0  2  0  0  0  0  0  0
  -30.9020  -15.1620   19.9140 C   0  0  0  0  0  0  0  0  0  0  0  0
  -30.5090  -13.0920   18.6700 C   0  0  0  0  0  2  0  0  0  0  0  0
  -29.4670  -13.3710   17.5710 C   0  0  0  0  0  2  0  0  0  0  0  0
  -28.0500  -13.1240   18.1200 C   0  0  0  0  0  2  0  0  0  0  0  0
  -27.7910  -13.8450   19.4720 C   0  0  0  0  0  3  0  0  0  0  0  0
  -28.9590  -13.6430   20.4640 C   0  0  0  0  0  2  0  0  0  0  0  0
  -30.2130  -14.0000   19.7900 N   0  0  0  0  0  0  0  0  0  0  0  0
  -32.0160  -15.2840   19.3980 O   0  0  0  0  0  0  0  0  0  0  0  0
  -25.4450  -14.2220   20.4490 C   0  0  0  0  0  0  0  0  0  0  0  0
  -24.4650  -13.3520   20.8440 C   0  0  0  0  0  0  0  0  0  0  0  0
  -25.0040  -12.0420   20.6610 C   0  0  0  0  0  0  0  0  0  0  0  0
  -26.5160  -13.4360   20.0550 N   0  0  0  0  0  0  0  0  0  0  0  0
  -26.2600  -12.1150   20.2400 N   0  0  0  0  0  0  0  0  0  0  0  0
  -24.3760  -10.7230   20.8120 C   0  0  0  0  0  0  0  0  0  0  0  0
  -24.8340   -9.7920   21.7700 C   0  0  0  0  0  3  0  0  0  0  0  0
  -24.2050   -8.5360   21.9070 C   0  0  0  0  0  3  0  0  0  0  0  0
  -23.1020   -8.2010   21.0860 C   0  0  0  0  0  0  0  0  0  0  0  0
  -22.6660   -9.1220   20.1160 C   0  0  0  0  0  3  0  0  0  0  0  0
  -23.2960  -10.3700   19.9780 C   0  0  0  0  0  3  0  0  0  0  0  0
  -22.4440   -6.9970   21.1310 O   0  0  0  0  0  0  0  0  0  0  0  0
  -22.1550   -6.3770   22.3190 C   0  0  0  0  0  0  0  0  0  0  0  0
  -21.2940   -6.9590   23.2750 C   0  0  0  0  0  3  0  0  0  0  0  0
  -20.9740   -6.2580   24.4550 C   0  0  0  0  0  3  0  0  0  0  0  0
  -21.5050   -4.9730   24.6750 C   0  0  0  0  0  0  0  0  0  0  0  0
  -22.3580   -4.3880   23.7220 C   0  0  0  0  0  3  0  0  0  0  0  0
  -22.6810   -5.0890   22.5460 C   0  0  0  0  0  0  0  0  0  0  0  0
  -23.4880   -4.5140   21.6210 F   0  0  0  0  0  0  0  0  0  0  0  0
  -21.1910   -4.2930   25.8020 F   0  0  0  0  0  0  0  0  0  0  0  0
  -23.0740  -13.7090   21.2780 C   0  0  0  0  0  0  0  0  0  0  0  0
  -22.4820  -12.9070   22.1560 N   0  0  0  0  0  0  0  0  0  0  0  0
  -22.5200  -14.7330   20.8770 O   0  0  0  0  0  0  0  0  0  0  0  0
  -22.9450  -12.0820   22.5080 H   0  0  0  0  0  0  0  0  0  0  0  0
  -21.5540  -13.1230   22.4880 H   0  0  0  0  0  0  0  0  0  0  0  0
  -25.5120  -15.6110   20.3700 N   0  0  0  0  0  0  0  0  0  0  0  0
  -24.7250  -16.2060   20.6030 H   0  0  0  0  0  0  0  0  0  0  0  0
  -26.3080  -16.1250   20.0160 H   0  0  0  0  0  0  0  0  0  0  0  0
  -26.2330  -22.7870   16.6930 C   0  0  0  0  0  2  0  0  0  0  0  0
  -25.2560  -23.2790   17.6980 N   0  0  0  0  0  4  0  0  0  0  0  0
  -24.5820  -23.8920   17.2630 H   0  0  0  0  0  0  0  0  0  0  0  0
  -24.7410  -22.4790   18.0310 H   0  0  0  0  0  0  0  0  0  0  0  0
  -25.8480  -23.9450   18.8730 C   0  0  0  0  0  2  0  0  0  0  0  0
  -25.4380  -23.3040   20.2180 C   0  0  0  0  0  2  0  0  0  0  0  0
  -27.4360  -24.9980   22.9830 C   0  0  0  0  0  3  0  0  0  0  0  0
  -26.3390  -24.4990   22.2570 C   0  0  0  0  0  3  0  0  0  0  0  0
  -28.9250  -23.5380   21.7440 C   0  0  0  0  0  3  0  0  0  0  0  0
  -28.7480  -24.6170   22.6270 C   0  0  0  0  0  0  0  0  0  0  0  0
  -26.5440  -23.5550   21.2320 C   0  0  0  0  0  0  0  0  0  0  0  0
  -27.8280  -22.9760   21.0630 C   0  0  0  0  0  0  0  0  0  0  0  0
  -28.0720  -21.8100   20.1160 C   0  0  0  0  0  1  0  0  0  0  0  0
  -29.9580  -25.4160   23.1090 C   0  0  0  0  0  2  0  0  0  0  0  0
  -30.3010  -26.5050   22.2300 O   0  0  0  0  0  0  0  0  0  0  0  0
  -26.1630  -31.2360   25.4920 C   0  0  0  0  0  0  0  0  0  0  0  0
  -29.2770  -27.4070   22.0830 C   0  0  0  0  0  0  0  0  0  0  0  0
  -25.3440  -30.4030   23.3100 C   0  0  0  0  0  3  0  0  0  0  0  0
  -27.0430  -29.1150   21.9080 C   0  0  0  0  0  0  0  0  0  0  0  0
  -27.8500  -30.5250   23.8070 C   0  0  0  0  0  2  0  0  0  0  0  0
  -28.0300  -29.3470   22.8740 C   0  0  0  0  0  0  0  0  0  0  0  0
  -29.1480  -28.4920   22.9730 C   0  0  0  0  0  3  0  0  0  0  0  0
  -28.3180  -27.2320   21.0660 C   0  0  0  0  0  3  0  0  0  0  0  0
  -27.1780  -28.0530   20.9970 C   0  0  0  0  0  3  0  0  0  0  0  0
  -25.8620  -30.0580   21.8870 C   0  0  0  0  0  2  0  0  0  0  0  0
  -26.4550  -30.7180   24.2650 N   0  0  0  0  0  0  0  0  0  0  0  0
  -24.9960  -31.4920   25.8150 O   0  0  0  0  0  0  0  0  0  0  0  0
  -24.4270  -29.2570   23.7960 C   0  0  0  0  0  0  0  0  0  0  0  0
  -23.2180  -29.1780   23.2180 N   0  0  0  0  0  0  0  0  0  0  0  0
  -24.8150  -28.4550   24.6490 O   0  0  0  0  0  0  0  0  0  0  0  0
  -22.9770  -29.8810   22.5320 H   0  0  0  0  0  0  0  0  0  0  0  0
  -19.8710  -28.1150   22.3670 C   0  0  0  0  0  0  0  0  0  0  0  0
  -22.2000  -28.1650   23.4900 C   0  0  0  0  0  3  0  0  0  0  0  0
  -22.4900  -26.8600   22.7140 C   0  0  0  0  0  2  0  0  0  0  0  0
  -21.7790  -26.7950   21.3580 C   0  0  0  0  0  2  0  0  0  0  0  0
  -20.2620  -26.9030   21.5400 C   0  0  0  0  0  2  0  0  0  0  0  0
  -20.7860  -28.7180   23.2710 C   0  0  0  0  0  0  0  0  0  0  0  0
  -20.3850  -29.8660   23.9900 C   0  0  0  0  0  3  0  0  0  0  0  0
  -19.0960  -30.4060   23.8210 C   0  0  0  0  0  3  0  0  0  0  0  0
  -18.1880  -29.7960   22.9360 C   0  0  0  0  0  3  0  0  0  0  0  0
  -18.5750  -28.6520   22.2160 C   0  0  0  0  0  3  0  0  0  0  0  0
  -27.2820  -31.5560   26.5310 C   0  0  0  0  0  3  0  0  0  0  0  0
  -27.2770  -33.0070   26.7480 N   0  0  0  0  0  0  0  0  0  0  0  0
  -28.0920  -33.8700   26.1280 C   0  0  0  0  0  0  0  0  0  0  0  0
  -28.9870  -33.5130   25.3550 O   0  0  0  0  0  0  0  0  0  0  0  0
  -26.5370  -33.3760   27.3270 H   0  0  0  0  0  0  0  0  0  0  0  0
  -27.0880  -36.0040   25.2550 C   0  0  0  0  0  1  0  0  0  0  0  0
  -27.8820  -35.3700   26.4080 C   0  0  0  0  0  3  0  0  0  0  0  0
  -29.8150  -35.7790   27.8670 C   0  0  0  0  0  1  0  0  0  0  0  0
  -29.1450  -36.1140   26.6120 N   0  0  0  0  0  0  0  0  0  0  0  0
  -28.9790  -37.1170   26.6000 H   0  0  0  0  0  0  0  0  0  0  0  0
  -27.1020  -30.7820   27.8950 C   0  0  1  0  0  0  0  0  0  0  0  0
  -25.6730  -30.8770   28.4780 C   0  0  0  0  0  1  0  0  0  0  0  0
  -27.4440  -29.2830   27.7210 C   0  0  0  0  0  1  0  0  0  0  0  0
  -28.0900  -31.3390   28.9470 C   0  0  0  0  0  1  0  0  0  0  0  0
  1 57  1  0
  3  2  1  0
  3  1  1  0
  4  5  1  0
  4  3  1  0
  4  7  1  0
  6  4  1  0
  7 13  1  0
  8 12  1  0
 10 13  1  0
 10  8  2  0
 11  9  1  0
 12  9  2  0
 12 14  1  0
 13 11  2  0
 15 16  1  0
 15 14  1  0
 15 18  1  0
 17 15  1  0
 19 18  1  0
 19 20  1  0
 21 20  1  0
 22 27  1  0
 23 24  1  0
 23 22  1  0
 25 24  1  0
 25 32  1  0
 25 26  1  0
 27 21  1  0
 27 26  1  0
 28 21  2  0
 29 30  2  0
 30 49  1  0
 31 34  1  0
 31 30  1  0
 32 33  1  0
 32 29  1  0
 33 31  2  0
 34 35  1  0
 35 36  2  0
 37 40  1  0
 37 36  1  0
 38 37  2  0
 39 38  1  0
 39 34  2  0
 40 41  1  0
 41 46  2  0
 41 42  1  0
 42 43  2  0
 43 44  1  0
 44 48  1  0
 45 44  2  0
 46 45  1  0
 47 46  1  0
 49 50  1  0
 50 53  1  0
 50 52  1  0
 51 49  2  0
 54 29  1  0
 54 55  1  0
 56 54  1  0
 57 58  1  0
 58 60  1  0
 58 61  1  0
 59 58  1  0
 61 62  1  0
 62 67  1  0
 64 63  2  0
 65 66  2  0
 66 63  1  0
 66 70  1  0
 67 64  1  0
 68 67  2  0
 68 65  1  0
 69 68  1  0
 71 70  1  0
 72 83  2  0
 73 71  1  0
 73 78  1  0
 74 84  1  0
 74 82  1  0
 75 77  1  0
 76 82  1  0
 77 78  2  0
 77 76  1  0
 79 73  2  0
 80 79  1  0
 80 75  2  0
 81 75  1  0
 81 74  1  0
 82 72  1  0
 84 86  2  0
 85 84  1  0
 87 85  1  0
 88 93  1  0
 89 85  1  0
 90 89  1  0
 91 92  1  0
 91 90  1  0
 92 88  1  0
 93 89  1  0
 93 94  2  0
 95 94  1  0
 96 95  2  0
 97 88  2  0
 97 96  1  0
 98 72  1  0
 98 99  1  0
 98108  1  0
 99102  1  0
100104  1  0
100 99  1  0
101100  2  0
104103  1  0
104106  1  0
106105  1  0
107106  1  0
108109  1  1
108111  1  0
110108  1  0
M  ISO  4  20 100  21 100  70 101  71 101
M  END
>  <TORSDO>  (57) 
F 31

>  <SCORE>  (57) 
-3.276

>  <name>  (57) 
56

>  <ligand_id>  (57) 
56

>  <original_smiles>  (57) 
[H]c1c([H])c([H])c2c(c1[H])C([H])([H])C([H])([H])C([H])([H])C2([H])N([H])C(=O)C1([H])N(C(=O)C([H])(N([H])C(=O)C([H])(N([H])C([H])([H])[H])C([H])([H])[H])C(C([H])([H])[H])(C([H])([H])[H])C([H])([H])[H])C([H])([H])c2c([H])c(OC([H])([H])c3c([H])c([H])c(C([H])([H])C([H])([H])[N+]([H])([H])C([H])([H])C([H])([H])C([H])(C([H])([H])[H])[N+]([H])([H])C([H])([H])c4c([H])c([H])c(C([H])([H])[N+]([H])([H])C([H])([H])C([H])([H])C([H])([H])C(=O)N5C([H])([H])C([H])([H])C([H])([H])C([H])(n6nc(-c7c([H])c([H])c(Oc8c([H])c([H])c(F)c([H])c8F)c([H])c7[H])c(C(=O)N([H])[H])c6N([H])[H])C5([H])[H])c([H])c4[H])c(C([H])([H])[H])c3[H])c([H])c([H])c2C1([H])[H]

>  <smiles>  (57) 
[H]c1c([H])c([H])c2c(c1[H])C([H])([H])C([H])([H])C([H])([H])C2([H])N([H])C(=O)C1([H])N(C(=O)C([H])(N([H])C(=O)C([H])(N([H])C([H])([H])[H])C([H])([H])[H])C(C([H])([H])[H])(C([H])([H])[H])C([H])([H])[H])C([H])([H])c2c([H])c(OC([H])([H])c3c([H])c([H])c(C([H])([H])C([H])([H])[N+]([H])([H])C([H])([H])C([H])([H])C([H])(C([H])([H])[H])[N+]([H])([H])C([H])([H])c4c([H])c([H])c(C([H])([H])[N+]([H])([H])C([H])([H])C([H])([H])C([H])([H])C(=O)N5C([H])([H])C([H])([H])C([H])([H])C([H])(n6nc(-c7c([H])c([H])c(Oc8c([H])c([H])c(F)c([H])c8F)c([H])c7[H])c(C(=O)N([H])[H])c6N([H])[H])C5([H])[H])c([H])c4[H])c(C([H])([H])[H])c3[H])c([H])c([H])c2C1([H])[H]

$$$$
57:0:0
     RDKit          3D

 94103  0  0  1  0  0  0  0  0999 V2000
  -30.9740  -21.4310   22.0920 C   0  0  0  0  0  2  0  0  0  0  0  0
  -30.1820  -17.6420   21.7890 C   0  0  0  0  0  3  0  0  0  0  0  0
  -30.2690  -18.9640   22.2960 C   0  0  0  0  0  3  0  0  0  0  0  0
  -31.6700  -19.6320   20.4140 C   0  0  0  0  0  3  0  0  0  0  0  0
  -30.8210  -17.3290   20.5650 C   0  0  0  0  0  0  0  0  0  0  0  0
  -31.5770  -18.3160   19.9250 C   0  0  0  0  0  0  0  0  0  0  0  0
  -30.9720  -19.9780   21.5930 C   0  0  0  0  0  0  0  0  0  0  0  0
  -32.1380  -17.8390   18.6180 C   0  0  0  0  0  2  0  0  0  0  0  0
  -31.3730  -16.5300   18.3490 C   0  0  0  0  0  2  0  0  0  0  0  0
  -30.5400  -16.1350   19.6300 C   0  0  2  0  0  0  0  0  0  0  0  0
  -29.0620  -16.2810   19.2560 C   0  0  0  0  0  1  0  0  0  0  0  0
  -31.0440  -14.7070   20.1150 C   0  0  0  0  0  0  0  0  0  0  0  0
  -30.6610  -12.4770   19.1710 C   0  0  0  0  0  2  0  0  0  0  0  0
  -29.7000  -12.5600   17.9680 C   0  0  0  0  0  2  0  0  0  0  0  0
  -28.2390  -12.3850   18.4300 C   0  0  0  0  0  2  0  0  0  0  0  0
  -27.8830  -13.2770   19.6470 C   0  0  0  0  0  3  0  0  0  0  0  0
  -28.9890  -13.2920   20.7300 C   0  0  0  0  0  2  0  0  0  0  0  0
  -30.2870  -13.5620   20.0940 N   0  0  0  0  0  0  0  0  0  0  0  0
  -32.2670  -14.6100   20.1090 O   0  0  0  0  0  0  0  0  0  0  0  0
  -25.5340  -13.9380   20.4530 C   0  0  0  0  0  0  0  0  0  0  0  0
  -24.4560  -13.1830   20.8360 C   0  0  0  0  0  0  0  0  0  0  0  0
  -24.8970  -11.8270   20.7870 C   0  0  0  0  0  0  0  0  0  0  0  0
  -26.5530  -13.0310   20.1850 N   0  0  0  0  0  0  0  0  0  0  0  0
  -26.1790  -11.7600   20.4460 N   0  0  0  0  0  0  0  0  0  0  0  0
  -24.1570  -10.5770   20.9760 C   0  0  0  0  0  0  0  0  0  0  0  0
  -24.5710   -9.6160   21.9230 C   0  0  0  0  0  3  0  0  0  0  0  0
  -23.8350   -8.4260   22.0990 C   0  0  0  0  0  3  0  0  0  0  0  0
  -22.6730   -8.1880   21.3260 C   0  0  0  0  0  0  0  0  0  0  0  0
  -22.2790   -9.1370   20.3670 C   0  0  0  0  0  3  0  0  0  0  0  0
  -23.0160  -10.3200   20.1890 C   0  0  0  0  0  3  0  0  0  0  0  0
  -21.9140   -7.0490   21.4100 O   0  0  0  0  0  0  0  0  0  0  0  0
  -21.7980   -6.3480   22.5840 C   0  0  0  0  0  0  0  0  0  0  0  0
  -21.2870   -6.9390   23.7580 C   0  0  0  0  0  3  0  0  0  0  0  0
  -21.1240   -6.1610   24.9220 C   0  0  0  0  0  3  0  0  0  0  0  0
  -21.4610   -4.7960   24.9100 C   0  0  0  0  0  0  0  0  0  0  0  0
  -21.9600   -4.2030   23.7390 C   0  0  0  0  0  3  0  0  0  0  0  0
  -22.1290   -4.9780   22.5770 C   0  0  0  0  0  0  0  0  0  0  0  0
  -22.5980   -4.3970   21.4460 F   0  0  0  0  0  0  0  0  0  0  0  0
  -21.2920   -4.0480   26.0270 F   0  0  0  0  0  0  0  0  0  0  0  0
  -23.0720  -13.6910   21.1250 C   0  0  0  0  0  0  0  0  0  0  0  0
  -22.3340  -13.0070   21.9950 N   0  0  0  0  0  0  0  0  0  0  0  0
  -22.6490  -14.7280   20.6160 O   0  0  0  0  0  0  0  0  0  0  0  0
  -22.6780  -12.1710   22.4420 H   0  0  0  0  0  0  0  0  0  0  0  0
  -21.4040  -13.3380   22.2140 H   0  0  0  0  0  0  0  0  0  0  0  0
  -25.7150  -15.3040   20.2850 N   0  0  0  0  0  0  0  0  0  0  0  0
  -24.9610  -15.9710   20.4090 H   0  0  0  0  0  0  0  0  0  0  0  0
  -26.5740  -15.7300   19.9640 H   0  0  0  0  0  0  0  0  0  0  0  0
  -29.9640  -22.2620   21.3880 N   0  0  0  0  0  4  0  0  0  0  0  0
  -29.0630  -21.8380   21.5390 H   0  0  0  0  0  0  0  0  0  0  0  0
  -30.1740  -22.2160   20.4050 H   0  0  0  0  0  0  0  0  0  0  0  0
  -29.8970  -23.6950   21.7750 C   0  0  0  0  0  2  0  0  0  0  0  0
  -28.7480  -24.4520   21.0200 C   0  0  0  0  0  2  0  0  0  0  0  0
  -28.6740  -25.9610   21.3590 C   0  0  0  0  0  2  0  0  0  0  0  0
  -28.4920  -26.7440   20.1770 O   0  0  0  0  0  0  0  0  0  0  0  0
  -24.6010  -31.8710   23.1850 C   0  0  0  0  0  0  0  0  0  0  0  0
  -27.3320  -27.4750   20.1570 C   0  0  0  0  0  0  0  0  0  0  0  0
  -23.4330  -30.4640   21.5150 C   0  0  0  0  0  3  0  0  0  0  0  0
  -24.9260  -28.9390   20.1120 C   0  0  0  0  0  0  0  0  0  0  0  0
  -25.9520  -30.8540   21.3550 C   0  0  0  0  0  2  0  0  0  0  0  0
  -26.0630  -29.4820   20.7260 C   0  0  0  0  0  0  0  0  0  0  0  0
  -27.2680  -28.7510   20.7540 C   0  0  0  0  0  3  0  0  0  0  0  0
  -26.1910  -26.9440   19.5280 C   0  0  0  0  0  3  0  0  0  0  0  0
  -24.9820  -27.6690   19.5120 C   0  0  0  0  0  3  0  0  0  0  0  0
  -23.6700  -29.7810   20.1370 C   0  0  0  0  0  2  0  0  0  0  0  0
  -24.6790  -31.0750   22.0800 N   0  0  0  0  0  0  0  0  0  0  0  0
  -23.5110  -32.1360   23.7100 O   0  0  0  0  0  0  0  0  0  0  0  0
  -22.7760  -29.4360   22.4630 C   0  0  0  0  0  0  0  0  0  0  0  0
  -21.4510  -29.2620   22.3290 N   0  0  0  0  0  0  0  0  0  0  0  0
  -23.4560  -28.7970   23.2690 O   0  0  0  0  0  0  0  0  0  0  0  0
  -20.9650  -29.8430   21.6580 H   0  0  0  0  0  0  0  0  0  0  0  0
  -18.0610  -28.1100   22.8160 C   0  0  0  0  0  0  0  0  0  0  0  0
  -20.6250  -28.3170   23.0800 C   0  0  0  0  0  3  0  0  0  0  0  0
  -20.6950  -26.8980   22.4690 C   0  0  0  0  0  2  0  0  0  0  0  0
  -19.5830  -26.6170   21.4550 C   0  0  0  0  0  2  0  0  0  0  0  0
  -18.2100  -26.7720   22.1110 C   0  0  0  0  0  2  0  0  0  0  0  0
  -19.1970  -28.8430   23.2570 C   0  0  0  0  0  0  0  0  0  0  0  0
  -19.0080  -30.0970   23.8770 C   0  0  0  0  0  3  0  0  0  0  0  0
  -17.7150  -30.6210   24.0600 C   0  0  0  0  0  3  0  0  0  0  0  0
  -16.5940  -29.8860   23.6380 C   0  0  0  0  0  3  0  0  0  0  0  0
  -16.7670  -28.6330   23.0220 C   0  0  0  0  0  3  0  0  0  0  0  0
  -25.8750  -32.5100   23.8250 C   0  0  0  0  0  3  0  0  0  0  0  0
  -25.5530  -33.9030   24.1580 N   0  0  0  0  0  0  0  0  0  0  0  0
  -25.8940  -34.9610   23.4110 C   0  0  0  0  0  0  0  0  0  0  0  0
  -26.5870  -34.8680   22.3930 O   0  0  0  0  0  0  0  0  0  0  0  0
  -24.9390  -34.0510   24.9470 H   0  0  0  0  0  0  0  0  0  0  0  0
  -24.1700  -36.7520   23.0150 C   0  0  0  0  0  1  0  0  0  0  0  0
  -25.3840  -36.3420   23.8640 C   0  0  0  0  0  3  0  0  0  0  0  0
  -27.4820  -37.2300   24.7780 C   0  0  0  0  0  1  0  0  0  0  0  0
  -26.4130  -37.4010   23.7980 N   0  0  0  0  0  0  0  0  0  0  0  0
  -25.9960  -38.3160   23.9390 H   0  0  0  0  0  0  0  0  0  0  0  0
  -26.3850  -31.7350   25.1030 C   0  0  1  0  0  0  0  0  0  0  0  0
  -25.2840  -31.4850   26.1600 C   0  0  0  0  0  1  0  0  0  0  0  0
  -26.9830  -30.3630   24.7050 C   0  0  0  0  0  1  0  0  0  0  0  0
  -27.5210  -32.5330   25.7860 C   0  0  0  0  0  1  0  0  0  0  0  0
  2  3  1  0
  4  7  1  0
  5  2  2  0
  6  4  2  0
  6  5  1  0
  7  1  1  0
  7  3  2  0
  8  6  1  0
  9  8  1  0
  9 10  1  0
 10 11  1  6
 10 12  1  0
 10  5  1  0
 13 18  1  0
 14 15  1  0
 14 13  1  0
 16 15  1  0
 16 23  1  0
 16 17  1  0
 18 12  1  0
 18 17  1  0
 19 12  2  0
 20 21  2  0
 21 40  1  0
 22 21  1  0
 22 25  1  0
 23 24  1  0
 23 20  1  0
 24 22  2  0
 25 26  1  0
 26 27  2  0
 28 31  1  0
 28 27  1  0
 29 28  2  0
 30 29  1  0
 30 25  2  0
 31 32  1  0
 32 33  1  0
 33 34  2  0
 35 34  1  0
 35 39  1  0
 36 35  2  0
 37 32  2  0
 37 36  1  0
 38 37  1  0
 40 41  1  0
 41 44  1  0
 41 43  1  0
 42 40  2  0
 45 46  1  0
 45 20  1  0
 47 45  1  0
 48 49  1  0
 48 51  1  0
 48  1  1  0
 50 48  1  0
 52 53  1  0
 52 51  1  0
 54 53  1  0
 55 66  2  0
 56 54  1  0
 56 61  1  0
 57 65  1  0
 57 67  1  0
 58 64  1  0
 58 60  1  0
 59 65  1  0
 60 61  2  0
 60 59  1  0
 62 56  2  0
 63 62  1  0
 63 58  2  0
 64 57  1  0
 65 55  1  0
 67 69  2  0
 68 67  1  0
 70 68  1  0
 71 80  2  0
 71 76  1  0
 72 68  1  0
 72 76  1  0
 73 72  1  0
 74 75  1  0
 74 73  1  0
 75 71  1  0
 76 77  2  0
 77 78  1  0
 79 78  2  0
 80 79  1  0
 81 55  1  0
 81 82  1  0
 81 91  1  0
 82 85  1  0
 83 87  1  0
 83 82  1  0
 84 83  2  0
 87 86  1  0
 89 87  1  0
 89 90  1  0
 89 88  1  0
 91 94  1  1
 91 92  1  0
 93 91  1  0
M  ISO  4  10 100  12 100  53 101  54 101
M  END
>  <TORSDO>  (58) 
F 21

>  <SCORE>  (58) 
-13.192

>  <name>  (58) 
57

>  <ligand_id>  (58) 
57

>  <original_smiles>  (58) 
[H]c1c([H])c([H])c2c(c1[H])C([H])([H])C([H])([H])C([H])([H])C2([H])N([H])C(=O)C1([H])N(C(=O)C([H])(N([H])C(=O)C([H])(N([H])C([H])([H])[H])C([H])([H])[H])C(C([H])([H])[H])(C([H])([H])[H])C([H])([H])[H])C([H])([H])c2c([H])c(OC([H])([H])C([H])([H])C([H])([H])[N+]([H])([H])C([H])([H])c3c([H])c([H])c4c(c3[H])C([H])([H])C([H])([H])C4(C(=O)N3C([H])([H])C([H])([H])C([H])([H])C([H])(n4nc(-c5c([H])c([H])c(Oc6c([H])c([H])c(F)c([H])c6F)c([H])c5[H])c(C(=O)N([H])[H])c4N([H])[H])C3([H])[H])C([H])([H])[H])c([H])c([H])c2C1([H])[H]

>  <smiles>  (58) 
[H]c1c([H])c([H])c2c(c1[H])C([H])([H])C([H])([H])C([H])([H])C2([H])N([H])C(=O)C1([H])N(C(=O)C([H])(N([H])C(=O)C([H])(N([H])C([H])([H])[H])C([H])([H])[H])C(C([H])([H])[H])(C([H])([H])[H])C([H])([H])[H])C([H])([H])c2c([H])c(OC([H])([H])C([H])([H])C([H])([H])[N+]([H])([H])C([H])([H])c3c([H])c([H])c4c(c3[H])C([H])([H])C([H])([H])C4(C(=O)N3C([H])([H])C([H])([H])C([H])([H])C([H])(n4nc(-c5c([H])c([H])c(Oc6c([H])c([H])c(F)c([H])c6F)c([H])c5[H])c(C(=O)N([H])[H])c4N([H])[H])C3([H])[H])C([H])([H])[H])c([H])c([H])c2C1([H])[H]

$$$$
58:0:0
     RDKit          3D

 96104  0  0  1  0  0  0  0  0999 V2000
  -30.0770  -28.1090   19.9870 C   0  0  0  0  0  3  0  0  0  0  0  0
  -31.3890  -28.0480   20.4910 C   0  0  0  0  0  3  0  0  0  0  0  0
  -29.7980  -25.7350   20.4620 C   0  0  0  0  0  3  0  0  0  0  0  0
  -31.1270  -25.6550   20.9350 C   0  0  0  0  0  0  0  0  0  0  0  0
  -29.2660  -26.9540   19.9920 C   0  0  0  0  0  0  0  0  0  0  0  0
  -31.9150  -26.8280   20.9580 C   0  0  0  0  0  0  0  0  0  0  0  0
  -33.1940  -26.7800   21.4000 F   0  0  0  0  0  0  0  0  0  0  0  0
  -28.0300  -26.9060   19.4010 O   0  0  0  0  0  0  0  0  0  0  0  0
  -24.7330  -31.8560   23.4500 C   0  0  0  0  0  0  0  0  0  0  0  0
  -26.9680  -27.7370   19.6850 C   0  0  0  0  0  0  0  0  0  0  0  0
  -23.3510  -30.7010   21.7540 C   0  0  0  0  0  3  0  0  0  0  0  0
  -24.6340  -29.2890   20.0630 C   0  0  0  0  0  0  0  0  0  0  0  0
  -25.8680  -30.9940   21.4090 C   0  0  0  0  0  2  0  0  0  0  0  0
  -25.8500  -29.7000   20.6240 C   0  0  0  0  0  0  0  0  0  0  0  0
  -27.0190  -28.9250   20.4520 C   0  0  0  0  0  3  0  0  0  0  0  0
  -25.7320  -27.3310   19.1410 C   0  0  0  0  0  3  0  0  0  0  0  0
  -24.5650  -28.0940   19.3270 C   0  0  0  0  0  3  0  0  0  0  0  0
  -23.4330  -30.1780   20.2940 C   0  0  0  0  0  2  0  0  0  0  0  0
  -24.6740  -31.1900   22.2630 N   0  0  0  0  0  0  0  0  0  0  0  0
  -23.7070  -32.1010   24.0990 O   0  0  0  0  0  0  0  0  0  0  0  0
  -22.7250  -29.5990   22.6370 C   0  0  0  0  0  0  0  0  0  0  0  0
  -21.4030  -29.4030   22.5000 N   0  0  0  0  0  0  0  0  0  0  0  0
  -23.4220  -28.9270   23.4010 O   0  0  0  0  0  0  0  0  0  0  0  0
  -20.8990  -30.0000   21.8590 H   0  0  0  0  0  0  0  0  0  0  0  0
  -18.0770  -28.0300   22.8160 C   0  0  0  0  0  0  0  0  0  0  0  0
  -20.6060  -28.3970   23.2000 C   0  0  0  0  0  3  0  0  0  0  0  0
  -20.8000  -26.9960   22.5720 C   0  0  0  0  0  2  0  0  0  0  0  0
  -19.7560  -26.6650   21.5030 C   0  0  0  0  0  2  0  0  0  0  0  0
  -18.3440  -26.7190   22.0970 C   0  0  0  0  0  2  0  0  0  0  0  0
  -19.1400  -28.8250   23.3200 C   0  0  0  0  0  0  0  0  0  0  0  0
  -18.8390  -30.0530   23.9490 C   0  0  0  0  0  3  0  0  0  0  0  0
  -17.5070  -30.4860   24.0810 C   0  0  0  0  0  3  0  0  0  0  0  0
  -16.4570  -29.6880   23.5950 C   0  0  0  0  0  3  0  0  0  0  0  0
  -16.7430  -28.4630   22.9680 C   0  0  0  0  0  3  0  0  0  0  0  0
  -26.0900  -32.3600   24.0380 C   0  0  0  0  0  3  0  0  0  0  0  0
  -26.5770  -31.5220   25.2830 C   0  0  1  0  0  0  0  0  0  0  0  0
  -25.5030  -31.3670   26.3840 C   0  0  0  0  0  1  0  0  0  0  0  0
  -27.0180  -30.1050   24.8460 C   0  0  0  0  0  1  0  0  0  0  0  0
  -27.8150  -32.1980   25.9170 C   0  0  0  0  0  1  0  0  0  0  0  0
  -25.9170  -33.7730   24.3950 N   0  0  0  0  0  0  0  0  0  0  0  0
  -26.3170  -34.8030   23.6360 C   0  0  0  0  0  0  0  0  0  0  0  0
  -26.9430  -34.6560   22.5830 O   0  0  0  0  0  0  0  0  0  0  0  0
  -25.3660  -33.9680   25.2170 H   0  0  0  0  0  0  0  0  0  0  0  0
  -24.7500  -36.7480   23.3520 C   0  0  0  0  0  1  0  0  0  0  0  0
  -25.9690  -36.2210   24.1260 C   0  0  0  0  0  3  0  0  0  0  0  0
  -28.1950  -36.8960   24.9120 C   0  0  0  0  0  1  0  0  0  0  0  0
  -27.0900  -37.1780   24.0000 N   0  0  0  0  0  0  0  0  0  0  0  0
  -26.7720  -38.1280   24.1690 H   0  0  0  0  0  0  0  0  0  0  0  0
  -31.7630  -24.3300   21.3420 C   0  0  0  0  0  2  0  0  0  0  0  0
  -30.8460  -23.2890   21.8090 N   0  0  0  0  0  0  0  0  0  0  0  0
  -29.8890  -23.6250   21.7390 H   0  0  0  0  0  0  0  0  0  0  0  0
  -30.9910  -22.0290   21.0760 C   0  0  0  0  0  2  0  0  0  0  0  0
  -30.5330  -20.8580   21.9730 C   0  0  0  0  0  2  0  0  0  0  0  0
  -30.6210  -19.5300   21.3210 N   0  0  0  0  0  4  0  0  0  0  0  0
  -29.8640  -19.4520   20.6630 H   0  0  0  0  0  0  0  0  0  0  0  0
  -31.4880  -19.4620   20.8110 H   0  0  0  0  0  0  0  0  0  0  0  0
  -30.5510  -18.4130   22.2930 C   0  0  0  0  0  2  0  0  0  0  0  0
  -30.3990  -17.0130   21.6550 C   0  0  0  0  0  2  0  0  0  0  0  0
  -31.6560  -16.4190   20.9820 C   0  0  0  0  0  2  0  0  0  0  0  0
  -31.6460  -14.8710   21.0540 C   0  0  0  0  0  2  0  0  0  0  0  0
  -32.8220  -14.1530   20.3660 C   0  0  0  0  0  0  0  0  0  0  0  0
  -33.8990  -12.0170   19.7220 C   0  0  0  0  0  2  0  0  0  0  0  0
  -33.1420  -11.3550   18.5530 C   0  0  0  0  0  2  0  0  0  0  0  0
  -31.9620  -10.5060   19.0670 C   0  0  0  0  0  2  0  0  0  0  0  0
  -31.0750  -11.2730   20.0840 C   0  0  0  0  0  3  0  0  0  0  0  0
  -31.9480  -11.9380   21.1700 C   0  0  0  0  0  2  0  0  0  0  0  0
  -32.9330  -12.8050   20.4990 N   0  0  0  0  0  0  0  0  0  0  0  0
  -33.6110  -14.8180   19.6860 O   0  0  0  0  0  0  0  0  0  0  0  0
  -28.6840  -10.5930   20.7700 C   0  0  0  0  0  0  0  0  0  0  0  0
  -28.1850   -9.4480   21.3280 C   0  0  0  0  0  0  0  0  0  0  0  0
  -29.3070   -8.5880   21.5350 C   0  0  0  0  0  0  0  0  0  0  0  0
  -30.0540  -10.4010   20.6660 N   0  0  0  0  0  0  0  0  0  0  0  0
  -30.4290   -9.2010   21.1800 N   0  0  0  0  0  0  0  0  0  0  0  0
  -29.3720   -7.1950   21.9960 C   0  0  0  0  0  0  0  0  0  0  0  0
  -30.0670   -6.8400   23.1730 C   0  0  0  0  0  3  0  0  0  0  0  0
  -30.1000   -5.4970   23.6070 C   0  0  0  0  0  3  0  0  0  0  0  0
  -29.4320   -4.4950   22.8650 C   0  0  0  0  0  0  0  0  0  0  0  0
  -28.7600   -4.8500   21.6830 C   0  0  0  0  0  3  0  0  0  0  0  0
  -28.7310   -6.1860   21.2490 C   0  0  0  0  0  3  0  0  0  0  0  0
  -29.4320   -3.1610   23.1960 O   0  0  0  0  0  0  0  0  0  0  0  0
  -29.4120   -2.7440   24.5030 C   0  0  0  0  0  0  0  0  0  0  0  0
  -28.3540   -3.0770   25.3760 C   0  0  0  0  0  3  0  0  0  0  0  0
  -28.3390   -2.5700   26.6910 C   0  0  0  0  0  3  0  0  0  0  0  0
  -29.3740   -1.7230   27.1310 C   0  0  0  0  0  0  0  0  0  0  0  0
  -30.4260   -1.3850   26.2610 C   0  0  0  0  0  3  0  0  0  0  0  0
  -30.4430   -1.8930   24.9490 C   0  0  0  0  0  0  0  0  0  0  0  0
  -31.4480   -1.5470   24.1090 F   0  0  0  0  0  0  0  0  0  0  0  0
  -29.3560   -1.2290   28.3900 F   0  0  0  0  0  0  0  0  0  0  0  0
  -26.7380   -9.1270   21.5730 C   0  0  0  0  0  0  0  0  0  0  0  0
  -26.4490   -8.3490   22.6100 N   0  0  0  0  0  0  0  0  0  0  0  0
  -25.8500   -9.6040   20.8690 O   0  0  0  0  0  0  0  0  0  0  0  0
  -27.1750   -7.9750   23.2020 H   0  0  0  0  0  0  0  0  0  0  0  0
  -25.4860   -8.1260   22.8180 H   0  0  0  0  0  0  0  0  0  0  0  0
  -28.0890  -11.7710   20.3260 N   0  0  0  0  0  0  0  0  0  0  0  0
  -27.0840  -11.9100   20.3470 H   0  0  0  0  0  0  0  0  0  0  0  0
  -28.5870  -12.5400   19.8930 H   0  0  0  0  0  0  0  0  0  0  0  0
  1  5  2  0
  1  2  1  0
  2  6  2  0
  3  4  2  0
  4  6  1  0
  4 49  1  0
  5  3  1  0
  6  7  1  0
  8 10  1  0
  8  5  1  0
  9 20  2  0
 10 15  1  0
 11 19  1  0
 11 21  1  0
 12 18  1  0
 12 14  1  0
 13 19  1  0
 14 13  1  0
 15 14  2  0
 16 17  1  0
 16 10  2  0
 17 12  2  0
 18 11  1  0
 19  9  1  0
 21 23  2  0
 22 21  1  0
 24 22  1  0
 25 34  2  0
 25 30  1  0
 26 22  1  0
 26 30  1  0
 27 26  1  0
 28 29  1  0
 28 27  1  0
 29 25  1  0
 30 31  2  0
 31 32  1  0
 33 32  2  0
 34 33  1  0
 35  9  1  0
 35 40  1  0
 35 36  1  0
 36 39  1  1
 36 37  1  0
 38 36  1  0
 40 43  1  0
 41 45  1  0
 41 40  1  0
 42 41  2  0
 45 44  1  0
 47 45  1  0
 47 48  1  0
 47 46  1  0
 49 50  1  0
 51 50  1  0
 52 50  1  0
 52 53  1  0
 54 53  1  0
 54 57  1  0
 55 54  1  0
 56 54  1  0
 58 57  1  0
 59 60  1  0
 59 58  1  0
 61 67  1  0
 61 60  1  0
 62 67  1  0
 63 64  1  0
 63 62  1  0
 65 64  1  0
 65 72  1  0
 65 66  1  0
 67 66  1  0
 68 61  2  0
 69 70  2  0
 70 71  1  0
 70 89  1  0
 71 74  1  0
 72 69  1  0
 72 73  1  0
 73 71  2  0
 74 75  1  0
 75 76  2  0
 77 80  1  0
 77 76  1  0
 78 77  2  0
 79 78  1  0
 79 74  2  0
 80 81  1  0
 81 86  2  0
 81 82  1  0
 82 83  2  0
 83 84  1  0
 84 88  1  0
 85 84  2  0
 86 85  1  0
 87 86  1  0
 89 90  1  0
 90 93  1  0
 90 92  1  0
 91 89  2  0
 94 95  1  0
 94 69  1  0
 96 94  1  0
M  ISO  4   5 101   8 101  60 100  61 100
M  END
>  <TORSDO>  (59) 
F 25

>  <SCORE>  (59) 
-7.121

>  <name>  (59) 
58

>  <ligand_id>  (59) 
58

>  <original_smiles>  (59) 
[H]c1c([H])c([H])c2c(c1[H])C([H])([H])C([H])([H])C([H])([H])C2([H])N([H])C(=O)C1([H])N(C(=O)C([H])(N([H])C(=O)C([H])(N([H])C([H])([H])[H])C([H])([H])[H])C(C([H])([H])[H])(C([H])([H])[H])C([H])([H])[H])C([H])([H])c2c([H])c(Oc3c([H])c([H])c(F)c(C([H])([H])N([H])C([H])([H])C([H])([H])[N+]([H])([H])C([H])([H])C([H])([H])C([H])([H])C([H])([H])C(=O)N4C([H])([H])C([H])([H])C([H])([H])C([H])(n5nc(-c6c([H])c([H])c(Oc7c([H])c([H])c(F)c([H])c7F)c([H])c6[H])c(C(=O)N([H])[H])c5N([H])[H])C4([H])[H])c3[H])c([H])c([H])c2C1([H])[H]

>  <smiles>  (59) 
[H]c1c([H])c([H])c2c(c1[H])C([H])([H])C([H])([H])C([H])([H])C2([H])N([H])C(=O)C1([H])N(C(=O)C([H])(N([H])C(=O)C([H])(N([H])C([H])([H])[H])C([H])([H])[H])C(C([H])([H])[H])(C([H])([H])[H])C([H])([H])[H])C([H])([H])c2c([H])c(Oc3c([H])c([H])c(F)c(C([H])([H])N([H])C([H])([H])C([H])([H])[N+]([H])([H])C([H])([H])C([H])([H])C([H])([H])C([H])([H])C(=O)N4C([H])([H])C([H])([H])C([H])([H])C([H])(n5nc(-c6c([H])c([H])c(Oc7c([H])c([H])c(F)c([H])c7F)c([H])c6[H])c(C(=O)N([H])[H])c5N([H])[H])C4([H])[H])c3[H])c([H])c([H])c2C1([H])[H]

$$$$
60:0:0
     RDKit          3D

 98106  0  0  1  0  0  0  0  0999 V2000
  -33.6000  -26.2500   21.9570 C   0  0  0  0  0  2  0  0  0  0  0  0
  -31.7960  -29.6000   21.4200 C   0  0  0  0  0  3  0  0  0  0  0  0
  -32.7060  -28.6330   21.8900 C   0  0  0  0  0  3  0  0  0  0  0  0
  -30.7500  -29.2230   20.5560 C   0  0  0  0  0  3  0  0  0  0  0  0
  -31.5320  -26.9150   20.6200 C   0  0  0  0  0  3  0  0  0  0  0  0
  -32.5870  -27.2850   21.4830 C   0  0  0  0  0  0  0  0  0  0  0  0
  -30.6020  -27.8740   20.1720 C   0  0  0  0  0  0  0  0  0  0  0  0
  -29.4650  -27.4420   19.2630 C   0  0  0  0  0  2  0  0  0  0  0  0
  -28.4180  -26.7720   19.9690 O   0  0  0  0  0  0  0  0  0  0  0  0
  -24.6130  -31.8720   23.2120 C   0  0  0  0  0  0  0  0  0  0  0  0
  -27.2530  -27.4880   20.0730 C   0  0  0  0  0  0  0  0  0  0  0  0
  -23.3980  -30.4920   21.5520 C   0  0  0  0  0  3  0  0  0  0  0  0
  -24.8460  -28.9560   20.1220 C   0  0  0  0  0  0  0  0  0  0  0  0
  -25.9220  -30.8500   21.3600 C   0  0  0  0  0  2  0  0  0  0  0  0
  -26.0020  -29.4860   20.7100 C   0  0  0  0  0  0  0  0  0  0  0  0
  -27.2060  -28.7560   20.6910 C   0  0  0  0  0  3  0  0  0  0  0  0
  -26.0770  -26.9460   19.5190 C   0  0  0  0  0  3  0  0  0  0  0  0
  -24.8750  -27.6790   19.5320 C   0  0  0  0  0  3  0  0  0  0  0  0
  -23.6050  -29.8150   20.1700 C   0  0  0  0  0  2  0  0  0  0  0  0
  -24.6620  -31.0850   22.1000 N   0  0  0  0  0  0  0  0  0  0  0  0
  -23.5340  -32.1450   23.7550 O   0  0  0  0  0  0  0  0  0  0  0  0
  -22.7410  -29.4680   22.5040 C   0  0  0  0  0  0  0  0  0  0  0  0
  -21.4150  -29.3020   22.3740 N   0  0  0  0  0  0  0  0  0  0  0  0
  -23.4190  -28.8240   23.3090 O   0  0  0  0  0  0  0  0  0  0  0  0
  -20.9330  -29.8620   21.6850 H   0  0  0  0  0  0  0  0  0  0  0  0
  -18.0270  -28.1400   22.8490 C   0  0  0  0  0  0  0  0  0  0  0  0
  -20.5860  -28.3670   23.1350 C   0  0  0  0  0  3  0  0  0  0  0  0
  -20.6780  -26.9410   22.5430 C   0  0  0  0  0  2  0  0  0  0  0  0
  -19.5750  -26.6400   21.5240 C   0  0  0  0  0  2  0  0  0  0  0  0
  -18.1920  -26.7940   22.1630 C   0  0  0  0  0  2  0  0  0  0  0  0
  -19.1520  -28.8850   23.2910 C   0  0  0  0  0  0  0  0  0  0  0  0
  -18.9450  -30.1470   23.8900 C   0  0  0  0  0  3  0  0  0  0  0  0
  -17.6440  -30.6600   24.0580 C   0  0  0  0  0  3  0  0  0  0  0  0
  -16.5340  -29.9100   23.6330 C   0  0  0  0  0  3  0  0  0  0  0  0
  -16.7260  -28.6530   23.0330 C   0  0  0  0  0  3  0  0  0  0  0  0
  -25.9070  -32.4840   23.8400 C   0  0  0  0  0  3  0  0  0  0  0  0
  -25.5960  -33.8630   24.2350 N   0  0  0  0  0  0  0  0  0  0  0  0
  -25.9070  -34.9470   23.5140 C   0  0  0  0  0  0  0  0  0  0  0  0
  -26.5590  -34.8920   22.4670 O   0  0  0  0  0  0  0  0  0  0  0  0
  -25.0220  -33.9810   25.0570 H   0  0  0  0  0  0  0  0  0  0  0  0
  -24.1510  -36.7270   23.2640 C   0  0  0  0  0  1  0  0  0  0  0  0
  -25.4140  -36.3110   24.0340 C   0  0  0  0  0  3  0  0  0  0  0  0
  -27.5600  -37.1810   24.8470 C   0  0  0  0  0  1  0  0  0  0  0  0
  -26.4320  -37.3800   23.9410 N   0  0  0  0  0  0  0  0  0  0  0  0
  -26.0210  -38.2880   24.1410 H   0  0  0  0  0  0  0  0  0  0  0  0
  -26.4510  -31.6600   25.0700 C   0  0  1  0  0  0  0  0  0  0  0  0
  -25.3770  -31.3660   26.1430 C   0  0  0  0  0  1  0  0  0  0  0  0
  -27.0360  -30.3050   24.6060 C   0  0  0  0  0  1  0  0  0  0  0  0
  -27.6080  -32.4310   25.7500 C   0  0  0  0  0  1  0  0  0  0  0  0
  -32.9560  -25.1540   22.7070 N   0  0  0  0  0  4  0  0  0  0  0  0
  -32.0270  -25.4520   22.9570 H   0  0  0  0  0  0  0  0  0  0  0  0
  -33.4770  -25.0260   23.5580 H   0  0  0  0  0  0  0  0  0  0  0  0
  -32.9160  -23.8650   21.9830 C   0  0  0  0  0  2  0  0  0  0  0  0
  -32.1050  -22.7810   22.7210 C   0  0  0  0  0  2  0  0  0  0  0  0
  -32.2230  -21.4220   22.0130 C   0  0  0  0  0  2  0  0  0  0  0  0
  -31.4020  -20.2910   22.6550 C   0  0  0  0  0  2  0  0  0  0  0  0
  -31.7010  -18.9550   21.9560 C   0  0  0  0  0  2  0  0  0  0  0  0
  -30.8300  -17.7670   22.4060 C   0  0  0  0  0  2  0  0  0  0  0  0
  -31.2300  -16.5510   21.6730 N   0  0  0  0  0  4  0  0  0  0  0  0
  -31.3450  -16.7730   20.6970 H   0  0  0  0  0  0  0  0  0  0  0  0
  -32.1320  -16.2340   21.9890 H   0  0  0  0  0  0  0  0  0  0  0  0
  -30.3010  -15.4020   21.7010 C   0  0  0  0  0  2  0  0  0  0  0  0
  -30.7680  -14.3630   20.6730 C   0  0  0  0  0  0  0  0  0  0  0  0
  -30.4140  -12.2840   19.3930 C   0  0  0  0  0  2  0  0  0  0  0  0
  -29.4810  -12.5180   18.1920 C   0  0  0  0  0  2  0  0  0  0  0  0
  -28.0060  -12.3770   18.6130 C   0  0  0  0  0  2  0  0  0  0  0  0
  -27.6680  -13.2010   19.8840 C   0  0  0  0  0  3  0  0  0  0  0  0
  -28.7120  -12.9550   20.9990 C   0  0  0  0  0  2  0  0  0  0  0  0
  -30.0440  -13.2380   20.4470 N   0  0  0  0  0  0  0  0  0  0  0  0
  -31.8070  -14.6100   20.0490 O   0  0  0  0  0  0  0  0  0  0  0  0
  -25.2620  -13.8150   20.5700 C   0  0  0  0  0  0  0  0  0  0  0  0
  -24.1850  -13.0440   20.9170 C   0  0  0  0  0  0  0  0  0  0  0  0
  -24.6390  -11.6900   20.8730 C   0  0  0  0  0  0  0  0  0  0  0  0
  -26.3060  -12.9320   20.3430 N   0  0  0  0  0  0  0  0  0  0  0  0
  -25.9320  -11.6480   20.5790 N   0  0  0  0  0  0  0  0  0  0  0  0
  -23.9050  -10.4300   21.0410 C   0  0  0  0  0  0  0  0  0  0  0  0
  -24.3600   -9.4210   21.9190 C   0  0  0  0  0  3  0  0  0  0  0  0
  -23.6280   -8.2250   22.0760 C   0  0  0  0  0  3  0  0  0  0  0  0
  -22.4270   -8.0290   21.3540 C   0  0  0  0  0  0  0  0  0  0  0  0
  -21.9900   -9.0260   20.4640 C   0  0  0  0  0  3  0  0  0  0  0  0
  -22.7230  -10.2140   20.3050 C   0  0  0  0  0  3  0  0  0  0  0  0
  -21.6630   -6.8880   21.4240 O   0  0  0  0  0  0  0  0  0  0  0  0
  -21.6850   -6.0740   22.5270 C   0  0  0  0  0  0  0  0  0  0  0  0
  -21.4010   -6.5640   23.8210 C   0  0  0  0  0  3  0  0  0  0  0  0
  -21.3660   -5.6790   24.9170 C   0  0  0  0  0  3  0  0  0  0  0  0
  -21.6050   -4.3050   24.7210 C   0  0  0  0  0  0  0  0  0  0  0  0
  -21.8820   -3.8150   23.4330 C   0  0  0  0  0  3  0  0  0  0  0  0
  -21.9190   -4.6970   22.3390 C   0  0  0  0  0  0  0  0  0  0  0  0
  -22.1660   -4.2160   21.0970 F   0  0  0  0  0  0  0  0  0  0  0  0
  -21.5630   -3.4540   25.7730 F   0  0  0  0  0  0  0  0  0  0  0  0
  -22.7880  -13.5250   21.1830 C   0  0  0  0  0  0  0  0  0  0  0  0
  -22.0490  -12.8250   22.0360 N   0  0  0  0  0  0  0  0  0  0  0  0
  -22.3580  -14.5570   20.6690 O   0  0  0  0  0  0  0  0  0  0  0  0
  -22.4060  -11.9880   22.4730 H   0  0  0  0  0  0  0  0  0  0  0  0
  -21.1110  -13.1300   22.2550 H   0  0  0  0  0  0  0  0  0  0  0  0
  -25.4370  -15.1870   20.4110 N   0  0  0  0  0  0  0  0  0  0  0  0
  -24.6750  -15.8480   20.5190 H   0  0  0  0  0  0  0  0  0  0  0  0
  -26.2960  -15.6220   20.0950 H   0  0  0  0  0  0  0  0  0  0  0  0
  1 50  1  0
  2  3  1  0
  4  2  2  0
  5  6  1  0
  6  3  2  0
  6  1  1  0
  7  4  1  0
  7  5  2  0
  8  9  1  0
  8  7  1  0
  9 11  1  0
 10 21  2  0
 11 16  1  0
 12 20  1  0
 12 22  1  0
 13 19  1  0
 13 15  1  0
 14 20  1  0
 15 14  1  0
 16 15  2  0
 17 18  1  0
 17 11  2  0
 18 13  2  0
 19 12  1  0
 20 10  1  0
 22 24  2  0
 23 22  1  0
 25 23  1  0
 26 35  2  0
 26 31  1  0
 27 23  1  0
 27 31  1  0
 28 27  1  0
 29 30  1  0
 29 28  1  0
 30 26  1  0
 31 32  2  0
 32 33  1  0
 34 33  2  0
 35 34  1  0
 36 10  1  0
 36 37  1  0
 36 46  1  0
 37 40  1  0
 38 42  1  0
 38 37  1  0
 39 38  2  0
 42 41  1  0
 44 42  1  0
 44 45  1  0
 44 43  1  0
 46 49  1  1
 46 47  1  0
 48 46  1  0
 50 51  1  0
 50 52  1  0
 53 50  1  0
 53 54  1  0
 55 56  1  0
 55 54  1  0
 57 58  1  0
 57 56  1  0
 59 62  1  0
 59 61  1  0
 59 58  1  0
 60 59  1  0
 63 62  1  0
 64 69  1  0
 65 66  1  0
 65 64  1  0
 67 66  1  0
 67 74  1  0
 67 68  1  0
 69 63  1  0
 69 68  1  0
 70 63  2  0
 71 72  2  0
 72 91  1  0
 73 72  1  0
 73 76  1  0
 74 71  1  0
 74 75  1  0
 75 73  2  0
 76 77  1  0
 77 78  2  0
 79 82  1  0
 79 78  1  0
 80 79  2  0
 81 80  1  0
 81 76  2  0
 82 83  1  0
 83 84  1  0
 84 85  2  0
 86 85  1  0
 86 90  1  0
 87 86  2  0
 88 83  2  0
 88 87  1  0
 89 88  1  0
 91 92  1  0
 92 95  1  0
 92 94  1  0
 93 91  2  0
 96 97  1  0
 96 71  1  0
 98 96  1  0
M  ISO  4   8 101   9 101  62 100  63 100
M  END
>  <TORSDO>  (60) 
F 27

>  <SCORE>  (60) 
-2.143

>  <name>  (60) 
60

>  <ligand_id>  (60) 
60

>  <original_smiles>  (60) 
[H]c1c([H])c([H])c2c(c1[H])C([H])([H])C([H])([H])C([H])([H])C2([H])N([H])C(=O)C1([H])N(C(=O)C([H])(N([H])C(=O)C([H])(N([H])C([H])([H])[H])C([H])([H])[H])C(C([H])([H])[H])(C([H])([H])[H])C([H])([H])[H])C([H])([H])c2c([H])c(OC([H])([H])c3c([H])c([H])c([H])c(C([H])([H])[N+]([H])([H])C([H])([H])C([H])([H])C([H])([H])C([H])([H])C([H])([H])C([H])([H])[N+]([H])([H])C([H])([H])C(=O)N4C([H])([H])C([H])([H])C([H])([H])C([H])(n5nc(-c6c([H])c([H])c(Oc7c([H])c([H])c(F)c([H])c7F)c([H])c6[H])c(C(=O)N([H])[H])c5N([H])[H])C4([H])[H])c3[H])c([H])c([H])c2C1([H])[H]

>  <smiles>  (60) 
[H]c1c([H])c([H])c2c(c1[H])C([H])([H])C([H])([H])C([H])([H])C2([H])N([H])C(=O)C1([H])N(C(=O)C([H])(N([H])C(=O)C([H])(N([H])C([H])([H])[H])C([H])([H])[H])C(C([H])([H])[H])(C([H])([H])[H])C([H])([H])[H])C([H])([H])c2c([H])c(OC([H])([H])c3c([H])c([H])c([H])c(C([H])([H])[N+]([H])([H])C([H])([H])C([H])([H])C([H])([H])C([H])([H])C([H])([H])C([H])([H])[N+]([H])([H])C([H])([H])C(=O)N4C([H])([H])C([H])([H])C([H])([H])C([H])(n5nc(-c6c([H])c([H])c(Oc7c([H])c([H])c(F)c([H])c7F)c([H])c6[H])c(C(=O)N([H])[H])c5N([H])[H])C4([H])[H])c3[H])c([H])c([H])c2C1([H])[H]

$$$$
61:0:0
     RDKit          3D

100109  0  0  1  0  0  0  0  0999 V2000
  -31.4260  -21.6800   20.3360 C   0  0  0  0  0  2  0  0  0  0  0  0
  -29.9870  -20.9910   16.8190 C   0  0  0  0  0  2  0  0  0  0  0  0
  -30.5570  -18.8210   17.9130 C   0  0  0  0  0  2  0  0  0  0  0  0
  -30.1530  -21.7100   18.1750 C   0  0  0  0  0  2  0  0  0  0  0  0
  -30.7590  -19.5740   19.2470 C   0  0  0  0  0  2  0  0  0  0  0  0
  -29.5510  -19.5170   16.9710 C   0  0  0  0  0  3  0  0  0  0  0  0
  -31.1300  -21.0040   19.0430 N   0  0  2  0  0  4  0  0  0  0  0  0
  -32.0080  -21.0080   18.5430 H   0  0  0  0  0  0  0  0  0  0  0  0
  -28.1290  -19.3320   17.3940 N   0  0  0  0  0  4  0  0  0  0  0  0
  -28.0210  -19.2940   18.3930 H   0  0  0  0  0  0  0  0  0  0  0  0
  -27.8410  -18.4280   17.0470 H   0  0  0  0  0  0  0  0  0  0  0  0
  -27.1570  -20.2940   16.8160 C   0  0  0  0  0  2  0  0  0  0  0  0
  -26.5160  -21.2560   17.8460 C   0  0  0  0  0  2  0  0  0  0  0  0
  -27.5250  -22.0000   18.7500 C   0  0  0  0  0  2  0  0  0  0  0  0
  -26.9480  -23.1590   19.5970 C   0  0  0  0  0  2  0  0  0  0  0  0
  -26.3330  -24.3050   18.7670 C   0  0  0  0  0  0  0  0  0  0  0  0
  -25.2970  -26.5460   18.6690 C   0  0  0  0  0  2  0  0  0  0  0  0
  -26.3240  -27.6650   18.4160 C   0  0  0  0  0  2  0  0  0  0  0  0
  -26.9540  -28.1430   19.7380 C   0  0  0  0  0  2  0  0  0  0  0  0
  -27.4600  -26.9620   20.6090 C   0  0  0  0  0  3  0  0  0  0  0  0
  -26.3820  -25.8630   20.7380 C   0  0  0  0  0  2  0  0  0  0  0  0
  -25.9660  -25.4540   19.3870 N   0  0  0  0  0  0  0  0  0  0  0  0
  -26.1630  -24.1330   17.5530 O   0  0  0  0  0  0  0  0  0  0  0  0
  -28.9680  -28.2670   22.2380 C   0  0  0  0  0  0  0  0  0  0  0  0
  -28.9210  -28.4320   23.5960 C   0  0  0  0  0  0  0  0  0  0  0  0
  -27.8040  -27.6630   24.0480 C   0  0  0  0  0  0  0  0  0  0  0  0
  -27.9160  -27.4230   21.9190 N   0  0  0  0  0  0  0  0  0  0  0  0
  -27.2460  -27.0200   23.0300 N   0  0  0  0  0  0  0  0  0  0  0  0
  -27.2010  -27.5470   25.3810 C   0  0  0  0  0  0  0  0  0  0  0  0
  -27.3780  -26.3910   26.1730 C   0  0  0  0  0  3  0  0  0  0  0  0
  -26.8040  -26.3100   27.4600 C   0  0  0  0  0  3  0  0  0  0  0  0
  -26.0460  -27.3920   27.9690 C   0  0  0  0  0  0  0  0  0  0  0  0
  -25.8530  -28.5290   27.1670 C   0  0  0  0  0  3  0  0  0  0  0  0
  -26.4210  -28.6070   25.8840 C   0  0  0  0  0  3  0  0  0  0  0  0
  -25.4270  -27.3900   29.1960 O   0  0  0  0  0  0  0  0  0  0  0  0
  -26.0600  -26.9260   30.3200 C   0  0  0  0  0  0  0  0  0  0  0  0
  -27.3820  -27.3030   30.6410 C   0  0  0  0  0  3  0  0  0  0  0  0
  -27.9710  -26.8580   31.8430 C   0  0  0  0  0  3  0  0  0  0  0  0
  -27.2360  -26.0470   32.7280 C   0  0  0  0  0  0  0  0  0  0  0  0
  -25.9170  -25.6740   32.4130 C   0  0  0  0  0  3  0  0  0  0  0  0
  -25.3300  -26.1160   31.2140 C   0  0  0  0  0  0  0  0  0  0  0  0
  -24.0520  -25.7730   30.9250 F   0  0  0  0  0  0  0  0  0  0  0  0
  -27.7970  -25.6250   33.8850 F   0  0  0  0  0  0  0  0  0  0  0  0
  -29.8010  -29.3250   24.4210 C   0  0  0  0  0  0  0  0  0  0  0  0
  -30.0120  -28.9770   25.6870 N   0  0  0  0  0  0  0  0  0  0  0  0
  -30.3480  -30.3120   23.9320 O   0  0  0  0  0  0  0  0  0  0  0  0
  -29.5780  -28.1550   26.0810 H   0  0  0  0  0  0  0  0  0  0  0  0
  -30.6140  -29.5410   26.2700 H   0  0  0  0  0  0  0  0  0  0  0  0
  -29.8050  -28.7760   21.2470 N   0  0  0  0  0  0  0  0  0  0  0  0
  -30.5450  -29.4410   21.4470 H   0  0  0  0  0  0  0  0  0  0  0  0
  -29.7060  -28.5790   20.2590 H   0  0  0  0  0  0  0  0  0  0  0  0
  -30.6460  -22.9910   20.6040 C   0  0  0  0  0  2  0  0  0  0  0  0
  -31.1460  -25.4010   21.1720 C   0  0  0  0  0  3  0  0  0  0  0  0
  -31.8490  -26.5880   20.9250 C   0  0  0  0  0  3  0  0  0  0  0  0
  -32.7840  -24.1560   19.8550 C   0  0  0  0  0  3  0  0  0  0  0  0
  -31.5710  -24.1950   20.5790 C   0  0  0  0  0  0  0  0  0  0  0  0
  -33.4930  -25.3460   19.6030 C   0  0  0  0  0  0  0  0  0  0  0  0
  -32.9890  -26.5660   20.1030 C   0  0  0  0  0  0  0  0  0  0  0  0
  -34.7340  -25.3280   18.7290 C   0  0  0  0  0  1  0  0  0  0  0  0
  -33.4610  -27.7560   19.6460 O   0  0  0  0  0  0  0  0  0  0  0  0
  -37.6490  -31.7820   15.6280 C   0  0  0  0  0  0  0  0  0  0  0  0
  -34.0290  -27.9050   18.4130 C   0  0  0  0  0  0  0  0  0  0  0  0
  -36.6790  -29.8000   14.4980 C   0  0  0  0  0  3  0  0  0  0  0  0
  -35.4660  -28.1460   16.0100 C   0  0  0  0  0  0  0  0  0  0  0  0
  -37.0400  -29.8120   17.0230 C   0  0  0  0  0  2  0  0  0  0  0  0
  -35.8430  -28.8970   17.1280 C   0  0  0  0  0  0  0  0  0  0  0  0
  -35.1250  -28.7820   18.3290 C   0  0  0  0  0  3  0  0  0  0  0  0
  -33.6370  -27.1600   17.2820 C   0  0  0  0  0  3  0  0  0  0  0  0
  -34.3570  -27.2810   16.0750 C   0  0  0  0  0  3  0  0  0  0  0  0
  -36.3160  -28.3140   14.7720 C   0  0  0  0  0  2  0  0  0  0  0  0
  -37.1260  -30.5280   15.7310 N   0  0  0  0  0  0  0  0  0  0  0  0
  -37.8090  -32.3190   14.5220 O   0  0  0  0  0  0  0  0  0  0  0  0
  -35.4800  -30.4720   13.7920 C   0  0  0  0  0  0  0  0  0  0  0  0
  -35.3430  -30.2180   12.4810 N   0  0  0  0  0  0  0  0  0  0  0  0
  -34.6870  -31.1730   14.4240 O   0  0  0  0  0  0  0  0  0  0  0  0
  -36.0420  -29.6380   12.0360 H   0  0  0  0  0  0  0  0  0  0  0  0
  -34.0970  -30.1880    9.0950 C   0  0  0  0  0  0  0  0  0  0  0  0
  -34.2680  -30.7070   11.6200 C   0  0  0  0  0  3  0  0  0  0  0  0
  -32.9920  -29.8480   11.7810 C   0  0  0  0  0  2  0  0  0  0  0  0
  -32.9020  -28.7070   10.7640 C   0  0  0  0  0  2  0  0  0  0  0  0
  -32.9200  -29.2580    9.3350 C   0  0  0  0  0  2  0  0  0  0  0  0
  -34.7400  -30.8570   10.1700 C   0  0  0  0  0  0  0  0  0  0  0  0
  -35.8550  -31.6790    9.8970 C   0  0  0  0  0  3  0  0  0  0  0  0
  -36.3200  -31.8440    8.5790 C   0  0  0  0  0  3  0  0  0  0  0  0
  -35.6690  -31.1920    7.5160 C   0  0  0  0  0  3  0  0  0  0  0  0
  -34.5570  -30.3700    7.7750 C   0  0  0  0  0  3  0  0  0  0  0  0
  -38.0960  -32.5910   16.8850 C   0  0  0  0  0  3  0  0  0  0  0  0
  -39.5630  -32.5620   16.9360 N   0  0  0  0  0  0  0  0  0  0  0  0
  -40.2810  -31.7020   17.6710 C   0  0  0  0  0  0  0  0  0  0  0  0
  -39.7660  -30.8880   18.4430 O   0  0  0  0  0  0  0  0  0  0  0  0
  -40.0490  -33.1700   16.2930 H   0  0  0  0  0  0  0  0  0  0  0  0
  -42.2730  -30.6200   16.5890 C   0  0  0  0  0  1  0  0  0  0  0  0
  -41.8130  -31.7510   17.5230 C   0  0  0  0  0  3  0  0  0  0  0  0
  -42.2830  -32.7950   19.6940 C   0  0  0  0  0  1  0  0  0  0  0  0
  -42.5330  -31.6580   18.8120 N   0  0  0  0  0  0  0  0  0  0  0  0
  -43.5360  -31.5860   18.6620 H   0  0  0  0  0  0  0  0  0  0  0  0
  -37.5690  -34.0770   16.8910 C   0  0  1  0  0  0  0  0  0  0  0  0
  -37.5930  -34.7530   15.5010 C   0  0  0  0  0  1  0  0  0  0  0  0
  -36.1190  -34.1350   17.4230 C   0  0  0  0  0  1  0  0  0  0  0  0
  -38.4290  -34.9360   17.8480 C   0  0  0  0  0  1  0  0  0  0  0  0
  1 52  1  0
  2  6  1  0
  2  4  1  0
  3  5  1  0
  4  7  1  0
  6  9  1  0
  6  3  1  0
  7  5  1  0
  7  1  1  0
  7  8  1  6
  9 10  1  0
 11  9  1  0
 12  9  1  0
 12 13  1  0
 13 14  1  0
 14 15  1  0
 16 22  1  0
 16 15  1  0
 17 22  1  0
 18 17  1  0
 18 19  1  0
 20 19  1  0
 20 21  1  0
 20 27  1  0
 22 21  1  0
 23 16  2  0
 24 25  2  0
 25 26  1  0
 25 44  1  0
 26 29  1  0
 27 24  1  0
 27 28  1  0
 28 26  2  0
 29 34  2  0
 29 30  1  0
 30 31  2  0
 31 32  1  0
 32 35  1  0
 33 32  2  0
 34 33  1  0
 35 36  1  0
 36 37  2  0
 36 41  1  0
 37 38  1  0
 38 39  2  0
 39 43  1  0
 40 39  1  0
 41 40  2  0
 42 41  1  0
 44 45  1  0
 45 47  1  0
 45 48  1  0
 46 44  2  0
 49 50  1  0
 49 24  1  0
 51 49  1  0
 54 53  1  0
 55 56  1  0
 56 52  1  0
 56 53  2  0
 57 55  2  0
 57 58  1  0
 58 54  2  0
 59 57  1  0
 60 58  1  0
 61 71  1  0
 62 60  1  0
 63 73  1  0
 63 70  1  0
 63 71  1  0
 64 69  2  0
 64 66  1  0
 65 66  1  0
 66 67  2  0
 67 62  1  0
 68 62  2  0
 69 68  1  0
 70 64  1  0
 71 65  1  0
 72 61  2  0
 73 75  2  0
 74 73  1  0
 76 74  1  0
 77 81  1  0
 77 82  1  0
 78 79  1  0
 78 74  1  0
 80 79  1  0
 81 80  1  0
 82 78  1  0
 83 82  2  0
 84 83  1  0
 85 86  1  0
 85 84  2  0
 86 77  2  0
 87 61  1  0
 87 97  1  0
 87 88  1  0
 88 89  1  0
 89 90  2  0
 91 88  1  0
 93 92  1  0
 93 89  1  0
 93 95  1  0
 95 94  1  0
 96 95  1  0
 97 99  1  1
 97100  1  0
 98 97  1  0
M  ISO  4  15 100  16 100  58 101  60 101
M  END
>  <TORSDO>  (61) 
F 24

>  <SCORE>  (61) 
-3.961

>  <name>  (61) 
61

>  <ligand_id>  (61) 
61

>  <original_smiles>  (61) 
[H]c1c([H])c([H])c2c(c1[H])C([H])([H])C([H])([H])C([H])([H])C2([H])N([H])C(=O)C1([H])N(C(=O)C([H])(N([H])C(=O)C([H])(N([H])C([H])([H])[H])C([H])([H])[H])C(C([H])([H])[H])(C([H])([H])[H])C([H])([H])[H])C([H])([H])c2c([H])c(Oc3c([H])c([H])c(C([H])([H])C([H])([H])[N+]4([H])C([H])([H])C([H])([H])C([H])([N+]([H])([H])C([H])([H])C([H])([H])C([H])([H])C([H])([H])C(=O)N5C([H])([H])C([H])([H])C([H])([H])C([H])(n6nc(-c7c([H])c([H])c(Oc8c([H])c([H])c(F)c([H])c8F)c([H])c7[H])c(C(=O)N([H])[H])c6N([H])[H])C5([H])[H])C([H])([H])C4([H])[H])c([H])c3C([H])([H])[H])c([H])c([H])c2C1([H])[H]

>  <smiles>  (61) 
[H]c1c([H])c([H])c2c(c1[H])C([H])([H])C([H])([H])C([H])([H])C2([H])N([H])C(=O)C1([H])N(C(=O)C([H])(N([H])C(=O)C([H])(N([H])C([H])([H])[H])C([H])([H])[H])C(C([H])([H])[H])(C([H])([H])[H])C([H])([H])[H])C([H])([H])c2c([H])c(Oc3c([H])c([H])c(C([H])([H])C([H])([H])[N+]4([H])C([H])([H])C([H])([H])C([H])([N+]([H])([H])C([H])([H])C([H])([H])C([H])([H])C([H])([H])C(=O)N5C([H])([H])C([H])([H])C([H])([H])C([H])(n6nc(-c7c([H])c([H])c(Oc8c([H])c([H])c(F)c([H])c8F)c([H])c7[H])c(C(=O)N([H])[H])c6N([H])[H])C5([H])[H])C([H])([H])C4([H])[H])c([H])c3C([H])([H])[H])c([H])c([H])c2C1([H])[H]

$$$$
62:0:0
     RDKit          3D

 98106  0  0  1  0  0  0  0  0999 V2000
  -29.3450  -21.6520   22.5910 C   0  0  0  0  0  3  0  0  0  0  0  0
  -28.8850  -22.7320   20.0690 C   0  0  0  0  0  3  0  0  0  0  0  0
  -28.7340  -20.8470   21.6030 C   0  0  0  0  0  0  0  0  0  0  0  0
  -29.7660  -22.9740   22.3190 C   0  0  0  0  0  0  0  0  0  0  0  0
  -28.5260  -21.3840   20.3090 C   0  0  0  0  0  0  0  0  0  0  0  0
  -29.5260  -23.5320   21.0400 C   0  0  0  0  0  0  0  0  0  0  0  0
  -28.3210  -19.4230   21.9540 C   0  0  0  0  0  1  0  0  0  0  0  0
  -30.4660  -23.7560   23.4200 C   0  0  0  0  0  1  0  0  0  0  0  0
  -27.9210  -20.5760   19.1490 C   0  0  0  0  0  2  0  0  0  0  0  0
  -28.6870  -19.2900   18.7090 C   0  0  0  0  0  2  0  0  0  0  0  0
  -30.1710  -19.4350   18.6110 N   0  0  2  0  0  4  0  0  0  0  0  0
  -30.4670  -19.6160   19.5590 H   0  0  0  0  0  0  0  0  0  0  0  0
  -30.6030  -20.5640   16.3240 C   0  0  0  0  0  1  0  0  0  0  0  0
  -30.6310  -20.6530   17.8660 C   0  0  0  0  0  2  0  0  0  0  0  0
  -30.8950  -18.1910   18.1910 C   0  0  0  0  0  2  0  0  0  0  0  0
  -31.3270  -17.1830   19.3310 C   0  0  0  0  0  2  0  0  0  0  0  0
  -33.7530  -17.4650   19.8490 C   0  0  0  0  0  1  0  0  0  0  0  0
  -33.1960  -16.3740   17.6870 C   0  0  0  0  0  1  0  0  0  0  0  0
  -32.7480  -16.4830   19.1730 C   0  0  2  0  0  0  0  0  0  0  0  0
  -33.0180  -15.0330   19.7650 C   0  0  0  0  0  0  0  0  0  0  0  0
  -32.2960  -12.8470   18.9320 C   0  0  0  0  0  2  0  0  0  0  0  0
  -31.3930  -13.0140   17.6940 C   0  0  0  0  0  2  0  0  0  0  0  0
  -29.9190  -13.2230   18.1030 C   0  0  0  0  0  2  0  0  0  0  0  0
  -29.7330  -14.2470   19.2540 C   0  0  0  0  0  3  0  0  0  0  0  0
  -30.7570  -14.0300   20.3870 C   0  0  0  0  0  2  0  0  0  0  0  0
  -32.0930  -14.0290   19.7890 N   0  0  0  0  0  0  0  0  0  0  0  0
  -34.2100  -14.7300   19.7470 O   0  0  0  0  0  0  0  0  0  0  0  0
  -27.5380  -15.3250   20.0460 C   0  0  0  0  0  0  0  0  0  0  0  0
  -26.3330  -14.7940   20.4020 C   0  0  0  0  0  0  0  0  0  0  0  0
  -26.4930  -13.3760   20.3340 C   0  0  0  0  0  0  0  0  0  0  0  0
  -28.3650  -14.2510   19.7690 N   0  0  0  0  0  0  0  0  0  0  0  0
  -27.7440  -13.0690   20.0090 N   0  0  0  0  0  0  0  0  0  0  0  0
  -25.5130  -12.2950   20.4900 C   0  0  0  0  0  0  0  0  0  0  0  0
  -25.7640  -11.1750   21.3170 C   0  0  0  0  0  3  0  0  0  0  0  0
  -24.7930  -10.1620   21.4630 C   0  0  0  0  0  3  0  0  0  0  0  0
  -23.5550  -10.2640   20.7850 C   0  0  0  0  0  0  0  0  0  0  0  0
  -23.3150  -11.3690   19.9480 C   0  0  0  0  0  3  0  0  0  0  0  0
  -24.2880  -12.3720   19.7980 C   0  0  0  0  0  3  0  0  0  0  0  0
  -22.5640   -9.3150   20.8530 O   0  0  0  0  0  0  0  0  0  0  0  0
  -22.4230   -8.4970   21.9480 C   0  0  0  0  0  0  0  0  0  0  0  0
  -22.2670   -9.0190   23.2510 C   0  0  0  0  0  3  0  0  0  0  0  0
  -22.0550   -8.1470   24.3380 C   0  0  0  0  0  3  0  0  0  0  0  0
  -21.9890   -6.7580   24.1200 C   0  0  0  0  0  0  0  0  0  0  0  0
  -22.1380   -6.2360   22.8220 C   0  0  0  0  0  3  0  0  0  0  0  0
  -22.3520   -7.1050   21.7370 C   0  0  0  0  0  0  0  0  0  0  0  0
  -22.4780   -6.6010   20.4880 F   0  0  0  0  0  0  0  0  0  0  0  0
  -21.7760   -5.9180   25.1590 F   0  0  0  0  0  0  0  0  0  0  0  0
  -25.0750  -15.5590   20.6950 C   0  0  0  0  0  0  0  0  0  0  0  0
  -24.2050  -15.0150   21.5390 N   0  0  0  0  0  0  0  0  0  0  0  0
  -24.8790  -16.6750   20.2110 O   0  0  0  0  0  0  0  0  0  0  0  0
  -24.3710  -14.1140   21.9600 H   0  0  0  0  0  0  0  0  0  0  0  0
  -23.3590  -15.5160   21.7710 H   0  0  0  0  0  0  0  0  0  0  0  0
  -28.0000  -16.6280   19.9050 N   0  0  0  0  0  0  0  0  0  0  0  0
  -27.3870  -17.4290   19.9970 H   0  0  0  0  0  0  0  0  0  0  0  0
  -28.9280  -16.8400   19.5820 H   0  0  0  0  0  0  0  0  0  0  0  0
  -29.9920  -24.9410   20.6250 C   0  0  0  0  0  2  0  0  0  0  0  0
  -29.3790  -26.1130   21.4170 C   0  0  0  0  0  2  0  0  0  0  0  0
  -29.3800  -27.3080   20.6310 O   0  0  0  0  0  0  0  0  0  0  0  0
  -24.6500  -31.9140   23.2570 C   0  0  0  0  0  0  0  0  0  0  0  0
  -28.1400  -27.8790   20.5010 C   0  0  0  0  0  0  0  0  0  0  0  0
  -23.8040  -30.3560   21.5220 C   0  0  0  0  0  3  0  0  0  0  0  0
  -25.5790  -29.0250   20.2600 C   0  0  0  0  0  0  0  0  0  0  0  0
  -26.2540  -31.0670   21.5400 C   0  0  0  0  0  2  0  0  0  0  0  0
  -26.5860  -29.7090   20.9510 C   0  0  0  0  0  0  0  0  0  0  0  0
  -27.8720  -29.1410   21.0750 C   0  0  0  0  0  3  0  0  0  0  0  0
  -27.1230  -27.2040   19.7960 C   0  0  0  0  0  3  0  0  0  0  0  0
  -25.8420  -27.7730   19.6750 C   0  0  0  0  0  3  0  0  0  0  0  0
  -24.2290  -29.7000   20.1770 C   0  0  0  0  0  2  0  0  0  0  0  0
  -24.9140  -31.1270   22.1720 N   0  0  0  0  0  0  0  0  0  0  0  0
  -23.4990  -32.0370   23.6980 O   0  0  0  0  0  0  0  0  0  0  0  0
  -23.2050  -29.2610   22.4350 C   0  0  0  0  0  0  0  0  0  0  0  0
  -21.9150  -28.9500   22.2320 N   0  0  0  0  0  0  0  0  0  0  0  0
  -23.9020  -28.6970   23.2820 O   0  0  0  0  0  0  0  0  0  0  0  0
  -21.4080  -29.4730   21.5290 H   0  0  0  0  0  0  0  0  0  0  0  0
  -18.6380  -27.4680   22.5580 C   0  0  0  0  0  0  0  0  0  0  0  0
  -21.1550  -27.9190   22.9390 C   0  0  0  0  0  3  0  0  0  0  0  0
  -21.3960  -26.5260   22.3110 C   0  0  0  0  0  2  0  0  0  0  0  0
  -20.3600  -26.1550   21.2470 C   0  0  0  0  0  2  0  0  0  0  0  0
  -18.9480  -26.1640   21.8420 C   0  0  0  0  0  2  0  0  0  0  0  0
  -19.6750  -28.2980   23.0570 C   0  0  0  0  0  0  0  0  0  0  0  0
  -19.3360  -29.5170   23.6810 C   0  0  0  0  0  3  0  0  0  0  0  0
  -17.9920  -29.9090   23.8160 C   0  0  0  0  0  3  0  0  0  0  0  0
  -16.9670  -29.0750   23.3420 C   0  0  0  0  0  3  0  0  0  0  0  0
  -17.2910  -27.8560   22.7210 C   0  0  0  0  0  3  0  0  0  0  0  0
  -25.7780  -32.7140   23.9820 C   0  0  0  0  0  3  0  0  0  0  0  0
  -26.1830  -32.0910   25.3730 C   0  0  1  0  0  0  0  0  0  0  0  0
  -24.9800  -31.8080   26.3000 C   0  0  0  0  0  1  0  0  0  0  0  0
  -26.9500  -30.7660   25.1620 C   0  0  0  0  0  1  0  0  0  0  0  0
  -27.1390  -33.0490   26.1230 C   0  0  0  0  0  1  0  0  0  0  0  0
  -25.3160  -34.0970   24.1530 N   0  0  0  0  0  0  0  0  0  0  0  0
  -25.6450  -35.1140   23.3430 C   0  0  0  0  0  0  0  0  0  0  0  0
  -26.4410  -34.9940   22.4080 O   0  0  0  0  0  0  0  0  0  0  0  0
  -24.6330  -34.2570   24.8780 H   0  0  0  0  0  0  0  0  0  0  0  0
  -23.8140  -36.6800   22.6270 C   0  0  0  0  0  1  0  0  0  0  0  0
  -24.9790  -36.4770   23.6110 C   0  0  0  0  0  3  0  0  0  0  0  0
  -26.9270  -37.6190   24.5740 C   0  0  0  0  0  1  0  0  0  0  0  0
  -25.9140  -37.6210   23.5230 N   0  0  0  0  0  0  0  0  0  0  0  0
  -25.4080  -38.5020   23.5780 H   0  0  0  0  0  0  0  0  0  0  0  0
  2  5  2  0
  2  6  1  0
  3  7  1  0
  3  1  2  0
  4  1  1  0
  4  8  1  0
  5  3  1  0
  6  4  2  0
  9  5  1  0
 10  9  1  0
 11 10  1  0
 11 12  1  1
 13 14  1  0
 14 11  1  0
 15 11  1  0
 15 16  1  0
 19 18  1  6
 19 16  1  0
 19 20  1  0
 19 17  1  0
 20 26  1  0
 21 26  1  0
 22 23  1  0
 22 21  1  0
 24 23  1  0
 24 31  1  0
 24 25  1  0
 26 25  1  0
 27 20  2  0
 28 29  2  0
 29 48  1  0
 30 29  1  0
 30 33  1  0
 31 32  1  0
 31 28  1  0
 32 30  2  0
 33 34  1  0
 34 35  2  0
 36 39  1  0
 36 35  1  0
 37 36  2  0
 38 37  1  0
 38 33  2  0
 39 40  1  0
 40 41  1  0
 41 42  2  0
 43 42  1  0
 43 47  1  0
 44 43  2  0
 45 40  2  0
 45 44  1  0
 46 45  1  0
 48 49  1  0
 49 52  1  0
 49 51  1  0
 50 48  2  0
 53 54  1  0
 53 28  1  0
 55 53  1  0
 56  6  1  0
 56 57  1  0
 58 57  1  0
 59 70  2  0
 60 58  1  0
 60 65  1  0
 61 69  1  0
 61 71  1  0
 62 64  1  0
 63 69  1  0
 64 65  2  0
 64 63  1  0
 66 60  2  0
 67 66  1  0
 67 62  2  0
 68 62  1  0
 68 61  1  0
 69 59  1  0
 71 73  2  0
 72 71  1  0
 74 72  1  0
 75 84  2  0
 75 80  1  0
 76 72  1  0
 76 80  1  0
 77 76  1  0
 78 79  1  0
 78 77  1  0
 79 75  1  0
 80 81  2  0
 81 82  1  0
 83 82  2  0
 84 83  1  0
 85 59  1  0
 85 90  1  0
 85 86  1  0
 86 89  1  1
 86 87  1  0
 88 86  1  0
 90 93  1  0
 91 95  1  0
 91 90  1  0
 92 91  2  0
 95 94  1  0
 97 98  1  0
 97 95  1  0
 97 96  1  0
M  ISO  4  19 100  20 100  57 101  58 101
M  END
>  <TORSDO>  (62) 
F 25

>  <SCORE>  (62) 
-5.592

>  <name>  (62) 
62

>  <ligand_id>  (62) 
62

>  <original_smiles>  (62) 
[H]c1c([H])c([H])c2c(c1[H])C([H])([H])C([H])([H])C([H])([H])C2([H])N([H])C(=O)C1([H])N(C(=O)C([H])(N([H])C(=O)C([H])(N([H])C([H])([H])[H])C([H])([H])[H])C(C([H])([H])[H])(C([H])([H])[H])C([H])([H])[H])C([H])([H])c2c([H])c(OC([H])([H])C([H])([H])c3c([H])c(C([H])([H])C([H])([H])[N+]([H])(C([H])([H])C([H])([H])[H])C([H])([H])C([H])([H])C(C(=O)N4C([H])([H])C([H])([H])C([H])([H])C([H])(n5nc(-c6c([H])c([H])c(Oc7c([H])c([H])c(F)c([H])c7F)c([H])c6[H])c(C(=O)N([H])[H])c5N([H])[H])C4([H])[H])(C([H])([H])[H])C([H])([H])[H])c(C([H])([H])[H])c([H])c3C([H])([H])[H])c([H])c([H])c2C1([H])[H]

>  <smiles>  (62) 
[H]c1c([H])c([H])c2c(c1[H])C([H])([H])C([H])([H])C([H])([H])C2([H])N([H])C(=O)C1([H])N(C(=O)C([H])(N([H])C(=O)C([H])(N([H])C([H])([H])[H])C([H])([H])[H])C(C([H])([H])[H])(C([H])([H])[H])C([H])([H])[H])C([H])([H])c2c([H])c(OC([H])([H])C([H])([H])c3c([H])c(C([H])([H])C([H])([H])[N+]([H])(C([H])([H])C([H])([H])[H])C([H])([H])C([H])([H])C(C(=O)N4C([H])([H])C([H])([H])C([H])([H])C([H])(n5nc(-c6c([H])c([H])c(Oc7c([H])c([H])c(F)c([H])c7F)c([H])c6[H])c(C(=O)N([H])[H])c5N([H])[H])C4([H])[H])(C([H])([H])[H])C([H])([H])[H])c(C([H])([H])[H])c([H])c3C([H])([H])[H])c([H])c([H])c2C1([H])[H]

$$$$
63:0:0
     RDKit          3D

 98102  0  0  1  0  0  0  0  0999 V2000
  -22.9180  -25.3020   16.7150 C   0  0  0  0  0  3  0  0  0  0  0  0
  -23.6650  -24.4920   17.5650 C   0  0  0  0  0  3  0  0  0  0  0  0
  -24.9070  -26.1950   15.7060 C   0  0  0  0  0  3  0  0  0  0  0  0
  -23.5150  -26.1160   15.7630 C   0  0  0  0  0  0  0  0  0  0  0  0
  -25.1220  -24.3430   17.6370 C   0  0  0  0  0  3  0  0  0  0  0  0
  -25.7710  -25.3880   16.4730 C   0  0  0  0  0  0  0  0  0  0  0  0
  -22.6530  -26.8330   14.7450 C   0  0  0  0  0  1  0  0  0  0  0  0
  -27.4440  -25.5720   15.7560 C   0  0  0  0  0  2  0  0  0  0  0  0
  -28.2380  -25.4470   14.1690 C   0  0  0  0  0  0  0  0  0  0  0  0
  -28.0230  -26.1910   12.8860 N   0  0  0  0  0  0  0  0  0  0  0  0
  -29.1280  -24.6000   14.1170 O   0  0  0  0  0  0  0  0  0  0  0  0
  -27.2620  -26.8480   13.0360 H   0  0  0  0  0  0  0  0  0  0  0  0
  -28.8030  -27.4570   10.2520 C   0  0  0  0  0  2  0  0  0  0  0  0
  -27.3250  -25.6740   10.1030 C   0  0  0  0  0  2  0  0  0  0  0  0
  -29.1330  -27.3040    8.6080 C   0  0  0  0  0  2  0  0  0  0  0  0
  -27.6540  -25.4800    8.4640 C   0  0  0  0  0  2  0  0  0  0  0  0
  -28.4050  -26.1940   11.2280 C   0  0  0  0  0  3  0  0  0  0  0  0
  -28.1270  -26.7010    7.4820 C   0  0  0  0  0  3  0  0  0  0  0  0
  -29.0960  -27.2360    4.6810 C   0  0  0  0  0  0  0  0  0  0  0  0
  -29.6410  -26.5500    2.2290 C   0  0  0  0  0  2  0  0  0  0  0  0
  -28.6090  -25.4910    1.7550 C   0  0  0  0  0  2  0  0  0  0  0  0
  -28.9060  -24.1020    2.3810 C   0  0  0  0  0  2  0  0  0  0  0  0
  -29.2620  -24.2050    3.8800 C   0  0  0  0  0  3  0  0  0  0  0  0
  -30.3610  -25.2430    4.1120 C   0  0  0  0  0  2  0  0  0  0  0  0
  -29.7320  -26.4740    3.7200 N   0  0  0  0  0  0  0  0  0  0  0  0
  -28.8730  -28.4090    4.3070 O   0  0  0  0  0  0  0  0  0  0  0  0
  -28.6930  -26.5280    5.9290 N   0  0  0  0  0  0  0  0  0  0  0  0
  -28.9940  -25.5610    5.7870 H   0  0  0  0  0  0  0  0  0  0  0  0
  -30.2830  -22.7860    5.7240 C   0  0  0  0  0  0  0  0  0  0  0  0
  -30.3700  -21.4350    5.8850 C   0  0  0  0  0  0  0  0  0  0  0  0
  -29.7870  -20.8660    4.7130 C   0  0  0  0  0  0  0  0  0  0  0  0
  -29.6480  -22.9710    4.5080 N   0  0  0  0  0  0  0  0  0  0  0  0
  -29.4210  -21.8090    3.8600 N   0  0  0  0  0  0  0  0  0  0  0  0
  -29.4940  -19.4780    4.3800 C   0  0  0  0  0  0  0  0  0  0  0  0
  -30.3140  -18.4230    4.8340 C   0  0  0  0  0  3  0  0  0  0  0  0
  -29.9990  -17.0890    4.5080 C   0  0  0  0  0  3  0  0  0  0  0  0
  -28.8570  -16.8040    3.7220 C   0  0  0  0  0  0  0  0  0  0  0  0
  -28.0620  -17.8630    3.2480 C   0  0  0  0  0  3  0  0  0  0  0  0
  -28.3790  -19.1910    3.5710 C   0  0  0  0  0  3  0  0  0  0  0  0
  -28.4820  -15.5420    3.3360 O   0  0  0  0  0  0  0  0  0  0  0  0
  -27.1720  -15.2280    3.0860 C   0  0  0  0  0  0  0  0  0  0  0  0
  -26.7560  -14.6960    1.8470 C   0  0  0  0  0  3  0  0  0  0  0  0
  -25.4120  -14.3210    1.6600 C   0  0  0  0  0  3  0  0  0  0  0  0
  -24.4850  -14.4700    2.7110 C   0  0  0  0  0  0  0  0  0  0  0  0
  -24.9010  -14.9970    3.9470 C   0  0  0  0  0  3  0  0  0  0  0  0
  -26.2430  -15.3740    4.1340 C   0  0  0  0  0  0  0  0  0  0  0  0
  -26.6420  -15.8590    5.3350 F   0  0  0  0  0  0  0  0  0  0  0  0
  -23.1940  -14.1040    2.5350 F   0  0  0  0  0  0  0  0  0  0  0  0
  -30.8730  -20.7160    7.1000 C   0  0  0  0  0  0  0  0  0  0  0  0
  -31.5500  -19.5930    6.9030 N   0  0  0  0  0  0  0  0  0  0  0  0
  -30.7080  -21.1770    8.2290 O   0  0  0  0  0  0  0  0  0  0  0  0
  -31.6890  -19.2320    5.9720 H   0  0  0  0  0  0  0  0  0  0  0  0
  -31.9370  -19.0920    7.6910 H   0  0  0  0  0  0  0  0  0  0  0  0
  -30.6720  -23.8550    6.5230 N   0  0  0  0  0  0  0  0  0  0  0  0
  -31.1400  -23.6810    7.4070 H   0  0  0  0  0  0  0  0  0  0  0  0
  -30.6570  -24.8370    6.2920 H   0  0  0  0  0  0  0  0  0  0  0  0
  -26.9360  -22.5840   18.9600 C   0  0  0  0  0 15  0  0  0  0  0  0
  -28.3830  -23.3520   20.2190 O   0  0  0  0  0  1  0  0  0  0  0  0
  -30.3630  -28.0600   18.2050 C   0  0  0  0  0  0  0  0  0  0  0  0
  -29.7990  -23.4860   20.8940 C   0  0  0  0  0  3  0  0  0  0  0  0
  -29.1970  -25.9320   17.9170 C   0  0  0  0  0  3  0  0  0  0  0  0
  -30.4950  -23.7260   18.5400 C   0  0  0  0  0  3  0  0  0  0  0  0
  -31.5870  -25.9510   18.7240 C   0  0  0  0  0  2  0  0  0  0  0  0
  -31.1670  -24.6420   19.3310 C   0  0  0  0  0  3  0  0  0  0  0  0
  -30.8710  -24.4530   20.6850 C   0  0  0  0  0  2  0  0  0  0  0  0
  -30.3820  -22.2810   20.4860 C   0  0  0  0  0  2  0  0  0  0  0  0
  -30.3330  -22.4080   19.0780 C   0  0  0  0  0  2  0  0  0  0  0  0
  -29.4990  -24.3940   17.6090 C   0  0  0  0  0  2  0  0  0  0  0  0
  -30.4300  -26.7010   18.2170 N   0  0  0  0  0  0  0  0  0  0  0  0
  -29.3450  -28.6590   17.8200 O   0  0  0  0  0  0  0  0  0  0  0  0
  -28.2720  -26.2690   19.1180 C   0  0  0  0  0  0  0  0  0  0  0  0
  -27.5440  -27.3420   19.0860 N   0  0  0  0  0  0  0  0  0  0  0  0
  -28.2270  -25.6270   20.1530 O   0  0  0  0  0  0  0  0  0  0  0  0
  -27.6360  -27.9900   18.3170 H   0  0  0  0  0  0  0  0  0  0  0  0
  -26.6430  -29.7660   21.4590 C   0  0  0  0  0  0  0  0  0  0  0  0
  -26.2840  -27.3550   19.8290 C   0  0  0  0  0  2  0  0  0  0  0  0
  -24.4670  -27.6960   18.7250 C   0  0  0  0  0 15  0  0  0  0  0  0
  -24.0050  -30.1040   19.2670 C   0  0  0  0  0 15  0  0  0  0  0  0
  -25.3560  -30.6950   20.6610 C   0  0  0  0  0  1  0  0  0  0  0  0
  -27.0820  -28.4040   20.9980 C   0  0  0  0  0  0  0  0  0  0  0  0
  -28.2450  -27.8450   21.6880 C   0  0  0  0  0  3  0  0  0  0  0  0
  -28.9120  -28.3750   22.8250 C   0  0  0  0  0  3  0  0  0  0  0  0
  -28.3750  -29.5290   23.4090 C   0  0  0  0  0  3  0  0  0  0  0  0
  -27.2780  -30.1770   22.7410 C   0  0  0  0  0  3  0  0  0  0  0  0
  -31.5720  -28.9110   18.6570 C   0  0  0  0  0  3  0  0  0  0  0  0
  -32.6490  -29.1510   17.5300 C   0  0  1  0  0  0  0  0  0  0  0  0
  -33.1030  -27.8620   16.8050 C   0  0  0  0  0  1  0  0  0  0  0  0
  -32.1280  -30.1310   16.4540 C   0  0  0  0  0  1  0  0  0  0  0  0
  -33.8910  -29.8230   18.1570 C   0  0  0  0  0  1  0  0  0  0  0  0
  -32.1540  -28.1830   19.7860 N   0  0  0  0  0  0  0  0  0  0  0  0
  -32.2980  -28.6970   21.0120 C   0  0  0  0  0  0  0  0  0  0  0  0
  -32.0440  -29.8750   21.2800 O   0  0  0  0  0  0  0  0  0  0  0  0
  -32.3160  -27.1970   19.6500 H   0  0  0  0  0  0  0  0  0  0  0  0
  -32.3660  -28.2610   23.4910 C   0  0  0  0  0  1  0  0  0  0  0  0
  -32.8210  -27.7570   22.1110 C   0  0  0  0  0  3  0  0  0  0  0  0
  -34.7540  -26.5250   21.2300 C   0  0  0  0  0  1  0  0  0  0  0  0
  -34.2910  -27.6080   22.0950 N   0  0  0  0  0  0  0  0  0  0  0  0
  -34.6470  -27.4490   23.0330 H   0  0  0  0  0  0  0  0  0  0  0  0
  1  2  1  0
  2  5  2  0
  3  4  1  0
  3  6  2  0
  4  1  2  0
  6  5  1  0
  7  4  1  0
  8  6  1  0
  9  8  1  0
 10 12  1  0
 10  9  1  0
 11  9  2  0
 13 17  1  0
 14 17  1  0
 15 13  1  0
 16 14  1  0
 17 10  1  0
 18 27  1  0
 18 16  1  0
 18 15  1  0
 19 27  1  0
 20 25  1  0
 21 20  1  0
 21 22  1  0
 23 22  1  0
 23 24  1  0
 23 32  1  0
 25 24  1  0
 25 19  1  0
 26 19  2  0
 28 27  1  0
 29 30  2  0
 29 54  1  0
 30 49  1  0
 31 30  1  0
 32 29  1  0
 33 32  1  0
 33 31  2  0
 34 31  1  0
 34 35  1  0
 36 35  2  0
 37 36  1  0
 38 39  1  0
 38 37  2  0
 39 34  2  0
 40 37  1  0
 41 40  1  0
 41 46  1  0
 42 41  2  0
 43 42  1  0
 43 44  2  0
 44 45  1  0
 45 46  2  0
 46 47  1  0
 48 44  1  0
 49 51  2  0
 50 49  1  0
 50 53  1  0
 52 50  1  0
 54 55  1  0
 56 54  1  0
 59 69  1  0
 60 58  1  0
 61 69  1  0
 61 71  1  0
 62 68  1  0
 62 67  1  0
 62 64  1  0
 64 63  1  0
 64 65  1  0
 65 60  1  0
 66 60  1  0
 67 66  1  0
 68 61  1  0
 69 63  1  0
 70 59  2  0
 71 73  2  0
 72 71  1  0
 72 76  1  0
 74 72  1  0
 75 84  1  0
 76 80  1  0
 79 75  1  0
 80 75  2  0
 80 81  1  0
 81 82  2  0
 82 83  1  0
 84 83  2  0
 85 59  1  0
 85 90  1  0
 86 89  1  1
 86 85  1  0
 87 86  1  0
 88 86  1  0
 90 91  1  0
 91 92  2  0
 91 95  1  0
 93 90  1  0
 95 94  1  0
 96 97  1  0
 97 95  1  0
 97 98  1  0
M  ISO  4  19 100  27 100  57 101  58 101
M  END
>  <TORSDO>  (63) 
F 20

>  <SCORE>  (63) 
-3.977

>  <name>  (63) 
63

>  <ligand_id>  (63) 
63

>  <original_smiles>  (63) 
[H]c1c([H])c([H])c2c(c1[H])C([H])([H])C([H])([H])C([H])([H])C2([H])N([H])C(=O)C1([H])N(C(=O)C([H])(N([H])C(=O)C([H])(N([H])C([H])([H])[H])C([H])([H])[H])C(C([H])([H])[H])(C([H])([H])[H])C([H])([H])[H])C([H])([H])c2c([H])c(OC([H])([H])c3c([H])c([H])c(C([H])([H])[H])c([H])c3C([H])([H])C(=O)N([H])C3([H])C([H])([H])C([H])([H])C([H])(N([H])C(=O)N4C([H])([H])C([H])([H])C([H])([H])C([H])(n5nc(-c6c([H])c([H])c(Oc7c([H])c([H])c(F)c([H])c7F)c([H])c6[H])c(C(=O)N([H])[H])c5N([H])[H])C4([H])[H])C([H])([H])C3([H])[H])c([H])c([H])c2C1([H])[H]

>  <smiles>  (63) 
[H]c1c([H])c([H])c2c(c1[H])C([H])([H])C([H])([H])C([H])([H])C2([H])N([H])C(=O)C1([H])N(C(=O)C([H])(N([H])C(=O)C([H])(N([H])C([H])([H])[H])C([H])([H])[H])C(C([H])([H])[H])(C([H])([H])[H])C([H])([H])[H])C([H])([H])c2c([H])c(OC([H])([H])c3c([H])c([H])c(C([H])([H])[H])c([H])c3C([H])([H])C(=O)N([H])C3([H])C([H])([H])C([H])([H])C([H])(N([H])C(=O)N4C([H])([H])C([H])([H])C([H])([H])C([H])(n5nc(-c6c([H])c([H])c(Oc7c([H])c([H])c(F)c([H])c7F)c([H])c6[H])c(C(=O)N([H])[H])c5N([H])[H])C4([H])[H])C([H])([H])C3([H])[H])c([H])c([H])c2C1([H])[H]

$$$$
64:0:0
     RDKit          3D

 97105  0  0  1  0  0  0  0  0999 V2000
  -30.5400  -21.6160   23.0760 C   0  0  0  0  0  3  0  0  0  0  0  0
  -31.4130  -23.0120   20.8070 C   0  0  0  0  0  3  0  0  0  0  0  0
  -31.7830  -21.2800   22.4980 C   0  0  0  0  0  0  0  0  0  0  0  0
  -29.7290  -22.6290   22.5250 C   0  0  0  0  0  0  0  0  0  0  0  0
  -32.2250  -21.9910   21.3530 C   0  0  0  0  0  0  0  0  0  0  0  0
  -30.1660  -23.3400   21.3850 C   0  0  0  0  0  0  0  0  0  0  0  0
  -28.3900  -22.9420   23.1740 C   0  0  0  0  0  1  0  0  0  0  0  0
  -33.5610  -21.6860   20.6980 C   0  0  0  0  0  1  0  0  0  0  0  0
  -29.3410  -24.3460   20.8570 N   0  0  0  0  0  0  0  0  0  0  0  0
  -28.4170  -24.4720   21.2550 H   0  0  0  0  0  0  0  0  0  0  0  0
  -29.8850  -25.4850   20.1230 C   0  0  0  0  0  2  0  0  0  0  0  0
  -28.9400  -26.6960   20.1990 C   0  0  0  0  0  2  0  0  0  0  0  0
  -27.7420  -26.4030   19.4860 O   0  0  0  0  0  0  0  0  0  0  0  0
  -24.5290  -31.6630   23.1130 C   0  0  0  0  0  0  0  0  0  0  0  0
  -26.6630  -27.2420   19.6610 C   0  0  0  0  0  0  0  0  0  0  0  0
  -23.1100  -30.4070   21.5190 C   0  0  0  0  0  3  0  0  0  0  0  0
  -24.3520  -28.8510   19.9240 C   0  0  0  0  0  0  0  0  0  0  0  0
  -25.6230  -30.6370   21.1270 C   0  0  0  0  0  2  0  0  0  0  0  0
  -25.5770  -29.2920   20.4400 C   0  0  0  0  0  0  0  0  0  0  0  0
  -26.7320  -28.4950   20.3150 C   0  0  0  0  0  3  0  0  0  0  0  0
  -25.4250  -26.8120   19.1410 C   0  0  0  0  0  3  0  0  0  0  0  0
  -24.2680  -27.6060   19.2740 C   0  0  0  0  0  3  0  0  0  0  0  0
  -23.1660  -29.7720   20.1020 C   0  0  0  0  0  2  0  0  0  0  0  0
  -24.4430  -30.9130   21.9780 N   0  0  0  0  0  0  0  0  0  0  0  0
  -23.5140  -31.9750   23.7500 O   0  0  0  0  0  0  0  0  0  0  0  0
  -22.4750  -29.3850   22.4890 C   0  0  0  0  0  0  0  0  0  0  0  0
  -21.1430  -29.2380   22.4110 N   0  0  0  0  0  0  0  0  0  0  0  0
  -23.1760  -28.7300   23.2640 O   0  0  0  0  0  0  0  0  0  0  0  0
  -20.6410  -29.8200   21.7540 H   0  0  0  0  0  0  0  0  0  0  0  0
  -17.7740  -28.0520   22.9430 C   0  0  0  0  0  0  0  0  0  0  0  0
  -20.3320  -28.3090   23.1960 C   0  0  0  0  0  3  0  0  0  0  0  0
  -20.4310  -26.8720   22.6330 C   0  0  0  0  0  2  0  0  0  0  0  0
  -19.3220  -26.5400   21.6290 C   0  0  0  0  0  2  0  0  0  0  0  0
  -17.9450  -26.6940   22.2810 C   0  0  0  0  0  2  0  0  0  0  0  0
  -18.8960  -28.8160   23.3590 C   0  0  0  0  0  0  0  0  0  0  0  0
  -18.6830  -30.0870   23.9350 C   0  0  0  0  0  3  0  0  0  0  0  0
  -17.3800  -30.5930   24.1030 C   0  0  0  0  0  3  0  0  0  0  0  0
  -16.2720  -29.8240   23.7050 C   0  0  0  0  0  3  0  0  0  0  0  0
  -16.4700  -28.5550   23.1320 C   0  0  0  0  0  3  0  0  0  0  0  0
  -25.8990  -32.1840   23.6500 C   0  0  0  0  0  3  0  0  0  0  0  0
  -26.4920  -31.2950   24.8100 C   0  0  1  0  0  0  0  0  0  0  0  0
  -25.4950  -31.0260   25.9600 C   0  0  0  0  0  1  0  0  0  0  0  0
  -26.9590  -29.9270   24.2600 C   0  0  0  0  0  1  0  0  0  0  0  0
  -27.7420  -31.9810   25.4110 C   0  0  0  0  0  1  0  0  0  0  0  0
  -25.6990  -33.5670   24.1040 N   0  0  0  0  0  0  0  0  0  0  0  0
  -26.0190  -34.6550   23.3910 C   0  0  0  0  0  0  0  0  0  0  0  0
  -26.5880  -34.5950   22.2970 O   0  0  0  0  0  0  0  0  0  0  0  0
  -25.1860  -33.6910   24.9650 H   0  0  0  0  0  0  0  0  0  0  0  0
  -24.3560  -36.5390   23.3290 C   0  0  0  0  0  1  0  0  0  0  0  0
  -25.6480  -36.0270   23.9850 C   0  0  0  0  0  3  0  0  0  0  0  0
  -27.8950  -36.7550   24.6540 C   0  0  0  0  0  1  0  0  0  0  0  0
  -26.7180  -37.0380   23.8380 N   0  0  0  0  0  0  0  0  0  0  0  0
  -26.3750  -37.9630   24.0860 H   0  0  0  0  0  0  0  0  0  0  0  0
  -32.6160  -20.1680   23.1390 C   0  0  0  0  0  2  0  0  0  0  0  0
  -32.7220  -18.8810   22.2930 C   0  0  0  0  0  2  0  0  0  0  0  0
  -31.3910  -18.3830   21.8900 N   0  0  0  0  0  4  0  0  0  0  0  0
  -31.0500  -18.9670   21.1430 H   0  0  0  0  0  0  0  0  0  0  0  0
  -30.7700  -18.4980   22.6750 H   0  0  0  0  0  0  0  0  0  0  0  0
  -31.3290  -16.9640   21.4800 C   0  0  0  0  0  2  0  0  0  0  0  0
  -29.9250  -16.6350   20.9360 C   0  0  0  0  0  2  0  0  0  0  0  0
  -29.4780  -15.1670   21.0850 C   0  0  0  0  0  2  0  0  0  0  0  0
  -30.0920  -14.1590   20.0970 C   0  0  0  0  0  0  0  0  0  0  0  0
  -29.8050  -12.0330   18.8600 C   0  0  0  0  0  2  0  0  0  0  0  0
  -28.7350  -12.2070   17.7640 C   0  0  0  0  0  2  0  0  0  0  0  0
  -27.3160  -11.9900   18.3300 C   0  0  0  0  0  2  0  0  0  0  0  0
  -27.0650  -12.7950   19.6320 C   0  0  0  0  0  3  0  0  0  0  0  0
  -28.2270  -12.5660   20.6240 C   0  0  0  0  0  2  0  0  0  0  0  0
  -29.4780  -12.9560   19.9530 N   0  0  0  0  0  0  0  0  0  0  0  0
  -31.0840  -14.4870   19.4350 O   0  0  0  0  0  0  0  0  0  0  0  0
  -24.7150  -13.3040   20.5610 C   0  0  0  0  0  0  0  0  0  0  0  0
  -23.7160  -12.4850   21.0150 C   0  0  0  0  0  0  0  0  0  0  0  0
  -24.2250  -11.1530   20.9200 C   0  0  0  0  0  0  0  0  0  0  0  0
  -25.7700  -12.4680   20.2250 N   0  0  0  0  0  0  0  0  0  0  0  0
  -25.4810  -11.1690   20.4910 N   0  0  0  0  0  0  0  0  0  0  0  0
  -23.5720   -9.8600   21.1590 C   0  0  0  0  0  0  0  0  0  0  0  0
  -24.0960   -8.9270   22.0800 C   0  0  0  0  0  3  0  0  0  0  0  0
  -23.4400   -7.6970   22.3050 C   0  0  0  0  0  3  0  0  0  0  0  0
  -22.2480   -7.3920   21.6070 C   0  0  0  0  0  0  0  0  0  0  0  0
  -21.7440   -8.3150   20.6730 C   0  0  0  0  0  3  0  0  0  0  0  0
  -22.3990   -9.5360   20.4470 C   0  0  0  0  0  3  0  0  0  0  0  0
  -21.5560   -6.2120   21.7410 O   0  0  0  0  0  0  0  0  0  0  0  0
  -21.5680   -5.5010   22.9130 C   0  0  0  0  0  0  0  0  0  0  0  0
  -21.1350   -6.0650   24.1320 C   0  0  0  0  0  3  0  0  0  0  0  0
  -21.0980   -5.2770   25.3000 C   0  0  0  0  0  3  0  0  0  0  0  0
  -21.4840   -3.9250   25.2490 C   0  0  0  0  0  0  0  0  0  0  0  0
  -21.9130   -3.3590   24.0350 C   0  0  0  0  0  3  0  0  0  0  0  0
  -21.9500   -4.1450   22.8700 C   0  0  0  0  0  0  0  0  0  0  0  0
  -22.3430   -3.5880   21.6980 F   0  0  0  0  0  0  0  0  0  0  0  0
  -21.4410   -3.1650   26.3690 F   0  0  0  0  0  0  0  0  0  0  0  0
  -22.3330  -12.9000   21.4270 C   0  0  0  0  0  0  0  0  0  0  0  0
  -21.7220  -12.1640   22.3510 N   0  0  0  0  0  0  0  0  0  0  0  0
  -21.8040  -13.9100   20.9670 O   0  0  0  0  0  0  0  0  0  0  0  0
  -22.1650  -11.3450   22.7410 H   0  0  0  0  0  0  0  0  0  0  0  0
  -20.8000  -12.4210   22.6710 H   0  0  0  0  0  0  0  0  0  0  0  0
  -24.8080  -14.6820   20.3920 N   0  0  0  0  0  0  0  0  0  0  0  0
  -24.0310  -15.3030   20.5850 H   0  0  0  0  0  0  0  0  0  0  0  0
  -25.6100  -15.1590   20.0000 H   0  0  0  0  0  0  0  0  0  0  0  0
  2  5  2  0
  2  6  1  0
  3  1  2  0
  3 54  1  0
  4  1  1  0
  4  7  1  0
  5  3  1  0
  6  4  2  0
  8  5  1  0
  9 10  1  0
  9  6  1  0
 11 12  1  0
 11  9  1  0
 13 15  1  0
 13 12  1  0
 14 25  2  0
 15 20  1  0
 16 24  1  0
 16 26  1  0
 17 23  1  0
 17 19  1  0
 18 24  1  0
 19 18  1  0
 20 19  2  0
 21 22  1  0
 21 15  2  0
 22 17  2  0
 23 16  1  0
 24 14  1  0
 26 28  2  0
 27 26  1  0
 29 27  1  0
 30 39  2  0
 30 35  1  0
 31 27  1  0
 31 35  1  0
 32 31  1  0
 33 34  1  0
 33 32  1  0
 34 30  1  0
 35 36  2  0
 36 37  1  0
 38 37  2  0
 39 38  1  0
 40 14  1  0
 40 45  1  0
 40 41  1  0
 41 44  1  1
 41 42  1  0
 43 41  1  0
 45 48  1  0
 46 50  1  0
 46 45  1  0
 47 46  2  0
 50 49  1  0
 52 50  1  0
 52 53  1  0
 52 51  1  0
 55 54  1  0
 56 55  1  0
 56 58  1  0
 57 56  1  0
 59 56  1  0
 60 61  1  0
 60 59  1  0
 62 61  1  0
 63 68  1  0
 64 65  1  0
 64 63  1  0
 66 65  1  0
 66 73  1  0
 66 67  1  0
 68 62  1  0
 68 67  1  0
 69 62  2  0
 70 71  2  0
 71 90  1  0
 72 71  1  0
 72 75  1  0
 73 74  1  0
 73 70  1  0
 74 72  2  0
 75 76  1  0
 76 77  2  0
 78 81  1  0
 78 77  1  0
 79 78  2  0
 80 79  1  0
 80 75  2  0
 81 82  1  0
 82 83  1  0
 83 84  2  0
 85 84  1  0
 85 89  1  0
 86 85  2  0
 87 82  2  0
 87 86  1  0
 88 87  1  0
 90 91  1  0
 91 94  1  0
 91 93  1  0
 92 90  2  0
 95 70  1  0
 95 96  1  0
 97 95  1  0
M  ISO  4  12 101  13 101  61 100  62 100
M  END
>  <TORSDO>  (64) 
F 25

>  <SCORE>  (64) 
-9.250

>  <name>  (64) 
64

>  <ligand_id>  (64) 
64

>  <original_smiles>  (64) 
[H]c1c([H])c([H])c2c(c1[H])C([H])([H])C([H])([H])C([H])([H])C2([H])N([H])C(=O)C1([H])N(C(=O)C([H])(N([H])C(=O)C([H])(N([H])C([H])([H])[H])C([H])([H])[H])C(C([H])([H])[H])(C([H])([H])[H])C([H])([H])[H])C([H])([H])c2c([H])c(OC([H])([H])C([H])([H])N([H])c3c([H])c(C([H])([H])[H])c(C([H])([H])C([H])([H])[N+]([H])([H])C([H])([H])C([H])([H])C([H])([H])C(=O)N4C([H])([H])C([H])([H])C([H])([H])C([H])(n5nc(-c6c([H])c([H])c(Oc7c([H])c([H])c(F)c([H])c7F)c([H])c6[H])c(C(=O)N([H])[H])c5N([H])[H])C4([H])[H])c([H])c3C([H])([H])[H])c([H])c([H])c2C1([H])[H]

>  <smiles>  (64) 
[H]c1c([H])c([H])c2c(c1[H])C([H])([H])C([H])([H])C([H])([H])C2([H])N([H])C(=O)C1([H])N(C(=O)C([H])(N([H])C(=O)C([H])(N([H])C([H])([H])[H])C([H])([H])[H])C(C([H])([H])[H])(C([H])([H])[H])C([H])([H])[H])C([H])([H])c2c([H])c(OC([H])([H])C([H])([H])N([H])c3c([H])c(C([H])([H])[H])c(C([H])([H])C([H])([H])[N+]([H])([H])C([H])([H])C([H])([H])C([H])([H])C(=O)N4C([H])([H])C([H])([H])C([H])([H])C([H])(n5nc(-c6c([H])c([H])c(Oc7c([H])c([H])c(F)c([H])c7F)c([H])c6[H])c(C(=O)N([H])[H])c5N([H])[H])C4([H])[H])c([H])c3C([H])([H])[H])c([H])c([H])c2C1([H])[H]

$$$$
65:0:0
     RDKit          3D

 96105  0  0  1  0  0  0  0  0999 V2000
  -30.4950  -21.6750   22.0920 C   0  0  0  0  0  2  0  0  0  0  0  0
  -33.1000  -18.9470   21.5090 C   0  0  0  0  0  3  0  0  0  0  0  0
  -32.4750  -20.1870   21.7170 C   0  0  0  0  0  3  0  0  0  0  0  0
  -32.3230  -17.7820   21.4050 C   0  0  0  0  0  3  0  0  0  0  0  0
  -31.0720  -20.2840   21.8060 C   0  0  0  0  0  0  0  0  0  0  0  0
  -30.9130  -17.8370   21.4820 C   0  0  0  0  0  0  0  0  0  0  0  0
  -30.2750  -19.1060   21.6570 C   0  0  0  0  0  0  0  0  0  0  0  0
  -28.7540  -19.2080   21.6740 C   0  0  0  0  0  1  0  0  0  0  0  0
  -30.1430  -16.5060   21.3550 C   0  0  0  0  0  2  0  0  0  0  0  0
  -31.0180  -14.6950   19.9280 C   0  0  0  0  0  0  0  0  0  0  0  0
  -30.6390  -12.5180   18.8440 C   0  0  0  0  0  2  0  0  0  0  0  0
  -29.6470  -12.7090   17.6780 C   0  0  0  0  0  2  0  0  0  0  0  0
  -28.1880  -12.6090   18.1680 C   0  0  0  0  0  2  0  0  0  0  0  0
  -27.9180  -13.4380   19.4530 C   0  0  0  0  0  3  0  0  0  0  0  0
  -29.0310  -13.2450   20.5100 C   0  0  0  0  0  2  0  0  0  0  0  0
  -30.3190  -13.5270   19.8620 N   0  0  0  0  0  0  0  0  0  0  0  0
  -32.1740  -14.7970   19.5050 O   0  0  0  0  0  0  0  0  0  0  0  0
  -30.2550  -15.8130   20.0500 N   0  0  0  0  0  0  0  0  0  0  0  0
  -25.5650  -14.0830   20.2610 C   0  0  0  0  0  0  0  0  0  0  0  0
  -24.5030  -13.3250   20.6770 C   0  0  0  0  0  0  0  0  0  0  0  0
  -24.9450  -11.9670   20.6220 C   0  0  0  0  0  0  0  0  0  0  0  0
  -26.5860  -13.1870   19.9910 N   0  0  0  0  0  0  0  0  0  0  0  0
  -26.2210  -11.9100   20.2660 N   0  0  0  0  0  0  0  0  0  0  0  0
  -24.2130  -10.7140   20.8380 C   0  0  0  0  0  0  0  0  0  0  0  0
  -24.6250   -9.7780   21.8130 C   0  0  0  0  0  3  0  0  0  0  0  0
  -23.8950   -8.5860   22.0140 C   0  0  0  0  0  3  0  0  0  0  0  0
  -22.7400   -8.3220   21.2430 C   0  0  0  0  0  0  0  0  0  0  0  0
  -22.3480   -9.2450   20.2590 C   0  0  0  0  0  3  0  0  0  0  0  0
  -23.0770  -10.4280   20.0540 C   0  0  0  0  0  3  0  0  0  0  0  0
  -21.9840   -7.1800   21.3530 O   0  0  0  0  0  0  0  0  0  0  0  0
  -21.8520   -6.5170   22.5460 C   0  0  0  0  0  0  0  0  0  0  0  0
  -21.3290   -7.1470   23.6950 C   0  0  0  0  0  3  0  0  0  0  0  0
  -21.1480   -6.4100   24.8830 C   0  0  0  0  0  3  0  0  0  0  0  0
  -21.4800   -5.0420   24.9190 C   0  0  0  0  0  0  0  0  0  0  0  0
  -21.9970   -4.4110   23.7750 C   0  0  0  0  0  3  0  0  0  0  0  0
  -22.1810   -5.1470   22.5910 C   0  0  0  0  0  0  0  0  0  0  0  0
  -22.6580   -4.5300   21.4820 F   0  0  0  0  0  0  0  0  0  0  0  0
  -21.3000   -4.3290   26.0570 F   0  0  0  0  0  0  0  0  0  0  0  0
  -23.1250  -13.8190   21.0080 C   0  0  0  0  0  0  0  0  0  0  0  0
  -22.4330  -13.1310   21.9100 N   0  0  0  0  0  0  0  0  0  0  0  0
  -22.6730  -14.8440   20.5040 O   0  0  0  0  0  0  0  0  0  0  0  0
  -22.8100  -12.2950   22.3300 H   0  0  0  0  0  0  0  0  0  0  0  0
  -21.5120  -13.4400   22.1800 H   0  0  0  0  0  0  0  0  0  0  0  0
  -25.7430  -15.4500   20.0700 N   0  0  0  0  0  0  0  0  0  0  0  0
  -25.0030  -16.1270   20.2170 H   0  0  0  0  0  0  0  0  0  0  0  0
  -26.5810  -15.8540   19.6720 H   0  0  0  0  0  0  0  0  0  0  0  0
  -28.6830  -17.0090   18.4980 C   0  0  0  0  0  1  0  0  0  0  0  0
  -30.1410  -16.7030   18.8740 C   0  0  0  0  0  2  0  0  0  0  0  0
  -30.4610  -22.5920   20.8490 C   0  0  0  0  0  2  0  0  0  0  0  0
  -30.7980  -24.9500   19.9280 C   0  0  0  0  0  2  0  0  0  0  0  0
  -29.0550  -24.6010   21.6930 C   0  0  0  0  0  2  0  0  0  0  0  0
  -30.8460  -26.4540   20.2550 C   0  0  0  0  0  2  0  0  0  0  0  0
  -29.0640  -26.1120   22.0200 C   0  0  0  0  0  2  0  0  0  0  0  0
  -30.4200  -24.1100   21.1630 C   0  0  0  0  0  3  0  0  0  0  0  0
  -29.5210  -26.9910   20.8330 C   0  0  0  0  0  3  0  0  0  0  0  0
  -28.5330  -27.0030   19.7990 O   0  0  0  0  0  0  0  0  0  0  0  0
  -24.6680  -31.9540   23.2680 C   0  0  0  0  0  0  0  0  0  0  0  0
  -27.3720  -27.7360   19.9530 C   0  0  0  0  0  0  0  0  0  0  0  0
  -23.4540  -30.5710   21.6110 C   0  0  0  0  0  3  0  0  0  0  0  0
  -24.9120  -29.1360   20.0880 C   0  0  0  0  0  0  0  0  0  0  0  0
  -25.9530  -31.0290   21.3490 C   0  0  0  0  0  2  0  0  0  0  0  0
  -26.0630  -29.6820   20.6660 C   0  0  0  0  0  0  0  0  0  0  0  0
  -27.2920  -28.9900   20.6060 C   0  0  0  0  0  3  0  0  0  0  0  0
  -26.2030  -27.2030   19.3710 C   0  0  0  0  0  3  0  0  0  0  0  0
  -24.9750  -27.8900   19.4380 C   0  0  0  0  0  3  0  0  0  0  0  0
  -23.6400  -29.9450   20.2020 C   0  0  0  0  0  2  0  0  0  0  0  0
  -24.7100  -31.1970   22.1350 N   0  0  0  0  0  0  0  0  0  0  0  0
  -23.5970  -32.1700   23.8530 O   0  0  0  0  0  0  0  0  0  0  0  0
  -22.8680  -29.4970   22.5550 C   0  0  0  0  0  0  0  0  0  0  0  0
  -21.5600  -29.2290   22.4170 N   0  0  0  0  0  0  0  0  0  0  0  0
  -23.5860  -28.9090   23.3690 O   0  0  0  0  0  0  0  0  0  0  0  0
  -21.0400  -29.7550   21.7290 H   0  0  0  0  0  0  0  0  0  0  0  0
  -18.2780  -27.7740   22.8360 C   0  0  0  0  0  0  0  0  0  0  0  0
  -20.8010  -28.2290   23.1670 C   0  0  0  0  0  3  0  0  0  0  0  0
  -21.0290  -26.8120   22.5930 C   0  0  0  0  0  2  0  0  0  0  0  0
  -19.9800  -26.4060   21.5550 C   0  0  0  0  0  2  0  0  0  0  0  0
  -18.5750  -26.4430   22.1650 C   0  0  0  0  0  2  0  0  0  0  0  0
  -19.3240  -28.6200   23.2920 C   0  0  0  0  0  0  0  0  0  0  0  0
  -18.9920  -29.8630   23.8740 C   0  0  0  0  0  3  0  0  0  0  0  0
  -17.6490  -30.2590   24.0110 C   0  0  0  0  0  3  0  0  0  0  0  0
  -16.6180  -29.4080   23.5750 C   0  0  0  0  0  3  0  0  0  0  0  0
  -16.9330  -28.1700   22.9910 C   0  0  0  0  0  3  0  0  0  0  0  0
  -25.9550  -32.6030   23.8680 C   0  0  0  0  0  3  0  0  0  0  0  0
  -25.6350  -33.9970   24.2000 N   0  0  0  0  0  0  0  0  0  0  0  0
  -25.9490  -35.0520   23.4370 C   0  0  0  0  0  0  0  0  0  0  0  0
  -26.6120  -34.9550   22.4000 O   0  0  0  0  0  0  0  0  0  0  0  0
  -25.0480  -34.1460   25.0080 H   0  0  0  0  0  0  0  0  0  0  0  0
  -24.1960  -36.8220   23.0910 C   0  0  0  0  0  1  0  0  0  0  0  0
  -25.4480  -36.4350   23.8940 C   0  0  0  0  0  3  0  0  0  0  0  0
  -27.5750  -37.3510   24.7080 C   0  0  0  0  0  1  0  0  0  0  0  0
  -26.4650  -37.5010   23.7710 N   0  0  0  0  0  0  0  0  0  0  0  0
  -26.0480  -38.4160   23.9190 H   0  0  0  0  0  0  0  0  0  0  0  0
  -26.5050  -31.8380   25.1340 C   0  0  1  0  0  0  0  0  0  0  0  0
  -25.4300  -31.5570   26.2070 C   0  0  0  0  0  1  0  0  0  0  0  0
  -27.1260  -30.4820   24.7230 C   0  0  0  0  0  1  0  0  0  0  0  0
  -27.6360  -32.6600   25.7930 C   0  0  0  0  0  1  0  0  0  0  0  0
  2  3  1  0
  3  5  2  0
  4  6  1  0
  4  2  2  0
  5  1  1  0
  6  7  2  0
  7  8  1  0
  7  5  1  0
  9  6  1  0
 10 18  1  0
 11 16  1  0
 12 13  1  0
 12 11  1  0
 14 13  1  0
 14 22  1  0
 14 15  1  0
 16 10  1  0
 16 15  1  0
 17 10  2  0
 18  9  1  0
 19 20  2  0
 20 39  1  0
 21 20  1  0
 21 24  1  0
 22 19  1  0
 22 23  1  0
 23 21  2  0
 24 25  1  0
 25 26  2  0
 27 30  1  0
 27 26  1  0
 28 27  2  0
 29 28  1  0
 29 24  2  0
 30 31  1  0
 31 36  2  0
 31 32  1  0
 32 33  2  0
 33 34  1  0
 34 38  1  0
 35 34  2  0
 36 35  1  0
 37 36  1  0
 39 40  1  0
 40 43  1  0
 40 42  1  0
 41 39  2  0
 44 45  1  0
 44 19  1  0
 46 44  1  0
 47 48  1  0
 48 18  1  0
 49  1  1  0
 50 52  1  0
 50 54  1  0
 51 53  1  0
 52 55  1  0
 54 49  1  0
 54 51  1  0
 55 56  1  0
 55 53  1  0
 56 58  1  0
 57 68  2  0
 58 63  1  0
 59 67  1  0
 59 69  1  0
 60 66  1  0
 60 62  1  0
 61 67  1  0
 62 61  1  0
 63 62  2  0
 64 65  1  0
 64 58  2  0
 65 60  2  0
 66 59  1  0
 67 57  1  0
 69 71  2  0
 70 69  1  0
 72 70  1  0
 73 82  2  0
 73 78  1  0
 74 70  1  0
 74 78  1  0
 75 74  1  0
 76 77  1  0
 76 75  1  0
 77 73  1  0
 78 79  2  0
 79 80  1  0
 81 80  2  0
 82 81  1  0
 83 57  1  0
 83 84  1  0
 83 93  1  0
 84 87  1  0
 85 89  1  0
 85 84  1  0
 86 85  2  0
 89 88  1  0
 91 89  1  0
 91 92  1  0
 91 90  1  0
 93 96  1  1
 93 94  1  0
 95 93  1  0
M  ISO  4  10 100  18 100  55 101  56 101
M  END
>  <TORSDO>  (65) 
F 21

>  <SCORE>  (65) 
-11.420

>  <name>  (65) 
65

>  <ligand_id>  (65) 
65

>  <original_smiles>  (65) 
[H]c1c([H])c([H])c2c(c1[H])C([H])([H])C([H])([H])C([H])([H])C2([H])N([H])C(=O)C1([H])N(C(=O)C([H])(N([H])C(=O)C([H])(N([H])C([H])([H])[H])C([H])([H])[H])C(C([H])([H])[H])(C([H])([H])[H])C([H])([H])[H])C([H])([H])c2c([H])c(OC3([H])C([H])([H])C([H])([H])C([H])(C([H])([H])C([H])([H])c4c([H])c([H])c([H])c(C([H])([H])N(C(=O)N5C([H])([H])C([H])([H])C([H])([H])C([H])(n6nc(-c7c([H])c([H])c(Oc8c([H])c([H])c(F)c([H])c8F)c([H])c7[H])c(C(=O)N([H])[H])c6N([H])[H])C5([H])[H])C([H])([H])C([H])([H])[H])c4C([H])([H])[H])C([H])([H])C3([H])[H])c([H])c([H])c2C1([H])[H]

>  <smiles>  (65) 
[H]c1c([H])c([H])c2c(c1[H])C([H])([H])C([H])([H])C([H])([H])C2([H])N([H])C(=O)C1([H])N(C(=O)C([H])(N([H])C(=O)C([H])(N([H])C([H])([H])[H])C([H])([H])[H])C(C([H])([H])[H])(C([H])([H])[H])C([H])([H])[H])C([H])([H])c2c([H])c(OC3([H])C([H])([H])C([H])([H])C([H])(C([H])([H])C([H])([H])c4c([H])c([H])c([H])c(C([H])([H])N(C(=O)N5C([H])([H])C([H])([H])C([H])([H])C([H])(n6nc(-c7c([H])c([H])c(Oc8c([H])c([H])c(F)c([H])c8F)c([H])c7[H])c(C(=O)N([H])[H])c6N([H])[H])C5([H])[H])C([H])([H])C([H])([H])[H])c4C([H])([H])[H])C([H])([H])C3([H])[H])c([H])c([H])c2C1([H])[H]

$$$$
66:0:0
     RDKit          3D

 99107  0  0  1  0  0  0  0  0999 V2000
  -29.1180  -21.7320   16.0450 C   0  0  0  0  0  3  0  0  0  0  0  0
  -29.7520  -22.8970   16.5170 C   0  0  0  0  0  3  0  0  0  0  0  0
  -29.2450  -20.5220   16.7530 C   0  0  0  0  0  3  0  0  0  0  0  0
  -30.6380  -21.6410   18.4150 C   0  0  0  0  0  3  0  0  0  0  0  0
  -30.5100  -22.8600   17.7090 C   0  0  0  0  0  0  0  0  0  0  0  0
  -30.0080  -20.4680   17.9400 C   0  0  0  0  0  0  0  0  0  0  0  0
  -31.1900  -24.1210   18.2240 C   0  0  0  0  0  2  0  0  0  0  0  0
  -30.1910  -25.1230   18.6430 N   0  0  0  0  0  4  0  0  0  0  0  0
  -29.4610  -24.6470   19.1490 H   0  0  0  0  0  0  0  0  0  0  0  0
  -29.7730  -25.5190   17.8160 H   0  0  0  0  0  0  0  0  0  0  0  0
  -30.7150  -26.2060   19.5080 C   0  0  0  0  0  2  0  0  0  0  0  0
  -29.6530  -27.2890   19.7560 C   0  0  0  0  0  2  0  0  0  0  0  0
  -28.4560  -26.6330   20.1610 O   0  0  0  0  0  0  0  0  0  0  0  0
  -24.6320  -31.8390   23.2070 C   0  0  0  0  0  0  0  0  0  0  0  0
  -27.3160  -27.3980   20.1880 C   0  0  0  0  0  0  0  0  0  0  0  0
  -23.4360  -30.4130   21.5750 C   0  0  0  0  0  3  0  0  0  0  0  0
  -24.9030  -28.8610   20.1820 C   0  0  0  0  0  0  0  0  0  0  0  0
  -25.9570  -30.7870   21.3800 C   0  0  0  0  0  2  0  0  0  0  0  0
  -26.0540  -29.4090   20.7620 C   0  0  0  0  0  0  0  0  0  0  0  0
  -27.2650  -28.6870   20.7660 C   0  0  0  0  0  3  0  0  0  0  0  0
  -26.1450  -26.8440   19.6330 C   0  0  0  0  0  3  0  0  0  0  0  0
  -24.9410  -27.5740   19.6180 C   0  0  0  0  0  3  0  0  0  0  0  0
  -23.6540  -29.7120   20.2070 C   0  0  0  0  0  2  0  0  0  0  0  0
  -24.6930  -31.0270   22.1130 N   0  0  0  0  0  0  0  0  0  0  0  0
  -23.5490  -32.1160   23.7390 O   0  0  0  0  0  0  0  0  0  0  0  0
  -22.7820  -29.4040   22.5460 C   0  0  0  0  0  0  0  0  0  0  0  0
  -21.4560  -29.2320   22.4240 N   0  0  0  0  0  0  0  0  0  0  0  0
  -23.4650  -28.7790   23.3620 O   0  0  0  0  0  0  0  0  0  0  0  0
  -20.9680  -29.7880   21.7350 H   0  0  0  0  0  0  0  0  0  0  0  0
  -18.0720  -28.0830   22.9460 C   0  0  0  0  0  0  0  0  0  0  0  0
  -20.6340  -28.3060   23.2010 C   0  0  0  0  0  3  0  0  0  0  0  0
  -20.7140  -26.8730   22.6270 C   0  0  0  0  0  2  0  0  0  0  0  0
  -19.6010  -26.5630   21.6210 C   0  0  0  0  0  2  0  0  0  0  0  0
  -18.2260  -26.7290   22.2740 C   0  0  0  0  0  2  0  0  0  0  0  0
  -19.2030  -28.8310   23.3670 C   0  0  0  0  0  0  0  0  0  0  0  0
  -19.0070  -30.1000   23.9550 C   0  0  0  0  0  3  0  0  0  0  0  0
  -17.7110  -30.6200   24.1270 C   0  0  0  0  0  3  0  0  0  0  0  0
  -16.5930  -29.8690   23.7220 C   0  0  0  0  0  3  0  0  0  0  0  0
  -16.7750  -28.6030   23.1390 C   0  0  0  0  0  3  0  0  0  0  0  0
  -25.9160  -32.4770   23.8250 C   0  0  0  0  0  3  0  0  0  0  0  0
  -26.4480  -31.7020   25.0930 C   0  0  1  0  0  0  0  0  0  0  0  0
  -25.3620  -31.4390   26.1620 C   0  0  0  0  0  1  0  0  0  0  0  0
  -27.0490  -30.3370   24.6830 C   0  0  0  0  0  1  0  0  0  0  0  0
  -27.5900  -32.5070   25.7600 C   0  0  0  0  0  1  0  0  0  0  0  0
  -25.5990  -33.8710   24.1620 N   0  0  0  0  0  0  0  0  0  0  0  0
  -25.9230  -34.9270   23.4040 C   0  0  0  0  0  0  0  0  0  0  0  0
  -26.5920  -34.8310   22.3710 O   0  0  0  0  0  0  0  0  0  0  0  0
  -25.0050  -34.0190   24.9650 H   0  0  0  0  0  0  0  0  0  0  0  0
  -24.1800  -36.7060   23.0560 C   0  0  0  0  0  1  0  0  0  0  0  0
  -25.4250  -36.3100   23.8650 C   0  0  0  0  0  3  0  0  0  0  0  0
  -27.5550  -37.2070   24.6950 C   0  0  0  0  0  1  0  0  0  0  0  0
  -26.4500  -37.3710   23.7540 N   0  0  0  0  0  0  0  0  0  0  0  0
  -26.0380  -38.2880   23.9060 H   0  0  0  0  0  0  0  0  0  0  0  0
  -30.1700  -19.1440   18.6810 C   0  0  0  0  0  2  0  0  0  0  0  0
  -29.4360  -19.0640   19.9770 N   0  0  1  0  0  4  0  0  0  0  0  0
  -29.8940  -19.7330   20.5780 H   0  0  0  0  0  0  0  0  0  0  0  0
  -27.0730  -18.6260   19.1140 C   0  0  0  0  0  1  0  0  0  0  0  0
  -28.0190  -19.5320   19.9260 C   0  0  0  0  0  2  0  0  0  0  0  0
  -29.5770  -17.7470   20.6640 C   0  0  0  0  0  2  0  0  0  0  0  0
  -31.0330  -17.3680   21.0240 C   0  0  0  0  0  2  0  0  0  0  0  0
  -31.1650  -16.1050   21.9020 C   0  0  0  0  0  2  0  0  0  0  0  0
  -30.8830  -14.1760   20.3280 C   0  0  0  0  0  0  0  0  0  0  0  0
  -30.3920  -12.1730   18.9740 C   0  0  0  0  0  2  0  0  0  0  0  0
  -29.4110  -12.4850   17.8300 C   0  0  0  0  0  2  0  0  0  0  0  0
  -27.9500  -12.3910   18.3110 C   0  0  0  0  0  2  0  0  0  0  0  0
  -27.7050  -13.1770   19.6240 C   0  0  0  0  0  3  0  0  0  0  0  0
  -28.7800  -12.8270   20.6760 C   0  0  0  0  0  2  0  0  0  0  0  0
  -30.1090  -13.0880   20.0880 N   0  0  0  0  0  0  0  0  0  0  0  0
  -31.8910  -14.4580   19.6730 O   0  0  0  0  0  0  0  0  0  0  0  0
  -30.4830  -14.9310   21.3580 N   0  0  0  0  0  0  0  0  0  0  0  0
  -29.6700  -14.5970   21.8560 H   0  0  0  0  0  0  0  0  0  0  0  0
  -25.3410  -13.8610   20.3890 C   0  0  0  0  0  0  0  0  0  0  0  0
  -24.2620  -13.1220   20.7930 C   0  0  0  0  0  0  0  0  0  0  0  0
  -24.6830  -11.7570   20.7550 C   0  0  0  0  0  0  0  0  0  0  0  0
  -26.3550  -12.9490   20.1370 N   0  0  0  0  0  0  0  0  0  0  0  0
  -25.9610  -11.6790   20.4110 N   0  0  0  0  0  0  0  0  0  0  0  0
  -23.9270  -10.5170   20.9700 C   0  0  0  0  0  0  0  0  0  0  0  0
  -24.3650   -9.5360   21.8870 C   0  0  0  0  0  3  0  0  0  0  0  0
  -23.6120   -8.3610   22.0910 C   0  0  0  0  0  3  0  0  0  0  0  0
  -22.4070   -8.1570   21.3770 C   0  0  0  0  0  0  0  0  0  0  0  0
  -21.9890   -9.1240   20.4480 C   0  0  0  0  0  3  0  0  0  0  0  0
  -22.7420  -10.2930   20.2430 C   0  0  0  0  0  3  0  0  0  0  0  0
  -21.6230   -7.0340   21.4910 O   0  0  0  0  0  0  0  0  0  0  0  0
  -21.6000   -6.2870   22.6420 C   0  0  0  0  0  0  0  0  0  0  0  0
  -21.2560   -6.8500   23.8900 C   0  0  0  0  0  3  0  0  0  0  0  0
  -21.1760   -6.0300   25.0330 C   0  0  0  0  0  3  0  0  0  0  0  0
  -21.4300   -4.6490   24.9300 C   0  0  0  0  0  0  0  0  0  0  0  0
  -21.7670   -4.0860   23.6860 C   0  0  0  0  0  3  0  0  0  0  0  0
  -21.8480   -4.9020   22.5450 C   0  0  0  0  0  0  0  0  0  0  0  0
  -22.1520   -4.3530   21.3450 F   0  0  0  0  0  0  0  0  0  0  0  0
  -21.3470   -3.8590   26.0260 F   0  0  0  0  0  0  0  0  0  0  0  0
  -22.8870  -13.6390   21.1020 C   0  0  0  0  0  0  0  0  0  0  0  0
  -22.1670  -12.9670   21.9930 N   0  0  0  0  0  0  0  0  0  0  0  0
  -22.4600  -14.6720   20.5880 O   0  0  0  0  0  0  0  0  0  0  0  0
  -22.5270  -12.1320   22.4330 H   0  0  0  0  0  0  0  0  0  0  0  0
  -21.2430  -13.2920   22.2410 H   0  0  0  0  0  0  0  0  0  0  0  0
  -25.5380  -15.2250   20.1970 N   0  0  0  0  0  0  0  0  0  0  0  0
  -24.7860  -15.8970   20.3090 H   0  0  0  0  0  0  0  0  0  0  0  0
  -26.3810  -15.6310   19.8180 H   0  0  0  0  0  0  0  0  0  0  0  0
  1  2  2  0
  1  3  1  0
  2  5  1  0
  3  6  2  0
  5  7  1  0
  5  4  2  0
  6  4  1  0
  6 54  1  0
  7  8  1  0
  8  9  1  0
  8 11  1  0
 10  8  1  0
 11 12  1  0
 12 13  1  0
 13 15  1  0
 14 25  2  0
 15 20  1  0
 16 24  1  0
 16 26  1  0
 17 23  1  0
 17 19  1  0
 18 24  1  0
 19 20  2  0
 19 18  1  0
 21 15  2  0
 22 21  1  0
 22 17  2  0
 23 16  1  0
 24 14  1  0
 26 28  2  0
 27 26  1  0
 29 27  1  0
 30 39  2  0
 30 35  1  0
 31 27  1  0
 31 35  1  0
 32 31  1  0
 33 34  1  0
 33 32  1  0
 34 30  1  0
 35 36  2  0
 36 37  1  0
 38 37  2  0
 39 38  1  0
 40 14  1  0
 40 45  1  0
 40 41  1  0
 41 44  1  1
 41 42  1  0
 43 41  1  0
 45 48  1  0
 46 50  1  0
 46 45  1  0
 47 46  2  0
 50 49  1  0
 52 50  1  0
 52 53  1  0
 52 51  1  0
 54 55  1  0
 55 56  1  1
 55 59  1  0
 57 58  1  0
 58 55  1  0
 59 60  1  0
 60 61  1  0
 62 70  1  0
 63 68  1  0
 64 65  1  0
 64 63  1  0
 66 65  1  0
 66 75  1  0
 66 67  1  0
 68 62  1  0
 68 67  1  0
 69 62  2  0
 70 71  1  0
 70 61  1  0
 72 73  2  0
 73 92  1  0
 74 73  1  0
 74 77  1  0
 75 72  1  0
 75 76  1  0
 76 74  2  0
 77 78  1  0
 78 79  2  0
 80 83  1  0
 80 79  1  0
 81 80  2  0
 82 81  1  0
 82 77  2  0
 83 84  1  0
 84 85  1  0
 85 86  2  0
 87 86  1  0
 87 91  1  0
 88 87  2  0
 89 84  2  0
 89 88  1  0
 90 89  1  0
 92 93  1  0
 93 96  1  0
 93 95  1  0
 94 92  2  0
 97 98  1  0
 97 72  1  0
 99 97  1  0
M  ISO  4  12 101  13 101  62 100  70 100
M  END
>  <TORSDO>  (66) 
F 26

>  <SCORE>  (66) 
-11.625

>  <name>  (66) 
66

>  <ligand_id>  (66) 
66

>  <original_smiles>  (66) 
[H]c1c([H])c([H])c2c(c1[H])C([H])([H])C([H])([H])C([H])([H])C2([H])N([H])C(=O)C1([H])N(C(=O)C([H])(N([H])C(=O)C([H])(N([H])C([H])([H])[H])C([H])([H])[H])C(C([H])([H])[H])(C([H])([H])[H])C([H])([H])[H])C([H])([H])c2c([H])c(OC([H])([H])C([H])([H])[N+]([H])([H])C([H])([H])c3c([H])c([H])c([H])c(C([H])([H])[N+]([H])(C([H])([H])C([H])([H])[H])C([H])([H])C([H])([H])C([H])([H])N([H])C(=O)N4C([H])([H])C([H])([H])C([H])([H])C([H])(n5nc(-c6c([H])c([H])c(Oc7c([H])c([H])c(F)c([H])c7F)c([H])c6[H])c(C(=O)N([H])[H])c5N([H])[H])C4([H])[H])c3[H])c([H])c([H])c2C1([H])[H]

>  <smiles>  (66) 
[H]c1c([H])c([H])c2c(c1[H])C([H])([H])C([H])([H])C([H])([H])C2([H])N([H])C(=O)C1([H])N(C(=O)C([H])(N([H])C(=O)C([H])(N([H])C([H])([H])[H])C([H])([H])[H])C(C([H])([H])[H])(C([H])([H])[H])C([H])([H])[H])C([H])([H])c2c([H])c(OC([H])([H])C([H])([H])[N+]([H])([H])C([H])([H])c3c([H])c([H])c([H])c(C([H])([H])[N+]([H])(C([H])([H])C([H])([H])[H])C([H])([H])C([H])([H])C([H])([H])N([H])C(=O)N4C([H])([H])C([H])([H])C([H])([H])C([H])(n5nc(-c6c([H])c([H])c(Oc7c([H])c([H])c(F)c([H])c7F)c([H])c6[H])c(C(=O)N([H])[H])c5N([H])[H])C4([H])[H])c3[H])c([H])c([H])c2C1([H])[H]

$$$$
67:0:0
     RDKit          3D

 93101  0  0  1  0  0  0  0  0999 V2000
  -29.3510  -18.9940   20.3470 C   0  0  0  0  0  3  0  0  0  0  0  0
  -30.2590  -21.1770   19.7270 C   0  0  0  0  0  3  0  0  0  0  0  0
  -30.0470  -19.4290   18.0470 C   0  0  0  0  0  3  0  0  0  0  0  0
  -29.7250  -20.3070   20.6980 C   0  0  0  0  0  0  0  0  0  0  0  0
  -29.5270  -18.5500   19.0220 C   0  0  0  0  0  0  0  0  0  0  0  0
  -30.4130  -20.7500   18.3940 C   0  0  0  0  0  0  0  0  0  0  0  0
  -29.5530  -20.7960   22.1200 C   0  0  0  0  0  1  0  0  0  0  0  0
  -30.9140  -21.6430   17.4390 N   0  0  0  0  0  0  0  0  0  0  0  0
  -31.5720  -22.3190   17.8210 H   0  0  0  0  0  0  0  0  0  0  0  0
  -29.8850  -22.2310   16.5890 C   0  0  0  0  0  2  0  0  0  0  0  0
  -30.0130  -23.7640   16.4570 C   0  0  0  0  0  2  0  0  0  0  0  0
  -28.7380  -24.3800   15.8530 C   0  0  0  0  0  2  0  0  0  0  0  0
  -28.5680  -25.7480   16.2590 O   0  0  0  0  0  0  0  0  0  0  0  0
  -24.8000  -28.2180   21.7580 C   0  0  0  0  0  0  0  0  0  0  0  0
  -27.3270  -26.1930   16.6810 C   0  0  0  0  0  0  0  0  0  0  0  0
  -23.4840  -27.5800   19.7640 C   0  0  0  0  0  3  0  0  0  0  0  0
  -24.8330  -27.1340   17.6470 C   0  0  0  0  0  0  0  0  0  0  0  0
  -25.9090  -28.3720   19.5320 C   0  0  0  0  0  2  0  0  0  0  0  0
  -26.0160  -27.4910   18.3040 C   0  0  0  0  0  0  0  0  0  0  0  0
  -27.2610  -27.0250   17.8240 C   0  0  0  0  0  3  0  0  0  0  0  0
  -26.1180  -25.8720   16.0180 C   0  0  0  0  0  3  0  0  0  0  0  0
  -24.8790  -26.3250   16.5020 C   0  0  0  0  0  3  0  0  0  0  0  0
  -23.5380  -27.6670   18.2170 C   0  0  0  0  0  2  0  0  0  0  0  0
  -24.7570  -28.0440   20.4080 N   0  0  0  0  0  0  0  0  0  0  0  0
  -23.7950  -28.0390   22.4600 O   0  0  0  0  0  0  0  0  0  0  0  0
  -23.0860  -26.1400   20.1640 C   0  0  0  0  0  0  0  0  0  0  0  0
  -21.7910  -25.8150   20.0130 N   0  0  0  0  0  0  0  0  0  0  0  0
  -23.9300  -25.3410   20.5720 O   0  0  0  0  0  0  0  0  0  0  0  0
  -21.1600  -26.5270   19.6780 H   0  0  0  0  0  0  0  0  0  0  0  0
  -18.7010  -23.9450   19.9140 C   0  0  0  0  0  0  0  0  0  0  0  0
  -21.1960  -24.5080   20.2930 C   0  0  0  0  0  3  0  0  0  0  0  0
  -21.4880  -23.5070   19.1510 C   0  0  0  0  0  2  0  0  0  0  0  0
  -20.3850  -23.4630   18.0890 C   0  0  0  0  0  2  0  0  0  0  0  0
  -19.0460  -23.0710   18.7210 C   0  0  0  0  0  2  0  0  0  0  0  0
  -19.7090  -24.6330   20.6430 C   0  0  0  0  0  0  0  0  0  0  0  0
  -19.3260  -25.4610   21.7200 C   0  0  0  0  0  3  0  0  0  0  0  0
  -17.9720  -25.6030   22.0750 C   0  0  0  0  0  3  0  0  0  0  0  0
  -16.9820  -24.9080   21.3600 C   0  0  0  0  0  3  0  0  0  0  0  0
  -17.3470  -24.0800   20.2850 C   0  0  0  0  0  3  0  0  0  0  0  0
  -26.1050  -28.6730   22.4830 C   0  0  0  0  0  3  0  0  0  0  0  0
  -25.7350  -29.7240   23.4390 N   0  0  0  0  0  0  0  0  0  0  0  0
  -25.9580  -31.0320   23.2520 C   0  0  0  0  0  0  0  0  0  0  0  0
  -26.5660  -31.4760   22.2740 O   0  0  0  0  0  0  0  0  0  0  0  0
  -25.1820  -29.4400   24.2340 H   0  0  0  0  0  0  0  0  0  0  0  0
  -24.1470  -32.6920   23.7910 C   0  0  0  0  0  1  0  0  0  0  0  0
  -25.4160  -32.0030   24.3190 C   0  0  0  0  0  3  0  0  0  0  0  0
  -27.5060  -32.4730   25.5170 C   0  0  0  0  0  1  0  0  0  0  0  0
  -26.4010  -33.0240   24.7390 N   0  0  0  0  0  0  0  0  0  0  0  0
  -25.9520  -33.7490   25.2940 H   0  0  0  0  0  0  0  0  0  0  0  0
  -26.8540  -27.4920   23.2120 C   0  0  1  0  0  0  0  0  0  0  0  0
  -25.9460  -26.6620   24.1490 C   0  0  0  0  0  1  0  0  0  0  0  0
  -27.4790  -26.5230   22.1820 C   0  0  0  0  0  1  0  0  0  0  0  0
  -28.0260  -28.0570   24.0510 C   0  0  0  0  0  1  0  0  0  0  0  0
  -29.1900  -17.1210   18.6420 C   0  0  0  0  0  2  0  0  0  0  0  0
  -30.3580  -16.1610   18.9270 C   0  0  0  0  0  2  0  0  0  0  0  0
  -30.8200  -13.9770   19.9520 C   0  0  0  0  0  0  0  0  0  0  0  0
  -30.6170  -11.5700   19.5760 C   0  0  0  0  0  2  0  0  0  0  0  0
  -29.7050  -11.3860   18.3470 C   0  0  0  0  0  2  0  0  0  0  0  0
  -28.2240  -11.3390   18.7710 C   0  0  0  0  0  2  0  0  0  0  0  0
  -27.8300  -12.4910   19.7370 C   0  0  0  0  0  3  0  0  0  0  0  0
  -28.8740  -12.6660   20.8630 C   0  0  0  0  0  2  0  0  0  0  0  0
  -30.1980  -12.8070   20.2400 N   0  0  0  0  0  0  0  0  0  0  0  0
  -31.9930  -14.0530   19.5800 O   0  0  0  0  0  0  0  0  0  0  0  0
  -29.9980  -15.0210   19.7820 N   0  0  0  0  0  0  0  0  0  0  0  0
  -29.0370  -14.9050   20.0590 H   0  0  0  0  0  0  0  0  0  0  0  0
  -25.5310  -13.2620   20.5970 C   0  0  0  0  0  0  0  0  0  0  0  0
  -24.4190  -12.5660   20.9890 C   0  0  0  0  0  0  0  0  0  0  0  0
  -24.7580  -11.1830   20.8690 C   0  0  0  0  0  0  0  0  0  0  0  0
  -26.4820  -12.3090   20.2730 N   0  0  0  0  0  0  0  0  0  0  0  0
  -26.0250  -11.0500   20.4950 N   0  0  0  0  0  0  0  0  0  0  0  0
  -23.9330   -9.9810   21.0400 C   0  0  0  0  0  0  0  0  0  0  0  0
  -24.2570   -8.9930   21.9960 C   0  0  0  0  0  3  0  0  0  0  0  0
  -23.4420   -7.8520   22.1500 C   0  0  0  0  0  3  0  0  0  0  0  0
  -22.2840   -7.6940   21.3540 C   0  0  0  0  0  0  0  0  0  0  0  0
  -21.9760   -8.6710   20.3900 C   0  0  0  0  0  3  0  0  0  0  0  0
  -22.7910   -9.8020   20.2320 C   0  0  0  0  0  3  0  0  0  0  0  0
  -21.4480   -6.6080   21.4180 O   0  0  0  0  0  0  0  0  0  0  0  0
  -21.2640   -5.9070   22.5830 C   0  0  0  0  0  0  0  0  0  0  0  0
  -20.7010   -6.5090   23.7310 C   0  0  0  0  0  3  0  0  0  0  0  0
  -20.4720   -5.7370   24.8870 C   0  0  0  0  0  3  0  0  0  0  0  0
  -20.7900   -4.3660   24.8940 C   0  0  0  0  0  0  0  0  0  0  0  0
  -21.3400   -3.7630   23.7480 C   0  0  0  0  0  3  0  0  0  0  0  0
  -21.5770   -4.5340   22.5960 C   0  0  0  0  0  0  0  0  0  0  0  0
  -22.0890   -3.9440   21.4890 F   0  0  0  0  0  0  0  0  0  0  0  0
  -20.5590   -3.6220   26.0020 F   0  0  0  0  0  0  0  0  0  0  0  0
  -23.0830  -13.1460   21.3510 C   0  0  0  0  0  0  0  0  0  0  0  0
  -22.3330  -12.4660   22.2110 N   0  0  0  0  0  0  0  0  0  0  0  0
  -22.7170  -14.2370   20.9140 O   0  0  0  0  0  0  0  0  0  0  0  0
  -22.6350  -11.5800   22.5860 H   0  0  0  0  0  0  0  0  0  0  0  0
  -21.4370  -12.8350   22.4970 H   0  0  0  0  0  0  0  0  0  0  0  0
  -25.8040  -14.6220   20.4670 N   0  0  0  0  0  0  0  0  0  0  0  0
  -25.1050  -15.3280   20.6620 H   0  0  0  0  0  0  0  0  0  0  0  0
  -26.6430  -14.9990   20.0470 H   0  0  0  0  0  0  0  0  0  0  0  0
  1  4  1  0
  2  4  2  0
  3  6  2  0
  3  5  1  0
  4  7  1  0
  5  1  2  0
  6  2  1  0
  8  9  1  0
  8  6  1  0
 10  8  1  0
 11 10  1  0
 12 13  1  0
 12 11  1  0
 13 15  1  0
 14 25  2  0
 15 20  1  0
 16 26  1  0
 16 24  1  0
 17 23  1  0
 17 19  1  0
 18 24  1  0
 19 18  1  0
 20 19  2  0
 21 22  1  0
 21 15  2  0
 22 17  2  0
 23 16  1  0
 24 14  1  0
 26 28  2  0
 27 26  1  0
 29 27  1  0
 30 39  2  0
 30 35  1  0
 31 27  1  0
 31 35  1  0
 32 31  1  0
 33 34  1  0
 33 32  1  0
 34 30  1  0
 35 36  2  0
 36 37  1  0
 38 37  2  0
 39 38  1  0
 40 14  1  0
 40 50  1  0
 40 41  1  0
 41 44  1  0
 42 41  1  0
 42 46  1  0
 43 42  2  0
 46 45  1  0
 46 48  1  0
 48 49  1  0
 48 47  1  0
 50 53  1  1
 50 51  1  0
 52 50  1  0
 54 55  1  0
 54  5  1  0
 55 64  1  0
 56 62  1  0
 57 62  1  0
 58 59  1  0
 58 57  1  0
 60 59  1  0
 60 69  1  0
 60 61  1  0
 62 61  1  0
 63 56  2  0
 64 56  1  0
 64 65  1  0
 66 67  2  0
 67 86  1  0
 68 67  1  0
 68 71  1  0
 69 70  1  0
 69 66  1  0
 70 68  2  0
 71 72  1  0
 72 73  2  0
 74 77  1  0
 74 73  1  0
 75 74  2  0
 76 75  1  0
 76 71  2  0
 77 78  1  0
 78 83  2  0
 78 79  1  0
 79 80  2  0
 80 81  1  0
 81 85  1  0
 82 81  2  0
 83 82  1  0
 84 83  1  0
 86 87  1  0
 87 90  1  0
 87 89  1  0
 88 86  2  0
 91 66  1  0
 91 92  1  0
 93 91  1  0
M  ISO  4  12 101  13 101  56 100  64 100
M  END
>  <TORSDO>  (67) 
F 22

>  <SCORE>  (67) 
-8.684

>  <name>  (67) 
67

>  <ligand_id>  (67) 
67

>  <original_smiles>  (67) 
[H]c1c([H])c([H])c2c(c1[H])C([H])([H])C([H])([H])C([H])([H])C2([H])N([H])C(=O)C1([H])N(C(=O)C([H])(N([H])C(=O)C([H])(N([H])C([H])([H])[H])C([H])([H])[H])C(C([H])([H])[H])(C([H])([H])[H])C([H])([H])[H])C([H])([H])c2c([H])c(OC([H])([H])C([H])([H])C([H])([H])N([H])c3c([H])c(C([H])([H])[H])c([H])c(C([H])([H])C([H])([H])N([H])C(=O)N4C([H])([H])C([H])([H])C([H])([H])C([H])(n5nc(-c6c([H])c([H])c(Oc7c([H])c([H])c(F)c([H])c7F)c([H])c6[H])c(C(=O)N([H])[H])c5N([H])[H])C4([H])[H])c3[H])c([H])c([H])c2C1([H])[H]

>  <smiles>  (67) 
[H]c1c([H])c([H])c2c(c1[H])C([H])([H])C([H])([H])C([H])([H])C2([H])N([H])C(=O)C1([H])N(C(=O)C([H])(N([H])C(=O)C([H])(N([H])C([H])([H])[H])C([H])([H])[H])C(C([H])([H])[H])(C([H])([H])[H])C([H])([H])[H])C([H])([H])c2c([H])c(OC([H])([H])C([H])([H])C([H])([H])N([H])c3c([H])c(C([H])([H])[H])c([H])c(C([H])([H])C([H])([H])N([H])C(=O)N4C([H])([H])C([H])([H])C([H])([H])C([H])(n5nc(-c6c([H])c([H])c(Oc7c([H])c([H])c(F)c([H])c7F)c([H])c6[H])c(C(=O)N([H])[H])c5N([H])[H])C4([H])[H])c3[H])c([H])c([H])c2C1([H])[H]

$$$$
68:0:0
     RDKit          3D

 97106  0  0  1  0  0  0  0  0999 V2000
  -27.4230  -21.5310   18.8700 C   0  0  0  0  0  2  0  0  0  0  0  0
  -29.3950  -18.4380   17.8720 C   0  0  0  0  0  2  0  0  0  0  0  0
  -28.0700  -19.1440   18.2220 C   0  0  0  0  0  2  0  0  0  0  0  0
  -29.4100  -20.4070   20.1220 C   0  0  0  0  0  2  0  0  0  0  0  0
  -29.9240  -20.6450   18.7220 C   0  0  0  0  0  3  0  0  0  0  0  0
  -30.5070  -19.5160   17.9010 C   0  0  0  0  0  3  0  0  0  0  0  0
  -28.4560  -20.4180   18.9450 C   0  0  2  0  0  0  0  0  0  0  0  0
  -31.8570  -18.9910   18.4480 C   0  0  0  0  0  2  0  0  0  0  0  0
  -33.0870  -19.2830   17.5610 C   0  0  0  0  0  2  0  0  0  0  0  0
  -34.3540  -18.5170   18.0170 C   0  0  0  0  0  2  0  0  0  0  0  0
  -34.9020  -16.6670   16.2910 C   0  0  0  0  0  0  0  0  0  0  0  0
  -34.8670  -14.2130   16.5690 C   0  0  0  0  0  2  0  0  0  0  0  0
  -33.6440  -13.5560   15.8930 C   0  0  0  0  0  2  0  0  0  0  0  0
  -32.4430  -13.5150   16.8520 C   0  0  0  0  0  2  0  0  0  0  0  0
  -32.1830  -14.8950   17.4980 C   0  0  0  0  0  3  0  0  0  0  0  0
  -33.4830  -15.4790   18.0780 C   0  0  0  0  0  2  0  0  0  0  0  0
  -34.5190  -15.5770   17.0300 N   0  0  0  0  0  0  0  0  0  0  0  0
  -35.3750  -16.4980   15.1590 O   0  0  0  0  0  0  0  0  0  0  0  0
  -35.0780  -17.8930   16.8870 N   0  0  0  0  0  0  0  0  0  0  0  0
  -30.9980  -15.5770   19.6810 C   0  0  0  0  0  0  0  0  0  0  0  0
  -29.8290  -15.1530   20.2590 C   0  0  0  0  0  0  0  0  0  0  0  0
  -29.3050  -14.1430   19.3960 C   0  0  0  0  0  0  0  0  0  0  0  0
  -31.1430  -14.8260   18.5250 N   0  0  0  0  0  0  0  0  0  0  0  0
  -30.1400  -13.9210   18.3880 N   0  0  0  0  0  0  0  0  0  0  0  0
  -28.0330  -13.4110   19.4410 C   0  0  0  0  0  0  0  0  0  0  0  0
  -27.9520  -12.0990   19.9590 C   0  0  0  0  0  3  0  0  0  0  0  0
  -26.7130  -11.4240   20.0020 C   0  0  0  0  0  3  0  0  0  0  0  0
  -25.5410  -12.0590   19.5270 C   0  0  0  0  0  0  0  0  0  0  0  0
  -25.6330  -13.3540   18.9880 C   0  0  0  0  0  3  0  0  0  0  0  0
  -26.8680  -14.0230   18.9410 C   0  0  0  0  0  3  0  0  0  0  0  0
  -24.2990  -11.4690   19.5040 O   0  0  0  0  0  0  0  0  0  0  0  0
  -23.8240  -10.7520   20.5730 C   0  0  0  0  0  0  0  0  0  0  0  0
  -23.6350  -11.3430   21.8420 C   0  0  0  0  0  3  0  0  0  0  0  0
  -23.0790  -10.5890   22.8930 C   0  0  0  0  0  3  0  0  0  0  0  0
  -22.7030   -9.2480   22.6780 C   0  0  0  0  0  0  0  0  0  0  0  0
  -22.8830   -8.6620   21.4120 C   0  0  0  0  0  3  0  0  0  0  0  0
  -23.4400   -9.4140   20.3630 C   0  0  0  0  0  0  0  0  0  0  0  0
  -23.5920   -8.8480   19.1400 F   0  0  0  0  0  0  0  0  0  0  0  0
  -22.1590   -8.5260   23.6850 F   0  0  0  0  0  0  0  0  0  0  0  0
  -29.1810  -15.7210   21.4880 C   0  0  0  0  0  0  0  0  0  0  0  0
  -28.5410  -14.8790   22.2910 N   0  0  0  0  0  0  0  0  0  0  0  0
  -29.2740  -16.9170   21.7670 O   0  0  0  0  0  0  0  0  0  0  0  0
  -28.4840  -13.8950   22.0740 H   0  0  0  0  0  0  0  0  0  0  0  0
  -28.1080  -15.2210   23.1360 H   0  0  0  0  0  0  0  0  0  0  0  0
  -31.9330  -16.5450   20.0330 N   0  0  0  0  0  0  0  0  0  0  0  0
  -31.8140  -17.1380   20.8480 H   0  0  0  0  0  0  0  0  0  0  0  0
  -32.7460  -16.7820   19.4800 H   0  0  0  0  0  0  0  0  0  0  0  0
  -37.4430  -18.4840   16.3110 C   0  0  0  0  0  1  0  0  0  0  0  0
  -35.9610  -18.8800   16.2180 C   0  0  0  0  0  2  0  0  0  0  0  0
  -27.3790  -22.3710   20.1640 C   0  0  0  0  0  2  0  0  0  0  0  0
  -26.5970  -23.6680   19.9570 C   0  0  0  0  0  0  0  0  0  0  0  0
  -27.2000  -24.6460   19.2650 N   0  0  0  0  0  0  0  0  0  0  0  0
  -25.4560  -23.7750   20.4030 O   0  0  0  0  0  0  0  0  0  0  0  0
  -28.1360  -24.4850   18.9170 H   0  0  0  0  0  0  0  0  0  0  0  0
  -26.5470  -25.8920   18.8690 C   0  0  0  0  0  2  0  0  0  0  0  0
  -26.8820  -27.0550   19.8200 C   0  0  0  0  0  2  0  0  0  0  0  0
  -25.7660  -27.9410   19.9000 O   0  0  0  0  0  0  0  0  0  0  0  0
  -27.8940  -31.4390   25.6830 C   0  0  0  0  0  0  0  0  0  0  0  0
  -25.4700  -28.3080   21.1860 C   0  0  0  0  0  0  0  0  0  0  0  0
  -25.9490  -29.9410   25.9870 C   0  0  0  0  0  3  0  0  0  0  0  0
  -24.9000  -29.0380   23.8450 C   0  0  0  0  0  0  0  0  0  0  0  0
  -26.4240  -31.0230   23.7190 C   0  0  0  0  0  2  0  0  0  0  0  0
  -25.7860  -29.8090   23.0820 C   0  0  0  0  0  0  0  0  0  0  0  0
  -26.0730  -29.4500   21.7490 C   0  0  0  0  0  3  0  0  0  0  0  0
  -24.5810  -27.5340   21.9570 C   0  0  0  0  0  3  0  0  0  0  0  0
  -24.2940  -27.8960   23.2880 C   0  0  0  0  0  3  0  0  0  0  0  0
  -24.6490  -29.4970   25.2630 C   0  0  0  0  0  2  0  0  0  0  0  0
  -26.8170  -30.8140   25.1310 N   0  0  0  0  0  0  0  0  0  0  0  0
  -28.1430  -31.3350   26.8920 O   0  0  0  0  0  0  0  0  0  0  0  0
  -26.6720  -28.6810   26.5160 C   0  0  0  0  0  0  0  0  0  0  0  0
  -26.2890  -28.2390   27.7260 N   0  0  0  0  0  0  0  0  0  0  0  0
  -27.5280  -28.1110   25.8370 O   0  0  0  0  0  0  0  0  0  0  0  0
  -25.5780  -28.7620   28.2180 H   0  0  0  0  0  0  0  0  0  0  0  0
  -26.0350  -26.2930   30.7580 C   0  0  0  0  0  0  0  0  0  0  0  0
  -26.8030  -27.0530   28.4100 C   0  0  0  0  0  3  0  0  0  0  0  0
  -26.1200  -25.7700   27.8810 C   0  0  0  0  0  2  0  0  0  0  0  0
  -24.8940  -25.3590   28.7010 C   0  0  0  0  0  2  0  0  0  0  0  0
  -25.2780  -25.1170   30.1640 C   0  0  0  0  0  2  0  0  0  0  0  0
  -26.7370  -27.2100   29.9330 C   0  0  0  0  0  0  0  0  0  0  0  0
  -27.3910  -28.3070   30.5340 C   0  0  0  0  0  3  0  0  0  0  0  0
  -27.3580  -28.4890   31.9300 C   0  0  0  0  0  3  0  0  0  0  0  0
  -26.6780  -27.5660   32.7430 C   0  0  0  0  0  3  0  0  0  0  0  0
  -26.0190  -26.4710   32.1580 C   0  0  0  0  0  3  0  0  0  0  0  0
  -28.8500  -32.3290   24.8310 C   0  0  0  0  0  3  0  0  0  0  0  0
  -29.8190  -31.4940   23.9070 C   0  0  1  0  0  0  0  0  0  0  0  0
  -30.5460  -30.3460   24.6460 C   0  0  0  0  0  1  0  0  0  0  0  0
  -29.0400  -30.8750   22.7260 C   0  0  0  0  0  1  0  0  0  0  0  0
  -30.8850  -32.4270   23.2870 C   0  0  0  0  0  1  0  0  0  0  0  0
  -29.6140  -33.1710   25.7590 N   0  0  0  0  0  0  0  0  0  0  0  0
  -29.2880  -34.4300   26.0880 C   0  0  0  0  0  0  0  0  0  0  0  0
  -28.3390  -35.0310   25.5810 O   0  0  0  0  0  0  0  0  0  0  0  0
  -30.3750  -32.7280   26.2520 H   0  0  0  0  0  0  0  0  0  0  0  0
  -29.5040  -34.9630   28.5360 C   0  0  0  0  0  1  0  0  0  0  0  0
  -30.1540  -35.1310   27.1540 C   0  0  0  0  0  3  0  0  0  0  0  0
  -31.2570  -36.7990   25.7290 C   0  0  0  0  0  1  0  0  0  0  0  0
  -30.3820  -36.5660   26.8760 N   0  0  0  0  0  0  0  0  0  0  0  0
  -30.7870  -37.0310   27.6840 H   0  0  0  0  0  0  0  0  0  0  0  0
  1 50  1  0
  2  6  1  0
  2  3  1  0
  3  7  1  0
  5  7  1  0
  5  4  1  0
  6  8  1  0
  6  5  1  0
  7  1  1  1
  7  4  1  0
  9 10  1  0
  9  8  1  0
 11 19  1  0
 11 17  1  0
 12 17  1  0
 13 12  1  0
 13 14  1  0
 15 14  1  0
 15 16  1  0
 15 23  1  0
 17 16  1  0
 18 11  2  0
 19 10  1  0
 20 45  1  0
 20 21  2  0
 21 40  1  0
 22 25  1  0
 22 21  1  0
 23 20  1  0
 24 23  1  0
 24 22  2  0
 25 26  1  0
 26 27  2  0
 28 27  1  0
 29 28  2  0
 30 29  1  0
 30 25  2  0
 31 28  1  0
 31 32  1  0
 32 33  1  0
 33 34  2  0
 35 34  1  0
 35 39  1  0
 36 35  2  0
 37 32  2  0
 37 36  1  0
 38 37  1  0
 40 42  2  0
 40 41  1  0
 41 44  1  0
 43 41  1  0
 45 46  1  0
 47 45  1  0
 49 48  1  0
 49 19  1  0
 51 50  1  0
 51 53  2  0
 52 51  1  0
 54 52  1  0
 55 52  1  0
 55 56  1  0
 56 57  1  0
 57 59  1  0
 58 69  2  0
 59 64  2  0
 59 65  1  0
 60 70  1  0
 61 67  1  0
 62 68  1  0
 63 62  1  0
 63 61  2  0
 64 63  1  0
 65 66  2  0
 66 61  1  0
 67 60  1  0
 68 58  1  0
 68 60  1  0
 70 71  1  0
 71 73  1  0
 72 70  2  0
 74 83  1  0
 75 71  1  0
 75 79  1  0
 76 75  1  0
 76 77  1  0
 77 78  1  0
 78 74  1  0
 79 80  1  0
 79 74  2  0
 80 81  2  0
 81 82  1  0
 83 82  2  0
 84 58  1  0
 84 89  1  0
 85 86  1  1
 85 84  1  0
 87 85  1  0
 88 85  1  0
 89 90  1  0
 89 92  1  0
 90 94  1  0
 91 90  2  0
 94 93  1  0
 95 96  1  0
 96 94  1  0
 96 97  1  0
M  ISO  4  11 100  19 100  56 101  57 101
M  END
>  <TORSDO>  (68) 
F 25

>  <SCORE>  (68) 
-1.424

>  <name>  (68) 
68

>  <ligand_id>  (68) 
68

>  <original_smiles>  (68) 
[H]c1c([H])c([H])c2c(c1[H])C([H])([H])C([H])([H])C([H])([H])C2([H])N([H])C(=O)C1([H])N(C(=O)C([H])(N([H])C(=O)C([H])(N([H])C([H])([H])[H])C([H])([H])[H])C(C([H])([H])[H])(C([H])([H])[H])C([H])([H])[H])C([H])([H])c2c([H])c(OC([H])([H])C([H])([H])N([H])C(=O)C([H])([H])C([H])([H])C34C([H])([H])C([H])([H])C([H])(C([H])([H])C([H])([H])C([H])([H])N(C(=O)N5C([H])([H])C([H])([H])C([H])([H])C([H])(n6nc(-c7c([H])c([H])c(Oc8c([H])c([H])c(F)c([H])c8F)c([H])c7[H])c(C(=O)N([H])[H])c6N([H])[H])C5([H])[H])C([H])([H])C([H])([H])[H])C3([H])C4([H])[H])c([H])c([H])c2C1([H])[H]

>  <smiles>  (68) 
[H]c1c([H])c([H])c2c(c1[H])C([H])([H])C([H])([H])C([H])([H])C2([H])N([H])C(=O)C1([H])N(C(=O)C([H])(N([H])C(=O)C([H])(N([H])C([H])([H])[H])C([H])([H])[H])C(C([H])([H])[H])(C([H])([H])[H])C([H])([H])[H])C([H])([H])c2c([H])c(OC([H])([H])C([H])([H])N([H])C(=O)C([H])([H])C([H])([H])C34C([H])([H])C([H])([H])C([H])(C([H])([H])C([H])([H])C([H])([H])N(C(=O)N5C([H])([H])C([H])([H])C([H])([H])C([H])(n6nc(-c7c([H])c([H])c(Oc8c([H])c([H])c(F)c([H])c8F)c([H])c7[H])c(C(=O)N([H])[H])c6N([H])[H])C5([H])[H])C([H])([H])C([H])([H])[H])C3([H])C4([H])[H])c([H])c([H])c2C1([H])[H]

$$$$
69:0:0
     RDKit          3D

100109  0  0  1  0  0  0  0  0999 V2000
  -30.9250  -23.8600   16.9230 N   0  0  0  0  0  4  0  0  0  0  0  0
  -31.7070  -23.7690   17.5490 H   0  0  0  0  0  0  0  0  0  0  0  0
  -31.3180  -23.9140   15.9970 H   0  0  0  0  0  0  0  0  0  0  0  0
  -31.3060  -26.2640   16.9490 C   0  0  0  0  0  0  0  0  0  0  0  0
  -30.8390  -27.6900   17.2380 C   0  0  0  0  0  2  0  0  0  0  0  0
  -30.1120  -27.7830   18.5950 C   0  0  0  0  0  2  0  0  0  0  0  0
  -29.6280  -25.2950   18.5700 C   0  0  0  0  0  2  0  0  0  0  0  0
  -30.2550  -25.1590   17.1610 C   0  0  0  0  0  3  0  0  0  0  0  0
  -29.0280  -26.6990   18.7570 C   0  0  0  0  0  3  0  0  0  0  0  0
  -32.4630  -26.0540   16.5720 O   0  0  0  0  0  0  0  0  0  0  0  0
  -28.4610  -26.7970   20.0600 O   0  0  0  0  0  0  0  0  0  0  0  0
  -24.6320  -31.8850   23.2160 C   0  0  0  0  0  0  0  0  0  0  0  0
  -27.2800  -27.4920   20.1080 C   0  0  0  0  0  0  0  0  0  0  0  0
  -23.4180  -30.4790   21.5810 C   0  0  0  0  0  3  0  0  0  0  0  0
  -24.8670  -28.9460   20.1500 C   0  0  0  0  0  0  0  0  0  0  0  0
  -25.9350  -30.8570   21.3610 C   0  0  0  0  0  2  0  0  0  0  0  0
  -26.0230  -29.4850   20.7310 C   0  0  0  0  0  0  0  0  0  0  0  0
  -27.2310  -28.7570   20.7220 C   0  0  0  0  0  3  0  0  0  0  0  0
  -26.1090  -26.9470   19.5400 C   0  0  0  0  0  3  0  0  0  0  0  0
  -24.9000  -27.6700   19.5600 C   0  0  0  0  0  3  0  0  0  0  0  0
  -23.6200  -29.7980   20.2000 C   0  0  0  0  0  2  0  0  0  0  0  0
  -24.6800  -31.0870   22.1130 N   0  0  0  0  0  0  0  0  0  0  0  0
  -23.5540  -32.1520   23.7660 O   0  0  0  0  0  0  0  0  0  0  0  0
  -22.7780  -29.4560   22.5460 C   0  0  0  0  0  0  0  0  0  0  0  0
  -21.4530  -29.2720   22.4270 N   0  0  0  0  0  0  0  0  0  0  0  0
  -23.4700  -28.8300   23.3530 O   0  0  0  0  0  0  0  0  0  0  0  0
  -20.9560  -29.8290   21.7470 H   0  0  0  0  0  0  0  0  0  0  0  0
  -18.0850  -28.0770   22.9480 C   0  0  0  0  0  0  0  0  0  0  0  0
  -20.6450  -28.3330   23.2030 C   0  0  0  0  0  3  0  0  0  0  0  0
  -20.7440  -26.9020   22.6250 C   0  0  0  0  0  2  0  0  0  0  0  0
  -19.6350  -26.5810   21.6170 C   0  0  0  0  0  2  0  0  0  0  0  0
  -18.2580  -26.7270   22.2720 C   0  0  0  0  0  2  0  0  0  0  0  0
  -19.2070  -28.8360   23.3720 C   0  0  0  0  0  0  0  0  0  0  0  0
  -18.9950  -30.1000   23.9640 C   0  0  0  0  0  3  0  0  0  0  0  0
  -17.6910  -30.6030   24.1380 C   0  0  0  0  0  3  0  0  0  0  0  0
  -16.5840  -29.8410   23.7290 C   0  0  0  0  0  3  0  0  0  0  0  0
  -16.7820  -28.5790   23.1400 C   0  0  0  0  0  3  0  0  0  0  0  0
  -25.9220  -32.5180   23.8260 C   0  0  0  0  0  3  0  0  0  0  0  0
  -25.6120  -33.9130   24.1620 N   0  0  0  0  0  0  0  0  0  0  0  0
  -25.9370  -34.9670   23.4030 C   0  0  0  0  0  0  0  0  0  0  0  0
  -26.6010  -34.8680   22.3670 O   0  0  0  0  0  0  0  0  0  0  0  0
  -25.0200  -34.0630   24.9670 H   0  0  0  0  0  0  0  0  0  0  0  0
  -24.1970  -36.7500   23.0640 C   0  0  0  0  0  1  0  0  0  0  0  0
  -25.4460  -36.3530   23.8660 C   0  0  0  0  0  3  0  0  0  0  0  0
  -27.5870  -37.2390   24.6790 C   0  0  0  0  0  1  0  0  0  0  0  0
  -26.4730  -37.4110   23.7500 N   0  0  0  0  0  0  0  0  0  0  0  0
  -26.0640  -38.3270   23.9160 H   0  0  0  0  0  0  0  0  0  0  0  0
  -26.4590  -31.7410   25.0910 C   0  0  1  0  0  0  0  0  0  0  0  0
  -25.3810  -31.4940   26.1710 C   0  0  0  0  0  1  0  0  0  0  0  0
  -27.0420  -30.3690   24.6800 C   0  0  0  0  0  1  0  0  0  0  0  0
  -27.6150  -32.5370   25.7420 C   0  0  0  0  0  1  0  0  0  0  0  0
  -30.0690  -22.6590   16.9910 C   0  0  0  0  0  2  0  0  0  0  0  0
  -30.4610  -21.7760   18.1870 C   0  0  0  0  0  2  0  0  0  0  0  0
  -29.6160  -20.5940   18.3180 N   0  0  0  0  0  0  0  0  0  0  0  0
  -28.6830  -20.6100   17.9100 H   0  0  0  0  0  0  0  0  0  0  0  0
  -29.3140  -17.4680   20.2940 C   0  0  0  0  0  3  0  0  0  0  0  0
  -31.4780  -18.4690   20.7800 C   0  0  0  0  0  3  0  0  0  0  0  0
  -29.0170  -18.5340   19.4250 C   0  0  0  0  0  3  0  0  0  0  0  0
  -31.1770  -19.5380   19.9170 C   0  0  0  0  0  3  0  0  0  0  0  0
  -30.5570  -17.4190   20.9630 C   0  0  0  0  0  0  0  0  0  0  0  0
  -29.9470  -19.5730   19.2190 C   0  0  0  0  0  0  0  0  0  0  0  0
  -30.9290  -16.2510   21.8680 C   0  0  0  0  0  2  0  0  0  0  0  0
  -30.7670  -14.2430   20.4070 C   0  0  0  0  0  0  0  0  0  0  0  0
  -30.3180  -12.2300   19.0560 C   0  0  0  0  0  2  0  0  0  0  0  0
  -29.3490  -12.5370   17.8990 C   0  0  0  0  0  2  0  0  0  0  0  0
  -27.8850  -12.4220   18.3640 C   0  0  0  0  0  2  0  0  0  0  0  0
  -27.6150  -13.2090   19.6730 C   0  0  0  0  0  3  0  0  0  0  0  0
  -28.6800  -12.8720   20.7380 C   0  0  0  0  0  2  0  0  0  0  0  0
  -30.0140  -13.1430   20.1670 N   0  0  0  0  0  0  0  0  0  0  0  0
  -31.7710  -14.5420   19.7500 O   0  0  0  0  0  0  0  0  0  0  0  0
  -30.3530  -14.9830   21.4420 N   0  0  0  0  0  0  0  0  0  0  0  0
  -29.5490  -14.6480   21.9510 H   0  0  0  0  0  0  0  0  0  0  0  0
  -25.2350  -13.8660   20.4100 C   0  0  0  0  0  0  0  0  0  0  0  0
  -24.1600  -13.1140   20.8030 C   0  0  0  0  0  0  0  0  0  0  0  0
  -24.5960  -11.7550   20.7740 C   0  0  0  0  0  0  0  0  0  0  0  0
  -26.2620  -12.9650   20.1700 N   0  0  0  0  0  0  0  0  0  0  0  0
  -25.8790  -11.6910   20.4430 N   0  0  0  0  0  0  0  0  0  0  0  0
  -23.8520  -10.5060   20.9860 C   0  0  0  0  0  0  0  0  0  0  0  0
  -24.2940   -9.5320   21.9090 C   0  0  0  0  0  3  0  0  0  0  0  0
  -23.5520   -8.3480   22.1070 C   0  0  0  0  0  3  0  0  0  0  0  0
  -22.3570   -8.1300   21.3840 C   0  0  0  0  0  0  0  0  0  0  0  0
  -21.9350   -9.0910   20.4490 C   0  0  0  0  0  3  0  0  0  0  0  0
  -22.6760  -10.2680   20.2490 C   0  0  0  0  0  3  0  0  0  0  0  0
  -21.5850   -6.9970   21.4930 O   0  0  0  0  0  0  0  0  0  0  0  0
  -21.5660   -6.2470   22.6410 C   0  0  0  0  0  0  0  0  0  0  0  0
  -21.2070   -6.8030   23.8880 C   0  0  0  0  0  3  0  0  0  0  0  0
  -21.1330   -5.9800   25.0310 C   0  0  0  0  0  3  0  0  0  0  0  0
  -21.4080   -4.6030   24.9260 C   0  0  0  0  0  0  0  0  0  0  0  0
  -21.7600   -4.0470   23.6830 C   0  0  0  0  0  3  0  0  0  0  0  0
  -21.8360   -4.8670   22.5440 C   0  0  0  0  0  0  0  0  0  0  0  0
  -22.1560   -4.3230   21.3450 F   0  0  0  0  0  0  0  0  0  0  0  0
  -21.3290   -3.8120   26.0210 F   0  0  0  0  0  0  0  0  0  0  0  0
  -22.7750  -13.6170   21.1000 C   0  0  0  0  0  0  0  0  0  0  0  0
  -22.0530  -12.9400   21.9850 N   0  0  0  0  0  0  0  0  0  0  0  0
  -22.3450  -14.6450   20.5810 O   0  0  0  0  0  0  0  0  0  0  0  0
  -22.4140  -12.1060   22.4260 H   0  0  0  0  0  0  0  0  0  0  0  0
  -21.1250  -13.2600   22.2260 H   0  0  0  0  0  0  0  0  0  0  0  0
  -25.4190  -15.2310   20.2180 N   0  0  0  0  0  0  0  0  0  0  0  0
  -24.6670  -15.9020   20.3330 H   0  0  0  0  0  0  0  0  0  0  0  0
  -26.2710  -15.6490   19.8650 H   0  0  0  0  0  0  0  0  0  0  0  0
  1 52  1  0
  1  2  1  0
  3  1  1  0
  4  8  1  0
  4  5  1  0
  5  6  1  0
  6  9  1  0
  7  9  1  0
  8  1  1  0
  8  7  1  0
  9 11  1  0
 10  4  2  0
 11 13  1  0
 12 23  2  0
 13 18  1  0
 14 22  1  0
 14 24  1  0
 15 21  1  0
 15 17  1  0
 16 22  1  0
 17 16  1  0
 18 17  2  0
 19 20  1  0
 19 13  2  0
 20 15  2  0
 21 14  1  0
 22 12  1  0
 24 26  2  0
 25 24  1  0
 27 25  1  0
 28 37  2  0
 28 33  1  0
 29 25  1  0
 29 33  1  0
 30 29  1  0
 31 32  1  0
 31 30  1  0
 32 28  1  0
 33 34  2  0
 34 35  1  0
 36 35  2  0
 37 36  1  0
 38 12  1  0
 38 39  1  0
 38 48  1  0
 39 42  1  0
 40 44  1  0
 40 39  1  0
 41 40  2  0
 44 43  1  0
 46 44  1  0
 46 47  1  0
 46 45  1  0
 48 51  1  1
 48 49  1  0
 50 48  1  0
 52 53  1  0
 53 54  1  0
 54 61  1  0
 55 54  1  0
 56 60  1  0
 57 60  2  0
 58 56  2  0
 59 57  1  0
 60 62  1  0
 61 58  1  0
 61 59  2  0
 63 71  1  0
 64 69  1  0
 65 66  1  0
 65 64  1  0
 67 66  1  0
 67 76  1  0
 67 68  1  0
 69 63  1  0
 69 68  1  0
 70 63  2  0
 71 62  1  0
 71 72  1  0
 73 74  2  0
 74 93  1  0
 75 74  1  0
 75 78  1  0
 76 73  1  0
 76 77  1  0
 77 75  2  0
 78 79  1  0
 79 80  2  0
 81 84  1  0
 81 80  1  0
 82 81  2  0
 83 82  1  0
 83 78  2  0
 84 85  1  0
 85 86  1  0
 86 87  2  0
 88 87  1  0
 88 92  1  0
 89 88  2  0
 90 85  2  0
 90 89  1  0
 91 90  1  0
 93 94  1  0
 94 97  1  0
 94 96  1  0
 95 93  2  0
 98 99  1  0
 98 73  1  0
100 98  1  0
M  ISO  4   9 101  11 101  63 100  71 100
M  END
>  <TORSDO>  (69) 
F 22

>  <SCORE>  (69) 
-13.288

>  <name>  (69) 
69

>  <ligand_id>  (69) 
69

>  <original_smiles>  (69) 
[H]c1c([H])c([H])c2c(c1[H])C([H])([H])C([H])([H])C([H])([H])C2([H])N([H])C(=O)C1([H])N(C(=O)C([H])(N([H])C(=O)C([H])(N([H])C([H])([H])[H])C([H])([H])[H])C(C([H])([H])[H])(C([H])([H])[H])C([H])([H])[H])C([H])([H])c2c([H])c(OC3([H])C([H])([H])C([H])([H])C(=O)C([H])([N+]([H])([H])C([H])([H])C([H])([H])N([H])c4c([H])c([H])c(C([H])([H])N([H])C(=O)N5C([H])([H])C([H])([H])C([H])([H])C([H])(n6nc(-c7c([H])c([H])c(Oc8c([H])c([H])c(F)c([H])c8F)c([H])c7[H])c(C(=O)N([H])[H])c6N([H])[H])C5([H])[H])c([H])c4[H])C3([H])[H])c([H])c([H])c2C1([H])[H]

>  <smiles>  (69) 
[H]c1c([H])c([H])c2c(c1[H])C([H])([H])C([H])([H])C([H])([H])C2([H])N([H])C(=O)C1([H])N(C(=O)C([H])(N([H])C(=O)C([H])(N([H])C([H])([H])[H])C([H])([H])[H])C(C([H])([H])[H])(C([H])([H])[H])C([H])([H])[H])C([H])([H])c2c([H])c(OC3([H])C([H])([H])C([H])([H])C(=O)C([H])([N+]([H])([H])C([H])([H])C([H])([H])N([H])c4c([H])c([H])c(C([H])([H])N([H])C(=O)N5C([H])([H])C([H])([H])C([H])([H])C([H])(n6nc(-c7c([H])c([H])c(Oc8c([H])c([H])c(F)c([H])c8F)c([H])c7[H])c(C(=O)N([H])[H])c6N([H])[H])C5([H])[H])c([H])c4[H])C3([H])[H])c([H])c([H])c2C1([H])[H]

$$$$
70:0:0
     RDKit          3D

 97106  0  0  1  0  0  0  0  0999 V2000
  -31.3800  -24.5700   18.6260 C   0  0  0  0  0  3  0  0  0  0  0  0
  -30.5380  -25.6740   18.8490 C   0  0  0  0  0  3  0  0  0  0  0  0
  -31.6710  -24.3210   21.0320 C   0  0  0  0  0  3  0  0  0  0  0  0
  -31.9420  -23.8830   19.7170 C   0  0  0  0  0  0  0  0  0  0  0  0
  -30.2360  -26.1020   20.1600 C   0  0  0  0  0  0  0  0  0  0  0  0
  -30.8210  -25.4280   21.2630 C   0  0  0  0  0  0  0  0  0  0  0  0
  -30.5420  -25.8520   22.6960 C   0  0  0  0  0  1  0  0  0  0  0  0
  -32.8390  -22.6840   19.4640 C   0  0  0  0  0  2  0  0  0  0  0  0
  -32.0630  -21.3670   19.2690 C   0  0  0  0  0  2  0  0  0  0  0  0
  -31.3870  -20.8560   20.5580 C   0  0  0  0  0  2  0  0  0  0  0  0
  -31.0300  -17.2270   21.7620 C   0  0  0  0  0  2  0  0  0  0  0  0
  -29.5500  -17.5680   19.7370 C   0  0  0  0  0  2  0  0  0  0  0  0
  -31.1920  -18.7580   21.8490 C   0  0  0  0  0  2  0  0  0  0  0  0
  -29.7690  -19.0920   19.8770 C   0  0  0  0  0  2  0  0  0  0  0  0
  -29.6940  -16.8390   21.0930 C   0  0  0  0  0  3  0  0  0  0  0  0
  -31.0790  -19.4000   20.5120 N   0  0  1  0  0  4  0  0  0  0  0  0
  -31.7960  -18.9830   19.9390 H   0  0  0  0  0  0  0  0  0  0  0  0
  -30.1040  -14.5100   20.1580 C   0  0  0  0  0  0  0  0  0  0  0  0
  -29.8250  -12.3800   18.9530 C   0  0  0  0  0  2  0  0  0  0  0  0
  -28.7790  -12.5690   17.8360 C   0  0  0  0  0  2  0  0  0  0  0  0
  -27.3530  -12.3360   18.3770 C   0  0  0  0  0  2  0  0  0  0  0  0
  -27.0740  -13.1290   19.6830 C   0  0  0  0  0  3  0  0  0  0  0  0
  -28.2200  -12.9210   20.6980 C   0  0  0  0  0  2  0  0  0  0  0  0
  -29.4860  -13.3050   20.0470 N   0  0  0  0  0  0  0  0  0  0  0  0
  -31.0990  -14.8240   19.4980 O   0  0  0  0  0  0  0  0  0  0  0  0
  -29.4900  -15.3870   20.9720 N   0  0  0  0  0  0  0  0  0  0  0  0
  -28.7100  -15.0050   21.4890 H   0  0  0  0  0  0  0  0  0  0  0  0
  -24.7130  -13.5980   20.6020 C   0  0  0  0  0  0  0  0  0  0  0  0
  -23.7170  -12.7630   21.0340 C   0  0  0  0  0  0  0  0  0  0  0  0
  -24.2370  -11.4370   20.9150 C   0  0  0  0  0  0  0  0  0  0  0  0
  -25.7750  -12.7760   20.2550 N   0  0  0  0  0  0  0  0  0  0  0  0
  -25.4950  -11.4700   20.4990 N   0  0  0  0  0  0  0  0  0  0  0  0
  -23.5900  -10.1350   21.1210 C   0  0  0  0  0  0  0  0  0  0  0  0
  -24.1140   -9.1860   22.0270 C   0  0  0  0  0  3  0  0  0  0  0  0
  -23.4660   -7.9470   22.2210 C   0  0  0  0  0  3  0  0  0  0  0  0
  -22.2800   -7.6480   21.5110 C   0  0  0  0  0  0  0  0  0  0  0  0
  -21.7740   -8.5880   20.5950 C   0  0  0  0  0  3  0  0  0  0  0  0
  -22.4230   -9.8170   20.3980 C   0  0  0  0  0  3  0  0  0  0  0  0
  -21.5960   -6.4600   21.6170 O   0  0  0  0  0  0  0  0  0  0  0  0
  -21.6130   -5.7200   22.7720 C   0  0  0  0  0  0  0  0  0  0  0  0
  -21.1490   -6.2420   24.0000 C   0  0  0  0  0  3  0  0  0  0  0  0
  -21.1210   -5.4250   25.1470 C   0  0  0  0  0  3  0  0  0  0  0  0
  -21.5430   -4.0840   25.0680 C   0  0  0  0  0  0  0  0  0  0  0  0
  -21.9970   -3.5600   23.8460 C   0  0  0  0  0  3  0  0  0  0  0  0
  -22.0300   -4.3750   22.7000 C   0  0  0  0  0  0  0  0  0  0  0  0
  -22.4490   -3.8590   21.5200 F   0  0  0  0  0  0  0  0  0  0  0  0
  -21.5080   -3.2950   26.1670 F   0  0  0  0  0  0  0  0  0  0  0  0
  -22.3290  -13.1590   21.4450 C   0  0  0  0  0  0  0  0  0  0  0  0
  -21.7090  -12.3950   22.3380 N   0  0  0  0  0  0  0  0  0  0  0  0
  -21.8010  -14.1820   21.0080 O   0  0  0  0  0  0  0  0  0  0  0  0
  -22.1480  -11.5670   22.7130 H   0  0  0  0  0  0  0  0  0  0  0  0
  -20.7810  -12.6400   22.6510 H   0  0  0  0  0  0  0  0  0  0  0  0
  -24.8020  -14.9800   20.4580 N   0  0  0  0  0  0  0  0  0  0  0  0
  -24.0220  -15.6010   20.6390 H   0  0  0  0  0  0  0  0  0  0  0  0
  -25.6100  -15.4570   20.0780 H   0  0  0  0  0  0  0  0  0  0  0  0
  -29.2680  -27.2670   20.3190 C   0  0  0  0  0  2  0  0  0  0  0  0
  -28.1180  -27.0190   19.5260 O   0  0  0  0  0  0  0  0  0  0  0  0
  -24.3520  -31.9510   23.1000 C   0  0  0  0  0  0  0  0  0  0  0  0
  -26.9860  -27.7750   19.6960 C   0  0  0  0  0  0  0  0  0  0  0  0
  -23.1140  -30.6100   21.4260 C   0  0  0  0  0  3  0  0  0  0  0  0
  -24.5510  -29.1890   19.8750 C   0  0  0  0  0  0  0  0  0  0  0  0
  -25.6180  -31.0510   21.1570 C   0  0  0  0  0  2  0  0  0  0  0  0
  -25.7140  -29.7170   20.4510 C   0  0  0  0  0  0  0  0  0  0  0  0
  -26.9360  -29.0150   20.3730 C   0  0  0  0  0  3  0  0  0  0  0  0
  -25.8110  -27.2580   19.1170 C   0  0  0  0  0  3  0  0  0  0  0  0
  -24.5920  -27.9540   19.2060 C   0  0  0  0  0  3  0  0  0  0  0  0
  -23.2880  -30.0060   20.0070 C   0  0  0  0  0  2  0  0  0  0  0  0
  -24.3810  -31.2160   21.9530 N   0  0  0  0  0  0  0  0  0  0  0  0
  -23.2880  -32.1650   23.6950 O   0  0  0  0  0  0  0  0  0  0  0  0
  -22.5240  -29.5230   22.3520 C   0  0  0  0  0  0  0  0  0  0  0  0
  -21.1980  -29.3230   22.2740 N   0  0  0  0  0  0  0  0  0  0  0  0
  -23.2540  -28.8640   23.0970 O   0  0  0  0  0  0  0  0  0  0  0  0
  -20.6670  -29.9100   21.6460 H   0  0  0  0  0  0  0  0  0  0  0  0
  -17.8680  -28.0520   22.8440 C   0  0  0  0  0  0  0  0  0  0  0  0
  -20.4300  -28.3300   23.0220 C   0  0  0  0  0  3  0  0  0  0  0  0
  -20.5260  -26.9360   22.3600 C   0  0  0  0  0  2  0  0  0  0  0  0
  -19.3860  -26.6570   21.3740 C   0  0  0  0  0  2  0  0  0  0  0  0
  -18.0300  -26.7480   22.0820 C   0  0  0  0  0  2  0  0  0  0  0  0
  -18.9930  -28.8030   23.2700 C   0  0  0  0  0  0  0  0  0  0  0  0
  -18.7860  -30.0280   23.9410 C   0  0  0  0  0  3  0  0  0  0  0  0
  -17.4850  -30.5030   24.1890 C   0  0  0  0  0  3  0  0  0  0  0  0
  -16.3720  -29.7460   23.7810 C   0  0  0  0  0  3  0  0  0  0  0  0
  -16.5650  -28.5220   23.1140 C   0  0  0  0  0  3  0  0  0  0  0  0
  -25.6500  -32.5740   23.7050 C   0  0  0  0  0  3  0  0  0  0  0  0
  -25.3420  -33.9630   24.0730 N   0  0  0  0  0  0  0  0  0  0  0  0
  -25.7210  -35.0380   23.3680 C   0  0  0  0  0  0  0  0  0  0  0  0
  -26.4350  -34.9640   22.3650 O   0  0  0  0  0  0  0  0  0  0  0  0
  -24.7160  -34.0950   24.8540 H   0  0  0  0  0  0  0  0  0  0  0  0
  -24.0460  -36.8700   22.9760 C   0  0  0  0  0  1  0  0  0  0  0  0
  -25.2230  -36.4130   23.8520 C   0  0  0  0  0  3  0  0  0  0  0  0
  -27.3090  -37.2200   24.8620 C   0  0  0  0  0  1  0  0  0  0  0  0
  -26.2750  -37.4530   23.8570 N   0  0  0  0  0  0  0  0  0  0  0  0
  -25.8730  -38.3720   24.0240 H   0  0  0  0  0  0  0  0  0  0  0  0
  -26.2060  -31.7760   24.9470 C   0  0  1  0  0  0  0  0  0  0  0  0
  -25.1460  -31.5090   26.0410 C   0  0  0  0  0  1  0  0  0  0  0  0
  -26.7800  -30.4090   24.5040 C   0  0  0  0  0  1  0  0  0  0  0  0
  -27.3720  -32.5590   25.5950 C   0  0  0  0  0  1  0  0  0  0  0  0
  1  2  2  0
  1  4  1  0
  2  5  1  0
  3  6  1  0
  4  3  2  0
  5 56  1  0
  5  6  2  0
  6  7  1  0
  8  4  1  0
  9  8  1  0
  9 10  1  0
 11 13  1  0
 12 14  1  0
 12 15  1  0
 14 16  1  0
 15 26  1  0
 15 11  1  0
 16 10  1  0
 16 13  1  0
 16 17  1  6
 18 26  1  0
 19 24  1  0
 20 21  1  0
 20 19  1  0
 22 21  1  0
 22 31  1  0
 22 23  1  0
 24 18  1  0
 24 23  1  0
 25 18  2  0
 26 27  1  0
 28 29  2  0
 29 48  1  0
 30 29  1  0
 30 33  1  0
 31 32  1  0
 31 28  1  0
 32 30  2  0
 33 34  1  0
 34 35  2  0
 36 39  1  0
 36 35  1  0
 37 36  2  0
 38 37  1  0
 38 33  2  0
 39 40  1  0
 40 41  1  0
 41 42  2  0
 43 42  1  0
 43 47  1  0
 44 43  2  0
 45 40  2  0
 45 44  1  0
 46 45  1  0
 48 49  1  0
 49 52  1  0
 49 51  1  0
 50 48  2  0
 53 28  1  0
 53 54  1  0
 55 53  1  0
 57 59  1  0
 57 56  1  0
 58 69  2  0
 59 64  1  0
 60 68  1  0
 60 70  1  0
 61 67  1  0
 61 63  1  0
 62 68  1  0
 63 62  1  0
 64 63  2  0
 65 66  1  0
 65 59  2  0
 66 61  2  0
 67 60  1  0
 68 58  1  0
 70 72  2  0
 71 70  1  0
 73 71  1  0
 74 83  2  0
 74 79  1  0
 75 71  1  0
 75 79  1  0
 76 75  1  0
 77 78  1  0
 77 76  1  0
 78 74  1  0
 79 80  2  0
 80 81  1  0
 82 81  2  0
 83 82  1  0
 84 58  1  0
 84 85  1  0
 84 94  1  0
 85 88  1  0
 86 90  1  0
 86 85  1  0
 87 86  2  0
 90 89  1  0
 90 92  1  0
 92 93  1  0
 92 91  1  0
 94 97  1  1
 94 95  1  0
 96 94  1  0
M  ISO  4  18 100  26 100  56 101  57 101
M  END
>  <TORSDO>  (70) 
F 21

>  <SCORE>  (70) 
-12.192

>  <name>  (70) 
70

>  <ligand_id>  (70) 
70

>  <original_smiles>  (70) 
[H]c1c([H])c([H])c2c(c1[H])C([H])([H])C([H])([H])C([H])([H])C2([H])N([H])C(=O)C1([H])N(C(=O)C([H])(N([H])C(=O)C([H])(N([H])C([H])([H])[H])C([H])([H])[H])C(C([H])([H])[H])(C([H])([H])[H])C([H])([H])[H])C([H])([H])c2c([H])c(OC([H])([H])c3c([H])c([H])c(C([H])([H])C([H])([H])C([H])([H])[N+]4([H])C([H])([H])C([H])([H])C([H])(N([H])C(=O)N5C([H])([H])C([H])([H])C([H])([H])C([H])(n6nc(-c7c([H])c([H])c(Oc8c([H])c([H])c(F)c([H])c8F)c([H])c7[H])c(C(=O)N([H])[H])c6N([H])[H])C5([H])[H])C([H])([H])C4([H])[H])c([H])c3C([H])([H])[H])c([H])c([H])c2C1([H])[H]

>  <smiles>  (70) 
[H]c1c([H])c([H])c2c(c1[H])C([H])([H])C([H])([H])C([H])([H])C2([H])N([H])C(=O)C1([H])N(C(=O)C([H])(N([H])C(=O)C([H])(N([H])C([H])([H])[H])C([H])([H])[H])C(C([H])([H])[H])(C([H])([H])[H])C([H])([H])[H])C([H])([H])c2c([H])c(OC([H])([H])c3c([H])c([H])c(C([H])([H])C([H])([H])C([H])([H])[N+]4([H])C([H])([H])C([H])([H])C([H])(N([H])C(=O)N5C([H])([H])C([H])([H])C([H])([H])C([H])(n6nc(-c7c([H])c([H])c(Oc8c([H])c([H])c(F)c([H])c8F)c([H])c7[H])c(C(=O)N([H])[H])c6N([H])[H])C5([H])[H])C([H])([H])C4([H])[H])c([H])c3C([H])([H])[H])c([H])c([H])c2C1([H])[H]

$$$$
71:0:0
     RDKit          3D

100109  0  0  1  0  0  0  0  0999 V2000
  -24.2650  -22.5480   21.3110 N   0  0  0  0  0  0  0  0  0  0  0  0
  -25.2330  -22.6430   21.6100 H   0  0  0  0  0  0  0  0  0  0  0  0
  -22.2250  -19.7290   19.9980 C   0  0  0  0  0  3  0  0  0  0  0  0
  -22.9190  -18.6360   20.5470 C   0  0  0  0  0  3  0  0  0  0  0  0
  -22.6970  -21.0390   20.2010 C   0  0  0  0  0  3  0  0  0  0  0  0
  -24.5920  -20.1540   21.4650 C   0  0  0  0  0  3  0  0  0  0  0  0
  -24.1090  -18.8340   21.2790 C   0  0  0  0  0  0  0  0  0  0  0  0
  -23.8640  -21.2600   20.9630 C   0  0  0  0  0  0  0  0  0  0  0  0
  -24.7630  -17.6680   21.9590 C   0  0  0  0  0  0  0  0  0  0  0  0
  -25.1820  -16.6400   21.1930 N   0  0  0  0  0  0  0  0  0  0  0  0
  -24.8530  -17.6550   23.1880 O   0  0  0  0  0  0  0  0  0  0  0  0
  -24.9820  -16.6860   20.2020 H   0  0  0  0  0  0  0  0  0  0  0  0
  -25.5470  -15.3350   21.7780 C   0  0  0  0  0  2  0  0  0  0  0  0
  -26.5990  -14.4440   21.0240 C   0  0  0  0  0  2  0  0  0  0  0  0
  -26.5260  -14.2610   19.4520 C   0  0  2  0  0  0  0  0  0  0  0  0
  -28.4850  -14.4630   18.8500 C   0  0  0  0  0  2  0  0  0  0  0  0
  -30.6720  -13.1530   19.6700 C   0  0  0  0  0  3  0  0  0  0  0  0
  -30.4000  -11.5610   19.7810 C   0  0  0  0  0  3  0  0  0  0  0  0
  -28.9810  -11.0640   20.1930 C   0  0  0  0  0  2  0  0  0  0  0  0
  -28.2000  -12.1310   19.6560 C   0  0  0  0  0  3  0  0  0  0  0  0
  -28.7000  -13.3900   20.5670 C   0  0  0  0  0  2  0  0  0  0  0  0
  -29.4550  -14.0390   19.7130 N   0  0  0  0  0  0  0  0  0  0  0  0
  -29.1790  -14.6300   17.7800 O   0  0  0  0  0  1  0  0  0  0  0  0
  -25.4630  -13.3810   19.9830 C   0  0  0  0  0  3  0  0  0  0  0  0
  -24.3530  -12.6560   21.0630 C   0  0  0  0  0  3  0  0  0  0  0  0
  -24.9160  -11.0330   21.5450 C   0  0  0  0  0  3  0  0  0  0  0  0
  -26.8710  -12.0970   19.7070 N   0  0  0  0  0  2  0  0  0  0  0  0
  -26.4060  -10.6900   20.8170 N   0  0  0  0  0  2  0  0  0  0  0  0
  -24.1030   -9.7420   21.4380 C   0  0  0  0  0  0  0  0  0  0  0  0
  -24.1570   -8.8610   22.5270 C   0  0  0  0  0  3  0  0  0  0  0  0
  -23.4500   -7.6380   22.5530 C   0  0  0  0  0  3  0  0  0  0  0  0
  -22.6500   -7.2250   21.4680 C   0  0  0  0  0  0  0  0  0  0  0  0
  -22.6530   -8.0330   20.3070 C   0  0  0  0  0  3  0  0  0  0  0  0
  -23.3830   -9.2610   20.2840 C   0  0  0  0  0  3  0  0  0  0  0  0
  -21.9060   -6.0550   21.5020 O   0  0  0  0  0  0  0  0  0  0  0  0
  -21.4950   -5.4930   22.7020 C   0  0  0  0  0  0  0  0  0  0  0  0
  -20.7570   -6.2380   23.6500 C   0  0  0  0  0  3  0  0  0  0  0  0
  -20.3250   -5.6370   24.8530 C   0  0  0  0  0  3  0  0  0  0  0  0
  -20.6120   -4.2810   25.1090 C   0  0  0  0  0  0  0  0  0  0  0  0
  -21.3360   -3.5340   24.1660 C   0  0  0  0  0  3  0  0  0  0  0  0
  -21.7660   -4.1320   22.9670 C   0  0  0  0  0  0  0  0  0  0  0  0
  -22.4470   -3.3880   22.0590 F   0  0  0  0  0  0  0  0  0  0  0  0
  -20.1940   -3.7040   26.2580 F   0  0  0  0  0  0  0  0  0  0  0  0
  -22.8630  -12.7870   20.7340 C   0  0  0  0  0  0  0  0  0  0  0  0
  -21.9640  -12.3550   21.6220 N   0  0  0  0  0  0  0  0  0  0  0  0
  -22.4680  -13.2420   19.6630 O   0  0  0  0  0  0  0  0  0  0  0  0
  -22.2330  -11.9450   22.5000 H   0  0  0  0  0  0  0  0  0  0  0  0
  -20.9860  -12.4040   21.3880 H   0  0  0  0  0  0  0  0  0  0  0  0
  -25.5060  -14.6740   19.5620 N   0  0  0  0  0  0  0  0  0  0  0  0
  -24.7150  -15.3030   19.6440 H   0  0  0  0  0  0  0  0  0  0  0  0
  -26.2370  -15.0490   18.9690 H   0  0  0  0  0  0  0  0  0  0  0  0
  -23.6870  -23.7220   20.6530 C   0  0  0  0  0  2  0  0  0  0  0  0
  -24.6580  -25.1850   18.7140 C   0  0  0  0  0  2  0  0  0  0  0  0
  -25.2440  -25.7340   21.0970 C   0  0  0  0  0  2  0  0  0  0  0  0
  -26.0050  -25.7880   18.2550 C   0  0  0  0  0  2  0  0  0  0  0  0
  -26.5360  -26.4390   20.6310 C   0  0  0  0  0  2  0  0  0  0  0  0
  -24.8450  -24.5970   20.1260 C   0  0  0  0  0  3  0  0  0  0  0  0
  -26.4260  -26.9580   19.1830 C   0  0  0  0  0  3  0  0  0  0  0  0
  -27.7150  -27.7380   18.7300 C   0  0  0  0  0  2  0  0  0  0  0  0
  -27.7990  -29.1820   18.8070 O   0  0  0  0  0  0  0  0  0  0  0  0
  -25.8490  -30.3280   25.5850 C   0  0  0  0  0  0  0  0  0  0  0  0
  -26.9540  -29.7940   19.6980 C   0  0  0  0  0  0  0  0  0  0  0  0
  -24.2090  -30.9160   23.8360 C   0  0  0  0  0  3  0  0  0  0  0  0
  -25.0970  -30.9670   21.4570 C   0  0  0  0  0  0  0  0  0  0  0  0
  -26.7250  -30.9690   23.3470 C   0  0  0  0  0  2  0  0  0  0  0  0
  -26.3880  -30.6620   21.9070 C   0  0  0  0  0  0  0  0  0  0  0  0
  -27.3260  -30.0660   21.0330 C   0  0  0  0  0  3  0  0  0  0  0  0
  -25.6790  -30.1840   19.2480 C   0  0  0  0  0  3  0  0  0  0  0  0
  -24.7290  -30.7160   20.1280 C   0  0  0  0  0  3  0  0  0  0  0  0
  -24.1410  -31.5890   22.4460 C   0  0  0  0  0  2  0  0  0  0  0  0
  -25.6190  -30.7060   24.2950 N   0  0  0  0  0  0  0  0  0  0  0  0
  -24.9180  -30.2030   26.3890 O   0  0  0  0  0  0  0  0  0  0  0  0
  -23.3660  -29.6200   23.8040 C   0  0  0  0  0  0  0  0  0  0  0  0
  -22.0710  -29.7560   23.4750 N   0  0  0  0  0  0  0  0  0  0  0  0
  -23.8790  -28.5250   24.0450 O   0  0  0  0  0  0  0  0  0  0  0  0
  -21.7220  -30.6880   23.2960 H   0  0  0  0  0  0  0  0  0  0  0  0
  -18.6600  -29.0070   22.5480 C   0  0  0  0  0  0  0  0  0  0  0  0
  -21.0920  -28.6740   23.3600 C   0  0  0  0  0  3  0  0  0  0  0  0
  -21.3110  -27.8610   22.0630 C   0  0  0  0  0  2  0  0  0  0  0  0
  -20.4620  -28.3670   20.8920 C   0  0  0  0  0  2  0  0  0  0  0  0
  -18.9720  -28.3050   21.2380 C   0  0  0  0  0  2  0  0  0  0  0  0
  -19.6590  -29.1920   23.5390 C   0  0  0  0  0  0  0  0  0  0  0  0
  -19.3260  -29.8840   24.7250 C   0  0  0  0  0  3  0  0  0  0  0  0
  -18.0210  -30.3740   24.9310 C   0  0  0  0  0  3  0  0  0  0  0  0
  -17.0310  -30.1690   23.9550 C   0  0  0  0  0  3  0  0  0  0  0  0
  -17.3510  -29.4860   22.7690 C   0  0  0  0  0  3  0  0  0  0  0  0
  -27.2910  -30.0630   26.1130 C   0  0  0  0  0  3  0  0  0  0  0  0
  -27.6580  -31.1920   26.9790 N   0  0  0  0  0  0  0  0  0  0  0  0
  -28.4350  -32.2180   26.6060 C   0  0  0  0  0  0  0  0  0  0  0  0
  -28.9870  -32.2760   25.5030 O   0  0  0  0  0  0  0  0  0  0  0  0
  -27.2010  -31.2400   27.8770 H   0  0  0  0  0  0  0  0  0  0  0  0
  -27.7640  -34.5630   27.2160 C   0  0  0  0  0  1  0  0  0  0  0  0
  -28.6320  -33.3600   27.6230 C   0  0  0  0  0  3  0  0  0  0  0  0
  -30.8740  -32.8090   28.4570 C   0  0  0  0  0  1  0  0  0  0  0  0
  -30.0410  -33.7880   27.7640 N   0  0  0  0  0  0  0  0  0  0  0  0
  -30.1030  -34.6700   28.2650 H   0  0  0  0  0  0  0  0  0  0  0  0
  -27.4340  -28.6950   26.8850 C   0  0  1  0  0  0  0  0  0  0  0  0
  -26.3390  -28.4730   27.9540 C   0  0  0  0  0  1  0  0  0  0  0  0
  -27.3890  -27.4990   25.9040 C   0  0  0  0  0  1  0  0  0  0  0  0
  -28.8110  -28.6320   27.5860 C   0  0  0  0  0  1  0  0  0  0  0  0
  1  2  1  0
  3  5  2  0
  3  4  1  0
  4  7  2  0
  5  8  1  0
  7  6  1  0
  7  9  1  0
  8  1  1  0
  8  6  2  0
  9 11  2  0
 10 13  1  0
 10  9  1  0
 12 10  1  0
 14 13  1  0
 15 51  1  6
 15 49  1  0
 15 24  1  0
 15 14  1  0
 16 22  1  0
 17 22  1  0
 17 18  2  0
 18 19  1  0
 20 27  1  0
 20 19  1  0
 20 21  1  0
 22 21  1  0
 23 16  1  0
 24 25  1  0
 25 44  1  0
 25 26  1  0
 26 28  1  0
 27 28  1  0
 29 26  1  0
 29 30  1  0
 30 31  2  0
 32 35  1  0
 32 31  1  0
 33 32  2  0
 34 33  1  0
 34 29  2  0
 35 36  1  0
 36 41  2  0
 36 37  1  0
 37 38  2  0
 38 39  1  0
 39 43  1  0
 40 39  2  0
 41 40  1  0
 42 41  1  0
 44 45  1  0
 45 47  1  0
 46 44  2  0
 48 45  1  0
 49 50  1  0
 49 24  1  0
 52  1  1  0
 53 57  1  0
 55 53  1  0
 55 58  1  0
 56 54  1  0
 57 52  1  0
 57 54  1  0
 58 59  1  0
 58 56  1  0
 59 60  1  0
 60 62  1  0
 61 72  2  0
 62 67  1  0
 63 73  1  0
 63 71  1  0
 64 66  1  0
 64 70  1  0
 65 71  1  0
 66 65  1  0
 67 66  2  0
 68 62  2  0
 68 69  1  0
 69 64  2  0
 70 63  1  0
 71 61  1  0
 73 75  2  0
 74 73  1  0
 76 74  1  0
 77 86  2  0
 77 82  1  0
 78 74  1  0
 78 82  1  0
 79 78  1  0
 80 81  1  0
 80 79  1  0
 81 77  1  0
 82 83  2  0
 83 84  1  0
 85 84  2  0
 86 85  1  0
 87 61  1  0
 87 97  1  0
 87 88  1  0
 88 91  1  0
 89 88  1  0
 89 93  1  0
 90 89  2  0
 93 92  1  0
 93 95  1  0
 95 96  1  0
 95 94  1  0
 97100  1  1
 97 98  1  0
 99 97  1  0
M  ISO  4  15 100  16 100  59 101  60 101
M  END
>  <TORSDO>  (71) 
F 24

>  <SCORE>  (71) 
50.367

>  <name>  (71) 
71

>  <ligand_id>  (71) 
71

>  <original_smiles>  (71) 
[H]c1c([H])c(C(=O)N([H])C([H])([H])C([H])([H])C([H])([H])C(=O)N2C([H])([H])C([H])([H])C([H])([H])C([H])(n3nc(-c4c([H])c([H])c(Oc5c([H])c([H])c(F)c([H])c5F)c([H])c4[H])c(C(=O)N([H])[H])c3N([H])[H])C2([H])[H])c([H])c(N([H])C([H])([H])C2([H])C([H])([H])C([H])([H])C([H])(C([H])([H])Oc3c([H])c([H])c4c(c3[H])C([H])([H])N(C(=O)C([H])(N([H])C(=O)C([H])(N([H])C([H])([H])[H])C([H])([H])[H])C(C([H])([H])[H])(C([H])([H])[H])C([H])([H])[H])C([H])(C(=O)N([H])C3([H])c5c([H])c([H])c([H])c([H])c5C([H])([H])C([H])([H])C3([H])[H])C4([H])[H])C([H])([H])C2([H])[H])c1[H]

>  <smiles>  (71) 
[H]c1c([H])c(C(=O)N([H])C([H])([H])C([H])([H])C([H])([H])C(=O)N2C([H])([H])C([H])([H])C([H])([H])C([H])(n3nc(-c4c([H])c([H])c(Oc5c([H])c([H])c(F)c([H])c5F)c([H])c4[H])c(C(=O)N([H])[H])c3N([H])[H])C2([H])[H])c([H])c(N([H])C([H])([H])C2([H])C([H])([H])C([H])([H])C([H])(C([H])([H])Oc3c([H])c([H])c4c(c3[H])C([H])([H])N(C(=O)C([H])(N([H])C(=O)C([H])(N([H])C([H])([H])[H])C([H])([H])[H])C(C([H])([H])[H])(C([H])([H])[H])C([H])([H])[H])C([H])(C(=O)N([H])C3([H])c5c([H])c([H])c([H])c([H])c5C([H])([H])C([H])([H])C3([H])[H])C4([H])[H])C([H])([H])C2([H])[H])c1[H]

$$$$
72:0:0
     RDKit          3D

 99107  0  0  1  0  0  0  0  0999 V2000
  -27.0280  -21.8930   20.6190 C   0  0  0  0  0  0  0  0  0  0  0  0
  -26.3290  -21.7300   19.4890 N   0  0  0  0  0  0  0  0  0  0  0  0
  -27.8580  -21.0640   21.0080 O   0  0  0  0  0  0  0  0  0  0  0  0
  -25.6890  -22.4690   19.2180 H   0  0  0  0  0  0  0  0  0  0  0  0
  -26.7070  -23.1350   21.4560 C   0  0  0  0  0  2  0  0  0  0  0  0
  -29.7080  -25.4120   22.2040 C   0  0  0  0  0  3  0  0  0  0  0  0
  -28.7970  -24.3380   22.2840 C   0  0  0  0  0  3  0  0  0  0  0  0
  -29.5690  -26.3910   21.2000 C   0  0  0  0  0  3  0  0  0  0  0  0
  -27.6460  -25.1910   20.3160 C   0  0  0  0  0  3  0  0  0  0  0  0
  -27.7600  -24.2270   21.3380 C   0  0  0  0  0  0  0  0  0  0  0  0
  -28.5230  -26.3020   20.2560 C   0  0  0  0  0  0  0  0  0  0  0  0
  -28.3510  -27.3100   19.3310 O   0  0  0  0  0  0  0  0  0  0  0  0
  -24.5960  -31.9660   23.1820 C   0  0  0  0  0  0  0  0  0  0  0  0
  -27.1870  -28.0300   19.4590 C   0  0  0  0  0  0  0  0  0  0  0  0
  -23.3320  -30.6840   21.4880 C   0  0  0  0  0  3  0  0  0  0  0  0
  -24.7430  -29.3940   19.7980 C   0  0  0  0  0  0  0  0  0  0  0  0
  -25.8180  -31.1920   21.1610 C   0  0  0  0  0  2  0  0  0  0  0  0
  -25.9160  -29.9050   20.3690 C   0  0  0  0  0  0  0  0  0  0  0  0
  -27.1440  -29.2270   20.2050 C   0  0  0  0  0  3  0  0  0  0  0  0
  -26.0080  -27.5550   18.8490 C   0  0  0  0  0  3  0  0  0  0  0  0
  -24.7830  -28.2140   19.0340 C   0  0  0  0  0  3  0  0  0  0  0  0
  -23.4660  -30.1690   20.0290 C   0  0  0  0  0  2  0  0  0  0  0  0
  -24.6030  -31.2890   22.0010 N   0  0  0  0  0  0  0  0  0  0  0  0
  -23.5480  -32.1250   23.8220 O   0  0  0  0  0  0  0  0  0  0  0  0
  -22.8050  -29.5330   22.3740 C   0  0  0  0  0  0  0  0  0  0  0  0
  -21.4940  -29.2560   22.2700 N   0  0  0  0  0  0  0  0  0  0  0  0
  -23.5660  -28.8970   23.1080 O   0  0  0  0  0  0  0  0  0  0  0  0
  -20.9380  -29.8230   21.6480 H   0  0  0  0  0  0  0  0  0  0  0  0
  -18.2550  -27.7270   22.7260 C   0  0  0  0  0  0  0  0  0  0  0  0
  -20.7820  -28.1960   22.9810 C   0  0  0  0  0  3  0  0  0  0  0  0
  -21.0030  -26.8240   22.3020 C   0  0  0  0  0  2  0  0  0  0  0  0
  -19.9140  -26.4760   21.2820 C   0  0  0  0  0  2  0  0  0  0  0  0
  -18.5380  -26.4500   21.9530 C   0  0  0  0  0  2  0  0  0  0  0  0
  -19.3080  -28.5540   23.1960 C   0  0  0  0  0  0  0  0  0  0  0  0
  -18.9900  -29.7480   23.8790 C   0  0  0  0  0  3  0  0  0  0  0  0
  -17.6500  -30.1170   24.0960 C   0  0  0  0  0  3  0  0  0  0  0  0
  -16.6100  -29.2860   23.6440 C   0  0  0  0  0  3  0  0  0  0  0  0
  -16.9140  -28.0920   22.9650 C   0  0  0  0  0  3  0  0  0  0  0  0
  -25.8980  -32.5950   23.7710 C   0  0  0  0  0  3  0  0  0  0  0  0
  -26.4790  -31.7870   24.9950 C   0  0  1  0  0  0  0  0  0  0  0  0
  -25.4260  -31.4750   26.0860 C   0  0  0  0  0  1  0  0  0  0  0  0
  -27.0840  -30.4420   24.5280 C   0  0  0  0  0  1  0  0  0  0  0  0
  -27.6300  -32.5860   25.6530 C   0  0  0  0  0  1  0  0  0  0  0  0
  -25.5840  -33.9750   24.1590 N   0  0  0  0  0  0  0  0  0  0  0  0
  -25.8830  -35.0570   23.4270 C   0  0  0  0  0  0  0  0  0  0  0  0
  -26.5240  -34.9960   22.3740 O   0  0  0  0  0  0  0  0  0  0  0  0
  -25.0130  -34.0940   24.9810 H   0  0  0  0  0  0  0  0  0  0  0  0
  -24.1240  -36.8360   23.1800 C   0  0  0  0  0  1  0  0  0  0  0  0
  -25.3910  -36.4210   23.9460 C   0  0  0  0  0  3  0  0  0  0  0  0
  -27.5320  -37.3050   24.7570 C   0  0  0  0  0  1  0  0  0  0  0  0
  -26.4070  -37.4910   23.8460 N   0  0  0  0  0  0  0  0  0  0  0  0
  -25.9930  -38.4000   24.0340 H   0  0  0  0  0  0  0  0  0  0  0  0
  -26.2790  -20.4980   18.7120 C   0  0  0  0  0  2  0  0  0  0  0  0
  -27.5190  -20.3290   17.8180 C   0  0  0  0  0  2  0  0  0  0  0  0
  -27.6120  -18.9130   17.2210 C   0  0  0  0  0  2  0  0  0  0  0  0
  -28.8230  -18.1260   17.7330 C   0  0  0  0  0  2  0  0  0  0  0  0
  -28.6920  -17.7510   19.1550 N   0  0  0  0  0  4  0  0  0  0  0  0
  -27.9380  -17.0790   19.2380 H   0  0  0  0  0  0  0  0  0  0  0  0
  -28.4560  -18.5600   19.7090 H   0  0  0  0  0  0  0  0  0  0  0  0
  -29.9310  -17.1620   19.6920 C   0  0  0  0  0  2  0  0  0  0  0  0
  -29.7310  -16.5500   21.0980 C   0  0  0  0  0  2  0  0  0  0  0  0
  -31.3830  -14.7470   20.7460 C   0  0  0  0  0  0  0  0  0  0  0  0
  -31.0820  -12.5550   19.6480 C   0  0  0  0  0  2  0  0  0  0  0  0
  -30.2370  -12.6780   18.3680 C   0  0  0  0  0  2  0  0  0  0  0  0
  -28.7360  -12.5640   18.7040 C   0  0  0  0  0  2  0  0  0  0  0  0
  -28.3220  -13.5130   19.8590 C   0  0  0  0  0  3  0  0  0  0  0  0
  -29.2820  -13.3570   21.0610 C   0  0  0  0  0  2  0  0  0  0  0  0
  -30.6560  -13.6070   20.5800 N   0  0  0  0  0  0  0  0  0  0  0  0
  -32.4900  -14.9320   20.2390 O   0  0  0  0  0  0  0  0  0  0  0  0
  -30.8540  -15.7020   21.5240 N   0  0  0  0  0  0  0  0  0  0  0  0
  -31.5700  -16.2430   21.9850 H   0  0  0  0  0  0  0  0  0  0  0  0
  -25.9150  -14.2320   20.4090 C   0  0  0  0  0  0  0  0  0  0  0  0
  -24.7960  -13.5050   20.7200 C   0  0  0  0  0  0  0  0  0  0  0  0
  -25.1990  -12.1330   20.7280 C   0  0  0  0  0  0  0  0  0  0  0  0
  -26.9310  -13.3040   20.2510 N   0  0  0  0  0  0  0  0  0  0  0  0
  -26.5030  -12.0420   20.4970 N   0  0  0  0  0  0  0  0  0  0  0  0
  -24.4170  -10.8980   20.8810 C   0  0  0  0  0  0  0  0  0  0  0  0
  -24.7440   -9.9320   21.8570 C   0  0  0  0  0  3  0  0  0  0  0  0
  -23.9700   -8.7600   21.9920 C   0  0  0  0  0  3  0  0  0  0  0  0
  -22.8540   -8.5430   21.1510 C   0  0  0  0  0  0  0  0  0  0  0  0
  -22.5450   -9.4960   20.1650 C   0  0  0  0  0  3  0  0  0  0  0  0
  -23.3210  -10.6610   20.0250 C   0  0  0  0  0  3  0  0  0  0  0  0
  -22.0600   -7.4230   21.1960 O   0  0  0  0  0  0  0  0  0  0  0  0
  -21.8450   -6.7400   22.3670 C   0  0  0  0  0  0  0  0  0  0  0  0
  -21.2810   -7.3650   23.4990 C   0  0  0  0  0  3  0  0  0  0  0  0
  -21.0090   -6.6120   24.6580 C   0  0  0  0  0  3  0  0  0  0  0  0
  -21.2920   -5.2330   24.6860 C   0  0  0  0  0  0  0  0  0  0  0  0
  -21.8520   -4.6070   23.5590 C   0  0  0  0  0  3  0  0  0  0  0  0
  -22.1240   -5.3570   22.4010 C   0  0  0  0  0  0  0  0  0  0  0  0
  -22.6420   -4.7460   21.3070 F   0  0  0  0  0  0  0  0  0  0  0  0
  -21.0180   -4.5040   25.7950 F   0  0  0  0  0  0  0  0  0  0  0  0
  -23.4040  -14.0340   20.9080 C   0  0  0  0  0  0  0  0  0  0  0  0
  -22.6010  -13.3800   21.7380 N   0  0  0  0  0  0  0  0  0  0  0  0
  -23.0350  -15.0640   20.3430 O   0  0  0  0  0  0  0  0  0  0  0  0
  -22.9120  -12.5450   22.2110 H   0  0  0  0  0  0  0  0  0  0  0  0
  -21.6560  -13.7100   21.8840 H   0  0  0  0  0  0  0  0  0  0  0  0
  -26.1620  -15.5960   20.2360 N   0  0  0  0  0  0  0  0  0  0  0  0
  -25.3070  -15.9730   19.8390 H   0  0  0  0  0  0  0  0  0  0  0  0
  -26.1570  -15.9890   21.1700 H   0  0  0  0  0  0  0  0  0  0  0  0
  1  3  2  0
  1  5  1  0
  2  1  1  0
  4  2  1  0
  6  7  1  0
  8  6  2  0
  9 10  1  0
 10  5  1  0
 10  7  2  0
 11  9  2  0
 11  8  1  0
 12 14  1  0
 12 11  1  0
 13 24  2  0
 14 19  1  0
 15 23  1  0
 15 25  1  0
 16 22  1  0
 16 18  1  0
 17 23  1  0
 18 17  1  0
 19 18  2  0
 20 21  1  0
 20 14  2  0
 21 16  2  0
 22 15  1  0
 23 13  1  0
 25 27  2  0
 26 25  1  0
 28 26  1  0
 29 38  2  0
 29 34  1  0
 30 26  1  0
 30 34  1  0
 31 30  1  0
 32 33  1  0
 32 31  1  0
 33 29  1  0
 34 35  2  0
 35 36  1  0
 37 36  2  0
 38 37  1  0
 39 13  1  0
 39 44  1  0
 39 40  1  0
 40 43  1  1
 40 41  1  0
 42 40  1  0
 44 47  1  0
 45 49  1  0
 45 44  1  0
 46 45  2  0
 49 48  1  0
 51 49  1  0
 51 52  1  0
 51 50  1  0
 53  2  1  0
 54 53  1  0
 55 56  1  0
 55 54  1  0
 56 57  1  0
 57 58  1  0
 57 60  1  0
 57 59  1  0
 60 61  1  0
 61 70  1  0
 62 70  1  0
 63 68  1  0
 64 65  1  0
 64 63  1  0
 66 65  1  0
 66 75  1  0
 66 67  1  0
 68 62  1  0
 68 67  1  0
 69 62  2  0
 70 71  1  0
 72 73  2  0
 73 74  1  0
 73 92  1  0
 74 77  1  0
 75 72  1  0
 75 76  1  0
 76 74  2  0
 77 78  1  0
 78 79  2  0
 80 83  1  0
 80 79  1  0
 81 80  2  0
 82 81  1  0
 82 77  2  0
 83 84  1  0
 84 89  2  0
 84 85  1  0
 85 86  2  0
 86 87  1  0
 87 91  1  0
 88 87  2  0
 89 88  1  0
 90 89  1  0
 92 93  1  0
 93 96  1  0
 93 95  1  0
 94 92  2  0
 97 72  1  0
 97 99  1  0
 98 97  1  0
M  ISO  4  11 101  12 101  62 100  70 100
M  END
>  <TORSDO>  (72) 
F 25

>  <SCORE>  (72) 
-10.761

>  <name>  (72) 
72

>  <ligand_id>  (72) 
72

>  <original_smiles>  (72) 
[H]c1c([H])c(Oc2c([H])c([H])c3c(c2[H])C([H])([H])N(C(=O)C([H])(N([H])C(=O)C([H])(N([H])C([H])([H])[H])C([H])([H])[H])C(C([H])([H])[H])(C([H])([H])[H])C([H])([H])[H])C([H])(C(=O)N([H])C2([H])c4c([H])c([H])c([H])c([H])c4C([H])([H])C([H])([H])C2([H])[H])C3([H])[H])c([H])c(C([H])([H])C(=O)N([H])C([H])([H])C([H])([H])C([H])([H])C([H])([H])[N+]([H])([H])C([H])([H])C([H])([H])N([H])C(=O)N2C([H])([H])C([H])([H])C([H])([H])C([H])(n3nc(-c4c([H])c([H])c(Oc5c([H])c([H])c(F)c([H])c5F)c([H])c4[H])c(C(=O)N([H])[H])c3N([H])[H])C2([H])[H])c1[H]

>  <smiles>  (72) 
[H]c1c([H])c(Oc2c([H])c([H])c3c(c2[H])C([H])([H])N(C(=O)C([H])(N([H])C(=O)C([H])(N([H])C([H])([H])[H])C([H])([H])[H])C(C([H])([H])[H])(C([H])([H])[H])C([H])([H])[H])C([H])(C(=O)N([H])C2([H])c4c([H])c([H])c([H])c([H])c4C([H])([H])C([H])([H])C2([H])[H])C3([H])[H])c([H])c(C([H])([H])C(=O)N([H])C([H])([H])C([H])([H])C([H])([H])C([H])([H])[N+]([H])([H])C([H])([H])C([H])([H])N([H])C(=O)N2C([H])([H])C([H])([H])C([H])([H])C([H])(n3nc(-c4c([H])c([H])c(Oc5c([H])c([H])c(F)c([H])c5F)c([H])c4[H])c(C(=O)N([H])[H])c3N([H])[H])C2([H])[H])c1[H]

$$$$
73:0:0
     RDKit          3D

 95103  0  0  1  0  0  0  0  0999 V2000
  -30.4340  -21.4410   14.7750 C   0  0  0  0  0  2  0  0  0  0  0  0
  -33.3030  -20.4620   12.4320 C   0  0  0  0  0  3  0  0  0  0  0  0
  -32.6630  -19.5600   11.5570 C   0  0  0  0  0  3  0  0  0  0  0  0
  -32.5770  -21.0850   13.4640 C   0  0  0  0  0  3  0  0  0  0  0  0
  -30.5570  -19.9240   12.7340 C   0  0  0  0  0  3  0  0  0  0  0  0
  -31.2900  -19.2870   11.7060 C   0  0  0  0  0  0  0  0  0  0  0  0
  -31.2000  -20.8160   13.6220 C   0  0  0  0  0  0  0  0  0  0  0  0
  -30.6010  -18.2770   10.8030 C   0  0  0  0  0  2  0  0  0  0  0  0
  -29.6740  -18.9630    9.7810 C   0  0  0  0  0  2  0  0  0  0  0  0
  -28.4190  -18.1320    9.4310 C   0  0  0  0  0  2  0  0  0  0  0  0
  -26.2680  -18.8780    8.5010 C   0  0  0  0  0  0  0  0  0  0  0  0
  -24.6670  -20.6890    8.0470 C   0  0  0  0  0  2  0  0  0  0  0  0
  -25.2160  -21.5400    6.8810 C   0  0  0  0  0  2  0  0  0  0  0  0
  -26.1740  -22.6320    7.3950 C   0  0  0  0  0  2  0  0  0  0  0  0
  -27.2350  -22.0860    8.3890 C   0  0  0  0  0  3  0  0  0  0  0  0
  -26.5860  -21.1800    9.4610 C   0  0  0  0  0  2  0  0  0  0  0  0
  -25.8200  -20.1330    8.7660 N   0  0  0  0  0  0  0  0  0  0  0  0
  -25.5480  -17.9930    8.0220 O   0  0  0  0  0  0  0  0  0  0  0  0
  -28.1660  -18.6030    7.0340 C   0  0  0  0  0  1  0  0  0  0  0  0
  -27.6130  -18.7850    8.3890 N   0  0  0  0  0  0  0  0  0  0  0  0
  -27.5810  -24.3330    9.5940 C   0  0  0  0  0  0  0  0  0  0  0  0
  -28.7060  -24.9580   10.0570 C   0  0  0  0  0  0  0  0  0  0  0  0
  -29.8010  -24.1090    9.7080 C   0  0  0  0  0  0  0  0  0  0  0  0
  -28.0160  -23.1630    8.9890 N   0  0  0  0  0  0  0  0  0  0  0  0
  -29.3680  -23.0600    9.0170 N   0  0  0  0  0  0  0  0  0  0  0  0
  -31.2280  -24.2020   10.0400 C   0  0  0  0  0  0  0  0  0  0  0  0
  -32.1940  -24.5040    9.0560 C   0  0  0  0  0  3  0  0  0  0  0  0
  -33.5600  -24.6050    9.4000 C   0  0  0  0  0  3  0  0  0  0  0  0
  -33.9700  -24.4090   10.7390 C   0  0  0  0  0  0  0  0  0  0  0  0
  -33.0070  -24.0860   11.7120 C   0  0  0  0  0  3  0  0  0  0  0  0
  -31.6490  -23.9800   11.3660 C   0  0  0  0  0  3  0  0  0  0  0  0
  -35.2770  -24.4580   11.1620 O   0  0  0  0  0  0  0  0  0  0  0  0
  -36.0190  -25.6080   11.0670 C   0  0  0  0  0  0  0  0  0  0  0  0
  -35.7000  -26.7660   11.8100 C   0  0  0  0  0  3  0  0  0  0  0  0
  -36.5330  -27.9000   11.7360 C   0  0  0  0  0  3  0  0  0  0  0  0
  -37.6850  -27.8790   10.9280 C   0  0  0  0  0  0  0  0  0  0  0  0
  -38.0060  -26.7250   10.1900 C   0  0  0  0  0  3  0  0  0  0  0  0
  -37.1780  -25.5920   10.2630 C   0  0  0  0  0  0  0  0  0  0  0  0
  -37.5030  -24.4750    9.5680 F   0  0  0  0  0  0  0  0  0  0  0  0
  -38.4880  -28.9660   10.8610 F   0  0  0  0  0  0  0  0  0  0  0  0
  -28.7620  -26.2240   10.8640 C   0  0  0  0  0  0  0  0  0  0  0  0
  -29.5780  -27.1840   10.4450 N   0  0  0  0  0  0  0  0  0  0  0  0
  -28.0400  -26.3870   11.8470 O   0  0  0  0  0  0  0  0  0  0  0  0
  -30.1500  -27.0610    9.6230 H   0  0  0  0  0  0  0  0  0  0  0  0
  -29.6260  -28.0580   10.9510 H   0  0  0  0  0  0  0  0  0  0  0  0
  -26.2270  -24.6490    9.6480 N   0  0  0  0  0  0  0  0  0  0  0  0
  -25.8820  -25.4760   10.1230 H   0  0  0  0  0  0  0  0  0  0  0  0
  -25.4900  -24.0750    9.2600 H   0  0  0  0  0  0  0  0  0  0  0  0
  -30.1750  -20.4800   15.8660 N   0  0  0  0  0  4  0  0  0  0  0  0
  -31.0450  -20.1870   16.2740 H   0  0  0  0  0  0  0  0  0  0  0  0
  -29.7620  -19.6660   15.4450 H   0  0  0  0  0  0  0  0  0  0  0  0
  -29.2570  -20.9690   16.9220 C   0  0  0  0  0  2  0  0  0  0  0  0
  -29.9940  -21.4440   18.1960 C   0  0  0  0  0  2  0  0  0  0  0  0
  -30.9890  -20.4430   18.8190 C   0  0  0  0  0  2  0  0  0  0  0  0
  -31.6520  -20.9280   19.9920 O   0  0  0  0  0  0  0  0  0  0  0  0
  -38.5690  -20.9350   21.5970 C   0  0  0  0  0  0  0  0  0  0  0  0
  -32.8390  -21.6300   19.8910 C   0  0  0  0  0  0  0  0  0  0  0  0
  -37.6800  -23.0590   20.7050 C   0  0  0  0  0  3  0  0  0  0  0  0
  -35.3390  -22.9500   19.7070 C   0  0  0  0  0  0  0  0  0  0  0  0
  -36.6030  -20.8250   20.0710 C   0  0  0  0  0  2  0  0  0  0  0  0
  -35.2910  -21.5670   19.9230 C   0  0  0  0  0  0  0  0  0  0  0  0
  -34.0460  -20.9040   20.0090 C   0  0  0  0  0  3  0  0  0  0  0  0
  -32.9090  -23.0280   19.6770 C   0  0  0  0  0  3  0  0  0  0  0  0
  -34.1490  -23.6850   19.5850 C   0  0  0  0  0  3  0  0  0  0  0  0
  -36.7070  -23.5890   19.6190 C   0  0  0  0  0  2  0  0  0  0  0  0
  -37.6310  -21.5680   20.8370 N   0  0  0  0  0  0  0  0  0  0  0  0
  -39.4820  -21.5650   22.1490 O   0  0  0  0  0  0  0  0  0  0  0  0
  -37.3950  -23.8020   22.0290 C   0  0  0  0  0  0  0  0  0  0  0  0
  -37.8200  -25.0750   22.1010 N   0  0  0  0  0  0  0  0  0  0  0  0
  -36.7850  -23.2520   22.9480 O   0  0  0  0  0  0  0  0  0  0  0  0
  -38.3120  -25.4580   21.3050 H   0  0  0  0  0  0  0  0  0  0  0  0
  -38.9370  -28.1880   23.5450 C   0  0  0  0  0  0  0  0  0  0  0  0
  -37.6390  -25.9760   23.2380 C   0  0  0  0  0  3  0  0  0  0  0  0
  -36.3840  -26.8560   23.0540 C   0  0  0  0  0  2  0  0  0  0  0  0
  -36.6850  -28.2010   22.3870 C   0  0  0  0  0  2  0  0  0  0  0  0
  -37.6910  -29.0010   23.2210 C   0  0  0  0  0  2  0  0  0  0  0  0
  -38.9160  -26.7680   23.5340 C   0  0  0  0  0  0  0  0  0  0  0  0
  -40.1070  -26.0610   23.8010 C   0  0  0  0  0  3  0  0  0  0  0  0
  -41.3000  -26.7480   24.0910 C   0  0  0  0  0  3  0  0  0  0  0  0
  -41.3130  -28.1540   24.1190 C   0  0  0  0  0  3  0  0  0  0  0  0
  -40.1340  -28.8720   23.8450 C   0  0  0  0  0  3  0  0  0  0  0  0
  -38.5510  -19.3860   21.7910 C   0  0  0  0  0  3  0  0  0  0  0  0
  -39.7820  -18.8520   21.1980 N   0  0  0  0  0  0  0  0  0  0  0  0
  -39.8690  -18.3300   19.9680 C   0  0  0  0  0  0  0  0  0  0  0  0
  -38.8890  -18.1820   19.2340 O   0  0  0  0  0  0  0  0  0  0  0  0
  -40.6340  -18.9940   21.7230 H   0  0  0  0  0  0  0  0  0  0  0  0
  -41.6450  -18.7410   18.2350 C   0  0  0  0  0  1  0  0  0  0  0  0
  -41.2650  -17.9110   19.4720 C   0  0  0  0  0  3  0  0  0  0  0  0
  -41.3680  -15.6190   20.3440 C   0  0  0  0  0  1  0  0  0  0  0  0
  -41.3670  -16.4690   19.1570 N   0  0  0  0  0  0  0  0  0  0  0  0
  -42.2130  -16.2720   18.6270 H   0  0  0  0  0  0  0  0  0  0  0  0
  -38.4260  -18.9520   23.3040 C   0  0  1  0  0  0  0  0  0  0  0  0
  -39.7420  -19.1070   24.1030 C   0  0  0  0  0  1  0  0  0  0  0  0
  -37.3370  -19.7810   24.0210 C   0  0  0  0  0  1  0  0  0  0  0  0
  -37.9770  -17.4750   23.3870 C   0  0  0  0  0  1  0  0  0  0  0  0
  1 49  1  0
  2  4  1  0
  3  6  1  0
  3  2  2  0
  4  7  2  0
  5  7  1  0
  6  5  2  0
  7  1  1  0
  8  6  1  0
  9  8  1  0
 10  9  1  0
 11 17  1  0
 12 17  1  0
 13 14  1  0
 13 12  1  0
 15 14  1  0
 15 24  1  0
 15 16  1  0
 17 16  1  0
 18 11  2  0
 19 20  1  0
 20 11  1  0
 20 10  1  0
 21 46  1  0
 21 22  2  0
 22 41  1  0
 23 26  1  0
 23 22  1  0
 24 25  1  0
 24 21  1  0
 25 23  2  0
 26 31  1  0
 27 28  1  0
 27 26  2  0
 28 29  2  0
 29 32  1  0
 29 30  1  0
 31 30  2  0
 33 32  1  0
 33 34  1  0
 35 34  2  0
 36 35  1  0
 37 38  1  0
 37 36  2  0
 38 33  2  0
 39 38  1  0
 40 36  1  0
 41 43  2  0
 42 41  1  0
 42 45  1  0
 44 42  1  0
 46 47  1  0
 48 46  1  0
 49 50  1  0
 49 52  1  0
 51 49  1  0
 52 53  1  0
 53 54  1  0
 54 55  1  0
 56 67  2  0
 57 55  1  0
 57 62  1  0
 58 66  1  0
 58 68  1  0
 59 61  1  0
 60 66  1  0
 61 62  2  0
 61 60  1  0
 63 57  2  0
 64 63  1  0
 64 59  2  0
 65 59  1  0
 65 58  1  0
 66 56  1  0
 68 69  1  0
 68 70  2  0
 71 69  1  0
 72 81  1  0
 73 69  1  0
 73 77  1  0
 74 73  1  0
 75 74  1  0
 75 76  1  0
 76 72  1  0
 77 72  2  0
 77 78  1  0
 78 79  2  0
 79 80  1  0
 81 80  2  0
 82 56  1  0
 82 92  1  0
 83 86  1  0
 83 82  1  0
 84 83  1  0
 85 84  2  0
 88 87  1  0
 88 84  1  0
 90 88  1  0
 90 89  1  0
 91 90  1  0
 92 95  1  6
 92 94  1  0
 92 93  1  0
M  ISO  4  11 100  20 100  54 101  55 101
M  END
>  <TORSDO>  (73) 
F 24

>  <SCORE>  (73) 
-3.418

>  <name>  (73) 
73

>  <ligand_id>  (73) 
73

>  <original_smiles>  (73) 
[H]c1c([H])c([H])c2c(c1[H])C([H])([H])C([H])([H])C([H])([H])C2([H])N([H])C(=O)C1([H])N(C(=O)C([H])(N([H])C(=O)C([H])(N([H])C([H])([H])[H])C([H])([H])[H])C(C([H])([H])[H])(C([H])([H])[H])C([H])([H])[H])C([H])([H])c2c([H])c(OC([H])([H])C([H])([H])C([H])([H])[N+]([H])([H])C([H])([H])c3c([H])c([H])c([H])c(C([H])([H])C([H])([H])C([H])([H])N(C(=O)N4C([H])([H])C([H])([H])C([H])([H])C([H])(n5nc(-c6c([H])c([H])c(Oc7c([H])c([H])c(F)c([H])c7F)c([H])c6[H])c(C(=O)N([H])[H])c5N([H])[H])C4([H])[H])C([H])([H])[H])c3[H])c([H])c([H])c2C1([H])[H]

>  <smiles>  (73) 
[H]c1c([H])c([H])c2c(c1[H])C([H])([H])C([H])([H])C([H])([H])C2([H])N([H])C(=O)C1([H])N(C(=O)C([H])(N([H])C(=O)C([H])(N([H])C([H])([H])[H])C([H])([H])[H])C(C([H])([H])[H])(C([H])([H])[H])C([H])([H])[H])C([H])([H])c2c([H])c(OC([H])([H])C([H])([H])C([H])([H])[N+]([H])([H])C([H])([H])c3c([H])c([H])c([H])c(C([H])([H])C([H])([H])C([H])([H])N(C(=O)N4C([H])([H])C([H])([H])C([H])([H])C([H])(n5nc(-c6c([H])c([H])c(Oc7c([H])c([H])c(F)c([H])c7F)c([H])c6[H])c(C(=O)N([H])[H])c5N([H])[H])C4([H])[H])C([H])([H])[H])c3[H])c([H])c([H])c2C1([H])[H]

$$$$
74:0:0
     RDKit          3D

 94102  0  0  1  0  0  0  0  0999 V2000
  -29.4980  -24.1300   19.7350 C   0  0  0  0  0  3  0  0  0  0  0  0
  -29.1480  -22.7450   19.9280 C   0  0  0  0  0  0  0  0  0  0  0  0
  -28.2510  -22.6080   20.9680 C   0  0  0  0  0  0  0  0  0  0  0  0
  -28.8620  -25.0070   20.5900 C   0  0  0  0  0  0  0  0  0  0  0  0
  -27.8080  -24.1400   21.6730 S   0  0  0  0  0  0  0  0  0  0  0  0
  -27.6230  -21.4230   21.5460 C   0  0  0  0  0  3  0  0  0  0  0  0
  -27.9640  -20.2810   21.2220 O   0  0  0  0  0  0  0  0  0  0  0  0
  -29.6400  -21.6020   19.0490 C   0  0  0  0  0  2  0  0  0  0  0  0
  -30.5420  -20.6290   19.7240 N   0  0  0  0  0  4  0  0  0  0  0  0
  -30.2080  -20.4930   20.6650 H   0  0  0  0  0  0  0  0  0  0  0  0
  -31.4580  -21.0460   19.7690 H   0  0  0  0  0  0  0  0  0  0  0  0
  -30.6190  -19.3020   19.0450 C   0  0  0  0  0  2  0  0  0  0  0  0
  -31.8470  -18.4300   19.4400 C   0  0  0  0  0  2  0  0  0  0  0  0
  -31.7270  -17.5380   20.7090 C   0  0  0  0  0  2  0  0  0  0  0  0
  -31.8370  -15.1280   19.9520 C   0  0  0  0  0  0  0  0  0  0  0  0
  -31.4870  -12.8660   19.0190 C   0  0  0  0  0  2  0  0  0  0  0  0
  -30.5260  -12.9420   17.8160 C   0  0  0  0  0  2  0  0  0  0  0  0
  -29.0580  -12.8790   18.2810 C   0  0  0  0  0  2  0  0  0  0  0  0
  -28.7540  -13.8610   19.4420 C   0  0  0  0  0  3  0  0  0  0  0  0
  -29.8190  -13.7390   20.5540 C   0  0  0  0  0  2  0  0  0  0  0  0
  -31.1400  -13.9600   19.9390 N   0  0  0  0  0  0  0  0  0  0  0  0
  -32.9460  -15.2540   19.4260 O   0  0  0  0  0  0  0  0  0  0  0  0
  -31.1920  -16.1820   20.4890 N   0  0  0  0  0  0  0  0  0  0  0  0
  -30.2770  -15.9850   20.8680 H   0  0  0  0  0  0  0  0  0  0  0  0
  -26.4400  -14.6230   20.2750 C   0  0  0  0  0  0  0  0  0  0  0  0
  -25.3290  -13.9210   20.6550 C   0  0  0  0  0  0  0  0  0  0  0  0
  -25.6790  -12.5400   20.5470 C   0  0  0  0  0  0  0  0  0  0  0  0
  -27.4020  -13.6750   19.9640 N   0  0  0  0  0  0  0  0  0  0  0  0
  -26.9480  -12.4140   20.1820 N   0  0  0  0  0  0  0  0  0  0  0  0
  -24.8630  -11.3310   20.7110 C   0  0  0  0  0  0  0  0  0  0  0  0
  -25.1950  -10.3390   21.6600 C   0  0  0  0  0  3  0  0  0  0  0  0
  -24.3840   -9.1930   21.8120 C   0  0  0  0  0  3  0  0  0  0  0  0
  -23.2260   -9.0330   21.0150 C   0  0  0  0  0  0  0  0  0  0  0  0
  -22.9120  -10.0130   20.0570 C   0  0  0  0  0  3  0  0  0  0  0  0
  -23.7230  -11.1500   19.9030 C   0  0  0  0  0  3  0  0  0  0  0  0
  -22.3930   -7.9420   21.0750 O   0  0  0  0  0  0  0  0  0  0  0  0
  -22.1660   -7.2750   22.2520 C   0  0  0  0  0  0  0  0  0  0  0  0
  -21.6050   -7.9180   23.3780 C   0  0  0  0  0  3  0  0  0  0  0  0
  -21.3240   -7.1780   24.5440 C   0  0  0  0  0  3  0  0  0  0  0  0
  -21.5920   -5.7970   24.5840 C   0  0  0  0  0  0  0  0  0  0  0  0
  -22.1460   -5.1540   23.4630 C   0  0  0  0  0  3  0  0  0  0  0  0
  -22.4280   -5.8910   22.2990 C   0  0  0  0  0  0  0  0  0  0  0  0
  -22.9410   -5.2620   21.2140 F   0  0  0  0  0  0  0  0  0  0  0  0
  -21.3160   -5.0840   25.7010 F   0  0  0  0  0  0  0  0  0  0  0  0
  -23.9850  -14.4920   21.0060 C   0  0  0  0  0  0  0  0  0  0  0  0
  -23.2430  -13.8210   21.8790 N   0  0  0  0  0  0  0  0  0  0  0  0
  -23.6070  -15.5680   20.5440 O   0  0  0  0  0  0  0  0  0  0  0  0
  -23.5610  -12.9480   22.2740 H   0  0  0  0  0  0  0  0  0  0  0  0
  -22.3430  -14.1850   22.1580 H   0  0  0  0  0  0  0  0  0  0  0  0
  -26.7100  -15.9830   20.1500 N   0  0  0  0  0  0  0  0  0  0  0  0
  -26.0040  -16.6920   20.3200 H   0  0  0  0  0  0  0  0  0  0  0  0
  -27.5780  -16.3650   19.7970 H   0  0  0  0  0  0  0  0  0  0  0  0
  -29.0170  -26.5070   20.7220 C   0  0  0  0  0  2  0  0  0  0  0  0
  -28.4820  -27.1440   19.5590 O   0  0  0  0  0  0  0  0  0  0  0  0
  -24.6180  -31.9800   23.1740 C   0  0  0  0  0  0  0  0  0  0  0  0
  -27.3100  -27.8490   19.7250 C   0  0  0  0  0  0  0  0  0  0  0  0
  -23.4110  -30.6570   21.4660 C   0  0  0  0  0  3  0  0  0  0  0  0
  -24.8720  -29.2670   19.9040 C   0  0  0  0  0  0  0  0  0  0  0  0
  -25.9170  -31.1080   21.2330 C   0  0  0  0  0  2  0  0  0  0  0  0
  -26.0280  -29.7850   20.5060 C   0  0  0  0  0  0  0  0  0  0  0  0
  -27.2510  -29.0790   20.4220 C   0  0  0  0  0  3  0  0  0  0  0  0
  -26.1440  -27.3480   19.1150 C   0  0  0  0  0  3  0  0  0  0  0  0
  -24.9240  -28.0450   19.2090 C   0  0  0  0  0  3  0  0  0  0  0  0
  -23.6040  -30.0810   20.0380 C   0  0  0  0  0  2  0  0  0  0  0  0
  -24.6680  -31.2610   22.0160 N   0  0  0  0  0  0  0  0  0  0  0  0
  -23.5440  -32.1780   23.7590 O   0  0  0  0  0  0  0  0  0  0  0  0
  -22.8170  -29.5500   22.3690 C   0  0  0  0  0  0  0  0  0  0  0  0
  -21.4970  -29.3320   22.2580 N   0  0  0  0  0  0  0  0  0  0  0  0
  -23.5410  -28.8960   23.1240 O   0  0  0  0  0  0  0  0  0  0  0  0
  -20.9720  -29.9160   21.6230 H   0  0  0  0  0  0  0  0  0  0  0  0
  -18.1760  -27.9980   22.7550 C   0  0  0  0  0  0  0  0  0  0  0  0
  -20.7310  -28.3160   22.9800 C   0  0  0  0  0  3  0  0  0  0  0  0
  -20.8610  -26.9340   22.2990 C   0  0  0  0  0  2  0  0  0  0  0  0
  -19.7410  -26.6500   21.2930 C   0  0  0  0  0  2  0  0  0  0  0  0
  -18.3730  -26.7070   21.9800 C   0  0  0  0  0  2  0  0  0  0  0  0
  -19.2830  -28.7610   23.2100 C   0  0  0  0  0  0  0  0  0  0  0  0
  -19.0440  -29.9730   23.8960 C   0  0  0  0  0  3  0  0  0  0  0  0
  -17.7300  -30.4200   24.1300 C   0  0  0  0  0  3  0  0  0  0  0  0
  -16.6370  -29.6530   23.6900 C   0  0  0  0  0  3  0  0  0  0  0  0
  -16.8620  -28.4430   23.0090 C   0  0  0  0  0  3  0  0  0  0  0  0
  -25.9020  -32.6070   23.8030 C   0  0  0  0  0  3  0  0  0  0  0  0
  -25.5900  -33.9980   24.1520 N   0  0  0  0  0  0  0  0  0  0  0  0
  -25.9420  -35.0630   23.4180 C   0  0  0  0  0  0  0  0  0  0  0  0
  -26.6360  -34.9770   22.4020 O   0  0  0  0  0  0  0  0  0  0  0  0
  -24.9780  -34.1400   24.9430 H   0  0  0  0  0  0  0  0  0  0  0  0
  -24.2270  -36.8650   23.0520 C   0  0  0  0  0  1  0  0  0  0  0  0
  -25.4460  -36.4430   23.8890 C   0  0  0  0  0  3  0  0  0  0  0  0
  -27.5590  -37.3070   24.7940 C   0  0  0  0  0  1  0  0  0  0  0  0
  -26.4840  -37.4960   23.8230 N   0  0  0  0  0  0  0  0  0  0  0  0
  -26.0760  -38.4140   23.9780 H   0  0  0  0  0  0  0  0  0  0  0  0
  -26.4250  -31.8170   25.0650 C   0  0  1  0  0  0  0  0  0  0  0  0
  -25.3330  -31.5460   26.1260 C   0  0  0  0  0  1  0  0  0  0  0  0
  -27.0260  -30.4550   24.6470 C   0  0  0  0  0  1  0  0  0  0  0  0
  -27.5660  -32.6130   25.7440 C   0  0  0  0  0  1  0  0  0  0  0  0
  1  2  1  0
  1  4  2  0
  2  3  2  0
  3  6  1  0
  3  5  1  0
  4 53  1  0
  4  5  1  0
  7  6  2  0
  8  9  1  0
  8  2  1  0
  9 11  1  0
  9 10  1  0
 12 13  1  0
 12  9  1  0
 13 14  1  0
 15 23  1  0
 16 21  1  0
 17 18  1  0
 17 16  1  0
 19 18  1  0
 19 28  1  0
 19 20  1  0
 21 15  1  0
 21 20  1  0
 22 15  2  0
 23 14  1  0
 23 24  1  0
 25 26  2  0
 26 45  1  0
 27 26  1  0
 27 30  1  0
 28 29  1  0
 28 25  1  0
 29 27  2  0
 30 31  1  0
 31 32  2  0
 33 36  1  0
 33 32  1  0
 34 33  2  0
 35 34  1  0
 35 30  2  0
 36 37  1  0
 37 42  2  0
 37 38  1  0
 38 39  2  0
 39 40  1  0
 40 44  1  0
 41 40  2  0
 42 41  1  0
 43 42  1  0
 45 46  1  0
 46 49  1  0
 46 48  1  0
 47 45  2  0
 50 25  1  0
 50 51  1  0
 52 50  1  0
 54 56  1  0
 54 53  1  0
 55 66  2  0
 56 61  1  0
 57 65  1  0
 57 67  1  0
 58 64  1  0
 58 60  1  0
 59 65  1  0
 60 59  1  0
 61 60  2  0
 62 63  1  0
 62 56  2  0
 63 58  2  0
 64 57  1  0
 65 55  1  0
 67 69  2  0
 68 67  1  0
 70 68  1  0
 71 80  2  0
 71 76  1  0
 72 68  1  0
 72 76  1  0
 73 72  1  0
 74 75  1  0
 74 73  1  0
 75 71  1  0
 76 77  2  0
 77 78  1  0
 79 78  2  0
 80 79  1  0
 81 55  1  0
 81 82  1  0
 81 91  1  0
 82 85  1  0
 83 87  1  0
 83 82  1  0
 84 83  2  0
 87 86  1  0
 89 87  1  0
 89 90  1  0
 89 88  1  0
 91 94  1  1
 91 92  1  0
 93 91  1  0
M  ISO  4  15 100  23 100  53 101  54 101
M  END
>  <TORSDO>  (74) 
F 23

>  <SCORE>  (74) 
-9.950

>  <name>  (74) 
74

>  <ligand_id>  (74) 
74

>  <original_smiles>  (74) 
[H]C(=O)c1sc(C([H])([H])Oc2c([H])c([H])c3c(c2[H])C([H])([H])N(C(=O)C([H])(N([H])C(=O)C([H])(N([H])C([H])([H])[H])C([H])([H])[H])C(C([H])([H])[H])(C([H])([H])[H])C([H])([H])[H])C([H])(C(=O)N([H])C2([H])c4c([H])c([H])c([H])c([H])c4C([H])([H])C([H])([H])C2([H])[H])C3([H])[H])c([H])c1C([H])([H])[N+]([H])([H])C([H])([H])C([H])([H])C([H])([H])N([H])C(=O)N1C([H])([H])C([H])([H])C([H])([H])C([H])(n2nc(-c3c([H])c([H])c(Oc4c([H])c([H])c(F)c([H])c4F)c([H])c3[H])c(C(=O)N([H])[H])c2N([H])[H])C1([H])[H]

>  <smiles>  (74) 
[H]C(=O)c1sc(C([H])([H])Oc2c([H])c([H])c3c(c2[H])C([H])([H])N(C(=O)C([H])(N([H])C(=O)C([H])(N([H])C([H])([H])[H])C([H])([H])[H])C(C([H])([H])[H])(C([H])([H])[H])C([H])([H])[H])C([H])(C(=O)N([H])C2([H])c4c([H])c([H])c([H])c([H])c4C([H])([H])C([H])([H])C2([H])[H])C3([H])[H])c([H])c1C([H])([H])[N+]([H])([H])C([H])([H])C([H])([H])C([H])([H])N([H])C(=O)N1C([H])([H])C([H])([H])C([H])([H])C([H])(n2nc(-c3c([H])c([H])c(Oc4c([H])c([H])c(F)c([H])c4F)c([H])c3[H])c(C(=O)N([H])[H])c2N([H])[H])C1([H])[H]

$$$$
75:0:0
     RDKit          3D

 97106  0  0  1  0  0  0  0  0999 V2000
  -28.9410  -21.0820   21.2450 C   0  0  0  0  0  0  0  0  0  0  0  0
  -28.3270  -22.4700   21.3180 C   0  0  0  0  0  2  0  0  0  0  0  0
  -30.1500  -22.4440   19.6750 C   0  0  0  0  0  2  0  0  0  0  0  0
  -29.3810  -23.3640   20.6490 C   0  0  0  0  0  3  0  0  0  0  0  0
  -30.2210  -21.0970   20.4210 C   0  0  0  0  0  3  0  0  0  0  0  0
  -28.4290  -20.0910   21.7730 O   0  0  0  0  0  0  0  0  0  0  0  0
  -29.0700  -25.8820   20.7200 C   0  0  0  0  0  3  0  0  0  0  0  0
  -27.9500  -24.6490   18.9450 C   0  0  0  0  0  3  0  0  0  0  0  0
  -28.4980  -27.0820   20.2510 C   0  0  0  0  0  3  0  0  0  0  0  0
  -27.3840  -25.8510   18.4720 C   0  0  0  0  0  3  0  0  0  0  0  0
  -28.7980  -24.6550   20.0760 C   0  0  0  0  0  0  0  0  0  0  0  0
  -27.6370  -27.0690   19.1330 C   0  0  0  0  0  0  0  0  0  0  0  0
  -27.0050  -28.2160   18.7210 O   0  0  0  0  0  0  0  0  0  0  0  0
  -24.6660  -28.2270   25.4150 C   0  0  0  0  0  0  0  0  0  0  0  0
  -26.0850  -28.7090   19.6110 C   0  0  0  0  0  0  0  0  0  0  0  0
  -23.1260  -29.1850   23.7320 C   0  0  0  0  0  3  0  0  0  0  0  0
  -24.1350  -29.6170   21.4290 C   0  0  0  0  0  0  0  0  0  0  0  0
  -25.6580  -29.2660   23.3820 C   0  0  0  0  0  2  0  0  0  0  0  0
  -25.3930  -29.2120   21.8940 C   0  0  0  0  0  0  0  0  0  0  0  0
  -26.3760  -28.7600   20.9900 C   0  0  0  0  0  3  0  0  0  0  0  0
  -24.8220  -29.1290   19.1490 C   0  0  0  0  0  3  0  0  0  0  0  0
  -23.8430  -29.5800   20.0550 C   0  0  0  0  0  3  0  0  0  0  0  0
  -23.1410  -30.0850   22.4670 C   0  0  0  0  0  2  0  0  0  0  0  0
  -24.5050  -28.8440   24.2120 N   0  0  0  0  0  0  0  0  0  0  0  0
  -23.6950  -27.9810   26.1440 O   0  0  0  0  0  0  0  0  0  0  0  0
  -22.2540  -27.9430   23.4440 C   0  0  0  0  0  0  0  0  0  0  0  0
  -20.9810  -28.1770   23.0850 N   0  0  0  0  0  0  0  0  0  0  0  0
  -22.7280  -26.8060   23.5190 O   0  0  0  0  0  0  0  0  0  0  0  0
  -20.6670  -29.1370   23.0540 H   0  0  0  0  0  0  0  0  0  0  0  0
  -17.7350  -27.6910   21.5760 C   0  0  0  0  0  0  0  0  0  0  0  0
  -19.9870  -27.1640   22.7310 C   0  0  0  0  0  3  0  0  0  0  0  0
  -20.3740  -26.4420   21.4210 C   0  0  0  0  0  2  0  0  0  0  0  0
  -19.7500  -27.0760   20.1740 C   0  0  0  0  0  2  0  0  0  0  0  0
  -18.2220  -27.0740   20.2770 C   0  0  0  0  0  2  0  0  0  0  0  0
  -18.5700  -27.7480   22.7240 C   0  0  0  0  0  0  0  0  0  0  0  0
  -18.0810  -28.3670   23.8970 C   0  0  0  0  0  3  0  0  0  0  0  0
  -16.7870  -28.9160   23.9350 C   0  0  0  0  0  3  0  0  0  0  0  0
  -15.9590  -28.8410   22.8000 C   0  0  0  0  0  3  0  0  0  0  0  0
  -16.4320  -28.2270   21.6270 C   0  0  0  0  0  3  0  0  0  0  0  0
  -26.0780  -27.8220   25.9460 C   0  0  0  0  0  3  0  0  0  0  0  0
  -26.0550  -27.9580   27.4090 N   0  0  0  0  0  0  0  0  0  0  0  0
  -26.7970  -28.8320   28.1020 C   0  0  0  0  0  0  0  0  0  0  0  0
  -27.6340  -29.5690   27.5740 O   0  0  0  0  0  0  0  0  0  0  0  0
  -25.3560  -27.4240   27.9030 H   0  0  0  0  0  0  0  0  0  0  0  0
  -25.8070  -30.1880   29.9750 C   0  0  0  0  0  1  0  0  0  0  0  0
  -26.5720  -28.9010   29.6250 C   0  0  0  0  0  3  0  0  0  0  0  0
  -28.4800  -27.5340   30.3440 C   0  0  0  0  0  1  0  0  0  0  0  0
  -27.8250  -28.8380   30.4080 N   0  0  0  0  0  0  0  0  0  0  0  0
  -27.6500  -29.0580   31.3850 H   0  0  0  0  0  0  0  0  0  0  0  0
  -26.5090  -26.3640   25.5250 C   0  0  1  0  0  0  0  0  0  0  0  0
  -25.4450  -25.2870   25.8370 C   0  0  0  0  0  1  0  0  0  0  0  0
  -26.8120  -26.3030   24.0100 C   0  0  0  0  0  1  0  0  0  0  0  0
  -27.8160  -25.9730   26.2550 C   0  0  0  0  0  1  0  0  0  0  0  0
  -30.2280  -19.8780   19.5810 N   0  0  0  0  0  4  0  0  0  0  0  0
  -29.5120  -19.9570   18.8760 H   0  0  0  0  0  0  0  0  0  0  0  0
  -29.9470  -19.1250   20.1900 H   0  0  0  0  0  0  0  0  0  0  0  0
  -31.5200  -19.5280   18.9520 C   0  0  0  0  0  2  0  0  0  0  0  0
  -32.0700  -18.1790   19.4680 C   0  0  0  0  0  2  0  0  0  0  0  0
  -33.6080  -18.1410   19.6050 C   0  0  0  0  0  2  0  0  0  0  0  0
  -34.8680  -16.0280   19.1680 C   0  0  0  0  0  0  0  0  0  0  0  0
  -34.7920  -13.7200   20.0360 C   0  0  0  0  0  2  0  0  0  0  0  0
  -34.1820  -12.7560   18.9980 C   0  0  0  0  0  2  0  0  0  0  0  0
  -32.6470  -12.7170   19.1280 C   0  0  0  0  0  2  0  0  0  0  0  0
  -32.0190  -14.1330   19.1630 C   0  0  0  0  0  3  0  0  0  0  0  0
  -32.7570  -15.0330   20.1740 C   0  0  0  0  0  2  0  0  0  0  0  0
  -34.1930  -15.0510   19.8370 N   0  0  0  0  0  0  0  0  0  0  0  0
  -36.0260  -15.8950   18.7720 O   0  0  0  0  0  0  0  0  0  0  0  0
  -34.1770  -17.0980   18.7490 N   0  0  0  0  0  0  0  0  0  0  0  0
  -34.6410  -17.4940   17.9440 H   0  0  0  0  0  0  0  0  0  0  0  0
  -29.6400  -15.0920   19.3920 C   0  0  0  0  0  0  0  0  0  0  0  0
  -28.4400  -14.4980   19.6750 C   0  0  0  0  0  0  0  0  0  0  0  0
  -28.7240  -13.1160   19.8890 C   0  0  0  0  0  0  0  0  0  0  0  0
  -30.5860  -14.0790   19.4420 N   0  0  0  0  0  0  0  0  0  0  0  0
  -30.0280  -12.8930   19.7980 N   0  0  0  0  0  0  0  0  0  0  0  0
  -27.8240  -11.9780   20.1180 C   0  0  0  0  0  0  0  0  0  0  0  0
  -27.6600  -11.4140   21.4010 C   0  0  0  0  0  3  0  0  0  0  0  0
  -26.7760  -10.3300   21.5990 C   0  0  0  0  0  3  0  0  0  0  0  0
  -26.0440   -9.8050   20.5080 C   0  0  0  0  0  0  0  0  0  0  0  0
  -26.2280  -10.3560   19.2280 C   0  0  0  0  0  3  0  0  0  0  0  0
  -27.1110  -11.4310   19.0320 C   0  0  0  0  0  3  0  0  0  0  0  0
  -25.1820   -8.7390   20.6010 O   0  0  0  0  0  0  0  0  0  0  0  0
  -24.2110   -8.6800   21.5670 C   0  0  0  0  0  0  0  0  0  0  0  0
  -23.2200   -9.6780   21.6910 C   0  0  0  0  0  3  0  0  0  0  0  0
  -22.2010   -9.5440   22.6550 C   0  0  0  0  0  3  0  0  0  0  0  0
  -22.1640   -8.4070   23.4880 C   0  0  0  0  0  0  0  0  0  0  0  0
  -23.1460   -7.4100   23.3610 C   0  0  0  0  0  3  0  0  0  0  0  0
  -24.1650   -7.5460   22.4020 C   0  0  0  0  0  0  0  0  0  0  0  0
  -25.0960   -6.5710   22.2700 F   0  0  0  0  0  0  0  0  0  0  0  0
  -21.1810   -8.2730   24.4080 F   0  0  0  0  0  0  0  0  0  0  0  0
  -27.0910  -15.1560   19.6550 C   0  0  0  0  0  0  0  0  0  0  0  0
  -26.1830  -14.7170   20.5210 N   0  0  0  0  0  0  0  0  0  0  0  0
  -26.8490  -16.0970   18.9010 O   0  0  0  0  0  0  0  0  0  0  0  0
  -26.3900  -13.9540   21.1480 H   0  0  0  0  0  0  0  0  0  0  0  0
  -25.2710  -15.1490   20.5540 H   0  0  0  0  0  0  0  0  0  0  0  0
  -30.0030  -16.3990   19.0760 N   0  0  0  0  0  0  0  0  0  0  0  0
  -29.3090  -17.1250   18.9270 H   0  0  0  0  0  0  0  0  0  0  0  0
  -30.9330  -16.6740   18.7850 H   0  0  0  0  0  0  0  0  0  0  0  0
  1  2  1  0
  1  6  2  0
  3  5  1  0
  3  4  1  0
  4 11  1  0
  4  2  1  0
  5 54  1  0
  5  1  1  0
  8 11  1  0
  9  7  1  0
 10  8  2  0
 10 12  1  0
 11  7  2  0
 12  9  2  0
 13 12  1  0
 13 15  1  0
 14 25  2  0
 15 20  1  0
 16 26  1  0
 16 24  1  0
 17 19  1  0
 17 23  1  0
 18 24  1  0
 19 18  1  0
 20 19  2  0
 21 15  2  0
 21 22  1  0
 22 17  2  0
 23 16  1  0
 24 14  1  0
 26 28  2  0
 27 26  1  0
 29 27  1  0
 30 39  2  0
 30 35  1  0
 31 27  1  0
 32 31  1  0
 33 34  1  0
 33 32  1  0
 34 30  1  0
 35 31  1  0
 35 36  2  0
 36 37  1  0
 38 37  2  0
 39 38  1  0
 40 14  1  0
 40 41  1  0
 41 44  1  0
 41 42  1  0
 42 46  1  0
 43 42  2  0
 46 45  1  0
 46 48  1  0
 47 48  1  0
 48 49  1  0
 50 51  1  6
 50 40  1  0
 50 53  1  0
 52 50  1  0
 54 56  1  0
 55 54  1  0
 57 58  1  0
 57 54  1  0
 58 59  1  0
 60 66  1  0
 62 63  1  0
 62 61  1  0
 64 63  1  0
 64 73  1  0
 64 65  1  0
 66 61  1  0
 66 65  1  0
 67 60  2  0
 68 60  1  0
 68 59  1  0
 69 68  1  0
 70 73  1  0
 70 71  2  0
 71 72  1  0
 72 75  1  0
 73 74  1  0
 74 72  2  0
 75 76  1  0
 76 77  2  0
 78 81  1  0
 78 77  1  0
 79 78  2  0
 80 79  1  0
 80 75  2  0
 81 82  1  0
 82 83  2  0
 82 87  1  0
 83 84  1  0
 84 85  2  0
 85 89  1  0
 86 85  1  0
 87 86  2  0
 88 87  1  0
 90 71  1  0
 90 91  1  0
 91 94  1  0
 91 93  1  0
 92 90  2  0
 95 70  1  0
 96 95  1  0
 97 95  1  0
M  ISO  4  12 101  13 101  60 100  68 100
M  END
>  <TORSDO>  (75) 
F 21

>  <SCORE>  (75) 
-2.514

>  <name>  (75) 
75

>  <ligand_id>  (75) 
75

>  <original_smiles>  (75) 
[H]c1c([H])c([H])c2c(c1[H])C([H])([H])C([H])([H])C([H])([H])C2([H])N([H])C(=O)C1([H])N(C(=O)C([H])(N([H])C(=O)C([H])(N([H])C([H])([H])[H])C([H])([H])[H])C(C([H])([H])[H])(C([H])([H])[H])C([H])([H])[H])C([H])([H])c2c([H])c(Oc3c([H])c([H])c(C4([H])C([H])([H])C(=O)C([H])([N+]([H])([H])C([H])([H])C([H])([H])C([H])([H])N([H])C(=O)N5C([H])([H])C([H])([H])C([H])([H])C([H])(n6nc(-c7c([H])c([H])c(Oc8c([H])c([H])c(F)c([H])c8F)c([H])c7[H])c(C(=O)N([H])[H])c6N([H])[H])C5([H])[H])C4([H])[H])c([H])c3[H])c([H])c([H])c2C1([H])[H]

>  <smiles>  (75) 
[H]c1c([H])c([H])c2c(c1[H])C([H])([H])C([H])([H])C([H])([H])C2([H])N([H])C(=O)C1([H])N(C(=O)C([H])(N([H])C(=O)C([H])(N([H])C([H])([H])[H])C([H])([H])[H])C(C([H])([H])[H])(C([H])([H])[H])C([H])([H])[H])C([H])([H])c2c([H])c(Oc3c([H])c([H])c(C4([H])C([H])([H])C(=O)C([H])([N+]([H])([H])C([H])([H])C([H])([H])C([H])([H])N([H])C(=O)N5C([H])([H])C([H])([H])C([H])([H])C([H])(n6nc(-c7c([H])c([H])c(Oc8c([H])c([H])c(F)c([H])c8F)c([H])c7[H])c(C(=O)N([H])[H])c6N([H])[H])C5([H])[H])C4([H])[H])c([H])c3[H])c([H])c([H])c2C1([H])[H]

$$$$
76:0:0
     RDKit          3D

101109  0  0  1  0  0  0  0  0999 V2000
  -32.6360  -23.7490   25.0790 C   0  0  0  0  0  3  0  0  0  0  0  0
  -31.8940  -22.6200   24.6830 C   0  0  0  0  0  3  0  0  0  0  0  0
  -32.0570  -25.0280   25.0280 C   0  0  0  0  0  3  0  0  0  0  0  0
  -29.9610  -24.0390   24.2360 C   0  0  0  0  0  3  0  0  0  0  0  0
  -30.5480  -22.7570   24.2720 C   0  0  0  0  0  0  0  0  0  0  0  0
  -30.7290  -25.1710   24.5800 C   0  0  0  0  0  0  0  0  0  0  0  0
  -29.7710  -21.5240   23.8260 C   0  0  0  0  0  2  0  0  0  0  0  0
  -30.3170  -21.0510   22.5370 N   0  0  0  0  0  4  0  0  0  0  0  0
  -31.3120  -21.2090   22.5490 H   0  0  0  0  0  0  0  0  0  0  0  0
  -29.9110  -21.5910   21.7880 H   0  0  0  0  0  0  0  0  0  0  0  0
  -30.1310  -19.6260   22.2210 C   0  0  0  0  0  2  0  0  0  0  0  0
  -31.2240  -19.1450   21.2330 C   0  0  0  0  0  2  0  0  0  0  0  0
  -31.3420  -17.5810   21.0970 C   0  0  0  0  0  2  0  0  0  0  0  0
  -32.4520  -17.0900   20.0950 C   0  0  0  0  0  2  0  0  0  0  0  0
  -33.1510  -15.6830   20.1990 C   0  0  0  0  0  2  0  0  0  0  0  0
  -32.8400  -13.2180   20.2270 C   0  0  0  0  0  0  0  0  0  0  0  0
  -32.0290  -11.0860   19.2800 C   0  0  0  0  0  2  0  0  0  0  0  0
  -31.1230  -11.3620   18.0630 C   0  0  0  0  0  2  0  0  0  0  0  0
  -29.6750  -11.6120   18.5260 C   0  0  0  0  0  2  0  0  0  0  0  0
  -29.5860  -12.6460   19.6800 C   0  0  0  0  0  3  0  0  0  0  0  0
  -30.5760  -12.3070   20.8130 C   0  0  0  0  0  2  0  0  0  0  0  0
  -31.9100  -12.2300   20.2010 N   0  0  0  0  0  0  0  0  0  0  0  0
  -34.0040  -13.0320   19.8500 O   0  0  0  0  0  0  0  0  0  0  0  0
  -32.3620  -14.4680   20.4690 N   0  0  0  0  0  0  0  0  0  0  0  0
  -31.3600  -14.5730   20.5270 H   0  0  0  0  0  0  0  0  0  0  0  0
  -27.5370  -13.9290   20.5620 C   0  0  0  0  0  0  0  0  0  0  0  0
  -26.2910  -13.5140   20.9220 C   0  0  0  0  0  0  0  0  0  0  0  0
  -26.2830  -12.0920   20.7620 C   0  0  0  0  0  0  0  0  0  0  0  0
  -28.2300  -12.7840   20.1980 N   0  0  0  0  0  0  0  0  0  0  0  0
  -27.4830  -11.6680   20.3810 N   0  0  0  0  0  0  0  0  0  0  0  0
  -25.1960  -11.1210   20.8930 C   0  0  0  0  0  0  0  0  0  0  0  0
  -25.3350   -9.9580   21.6800 C   0  0  0  0  0  3  0  0  0  0  0  0
  -24.2710   -9.0400   21.7970 C   0  0  0  0  0  3  0  0  0  0  0  0
  -23.0470   -9.2870   21.1270 C   0  0  0  0  0  0  0  0  0  0  0  0
  -22.9190  -10.4380   20.3310 C   0  0  0  0  0  3  0  0  0  0  0  0
  -23.9830  -11.3470   20.2160 C   0  0  0  0  0  3  0  0  0  0  0  0
  -21.9610   -8.4470   21.1620 O   0  0  0  0  0  0  0  0  0  0  0  0
  -21.7390   -7.6040   22.2210 C   0  0  0  0  0  0  0  0  0  0  0  0
  -21.6210   -8.0840   23.5430 C   0  0  0  0  0  3  0  0  0  0  0  0
  -21.3300   -7.1890   24.5930 C   0  0  0  0  0  3  0  0  0  0  0  0
  -21.1360   -5.8210   24.3190 C   0  0  0  0  0  0  0  0  0  0  0  0
  -21.2340   -5.3480   23.0000 C   0  0  0  0  0  3  0  0  0  0  0  0
  -21.5350   -6.2360   21.9540 C   0  0  0  0  0  0  0  0  0  0  0  0
  -21.6120   -5.7780   20.6800 F   0  0  0  0  0  0  0  0  0  0  0  0
  -20.8490   -4.9600   25.3240 F   0  0  0  0  0  0  0  0  0  0  0  0
  -25.1260  -14.3820   21.3010 C   0  0  0  0  0  0  0  0  0  0  0  0
  -24.2480  -13.8920   22.1620 N   0  0  0  0  0  0  0  0  0  0  0  0
  -25.0160  -15.5320   20.8640 O   0  0  0  0  0  0  0  0  0  0  0  0
  -24.3500  -12.9530   22.5280 H   0  0  0  0  0  0  0  0  0  0  0  0
  -23.4590  -14.4540   22.4490 H   0  0  0  0  0  0  0  0  0  0  0  0
  -28.1380  -15.1930   20.4800 N   0  0  0  0  0  0  0  0  0  0  0  0
  -27.6200  -16.0390   20.6850 H   0  0  0  0  0  0  0  0  0  0  0  0
  -29.0520  -15.3870   20.0970 H   0  0  0  0  0  0  0  0  0  0  0  0
  -30.1670  -26.5530   24.3590 C   0  0  0  0  0  2  0  0  0  0  0  0
  -30.9770  -27.7640   22.3940 C   0  0  0  0  0  1  0  0  0  0  0  0
  -30.0360  -26.7360   22.8900 N   0  0  2  0  0  4  0  0  0  0  0  0
  -30.3530  -25.8680   22.4870 H   0  0  0  0  0  0  0  0  0  0  0  0
  -28.6280  -26.9560   22.4380 C   0  0  0  0  0  2  0  0  0  0  0  0
  -27.9310  -25.7370   21.7840 C   0  0  0  0  0  2  0  0  0  0  0  0
  -28.0180  -25.4440   20.2530 C   0  0  0  0  0  2  0  0  0  0  0  0
  -27.8210  -26.4610   19.2440 O   0  0  0  0  0  0  0  0  0  0  0  0
  -24.7070  -31.4950   22.9560 C   0  0  0  0  0  0  0  0  0  0  0  0
  -26.6890  -27.2220   19.3470 C   0  0  0  0  0  0  0  0  0  0  0  0
  -23.2220  -30.3540   21.3230 C   0  0  0  0  0  3  0  0  0  0  0  0
  -24.4070  -28.8590   19.6220 C   0  0  0  0  0  0  0  0  0  0  0  0
  -25.7160  -30.5870   20.8750 C   0  0  0  0  0  2  0  0  0  0  0  0
  -25.6360  -29.2710   20.1420 C   0  0  0  0  0  0  0  0  0  0  0  0
  -26.7750  -28.4630   20.0060 C   0  0  0  0  0  3  0  0  0  0  0  0
  -25.4640  -26.8330   18.7690 C   0  0  0  0  0  3  0  0  0  0  0  0
  -24.3190  -27.6440   18.9120 C   0  0  0  0  0  3  0  0  0  0  0  0
  -23.2330  -29.7830   19.8720 C   0  0  0  0  0  2  0  0  0  0  0  0
  -24.5720  -30.8210   21.7760 N   0  0  0  0  0  0  0  0  0  0  0  0
  -23.7210  -31.7850   23.6430 O   0  0  0  0  0  0  0  0  0  0  0  0
  -22.5930  -29.3050   22.2640 C   0  0  0  0  0  0  0  0  0  0  0  0
  -21.2500  -29.2550   22.2900 N   0  0  0  0  0  0  0  0  0  0  0  0
  -23.3040  -28.5390   22.9230 O   0  0  0  0  0  0  0  0  0  0  0  0
  -20.7400  -29.9140   21.7190 H   0  0  0  0  0  0  0  0  0  0  0  0
  -17.8590  -28.3050   23.0670 C   0  0  0  0  0  0  0  0  0  0  0  0
  -20.4450  -28.3160   23.0660 C   0  0  0  0  0  3  0  0  0  0  0  0
  -20.3550  -26.9510   22.3500 C   0  0  0  0  0  2  0  0  0  0  0  0
  -19.1210  -26.8250   21.4490 C   0  0  0  0  0  2  0  0  0  0  0  0
  -17.8350  -27.0200   22.2580 C   0  0  0  0  0  2  0  0  0  0  0  0
  -19.0820  -28.9180   23.4350 C   0  0  0  0  0  0  0  0  0  0  0  0
  -19.0520  -30.1280   24.1650 C   0  0  0  0  0  3  0  0  0  0  0  0
  -17.8270  -30.7120   24.5350 C   0  0  0  0  0  3  0  0  0  0  0  0
  -16.6160  -30.0950   24.1790 C   0  0  0  0  0  3  0  0  0  0  0  0
  -16.6350  -28.8950   23.4440 C   0  0  0  0  0  3  0  0  0  0  0  0
  -26.1080  -31.9520   23.4790 C   0  0  0  0  0  3  0  0  0  0  0  0
  -25.9580  -33.3170   23.9980 N   0  0  0  0  0  0  0  0  0  0  0  0
  -26.3230  -34.4260   23.3410 C   0  0  0  0  0  0  0  0  0  0  0  0
  -26.8930  -34.4020   22.2470 O   0  0  0  0  0  0  0  0  0  0  0  0
  -25.4390  -33.4140   24.8590 H   0  0  0  0  0  0  0  0  0  0  0  0
  -24.7350  -36.3780   23.3690 C   0  0  0  0  0  1  0  0  0  0  0  0
  -26.0000  -35.7770   24.0040 C   0  0  0  0  0  3  0  0  0  0  0  0
  -28.2650  -36.3870   24.7250 C   0  0  0  0  0  1  0  0  0  0  0  0
  -27.1050  -36.7550   23.9190 N   0  0  0  0  0  0  0  0  0  0  0  0
  -26.7950  -37.6770   24.2130 H   0  0  0  0  0  0  0  0  0  0  0  0
  -26.7100  -30.9960   24.5820 C   0  0  1  0  0  0  0  0  0  0  0  0
  -25.7340  -30.7210   25.7480 C   0  0  0  0  0  1  0  0  0  0  0  0
  -27.1180  -29.6360   23.9680 C   0  0  0  0  0  1  0  0  0  0  0  0
  -27.9930  -31.6200   25.1740 C   0  0  0  0  0  1  0  0  0  0  0  0
  2  1  2  0
  3  1  1  0
  4  5  2  0
  4  6  1  0
  5  2  1  0
  6  3  2  0
  7  5  1  0
  8  9  1  0
  8  7  1  0
 10  8  1  0
 11  8  1  0
 12 11  1  0
 13 12  1  0
 14 15  1  0
 14 13  1  0
 15 24  1  0
 16 24  1  0
 17 22  1  0
 18 19  1  0
 18 17  1  0
 20 19  1  0
 20 29  1  0
 20 21  1  0
 22 16  1  0
 22 21  1  0
 23 16  2  0
 24 25  1  0
 26 27  2  0
 27 46  1  0
 28 31  1  0
 28 27  1  0
 29 30  1  0
 29 26  1  0
 30 28  2  0
 31 32  1  0
 32 33  2  0
 34 37  1  0
 34 33  1  0
 35 34  2  0
 36 35  1  0
 36 31  2  0
 37 38  1  0
 38 39  1  0
 39 40  2  0
 41 40  1  0
 41 45  1  0
 42 41  2  0
 43 38  2  0
 43 42  1  0
 44 43  1  0
 46 47  1  0
 47 50  1  0
 47 49  1  0
 48 46  2  0
 51 26  1  0
 51 52  1  0
 53 51  1  0
 54  6  1  0
 55 56  1  0
 56 54  1  0
 56 57  1  6
 58 56  1  0
 59 58  1  0
 60 59  1  0
 61 63  1  0
 61 60  1  0
 62 73  2  0
 63 68  1  0
 64 72  1  0
 64 74  1  0
 65 71  1  0
 65 67  1  0
 66 72  1  0
 67 66  1  0
 68 67  2  0
 69 70  1  0
 69 63  2  0
 70 65  2  0
 71 64  1  0
 72 62  1  0
 74 75  1  0
 74 76  2  0
 77 75  1  0
 78 83  2  0
 78 87  1  0
 79 75  1  0
 79 83  1  0
 80 79  1  0
 81 82  1  0
 81 80  1  0
 82 78  1  0
 83 84  1  0
 84 85  2  0
 86 85  1  0
 87 86  2  0
 88 62  1  0
 88 89  1  0
 88 98  1  0
 89 92  1  0
 90 89  1  0
 90 94  1  0
 91 90  2  0
 94 93  1  0
 96 94  1  0
 96 97  1  0
 96 95  1  0
 98101  1  1
 98 99  1  0
100 98  1  0
M  ISO  4  16 100  24 100  60 101  61 101
M  END
>  <TORSDO>  (76) 
F 28

>  <SCORE>  (76) 
7.772

>  <name>  (76) 
76

>  <ligand_id>  (76) 
76

>  <original_smiles>  (76) 
[H]c1c([H])c([H])c2c(c1[H])C([H])([H])C([H])([H])C([H])([H])C2([H])N([H])C(=O)C1([H])N(C(=O)C([H])(N([H])C(=O)C([H])(N([H])C([H])([H])[H])C([H])([H])[H])C(C([H])([H])[H])(C([H])([H])[H])C([H])([H])[H])C([H])([H])c2c([H])c(OC([H])([H])C([H])([H])C([H])([H])[N+]([H])(C([H])([H])[H])C([H])([H])c3c([H])c([H])c([H])c(C([H])([H])[N+]([H])([H])C([H])([H])C([H])([H])C([H])([H])C([H])([H])C([H])([H])N([H])C(=O)N4C([H])([H])C([H])([H])C([H])([H])C([H])(n5nc(-c6c([H])c([H])c(Oc7c([H])c([H])c(F)c([H])c7F)c([H])c6[H])c(C(=O)N([H])[H])c5N([H])[H])C4([H])[H])c3[H])c([H])c([H])c2C1([H])[H]

>  <smiles>  (76) 
[H]c1c([H])c([H])c2c(c1[H])C([H])([H])C([H])([H])C([H])([H])C2([H])N([H])C(=O)C1([H])N(C(=O)C([H])(N([H])C(=O)C([H])(N([H])C([H])([H])[H])C([H])([H])[H])C(C([H])([H])[H])(C([H])([H])[H])C([H])([H])[H])C([H])([H])c2c([H])c(OC([H])([H])C([H])([H])C([H])([H])[N+]([H])(C([H])([H])[H])C([H])([H])c3c([H])c([H])c([H])c(C([H])([H])[N+]([H])([H])C([H])([H])C([H])([H])C([H])([H])C([H])([H])C([H])([H])N([H])C(=O)N4C([H])([H])C([H])([H])C([H])([H])C([H])(n5nc(-c6c([H])c([H])c(Oc7c([H])c([H])c(F)c([H])c7F)c([H])c6[H])c(C(=O)N([H])[H])c5N([H])[H])C4([H])[H])c3[H])c([H])c([H])c2C1([H])[H]

$$$$
77:0:0
     RDKit          3D

 94103  0  0  1  0  0  0  0  0999 V2000
  -27.3420  -21.3920   20.5420 C   0  0  0  0  0  2  0  0  0  0  0  0
  -31.2200  -14.4840   19.6500 C   0  0  0  0  0  0  0  0  0  0  0  0
  -30.7550  -12.3140   18.5990 C   0  0  0  0  0  2  0  0  0  0  0  0
  -29.6670  -12.5130   17.5260 C   0  0  0  0  0  2  0  0  0  0  0  0
  -28.2630  -12.3850   18.1490 C   0  0  0  0  0  2  0  0  0  0  0  0
  -28.0910  -13.2490   19.4280 C   0  0  0  0  0  3  0  0  0  0  0  0
  -29.2830  -13.0500   20.3910 C   0  0  0  0  0  2  0  0  0  0  0  0
  -30.5230  -13.3190   19.6450 N   0  0  0  0  0  0  0  0  0  0  0  0
  -32.2890  -14.6330   19.0480 O   0  0  0  0  0  0  0  0  0  0  0  0
  -29.1660  -18.7340   18.4080 C   0  0  0  0  0  3  0  0  0  0  0  0
  -28.4430  -19.8860   18.7550 C   0  0  0  0  0  3  0  0  0  0  0  0
  -28.3680  -19.1390   21.0730 C   0  0  0  0  0  3  0  0  0  0  0  0
  -29.4980  -17.7850   19.3880 C   0  0  0  0  0  0  0  0  0  0  0  0
  -29.0830  -17.9750   20.7230 C   0  0  0  0  0  0  0  0  0  0  0  0
  -28.0600  -20.1160   20.0980 C   0  0  0  0  0  0  0  0  0  0  0  0
  -29.4210  -16.9290   21.7730 C   0  0  0  0  0  2  0  0  0  0  0  0
  -30.3390  -16.5910   18.9850 C   0  0  0  0  0  2  0  0  0  0  0  0
  -30.6480  -16.0880   21.3810 C   0  0  0  0  0  2  0  0  0  0  0  0
  -30.5050  -15.5620   20.0200 N   0  0  0  0  0  0  0  0  0  0  0  0
  -25.8860  -13.8740   20.6020 C   0  0  0  0  0  0  0  0  0  0  0  0
  -24.8330  -13.1140   21.0350 C   0  0  0  0  0  0  0  0  0  0  0  0
  -25.1820  -11.7570   20.7490 C   0  0  0  0  0  0  0  0  0  0  0  0
  -26.8130  -12.9820   20.0850 N   0  0  0  0  0  0  0  0  0  0  0  0
  -26.4020  -11.6970   20.2290 N   0  0  0  0  0  0  0  0  0  0  0  0
  -24.4050  -10.5200   20.8910 C   0  0  0  0  0  0  0  0  0  0  0  0
  -24.7900   -9.5070   21.7970 C   0  0  0  0  0  3  0  0  0  0  0  0
  -24.0180   -8.3320   21.9280 C   0  0  0  0  0  3  0  0  0  0  0  0
  -22.8480   -8.1620   21.1510 C   0  0  0  0  0  0  0  0  0  0  0  0
  -22.4810   -9.1640   20.2350 C   0  0  0  0  0  3  0  0  0  0  0  0
  -23.2530  -10.3310   20.1020 C   0  0  0  0  0  3  0  0  0  0  0  0
  -22.0490   -7.0430   21.1920 O   0  0  0  0  0  0  0  0  0  0  0  0
  -21.8070   -6.3750   22.3650 C   0  0  0  0  0  0  0  0  0  0  0  0
  -21.2150   -7.0130   23.4770 C   0  0  0  0  0  3  0  0  0  0  0  0
  -20.9200   -6.2730   24.6400 C   0  0  0  0  0  3  0  0  0  0  0  0
  -21.2060   -4.8950   24.6890 C   0  0  0  0  0  0  0  0  0  0  0  0
  -21.7890   -4.2560   23.5800 C   0  0  0  0  0  3  0  0  0  0  0  0
  -22.0870   -4.9940   22.4210 C   0  0  0  0  0  0  0  0  0  0  0  0
  -22.6290   -4.3700   21.3480 F   0  0  0  0  0  0  0  0  0  0  0  0
  -20.9170   -4.1810   25.8020 F   0  0  0  0  0  0  0  0  0  0  0  0
  -23.5340  -13.6160   21.5970 C   0  0  0  0  0  0  0  0  0  0  0  0
  -22.9200  -12.8590   22.4980 N   0  0  0  0  0  0  0  0  0  0  0  0
  -23.0790  -14.7130   21.2720 O   0  0  0  0  0  0  0  0  0  0  0  0
  -23.3030  -11.9690   22.7820 H   0  0  0  0  0  0  0  0  0  0  0  0
  -22.0560  -13.1750   22.9140 H   0  0  0  0  0  0  0  0  0  0  0  0
  -26.1280  -15.2450   20.5880 N   0  0  0  0  0  0  0  0  0  0  0  0
  -25.4660  -15.9200   20.9510 H   0  0  0  0  0  0  0  0  0  0  0  0
  -26.9810  -15.6700   20.2460 H   0  0  0  0  0  0  0  0  0  0  0  0
  -26.9300  -22.2920   19.4450 N   0  0  0  0  0  4  0  0  0  0  0  0
  -26.1160  -22.8010   19.7480 H   0  0  0  0  0  0  0  0  0  0  0  0
  -26.6260  -21.7120   18.6810 H   0  0  0  0  0  0  0  0  0  0  0  0
  -27.9500  -23.2520   18.9530 C   0  0  0  0  0  2  0  0  0  0  0  0
  -28.1590  -24.4730   19.8710 C   0  0  0  0  0  2  0  0  0  0  0  0
  -28.8380  -25.6360   19.1080 C   0  0  0  0  0  2  0  0  0  0  0  0
  -28.7100  -26.8980   19.7640 O   0  0  0  0  0  0  0  0  0  0  0  0
  -24.6120  -31.6050   23.1420 C   0  0  0  0  0  0  0  0  0  0  0  0
  -27.4790  -27.5240   19.7800 C   0  0  0  0  0  0  0  0  0  0  0  0
  -23.4710  -30.2270   21.4370 C   0  0  0  0  0  3  0  0  0  0  0  0
  -24.9930  -28.8690   19.9110 C   0  0  0  0  0  0  0  0  0  0  0  0
  -25.9670  -30.7500   21.2340 C   0  0  0  0  0  2  0  0  0  0  0  0
  -26.1240  -29.4250   20.5210 C   0  0  0  0  0  0  0  0  0  0  0  0
  -27.3640  -28.7540   20.4640 C   0  0  0  0  0  3  0  0  0  0  0  0
  -26.3260  -26.9920   19.1520 C   0  0  0  0  0  3  0  0  0  0  0  0
  -25.0870  -27.6460   19.2310 C   0  0  0  0  0  3  0  0  0  0  0  0
  -23.7000  -29.6430   20.0180 C   0  0  0  0  0  2  0  0  0  0  0  0
  -24.7020  -30.8720   21.9970 N   0  0  0  0  0  0  0  0  0  0  0  0
  -23.5240  -31.7790   23.7080 O   0  0  0  0  0  0  0  0  0  0  0  0
  -22.8980  -29.1130   22.3390 C   0  0  0  0  0  0  0  0  0  0  0  0
  -21.5970  -28.8220   22.1770 N   0  0  0  0  0  0  0  0  0  0  0  0
  -23.6200  -28.5140   23.1410 O   0  0  0  0  0  0  0  0  0  0  0  0
  -21.0710  -29.3650   21.5060 H   0  0  0  0  0  0  0  0  0  0  0  0
  -18.3490  -27.2840   22.5180 C   0  0  0  0  0  0  0  0  0  0  0  0
  -20.8540  -27.7870   22.8930 C   0  0  0  0  0  3  0  0  0  0  0  0
  -21.1210  -26.3890   22.2900 C   0  0  0  0  0  2  0  0  0  0  0  0
  -20.0940  -25.9870   21.2270 C   0  0  0  0  0  2  0  0  0  0  0  0
  -18.6830  -25.9770   21.8180 C   0  0  0  0  0  2  0  0  0  0  0  0
  -19.3680  -28.1400   23.0090 C   0  0  0  0  0  0  0  0  0  0  0  0
  -19.0040  -29.3600   23.6200 C   0  0  0  0  0  3  0  0  0  0  0  0
  -17.6520  -29.7280   23.7430 C   0  0  0  0  0  3  0  0  0  0  0  0
  -16.6450  -28.8690   23.2680 C   0  0  0  0  0  3  0  0  0  0  0  0
  -16.9940  -27.6490   22.6650 C   0  0  0  0  0  3  0  0  0  0  0  0
  -25.8670  -32.2770   23.7830 C   0  0  0  0  0  3  0  0  0  0  0  0
  -26.4030  -31.5100   25.0510 C   0  0  1  0  0  0  0  0  0  0  0  0
  -25.3110  -31.2080   26.1030 C   0  0  0  0  0  1  0  0  0  0  0  0
  -27.0510  -30.1650   24.6430 C   0  0  0  0  0  1  0  0  0  0  0  0
  -27.5110  -32.3420   25.7380 C   0  0  0  0  0  1  0  0  0  0  0  0
  -25.5020  -33.6580   24.1250 N   0  0  0  0  0  0  0  0  0  0  0  0
  -25.8020  -34.7300   23.3790 C   0  0  0  0  0  0  0  0  0  0  0  0
  -26.4860  -34.6610   22.3530 O   0  0  0  0  0  0  0  0  0  0  0  0
  -24.8940  -33.7820   24.9210 H   0  0  0  0  0  0  0  0  0  0  0  0
  -24.0100  -36.4560   23.0160 C   0  0  0  0  0  1  0  0  0  0  0  0
  -25.2550  -36.0930   23.8420 C   0  0  0  0  0  3  0  0  0  0  0  0
  -27.3390  -37.0520   24.7120 C   0  0  0  0  0  1  0  0  0  0  0  0
  -26.2470  -37.1860   23.7530 N   0  0  0  0  0  0  0  0  0  0  0  0
  -25.8030  -38.0890   23.8990 H   0  0  0  0  0  0  0  0  0  0  0  0
  2 19  1  0
  3  8  1  0
  4  5  1  0
  4  3  1  0
  6  5  1  0
  6 23  1  0
  6  7  1  0
  8  2  1  0
  8  7  1  0
  9  2  2  0
 10 11  2  0
 10 13  1  0
 11 15  1  0
 13 14  2  0
 14 12  1  0
 14 16  1  0
 15  1  1  0
 15 12  2  0
 17 13  1  0
 17 19  1  0
 18 16  1  0
 19 18  1  0
 20 21  2  0
 21 40  1  0
 22 25  1  0
 22 21  1  0
 23 24  1  0
 23 20  1  0
 24 22  2  0
 25 26  1  0
 26 27  2  0
 28 31  1  0
 28 27  1  0
 29 28  2  0
 30 29  1  0
 30 25  2  0
 31 32  1  0
 32 37  2  0
 32 33  1  0
 33 34  2  0
 34 35  1  0
 35 39  1  0
 36 35  2  0
 37 36  1  0
 38 37  1  0
 40 41  1  0
 41 43  1  0
 41 44  1  0
 42 40  2  0
 45 20  1  0
 45 46  1  0
 47 45  1  0
 48 49  1  0
 48  1  1  0
 50 48  1  0
 51 48  1  0
 51 52  1  0
 53 54  1  0
 53 52  1  0
 54 56  1  0
 55 66  2  0
 56 61  1  0
 57 65  1  0
 57 67  1  0
 58 64  1  0
 58 60  1  0
 59 65  1  0
 60 59  1  0
 61 60  2  0
 62 63  1  0
 62 56  2  0
 63 58  2  0
 64 57  1  0
 65 55  1  0
 67 69  2  0
 68 67  1  0
 70 68  1  0
 71 80  2  0
 71 76  1  0
 72 68  1  0
 72 76  1  0
 73 72  1  0
 74 75  1  0
 74 73  1  0
 75 71  1  0
 76 77  2  0
 77 78  1  0
 79 78  2  0
 80 79  1  0
 81 55  1  0
 81 86  1  0
 81 82  1  0
 82 85  1  1
 82 83  1  0
 84 82  1  0
 86 89  1  0
 87 91  1  0
 87 86  1  0
 88 87  2  0
 91 90  1  0
 93 91  1  0
 93 94  1  0
 93 92  1  0
M  ISO  4   2 100  19 100  53 101  54 101
M  END
>  <TORSDO>  (77) 
F 20

>  <SCORE>  (77) 
-10.914

>  <name>  (77) 
77

>  <ligand_id>  (77) 
77

>  <original_smiles>  (77) 
[H]c1c([H])c([H])c2c(c1[H])C([H])([H])C([H])([H])C([H])([H])C2([H])N([H])C(=O)C1([H])N(C(=O)C([H])(N([H])C(=O)C([H])(N([H])C([H])([H])[H])C([H])([H])[H])C(C([H])([H])[H])(C([H])([H])[H])C([H])([H])[H])C([H])([H])c2c([H])c(OC([H])([H])C([H])([H])C([H])([H])[N+]([H])([H])C([H])([H])c3c([H])c([H])c4c(c3[H])C([H])([H])C([H])([H])N(C(=O)N3C([H])([H])C([H])([H])C([H])([H])C([H])(n5nc(-c6c([H])c([H])c(Oc7c([H])c([H])c(F)c([H])c7F)c([H])c6[H])c(C(=O)N([H])[H])c5N([H])[H])C3([H])[H])C4([H])[H])c([H])c([H])c2C1([H])[H]

>  <smiles>  (77) 
[H]c1c([H])c([H])c2c(c1[H])C([H])([H])C([H])([H])C([H])([H])C2([H])N([H])C(=O)C1([H])N(C(=O)C([H])(N([H])C(=O)C([H])(N([H])C([H])([H])[H])C([H])([H])[H])C(C([H])([H])[H])(C([H])([H])[H])C([H])([H])[H])C([H])([H])c2c([H])c(OC([H])([H])C([H])([H])C([H])([H])[N+]([H])([H])C([H])([H])c3c([H])c([H])c4c(c3[H])C([H])([H])C([H])([H])N(C(=O)N3C([H])([H])C([H])([H])C([H])([H])C([H])(n5nc(-c6c([H])c([H])c(Oc7c([H])c([H])c(F)c([H])c7F)c([H])c6[H])c(C(=O)N([H])[H])c5N([H])[H])C3([H])[H])C4([H])[H])c([H])c([H])c2C1([H])[H]

$$$$
78:0:0
     RDKit          3D

100108  0  0  1  0  0  0  0  0999 V2000
  -28.0140  -19.4080   17.9580 C   0  0  0  0  0  3  0  0  0  0  0  0
  -28.5060  -21.4210   16.6930 C   0  0  0  0  0  3  0  0  0  0  0  0
  -28.4270  -20.0200   16.7630 C   0  0  0  0  0  0  0  0  0  0  0  0
  -27.7030  -20.1830   19.0960 C   0  0  0  0  0  0  0  0  0  0  0  0
  -28.1630  -22.2210   17.8050 C   0  0  0  0  0  0  0  0  0  0  0  0
  -27.7740  -21.6040   19.0270 C   0  0  0  0  0  0  0  0  0  0  0  0
  -28.7700  -19.1830   15.5470 C   0  0  0  0  0  1  0  0  0  0  0  0
  -27.4060  -22.4610   20.2370 C   0  0  0  0  0  1  0  0  0  0  0  0
  -27.2860  -19.4430   20.3670 C   0  0  0  0  0  2  0  0  0  0  0  0
  -28.4700  -19.1320   21.3070 C   0  0  0  0  0  2  0  0  0  0  0  0
  -29.4330  -18.2010   20.6810 N   0  0  0  0  0  4  0  0  0  0  0  0
  -29.7930  -18.6380   19.8450 H   0  0  0  0  0  0  0  0  0  0  0  0
  -28.9250  -17.3770   20.4090 H   0  0  0  0  0  0  0  0  0  0  0  0
  -30.5690  -17.7930   21.5370 C   0  0  0  0  0  2  0  0  0  0  0  0
  -31.3520  -16.6200   20.9120 C   0  0  0  0  0  2  0  0  0  0  0  0
  -30.6260  -15.2600   21.0610 C   0  0  0  0  0  2  0  0  0  0  0  0
  -31.1750  -14.1320   20.1680 C   0  0  0  0  0  0  0  0  0  0  0  0
  -30.7240  -12.0270   18.9500 C   0  0  0  0  0  2  0  0  0  0  0  0
  -29.7760  -12.2970   17.7660 C   0  0  0  0  0  2  0  0  0  0  0  0
  -28.3020  -12.2500   18.2150 C   0  0  0  0  0  2  0  0  0  0  0  0
  -28.0370  -13.1060   19.4830 C   0  0  0  0  0  3  0  0  0  0  0  0
  -29.0870  -12.7950   20.5740 C   0  0  0  0  0  2  0  0  0  0  0  0
  -30.4240  -13.0130   19.9980 N   0  0  0  0  0  0  0  0  0  0  0  0
  -32.2490  -14.3030   19.5840 O   0  0  0  0  0  0  0  0  0  0  0  0
  -25.6790  -13.8730   20.1840 C   0  0  0  0  0  0  0  0  0  0  0  0
  -24.5720  -13.1740   20.5850 C   0  0  0  0  0  0  0  0  0  0  0  0
  -24.9560  -11.7970   20.5880 C   0  0  0  0  0  0  0  0  0  0  0  0
  -26.6720  -12.9270   19.9740 N   0  0  0  0  0  0  0  0  0  0  0  0
  -26.2380  -11.6760   20.2700 N   0  0  0  0  0  0  0  0  0  0  0  0
  -24.1610  -10.5850   20.8190 C   0  0  0  0  0  0  0  0  0  0  0  0
  -24.5440   -9.6250   21.7830 C   0  0  0  0  0  3  0  0  0  0  0  0
  -23.7540   -8.4760   22.0000 C   0  0  0  0  0  3  0  0  0  0  0  0
  -22.5700   -8.2760   21.2530 C   0  0  0  0  0  0  0  0  0  0  0  0
  -22.2060   -9.2230   20.2790 C   0  0  0  0  0  3  0  0  0  0  0  0
  -22.9950  -10.3640   20.0600 C   0  0  0  0  0  3  0  0  0  0  0  0
  -21.7540   -7.1780   21.3780 O   0  0  0  0  0  0  0  0  0  0  0  0
  -21.6590   -6.4830   22.5570 C   0  0  0  0  0  0  0  0  0  0  0  0
  -21.2680   -7.1090   23.7610 C   0  0  0  0  0  3  0  0  0  0  0  0
  -21.1150   -6.3440   24.9340 C   0  0  0  0  0  3  0  0  0  0  0  0
  -21.3430   -4.9550   24.9060 C   0  0  0  0  0  0  0  0  0  0  0  0
  -21.7270   -4.3300   23.7060 C   0  0  0  0  0  3  0  0  0  0  0  0
  -21.8810   -5.0910   22.5350 C   0  0  0  0  0  0  0  0  0  0  0  0
  -22.2310   -4.4800   21.3770 F   0  0  0  0  0  0  0  0  0  0  0  0
  -21.1880   -4.2190   26.0310 F   0  0  0  0  0  0  0  0  0  0  0  0
  -23.2060  -13.7370   20.8540 C   0  0  0  0  0  0  0  0  0  0  0  0
  -22.4520  -13.1120   21.7520 N   0  0  0  0  0  0  0  0  0  0  0  0
  -22.8180  -14.7650   20.3020 O   0  0  0  0  0  0  0  0  0  0  0  0
  -22.7780  -12.2800   22.2200 H   0  0  0  0  0  0  0  0  0  0  0  0
  -21.5350  -13.4710   21.9750 H   0  0  0  0  0  0  0  0  0  0  0  0
  -25.9170  -15.2250   19.9580 N   0  0  0  0  0  0  0  0  0  0  0  0
  -25.1710  -15.9100   20.0090 H   0  0  0  0  0  0  0  0  0  0  0  0
  -26.7510  -15.5770   19.5070 H   0  0  0  0  0  0  0  0  0  0  0  0
  -28.2070  -23.7360   17.6240 C   0  0  0  0  0  2  0  0  0  0  0  0
  -29.4020  -24.3150   18.2650 N   0  0  0  0  0  4  0  0  0  0  0  0
  -30.1660  -23.6680   18.1470 H   0  0  0  0  0  0  0  0  0  0  0  0
  -29.2170  -24.3990   19.2510 H   0  0  0  0  0  0  0  0  0  0  0  0
  -29.8140  -25.6340   17.7380 C   0  0  0  0  0  2  0  0  0  0  0  0
  -30.5660  -26.4670   18.7950 C   0  0  0  0  0  2  0  0  0  0  0  0
  -29.6510  -27.4180   19.5830 C   0  0  0  0  0  2  0  0  0  0  0  0
  -28.5420  -26.6950   20.1100 O   0  0  0  0  0  0  0  0  0  0  0  0
  -24.5880  -31.8090   23.1640 C   0  0  0  0  0  0  0  0  0  0  0  0
  -27.3710  -27.4110   20.1670 C   0  0  0  0  0  0  0  0  0  0  0  0
  -23.4350  -30.3760   21.5090 C   0  0  0  0  0  3  0  0  0  0  0  0
  -24.9410  -28.8440   20.1370 C   0  0  0  0  0  0  0  0  0  0  0  0
  -25.9560  -30.7780   21.3580 C   0  0  0  0  0  2  0  0  0  0  0  0
  -26.0770  -29.4030   20.7370 C   0  0  0  0  0  0  0  0  0  0  0  0
  -27.2960  -28.6940   20.7520 C   0  0  0  0  0  3  0  0  0  0  0  0
  -26.2160  -26.8440   19.5950 C   0  0  0  0  0  3  0  0  0  0  0  0
  -25.0030  -27.5590   19.5680 C   0  0  0  0  0  3  0  0  0  0  0  0
  -23.6830  -29.6810   20.1440 C   0  0  0  0  0  2  0  0  0  0  0  0
  -24.6760  -31.0030   22.0690 N   0  0  0  0  0  0  0  0  0  0  0  0
  -23.4940  -32.0720   23.6800 O   0  0  0  0  0  0  0  0  0  0  0  0
  -22.7770  -29.3560   22.4650 C   0  0  0  0  0  0  0  0  0  0  0  0
  -21.4580  -29.1620   22.3150 N   0  0  0  0  0  0  0  0  0  0  0  0
  -23.4530  -28.7400   23.2930 O   0  0  0  0  0  0  0  0  0  0  0  0
  -20.9750  -29.7130   21.6180 H   0  0  0  0  0  0  0  0  0  0  0  0
  -18.0840  -27.9490   22.7590 C   0  0  0  0  0  0  0  0  0  0  0  0
  -20.6350  -28.2220   23.0750 C   0  0  0  0  0  3  0  0  0  0  0  0
  -20.7570  -26.7890   22.5060 C   0  0  0  0  0  2  0  0  0  0  0  0
  -19.6750  -26.4560   21.4730 C   0  0  0  0  0  2  0  0  0  0  0  0
  -18.2810  -26.5970   22.0920 C   0  0  0  0  0  2  0  0  0  0  0  0
  -19.1910  -28.7180   23.2060 C   0  0  0  0  0  0  0  0  0  0  0  0
  -18.9560  -29.9840   23.7850 C   0  0  0  0  0  3  0  0  0  0  0  0
  -17.6470  -30.4800   23.9250 C   0  0  0  0  0  3  0  0  0  0  0  0
  -16.5540  -29.7070   23.4970 C   0  0  0  0  0  3  0  0  0  0  0  0
  -16.7740  -28.4440   22.9190 C   0  0  0  0  0  3  0  0  0  0  0  0
  -25.8550  -32.4600   23.8070 C   0  0  0  0  0  3  0  0  0  0  0  0
  -25.5200  -33.8520   24.1350 N   0  0  0  0  0  0  0  0  0  0  0  0
  -25.8420  -34.9090   23.3790 C   0  0  0  0  0  0  0  0  0  0  0  0
  -26.5260  -34.8180   22.3540 O   0  0  0  0  0  0  0  0  0  0  0  0
  -24.9140  -33.9970   24.9300 H   0  0  0  0  0  0  0  0  0  0  0  0
  -24.0810  -36.6650   23.0050 C   0  0  0  0  0  1  0  0  0  0  0  0
  -25.3210  -36.2880   23.8300 C   0  0  0  0  0  3  0  0  0  0  0  0
  -27.4320  -37.2130   24.6760 C   0  0  0  0  0  1  0  0  0  0  0  0
  -26.3340  -37.3610   23.7250 N   0  0  0  0  0  0  0  0  0  0  0  0
  -25.9080  -38.2730   23.8720 H   0  0  0  0  0  0  0  0  0  0  0  0
  -26.3690  -31.6920   25.0850 C   0  0  1  0  0  0  0  0  0  0  0  0
  -25.2650  -31.4330   26.1370 C   0  0  0  0  0  1  0  0  0  0  0  0
  -26.9780  -30.3260   24.6930 C   0  0  0  0  0  1  0  0  0  0  0  0
  -27.4990  -32.5000   25.7640 C   0  0  0  0  0  1  0  0  0  0  0  0
  1  4  1  0
  2  3  1  0
  2  5  2  0
  3  1  2  0
  4  9  1  0
  5  6  1  0
  6  4  2  0
  6  8  1  0
  7  3  1  0
  9 10  1  0
 11 10  1  0
 11 14  1  0
 12 11  1  0
 13 11  1  0
 15 16  1  0
 15 14  1  0
 17 16  1  0
 18 23  1  0
 19 20  1  0
 19 18  1  0
 21 20  1  0
 21 28  1  0
 21 22  1  0
 23 17  1  0
 23 22  1  0
 24 17  2  0
 25 26  2  0
 26 27  1  0
 26 45  1  0
 27 30  1  0
 28 25  1  0
 28 29  1  0
 29 27  2  0
 30 31  1  0
 31 32  2  0
 33 36  1  0
 33 32  1  0
 34 33  2  0
 35 34  1  0
 35 30  2  0
 36 37  1  0
 37 38  1  0
 38 39  2  0
 40 39  1  0
 40 44  1  0
 41 40  2  0
 42 37  2  0
 42 41  1  0
 43 42  1  0
 45 46  1  0
 46 49  1  0
 46 48  1  0
 47 45  2  0
 50 51  1  0
 50 25  1  0
 52 50  1  0
 53  5  1  0
 53 54  1  0
 54 56  1  0
 55 54  1  0
 57 54  1  0
 57 58  1  0
 58 59  1  0
 59 60  1  0
 60 62  1  0
 61 72  2  0
 62 67  1  0
 63 71  1  0
 63 73  1  0
 64 70  1  0
 64 66  1  0
 65 71  1  0
 66 67  2  0
 66 65  1  0
 68 62  2  0
 69 68  1  0
 69 64  2  0
 70 63  1  0
 71 61  1  0
 73 75  2  0
 74 73  1  0
 76 74  1  0
 77 86  2  0
 77 82  1  0
 78 74  1  0
 78 82  1  0
 79 78  1  0
 80 81  1  0
 80 79  1  0
 81 77  1  0
 82 83  2  0
 83 84  1  0
 85 84  2  0
 86 85  1  0
 87 61  1  0
 87 88  1  0
 87 97  1  0
 88 91  1  0
 89 93  1  0
 89 88  1  0
 90 89  2  0
 93 92  1  0
 95 93  1  0
 95 96  1  0
 95 94  1  0
 97100  1  1
 97 98  1  0
 99 97  1  0
M  ISO  4  16 100  17 100  59 101  60 101
M  END
>  <TORSDO>  (78) 
F 27

>  <SCORE>  (78) 
-10.483

>  <name>  (78) 
78

>  <ligand_id>  (78) 
78

>  <original_smiles>  (78) 
[H]c1c([H])c([H])c2c(c1[H])C([H])([H])C([H])([H])C([H])([H])C2([H])N([H])C(=O)C1([H])N(C(=O)C([H])(N([H])C(=O)C([H])(N([H])C([H])([H])[H])C([H])([H])[H])C(C([H])([H])[H])(C([H])([H])[H])C([H])([H])[H])C([H])([H])c2c([H])c(OC([H])([H])C([H])([H])C([H])([H])[N+]([H])([H])C([H])([H])c3c([H])c(C([H])([H])[H])c([H])c(C([H])([H])C([H])([H])[N+]([H])([H])C([H])([H])C([H])([H])C([H])([H])C(=O)N4C([H])([H])C([H])([H])C([H])([H])C([H])(n5nc(-c6c([H])c([H])c(Oc7c([H])c([H])c(F)c([H])c7F)c([H])c6[H])c(C(=O)N([H])[H])c5N([H])[H])C4([H])[H])c3C([H])([H])[H])c([H])c([H])c2C1([H])[H]

>  <smiles>  (78) 
[H]c1c([H])c([H])c2c(c1[H])C([H])([H])C([H])([H])C([H])([H])C2([H])N([H])C(=O)C1([H])N(C(=O)C([H])(N([H])C(=O)C([H])(N([H])C([H])([H])[H])C([H])([H])[H])C(C([H])([H])[H])(C([H])([H])[H])C([H])([H])[H])C([H])([H])c2c([H])c(OC([H])([H])C([H])([H])C([H])([H])[N+]([H])([H])C([H])([H])c3c([H])c(C([H])([H])[H])c([H])c(C([H])([H])C([H])([H])[N+]([H])([H])C([H])([H])C([H])([H])C([H])([H])C(=O)N4C([H])([H])C([H])([H])C([H])([H])C([H])(n5nc(-c6c([H])c([H])c(Oc7c([H])c([H])c(F)c([H])c7F)c([H])c6[H])c(C(=O)N([H])[H])c5N([H])[H])C4([H])[H])c3C([H])([H])[H])c([H])c([H])c2C1([H])[H]

$$$$
79:0:0
     RDKit          3D

 96104  0  0  1  0  0  0  0  0999 V2000
  -28.0170  -23.3500   21.2070 C   0  0  0  0  0  0  0  0  0  0  0  0
  -28.2790  -24.3890   20.1270 C   0  0  0  0  0  2  0  0  0  0  0  0
  -29.8650  -24.6040   22.5400 C   0  0  0  0  0  2  0  0  0  0  0  0
  -29.6050  -25.8820   21.7030 C   0  0  0  0  0  2  0  0  0  0  0  0
  -28.6870  -23.5880   22.5810 C   0  0  0  0  0  3  0  0  0  0  0  0
  -28.3750  -25.7680   20.7850 C   0  0  0  0  0  3  0  0  0  0  0  0
  -27.2450  -22.4120   20.9790 O   0  0  0  0  0  0  0  0  0  0  0  0
  -28.9890  -22.2940   23.2610 N   0  0  0  0  0  4  0  0  0  0  0  0
  -28.0810  -21.9410   23.5250 H   0  0  0  0  0  0  0  0  0  0  0  0
  -29.4710  -22.4750   24.1280 H   0  0  0  0  0  0  0  0  0  0  0  0
  -29.6390  -21.1610   22.5280 C   0  0  0  0  0  3  0  0  0  0  0  0
  -31.1270  -21.3580   22.1480 C   0  0  0  0  0  3  0  0  0  0  0  0
  -31.8180  -20.1460   21.4550 C   0  0  0  0  0  2  0  0  0  0  0  0
  -31.8860  -18.9000   22.2640 N   0  0  0  0  0  4  0  0  0  0  0  0
  -32.7680  -18.4520   22.0670 H   0  0  0  0  0  0  0  0  0  0  0  0
  -31.9130  -19.1290   23.2440 H   0  0  0  0  0  0  0  0  0  0  0  0
  -30.8160  -17.8980   22.0230 C   0  0  0  0  0  2  0  0  0  0  0  0
  -31.3150  -16.6670   21.2360 C   0  0  0  0  0  2  0  0  0  0  0  0
  -30.2840  -15.5070   21.1210 C   0  0  0  0  0  2  0  0  0  0  0  0
  -30.7040  -14.4180   20.1110 C   0  0  0  0  0  0  0  0  0  0  0  0
  -30.2490  -12.3090   18.9020 C   0  0  0  0  0  2  0  0  0  0  0  0
  -29.2530  -12.5720   17.7590 C   0  0  0  0  0  2  0  0  0  0  0  0
  -27.7980  -12.4760   18.2590 C   0  0  0  0  0  2  0  0  0  0  0  0
  -27.5590  -13.2750   19.5700 C   0  0  0  0  0  3  0  0  0  0  0  0
  -28.6700  -13.0110   20.6090 C   0  0  0  0  0  2  0  0  0  0  0  0
  -29.9700  -13.2830   19.9720 N   0  0  0  0  0  0  0  0  0  0  0  0
  -31.7090  -14.6320   19.4220 O   0  0  0  0  0  0  0  0  0  0  0  0
  -25.2020  -13.8980   20.3930 C   0  0  0  0  0  0  0  0  0  0  0  0
  -24.1490  -13.1380   20.8190 C   0  0  0  0  0  0  0  0  0  0  0  0
  -24.5940  -11.7800   20.7660 C   0  0  0  0  0  0  0  0  0  0  0  0
  -26.2300  -13.0100   20.1160 N   0  0  0  0  0  0  0  0  0  0  0  0
  -25.8660  -11.7290   20.3880 N   0  0  0  0  0  0  0  0  0  0  0  0
  -23.8670  -10.5250   21.0030 C   0  0  0  0  0  0  0  0  0  0  0  0
  -24.3330   -9.5680   21.9290 C   0  0  0  0  0  3  0  0  0  0  0  0
  -23.6080   -8.3780   22.1530 C   0  0  0  0  0  3  0  0  0  0  0  0
  -22.4060   -8.1360   21.4500 C   0  0  0  0  0  0  0  0  0  0  0  0
  -21.9560   -9.0830   20.5140 C   0  0  0  0  0  3  0  0  0  0  0  0
  -22.6780  -10.2660   20.2880 C   0  0  0  0  0  3  0  0  0  0  0  0
  -21.6480   -6.9970   21.5850 O   0  0  0  0  0  0  0  0  0  0  0  0
  -21.6310   -6.2760   22.7510 C   0  0  0  0  0  0  0  0  0  0  0  0
  -21.2540   -6.8590   23.9820 C   0  0  0  0  0  3  0  0  0  0  0  0
  -21.1840   -6.0650   25.1440 C   0  0  0  0  0  3  0  0  0  0  0  0
  -21.4790   -4.6900   25.0780 C   0  0  0  0  0  0  0  0  0  0  0  0
  -21.8480   -4.1070   23.8530 C   0  0  0  0  0  3  0  0  0  0  0  0
  -21.9230   -4.8980   22.6930 C   0  0  0  0  0  0  0  0  0  0  0  0
  -22.2580   -4.3270   21.5100 F   0  0  0  0  0  0  0  0  0  0  0  0
  -21.4030   -3.9260   26.1930 F   0  0  0  0  0  0  0  0  0  0  0  0
  -22.7730  -13.6260   21.1670 C   0  0  0  0  0  0  0  0  0  0  0  0
  -22.0950  -12.9430   22.0800 N   0  0  0  0  0  0  0  0  0  0  0  0
  -22.3150  -14.6540   20.6670 O   0  0  0  0  0  0  0  0  0  0  0  0
  -22.4790  -12.1140   22.5080 H   0  0  0  0  0  0  0  0  0  0  0  0
  -21.1700  -13.2460   22.3500 H   0  0  0  0  0  0  0  0  0  0  0  0
  -25.3690  -15.2680   20.1980 N   0  0  0  0  0  0  0  0  0  0  0  0
  -24.6080  -15.9260   20.3290 H   0  0  0  0  0  0  0  0  0  0  0  0
  -26.2100  -15.6970   19.8330 H   0  0  0  0  0  0  0  0  0  0  0  0
  -28.3930  -26.7930   19.7960 O   0  0  0  0  0  0  0  0  0  0  0  0
  -24.6070  -31.7620   23.1060 C   0  0  0  0  0  0  0  0  0  0  0  0
  -27.2270  -27.5110   19.8020 C   0  0  0  0  0  0  0  0  0  0  0  0
  -23.3670  -30.3810   21.4680 C   0  0  0  0  0  3  0  0  0  0  0  0
  -24.7980  -28.9190   19.9530 C   0  0  0  0  0  0  0  0  0  0  0  0
  -25.8640  -30.8220   21.1730 C   0  0  0  0  0  2  0  0  0  0  0  0
  -25.9630  -29.4700   20.5050 C   0  0  0  0  0  0  0  0  0  0  0  0
  -27.1850  -28.7690   20.4360 C   0  0  0  0  0  3  0  0  0  0  0  0
  -26.0520  -26.9590   19.2510 C   0  0  0  0  0  3  0  0  0  0  0  0
  -24.8340  -27.6590   19.3260 C   0  0  0  0  0  3  0  0  0  0  0  0
  -23.5340  -29.7380   20.0660 C   0  0  0  0  0  2  0  0  0  0  0  0
  -24.6340  -30.9970   21.9790 N   0  0  0  0  0  0  0  0  0  0  0  0
  -23.5410  -31.9980   23.6930 O   0  0  0  0  0  0  0  0  0  0  0  0
  -22.7720  -29.3220   22.4240 C   0  0  0  0  0  0  0  0  0  0  0  0
  -21.4560  -29.0900   22.3090 N   0  0  0  0  0  0  0  0  0  0  0  0
  -23.4890  -28.7130   23.2210 O   0  0  0  0  0  0  0  0  0  0  0  0
  -20.9350  -29.6350   21.6360 H   0  0  0  0  0  0  0  0  0  0  0  0
  -18.1530  -27.6980   22.7510 C   0  0  0  0  0  0  0  0  0  0  0  0
  -20.6840  -28.1100   23.0740 C   0  0  0  0  0  3  0  0  0  0  0  0
  -20.8870  -26.6840   22.5150 C   0  0  0  0  0  2  0  0  0  0  0  0
  -19.8290  -26.2870   21.4820 C   0  0  0  0  0  2  0  0  0  0  0  0
  -18.4260  -26.3520   22.0960 C   0  0  0  0  0  2  0  0  0  0  0  0
  -19.2140  -28.5290   23.1950 C   0  0  0  0  0  0  0  0  0  0  0  0
  -18.9080  -29.7850   23.7640 C   0  0  0  0  0  3  0  0  0  0  0  0
  -17.5710  -30.2090   23.8960 C   0  0  0  0  0  3  0  0  0  0  0  0
  -16.5240  -29.3730   23.4690 C   0  0  0  0  0  3  0  0  0  0  0  0
  -16.8150  -28.1210   22.9000 C   0  0  0  0  0  3  0  0  0  0  0  0
  -25.9040  -32.3970   23.6990 C   0  0  0  0  0  3  0  0  0  0  0  0
  -25.5840  -33.7770   24.0910 N   0  0  0  0  0  0  0  0  0  0  0  0
  -25.8840  -34.8610   23.3620 C   0  0  0  0  0  0  0  0  0  0  0  0
  -26.5370  -34.8060   22.3150 O   0  0  0  0  0  0  0  0  0  0  0  0
  -25.0110  -33.8930   24.9130 H   0  0  0  0  0  0  0  0  0  0  0  0
  -24.1270  -36.6390   23.0970 C   0  0  0  0  0  1  0  0  0  0  0  0
  -25.3830  -36.2240   23.8790 C   0  0  0  0  0  3  0  0  0  0  0  0
  -27.5180  -37.1050   24.7120 C   0  0  0  0  0  1  0  0  0  0  0  0
  -26.4000  -37.2960   23.7920 N   0  0  0  0  0  0  0  0  0  0  0  0
  -25.9840  -38.2020   23.9860 H   0  0  0  0  0  0  0  0  0  0  0  0
  -26.4900  -31.5890   24.9200 C   0  0  1  0  0  0  0  0  0  0  0  0
  -25.4510  -31.2860   26.0230 C   0  0  0  0  0  1  0  0  0  0  0  0
  -27.0790  -30.2430   24.4360 C   0  0  0  0  0  1  0  0  0  0  0  0
  -27.6590  -32.3760   25.5610 C   0  0  0  0  0  1  0  0  0  0  0  0
  1  5  1  0
  2  6  1  0
  2  1  1  0
  3  5  1  0
  4  3  1  0
  5  8  1  0
  6 56  1  0
  6  4  1  0
  7  1  2  0
  8  9  1  0
  8 10  1  0
 11  8  1  0
 12 11  2  0
 13 12  1  0
 13 14  1  0
 14 16  1  0
 15 14  1  0
 17 14  1  0
 18 17  1  0
 19 18  1  0
 20 19  1  0
 21 26  1  0
 22 23  1  0
 22 21  1  0
 24 23  1  0
 24 31  1  0
 24 25  1  0
 26 20  1  0
 26 25  1  0
 27 20  2  0
 28 29  2  0
 29 48  1  0
 30 29  1  0
 30 33  1  0
 31 32  1  0
 31 28  1  0
 32 30  2  0
 33 34  1  0
 34 35  2  0
 36 39  1  0
 36 35  1  0
 37 36  2  0
 38 37  1  0
 38 33  2  0
 39 40  1  0
 40 41  1  0
 41 42  2  0
 43 42  1  0
 43 47  1  0
 44 43  2  0
 45 40  2  0
 45 44  1  0
 46 45  1  0
 48 49  1  0
 49 52  1  0
 49 51  1  0
 50 48  2  0
 53 54  1  0
 53 28  1  0
 55 53  1  0
 56 58  1  0
 57 68  2  0
 58 63  1  0
 59 67  1  0
 59 69  1  0
 60 66  1  0
 60 62  1  0
 61 67  1  0
 62 61  1  0
 63 62  2  0
 64 65  1  0
 64 58  2  0
 65 60  2  0
 66 59  1  0
 67 57  1  0
 69 71  2  0
 70 69  1  0
 72 70  1  0
 73 82  2  0
 73 78  1  0
 74 70  1  0
 74 78  1  0
 75 74  1  0
 76 77  1  0
 76 75  1  0
 77 73  1  0
 78 79  2  0
 79 80  1  0
 81 80  2  0
 82 81  1  0
 83 57  1  0
 83 84  1  0
 83 93  1  0
 84 87  1  0
 85 89  1  0
 85 84  1  0
 86 85  2  0
 89 88  1  0
 91 89  1  0
 91 92  1  0
 91 90  1  0
 93 96  1  1
 93 94  1  0
 95 93  1  0
M  ISO  4   6 101  19 100  20 100  56 101
M  END
>  <TORSDO>  (79) 
F 24

>  <SCORE>  (79) 
-11.857

>  <name>  (79) 
79

>  <ligand_id>  (79) 
79

>  <original_smiles>  (79) 
[H]c1c([H])c([H])c2c(c1[H])C([H])([H])C([H])([H])C([H])([H])C2([H])N([H])C(=O)C1([H])N(C(=O)C([H])(N([H])C(=O)C([H])(N([H])C([H])([H])[H])C([H])([H])[H])C(C([H])([H])[H])(C([H])([H])[H])C([H])([H])[H])C([H])([H])c2c([H])c(OC3([H])C([H])([H])C(=O)C([H])([N+]([H])([H])C([H])([H])C([H])([H])C([H])([H])[N+]([H])([H])C([H])([H])C([H])([H])C([H])([H])C(=O)N4C([H])([H])C([H])([H])C([H])([H])C([H])(n5nc(-c6c([H])c([H])c(Oc7c([H])c([H])c(F)c([H])c7F)c([H])c6[H])c(C(=O)N([H])[H])c5N([H])[H])C4([H])[H])C([H])([H])C3([H])[H])c([H])c([H])c2C1([H])[H]

>  <smiles>  (79) 
[H]c1c([H])c([H])c2c(c1[H])C([H])([H])C([H])([H])C([H])([H])C2([H])N([H])C(=O)C1([H])N(C(=O)C([H])(N([H])C(=O)C([H])(N([H])C([H])([H])[H])C([H])([H])[H])C(C([H])([H])[H])(C([H])([H])[H])C([H])([H])[H])C([H])([H])c2c([H])c(OC3([H])C([H])([H])C(=O)C([H])([N+]([H])([H])C([H])([H])C([H])([H])C([H])([H])[N+]([H])([H])C([H])([H])C([H])([H])C([H])([H])C(=O)N4C([H])([H])C([H])([H])C([H])([H])C([H])(n5nc(-c6c([H])c([H])c(Oc7c([H])c([H])c(F)c([H])c7F)c([H])c6[H])c(C(=O)N([H])[H])c5N([H])[H])C4([H])[H])C([H])([H])C3([H])[H])c([H])c([H])c2C1([H])[H]

$$$$
80:0:0
     RDKit          3D

 92101  0  0  1  0  0  0  0  0999 V2000
  -27.7270  -20.1000   20.6610 C   0  0  0  0  0  3  0  0  0  0  0  0
  -28.4550  -18.8780   20.5370 C   0  0  0  0  0  3  0  0  0  0  0  0
  -30.4840  -20.1590   20.1900 C   0  0  0  0  0  3  0  0  0  0  0  0
  -29.7340  -21.3970   20.2670 C   0  0  0  0  0  0  0  0  0  0  0  0
  -28.3740  -21.3520   20.5170 C   0  0  0  0  0  0  0  0  0  0  0  0
  -29.8580  -18.8500   20.3040 C   0  0  0  0  0  0  0  0  0  0  0  0
  -30.0960  -22.8760   20.1370 C   0  0  0  0  0  0  0  0  0  0  0  0
  -27.7640  -22.7600   20.6250 C   0  0  0  0  0  2  0  0  0  0  0  0
  -28.8000  -23.7970   20.0540 C   0  0  2  0  0  0  0  0  0  0  0  0
  -28.5090  -24.0530   18.5610 C   0  0  0  0  0  1  0  0  0  0  0  0
  -31.2400  -23.3260   20.0130 O   0  0  0  0  0  0  0  0  0  0  0  0
  -30.7010  -17.4820   20.1940 C   0  0  0  0  0  2  0  0  0  0  0  0
  -30.8780  -14.8850   19.9720 C   0  0  0  0  0  0  0  0  0  0  0  0
  -30.6260  -12.6010   18.9660 C   0  0  0  0  0  2  0  0  0  0  0  0
  -29.6380  -12.6770   17.7800 C   0  0  0  0  0  2  0  0  0  0  0  0
  -28.1880  -12.5100   18.2730 C   0  0  0  0  0  2  0  0  0  0  0  0
  -27.8790  -13.3790   19.5240 C   0  0  0  0  0  3  0  0  0  0  0  0
  -28.9880  -13.2890   20.5930 C   0  0  0  0  0  2  0  0  0  0  0  0
  -30.2450  -13.6600   19.9360 N   0  0  0  0  0  0  0  0  0  0  0  0
  -32.0320  -14.9700   19.5360 O   0  0  0  0  0  0  0  0  0  0  0  0
  -30.1740  -16.0410   20.3100 N   0  0  0  0  0  0  0  0  0  0  0  0
  -29.2380  -15.9150   20.6670 H   0  0  0  0  0  0  0  0  0  0  0  0
  -25.5530  -13.9670   20.4250 C   0  0  0  0  0  0  0  0  0  0  0  0
  -24.5000  -13.1890   20.8240 C   0  0  0  0  0  0  0  0  0  0  0  0
  -24.9350  -11.8350   20.6980 C   0  0  0  0  0  0  0  0  0  0  0  0
  -26.5630  -13.0830   20.0780 N   0  0  0  0  0  0  0  0  0  0  0  0
  -26.2040  -11.7940   20.3050 N   0  0  0  0  0  0  0  0  0  0  0  0
  -24.1990  -10.5750   20.8720 C   0  0  0  0  0  0  0  0  0  0  0  0
  -24.6260   -9.5890   21.7880 C   0  0  0  0  0  3  0  0  0  0  0  0
  -23.8880   -8.3970   21.9540 C   0  0  0  0  0  3  0  0  0  0  0  0
  -22.7100   -8.1820   21.2020 C   0  0  0  0  0  0  0  0  0  0  0  0
  -22.3010   -9.1560   20.2740 C   0  0  0  0  0  3  0  0  0  0  0  0
  -23.0390  -10.3390   20.1070 C   0  0  0  0  0  3  0  0  0  0  0  0
  -21.9450   -7.0430   21.2750 O   0  0  0  0  0  0  0  0  0  0  0  0
  -21.8490   -6.3160   22.4360 C   0  0  0  0  0  0  0  0  0  0  0  0
  -21.3070   -6.8680   23.6170 C   0  0  0  0  0  3  0  0  0  0  0  0
  -21.1600   -6.0640   24.7660 C   0  0  0  0  0  3  0  0  0  0  0  0
  -21.5440   -4.7100   24.7340 C   0  0  0  0  0  0  0  0  0  0  0  0
  -22.0770   -4.1570   23.5550 C   0  0  0  0  0  3  0  0  0  0  0  0
  -22.2250   -4.9580   22.4090 C   0  0  0  0  0  0  0  0  0  0  0  0
  -22.7200   -4.4160   21.2710 F   0  0  0  0  0  0  0  0  0  0  0  0
  -21.3950   -3.9380   25.8340 F   0  0  0  0  0  0  0  0  0  0  0  0
  -23.1310  -13.6740   21.2050 C   0  0  0  0  0  0  0  0  0  0  0  0
  -22.4470  -12.9520   22.0850 N   0  0  0  0  0  0  0  0  0  0  0  0
  -22.6830  -14.7290   20.7580 O   0  0  0  0  0  0  0  0  0  0  0  0
  -22.8230  -12.0990   22.4690 H   0  0  0  0  0  0  0  0  0  0  0  0
  -21.5320  -13.2580   22.3790 H   0  0  0  0  0  0  0  0  0  0  0  0
  -25.7290  -15.3410   20.3000 N   0  0  0  0  0  0  0  0  0  0  0  0
  -24.9760  -15.9950   20.4950 H   0  0  0  0  0  0  0  0  0  0  0  0
  -26.5440  -15.7830   19.8910 H   0  0  0  0  0  0  0  0  0  0  0  0
  -28.7060  -25.2350   20.8300 C   0  0  0  0  0  2  0  0  0  0  0  0
  -28.7130  -26.5830   20.1700 O   0  0  0  0  0  0  0  0  0  0  0  0
  -24.6620  -31.7860   23.2020 C   0  0  0  0  0  0  0  0  0  0  0  0
  -27.5520  -27.3880   20.1700 C   0  0  0  0  0  0  0  0  0  0  0  0
  -23.5630  -30.3860   21.4900 C   0  0  0  0  0  3  0  0  0  0  0  0
  -25.1270  -28.9250   20.0720 C   0  0  0  0  0  0  0  0  0  0  0  0
  -26.0900  -30.8130   21.3810 C   0  0  0  0  0  2  0  0  0  0  0  0
  -26.2520  -29.4440   20.7290 C   0  0  0  0  0  0  0  0  0  0  0  0
  -27.4700  -28.6930   20.7560 C   0  0  0  0  0  3  0  0  0  0  0  0
  -26.4040  -26.9230   19.4990 C   0  0  0  0  0  3  0  0  0  0  0  0
  -25.2140  -27.6790   19.4300 C   0  0  0  0  0  3  0  0  0  0  0  0
  -23.8410  -29.7360   20.1050 C   0  0  0  0  0  2  0  0  0  0  0  0
  -24.7880  -31.0140   22.0820 N   0  0  0  0  0  0  0  0  0  0  0  0
  -23.5520  -32.0080   23.7080 O   0  0  0  0  0  0  0  0  0  0  0  0
  -22.9050  -29.3260   22.4050 C   0  0  0  0  0  0  0  0  0  0  0  0
  -21.5870  -29.1310   22.2510 N   0  0  0  0  0  0  0  0  0  0  0  0
  -23.5850  -28.6810   23.2100 O   0  0  0  0  0  0  0  0  0  0  0  0
  -21.0970  -29.7030   21.5760 H   0  0  0  0  0  0  0  0  0  0  0  0
  -18.2180  -27.9030   22.6930 C   0  0  0  0  0  0  0  0  0  0  0  0
  -20.7730  -28.1460   22.9630 C   0  0  0  0  0  3  0  0  0  0  0  0
  -20.8730  -26.7520   22.2980 C   0  0  0  0  0  2  0  0  0  0  0  0
  -19.7710  -26.5070   21.2620 C   0  0  0  0  0  2  0  0  0  0  0  0
  -18.3900  -26.6050   21.9230 C   0  0  0  0  0  2  0  0  0  0  0  0
  -19.3380  -28.6400   23.1590 C   0  0  0  0  0  0  0  0  0  0  0  0
  -19.1220  -29.8720   23.8210 C   0  0  0  0  0  3  0  0  0  0  0  0
  -17.8210  -30.3610   24.0280 C   0  0  0  0  0  3  0  0  0  0  0  0
  -16.7120  -29.6130   23.5880 C   0  0  0  0  0  3  0  0  0  0  0  0
  -16.9130  -28.3880   22.9250 C   0  0  0  0  0  3  0  0  0  0  0  0
  -25.8960  -32.4520   23.8880 C   0  0  0  0  0  3  0  0  0  0  0  0
  -25.5420  -33.8470   24.1900 N   0  0  0  0  0  0  0  0  0  0  0  0
  -25.8860  -34.9010   23.4360 C   0  0  0  0  0  0  0  0  0  0  0  0
  -26.6020  -34.8020   22.4360 O   0  0  0  0  0  0  0  0  0  0  0  0
  -24.9050  -33.9960   24.9590 H   0  0  0  0  0  0  0  0  0  0  0  0
  -24.1410  -36.6610   22.9950 C   0  0  0  0  0  1  0  0  0  0  0  0
  -25.3550  -36.2840   23.8600 C   0  0  0  0  0  3  0  0  0  0  0  0
  -27.4250  -37.2260   24.7870 C   0  0  0  0  0  1  0  0  0  0  0  0
  -26.3720  -37.3560   23.7830 N   0  0  0  0  0  0  0  0  0  0  0  0
  -25.9380  -38.2690   23.8950 H   0  0  0  0  0  0  0  0  0  0  0  0
  -26.3550  -31.7020   25.1970 C   0  0  1  0  0  0  0  0  0  0  0  0
  -25.2070  -31.4430   26.2010 C   0  0  0  0  0  1  0  0  0  0  0  0
  -26.9870  -30.3370   24.8380 C   0  0  0  0  0  1  0  0  0  0  0  0
  -27.4450  -32.5250   25.9220 C   0  0  0  0  0  1  0  0  0  0  0  0
  2  1  1  0
  3  4  2  0
  3  6  1  0
  4  5  1  0
  5  8  1  0
  5  1  2  0
  6  2  2  0
  7  4  1  0
  9 10  1  6
  9  7  1  0
  9  8  1  0
  9 51  1  0
 11  7  2  0
 12  6  1  0
 12 21  1  0
 13 21  1  0
 14 19  1  0
 15 16  1  0
 15 14  1  0
 17 16  1  0
 17 26  1  0
 17 18  1  0
 19 13  1  0
 19 18  1  0
 20 13  2  0
 21 22  1  0
 23 24  2  0
 24 43  1  0
 25 24  1  0
 25 28  1  0
 26 27  1  0
 26 23  1  0
 27 25  2  0
 28 29  1  0
 29 30  2  0
 31 34  1  0
 31 30  1  0
 32 31  2  0
 33 32  1  0
 33 28  2  0
 34 35  1  0
 35 36  1  0
 36 37  2  0
 38 37  1  0
 38 42  1  0
 39 38  2  0
 40 35  2  0
 40 39  1  0
 41 40  1  0
 43 44  1  0
 44 47  1  0
 44 46  1  0
 45 43  2  0
 48 23  1  0
 48 49  1  0
 50 48  1  0
 52 54  1  0
 52 51  1  0
 53 64  2  0
 54 59  1  0
 55 63  1  0
 55 65  1  0
 56 62  1  0
 56 58  1  0
 57 63  1  0
 58 59  2  0
 58 57  1  0
 60 54  2  0
 61 60  1  0
 61 56  2  0
 62 55  1  0
 63 53  1  0
 65 67  2  0
 66 65  1  0
 68 66  1  0
 69 78  2  0
 69 74  1  0
 70 66  1  0
 70 74  1  0
 71 70  1  0
 72 73  1  0
 72 71  1  0
 73 69  1  0
 74 75  2  0
 75 76  1  0
 77 76  2  0
 78 77  1  0
 79 53  1  0
 79 80  1  0
 79 89  1  0
 80 83  1  0
 81 85  1  0
 81 80  1  0
 82 81  2  0
 85 84  1  0
 87 85  1  0
 87 88  1  0
 87 86  1  0
 89 92  1  1
 89 90  1  0
 91 89  1  0
M  ISO  4  13 100  21 100  51 101  52 101
M  END
>  <TORSDO>  (80) 
F 18

>  <SCORE>  (80) 
-13.997

>  <name>  (80) 
80

>  <ligand_id>  (80) 
80

>  <original_smiles>  (80) 
[H]c1c([H])c([H])c2c(c1[H])C([H])([H])C([H])([H])C([H])([H])C2([H])N([H])C(=O)C1([H])N(C(=O)C([H])(N([H])C(=O)C([H])(N([H])C([H])([H])[H])C([H])([H])[H])C(C([H])([H])[H])(C([H])([H])[H])C([H])([H])[H])C([H])([H])c2c([H])c(OC([H])([H])C3(C([H])([H])[H])C(=O)c4c([H])c(C([H])([H])N([H])C(=O)N5C([H])([H])C([H])([H])C([H])([H])C([H])(n6nc(-c7c([H])c([H])c(Oc8c([H])c([H])c(F)c([H])c8F)c([H])c7[H])c(C(=O)N([H])[H])c6N([H])[H])C5([H])[H])c([H])c([H])c4C3([H])[H])c([H])c([H])c2C1([H])[H]

>  <smiles>  (80) 
[H]c1c([H])c([H])c2c(c1[H])C([H])([H])C([H])([H])C([H])([H])C2([H])N([H])C(=O)C1([H])N(C(=O)C([H])(N([H])C(=O)C([H])(N([H])C([H])([H])[H])C([H])([H])[H])C(C([H])([H])[H])(C([H])([H])[H])C([H])([H])[H])C([H])([H])c2c([H])c(OC([H])([H])C3(C([H])([H])[H])C(=O)c4c([H])c(C([H])([H])N([H])C(=O)N5C([H])([H])C([H])([H])C([H])([H])C([H])(n6nc(-c7c([H])c([H])c(Oc8c([H])c([H])c(F)c([H])c8F)c([H])c7[H])c(C(=O)N([H])[H])c6N([H])[H])C5([H])[H])c([H])c([H])c4C3([H])[H])c([H])c([H])c2C1([H])[H]

$$$$
81:0:0
     RDKit          3D

101104  0  0  1  0  0  0  0  0999 V2000
  -20.0480  -25.3100   23.9260 C   0  0  0  0  0  3  0  0  0  0  0  0
  -20.8170  -24.1100   24.1730 C   0  0  0  0  0  3  0  0  0  0  0  0
  -20.8570  -24.9470   21.7570 C   0  0  0  0  0  3  0  0  0  0  0  0
  -19.9920  -26.0760   22.6890 C   0  0  0  0  0  3  0  0  0  0  0  0
  -21.8330  -23.6530   21.8910 C   0  0  0  0  0  0  0  0  0  0  0  0
  -21.6680  -23.3590   23.2760 C   0  0  0  0  0  0  0  0  0  0  0  0
  -22.3100  -22.2420   23.8100 N   0  0  0  0  0  0  0  0  0  0  0  0
  -22.0300  -21.9540   24.7440 H   0  0  0  0  0  0  0  0  0  0  0  0
  -22.4530  -21.4390   23.2110 H   0  0  0  0  0  0  0  0  0  0  0  0
  -19.4290  -28.8240   22.2150 C   0  0  0  0  0  2  0  0  0  0  0  0
  -20.2350  -31.5530   22.4080 C   0  0  0  0  0  1  0  0  0  0  0  0
  -20.4910  -30.2780   23.2460 C   0  0  0  0  0  2  0  0  0  0  0  0
  -22.1600  -30.1260   24.0380 N   0  0  0  0  0  4  0  0  0  0  0  0
  -22.5400  -31.0750   24.0090 H   0  0  0  0  0  0  0  0  0  0  0  0
  -21.8930  -30.0250   25.0060 H   0  0  0  0  0  0  0  0  0  0  0  0
  -23.6820  -29.0910   24.0140 C   0  0  0  0  0  1  0  0  0  0  0  0
  -25.3080  -28.6500   22.9210 C   0  0  0  0  0  1  0  0  0  0  0  0
  -25.9670  -27.7430   21.5400 O   0  0  0  0  0  0  0  0  0  0  0  0
  -24.3180  -31.9680   23.0140 C   0  0  0  0  0  0  0  0  0  0  0  0
  -26.3780  -28.1150   20.2270 C   0  0  0  0  0  3  0  0  0  0  0  0
  -23.1650  -30.7600   21.0300 C   0  0  0  0  0  3  0  0  0  0  0  0
  -24.6200  -29.8410   19.2650 C   0  0  0  0  0  0  0  0  0  0  0  0
  -25.5710  -31.4560   20.9480 C   0  0  0  0  0  2  0  0  0  0  0  0
  -25.7150  -30.2600   20.0420 C   0  0  0  0  0  0  0  0  0  0  0  0
  -26.8040  -29.4210   20.2260 C   0  0  0  0  0  2  0  0  0  0  0  0
  -25.5950  -27.6500   19.1290 C   0  0  0  0  0  3  0  0  0  0  0  0
  -24.6130  -28.5520   18.6700 C   0  0  0  0  0  3  0  0  0  0  0  0
  -23.3670  -30.6540   19.5060 C   0  0  0  0  0  2  0  0  0  0  0  0
  -24.3550  -31.3620   21.7690 N   0  0  0  0  0  0  0  0  0  0  0  0
  -23.2450  -32.1490   23.6010 O   0  0  0  0  0  0  0  0  0  0  0  0
  -22.8410  -29.2480   21.2240 C   0  0  0  0  0  0  0  0  0  0  0  0
  -21.7340  -28.7190   21.2860 N   0  0  0  0  0  0  0  0  0  0  0  0
  -23.5040  -28.3060   21.4170 O   0  0  0  0  0  0  0  0  0  0  0  0
  -21.0740  -29.2450   20.7370 H   0  0  0  0  0  0  0  0  0  0  0  0
  -17.6870  -27.3230   21.8880 C   0  0  0  0  0  0  0  0  0  0  0  0
  -20.9600  -27.7550   22.2080 C   0  0  0  0  0  2  0  0  0  0  0  0
  -21.1930  -27.1540   20.2870 C   0  0  0  0  0  1  0  0  0  0  0  0
  -19.5820  -26.5890   19.3940 C   0  0  0  0  0  3  0  0  0  0  0  0
  -17.9450  -26.5780   20.3030 C   0  0  0  0  0  3  0  0  0  0  0  0
  -18.8960  -27.8550   22.8740 C   0  0  0  0  0  0  0  0  0  0  0  0
  -18.2650  -28.9890   23.5850 C   0  0  0  0  0  3  0  0  0  0  0  0
  -17.0760  -29.7440   23.2190 C   0  0  0  0  0  3  0  0  0  0  0  0
  -16.1460  -29.2700   22.2930 C   0  0  0  0  0  3  0  0  0  0  0  0
  -16.4260  -28.0190   21.7340 C   0  0  0  0  0  3  0  0  0  0  0  0
  -25.6010  -32.5030   23.7670 C   0  0  0  0  0  3  0  0  0  0  0  0
  -25.2510  -33.8250   24.2980 N   0  0  0  0  0  0  0  0  0  0  0  0
  -25.5590  -34.9850   23.7070 C   0  0  0  0  0  0  0  0  0  0  0  0
  -26.1850  -35.0470   22.6460 O   0  0  0  0  0  0  0  0  0  0  0  0
  -24.6870  -33.8460   25.1340 H   0  0  0  0  0  0  0  0  0  0  0  0
  -23.7910  -36.7670   23.7520 C   0  0  0  0  0  1  0  0  0  0  0  0
  -25.0960  -36.2790   24.4000 C   0  0  0  0  0  3  0  0  0  0  0  0
  -27.2830  -37.0740   25.1830 C   0  0  0  0  0  1  0  0  0  0  0  0
  -26.1060  -37.3580   24.3650 N   0  0  0  0  0  0  0  0  0  0  0  0
  -25.7070  -38.2380   24.6810 H   0  0  0  0  0  0  0  0  0  0  0  0
  -26.1990  -31.6250   24.9590 C   0  0  1  0  0  0  0  0  0  0  0  0
  -25.1500  -31.2090   26.0290 C   0  0  0  0  0  1  0  0  0  0  0  0
  -27.0250  -30.4040   24.4800 C   0  0  0  0  0  1  0  0  0  0  0  0
  -27.2820  -32.4410   25.7110 C   0  0  0  0  0  1  0  0  0  0  0  0
  -22.8130  -22.4170   20.7660 C   0  0  0  0  0  2  0  0  0  0  0  0
  -24.3590  -21.4740   20.5810 N   0  0  0  0  0  4  0  0  0  0  0  0
  -24.7240  -21.4860   21.5180 H   0  0  0  0  0  0  0  0  0  0  0  0
  -24.9360  -22.1270   20.0800 H   0  0  0  0  0  0  0  0  0  0  0  0
  -24.9350  -19.8580   19.9610 C   0  0  0  0  0  1  0  0  0  0  0  0
  -26.6080  -18.8710   19.4020 C   0  0  0  0  0 15  0  0  0  0  0  0
  -27.5130  -17.0670   19.3600 C   0  0  0  0  0  1  0  0  0  0  0  0
  -28.7560  -15.8070   18.5580 C   0  0  0  0  0  0  0  0  0  0  0  0
  -29.2680  -13.2820   17.6540 C   0  0  0  0  0  2  0  0  0  0  0  0
  -28.1660  -12.7550   16.6750 C   0  0  0  0  0  2  0  0  0  0  0  0
  -26.8560  -12.4290   17.4200 C   0  0  0  0  0  2  0  0  0  0  0  0
  -26.5940  -13.4890   18.5140 C   0  0  0  0  0  3  0  0  0  0  0  0
  -27.7890  -13.6700   19.4400 C   0  0  0  0  0  2  0  0  0  0  0  0
  -28.7110  -14.3640   18.5960 N   0  0  0  0  0  0  0  0  0  0  0  0
  -29.8070  -16.0520   17.8950 O   0  0  0  0  0  0  0  0  0  0  0  0
  -24.5400  -14.2060   19.7810 C   0  0  0  0  0  0  0  0  0  0  0  0
  -23.6280  -13.5040   20.5000 C   0  0  0  0  0  0  0  0  0  0  0  0
  -24.0290  -12.1360   20.4160 C   0  0  0  0  0  0  0  0  0  0  0  0
  -25.4360  -13.2650   19.3150 N   0  0  0  0  0  0  0  0  0  0  0  0
  -25.1700  -12.0180   19.7590 N   0  0  0  0  0  0  0  0  0  0  0  0
  -23.3470  -10.9230   20.8530 C   0  0  0  0  0  0  0  0  0  0  0  0
  -23.9300  -10.0440   21.7890 C   0  0  0  0  0  3  0  0  0  0  0  0
  -23.2350   -8.8890   22.2010 C   0  0  0  0  0  3  0  0  0  0  0  0
  -21.9490   -8.6120   21.6780 C   0  0  0  0  0  0  0  0  0  0  0  0
  -21.3890   -9.4800   20.7250 C   0  0  0  0  0  3  0  0  0  0  0  0
  -22.0840  -10.6260   20.3110 C   0  0  0  0  0  3  0  0  0  0  0  0
  -21.2080   -7.5050   22.0050 O   0  0  0  0  0  0  0  0  0  0  0  0
  -21.2380   -6.9710   23.2670 C   0  0  0  0  0  0  0  0  0  0  0  0
  -20.9370   -7.7410   24.4100 C   0  0  0  0  0  3  0  0  0  0  0  0
  -20.9120   -7.1330   25.6810 C   0  0  0  0  0  3  0  0  0  0  0  0
  -21.1790   -5.7570   25.8090 C   0  0  0  0  0  0  0  0  0  0  0  0
  -21.4740   -4.9880   24.6700 C   0  0  0  0  0  3  0  0  0  0  0  0
  -21.5020   -5.5930   23.4010 C   0  0  0  0  0  0  0  0  0  0  0  0
  -21.7680   -4.8450   22.3040 F   0  0  0  0  0  0  0  0  0  0  0  0
  -21.1450   -5.1700   27.0280 F   0  0  0  0  0  0  0  0  0  0  0  0
  -22.3870  -14.0680   21.1180 C   0  0  0  0  0  0  0  0  0  0  0  0
  -21.9060  -13.4510   22.1890 N   0  0  0  0  0  0  0  0  0  0  0  0
  -21.8690  -15.0950   20.6800 O   0  0  0  0  0  0  0  0  0  0  0  0
  -22.3490  -12.6210   22.5570 H   0  0  0  0  0  0  0  0  0  0  0  0
  -21.0830  -13.8130   22.6500 H   0  0  0  0  0  0  0  0  0  0  0  0
  -24.6370  -15.5520   19.4560 N   0  0  0  0  0  0  0  0  0  0  0  0
  -23.8920  -16.1960   19.7010 H   0  0  0  0  0  0  0  0  0  0  0  0
  -25.2660  -15.9230   18.7580 H   0  0  0  0  0  0  0  0  0  0  0  0
  1  2  1  0
  3  5  2  0
  3  4  1  0
  4  1  2  0
  5  6  1  0
  6  7  1  0
  6  2  2  0
  7  8  1  0
  9  7  1  0
 10 40  1  0
 11 12  1  0
 12 13  1  0
 13 15  1  0
 14 13  1  0
 16 13  1  0
 18 17  1  0
 19 30  2  0
 20 18  1  0
 21 31  1  0
 21 29  1  0
 22 28  1  0
 22 24  2  0
 23 29  1  0
 24 25  1  0
 24 23  1  0
 25 20  1  0
 26 20  1  0
 27 26  2  0
 27 22  1  0
 28 21  1  0
 29 19  1  0
 31 32  1  0
 31 33  2  0
 32 36  1  0
 34 32  1  0
 35 40  1  0
 36 10  1  0
 38 37  1  0
 38 39  2  0
 39 35  1  0
 40 41  2  3
 42 41  1  0
 43 42  2  0
 44 35  2  0
 44 43  1  0
 45 19  1  0
 45 46  1  0
 45 55  1  0
 46 49  1  0
 47 46  1  0
 47 51  1  0
 48 47  2  0
 51 50  1  0
 53 51  1  0
 53 54  1  0
 53 52  1  0
 55 58  1  1
 55 56  1  0
 57 55  1  0
 59  5  1  0
 60 59  1  0
 60 61  1  0
 62 60  1  0
 63 60  1  0
 66 72  1  0
 66 65  1  0
 67 72  1  0
 68 69  1  0
 68 67  1  0
 70 69  1  0
 70 77  1  0
 70 71  1  0
 72 71  1  0
 73 66  2  0
 74 75  2  0
 75 94  1  0
 76 75  1  0
 76 79  1  0
 77 78  1  0
 77 74  1  0
 78 76  2  0
 79 80  1  0
 80 81  2  0
 82 85  1  0
 82 81  1  0
 83 82  2  0
 84 83  1  0
 84 79  2  0
 85 86  1  0
 86 91  2  0
 86 87  1  0
 87 88  2  0
 88 89  1  0
 89 93  1  0
 90 89  2  0
 91 90  1  0
 92 91  1  0
 94 95  1  0
 95 97  1  0
 95 98  1  0
 96 94  2  0
 99100  1  0
 99 74  1  0
101 99  1  0
M  ISO  4  17 101  18 101  65 100  66 100
M  END
>  <TORSDO>  (81) 
F 27

>  <SCORE>  (81) 
37.953

>  <name>  (81) 
81

>  <ligand_id>  (81) 
81

>  <original_smiles>  (81) 
[H]c1c([H])c([H])c2c(c1[H])C([H])([H])C([H])([H])C([H])([H])C2([H])N([H])C(=O)C1([H])N(C(=O)C([H])(N([H])C(=O)C([H])(N([H])C([H])([H])[H])C([H])([H])[H])C(C([H])([H])[H])(C([H])([H])[H])C([H])([H])[H])C([H])([H])c2c([H])c(OC([H])([H])C([H])([H])[N+]([H])([H])C([H])(C([H])([H])[H])C([H])([H])c3c([H])c([H])c(N([H])[H])c(C([H])([H])[N+]([H])([H])C([H])([H])C([H])([H])C([H])([H])C(=O)N4C([H])([H])C([H])([H])C([H])([H])C([H])(n5nc(-c6c([H])c([H])c(Oc7c([H])c([H])c(F)c([H])c7F)c([H])c6[H])c(C(=O)N([H])[H])c5N([H])[H])C4([H])[H])c3[H])c([H])c([H])c2C1([H])[H]

>  <smiles>  (81) 
[H]c1c([H])c([H])c2c(c1[H])C([H])([H])C([H])([H])C([H])([H])C2([H])N([H])C(=O)C1([H])N(C(=O)C([H])(N([H])C(=O)C([H])(N([H])C([H])([H])[H])C([H])([H])[H])C(C([H])([H])[H])(C([H])([H])[H])C([H])([H])[H])C([H])([H])c2c([H])c(OC([H])([H])C([H])([H])[N+]([H])([H])C([H])(C([H])([H])[H])C([H])([H])c3c([H])c([H])c(N([H])[H])c(C([H])([H])[N+]([H])([H])C([H])([H])C([H])([H])C([H])([H])C(=O)N4C([H])([H])C([H])([H])C([H])([H])C([H])(n5nc(-c6c([H])c([H])c(Oc7c([H])c([H])c(F)c([H])c7F)c([H])c6[H])c(C(=O)N([H])[H])c5N([H])[H])C4([H])[H])c3[H])c([H])c([H])c2C1([H])[H]

$$$$
82:0:0
     RDKit          3D

 98107  0  0  1  0  0  0  0  0999 V2000
  -30.8050  -22.5510   19.0310 C   0  0  0  0  0  2  0  0  0  0  0  0
  -29.5470  -22.5680   21.2130 C   0  0  0  0  0  2  0  0  0  0  0  0
  -31.2370  -24.0080   19.2910 C   0  0  0  0  0  2  0  0  0  0  0  0
  -30.0680  -24.0000   21.4590 C   0  0  0  0  0  2  0  0  0  0  0  0
  -30.5020  -21.7550   20.3220 C   0  0  0  0  0  3  0  0  0  0  0  0
  -30.2940  -24.7330   20.1840 N   0  0  1  0  0  4  0  0  0  0  0  0
  -29.4040  -24.7770   19.7060 H   0  0  0  0  0  0  0  0  0  0  0  0
  -28.9660  -20.1680   19.0490 C   0  0  0  0  0  3  0  0  0  0  0  0
  -28.4880  -18.8860   18.7510 C   0  0  0  0  0  3  0  0  0  0  0  0
  -30.4380  -19.2160   20.7290 C   0  0  0  0  0  3  0  0  0  0  0  0
  -29.9620  -20.3500   20.0270 C   0  0  0  0  0  0  0  0  0  0  0  0
  -29.9480  -17.9070   20.4710 C   0  0  0  0  0  0  0  0  0  0  0  0
  -28.9640  -17.7600   19.4470 C   0  0  0  0  0  0  0  0  0  0  0  0
  -28.4200  -16.5440   19.0560 N   0  0  0  0  0  0  0  0  0  0  0  0
  -27.9980  -16.5080   18.1340 H   0  0  0  0  0  0  0  0  0  0  0  0
  -28.9650  -15.7210   19.2710 H   0  0  0  0  0  0  0  0  0  0  0  0
  -30.5210  -16.7680   21.3520 C   0  0  0  0  0  2  0  0  0  0  0  0
  -30.7030  -14.4170   20.4750 C   0  0  0  0  0  0  0  0  0  0  0  0
  -30.3580  -12.2980   19.2590 C   0  0  0  0  0  2  0  0  0  0  0  0
  -29.4050  -12.5450   18.0750 C   0  0  0  0  0  2  0  0  0  0  0  0
  -27.9350  -12.4030   18.5160 C   0  0  0  0  0  2  0  0  0  0  0  0
  -27.6160  -13.1980   19.8080 C   0  0  0  0  0  3  0  0  0  0  0  0
  -28.6860  -12.9520   20.8960 C   0  0  0  0  0  2  0  0  0  0  0  0
  -30.0060  -13.2590   20.3150 N   0  0  0  0  0  0  0  0  0  0  0  0
  -31.7980  -14.6240   19.9470 O   0  0  0  0  0  0  0  0  0  0  0  0
  -30.0620  -15.3850   21.1470 N   0  0  0  0  0  0  0  0  0  0  0  0
  -29.1600  -15.1480   21.5310 H   0  0  0  0  0  0  0  0  0  0  0  0
  -25.2170  -13.8250   20.4980 C   0  0  0  0  0  0  0  0  0  0  0  0
  -24.1480  -13.0600   20.8740 C   0  0  0  0  0  0  0  0  0  0  0  0
  -24.6060  -11.7070   20.8500 C   0  0  0  0  0  0  0  0  0  0  0  0
  -26.2630  -12.9380   20.2860 N   0  0  0  0  0  0  0  0  0  0  0  0
  -25.8960  -11.6590   20.5450 N   0  0  0  0  0  0  0  0  0  0  0  0
  -23.8810  -10.4470   21.0460 C   0  0  0  0  0  0  0  0  0  0  0  0
  -24.3250   -9.4750   21.9710 C   0  0  0  0  0  3  0  0  0  0  0  0
  -23.6000   -8.2790   22.1530 C   0  0  0  0  0  3  0  0  0  0  0  0
  -22.4170   -8.0440   21.4130 C   0  0  0  0  0  0  0  0  0  0  0  0
  -21.9940   -9.0050   20.4780 C   0  0  0  0  0  3  0  0  0  0  0  0
  -22.7180  -10.1920   20.2930 C   0  0  0  0  0  3  0  0  0  0  0  0
  -21.6630   -6.9000   21.5040 O   0  0  0  0  0  0  0  0  0  0  0  0
  -21.6380   -6.1460   22.6500 C   0  0  0  0  0  0  0  0  0  0  0  0
  -21.2420   -6.6900   23.8910 C   0  0  0  0  0  3  0  0  0  0  0  0
  -21.1600   -5.8620   25.0290 C   0  0  0  0  0  3  0  0  0  0  0  0
  -21.4690   -4.4920   24.9290 C   0  0  0  0  0  0  0  0  0  0  0  0
  -21.8590   -3.9490   23.6930 C   0  0  0  0  0  3  0  0  0  0  0  0
  -21.9390   -4.7730   22.5570 C   0  0  0  0  0  0  0  0  0  0  0  0
  -22.2940   -4.2390   21.3620 F   0  0  0  0  0  0  0  0  0  0  0  0
  -21.3890   -3.6940   26.0200 F   0  0  0  0  0  0  0  0  0  0  0  0
  -22.7500  -13.5400   21.1480 C   0  0  0  0  0  0  0  0  0  0  0  0
  -22.0270  -12.8500   22.0210 N   0  0  0  0  0  0  0  0  0  0  0  0
  -22.3070  -14.5640   20.6270 O   0  0  0  0  0  0  0  0  0  0  0  0
  -22.3920  -12.0180   22.4610 H   0  0  0  0  0  0  0  0  0  0  0  0
  -21.0950  -13.1580   22.2590 H   0  0  0  0  0  0  0  0  0  0  0  0
  -25.3850  -15.1960   20.3040 N   0  0  0  0  0  0  0  0  0  0  0  0
  -24.6130  -15.8480   20.3700 H   0  0  0  0  0  0  0  0  0  0  0  0
  -26.2390  -15.6280   19.9590 H   0  0  0  0  0  0  0  0  0  0  0  0
  -30.6900  -26.1550   20.3790 C   0  0  0  0  0  2  0  0  0  0  0  0
  -29.5220  -27.0410   20.8430 C   0  0  0  0  0  2  0  0  0  0  0  0
  -28.3860  -26.6910   20.0590 O   0  0  0  0  0  0  0  0  0  0  0  0
  -24.5740  -31.8640   23.2290 C   0  0  0  0  0  0  0  0  0  0  0  0
  -27.2450  -27.4550   20.1550 C   0  0  0  0  0  0  0  0  0  0  0  0
  -23.3660  -30.4610   21.5820 C   0  0  0  0  0  3  0  0  0  0  0  0
  -24.8260  -28.9190   20.1690 C   0  0  0  0  0  0  0  0  0  0  0  0
  -25.8860  -30.8290   21.3880 C   0  0  0  0  0  2  0  0  0  0  0  0
  -25.9740  -29.4540   20.7630 C   0  0  0  0  0  0  0  0  0  0  0  0
  -27.1810  -28.7300   20.7690 C   0  0  0  0  0  3  0  0  0  0  0  0
  -26.0780  -26.9250   19.5660 C   0  0  0  0  0  3  0  0  0  0  0  0
  -24.8680  -27.6470   19.5730 C   0  0  0  0  0  3  0  0  0  0  0  0
  -23.5780  -29.7740   20.2050 C   0  0  0  0  0  2  0  0  0  0  0  0
  -24.6250  -31.0660   22.1260 N   0  0  0  0  0  0  0  0  0  0  0  0
  -23.4950  -32.1370   23.7700 O   0  0  0  0  0  0  0  0  0  0  0  0
  -22.7150  -29.4430   22.5440 C   0  0  0  0  0  0  0  0  0  0  0  0
  -21.3900  -29.2650   22.4160 N   0  0  0  0  0  0  0  0  0  0  0  0
  -23.3970  -28.8160   23.3570 O   0  0  0  0  0  0  0  0  0  0  0  0
  -20.9020  -29.8260   21.7330 H   0  0  0  0  0  0  0  0  0  0  0  0
  -18.0110  -28.0980   22.9190 C   0  0  0  0  0  0  0  0  0  0  0  0
  -20.5700  -28.3320   23.1870 C   0  0  0  0  0  3  0  0  0  0  0  0
  -20.6610  -26.9020   22.6080 C   0  0  0  0  0  2  0  0  0  0  0  0
  -19.5550  -26.5910   21.5940 C   0  0  0  0  0  2  0  0  0  0  0  0
  -18.1750  -26.7470   22.2410 C   0  0  0  0  0  2  0  0  0  0  0  0
  -19.1370  -28.8480   23.3500 C   0  0  0  0  0  0  0  0  0  0  0  0
  -18.9320  -30.1110   23.9450 C   0  0  0  0  0  3  0  0  0  0  0  0
  -17.6340  -30.6260   24.1160 C   0  0  0  0  0  3  0  0  0  0  0  0
  -16.5210  -29.8720   23.7020 C   0  0  0  0  0  3  0  0  0  0  0  0
  -16.7100  -28.6100   23.1090 C   0  0  0  0  0  3  0  0  0  0  0  0
  -25.8640  -32.4900   23.8480 C   0  0  0  0  0  3  0  0  0  0  0  0
  -25.5620  -33.8880   24.1800 N   0  0  0  0  0  0  0  0  0  0  0  0
  -25.8970  -34.9380   23.4190 C   0  0  0  0  0  0  0  0  0  0  0  0
  -26.5680  -34.8320   22.3880 O   0  0  0  0  0  0  0  0  0  0  0  0
  -24.9710  -34.0450   24.9830 H   0  0  0  0  0  0  0  0  0  0  0  0
  -24.1770  -36.7360   23.0550 C   0  0  0  0  0  1  0  0  0  0  0  0
  -25.4110  -36.3270   23.8740 C   0  0  0  0  0  3  0  0  0  0  0  0
  -27.5450  -37.2040   24.7160 C   0  0  0  0  0  1  0  0  0  0  0  0
  -26.4480  -37.3770   23.7680 N   0  0  0  0  0  0  0  0  0  0  0  0
  -26.0430  -38.2970   23.9160 H   0  0  0  0  0  0  0  0  0  0  0  0
  -26.3850  -31.7130   25.1210 C   0  0  1  0  0  0  0  0  0  0  0  0
  -25.2940  -31.4790   26.1910 C   0  0  0  0  0  1  0  0  0  0  0  0
  -26.9640  -30.3350   24.7220 C   0  0  0  0  0  1  0  0  0  0  0  0
  -27.5390  -32.5020   25.7820 C   0  0  0  0  0  1  0  0  0  0  0  0
  1  3  1  0
  1  5  1  0
  2  4  1  0
  3  6  1  0
  5 11  1  0
  5  2  1  0
  6 56  1  0
  6  4  1  0
  6  7  1  6
  8 11  1  0
  9  8  2  0
  9 13  1  0
 11 10  2  0
 12 10  1  0
 12 17  1  0
 13 12  2  0
 14 16  1  0
 14 13  1  0
 15 14  1  0
 18 26  1  0
 19 24  1  0
 20 21  1  0
 20 19  1  0
 22 21  1  0
 22 31  1  0
 22 23  1  0
 24 18  1  0
 24 23  1  0
 25 18  2  0
 26 17  1  0
 26 27  1  0
 28 29  2  0
 29 48  1  0
 30 29  1  0
 30 33  1  0
 31 28  1  0
 31 32  1  0
 32 30  2  0
 33 34  1  0
 34 35  2  0
 36 39  1  0
 36 35  1  0
 37 36  2  0
 38 37  1  0
 38 33  2  0
 39 40  1  0
 40 41  1  0
 41 42  2  0
 43 42  1  0
 43 47  1  0
 44 43  2  0
 45 40  2  0
 45 44  1  0
 46 45  1  0
 48 49  1  0
 49 52  1  0
 49 51  1  0
 50 48  2  0
 53 54  1  0
 53 28  1  0
 55 53  1  0
 56 57  1  0
 58 60  1  0
 58 57  1  0
 59 70  2  0
 60 65  1  0
 61 69  1  0
 61 71  1  0
 62 68  1  0
 62 64  1  0
 63 69  1  0
 64 65  2  0
 64 63  1  0
 66 67  1  0
 66 60  2  0
 67 62  2  0
 68 61  1  0
 69 59  1  0
 71 73  2  0
 72 71  1  0
 74 72  1  0
 75 84  2  0
 75 80  1  0
 76 72  1  0
 76 80  1  0
 77 76  1  0
 78 79  1  0
 78 77  1  0
 79 75  1  0
 80 81  2  0
 81 82  1  0
 83 82  2  0
 84 83  1  0
 85 59  1  0
 85 86  1  0
 85 95  1  0
 86 89  1  0
 87 91  1  0
 87 86  1  0
 88 87  2  0
 91 90  1  0
 93 91  1  0
 93 94  1  0
 93 92  1  0
 95 98  1  1
 95 96  1  0
 97 95  1  0
M  ISO  4  18 100  26 100  57 101  58 101
M  END
>  <TORSDO>  (82) 
F 21

>  <SCORE>  (82) 
-14.214

>  <name>  (82) 
82

>  <ligand_id>  (82) 
82

>  <original_smiles>  (82) 
[H]c1c([H])c([H])c2c(c1[H])C([H])([H])C([H])([H])C([H])([H])C2([H])N([H])C(=O)C1([H])N(C(=O)C([H])(N([H])C(=O)C([H])(N([H])C([H])([H])[H])C([H])([H])[H])C(C([H])([H])[H])(C([H])([H])[H])C([H])([H])[H])C([H])([H])c2c([H])c(OC([H])([H])C([H])([H])[N+]3([H])C([H])([H])C([H])([H])C([H])(c4c([H])c([H])c(N([H])[H])c(C([H])([H])N([H])C(=O)N5C([H])([H])C([H])([H])C([H])([H])C([H])(n6nc(-c7c([H])c([H])c(Oc8c([H])c([H])c(F)c([H])c8F)c([H])c7[H])c(C(=O)N([H])[H])c6N([H])[H])C5([H])[H])c4[H])C([H])([H])C3([H])[H])c([H])c([H])c2C1([H])[H]

>  <smiles>  (82) 
[H]c1c([H])c([H])c2c(c1[H])C([H])([H])C([H])([H])C([H])([H])C2([H])N([H])C(=O)C1([H])N(C(=O)C([H])(N([H])C(=O)C([H])(N([H])C([H])([H])[H])C([H])([H])[H])C(C([H])([H])[H])(C([H])([H])[H])C([H])([H])[H])C([H])([H])c2c([H])c(OC([H])([H])C([H])([H])[N+]3([H])C([H])([H])C([H])([H])C([H])(c4c([H])c([H])c(N([H])[H])c(C([H])([H])N([H])C(=O)N5C([H])([H])C([H])([H])C([H])([H])C([H])(n6nc(-c7c([H])c([H])c(Oc8c([H])c([H])c(F)c([H])c8F)c([H])c7[H])c(C(=O)N([H])[H])c6N([H])[H])C5([H])[H])c4[H])C([H])([H])C3([H])[H])c([H])c([H])c2C1([H])[H]

$$$$
83:0:0
     RDKit          3D

102111  0  0  1  0  0  0  0  0999 V2000
  -24.9570  -21.5490   19.4600 C   0  0  0  0  0  3  0  0  0  0  0  0
  -25.2020  -22.2550   20.6560 C   0  0  0  0  0  3  0  0  0  0  0  0
  -27.5850  -22.3790   20.1110 C   0  0  0  0  0  3  0  0  0  0  0  0
  -26.0490  -21.2520   18.6240 C   0  0  0  0  0  0  0  0  0  0  0  0
  -27.3520  -21.6550   18.9230 C   0  0  0  0  0  0  0  0  0  0  0  0
  -26.5170  -22.6550   20.9940 C   0  0  0  0  0  0  0  0  0  0  0  0
  -27.4980  -20.2530   17.1060 C   0  0  0  0  0  0  0  0  0  0  0  0
  -26.0030  -20.4490   17.3580 C   0  0  0  0  0  2  0  0  0  0  0  0
  -28.3700  -21.2180   17.9380 C   0  0  0  0  0  3  0  0  0  0  0  0
  -27.9350  -19.3950   16.3330 O   0  0  0  0  0  0  0  0  0  0  0  0
  -29.4360  -20.4450   18.6000 N   0  0  0  0  0  4  0  0  0  0  0  0
  -29.5630  -19.5710   18.1120 H   0  0  0  0  0  0  0  0  0  0  0  0
  -29.0920  -20.2220   19.5190 H   0  0  0  0  0  0  0  0  0  0  0  0
  -30.7350  -21.1330   18.7550 C   0  0  0  0  0  2  0  0  0  0  0  0
  -31.7790  -20.4560   17.8570 C   0  0  0  0  0  2  0  0  0  0  0  0
  -34.0560  -20.4720   16.9920 C   0  0  0  0  0  0  0  0  0  0  0  0
  -35.2400  -18.5210   16.0330 C   0  0  0  0  0  2  0  0  0  0  0  0
  -34.2910  -17.6650   15.1710 C   0  0  0  0  0  2  0  0  0  0  0  0
  -33.5180  -16.6470   16.0340 C   0  0  0  0  0  2  0  0  0  0  0  0
  -32.8660  -17.3090   17.2690 C   0  0  0  0  0  3  0  0  0  0  0  0
  -33.9150  -18.1610   18.0250 C   0  0  0  0  0  2  0  0  0  0  0  0
  -34.4400  -19.1660   17.0830 N   0  0  0  0  0  0  0  0  0  0  0  0
  -34.5030  -21.2430   16.1340 O   0  0  0  0  0  0  0  0  0  0  0  0
  -33.1880  -20.8980   17.9440 N   0  0  0  0  0  0  0  0  0  0  0  0
  -30.9200  -16.2770   18.6020 C   0  0  0  0  0  0  0  0  0  0  0  0
  -30.8340  -15.1300   19.3430 C   0  0  0  0  0  0  0  0  0  0  0  0
  -32.1320  -14.5290   19.2940 C   0  0  0  0  0  0  0  0  0  0  0  0
  -32.2290  -16.3330   18.1460 N   0  0  0  0  0  0  0  0  0  0  0  0
  -32.9700  -15.3030   18.6190 N   0  0  0  0  0  0  0  0  0  0  0  0
  -32.6130  -13.2380   19.7990 C   0  0  0  0  0  0  0  0  0  0  0  0
  -33.8290  -13.1310   20.5130 C   0  0  0  0  0  3  0  0  0  0  0  0
  -34.2620  -11.8780   21.0010 C   0  0  0  0  0  3  0  0  0  0  0  0
  -33.4800  -10.7200   20.7760 C   0  0  0  0  0  0  0  0  0  0  0  0
  -32.2880  -10.8290   20.0420 C   0  0  0  0  0  3  0  0  0  0  0  0
  -31.8590  -12.0730   19.5530 C   0  0  0  0  0  3  0  0  0  0  0  0
  -33.8340   -9.4620   21.1960 O   0  0  0  0  0  0  0  0  0  0  0  0
  -34.7410   -9.2680   22.2060 C   0  0  0  0  0  0  0  0  0  0  0  0
  -34.6050   -9.9000   23.4620 C   0  0  0  0  0  3  0  0  0  0  0  0
  -35.5260   -9.6200   24.4930 C   0  0  0  0  0  3  0  0  0  0  0  0
  -36.5700   -8.7010   24.2770 C   0  0  0  0  0  0  0  0  0  0  0  0
  -36.7020   -8.0680   23.0310 C   0  0  0  0  0  3  0  0  0  0  0  0
  -35.7890   -8.3470   21.9990 C   0  0  0  0  0  0  0  0  0  0  0  0
  -35.9070   -7.7180   20.8040 F   0  0  0  0  0  0  0  0  0  0  0  0
  -37.4470   -8.4230   25.2710 F   0  0  0  0  0  0  0  0  0  0  0  0
  -29.5980  -14.5570   19.9710 C   0  0  0  0  0  0  0  0  0  0  0  0
  -29.7440  -13.8440   21.0810 N   0  0  0  0  0  0  0  0  0  0  0  0
  -28.4830  -14.7800   19.4970 O   0  0  0  0  0  0  0  0  0  0  0  0
  -30.6540  -13.6740   21.4850 H   0  0  0  0  0  0  0  0  0  0  0  0
  -28.9270  -13.4590   21.5360 H   0  0  0  0  0  0  0  0  0  0  0  0
  -29.9880  -17.2550   18.2510 N   0  0  0  0  0  0  0  0  0  0  0  0
  -29.0520  -16.9000   18.4130 H   0  0  0  0  0  0  0  0  0  0  0  0
  -30.0850  -17.5370   17.2810 H   0  0  0  0  0  0  0  0  0  0  0  0
  -33.8480  -21.5400   20.2380 C   0  0  0  0  0  1  0  0  0  0  0  0
  -33.5410  -22.0360   18.8130 C   0  0  0  0  0  2  0  0  0  0  0  0
  -26.8020  -23.3620   22.3140 C   0  0  0  0  0  2  0  0  0  0  0  0
  -26.8770  -24.8310   22.1820 N   0  0  0  0  0  4  0  0  0  0  0  0
  -27.2240  -25.1930   23.0550 H   0  0  0  0  0  0  0  0  0  0  0  0
  -25.9370  -25.1680   22.0810 H   0  0  0  0  0  0  0  0  0  0  0  0
  -27.7130  -25.3710   21.0820 C   0  0  0  0  0  2  0  0  0  0  0  0
  -26.9050  -26.3040   20.1570 C   0  0  0  0  0  2  0  0  0  0  0  0
  -27.5810  -26.5680   18.7780 C   0  0  0  0  0  2  0  0  0  0  0  0
  -27.0950  -27.6440   17.9410 O   0  0  0  0  0  0  0  0  0  0  0  0
  -24.8500  -31.3690   23.5270 C   0  0  0  0  0  0  0  0  0  0  0  0
  -26.0930  -28.4190   18.4660 C   0  0  0  0  0  0  0  0  0  0  0  0
  -23.1180  -30.7630   21.8680 C   0  0  0  0  0  3  0  0  0  0  0  0
  -23.9850  -29.8680   19.6420 C   0  0  0  0  0  0  0  0  0  0  0  0
  -25.5480  -31.1050   21.1540 C   0  0  0  0  0  2  0  0  0  0  0  0
  -25.3060  -30.0890   20.0570 C   0  0  0  0  0  0  0  0  0  0  0  0
  -26.3690  -29.3710   19.4700 C   0  0  0  0  0  3  0  0  0  0  0  0
  -24.7670  -28.2360   18.0200 C   0  0  0  0  0  3  0  0  0  0  0  0
  -23.7070  -28.9400   18.6220 C   0  0  0  0  0  3  0  0  0  0  0  0
  -22.9060  -30.6720   20.3350 C   0  0  0  0  0  2  0  0  0  0  0  0
  -24.5380  -31.0680   22.2360 N   0  0  0  0  0  0  0  0  0  0  0  0
  -23.9730  -31.4320   24.3990 O   0  0  0  0  0  0  0  0  0  0  0  0
  -22.5850  -29.4630   22.5140 C   0  0  0  0  0  0  0  0  0  0  0  0
  -21.2650  -29.2360   22.4080 N   0  0  0  0  0  0  0  0  0  0  0  0
  -23.3530  -28.6750   23.0710 O   0  0  0  0  0  0  0  0  0  0  0  0
  -20.7010  -29.9290   21.9340 H   0  0  0  0  0  0  0  0  0  0  0  0
  -18.0940  -27.5110   22.3310 C   0  0  0  0  0  0  0  0  0  0  0  0
  -20.5510  -28.0650   22.9140 C   0  0  0  0  0  3  0  0  0  0  0  0
  -20.9220  -26.7970   22.1120 C   0  0  0  0  0  2  0  0  0  0  0  0
  -19.9690  -26.5180   20.9460 C   0  0  0  0  0  2  0  0  0  0  0  0
  -18.5320  -26.3510   21.4530 C   0  0  0  0  0  2  0  0  0  0  0  0
  -19.0430  -28.3240   23.0030 C   0  0  0  0  0  0  0  0  0  0  0  0
  -18.5840  -29.4130   23.7780 C   0  0  0  0  0  3  0  0  0  0  0  0
  -17.2090  -29.6890   23.8890 C   0  0  0  0  0  3  0  0  0  0  0  0
  -16.2730  -28.8680   23.2370 C   0  0  0  0  0  3  0  0  0  0  0  0
  -16.7150  -27.7800   22.4630 C   0  0  0  0  0  3  0  0  0  0  0  0
  -26.3150  -31.6770   23.9630 C   0  0  0  0  0  3  0  0  0  0  0  0
  -26.8630  -30.6740   25.0520 C   0  0  1  0  0  0  0  0  0  0  0  0
  -25.9340  -30.5200   26.2780 C   0  0  0  0  0  1  0  0  0  0  0  0
  -27.0680  -29.2700   24.4380 C   0  0  0  0  0  1  0  0  0  0  0  0
  -28.2480  -31.1420   25.5520 C   0  0  0  0  0  1  0  0  0  0  0  0
  -26.3480  -33.0560   24.4680 N   0  0  0  0  0  0  0  0  0  0  0  0
  -26.8440  -34.1010   23.7930 C   0  0  0  0  0  0  0  0  0  0  0  0
  -27.3920  -33.9870   22.6930 O   0  0  0  0  0  0  0  0  0  0  0  0
  -25.8730  -33.2270   25.3400 H   0  0  0  0  0  0  0  0  0  0  0  0
  -25.5620  -36.2640   23.7630 C   0  0  0  0  0  1  0  0  0  0  0  0
  -26.7080  -35.4950   24.4400 C   0  0  0  0  0  3  0  0  0  0  0  0
  -29.0240  -35.7570   25.2100 C   0  0  0  0  0  1  0  0  0  0  0  0
  -27.9500  -36.2950   24.3790 N   0  0  0  0  0  0  0  0  0  0  0  0
  -27.7780  -37.2540   24.6670 H   0  0  0  0  0  0  0  0  0  0  0  0
  1  2  1  0
  2  6  2  0
  3  6  1  0
  4  5  1  0
  4  1  2  0
  5  3  2  0
  6 55  1  0
  7  8  1  0
  7  9  1  0
  8  4  1  0
  9 11  1  0
  9  5  1  0
 10  7  2  0
 11 14  1  0
 11 13  1  0
 12 11  1  0
 15 24  1  0
 15 14  1  0
 16 22  1  0
 16 24  1  0
 17 22  1  0
 18 17  1  0
 18 19  1  0
 20 19  1  0
 20 21  1  0
 20 28  1  0
 22 21  1  0
 23 16  2  0
 24 54  1  0
 25 26  2  0
 26 45  1  0
 27 26  1  0
 27 30  1  0
 28 25  1  0
 28 29  1  0
 29 27  2  0
 30 31  1  0
 31 32  2  0
 33 32  1  0
 33 36  1  0
 34 33  2  0
 35 30  2  0
 35 34  1  0
 36 37  1  0
 37 38  1  0
 38 39  2  0
 40 39  1  0
 40 44  1  0
 41 40  2  0
 42 37  2  0
 42 41  1  0
 43 42  1  0
 45 46  1  0
 46 48  1  0
 46 49  1  0
 47 45  2  0
 50 51  1  0
 50 25  1  0
 52 50  1  0
 54 53  1  0
 56 55  1  0
 56 57  1  0
 58 56  1  0
 59 56  1  0
 60 59  1  0
 61 60  1  0
 62 64  1  0
 62 61  1  0
 63 74  2  0
 64 69  1  0
 65 73  1  0
 65 75  1  0
 66 68  1  0
 66 72  1  0
 67 73  1  0
 68 67  1  0
 69 68  2  0
 70 64  2  0
 70 71  1  0
 71 66  2  0
 72 65  1  0
 73 63  1  0
 75 77  2  0
 76 75  1  0
 78 76  1  0
 79 88  2  0
 79 84  1  0
 80 76  1  0
 80 84  1  0
 81 80  1  0
 82 83  1  0
 82 81  1  0
 83 79  1  0
 84 85  2  0
 85 86  1  0
 87 86  2  0
 88 87  1  0
 89 63  1  0
 89 94  1  0
 89 90  1  0
 90 93  1  1
 90 91  1  0
 92 90  1  0
 94 97  1  0
 95 99  1  0
 95 94  1  0
 96 95  2  0
 99 98  1  0
101 99  1  0
101102  1  0
101100  1  0
M  ISO  4  16 100  24 100  61 101  62 101
M  END
>  <TORSDO>  (83) 
F 25

>  <SCORE>  (83) 
-4.265

>  <name>  (83) 
83

>  <ligand_id>  (83) 
83

>  <original_smiles>  (83) 
[H]c1c([H])c([H])c2c(c1[H])C([H])([H])C([H])([H])C([H])([H])C2([H])N([H])C(=O)C1([H])N(C(=O)C([H])(N([H])C(=O)C([H])(N([H])C([H])([H])[H])C([H])([H])[H])C(C([H])([H])[H])(C([H])([H])[H])C([H])([H])[H])C([H])([H])c2c([H])c(OC([H])([H])C([H])([H])C([H])([H])[N+]([H])([H])C([H])([H])c3c([H])c([H])c4c(c3[H])C([H])([N+]([H])([H])C([H])([H])C([H])([H])N(C(=O)N3C([H])([H])C([H])([H])C([H])([H])C([H])(n5nc(-c6c([H])c([H])c(Oc7c([H])c([H])c(F)c([H])c7F)c([H])c6[H])c(C(=O)N([H])[H])c5N([H])[H])C3([H])[H])C([H])([H])C([H])([H])[H])C(=O)C4([H])[H])c([H])c([H])c2C1([H])[H]

>  <smiles>  (83) 
[H]c1c([H])c([H])c2c(c1[H])C([H])([H])C([H])([H])C([H])([H])C2([H])N([H])C(=O)C1([H])N(C(=O)C([H])(N([H])C(=O)C([H])(N([H])C([H])([H])[H])C([H])([H])[H])C(C([H])([H])[H])(C([H])([H])[H])C([H])([H])[H])C([H])([H])c2c([H])c(OC([H])([H])C([H])([H])C([H])([H])[N+]([H])([H])C([H])([H])c3c([H])c([H])c4c(c3[H])C([H])([N+]([H])([H])C([H])([H])C([H])([H])N(C(=O)N3C([H])([H])C([H])([H])C([H])([H])C([H])(n5nc(-c6c([H])c([H])c(Oc7c([H])c([H])c(F)c([H])c7F)c([H])c6[H])c(C(=O)N([H])[H])c5N([H])[H])C3([H])[H])C([H])([H])C([H])([H])[H])C(=O)C4([H])[H])c([H])c([H])c2C1([H])[H]

$$$$
84:0:0
     RDKit          3D

 99108  0  0  1  0  0  0  0  0999 V2000
  -23.0950  -22.3050   21.0970 C   0  0  0  0  0  2  0  0  0  0  0  0
  -23.3960  -21.0790   20.1950 C   0  0  0  0  0  2  0  0  0  0  0  0
  -24.3320  -23.2200   21.1410 C   0  0  0  0  0  2  0  0  0  0  0  0
  -23.8910  -23.0980   18.6320 C   0  0  0  0  0  2  0  0  0  0  0  0
  -23.8220  -21.5300   18.7550 C   0  0  0  0  0  3  0  0  0  0  0  0
  -24.6470  -23.8410   19.7580 C   0  0  0  0  0  3  0  0  0  0  0  0
  -26.1870  -20.5250   15.9230 C   0  0  0  0  0  3  0  0  0  0  0  0
  -25.1020  -21.0290   16.6610 C   0  0  0  0  0  3  0  0  0  0  0  0
  -27.1640  -19.7360   16.5430 C   0  0  0  0  0  3  0  0  0  0  0  0
  -26.0210  -19.9620   18.6880 C   0  0  0  0  0  3  0  0  0  0  0  0
  -25.0280  -20.8180   18.0660 C   0  0  0  0  0  0  0  0  0  0  0  0
  -27.1020  -19.3870   17.9060 C   0  0  0  0  0  0  0  0  0  0  0  0
  -28.3480  -18.5810   18.4130 C   0  0  0  0  0  2  0  0  0  0  0  0
  -28.3680  -17.5740   19.6060 C   0  0  0  0  0  2  0  0  0  0  0  0
  -30.6520  -16.7100   20.6320 C   0  0  0  0  0  0  0  0  0  0  0  0
  -31.2580  -14.3930   21.2720 C   0  0  0  0  0  2  0  0  0  0  0  0
  -30.8730  -13.3960   20.1570 C   0  0  0  0  0  2  0  0  0  0  0  0
  -29.4020  -12.9540   20.3160 C   0  0  0  0  0  2  0  0  0  0  0  0
  -28.4510  -14.1600   20.5230 C   0  0  0  0  0  3  0  0  0  0  0  0
  -28.9650  -15.1210   21.6120 C   0  0  0  0  0  2  0  0  0  0  0  0
  -30.3140  -15.5290   21.2250 N   0  0  0  0  0  0  0  0  0  0  0  0
  -31.8410  -16.9910   20.4330 O   0  0  0  0  0  0  0  0  0  0  0  0
  -29.7050  -17.6230   20.2680 N   0  0  0  0  0  0  0  0  0  0  0  0
  -30.1970  -18.4480   19.9540 H   0  0  0  0  0  0  0  0  0  0  0  0
  -25.9510  -14.5470   20.9270 C   0  0  0  0  0  0  0  0  0  0  0  0
  -24.9180  -13.6610   21.1440 C   0  0  0  0  0  0  0  0  0  0  0  0
  -25.5050  -12.3680   21.1510 C   0  0  0  0  0  0  0  0  0  0  0  0
  -27.0820  -13.7610   20.8080 N   0  0  0  0  0  0  0  0  0  0  0  0
  -26.8200  -12.4460   21.0160 N   0  0  0  0  0  0  0  0  0  0  0  0
  -24.8860  -11.0330   21.2210 C   0  0  0  0  0  0  0  0  0  0  0  0
  -24.9450  -10.2510   22.3950 C   0  0  0  0  0  3  0  0  0  0  0  0
  -24.3300   -8.9810   22.4350 C   0  0  0  0  0  3  0  0  0  0  0  0
  -23.6510   -8.4850   21.2980 C   0  0  0  0  0  0  0  0  0  0  0  0
  -23.6150   -9.2590   20.1280 C   0  0  0  0  0  3  0  0  0  0  0  0
  -24.2320  -10.5210   20.0850 C   0  0  0  0  0  3  0  0  0  0  0  0
  -23.0490   -7.2520   21.2350 O   0  0  0  0  0  0  0  0  0  0  0  0
  -22.2040   -6.8170   22.2220 C   0  0  0  0  0  0  0  0  0  0  0  0
  -21.0080   -7.5040   22.5340 C   0  0  0  0  0  3  0  0  0  0  0  0
  -20.1340   -6.9860   23.5060 C   0  0  0  0  0  3  0  0  0  0  0  0
  -20.4430   -5.7790   24.1640 C   0  0  0  0  0  0  0  0  0  0  0  0
  -21.6310   -5.0940   23.8510 C   0  0  0  0  0  3  0  0  0  0  0  0
  -22.5050   -5.6100   22.8820 C   0  0  0  0  0  0  0  0  0  0  0  0
  -23.6410   -4.9370   22.5700 F   0  0  0  0  0  0  0  0  0  0  0  0
  -19.5980   -5.2740   25.0900 F   0  0  0  0  0  0  0  0  0  0  0  0
  -23.4600  -14.0100   21.2150 C   0  0  0  0  0  0  0  0  0  0  0  0
  -22.6840  -13.2360   21.9730 N   0  0  0  0  0  0  0  0  0  0  0  0
  -23.0020  -14.9850   20.6290 O   0  0  0  0  0  0  0  0  0  0  0  0
  -23.0540  -12.4320   22.4620 H   0  0  0  0  0  0  0  0  0  0  0  0
  -21.6990  -13.4500   22.0640 H   0  0  0  0  0  0  0  0  0  0  0  0
  -25.9990  -15.9190   20.7630 N   0  0  0  0  0  0  0  0  0  0  0  0
  -25.1640  -16.4870   20.6900 H   0  0  0  0  0  0  0  0  0  0  0  0
  -26.8240  -16.3720   20.3880 H   0  0  0  0  0  0  0  0  0  0  0  0
  -26.1200  -24.0300   19.5440 N   0  0  0  0  0  4  0  0  0  0  0  0
  -26.3570  -23.8410   18.5930 H   0  0  0  0  0  0  0  0  0  0  0  0
  -26.6090  -23.3460   20.1020 H   0  0  0  0  0  0  0  0  0  0  0  0
  -26.6810  -25.3480   19.9910 C   0  0  0  0  0  2  0  0  0  0  0  0
  -26.2710  -26.5800   19.1210 C   0  0  0  0  0  3  0  0  0  0  0  0
  -27.2380  -27.1800   18.0230 C   0  0  0  0  0  3  0  0  0  0  0  0
  -27.0290  -28.5390   17.5120 O   0  0  0  0  0  0  0  0  0  0  0  0
  -24.3890  -31.3940   23.3710 C   0  0  0  0  0  0  0  0  0  0  0  0
  -25.9210  -29.1480   18.0270 C   0  0  0  0  0  0  0  0  0  0  0  0
  -22.7420  -30.4280   21.7980 C   0  0  0  0  0  3  0  0  0  0  0  0
  -23.6300  -29.9170   19.4530 C   0  0  0  0  0  0  0  0  0  0  0  0
  -24.9450  -31.4250   20.9570 C   0  0  0  0  0  2  0  0  0  0  0  0
  -24.8800  -30.4440   19.8070 C   0  0  0  0  0  0  0  0  0  0  0  0
  -26.0300  -30.0790   19.0840 C   0  0  0  0  0  3  0  0  0  0  0  0
  -24.6480  -28.7390   17.5810 C   0  0  0  0  0  3  0  0  0  0  0  0
  -23.4990  -29.0980   18.3160 C   0  0  0  0  0  3  0  0  0  0  0  0
  -22.4400  -30.3590   20.2800 C   0  0  0  0  0  2  0  0  0  0  0  0
  -24.0640  -31.0680   22.0890 N   0  0  0  0  0  0  0  0  0  0  0  0
  -23.6020  -31.1920   24.3020 O   0  0  0  0  0  0  0  0  0  0  0  0
  -22.6150  -29.0160   22.3820 C   0  0  0  0  0  0  0  0  0  0  0  0
  -21.4480  -28.4050   22.1640 N   0  0  0  0  0  0  0  0  0  0  0  0
  -23.5390  -28.4950   23.0050 O   0  0  0  0  0  0  0  0  0  0  0  0
  -20.6720  -28.9600   21.8200 H   0  0  0  0  0  0  0  0  0  0  0  0
  -19.1170  -25.6340   21.7630 C   0  0  0  0  0  0  0  0  0  0  0  0
  -21.1330  -27.0400   22.5960 C   0  0  0  0  0  3  0  0  0  0  0  0
  -22.0220  -26.0010   21.8630 C   0  0  0  0  0  2  0  0  0  0  0  0
  -21.3890  -25.3770   20.6320 C   0  0  0  0  0  2  0  0  0  0  0  0
  -20.0400  -24.7190   20.9620 C   0  0  0  0  0  2  0  0  0  0  0  0
  -19.6280  -26.7250   22.5210 C   0  0  0  0  0  0  0  0  0  0  0  0
  -18.7160  -27.5460   23.2290 C   0  0  0  0  0  3  0  0  0  0  0  0
  -17.3370  -27.2770   23.1730 C   0  0  0  0  0  3  0  0  0  0  0  0
  -16.8460  -26.1800   22.4410 C   0  0  0  0  0  3  0  0  0  0  0  0
  -17.7370  -25.3670   21.7270 C   0  0  0  0  0  3  0  0  0  0  0  0
  -25.7610  -32.0560   23.7340 C   0  0  0  0  0  3  0  0  0  0  0  0
  -25.4890  -33.4610   24.0850 N   0  0  0  0  0  0  0  0  0  0  0  0
  -25.8110  -34.5120   23.3180 C   0  0  0  0  0  0  0  0  0  0  0  0
  -26.4490  -34.4010   22.2650 O   0  0  0  0  0  0  0  0  0  0  0  0
  -24.9490  -33.6200   24.9260 H   0  0  0  0  0  0  0  0  0  0  0  0
  -24.1910  -36.3890   22.9320 C   0  0  0  0  0  1  0  0  0  0  0  0
  -25.3570  -35.9020   23.8030 C   0  0  0  0  0  3  0  0  0  0  0  0
  -27.4720  -36.6630   24.7900 C   0  0  0  0  0  1  0  0  0  0  0  0
  -26.4310  -36.9090   23.7930 N   0  0  0  0  0  0  0  0  0  0  0  0
  -26.0600  -37.8400   23.9500 H   0  0  0  0  0  0  0  0  0  0  0  0
  -26.5190  -31.3290   24.9090 C   0  0  1  0  0  0  0  0  0  0  0  0
  -25.6460  -31.1250   26.1660 C   0  0  0  0  0  1  0  0  0  0  0  0
  -27.0360  -29.9500   24.4430 C   0  0  0  0  0  1  0  0  0  0  0  0
  -27.7670  -32.1430   25.3250 C   0  0  0  0  0  1  0  0  0  0  0  0
  1  3  1  0
  2  1  1  0
  4  5  1  0
  4  6  1  0
  5 11  1  0
  5  2  1  0
  6 53  1  0
  6  3  1  0
  7  9  2  0
  7  8  1  0
  8 11  2  0
  9 12  1  0
 11 10  1  0
 12 13  1  0
 12 10  2  0
 13 14  1  0
 14 23  1  0
 15 21  1  0
 17 18  1  0
 17 16  1  0
 19 18  1  0
 19 28  1  0
 19 20  1  0
 21 16  1  0
 21 20  1  0
 22 15  2  0
 23 15  1  0
 24 23  1  0
 25 26  2  0
 26 27  1  0
 26 45  1  0
 27 30  1  0
 28 25  1  0
 28 29  1  0
 29 27  2  0
 30 31  1  0
 31 32  2  0
 33 32  1  0
 34 33  2  0
 35 34  1  0
 35 30  2  0
 36 33  1  0
 36 37  1  0
 37 38  2  0
 37 42  1  0
 38 39  1  0
 39 40  2  0
 40 44  1  0
 41 40  1  0
 42 41  2  0
 43 42  1  0
 45 46  1  0
 46 49  1  0
 46 48  1  0
 47 45  2  0
 50 25  1  0
 51 50  1  0
 52 50  1  0
 53 56  1  0
 53 55  1  0
 54 53  1  0
 57 56  1  0
 58 57  2  0
 59 58  1  0
 59 61  1  0
 60 71  2  0
 61 66  1  0
 62 70  1  0
 62 72  1  0
 63 65  1  0
 63 69  1  0
 64 70  1  0
 65 64  1  0
 66 65  2  0
 67 61  2  0
 67 68  1  0
 68 63  2  0
 69 62  1  0
 70 60  1  0
 72 74  2  0
 73 72  1  0
 75 73  1  0
 76 81  1  0
 77 73  1  0
 78 77  1  0
 79 80  1  0
 79 78  1  0
 80 76  1  0
 81 77  1  0
 81 82  2  0
 83 82  1  0
 84 83  2  0
 85 76  2  0
 85 84  1  0
 86 60  1  0
 86 87  1  0
 86 96  1  0
 87 90  1  0
 88 92  1  0
 88 87  1  0
 89 88  2  0
 92 91  1  0
 94 92  1  0
 94 95  1  0
 94 93  1  0
 96 99  1  1
 96 97  1  0
 98 96  1  0
M  ISO  4  15 100  23 100  58 101  59 101
M  END
>  <TORSDO>  (84) 
F 23

>  <SCORE>  (84) 
3.522

>  <name>  (84) 
84

>  <ligand_id>  (84) 
84

>  <original_smiles>  (84) 
[H]c1c([H])c([H])c2c(c1[H])C([H])([H])C([H])([H])C([H])([H])C2([H])N([H])C(=O)C1([H])N(C(=O)C([H])(N([H])C(=O)C([H])(N([H])C([H])([H])[H])C([H])([H])[H])C(C([H])([H])[H])(C([H])([H])[H])C([H])([H])[H])C([H])([H])c2c([H])c(OC([H])([H])C([H])([H])C([H])([H])[N+]([H])([H])C3([H])C([H])([H])C([H])([H])C([H])([H])C([H])(c4c([H])c([H])c([H])c(C([H])([H])C([H])([H])N([H])C(=O)N5C([H])([H])C([H])([H])C([H])([H])C([H])(n6nc(-c7c([H])c([H])c(Oc8c([H])c([H])c(F)c([H])c8F)c([H])c7[H])c(C(=O)N([H])[H])c6N([H])[H])C5([H])[H])c4[H])C3([H])[H])c([H])c([H])c2C1([H])[H]

>  <smiles>  (84) 
[H]c1c([H])c([H])c2c(c1[H])C([H])([H])C([H])([H])C([H])([H])C2([H])N([H])C(=O)C1([H])N(C(=O)C([H])(N([H])C(=O)C([H])(N([H])C([H])([H])[H])C([H])([H])[H])C(C([H])([H])[H])(C([H])([H])[H])C([H])([H])[H])C([H])([H])c2c([H])c(OC([H])([H])C([H])([H])C([H])([H])[N+]([H])([H])C3([H])C([H])([H])C([H])([H])C([H])([H])C([H])(c4c([H])c([H])c([H])c(C([H])([H])C([H])([H])N([H])C(=O)N5C([H])([H])C([H])([H])C([H])([H])C([H])(n6nc(-c7c([H])c([H])c(Oc8c([H])c([H])c(F)c([H])c8F)c([H])c7[H])c(C(=O)N([H])[H])c6N([H])[H])C5([H])[H])c4[H])C3([H])[H])c([H])c([H])c2C1([H])[H]

$$$$
85:0:0
     RDKit          3D

100109  0  0  1  0  0  0  0  0999 V2000
  -30.6350  -22.8030   25.9350 C   0  0  0  0  0  3  0  0  0  0  0  0
  -30.4330  -24.1280   25.5030 C   0  0  0  0  0  3  0  0  0  0  0  0
  -28.2840  -22.3190   25.5220 C   0  0  0  0  0  3  0  0  0  0  0  0
  -29.5670  -21.8850   25.9100 C   0  0  0  0  0  0  0  0  0  0  0  0
  -28.0740  -23.6450   25.0950 C   0  0  0  0  0  0  0  0  0  0  0  0
  -29.1620  -24.5480   25.0480 C   0  0  0  0  0  0  0  0  0  0  0  0
  -26.6810  -24.0590   24.6470 C   0  0  0  0  0  1  0  0  0  0  0  0
  -28.9680  -25.8340   24.5280 N   0  0  0  0  0  0  0  0  0  0  0  0
  -28.0090  -26.0430   24.2720 H   0  0  0  0  0  0  0  0  0  0  0  0
  -29.9830  -26.3170   23.5940 C   0  0  0  0  0  2  0  0  0  0  0  0
  -29.3690  -27.0410   22.3840 C   0  0  0  0  0  2  0  0  0  0  0  0
  -28.7360  -26.0980   21.3340 C   0  0  0  0  0  2  0  0  0  0  0  0
  -28.4080  -26.7480   20.1000 O   0  0  0  0  0  0  0  0  0  0  0  0
  -24.6080  -31.8710   23.2120 C   0  0  0  0  0  0  0  0  0  0  0  0
  -27.2470  -27.4770   20.1160 C   0  0  0  0  0  0  0  0  0  0  0  0
  -23.3950  -30.4920   21.5490 C   0  0  0  0  0  3  0  0  0  0  0  0
  -24.8460  -28.9570   20.1180 C   0  0  0  0  0  0  0  0  0  0  0  0
  -25.9140  -30.8550   21.3540 C   0  0  0  0  0  2  0  0  0  0  0  0
  -25.9990  -29.4900   20.7080 C   0  0  0  0  0  0  0  0  0  0  0  0
  -27.2030  -28.7620   20.6940 C   0  0  0  0  0  3  0  0  0  0  0  0
  -26.0870  -26.9490   19.5140 C   0  0  0  0  0  3  0  0  0  0  0  0
  -24.8830  -27.6840   19.5160 C   0  0  0  0  0  3  0  0  0  0  0  0
  -23.6020  -29.8140   20.1660 C   0  0  0  0  0  2  0  0  0  0  0  0
  -24.6570  -31.0850   22.0990 N   0  0  0  0  0  0  0  0  0  0  0  0
  -23.5290  -32.1440   23.7550 O   0  0  0  0  0  0  0  0  0  0  0  0
  -22.7360  -29.4680   22.5000 C   0  0  0  0  0  0  0  0  0  0  0  0
  -21.4100  -29.3030   22.3750 N   0  0  0  0  0  0  0  0  0  0  0  0
  -23.4160  -28.8220   23.3030 O   0  0  0  0  0  0  0  0  0  0  0  0
  -20.9250  -29.8750   21.6960 H   0  0  0  0  0  0  0  0  0  0  0  0
  -18.0260  -28.1370   22.8500 C   0  0  0  0  0  0  0  0  0  0  0  0
  -20.5840  -28.3650   23.1340 C   0  0  0  0  0  3  0  0  0  0  0  0
  -20.6760  -26.9390   22.5420 C   0  0  0  0  0  2  0  0  0  0  0  0
  -19.5750  -26.6380   21.5200 C   0  0  0  0  0  2  0  0  0  0  0  0
  -18.1910  -26.7920   22.1610 C   0  0  0  0  0  2  0  0  0  0  0  0
  -19.1510  -28.8820   23.2930 C   0  0  0  0  0  0  0  0  0  0  0  0
  -18.9450  -30.1420   23.8950 C   0  0  0  0  0  3  0  0  0  0  0  0
  -17.6460  -30.6590   24.0550 C   0  0  0  0  0  3  0  0  0  0  0  0
  -16.5350  -29.9090   23.6320 C   0  0  0  0  0  3  0  0  0  0  0  0
  -16.7250  -28.6500   23.0350 C   0  0  0  0  0  3  0  0  0  0  0  0
  -25.8990  -32.4840   23.8410 C   0  0  0  0  0  3  0  0  0  0  0  0
  -25.5870  -33.8640   24.2340 N   0  0  0  0  0  0  0  0  0  0  0  0
  -25.9020  -34.9490   23.5140 C   0  0  0  0  0  0  0  0  0  0  0  0
  -26.5580  -34.8940   22.4700 O   0  0  0  0  0  0  0  0  0  0  0  0
  -25.0040  -33.9790   25.0500 H   0  0  0  0  0  0  0  0  0  0  0  0
  -24.1490  -36.7330   23.2640 C   0  0  0  0  0  1  0  0  0  0  0  0
  -25.4110  -36.3130   24.0350 C   0  0  0  0  0  3  0  0  0  0  0  0
  -27.5580  -37.1830   24.8470 C   0  0  0  0  0  1  0  0  0  0  0  0
  -26.4300  -37.3800   23.9410 N   0  0  0  0  0  0  0  0  0  0  0  0
  -26.0200  -38.2890   24.1400 H   0  0  0  0  0  0  0  0  0  0  0  0
  -26.4430  -31.6600   25.0710 C   0  0  1  0  0  0  0  0  0  0  0  0
  -25.3700  -31.3710   26.1460 C   0  0  0  0  0  1  0  0  0  0  0  0
  -27.0230  -30.3050   24.6010 C   0  0  0  0  0  1  0  0  0  0  0  0
  -27.6010  -32.4290   25.7490 C   0  0  0  0  0  1  0  0  0  0  0  0
  -29.7970  -20.4160   26.2130 C   0  0  0  0  0  2  0  0  0  0  0  0
  -30.1600  -19.6640   24.9200 C   0  0  0  0  0  2  0  0  0  0  0  0
  -30.2370  -18.2010   25.1090 N   0  0  0  0  0  4  0  0  0  0  0  0
  -30.8350  -18.0200   25.9000 H   0  0  0  0  0  0  0  0  0  0  0  0
  -29.3190  -17.8600   25.3460 H   0  0  0  0  0  0  0  0  0  0  0  0
  -31.2450  -15.0620   23.0980 C   0  0  0  0  0  2  0  0  0  0  0  0
  -30.4370  -16.7940   21.4820 C   0  0  0  0  0  2  0  0  0  0  0  0
  -30.7960  -15.9250   24.2900 C   0  0  0  0  0  2  0  0  0  0  0  0
  -29.9610  -17.6850   22.6460 C   0  0  0  0  0  2  0  0  0  0  0  0
  -30.3520  -15.3060   21.8670 C   0  0  0  0  0  3  0  0  0  0  0  0
  -30.7640  -17.4330   23.9520 C   0  0  0  0  0  3  0  0  0  0  0  0
  -30.7590  -14.3590   20.7130 C   0  0  0  0  0  0  0  0  0  0  0  0
  -30.4250  -12.3020   19.3830 C   0  0  0  0  0  2  0  0  0  0  0  0
  -29.4840  -12.5390   18.1870 C   0  0  0  0  0  2  0  0  0  0  0  0
  -28.0080  -12.3930   18.6040 C   0  0  0  0  0  2  0  0  0  0  0  0
  -27.6710  -13.1960   19.8880 C   0  0  0  0  0  3  0  0  0  0  0  0
  -28.7110  -12.8910   20.9880 C   0  0  0  0  0  2  0  0  0  0  0  0
  -30.0430  -13.2310   20.4570 N   0  0  0  0  0  0  0  0  0  0  0  0
  -31.7730  -14.6510   20.0690 O   0  0  0  0  0  0  0  0  0  0  0  0
  -25.2630  -13.8150   20.5680 C   0  0  0  0  0  0  0  0  0  0  0  0
  -24.1860  -13.0420   20.9160 C   0  0  0  0  0  0  0  0  0  0  0  0
  -24.6400  -11.6900   20.8730 C   0  0  0  0  0  0  0  0  0  0  0  0
  -26.3070  -12.9300   20.3410 N   0  0  0  0  0  0  0  0  0  0  0  0
  -25.9330  -11.6460   20.5770 N   0  0  0  0  0  0  0  0  0  0  0  0
  -23.9070  -10.4290   21.0400 C   0  0  0  0  0  0  0  0  0  0  0  0
  -24.3620   -9.4200   21.9180 C   0  0  0  0  0  3  0  0  0  0  0  0
  -23.6300   -8.2240   22.0750 C   0  0  0  0  0  3  0  0  0  0  0  0
  -22.4280   -8.0280   21.3540 C   0  0  0  0  0  0  0  0  0  0  0  0
  -21.9910   -9.0250   20.4630 C   0  0  0  0  0  3  0  0  0  0  0  0
  -22.7250  -10.2130   20.3040 C   0  0  0  0  0  3  0  0  0  0  0  0
  -21.6630   -6.8880   21.4240 O   0  0  0  0  0  0  0  0  0  0  0  0
  -21.6850   -6.0740   22.5280 C   0  0  0  0  0  0  0  0  0  0  0  0
  -21.4010   -6.5640   23.8220 C   0  0  0  0  0  3  0  0  0  0  0  0
  -21.3660   -5.6790   24.9180 C   0  0  0  0  0  3  0  0  0  0  0  0
  -21.6040   -4.3050   24.7230 C   0  0  0  0  0  0  0  0  0  0  0  0
  -21.8820   -3.8150   23.4350 C   0  0  0  0  0  3  0  0  0  0  0  0
  -21.9190   -4.6970   22.3400 C   0  0  0  0  0  0  0  0  0  0  0  0
  -22.1660   -4.2160   21.0980 F   0  0  0  0  0  0  0  0  0  0  0  0
  -21.5640   -3.4530   25.7740 F   0  0  0  0  0  0  0  0  0  0  0  0
  -22.7870  -13.5230   21.1830 C   0  0  0  0  0  0  0  0  0  0  0  0
  -22.0510  -12.8210   22.0370 N   0  0  0  0  0  0  0  0  0  0  0  0
  -22.3550  -14.5530   20.6680 O   0  0  0  0  0  0  0  0  0  0  0  0
  -22.4110  -11.9860   22.4760 H   0  0  0  0  0  0  0  0  0  0  0  0
  -21.1110  -13.1220   22.2560 H   0  0  0  0  0  0  0  0  0  0  0  0
  -25.4370  -15.1870   20.4090 N   0  0  0  0  0  0  0  0  0  0  0  0
  -24.6750  -15.8470   20.5210 H   0  0  0  0  0  0  0  0  0  0  0  0
  -26.2990  -15.6260   20.1120 H   0  0  0  0  0  0  0  0  0  0  0  0
  2  1  2  0
  3  4  2  0
  4  1  1  0
  4 54  1  0
  5  3  1  0
  6  5  2  0
  6  2  1  0
  7  5  1  0
  8  6  1  0
  9  8  1  0
 10  8  1  0
 11 10  1  0
 12 11  1  0
 13 15  1  0
 13 12  1  0
 14 25  2  0
 15 20  1  0
 16 24  1  0
 16 26  1  0
 17 23  1  0
 17 19  1  0
 18 24  1  0
 19 18  1  0
 20 19  2  0
 21 22  1  0
 21 15  2  0
 22 17  2  0
 23 16  1  0
 24 14  1  0
 26 28  2  0
 27 26  1  0
 29 27  1  0
 30 39  2  0
 30 35  1  0
 31 27  1  0
 31 35  1  0
 32 31  1  0
 33 34  1  0
 33 32  1  0
 34 30  1  0
 35 36  2  0
 36 37  1  0
 38 37  2  0
 39 38  1  0
 40 14  1  0
 40 41  1  0
 40 50  1  0
 41 44  1  0
 42 46  1  0
 42 41  1  0
 43 42  2  0
 46 45  1  0
 48 46  1  0
 48 49  1  0
 48 47  1  0
 50 53  1  1
 50 51  1  0
 52 50  1  0
 55 56  1  0
 55 54  1  0
 56 58  1  0
 56 57  1  0
 59 61  1  0
 60 63  1  0
 60 62  1  0
 62 64  1  0
 63 65  1  0
 63 59  1  0
 64 61  1  0
 64 56  1  0
 66 71  1  0
 67 68  1  0
 67 66  1  0
 69 68  1  0
 69 76  1  0
 69 70  1  0
 71 65  1  0
 71 70  1  0
 72 65  2  0
 73 74  2  0
 74 93  1  0
 75 74  1  0
 75 78  1  0
 76 73  1  0
 76 77  1  0
 77 75  2  0
 78 79  1  0
 79 80  2  0
 81 84  1  0
 81 80  1  0
 82 81  2  0
 83 82  1  0
 83 78  2  0
 84 85  1  0
 85 86  1  0
 86 87  2  0
 88 87  1  0
 88 92  1  0
 89 88  2  0
 90 85  2  0
 90 89  1  0
 91 90  1  0
 93 94  1  0
 94 97  1  0
 94 96  1  0
 95 93  2  0
 98 99  1  0
 98 73  1  0
100 98  1  0
M  ISO  4  12 101  13 101  63 100  65 100
M  END
>  <TORSDO>  (85) 
F 24

>  <SCORE>  (85) 
19.069

>  <name>  (85) 
85

>  <ligand_id>  (85) 
85

>  <original_smiles>  (85) 
[H]c1c([H])c([H])c2c(c1[H])C([H])([H])C([H])([H])C([H])([H])C2([H])N([H])C(=O)C1([H])N(C(=O)C([H])(N([H])C(=O)C([H])(N([H])C([H])([H])[H])C([H])([H])[H])C(C([H])([H])[H])(C([H])([H])[H])C([H])([H])[H])C([H])([H])c2c([H])c(OC([H])([H])C([H])([H])C([H])([H])N([H])c3c([H])c([H])c(C([H])([H])C([H])([H])[N+]([H])([H])C4([H])C([H])([H])C([H])([H])C([H])(C(=O)N5C([H])([H])C([H])([H])C([H])([H])C([H])(n6nc(-c7c([H])c([H])c(Oc8c([H])c([H])c(F)c([H])c8F)c([H])c7[H])c(C(=O)N([H])[H])c6N([H])[H])C5([H])[H])C([H])([H])C4([H])[H])c([H])c3C([H])([H])[H])c([H])c([H])c2C1([H])[H]

>  <smiles>  (85) 
[H]c1c([H])c([H])c2c(c1[H])C([H])([H])C([H])([H])C([H])([H])C2([H])N([H])C(=O)C1([H])N(C(=O)C([H])(N([H])C(=O)C([H])(N([H])C([H])([H])[H])C([H])([H])[H])C(C([H])([H])[H])(C([H])([H])[H])C([H])([H])[H])C([H])([H])c2c([H])c(OC([H])([H])C([H])([H])C([H])([H])N([H])c3c([H])c([H])c(C([H])([H])C([H])([H])[N+]([H])([H])C4([H])C([H])([H])C([H])([H])C([H])(C(=O)N5C([H])([H])C([H])([H])C([H])([H])C([H])(n6nc(-c7c([H])c([H])c(Oc8c([H])c([H])c(F)c([H])c8F)c([H])c7[H])c(C(=O)N([H])[H])c6N([H])[H])C5([H])[H])C([H])([H])C4([H])[H])c([H])c3C([H])([H])[H])c([H])c([H])c2C1([H])[H]

$$$$
86:0:0
     RDKit          3D

 97105  0  0  1  0  0  0  0  0999 V2000
  -31.0730  -23.5270   21.0990 C   0  0  0  0  0  3  0  0  0  0  0  0
  -30.4910  -24.7050   20.5700 C   0  0  0  0  0  3  0  0  0  0  0  0
  -28.9010  -22.4430   21.0560 C   0  0  0  0  0  3  0  0  0  0  0  0
  -30.2830  -22.3750   21.3260 C   0  0  0  0  0  0  0  0  0  0  0  0
  -29.1110  -24.7530   20.2760 C   0  0  0  0  0  0  0  0  0  0  0  0
  -28.2990  -23.6080   20.5300 C   0  0  0  0  0  0  0  0  0  0  0  0
  -30.8660  -21.1020   21.8950 C   0  0  0  0  0  0  0  0  0  0  0  0
  -30.2290  -19.9780   21.5290 N   0  0  0  0  0  0  0  0  0  0  0  0
  -31.8500  -21.1200   22.6380 O   0  0  0  0  0  0  0  0  0  0  0  0
  -29.4570  -20.1170   20.8940 H   0  0  0  0  0  0  0  0  0  0  0  0
  -30.3610  -18.6300   22.0860 C   0  0  0  0  0  2  0  0  0  0  0  0
  -30.2570  -17.5440   20.9870 C   0  0  0  0  0  2  0  0  0  0  0  0
  -30.1330  -16.1010   21.5560 C   0  0  0  0  0  2  0  0  0  0  0  0
  -30.6570  -15.0020   20.6050 C   0  0  0  0  0  0  0  0  0  0  0  0
  -30.4630  -12.8290   19.4510 C   0  0  0  0  0  2  0  0  0  0  0  0
  -29.5160  -12.9370   18.2410 C   0  0  0  0  0  2  0  0  0  0  0  0
  -28.0520  -12.7080   18.6680 C   0  0  0  0  0  2  0  0  0  0  0  0
  -27.6560  -13.5540   19.9080 C   0  0  0  0  0  3  0  0  0  0  0  0
  -28.7180  -13.4150   21.0220 C   0  0  0  0  0  2  0  0  0  0  0  0
  -30.0240  -13.8060   20.4590 N   0  0  0  0  0  0  0  0  0  0  0  0
  -31.6930  -15.2650   19.9850 O   0  0  0  0  0  0  0  0  0  0  0  0
  -25.2340  -14.0330   20.6380 C   0  0  0  0  0  0  0  0  0  0  0  0
  -24.2020  -13.2020   20.9870 C   0  0  0  0  0  0  0  0  0  0  0  0
  -24.7240  -11.8750   20.9130 C   0  0  0  0  0  0  0  0  0  0  0  0
  -26.3180  -13.2070   20.3820 N   0  0  0  0  0  0  0  0  0  0  0  0
  -26.0120  -11.9020   20.5990 N   0  0  0  0  0  0  0  0  0  0  0  0
  -24.0570  -10.5760   21.0680 C   0  0  0  0  0  0  0  0  0  0  0  0
  -24.4860   -9.6370   22.0330 C   0  0  0  0  0  3  0  0  0  0  0  0
  -23.8170   -8.4020   22.1750 C   0  0  0  0  0  3  0  0  0  0  0  0
  -22.7040   -8.0980   21.3560 C   0  0  0  0  0  0  0  0  0  0  0  0
  -22.2960   -9.0270   20.3820 C   0  0  0  0  0  3  0  0  0  0  0  0
  -22.9670  -10.2530   20.2370 C   0  0  0  0  0  3  0  0  0  0  0  0
  -22.0080   -6.9160   21.4080 O   0  0  0  0  0  0  0  0  0  0  0  0
  -21.8770   -6.2080   22.5760 C   0  0  0  0  0  0  0  0  0  0  0  0
  -21.2670   -6.7640   23.7220 C   0  0  0  0  0  3  0  0  0  0  0  0
  -21.0930   -5.9780   24.8770 C   0  0  0  0  0  3  0  0  0  0  0  0
  -21.5160   -4.6350   24.8870 C   0  0  0  0  0  0  0  0  0  0  0  0
  -22.1180   -4.0780   23.7450 C   0  0  0  0  0  3  0  0  0  0  0  0
  -22.2950   -4.8620   22.5920 C   0  0  0  0  0  0  0  0  0  0  0  0
  -22.8570   -4.3130   21.4870 F   0  0  0  0  0  0  0  0  0  0  0  0
  -21.3410   -3.8760   25.9940 F   0  0  0  0  0  0  0  0  0  0  0  0
  -22.7880  -13.6080   21.2830 C   0  0  0  0  0  0  0  0  0  0  0  0
  -22.1020  -12.8610   22.1380 N   0  0  0  0  0  0  0  0  0  0  0  0
  -22.2970  -14.6230   20.7890 O   0  0  0  0  0  0  0  0  0  0  0  0
  -22.5140  -12.0440   22.5630 H   0  0  0  0  0  0  0  0  0  0  0  0
  -21.1520  -13.1130   22.3760 H   0  0  0  0  0  0  0  0  0  0  0  0
  -25.3330  -15.4140   20.5010 N   0  0  0  0  0  0  0  0  0  0  0  0
  -24.5330  -16.0250   20.6250 H   0  0  0  0  0  0  0  0  0  0  0  0
  -26.1650  -15.9050   20.1940 H   0  0  0  0  0  0  0  0  0  0  0  0
  -26.7860  -23.6120   20.2280 C   0  0  0  0  0  2  0  0  0  0  0  0
  -25.9370  -22.5350   20.9450 C   0  0  0  0  0  2  0  0  0  0  0  0
  -24.4880  -22.7690   20.8050 N   0  0  0  0  0  4  0  0  0  0  0  0
  -23.9890  -22.0160   21.2480 H   0  0  0  0  0  0  0  0  0  0  0  0
  -24.2150  -22.8050   19.8360 H   0  0  0  0  0  0  0  0  0  0  0  0
  -24.2150  -23.6240   21.2620 H   0  0  0  0  0  0  0  0  0  0  0  0
  -28.4510  -25.9620   19.6210 C   0  0  0  0  0  2  0  0  0  0  0  0
  -28.9410  -27.3210   19.7720 O   0  0  0  0  0  0  0  0  0  0  0  0
  -25.0100  -31.6960   23.7980 C   0  0  0  0  0  0  0  0  0  0  0  0
  -27.8520  -28.1850   19.8090 C   0  0  0  0  0  0  0  0  0  0  0  0
  -23.9060  -30.7400   21.8100 C   0  0  0  0  0  3  0  0  0  0  0  0
  -25.4470  -29.6580   20.1010 C   0  0  0  0  0  0  0  0  0  0  0  0
  -26.4360  -31.1570   21.8250 C   0  0  0  0  0  2  0  0  0  0  0  0
  -26.5750  -29.9990   20.8590 C   0  0  0  0  0  0  0  0  0  0  0  0
  -27.7820  -29.2670   20.7230 C   0  0  0  0  0  3  0  0  0  0  0  0
  -26.7150  -27.9270   19.0000 C   0  0  0  0  0  3  0  0  0  0  0  0
  -25.5130  -28.6190   19.1670 C   0  0  0  0  0  3  0  0  0  0  0  0
  -24.1850  -30.4570   20.3120 C   0  0  0  0  0  2  0  0  0  0  0  0
  -25.1330  -31.2000   22.5360 N   0  0  0  0  0  0  0  0  0  0  0  0
  -23.9020  -31.8080   24.3390 O   0  0  0  0  0  0  0  0  0  0  0  0
  -23.2460  -29.4950   22.4450 C   0  0  0  0  0  0  0  0  0  0  0  0
  -21.9420  -29.3060   22.1830 N   0  0  0  0  0  0  0  0  0  0  0  0
  -23.9060  -28.7120   23.1330 O   0  0  0  0  0  0  0  0  0  0  0  0
  -21.4680  -29.9940   21.6130 H   0  0  0  0  0  0  0  0  0  0  0  0
  -18.5750  -27.9910   22.2410 C   0  0  0  0  0  0  0  0  0  0  0  0
  -21.1210  -28.1880   22.6490 C   0  0  0  0  0  3  0  0  0  0  0  0
  -21.2640  -26.9650   21.7160 C   0  0  0  0  0  2  0  0  0  0  0  0
  -20.1960  -26.9140   20.6210 C   0  0  0  0  0  2  0  0  0  0  0  0
  -18.7920  -26.8730   21.2370 C   0  0  0  0  0  2  0  0  0  0  0  0
  -19.6700  -28.6220   22.8920 C   0  0  0  0  0  0  0  0  0  0  0  0
  -19.4140  -29.6820   23.7880 C   0  0  0  0  0  3  0  0  0  0  0  0
  -18.0970  -30.1100   24.0410 C   0  0  0  0  0  3  0  0  0  0  0  0
  -17.0170  -29.4730   23.4050 C   0  0  0  0  0  3  0  0  0  0  0  0
  -17.2550  -28.4140   22.5110 C   0  0  0  0  0  3  0  0  0  0  0  0
  -26.2540  -32.1680   24.6110 C   0  0  0  0  0  3  0  0  0  0  0  0
  -26.5390  -31.2820   25.8860 C   0  0  1  0  0  0  0  0  0  0  0  0
  -25.2990  -31.0750   26.7870 C   0  0  0  0  0  1  0  0  0  0  0  0
  -27.0640  -29.8880   25.4740 C   0  0  0  0  0  1  0  0  0  0  0  0
  -27.6490  -31.9370   26.7430 C   0  0  0  0  0  1  0  0  0  0  0  0
  -26.0280  -33.5680   24.9900 N   0  0  0  0  0  0  0  0  0  0  0  0
  -26.5330  -34.6260   24.3410 C   0  0  0  0  0  0  0  0  0  0  0  0
  -27.3100  -34.5170   23.3880 O   0  0  0  0  0  0  0  0  0  0  0  0
  -25.3580  -33.7340   25.7270 H   0  0  0  0  0  0  0  0  0  0  0  0
  -25.0280  -36.5880   23.8890 C   0  0  0  0  0  1  0  0  0  0  0  0
  -26.1090  -36.0230   24.8250 C   0  0  0  0  0  3  0  0  0  0  0  0
  -28.1810  -36.6520   25.9850 C   0  0  0  0  0  1  0  0  0  0  0  0
  -27.2330  -36.9790   24.9220 N   0  0  0  0  0  0  0  0  0  0  0  0
  -26.8910  -37.9230   25.0800 H   0  0  0  0  0  0  0  0  0  0  0  0
  1  4  1  0
  2  1  2  0
  3  4  2  0
  4  7  1  0
  5  6  2  0
  5  2  1  0
  6  3  1  0
  7  9  2  0
  8  7  1  0
  8 11  1  0
 10  8  1  0
 12 13  1  0
 12 11  1  0
 14 13  1  0
 15 20  1  0
 16 17  1  0
 16 15  1  0
 18 17  1  0
 18 25  1  0
 18 19  1  0
 20 14  1  0
 20 19  1  0
 21 14  2  0
 22 23  2  0
 23 42  1  0
 24 23  1  0
 24 27  1  0
 25 26  1  0
 25 22  1  0
 26 24  2  0
 27 28  1  0
 28 29  2  0
 30 33  1  0
 30 29  1  0
 31 30  2  0
 32 31  1  0
 32 27  2  0
 33 34  1  0
 34 39  2  0
 34 35  1  0
 35 36  2  0
 36 37  1  0
 37 41  1  0
 38 37  2  0
 39 38  1  0
 40 39  1  0
 42 43  1  0
 43 46  1  0
 43 45  1  0
 44 42  2  0
 47 48  1  0
 47 22  1  0
 49 47  1  0
 50  6  1  0
 50 51  1  0
 52 51  1  0
 52 53  1  0
 52 55  1  0
 54 52  1  0
 56 57  1  0
 56  5  1  0
 57 59  1  0
 58 69  2  0
 59 64  1  0
 60 70  1  0
 60 68  1  0
 61 67  1  0
 61 63  1  0
 62 68  1  0
 63 62  1  0
 64 63  2  0
 65 66  1  0
 65 59  2  0
 66 61  2  0
 67 60  1  0
 68 58  1  0
 70 72  2  0
 71 70  1  0
 73 71  1  0
 74 83  2  0
 74 79  1  0
 75 71  1  0
 75 79  1  0
 76 75  1  0
 77 78  1  0
 77 76  1  0
 78 74  1  0
 79 80  2  0
 80 81  1  0
 82 81  2  0
 83 82  1  0
 84 58  1  0
 84 89  1  0
 84 85  1  0
 85 88  1  1
 85 86  1  0
 87 85  1  0
 89 92  1  0
 90 94  1  0
 90 89  1  0
 91 90  2  0
 94 93  1  0
 94 96  1  0
 96 97  1  0
 96 95  1  0
M  ISO  4  13 100  14 100  56 101  57 101
M  END
>  <TORSDO>  (86) 
F 24

>  <SCORE>  (86) 
-10.121

>  <name>  (86) 
86

>  <ligand_id>  (86) 
86

>  <original_smiles>  (86) 
[H]c1c([H])c([H])c2c(c1[H])C([H])([H])C([H])([H])C([H])([H])C2([H])N([H])C(=O)C1([H])N(C(=O)C([H])(N([H])C(=O)C([H])(N([H])C([H])([H])[H])C([H])([H])[H])C(C([H])([H])[H])(C([H])([H])[H])C([H])([H])[H])C([H])([H])c2c([H])c(OC([H])([H])c3c([H])c([H])c(C(=O)N([H])C([H])([H])C([H])([H])C([H])([H])C(=O)N4C([H])([H])C([H])([H])C([H])([H])C([H])(n5nc(-c6c([H])c([H])c(Oc7c([H])c([H])c(F)c([H])c7F)c([H])c6[H])c(C(=O)N([H])[H])c5N([H])[H])C4([H])[H])c([H])c3C([H])([H])C([H])([H])[N+]([H])([H])[H])c([H])c([H])c2C1([H])[H]

>  <smiles>  (86) 
[H]c1c([H])c([H])c2c(c1[H])C([H])([H])C([H])([H])C([H])([H])C2([H])N([H])C(=O)C1([H])N(C(=O)C([H])(N([H])C(=O)C([H])(N([H])C([H])([H])[H])C([H])([H])[H])C(C([H])([H])[H])(C([H])([H])[H])C([H])([H])[H])C([H])([H])c2c([H])c(OC([H])([H])c3c([H])c([H])c(C(=O)N([H])C([H])([H])C([H])([H])C([H])([H])C(=O)N4C([H])([H])C([H])([H])C([H])([H])C([H])(n5nc(-c6c([H])c([H])c(Oc7c([H])c([H])c(F)c([H])c7F)c([H])c6[H])c(C(=O)N([H])[H])c5N([H])[H])C4([H])[H])c([H])c3C([H])([H])C([H])([H])[N+]([H])([H])[H])c([H])c([H])c2C1([H])[H]

$$$$
87:0:0
     RDKit          3D

 99107  0  0  1  0  0  0  0  0999 V2000
  -29.6680  -22.6920   24.5190 C   0  0  0  0  0  1  0  0  0  0  0  0
  -30.5890  -22.9790   23.3210 C   0  0  0  0  0  3  0  0  0  0  0  0
  -30.0870  -26.3460   21.5540 C   0  0  0  0  0  3  0  0  0  0  0  0
  -28.8410  -26.1620   20.9230 C   0  0  0  0  0  3  0  0  0  0  0  0
  -30.6630  -25.2990   22.2950 C   0  0  0  0  0  3  0  0  0  0  0  0
  -28.7610  -23.8710   21.7460 C   0  0  0  0  0  3  0  0  0  0  0  0
  -28.1670  -24.9240   21.0140 C   0  0  0  0  0  0  0  0  0  0  0  0
  -30.0010  -24.0580   22.4110 C   0  0  0  0  0  0  0  0  0  0  0  0
  -26.7830  -24.7430   20.3880 C   0  0  0  0  0  2  0  0  0  0  0  0
  -26.5240  -25.6800   19.3370 O   0  0  0  0  0  0  0  0  0  0  0  0
  -24.1150  -31.2040   23.0790 C   0  0  0  0  0  0  0  0  0  0  0  0
  -25.4840  -26.5520   19.5490 C   0  0  0  0  0  0  0  0  0  0  0  0
  -22.4490  -30.1020   21.6100 C   0  0  0  0  0  3  0  0  0  0  0  0
  -23.3920  -28.4020   19.9560 C   0  0  0  0  0  0  0  0  0  0  0  0
  -24.9360  -30.0560   21.0260 C   0  0  0  0  0  2  0  0  0  0  0  0
  -24.6940  -28.7170   20.3640 C   0  0  0  0  0  0  0  0  0  0  0  0
  -25.7440  -27.7980   20.1530 C   0  0  0  0  0  3  0  0  0  0  0  0
  -24.1690  -26.2370   19.1490 C   0  0  0  0  0  3  0  0  0  0  0  0
  -23.1220  -27.1630   19.3460 C   0  0  0  0  0  3  0  0  0  0  0  0
  -22.3330  -29.4540   20.2040 C   0  0  0  0  0  2  0  0  0  0  0  0
  -23.8620  -30.4620   21.9620 N   0  0  0  0  0  0  0  0  0  0  0  0
  -23.1920  -31.6270   23.7880 O   0  0  0  0  0  0  0  0  0  0  0  0
  -21.7860  -29.1610   22.6410 C   0  0  0  0  0  0  0  0  0  0  0  0
  -20.4500  -29.0480   22.5760 N   0  0  0  0  0  0  0  0  0  0  0  0
  -22.4680  -28.5330   23.4530 O   0  0  0  0  0  0  0  0  0  0  0  0
  -19.9610  -29.6100   21.8930 H   0  0  0  0  0  0  0  0  0  0  0  0
  -17.0770  -27.8610   23.0670 C   0  0  0  0  0  0  0  0  0  0  0  0
  -19.6160  -28.1900   23.4160 C   0  0  0  0  0  3  0  0  0  0  0  0
  -19.7600  -26.7040   23.0120 C   0  0  0  0  0  2  0  0  0  0  0  0
  -18.7050  -26.2520   21.9960 C   0  0  0  0  0  2  0  0  0  0  0  0
  -17.2960  -26.4460   22.5640 C   0  0  0  0  0  2  0  0  0  0  0  0
  -18.1660  -28.6860   23.4540 C   0  0  0  0  0  0  0  0  0  0  0  0
  -17.9090  -30.0060   23.8830 C   0  0  0  0  0  3  0  0  0  0  0  0
  -16.5930  -30.4990   23.9430 C   0  0  0  0  0  3  0  0  0  0  0  0
  -15.5160  -29.6730   23.5760 C   0  0  0  0  0  3  0  0  0  0  0  0
  -15.7600  -28.3590   23.1390 C   0  0  0  0  0  3  0  0  0  0  0  0
  -25.5710  -31.5780   23.5030 C   0  0  0  0  0  3  0  0  0  0  0  0
  -25.5450  -32.9520   24.0230 N   0  0  0  0  0  0  0  0  0  0  0  0
  -26.0190  -34.0220   23.3700 C   0  0  0  0  0  0  0  0  0  0  0  0
  -26.5940  -33.9390   22.2810 O   0  0  0  0  0  0  0  0  0  0  0  0
  -25.0400  -33.0970   24.8870 H   0  0  0  0  0  0  0  0  0  0  0  0
  -24.6490  -36.1290   23.3430 C   0  0  0  0  0  1  0  0  0  0  0  0
  -25.8150  -35.4000   24.0270 C   0  0  0  0  0  3  0  0  0  0  0  0
  -28.1080  -35.7590   24.8300 C   0  0  0  0  0  1  0  0  0  0  0  0
  -27.0240  -36.2510   23.9840 N   0  0  0  0  0  0  0  0  0  0  0  0
  -26.8040  -37.2000   24.2700 H   0  0  0  0  0  0  0  0  0  0  0  0
  -26.1800  -30.5880   24.5710 C   0  0  1  0  0  0  0  0  0  0  0  0
  -25.2650  -30.3530   25.7940 C   0  0  0  0  0  1  0  0  0  0  0  0
  -26.4880  -29.2170   23.9270 C   0  0  0  0  0  1  0  0  0  0  0  0
  -27.5270  -31.1440   25.0920 C   0  0  0  0  0  1  0  0  0  0  0  0
  -30.9150  -21.7320   22.5880 N   0  0  0  0  0  4  0  0  0  0  0  0
  -30.9140  -21.0000   23.2780 H   0  0  0  0  0  0  0  0  0  0  0  0
  -30.1740  -21.5430   21.9330 H   0  0  0  0  0  0  0  0  0  0  0  0
  -32.2330  -21.7180   21.9010 C   0  0  0  0  0  2  0  0  0  0  0  0
  -32.5630  -20.3660   21.2230 C   0  0  0  0  0  2  0  0  0  0  0  0
  -31.7940  -20.0710   19.9100 C   0  0  0  0  0  2  0  0  0  0  0  0
  -32.1000  -18.7470   19.2850 N   0  0  1  0  0  4  0  0  0  0  0  0
  -31.5110  -18.6890   18.4670 H   0  0  0  0  0  0  0  0  0  0  0  0
  -33.7670  -19.5410   17.5550 C   0  0  0  0  0  1  0  0  0  0  0  0
  -33.4760  -18.5950   18.7310 C   0  0  0  0  0  2  0  0  0  0  0  0
  -31.6780  -17.5760   20.1050 C   0  0  0  0  0  2  0  0  0  0  0  0
  -30.1820  -17.2380   19.9140 C   0  0  0  0  0  2  0  0  0  0  0  0
  -29.7550  -15.9230   20.6140 C   0  0  0  0  0  2  0  0  0  0  0  0
  -30.4820  -14.6890   20.0460 C   0  0  0  0  0  0  0  0  0  0  0  0
  -30.3380  -12.3800   19.2110 C   0  0  0  0  0  2  0  0  0  0  0  0
  -29.3530  -12.3160   18.0290 C   0  0  0  0  0  2  0  0  0  0  0  0
  -27.9090  -12.1160   18.5330 C   0  0  0  0  0  2  0  0  0  0  0  0
  -27.5210  -13.1050   19.6660 C   0  0  0  0  0  3  0  0  0  0  0  0
  -28.6180  -13.1650   20.7520 C   0  0  0  0  0  2  0  0  0  0  0  0
  -29.9000  -13.4670   20.1000 N   0  0  0  0  0  0  0  0  0  0  0  0
  -31.5520  -14.8780   19.4570 O   0  0  0  0  0  0  0  0  0  0  0  0
  -25.1760  -13.6180   20.6090 C   0  0  0  0  0  0  0  0  0  0  0  0
  -24.1520  -12.8020   21.0080 C   0  0  0  0  0  0  0  0  0  0  0  0
  -24.6270  -11.4650   20.8460 C   0  0  0  0  0  0  0  0  0  0  0  0
  -26.2130  -12.7750   20.2350 N   0  0  0  0  0  0  0  0  0  0  0  0
  -25.8880  -11.4710   20.4340 N   0  0  0  0  0  0  0  0  0  0  0  0
  -23.9350  -10.1780   21.0050 C   0  0  0  0  0  0  0  0  0  0  0  0
  -24.3440   -9.2360   21.9760 C   0  0  0  0  0  3  0  0  0  0  0  0
  -23.6520   -8.0140   22.1230 C   0  0  0  0  0  3  0  0  0  0  0  0
  -22.5390   -7.7250   21.2970 C   0  0  0  0  0  0  0  0  0  0  0  0
  -22.1520   -8.6570   20.3180 C   0  0  0  0  0  3  0  0  0  0  0  0
  -22.8430   -9.8700   20.1690 C   0  0  0  0  0  3  0  0  0  0  0  0
  -21.8240   -6.5530   21.3510 O   0  0  0  0  0  0  0  0  0  0  0  0
  -21.6270   -5.8840   22.5310 C   0  0  0  0  0  0  0  0  0  0  0  0
  -20.9540   -6.4780   23.6220 C   0  0  0  0  0  3  0  0  0  0  0  0
  -20.7090   -5.7290   24.7910 C   0  0  0  0  0  3  0  0  0  0  0  0
  -21.1310   -4.3880   24.8690 C   0  0  0  0  0  0  0  0  0  0  0  0
  -21.7970   -3.7940   23.7830 C   0  0  0  0  0  3  0  0  0  0  0  0
  -22.0420   -4.5390   22.6180 C   0  0  0  0  0  0  0  0  0  0  0  0
  -22.6650   -3.9550   21.5650 F   0  0  0  0  0  0  0  0  0  0  0  0
  -20.8900   -3.6670   25.9900 F   0  0  0  0  0  0  0  0  0  0  0  0
  -22.7740  -13.2320   21.4240 C   0  0  0  0  0  0  0  0  0  0  0  0
  -22.1270  -12.4650   22.2920 N   0  0  0  0  0  0  0  0  0  0  0  0
  -22.2830  -14.2840   21.0140 O   0  0  0  0  0  0  0  0  0  0  0  0
  -22.5380  -11.6140   22.6470 H   0  0  0  0  0  0  0  0  0  0  0  0
  -21.2040  -12.7330   22.6060 H   0  0  0  0  0  0  0  0  0  0  0  0
  -25.3100  -15.0010   20.5130 N   0  0  0  0  0  0  0  0  0  0  0  0
  -24.5480  -15.6350   20.7300 H   0  0  0  0  0  0  0  0  0  0  0  0
  -26.1310  -15.4760   20.1590 H   0  0  0  0  0  0  0  0  0  0  0  0
  2  1  1  0
  3  5  1  0
  4  7  1  0
  4  3  2  0
  5  8  2  0
  6  8  1  0
  7  6  2  0
  8  2  1  0
  9  7  1  0
 10 12  1  0
 10  9  1  0
 11 22  2  0
 12 17  1  0
 13 21  1  0
 13 23  1  0
 14 20  1  0
 14 16  1  0
 15 21  1  0
 16 15  1  0
 17 16  2  0
 18 19  1  0
 18 12  2  0
 19 14  2  0
 20 13  1  0
 21 11  1  0
 23 25  2  0
 24 23  1  0
 26 24  1  0
 27 36  2  0
 27 32  1  0
 28 24  1  0
 28 32  1  0
 29 28  1  0
 30 31  1  0
 30 29  1  0
 31 27  1  0
 32 33  2  0
 33 34  1  0
 35 34  2  0
 36 35  1  0
 37 11  1  0
 37 38  1  0
 37 47  1  0
 38 41  1  0
 39 38  1  0
 39 43  1  0
 40 39  2  0
 43 42  1  0
 45 43  1  0
 45 46  1  0
 45 44  1  0
 47 50  1  1
 47 48  1  0
 49 47  1  0
 51 52  1  0
 51  2  1  0
 53 51  1  0
 54 51  1  0
 55 54  1  0
 56 55  1  0
 57 56  1  0
 57 61  1  0
 57 58  1  6
 59 60  1  0
 60 57  1  0
 62 61  1  0
 62 63  1  0
 64 70  1  0
 64 63  1  0
 65 70  1  0
 66 67  1  0
 66 65  1  0
 68 67  1  0
 68 75  1  0
 68 69  1  0
 70 69  1  0
 71 64  2  0
 72 73  2  0
 73 92  1  0
 74 77  1  0
 74 73  1  0
 75 76  1  0
 75 72  1  0
 76 74  2  0
 77 78  1  0
 78 79  2  0
 80 83  1  0
 80 79  1  0
 81 80  2  0
 82 81  1  0
 82 77  2  0
 83 84  1  0
 84 89  2  0
 84 85  1  0
 85 86  2  0
 86 87  1  0
 87 91  1  0
 88 87  2  0
 89 88  1  0
 90 89  1  0
 92 93  1  0
 93 96  1  0
 93 95  1  0
 94 92  2  0
 97 72  1  0
 97 98  1  0
 99 97  1  0
M  ISO  4   9 101  10 101  63 100  64 100
M  END
>  <TORSDO>  (87) 
F 27

>  <SCORE>  (87) 
-8.603

>  <name>  (87) 
87

>  <ligand_id>  (87) 
87

>  <original_smiles>  (87) 
[H]c1c([H])c([H])c2c(c1[H])C([H])([H])C([H])([H])C([H])([H])C2([H])N([H])C(=O)C1([H])N(C(=O)C([H])(N([H])C(=O)C([H])(N([H])C([H])([H])[H])C([H])([H])[H])C(C([H])([H])[H])(C([H])([H])[H])C([H])([H])[H])C([H])([H])c2c([H])c(OC([H])([H])c3c([H])c([H])c([H])c(C([H])(C([H])([H])[H])[N+]([H])([H])C([H])([H])C([H])([H])C([H])([H])[N+]([H])(C([H])([H])C([H])([H])[H])C([H])([H])C([H])([H])C([H])([H])C(=O)N4C([H])([H])C([H])([H])C([H])([H])C([H])(n5nc(-c6c([H])c([H])c(Oc7c([H])c([H])c(F)c([H])c7F)c([H])c6[H])c(C(=O)N([H])[H])c5N([H])[H])C4([H])[H])c3[H])c([H])c([H])c2C1([H])[H]

>  <smiles>  (87) 
[H]c1c([H])c([H])c2c(c1[H])C([H])([H])C([H])([H])C([H])([H])C2([H])N([H])C(=O)C1([H])N(C(=O)C([H])(N([H])C(=O)C([H])(N([H])C([H])([H])[H])C([H])([H])[H])C(C([H])([H])[H])(C([H])([H])[H])C([H])([H])[H])C([H])([H])c2c([H])c(OC([H])([H])c3c([H])c([H])c([H])c(C([H])(C([H])([H])[H])[N+]([H])([H])C([H])([H])C([H])([H])C([H])([H])[N+]([H])(C([H])([H])C([H])([H])[H])C([H])([H])C([H])([H])C([H])([H])C(=O)N4C([H])([H])C([H])([H])C([H])([H])C([H])(n5nc(-c6c([H])c([H])c(Oc7c([H])c([H])c(F)c([H])c7F)c([H])c6[H])c(C(=O)N([H])[H])c5N([H])[H])C4([H])[H])c3[H])c([H])c([H])c2C1([H])[H]

$$$$
88:0:0
     RDKit          3D

100109  0  0  1  0  0  0  0  0999 V2000
  -30.8940  -23.4050   23.8170 C   0  0  0  0  0  2  0  0  0  0  0  0
  -29.2130  -23.9130   19.8260 C   0  0  0  0  0  3  0  0  0  0  0  0
  -30.4860  -23.3360   19.9770 C   0  0  0  0  0  3  0  0  0  0  0  0
  -29.0610  -24.1900   22.2380 C   0  0  0  0  0  3  0  0  0  0  0  0
  -28.4970  -24.3590   20.9520 C   0  0  0  0  0  0  0  0  0  0  0  0
  -31.0640  -23.1860   21.2540 C   0  0  0  0  0  0  0  0  0  0  0  0
  -30.3380  -23.5960   22.4040 C   0  0  0  0  0  0  0  0  0  0  0  0
  -32.4590  -22.5810   21.3480 C   0  0  0  0  0  1  0  0  0  0  0  0
  -27.1280  -25.0020   20.7670 C   0  0  0  0  0  2  0  0  0  0  0  0
  -27.1930  -26.1430   19.9050 O   0  0  0  0  0  0  0  0  0  0  0  0
  -24.4000  -31.7320   23.2290 C   0  0  0  0  0  0  0  0  0  0  0  0
  -26.1180  -26.9960   19.9840 C   0  0  0  0  0  0  0  0  0  0  0  0
  -22.8580  -30.5070   21.7280 C   0  0  0  0  0  3  0  0  0  0  0  0
  -23.9480  -28.7880   20.1900 C   0  0  0  0  0  0  0  0  0  0  0  0
  -25.3740  -30.5340   21.2760 C   0  0  0  0  0  2  0  0  0  0  0  0
  -25.2150  -29.1640   20.6540 C   0  0  0  0  0  0  0  0  0  0  0  0
  -26.3050  -28.2740   20.5430 C   0  0  0  0  0  3  0  0  0  0  0  0
  -24.8390  -26.6210   19.5180 C   0  0  0  0  0  3  0  0  0  0  0  0
  -23.7550  -27.5160   19.6170 C   0  0  0  0  0  3  0  0  0  0  0  0
  -22.8370  -29.8020   20.3440 C   0  0  0  0  0  2  0  0  0  0  0  0
  -24.2350  -30.9350   22.1350 N   0  0  0  0  0  0  0  0  0  0  0  0
  -23.4230  -32.1480   23.8680 O   0  0  0  0  0  0  0  0  0  0  0  0
  -22.1740  -29.5850   22.7630 C   0  0  0  0  0  0  0  0  0  0  0  0
  -20.8510  -29.4060   22.6200 N   0  0  0  0  0  0  0  0  0  0  0  0
  -22.8320  -29.0280   23.6450 O   0  0  0  0  0  0  0  0  0  0  0  0
  -20.3860  -29.9040   21.8740 H   0  0  0  0  0  0  0  0  0  0  0  0
  -17.4910  -28.1430   23.0130 C   0  0  0  0  0  0  0  0  0  0  0  0
  -20.0050  -28.5510   23.4490 C   0  0  0  0  0  3  0  0  0  0  0  0
  -20.2030  -27.0580   23.0930 C   0  0  0  0  0  2  0  0  0  0  0  0
  -19.2030  -26.5500   22.0500 C   0  0  0  0  0  2  0  0  0  0  0  0
  -17.7670  -26.7220   22.5540 C   0  0  0  0  0  2  0  0  0  0  0  0
  -18.5410  -29.0070   23.4180 C   0  0  0  0  0  0  0  0  0  0  0  0
  -18.2320  -30.3310   23.7990 C   0  0  0  0  0  3  0  0  0  0  0  0
  -16.9020  -30.7910   23.7860 C   0  0  0  0  0  3  0  0  0  0  0  0
  -15.8630  -29.9260   23.3990 C   0  0  0  0  0  3  0  0  0  0  0  0
  -16.1580  -28.6060   23.0160 C   0  0  0  0  0  3  0  0  0  0  0  0
  -25.8140  -32.1800   23.7140 C   0  0  0  0  0  3  0  0  0  0  0  0
  -25.7160  -33.5880   24.1190 N   0  0  0  0  0  0  0  0  0  0  0  0
  -26.1250  -34.6230   23.3730 C   0  0  0  0  0  0  0  0  0  0  0  0
  -26.6960  -34.4820   22.2880 O   0  0  0  0  0  0  0  0  0  0  0  0
  -25.2010  -33.7790   24.9660 H   0  0  0  0  0  0  0  0  0  0  0  0
  -24.6280  -36.6390   23.2160 C   0  0  0  0  0  1  0  0  0  0  0  0
  -25.8580  -36.0400   23.9170 C   0  0  0  0  0  3  0  0  0  0  0  0
  -28.1440  -36.5990   24.6180 C   0  0  0  0  0  1  0  0  0  0  0  0
  -27.0110  -36.9550   23.7690 N   0  0  0  0  0  0  0  0  0  0  0  0
  -26.7410  -37.9120   23.9780 H   0  0  0  0  0  0  0  0  0  0  0  0
  -26.3780  -31.2970   24.8960 C   0  0  1  0  0  0  0  0  0  0  0  0
  -25.3860  -31.1220   26.0700 C   0  0  0  0  0  1  0  0  0  0  0  0
  -26.7610  -29.8860   24.3880 C   0  0  0  0  0  1  0  0  0  0  0  0
  -27.6740  -31.9310   25.4510 C   0  0  0  0  0  1  0  0  0  0  0  0
  -31.1510  -21.9250   24.1590 C   0  0  0  0  0  2  0  0  0  0  0  0
  -30.1040  -21.0530   23.5900 N   0  0  0  0  0  4  0  0  0  0  0  0
  -29.2910  -21.0280   24.1830 H   0  0  0  0  0  0  0  0  0  0  0  0
  -29.8180  -21.4320   22.6940 H   0  0  0  0  0  0  0  0  0  0  0  0
  -30.5160  -19.6860   23.2250 C   0  0  0  0  0  2  0  0  0  0  0  0
  -30.3650  -19.5440   21.7100 C   0  0  0  0  0  0  0  0  0  0  0  0
  -30.5690  -16.6280   19.4660 C   0  0  0  0  0  2  0  0  0  0  0  0
  -30.3940  -18.1280   19.6970 C   0  0  0  0  0  2  0  0  0  0  0  0
  -30.8190  -17.0840   21.8310 C   0  0  0  0  0  2  0  0  0  0  0  0
  -31.2500  -16.1120   20.7320 C   0  0  0  0  0  3  0  0  0  0  0  0
  -30.5030  -18.3330   21.1400 N   0  0  0  0  0  0  0  0  0  0  0  0
  -30.1280  -20.5600   21.0460 O   0  0  0  0  0  0  0  0  0  0  0  0
  -31.4600  -13.6660   20.4840 C   0  0  0  0  0  0  0  0  0  0  0  0
  -30.9600  -11.5350   19.3770 C   0  0  0  0  0  2  0  0  0  0  0  0
  -30.0690  -11.8250   18.1520 C   0  0  0  0  0  2  0  0  0  0  0  0
  -28.5820  -11.8510   18.5530 C   0  0  0  0  0  2  0  0  0  0  0  0
  -28.3090  -12.7400   19.7970 C   0  0  0  0  0  3  0  0  0  0  0  0
  -29.3130  -12.4210   20.9290 C   0  0  0  0  0  2  0  0  0  0  0  0
  -30.6770  -12.5620   20.3860 N   0  0  0  0  0  0  0  0  0  0  0  0
  -32.5830  -13.7530   19.9790 O   0  0  0  0  0  0  0  0  0  0  0  0
  -30.8550  -14.7360   21.0140 N   0  0  0  0  0  0  0  0  0  0  0  0
  -29.9440  -14.5850   21.4220 H   0  0  0  0  0  0  0  0  0  0  0  0
  -25.9710  -13.5980   20.4620 C   0  0  0  0  0  0  0  0  0  0  0  0
  -24.8240  -12.9410   20.8180 C   0  0  0  0  0  0  0  0  0  0  0  0
  -25.1450  -11.5480   20.8000 C   0  0  0  0  0  0  0  0  0  0  0  0
  -26.9250  -12.6130   20.2510 N   0  0  0  0  0  0  0  0  0  0  0  0
  -26.4290  -11.3760   20.5090 N   0  0  0  0  0  0  0  0  0  0  0  0
  -24.2940  -10.3680   20.9860 C   0  0  0  0  0  0  0  0  0  0  0  0
  -24.6060   -9.3720   21.9370 C   0  0  0  0  0  3  0  0  0  0  0  0
  -23.7600   -8.2560   22.1090 C   0  0  0  0  0  3  0  0  0  0  0  0
  -22.5870   -8.1270   21.3290 C   0  0  0  0  0  0  0  0  0  0  0  0
  -22.2920   -9.1080   20.3680 C   0  0  0  0  0  3  0  0  0  0  0  0
  -23.1370  -10.2170   20.1930 C   0  0  0  0  0  3  0  0  0  0  0  0
  -21.7230   -7.0610   21.4080 O   0  0  0  0  0  0  0  0  0  0  0  0
  -21.5590   -6.3520   22.5710 C   0  0  0  0  0  0  0  0  0  0  0  0
  -21.1380   -6.9710   23.7680 C   0  0  0  0  0  3  0  0  0  0  0  0
  -20.9120   -6.1940   24.9230 C   0  0  0  0  0  3  0  0  0  0  0  0
  -21.1000   -4.8000   24.8800 C   0  0  0  0  0  0  0  0  0  0  0  0
  -21.5150   -4.1810   23.6890 C   0  0  0  0  0  3  0  0  0  0  0  0
  -21.7420   -4.9560   22.5370 C   0  0  0  0  0  0  0  0  0  0  0  0
  -22.1200   -4.3510   21.3850 F   0  0  0  0  0  0  0  0  0  0  0  0
  -20.8770   -4.0520   25.9860 F   0  0  0  0  0  0  0  0  0  0  0  0
  -23.4780  -13.5600   21.0670 C   0  0  0  0  0  0  0  0  0  0  0  0
  -22.6770  -12.9560   21.9380 N   0  0  0  0  0  0  0  0  0  0  0  0
  -23.1490  -14.6150   20.5270 O   0  0  0  0  0  0  0  0  0  0  0  0
  -22.9550  -12.1050   22.4010 H   0  0  0  0  0  0  0  0  0  0  0  0
  -21.7750  -13.3580   22.1480 H   0  0  0  0  0  0  0  0  0  0  0  0
  -26.2760  -14.9440   20.2800 N   0  0  0  0  0  0  0  0  0  0  0  0
  -25.5750  -15.6700   20.3730 H   0  0  0  0  0  0  0  0  0  0  0  0
  -27.1640  -15.2910   19.9410 H   0  0  0  0  0  0  0  0  0  0  0  0
  1 51  1  0
  2  3  2  0
  2  5  1  0
  3  6  1  0
  4  7  1  0
  5  4  2  0
  6  8  1  0
  6  7  2  0
  7  1  1  0
  9  5  1  0
 10 12  1  0
 10  9  1  0
 11 22  2  0
 12 17  1  0
 13 21  1  0
 13 23  1  0
 14 20  1  0
 14 16  1  0
 15 21  1  0
 16 15  1  0
 17 16  2  0
 18 19  1  0
 18 12  2  0
 19 14  2  0
 20 13  1  0
 21 11  1  0
 23 25  2  0
 24 23  1  0
 26 24  1  0
 27 36  2  0
 27 32  1  0
 28 24  1  0
 29 28  1  0
 30 31  1  0
 30 29  1  0
 31 27  1  0
 32 28  1  0
 32 33  2  0
 34 33  1  0
 35 34  2  0
 36 35  1  0
 37 11  1  0
 37 38  1  0
 37 47  1  0
 38 41  1  0
 39 43  1  0
 39 38  1  0
 40 39  2  0
 43 42  1  0
 45 43  1  0
 45 46  1  0
 45 44  1  0
 47 50  1  1
 47 48  1  0
 49 47  1  0
 52 51  1  0
 52 53  1  0
 54 52  1  0
 55 52  1  0
 56 55  1  0
 57 58  1  0
 57 60  1  0
 58 61  1  0
 60 71  1  0
 60 59  1  0
 61 56  1  0
 61 59  1  0
 62 56  2  0
 63 71  1  0
 64 69  1  0
 65 66  1  0
 65 64  1  0
 67 66  1  0
 67 76  1  0
 67 68  1  0
 69 63  1  0
 69 68  1  0
 70 63  2  0
 71 72  1  0
 73 74  2  0
 74 93  1  0
 75 74  1  0
 75 78  1  0
 76 73  1  0
 76 77  1  0
 77 75  2  0
 78 79  1  0
 79 80  2  0
 81 84  1  0
 81 80  1  0
 82 81  2  0
 83 82  1  0
 83 78  2  0
 84 85  1  0
 85 86  1  0
 86 87  2  0
 88 87  1  0
 88 92  1  0
 89 88  2  0
 90 85  2  0
 90 89  1  0
 91 90  1  0
 93 94  1  0
 94 97  1  0
 94 96  1  0
 95 93  2  0
 98 99  1  0
 98 73  1  0
100 98  1  0
M  ISO  4   9 101  10 101  63 100  71 100
M  END
>  <TORSDO>  (88) 
F 22

>  <SCORE>  (88) 
-9.906

>  <name>  (88) 
88

>  <ligand_id>  (88) 
88

>  <original_smiles>  (88) 
[H]c1c([H])c([H])c2c(c1[H])C([H])([H])C([H])([H])C([H])([H])C2([H])N([H])C(=O)C1([H])N(C(=O)C([H])(N([H])C(=O)C([H])(N([H])C([H])([H])[H])C([H])([H])[H])C(C([H])([H])[H])(C([H])([H])[H])C([H])([H])[H])C([H])([H])c2c([H])c(OC([H])([H])c3c([H])c([H])c(C([H])([H])[H])c(C([H])([H])C([H])([H])[N+]([H])([H])C([H])([H])C(=O)N4C([H])([H])C([H])([H])C([H])(N([H])C(=O)N5C([H])([H])C([H])([H])C([H])([H])C([H])(n6nc(-c7c([H])c([H])c(Oc8c([H])c([H])c(F)c([H])c8F)c([H])c7[H])c(C(=O)N([H])[H])c6N([H])[H])C5([H])[H])C4([H])[H])c3[H])c([H])c([H])c2C1([H])[H]

>  <smiles>  (88) 
[H]c1c([H])c([H])c2c(c1[H])C([H])([H])C([H])([H])C([H])([H])C2([H])N([H])C(=O)C1([H])N(C(=O)C([H])(N([H])C(=O)C([H])(N([H])C([H])([H])[H])C([H])([H])[H])C(C([H])([H])[H])(C([H])([H])[H])C([H])([H])[H])C([H])([H])c2c([H])c(OC([H])([H])c3c([H])c([H])c(C([H])([H])[H])c(C([H])([H])C([H])([H])[N+]([H])([H])C([H])([H])C(=O)N4C([H])([H])C([H])([H])C([H])(N([H])C(=O)N5C([H])([H])C([H])([H])C([H])([H])C([H])(n6nc(-c7c([H])c([H])c(Oc8c([H])c([H])c(F)c([H])c8F)c([H])c7[H])c(C(=O)N([H])[H])c6N([H])[H])C5([H])[H])C4([H])[H])c3[H])c([H])c([H])c2C1([H])[H]

$$$$
89:0:0
     RDKit          3D

 91 99  0  0  1  0  0  0  0  0999 V2000
  -30.6830  -22.6060   20.6670 N   0  0  0  0  0  4  0  0  0  0  0  0
  -31.4190  -23.2080   20.3400 H   0  0  0  0  0  0  0  0  0  0  0  0
  -30.8400  -22.4480   21.6510 H   0  0  0  0  0  0  0  0  0  0  0  0
  -30.7710  -21.3610   19.9000 C   0  0  0  0  0  2  0  0  0  0  0  0
  -29.9510  -19.0650   20.6570 C   0  0  0  0  0  2  0  0  0  0  0  0
  -31.6440  -18.2090   22.0110 C   0  0  0  0  0  2  0  0  0  0  0  0
  -30.5470  -17.9360   21.2410 C   0  0  0  0  0  3  0  0  0  0  0  0
  -30.7710  -20.1580   20.7680 C   0  0  0  0  0  3  0  0  0  0  0  0
  -32.0650  -19.8940   21.9190 S   0  0  0  0  0  0  0  0  0  0  0  0
  -30.3310  -16.6280   20.6410 C   0  0  0  0  0  2  0  0  0  0  0  0
  -30.2670  -15.4350   21.2570 C   0  0  0  0  0  2  0  0  0  0  0  0
  -30.6910  -14.3610   20.3970 C   0  0  0  0  0  0  0  0  0  0  0  0
  -30.2430  -12.2740   19.2380 C   0  0  0  0  0  2  0  0  0  0  0  0
  -29.3390  -12.5550   18.0150 C   0  0  0  0  0  2  0  0  0  0  0  0
  -27.8550  -12.4820   18.4300 C   0  0  0  0  0  2  0  0  0  0  0  0
  -27.5520  -13.2630   19.7420 C   0  0  0  0  0  3  0  0  0  0  0  0
  -28.5910  -13.0170   20.8600 C   0  0  0  0  0  2  0  0  0  0  0  0
  -29.9290  -13.2500   20.2940 N   0  0  0  0  0  0  0  0  0  0  0  0
  -31.7320  -14.5200   19.7560 O   0  0  0  0  0  0  0  0  0  0  0  0
  -25.1810  -13.8540   20.5240 C   0  0  0  0  0  0  0  0  0  0  0  0
  -24.1230  -13.0740   20.9060 C   0  0  0  0  0  0  0  0  0  0  0  0
  -24.5800  -11.7210   20.8470 C   0  0  0  0  0  0  0  0  0  0  0  0
  -26.2120  -12.9740   20.2410 N   0  0  0  0  0  0  0  0  0  0  0  0
  -25.8620  -11.6870   20.4950 N   0  0  0  0  0  0  0  0  0  0  0  0
  -23.8580  -10.4590   21.0320 C   0  0  0  0  0  0  0  0  0  0  0  0
  -24.3270   -9.4620   21.9170 C   0  0  0  0  0  3  0  0  0  0  0  0
  -23.6050   -8.2630   22.0920 C   0  0  0  0  0  3  0  0  0  0  0  0
  -22.4010   -8.0510   21.3770 C   0  0  0  0  0  0  0  0  0  0  0  0
  -21.9550   -9.0380   20.4750 C   0  0  0  0  0  3  0  0  0  0  0  0
  -22.6790  -10.2260   20.3000 C   0  0  0  0  0  3  0  0  0  0  0  0
  -21.6460   -6.9080   21.4570 O   0  0  0  0  0  0  0  0  0  0  0  0
  -21.6550   -6.1170   22.5790 C   0  0  0  0  0  0  0  0  0  0  0  0
  -21.3280   -6.6290   23.8520 C   0  0  0  0  0  3  0  0  0  0  0  0
  -21.2850   -5.7640   24.9660 C   0  0  0  0  0  3  0  0  0  0  0  0
  -21.5620   -4.3960   24.8050 C   0  0  0  0  0  0  0  0  0  0  0  0
  -21.8860   -3.8830   23.5360 C   0  0  0  0  0  3  0  0  0  0  0  0
  -21.9340   -4.7460   22.4230 C   0  0  0  0  0  0  0  0  0  0  0  0
  -22.2230   -4.2490   21.1980 F   0  0  0  0  0  0  0  0  0  0  0  0
  -21.5150   -3.5610   25.8720 F   0  0  0  0  0  0  0  0  0  0  0  0
  -22.7320  -13.5550   21.2050 C   0  0  0  0  0  0  0  0  0  0  0  0
  -22.0110  -12.8600   22.0740 N   0  0  0  0  0  0  0  0  0  0  0  0
  -22.2880  -14.5860   20.6950 O   0  0  0  0  0  0  0  0  0  0  0  0
  -22.3860  -12.0320   22.5180 H   0  0  0  0  0  0  0  0  0  0  0  0
  -21.0740  -13.1590   22.2990 H   0  0  0  0  0  0  0  0  0  0  0  0
  -25.3610  -15.2250   20.3750 N   0  0  0  0  0  0  0  0  0  0  0  0
  -24.6090  -15.8970   20.4830 H   0  0  0  0  0  0  0  0  0  0  0  0
  -26.2280  -15.6580   20.0890 H   0  0  0  0  0  0  0  0  0  0  0  0
  -29.4180  -23.3130   20.4760 C   0  0  0  0  0  2  0  0  0  0  0  0
  -29.6670  -24.7880   20.1910 C   0  0  0  0  0  2  0  0  0  0  0  0
  -28.3380  -25.4790   20.3920 C   0  0  0  0  0  2  0  0  0  0  0  0
  -28.4320  -26.8530   20.0790 O   0  0  0  0  0  0  0  0  0  0  0  0
  -24.5660  -31.9010   23.2300 C   0  0  0  0  0  0  0  0  0  0  0  0
  -27.2360  -27.5120   20.1280 C   0  0  0  0  0  0  0  0  0  0  0  0
  -23.3610  -30.4850   21.5900 C   0  0  0  0  0  3  0  0  0  0  0  0
  -24.8190  -28.9490   20.1750 C   0  0  0  0  0  0  0  0  0  0  0  0
  -25.8810  -30.8610   21.3870 C   0  0  0  0  0  2  0  0  0  0  0  0
  -25.9730  -29.4890   20.7630 C   0  0  0  0  0  0  0  0  0  0  0  0
  -27.1820  -28.7760   20.7480 C   0  0  0  0  0  3  0  0  0  0  0  0
  -26.0670  -26.9760   19.5360 C   0  0  0  0  0  3  0  0  0  0  0  0
  -24.8620  -27.6840   19.5710 C   0  0  0  0  0  3  0  0  0  0  0  0
  -23.5670  -29.7870   20.2190 C   0  0  0  0  0  2  0  0  0  0  0  0
  -24.6220  -31.1020   22.1240 N   0  0  0  0  0  0  0  0  0  0  0  0
  -23.4870  -32.1730   23.7700 O   0  0  0  0  0  0  0  0  0  0  0  0
  -22.7150  -29.4730   22.5610 C   0  0  0  0  0  0  0  0  0  0  0  0
  -21.3900  -29.2900   22.4400 N   0  0  0  0  0  0  0  0  0  0  0  0
  -23.4000  -28.8600   23.3840 O   0  0  0  0  0  0  0  0  0  0  0  0
  -20.9050  -29.8380   21.7440 H   0  0  0  0  0  0  0  0  0  0  0  0
  -18.0200  -28.0830   22.9340 C   0  0  0  0  0  0  0  0  0  0  0  0
  -20.5750  -28.3560   23.2160 C   0  0  0  0  0  3  0  0  0  0  0  0
  -20.6860  -26.9210   22.6540 C   0  0  0  0  0  2  0  0  0  0  0  0
  -19.5870  -26.5840   21.6390 C   0  0  0  0  0  2  0  0  0  0  0  0
  -18.2030  -26.7280   22.2770 C   0  0  0  0  0  2  0  0  0  0  0  0
  -19.1340  -28.8550   23.3630 C   0  0  0  0  0  0  0  0  0  0  0  0
  -18.9070  -30.1230   23.9440 C   0  0  0  0  0  3  0  0  0  0  0  0
  -17.5990  -30.6190   24.1020 C   0  0  0  0  0  3  0  0  0  0  0  0
  -16.5020  -29.8480   23.6860 C   0  0  0  0  0  3  0  0  0  0  0  0
  -16.7120  -28.5820   23.1130 C   0  0  0  0  0  3  0  0  0  0  0  0
  -25.8570  -32.5300   23.8470 C   0  0  0  0  0  3  0  0  0  0  0  0
  -25.5470  -33.9290   24.1740 N   0  0  0  0  0  0  0  0  0  0  0  0
  -25.8790  -34.9790   23.4130 C   0  0  0  0  0  0  0  0  0  0  0  0
  -26.5500  -34.8790   22.3820 O   0  0  0  0  0  0  0  0  0  0  0  0
  -24.9420  -34.0820   24.9690 H   0  0  0  0  0  0  0  0  0  0  0  0
  -24.1420  -36.7670   23.0650 C   0  0  0  0  0  1  0  0  0  0  0  0
  -25.3890  -36.3690   23.8700 C   0  0  0  0  0  3  0  0  0  0  0  0
  -27.5300  -37.2540   24.6830 C   0  0  0  0  0  1  0  0  0  0  0  0
  -26.4180  -37.4250   23.7510 N   0  0  0  0  0  0  0  0  0  0  0  0
  -26.0090  -38.3440   23.9090 H   0  0  0  0  0  0  0  0  0  0  0  0
  -26.3880  -31.7620   25.1150 C   0  0  1  0  0  0  0  0  0  0  0  0
  -25.3130  -31.5230   26.1990 C   0  0  0  0  0  1  0  0  0  0  0  0
  -26.9680  -30.3860   24.7130 C   0  0  0  0  0  1  0  0  0  0  0  0
  -27.5430  -32.5640   25.7600 C   0  0  0  0  0  1  0  0  0  0  0  0
  1  3  1  0
  2  1  1  0
  4  1  1  0
  5  8  1  0
  5  7  1  0
  7 10  1  0
  7  6  1  0
  8  4  1  0
  8  9  1  0
  9  6  1  0
 10 11  1  0
 12 11  1  0
 13 18  1  0
 14 15  1  0
 14 13  1  0
 16 15  1  0
 16 23  1  0
 16 17  1  0
 18 12  1  0
 18 17  1  0
 19 12  2  0
 20 21  2  0
 21 40  1  0
 22 21  1  0
 22 25  1  0
 23 24  1  0
 23 20  1  0
 24 22  2  0
 25 26  1  0
 26 27  2  0
 28 31  1  0
 28 27  1  0
 29 28  2  0
 30 29  1  0
 30 25  2  0
 31 32  1  0
 32 33  1  0
 33 34  2  0
 35 34  1  0
 35 39  1  0
 36 35  2  0
 37 32  2  0
 37 36  1  0
 38 37  1  0
 40 41  1  0
 41 44  1  0
 41 43  1  0
 42 40  2  0
 45 46  1  0
 45 20  1  0
 47 45  1  0
 48  1  1  0
 49 50  1  0
 49 48  1  0
 51 53  1  0
 51 50  1  0
 52 63  2  0
 53 58  1  0
 54 62  1  0
 54 64  1  0
 55 61  1  0
 55 57  1  0
 56 62  1  0
 57 56  1  0
 58 57  2  0
 59 60  1  0
 59 53  2  0
 60 55  2  0
 61 54  1  0
 62 52  1  0
 64 66  2  0
 65 64  1  0
 67 65  1  0
 68 77  2  0
 68 73  1  0
 69 65  1  0
 69 73  1  0
 70 69  1  0
 71 72  1  0
 71 70  1  0
 72 68  1  0
 73 74  2  0
 74 75  1  0
 76 75  2  0
 77 76  1  0
 78 52  1  0
 78 79  1  0
 78 88  1  0
 79 82  1  0
 80 84  1  0
 80 79  1  0
 81 80  2  0
 84 83  1  0
 86 84  1  0
 86 87  1  0
 86 85  1  0
 88 91  1  1
 88 89  1  0
 90 88  1  0
M  ISO  4  11 100  12 100  50 101  51 101
M  END
>  <TORSDO>  (89) 
F 22

>  <SCORE>  (89) 
-13.055

>  <name>  (89) 
89

>  <ligand_id>  (89) 
89

>  <original_smiles>  (89) 
[H]C(C(=O)N1C([H])([H])C([H])([H])C([H])([H])C([H])(n2nc(-c3c([H])c([H])c(Oc4c([H])c([H])c(F)c([H])c4F)c([H])c3[H])c(C(=O)N([H])[H])c2N([H])[H])C1([H])[H])=C([H])c1c([H])sc(C([H])([H])[N+]([H])([H])C([H])([H])C([H])([H])C([H])([H])Oc2c([H])c([H])c3c(c2[H])C([H])([H])N(C(=O)C([H])(N([H])C(=O)C([H])(N([H])C([H])([H])[H])C([H])([H])[H])C(C([H])([H])[H])(C([H])([H])[H])C([H])([H])[H])C([H])(C(=O)N([H])C2([H])c4c([H])c([H])c([H])c([H])c4C([H])([H])C([H])([H])C2([H])[H])C3([H])[H])c1[H]

>  <smiles>  (89) 
[H]C(C(=O)N1C([H])([H])C([H])([H])C([H])([H])C([H])(n2nc(-c3c([H])c([H])c(Oc4c([H])c([H])c(F)c([H])c4F)c([H])c3[H])c(C(=O)N([H])[H])c2N([H])[H])C1([H])[H])=C([H])c1c([H])sc(C([H])([H])[N+]([H])([H])C([H])([H])C([H])([H])C([H])([H])Oc2c([H])c([H])c3c(c2[H])C([H])([H])N(C(=O)C([H])(N([H])C(=O)C([H])(N([H])C([H])([H])[H])C([H])([H])[H])C(C([H])([H])[H])(C([H])([H])[H])C([H])([H])[H])C([H])(C(=O)N([H])C2([H])c4c([H])c([H])c([H])c([H])c4C([H])([H])C([H])([H])C2([H])[H])C3([H])[H])c1[H]

$$$$
90:0:0
     RDKit          3D

 95103  0  0  1  0  0  0  0  0999 V2000
  -33.8880  -24.7260   18.7340 C   0  0  0  0  0  3  0  0  0  0  0  0
  -32.8570  -25.6930   18.7230 C   0  0  0  0  0  3  0  0  0  0  0  0
  -33.5770  -23.3500   18.7210 C   0  0  0  0  0  3  0  0  0  0  0  0
  -31.2130  -23.8990   18.5980 C   0  0  0  0  0  3  0  0  0  0  0  0
  -31.5100  -25.2720   18.6670 C   0  0  0  0  0  0  0  0  0  0  0  0
  -32.2350  -22.9280   18.6840 C   0  0  0  0  0  0  0  0  0  0  0  0
  -31.9450  -21.5570   18.7820 N   0  0  0  0  0  0  0  0  0  0  0  0
  -32.7620  -20.9620   18.8990 H   0  0  0  0  0  0  0  0  0  0  0  0
  -30.8010  -21.2020   19.6210 C   0  0  0  0  0  2  0  0  0  0  0  0
  -30.3780  -19.7460   19.4400 C   0  0  0  0  0  2  0  0  0  0  0  0
  -29.0160  -19.4800   20.1040 C   0  0  0  0  0  2  0  0  0  0  0  0
  -28.3590  -18.1610   19.6760 C   0  0  0  0  0  2  0  0  0  0  0  0
  -28.7140  -16.9550   20.5500 C   0  0  0  0  0  2  0  0  0  0  0  0
  -30.1880  -16.5380   20.4880 C   0  0  0  0  0  2  0  0  0  0  0  0
  -30.7310  -14.2250   19.9970 C   0  0  0  0  0  0  0  0  0  0  0  0
  -30.2090  -12.1280   18.8120 C   0  0  0  0  0  2  0  0  0  0  0  0
  -29.2110  -12.4000   17.6720 C   0  0  0  0  0  2  0  0  0  0  0  0
  -27.7670  -12.2990   18.1990 C   0  0  0  0  0  2  0  0  0  0  0  0
  -27.5350  -13.1380   19.4870 C   0  0  0  0  0  3  0  0  0  0  0  0
  -28.6540  -12.8730   20.5220 C   0  0  0  0  0  2  0  0  0  0  0  0
  -29.9630  -13.1100   19.8790 N   0  0  0  0  0  0  0  0  0  0  0  0
  -31.6850  -14.4700   19.2510 O   0  0  0  0  0  0  0  0  0  0  0  0
  -30.5560  -14.9250   22.3250 C   0  0  0  0  0  1  0  0  0  0  0  0
  -30.3140  -15.1370   20.8980 N   0  0  0  0  0  0  0  0  0  0  0  0
  -25.1960  -13.8000   20.3510 C   0  0  0  0  0  0  0  0  0  0  0  0
  -24.1440  -13.0530   20.8060 C   0  0  0  0  0  0  0  0  0  0  0  0
  -24.5710  -11.6900   20.7410 C   0  0  0  0  0  0  0  0  0  0  0  0
  -26.2070  -12.8990   20.0510 N   0  0  0  0  0  0  0  0  0  0  0  0
  -25.8330  -11.6240   20.3340 N   0  0  0  0  0  0  0  0  0  0  0  0
  -23.8330  -10.4430   20.9860 C   0  0  0  0  0  0  0  0  0  0  0  0
  -24.3180   -9.4640   21.8830 C   0  0  0  0  0  3  0  0  0  0  0  0
  -23.5840   -8.2810   22.1200 C   0  0  0  0  0  3  0  0  0  0  0  0
  -22.3520   -8.0670   21.4580 C   0  0  0  0  0  0  0  0  0  0  0  0
  -21.8820   -9.0350   20.5510 C   0  0  0  0  0  3  0  0  0  0  0  0
  -22.6160  -10.2100   20.3140 C   0  0  0  0  0  3  0  0  0  0  0  0
  -21.5870   -6.9340   21.6000 O   0  0  0  0  0  0  0  0  0  0  0  0
  -21.6200   -6.1840   22.7470 C   0  0  0  0  0  0  0  0  0  0  0  0
  -21.3390   -6.7440   24.0130 C   0  0  0  0  0  3  0  0  0  0  0  0
  -21.3200   -5.9240   25.1580 C   0  0  0  0  0  3  0  0  0  0  0  0
  -21.5670   -4.5430   25.0400 C   0  0  0  0  0  0  0  0  0  0  0  0
  -21.8390   -3.9810   23.7790 C   0  0  0  0  0  3  0  0  0  0  0  0
  -21.8620   -4.8000   22.6360 C   0  0  0  0  0  0  0  0  0  0  0  0
  -22.1050   -4.2510   21.4220 F   0  0  0  0  0  0  0  0  0  0  0  0
  -21.5400   -3.7520   26.1380 F   0  0  0  0  0  0  0  0  0  0  0  0
  -22.7790  -13.5580   21.1800 C   0  0  0  0  0  0  0  0  0  0  0  0
  -22.1040  -12.8890   22.1070 N   0  0  0  0  0  0  0  0  0  0  0  0
  -22.3170  -14.5850   20.6830 O   0  0  0  0  0  0  0  0  0  0  0  0
  -22.4850  -12.0580   22.5390 H   0  0  0  0  0  0  0  0  0  0  0  0
  -21.1900  -13.2130   22.3920 H   0  0  0  0  0  0  0  0  0  0  0  0
  -25.3670  -15.1680   20.1520 N   0  0  0  0  0  0  0  0  0  0  0  0
  -24.6210  -15.8300   20.3330 H   0  0  0  0  0  0  0  0  0  0  0  0
  -26.1730  -15.5990   19.7180 H   0  0  0  0  0  0  0  0  0  0  0  0
  -30.3810  -26.1650   18.8850 C   0  0  0  0  0  0  0  0  0  0  0  0
  -29.3470  -26.5710   19.3960 C   0  0  0  0  0  0  0  0  0  0  0  0
  -28.3490  -26.6640   20.2420 O   0  0  0  0  0  0  0  0  0  0  0  0
  -24.6160  -31.8220   23.2230 C   0  0  0  0  0  0  0  0  0  0  0  0
  -27.2590  -27.4670   20.0520 C   0  0  0  0  0  0  0  0  0  0  0  0
  -23.4010  -30.4450   21.5610 C   0  0  0  0  0  3  0  0  0  0  0  0
  -24.8570  -28.9420   20.0900 C   0  0  0  0  0  0  0  0  0  0  0  0
  -25.9170  -30.8220   21.3510 C   0  0  0  0  0  2  0  0  0  0  0  0
  -26.0090  -29.4650   20.6890 C   0  0  0  0  0  0  0  0  0  0  0  0
  -27.2120  -28.7300   20.6760 C   0  0  0  0  0  3  0  0  0  0  0  0
  -26.0940  -26.9430   19.4530 C   0  0  0  0  0  3  0  0  0  0  0  0
  -24.8940  -27.6830   19.4570 C   0  0  0  0  0  3  0  0  0  0  0  0
  -23.6110  -29.7940   20.1650 C   0  0  0  0  0  2  0  0  0  0  0  0
  -24.6640  -31.0390   22.1090 N   0  0  0  0  0  0  0  0  0  0  0  0
  -23.5390  -32.0840   23.7740 O   0  0  0  0  0  0  0  0  0  0  0  0
  -22.7520  -29.4100   22.5060 C   0  0  0  0  0  0  0  0  0  0  0  0
  -21.4240  -29.2420   22.3930 N   0  0  0  0  0  0  0  0  0  0  0  0
  -23.4390  -28.7620   23.3000 O   0  0  0  0  0  0  0  0  0  0  0  0
  -20.9270  -29.8140   21.7240 H   0  0  0  0  0  0  0  0  0  0  0  0
  -18.0500  -28.0640   22.9090 C   0  0  0  0  0  0  0  0  0  0  0  0
  -20.6100  -28.3010   23.1630 C   0  0  0  0  0  3  0  0  0  0  0  0
  -20.6990  -26.8780   22.5670 C   0  0  0  0  0  2  0  0  0  0  0  0
  -19.5860  -26.5760   21.5580 C   0  0  0  0  0  2  0  0  0  0  0  0
  -18.2120  -26.7210   22.2170 C   0  0  0  0  0  2  0  0  0  0  0  0
  -19.1770  -28.8110   23.3410 C   0  0  0  0  0  0  0  0  0  0  0  0
  -18.9700  -30.0680   23.9510 C   0  0  0  0  0  3  0  0  0  0  0  0
  -17.6700  -30.5760   24.1320 C   0  0  0  0  0  3  0  0  0  0  0  0
  -16.5580  -29.8250   23.7130 C   0  0  0  0  0  3  0  0  0  0  0  0
  -16.7490  -28.5710   23.1070 C   0  0  0  0  0  3  0  0  0  0  0  0
  -25.9070  -32.4450   23.8420 C   0  0  0  0  0  3  0  0  0  0  0  0
  -25.5960  -33.8320   24.2090 N   0  0  0  0  0  0  0  0  0  0  0  0
  -25.9190  -34.9020   23.4700 C   0  0  0  0  0  0  0  0  0  0  0  0
  -26.5790  -34.8270   22.4310 O   0  0  0  0  0  0  0  0  0  0  0  0
  -25.0060  -33.9670   25.0180 H   0  0  0  0  0  0  0  0  0  0  0  0
  -24.1780  -36.6960   23.1820 C   0  0  0  0  0  1  0  0  0  0  0  0
  -25.4310  -36.2770   23.9660 C   0  0  0  0  0  3  0  0  0  0  0  0
  -27.5780  -37.1470   24.7830 C   0  0  0  0  0  1  0  0  0  0  0  0
  -26.4570  -37.3380   23.8660 N   0  0  0  0  0  0  0  0  0  0  0  0
  -26.0490  -38.2500   24.0550 H   0  0  0  0  0  0  0  0  0  0  0  0
  -26.4490  -31.6400   25.0870 C   0  0  1  0  0  0  0  0  0  0  0  0
  -25.3800  -31.3720   26.1720 C   0  0  0  0  0  1  0  0  0  0  0  0
  -27.0150  -30.2720   24.6400 C   0  0  0  0  0  1  0  0  0  0  0  0
  -27.6110  -32.4200   25.7470 C   0  0  0  0  0  1  0  0  0  0  0  0
  2  1  1  0
  3  1  2  0
  4  5  1  0
  4  6  2  0
  5  2  2  0
  5 53  1  0
  6  3  1  0
  6  7  1  0
  7  8  1  0
  7  9  1  0
 10  9  1  0
 10 11  1  0
 12 11  1  0
 12 13  1  0
 14 13  1  0
 14 24  1  0
 15 24  1  0
 16 21  1  0
 17 18  1  0
 17 16  1  0
 19 18  1  0
 19 28  1  0
 19 20  1  0
 21 15  1  0
 21 20  1  0
 22 15  2  0
 24 23  1  0
 25 26  2  0
 26 45  1  0
 27 26  1  0
 27 30  1  0
 28 29  1  0
 28 25  1  0
 29 27  2  0
 30 31  1  0
 31 32  2  0
 33 36  1  0
 33 32  1  0
 34 33  2  0
 35 34  1  0
 35 30  2  0
 36 37  1  0
 37 38  1  0
 38 39  2  0
 40 39  1  0
 40 44  1  0
 41 40  2  0
 42 37  2  0
 42 41  1  0
 43 42  1  0
 45 46  1  0
 46 49  1  0
 46 48  1  0
 47 45  2  0
 50 51  1  0
 50 25  1  0
 52 50  1  0
 53 54  3  0
 54 55  1  0
 56 67  2  0
 57 55  1  0
 57 62  1  0
 58 66  1  0
 58 68  1  0
 59 65  1  0
 59 61  1  0
 60 66  1  0
 61 60  1  0
 62 61  2  0
 63 64  1  0
 63 57  2  0
 64 59  2  0
 65 58  1  0
 66 56  1  0
 68 70  2  0
 69 68  1  0
 71 69  1  0
 72 81  2  0
 72 77  1  0
 73 69  1  0
 73 77  1  0
 74 73  1  0
 75 76  1  0
 75 74  1  0
 76 72  1  0
 77 78  2  0
 78 79  1  0
 80 79  2  0
 81 80  1  0
 82 56  1  0
 82 83  1  0
 82 92  1  0
 83 86  1  0
 84 88  1  0
 84 83  1  0
 85 84  2  0
 88 87  1  0
 90 88  1  0
 90 91  1  0
 90 89  1  0
 92 95  1  1
 92 93  1  0
 94 92  1  0
M  ISO  4  15 100  24 100  54 101  55 101
M  END
>  <TORSDO>  (90) 
F 24

>  <SCORE>  (90) 
-11.295

>  <name>  (90) 
90

>  <ligand_id>  (90) 
90

>  <original_smiles>  (90) 
[H]c1c([H])c(C#COc2c([H])c([H])c3c(c2[H])C([H])([H])N(C(=O)C([H])(N([H])C(=O)C([H])(N([H])C([H])([H])[H])C([H])([H])[H])C(C([H])([H])[H])(C([H])([H])[H])C([H])([H])[H])C([H])(C(=O)N([H])C2([H])c4c([H])c([H])c([H])c([H])c4C([H])([H])C([H])([H])C2([H])[H])C3([H])[H])c([H])c(N([H])C([H])([H])C([H])([H])C([H])([H])C([H])([H])C([H])([H])C([H])([H])N(C(=O)N2C([H])([H])C([H])([H])C([H])([H])C([H])(n3nc(-c4c([H])c([H])c(Oc5c([H])c([H])c(F)c([H])c5F)c([H])c4[H])c(C(=O)N([H])[H])c3N([H])[H])C2([H])[H])C([H])([H])[H])c1[H]

>  <smiles>  (90) 
[H]c1c([H])c(C#COc2c([H])c([H])c3c(c2[H])C([H])([H])N(C(=O)C([H])(N([H])C(=O)C([H])(N([H])C([H])([H])[H])C([H])([H])[H])C(C([H])([H])[H])(C([H])([H])[H])C([H])([H])[H])C([H])(C(=O)N([H])C2([H])c4c([H])c([H])c([H])c([H])c4C([H])([H])C([H])([H])C2([H])[H])C3([H])[H])c([H])c(N([H])C([H])([H])C([H])([H])C([H])([H])C([H])([H])C([H])([H])C([H])([H])N(C(=O)N2C([H])([H])C([H])([H])C([H])([H])C([H])(n3nc(-c4c([H])c([H])c(Oc5c([H])c([H])c(F)c([H])c5F)c([H])c4[H])c(C(=O)N([H])[H])c3N([H])[H])C2([H])[H])C([H])([H])[H])c1[H]

$$$$
91:0:0
     RDKit          3D

 95103  0  0  1  0  0  0  0  0999 V2000
  -33.1050  -26.2040   19.1530 C   0  0  0  0  0  3  0  0  0  0  0  0
  -33.1100  -24.8120   19.3710 C   0  0  0  0  0  3  0  0  0  0  0  0
  -31.9870  -26.9760   19.5290 C   0  0  0  0  0  3  0  0  0  0  0  0
  -30.8910  -24.9710   20.3740 C   0  0  0  0  0  3  0  0  0  0  0  0
  -32.0040  -24.1870   19.9850 C   0  0  0  0  0  0  0  0  0  0  0  0
  -30.8670  -26.3620   20.1340 C   0  0  0  0  0  0  0  0  0  0  0  0
  -31.9970  -22.6770   20.1980 C   0  0  0  0  0  2  0  0  0  0  0  0
  -31.2000  -22.0230   19.1460 N   0  0  0  0  0  4  0  0  0  0  0  0
  -31.7180  -21.9900   18.2820 H   0  0  0  0  0  0  0  0  0  0  0  0
  -30.4000  -22.6120   18.9940 H   0  0  0  0  0  0  0  0  0  0  0  0
  -30.7070  -20.6750   19.4850 C   0  0  0  0  0  2  0  0  0  0  0  0
  -31.5780  -19.5600   18.8700 C   0  0  0  0  0  2  0  0  0  0  0  0
  -31.3030  -18.1380   19.4070 C   0  0  0  0  0  2  0  0  0  0  0  0
  -29.8120  -17.8510   19.6360 C   0  0  0  0  0  2  0  0  0  0  0  0
  -29.4150  -16.3650   19.5870 C   0  0  0  0  0  2  0  0  0  0  0  0
  -30.8060  -14.3820   20.0340 C   0  0  0  0  0  0  0  0  0  0  0  0
  -30.4060  -12.1990   18.9410 C   0  0  0  0  0  2  0  0  0  0  0  0
  -29.4170  -12.3800   17.7720 C   0  0  0  0  0  2  0  0  0  0  0  0
  -27.9580  -12.3070   18.2650 C   0  0  0  0  0  2  0  0  0  0  0  0
  -27.6980  -13.1950   19.5140 C   0  0  0  0  0  3  0  0  0  0  0  0
  -28.7910  -12.9570   20.5790 C   0  0  0  0  0  2  0  0  0  0  0  0
  -30.1000  -13.2180   19.9560 N   0  0  0  0  0  0  0  0  0  0  0  0
  -31.9090  -14.5410   19.5050 O   0  0  0  0  0  0  0  0  0  0  0  0
  -30.1620  -15.8140   21.9220 C   0  0  0  0  0  1  0  0  0  0  0  0
  -30.1110  -15.4430   20.5070 N   0  0  0  0  0  0  0  0  0  0  0  0
  -25.3610  -13.8850   20.3380 C   0  0  0  0  0  0  0  0  0  0  0  0
  -24.2900  -13.1470   20.7620 C   0  0  0  0  0  0  0  0  0  0  0  0
  -24.7110  -11.7800   20.7220 C   0  0  0  0  0  0  0  0  0  0  0  0
  -26.3640  -12.9710   20.0610 N   0  0  0  0  0  0  0  0  0  0  0  0
  -25.9820  -11.7020   20.3550 N   0  0  0  0  0  0  0  0  0  0  0  0
  -23.9670  -10.5370   20.9460 C   0  0  0  0  0  0  0  0  0  0  0  0
  -24.4220   -9.5500   21.8470 C   0  0  0  0  0  3  0  0  0  0  0  0
  -23.6700   -8.3740   22.0620 C   0  0  0  0  0  3  0  0  0  0  0  0
  -22.4480   -8.1800   21.3750 C   0  0  0  0  0  0  0  0  0  0  0  0
  -22.0150   -9.1510   20.4570 C   0  0  0  0  0  3  0  0  0  0  0  0
  -22.7680  -10.3160   20.2400 C   0  0  0  0  0  3  0  0  0  0  0  0
  -21.6590   -7.0630   21.5010 O   0  0  0  0  0  0  0  0  0  0  0  0
  -21.6610   -6.3090   22.6460 C   0  0  0  0  0  0  0  0  0  0  0  0
  -21.3620   -6.8660   23.9100 C   0  0  0  0  0  3  0  0  0  0  0  0
  -21.3050   -6.0390   25.0480 C   0  0  0  0  0  3  0  0  0  0  0  0
  -21.5410   -4.6570   24.9310 C   0  0  0  0  0  0  0  0  0  0  0  0
  -21.8370   -4.1000   23.6730 C   0  0  0  0  0  3  0  0  0  0  0  0
  -21.8910   -4.9230   22.5360 C   0  0  0  0  0  0  0  0  0  0  0  0
  -22.1530   -4.3740   21.3240 F   0  0  0  0  0  0  0  0  0  0  0  0
  -21.4830   -3.8640   26.0260 F   0  0  0  0  0  0  0  0  0  0  0  0
  -22.9180  -13.6570   21.1000 C   0  0  0  0  0  0  0  0  0  0  0  0
  -22.2190  -12.9770   22.0020 N   0  0  0  0  0  0  0  0  0  0  0  0
  -22.4790  -14.6920   20.5950 O   0  0  0  0  0  0  0  0  0  0  0  0
  -22.5880  -12.1310   22.4160 H   0  0  0  0  0  0  0  0  0  0  0  0
  -21.3090  -13.3060   22.2930 H   0  0  0  0  0  0  0  0  0  0  0  0
  -25.5710  -15.2500   20.1470 N   0  0  0  0  0  0  0  0  0  0  0  0
  -24.8470  -15.9510   20.2710 H   0  0  0  0  0  0  0  0  0  0  0  0
  -26.4400  -15.6380   19.8080 H   0  0  0  0  0  0  0  0  0  0  0  0
  -29.6520  -27.1940   20.5380 C   0  0  0  0  0  2  0  0  0  0  0  0
  -28.4300  -26.6700   20.0050 O   0  0  0  0  0  0  0  0  0  0  0  0
  -24.6220  -31.8340   23.2020 C   0  0  0  0  0  0  0  0  0  0  0  0
  -27.2760  -27.4270   20.1020 C   0  0  0  0  0  0  0  0  0  0  0  0
  -23.4010  -30.4370   21.5600 C   0  0  0  0  0  3  0  0  0  0  0  0
  -24.8510  -28.8920   20.1390 C   0  0  0  0  0  0  0  0  0  0  0  0
  -25.9200  -30.7970   21.3540 C   0  0  0  0  0  2  0  0  0  0  0  0
  -26.0040  -29.4270   20.7230 C   0  0  0  0  0  0  0  0  0  0  0  0
  -27.2110  -28.7000   20.7190 C   0  0  0  0  0  3  0  0  0  0  0  0
  -26.1000  -26.8930   19.5310 C   0  0  0  0  0  3  0  0  0  0  0  0
  -24.8870  -27.6140   19.5520 C   0  0  0  0  0  3  0  0  0  0  0  0
  -23.6050  -29.7490   20.1840 C   0  0  0  0  0  2  0  0  0  0  0  0
  -24.6640  -31.0380   22.0970 N   0  0  0  0  0  0  0  0  0  0  0  0
  -23.5460  -32.1100   23.7510 O   0  0  0  0  0  0  0  0  0  0  0  0
  -22.7520  -29.4200   22.5250 C   0  0  0  0  0  0  0  0  0  0  0  0
  -21.4240  -29.2570   22.4130 N   0  0  0  0  0  0  0  0  0  0  0  0
  -23.4380  -28.7820   23.3280 O   0  0  0  0  0  0  0  0  0  0  0  0
  -20.9320  -29.8210   21.7350 H   0  0  0  0  0  0  0  0  0  0  0  0
  -18.0430  -28.1030   22.9460 C   0  0  0  0  0  0  0  0  0  0  0  0
  -20.6060  -28.3240   23.1880 C   0  0  0  0  0  3  0  0  0  0  0  0
  -20.6840  -26.8960   22.6020 C   0  0  0  0  0  2  0  0  0  0  0  0
  -19.5670  -26.5940   21.5990 C   0  0  0  0  0  2  0  0  0  0  0  0
  -18.1950  -26.7550   22.2600 C   0  0  0  0  0  2  0  0  0  0  0  0
  -19.1770  -28.8470   23.3680 C   0  0  0  0  0  0  0  0  0  0  0  0
  -18.9830  -30.1100   23.9670 C   0  0  0  0  0  3  0  0  0  0  0  0
  -17.6870  -30.6290   24.1520 C   0  0  0  0  0  3  0  0  0  0  0  0
  -16.5690  -29.8820   23.7460 C   0  0  0  0  0  3  0  0  0  0  0  0
  -16.7470  -28.6220   23.1480 C   0  0  0  0  0  3  0  0  0  0  0  0
  -25.9180  -32.4560   23.8130 C   0  0  0  0  0  3  0  0  0  0  0  0
  -25.6110  -33.8440   24.1760 N   0  0  0  0  0  0  0  0  0  0  0  0
  -25.9290  -34.9130   23.4320 C   0  0  0  0  0  0  0  0  0  0  0  0
  -26.5820  -34.8340   22.3890 O   0  0  0  0  0  0  0  0  0  0  0  0
  -25.0180  -33.9780   24.9810 H   0  0  0  0  0  0  0  0  0  0  0  0
  -24.1790  -36.6990   23.1510 C   0  0  0  0  0  1  0  0  0  0  0  0
  -25.4410  -36.2880   23.9270 C   0  0  0  0  0  3  0  0  0  0  0  0
  -27.5910  -37.1690   24.7210 C   0  0  0  0  0  1  0  0  0  0  0  0
  -26.4610  -37.3520   23.8140 N   0  0  0  0  0  0  0  0  0  0  0  0
  -26.0500  -38.2620   24.0000 H   0  0  0  0  0  0  0  0  0  0  0  0
  -26.4600  -31.6580   25.0630 C   0  0  1  0  0  0  0  0  0  0  0  0
  -25.3840  -31.3980   26.1420 C   0  0  0  0  0  1  0  0  0  0  0  0
  -27.0370  -30.2890   24.6320 C   0  0  0  0  0  1  0  0  0  0  0  0
  -27.6160  -32.4420   25.7270 C   0  0  0  0  0  1  0  0  0  0  0  0
  1  2  2  0
  1  3  1  0
  2  5  1  0
  3  6  2  0
  5  7  1  0
  5  4  2  0
  6  4  1  0
  6 54  1  0
  8 11  1  0
  8  7  1  0
  9  8  1  0
 10  8  1  0
 12 13  1  0
 12 11  1  0
 13 14  1  0
 15 14  1  0
 15 25  1  0
 16 25  1  0
 17 22  1  0
 18 19  1  0
 18 17  1  0
 20 19  1  0
 20 29  1  0
 20 21  1  0
 22 16  1  0
 22 21  1  0
 23 16  2  0
 25 24  1  0
 26 27  2  0
 27 46  1  0
 28 27  1  0
 28 31  1  0
 29 26  1  0
 29 30  1  0
 30 28  2  0
 31 32  1  0
 32 33  2  0
 34 37  1  0
 34 33  1  0
 35 34  2  0
 36 35  1  0
 36 31  2  0
 37 38  1  0
 38 39  1  0
 39 40  2  0
 41 40  1  0
 41 45  1  0
 42 41  2  0
 43 38  2  0
 43 42  1  0
 44 43  1  0
 46 47  1  0
 47 50  1  0
 47 49  1  0
 48 46  2  0
 51 52  1  0
 51 26  1  0
 53 51  1  0
 55 57  1  0
 55 54  1  0
 56 67  2  0
 57 62  1  0
 58 66  1  0
 58 68  1  0
 59 65  1  0
 59 61  1  0
 60 66  1  0
 61 60  1  0
 62 61  2  0
 63 64  1  0
 63 57  2  0
 64 59  2  0
 65 58  1  0
 66 56  1  0
 68 70  2  0
 69 68  1  0
 71 69  1  0
 72 81  2  0
 72 77  1  0
 73 69  1  0
 73 77  1  0
 74 73  1  0
 75 76  1  0
 75 74  1  0
 76 72  1  0
 77 78  2  0
 78 79  1  0
 80 79  2  0
 81 80  1  0
 82 56  1  0
 82 83  1  0
 82 92  1  0
 83 86  1  0
 84 88  1  0
 84 83  1  0
 85 84  2  0
 88 87  1  0
 90 88  1  0
 90 91  1  0
 90 89  1  0
 92 95  1  1
 92 93  1  0
 94 92  1  0
M  ISO  4  16 100  25 100  54 101  55 101
M  END
>  <TORSDO>  (91) 
F 24

>  <SCORE>  (91) 
-12.148

>  <name>  (91) 
91

>  <ligand_id>  (91) 
91

>  <original_smiles>  (91) 
[H]c1c([H])c([H])c2c(c1[H])C([H])([H])C([H])([H])C([H])([H])C2([H])N([H])C(=O)C1([H])N(C(=O)C([H])(N([H])C(=O)C([H])(N([H])C([H])([H])[H])C([H])([H])[H])C(C([H])([H])[H])(C([H])([H])[H])C([H])([H])[H])C([H])([H])c2c([H])c(OC([H])([H])c3c([H])c([H])c([H])c(C([H])([H])[N+]([H])([H])C([H])([H])C([H])([H])C([H])([H])C([H])([H])C([H])([H])N(C(=O)N4C([H])([H])C([H])([H])C([H])([H])C([H])(n5nc(-c6c([H])c([H])c(Oc7c([H])c([H])c(F)c([H])c7F)c([H])c6[H])c(C(=O)N([H])[H])c5N([H])[H])C4([H])[H])C([H])([H])[H])c3[H])c([H])c([H])c2C1([H])[H]

>  <smiles>  (91) 
[H]c1c([H])c([H])c2c(c1[H])C([H])([H])C([H])([H])C([H])([H])C2([H])N([H])C(=O)C1([H])N(C(=O)C([H])(N([H])C(=O)C([H])(N([H])C([H])([H])[H])C([H])([H])[H])C(C([H])([H])[H])(C([H])([H])[H])C([H])([H])[H])C([H])([H])c2c([H])c(OC([H])([H])c3c([H])c([H])c([H])c(C([H])([H])[N+]([H])([H])C([H])([H])C([H])([H])C([H])([H])C([H])([H])C([H])([H])N(C(=O)N4C([H])([H])C([H])([H])C([H])([H])C([H])(n5nc(-c6c([H])c([H])c(Oc7c([H])c([H])c(F)c([H])c7F)c([H])c6[H])c(C(=O)N([H])[H])c5N([H])[H])C4([H])[H])C([H])([H])[H])c3[H])c([H])c([H])c2C1([H])[H]

$$$$
92:0:0
     RDKit          3D

 95103  0  0  1  0  0  0  0  0999 V2000
  -26.7520  -19.6290   18.6670 C   0  0  0  0  0  3  0  0  0  0  0  0
  -28.3590  -20.2700   20.3950 C   0  0  0  0  0  3  0  0  0  0  0  0
  -26.2170  -20.9300   18.6870 C   0  0  0  0  0  3  0  0  0  0  0  0
  -27.8240  -21.5670   20.4150 C   0  0  0  0  0  3  0  0  0  0  0  0
  -27.8520  -19.3070   19.4920 C   0  0  0  0  0  0  0  0  0  0  0  0
  -26.7780  -21.9080   19.5390 C   0  0  0  0  0  0  0  0  0  0  0  0
  -28.4980  -17.9630   19.3820 C   0  0  0  0  0  0  0  0  0  0  0  0
  -29.7740  -17.9360   19.7830 N   0  0  0  0  0  0  0  0  0  0  0  0
  -27.9210  -17.0000   18.8770 O   0  0  0  0  0  0  0  0  0  0  0  0
  -30.1640  -18.8070   20.1180 H   0  0  0  0  0  0  0  0  0  0  0  0
  -30.6800  -16.8200   19.6020 C   0  0  0  0  0  2  0  0  0  0  0  0
  -30.4710  -15.6960   20.6380 C   0  0  0  0  0  2  0  0  0  0  0  0
  -31.0910  -14.4180   20.0690 C   0  0  0  0  0  0  0  0  0  0  0  0
  -30.6940  -12.2360   19.0180 C   0  0  0  0  0  2  0  0  0  0  0  0
  -29.7000  -12.4140   17.8510 C   0  0  0  0  0  2  0  0  0  0  0  0
  -28.2480  -12.3100   18.3580 C   0  0  0  0  0  2  0  0  0  0  0  0
  -27.9770  -13.2090   19.5950 C   0  0  0  0  0  3  0  0  0  0  0  0
  -29.0800  -13.0120   20.6600 C   0  0  0  0  0  2  0  0  0  0  0  0
  -30.3860  -13.2600   20.0270 N   0  0  0  0  0  0  0  0  0  0  0  0
  -32.1870  -14.5480   19.5160 O   0  0  0  0  0  0  0  0  0  0  0  0
  -25.6510  -13.8770   20.4860 C   0  0  0  0  0  0  0  0  0  0  0  0
  -24.5750  -13.1280   20.8780 C   0  0  0  0  0  0  0  0  0  0  0  0
  -24.9730  -11.7620   20.7350 C   0  0  0  0  0  0  0  0  0  0  0  0
  -26.6420  -12.9700   20.1400 N   0  0  0  0  0  0  0  0  0  0  0  0
  -26.2380  -11.6910   20.3430 N   0  0  0  0  0  0  0  0  0  0  0  0
  -24.2040  -10.5220   20.8960 C   0  0  0  0  0  0  0  0  0  0  0  0
  -24.5940   -9.5280   21.8200 C   0  0  0  0  0  3  0  0  0  0  0  0
  -23.8310   -8.3500   21.9700 C   0  0  0  0  0  3  0  0  0  0  0  0
  -22.6640   -8.1590   21.1920 C   0  0  0  0  0  0  0  0  0  0  0  0
  -22.2910   -9.1410   20.2590 C   0  0  0  0  0  3  0  0  0  0  0  0
  -23.0550  -10.3110   20.1080 C   0  0  0  0  0  3  0  0  0  0  0  0
  -21.8750   -7.0340   21.2510 O   0  0  0  0  0  0  0  0  0  0  0  0
  -21.6970   -6.3390   22.4200 C   0  0  0  0  0  0  0  0  0  0  0  0
  -21.1310   -6.9400   23.5660 C   0  0  0  0  0  3  0  0  0  0  0  0
  -20.9040   -6.1710   24.7250 C   0  0  0  0  0  3  0  0  0  0  0  0
  -21.2330   -4.8020   24.7390 C   0  0  0  0  0  0  0  0  0  0  0  0
  -21.7900   -4.2000   23.5960 C   0  0  0  0  0  3  0  0  0  0  0  0
  -22.0190   -4.9670   22.4410 C   0  0  0  0  0  0  0  0  0  0  0  0
  -22.5390   -4.3790   21.3370 F   0  0  0  0  0  0  0  0  0  0  0  0
  -21.0070   -4.0620   25.8480 F   0  0  0  0  0  0  0  0  0  0  0  0
  -23.2210  -13.6440   21.2700 C   0  0  0  0  0  0  0  0  0  0  0  0
  -22.5320  -12.9410   22.1620 N   0  0  0  0  0  0  0  0  0  0  0  0
  -22.7850  -14.7040   20.8230 O   0  0  0  0  0  0  0  0  0  0  0  0
  -22.8930  -12.0770   22.5400 H   0  0  0  0  0  0  0  0  0  0  0  0
  -21.6330  -13.2760   22.4770 H   0  0  0  0  0  0  0  0  0  0  0  0
  -25.8590  -15.2490   20.3820 N   0  0  0  0  0  0  0  0  0  0  0  0
  -25.1100  -15.9100   20.5540 H   0  0  0  0  0  0  0  0  0  0  0  0
  -26.6810  -15.6820   19.9610 H   0  0  0  0  0  0  0  0  0  0  0  0
  -26.3020  -23.3420   19.4780 C   0  0  0  0  0  2  0  0  0  0  0  0
  -27.3070  -24.1890   18.8120 N   0  0  0  0  0  4  0  0  0  0  0  0
  -26.8100  -25.0040   18.5040 H   0  0  0  0  0  0  0  0  0  0  0  0
  -27.6300  -23.6990   17.9910 H   0  0  0  0  0  0  0  0  0  0  0  0
  -28.4630  -24.6400   19.6340 C   0  0  0  0  0  2  0  0  0  0  0  0
  -29.0780  -25.9730   19.1270 C   0  0  0  0  0  2  0  0  0  0  0  0
  -28.8430  -27.1040   19.9840 O   0  0  0  0  0  0  0  0  0  0  0  0
  -24.6060  -31.7530   23.3120 C   0  0  0  0  0  0  0  0  0  0  0  0
  -27.6260  -27.7580   19.9570 C   0  0  0  0  0  0  0  0  0  0  0  0
  -23.5560  -30.4490   21.4950 C   0  0  0  0  0  3  0  0  0  0  0  0
  -25.1530  -29.1370   20.0100 C   0  0  0  0  0  0  0  0  0  0  0  0
  -26.0700  -30.9390   21.4710 C   0  0  0  0  0  2  0  0  0  0  0  0
  -26.2520  -29.6380   20.7210 C   0  0  0  0  0  0  0  0  0  0  0  0
  -27.4820  -28.9440   20.7130 C   0  0  0  0  0  3  0  0  0  0  0  0
  -26.5200  -27.3140   19.1940 C   0  0  0  0  0  3  0  0  0  0  0  0
  -25.2840  -27.9710   19.2480 C   0  0  0  0  0  3  0  0  0  0  0  0
  -23.8690  -29.9290   20.0700 C   0  0  0  0  0  2  0  0  0  0  0  0
  -24.7580  -31.0590   22.1510 N   0  0  0  0  0  0  0  0  0  0  0  0
  -23.4850  -31.9250   23.8090 O   0  0  0  0  0  0  0  0  0  0  0  0
  -22.9230  -29.3030   22.3180 C   0  0  0  0  0  0  0  0  0  0  0  0
  -21.6030  -29.1140   22.1620 N   0  0  0  0  0  0  0  0  0  0  0  0
  -23.6140  -28.5930   23.0530 O   0  0  0  0  0  0  0  0  0  0  0  0
  -21.1070  -29.7560   21.5620 H   0  0  0  0  0  0  0  0  0  0  0  0
  -18.2430  -27.8370   22.4940 C   0  0  0  0  0  0  0  0  0  0  0  0
  -20.7980  -28.0740   22.8030 C   0  0  0  0  0  3  0  0  0  0  0  0
  -20.9150  -26.7330   22.0450 C   0  0  0  0  0  2  0  0  0  0  0  0
  -19.8150  -26.5330   20.9960 C   0  0  0  0  0  2  0  0  0  0  0  0
  -18.4290  -26.5900   21.6470 C   0  0  0  0  0  2  0  0  0  0  0  0
  -19.3550  -28.5440   23.0210 C   0  0  0  0  0  0  0  0  0  0  0  0
  -19.1280  -29.7210   23.7690 C   0  0  0  0  0  3  0  0  0  0  0  0
  -17.8190  -30.1890   23.9940 C   0  0  0  0  0  3  0  0  0  0  0  0
  -16.7210  -29.4760   23.4820 C   0  0  0  0  0  3  0  0  0  0  0  0
  -16.9350  -28.3010   22.7390 C   0  0  0  0  0  3  0  0  0  0  0  0
  -25.8280  -32.3850   24.0500 C   0  0  0  0  0  3  0  0  0  0  0  0
  -25.4970  -33.7900   24.3170 N   0  0  0  0  0  0  0  0  0  0  0  0
  -25.8970  -34.8230   23.5620 C   0  0  0  0  0  0  0  0  0  0  0  0
  -26.6570  -34.6940   22.5990 O   0  0  0  0  0  0  0  0  0  0  0  0
  -24.8310  -33.9660   25.0550 H   0  0  0  0  0  0  0  0  0  0  0  0
  -24.1990  -36.6000   23.0190 C   0  0  0  0  0  1  0  0  0  0  0  0
  -25.3730  -36.2240   23.9380 C   0  0  0  0  0  3  0  0  0  0  0  0
  -27.4270  -37.1440   24.9180 C   0  0  0  0  0  1  0  0  0  0  0  0
  -26.4110  -37.2760   23.8760 N   0  0  0  0  0  0  0  0  0  0  0  0
  -25.9940  -38.1990   23.9540 H   0  0  0  0  0  0  0  0  0  0  0  0
  -26.1980  -31.6380   25.3890 C   0  0  1  0  0  0  0  0  0  0  0  0
  -24.9980  -31.4500   26.3460 C   0  0  0  0  0  1  0  0  0  0  0  0
  -26.7930  -30.2430   25.0900 C   0  0  0  0  0  1  0  0  0  0  0  0
  -27.2940  -32.4250   26.1440 C   0  0  0  0  0  1  0  0  0  0  0  0
  1  3  2  0
  1  5  1  0
  2  4  1  0
  3  6  1  0
  5  2  2  0
  6  4  2  0
  7  5  1  0
  7  8  1  0
  8 10  1  0
  9  7  2  0
 11  8  1  0
 11 12  1  0
 13 12  1  0
 14 19  1  0
 15 16  1  0
 15 14  1  0
 17 16  1  0
 17 24  1  0
 17 18  1  0
 19 13  1  0
 19 18  1  0
 20 13  2  0
 21 22  2  0
 22 41  1  0
 23 22  1  0
 23 26  1  0
 24 25  1  0
 24 21  1  0
 25 23  2  0
 26 27  1  0
 27 28  2  0
 29 32  1  0
 29 28  1  0
 30 29  2  0
 31 30  1  0
 31 26  2  0
 32 33  1  0
 33 38  2  0
 33 34  1  0
 34 35  2  0
 35 36  1  0
 36 40  1  0
 37 36  2  0
 38 37  1  0
 39 38  1  0
 41 42  1  0
 42 45  1  0
 42 44  1  0
 43 41  2  0
 46 21  1  0
 46 47  1  0
 48 46  1  0
 49  6  1  0
 50 49  1  0
 50 53  1  0
 51 50  1  0
 52 50  1  0
 54 53  1  0
 54 55  1  0
 56 67  2  0
 57 55  1  0
 57 62  1  0
 58 66  1  0
 58 68  1  0
 59 65  1  0
 59 61  1  0
 60 66  1  0
 61 60  1  0
 62 61  2  0
 63 64  1  0
 63 57  2  0
 64 59  2  0
 65 58  1  0
 66 56  1  0
 68 70  2  0
 69 68  1  0
 71 69  1  0
 72 81  2  0
 72 77  1  0
 73 69  1  0
 73 77  1  0
 74 73  1  0
 75 76  1  0
 75 74  1  0
 76 72  1  0
 77 78  2  0
 78 79  1  0
 80 79  2  0
 81 80  1  0
 82 56  1  0
 82 83  1  0
 82 92  1  0
 83 86  1  0
 84 88  1  0
 84 83  1  0
 85 84  2  0
 88 87  1  0
 90 88  1  0
 90 91  1  0
 90 89  1  0
 92 95  1  1
 92 93  1  0
 94 92  1  0
M  ISO  4  12 100  13 100  54 101  55 101
M  END
>  <TORSDO>  (92) 
F 23

>  <SCORE>  (92) 
-12.095

>  <name>  (92) 
92

>  <ligand_id>  (92) 
92

>  <original_smiles>  (92) 
[H]c1c([H])c([H])c2c(c1[H])C([H])([H])C([H])([H])C([H])([H])C2([H])N([H])C(=O)C1([H])N(C(=O)C([H])(N([H])C(=O)C([H])(N([H])C([H])([H])[H])C([H])([H])[H])C(C([H])([H])[H])(C([H])([H])[H])C([H])([H])[H])C([H])([H])c2c([H])c(OC([H])([H])C([H])([H])[N+]([H])([H])C([H])([H])c3c([H])c([H])c(C(=O)N([H])C([H])([H])C([H])([H])C(=O)N4C([H])([H])C([H])([H])C([H])([H])C([H])(n5nc(-c6c([H])c([H])c(Oc7c([H])c([H])c(F)c([H])c7F)c([H])c6[H])c(C(=O)N([H])[H])c5N([H])[H])C4([H])[H])c([H])c3[H])c([H])c([H])c2C1([H])[H]

>  <smiles>  (92) 
[H]c1c([H])c([H])c2c(c1[H])C([H])([H])C([H])([H])C([H])([H])C2([H])N([H])C(=O)C1([H])N(C(=O)C([H])(N([H])C(=O)C([H])(N([H])C([H])([H])[H])C([H])([H])[H])C(C([H])([H])[H])(C([H])([H])[H])C([H])([H])[H])C([H])([H])c2c([H])c(OC([H])([H])C([H])([H])[N+]([H])([H])C([H])([H])c3c([H])c([H])c(C(=O)N([H])C([H])([H])C([H])([H])C(=O)N4C([H])([H])C([H])([H])C([H])([H])C([H])(n5nc(-c6c([H])c([H])c(Oc7c([H])c([H])c(F)c([H])c7F)c([H])c6[H])c(C(=O)N([H])[H])c5N([H])[H])C4([H])[H])c([H])c3[H])c([H])c([H])c2C1([H])[H]

$$$$
93:0:0
     RDKit          3D

 93101  0  0  1  0  0  0  0  0999 V2000
  -27.8540  -21.6210   21.3690 C   0  0  0  0  0  3  0  0  0  0  0  0
  -26.8110  -22.5490   21.5350 C   0  0  0  0  0  3  0  0  0  0  0  0
  -29.3960  -23.4750   21.0490 C   0  0  0  0  0  3  0  0  0  0  0  0
  -29.1690  -22.0700   21.1440 C   0  0  0  0  0  0  0  0  0  0  0  0
  -27.0510  -23.9410   21.5110 C   0  0  0  0  0  0  0  0  0  0  0  0
  -28.3600  -24.4340   21.2410 C   0  0  0  0  0  0  0  0  0  0  0  0
  -25.8720  -24.8420   21.8430 C   0  0  0  0  0  1  0  0  0  0  0  0
  -30.8900  -20.8980   22.5830 C   0  0  0  0  0  1  0  0  0  0  0  0
  -30.3550  -21.0810   21.1500 C   0  0  0  0  0  3  0  0  0  0  0  0
  -30.1820  -19.8020   20.3760 N   0  0  0  0  0  4  0  0  0  0  0  0
  -29.5210  -19.9630   19.6330 H   0  0  0  0  0  0  0  0  0  0  0  0
  -31.0720  -19.6630   19.9250 H   0  0  0  0  0  0  0  0  0  0  0  0
  -29.8720  -18.5080   21.0730 C   0  0  0  0  0  2  0  0  0  0  0  0
  -30.3710  -17.2530   20.2830 C   0  0  0  0  0  3  0  0  0  0  0  0
  -30.0400  -15.8560   20.9170 C   0  0  0  0  0  3  0  0  0  0  0  0
  -30.6920  -14.6340   20.1990 C   0  0  0  0  0  0  0  0  0  0  0  0
  -30.3710  -12.4830   19.0100 C   0  0  0  0  0  2  0  0  0  0  0  0
  -29.3890  -12.7050   17.8410 C   0  0  0  0  0  2  0  0  0  0  0  0
  -27.9280  -12.5600   18.3150 C   0  0  0  0  0  2  0  0  0  0  0  0
  -27.6350  -13.3710   19.6060 C   0  0  0  0  0  3  0  0  0  0  0  0
  -28.7280  -13.1270   20.6720 C   0  0  0  0  0  2  0  0  0  0  0  0
  -30.0290  -13.4490   20.0690 N   0  0  0  0  0  0  0  0  0  0  0  0
  -31.7950  -14.8080   19.6720 O   0  0  0  0  0  0  0  0  0  0  0  0
  -25.2550  -13.9720   20.3760 C   0  0  0  0  0  0  0  0  0  0  0  0
  -24.2010  -13.1980   20.7800 C   0  0  0  0  0  0  0  0  0  0  0  0
  -24.6670  -11.8480   20.7460 C   0  0  0  0  0  0  0  0  0  0  0  0
  -26.2980  -13.0940   20.1230 N   0  0  0  0  0  0  0  0  0  0  0  0
  -25.9480  -11.8120   20.4020 N   0  0  0  0  0  0  0  0  0  0  0  0
  -23.9510  -10.5850   20.9640 C   0  0  0  0  0  0  0  0  0  0  0  0
  -24.4040   -9.6300   21.9020 C   0  0  0  0  0  3  0  0  0  0  0  0
  -23.6880   -8.4320   22.1070 C   0  0  0  0  0  3  0  0  0  0  0  0
  -22.5040   -8.1780   21.3750 C   0  0  0  0  0  0  0  0  0  0  0  0
  -22.0690   -9.1210   20.4260 C   0  0  0  0  0  3  0  0  0  0  0  0
  -22.7870  -10.3100   20.2190 C   0  0  0  0  0  3  0  0  0  0  0  0
  -21.7570   -7.0300   21.4890 O   0  0  0  0  0  0  0  0  0  0  0  0
  -21.7250   -6.3060   22.6540 C   0  0  0  0  0  0  0  0  0  0  0  0
  -21.3080   -6.8780   23.8750 C   0  0  0  0  0  3  0  0  0  0  0  0
  -21.2220   -6.0800   25.0340 C   0  0  0  0  0  3  0  0  0  0  0  0
  -21.5450   -4.7110   24.9730 C   0  0  0  0  0  0  0  0  0  0  0  0
  -21.9550   -4.1390   23.7560 C   0  0  0  0  0  3  0  0  0  0  0  0
  -22.0420   -4.9340   22.5990 C   0  0  0  0  0  0  0  0  0  0  0  0
  -22.4190   -4.3720   21.4250 F   0  0  0  0  0  0  0  0  0  0  0  0
  -21.4550   -3.9430   26.0830 F   0  0  0  0  0  0  0  0  0  0  0  0
  -22.8100  -13.6720   21.0880 C   0  0  0  0  0  0  0  0  0  0  0  0
  -22.1090  -12.9790   21.9790 N   0  0  0  0  0  0  0  0  0  0  0  0
  -22.3520  -14.6930   20.5750 O   0  0  0  0  0  0  0  0  0  0  0  0
  -22.4910  -12.1540   22.4180 H   0  0  0  0  0  0  0  0  0  0  0  0
  -21.1780  -13.2800   22.2290 H   0  0  0  0  0  0  0  0  0  0  0  0
  -25.4090  -15.3430   20.1850 N   0  0  0  0  0  0  0  0  0  0  0  0
  -24.6420  -15.9950   20.3110 H   0  0  0  0  0  0  0  0  0  0  0  0
  -26.2490  -15.7830   19.8300 H   0  0  0  0  0  0  0  0  0  0  0  0
  -28.7210  -25.9430   21.3000 C   0  0  0  0  0  2  0  0  0  0  0  0
  -28.4760  -26.7290   20.1140 O   0  0  0  0  0  0  0  0  0  0  0  0
  -24.6240  -31.8900   23.2470 C   0  0  0  0  0  0  0  0  0  0  0  0
  -27.3400  -27.5120   20.1300 C   0  0  0  0  0  0  0  0  0  0  0  0
  -23.4540  -30.5110   21.5600 C   0  0  0  0  0  3  0  0  0  0  0  0
  -24.9430  -29.0150   20.1210 C   0  0  0  0  0  0  0  0  0  0  0  0
  -25.9800  -30.8890   21.4090 C   0  0  0  0  0  2  0  0  0  0  0  0
  -26.0870  -29.5270   20.7500 C   0  0  0  0  0  0  0  0  0  0  0  0
  -27.2890  -28.7790   20.7610 C   0  0  0  0  0  3  0  0  0  0  0  0
  -26.1950  -27.0350   19.4650 C   0  0  0  0  0  3  0  0  0  0  0  0
  -24.9920  -27.7680   19.4760 C   0  0  0  0  0  3  0  0  0  0  0  0
  -23.6910  -29.8640   20.1690 C   0  0  0  0  0  2  0  0  0  0  0  0
  -24.7030  -31.1120   22.1310 N   0  0  0  0  0  0  0  0  0  0  0  0
  -23.5340  -32.1430   23.7790 O   0  0  0  0  0  0  0  0  0  0  0  0
  -22.8000  -29.4650   22.4910 C   0  0  0  0  0  0  0  0  0  0  0  0
  -21.4760  -29.2830   22.3540 N   0  0  0  0  0  0  0  0  0  0  0  0
  -23.4800  -28.8210   23.2940 O   0  0  0  0  0  0  0  0  0  0  0  0
  -20.9880  -29.8570   21.6810 H   0  0  0  0  0  0  0  0  0  0  0  0
  -18.0980  -28.0830   22.8180 C   0  0  0  0  0  0  0  0  0  0  0  0
  -20.6570  -28.3260   23.0980 C   0  0  0  0  0  3  0  0  0  0  0  0
  -20.7550  -26.9120   22.4800 C   0  0  0  0  0  2  0  0  0  0  0  0
  -19.6530  -26.6230   21.4560 C   0  0  0  0  0  2  0  0  0  0  0  0
  -18.2710  -26.7530   22.1050 C   0  0  0  0  0  2  0  0  0  0  0  0
  -19.2190  -28.8280   23.2710 C   0  0  0  0  0  0  0  0  0  0  0  0
  -19.0030  -30.0740   23.8980 C   0  0  0  0  0  3  0  0  0  0  0  0
  -17.7000  -30.5750   24.0770 C   0  0  0  0  0  3  0  0  0  0  0  0
  -16.5940  -29.8250   23.6410 C   0  0  0  0  0  3  0  0  0  0  0  0
  -16.7940  -28.5820   23.0170 C   0  0  0  0  0  3  0  0  0  0  0  0
  -25.8970  -32.5200   23.8950 C   0  0  0  0  0  3  0  0  0  0  0  0
  -25.5770  -33.9130   24.2360 N   0  0  0  0  0  0  0  0  0  0  0  0
  -25.9140  -34.9740   23.4900 C   0  0  0  0  0  0  0  0  0  0  0  0
  -26.5990  -34.8830   22.4670 O   0  0  0  0  0  0  0  0  0  0  0  0
  -24.9700  -34.0560   25.0290 H   0  0  0  0  0  0  0  0  0  0  0  0
  -24.1810  -36.7590   23.1280 C   0  0  0  0  0  1  0  0  0  0  0  0
  -25.4130  -36.3560   23.9520 C   0  0  0  0  0  3  0  0  0  0  0  0
  -27.5320  -37.2450   24.8190 C   0  0  0  0  0  1  0  0  0  0  0  0
  -26.4410  -37.4150   23.8620 N   0  0  0  0  0  0  0  0  0  0  0  0
  -26.0280  -38.3310   24.0110 H   0  0  0  0  0  0  0  0  0  0  0  0
  -26.3980  -31.7360   25.1700 C   0  0  1  0  0  0  0  0  0  0  0  0
  -25.2900  -31.4800   26.2180 C   0  0  0  0  0  1  0  0  0  0  0  0
  -26.9940  -30.3670   24.7680 C   0  0  0  0  0  1  0  0  0  0  0  0
  -27.5340  -32.5280   25.8580 C   0  0  0  0  0  1  0  0  0  0  0  0
  1  2  1  0
  3  4  1  0
  3  6  2  0
  4  9  1  0
  4  1  2  0
  5  2  2  0
  5  7  1  0
  6 52  1  0
  6  5  1  0
  9  8  1  0
 10 13  1  0
 10  9  1  0
 11 10  1  0
 12 10  1  0
 14 15  2  0
 14 13  1  0
 16 15  1  0
 17 22  1  0
 18 19  1  0
 18 17  1  0
 20 19  1  0
 20 27  1  0
 20 21  1  0
 22 16  1  0
 22 21  1  0
 23 16  2  0
 24 25  2  0
 25 44  1  0
 26 25  1  0
 26 29  1  0
 27 24  1  0
 27 28  1  0
 28 26  2  0
 29 30  1  0
 30 31  2  0
 32 35  1  0
 32 31  1  0
 33 32  2  0
 34 33  1  0
 34 29  2  0
 35 36  1  0
 36 37  1  0
 37 38  2  0
 39 38  1  0
 39 43  1  0
 40 39  2  0
 41 36  2  0
 41 40  1  0
 42 41  1  0
 44 45  1  0
 45 48  1  0
 45 47  1  0
 46 44  2  0
 49 50  1  0
 49 24  1  0
 51 49  1  0
 53 55  1  0
 53 52  1  0
 54 65  2  0
 55 60  1  0
 56 64  1  0
 56 66  1  0
 57 63  1  0
 57 59  1  0
 58 64  1  0
 59 60  2  0
 59 58  1  0
 61 62  1  0
 61 55  2  0
 62 57  2  0
 63 56  1  0
 64 54  1  0
 66 68  2  0
 67 66  1  0
 69 67  1  0
 70 79  2  0
 70 75  1  0
 71 67  1  0
 71 75  1  0
 72 71  1  0
 73 74  1  0
 73 72  1  0
 74 70  1  0
 75 76  2  0
 76 77  1  0
 78 77  2  0
 79 78  1  0
 80 54  1  0
 80 81  1  0
 80 90  1  0
 81 84  1  0
 82 86  1  0
 82 81  1  0
 83 82  2  0
 86 85  1  0
 88 86  1  0
 88 89  1  0
 88 87  1  0
 90 93  1  1
 90 91  1  0
 92 90  1  0
M  ISO  4  15 100  16 100  52 101  53 101
M  END
>  <TORSDO>  (93) 
F 22

>  <SCORE>  (93) 
-12.964

>  <name>  (93) 
93

>  <ligand_id>  (93) 
93

>  <original_smiles>  (93) 
[H]c1c([H])c([H])c2c(c1[H])C([H])([H])C([H])([H])C([H])([H])C2([H])N([H])C(=O)C1([H])N(C(=O)C([H])(N([H])C(=O)C([H])(N([H])C([H])([H])[H])C([H])([H])[H])C(C([H])([H])[H])(C([H])([H])[H])C([H])([H])[H])C([H])([H])c2c([H])c(OC([H])([H])c3c([H])c(C([H])(C([H])([H])[H])[N+]([H])([H])C([H])([H])C([H])([H])C([H])([H])C(=O)N4C([H])([H])C([H])([H])C([H])([H])C([H])(n5nc(-c6c([H])c([H])c(Oc7c([H])c([H])c(F)c([H])c7F)c([H])c6[H])c(C(=O)N([H])[H])c5N([H])[H])C4([H])[H])c([H])c([H])c3C([H])([H])[H])c([H])c([H])c2C1([H])[H]

>  <smiles>  (93) 
[H]c1c([H])c([H])c2c(c1[H])C([H])([H])C([H])([H])C([H])([H])C2([H])N([H])C(=O)C1([H])N(C(=O)C([H])(N([H])C(=O)C([H])(N([H])C([H])([H])[H])C([H])([H])[H])C(C([H])([H])[H])(C([H])([H])[H])C([H])([H])[H])C([H])([H])c2c([H])c(OC([H])([H])c3c([H])c(C([H])(C([H])([H])[H])[N+]([H])([H])C([H])([H])C([H])([H])C([H])([H])C(=O)N4C([H])([H])C([H])([H])C([H])([H])C([H])(n5nc(-c6c([H])c([H])c(Oc7c([H])c([H])c(F)c([H])c7F)c([H])c6[H])c(C(=O)N([H])[H])c5N([H])[H])C4([H])[H])c([H])c([H])c3C([H])([H])[H])c([H])c([H])c2C1([H])[H]

$$$$
94:0:0
     RDKit          3D

 98107  0  0  1  0  0  0  0  0999 V2000
  -29.1120  -22.7930   22.1540 C   0  0  0  0  0  3  0  0  0  0  0  0
  -29.2750  -24.1670   21.7940 C   0  0  0  0  0  0  0  0  0  0  0  0
  -29.9530  -22.3780   23.1550 C   0  0  0  0  0  0  0  0  0  0  0  0
  -30.2300  -24.7880   22.5650 C   0  0  0  0  0  0  0  0  0  0  0  0
  -28.5260  -24.7950   20.6570 C   0  0  0  0  0  2  0  0  0  0  0  0
  -29.1380  -27.2450   21.1630 C   0  0  0  0  0  2  0  0  0  0  0  0
  -29.8190  -27.0950   22.5310 C   0  0  0  0  0  2  0  0  0  0  0  0
  -28.0150  -26.2240   20.9150 C   0  0  0  0  0  3  0  0  0  0  0  0
  -30.7590  -26.0300   22.5730 O   0  0  0  0  0  0  0  0  0  0  0  0
  -30.9510  -23.6940   23.7130 S   0  0  0  0  0  0  0  0  0  0  0  0
  -27.3120  -26.5960   19.7310 O   0  0  0  0  0  0  0  0  0  0  0  0
  -24.2230  -32.0020   23.2080 C   0  0  0  0  0  0  0  0  0  0  0  0
  -26.2230  -27.4120   19.9060 C   0  0  0  0  0  0  0  0  0  0  0  0
  -22.7590  -30.7090   21.6860 C   0  0  0  0  0  3  0  0  0  0  0  0
  -23.9520  -29.0640   20.1390 C   0  0  0  0  0  0  0  0  0  0  0  0
  -25.2680  -30.8780   21.2500 C   0  0  0  0  0  2  0  0  0  0  0  0
  -25.1890  -29.5030   20.6250 C   0  0  0  0  0  0  0  0  0  0  0  0
  -26.3280  -28.6790   20.5190 C   0  0  0  0  0  3  0  0  0  0  0  0
  -24.9750  -26.9810   19.4130 C   0  0  0  0  0  3  0  0  0  0  0  0
  -23.8340  -27.8000   19.5360 C   0  0  0  0  0  3  0  0  0  0  0  0
  -22.7850  -30.0140   20.2950 C   0  0  0  0  0  2  0  0  0  0  0  0
  -24.1090  -31.2080   22.1070 N   0  0  0  0  0  0  0  0  0  0  0  0
  -23.2240  -32.3550   23.8480 O   0  0  0  0  0  0  0  0  0  0  0  0
  -22.1250  -29.7370   22.7070 C   0  0  0  0  0  0  0  0  0  0  0  0
  -20.8040  -29.5220   22.5860 N   0  0  0  0  0  0  0  0  0  0  0  0
  -22.8160  -29.1780   23.5620 O   0  0  0  0  0  0  0  0  0  0  0  0
  -20.3040  -30.0310   21.8690 H   0  0  0  0  0  0  0  0  0  0  0  0
  -17.4960  -28.1370   23.0000 C   0  0  0  0  0  0  0  0  0  0  0  0
  -20.0030  -28.6160   23.4070 C   0  0  0  0  0  3  0  0  0  0  0  0
  -20.2450  -27.1420   23.0120 C   0  0  0  0  0  2  0  0  0  0  0  0
  -19.2460  -26.6220   21.9760 C   0  0  0  0  0  2  0  0  0  0  0  0
  -17.8130  -26.7380   22.5030 C   0  0  0  0  0  2  0  0  0  0  0  0
  -18.5270  -29.0250   23.4090 C   0  0  0  0  0  0  0  0  0  0  0  0
  -18.1830  -30.3290   23.8280 C   0  0  0  0  0  3  0  0  0  0  0  0
  -16.8390  -30.7490   23.8460 C   0  0  0  0  0  3  0  0  0  0  0  0
  -15.8210  -29.8620   23.4550 C   0  0  0  0  0  3  0  0  0  0  0  0
  -16.1500  -28.5590   23.0380 C   0  0  0  0  0  3  0  0  0  0  0  0
  -25.6110  -32.5210   23.7010 C   0  0  0  0  0  3  0  0  0  0  0  0
  -25.4360  -33.9210   24.1110 N   0  0  0  0  0  0  0  0  0  0  0  0
  -25.8040  -34.9780   23.3750 C   0  0  0  0  0  0  0  0  0  0  0  0
  -26.3980  -34.8700   22.2990 O   0  0  0  0  0  0  0  0  0  0  0  0
  -24.9020  -34.0840   24.9510 H   0  0  0  0  0  0  0  0  0  0  0  0
  -24.2120  -36.9150   23.1980 C   0  0  0  0  0  1  0  0  0  0  0  0
  -25.4560  -36.3760   23.9210 C   0  0  0  0  0  3  0  0  0  0  0  0
  -27.6980  -37.0450   24.6690 C   0  0  0  0  0  1  0  0  0  0  0  0
  -26.5640  -37.3480   23.7990 N   0  0  0  0  0  0  0  0  0  0  0  0
  -26.2440  -38.2880   24.0110 H   0  0  0  0  0  0  0  0  0  0  0  0
  -26.2120  -31.6610   24.8790 C   0  0  1  0  0  0  0  0  0  0  0  0
  -25.2150  -31.4010   26.0310 C   0  0  0  0  0  1  0  0  0  0  0  0
  -26.7020  -30.2890   24.3540 C   0  0  0  0  0  1  0  0  0  0  0  0
  -27.4460  -32.3760   25.4760 C   0  0  0  0  0  1  0  0  0  0  0  0
  -30.0930  -21.0050   23.7330 C   0  0  0  0  0  2  0  0  0  0  0  0
  -30.2270  -20.0060   22.6570 N   0  0  0  0  0  4  0  0  0  0  0  0
  -30.8630  -20.3870   21.9780 H   0  0  0  0  0  0  0  0  0  0  0  0
  -29.3350  -19.8820   22.2090 H   0  0  0  0  0  0  0  0  0  0  0  0
  -30.7520  -18.6980   23.0960 C   0  0  0  0  0  2  0  0  0  0  0  0
  -30.9380  -17.7310   21.9130 C   0  0  0  0  0  2  0  0  0  0  0  0
  -31.8680  -16.5570   22.2620 C   0  0  0  0  0  2  0  0  0  0  0  0
  -32.5160  -15.9150   21.0210 C   0  0  0  0  0  2  0  0  0  0  0  0
  -32.1250  -14.4500   20.7820 C   0  0  0  0  0  2  0  0  0  0  0  0
  -30.2620  -14.1250   19.1890 C   0  0  0  0  0  0  0  0  0  0  0  0
  -29.5510  -12.1210   17.9750 C   0  0  0  0  0  2  0  0  0  0  0  0
  -28.3350  -12.2440   17.0520 C   0  0  0  0  0  2  0  0  0  0  0  0
  -27.0350  -12.0330   17.8460 C   0  0  0  0  0  2  0  0  0  0  0  0
  -26.9670  -12.9140   19.1190 C   0  0  0  0  0  3  0  0  0  0  0  0
  -28.2640  -12.8110   19.9540 C   0  0  0  0  0  2  0  0  0  0  0  0
  -29.4220  -13.0760   19.0790 N   0  0  0  0  0  0  0  0  0  0  0  0
  -30.8580  -14.6430   18.2360 O   0  0  0  0  0  0  0  0  0  0  0  0
  -30.7180  -14.2430   20.4410 N   0  0  0  0  0  0  0  0  0  0  0  0
  -30.1750  -13.7470   21.1330 H   0  0  0  0  0  0  0  0  0  0  0  0
  -24.8420  -13.4390   20.4810 C   0  0  0  0  0  0  0  0  0  0  0  0
  -23.8930  -12.6290   21.0440 C   0  0  0  0  0  0  0  0  0  0  0  0
  -24.3060  -11.2880   20.7730 C   0  0  0  0  0  0  0  0  0  0  0  0
  -25.7810  -12.5900   19.9150 N   0  0  0  0  0  0  0  0  0  0  0  0
  -25.4730  -11.2860   20.1430 N   0  0  0  0  0  0  0  0  0  0  0  0
  -23.6340  -10.0080   21.0350 C   0  0  0  0  0  0  0  0  0  0  0  0
  -24.1700   -9.0640   21.9390 C   0  0  0  0  0  3  0  0  0  0  0  0
  -23.4970   -7.8500   22.1940 C   0  0  0  0  0  3  0  0  0  0  0  0
  -22.2710   -7.5680   21.5440 C   0  0  0  0  0  0  0  0  0  0  0  0
  -21.7510   -8.5010   20.6280 C   0  0  0  0  0  3  0  0  0  0  0  0
  -22.4270   -9.7070   20.3730 C   0  0  0  0  0  3  0  0  0  0  0  0
  -21.5620   -6.4020   21.7040 O   0  0  0  0  0  0  0  0  0  0  0  0
  -21.5440   -5.7310   22.9000 C   0  0  0  0  0  0  0  0  0  0  0  0
  -21.0250   -6.3180   24.0750 C   0  0  0  0  0  3  0  0  0  0  0  0
  -20.9580   -5.5680   25.2670 C   0  0  0  0  0  3  0  0  0  0  0  0
  -21.4020   -4.2310   25.2830 C   0  0  0  0  0  0  0  0  0  0  0  0
  -21.9140   -3.6450   24.1120 C   0  0  0  0  0  3  0  0  0  0  0  0
  -21.9830   -4.3920   22.9250 C   0  0  0  0  0  0  0  0  0  0  0  0
  -22.4570   -3.8160   21.7930 F   0  0  0  0  0  0  0  0  0  0  0  0
  -21.3320   -3.5070   26.4240 F   0  0  0  0  0  0  0  0  0  0  0  0
  -22.6230  -13.0680   21.7160 C   0  0  0  0  0  0  0  0  0  0  0  0
  -22.1390  -12.2910   22.6760 N   0  0  0  0  0  0  0  0  0  0  0  0
  -22.0820  -14.1340   21.4230 O   0  0  0  0  0  0  0  0  0  0  0  0
  -22.5930  -11.4230   22.9230 H   0  0  0  0  0  0  0  0  0  0  0  0
  -21.3030  -12.5660   23.1710 H   0  0  0  0  0  0  0  0  0  0  0  0
  -24.9760  -14.8210   20.3870 N   0  0  0  0  0  0  0  0  0  0  0  0
  -24.2750  -15.4610   20.7430 H   0  0  0  0  0  0  0  0  0  0  0  0
  -25.7340  -15.2920   19.9070 H   0  0  0  0  0  0  0  0  0  0  0  0
  1  3  2  0
  2  1  1  0
  2  4  2  0
  3 10  1  0
  3 52  1  0
  4  9  1  0
  4 10  1  0
  5  8  1  0
  5  2  1  0
  6  7  1  0
  7  9  1  0
  8 11  1  0
  8  6  1  0
 11 13  1  0
 12 23  2  0
 13 18  1  0
 14 22  1  0
 14 24  1  0
 15 21  1  0
 15 17  1  0
 16 22  1  0
 17 16  1  0
 18 17  2  0
 19 20  1  0
 19 13  2  0
 20 15  2  0
 21 14  1  0
 22 12  1  0
 24 26  2  0
 25 24  1  0
 27 25  1  0
 28 37  2  0
 28 33  1  0
 29 25  1  0
 29 33  1  0
 30 29  1  0
 31 32  1  0
 31 30  1  0
 32 28  1  0
 33 34  2  0
 34 35  1  0
 36 35  2  0
 37 36  1  0
 38 12  1  0
 38 39  1  0
 38 48  1  0
 39 42  1  0
 40 44  1  0
 40 39  1  0
 41 40  2  0
 44 43  1  0
 46 44  1  0
 46 47  1  0
 46 45  1  0
 48 51  1  1
 48 49  1  0
 50 48  1  0
 53 56  1  0
 53 52  1  0
 54 53  1  0
 55 53  1  0
 57 58  1  0
 57 56  1  0
 59 58  1  0
 60 59  1  0
 61 69  1  0
 62 67  1  0
 63 64  1  0
 63 62  1  0
 65 64  1  0
 65 74  1  0
 65 66  1  0
 67 61  1  0
 67 66  1  0
 68 61  2  0
 69 60  1  0
 69 70  1  0
 71 72  2  0
 72 91  1  0
 73 76  1  0
 73 72  1  0
 74 75  1  0
 74 71  1  0
 75 73  2  0
 76 77  1  0
 77 78  2  0
 79 82  1  0
 79 78  1  0
 80 79  2  0
 81 80  1  0
 81 76  2  0
 82 83  1  0
 83 88  2  0
 83 84  1  0
 84 85  2  0
 85 86  1  0
 86 90  1  0
 87 86  2  0
 88 87  1  0
 89 88  1  0
 91 92  1  0
 92 94  1  0
 92 95  1  0
 93 91  2  0
 96 71  1  0
 96 97  1  0
 98 96  1  0
M  ISO  4   8 101  11 101  61 100  69 100
M  END
>  <TORSDO>  (94) 
F 23

>  <SCORE>  (94) 
-4.855

>  <name>  (94) 
94

>  <ligand_id>  (94) 
94

>  <original_smiles>  (94) 
[H]c1c([H])c([H])c2c(c1[H])C([H])([H])C([H])([H])C([H])([H])C2([H])N([H])C(=O)C1([H])N(C(=O)C([H])(N([H])C(=O)C([H])(N([H])C([H])([H])[H])C([H])([H])[H])C(C([H])([H])[H])(C([H])([H])[H])C([H])([H])[H])C([H])([H])c2c([H])c(OC3([H])C([H])([H])c4c(sc(C([H])([H])[N+]([H])([H])C([H])([H])C([H])([H])C([H])([H])C([H])([H])C([H])([H])N([H])C(=O)N5C([H])([H])C([H])([H])C([H])([H])C([H])(n6nc(-c7c([H])c([H])c(Oc8c([H])c([H])c(F)c([H])c8F)c([H])c7[H])c(C(=O)N([H])[H])c6N([H])[H])C5([H])[H])c4[H])OC([H])([H])C3([H])[H])c([H])c([H])c2C1([H])[H]

>  <smiles>  (94) 
[H]c1c([H])c([H])c2c(c1[H])C([H])([H])C([H])([H])C([H])([H])C2([H])N([H])C(=O)C1([H])N(C(=O)C([H])(N([H])C(=O)C([H])(N([H])C([H])([H])[H])C([H])([H])[H])C(C([H])([H])[H])(C([H])([H])[H])C([H])([H])[H])C([H])([H])c2c([H])c(OC3([H])C([H])([H])c4c(sc(C([H])([H])[N+]([H])([H])C([H])([H])C([H])([H])C([H])([H])C([H])([H])C([H])([H])N([H])C(=O)N5C([H])([H])C([H])([H])C([H])([H])C([H])(n6nc(-c7c([H])c([H])c(Oc8c([H])c([H])c(F)c([H])c8F)c([H])c7[H])c(C(=O)N([H])[H])c6N([H])[H])C5([H])[H])c4[H])OC([H])([H])C3([H])[H])c([H])c([H])c2C1([H])[H]

$$$$
95:0:0
     RDKit          3D

 99107  0  0  1  0  0  0  0  0999 V2000
  -26.6390  -21.7380   20.2540 C   0  0  0  0  0  1  0  0  0  0  0  0
  -28.1140  -22.0910   20.0020 C   0  0  0  0  0  3  0  0  0  0  0  0
  -28.9390  -21.0110   20.5390 N   0  0  0  0  0  0  0  0  0  0  0  0
  -28.3160  -20.3580   21.0070 H   0  0  0  0  0  0  0  0  0  0  0  0
  -29.9070  -21.5310   21.5070 C   0  0  0  0  0  2  0  0  0  0  0  0
  -30.8310  -19.8790   23.1720 C   0  0  0  0  0  1  0  0  0  0  0  0
  -32.3750  -21.2660   21.7940 C   0  0  0  0  0  1  0  0  0  0  0  0
  -31.0370  -20.5040   21.7720 C   0  0  2  0  0  0  0  0  0  0  0  0
  -31.0310  -19.5230   20.6420 N   0  0  0  0  0  4  0  0  0  0  0  0
  -30.1850  -19.8110   20.1580 H   0  0  0  0  0  0  0  0  0  0  0  0
  -31.8130  -19.6760   20.0280 H   0  0  0  0  0  0  0  0  0  0  0  0
  -30.8890  -18.0860   20.9920 C   0  0  0  0  0  2  0  0  0  0  0  0
  -31.5150  -17.0500   20.0200 C   0  0  0  0  0  2  0  0  0  0  0  0
  -31.2250  -15.6510   20.6070 C   0  0  0  0  0  2  0  0  0  0  0  0
  -31.9690  -14.3930   20.1070 C   0  0  0  0  0  0  0  0  0  0  0  0
  -31.7670  -11.9370   19.7600 C   0  0  0  0  0  2  0  0  0  0  0  0
  -30.8130  -11.6200   18.5900 C   0  0  0  0  0  2  0  0  0  0  0  0
  -29.3380  -11.6370   19.0440 C   0  0  0  0  0  2  0  0  0  0  0  0
  -28.9890  -12.9070   19.8590 C   0  0  0  0  0  3  0  0  0  0  0  0
  -30.0230  -13.0860   20.9890 C   0  0  0  0  0  2  0  0  0  0  0  0
  -31.3530  -13.2080   20.3620 N   0  0  0  0  0  0  0  0  0  0  0  0
  -33.0350  -14.4800   19.4810 O   0  0  0  0  0  0  0  0  0  0  0  0
  -26.7710  -13.8990   20.7150 C   0  0  0  0  0  0  0  0  0  0  0  0
  -25.5880  -13.3020   21.0760 C   0  0  0  0  0  0  0  0  0  0  0  0
  -25.7970  -11.8980   20.9240 C   0  0  0  0  0  0  0  0  0  0  0  0
  -27.6250  -12.8610   20.3720 N   0  0  0  0  0  0  0  0  0  0  0  0
  -27.0460  -11.6500   20.5590 N   0  0  0  0  0  0  0  0  0  0  0  0
  -24.8640  -10.7710   21.0570 C   0  0  0  0  0  0  0  0  0  0  0  0
  -25.1800   -9.6520   21.8560 C   0  0  0  0  0  3  0  0  0  0  0  0
  -24.2660   -8.5860   21.9890 C   0  0  0  0  0  3  0  0  0  0  0  0
  -23.0230   -8.6320   21.3190 C   0  0  0  0  0  0  0  0  0  0  0  0
  -22.7210   -9.7390   20.5040 C   0  0  0  0  0  3  0  0  0  0  0  0
  -23.6350  -10.7980   20.3720 C   0  0  0  0  0  3  0  0  0  0  0  0
  -22.0880   -7.6300   21.3590 O   0  0  0  0  0  0  0  0  0  0  0  0
  -21.9130   -6.8520   22.4750 C   0  0  0  0  0  0  0  0  0  0  0  0
  -21.6260   -7.4160   23.7360 C   0  0  0  0  0  3  0  0  0  0  0  0
  -21.3840   -6.5770   24.8430 C   0  0  0  0  0  3  0  0  0  0  0  0
  -21.4260   -5.1780   24.6880 C   0  0  0  0  0  0  0  0  0  0  0  0
  -21.7090   -4.6150   23.4310 C   0  0  0  0  0  3  0  0  0  0  0  0
  -21.9500   -5.4510   22.3270 C   0  0  0  0  0  0  0  0  0  0  0  0
  -22.2000   -4.9050   21.1120 F   0  0  0  0  0  0  0  0  0  0  0  0
  -21.1860   -4.3720   25.7470 F   0  0  0  0  0  0  0  0  0  0  0  0
  -24.3110  -13.9970   21.4450 C   0  0  0  0  0  0  0  0  0  0  0  0
  -23.5290  -13.3910   22.3300 N   0  0  0  0  0  0  0  0  0  0  0  0
  -24.0190  -15.1010   20.9870 O   0  0  0  0  0  0  0  0  0  0  0  0
  -23.7830  -12.4950   22.7160 H   0  0  0  0  0  0  0  0  0  0  0  0
  -22.6760  -13.8380   22.6340 H   0  0  0  0  0  0  0  0  0  0  0  0
  -27.1760  -15.2270   20.6390 N   0  0  0  0  0  0  0  0  0  0  0  0
  -26.5540  -15.9890   20.8920 H   0  0  0  0  0  0  0  0  0  0  0  0
  -28.0850  -15.5400   20.3150 H   0  0  0  0  0  0  0  0  0  0  0  0
  -28.4440  -22.2420   18.5000 C   0  0  0  0  0  2  0  0  0  0  0  0
  -27.7100  -25.1680   16.1150 C   0  0  0  0  0  3  0  0  0  0  0  0
  -27.7590  -23.8660   16.6520 C   0  0  0  0  0  3  0  0  0  0  0  0
  -28.1760  -26.2620   16.8750 C   0  0  0  0  0  3  0  0  0  0  0  0
  -28.7020  -24.7600   18.7200 C   0  0  0  0  0  3  0  0  0  0  0  0
  -28.2720  -23.6560   17.9520 C   0  0  0  0  0  0  0  0  0  0  0  0
  -28.6550  -26.0650   18.1910 C   0  0  0  0  0  0  0  0  0  0  0  0
  -29.1970  -27.2260   19.0170 C   0  0  0  0  0  2  0  0  0  0  0  0
  -28.7240  -27.2530   20.3710 O   0  0  0  0  0  0  0  0  0  0  0  0
  -24.9840  -32.0060   24.1570 C   0  0  0  0  0  0  0  0  0  0  0  0
  -27.5450  -27.9360   20.5430 C   0  0  0  0  0  0  0  0  0  0  0  0
  -23.7560  -30.8660   22.3400 C   0  0  0  0  0  3  0  0  0  0  0  0
  -25.1750  -29.4500   20.7640 C   0  0  0  0  0  0  0  0  0  0  0  0
  -26.2910  -31.1590   22.2140 C   0  0  0  0  0  2  0  0  0  0  0  0
  -26.3410  -29.8690   21.4210 C   0  0  0  0  0  0  0  0  0  0  0  0
  -27.5260  -29.1110   21.3230 C   0  0  0  0  0  3  0  0  0  0  0  0
  -26.3570  -27.5010   19.9140 C   0  0  0  0  0  3  0  0  0  0  0  0
  -25.1730  -28.2560   20.0240 C   0  0  0  0  0  3  0  0  0  0  0  0
  -23.9620  -30.3450   20.8920 C   0  0  0  0  0  2  0  0  0  0  0  0
  -25.0280  -31.3490   22.9650 N   0  0  0  0  0  0  0  0  0  0  0  0
  -23.9030  -32.2490   24.7120 O   0  0  0  0  0  0  0  0  0  0  0  0
  -23.0580  -29.7620   23.1590 C   0  0  0  0  0  0  0  0  0  0  0  0
  -21.7730  -29.5190   22.8540 N   0  0  0  0  0  0  0  0  0  0  0  0
  -23.6710  -29.1310   24.0250 O   0  0  0  0  0  0  0  0  0  0  0  0
  -21.3450  -30.0730   22.1260 H   0  0  0  0  0  0  0  0  0  0  0  0
  -18.5200  -27.9480   22.7150 C   0  0  0  0  0  0  0  0  0  0  0  0
  -20.9260  -28.5000   23.4730 C   0  0  0  0  0  3  0  0  0  0  0  0
  -21.3010  -27.0870   22.9700 C   0  0  0  0  0  2  0  0  0  0  0  0
  -20.4570  -26.6180   21.7800 C   0  0  0  0  0  2  0  0  0  0  0  0
  -18.9700  -26.6160   22.1440 C   0  0  0  0  0  2  0  0  0  0  0  0
  -19.4370  -28.8380   23.3320 C   0  0  0  0  0  0  0  0  0  0  0  0
  -18.9680  -30.0750   23.8280 C   0  0  0  0  0  3  0  0  0  0  0  0
  -17.6090  -30.4270   23.7120 C   0  0  0  0  0  3  0  0  0  0  0  0
  -16.7010  -29.5390   23.1140 C   0  0  0  0  0  3  0  0  0  0  0  0
  -17.1540  -28.3010   22.6250 C   0  0  0  0  0  3  0  0  0  0  0  0
  -26.2820  -32.5070   24.8680 C   0  0  0  0  0  3  0  0  0  0  0  0
  -26.5990  -31.7110   26.1920 C   0  0  1  0  0  0  0  0  0  0  0  0
  -25.3920  -31.6130   27.1530 C   0  0  0  0  0  1  0  0  0  0  0  0
  -27.0620  -30.2720   25.8650 C   0  0  0  0  0  1  0  0  0  0  0  0
  -27.7620  -32.3930   26.9540 C   0  0  0  0  0  1  0  0  0  0  0  0
  -26.1080  -33.9400   25.1440 N   0  0  0  0  0  0  0  0  0  0  0  0
  -26.6480  -34.9220   24.4100 C   0  0  0  0  0  0  0  0  0  0  0  0
  -27.4110  -34.7110   23.4630 O   0  0  0  0  0  0  0  0  0  0  0  0
  -25.4390  -34.1860   25.8610 H   0  0  0  0  0  0  0  0  0  0  0  0
  -25.2320  -36.9120   23.8010 C   0  0  0  0  0  1  0  0  0  0  0  0
  -26.2760  -36.3690   24.7880 C   0  0  0  0  0  3  0  0  0  0  0  0
  -28.3610  -36.9900   25.9230 C   0  0  0  0  0  1  0  0  0  0  0  0
  -27.4390  -37.2800   24.8270 N   0  0  0  0  0  0  0  0  0  0  0  0
  -27.1390  -38.2460   24.9070 H   0  0  0  0  0  0  0  0  0  0  0  0
  2  1  1  0
  2  3  1  0
  3  4  1  0
  3  5  1  0
  5  8  1  0
  8  7  1  1
  8  6  1  0
  9 12  1  0
  9  8  1  0
 10  9  1  0
 11  9  1  0
 13 14  1  0
 13 12  1  0
 15 21  1  0
 15 14  1  0
 16 21  1  0
 17 18  1  0
 17 16  1  0
 19 18  1  0
 19 26  1  0
 19 20  1  0
 21 20  1  0
 22 15  2  0
 23 24  2  0
 24 43  1  0
 25 28  1  0
 25 24  1  0
 26 27  1  0
 26 23  1  0
 27 25  2  0
 28 29  1  0
 29 30  2  0
 31 34  1  0
 31 30  1  0
 32 31  2  0
 33 32  1  0
 33 28  2  0
 34 35  1  0
 35 36  1  0
 36 37  2  0
 38 37  1  0
 38 42  1  0
 39 38  2  0
 40 35  2  0
 40 39  1  0
 41 40  1  0
 43 44  1  0
 44 47  1  0
 44 46  1  0
 45 43  2  0
 48 23  1  0
 48 49  1  0
 50 48  1  0
 51  2  1  0
 52 53  2  0
 52 54  1  0
 53 56  1  0
 54 57  2  0
 56 51  1  0
 56 55  2  0
 57 55  1  0
 57 58  1  0
 58 59  1  0
 59 61  1  0
 60 71  2  0
 61 66  1  0
 62 70  1  0
 62 72  1  0
 63 69  1  0
 63 65  1  0
 64 70  1  0
 65 64  1  0
 66 65  2  0
 67 68  1  0
 67 61  2  0
 68 63  2  0
 69 62  1  0
 70 60  1  0
 72 74  2  0
 73 72  1  0
 75 73  1  0
 76 81  1  0
 77 73  1  0
 78 77  1  0
 79 80  1  0
 79 78  1  0
 80 76  1  0
 81 77  1  0
 81 82  2  0
 83 82  1  0
 84 83  2  0
 85 76  2  0
 85 84  1  0
 86 60  1  0
 86 91  1  0
 86 87  1  0
 87 90  1  1
 87 88  1  0
 89 87  1  0
 91 94  1  0
 92 96  1  0
 92 91  1  0
 93 92  2  0
 96 95  1  0
 96 98  1  0
 98 99  1  0
 98 97  1  0
M  ISO  4  14 100  15 100  58 101  59 101
M  END
>  <TORSDO>  (95) 
F 26

>  <SCORE>  (95) 
-8.494

>  <name>  (95) 
95

>  <ligand_id>  (95) 
95

>  <original_smiles>  (95) 
[H]c1c([H])c([H])c2c(c1[H])C([H])([H])C([H])([H])C([H])([H])C2([H])N([H])C(=O)C1([H])N(C(=O)C([H])(N([H])C(=O)C([H])(N([H])C([H])([H])[H])C([H])([H])[H])C(C([H])([H])[H])(C([H])([H])[H])C([H])([H])[H])C([H])([H])c2c([H])c(OC([H])([H])c3c([H])c([H])c([H])c(C([H])([H])C([H])(N([H])C([H])([H])C(C([H])([H])[H])(C([H])([H])[H])[N+]([H])([H])C([H])([H])C([H])([H])C([H])([H])C(=O)N4C([H])([H])C([H])([H])C([H])([H])C([H])(n5nc(-c6c([H])c([H])c(Oc7c([H])c([H])c(F)c([H])c7F)c([H])c6[H])c(C(=O)N([H])[H])c5N([H])[H])C4([H])[H])C([H])([H])[H])c3[H])c([H])c([H])c2C1([H])[H]

>  <smiles>  (95) 
[H]c1c([H])c([H])c2c(c1[H])C([H])([H])C([H])([H])C([H])([H])C2([H])N([H])C(=O)C1([H])N(C(=O)C([H])(N([H])C(=O)C([H])(N([H])C([H])([H])[H])C([H])([H])[H])C(C([H])([H])[H])(C([H])([H])[H])C([H])([H])[H])C([H])([H])c2c([H])c(OC([H])([H])c3c([H])c([H])c([H])c(C([H])([H])C([H])(N([H])C([H])([H])C(C([H])([H])[H])(C([H])([H])[H])[N+]([H])([H])C([H])([H])C([H])([H])C([H])([H])C(=O)N4C([H])([H])C([H])([H])C([H])([H])C([H])(n5nc(-c6c([H])c([H])c(Oc7c([H])c([H])c(F)c([H])c7F)c([H])c6[H])c(C(=O)N([H])[H])c5N([H])[H])C4([H])[H])C([H])([H])[H])c3[H])c([H])c([H])c2C1([H])[H]

$$$$
96:0:0
     RDKit          3D

101110  0  0  1  0  0  0  0  0999 V2000
  -28.1950  -17.6590   18.7210 C   0  0  0  0  0  2  0  0  0  0  0  0
  -27.7960  -18.8330   19.6130 C   0  0  0  0  0  2  0  0  0  0  0  0
  -29.0780  -16.6960   19.5060 C   0  0  0  0  0  2  0  0  0  0  0  0
  -31.1400  -19.4090   21.5370 C   0  0  0  0  0  2  0  0  0  0  0  0
  -30.6280  -20.5550   22.4440 C   0  0  0  0  0  2  0  0  0  0  0  0
  -28.6080  -20.7540   21.0550 C   0  0  0  0  0  2  0  0  0  0  0  0
  -29.0360  -19.5550   20.1780 C   0  0  0  0  0  3  0  0  0  0  0  0
  -29.9650  -18.5820   20.9540 C   0  0  0  0  0  3  0  0  0  0  0  0
  -30.3680  -17.2900   20.1300 C   0  0  1  0  0  0  0  0  0  0  0  0
  -29.7520  -21.4930   21.6760 N   0  0  1  0  0  4  0  0  0  0  0  0
  -30.3190  -21.8610   20.9240 H   0  0  0  0  0  0  0  0  0  0  0  0
  -30.8820  -16.1590   21.1150 C   0  0  0  0  0  2  0  0  0  0  0  0
  -31.3690  -14.8180   20.4740 C   0  0  0  0  0  0  0  0  0  0  0  0
  -31.0230  -12.5210   19.6050 C   0  0  0  0  0  2  0  0  0  0  0  0
  -30.1220  -12.5180   18.3600 C   0  0  0  0  0  2  0  0  0  0  0  0
  -28.6430  -12.3880   18.7560 C   0  0  0  0  0  2  0  0  0  0  0  0
  -28.2500  -13.4060   19.8470 C   0  0  0  0  0  3  0  0  0  0  0  0
  -29.2810  -13.4440   21.0040 C   0  0  0  0  0  2  0  0  0  0  0  0
  -30.6240  -13.6690   20.4410 N   0  0  0  0  0  0  0  0  0  0  0  0
  -32.4780  -14.8550   19.9350 O   0  0  0  0  0  0  0  0  0  0  0  0
  -25.8980  -14.1250   20.6050 C   0  0  0  0  0  0  0  0  0  0  0  0
  -24.7960  -13.3990   20.9490 C   0  0  0  0  0  0  0  0  0  0  0  0
  -25.1690  -12.0270   20.8220 C   0  0  0  0  0  0  0  0  0  0  0  0
  -26.8890  -13.1990   20.3230 N   0  0  0  0  0  0  0  0  0  0  0  0
  -26.4530  -11.9300   20.5080 N   0  0  0  0  0  0  0  0  0  0  0  0
  -24.3600  -10.8050   20.9310 C   0  0  0  0  0  0  0  0  0  0  0  0
  -24.7220   -9.7610   21.8110 C   0  0  0  0  0  3  0  0  0  0  0  0
  -23.9230   -8.6050   21.9140 C   0  0  0  0  0  3  0  0  0  0  0  0
  -22.7400   -8.4870   21.1490 C   0  0  0  0  0  0  0  0  0  0  0  0
  -22.3920   -9.5190   20.2590 C   0  0  0  0  0  3  0  0  0  0  0  0
  -23.1920  -10.6690   20.1510 C   0  0  0  0  0  3  0  0  0  0  0  0
  -21.9230   -7.3840   21.1710 O   0  0  0  0  0  0  0  0  0  0  0  0
  -21.7760   -6.6170   22.2990 C   0  0  0  0  0  0  0  0  0  0  0  0
  -21.3410   -7.1680   23.5250 C   0  0  0  0  0  3  0  0  0  0  0  0
  -21.1330   -6.3310   24.6420 C   0  0  0  0  0  3  0  0  0  0  0  0
  -21.3570   -4.9450   24.5340 C   0  0  0  0  0  0  0  0  0  0  0  0
  -21.7890   -4.3930   23.3180 C   0  0  0  0  0  3  0  0  0  0  0  0
  -21.9950   -5.2260   22.2020 C   0  0  0  0  0  0  0  0  0  0  0  0
  -22.3840   -4.6850   21.0220 F   0  0  0  0  0  0  0  0  0  0  0  0
  -21.1530   -4.1420   25.6040 F   0  0  0  0  0  0  0  0  0  0  0  0
  -23.4280  -13.9320   21.2720 C   0  0  0  0  0  0  0  0  0  0  0  0
  -22.6790  -13.2410   22.1250 N   0  0  0  0  0  0  0  0  0  0  0  0
  -23.0410  -15.0000   20.7940 O   0  0  0  0  0  0  0  0  0  0  0  0
  -22.9960  -12.3670   22.5260 H   0  0  0  0  0  0  0  0  0  0  0  0
  -21.7560  -13.5650   22.3810 H   0  0  0  0  0  0  0  0  0  0  0  0
  -26.1300  -15.4970   20.4830 N   0  0  0  0  0  0  0  0  0  0  0  0
  -25.3650  -16.1530   20.5720 H   0  0  0  0  0  0  0  0  0  0  0  0
  -26.9350  -15.8860   20.0110 H   0  0  0  0  0  0  0  0  0  0  0  0
  -31.4690  -17.5920   19.0430 C   0  0  0  0  0  2  0  0  0  0  0  0
  -31.1740  -18.5560   18.0500 O   0  0  0  0  0  0  0  0  0  0  0  0
  -30.6930  -18.1170   17.3550 H   0  0  0  0  0  0  0  0  0  0  0  0
  -29.2410  -22.6480   22.4860 C   0  0  0  0  0  2  0  0  0  0  0  0
  -30.1790  -23.8770   22.6700 C   0  0  0  0  0  2  0  0  0  0  0  0
  -30.7880  -26.3300   22.2740 C   0  0  0  0  0  1  0  0  0  0  0  0
  -30.1300  -25.0750   21.6590 C   0  0  0  0  0  3  0  0  0  0  0  0
  -28.7580  -25.4160   21.1920 N   0  0  0  0  0  4  0  0  0  0  0  0
  -28.2890  -24.5780   20.9000 H   0  0  0  0  0  0  0  0  0  0  0  0
  -28.2280  -25.7910   21.9630 H   0  0  0  0  0  0  0  0  0  0  0  0
  -28.6800  -26.3830   20.0600 C   0  0  0  0  0  2  0  0  0  0  0  0
  -27.5900  -26.0030   19.0330 C   0  0  0  0  0  2  0  0  0  0  0  0
  -27.2630  -27.1210   18.2030 O   0  0  0  0  0  0  0  0  0  0  0  0
  -24.7120  -31.5890   23.0890 C   0  0  0  0  0  0  0  0  0  0  0  0
  -26.1890  -27.8630   18.6320 C   0  0  0  0  0  0  0  0  0  0  0  0
  -23.0450  -30.6440   21.5280 C   0  0  0  0  0  3  0  0  0  0  0  0
  -23.9970  -29.4070   19.5120 C   0  0  0  0  0  0  0  0  0  0  0  0
  -25.4810  -30.9390   20.8140 C   0  0  0  0  0  2  0  0  0  0  0  0
  -25.2980  -29.7460   19.9040 C   0  0  0  0  0  0  0  0  0  0  0  0
  -26.3990  -28.9820   19.4620 C   0  0  0  0  0  3  0  0  0  0  0  0
  -24.8750  -27.5320   18.2300 C   0  0  0  0  0  3  0  0  0  0  0  0
  -23.7790  -28.2980   18.6740 C   0  0  0  0  0  3  0  0  0  0  0  0
  -22.8740  -30.2790   20.0280 C   0  0  0  0  0  2  0  0  0  0  0  0
  -24.4460  -31.0510   21.8670 N   0  0  0  0  0  0  0  0  0  0  0  0
  -23.8040  -31.7820   23.9110 O   0  0  0  0  0  0  0  0  0  0  0  0
  -22.5280  -29.4650   22.3780 C   0  0  0  0  0  0  0  0  0  0  0  0
  -21.2000  -29.2660   22.3700 N   0  0  0  0  0  0  0  0  0  0  0  0
  -23.3070  -28.7370   22.9970 O   0  0  0  0  0  0  0  0  0  0  0  0
  -20.6230  -29.9220   21.8630 H   0  0  0  0  0  0  0  0  0  0  0  0
  -17.9880  -27.6680   22.7130 C   0  0  0  0  0  0  0  0  0  0  0  0
  -20.4950  -28.1820   23.0530 C   0  0  0  0  0  3  0  0  0  0  0  0
  -20.7670  -26.8200   22.3720 C   0  0  0  0  0  2  0  0  0  0  0  0
  -19.7210  -26.4690   21.3100 C   0  0  0  0  0  2  0  0  0  0  0  0
  -18.3210  -26.4060   21.9320 C   0  0  0  0  0  2  0  0  0  0  0  0
  -19.0090  -28.5140   23.2170 C   0  0  0  0  0  0  0  0  0  0  0  0
  -18.6480  -29.7060   23.8830 C   0  0  0  0  0  3  0  0  0  0  0  0
  -17.2930  -30.0370   24.0780 C   0  0  0  0  0  3  0  0  0  0  0  0
  -16.2860  -29.1830   23.5970 C   0  0  0  0  0  3  0  0  0  0  0  0
  -16.6350  -28.0040   22.9120 C   0  0  0  0  0  3  0  0  0  0  0  0
  -26.1570  -32.0030   23.5040 C   0  0  0  0  0  3  0  0  0  0  0  0
  -26.8460  -30.9690   24.4750 C   0  0  1  0  0  0  0  0  0  0  0  0
  -25.9880  -30.6010   25.7060 C   0  0  0  0  0  1  0  0  0  0  0  0
  -27.1700  -29.6550   23.7250 C   0  0  0  0  0  1  0  0  0  0  0  0
  -28.1910  -31.5440   24.9790 C   0  0  0  0  0  1  0  0  0  0  0  0
  -26.0690  -33.3310   24.1260 N   0  0  0  0  0  0  0  0  0  0  0  0
  -26.4240  -34.4750   23.5280 C   0  0  0  0  0  0  0  0  0  0  0  0
  -26.9290  -34.5160   22.4040 O   0  0  0  0  0  0  0  0  0  0  0  0
  -25.5970  -33.3840   25.0180 H   0  0  0  0  0  0  0  0  0  0  0  0
  -24.9060  -36.4660   23.7750 C   0  0  0  0  0  1  0  0  0  0  0  0
  -26.1790  -35.7860   24.3020 C   0  0  0  0  0  3  0  0  0  0  0  0
  -28.4960  -36.2620   24.9490 C   0  0  0  0  0  1  0  0  0  0  0  0
  -27.3140  -36.7310   24.2330 N   0  0  0  0  0  0  0  0  0  0  0  0
  -27.0510  -37.6370   24.6120 H   0  0  0  0  0  0  0  0  0  0  0  0
  1  3  1  0
  1  2  1  0
  3  9  1  0
  4  5  1  0
  6 10  1  0
  7  2  1  0
  7  8  1  0
  7  6  1  0
  8  4  1  0
  9 49  1  6
  9  8  1  0
  9 12  1  0
 10  5  1  0
 10 52  1  0
 10 11  1  6
 13 12  1  0
 14 19  1  0
 15 16  1  0
 15 14  1  0
 17 16  1  0
 17 24  1  0
 17 18  1  0
 19 13  1  0
 19 18  1  0
 20 13  2  0
 21 22  2  0
 22 41  1  0
 23 26  1  0
 23 22  1  0
 24 25  1  0
 24 21  1  0
 25 23  2  0
 26 27  1  0
 27 28  2  0
 29 32  1  0
 29 28  1  0
 30 29  2  0
 31 30  1  0
 31 26  2  0
 32 33  1  0
 33 34  1  0
 34 35  2  0
 36 35  1  0
 36 40  1  0
 37 36  2  0
 38 33  2  0
 38 37  1  0
 39 38  1  0
 41 42  1  0
 42 45  1  0
 42 44  1  0
 43 41  2  0
 46 47  1  0
 46 21  1  0
 48 46  1  0
 50 49  1  0
 51 50  1  0
 52 53  1  0
 55 54  1  0
 55 53  1  0
 56 55  1  0
 56 58  1  0
 57 56  1  0
 59 56  1  0
 60 59  1  0
 61 63  1  0
 61 60  1  0
 62 73  2  0
 63 68  1  0
 64 72  1  0
 64 74  1  0
 65 67  1  0
 65 71  1  0
 66 72  1  0
 67 66  1  0
 68 67  2  0
 69 63  2  0
 69 70  1  0
 70 65  2  0
 71 64  1  0
 72 62  1  0
 74 76  2  0
 75 74  1  0
 77 75  1  0
 78 87  2  0
 78 83  1  0
 79 75  1  0
 79 83  1  0
 80 79  1  0
 81 82  1  0
 81 80  1  0
 82 78  1  0
 83 84  2  0
 84 85  1  0
 86 85  2  0
 87 86  1  0
 88 62  1  0
 88 93  1  0
 88 89  1  0
 89 92  1  1
 89 90  1  0
 91 89  1  0
 93 96  1  0
 94 93  1  0
 94 98  1  0
 95 94  2  0
 98 97  1  0
100 98  1  0
100101  1  0
100 99  1  0
M  ISO  4  12 100  13 100  60 101  61 101
M  END
>  <TORSDO>  (96) 
F 25

>  <SCORE>  (96) 
-10.684

>  <name>  (96) 
96

>  <ligand_id>  (96) 
96

>  <original_smiles>  (96) 
[H]OC([H])([H])C1(C([H])([H])C(=O)N2C([H])([H])C([H])([H])C([H])([H])C([H])(n3nc(-c4c([H])c([H])c(Oc5c([H])c([H])c(F)c([H])c5F)c([H])c4[H])c(C(=O)N([H])[H])c3N([H])[H])C2([H])[H])C([H])([H])C([H])([H])C([H])([H])C2([H])C1([H])C([H])([H])C([H])([H])[N+]([H])(C([H])([H])C([H])([H])C([H])(C([H])([H])[H])[N+]([H])([H])C([H])([H])C([H])([H])Oc1c([H])c([H])c3c(c1[H])C([H])([H])N(C(=O)C([H])(N([H])C(=O)C([H])(N([H])C([H])([H])[H])C([H])([H])[H])C(C([H])([H])[H])(C([H])([H])[H])C([H])([H])[H])C([H])(C(=O)N([H])C1([H])c4c([H])c([H])c([H])c([H])c4C([H])([H])C([H])([H])C1([H])[H])C3([H])[H])C2([H])[H]

>  <smiles>  (96) 
[H]OC([H])([H])C1(C([H])([H])C(=O)N2C([H])([H])C([H])([H])C([H])([H])C([H])(n3nc(-c4c([H])c([H])c(Oc5c([H])c([H])c(F)c([H])c5F)c([H])c4[H])c(C(=O)N([H])[H])c3N([H])[H])C2([H])[H])C([H])([H])C([H])([H])C([H])([H])C2([H])C1([H])C([H])([H])C([H])([H])[N+]([H])(C([H])([H])C([H])([H])C([H])(C([H])([H])[H])[N+]([H])([H])C([H])([H])C([H])([H])Oc1c([H])c([H])c3c(c1[H])C([H])([H])N(C(=O)C([H])(N([H])C(=O)C([H])(N([H])C([H])([H])[H])C([H])([H])[H])C(C([H])([H])[H])(C([H])([H])[H])C([H])([H])[H])C([H])(C(=O)N([H])C1([H])c4c([H])c([H])c([H])c([H])c4C([H])([H])C([H])([H])C1([H])[H])C3([H])[H])C2([H])[H]

$$$$
