0:0:0
     RDKit          3D

 92100  0  0  1  0  0  0  0  0999 V2000
  -27.5000  -22.1980   21.1060 C   0  0  0  0  0  3  0  0  0  0  0  0
  -28.9510  -23.8440   20.0580 C   0  0  0  0  0  3  0  0  0  0  0  0
  -26.9190  -24.6150   21.1010 C   0  0  0  0  0  3  0  0  0  0  0  0
  -28.7100  -22.4050   20.4130 C   0  0  0  0  0  0  0  0  0  0  0  0
  -26.6350  -23.2660   21.4350 C   0  0  0  0  0  0  0  0  0  0  0  0
  -28.0670  -25.0140   20.3710 C   0  0  0  0  0  0  0  0  0  0  0  0
  -29.6390  -21.1260   20.0930 C   0  0  0  0  0  0  0  0  0  0  0  0
  -29.4020  -19.7640   20.4660 N   0  0  0  0  0  0  0  0  0  0  0  0
  -30.6670  -21.3650   19.4580 O   0  0  0  0  0  0  0  0  0  0  0  0
  -28.5500  -19.6280   20.9920 H   0  0  0  0  0  0  0  0  0  0  0  0
  -30.2500  -18.4280   20.2220 C   0  0  0  0  0  3  0  0  0  0  0  0
  -29.8210  -16.8310   20.6420 C   0  0  0  0  0  3  0  0  0  0  0  0
  -30.6710  -15.4130   20.3320 C   0  0  0  0  0  0  0  0  0  0  0  0
  -30.5990  -13.0530   19.3690 C   0  0  0  0  0  2  0  0  0  0  0  0
  -29.6650  -13.0260   18.1340 C   0  0  0  0  0  2  0  0  0  0  0  0
  -28.2010  -12.7980   18.5550 C   0  0  0  0  0  2  0  0  0  0  0  0
  -27.7900  -13.6970   19.7490 C   0  0  0  0  0  3  0  0  0  0  0  0
  -28.8420  -13.7020   20.8760 C   0  0  0  0  0  2  0  0  0  0  0  0
  -30.1180  -14.1280   20.2890 N   0  0  0  0  0  0  0  0  0  0  0  0
  -31.8620  -15.4920   20.0040 O   0  0  0  0  0  0  0  0  0  0  0  0
  -25.4140  -14.2530   20.5120 C   0  0  0  0  0  0  0  0  0  0  0  0
  -24.3500  -13.4680   20.8670 C   0  0  0  0  0  0  0  0  0  0  0  0
  -24.8160  -12.1190   20.8000 C   0  0  0  0  0  0  0  0  0  0  0  0
  -26.4540  -13.3820   20.2440 N   0  0  0  0  0  0  0  0  0  0  0  0
  -26.1060  -12.0910   20.4840 N   0  0  0  0  0  0  0  0  0  0  0  0
  -24.0890  -10.8530   20.9620 C   0  0  0  0  0  0  0  0  0  0  0  0
  -24.4860   -9.8880   21.9150 C   0  0  0  0  0  3  0  0  0  0  0  0
  -23.7570   -8.6880   22.0640 C   0  0  0  0  0  3  0  0  0  0  0  0
  -22.6190   -8.4430   21.2600 C   0  0  0  0  0  0  0  0  0  0  0  0
  -22.2430   -9.3970   20.2970 C   0  0  0  0  0  3  0  0  0  0  0  0
  -22.9720  -10.5880   20.1470 C   0  0  0  0  0  3  0  0  0  0  0  0
  -21.8660   -7.2950   21.3160 O   0  0  0  0  0  0  0  0  0  0  0  0
  -21.7340   -6.5770   22.4780 C   0  0  0  0  0  0  0  0  0  0  0  0
  -21.1650   -7.1400   23.6410 C   0  0  0  0  0  3  0  0  0  0  0  0
  -20.9840   -6.3470   24.7910 C   0  0  0  0  0  3  0  0  0  0  0  0
  -21.3630   -4.9910   24.7790 C   0  0  0  0  0  0  0  0  0  0  0  0
  -21.9250   -4.4270   23.6210 C   0  0  0  0  0  3  0  0  0  0  0  0
  -22.1070   -5.2180   22.4720 C   0  0  0  0  0  0  0  0  0  0  0  0
  -22.6290   -4.6650   21.3520 F   0  0  0  0  0  0  0  0  0  0  0  0
  -21.1820   -4.2260   25.8810 F   0  0  0  0  0  0  0  0  0  0  0  0
  -22.9540  -13.9390   21.1520 C   0  0  0  0  0  0  0  0  0  0  0  0
  -22.2320  -13.2270   22.0100 N   0  0  0  0  0  0  0  0  0  0  0  0
  -22.5130  -14.9730   20.6520 O   0  0  0  0  0  0  0  0  0  0  0  0
  -22.6030  -12.3900   22.4360 H   0  0  0  0  0  0  0  0  0  0  0  0
  -21.2950  -13.5220   22.2450 H   0  0  0  0  0  0  0  0  0  0  0  0
  -25.5750  -15.6280   20.3680 N   0  0  0  0  0  0  0  0  0  0  0  0
  -24.8060  -16.2770   20.4930 H   0  0  0  0  0  0  0  0  0  0  0  0
  -26.4210  -16.0760   20.0420 H   0  0  0  0  0  0  0  0  0  0  0  0
  -25.4550  -22.9720   22.1180 N   0  0  0  0  0  0  0  0  0  0  0  0
  -25.1210  -22.0130   22.1280 H   0  0  0  0  0  0  0  0  0  0  0  0
  -24.6990  -23.6490   22.1020 H   0  0  0  0  0  0  0  0  0  0  0  0
  -28.2540  -26.4610   20.0770 O   0  0  0  0  0  0  0  0  0  0  0  0
  -24.6520  -32.0700   23.3340 C   0  0  0  0  0  0  0  0  0  0  0  0
  -27.2100  -27.4710   20.0920 C   0  0  0  0  0  0  0  0  0  0  0  0
  -23.4390  -30.7310   21.6590 C   0  0  0  0  0  3  0  0  0  0  0  0
  -24.8800  -29.2240   20.1480 C   0  0  0  0  0  0  0  0  0  0  0  0
  -25.9910  -31.0100   21.4760 C   0  0  0  0  0  2  0  0  0  0  0  0
  -26.0630  -29.6430   20.7710 C   0  0  0  0  0  0  0  0  0  0  0  0
  -27.2270  -28.7790   20.7330 C   0  0  0  0  0  3  0  0  0  0  0  0
  -26.0110  -27.1810   19.4060 C   0  0  0  0  0  3  0  0  0  0  0  0
  -24.8670  -28.0090   19.4480 C   0  0  0  0  0  3  0  0  0  0  0  0
  -23.6460  -30.1120   20.2500 C   0  0  0  0  0  2  0  0  0  0  0  0
  -24.7140  -31.2920   22.2120 N   0  0  0  0  0  0  0  0  0  0  0  0
  -23.5730  -32.3270   23.8880 O   0  0  0  0  0  0  0  0  0  0  0  0
  -22.7800  -29.6810   22.5890 C   0  0  0  0  0  0  0  0  0  0  0  0
  -21.4580  -29.4800   22.4510 N   0  0  0  0  0  0  0  0  0  0  0  0
  -23.4630  -29.0530   23.4010 O   0  0  0  0  0  0  0  0  0  0  0  0
  -20.9620  -30.0420   21.7740 H   0  0  0  0  0  0  0  0  0  0  0  0
  -18.1100  -28.1780   22.8940 C   0  0  0  0  0  0  0  0  0  0  0  0
  -20.6570  -28.5050   23.1970 C   0  0  0  0  0  3  0  0  0  0  0  0
  -20.8020  -27.0860   22.5980 C   0  0  0  0  0  2  0  0  0  0  0  0
  -19.7280  -26.7600   21.5540 C   0  0  0  0  0  2  0  0  0  0  0  0
  -18.3300  -26.8580   22.1730 C   0  0  0  0  0  2  0  0  0  0  0  0
  -19.2020  -28.9600   23.3550 C   0  0  0  0  0  0  0  0  0  0  0  0
  -18.9400  -30.1980   23.9810 C   0  0  0  0  0  3  0  0  0  0  0  0
  -17.6200  -30.6560   24.1500 C   0  0  0  0  0  3  0  0  0  0  0  0
  -16.5410  -29.8700   23.7060 C   0  0  0  0  0  3  0  0  0  0  0  0
  -16.7880  -28.6320   23.0850 C   0  0  0  0  0  3  0  0  0  0  0  0
  -25.9350  -32.6920   23.9670 C   0  0  0  0  0  3  0  0  0  0  0  0
  -26.4320  -31.9160   25.2480 C   0  0  1  0  0  0  0  0  0  0  0  0
  -25.3260  -31.6830   26.3050 C   0  0  0  0  0  1  0  0  0  0  0  0
  -27.0100  -30.5350   24.8660 C   0  0  0  0  0  1  0  0  0  0  0  0
  -27.5820  -32.7020   25.9220 C   0  0  0  0  0  1  0  0  0  0  0  0
  -25.6350  -34.0940   24.3030 N   0  0  0  0  0  0  0  0  0  0  0  0
  -25.9310  -35.1460   23.5280 C   0  0  0  0  0  0  0  0  0  0  0  0
  -26.5520  -35.0400   22.4680 O   0  0  0  0  0  0  0  0  0  0  0  0
  -25.0770  -34.2490   25.1290 H   0  0  0  0  0  0  0  0  0  0  0  0
  -24.1620  -36.9200   23.2870 C   0  0  0  0  0  1  0  0  0  0  0  0
  -25.4660  -36.5360   24.0050 C   0  0  0  0  0  3  0  0  0  0  0  0
  -27.6410  -37.4620   24.6700 C   0  0  0  0  0  1  0  0  0  0  0  0
  -26.4760  -37.5980   23.8000 N   0  0  0  0  0  0  0  0  0  0  0  0
  -26.0700  -38.5170   23.9540 H   0  0  0  0  0  0  0  0  0  0  0  0
  1  5  1  0
  2  6  2  0
  2  4  1  0
  3  5  2  0
  4  1  2  0
  5 49  1  0
  6  3  1  0
  7  4  1  0
  7  8  1  0
  8 10  1  0
  9  7  2  0
 11  8  1  0
 11 12  2  0
 13 12  1  0
 14 19  1  0
 15 16  1  0
 15 14  1  0
 17 16  1  0
 17 24  1  0
 17 18  1  0
 19 13  1  0
 19 18  1  0
 20 13  2  0
 21 22  2  0
 22 41  1  0
 23 22  1  0
 23 26  1  0
 24 25  1  0
 24 21  1  0
 25 23  2  0
 26 27  1  0
 27 28  2  0
 29 32  1  0
 29 28  1  0
 30 29  2  0
 31 30  1  0
 31 26  2  0
 32 33  1  0
 33 34  1  0
 34 35  2  0
 36 35  1  0
 36 40  1  0
 37 36  2  0
 38 33  2  0
 38 37  1  0
 39 38  1  0
 41 42  1  0
 42 45  1  0
 42 44  1  0
 43 41  2  0
 46 47  1  0
 46 21  1  0
 48 46  1  0
 49 50  1  0
 51 49  1  0
 52 54  1  0
 52  6  1  0
 53 64  2  0
 54 59  1  0
 55 63  1  0
 55 65  1  0
 56 62  1  0
 56 58  1  0
 57 63  1  0
 58 57  1  0
 59 58  2  0
 60 61  1  0
 60 54  2  0
 61 56  2  0
 62 55  1  0
 63 53  1  0
 65 67  2  0
 66 65  1  0
 68 66  1  0
 69 78  2  0
 69 74  1  0
 70 66  1  0
 70 74  1  0
 71 70  1  0
 72 73  1  0
 72 71  1  0
 73 69  1  0
 74 75  2  0
 75 76  1  0
 77 76  2  0
 78 77  1  0
 79 53  1  0
 79 84  1  0
 79 80  1  0
 80 83  1  1
 80 81  1  0
 82 80  1  0
 84 87  1  0
 85 89  1  0
 85 84  1  0
 86 85  2  0
 89 88  1  0
 91 92  1  0
 91 89  1  0
 91 90  1  0
M  ISO  4   6 101  12 100  13 100  52 101
M  END
>  <TORSDO>  (1) 
F 20

>  <SCORE>  (1) 
-14.499

>  <name>  (1) 
0

>  <ligand_id>  (1) 
0

>  <original_smiles>  (1) 
[H]c1c([H])c([H])c2c(c1[H])C([H])([H])C([H])([H])C([H])([H])C2([H])N([H])C(=O)C1([H])N(C(=O)C([H])(N([H])C(=O)C([H])(N([H])C([H])([H])[H])C([H])([H])[H])C(C([H])([H])[H])(C([H])([H])[H])C([H])([H])[H])C([H])([H])c2c([H])c(Oc3c([H])c(C(=O)N([H])C([H])([H])C([H])([H])C(=O)N4C([H])([H])C([H])([H])C([H])([H])C([H])(n5nc(-c6c([H])c([H])c(Oc7c([H])c([H])c(F)c([H])c7F)c([H])c6[H])c(C(=O)N([H])[H])c5N([H])[H])C4([H])[H])c([H])c(N([H])[H])c3[H])c([H])c([H])c2C1([H])[H]

>  <smiles>  (1) 
[H]c1c([H])c([H])c2c(c1[H])C([H])([H])C([H])([H])C([H])([H])C2([H])N([H])C(=O)C1([H])N(C(=O)C([H])(N([H])C(=O)C([H])(N([H])C([H])([H])[H])C([H])([H])[H])C(C([H])([H])[H])(C([H])([H])[H])C([H])([H])[H])C([H])([H])c2c([H])c(Oc3c([H])c(C(=O)N([H])C([H])([H])C([H])([H])C(=O)N4C([H])([H])C([H])([H])C([H])([H])C([H])(n5nc(-c6c([H])c([H])c(Oc7c([H])c([H])c(F)c([H])c7F)c([H])c6[H])c(C(=O)N([H])[H])c5N([H])[H])C4([H])[H])c([H])c(N([H])[H])c3[H])c([H])c([H])c2C1([H])[H]

$$$$
1:0:0
     RDKit          3D

 92101  0  0  1  0  0  0  0  0999 V2000
  -29.9660  -21.4290   19.9760 C   0  0  0  0  0  2  0  0  0  0  0  0
  -27.5120  -18.4590   20.7180 C   0  0  0  0  0  3  0  0  0  0  0  0
  -28.0570  -19.7220   20.3820 C   0  0  0  0  0  3  0  0  0  0  0  0
  -30.3500  -18.7750   20.1430 C   0  0  0  0  0  3  0  0  0  0  0  0
  -28.4090  -17.3930   20.7060 C   0  0  0  0  0  0  0  0  0  0  0  0
  -29.7890  -17.4670   20.3490 C   0  0  0  0  0  0  0  0  0  0  0  0
  -29.4560  -19.9350   20.1410 C   0  0  0  0  0  0  0  0  0  0  0  0
  -28.5200  -16.0190   21.2700 C   0  0  0  0  0  2  0  0  0  0  0  0
  -30.0920  -16.0060   20.9060 C   0  0  2  0  0  0  0  0  0  0  0  0
  -31.0730  -16.1240   22.0750 C   0  0  0  0  0  1  0  0  0  0  0  0
  -30.5960  -14.7820   19.9650 C   0  0  0  0  0  0  0  0  0  0  0  0
  -30.4230  -12.5440   18.8120 C   0  0  0  0  0  2  0  0  0  0  0  0
  -29.3750  -12.5760   17.6740 C   0  0  0  0  0  2  0  0  0  0  0  0
  -27.9530  -12.3160   18.2090 C   0  0  0  0  0  2  0  0  0  0  0  0
  -27.6470  -13.1630   19.4690 C   0  0  0  0  0  3  0  0  0  0  0  0
  -28.8010  -13.0090   20.4980 C   0  0  0  0  0  2  0  0  0  0  0  0
  -30.0200  -13.5240   19.8570 N   0  0  0  0  0  0  0  0  0  0  0  0
  -31.6350  -14.9870   19.3230 O   0  0  0  0  0  0  0  0  0  0  0  0
  -25.2930  -13.6980   20.3680 C   0  0  0  0  0  0  0  0  0  0  0  0
  -24.2780  -12.8910   20.8050 C   0  0  0  0  0  0  0  0  0  0  0  0
  -24.7690  -11.5540   20.7070 C   0  0  0  0  0  0  0  0  0  0  0  0
  -26.3430  -12.8490   20.0440 N   0  0  0  0  0  0  0  0  0  0  0  0
  -26.0330  -11.5530   20.3030 N   0  0  0  0  0  0  0  0  0  0  0  0
  -24.0910  -10.2700   20.9180 C   0  0  0  0  0  0  0  0  0  0  0  0
  -24.5290   -9.3580   21.9020 C   0  0  0  0  0  3  0  0  0  0  0  0
  -23.8500   -8.1370   22.0990 C   0  0  0  0  0  3  0  0  0  0  0  0
  -22.7200   -7.8180   21.3100 C   0  0  0  0  0  0  0  0  0  0  0  0
  -22.3020   -8.7200   20.3150 C   0  0  0  0  0  3  0  0  0  0  0  0
  -22.9820   -9.9330   20.1160 C   0  0  0  0  0  3  0  0  0  0  0  0
  -22.0150   -6.6440   21.4120 O   0  0  0  0  0  0  0  0  0  0  0  0
  -21.8250   -6.0220   22.6200 C   0  0  0  0  0  0  0  0  0  0  0  0
  -21.1730   -6.6650   23.6940 C   0  0  0  0  0  3  0  0  0  0  0  0
  -20.9350   -5.9660   24.8930 C   0  0  0  0  0  3  0  0  0  0  0  0
  -21.3410   -4.6230   25.0190 C   0  0  0  0  0  0  0  0  0  0  0  0
  -21.9840   -3.9790   23.9470 C   0  0  0  0  0  3  0  0  0  0  0  0
  -22.2230   -4.6760   22.7510 C   0  0  0  0  0  0  0  0  0  0  0  0
  -22.8250   -4.0450   21.7140 F   0  0  0  0  0  0  0  0  0  0  0  0
  -21.1060   -3.9480   26.1690 F   0  0  0  0  0  0  0  0  0  0  0  0
  -22.8950  -13.3270   21.1960 C   0  0  0  0  0  0  0  0  0  0  0  0
  -22.2580  -12.6000   22.1070 N   0  0  0  0  0  0  0  0  0  0  0  0
  -22.3870  -14.3470   20.7300 O   0  0  0  0  0  0  0  0  0  0  0  0
  -22.6830  -11.7750   22.5060 H   0  0  0  0  0  0  0  0  0  0  0  0
  -21.3340  -12.8720   22.4120 H   0  0  0  0  0  0  0  0  0  0  0  0
  -25.3930  -15.0750   20.1950 N   0  0  0  0  0  0  0  0  0  0  0  0
  -24.6040  -15.6930   20.3460 H   0  0  0  0  0  0  0  0  0  0  0  0
  -26.1940  -15.5500   19.7980 H   0  0  0  0  0  0  0  0  0  0  0  0
  -28.9400  -22.5590   20.0130 N   0  0  0  0  0  4  0  0  0  0  0  0
  -28.2710  -22.3550   19.2880 H   0  0  0  0  0  0  0  0  0  0  0  0
  -28.4600  -22.4800   20.8950 H   0  0  0  0  0  0  0  0  0  0  0  0
  -29.3800  -24.0210   19.8690 C   0  0  0  0  0  3  0  0  0  0  0  0
  -28.1990  -25.0930   19.7180 C   0  0  0  0  0  3  0  0  0  0  0  0
  -28.4380  -26.5620   19.8280 O   0  0  0  0  0  0  0  0  0  0  0  0
  -24.6980  -31.7270   23.2290 C   0  0  0  0  0  0  0  0  0  0  0  0
  -27.3150  -27.4140   19.8400 C   0  0  0  0  0  0  0  0  0  0  0  0
  -23.4950  -30.4640   21.4820 C   0  0  0  0  0  3  0  0  0  0  0  0
  -24.9480  -29.0320   19.9430 C   0  0  0  0  0  0  0  0  0  0  0  0
  -26.0370  -30.7960   21.3280 C   0  0  0  0  0  2  0  0  0  0  0  0
  -26.1170  -29.4710   20.5760 C   0  0  0  0  0  0  0  0  0  0  0  0
  -27.3050  -28.6790   20.5110 C   0  0  0  0  0  3  0  0  0  0  0  0
  -26.1150  -27.0320   19.1920 C   0  0  0  0  0  3  0  0  0  0  0  0
  -24.9510  -27.8210   19.2390 C   0  0  0  0  0  3  0  0  0  0  0  0
  -23.7110  -29.8980   20.0540 C   0  0  0  0  0  2  0  0  0  0  0  0
  -24.7630  -31.0080   22.0710 N   0  0  0  0  0  0  0  0  0  0  0  0
  -23.6150  -31.9640   23.7830 O   0  0  0  0  0  0  0  0  0  0  0  0
  -22.8270  -29.3770   22.3590 C   0  0  0  0  0  0  0  0  0  0  0  0
  -21.5030  -29.2050   22.2050 N   0  0  0  0  0  0  0  0  0  0  0  0
  -23.5000  -28.6940   23.1350 O   0  0  0  0  0  0  0  0  0  0  0  0
  -21.0190  -29.8110   21.5580 H   0  0  0  0  0  0  0  0  0  0  0  0
  -18.1150  -28.0070   22.6220 C   0  0  0  0  0  0  0  0  0  0  0  0
  -20.6790  -28.2120   22.8960 C   0  0  0  0  0  3  0  0  0  0  0  0
  -20.7610  -26.8360   22.1930 C   0  0  0  0  0  2  0  0  0  0  0  0
  -19.6480  -26.6180   21.1630 C   0  0  0  0  0  2  0  0  0  0  0  0
  -18.2720  -26.7210   21.8290 C   0  0  0  0  0  2  0  0  0  0  0  0
  -19.2460  -28.7140   23.1100 C   0  0  0  0  0  0  0  0  0  0  0  0
  -19.0460  -29.9230   23.8130 C   0  0  0  0  0  3  0  0  0  0  0  0
  -17.7490  -30.4210   24.0340 C   0  0  0  0  0  3  0  0  0  0  0  0
  -16.6320  -29.7080   23.5650 C   0  0  0  0  0  3  0  0  0  0  0  0
  -16.8160  -28.5030   22.8640 C   0  0  0  0  0  3  0  0  0  0  0  0
  -25.9820  -32.3040   23.9030 C   0  0  0  0  0  3  0  0  0  0  0  0
  -26.4560  -31.4680   25.1550 C   0  0  1  0  0  0  0  0  0  0  0  0
  -25.3360  -31.2060   26.1880 C   0  0  0  0  0  1  0  0  0  0  0  0
  -27.0240  -30.0990   24.7140 C   0  0  0  0  0  1  0  0  0  0  0  0
  -27.6020  -32.2130   25.8780 C   0  0  0  0  0  1  0  0  0  0  0  0
  -25.6950  -33.6930   24.2870 N   0  0  0  0  0  0  0  0  0  0  0  0
  -26.0040  -34.7680   23.5510 C   0  0  0  0  0  0  0  0  0  0  0  0
  -26.6320  -34.6940   22.4910 O   0  0  0  0  0  0  0  0  0  0  0  0
  -25.1330  -33.8260   25.1170 H   0  0  0  0  0  0  0  0  0  0  0  0
  -24.2520  -36.5620   23.3590 C   0  0  0  0  0  1  0  0  0  0  0  0
  -25.5460  -36.1430   24.0730 C   0  0  0  0  0  3  0  0  0  0  0  0
  -27.7230  -37.0280   24.7870 C   0  0  0  0  0  1  0  0  0  0  0  0
  -26.5640  -37.2030   23.9140 N   0  0  0  0  0  0  0  0  0  0  0  0
  -26.1630  -38.1180   24.1050 H   0  0  0  0  0  0  0  0  0  0  0  0
  1 47  1  0
  1  7  1  0
  3  2  2  0
  4  6  1  0
  5  2  1  0
  5  8  1  0
  6  5  2  0
  6  9  1  0
  7  4  2  0
  7  3  1  0
  9  8  1  0
  9 10  1  1
 11  9  1  0
 12 17  1  0
 13 14  1  0
 13 12  1  0
 15 14  1  0
 15 22  1  0
 15 16  1  0
 17 11  1  0
 17 16  1  0
 18 11  2  0
 19 20  2  0
 20 39  1  0
 21 20  1  0
 21 24  1  0
 22 23  1  0
 22 19  1  0
 23 21  2  0
 24 25  1  0
 25 26  2  0
 27 30  1  0
 27 26  1  0
 28 27  2  0
 29 28  1  0
 29 24  2  0
 30 31  1  0
 31 36  2  0
 31 32  1  0
 32 33  2  0
 33 34  1  0
 34 38  1  0
 35 34  2  0
 36 35  1  0
 37 36  1  0
 39 40  1  0
 40 43  1  0
 40 42  1  0
 41 39  2  0
 44 45  1  0
 44 19  1  0
 46 44  1  0
 47 49  1  0
 48 47  1  0
 50 47  1  0
 51 52  1  0
 51 50  2  0
 52 54  1  0
 53 64  2  0
 54 59  1  0
 55 63  1  0
 55 65  1  0
 56 62  1  0
 56 58  1  0
 57 63  1  0
 58 57  1  0
 59 58  2  0
 60 61  1  0
 60 54  2  0
 61 56  2  0
 62 55  1  0
 63 53  1  0
 65 67  2  0
 66 65  1  0
 68 66  1  0
 69 78  2  0
 69 74  1  0
 70 66  1  0
 70 74  1  0
 71 70  1  0
 72 73  1  0
 72 71  1  0
 73 69  1  0
 74 75  2  0
 75 76  1  0
 77 76  2  0
 78 77  1  0
 79 53  1  0
 79 84  1  0
 79 80  1  0
 80 83  1  1
 80 81  1  0
 82 80  1  0
 84 87  1  0
 85 89  1  0
 85 84  1  0
 86 85  2  0
 89 88  1  0
 91 89  1  0
 91 92  1  0
 91 90  1  0
M  ISO  4   9 100  11 100  51 101  52 101
M  END
>  <TORSDO>  (2) 
F 20

>  <SCORE>  (2) 
-12.052

>  <name>  (2) 
1

>  <ligand_id>  (2) 
1

>  <original_smiles>  (2) 
[H]c1c([H])c([H])c2c(c1[H])C([H])([H])C([H])([H])C([H])([H])C2([H])N([H])C(=O)C1([H])N(C(=O)C([H])(N([H])C(=O)C([H])(N([H])C([H])([H])[H])C([H])([H])[H])C(C([H])([H])[H])(C([H])([H])[H])C([H])([H])[H])C([H])([H])c2c([H])c(OC([H])([H])C([H])([H])[N+]([H])([H])C([H])([H])c3c([H])c([H])c4c(c3[H])C(C(=O)N3C([H])([H])C([H])([H])C([H])([H])C([H])(n5nc(-c6c([H])c([H])c(Oc7c([H])c([H])c(F)c([H])c7F)c([H])c6[H])c(C(=O)N([H])[H])c5N([H])[H])C3([H])[H])(C([H])([H])[H])C4([H])[H])c([H])c([H])c2C1([H])[H]

>  <smiles>  (2) 
[H]c1c([H])c([H])c2c(c1[H])C([H])([H])C([H])([H])C([H])([H])C2([H])N([H])C(=O)C1([H])N(C(=O)C([H])(N([H])C(=O)C([H])(N([H])C([H])([H])[H])C([H])([H])[H])C(C([H])([H])[H])(C([H])([H])[H])C([H])([H])[H])C([H])([H])c2c([H])c(OC([H])([H])C([H])([H])[N+]([H])([H])C([H])([H])c3c([H])c([H])c4c(c3[H])C(C(=O)N3C([H])([H])C([H])([H])C([H])([H])C([H])(n5nc(-c6c([H])c([H])c(Oc7c([H])c([H])c(F)c([H])c7F)c([H])c6[H])c(C(=O)N([H])[H])c5N([H])[H])C3([H])[H])(C([H])([H])[H])C4([H])[H])c([H])c([H])c2C1([H])[H]

$$$$
2:0:0
     RDKit          3D

 90 99  0  0  1  0  0  0  0  0999 V2000
  -29.1990  -21.3660   17.7740 C   0  0  0  0  0  3  0  0  0  0  0  0
  -29.6160  -20.1260   18.3350 C   0  0  0  0  0  3  0  0  0  0  0  0
  -29.0410  -22.5860   18.4960 C   0  0  0  0  0  3  0  0  0  0  0  0
  -29.9300  -19.9770   19.7000 C   0  0  0  0  0  0  0  0  0  0  0  0
  -29.7200  -21.3230   20.4400 C   0  0  0  0  0  0  0  0  0  0  0  0
  -29.2700  -22.7160   19.8840 C   0  0  0  0  0  0  0  0  0  0  0  0
  -30.0100  -21.1860   21.9270 C   0  0  0  0  0  2  0  0  0  0  0  0
  -29.9360  -19.7150   22.4450 C   0  0  0  0  0  2  0  0  0  0  0  0
  -30.8870  -18.6920   21.7540 C   0  0  0  0  0  2  0  0  0  0  0  0
  -30.6310  -18.4570   20.2420 C   0  0  0  0  0  3  0  0  0  0  0  0
  -31.1020  -15.4800   19.9940 C   0  0  0  0  0  0  0  0  0  0  0  0
  -31.0230  -12.9750   19.2360 C   0  0  0  0  0  2  0  0  0  0  0  0
  -30.0900  -12.6780   18.0340 C   0  0  0  0  0  2  0  0  0  0  0  0
  -28.6390  -12.4640   18.5010 C   0  0  0  0  0  2  0  0  0  0  0  0
  -28.2150  -13.5080   19.5620 C   0  0  0  0  0  3  0  0  0  0  0  0
  -29.2760  -13.7190   20.6630 C   0  0  0  0  0  2  0  0  0  0  0  0
  -30.4970  -14.1830   19.9790 N   0  0  0  0  0  0  0  0  0  0  0  0
  -32.3320  -15.4080   19.8450 O   0  0  0  0  0  0  0  0  0  0  0  0
  -30.3780  -16.7970   19.9820 N   0  0  0  0  0  0  0  0  0  0  0  0
  -29.3870  -16.6130   19.9330 H   0  0  0  0  0  0  0  0  0  0  0  0
  -25.9090  -14.1890   20.3990 C   0  0  0  0  0  0  0  0  0  0  0  0
  -24.8080  -13.4700   20.7700 C   0  0  0  0  0  0  0  0  0  0  0  0
  -25.1850  -12.0940   20.6830 C   0  0  0  0  0  0  0  0  0  0  0  0
  -26.8860  -13.2570   20.1010 N   0  0  0  0  0  0  0  0  0  0  0  0
  -26.4650  -11.9880   20.3390 N   0  0  0  0  0  0  0  0  0  0  0  0
  -24.3790  -10.8770   20.8470 C   0  0  0  0  0  0  0  0  0  0  0  0
  -24.7500   -9.8620   21.7570 C   0  0  0  0  0  3  0  0  0  0  0  0
  -23.9450   -8.7120   21.9140 C   0  0  0  0  0  3  0  0  0  0  0  0
  -22.7560   -8.5690   21.1600 C   0  0  0  0  0  0  0  0  0  0  0  0
  -22.4030   -9.5720   20.2400 C   0  0  0  0  0  3  0  0  0  0  0  0
  -23.2080  -10.7120   20.0810 C   0  0  0  0  0  3  0  0  0  0  0  0
  -21.9260   -7.4750   21.2270 O   0  0  0  0  0  0  0  0  0  0  0  0
  -21.7780   -6.7550   22.3840 C   0  0  0  0  0  0  0  0  0  0  0  0
  -21.3250   -7.3520   23.5810 C   0  0  0  0  0  3  0  0  0  0  0  0
  -21.1200   -6.5620   24.7290 C   0  0  0  0  0  3  0  0  0  0  0  0
  -21.3560   -5.1750   24.6810 C   0  0  0  0  0  0  0  0  0  0  0  0
  -21.8020   -4.5770   23.4890 C   0  0  0  0  0  3  0  0  0  0  0  0
  -22.0090   -5.3660   22.3440 C   0  0  0  0  0  0  0  0  0  0  0  0
  -22.4180   -4.7810   21.1920 F   0  0  0  0  0  0  0  0  0  0  0  0
  -21.1520   -4.4140   25.7810 F   0  0  0  0  0  0  0  0  0  0  0  0
  -23.4510  -14.0280   21.0820 C   0  0  0  0  0  0  0  0  0  0  0  0
  -22.7030  -13.3630   21.9550 N   0  0  0  0  0  0  0  0  0  0  0  0
  -23.0680  -15.0890   20.5900 O   0  0  0  0  0  0  0  0  0  0  0  0
  -23.0280  -12.5040   22.3730 H   0  0  0  0  0  0  0  0  0  0  0  0
  -21.7920  -13.7190   22.2120 H   0  0  0  0  0  0  0  0  0  0  0  0
  -26.1530  -15.5520   20.2610 N   0  0  0  0  0  0  0  0  0  0  0  0
  -25.4250  -16.2430   20.4090 H   0  0  0  0  0  0  0  0  0  0  0  0
  -27.0050  -15.9490   19.8910 H   0  0  0  0  0  0  0  0  0  0  0  0
  -28.8070  -24.2810   20.5920 C   0  0  0  0  0  2  0  0  0  0  0  0
  -28.9300  -25.8930   20.1560 O   0  0  0  0  0  0  0  0  0  0  0  0
  -24.9060  -31.6610   23.1300 C   0  0  0  0  0  0  0  0  0  0  0  0
  -27.8620  -26.9570   20.1500 C   0  0  0  0  0  0  0  0  0  0  0  0
  -23.8720  -30.2420   21.4050 C   0  0  0  0  0  3  0  0  0  0  0  0
  -25.4740  -28.7440   20.0280 C   0  0  0  0  0  0  0  0  0  0  0  0
  -26.4310  -30.5850   21.3910 C   0  0  0  0  0  2  0  0  0  0  0  0
  -26.6110  -29.1900   20.7120 C   0  0  0  0  0  0  0  0  0  0  0  0
  -27.8020  -28.3220   20.7410 C   0  0  0  0  0  3  0  0  0  0  0  0
  -26.6840  -26.6730   19.4230 C   0  0  0  0  0  3  0  0  0  0  0  0
  -25.5370  -27.5100   19.3620 C   0  0  0  0  0  3  0  0  0  0  0  0
  -24.2080  -29.6040   20.0290 C   0  0  0  0  0  2  0  0  0  0  0  0
  -25.0880  -30.8570   22.0310 N   0  0  0  0  0  0  0  0  0  0  0  0
  -23.7770  -31.8790   23.6010 O   0  0  0  0  0  0  0  0  0  0  0  0
  -23.1850  -29.1890   22.3150 C   0  0  0  0  0  0  0  0  0  0  0  0
  -21.8610  -29.0010   22.1630 N   0  0  0  0  0  0  0  0  0  0  0  0
  -23.8530  -28.5440   23.1270 O   0  0  0  0  0  0  0  0  0  0  0  0
  -21.3730  -29.5750   21.4900 H   0  0  0  0  0  0  0  0  0  0  0  0
  -18.4950  -27.7080   22.5920 C   0  0  0  0  0  0  0  0  0  0  0  0
  -21.0500  -28.0090   22.8800 C   0  0  0  0  0  3  0  0  0  0  0  0
  -21.1800  -26.6110   22.2290 C   0  0  0  0  0  2  0  0  0  0  0  0
  -20.0870  -26.3240   21.1950 C   0  0  0  0  0  2  0  0  0  0  0  0
  -18.7010  -26.4040   21.8390 C   0  0  0  0  0  2  0  0  0  0  0  0
  -19.5980  -28.4690   23.0670 C   0  0  0  0  0  0  0  0  0  0  0  0
  -19.3500  -29.6870   23.7350 C   0  0  0  0  0  3  0  0  0  0  0  0
  -18.0330  -30.1470   23.9290 C   0  0  0  0  0  3  0  0  0  0  0  0
  -16.9470  -29.3830   23.4690 C   0  0  0  0  0  3  0  0  0  0  0  0
  -17.1790  -28.1660   22.8060 C   0  0  0  0  0  3  0  0  0  0  0  0
  -26.1040  -32.3590   23.8390 C   0  0  0  0  0  3  0  0  0  0  0  0
  -25.7010  -33.7410   24.1610 N   0  0  0  0  0  0  0  0  0  0  0  0
  -26.0030  -34.8210   23.4270 C   0  0  0  0  0  0  0  0  0  0  0  0
  -26.7100  -34.7600   22.4180 O   0  0  0  0  0  0  0  0  0  0  0  0
  -25.0720  -33.8570   24.9420 H   0  0  0  0  0  0  0  0  0  0  0  0
  -24.1820  -36.5210   23.0560 C   0  0  0  0  0  1  0  0  0  0  0  0
  -25.4330  -36.1820   23.8810 C   0  0  0  0  0  3  0  0  0  0  0  0
  -27.4990  -37.1920   24.7460 C   0  0  0  0  0  1  0  0  0  0  0  0
  -26.4080  -37.2920   23.7810 N   0  0  0  0  0  0  0  0  0  0  0  0
  -25.9470  -38.1880   23.9140 H   0  0  0  0  0  0  0  0  0  0  0  0
  -26.5650  -31.6130   25.1530 C   0  0  1  0  0  0  0  0  0  0  0  0
  -25.4140  -31.3380   26.1490 C   0  0  0  0  0  1  0  0  0  0  0  0
  -27.2230  -30.2570   24.8160 C   0  0  0  0  0  1  0  0  0  0  0  0
  -27.6390  -32.4530   25.8830 C   0  0  0  0  0  1  0  0  0  0  0  0
  1  2  2  0
  1  3  1  0
  2  4  1  0
  3  6  2  0
  4 10  1  0
  4  5  2  0
  5  7  1  0
  6  5  1  0
  6 49  1  0
  7  8  1  0
  9  8  1  0
 10 19  1  0
 10  9  1  0
 12 17  1  0
 13 14  1  0
 13 12  1  0
 15 14  1  0
 15 24  1  0
 15 16  1  0
 17 11  1  0
 17 16  1  0
 18 11  2  0
 19 11  1  0
 20 19  1  0
 21 22  2  0
 22 41  1  0
 23 22  1  0
 23 26  1  0
 24 25  1  0
 24 21  1  0
 25 23  2  0
 26 27  1  0
 27 28  2  0
 29 32  1  0
 29 28  1  0
 30 29  2  0
 31 30  1  0
 31 26  2  0
 32 33  1  0
 33 34  1  0
 34 35  2  0
 36 35  1  0
 36 40  1  0
 37 36  2  0
 38 33  2  0
 38 37  1  0
 39 38  1  0
 41 42  1  0
 42 45  1  0
 42 44  1  0
 43 41  2  0
 46 21  1  0
 46 47  1  0
 48 46  1  0
 50 49  1  0
 51 62  2  0
 52 50  1  0
 52 57  1  0
 53 61  1  0
 53 63  1  0
 54 60  1  0
 54 56  1  0
 55 61  1  0
 56 57  2  0
 56 55  1  0
 58 52  2  0
 59 58  1  0
 59 54  2  0
 60 53  1  0
 61 51  1  0
 63 65  2  0
 64 63  1  0
 66 64  1  0
 67 76  2  0
 67 72  1  0
 68 64  1  0
 68 72  1  0
 69 68  1  0
 70 71  1  0
 70 69  1  0
 71 67  1  0
 72 73  2  0
 73 74  1  0
 75 74  2  0
 76 75  1  0
 77 51  1  0
 77 78  1  0
 77 87  1  0
 78 81  1  0
 79 83  1  0
 79 78  1  0
 80 79  2  0
 83 82  1  0
 85 83  1  0
 85 86  1  0
 85 84  1  0
 87 90  1  1
 87 88  1  0
 89 87  1  0
M  ISO  4  11 100  19 100  49 101  50 101
M  END
>  <TORSDO>  (3) 
F 17

>  <SCORE>  (3) 
-14.732

>  <name>  (3) 
2

>  <ligand_id>  (3) 
2

>  <original_smiles>  (3) 
[H]c1c([H])c([H])c2c(c1[H])C([H])([H])C([H])([H])C([H])([H])C2([H])N([H])C(=O)C1([H])N(C(=O)C([H])(N([H])C(=O)C([H])(N([H])C([H])([H])[H])C([H])([H])[H])C(C([H])([H])[H])(C([H])([H])[H])C([H])([H])[H])C([H])([H])c2c([H])c(OC([H])([H])c3c([H])c([H])c([H])c4c3C([H])([H])C([H])([H])C([H])([H])C4([H])N([H])C(=O)N3C([H])([H])C([H])([H])C([H])([H])C([H])(n4nc(-c5c([H])c([H])c(Oc6c([H])c([H])c(F)c([H])c6F)c([H])c5[H])c(C(=O)N([H])[H])c4N([H])[H])C3([H])[H])c([H])c([H])c2C1([H])[H]

>  <smiles>  (3) 
[H]c1c([H])c([H])c2c(c1[H])C([H])([H])C([H])([H])C([H])([H])C2([H])N([H])C(=O)C1([H])N(C(=O)C([H])(N([H])C(=O)C([H])(N([H])C([H])([H])[H])C([H])([H])[H])C(C([H])([H])[H])(C([H])([H])[H])C([H])([H])[H])C([H])([H])c2c([H])c(OC([H])([H])c3c([H])c([H])c([H])c4c3C([H])([H])C([H])([H])C([H])([H])C4([H])N([H])C(=O)N3C([H])([H])C([H])([H])C([H])([H])C([H])(n4nc(-c5c([H])c([H])c(Oc6c([H])c([H])c(F)c([H])c6F)c([H])c5[H])c(C(=O)N([H])[H])c4N([H])[H])C3([H])[H])c([H])c([H])c2C1([H])[H]

$$$$
3:0:0
     RDKit          3D

 91100  0  0  1  0  0  0  0  0999 V2000
  -29.3690  -19.9910   18.4580 C   0  0  0  0  0  3  0  0  0  0  0  0
  -29.0410  -21.2530   17.8840 C   0  0  0  0  0  3  0  0  0  0  0  0
  -29.3870  -21.1750   20.5520 C   0  0  0  0  0  3  0  0  0  0  0  0
  -29.6020  -19.8060   19.8360 C   0  0  0  0  0  0  0  0  0  0  0  0
  -29.0080  -22.5770   20.0000 C   0  0  0  0  0  0  0  0  0  0  0  0
  -28.8730  -22.4940   18.5900 C   0  0  0  0  0  0  0  0  0  0  0  0
  -30.6260  -15.2640   19.7130 C   0  0  0  0  0  0  0  0  0  0  0  0
  -30.4480  -12.8620   18.6540 C   0  0  0  0  0  2  0  0  0  0  0  0
  -29.3620  -12.6680   17.5570 C   0  0  0  0  0  2  0  0  0  0  0  0
  -27.9740  -12.3950   18.1630 C   0  0  0  0  0  2  0  0  0  0  0  0
  -27.6960  -13.3030   19.3810 C   0  0  0  0  0  3  0  0  0  0  0  0
  -28.8850  -13.3300   20.3530 C   0  0  0  0  0  2  0  0  0  0  0  0
  -30.0260  -13.9490   19.6280 N   0  0  0  0  0  0  0  0  0  0  0  0
  -31.7620  -15.2620   19.2070 O   0  0  0  0  0  0  0  0  0  0  0  0
  -30.2650  -17.1490   22.5560 C   0  0  0  0  0  2  0  0  0  0  0  0
  -30.2260  -18.4850   21.8890 C   0  0  0  0  0  2  0  0  0  0  0  0
  -29.5310  -16.2360   21.5930 C   0  0  0  0  0  2  0  0  0  0  0  0
  -30.2360  -18.2430   20.3760 C   0  0  0  0  0  3  0  0  0  0  0  0
  -29.9750  -16.5410   20.2180 N   0  0  0  0  0  0  0  0  0  0  0  0
  -25.4900  -13.8640   20.5300 C   0  0  0  0  0  0  0  0  0  0  0  0
  -24.4590  -13.0920   20.9870 C   0  0  0  0  0  0  0  0  0  0  0  0
  -24.8550  -11.7370   20.7690 C   0  0  0  0  0  0  0  0  0  0  0  0
  -26.4420  -12.9840   20.0510 N   0  0  0  0  0  0  0  0  0  0  0  0
  -26.0850  -11.6900   20.2650 N   0  0  0  0  0  0  0  0  0  0  0  0
  -24.1070  -10.4870   20.9540 C   0  0  0  0  0  0  0  0  0  0  0  0
  -24.5780   -9.4620   21.8060 C   0  0  0  0  0  3  0  0  0  0  0  0
  -23.8320   -8.2770   21.9810 C   0  0  0  0  0  3  0  0  0  0  0  0
  -22.5990   -8.1100   21.3050 C   0  0  0  0  0  0  0  0  0  0  0  0
  -22.1460   -9.1220   20.4420 C   0  0  0  0  0  3  0  0  0  0  0  0
  -22.8920  -10.2980   20.2650 C   0  0  0  0  0  3  0  0  0  0  0  0
  -21.8170   -6.9840   21.4000 O   0  0  0  0  0  0  0  0  0  0  0  0
  -21.7590   -6.2410   22.5520 C   0  0  0  0  0  0  0  0  0  0  0  0
  -21.3580   -6.8020   23.7840 C   0  0  0  0  0  3  0  0  0  0  0  0
  -21.2460   -5.9840   24.9260 C   0  0  0  0  0  3  0  0  0  0  0  0
  -21.5260   -4.6090   24.8380 C   0  0  0  0  0  0  0  0  0  0  0  0
  -21.9210   -4.0460   23.6120 C   0  0  0  0  0  3  0  0  0  0  0  0
  -22.0330   -4.8600   22.4710 C   0  0  0  0  0  0  0  0  0  0  0  0
  -22.3940   -4.3090   21.2870 F   0  0  0  0  0  0  0  0  0  0  0  0
  -21.4100   -3.8220   25.9330 F   0  0  0  0  0  0  0  0  0  0  0  0
  -23.1370  -13.5860   21.4960 C   0  0  0  0  0  0  0  0  0  0  0  0
  -22.5140  -12.8480   22.4090 N   0  0  0  0  0  0  0  0  0  0  0  0
  -22.6680  -14.6600   21.1170 O   0  0  0  0  0  0  0  0  0  0  0  0
  -22.9080  -11.9770   22.7350 H   0  0  0  0  0  0  0  0  0  0  0  0
  -21.6310  -13.1560   22.7880 H   0  0  0  0  0  0  0  0  0  0  0  0
  -25.6900  -15.2380   20.4500 N   0  0  0  0  0  0  0  0  0  0  0  0
  -24.9940  -15.9090   20.7560 H   0  0  0  0  0  0  0  0  0  0  0  0
  -26.4970  -15.6720   20.0160 H   0  0  0  0  0  0  0  0  0  0  0  0
  -29.0220  -23.8660   16.6170 C   0  0  0  0  0  1  0  0  0  0  0  0
  -28.5250  -23.6590   17.9390 O   0  0  0  0  0  0  0  0  0  0  0  0
  -28.5470  -24.1020   20.7690 C   0  0  0  0  0  2  0  0  0  0  0  0
  -28.7300  -25.7260   20.4390 O   0  0  0  0  0  0  0  0  0  0  0  0
  -24.8210  -31.6440   23.2220 C   0  0  0  0  0  0  0  0  0  0  0  0
  -27.6770  -26.7950   20.4020 C   0  0  0  0  0  0  0  0  0  0  0  0
  -23.7590  -30.1940   21.5450 C   0  0  0  0  0  3  0  0  0  0  0  0
  -25.3230  -28.6180   20.2190 C   0  0  0  0  0  0  0  0  0  0  0  0
  -26.3230  -30.4810   21.5220 C   0  0  0  0  0  2  0  0  0  0  0  0
  -26.4700  -29.0620   20.8910 C   0  0  0  0  0  0  0  0  0  0  0  0
  -27.6400  -28.1780   20.9530 C   0  0  0  0  0  3  0  0  0  0  0  0
  -26.4910  -26.5030   19.6920 C   0  0  0  0  0  3  0  0  0  0  0  0
  -25.3610  -27.3600   19.6000 C   0  0  0  0  0  3  0  0  0  0  0  0
  -24.0800  -29.5060   20.1880 C   0  0  0  0  0  2  0  0  0  0  0  0
  -24.9860  -30.8050   22.1490 N   0  0  0  0  0  0  0  0  0  0  0  0
  -23.6960  -31.8970   23.6870 O   0  0  0  0  0  0  0  0  0  0  0  0
  -23.0500  -29.1850   22.4860 C   0  0  0  0  0  0  0  0  0  0  0  0
  -21.7300  -28.9830   22.3080 N   0  0  0  0  0  0  0  0  0  0  0  0
  -23.6960  -28.5820   23.3460 O   0  0  0  0  0  0  0  0  0  0  0  0
  -21.2540  -29.5190   21.5960 H   0  0  0  0  0  0  0  0  0  0  0  0
  -18.3620  -27.6920   22.7070 C   0  0  0  0  0  0  0  0  0  0  0  0
  -20.9050  -28.0290   23.0580 C   0  0  0  0  0  3  0  0  0  0  0  0
  -21.0650  -26.5970   22.4920 C   0  0  0  0  0  2  0  0  0  0  0  0
  -20.0070  -26.2440   21.4420 C   0  0  0  0  0  2  0  0  0  0  0  0
  -18.5980  -26.3510   22.0340 C   0  0  0  0  0  2  0  0  0  0  0  0
  -19.4430  -28.4870   23.1710 C   0  0  0  0  0  0  0  0  0  0  0  0
  -19.1640  -29.7390   23.7610 C   0  0  0  0  0  3  0  0  0  0  0  0
  -17.8410  -30.2000   23.8860 C   0  0  0  0  0  3  0  0  0  0  0  0
  -16.7740  -29.4050   23.4330 C   0  0  0  0  0  3  0  0  0  0  0  0
  -17.0350  -28.1520   22.8510 C   0  0  0  0  0  3  0  0  0  0  0  0
  -26.0330  -32.3390   23.9110 C   0  0  0  0  0  3  0  0  0  0  0  0
  -25.6540  -33.7360   24.1990 N   0  0  0  0  0  0  0  0  0  0  0  0
  -25.9770  -34.7920   23.4420 C   0  0  0  0  0  0  0  0  0  0  0  0
  -26.6860  -34.7000   22.4370 O   0  0  0  0  0  0  0  0  0  0  0  0
  -25.0310  -33.8820   24.9780 H   0  0  0  0  0  0  0  0  0  0  0  0
  -24.1890  -36.5150   23.0240 C   0  0  0  0  0  1  0  0  0  0  0  0
  -25.4280  -36.1720   23.8650 C   0  0  0  0  0  3  0  0  0  0  0  0
  -27.5110  -37.1540   24.7200 C   0  0  0  0  0  1  0  0  0  0  0  0
  -26.4220  -37.2630   23.7530 N   0  0  0  0  0  0  0  0  0  0  0  0
  -25.9760  -38.1690   23.8730 H   0  0  0  0  0  0  0  0  0  0  0  0
  -26.4870  -31.6200   25.2410 C   0  0  1  0  0  0  0  0  0  0  0  0
  -25.3340  -31.3830   26.2470 C   0  0  0  0  0  1  0  0  0  0  0  0
  -27.1300  -30.2500   24.9370 C   0  0  0  0  0  1  0  0  0  0  0  0
  -27.5740  -32.4660   25.9500 C   0  0  0  0  0  1  0  0  0  0  0  0
  1  4  1  0
  2  1  2  0
  2  6  1  0
  4  3  2  0
  5  3  1  0
  5 50  1  0
  6  5  2  0
  7 19  1  0
  8 13  1  0
  9 10  1  0
  9  8  1  0
 11 10  1  0
 11 23  1  0
 11 12  1  0
 13  7  1  0
 13 12  1  0
 14  7  2  0
 16 15  1  0
 17 15  1  0
 18  4  1  0
 18 16  1  0
 19 18  1  0
 19 17  1  0
 20 21  2  0
 21 40  1  0
 22 25  1  0
 22 21  1  0
 23 24  1  0
 23 20  1  0
 24 22  2  0
 25 26  1  0
 26 27  2  0
 28 31  1  0
 28 27  1  0
 29 28  2  0
 30 29  1  0
 30 25  2  0
 31 32  1  0
 32 33  1  0
 33 34  2  0
 35 34  1  0
 35 39  1  0
 36 35  2  0
 37 32  2  0
 37 36  1  0
 38 37  1  0
 40 41  1  0
 41 43  1  0
 41 44  1  0
 42 40  2  0
 45 20  1  0
 45 46  1  0
 47 45  1  0
 48 49  1  0
 49  6  1  0
 51 50  1  0
 52 63  2  0
 53 51  1  0
 53 58  1  0
 54 62  1  0
 54 64  1  0
 55 57  1  0
 56 62  1  0
 57 58  2  0
 57 56  1  0
 59 53  2  0
 60 59  1  0
 60 55  2  0
 61 55  1  0
 61 54  1  0
 62 52  1  0
 64 66  2  0
 65 64  1  0
 67 65  1  0
 68 77  2  0
 68 73  1  0
 69 65  1  0
 69 73  1  0
 70 69  1  0
 71 72  1  0
 71 70  1  0
 72 68  1  0
 73 74  2  0
 74 75  1  0
 76 75  2  0
 77 76  1  0
 78 52  1  0
 78 79  1  0
 78 88  1  0
 79 82  1  0
 80 84  1  0
 80 79  1  0
 81 80  2  0
 84 83  1  0
 86 84  1  0
 86 87  1  0
 86 85  1  0
 88 91  1  1
 88 89  1  0
 90 88  1  0
M  ISO  4   7 100  19 100  50 101  51 101
M  END
>  <TORSDO>  (4) 
F 18

>  <SCORE>  (4) 
-14.272

>  <name>  (4) 
3

>  <ligand_id>  (4) 
3

>  <original_smiles>  (4) 
[H]c1c([H])c([H])c2c(c1[H])C([H])([H])C([H])([H])C([H])([H])C2([H])N([H])C(=O)C1([H])N(C(=O)C([H])(N([H])C(=O)C([H])(N([H])C([H])([H])[H])C([H])([H])[H])C(C([H])([H])[H])(C([H])([H])[H])C([H])([H])[H])C([H])([H])c2c([H])c(OC([H])([H])c3c([H])c(C4([H])N(C(=O)N5C([H])([H])C([H])([H])C([H])([H])C([H])(n6nc(-c7c([H])c([H])c(Oc8c([H])c([H])c(F)c([H])c8F)c([H])c7[H])c(C(=O)N([H])[H])c6N([H])[H])C5([H])[H])C([H])([H])C([H])([H])C4([H])[H])c([H])c([H])c3OC([H])([H])[H])c([H])c([H])c2C1([H])[H]

>  <smiles>  (4) 
[H]c1c([H])c([H])c2c(c1[H])C([H])([H])C([H])([H])C([H])([H])C2([H])N([H])C(=O)C1([H])N(C(=O)C([H])(N([H])C(=O)C([H])(N([H])C([H])([H])[H])C([H])([H])[H])C(C([H])([H])[H])(C([H])([H])[H])C([H])([H])[H])C([H])([H])c2c([H])c(OC([H])([H])c3c([H])c(C4([H])N(C(=O)N5C([H])([H])C([H])([H])C([H])([H])C([H])(n6nc(-c7c([H])c([H])c(Oc8c([H])c([H])c(F)c([H])c8F)c([H])c7[H])c(C(=O)N([H])[H])c6N([H])[H])C5([H])[H])C([H])([H])C([H])([H])C4([H])[H])c([H])c([H])c3OC([H])([H])[H])c([H])c([H])c2C1([H])[H]

$$$$
4:0:0
     RDKit          3D

 92100  0  0  1  0  0  0  0  0999 V2000
  -29.8130  -20.3690   20.0670 C   0  0  0  0  0  3  0  0  0  0  0  0
  -28.1570  -18.7210   19.4180 C   0  0  0  0  0  3  0  0  0  0  0  0
  -27.6080  -21.1560   19.4670 C   0  0  0  0  0  3  0  0  0  0  0  0
  -29.4910  -18.9200   19.8340 C   0  0  0  0  0  0  0  0  0  0  0  0
  -28.8960  -21.5440   19.8960 C   0  0  0  0  0  0  0  0  0  0  0  0
  -27.2530  -19.7990   19.2450 C   0  0  0  0  0  0  0  0  0  0  0  0
  -30.8590  -15.0670   20.4200 C   0  0  0  0  0  0  0  0  0  0  0  0
  -30.8260  -12.5770   19.8790 C   0  0  0  0  0  2  0  0  0  0  0  0
  -30.0040  -12.2930   18.6020 C   0  0  0  0  0  2  0  0  0  0  0  0
  -28.5150  -12.1130   18.9460 C   0  0  0  0  0  2  0  0  0  0  0  0
  -27.9990  -13.2120   19.9140 C   0  0  0  0  0  3  0  0  0  0  0  0
  -28.9560  -13.4560   21.1000 C   0  0  0  0  0  2  0  0  0  0  0  0
  -30.2630  -13.8040   20.5250 N   0  0  0  0  0  0  0  0  0  0  0  0
  -32.0850  -15.0500   20.2610 O   0  0  0  0  0  0  0  0  0  0  0  0
  -30.4670  -17.6390   20.0180 C   0  0  0  0  0  0  0  0  0  0  0  0
  -30.0890  -16.2800   20.2960 N   0  0  0  0  0  0  0  0  0  0  0  0
  -31.6630  -17.9110   19.8870 O   0  0  0  0  0  0  0  0  0  0  0  0
  -29.0980  -16.1470   20.3970 H   0  0  0  0  0  0  0  0  0  0  0  0
  -25.6010  -13.8730   20.4980 C   0  0  0  0  0  0  0  0  0  0  0  0
  -24.4980  -13.1410   20.8390 C   0  0  0  0  0  0  0  0  0  0  0  0
  -24.9270  -11.7780   20.8820 C   0  0  0  0  0  0  0  0  0  0  0  0
  -26.6310  -12.9610   20.3480 N   0  0  0  0  0  0  0  0  0  0  0  0
  -26.2320  -11.6970   20.6480 N   0  0  0  0  0  0  0  0  0  0  0  0
  -24.1540  -10.5440   21.0740 C   0  0  0  0  0  0  0  0  0  0  0  0
  -24.5450   -9.5640   22.0130 C   0  0  0  0  0  3  0  0  0  0  0  0
  -23.7750   -8.3950   22.1920 C   0  0  0  0  0  3  0  0  0  0  0  0
  -22.5960   -8.1990   21.4330 C   0  0  0  0  0  0  0  0  0  0  0  0
  -22.2230   -9.1660   20.4830 C   0  0  0  0  0  3  0  0  0  0  0  0
  -22.9950  -10.3260   20.3020 C   0  0  0  0  0  3  0  0  0  0  0  0
  -21.7990   -7.0850   21.5230 O   0  0  0  0  0  0  0  0  0  0  0  0
  -21.7500   -6.3230   22.6640 C   0  0  0  0  0  0  0  0  0  0  0  0
  -21.3690   -6.8690   23.9100 C   0  0  0  0  0  3  0  0  0  0  0  0
  -21.2660   -6.0370   25.0420 C   0  0  0  0  0  3  0  0  0  0  0  0
  -21.5350   -4.6600   24.9310 C   0  0  0  0  0  0  0  0  0  0  0  0
  -21.9090   -4.1130   23.6900 C   0  0  0  0  0  3  0  0  0  0  0  0
  -22.0130   -4.9420   22.5590 C   0  0  0  0  0  0  0  0  0  0  0  0
  -22.3530   -4.4060   21.3630 F   0  0  0  0  0  0  0  0  0  0  0  0
  -21.4290   -3.8580   26.0160 F   0  0  0  0  0  0  0  0  0  0  0  0
  -23.1020  -13.6640   21.0070 C   0  0  0  0  0  0  0  0  0  0  0  0
  -22.3160  -13.0450   21.8820 N   0  0  0  0  0  0  0  0  0  0  0  0
  -22.7150  -14.6590   20.3950 O   0  0  0  0  0  0  0  0  0  0  0  0
  -22.6410  -12.2420   22.3990 H   0  0  0  0  0  0  0  0  0  0  0  0
  -21.3770  -13.3820   22.0370 H   0  0  0  0  0  0  0  0  0  0  0  0
  -25.8080  -15.2310   20.2700 N   0  0  0  0  0  0  0  0  0  0  0  0
  -25.0280  -15.8790   20.2620 H   0  0  0  0  0  0  0  0  0  0  0  0
  -26.6390  -15.6100   19.8380 H   0  0  0  0  0  0  0  0  0  0  0  0
  -25.9490  -19.5120   18.8500 N   0  0  0  0  0  0  0  0  0  0  0  0
  -25.6880  -18.5830   18.5360 H   0  0  0  0  0  0  0  0  0  0  0  0
  -25.3160  -20.2490   18.5530 H   0  0  0  0  0  0  0  0  0  0  0  0
  -29.1770  -23.1690   20.1980 C   0  0  0  0  0  3  0  0  0  0  0  0
  -28.1400  -24.5080   19.9270 C   0  0  0  0  0  3  0  0  0  0  0  0
  -28.3840  -26.0530   20.1630 O   0  0  0  0  0  0  0  0  0  0  0  0
  -24.6150  -31.7350   23.0750 C   0  0  0  0  0  0  0  0  0  0  0  0
  -27.3290  -27.0500   20.0800 C   0  0  0  0  0  0  0  0  0  0  0  0
  -23.4810  -30.3440   21.3870 C   0  0  0  0  0  3  0  0  0  0  0  0
  -24.9900  -28.7980   19.9880 C   0  0  0  0  0  0  0  0  0  0  0  0
  -26.0380  -30.6320   21.3030 C   0  0  0  0  0  2  0  0  0  0  0  0
  -26.1490  -29.2440   20.6380 C   0  0  0  0  0  0  0  0  0  0  0  0
  -27.3200  -28.3880   20.6610 C   0  0  0  0  0  3  0  0  0  0  0  0
  -26.1410  -26.7160   19.3920 C   0  0  0  0  0  3  0  0  0  0  0  0
  -25.0030  -27.5500   19.3490 C   0  0  0  0  0  3  0  0  0  0  0  0
  -23.7530  -29.6840   20.0080 C   0  0  0  0  0  2  0  0  0  0  0  0
  -24.7290  -30.9260   21.9760 N   0  0  0  0  0  0  0  0  0  0  0  0
  -23.5090  -32.0020   23.5720 O   0  0  0  0  0  0  0  0  0  0  0  0
  -22.7850  -29.3200   22.3170 C   0  0  0  0  0  0  0  0  0  0  0  0
  -21.4550  -29.1690   22.1820 N   0  0  0  0  0  0  0  0  0  0  0  0
  -23.4440  -28.6620   23.1270 O   0  0  0  0  0  0  0  0  0  0  0  0
  -20.9800  -29.7490   21.5050 H   0  0  0  0  0  0  0  0  0  0  0  0
  -18.0490  -28.0410   22.6880 C   0  0  0  0  0  0  0  0  0  0  0  0
  -20.6190  -28.2210   22.9230 C   0  0  0  0  0  3  0  0  0  0  0  0
  -20.6710  -26.8140   22.2810 C   0  0  0  0  0  2  0  0  0  0  0  0
  -19.5430  -26.5690   21.2730 C   0  0  0  0  0  2  0  0  0  0  0  0
  -18.1770  -26.7210   21.9470 C   0  0  0  0  0  2  0  0  0  0  0  0
  -19.1950  -28.7530   23.1320 C   0  0  0  0  0  0  0  0  0  0  0  0
  -19.0190  -29.9900   23.7890 C   0  0  0  0  0  3  0  0  0  0  0  0
  -17.7310  -30.5160   24.0030 C   0  0  0  0  0  3  0  0  0  0  0  0
  -16.6000  -29.8010   23.5730 C   0  0  0  0  0  3  0  0  0  0  0  0
  -16.7600  -28.5650   22.9210 C   0  0  0  0  0  3  0  0  0  0  0  0
  -25.8650  -32.3800   23.7480 C   0  0  0  0  0  3  0  0  0  0  0  0
  -26.3500  -31.5990   25.0300 C   0  0  1  0  0  0  0  0  0  0  0  0
  -25.2300  -31.3490   26.0690 C   0  0  0  0  0  1  0  0  0  0  0  0
  -26.9460  -30.2250   24.6470 C   0  0  0  0  0  1  0  0  0  0  0  0
  -27.4800  -32.3900   25.7290 C   0  0  0  0  0  1  0  0  0  0  0  0
  -25.5210  -33.7680   24.0950 N   0  0  0  0  0  0  0  0  0  0  0  0
  -25.8580  -34.8440   23.3720 C   0  0  0  0  0  0  0  0  0  0  0  0
  -26.5570  -34.7730   22.3590 O   0  0  0  0  0  0  0  0  0  0  0  0
  -24.9010  -33.8960   24.8820 H   0  0  0  0  0  0  0  0  0  0  0  0
  -24.1150  -36.6250   23.0150 C   0  0  0  0  0  1  0  0  0  0  0  0
  -25.3400  -36.2160   23.8490 C   0  0  0  0  0  3  0  0  0  0  0  0
  -27.4340  -37.1190   24.7620 C   0  0  0  0  0  1  0  0  0  0  0  0
  -26.3610  -37.2860   23.7850 N   0  0  0  0  0  0  0  0  0  0  0  0
  -25.9370  -38.1980   23.9330 H   0  0  0  0  0  0  0  0  0  0  0  0
  2  4  1  0
  3  5  2  0
  4 15  1  0
  4  1  2  0
  5  1  1  0
  5 50  1  0
  6  2  2  0
  6  3  1  0
  7 13  1  0
  8 13  1  0
  9 10  1  0
  9  8  1  0
 11 10  1  0
 11 22  1  0
 11 12  1  0
 13 12  1  0
 14  7  2  0
 15 16  1  0
 16 18  1  0
 16  7  1  0
 17 15  2  0
 19 20  2  0
 20 21  1  0
 20 39  1  0
 21 24  1  0
 22 19  1  0
 22 23  1  0
 23 21  2  0
 24 25  1  0
 25 26  2  0
 27 30  1  0
 27 26  1  0
 28 27  2  0
 29 28  1  0
 29 24  2  0
 30 31  1  0
 31 32  1  0
 32 33  2  0
 34 33  1  0
 34 38  1  0
 35 34  2  0
 36 31  2  0
 36 35  1  0
 37 36  1  0
 39 40  1  0
 40 43  1  0
 40 42  1  0
 41 39  2  0
 44 19  1  0
 45 44  1  0
 46 44  1  0
 47  6  1  0
 48 47  1  0
 49 47  1  0
 51 52  1  0
 51 50  2  0
 53 64  2  0
 54 52  1  0
 54 59  1  0
 55 63  1  0
 55 65  1  0
 56 62  1  0
 56 58  1  0
 57 63  1  0
 58 59  2  0
 58 57  1  0
 60 54  2  0
 61 60  1  0
 61 56  2  0
 62 55  1  0
 63 53  1  0
 65 67  2  0
 66 65  1  0
 68 66  1  0
 69 78  2  0
 69 74  1  0
 70 66  1  0
 70 74  1  0
 71 70  1  0
 72 73  1  0
 72 71  1  0
 73 69  1  0
 74 75  2  0
 75 76  1  0
 77 76  2  0
 78 77  1  0
 79 53  1  0
 79 84  1  0
 79 80  1  0
 80 83  1  1
 80 81  1  0
 82 80  1  0
 84 87  1  0
 85 89  1  0
 85 84  1  0
 86 85  2  0
 89 88  1  0
 91 89  1  0
 91 92  1  0
 91 90  1  0
M  ISO  4   7 100  16 100  51 101  52 101
M  END
>  <TORSDO>  (5) 
F 19

>  <SCORE>  (5) 
-14.681

>  <name>  (5) 
4

>  <ligand_id>  (5) 
4

>  <original_smiles>  (5) 
[H]c1c([H])c([H])c2c(c1[H])C([H])([H])C([H])([H])C([H])([H])C2([H])N([H])C(=O)C1([H])N(C(=O)C([H])(N([H])C(=O)C([H])(N([H])C([H])([H])[H])C([H])([H])[H])C(C([H])([H])[H])(C([H])([H])[H])C([H])([H])[H])C([H])([H])c2c([H])c(OC([H])([H])C([H])([H])c3c([H])c(C(=O)N([H])C(=O)N4C([H])([H])C([H])([H])C([H])([H])C([H])(n5nc(-c6c([H])c([H])c(Oc7c([H])c([H])c(F)c([H])c7F)c([H])c6[H])c(C(=O)N([H])[H])c5N([H])[H])C4([H])[H])c([H])c(N([H])[H])c3[H])c([H])c([H])c2C1([H])[H]

>  <smiles>  (5) 
[H]c1c([H])c([H])c2c(c1[H])C([H])([H])C([H])([H])C([H])([H])C2([H])N([H])C(=O)C1([H])N(C(=O)C([H])(N([H])C(=O)C([H])(N([H])C([H])([H])[H])C([H])([H])[H])C(C([H])([H])[H])(C([H])([H])[H])C([H])([H])[H])C([H])([H])c2c([H])c(OC([H])([H])C([H])([H])c3c([H])c(C(=O)N([H])C(=O)N4C([H])([H])C([H])([H])C([H])([H])C([H])(n5nc(-c6c([H])c([H])c(Oc7c([H])c([H])c(F)c([H])c7F)c([H])c6[H])c(C(=O)N([H])[H])c5N([H])[H])C4([H])[H])c([H])c(N([H])[H])c3[H])c([H])c([H])c2C1([H])[H]

$$$$
5:0:0
     RDKit          3D

 94 99  0  0  1  0  0  0  0  0999 V2000
  -32.0870  -21.5030   17.9820 C   0  0  0  0  0  3  0  0  0  0  0  0
  -33.1590  -20.7060   18.3970 C   0  0  0  0  0  3  0  0  0  0  0  0
  -31.6370  -19.4840   19.8020 C   0  0  0  0  0  3  0  0  0  0  0  0
  -30.7600  -21.4020   18.4960 C   0  0  0  0  0  0  0  0  0  0  0  0
  -30.5170  -20.2300   19.3480 C   0  0  0  0  0  0  0  0  0  0  0  0
  -32.9440  -19.7270   19.3650 C   0  0  0  0  0  0  0  0  0  0  0  0
  -28.6350  -21.5400   20.6050 C   0  0  0  0  0 15  0  0  0  0  0  0
  -28.3900  -22.9890   18.4890 C   0  0  0  0  0  2  0  0  0  0  0  0
  -28.1130  -23.3580   19.9670 C   0  0  0  0  0  2  0  0  0  0  0  0
  -29.1730  -19.7320   19.9370 C   0  0  0  0  0  2  0  0  0  0  0  0
  -29.8510  -22.6290   17.9870 C   0  0  1  0  0  0  0  0  0  0  0  0
  -34.1030  -18.9390   19.9420 C   0  0  0  0  0  1  0  0  0  0  0  0
  -30.6180  -23.9590   18.2490 C   0  0  0  0  0  1  0  0  0  0  0  0
  -29.6840  -22.4450   16.4560 C   0  0  0  0  0  1  0  0  0  0  0  0
  -28.1600  -19.5310   18.8030 C   0  0  0  0  0  3  0  0  0  0  0  0
  -28.3840  -18.7700   17.8570 O   0  0  0  0  0  0  0  0  0  0  0  0
  -28.1140  -25.2050   20.2560 O   0  0  0  0  0  0  0  0  0  0  0  0
  -24.6270  -31.7610   23.1150 C   0  0  0  0  0  0  0  0  0  0  0  0
  -27.1630  -26.5040   20.1680 C   0  0  0  0  0  0  0  0  0  0  0  0
  -23.4530  -30.3440   21.4890 C   0  0  0  0  0  3  0  0  0  0  0  0
  -24.9060  -28.6540   20.0970 C   0  0  0  0  0  0  0  0  0  0  0  0
  -26.0380  -30.4350   21.3920 C   0  0  0  0  0  2  0  0  0  0  0  0
  -26.1040  -28.9780   20.7420 C   0  0  0  0  0  0  0  0  0  0  0  0
  -27.2040  -27.9370   20.7410 C   0  0  0  0  0  3  0  0  0  0  0  0
  -25.9290  -26.4420   19.4560 C   0  0  0  0  0  3  0  0  0  0  0  0
  -24.8690  -27.4140   19.4300 C   0  0  0  0  0  3  0  0  0  0  0  0
  -23.7050  -29.6240   20.1310 C   0  0  0  0  0  2  0  0  0  0  0  0
  -24.7330  -30.8860   22.0500 N   0  0  0  0  0  0  0  0  0  0  0  0
  -23.5290  -32.0700   23.6130 O   0  0  0  0  0  0  0  0  0  0  0  0
  -22.7200  -29.3890   22.4720 C   0  0  0  0  0  0  0  0  0  0  0  0
  -21.3820  -29.2590   22.3620 N   0  0  0  0  0  0  0  0  0  0  0  0
  -23.3680  -28.7600   23.3100 O   0  0  0  0  0  0  0  0  0  0  0  0
  -20.9030  -29.8180   21.6690 H   0  0  0  0  0  0  0  0  0  0  0  0
  -17.9810  -28.0900   22.9250 C   0  0  0  0  0  0  0  0  0  0  0  0
  -20.5500  -28.3320   23.1420 C   0  0  0  0  0  3  0  0  0  0  0  0
  -20.6230  -26.9000   22.5630 C   0  0  0  0  0  2  0  0  0  0  0  0
  -19.5020  -26.5950   21.5640 C   0  0  0  0  0  2  0  0  0  0  0  0
  -18.1330  -26.7480   22.2310 C   0  0  0  0  0  2  0  0  0  0  0  0
  -19.1140  -28.8430   23.3380 C   0  0  0  0  0  0  0  0  0  0  0  0
  -18.9140  -30.0960   23.9550 C   0  0  0  0  0  3  0  0  0  0  0  0
  -17.6150  -30.6000   24.1580 C   0  0  0  0  0  3  0  0  0  0  0  0
  -16.4970  -29.8480   23.7560 C   0  0  0  0  0  3  0  0  0  0  0  0
  -16.6810  -28.5940   23.1460 C   0  0  0  0  0  3  0  0  0  0  0  0
  -25.8790  -32.4290   23.7610 C   0  0  0  0  0  3  0  0  0  0  0  0
  -25.5370  -33.8230   24.1150 N   0  0  0  0  0  0  0  0  0  0  0  0
  -25.8560  -34.9070   23.3940 C   0  0  0  0  0  0  0  0  0  0  0  0
  -26.5190  -34.8400   22.3570 O   0  0  0  0  0  0  0  0  0  0  0  0
  -24.9450  -33.9470   24.9220 H   0  0  0  0  0  0  0  0  0  0  0  0
  -24.1040  -36.7020   23.1220 C   0  0  0  0  0  1  0  0  0  0  0  0
  -25.3640  -36.2830   23.8970 C   0  0  0  0  0  3  0  0  0  0  0  0
  -27.5030  -37.1790   24.7100 C   0  0  0  0  0  1  0  0  0  0  0  0
  -26.3820  -37.3520   23.7900 N   0  0  0  0  0  0  0  0  0  0  0  0
  -25.9680  -38.2630   23.9640 H   0  0  0  0  0  0  0  0  0  0  0  0
  -26.3850  -31.6690   25.0530 C   0  0  1  0  0  0  0  0  0  0  0  0
  -25.2830  -31.4340   26.1140 C   0  0  0  0  0  1  0  0  0  0  0  0
  -26.9800  -30.2910   24.6910 C   0  0  0  0  0  1  0  0  0  0  0  0
  -27.5270  -32.4730   25.7190 C   0  0  0  0  0  1  0  0  0  0  0  0
  -29.3370  -17.7350   20.5080 C   0  0  0  0  0 15  0  0  0  0  0  0
  -30.1070  -15.9300   20.2130 C   0  0  0  0  0  2  0  0  0  0  0  0
  -30.3160  -13.2840   19.4860 C   0  0  0  0  0  2  0  0  0  0  0  0
  -29.4590  -12.7600   18.2860 C   0  0  0  0  0  2  0  0  0  0  0  0
  -28.0530  -12.3500   18.7420 C   0  0  0  0  0  2  0  0  0  0  0  0
  -27.5000  -13.3710   19.7560 C   0  0  0  0  0  3  0  0  0  0  0  0
  -28.5040  -13.8020   20.8570 C   0  0  0  0  0  2  0  0  0  0  0  0
  -29.6560  -14.4970   20.2070 N   0  0  0  0  0  0  0  0  0  0  0  0
  -31.3300  -15.8150   19.9680 O   0  0  0  0  0  1  0  0  0  0  0  0
  -25.1450  -13.8770   20.5320 C   0  0  0  0  0  0  0  0  0  0  0  0
  -24.0890  -13.0920   20.8990 C   0  0  0  0  0  0  0  0  0  0  0  0
  -24.5630  -11.7440   20.8660 C   0  0  0  0  0  0  0  0  0  0  0  0
  -26.1910  -13.0100   20.2820 N   0  0  0  0  0  0  0  0  0  0  0  0
  -25.8570  -11.7190   20.5500 N   0  0  0  0  0  0  0  0  0  0  0  0
  -23.8360  -10.4810   21.0580 C   0  0  0  0  0  0  0  0  0  0  0  0
  -24.2730   -9.5030   21.9780 C   0  0  0  0  0  3  0  0  0  0  0  0
  -23.5410   -8.3100   22.1600 C   0  0  0  0  0  3  0  0  0  0  0  0
  -22.3530   -8.0850   21.4230 C   0  0  0  0  0  0  0  0  0  0  0  0
  -21.9340   -9.0500   20.4910 C   0  0  0  0  0  3  0  0  0  0  0  0
  -22.6680  -10.2360   20.3080 C   0  0  0  0  0  3  0  0  0  0  0  0
  -21.5910   -6.9440   21.5150 O   0  0  0  0  0  0  0  0  0  0  0  0
  -21.5710   -6.1810   22.6540 C   0  0  0  0  0  0  0  0  0  0  0  0
  -21.1950   -6.7200   23.9040 C   0  0  0  0  0  3  0  0  0  0  0  0
  -21.1220   -5.8850   25.0370 C   0  0  0  0  0  3  0  0  0  0  0  0
  -21.4140   -4.5120   24.9210 C   0  0  0  0  0  0  0  0  0  0  0  0
  -21.7820   -3.9730   23.6760 C   0  0  0  0  0  3  0  0  0  0  0  0
  -21.8580   -4.8060   22.5460 C   0  0  0  0  0  0  0  0  0  0  0  0
  -22.1940   -4.2770   21.3450 F   0  0  0  0  0  0  0  0  0  0  0  0
  -21.3350   -3.7090   26.0080 F   0  0  0  0  0  0  0  0  0  0  0  0
  -22.6910  -13.5670   21.1600 C   0  0  0  0  0  0  0  0  0  0  0  0
  -21.9600  -12.8760   22.0280 N   0  0  0  0  0  0  0  0  0  0  0  0
  -22.2580  -14.5900   20.6320 O   0  0  0  0  0  0  0  0  0  0  0  0
  -22.3280  -12.0500   22.4760 H   0  0  0  0  0  0  0  0  0  0  0  0
  -21.0220  -13.1800   22.2470 H   0  0  0  0  0  0  0  0  0  0  0  0
  -25.3040  -15.2490   20.3540 N   0  0  0  0  0  0  0  0  0  0  0  0
  -24.5380  -15.9030   20.4660 H   0  0  0  0  0  0  0  0  0  0  0  0
  -26.1530  -15.6850   20.0180 H   0  0  0  0  0  0  0  0  0  0  0  0
  1  2  2  0
  1  4  1  0
  2  6  1  0
  4  5  2  0
  5  3  1  0
  5 10  1  0
  6  3  2  0
  6 12  1  0
  8  9  1  0
  9 17  1  0
 11 13  1  6
 11  8  1  0
 11  4  1  0
 14 11  1  0
 15 10  1  0
 16 15  2  0
 18 29  2  0
 19 17  1  0
 19 24  1  0
 20 28  1  0
 20 30  1  0
 21 27  1  0
 21 23  1  0
 22 28  1  0
 23 22  1  0
 24 23  2  0
 25 19  2  0
 26 25  1  0
 26 21  2  0
 27 20  1  0
 28 18  1  0
 30 32  2  0
 31 30  1  0
 33 31  1  0
 34 43  2  0
 34 39  1  0
 35 31  1  0
 35 39  1  0
 36 35  1  0
 37 38  1  0
 37 36  1  0
 38 34  1  0
 39 40  2  0
 40 41  1  0
 42 41  2  0
 43 42  1  0
 44 18  1  0
 44 45  1  0
 44 54  1  0
 45 48  1  0
 46 50  1  0
 46 45  1  0
 47 46  2  0
 50 49  1  0
 52 50  1  0
 52 53  1  0
 52 51  1  0
 54 57  1  1
 54 55  1  0
 56 54  1  0
 60 65  1  0
 61 62  1  0
 61 60  1  0
 63 62  1  0
 63 70  1  0
 63 64  1  0
 65 59  1  0
 65 64  1  0
 66 59  1  0
 67 68  2  0
 68 87  1  0
 69 68  1  0
 69 72  1  0
 70 67  1  0
 70 71  1  0
 71 69  2  0
 72 73  1  0
 73 74  2  0
 75 78  1  0
 75 74  1  0
 76 75  2  0
 77 76  1  0
 77 72  2  0
 78 79  1  0
 79 80  1  0
 80 81  2  0
 82 81  1  0
 82 86  1  0
 83 82  2  0
 84 79  2  0
 84 83  1  0
 85 84  1  0
 87 88  1  0
 88 91  1  0
 88 90  1  0
 89 87  2  0
 92 93  1  0
 92 67  1  0
 94 92  1  0
M  ISO  4   9 101  17 101  58 100  59 100
M  END
>  <TORSDO>  (6) 
F 18

>  <SCORE>  (6) 
-16.246

>  <name>  (6) 
5

>  <ligand_id>  (6) 
5

>  <original_smiles>  (6) 
[H]C(=O)C1(C([H])([H])C(=O)N2C([H])([H])C([H])([H])C([H])([H])C([H])(n3nc(-c4c([H])c([H])c(Oc5c([H])c([H])c(F)c([H])c5F)c([H])c4[H])c(C(=O)N([H])[H])c3N([H])[H])C2([H])[H])c2c([H])c(C([H])([H])[H])c([H])c([H])c2C(C([H])([H])[H])(C([H])([H])[H])C([H])([H])C([H])(Oc2c([H])c([H])c3c(c2[H])C([H])([H])N(C(=O)C([H])(N([H])C(=O)C([H])(N([H])C([H])([H])[H])C([H])([H])[H])C(C([H])([H])[H])(C([H])([H])[H])C([H])([H])[H])C([H])(C(=O)N([H])C2([H])c4c([H])c([H])c([H])c([H])c4C([H])([H])C([H])([H])C2([H])[H])C3([H])[H])C1([H])[H]

>  <smiles>  (6) 
[H]C(=O)C1(C([H])([H])C(=O)N2C([H])([H])C([H])([H])C([H])([H])C([H])(n3nc(-c4c([H])c([H])c(Oc5c([H])c([H])c(F)c([H])c5F)c([H])c4[H])c(C(=O)N([H])[H])c3N([H])[H])C2([H])[H])c2c([H])c(C([H])([H])[H])c([H])c([H])c2C(C([H])([H])[H])(C([H])([H])[H])C([H])([H])C([H])(Oc2c([H])c([H])c3c(c2[H])C([H])([H])N(C(=O)C([H])(N([H])C(=O)C([H])(N([H])C([H])([H])[H])C([H])([H])[H])C(C([H])([H])[H])(C([H])([H])[H])C([H])([H])[H])C([H])(C(=O)N([H])C2([H])c4c([H])c([H])c([H])c([H])c4C([H])([H])C([H])([H])C2([H])[H])C3([H])[H])C1([H])[H]

$$$$
6:0:0
     RDKit          3D

 93101  0  0  1  0  0  0  0  0999 V2000
  -30.3590  -23.3200   20.3580 C   0  0  0  0  0  3  0  0  0  0  0  0
  -30.9230  -23.8900   19.1950 C   0  0  0  0  0  3  0  0  0  0  0  0
  -28.9680  -23.0960   20.3130 C   0  0  0  0  0  3  0  0  0  0  0  0
  -30.0740  -24.3920   18.1840 C   0  0  0  0  0  0  0  0  0  0  0  0
  -28.2740  -24.4110   19.7920 C   0  0  0  0  0  3  0  0  0  0  0  0
  -28.7010  -24.5840   18.4570 C   0  0  0  0  0  0  0  0  0  0  0  0
  -27.9650  -25.2930   17.5670 F   0  0  0  0  0  0  0  0  0  0  0  0
  -30.5840  -24.7850   16.9790 O   0  0  0  0  0  0  0  0  0  0  0  0
  -29.8910  -25.1630   16.4440 H   0  0  0  0  0  0  0  0  0  0  0  0
  -28.2230  -25.8620   20.2960 O   0  0  0  0  0  0  0  0  0  0  0  0
  -24.6690  -31.8450   23.1740 C   0  0  0  0  0  0  0  0  0  0  0  0
  -27.2100  -26.9540   20.1660 C   0  0  0  0  0  0  0  0  0  0  0  0
  -23.4620  -30.4360   21.5540 C   0  0  0  0  0  3  0  0  0  0  0  0
  -24.9020  -28.8240   20.1260 C   0  0  0  0  0  0  0  0  0  0  0  0
  -26.0260  -30.6500   21.3870 C   0  0  0  0  0  2  0  0  0  0  0  0
  -26.0920  -29.2370   20.7380 C   0  0  0  0  0  0  0  0  0  0  0  0
  -27.2350  -28.3190   20.7390 C   0  0  0  0  0  3  0  0  0  0  0  0
  -25.9900  -26.6910   19.5030 C   0  0  0  0  0  3  0  0  0  0  0  0
  -24.8760  -27.5720   19.4880 C   0  0  0  0  0  3  0  0  0  0  0  0
  -23.6800  -29.7420   20.1800 C   0  0  0  0  0  2  0  0  0  0  0  0
  -24.7410  -31.0050   22.0910 N   0  0  0  0  0  0  0  0  0  0  0  0
  -23.5830  -32.1380   23.7020 O   0  0  0  0  0  0  0  0  0  0  0  0
  -22.7770  -29.4470   22.5330 C   0  0  0  0  0  0  0  0  0  0  0  0
  -21.4450  -29.2870   22.4250 N   0  0  0  0  0  0  0  0  0  0  0  0
  -23.4500  -28.8250   23.3580 O   0  0  0  0  0  0  0  0  0  0  0  0
  -20.9550  -29.8400   21.7360 H   0  0  0  0  0  0  0  0  0  0  0  0
  -18.0670  -28.0780   22.9680 C   0  0  0  0  0  0  0  0  0  0  0  0
  -20.6290  -28.3550   23.2110 C   0  0  0  0  0  3  0  0  0  0  0  0
  -20.7310  -26.9180   22.6500 C   0  0  0  0  0  2  0  0  0  0  0  0
  -19.6230  -26.5810   21.6450 C   0  0  0  0  0  2  0  0  0  0  0  0
  -18.2450  -26.7250   22.2980 C   0  0  0  0  0  2  0  0  0  0  0  0
  -19.1860  -28.8500   23.3810 C   0  0  0  0  0  0  0  0  0  0  0  0
  -18.9630  -30.1130   23.9710 C   0  0  0  0  0  3  0  0  0  0  0  0
  -17.6570  -30.6060   24.1470 C   0  0  0  0  0  3  0  0  0  0  0  0
  -16.5540  -29.8320   23.7470 C   0  0  0  0  0  3  0  0  0  0  0  0
  -16.7600  -28.5690   23.1630 C   0  0  0  0  0  3  0  0  0  0  0  0
  -25.9440  -32.4930   23.7920 C   0  0  0  0  0  3  0  0  0  0  0  0
  -25.6200  -33.8870   24.1450 N   0  0  0  0  0  0  0  0  0  0  0  0
  -25.9300  -34.9600   23.4040 C   0  0  0  0  0  0  0  0  0  0  0  0
  -26.5810  -34.8790   22.3590 O   0  0  0  0  0  0  0  0  0  0  0  0
  -25.0370  -34.0210   24.9580 H   0  0  0  0  0  0  0  0  0  0  0  0
  -24.1760  -36.7470   23.1290 C   0  0  0  0  0  1  0  0  0  0  0  0
  -25.4440  -36.3380   23.8980 C   0  0  0  0  0  3  0  0  0  0  0  0
  -27.5920  -37.2330   24.6810 C   0  0  0  0  0  1  0  0  0  0  0  0
  -26.4620  -37.4030   23.7720 N   0  0  0  0  0  0  0  0  0  0  0  0
  -26.0520  -38.3170   23.9440 H   0  0  0  0  0  0  0  0  0  0  0  0
  -26.4750  -31.7220   25.0650 C   0  0  1  0  0  0  0  0  0  0  0  0
  -25.3940  -31.4790   26.1440 C   0  0  0  0  0  1  0  0  0  0  0  0
  -27.0610  -30.3470   24.6740 C   0  0  0  0  0  1  0  0  0  0  0  0
  -27.6290  -32.5210   25.7160 C   0  0  0  0  0  1  0  0  0  0  0  0
  -28.7940  -21.3910   19.9210 C   0  0  0  0  0  2  0  0  0  0  0  0
  -30.5490  -20.1550   21.6070 C   0  0  0  0  0  1  0  0  0  0  0  0
  -29.3730  -19.8410   20.6710 C   0  0  0  0  0  3  0  0  0  0  0  0
  -29.6430  -18.3340   19.9910 N   0  0  0  0  0  4  0  0  0  0  0  0
  -28.9680  -18.2520   19.2490 H   0  0  0  0  0  0  0  0  0  0  0  0
  -30.5280  -18.4120   19.5170 H   0  0  0  0  0  0  0  0  0  0  0  0
  -29.6740  -16.8180   20.6940 C   0  0  0  0  0  2  0  0  0  0  0  0
  -30.4010  -15.2880   20.2200 C   0  0  0  0  0  0  0  0  0  0  0  0
  -30.3890  -12.8240   19.3740 C   0  0  0  0  0  2  0  0  0  0  0  0
  -29.4680  -12.6460   18.1370 C   0  0  0  0  0  2  0  0  0  0  0  0
  -28.0130  -12.3860   18.5680 C   0  0  0  0  0  2  0  0  0  0  0  0
  -27.5710  -13.3440   19.7020 C   0  0  0  0  0  3  0  0  0  0  0  0
  -28.6190  -13.4720   20.8280 C   0  0  0  0  0  2  0  0  0  0  0  0
  -29.8660  -13.9640   20.2190 N   0  0  0  0  0  0  0  0  0  0  0  0
  -31.5850  -15.2950   19.8500 O   0  0  0  0  0  0  0  0  0  0  0  0
  -25.2010  -13.9090   20.4560 C   0  0  0  0  0  0  0  0  0  0  0  0
  -24.1390  -13.1360   20.8350 C   0  0  0  0  0  0  0  0  0  0  0  0
  -24.6060  -11.7850   20.8130 C   0  0  0  0  0  0  0  0  0  0  0  0
  -26.2420  -13.0310   20.2140 N   0  0  0  0  0  0  0  0  0  0  0  0
  -25.8970  -11.7480   20.4980 N   0  0  0  0  0  0  0  0  0  0  0  0
  -23.8770  -10.5250   21.0160 C   0  0  0  0  0  0  0  0  0  0  0  0
  -24.3190   -9.5550   21.9420 C   0  0  0  0  0  3  0  0  0  0  0  0
  -23.5880   -8.3620   22.1330 C   0  0  0  0  0  3  0  0  0  0  0  0
  -22.4010   -8.1310   21.3990 C   0  0  0  0  0  0  0  0  0  0  0  0
  -21.9780   -9.0900   20.4610 C   0  0  0  0  0  3  0  0  0  0  0  0
  -22.7090  -10.2730   20.2680 C   0  0  0  0  0  3  0  0  0  0  0  0
  -21.6400   -6.9910   21.4990 O   0  0  0  0  0  0  0  0  0  0  0  0
  -21.6190   -6.2390   22.6470 C   0  0  0  0  0  0  0  0  0  0  0  0
  -21.2490   -6.7900   23.8920 C   0  0  0  0  0  3  0  0  0  0  0  0
  -21.1740   -5.9660   25.0330 C   0  0  0  0  0  3  0  0  0  0  0  0
  -21.4580   -4.5910   24.9290 C   0  0  0  0  0  0  0  0  0  0  0  0
  -21.8210   -4.0390   23.6880 C   0  0  0  0  0  3  0  0  0  0  0  0
  -21.8980   -4.8610   22.5500 C   0  0  0  0  0  0  0  0  0  0  0  0
  -22.2280   -4.3190   21.3520 F   0  0  0  0  0  0  0  0  0  0  0  0
  -21.3790   -3.7970   26.0220 F   0  0  0  0  0  0  0  0  0  0  0  0
  -22.7440  -13.6160   21.1020 C   0  0  0  0  0  0  0  0  0  0  0  0
  -22.0160  -12.9320   21.9770 N   0  0  0  0  0  0  0  0  0  0  0  0
  -22.3080  -14.6370   20.5710 O   0  0  0  0  0  0  0  0  0  0  0  0
  -22.3810  -12.1070   22.4300 H   0  0  0  0  0  0  0  0  0  0  0  0
  -21.0790  -13.2370   22.1980 H   0  0  0  0  0  0  0  0  0  0  0  0
  -25.3630  -15.2790   20.2690 N   0  0  0  0  0  0  0  0  0  0  0  0
  -24.5930  -15.9300   20.3750 H   0  0  0  0  0  0  0  0  0  0  0  0
  -26.2020  -15.7140   19.9080 H   0  0  0  0  0  0  0  0  0  0  0  0
  2  1  2  0
  3 51  1  0
  3  1  1  0
  4  6  2  0
  4  2  1  0
  5 10  1  0
  5  3  1  0
  6  5  1  0
  7  6  1  0
  8  4  1  0
  9  8  1  0
 11 22  2  0
 12 10  1  0
 12 17  1  0
 13 21  1  0
 13 23  1  0
 14 20  1  0
 14 16  1  0
 15 21  1  0
 16 17  2  0
 16 15  1  0
 18 12  2  0
 19 18  1  0
 19 14  2  0
 20 13  1  0
 21 11  1  0
 23 25  2  0
 24 23  1  0
 26 24  1  0
 27 36  2  0
 27 32  1  0
 28 24  1  0
 28 32  1  0
 29 28  1  0
 30 31  1  0
 30 29  1  0
 31 27  1  0
 32 33  2  0
 33 34  1  0
 35 34  2  0
 36 35  1  0
 37 11  1  0
 37 38  1  0
 37 47  1  0
 38 41  1  0
 39 43  1  0
 39 38  1  0
 40 39  2  0
 43 42  1  0
 45 43  1  0
 45 46  1  0
 45 44  1  0
 47 50  1  1
 47 48  1  0
 49 47  1  0
 51 53  1  0
 53 52  1  0
 54 53  1  0
 54 57  1  0
 55 54  1  0
 56 54  1  0
 58 57  1  0
 59 64  1  0
 60 61  1  0
 60 59  1  0
 62 61  1  0
 62 69  1  0
 62 63  1  0
 64 58  1  0
 64 63  1  0
 65 58  2  0
 66 67  2  0
 67 86  1  0
 68 67  1  0
 68 71  1  0
 69 66  1  0
 69 70  1  0
 70 68  2  0
 71 72  1  0
 72 73  2  0
 74 77  1  0
 74 73  1  0
 75 74  2  0
 76 75  1  0
 76 71  2  0
 77 78  1  0
 78 79  1  0
 79 80  2  0
 81 80  1  0
 81 85  1  0
 82 81  2  0
 83 78  2  0
 83 82  1  0
 84 83  1  0
 86 87  1  0
 87 90  1  0
 87 89  1  0
 88 86  2  0
 91 92  1  0
 91 66  1  0
 93 91  1  0
M  ISO  4   5 101  10 101  57 100  58 100
M  END
>  <TORSDO>  (7) 
F 21

>  <SCORE>  (7) 
-15.598

>  <name>  (7) 
6

>  <ligand_id>  (7) 
6

>  <original_smiles>  (7) 
[H]Oc1c([H])c([H])c(C([H])([H])C([H])(C([H])([H])[H])[N+]([H])([H])C([H])([H])C(=O)N2C([H])([H])C([H])([H])C([H])([H])C([H])(n3nc(-c4c([H])c([H])c(Oc5c([H])c([H])c(F)c([H])c5F)c([H])c4[H])c(C(=O)N([H])[H])c3N([H])[H])C2([H])[H])c(Oc2c([H])c([H])c3c(c2[H])C([H])([H])N(C(=O)C([H])(N([H])C(=O)C([H])(N([H])C([H])([H])[H])C([H])([H])[H])C(C([H])([H])[H])(C([H])([H])[H])C([H])([H])[H])C([H])(C(=O)N([H])C2([H])c4c([H])c([H])c([H])c([H])c4C([H])([H])C([H])([H])C2([H])[H])C3([H])[H])c1F

>  <smiles>  (7) 
[H]Oc1c([H])c([H])c(C([H])([H])C([H])(C([H])([H])[H])[N+]([H])([H])C([H])([H])C(=O)N2C([H])([H])C([H])([H])C([H])([H])C([H])(n3nc(-c4c([H])c([H])c(Oc5c([H])c([H])c(F)c([H])c5F)c([H])c4[H])c(C(=O)N([H])[H])c3N([H])[H])C2([H])[H])c(Oc2c([H])c([H])c3c(c2[H])C([H])([H])N(C(=O)C([H])(N([H])C(=O)C([H])(N([H])C([H])([H])[H])C([H])([H])[H])C(C([H])([H])[H])(C([H])([H])[H])C([H])([H])[H])C([H])(C(=O)N([H])C2([H])c4c([H])c([H])c([H])c([H])c4C([H])([H])C([H])([H])C2([H])[H])C3([H])[H])c1F

$$$$
7:0:0
     RDKit          3D

 94103  0  0  1  0  0  0  0  0999 V2000
  -28.2280  -24.1090   21.8670 C   0  0  0  0  0  0  0  0  0  0  0  0
  -29.1180  -24.9680   21.2580 C   0  0  0  0  0  0  0  0  0  0  0  0
  -29.7310  -22.5820   21.1050 C   0  0  0  0  0  0  0  0  0  0  0  0
  -26.9750  -24.4870   22.5980 C   0  0  0  0  0  1  0  0  0  0  0  0
  -28.5890  -22.7570   21.7700 N   0  0  0  0  0  0  0  0  0  0  0  0
  -30.3370  -21.3510   20.8810 N   0  0  0  0  0  0  0  0  0  0  0  0
  -30.4440  -24.0860   20.5330 S   0  0  0  0  0  0  0  0  0  0  0  0
  -31.2060  -21.4460   20.3640 H   0  0  0  0  0  0  0  0  0  0  0  0
  -31.2400  -19.2000   21.6990 C   0  0  0  0  0  2  0  0  0  0  0  0
  -29.3760  -19.2590   19.9760 C   0  0  0  0  0  2  0  0  0  0  0  0
  -30.9500  -17.7050   21.9520 C   0  0  0  0  0  2  0  0  0  0  0  0
  -29.1040  -17.7660   20.2440 C   0  0  0  0  0  2  0  0  0  0  0  0
  -29.9980  -19.9680   21.1970 C   0  0  0  0  0  3  0  0  0  0  0  0
  -30.3870  -17.0340   20.6860 C   0  0  0  0  0  3  0  0  0  0  0  0
  -30.8340  -14.5950   20.3390 C   0  0  0  0  0  0  0  0  0  0  0  0
  -30.5100  -12.4660   19.1470 C   0  0  0  0  0  2  0  0  0  0  0  0
  -29.5500  -12.7190   17.9650 C   0  0  0  0  0  2  0  0  0  0  0  0
  -28.0830  -12.5790   18.4140 C   0  0  0  0  0  2  0  0  0  0  0  0
  -27.7720  -13.3810   19.7060 C   0  0  0  0  0  3  0  0  0  0  0  0
  -28.8420  -13.1150   20.7900 C   0  0  0  0  0  2  0  0  0  0  0  0
  -30.1630  -13.4200   20.2110 N   0  0  0  0  0  0  0  0  0  0  0  0
  -31.9450  -14.7930   19.8390 O   0  0  0  0  0  0  0  0  0  0  0  0
  -30.1240  -15.6010   20.8800 N   0  0  0  0  0  0  0  0  0  0  0  0
  -29.2310  -15.3470   21.2740 H   0  0  0  0  0  0  0  0  0  0  0  0
  -25.3780  -13.9790   20.4440 C   0  0  0  0  0  0  0  0  0  0  0  0
  -24.3170  -13.2020   20.8200 C   0  0  0  0  0  0  0  0  0  0  0  0
  -24.7800  -11.8520   20.7750 C   0  0  0  0  0  0  0  0  0  0  0  0
  -26.4230  -13.1020   20.1960 N   0  0  0  0  0  0  0  0  0  0  0  0
  -26.0670  -11.8170   20.4510 N   0  0  0  0  0  0  0  0  0  0  0  0
  -24.0600  -10.5860   20.9660 C   0  0  0  0  0  0  0  0  0  0  0  0
  -24.4650   -9.6440   21.9360 C   0  0  0  0  0  3  0  0  0  0  0  0
  -23.7460   -8.4430   22.1120 C   0  0  0  0  0  3  0  0  0  0  0  0
  -22.6050   -8.1760   21.3190 C   0  0  0  0  0  0  0  0  0  0  0  0
  -22.2200   -9.1060   20.3380 C   0  0  0  0  0  3  0  0  0  0  0  0
  -22.9400  -10.2990   20.1600 C   0  0  0  0  0  3  0  0  0  0  0  0
  -21.8600   -7.0250   21.4020 O   0  0  0  0  0  0  0  0  0  0  0  0
  -21.7270   -6.3380   22.5820 C   0  0  0  0  0  0  0  0  0  0  0  0
  -21.1420   -6.9250   23.7250 C   0  0  0  0  0  3  0  0  0  0  0  0
  -20.9620   -6.1610   24.8960 C   0  0  0  0  0  3  0  0  0  0  0  0
  -21.3570   -4.8110   24.9230 C   0  0  0  0  0  0  0  0  0  0  0  0
  -21.9340   -4.2220   23.7840 C   0  0  0  0  0  3  0  0  0  0  0  0
  -22.1160   -4.9830   22.6160 C   0  0  0  0  0  0  0  0  0  0  0  0
  -22.6540   -4.4060   21.5150 F   0  0  0  0  0  0  0  0  0  0  0  0
  -21.1760   -4.0730   26.0440 F   0  0  0  0  0  0  0  0  0  0  0  0
  -22.9230  -13.6740   21.1150 C   0  0  0  0  0  0  0  0  0  0  0  0
  -22.2030  -12.9630   21.9770 N   0  0  0  0  0  0  0  0  0  0  0  0
  -22.4780  -14.7080   20.6160 O   0  0  0  0  0  0  0  0  0  0  0  0
  -22.5740  -12.1270   22.4010 H   0  0  0  0  0  0  0  0  0  0  0  0
  -21.2680  -13.2610   22.2170 H   0  0  0  0  0  0  0  0  0  0  0  0
  -25.5390  -15.3520   20.2720 N   0  0  0  0  0  0  0  0  0  0  0  0
  -24.7720  -16.0040   20.3920 H   0  0  0  0  0  0  0  0  0  0  0  0
  -26.3830  -15.7910   19.9280 H   0  0  0  0  0  0  0  0  0  0  0  0
  -29.0570  -26.4690   21.1930 C   0  0  0  0  0  2  0  0  0  0  0  0
  -28.4420  -26.8080   19.9520 O   0  0  0  0  0  0  0  0  0  0  0  0
  -24.5750  -31.8840   23.1740 C   0  0  0  0  0  0  0  0  0  0  0  0
  -27.2850  -27.5460   20.0260 C   0  0  0  0  0  0  0  0  0  0  0  0
  -23.3870  -30.4930   21.5070 C   0  0  0  0  0  3  0  0  0  0  0  0
  -24.8650  -28.9990   20.0610 C   0  0  0  0  0  0  0  0  0  0  0  0
  -25.9040  -30.8940   21.3160 C   0  0  0  0  0  2  0  0  0  0  0  0
  -26.0110  -29.5330   20.6650 C   0  0  0  0  0  0  0  0  0  0  0  0
  -27.2240  -28.8100   20.6570 C   0  0  0  0  0  3  0  0  0  0  0  0
  -26.1300  -27.0250   19.4100 C   0  0  0  0  0  3  0  0  0  0  0  0
  -24.9170  -27.7410   19.4340 C   0  0  0  0  0  3  0  0  0  0  0  0
  -23.6070  -29.8370   20.1170 C   0  0  0  0  0  2  0  0  0  0  0  0
  -24.6400  -31.1050   22.0580 N   0  0  0  0  0  0  0  0  0  0  0  0
  -23.4910  -32.1330   23.7200 O   0  0  0  0  0  0  0  0  0  0  0  0
  -22.7510  -29.4470   22.4510 C   0  0  0  0  0  0  0  0  0  0  0  0
  -21.4310  -29.2440   22.3160 N   0  0  0  0  0  0  0  0  0  0  0  0
  -23.4440  -28.8210   23.2570 O   0  0  0  0  0  0  0  0  0  0  0  0
  -20.9330  -29.8010   21.6360 H   0  0  0  0  0  0  0  0  0  0  0  0
  -18.0740  -27.9990   22.7900 C   0  0  0  0  0  0  0  0  0  0  0  0
  -20.6280  -28.2820   23.0690 C   0  0  0  0  0  3  0  0  0  0  0  0
  -20.7490  -26.8630   22.4680 C   0  0  0  0  0  2  0  0  0  0  0  0
  -19.6520  -26.5460   21.4460 C   0  0  0  0  0  2  0  0  0  0  0  0
  -18.2680  -26.6630   22.0910 C   0  0  0  0  0  2  0  0  0  0  0  0
  -19.1830  -28.7660   23.2350 C   0  0  0  0  0  0  0  0  0  0  0  0
  -18.9480  -30.0170   23.8450 C   0  0  0  0  0  3  0  0  0  0  0  0
  -17.6380  -30.5010   24.0170 C   0  0  0  0  0  3  0  0  0  0  0  0
  -16.5420  -29.7290   23.5900 C   0  0  0  0  0  3  0  0  0  0  0  0
  -16.7620  -28.4790   22.9810 C   0  0  0  0  0  3  0  0  0  0  0  0
  -25.8540  -32.5210   23.8030 C   0  0  0  0  0  3  0  0  0  0  0  0
  -25.5350  -33.9140   24.1390 N   0  0  0  0  0  0  0  0  0  0  0  0
  -25.8870  -34.9720   23.3960 C   0  0  0  0  0  0  0  0  0  0  0  0
  -26.5850  -34.8790   22.3830 O   0  0  0  0  0  0  0  0  0  0  0  0
  -24.9180  -34.0610   24.9230 H   0  0  0  0  0  0  0  0  0  0  0  0
  -24.1920  -36.7830   22.9800 C   0  0  0  0  0  1  0  0  0  0  0  0
  -25.3850  -36.3560   23.8520 C   0  0  0  0  0  3  0  0  0  0  0  0
  -27.4710  -37.2180   24.8180 C   0  0  0  0  0  1  0  0  0  0  0  0
  -26.4280  -37.4030   23.8130 N   0  0  0  0  0  0  0  0  0  0  0  0
  -26.0190  -38.3240   23.9470 H   0  0  0  0  0  0  0  0  0  0  0  0
  -26.3740  -31.7440   25.0750 C   0  0  1  0  0  0  0  0  0  0  0  0
  -25.2790  -31.4840   26.1350 C   0  0  0  0  0  1  0  0  0  0  0  0
  -26.9750  -30.3770   24.6700 C   0  0  0  0  0  1  0  0  0  0  0  0
  -27.5110  -32.5460   25.7510 C   0  0  0  0  0  1  0  0  0  0  0  0
  1  4  1  0
  2  1  2  0
  3  5  2  0
  5  1  1  0
  6  3  1  0
  7  3  1  0
  7  2  1  0
  8  6  1  0
  9 11  1  0
 10 12  1  0
 10 13  1  0
 12 14  1  0
 13  6  1  0
 13  9  1  0
 14 23  1  0
 14 11  1  0
 15 23  1  0
 16 21  1  0
 17 18  1  0
 17 16  1  0
 19 18  1  0
 19 28  1  0
 19 20  1  0
 21 15  1  0
 21 20  1  0
 22 15  2  0
 23 24  1  0
 25 26  2  0
 26 45  1  0
 27 26  1  0
 27 30  1  0
 28 25  1  0
 28 29  1  0
 29 27  2  0
 30 31  1  0
 31 32  2  0
 33 36  1  0
 33 32  1  0
 34 33  2  0
 35 34  1  0
 35 30  2  0
 36 37  1  0
 37 42  2  0
 37 38  1  0
 38 39  2  0
 39 40  1  0
 40 44  1  0
 41 40  2  0
 42 41  1  0
 43 42  1  0
 45 46  1  0
 46 49  1  0
 46 48  1  0
 47 45  2  0
 50 51  1  0
 50 25  1  0
 52 50  1  0
 53  2  1  0
 54 56  1  0
 54 53  1  0
 55 66  2  0
 56 61  1  0
 57 65  1  0
 57 67  1  0
 58 64  1  0
 58 60  1  0
 59 65  1  0
 60 59  1  0
 61 60  2  0
 62 63  1  0
 62 56  2  0
 63 58  2  0
 64 57  1  0
 65 55  1  0
 67 69  2  0
 68 67  1  0
 70 68  1  0
 71 80  2  0
 71 76  1  0
 72 68  1  0
 72 76  1  0
 73 72  1  0
 74 75  1  0
 74 73  1  0
 75 71  1  0
 76 77  2  0
 77 78  1  0
 79 78  2  0
 80 79  1  0
 81 55  1  0
 81 82  1  0
 81 91  1  0
 82 85  1  0
 83 87  1  0
 83 82  1  0
 84 83  2  0
 87 86  1  0
 89 87  1  0
 89 90  1  0
 89 88  1  0
 91 94  1  1
 91 92  1  0
 93 91  1  0
M  ISO  4  15 100  23 100  53 101  54 101
M  END
>  <TORSDO>  (8) 
F 18

>  <SCORE>  (8) 
-14.566

>  <name>  (8) 
7

>  <ligand_id>  (8) 
7

>  <original_smiles>  (8) 
[H]c1c([H])c([H])c2c(c1[H])C([H])([H])C([H])([H])C([H])([H])C2([H])N([H])C(=O)C1([H])N(C(=O)C([H])(N([H])C(=O)C([H])(N([H])C([H])([H])[H])C([H])([H])[H])C(C([H])([H])[H])(C([H])([H])[H])C([H])([H])[H])C([H])([H])c2c([H])c(OC([H])([H])c3sc(N([H])C4([H])C([H])([H])C([H])([H])C([H])(N([H])C(=O)N5C([H])([H])C([H])([H])C([H])([H])C([H])(n6nc(-c7c([H])c([H])c(Oc8c([H])c([H])c(F)c([H])c8F)c([H])c7[H])c(C(=O)N([H])[H])c6N([H])[H])C5([H])[H])C([H])([H])C4([H])[H])nc3C([H])([H])[H])c([H])c([H])c2C1([H])[H]

>  <smiles>  (8) 
[H]c1c([H])c([H])c2c(c1[H])C([H])([H])C([H])([H])C([H])([H])C2([H])N([H])C(=O)C1([H])N(C(=O)C([H])(N([H])C(=O)C([H])(N([H])C([H])([H])[H])C([H])([H])[H])C(C([H])([H])[H])(C([H])([H])[H])C([H])([H])[H])C([H])([H])c2c([H])c(OC([H])([H])c3sc(N([H])C4([H])C([H])([H])C([H])([H])C([H])(N([H])C(=O)N5C([H])([H])C([H])([H])C([H])([H])C([H])(n6nc(-c7c([H])c([H])c(Oc8c([H])c([H])c(F)c([H])c8F)c([H])c7[H])c(C(=O)N([H])[H])c6N([H])[H])C5([H])[H])C([H])([H])C4([H])[H])nc3C([H])([H])[H])c([H])c([H])c2C1([H])[H]

$$$$
8:0:0
     RDKit          3D

 92101  0  0  1  0  0  0  0  0999 V2000
  -30.8510  -19.1950   20.0750 C   0  0  0  0  0  3  0  0  0  0  0  0
  -28.7660  -18.8730   19.1450 C   0  0  0  0  0  3  0  0  0  0  0  0
  -30.5840  -20.6400   20.1340 C   0  0  0  0  0  3  0  0  0  0  0  0
  -28.4940  -20.3330   19.2020 C   0  0  0  0  0  3  0  0  0  0  0  0
  -29.9510  -18.1540   19.6210 C   0  0  0  0  0  0  0  0  0  0  0  0
  -29.3800  -21.3450   19.7440 C   0  0  0  0  0  0  0  0  0  0  0  0
  -29.1070  -15.4490   22.3060 C   0  0  0  0  0  2  0  0  0  0  0  0
  -30.3190  -14.5110   22.3010 C   0  0  0  0  0  2  0  0  0  0  0  0
  -28.8590  -16.2110   20.9720 C   0  0  0  0  0  2  0  0  0  0  0  0
  -31.3310  -16.4730   20.9630 C   0  0  0  0  0  2  0  0  0  0  0  0
  -31.5910  -15.2370   21.8580 C   0  0  0  0  0  3  0  0  0  0  0  0
  -30.0780  -16.4660   20.0180 C   0  0  2  0  0  0  0  0  0  0  0  0
  -32.3960  -14.3640   21.2530 F   0  0  0  0  0  0  0  0  0  0  0  0
  -30.3920  -15.0550   19.0390 C   0  0  0  0  0  0  0  0  0  0  0  0
  -30.0090  -12.7710   17.8720 C   0  0  0  0  0  2  0  0  0  0  0  0
  -28.8330  -12.7950   16.8610 C   0  0  0  0  0  2  0  0  0  0  0  0
  -27.4810  -12.5490   17.5590 C   0  0  0  0  0  2  0  0  0  0  0  0
  -27.3620  -13.3640   18.8690 C   0  0  0  0  0  3  0  0  0  0  0  0
  -28.6260  -13.2100   19.7340 C   0  0  0  0  0  2  0  0  0  0  0  0
  -29.7570  -13.7790   18.9690 N   0  0  0  0  0  0  0  0  0  0  0  0
  -31.3920  -15.1100   18.3080 O   0  0  0  0  0  0  0  0  0  0  0  0
  -25.2010  -13.9360   20.1130 C   0  0  0  0  0  0  0  0  0  0  0  0
  -24.2160  -13.1600   20.6590 C   0  0  0  0  0  0  0  0  0  0  0  0
  -24.6270  -11.8060   20.4620 C   0  0  0  0  0  0  0  0  0  0  0  0
  -26.1460  -13.0560   19.6150 N   0  0  0  0  0  0  0  0  0  0  0  0
  -25.8230  -11.7650   19.8860 N   0  0  0  0  0  0  0  0  0  0  0  0
  -23.9190  -10.5490   20.7330 C   0  0  0  0  0  0  0  0  0  0  0  0
  -24.4300   -9.5900   21.6350 C   0  0  0  0  0  3  0  0  0  0  0  0
  -23.7190   -8.3990   21.8940 C   0  0  0  0  0  3  0  0  0  0  0  0
  -22.4800   -8.1580   21.2520 C   0  0  0  0  0  0  0  0  0  0  0  0
  -21.9860   -9.1040   20.3370 C   0  0  0  0  0  3  0  0  0  0  0  0
  -22.7000  -10.2870   20.0760 C   0  0  0  0  0  3  0  0  0  0  0  0
  -21.7330   -7.0180   21.4210 O   0  0  0  0  0  0  0  0  0  0  0  0
  -21.7090   -6.3440   22.6170 C   0  0  0  0  0  0  0  0  0  0  0  0
  -21.3250   -6.9750   23.8210 C   0  0  0  0  0  3  0  0  0  0  0  0
  -21.2460   -6.2290   25.0120 C   0  0  0  0  0  3  0  0  0  0  0  0
  -21.5400   -4.8520   25.0030 C   0  0  0  0  0  0  0  0  0  0  0  0
  -21.9170   -4.2210   23.8050 C   0  0  0  0  0  3  0  0  0  0  0  0
  -21.9980   -4.9650   22.6140 C   0  0  0  0  0  0  0  0  0  0  0  0
  -22.3400   -4.3460   21.4590 F   0  0  0  0  0  0  0  0  0  0  0  0
  -21.4570   -4.1320   26.1470 F   0  0  0  0  0  0  0  0  0  0  0  0
  -22.9190  -13.6460   21.2360 C   0  0  0  0  0  0  0  0  0  0  0  0
  -22.3930  -12.9480   22.2350 N   0  0  0  0  0  0  0  0  0  0  0  0
  -22.3880  -14.6810   20.8340 O   0  0  0  0  0  0  0  0  0  0  0  0
  -22.8390  -12.1110   22.5790 H   0  0  0  0  0  0  0  0  0  0  0  0
  -21.5310  -13.2560   22.6630 H   0  0  0  0  0  0  0  0  0  0  0  0
  -25.3540  -15.3110   19.9700 N   0  0  0  0  0  0  0  0  0  0  0  0
  -24.6380  -15.9650   20.2700 H   0  0  0  0  0  0  0  0  0  0  0  0
  -26.1010  -15.7570   19.4550 H   0  0  0  0  0  0  0  0  0  0  0  0
  -29.2390  -23.0360   20.0020 C   0  0  0  0  0  3  0  0  0  0  0  0
  -28.0910  -24.3150   19.7140 C   0  0  0  0  0  3  0  0  0  0  0  0
  -28.2790  -25.9000   19.9210 O   0  0  0  0  0  0  0  0  0  0  0  0
  -24.6060  -31.6470   22.9540 C   0  0  0  0  0  0  0  0  0  0  0  0
  -27.2200  -26.9140   19.8760 C   0  0  0  0  0  0  0  0  0  0  0  0
  -23.4170  -30.2480   21.3110 C   0  0  0  0  0  3  0  0  0  0  0  0
  -24.8780  -28.6900   19.8640 C   0  0  0  0  0  0  0  0  0  0  0  0
  -25.9720  -30.5260   21.1400 C   0  0  0  0  0  2  0  0  0  0  0  0
  -26.0600  -29.1310   20.4730 C   0  0  0  0  0  0  0  0  0  0  0  0
  -27.2280  -28.2620   20.4560 C   0  0  0  0  0  3  0  0  0  0  0  0
  -26.0070  -26.5970   19.2280 C   0  0  0  0  0  3  0  0  0  0  0  0
  -24.8700  -27.4400   19.2240 C   0  0  0  0  0  3  0  0  0  0  0  0
  -23.6420  -29.5820   19.9270 C   0  0  0  0  0  2  0  0  0  0  0  0
  -24.6860  -30.8310   21.8560 N   0  0  0  0  0  0  0  0  0  0  0  0
  -23.5170  -31.9160   23.4890 O   0  0  0  0  0  0  0  0  0  0  0  0
  -22.7500  -29.2310   22.2710 C   0  0  0  0  0  0  0  0  0  0  0  0
  -21.4300  -29.0150   22.1250 N   0  0  0  0  0  0  0  0  0  0  0  0
  -23.4260  -28.6350   23.1140 O   0  0  0  0  0  0  0  0  0  0  0  0
  -20.9370  -29.5510   21.4240 H   0  0  0  0  0  0  0  0  0  0  0  0
  -18.0870  -27.6840   22.5700 C   0  0  0  0  0  0  0  0  0  0  0  0
  -20.6270  -28.0540   22.8880 C   0  0  0  0  0  3  0  0  0  0  0  0
  -20.7980  -26.6210   22.3340 C   0  0  0  0  0  2  0  0  0  0  0  0
  -19.7340  -26.2440   21.2990 C   0  0  0  0  0  2  0  0  0  0  0  0
  -18.3330  -26.3370   21.9110 C   0  0  0  0  0  2  0  0  0  0  0  0
  -19.1640  -28.4970   23.0130 C   0  0  0  0  0  0  0  0  0  0  0  0
  -18.8790  -29.7530   23.5910 C   0  0  0  0  0  3  0  0  0  0  0  0
  -17.5510  -30.1990   23.7280 C   0  0  0  0  0  3  0  0  0  0  0  0
  -16.4880  -29.3840   23.2990 C   0  0  0  0  0  3  0  0  0  0  0  0
  -16.7580  -28.1300   22.7250 C   0  0  0  0  0  3  0  0  0  0  0  0
  -25.8750  -32.2980   23.5830 C   0  0  0  0  0  3  0  0  0  0  0  0
  -26.4890  -31.4460   24.7640 C   0  0  1  0  0  0  0  0  0  0  0  0
  -25.4480  -31.0050   25.8210 C   0  0  0  0  0  1  0  0  0  0  0  0
  -27.1750  -30.1700   24.2240 C   0  0  0  0  0  1  0  0  0  0  0  0
  -27.5870  -32.2640   25.4850 C   0  0  0  0  0  1  0  0  0  0  0  0
  -25.5050  -33.6390   24.0640 N   0  0  0  0  0  0  0  0  0  0  0  0
  -25.7250  -34.7800   23.3970 C   0  0  0  0  0  0  0  0  0  0  0  0
  -26.3250  -34.8170   22.3200 O   0  0  0  0  0  0  0  0  0  0  0  0
  -24.9580  -33.6790   24.9120 H   0  0  0  0  0  0  0  0  0  0  0  0
  -23.8740  -36.4870   23.3480 C   0  0  0  0  0  1  0  0  0  0  0  0
  -25.1960  -36.0870   24.0220 C   0  0  0  0  0  3  0  0  0  0  0  0
  -27.3350  -37.0310   24.7760 C   0  0  0  0  0  1  0  0  0  0  0  0
  -26.1550  -37.2120   23.9350 N   0  0  0  0  0  0  0  0  0  0  0  0
  -25.7080  -38.0860   24.1990 H   0  0  0  0  0  0  0  0  0  0  0  0
  1  3  1  0
  2  4  2  0
  2  5  1  0
  4  6  1  0
  5 12  1  0
  5  1  2  0
  6 50  1  0
  6  3  2  0
  8  7  1  0
  9  7  1  0
 10 11  1  0
 11 13  1  0
 11  8  1  0
 12 14  1  6
 12 10  1  0
 12  9  1  0
 15 20  1  0
 16 17  1  0
 16 15  1  0
 18 17  1  0
 18 25  1  0
 18 19  1  0
 20 14  1  0
 20 19  1  0
 21 14  2  0
 22 23  2  0
 23 42  1  0
 24 23  1  0
 24 27  1  0
 25 26  1  0
 25 22  1  0
 26 24  2  0
 27 28  1  0
 28 29  2  0
 30 33  1  0
 30 29  1  0
 31 30  2  0
 32 31  1  0
 32 27  2  0
 33 34  1  0
 34 35  1  0
 35 36  2  0
 37 36  1  0
 37 41  1  0
 38 37  2  0
 39 34  2  0
 39 38  1  0
 40 39  1  0
 42 43  1  0
 43 45  1  0
 43 46  1  0
 44 42  2  0
 47 22  1  0
 47 48  1  0
 49 47  1  0
 51 52  1  0
 51 50  2  0
 53 64  2  0
 54 52  1  0
 54 59  1  0
 55 63  1  0
 55 65  1  0
 56 62  1  0
 56 58  1  0
 57 63  1  0
 58 57  1  0
 59 58  2  0
 60 54  2  0
 61 60  1  0
 61 56  2  0
 62 55  1  0
 63 53  1  0
 65 67  2  0
 66 65  1  0
 68 66  1  0
 69 78  2  0
 69 74  1  0
 70 66  1  0
 70 74  1  0
 71 70  1  0
 72 73  1  0
 72 71  1  0
 73 69  1  0
 74 75  2  0
 75 76  1  0
 77 76  2  0
 78 77  1  0
 79 53  1  0
 79 84  1  0
 79 80  1  0
 80 83  1  1
 80 81  1  0
 82 80  1  0
 84 87  1  0
 85 89  1  0
 85 84  1  0
 86 85  2  0
 89 88  1  0
 91 89  1  0
 91 92  1  0
 91 90  1  0
M  ISO  4  12 100  14 100  51 101  52 101
M  END
>  <TORSDO>  (9) 
F 19

>  <SCORE>  (9) 
-8.290

>  <name>  (9) 
8

>  <ligand_id>  (9) 
8

>  <original_smiles>  (9) 
[H]c1c([H])c([H])c2c(c1[H])C([H])([H])C([H])([H])C([H])([H])C2([H])N([H])C(=O)C1([H])N(C(=O)C([H])(N([H])C(=O)C([H])(N([H])C([H])([H])[H])C([H])([H])[H])C(C([H])([H])[H])(C([H])([H])[H])C([H])([H])[H])C([H])([H])c2c([H])c(OC([H])([H])C([H])([H])c3c([H])c([H])c(C4(C(=O)N5C([H])([H])C([H])([H])C([H])([H])C([H])(n6nc(-c7c([H])c([H])c(Oc8c([H])c([H])c(F)c([H])c8F)c([H])c7[H])c(C(=O)N([H])[H])c6N([H])[H])C5([H])[H])C([H])([H])C([H])([H])C([H])([H])C([H])(F)C4([H])[H])c([H])c3[H])c([H])c([H])c2C1([H])[H]

>  <smiles>  (9) 
[H]c1c([H])c([H])c2c(c1[H])C([H])([H])C([H])([H])C([H])([H])C2([H])N([H])C(=O)C1([H])N(C(=O)C([H])(N([H])C(=O)C([H])(N([H])C([H])([H])[H])C([H])([H])[H])C(C([H])([H])[H])(C([H])([H])[H])C([H])([H])[H])C([H])([H])c2c([H])c(OC([H])([H])C([H])([H])c3c([H])c([H])c(C4(C(=O)N5C([H])([H])C([H])([H])C([H])([H])C([H])(n6nc(-c7c([H])c([H])c(Oc8c([H])c([H])c(F)c([H])c8F)c([H])c7[H])c(C(=O)N([H])[H])c6N([H])[H])C5([H])[H])C([H])([H])C([H])([H])C([H])([H])C([H])(F)C4([H])[H])c([H])c3[H])c([H])c([H])c2C1([H])[H]

$$$$
9:0:0
     RDKit          3D

 91100  0  0  1  0  0  0  0  0999 V2000
  -31.2660  -22.3840   19.9580 C   0  0  0  0  0  3  0  0  0  0  0  0
  -30.8260  -21.0530   20.1640 C   0  0  0  0  0  3  0  0  0  0  0  0
  -28.5640  -21.9180   20.2160 C   0  0  0  0  0  3  0  0  0  0  0  0
  -30.3780  -23.4840   19.8520 C   0  0  0  0  0  0  0  0  0  0  0  0
  -28.9850  -23.3430   20.0480 C   0  0  0  0  0  0  0  0  0  0  0  0
  -29.4600  -20.7190   20.2630 C   0  0  0  0  0  0  0  0  0  0  0  0
  -30.8870  -24.8340   19.3740 C   0  0  0  0  0  2  0  0  0  0  0  0
  -30.0280  -25.4070   18.2120 C   0  0  0  0  0  2  0  0  0  0  0  0
  -28.5330  -24.9800   18.2360 C   0  0  0  0  0  2  0  0  0  0  0  0
  -28.0830  -24.6950   19.6810 C   0  0  0  0  0  3  0  0  0  0  0  0
  -28.2210  -26.1530   20.2490 O   0  0  0  0  0  0  0  0  0  0  0  0
  -24.6210  -31.8680   23.2320 C   0  0  0  0  0  0  0  0  0  0  0  0
  -27.1810  -27.1630   20.1490 C   0  0  0  0  0  0  0  0  0  0  0  0
  -23.4140  -30.4860   21.5890 C   0  0  0  0  0  3  0  0  0  0  0  0
  -24.8560  -28.9280   20.1390 C   0  0  0  0  0  0  0  0  0  0  0  0
  -25.9690  -30.7480   21.4150 C   0  0  0  0  0  2  0  0  0  0  0  0
  -26.0390  -29.3610   20.7510 C   0  0  0  0  0  0  0  0  0  0  0  0
  -27.1980  -28.4940   20.7420 C   0  0  0  0  0  3  0  0  0  0  0  0
  -25.9690  -26.8460   19.4910 C   0  0  0  0  0  3  0  0  0  0  0  0
  -24.8360  -27.6860   19.4920 C   0  0  0  0  0  3  0  0  0  0  0  0
  -23.6280  -29.8230   20.2030 C   0  0  0  0  0  2  0  0  0  0  0  0
  -24.6880  -31.0560   22.1330 N   0  0  0  0  0  0  0  0  0  0  0  0
  -23.5380  -32.1470   23.7680 O   0  0  0  0  0  0  0  0  0  0  0  0
  -22.7410  -29.4690   22.5460 C   0  0  0  0  0  0  0  0  0  0  0  0
  -21.4140  -29.2920   22.4210 N   0  0  0  0  0  0  0  0  0  0  0  0
  -23.4170  -28.8420   23.3670 O   0  0  0  0  0  0  0  0  0  0  0  0
  -20.9240  -29.8500   21.7350 H   0  0  0  0  0  0  0  0  0  0  0  0
  -18.0390  -28.0700   22.9240 C   0  0  0  0  0  0  0  0  0  0  0  0
  -20.5970  -28.3480   23.1900 C   0  0  0  0  0  3  0  0  0  0  0  0
  -20.7060  -26.9180   22.6110 C   0  0  0  0  0  2  0  0  0  0  0  0
  -19.6050  -26.5910   21.5970 C   0  0  0  0  0  2  0  0  0  0  0  0
  -18.2240  -26.7250   22.2420 C   0  0  0  0  0  2  0  0  0  0  0  0
  -19.1540  -28.8380   23.3560 C   0  0  0  0  0  0  0  0  0  0  0  0
  -18.9250  -30.0960   23.9550 C   0  0  0  0  0  3  0  0  0  0  0  0
  -17.6170  -30.5850   24.1280 C   0  0  0  0  0  3  0  0  0  0  0  0
  -16.5180  -29.8150   23.7110 C   0  0  0  0  0  3  0  0  0  0  0  0
  -16.7300  -28.5590   23.1150 C   0  0  0  0  0  3  0  0  0  0  0  0
  -25.9010  -32.5000   23.8570 C   0  0  0  0  0  3  0  0  0  0  0  0
  -25.5900  -33.8980   24.1980 N   0  0  0  0  0  0  0  0  0  0  0  0
  -25.9000  -34.9570   23.4400 C   0  0  0  0  0  0  0  0  0  0  0  0
  -26.5450  -34.8610   22.3920 O   0  0  0  0  0  0  0  0  0  0  0  0
  -25.0120  -34.0450   25.0130 H   0  0  0  0  0  0  0  0  0  0  0  0
  -24.1550  -36.7480   23.1460 C   0  0  0  0  0  1  0  0  0  0  0  0
  -25.4220  -36.3440   23.9160 C   0  0  0  0  0  3  0  0  0  0  0  0
  -27.5720  -37.2430   24.6900 C   0  0  0  0  0  1  0  0  0  0  0  0
  -26.4450  -37.4020   23.7750 N   0  0  0  0  0  0  0  0  0  0  0  0
  -26.0390  -38.3200   23.9300 H   0  0  0  0  0  0  0  0  0  0  0  0
  -26.4140  -31.7260   25.1350 C   0  0  1  0  0  0  0  0  0  0  0  0
  -25.3190  -31.4880   26.2020 C   0  0  0  0  0  1  0  0  0  0  0  0
  -26.9970  -30.3470   24.7460 C   0  0  0  0  0  1  0  0  0  0  0  0
  -27.5650  -32.5180   25.7990 C   0  0  0  0  0  1  0  0  0  0  0  0
  -29.0650  -19.1070   20.4050 C   0  0  0  0  0  3  0  0  0  0  0  0
  -30.1140  -17.7720   20.2490 C   0  0  0  0  0  3  0  0  0  0  0  0
  -30.4880  -15.0270   20.2530 C   0  0  0  0  0  0  0  0  0  0  0  0
  -30.3490  -12.6720   19.3130 C   0  0  0  0  0  2  0  0  0  0  0  0
  -29.4070  -12.6270   18.0890 C   0  0  0  0  0  2  0  0  0  0  0  0
  -27.9510  -12.4060   18.5360 C   0  0  0  0  0  2  0  0  0  0  0  0
  -27.5520  -13.3300   19.7160 C   0  0  0  0  0  3  0  0  0  0  0  0
  -28.6180  -13.3520   20.8320 C   0  0  0  0  0  2  0  0  0  0  0  0
  -29.8810  -13.7700   20.2100 N   0  0  0  0  0  0  0  0  0  0  0  0
  -31.6870  -15.0740   19.9580 O   0  0  0  0  0  0  0  0  0  0  0  0
  -29.7350  -16.2320   20.4120 N   0  0  0  0  0  0  0  0  0  0  0  0
  -28.7610  -16.0670   20.6200 H   0  0  0  0  0  0  0  0  0  0  0  0
  -25.1780  -13.8960   20.4860 C   0  0  0  0  0  0  0  0  0  0  0  0
  -24.1190  -13.1180   20.8630 C   0  0  0  0  0  0  0  0  0  0  0  0
  -24.5850  -11.7690   20.8180 C   0  0  0  0  0  0  0  0  0  0  0  0
  -26.2200  -13.0220   20.2280 N   0  0  0  0  0  0  0  0  0  0  0  0
  -25.8730  -11.7360   20.4940 N   0  0  0  0  0  0  0  0  0  0  0  0
  -23.8610  -10.5040   21.0040 C   0  0  0  0  0  0  0  0  0  0  0  0
  -24.2880   -9.5380   21.9420 C   0  0  0  0  0  3  0  0  0  0  0  0
  -23.5630   -8.3390   22.1160 C   0  0  0  0  0  3  0  0  0  0  0  0
  -22.3960   -8.0980   21.3530 C   0  0  0  0  0  0  0  0  0  0  0  0
  -21.9890   -9.0520   20.4030 C   0  0  0  0  0  3  0  0  0  0  0  0
  -22.7150  -10.2410   20.2270 C   0  0  0  0  0  3  0  0  0  0  0  0
  -21.6400   -6.9540   21.4390 O   0  0  0  0  0  0  0  0  0  0  0  0
  -21.5690   -6.2230   22.5970 C   0  0  0  0  0  0  0  0  0  0  0  0
  -21.0780   -6.7780   23.7990 C   0  0  0  0  0  3  0  0  0  0  0  0
  -20.9550   -5.9720   24.9480 C   0  0  0  0  0  3  0  0  0  0  0  0
  -21.3150   -4.6110   24.8970 C   0  0  0  0  0  0  0  0  0  0  0  0
  -21.7970   -4.0550   23.7000 C   0  0  0  0  0  3  0  0  0  0  0  0
  -21.9230   -4.8580   22.5530 C   0  0  0  0  0  0  0  0  0  0  0  0
  -22.3690   -4.3130   21.3970 F   0  0  0  0  0  0  0  0  0  0  0  0
  -21.1900   -3.8340   25.9990 F   0  0  0  0  0  0  0  0  0  0  0  0
  -22.7240  -13.5930   21.1470 C   0  0  0  0  0  0  0  0  0  0  0  0
  -21.9990  -12.8850   22.0050 N   0  0  0  0  0  0  0  0  0  0  0  0
  -22.2860  -14.6270   20.6450 O   0  0  0  0  0  0  0  0  0  0  0  0
  -22.3640  -12.0490   22.4370 H   0  0  0  0  0  0  0  0  0  0  0  0
  -21.0620  -13.1870   22.2360 H   0  0  0  0  0  0  0  0  0  0  0  0
  -25.3370  -15.2690   20.3160 N   0  0  0  0  0  0  0  0  0  0  0  0
  -24.5620  -15.9140   20.4310 H   0  0  0  0  0  0  0  0  0  0  0  0
  -26.1670  -15.7100   19.9440 H   0  0  0  0  0  0  0  0  0  0  0  0
  1  2  1  0
  2  6  2  0
  3  6  1  0
  4  1  2  0
  4  5  1  0
  5  3  2  0
  6 52  1  0
  7  4  1  0
  8  9  1  0
  8  7  1  0
  9 10  1  0
 10  5  1  0
 10 11  1  0
 12 23  2  0
 13 11  1  0
 13 18  1  0
 14 22  1  0
 14 24  1  0
 15 21  1  0
 15 17  1  0
 16 22  1  0
 17 16  1  0
 18 17  2  0
 19 20  1  0
 19 13  2  0
 20 15  2  0
 21 14  1  0
 22 12  1  0
 24 26  2  0
 25 24  1  0
 27 25  1  0
 28 37  2  0
 28 33  1  0
 29 25  1  0
 29 33  1  0
 30 29  1  0
 31 32  1  0
 31 30  1  0
 32 28  1  0
 33 34  2  0
 34 35  1  0
 36 35  2  0
 37 36  1  0
 38 12  1  0
 38 39  1  0
 38 48  1  0
 39 42  1  0
 40 44  1  0
 40 39  1  0
 41 40  2  0
 44 43  1  0
 46 44  1  0
 46 47  1  0
 46 45  1  0
 48 51  1  1
 48 49  1  0
 50 48  1  0
 53 52  2  0
 53 62  1  0
 54 62  1  0
 55 60  1  0
 56 57  1  0
 56 55  1  0
 58 57  1  0
 58 67  1  0
 58 59  1  0
 60 54  1  0
 60 59  1  0
 61 54  2  0
 62 63  1  0
 64 65  2  0
 65 84  1  0
 66 65  1  0
 66 69  1  0
 67 64  1  0
 67 68  1  0
 68 66  2  0
 69 70  1  0
 70 71  2  0
 72 75  1  0
 72 71  1  0
 73 72  2  0
 74 73  1  0
 74 69  2  0
 75 76  1  0
 76 77  1  0
 77 78  2  0
 79 78  1  0
 79 83  1  0
 80 79  2  0
 81 76  2  0
 81 80  1  0
 82 81  1  0
 84 85  1  0
 85 88  1  0
 85 87  1  0
 86 84  2  0
 89 90  1  0
 89 64  1  0
 91 89  1  0
M  ISO  4  10 101  11 101  54 100  62 100
M  END
>  <TORSDO>  (10) 
F 18

>  <SCORE>  (10) 
-15.453

>  <name>  (10) 
9

>  <ligand_id>  (10) 
9

>  <original_smiles>  (10) 
[H]c1c([H])c([H])c2c(c1[H])C([H])([H])C([H])([H])C([H])([H])C2([H])N([H])C(=O)C1([H])N(C(=O)C([H])(N([H])C(=O)C([H])(N([H])C([H])([H])[H])C([H])([H])[H])C(C([H])([H])[H])(C([H])([H])[H])C([H])([H])[H])C([H])([H])c2c([H])c(OC3([H])c4c([H])c(C([H])([H])C([H])([H])N([H])C(=O)N5C([H])([H])C([H])([H])C([H])([H])C([H])(n6nc(-c7c([H])c([H])c(Oc8c([H])c([H])c(F)c([H])c8F)c([H])c7[H])c(C(=O)N([H])[H])c6N([H])[H])C5([H])[H])c([H])c([H])c4C([H])([H])C([H])([H])C3([H])[H])c([H])c([H])c2C1([H])[H]

>  <smiles>  (10) 
[H]c1c([H])c([H])c2c(c1[H])C([H])([H])C([H])([H])C([H])([H])C2([H])N([H])C(=O)C1([H])N(C(=O)C([H])(N([H])C(=O)C([H])(N([H])C([H])([H])[H])C([H])([H])[H])C(C([H])([H])[H])(C([H])([H])[H])C([H])([H])[H])C([H])([H])c2c([H])c(OC3([H])c4c([H])c(C([H])([H])C([H])([H])N([H])C(=O)N5C([H])([H])C([H])([H])C([H])([H])C([H])(n6nc(-c7c([H])c([H])c(Oc8c([H])c([H])c(F)c([H])c8F)c([H])c7[H])c(C(=O)N([H])[H])c6N([H])[H])C5([H])[H])c([H])c([H])c4C([H])([H])C([H])([H])C3([H])[H])c([H])c([H])c2C1([H])[H]

$$$$
10:0:0
     RDKit          3D

 91 87  0  0  1  0  0  0  0  0999 V2000
  -24.4520  -30.2470   20.6740 C   0  0  0  0  0  1  0  0  0  0  0  0
  -25.0620  -31.3370   20.0080 C   0  0  0  0  0  1  0  0  0  0  0  0
  -24.8440  -28.3920   21.7080 C   0  0  0  0  0  1  0  0  0  0  0  0
  -24.7590  -30.0300   20.1960 C   0  0  0  0  0  2  0  0  0  0  0  0
  -24.9380  -26.9020   21.3440 C   0  0  0  0  0  1  0  0  0  0  0  0
  -25.4880  -28.2180   21.1860 C   0  0  0  0  0  3  0  0  0  0  0  0
  -25.6550  -25.3090   21.8420 C   0  0  0  0  0  2  0  0  0  0  0  0
  -26.5270  -24.1600   21.1860 N   0  0  0  0  0  0  0  0  0  0  0  0
  -25.2850  -25.0050   22.9760 O   0  0  0  0  0  1  0  0  0  0  0  0
  -26.9270  -24.5870   20.3630 H   0  0  0  0  0  0  0  0  0  0  0  0
  -26.8980  -22.3770   21.0580 C   0  0  0  0  0  1  0  0  0  0  0  0
  -28.3060  -20.9710   21.0740 C   0  0  0  0  0 15  0  0  0  0  0  0
  -28.7920  -19.1470   20.4080 C   0  0  0  0  0 15  0  0  0  0  0  0
  -29.5580  -17.3700   20.8820 C   0  0  0  0  0  1  0  0  0  0  0  0
  -30.4160  -15.7590   20.2760 C   0  0  0  0  0  0  0  0  0  0  0  0
  -30.7120  -13.2160   19.3640 C   0  0  0  0  0  2  0  0  0  0  0  0
  -29.8440  -12.8080   18.1320 C   0  0  0  0  0  2  0  0  0  0  0  0
  -28.4210  -12.4280   18.5670 C   0  0  0  0  0  2  0  0  0  0  0  0
  -27.9060  -13.4250   19.6280 C   0  0  0  0  0  3  0  0  0  0  0  0
  -28.8930  -13.6670   20.7820 C   0  0  0  0  0  2  0  0  0  0  0  0
  -30.0500  -14.3420   20.1910 N   0  0  0  0  0  0  0  0  0  0  0  0
  -31.6130  -15.7840   19.8980 O   0  0  0  0  0  0  0  0  0  0  0  0
  -25.5760  -14.0090   20.4110 C   0  0  0  0  0  0  0  0  0  0  0  0
  -24.5070  -13.2480   20.7840 C   0  0  0  0  0  0  0  0  0  0  0  0
  -24.9470  -11.8890   20.7270 C   0  0  0  0  0  0  0  0  0  0  0  0
  -26.5880  -13.1130   20.1310 N   0  0  0  0  0  0  0  0  0  0  0  0
  -26.2320  -11.8310   20.3950 N   0  0  0  0  0  0  0  0  0  0  0  0
  -24.2010  -10.6400   20.9110 C   0  0  0  0  0  0  0  0  0  0  0  0
  -24.5490   -9.7110   21.9170 C   0  0  0  0  0  3  0  0  0  0  0  0
  -23.8000   -8.5270   22.0860 C   0  0  0  0  0  3  0  0  0  0  0  0
  -22.6910   -8.2650   21.2470 C   0  0  0  0  0  0  0  0  0  0  0  0
  -22.3650   -9.1800   20.2310 C   0  0  0  0  0  3  0  0  0  0  0  0
  -23.1130  -10.3560   20.0600 C   0  0  0  0  0  3  0  0  0  0  0  0
  -21.9230   -7.1290   21.3190 O   0  0  0  0  0  0  0  0  0  0  0  0
  -21.6750   -6.5010   22.5130 C   0  0  0  0  0  0  0  0  0  0  0  0
  -21.0410   -7.1650   23.5850 C   0  0  0  0  0  3  0  0  0  0  0  0
  -20.7450   -6.4630   24.7720 C   0  0  0  0  0  3  0  0  0  0  0  0
  -21.0720   -5.0990   24.8820 C   0  0  0  0  0  0  0  0  0  0  0  0
  -21.6970   -4.4330   23.8130 C   0  0  0  0  0  3  0  0  0  0  0  0
  -21.9960   -5.1330   22.6310 C   0  0  0  0  0  0  0  0  0  0  0  0
  -22.5800   -4.4830   21.5950 F   0  0  0  0  0  0  0  0  0  0  0  0
  -20.7800   -4.4220   26.0180 F   0  0  0  0  0  0  0  0  0  0  0  0
  -23.1270  -13.7530   21.0770 C   0  0  0  0  0  0  0  0  0  0  0  0
  -22.3920  -13.0630   21.9390 N   0  0  0  0  0  0  0  0  0  0  0  0
  -22.7110  -14.7980   20.5750 O   0  0  0  0  0  0  0  0  0  0  0  0
  -22.7470  -12.2170   22.3620 H   0  0  0  0  0  0  0  0  0  0  0  0
  -21.4640  -13.3820   22.1780 H   0  0  0  0  0  0  0  0  0  0  0  0
  -25.7740  -15.3780   20.2560 N   0  0  0  0  0  0  0  0  0  0  0  0
  -25.0370  -16.0590   20.3960 H   0  0  0  0  0  0  0  0  0  0  0  0
  -26.6380  -15.7890   19.9240 H   0  0  0  0  0  0  0  0  0  0  0  0
  -26.8720  -27.5190   21.1020 O   0  0  0  0  0  0  0  0  0  0  0  0
  -24.6890  -31.5380   23.7410 C   0  0  0  0  0  0  0  0  0  0  0  0
  -27.4140  -27.2320   19.9010 C   0  0  0  0  0  3  0  0  0  0  0  0
  -23.0400  -29.8160   22.1530 C   0  0  0  0  0  1  0  0  0  0  0  0
  -25.2220  -28.4550   18.9150 C   0  0  0  0  0  1  0  0  0  0  0  0
  -26.7470  -30.2330   21.8380 C   0  0  0  0  0 15  0  0  0  0  0  0
  -26.8820  -29.2910   19.6660 C   0  0  0  0  0  1  0  0  0  0  0  0
  -27.9470  -28.4710   19.7030 C   0  0  0  0  0  2  0  0  0  0  0  0
  -26.5240  -26.6010   18.9810 C   0  0  0  0  0  2  0  0  0  0  0  0
  -25.3390  -27.1770   18.5210 C   0  0  0  0  0  2  0  0  0  0  0  0
  -23.2110  -28.7130   19.9890 C   0  0  0  0  0 15  0  0  0  0  0  0
  -24.9100  -30.4730   22.9700 N   0  0  0  0  0  1  0  0  0  0  0  0
  -23.5510  -31.9240   24.0490 O   0  0  0  0  0  0  0  0  0  0  0  0
  -22.3000  -29.0670   23.0590 C   0  0  0  0  0  0  0  0  0  0  0  0
  -21.0650  -29.0010   22.6710 N   0  0  0  0  0  0  0  0  0  0  0  0
  -22.8370  -28.5100   23.9990 O   0  0  0  0  0  0  0  0  0  0  0  0
  -20.7410  -29.5100   21.8620 H   0  0  0  0  0  0  0  0  0  0  0  0
  -17.7450  -28.0810   22.7850 C   0  0  0  0  0  0  0  0  0  0  0  0
  -20.2120  -28.0750   23.2810 C   0  0  0  0  0  3  0  0  0  0  0  0
  -20.3340  -26.7480   22.5100 C   0  0  0  0  0  2  0  0  0  0  0  0
  -19.3070  -26.6400   21.3940 C   0  0  0  0  0  2  0  0  0  0  0  0
  -17.9040  -26.7920   21.9920 C   0  0  0  0  0  2  0  0  0  0  0  0
  -18.8580  -28.7180   23.3590 C   0  0  0  0  0  0  0  0  0  0  0  0
  -18.7210  -29.9610   24.0170 C   0  0  0  0  0  3  0  0  0  0  0  0
  -17.4530  -30.5450   24.1500 C   0  0  0  0  0  3  0  0  0  0  0  0
  -16.3280  -29.8800   23.6310 C   0  0  0  0  0  3  0  0  0  0  0  0
  -16.4740  -28.6580   22.9480 C   0  0  0  0  0  3  0  0  0  0  0  0
  -25.9320  -32.1810   24.3210 C   0  0  0  0  0  3  0  0  0  0  0  0
  -25.6880  -33.6170   24.4940 N   0  0  0  0  0  0  0  0  0  0  0  0
  -26.1140  -34.5730   23.6590 C   0  0  0  0  0  0  0  0  0  0  0  0
  -26.8120  -34.3400   22.6680 O   0  0  0  0  0  0  0  0  0  0  0  0
  -25.0890  -33.8860   25.2600 H   0  0  0  0  0  0  0  0  0  0  0  0
  -24.5600  -36.4730   23.0930 C   0  0  0  0  0  1  0  0  0  0  0  0
  -25.7210  -36.0250   23.9940 C   0  0  0  0  0  3  0  0  0  0  0  0
  -27.8790  -36.7830   24.8850 C   0  0  0  0  0  1  0  0  0  0  0  0
  -26.8420  -36.9810   23.8770 N   0  0  0  0  0  0  0  0  0  0  0  0
  -26.5100  -37.9390   23.9450 H   0  0  0  0  0  0  0  0  0  0  0  0
  -26.2550  -31.4540   25.6760 C   0  0  1  0  0  0  0  0  0  0  0  0
  -25.0320  -31.3320   26.6190 C   0  0  0  0  0  1  0  0  0  0  0  0
  -26.8250  -30.0250   25.4780 C   0  0  0  0  0  1  0  0  0  0  0  0
  -27.3660  -32.2370   26.3950 C   0  0  0  0  0  1  0  0  0  0  0  0
  2  4  1  0
  4  1  1  0
  6  5  1  0
  6  3  1  0
  7  9  1  0
  8  7  1  0
 10  8  1  0
 11  8  1  0
 15 14  1  0
 16 21  1  0
 17 18  1  0
 17 16  1  0
 19 18  1  0
 19 26  1  0
 19 20  1  0
 21 15  1  0
 21 20  1  0
 22 15  2  0
 23 24  2  0
 24 43  1  0
 25 24  1  0
 25 28  1  0
 26 27  1  0
 26 23  1  0
 27 25  2  0
 28 29  1  0
 29 30  2  0
 31 34  1  0
 31 30  1  0
 32 31  2  0
 33 32  1  0
 33 28  2  0
 34 35  1  0
 35 40  2  0
 35 36  1  0
 36 37  2  0
 37 38  1  0
 38 42  1  0
 39 38  2  0
 40 39  1  0
 41 40  1  0
 43 44  1  0
 44 47  1  0
 44 46  1  0
 45 43  2  0
 48 49  1  0
 48 23  1  0
 50 48  1  0
 51  6  1  0
 52 63  2  0
 53 59  1  0
 53 51  1  0
 54 64  1  0
 57 58  1  0
 58 53  1  0
 60 55  1  0
 60 59  1  0
 62 52  1  0
 64 66  2  0
 65 64  1  0
 67 65  1  0
 68 77  2  0
 68 73  1  0
 69 65  1  0
 69 73  1  0
 70 69  1  0
 71 72  1  0
 71 70  1  0
 72 68  1  0
 73 74  2  0
 74 75  1  0
 76 75  2  0
 77 76  1  0
 78 52  1  0
 78 79  1  0
 78 88  1  0
 79 82  1  0
 80 84  1  0
 80 79  1  0
 81 80  2  0
 84 83  1  0
 86 87  1  0
 86 84  1  0
 86 85  1  0
 88 91  1  1
 88 89  1  0
 90 88  1  0
M  ISO  4   6 101  14 100  15 100  51 101
M  END
>  <TORSDO>  (11) 
F 21

>  <SCORE>  (11) 
-13.059

>  <name>  (11) 
10

>  <ligand_id>  (11) 
10

>  <original_smiles>  (11) 
[H]c1c([H])c([H])c(C(=O)N([H])C([H])([H])C([H])([H])C([H])([H])C([H])([H])C(=O)N2C([H])([H])C([H])([H])C([H])([H])C([H])(n3nc(-c4c([H])c([H])c(Oc5c([H])c([H])c(F)c([H])c5F)c([H])c4[H])c(C(=O)N([H])[H])c3N([H])[H])C2([H])[H])c(Oc2c([H])c([H])c3c(c2[H])C([H])([H])N(C(=O)C([H])(N([H])C(=O)C([H])(N([H])C([H])([H])[H])C([H])([H])[H])C(C([H])([H])[H])(C([H])([H])[H])C([H])([H])[H])C([H])(C(=O)N([H])C2([H])c4c([H])c([H])c([H])c([H])c4C([H])([H])C([H])([H])C2([H])[H])C3([H])[H])c1[H]

>  <smiles>  (11) 
[H]c1c([H])c([H])c(C(=O)N([H])C([H])([H])C([H])([H])C([H])([H])C([H])([H])C(=O)N2C([H])([H])C([H])([H])C([H])([H])C([H])(n3nc(-c4c([H])c([H])c(Oc5c([H])c([H])c(F)c([H])c5F)c([H])c4[H])c(C(=O)N([H])[H])c3N([H])[H])C2([H])[H])c(Oc2c([H])c([H])c3c(c2[H])C([H])([H])N(C(=O)C([H])(N([H])C(=O)C([H])(N([H])C([H])([H])[H])C([H])([H])[H])C(C([H])([H])[H])(C([H])([H])[H])C([H])([H])[H])C([H])(C(=O)N([H])C2([H])c4c([H])c([H])c([H])c([H])c4C([H])([H])C([H])([H])C2([H])[H])C3([H])[H])c1[H]

$$$$
11:0:0
     RDKit          3D

 88 97  0  0  1  0  0  0  0  0999 V2000
  -30.4250  -15.5230   20.3500 C   0  0  0  0  0  0  0  0  0  0  0  0
  -30.3930  -13.0320   19.5010 C   0  0  0  0  0  2  0  0  0  0  0  0
  -29.5220  -12.6800   18.2710 C   0  0  0  0  0  2  0  0  0  0  0  0
  -28.0860  -12.3580   18.7010 C   0  0  0  0  0  2  0  0  0  0  0  0
  -27.5730  -13.3610   19.7620 C   0  0  0  0  0  3  0  0  0  0  0  0
  -28.5910  -13.6590   20.8880 C   0  0  0  0  0  2  0  0  0  0  0  0
  -29.7860  -14.2300   20.2320 N   0  0  0  0  0  0  0  0  0  0  0  0
  -31.6530  -15.3520   20.2430 O   0  0  0  0  0  0  0  0  0  0  0  0
  -28.1370  -20.9810   20.2960 C   0  0  0  0  0  3  0  0  0  0  0  0
  -30.1150  -22.2630   20.2650 C   0  0  0  0  0  3  0  0  0  0  0  0
  -28.8950  -19.6310   20.3310 C   0  0  0  0  0  0  0  0  0  0  0  0
  -30.2610  -19.6770   20.3170 C   0  0  0  0  0  0  0  0  0  0  0  0
  -28.6820  -22.4270   20.2540 C   0  0  0  0  0  0  0  0  0  0  0  0
  -30.8590  -20.9950   20.2990 C   0  0  0  0  0  0  0  0  0  0  0  0
  -28.6340  -17.9610   20.3910 C   0  0  0  0  0  3  0  0  0  0  0  0
  -30.8990  -18.1920   20.3270 C   0  0  0  0  0  3  0  0  0  0  0  0
  -32.3760  -21.0660   20.3230 C   0  0  0  0  0  1  0  0  0  0  0  0
  -29.9230  -16.9830   20.3590 N   0  0  0  0  0  0  0  0  0  0  0  0
  -25.1920  -13.8830   20.4760 C   0  0  0  0  0  0  0  0  0  0  0  0
  -24.1300  -13.0960   20.8250 C   0  0  0  0  0  0  0  0  0  0  0  0
  -24.6140  -11.7510   20.8190 C   0  0  0  0  0  0  0  0  0  0  0  0
  -26.2480  -13.0200   20.2620 N   0  0  0  0  0  0  0  0  0  0  0  0
  -25.9140  -11.7320   20.5400 N   0  0  0  0  0  0  0  0  0  0  0  0
  -23.8960  -10.4830   21.0040 C   0  0  0  0  0  0  0  0  0  0  0  0
  -24.3100   -9.5310   21.9620 C   0  0  0  0  0  3  0  0  0  0  0  0
  -23.5880   -8.3320   22.1390 C   0  0  0  0  0  3  0  0  0  0  0  0
  -22.4360   -8.0740   21.3580 C   0  0  0  0  0  0  0  0  0  0  0  0
  -22.0410   -9.0130   20.3890 C   0  0  0  0  0  3  0  0  0  0  0  0
  -22.7650  -10.2050   20.2100 C   0  0  0  0  0  3  0  0  0  0  0  0
  -21.6890   -6.9240   21.4430 O   0  0  0  0  0  0  0  0  0  0  0  0
  -21.6070   -6.2000   22.6050 C   0  0  0  0  0  0  0  0  0  0  0  0
  -21.1330   -6.7710   23.8060 C   0  0  0  0  0  3  0  0  0  0  0  0
  -21.0020   -5.9750   24.9610 C   0  0  0  0  0  3  0  0  0  0  0  0
  -21.3340   -4.6070   24.9150 C   0  0  0  0  0  0  0  0  0  0  0  0
  -21.8000   -4.0350   23.7180 C   0  0  0  0  0  3  0  0  0  0  0  0
  -21.9330   -4.8290   22.5660 C   0  0  0  0  0  0  0  0  0  0  0  0
  -22.3620   -4.2680   21.4090 F   0  0  0  0  0  0  0  0  0  0  0  0
  -21.2000   -3.8400   26.0210 F   0  0  0  0  0  0  0  0  0  0  0  0
  -22.7210  -13.5610   21.0480 C   0  0  0  0  0  0  0  0  0  0  0  0
  -21.9800  -12.8740   21.9110 N   0  0  0  0  0  0  0  0  0  0  0  0
  -22.2860  -14.5690   20.4930 O   0  0  0  0  0  0  0  0  0  0  0  0
  -22.3440  -12.0560   22.3770 H   0  0  0  0  0  0  0  0  0  0  0  0
  -21.0330  -13.1700   22.1070 H   0  0  0  0  0  0  0  0  0  0  0  0
  -25.3460  -15.2540   20.2880 N   0  0  0  0  0  0  0  0  0  0  0  0
  -24.5780  -15.9090   20.3840 H   0  0  0  0  0  0  0  0  0  0  0  0
  -26.2050  -15.6900   19.9840 H   0  0  0  0  0  0  0  0  0  0  0  0
  -27.8350  -24.0270   20.0970 C   0  0  0  0  0  2  0  0  0  0  0  0
  -28.1580  -25.6900   20.2890 O   0  0  0  0  0  0  0  0  0  0  0  0
  -24.6620  -31.8510   23.2170 C   0  0  0  0  0  0  0  0  0  0  0  0
  -27.1930  -26.8680   20.2170 C   0  0  0  0  0  0  0  0  0  0  0  0
  -23.4730  -30.4670   21.5700 C   0  0  0  0  0  3  0  0  0  0  0  0
  -24.9210  -28.8380   20.1550 C   0  0  0  0  0  0  0  0  0  0  0  0
  -26.0480  -30.6340   21.4470 C   0  0  0  0  0  2  0  0  0  0  0  0
  -26.1130  -29.2120   20.7900 C   0  0  0  0  0  0  0  0  0  0  0  0
  -27.2390  -28.2530   20.7910 C   0  0  0  0  0  3  0  0  0  0  0  0
  -25.9720  -26.6830   19.5240 C   0  0  0  0  0  3  0  0  0  0  0  0
  -24.8840  -27.5990   19.4970 C   0  0  0  0  0  3  0  0  0  0  0  0
  -23.7130  -29.7800   20.1950 C   0  0  0  0  0  2  0  0  0  0  0  0
  -24.7500  -31.0130   22.1320 N   0  0  0  0  0  0  0  0  0  0  0  0
  -23.5700  -32.1490   23.7280 O   0  0  0  0  0  0  0  0  0  0  0  0
  -22.7600  -29.4790   22.5320 C   0  0  0  0  0  0  0  0  0  0  0  0
  -21.4260  -29.3350   22.4100 N   0  0  0  0  0  0  0  0  0  0  0  0
  -23.4150  -28.8400   23.3600 O   0  0  0  0  0  0  0  0  0  0  0  0
  -20.9470  -29.9020   21.7230 H   0  0  0  0  0  0  0  0  0  0  0  0
  -18.0270  -28.1620   22.9200 C   0  0  0  0  0  0  0  0  0  0  0  0
  -20.5910  -28.4030   23.1770 C   0  0  0  0  0  3  0  0  0  0  0  0
  -20.6770  -26.9740   22.5940 C   0  0  0  0  0  2  0  0  0  0  0  0
  -19.5690  -26.6670   21.5810 C   0  0  0  0  0  2  0  0  0  0  0  0
  -18.1900  -26.8200   22.2280 C   0  0  0  0  0  2  0  0  0  0  0  0
  -19.1540  -28.9120   23.3520 C   0  0  0  0  0  0  0  0  0  0  0  0
  -18.9450  -30.1660   23.9640 C   0  0  0  0  0  3  0  0  0  0  0  0
  -17.6440  -30.6720   24.1460 C   0  0  0  0  0  3  0  0  0  0  0  0
  -16.5330  -29.9200   23.7280 C   0  0  0  0  0  3  0  0  0  0  0  0
  -16.7260  -28.6660   23.1210 C   0  0  0  0  0  3  0  0  0  0  0  0
  -25.9290  -32.4920   23.8620 C   0  0  0  0  0  3  0  0  0  0  0  0
  -25.6160  -33.8940   24.2000 N   0  0  0  0  0  0  0  0  0  0  0  0
  -25.9420  -34.9570   23.4550 C   0  0  0  0  0  0  0  0  0  0  0  0
  -26.6030  -34.8640   22.4180 O   0  0  0  0  0  0  0  0  0  0  0  0
  -25.0410  -34.0430   25.0170 H   0  0  0  0  0  0  0  0  0  0  0  0
  -24.2090  -36.7590   23.1500 C   0  0  0  0  0  1  0  0  0  0  0  0
  -25.4640  -36.3440   23.9350 C   0  0  0  0  0  3  0  0  0  0  0  0
  -27.6140  -37.2290   24.7320 C   0  0  0  0  0  1  0  0  0  0  0  0
  -26.4940  -37.4010   23.8100 N   0  0  0  0  0  0  0  0  0  0  0  0
  -26.0880  -38.3180   23.9720 H   0  0  0  0  0  0  0  0  0  0  0  0
  -26.4190  -31.7250   25.1530 C   0  0  1  0  0  0  0  0  0  0  0  0
  -25.3070  -31.5090   26.2070 C   0  0  0  0  0  1  0  0  0  0  0  0
  -26.9930  -30.3390   24.7880 C   0  0  0  0  0  1  0  0  0  0  0  0
  -27.5690  -32.5130   25.8250 C   0  0  0  0  0  1  0  0  0  0  0  0
  1 18  1  0
  2  7  1  0
  3  4  1  0
  3  2  1  0
  5  4  1  0
  5 22  1  0
  5  6  1  0
  7  1  1  0
  7  6  1  0
  8  1  2  0
  9 11  1  0
 10 14  2  0
 11 15  2  0
 12 16  2  0
 12 11  1  0
 13 10  1  0
 13  9  2  0
 14 12  1  0
 14 17  1  0
 16 18  1  0
 18 15  1  0
 19 20  2  0
 20 39  1  0
 21 20  1  0
 21 24  1  0
 22 19  1  0
 22 23  1  0
 23 21  2  0
 24 25  1  0
 25 26  2  0
 27 30  1  0
 27 26  1  0
 28 27  2  0
 29 28  1  0
 29 24  2  0
 30 31  1  0
 31 32  1  0
 32 33  2  0
 34 33  1  0
 34 38  1  0
 35 34  2  0
 36 31  2  0
 36 35  1  0
 37 36  1  0
 39 40  1  0
 40 43  1  0
 40 42  1  0
 41 39  2  0
 44 45  1  0
 44 19  1  0
 46 44  1  0
 47 13  1  0
 47 48  1  0
 49 60  2  0
 50 48  1  0
 50 55  1  0
 51 59  1  0
 51 61  1  0
 52 58  1  0
 52 54  1  0
 53 59  1  0
 54 55  2  0
 54 53  1  0
 56 50  2  0
 57 56  1  0
 57 52  2  0
 58 51  1  0
 59 49  1  0
 61 63  2  0
 62 61  1  0
 64 62  1  0
 65 74  2  0
 65 70  1  0
 66 62  1  0
 66 70  1  0
 67 66  1  0
 68 69  1  0
 68 67  1  0
 69 65  1  0
 70 71  2  0
 71 72  1  0
 73 72  2  0
 74 73  1  0
 75 49  1  0
 75 76  1  0
 75 85  1  0
 76 79  1  0
 77 81  1  0
 77 76  1  0
 78 77  2  0
 81 80  1  0
 83 81  1  0
 83 84  1  0
 83 82  1  0
 85 88  1  1
 85 86  1  0
 87 85  1  0
M  ISO  4   1 100  18 100  47 101  48 101
M  END
>  <TORSDO>  (12) 
F 16

>  <SCORE>  (12) 
-16.759

>  <name>  (12) 
11

>  <ligand_id>  (12) 
11

>  <original_smiles>  (12) 
[H]c1c([H])c([H])c2c(c1[H])C([H])([H])C([H])([H])C([H])([H])C2([H])N([H])C(=O)C1([H])N(C(=O)C([H])(N([H])C(=O)C([H])(N([H])C([H])([H])[H])C([H])([H])[H])C(C([H])([H])[H])(C([H])([H])[H])C([H])([H])[H])C([H])([H])c2c([H])c(OC([H])([H])c3c([H])c(C([H])([H])[H])c4c(c3[H])C([H])([H])N(C(=O)N3C([H])([H])C([H])([H])C([H])([H])C([H])(n5nc(-c6c([H])c([H])c(Oc7c([H])c([H])c(F)c([H])c7F)c([H])c6[H])c(C(=O)N([H])[H])c5N([H])[H])C3([H])[H])C4([H])[H])c([H])c([H])c2C1([H])[H]

>  <smiles>  (12) 
[H]c1c([H])c([H])c2c(c1[H])C([H])([H])C([H])([H])C([H])([H])C2([H])N([H])C(=O)C1([H])N(C(=O)C([H])(N([H])C(=O)C([H])(N([H])C([H])([H])[H])C([H])([H])[H])C(C([H])([H])[H])(C([H])([H])[H])C([H])([H])[H])C([H])([H])c2c([H])c(OC([H])([H])c3c([H])c(C([H])([H])[H])c4c(c3[H])C([H])([H])N(C(=O)N3C([H])([H])C([H])([H])C([H])([H])C([H])(n5nc(-c6c([H])c([H])c(Oc7c([H])c([H])c(F)c([H])c7F)c([H])c6[H])c(C(=O)N([H])[H])c5N([H])[H])C3([H])[H])C4([H])[H])c([H])c([H])c2C1([H])[H]

$$$$
12:0:0
     RDKit          3D

 95104  0  0  1  0  0  0  0  0999 V2000
  -28.7540  -22.2150   21.9580 C   0  0  0  0  0  2  0  0  0  0  0  0
  -27.6210  -23.1460   22.4760 C   0  0  0  0  0  2  0  0  0  0  0  0
  -28.7330  -23.4680   19.7520 C   0  0  0  0  0  2  0  0  0  0  0  0
  -28.6320  -21.9550   20.4540 C   0  0  0  0  0  3  0  0  0  0  0  0
  -27.3830  -24.5200   21.7460 C   0  0  0  0  0  3  0  0  0  0  0  0
  -28.4030  -24.8510   20.6240 C   0  0  0  0  0  3  0  0  0  0  0  0
  -30.0520  -20.6420   18.6980 C   0  0  0  0  0  3  0  0  0  0  0  0
  -30.5890  -19.4900   18.0820 C   0  0  0  0  0  3  0  0  0  0  0  0
  -29.3770  -19.2130   20.5270 C   0  0  0  0  0  3  0  0  0  0  0  0
  -29.3810  -20.5780   19.9310 C   0  0  0  0  0  0  0  0  0  0  0  0
  -30.5150  -18.1890   18.6430 C   0  0  0  0  0  0  0  0  0  0  0  0
  -29.9550  -17.9730   19.9360 C   0  0  0  0  0  0  0  0  0  0  0  0
  -31.0000  -17.0450   17.7670 C   0  0  0  0  0  1  0  0  0  0  0  0
  -29.8450  -16.4500   20.5950 C   0  0  0  0  0  2  0  0  0  0  0  0
  -30.7090  -15.0590   20.2620 C   0  0  0  0  0  0  0  0  0  0  0  0
  -30.6310  -12.7110   19.3070 C   0  0  0  0  0  2  0  0  0  0  0  0
  -29.6950  -12.6930   18.0740 C   0  0  0  0  0  2  0  0  0  0  0  0
  -28.2270  -12.4860   18.4990 C   0  0  0  0  0  2  0  0  0  0  0  0
  -27.8240  -13.3990   19.6840 C   0  0  0  0  0  3  0  0  0  0  0  0
  -28.8750  -13.3750   20.8110 C   0  0  0  0  0  2  0  0  0  0  0  0
  -30.1560  -13.7830   20.2240 N   0  0  0  0  0  0  0  0  0  0  0  0
  -31.9050  -15.1400   19.9580 O   0  0  0  0  0  0  0  0  0  0  0  0
  -25.4380  -13.9830   20.4090 C   0  0  0  0  0  0  0  0  0  0  0  0
  -24.3750  -13.2080   20.7800 C   0  0  0  0  0  0  0  0  0  0  0  0
  -24.8430  -11.8590   20.7640 C   0  0  0  0  0  0  0  0  0  0  0  0
  -26.4840  -13.1050   20.1790 N   0  0  0  0  0  0  0  0  0  0  0  0
  -26.1360  -11.8220   20.4580 N   0  0  0  0  0  0  0  0  0  0  0  0
  -24.1190  -10.5950   20.9590 C   0  0  0  0  0  0  0  0  0  0  0  0
  -24.5380   -9.6430   21.9150 C   0  0  0  0  0  3  0  0  0  0  0  0
  -23.8130   -8.4460   22.0980 C   0  0  0  0  0  3  0  0  0  0  0  0
  -22.6550   -8.1930   21.3250 C   0  0  0  0  0  0  0  0  0  0  0  0
  -22.2560   -9.1320   20.3580 C   0  0  0  0  0  3  0  0  0  0  0  0
  -22.9830  -10.3200   20.1730 C   0  0  0  0  0  3  0  0  0  0  0  0
  -21.9040   -7.0460   21.4150 O   0  0  0  0  0  0  0  0  0  0  0  0
  -21.8190   -6.3310   22.5830 C   0  0  0  0  0  0  0  0  0  0  0  0
  -21.3310   -6.9080   23.7760 C   0  0  0  0  0  3  0  0  0  0  0  0
  -21.1960   -6.1180   24.9360 C   0  0  0  0  0  3  0  0  0  0  0  0
  -21.5380   -4.7530   24.9020 C   0  0  0  0  0  0  0  0  0  0  0  0
  -22.0200   -4.1760   23.7140 C   0  0  0  0  0  3  0  0  0  0  0  0
  -22.1560   -4.9620   22.5570 C   0  0  0  0  0  0  0  0  0  0  0  0
  -22.6000   -4.3970   21.4090 F   0  0  0  0  0  0  0  0  0  0  0  0
  -21.4010   -3.9920   26.0130 F   0  0  0  0  0  0  0  0  0  0  0  0
  -22.9750  -13.6830   21.0370 C   0  0  0  0  0  0  0  0  0  0  0  0
  -22.2450  -12.9940   21.9070 N   0  0  0  0  0  0  0  0  0  0  0  0
  -22.5370  -14.7010   20.5030 O   0  0  0  0  0  0  0  0  0  0  0  0
  -22.6120  -12.1710   22.3600 H   0  0  0  0  0  0  0  0  0  0  0  0
  -21.3040  -13.2940   22.1250 H   0  0  0  0  0  0  0  0  0  0  0  0
  -25.6020  -15.3540   20.2250 N   0  0  0  0  0  0  0  0  0  0  0  0
  -24.8360  -16.0080   20.3400 H   0  0  0  0  0  0  0  0  0  0  0  0
  -26.4500  -15.7900   19.8870 H   0  0  0  0  0  0  0  0  0  0  0  0
  -27.3180  -25.6130   22.7450 N   0  0  0  0  0  4  0  0  0  0  0  0
  -27.1650  -26.4950   22.2840 H   0  0  0  0  0  0  0  0  0  0  0  0
  -28.1740  -25.6810   23.2710 H   0  0  0  0  0  0  0  0  0  0  0  0
  -26.5600  -25.4690   23.3910 H   0  0  0  0  0  0  0  0  0  0  0  0
  -28.3710  -26.3380   20.1410 O   0  0  0  0  0  0  0  0  0  0  0  0
  -24.5970  -31.8930   23.1490 C   0  0  0  0  0  0  0  0  0  0  0  0
  -27.2570  -27.2450   20.1300 C   0  0  0  0  0  0  0  0  0  0  0  0
  -23.4300  -30.5040   21.4780 C   0  0  0  0  0  3  0  0  0  0  0  0
  -24.9100  -28.9450   20.0690 C   0  0  0  0  0  0  0  0  0  0  0  0
  -25.9810  -30.7980   21.3460 C   0  0  0  0  0  2  0  0  0  0  0  0
  -26.0750  -29.4100   20.6910 C   0  0  0  0  0  0  0  0  0  0  0  0
  -27.2540  -28.5810   20.6930 C   0  0  0  0  0  3  0  0  0  0  0  0
  -26.0660  -26.8590   19.4850 C   0  0  0  0  0  3  0  0  0  0  0  0
  -24.9160  -27.6830   19.4500 C   0  0  0  0  0  3  0  0  0  0  0  0
  -23.6750  -29.8330   20.0980 C   0  0  0  0  0  2  0  0  0  0  0  0
  -24.6890  -31.0860   22.0480 N   0  0  0  0  0  0  0  0  0  0  0  0
  -23.5020  -32.1630   23.6670 O   0  0  0  0  0  0  0  0  0  0  0  0
  -22.7480  -29.4830   22.4230 C   0  0  0  0  0  0  0  0  0  0  0  0
  -21.4230  -29.3100   22.2830 N   0  0  0  0  0  0  0  0  0  0  0  0
  -23.4160  -28.8470   23.2420 O   0  0  0  0  0  0  0  0  0  0  0  0
  -20.9420  -29.8750   21.5970 H   0  0  0  0  0  0  0  0  0  0  0  0
  -18.0370  -28.1170   22.7570 C   0  0  0  0  0  0  0  0  0  0  0  0
  -20.5960  -28.3620   23.0340 C   0  0  0  0  0  3  0  0  0  0  0  0
  -20.6930  -26.9410   22.4310 C   0  0  0  0  0  2  0  0  0  0  0  0
  -19.5910  -26.6440   21.4080 C   0  0  0  0  0  2  0  0  0  0  0  0
  -18.2090  -26.7810   22.0530 C   0  0  0  0  0  2  0  0  0  0  0  0
  -19.1580  -28.8660   23.2040 C   0  0  0  0  0  0  0  0  0  0  0  0
  -18.9430  -30.1160   23.8240 C   0  0  0  0  0  3  0  0  0  0  0  0
  -17.6400  -30.6180   23.9990 C   0  0  0  0  0  3  0  0  0  0  0  0
  -16.5340  -29.8670   23.5660 C   0  0  0  0  0  3  0  0  0  0  0  0
  -16.7330  -28.6180   22.9530 C   0  0  0  0  0  3  0  0  0  0  0  0
  -25.8620  -32.5310   23.8030 C   0  0  0  0  0  3  0  0  0  0  0  0
  -26.3510  -31.7600   25.0920 C   0  0  1  0  0  0  0  0  0  0  0  0
  -25.2360  -31.5200   26.1350 C   0  0  0  0  0  1  0  0  0  0  0  0
  -26.9450  -30.3830   24.7150 C   0  0  0  0  0  1  0  0  0  0  0  0
  -27.4850  -32.5560   25.7810 C   0  0  0  0  0  1  0  0  0  0  0  0
  -25.5400  -33.9270   24.1340 N   0  0  0  0  0  0  0  0  0  0  0  0
  -25.8880  -34.9880   23.3930 C   0  0  0  0  0  0  0  0  0  0  0  0
  -26.5830  -34.8940   22.3780 O   0  0  0  0  0  0  0  0  0  0  0  0
  -24.9250  -34.0760   24.9210 H   0  0  0  0  0  0  0  0  0  0  0  0
  -24.1720  -36.7860   23.0150 C   0  0  0  0  0  1  0  0  0  0  0  0
  -25.3920  -36.3730   23.8530 C   0  0  0  0  0  3  0  0  0  0  0  0
  -27.5030  -37.2500   24.7490 C   0  0  0  0  0  1  0  0  0  0  0  0
  -26.4280  -37.4260   23.7760 N   0  0  0  0  0  0  0  0  0  0  0  0
  -26.0190  -38.3450   23.9200 H   0  0  0  0  0  0  0  0  0  0  0  0
  1  2  1  0
  3  4  1  0
  3  6  1  0
  4 10  1  0
  4  1  1  0
  5  2  1  0
  5 51  1  0
  6 55  1  0
  6  5  1  0
  7 10  1  0
  8 11  1  0
  8  7  2  0
 10  9  2  0
 11 12  2  0
 12  9  1  0
 12 14  1  0
 13 11  1  0
 15 14  1  0
 16 21  1  0
 17 18  1  0
 17 16  1  0
 19 18  1  0
 19 26  1  0
 19 20  1  0
 21 15  1  0
 21 20  1  0
 22 15  2  0
 23 24  2  0
 24 43  1  0
 25 24  1  0
 25 28  1  0
 26 23  1  0
 26 27  1  0
 27 25  2  0
 28 29  1  0
 29 30  2  0
 31 34  1  0
 31 30  1  0
 32 31  2  0
 33 32  1  0
 33 28  2  0
 34 35  1  0
 35 36  1  0
 36 37  2  0
 38 37  1  0
 38 42  1  0
 39 38  2  0
 40 35  2  0
 40 39  1  0
 41 40  1  0
 43 44  1  0
 44 47  1  0
 44 46  1  0
 45 43  2  0
 48 49  1  0
 48 23  1  0
 50 48  1  0
 51 53  1  0
 51 54  1  0
 52 51  1  0
 56 67  2  0
 57 55  1  0
 57 62  1  0
 58 66  1  0
 58 68  1  0
 59 65  1  0
 59 61  1  0
 60 66  1  0
 61 62  2  0
 61 60  1  0
 63 57  2  0
 64 63  1  0
 64 59  2  0
 65 58  1  0
 66 56  1  0
 68 70  2  0
 69 68  1  0
 71 69  1  0
 72 81  2  0
 72 77  1  0
 73 69  1  0
 73 77  1  0
 74 73  1  0
 75 76  1  0
 75 74  1  0
 76 72  1  0
 77 78  2  0
 78 79  1  0
 80 79  2  0
 81 80  1  0
 82 56  1  0
 82 87  1  0
 82 83  1  0
 83 86  1  1
 83 84  1  0
 85 83  1  0
 87 90  1  0
 88 92  1  0
 88 87  1  0
 89 88  2  0
 92 91  1  0
 94 92  1  0
 94 95  1  0
 94 93  1  0
M  ISO  4   6 101  14 100  15 100  55 101
M  END
>  <TORSDO>  (13) 
F 19

>  <SCORE>  (13) 
-13.931

>  <name>  (13) 
12

>  <ligand_id>  (13) 
12

>  <original_smiles>  (13) 
[H]c1c([H])c([H])c2c(c1[H])C([H])([H])C([H])([H])C([H])([H])C2([H])N([H])C(=O)C1([H])N(C(=O)C([H])(N([H])C(=O)C([H])(N([H])C([H])([H])[H])C([H])([H])[H])C(C([H])([H])[H])(C([H])([H])[H])C([H])([H])[H])C([H])([H])c2c([H])c(OC3([H])C([H])([H])C([H])(c4c([H])c([H])c(C([H])([H])[H])c(C([H])([H])C(=O)N5C([H])([H])C([H])([H])C([H])([H])C([H])(n6nc(-c7c([H])c([H])c(Oc8c([H])c([H])c(F)c([H])c8F)c([H])c7[H])c(C(=O)N([H])[H])c6N([H])[H])C5([H])[H])c4[H])C([H])([H])C([H])([H])C3([H])[N+]([H])([H])[H])c([H])c([H])c2C1([H])[H]

>  <smiles>  (13) 
[H]c1c([H])c([H])c2c(c1[H])C([H])([H])C([H])([H])C([H])([H])C2([H])N([H])C(=O)C1([H])N(C(=O)C([H])(N([H])C(=O)C([H])(N([H])C([H])([H])[H])C([H])([H])[H])C(C([H])([H])[H])(C([H])([H])[H])C([H])([H])[H])C([H])([H])c2c([H])c(OC3([H])C([H])([H])C([H])(c4c([H])c([H])c(C([H])([H])[H])c(C([H])([H])C(=O)N5C([H])([H])C([H])([H])C([H])([H])C([H])(n6nc(-c7c([H])c([H])c(Oc8c([H])c([H])c(F)c([H])c8F)c([H])c7[H])c(C(=O)N([H])[H])c6N([H])[H])C5([H])[H])c4[H])C([H])([H])C([H])([H])C3([H])[N+]([H])([H])[H])c([H])c([H])c2C1([H])[H]

$$$$
13:0:0
     RDKit          3D

 85 91  0  0  1  0  0  0  0  0999 V2000
  -27.8240  -19.6400   20.1650 C   0  0  0  0  0  3  0  0  0  0  0  0
  -29.2020  -19.2860   20.0710 C   0  0  0  0  0  3  0  0  0  0  0  0
  -29.3930  -21.1940   20.0680 C   0  0  0  0  0  0  0  0  0  0  0  0
  -28.4590  -22.6610   20.1320 C   0  0  0  0  0  3  0  0  0  0  0  0
  -27.0870  -21.4500   20.2160 S   0  0  0  0  0  0  0  0  0  0  0  0
  -29.9950  -17.1080   19.9980 C   0  0  0  0  0  2  0  0  0  0  0  0
  -30.4540  -14.2600   19.2800 C   0  0  0  0  0  2  0  0  0  0  0  0
  -29.7240  -13.3240   18.2090 C   0  0  0  0  0  2  0  0  0  0  0  0
  -28.4440  -12.6830   18.7460 C   0  0  0  0  0  2  0  0  0  0  0  0
  -27.7610  -13.7120   19.6510 C   0  0  0  0  0  3  0  0  0  0  0  0
  -28.6900  -14.5230   20.6470 C   0  0  0  0  0  2  0  0  0  0  0  0
  -29.6420  -15.5150   19.9300 N   0  0  0  0  0  0  0  0  0  0  0  0
  -31.2410  -16.8320   19.8780 O   0  0  0  0  0  1  0  0  0  0  0  0
  -25.4350  -14.0620   20.5360 C   0  0  0  0  0  0  0  0  0  0  0  0
  -24.4120  -13.2410   20.9080 C   0  0  0  0  0  0  0  0  0  0  0  0
  -24.9120  -11.9050   20.8030 C   0  0  0  0  0  0  0  0  0  0  0  0
  -26.5000  -13.2440   20.2300 N   0  0  0  0  0  0  0  0  0  0  0  0
  -26.2000  -11.9260   20.4370 N   0  0  0  0  0  0  0  0  0  0  0  0
  -24.1980  -10.6240   20.9740 C   0  0  0  0  0  0  0  0  0  0  0  0
  -24.6140   -9.6590   21.9180 C   0  0  0  0  0  3  0  0  0  0  0  0
  -23.8890   -8.4580   22.0870 C   0  0  0  0  0  3  0  0  0  0  0  0
  -22.7300   -8.2090   21.3130 C   0  0  0  0  0  0  0  0  0  0  0  0
  -22.3300   -9.1630   20.3610 C   0  0  0  0  0  3  0  0  0  0  0  0
  -23.0560  -10.3550   20.1900 C   0  0  0  0  0  3  0  0  0  0  0  0
  -21.9810   -7.0580   21.3880 O   0  0  0  0  0  0  0  0  0  0  0  0
  -21.8480   -6.3580   22.5620 C   0  0  0  0  0  0  0  0  0  0  0  0
  -21.2310   -6.9220   23.7000 C   0  0  0  0  0  3  0  0  0  0  0  0
  -21.0530   -6.1460   24.8620 C   0  0  0  0  0  3  0  0  0  0  0  0
  -21.4800   -4.8050   24.8870 C   0  0  0  0  0  0  0  0  0  0  0  0
  -22.0880   -4.2390   23.7530 C   0  0  0  0  0  3  0  0  0  0  0  0
  -22.2680   -5.0130   22.5930 C   0  0  0  0  0  0  0  0  0  0  0  0
  -22.8350   -4.4540   21.4960 F   0  0  0  0  0  0  0  0  0  0  0  0
  -21.3020   -4.0560   26.0020 F   0  0  0  0  0  0  0  0  0  0  0  0
  -23.0190  -13.6860   21.2370 C   0  0  0  0  0  0  0  0  0  0  0  0
  -22.3370  -12.9670   22.1200 N   0  0  0  0  0  0  0  0  0  0  0  0
  -22.5480  -14.7130   20.7490 O   0  0  0  0  0  0  0  0  0  0  0  0
  -22.7340  -12.1370   22.5370 H   0  0  0  0  0  0  0  0  0  0  0  0
  -21.4040  -13.2500   22.3840 H   0  0  0  0  0  0  0  0  0  0  0  0
  -25.5450  -15.4430   20.3920 N   0  0  0  0  0  0  0  0  0  0  0  0
  -24.7550  -16.0620   20.5380 H   0  0  0  0  0  0  0  0  0  0  0  0
  -26.3610  -15.9150   20.0300 H   0  0  0  0  0  0  0  0  0  0  0  0
  -30.7550  -21.5020   19.9850 N   0  0  0  0  0  0  0  0  0  0  0  0
  -31.0320  -22.4320   20.2850 H   0  0  0  0  0  0  0  0  0  0  0  0
  -31.4110  -20.7860   20.2810 H   0  0  0  0  0  0  0  0  0  0  0  0
  -28.2800  -24.5300   20.1670 O   0  0  0  0  0  1  0  0  0  0  0  0
  -24.7870  -31.8400   23.1140 C   0  0  0  0  0  0  0  0  0  0  0  0
  -27.3520  -26.0850   20.1970 C   0  0  0  0  0  0  0  0  0  0  0  0
  -23.6600  -30.4190   21.4650 C   0  0  0  0  0  3  0  0  0  0  0  0
  -25.1390  -28.6140   20.1180 C   0  0  0  0  0  0  0  0  0  0  0  0
  -26.2630  -30.3370   21.4750 C   0  0  0  0  0  2  0  0  0  0  0  0
  -26.3340  -28.8170   20.8150 C   0  0  0  0  0  0  0  0  0  0  0  0
  -27.3760  -27.6130   20.8030 C   0  0  0  0  0  3  0  0  0  0  0  0
  -26.1210  -26.3110   19.4360 C   0  0  0  0  0  3  0  0  0  0  0  0
  -25.1200  -27.3910   19.4030 C   0  0  0  0  0  3  0  0  0  0  0  0
  -23.9620  -29.6570   20.1260 C   0  0  0  0  0  2  0  0  0  0  0  0
  -24.9370  -30.9190   22.0710 N   0  0  0  0  0  0  0  0  0  0  0  0
  -23.6700  -32.1670   23.5650 O   0  0  0  0  0  0  0  0  0  0  0  0
  -22.8570  -29.5110   22.4450 C   0  0  0  0  0  0  0  0  0  0  0  0
  -21.5190  -29.3980   22.3050 N   0  0  0  0  0  0  0  0  0  0  0  0
  -23.4680  -28.8950   23.3190 O   0  0  0  0  0  0  0  0  0  0  0  0
  -21.0630  -29.9450   21.5860 H   0  0  0  0  0  0  0  0  0  0  0  0
  -18.0980  -28.2330   22.8480 C   0  0  0  0  0  0  0  0  0  0  0  0
  -20.6700  -28.4650   23.0660 C   0  0  0  0  0  3  0  0  0  0  0  0
  -20.7340  -27.0430   22.4590 C   0  0  0  0  0  2  0  0  0  0  0  0
  -19.6150  -26.7680   21.4500 C   0  0  0  0  0  2  0  0  0  0  0  0
  -18.2460  -26.9090   22.1190 C   0  0  0  0  0  2  0  0  0  0  0  0
  -19.2350  -28.9730   23.2770 C   0  0  0  0  0  0  0  0  0  0  0  0
  -19.0350  -30.2080   23.9300 C   0  0  0  0  0  3  0  0  0  0  0  0
  -17.7370  -30.7060   24.1520 C   0  0  0  0  0  3  0  0  0  0  0  0
  -16.6180  -29.9670   23.7320 C   0  0  0  0  0  3  0  0  0  0  0  0
  -16.8000  -28.7310   23.0870 C   0  0  0  0  0  3  0  0  0  0  0  0
  -25.9980  -32.5420   23.8110 C   0  0  0  0  0  3  0  0  0  0  0  0
  -25.6390  -33.9480   24.1290 N   0  0  0  0  0  0  0  0  0  0  0  0
  -25.9780  -35.0330   23.4150 C   0  0  0  0  0  0  0  0  0  0  0  0
  -26.6600  -34.9550   22.3920 O   0  0  0  0  0  0  0  0  0  0  0  0
  -25.0260  -34.0800   24.9210 H   0  0  0  0  0  0  0  0  0  0  0  0
  -24.2480  -36.8500   23.1090 C   0  0  0  0  0  1  0  0  0  0  0  0
  -25.4930  -36.4210   23.9020 C   0  0  0  0  0  3  0  0  0  0  0  0
  -27.6140  -37.3290   24.7580 C   0  0  0  0  0  1  0  0  0  0  0  0
  -26.5230  -37.4810   23.7990 N   0  0  0  0  0  0  0  0  0  0  0  0
  -26.1100  -38.4000   23.9330 H   0  0  0  0  0  0  0  0  0  0  0  0
  -26.4390  -31.8190   25.1460 C   0  0  1  0  0  0  0  0  0  0  0  0
  -25.2860  -31.6100   26.1570 C   0  0  0  0  0  1  0  0  0  0  0  0
  -27.0500  -30.4340   24.8580 C   0  0  0  0  0  1  0  0  0  0  0  0
  -27.5470  -32.6410   25.8480 C   0  0  0  0  0  1  0  0  0  0  0  0
  1  5  1  0
  2  1  2  0
  3  2  1  0
  3  4  2  0
  4  5  1  0
  7 12  1  0
  8  9  1  0
  8  7  1  0
 10  9  1  0
 10 17  1  0
 10 11  1  0
 12  6  1  0
 12 11  1  0
 13  6  1  0
 14 15  2  0
 15 34  1  0
 16 15  1  0
 16 19  1  0
 17 18  1  0
 17 14  1  0
 18 16  2  0
 19 20  1  0
 20 21  2  0
 22 25  1  0
 22 21  1  0
 23 22  2  0
 24 23  1  0
 24 19  2  0
 25 26  1  0
 26 31  2  0
 26 27  1  0
 27 28  2  0
 28 29  1  0
 29 33  1  0
 30 29  2  0
 31 30  1  0
 32 31  1  0
 34 35  1  0
 35 38  1  0
 35 37  1  0
 36 34  2  0
 39 14  1  0
 39 40  1  0
 41 39  1  0
 42  3  1  0
 42 44  1  0
 42 43  1  0
 45 47  1  0
 46 57  2  0
 47 52  1  0
 48 56  1  0
 48 58  1  0
 49 55  1  0
 49 51  1  0
 50 56  1  0
 51 50  1  0
 52 51  2  0
 53 47  2  0
 54 53  1  0
 54 49  2  0
 55 48  1  0
 56 46  1  0
 58 60  2  0
 59 58  1  0
 61 59  1  0
 62 71  2  0
 62 67  1  0
 63 59  1  0
 63 67  1  0
 64 63  1  0
 65 66  1  0
 65 64  1  0
 66 62  1  0
 67 68  2  0
 68 69  1  0
 70 69  2  0
 71 70  1  0
 72 46  1  0
 72 73  1  0
 72 82  1  0
 73 76  1  0
 74 78  1  0
 74 73  1  0
 75 74  2  0
 78 77  1  0
 80 78  1  0
 80 81  1  0
 80 79  1  0
 82 85  1  1
 82 83  1  0
 84 82  1  0
M  ISO  4   2 100   4 101   6 100  45 101
M  END
>  <TORSDO>  (14) 
F 17

>  <SCORE>  (14) 
-15.463

>  <name>  (14) 
13

>  <ligand_id>  (14) 
13

>  <original_smiles>  (14) 
[H]c1sc(Oc2c([H])c([H])c3c(c2[H])C([H])([H])N(C(=O)C([H])(N([H])C(=O)C([H])(N([H])C([H])([H])[H])C([H])([H])[H])C(C([H])([H])[H])(C([H])([H])[H])C([H])([H])[H])C([H])(C(=O)N([H])C2([H])c4c([H])c([H])c([H])c([H])c4C([H])([H])C([H])([H])C2([H])[H])C3([H])[H])c(N([H])[H])c1C(=O)N1C([H])([H])C([H])([H])C([H])([H])C([H])(n2nc(-c3c([H])c([H])c(Oc4c([H])c([H])c(F)c([H])c4F)c([H])c3[H])c(C(=O)N([H])[H])c2N([H])[H])C1([H])[H]

>  <smiles>  (14) 
[H]c1sc(Oc2c([H])c([H])c3c(c2[H])C([H])([H])N(C(=O)C([H])(N([H])C(=O)C([H])(N([H])C([H])([H])[H])C([H])([H])[H])C(C([H])([H])[H])(C([H])([H])[H])C([H])([H])[H])C([H])(C(=O)N([H])C2([H])c4c([H])c([H])c([H])c([H])c4C([H])([H])C([H])([H])C2([H])[H])C3([H])[H])c(N([H])[H])c1C(=O)N1C([H])([H])C([H])([H])C([H])([H])C([H])(n2nc(-c3c([H])c([H])c(Oc4c([H])c([H])c(F)c([H])c4F)c([H])c3[H])c(C(=O)N([H])[H])c2N([H])[H])C1([H])[H]

$$$$
14:0:0
     RDKit          3D

 91100  0  0  1  0  0  0  0  0999 V2000
  -28.1440  -22.0310   19.2360 C   0  0  0  0  0  3  0  0  0  0  0  0
  -27.9300  -23.4980   19.2240 C   0  0  0  0  0  3  0  0  0  0  0  0
  -29.0400  -22.1470   21.3670 C   0  0  0  0  0  0  0  0  0  0  0  0
  -28.8330  -23.6380   21.3470 C   0  0  0  0  0  0  0  0  0  0  0  0
  -28.7200  -21.2080   20.2940 C   0  0  0  0  0  0  0  0  0  0  0  0
  -28.2300  -24.4450   20.2820 C   0  0  0  0  0  0  0  0  0  0  0  0
  -29.6450  -21.4860   22.6040 C   0  0  0  0  0  2  0  0  0  0  0  0
  -29.2700  -24.4690   22.5520 C   0  0  0  0  0  2  0  0  0  0  0  0
  -29.6810  -22.3650   23.8560 C   0  0  0  0  0  2  0  0  0  0  0  0
  -30.2120  -23.7540   23.5250 C   0  0  0  0  0  2  0  0  0  0  0  0
  -28.2020  -25.9750   20.2410 O   0  0  0  0  0  0  0  0  0  0  0  0
  -24.6180  -31.8930   23.1900 C   0  0  0  0  0  0  0  0  0  0  0  0
  -27.1350  -26.9990   20.2230 C   0  0  0  0  0  0  0  0  0  0  0  0
  -23.4050  -30.4830   21.5760 C   0  0  0  0  0  3  0  0  0  0  0  0
  -24.8340  -28.8520   20.1670 C   0  0  0  0  0  0  0  0  0  0  0  0
  -25.9660  -30.6900   21.4060 C   0  0  0  0  0  2  0  0  0  0  0  0
  -26.0240  -29.2730   20.7740 C   0  0  0  0  0  0  0  0  0  0  0  0
  -27.1670  -28.3640   20.7790 C   0  0  0  0  0  3  0  0  0  0  0  0
  -25.9180  -26.7130   19.5680 C   0  0  0  0  0  3  0  0  0  0  0  0
  -24.8020  -27.5910   19.5470 C   0  0  0  0  0  3  0  0  0  0  0  0
  -23.6190  -29.7780   20.2080 C   0  0  0  0  0  2  0  0  0  0  0  0
  -24.6850  -31.0490   22.1100 N   0  0  0  0  0  0  0  0  0  0  0  0
  -23.5360  -32.1950   23.7170 O   0  0  0  0  0  0  0  0  0  0  0  0
  -22.7160  -29.5010   22.5590 C   0  0  0  0  0  0  0  0  0  0  0  0
  -21.3840  -29.3420   22.4440 N   0  0  0  0  0  0  0  0  0  0  0  0
  -23.3840  -28.8840   23.3920 O   0  0  0  0  0  0  0  0  0  0  0  0
  -20.8990  -29.8890   21.7490 H   0  0  0  0  0  0  0  0  0  0  0  0
  -18.0020  -28.1500   22.9820 C   0  0  0  0  0  0  0  0  0  0  0  0
  -20.5620  -28.4180   23.2330 C   0  0  0  0  0  3  0  0  0  0  0  0
  -20.6600  -26.9770   22.6810 C   0  0  0  0  0  2  0  0  0  0  0  0
  -19.5540  -26.6400   21.6750 C   0  0  0  0  0  2  0  0  0  0  0  0
  -18.1750  -26.7930   22.3220 C   0  0  0  0  0  2  0  0  0  0  0  0
  -19.1210  -28.9200   23.3950 C   0  0  0  0  0  0  0  0  0  0  0  0
  -18.9030  -30.1880   23.9750 C   0  0  0  0  0  3  0  0  0  0  0  0
  -17.5980  -30.6890   24.1430 C   0  0  0  0  0  3  0  0  0  0  0  0
  -16.4920  -29.9170   23.7450 C   0  0  0  0  0  3  0  0  0  0  0  0
  -16.6950  -28.6500   23.1700 C   0  0  0  0  0  3  0  0  0  0  0  0
  -25.9000  -32.5350   23.8050 C   0  0  0  0  0  3  0  0  0  0  0  0
  -25.5870  -33.9360   24.1400 N   0  0  0  0  0  0  0  0  0  0  0  0
  -25.9170  -34.9960   23.3900 C   0  0  0  0  0  0  0  0  0  0  0  0
  -26.5790  -34.8980   22.3530 O   0  0  0  0  0  0  0  0  0  0  0  0
  -24.9970  -34.0850   24.9450 H   0  0  0  0  0  0  0  0  0  0  0  0
  -24.1980  -36.8070   23.0610 C   0  0  0  0  0  1  0  0  0  0  0  0
  -25.4400  -36.3850   23.8620 C   0  0  0  0  0  3  0  0  0  0  0  0
  -27.5810  -37.2570   24.6940 C   0  0  0  0  0  1  0  0  0  0  0  0
  -26.4780  -37.4350   23.7540 N   0  0  0  0  0  0  0  0  0  0  0  0
  -26.0760  -38.3560   23.9060 H   0  0  0  0  0  0  0  0  0  0  0  0
  -26.4190  -31.7740   25.0870 C   0  0  1  0  0  0  0  0  0  0  0  0
  -25.3300  -31.5470   26.1630 C   0  0  0  0  0  1  0  0  0  0  0  0
  -26.9990  -30.3910   24.7120 C   0  0  0  0  0  1  0  0  0  0  0  0
  -27.5740  -32.5720   25.7380 C   0  0  0  0  0  1  0  0  0  0  0  0
  -28.6950  -19.4610   20.3270 C   0  0  0  0  0  3  0  0  0  0  0  0
  -29.8580  -18.1180   20.3190 C   0  0  0  0  0  3  0  0  0  0  0  0
  -30.3750  -15.2340   20.2530 C   0  0  0  0  0  0  0  0  0  0  0  0
  -30.3360  -12.8110   19.3520 C   0  0  0  0  0  2  0  0  0  0  0  0
  -29.3900  -12.6370   18.1400 C   0  0  0  0  0  2  0  0  0  0  0  0
  -27.9480  -12.3660   18.6080 C   0  0  0  0  0  2  0  0  0  0  0  0
  -27.5230  -13.3110   19.7590 C   0  0  0  0  0  3  0  0  0  0  0  0
  -28.5950  -13.4330   20.8620 C   0  0  0  0  0  2  0  0  0  0  0  0
  -29.8140  -13.9330   20.2090 N   0  0  0  0  0  0  0  0  0  0  0  0
  -31.5850  -15.2600   19.9910 O   0  0  0  0  0  0  0  0  0  0  0  0
  -29.5970  -16.4800   20.3860 N   0  0  0  0  0  0  0  0  0  0  0  0
  -28.6240  -16.2660   20.5530 H   0  0  0  0  0  0  0  0  0  0  0  0
  -25.1670  -13.8510   20.5710 C   0  0  0  0  0  0  0  0  0  0  0  0
  -24.1170  -13.0630   20.9550 C   0  0  0  0  0  0  0  0  0  0  0  0
  -24.5910  -11.7170   20.8960 C   0  0  0  0  0  0  0  0  0  0  0  0
  -26.2080  -12.9840   20.2920 N   0  0  0  0  0  0  0  0  0  0  0  0
  -25.8760  -11.6940   20.5560 N   0  0  0  0  0  0  0  0  0  0  0  0
  -23.8750  -10.4470   21.0850 C   0  0  0  0  0  0  0  0  0  0  0  0
  -24.3310   -9.4690   21.9950 C   0  0  0  0  0  3  0  0  0  0  0  0
  -23.6120   -8.2670   22.1740 C   0  0  0  0  0  3  0  0  0  0  0  0
  -22.4220   -8.0360   21.4420 C   0  0  0  0  0  0  0  0  0  0  0  0
  -21.9850   -9.0040   20.5210 C   0  0  0  0  0  3  0  0  0  0  0  0
  -22.7050  -10.1960   20.3400 C   0  0  0  0  0  3  0  0  0  0  0  0
  -21.6730   -6.8870   21.5310 O   0  0  0  0  0  0  0  0  0  0  0  0
  -21.6500   -6.1310   22.6750 C   0  0  0  0  0  0  0  0  0  0  0  0
  -21.2350   -6.6650   23.9140 C   0  0  0  0  0  3  0  0  0  0  0  0
  -21.1590   -5.8340   25.0500 C   0  0  0  0  0  3  0  0  0  0  0  0
  -21.4890   -4.4700   24.9470 C   0  0  0  0  0  0  0  0  0  0  0  0
  -21.8970   -3.9340   23.7140 C   0  0  0  0  0  3  0  0  0  0  0  0
  -21.9740   -4.7620   22.5800 C   0  0  0  0  0  0  0  0  0  0  0  0
  -22.3480   -4.2370   21.3880 F   0  0  0  0  0  0  0  0  0  0  0  0
  -21.4100   -3.6690   26.0370 F   0  0  0  0  0  0  0  0  0  0  0  0
  -22.7230  -13.5290   21.2570 C   0  0  0  0  0  0  0  0  0  0  0  0
  -22.0170  -12.8230   22.1310 N   0  0  0  0  0  0  0  0  0  0  0  0
  -22.2710  -14.5570   20.7530 O   0  0  0  0  0  0  0  0  0  0  0  0
  -22.3980  -11.9920   22.5610 H   0  0  0  0  0  0  0  0  0  0  0  0
  -21.0830  -13.1170   22.3770 H   0  0  0  0  0  0  0  0  0  0  0  0
  -25.3140  -15.2250   20.4060 N   0  0  0  0  0  0  0  0  0  0  0  0
  -24.5400  -15.8660   20.5350 H   0  0  0  0  0  0  0  0  0  0  0  0
  -26.1350  -15.6710   20.0160 H   0  0  0  0  0  0  0  0  0  0  0  0
  1  5  1  0
  2  1  2  0
  2  6  1  0
  3  7  1  0
  4  3  1  0
  4  8  1  0
  5 52  1  0
  5  3  2  0
  6  4  2  0
  7  9  1  0
  8 10  1  0
 10  9  1  0
 11  6  1  0
 12 23  2  0
 13 11  1  0
 13 18  1  0
 14 22  1  0
 14 24  1  0
 15 21  1  0
 15 17  1  0
 16 22  1  0
 17 18  2  0
 17 16  1  0
 19 13  2  0
 20 19  1  0
 20 15  2  0
 21 14  1  0
 22 12  1  0
 24 26  2  0
 25 24  1  0
 27 25  1  0
 28 37  2  0
 28 33  1  0
 29 25  1  0
 29 33  1  0
 30 29  1  0
 31 32  1  0
 31 30  1  0
 32 28  1  0
 33 34  2  0
 34 35  1  0
 36 35  2  0
 37 36  1  0
 38 12  1  0
 38 39  1  0
 38 48  1  0
 39 42  1  0
 40 44  1  0
 40 39  1  0
 41 40  2  0
 44 43  1  0
 46 44  1  0
 46 47  1  0
 46 45  1  0
 48 51  1  1
 48 49  1  0
 50 48  1  0
 53 52  2  0
 53 62  1  0
 54 62  1  0
 55 60  1  0
 56 57  1  0
 56 55  1  0
 58 57  1  0
 58 67  1  0
 58 59  1  0
 60 54  1  0
 60 59  1  0
 61 54  2  0
 62 63  1  0
 64 65  2  0
 65 84  1  0
 66 65  1  0
 66 69  1  0
 67 68  1  0
 67 64  1  0
 68 66  2  0
 69 70  1  0
 70 71  2  0
 72 75  1  0
 72 71  1  0
 73 72  2  0
 74 73  1  0
 74 69  2  0
 75 76  1  0
 76 77  1  0
 77 78  2  0
 79 78  1  0
 79 83  1  0
 80 79  2  0
 81 76  2  0
 81 80  1  0
 82 81  1  0
 84 85  1  0
 85 88  1  0
 85 87  1  0
 86 84  2  0
 89 90  1  0
 89 64  1  0
 91 89  1  0
M  ISO  4   6 101  11 101  54 100  62 100
M  END
>  <TORSDO>  (15) 
F 18

>  <SCORE>  (15) 
-15.501

>  <name>  (15) 
14

>  <ligand_id>  (15) 
14

>  <original_smiles>  (15) 
[H]c1c([H])c([H])c2c(c1[H])C([H])([H])C([H])([H])C([H])([H])C2([H])N([H])C(=O)C1([H])N(C(=O)C([H])(N([H])C(=O)C([H])(N([H])C([H])([H])[H])C([H])([H])[H])C(C([H])([H])[H])(C([H])([H])[H])C([H])([H])[H])C([H])([H])c2c([H])c(Oc3c([H])c([H])c(C([H])([H])C([H])([H])N([H])C(=O)N4C([H])([H])C([H])([H])C([H])([H])C([H])(n5nc(-c6c([H])c([H])c(Oc7c([H])c([H])c(F)c([H])c7F)c([H])c6[H])c(C(=O)N([H])[H])c5N([H])[H])C4([H])[H])c4c3C([H])([H])C([H])([H])C([H])([H])C4([H])[H])c([H])c([H])c2C1([H])[H]

>  <smiles>  (15) 
[H]c1c([H])c([H])c2c(c1[H])C([H])([H])C([H])([H])C([H])([H])C2([H])N([H])C(=O)C1([H])N(C(=O)C([H])(N([H])C(=O)C([H])(N([H])C([H])([H])[H])C([H])([H])[H])C(C([H])([H])[H])(C([H])([H])[H])C([H])([H])[H])C([H])([H])c2c([H])c(Oc3c([H])c([H])c(C([H])([H])C([H])([H])N([H])C(=O)N4C([H])([H])C([H])([H])C([H])([H])C([H])(n5nc(-c6c([H])c([H])c(Oc7c([H])c([H])c(F)c([H])c7F)c([H])c6[H])c(C(=O)N([H])[H])c5N([H])[H])C4([H])[H])c4c3C([H])([H])C([H])([H])C([H])([H])C4([H])[H])c([H])c([H])c2C1([H])[H]

$$$$
15:0:0
     RDKit          3D

 89 97  0  0  1  0  0  0  0  0999 V2000
  -28.0720  -22.3630   19.3060 C   0  0  0  0  0  2  0  0  0  0  0  0
  -29.7050  -22.7670   21.1270 C   0  0  0  0  0  2  0  0  0  0  0  0
  -28.2700  -23.9410   19.0870 C   0  0  0  0  0  2  0  0  0  0  0  0
  -29.0100  -24.1740   21.4410 C   0  0  0  0  0  2  0  0  0  0  0  0
  -28.8390  -21.6200   20.4830 C   0  0  0  0  0  3  0  0  0  0  0  0
  -28.0950  -24.8550   20.3500 C   0  0  0  0  0  3  0  0  0  0  0  0
  -29.6530  -20.2670   20.0780 C   0  0  0  0  0  0  0  0  0  0  0  0
  -29.4220  -18.9840   20.5820 N   0  0  0  0  0  0  0  0  0  0  0  0
  -30.5560  -20.4060   19.2520 O   0  0  0  0  0  0  0  0  0  0  0  0
  -28.6730  -18.9040   21.2570 H   0  0  0  0  0  0  0  0  0  0  0  0
  -30.1940  -17.6760   20.2560 C   0  0  0  0  0  3  0  0  0  0  0  0
  -29.7540  -16.2020   20.8330 C   0  0  0  0  0  3  0  0  0  0  0  0
  -30.5480  -14.8380   20.4340 C   0  0  0  0  0  0  0  0  0  0  0  0
  -30.3800  -12.5470   19.4090 C   0  0  0  0  0  2  0  0  0  0  0  0
  -29.4470  -12.6220   18.1780 C   0  0  0  0  0  2  0  0  0  0  0  0
  -27.9730  -12.4480   18.5950 C   0  0  0  0  0  2  0  0  0  0  0  0
  -27.5930  -13.3280   19.8140 C   0  0  0  0  0  3  0  0  0  0  0  0
  -28.6450  -13.2370   20.9400 C   0  0  0  0  0  2  0  0  0  0  0  0
  -29.9480  -13.5940   20.3680 N   0  0  0  0  0  0  0  0  0  0  0  0
  -31.7240  -14.9340   20.0690 O   0  0  0  0  0  0  0  0  0  0  0  0
  -25.2050  -13.9280   20.5310 C   0  0  0  0  0  0  0  0  0  0  0  0
  -24.1350  -13.1590   20.8950 C   0  0  0  0  0  0  0  0  0  0  0  0
  -24.5930  -11.8050   20.8710 C   0  0  0  0  0  0  0  0  0  0  0  0
  -26.2470  -13.0440   20.2990 N   0  0  0  0  0  0  0  0  0  0  0  0
  -25.8860  -11.7630   20.5680 N   0  0  0  0  0  0  0  0  0  0  0  0
  -23.8610  -10.5460   21.0580 C   0  0  0  0  0  0  0  0  0  0  0  0
  -24.2870   -9.5740   21.9890 C   0  0  0  0  0  3  0  0  0  0  0  0
  -23.5550   -8.3810   22.1650 C   0  0  0  0  0  3  0  0  0  0  0  0
  -22.3810   -8.1510   21.4090 C   0  0  0  0  0  0  0  0  0  0  0  0
  -21.9710   -9.1120   20.4680 C   0  0  0  0  0  3  0  0  0  0  0  0
  -22.7060  -10.2970   20.2910 C   0  0  0  0  0  3  0  0  0  0  0  0
  -21.6190   -7.0110   21.4950 O   0  0  0  0  0  0  0  0  0  0  0  0
  -21.5690   -6.2620   22.6440 C   0  0  0  0  0  0  0  0  0  0  0  0
  -21.1530   -6.8140   23.8750 C   0  0  0  0  0  3  0  0  0  0  0  0
  -21.0500   -5.9930   25.0160 C   0  0  0  0  0  3  0  0  0  0  0  0
  -21.3520   -4.6220   24.9270 C   0  0  0  0  0  0  0  0  0  0  0  0
  -21.7630   -4.0690   23.7010 C   0  0  0  0  0  3  0  0  0  0  0  0
  -21.8680   -4.8870   22.5620 C   0  0  0  0  0  0  0  0  0  0  0  0
  -22.2430   -4.3450   21.3780 F   0  0  0  0  0  0  0  0  0  0  0  0
  -21.2460   -3.8310   26.0200 F   0  0  0  0  0  0  0  0  0  0  0  0
  -22.7370  -13.6410   21.1550 C   0  0  0  0  0  0  0  0  0  0  0  0
  -21.9990  -12.9510   22.0170 N   0  0  0  0  0  0  0  0  0  0  0  0
  -22.3080  -14.6680   20.6280 O   0  0  0  0  0  0  0  0  0  0  0  0
  -22.3570  -12.1220   22.4670 H   0  0  0  0  0  0  0  0  0  0  0  0
  -21.0610  -13.2590   22.2320 H   0  0  0  0  0  0  0  0  0  0  0  0
  -25.3760  -15.2980   20.3530 N   0  0  0  0  0  0  0  0  0  0  0  0
  -24.6100  -15.9550   20.4620 H   0  0  0  0  0  0  0  0  0  0  0  0
  -26.2270  -15.7340   20.0250 H   0  0  0  0  0  0  0  0  0  0  0  0
  -28.2730  -26.3610   20.2120 O   0  0  0  0  0  0  0  0  0  0  0  0
  -24.5910  -31.8730   23.2440 C   0  0  0  0  0  0  0  0  0  0  0  0
  -27.1670  -27.2520   20.1790 C   0  0  0  0  0  0  0  0  0  0  0  0
  -23.3760  -30.4770   21.6120 C   0  0  0  0  0  3  0  0  0  0  0  0
  -24.8150  -28.9160   20.1740 C   0  0  0  0  0  0  0  0  0  0  0  0
  -25.9190  -30.7760   21.4140 C   0  0  0  0  0  2  0  0  0  0  0  0
  -25.9930  -29.3920   20.7640 C   0  0  0  0  0  0  0  0  0  0  0  0
  -27.1720  -28.5750   20.7460 C   0  0  0  0  0  3  0  0  0  0  0  0
  -25.9630  -26.8450   19.5640 C   0  0  0  0  0  3  0  0  0  0  0  0
  -24.8070  -27.6520   19.5620 C   0  0  0  0  0  3  0  0  0  0  0  0
  -23.5810  -29.7990   20.2310 C   0  0  0  0  0  2  0  0  0  0  0  0
  -24.6480  -31.0620   22.1470 N   0  0  0  0  0  0  0  0  0  0  0  0
  -23.5100  -32.1530   23.7860 O   0  0  0  0  0  0  0  0  0  0  0  0
  -22.7140  -29.4650   22.5790 C   0  0  0  0  0  0  0  0  0  0  0  0
  -21.3870  -29.2840   22.4570 N   0  0  0  0  0  0  0  0  0  0  0  0
  -23.3950  -28.8430   23.3990 O   0  0  0  0  0  0  0  0  0  0  0  0
  -20.8960  -29.8370   21.7700 H   0  0  0  0  0  0  0  0  0  0  0  0
  -18.0160  -28.0660   22.9650 C   0  0  0  0  0  0  0  0  0  0  0  0
  -20.5740  -28.3450   23.2330 C   0  0  0  0  0  3  0  0  0  0  0  0
  -20.6850  -26.9110   22.6650 C   0  0  0  0  0  2  0  0  0  0  0  0
  -19.5850  -26.5760   21.6520 C   0  0  0  0  0  2  0  0  0  0  0  0
  -18.2030  -26.7150   22.2960 C   0  0  0  0  0  2  0  0  0  0  0  0
  -19.1300  -28.8380   23.3910 C   0  0  0  0  0  0  0  0  0  0  0  0
  -18.9020  -30.1020   23.9780 C   0  0  0  0  0  3  0  0  0  0  0  0
  -17.5940  -30.5940   24.1430 C   0  0  0  0  0  3  0  0  0  0  0  0
  -16.4950  -29.8200   23.7320 C   0  0  0  0  0  3  0  0  0  0  0  0
  -16.7070  -28.5570   23.1490 C   0  0  0  0  0  3  0  0  0  0  0  0
  -25.8760  -32.5080   23.8600 C   0  0  0  0  0  3  0  0  0  0  0  0
  -26.3990  -31.7370   25.1340 C   0  0  1  0  0  0  0  0  0  0  0  0
  -25.3130  -31.5010   26.2090 C   0  0  0  0  0  1  0  0  0  0  0  0
  -26.9780  -30.3580   24.7410 C   0  0  0  0  0  1  0  0  0  0  0  0
  -27.5540  -32.5300   25.7880 C   0  0  0  0  0  1  0  0  0  0  0  0
  -25.5670  -33.9050   24.1960 N   0  0  0  0  0  0  0  0  0  0  0  0
  -25.8900  -34.9620   23.4380 C   0  0  0  0  0  0  0  0  0  0  0  0
  -26.5490  -34.8620   22.4000 O   0  0  0  0  0  0  0  0  0  0  0  0
  -24.9810  -34.0570   25.0030 H   0  0  0  0  0  0  0  0  0  0  0  0
  -24.1590  -36.7580   23.1100 C   0  0  0  0  0  1  0  0  0  0  0  0
  -25.4090  -36.3500   23.9050 C   0  0  0  0  0  3  0  0  0  0  0  0
  -27.5530  -37.2340   24.7150 C   0  0  0  0  0  1  0  0  0  0  0  0
  -26.4400  -37.4030   23.7840 N   0  0  0  0  0  0  0  0  0  0  0  0
  -26.0360  -38.3230   23.9360 H   0  0  0  0  0  0  0  0  0  0  0  0
  1  5  1  0
  2  4  1  0
  3  1  1  0
  3  6  1  0
  5  7  1  0
  5  2  1  0
  6 49  1  0
  6  4  1  0
  7  8  1  0
  8 10  1  0
  9  7  2  0
 11  8  1  0
 11 12  2  0
 13 12  1  0
 14 19  1  0
 15 16  1  0
 15 14  1  0
 17 16  1  0
 17 24  1  0
 17 18  1  0
 19 13  1  0
 19 18  1  0
 20 13  2  0
 21 22  2  0
 22 41  1  0
 23 22  1  0
 23 26  1  0
 24 21  1  0
 24 25  1  0
 25 23  2  0
 26 27  1  0
 27 28  2  0
 29 32  1  0
 29 28  1  0
 30 29  2  0
 31 30  1  0
 31 26  2  0
 32 33  1  0
 33 34  1  0
 34 35  2  0
 36 35  1  0
 36 40  1  0
 37 36  2  0
 38 33  2  0
 38 37  1  0
 39 38  1  0
 41 42  1  0
 42 45  1  0
 42 44  1  0
 43 41  2  0
 46 47  1  0
 46 21  1  0
 48 46  1  0
 50 61  2  0
 51 49  1  0
 51 56  1  0
 52 60  1  0
 52 62  1  0
 53 59  1  0
 53 55  1  0
 54 60  1  0
 55 54  1  0
 56 55  2  0
 57 51  2  0
 58 57  1  0
 58 53  2  0
 59 52  1  0
 60 50  1  0
 62 64  2  0
 63 62  1  0
 65 63  1  0
 66 75  2  0
 66 71  1  0
 67 63  1  0
 67 71  1  0
 68 67  1  0
 69 70  1  0
 69 68  1  0
 70 66  1  0
 71 72  2  0
 72 73  1  0
 74 73  2  0
 75 74  1  0
 76 50  1  0
 76 81  1  0
 76 77  1  0
 77 80  1  1
 77 78  1  0
 79 77  1  0
 81 84  1  0
 82 86  1  0
 82 81  1  0
 83 82  2  0
 86 85  1  0
 88 86  1  0
 88 89  1  0
 88 87  1  0
M  ISO  4   6 101  12 100  13 100  49 101
M  END
>  <TORSDO>  (16) 
F 19

>  <SCORE>  (16) 
-14.215

>  <name>  (16) 
15

>  <ligand_id>  (16) 
15

>  <original_smiles>  (16) 
[H]c1c([H])c([H])c2c(c1[H])C([H])([H])C([H])([H])C([H])([H])C2([H])N([H])C(=O)C1([H])N(C(=O)C([H])(N([H])C(=O)C([H])(N([H])C([H])([H])[H])C([H])([H])[H])C(C([H])([H])[H])(C([H])([H])[H])C([H])([H])[H])C([H])([H])c2c([H])c(OC3([H])C([H])([H])C([H])([H])C([H])(C(=O)N([H])C([H])([H])C([H])([H])C(=O)N4C([H])([H])C([H])([H])C([H])([H])C([H])(n5nc(-c6c([H])c([H])c(Oc7c([H])c([H])c(F)c([H])c7F)c([H])c6[H])c(C(=O)N([H])[H])c5N([H])[H])C4([H])[H])C([H])([H])C3([H])[H])c([H])c([H])c2C1([H])[H]

>  <smiles>  (16) 
[H]c1c([H])c([H])c2c(c1[H])C([H])([H])C([H])([H])C([H])([H])C2([H])N([H])C(=O)C1([H])N(C(=O)C([H])(N([H])C(=O)C([H])(N([H])C([H])([H])[H])C([H])([H])[H])C(C([H])([H])[H])(C([H])([H])[H])C([H])([H])[H])C([H])([H])c2c([H])c(OC3([H])C([H])([H])C([H])([H])C([H])(C(=O)N([H])C([H])([H])C([H])([H])C(=O)N4C([H])([H])C([H])([H])C([H])([H])C([H])(n5nc(-c6c([H])c([H])c(Oc7c([H])c([H])c(F)c([H])c7F)c([H])c6[H])c(C(=O)N([H])[H])c5N([H])[H])C4([H])[H])C([H])([H])C3([H])[H])c([H])c([H])c2C1([H])[H]

$$$$
16:0:0
     RDKit          3D

 91100  0  0  1  0  0  0  0  0999 V2000
  -26.1950  -23.0360   19.6870 C   0  0  0  0  0  3  0  0  0  0  0  0
  -26.1890  -23.6830   20.9450 C   0  0  0  0  0  3  0  0  0  0  0  0
  -27.4150  -22.8740   18.9940 C   0  0  0  0  0  3  0  0  0  0  0  0
  -27.3020  -24.4490   21.3460 C   0  0  0  0  0  3  0  0  0  0  0  0
  -28.5890  -23.2570   19.6730 C   0  0  0  0  0  0  0  0  0  0  0  0
  -28.3160  -24.6070   20.3830 C   0  0  0  0  0  0  0  0  0  0  0  0
  -30.0390  -20.7700   19.0130 C   0  0  0  0  0  2  0  0  0  0  0  0
  -28.4770  -20.5870   20.8050 C   0  0  0  0  0  2  0  0  0  0  0  0
  -30.5920  -19.2220   19.3350 C   0  0  0  0  0  2  0  0  0  0  0  0
  -29.0120  -19.0440   21.0760 C   0  0  0  0  0  2  0  0  0  0  0  0
  -29.3530  -21.7680   20.1180 C   0  0  0  0  0  3  0  0  0  0  0  0
  -29.5780  -18.1000   19.8990 C   0  0  0  0  0  3  0  0  0  0  0  0
  -30.5240  -15.2580   19.8180 C   0  0  0  0  0  0  0  0  0  0  0  0
  -30.4110  -12.8350   18.9300 C   0  0  0  0  0  2  0  0  0  0  0  0
  -29.3920  -12.6650   17.7740 C   0  0  0  0  0  2  0  0  0  0  0  0
  -27.9890  -12.3730   18.3290 C   0  0  0  0  0  2  0  0  0  0  0  0
  -27.6180  -13.3460   19.4740 C   0  0  0  0  0  3  0  0  0  0  0  0
  -28.7470  -13.4800   20.5240 C   0  0  0  0  0  2  0  0  0  0  0  0
  -29.9540  -13.9570   19.8270 N   0  0  0  0  0  0  0  0  0  0  0  0
  -31.6710  -15.3100   19.3680 O   0  0  0  0  0  0  0  0  0  0  0  0
  -29.7650  -16.4670   20.1470 N   0  0  0  0  0  0  0  0  0  0  0  0
  -28.9380  -16.1410   20.6220 H   0  0  0  0  0  0  0  0  0  0  0  0
  -25.3070  -13.9000   20.4210 C   0  0  0  0  0  0  0  0  0  0  0  0
  -24.2710  -13.1190   20.8460 C   0  0  0  0  0  0  0  0  0  0  0  0
  -24.7220  -11.7670   20.7380 C   0  0  0  0  0  0  0  0  0  0  0  0
  -26.3230  -13.0270   20.0700 N   0  0  0  0  0  0  0  0  0  0  0  0
  -25.9850  -11.7350   20.3260 N   0  0  0  0  0  0  0  0  0  0  0  0
  -24.0060  -10.5020   20.9430 C   0  0  0  0  0  0  0  0  0  0  0  0
  -24.4620   -9.5340   21.8630 C   0  0  0  0  0  3  0  0  0  0  0  0
  -23.7410   -8.3360   22.0590 C   0  0  0  0  0  3  0  0  0  0  0  0
  -22.5480   -8.0970   21.3370 C   0  0  0  0  0  0  0  0  0  0  0  0
  -22.1090   -9.0570   20.4070 C   0  0  0  0  0  3  0  0  0  0  0  0
  -22.8300  -10.2460   20.2090 C   0  0  0  0  0  3  0  0  0  0  0  0
  -21.7960   -6.9510   21.4460 O   0  0  0  0  0  0  0  0  0  0  0  0
  -21.7300   -6.2400   22.6180 C   0  0  0  0  0  0  0  0  0  0  0  0
  -21.2730   -6.8230   23.8210 C   0  0  0  0  0  3  0  0  0  0  0  0
  -21.1560   -6.0350   24.9830 C   0  0  0  0  0  3  0  0  0  0  0  0
  -21.4880   -4.6690   24.9460 C   0  0  0  0  0  0  0  0  0  0  0  0
  -21.9380   -4.0860   23.7480 C   0  0  0  0  0  3  0  0  0  0  0  0
  -22.0570   -4.8690   22.5870 C   0  0  0  0  0  0  0  0  0  0  0  0
  -22.4720   -4.2950   21.4310 F   0  0  0  0  0  0  0  0  0  0  0  0
  -21.3680   -3.9140   26.0620 F   0  0  0  0  0  0  0  0  0  0  0  0
  -22.9020  -13.5930   21.2360 C   0  0  0  0  0  0  0  0  0  0  0  0
  -22.2380  -12.8760   22.1350 N   0  0  0  0  0  0  0  0  0  0  0  0
  -22.4310  -14.6330   20.7770 O   0  0  0  0  0  0  0  0  0  0  0  0
  -22.6330  -12.0340   22.5280 H   0  0  0  0  0  0  0  0  0  0  0  0
  -21.3210  -13.1750   22.4370 H   0  0  0  0  0  0  0  0  0  0  0  0
  -25.4710  -15.2760   20.2760 N   0  0  0  0  0  0  0  0  0  0  0  0
  -24.7500  -15.9430   20.5250 H   0  0  0  0  0  0  0  0  0  0  0  0
  -26.2910  -15.7110   19.8740 H   0  0  0  0  0  0  0  0  0  0  0  0
  -28.3920  -26.0630   19.9630 O   0  0  0  0  0  0  0  0  0  0  0  0
  -24.5880  -31.7490   23.0970 C   0  0  0  0  0  0  0  0  0  0  0  0
  -27.3170  -27.0810   19.9860 C   0  0  0  0  0  0  0  0  0  0  0  0
  -23.4270  -30.3560   21.4140 C   0  0  0  0  0  3  0  0  0  0  0  0
  -24.9340  -28.8410   19.9640 C   0  0  0  0  0  0  0  0  0  0  0  0
  -25.9830  -30.6680   21.2860 C   0  0  0  0  0  2  0  0  0  0  0  0
  -26.1020  -29.2800   20.6020 C   0  0  0  0  0  0  0  0  0  0  0  0
  -27.2830  -28.4230   20.5930 C   0  0  0  0  0  3  0  0  0  0  0  0
  -26.1140  -26.7800   19.2980 C   0  0  0  0  0  3  0  0  0  0  0  0
  -24.9640  -27.6080   19.2920 C   0  0  0  0  0  3  0  0  0  0  0  0
  -23.6830  -29.7080   20.0250 C   0  0  0  0  0  2  0  0  0  0  0  0
  -24.6820  -30.9490   21.9840 N   0  0  0  0  0  0  0  0  0  0  0  0
  -23.4950  -31.9950   23.6290 O   0  0  0  0  0  0  0  0  0  0  0  0
  -22.7530  -29.3230   22.3610 C   0  0  0  0  0  0  0  0  0  0  0  0
  -21.4250  -29.1370   22.2390 N   0  0  0  0  0  0  0  0  0  0  0  0
  -23.4330  -28.6890   23.1720 O   0  0  0  0  0  0  0  0  0  0  0  0
  -20.9420  -29.6410   21.5100 H   0  0  0  0  0  0  0  0  0  0  0  0
  -18.0420  -27.9710   22.7600 C   0  0  0  0  0  0  0  0  0  0  0  0
  -20.6070  -28.2000   23.0160 C   0  0  0  0  0  3  0  0  0  0  0  0
  -20.6540  -26.7840   22.4090 C   0  0  0  0  0  2  0  0  0  0  0  0
  -19.5780  -26.5730   21.3450 C   0  0  0  0  0  2  0  0  0  0  0  0
  -18.2050  -26.6610   22.0060 C   0  0  0  0  0  2  0  0  0  0  0  0
  -19.1700  -28.7080   23.2100 C   0  0  0  0  0  0  0  0  0  0  0  0
  -18.9690  -29.9480   23.8500 C   0  0  0  0  0  3  0  0  0  0  0  0
  -17.6700  -30.4460   24.0530 C   0  0  0  0  0  3  0  0  0  0  0  0
  -16.5510  -29.7080   23.6210 C   0  0  0  0  0  3  0  0  0  0  0  0
  -16.7420  -28.4710   22.9810 C   0  0  0  0  0  3  0  0  0  0  0  0
  -25.8510  -32.3970   23.7460 C   0  0  0  0  0  3  0  0  0  0  0  0
  -25.5080  -33.7810   24.1150 N   0  0  0  0  0  0  0  0  0  0  0  0
  -25.8170  -34.8670   23.3920 C   0  0  0  0  0  0  0  0  0  0  0  0
  -26.4770  -34.8070   22.3530 O   0  0  0  0  0  0  0  0  0  0  0  0
  -24.9180  -33.8970   24.9250 H   0  0  0  0  0  0  0  0  0  0  0  0
  -24.0410  -36.6290   23.1370 C   0  0  0  0  0  1  0  0  0  0  0  0
  -25.3130  -36.2310   23.9000 C   0  0  0  0  0  3  0  0  0  0  0  0
  -27.4470  -37.1500   24.6970 C   0  0  0  0  0  1  0  0  0  0  0  0
  -26.3170  -37.3110   23.7870 N   0  0  0  0  0  0  0  0  0  0  0  0
  -25.8940  -38.2160   23.9700 H   0  0  0  0  0  0  0  0  0  0  0  0
  -26.3730  -31.6090   25.0120 C   0  0  1  0  0  0  0  0  0  0  0  0
  -25.2760  -31.3370   26.0660 C   0  0  0  0  0  1  0  0  0  0  0  0
  -26.9730  -30.2450   24.6050 C   0  0  0  0  0  1  0  0  0  0  0  0
  -27.5090  -32.4010   25.6980 C   0  0  0  0  0  1  0  0  0  0  0  0
  1  2  1  0
  2  4  2  0
  3  5  1  0
  3  1  2  0
  5  6  2  3
  6  4  1  0
  7  9  1  0
  7 11  1  0
  8 10  1  0
  9 12  1  0
 11  5  1  0
 11  8  1  0
 12 21  1  0
 12 10  1  0
 13 19  1  0
 13 21  1  0
 14 19  1  0
 15 16  1  0
 15 14  1  0
 17 16  1  0
 17 26  1  0
 17 18  1  0
 19 18  1  0
 20 13  2  0
 21 22  1  0
 23 24  2  0
 24 43  1  0
 25 24  1  0
 25 28  1  0
 26 27  1  0
 26 23  1  0
 27 25  2  0
 28 29  1  0
 29 30  2  0
 31 34  1  0
 31 30  1  0
 32 31  2  0
 33 32  1  0
 33 28  2  0
 34 35  1  0
 35 36  1  0
 36 37  2  0
 38 37  1  0
 38 42  1  0
 39 38  2  0
 40 35  2  0
 40 39  1  0
 41 40  1  0
 43 44  1  0
 44 47  1  0
 44 46  1  0
 45 43  2  0
 48 23  1  0
 48 49  1  0
 50 48  1  0
 51 53  1  0
 51  6  1  0
 52 63  2  0
 53 58  1  0
 54 62  1  0
 54 64  1  0
 55 61  1  0
 55 57  1  0
 56 62  1  0
 57 56  1  0
 58 57  2  0
 59 53  2  0
 60 59  1  0
 60 55  2  0
 61 54  1  0
 62 52  1  0
 64 66  2  0
 65 64  1  0
 67 65  1  0
 68 77  2  0
 68 73  1  0
 69 65  1  0
 69 73  1  0
 70 69  1  0
 71 72  1  0
 71 70  1  0
 72 68  1  0
 73 74  2  0
 74 75  1  0
 76 75  2  0
 77 76  1  0
 78 52  1  0
 78 79  1  0
 78 88  1  0
 79 82  1  0
 80 84  1  0
 80 79  1  0
 81 80  2  0
 84 83  1  0
 86 84  1  0
 86 87  1  0
 86 85  1  0
 88 91  1  1
 88 89  1  0
 90 88  1  0
M  ISO  4   6 101  13 100  21 100  51 101
M  END
>  <TORSDO>  (17) 
F 17

>  <SCORE>  (17) 
-15.129

>  <name>  (17) 
16

>  <ligand_id>  (17) 
16

>  <original_smiles>  (17) 
[H]c1c([H])c([H])c(C2([H])C([H])([H])C([H])([H])C([H])(N([H])C(=O)N3C([H])([H])C([H])([H])C([H])([H])C([H])(n4nc(-c5c([H])c([H])c(Oc6c([H])c([H])c(F)c([H])c6F)c([H])c5[H])c(C(=O)N([H])[H])c4N([H])[H])C3([H])[H])C([H])([H])C2([H])[H])c(Oc2c([H])c([H])c3c(c2[H])C([H])([H])N(C(=O)C([H])(N([H])C(=O)C([H])(N([H])C([H])([H])[H])C([H])([H])[H])C(C([H])([H])[H])(C([H])([H])[H])C([H])([H])[H])C([H])(C(=O)N([H])C2([H])c4c([H])c([H])c([H])c([H])c4C([H])([H])C([H])([H])C2([H])[H])C3([H])[H])c1[H]

>  <smiles>  (17) 
[H]c1c([H])c([H])c(C2([H])C([H])([H])C([H])([H])C([H])(N([H])C(=O)N3C([H])([H])C([H])([H])C([H])([H])C([H])(n4nc(-c5c([H])c([H])c(Oc6c([H])c([H])c(F)c([H])c6F)c([H])c5[H])c(C(=O)N([H])[H])c4N([H])[H])C3([H])[H])C([H])([H])C2([H])[H])c(Oc2c([H])c([H])c3c(c2[H])C([H])([H])N(C(=O)C([H])(N([H])C(=O)C([H])(N([H])C([H])([H])[H])C([H])([H])[H])C(C([H])([H])[H])(C([H])([H])[H])C([H])([H])[H])C([H])(C(=O)N([H])C2([H])c4c([H])c([H])c([H])c([H])c4C([H])([H])C([H])([H])C2([H])[H])C3([H])[H])c1[H]

$$$$
17:0:0
     RDKit          3D

 90 98  0  0  1  0  0  0  0  0999 V2000
  -27.3740  -22.1320   20.7740 C   0  0  0  0  0  3  0  0  0  0  0  0
  -29.0100  -23.8300   20.1850 C   0  0  0  0  0  3  0  0  0  0  0  0
  -26.8070  -24.5500   20.8370 C   0  0  0  0  0  3  0  0  0  0  0  0
  -28.7070  -22.3730   20.3920 C   0  0  0  0  0  0  0  0  0  0  0  0
  -26.4540  -23.1860   20.9940 C   0  0  0  0  0  0  0  0  0  0  0  0
  -28.0730  -24.9850   20.3740 C   0  0  0  0  0  0  0  0  0  0  0  0
  -25.0370  -22.8410   21.4110 C   0  0  0  0  0  1  0  0  0  0  0  0
  -29.6890  -21.1060   20.1980 C   0  0  0  0  0  0  0  0  0  0  0  0
  -29.3950  -19.7340   20.4770 N   0  0  0  0  0  0  0  0  0  0  0  0
  -30.8120  -21.3650   19.7660 O   0  0  0  0  0  0  0  0  0  0  0  0
  -28.4680  -19.5820   20.8500 H   0  0  0  0  0  0  0  0  0  0  0  0
  -30.2820  -18.4090   20.3390 C   0  0  0  0  0  3  0  0  0  0  0  0
  -29.7980  -16.8020   20.6330 C   0  0  0  0  0  3  0  0  0  0  0  0
  -30.6660  -15.3910   20.3610 C   0  0  0  0  0  0  0  0  0  0  0  0
  -30.6170  -13.0330   19.3970 C   0  0  0  0  0  2  0  0  0  0  0  0
  -29.7020  -13.0040   18.1480 C   0  0  0  0  0  2  0  0  0  0  0  0
  -28.2310  -12.7720   18.5470 C   0  0  0  0  0  2  0  0  0  0  0  0
  -27.7960  -13.6720   19.7320 C   0  0  0  0  0  3  0  0  0  0  0  0
  -28.8320  -13.6760   20.8750 C   0  0  0  0  0  2  0  0  0  0  0  0
  -30.1180  -14.1050   20.3080 N   0  0  0  0  0  0  0  0  0  0  0  0
  -31.8630  -15.4760   20.0610 O   0  0  0  0  0  0  0  0  0  0  0  0
  -25.3940  -14.2150   20.4280 C   0  0  0  0  0  0  0  0  0  0  0  0
  -24.3370  -13.4260   20.7820 C   0  0  0  0  0  0  0  0  0  0  0  0
  -24.8220  -12.0810   20.7670 C   0  0  0  0  0  0  0  0  0  0  0  0
  -26.4550  -13.3520   20.2090 N   0  0  0  0  0  0  0  0  0  0  0  0
  -26.1190  -12.0630   20.4790 N   0  0  0  0  0  0  0  0  0  0  0  0
  -24.1100  -10.8090   20.9500 C   0  0  0  0  0  0  0  0  0  0  0  0
  -24.5090   -9.8710   21.9260 C   0  0  0  0  0  3  0  0  0  0  0  0
  -23.7960   -8.6650   22.0970 C   0  0  0  0  0  3  0  0  0  0  0  0
  -22.6690   -8.3880   21.2880 C   0  0  0  0  0  0  0  0  0  0  0  0
  -22.2870   -9.3140   20.3020 C   0  0  0  0  0  3  0  0  0  0  0  0
  -23.0020  -10.5120   20.1310 C   0  0  0  0  0  3  0  0  0  0  0  0
  -21.9310   -7.2320   21.3650 O   0  0  0  0  0  0  0  0  0  0  0  0
  -21.8080   -6.5320   22.5380 C   0  0  0  0  0  0  0  0  0  0  0  0
  -21.2510   -7.1140   23.6980 C   0  0  0  0  0  3  0  0  0  0  0  0
  -21.0790   -6.3390   24.8620 C   0  0  0  0  0  3  0  0  0  0  0  0
  -21.4530   -4.9810   24.8680 C   0  0  0  0  0  0  0  0  0  0  0  0
  -22.0030   -4.3990   23.7120 C   0  0  0  0  0  3  0  0  0  0  0  0
  -22.1760   -5.1710   22.5500 C   0  0  0  0  0  0  0  0  0  0  0  0
  -22.6870   -4.6000   21.4330 F   0  0  0  0  0  0  0  0  0  0  0  0
  -21.2810   -4.2340   25.9830 F   0  0  0  0  0  0  0  0  0  0  0  0
  -22.9260  -13.8830   21.0240 C   0  0  0  0  0  0  0  0  0  0  0  0
  -22.1950  -13.1870   21.8880 N   0  0  0  0  0  0  0  0  0  0  0  0
  -22.4810  -14.8930   20.4810 O   0  0  0  0  0  0  0  0  0  0  0  0
  -22.5650  -12.3690   22.3490 H   0  0  0  0  0  0  0  0  0  0  0  0
  -21.2490  -13.4770   22.0910 H   0  0  0  0  0  0  0  0  0  0  0  0
  -25.5420  -15.5870   20.2480 N   0  0  0  0  0  0  0  0  0  0  0  0
  -24.7640  -16.2320   20.3390 H   0  0  0  0  0  0  0  0  0  0  0  0
  -26.3910  -16.0340   19.9290 H   0  0  0  0  0  0  0  0  0  0  0  0
  -28.3000  -26.4460   20.1850 O   0  0  0  0  0  0  0  0  0  0  0  0
  -24.6740  -32.0820   23.3630 C   0  0  0  0  0  0  0  0  0  0  0  0
  -27.2700  -27.4730   20.1650 C   0  0  0  0  0  0  0  0  0  0  0  0
  -23.4890  -30.7530   21.6590 C   0  0  0  0  0  3  0  0  0  0  0  0
  -24.9510  -29.2420   20.1760 C   0  0  0  0  0  0  0  0  0  0  0  0
  -26.0460  -31.0160   21.5320 C   0  0  0  0  0  2  0  0  0  0  0  0
  -26.1240  -29.6500   20.8260 C   0  0  0  0  0  0  0  0  0  0  0  0
  -27.2810  -28.7760   20.8160 C   0  0  0  0  0  3  0  0  0  0  0  0
  -26.0920  -27.2080   19.4320 C   0  0  0  0  0  3  0  0  0  0  0  0
  -24.9500  -28.0340   19.4650 C   0  0  0  0  0  3  0  0  0  0  0  0
  -23.7210  -30.1340   20.2550 C   0  0  0  0  0  2  0  0  0  0  0  0
  -24.7550  -31.3060   22.2390 N   0  0  0  0  0  0  0  0  0  0  0  0
  -23.5840  -32.3450   23.8930 O   0  0  0  0  0  0  0  0  0  0  0  0
  -22.8040  -29.7090   22.5750 C   0  0  0  0  0  0  0  0  0  0  0  0
  -21.4770  -29.5420   22.4290 N   0  0  0  0  0  0  0  0  0  0  0  0
  -23.4660  -29.0520   23.3820 O   0  0  0  0  0  0  0  0  0  0  0  0
  -20.9970  -30.1180   21.7510 H   0  0  0  0  0  0  0  0  0  0  0  0
  -18.0970  -28.3180   22.8540 C   0  0  0  0  0  0  0  0  0  0  0  0
  -20.6520  -28.5700   23.1500 C   0  0  0  0  0  3  0  0  0  0  0  0
  -20.7600  -27.1660   22.5110 C   0  0  0  0  0  2  0  0  0  0  0  0
  -19.6680  -26.8930   21.4740 C   0  0  0  0  0  2  0  0  0  0  0  0
  -18.2810  -27.0040   22.1130 C   0  0  0  0  0  2  0  0  0  0  0  0
  -19.2110  -29.0620   23.3250 C   0  0  0  0  0  0  0  0  0  0  0  0
  -18.9840  -30.2980   23.9700 C   0  0  0  0  0  3  0  0  0  0  0  0
  -17.6760  -30.7860   24.1520 C   0  0  0  0  0  3  0  0  0  0  0  0
  -16.5770  -30.0380   23.6960 C   0  0  0  0  0  3  0  0  0  0  0  0
  -16.7880  -28.8050   23.0530 C   0  0  0  0  0  3  0  0  0  0  0  0
  -25.9470  -32.6950   24.0250 C   0  0  0  0  0  3  0  0  0  0  0  0
  -26.4220  -31.9030   25.3050 C   0  0  1  0  0  0  0  0  0  0  0  0
  -25.3000  -31.6640   26.3410 C   0  0  0  0  0  1  0  0  0  0  0  0
  -27.0010  -30.5220   24.9190 C   0  0  0  0  0  1  0  0  0  0  0  0
  -27.5620  -32.6770   26.0070 C   0  0  0  0  0  1  0  0  0  0  0  0
  -25.6440  -34.0930   24.3700 N   0  0  0  0  0  0  0  0  0  0  0  0
  -25.9710  -35.1540   23.6210 C   0  0  0  0  0  0  0  0  0  0  0  0
  -26.6240  -35.0590   22.5780 O   0  0  0  0  0  0  0  0  0  0  0  0
  -25.0630  -34.2440   25.1820 H   0  0  0  0  0  0  0  0  0  0  0  0
  -24.2270  -36.9480   23.3450 C   0  0  0  0  0  1  0  0  0  0  0  0
  -25.5000  -36.5400   24.1030 C   0  0  0  0  0  3  0  0  0  0  0  0
  -27.6590  -37.4340   24.8560 C   0  0  0  0  0  1  0  0  0  0  0  0
  -26.5250  -37.5960   23.9510 N   0  0  0  0  0  0  0  0  0  0  0  0
  -26.1210  -38.5160   24.1090 H   0  0  0  0  0  0  0  0  0  0  0  0
  1  5  1  0
  2  6  2  0
  2  4  1  0
  3  5  2  0
  4  1  2  0
  5  7  1  0
  6  3  1  0
  8  4  1  0
  8  9  1  0
  9 11  1  0
 10  8  2  0
 12  9  1  0
 12 13  2  0
 14 13  1  0
 15 20  1  0
 16 17  1  0
 16 15  1  0
 18 17  1  0
 18 25  1  0
 18 19  1  0
 20 14  1  0
 20 19  1  0
 21 14  2  0
 22 23  2  0
 23 42  1  0
 24 23  1  0
 24 27  1  0
 25 22  1  0
 25 26  1  0
 26 24  2  0
 27 28  1  0
 28 29  2  0
 30 33  1  0
 30 29  1  0
 31 30  2  0
 32 31  1  0
 32 27  2  0
 33 34  1  0
 34 39  2  0
 34 35  1  0
 35 36  2  0
 36 37  1  0
 37 41  1  0
 38 37  2  0
 39 38  1  0
 40 39  1  0
 42 43  1  0
 43 46  1  0
 43 45  1  0
 44 42  2  0
 47 48  1  0
 47 22  1  0
 49 47  1  0
 50  6  1  0
 51 62  2  0
 52 50  1  0
 52 57  1  0
 53 61  1  0
 53 63  1  0
 54 60  1  0
 54 56  1  0
 55 61  1  0
 56 55  1  0
 57 56  2  0
 58 59  1  0
 58 52  2  0
 59 54  2  0
 60 53  1  0
 61 51  1  0
 63 65  2  0
 64 63  1  0
 66 64  1  0
 67 76  2  0
 67 72  1  0
 68 64  1  0
 68 72  1  0
 69 68  1  0
 70 71  1  0
 70 69  1  0
 71 67  1  0
 72 73  2  0
 73 74  1  0
 75 74  2  0
 76 75  1  0
 77 51  1  0
 77 82  1  0
 77 78  1  0
 78 81  1  1
 78 79  1  0
 80 78  1  0
 82 85  1  0
 83 87  1  0
 83 82  1  0
 84 83  2  0
 87 86  1  0
 89 87  1  0
 89 90  1  0
 89 88  1  0
M  ISO  4   6 101  13 100  14 100  50 101
M  END
>  <TORSDO>  (18) 
F 19

>  <SCORE>  (18) 
-13.918

>  <name>  (18) 
17

>  <ligand_id>  (18) 
17

>  <original_smiles>  (18) 
[H]c1c([H])c([H])c2c(c1[H])C([H])([H])C([H])([H])C([H])([H])C2([H])N([H])C(=O)C1([H])N(C(=O)C([H])(N([H])C(=O)C([H])(N([H])C([H])([H])[H])C([H])([H])[H])C(C([H])([H])[H])(C([H])([H])[H])C([H])([H])[H])C([H])([H])c2c([H])c(Oc3c([H])c(C(=O)N([H])C([H])([H])C([H])([H])C(=O)N4C([H])([H])C([H])([H])C([H])([H])C([H])(n5nc(-c6c([H])c([H])c(Oc7c([H])c([H])c(F)c([H])c7F)c([H])c6[H])c(C(=O)N([H])[H])c5N([H])[H])C4([H])[H])c([H])c(C([H])([H])[H])c3[H])c([H])c([H])c2C1([H])[H]

>  <smiles>  (18) 
[H]c1c([H])c([H])c2c(c1[H])C([H])([H])C([H])([H])C([H])([H])C2([H])N([H])C(=O)C1([H])N(C(=O)C([H])(N([H])C(=O)C([H])(N([H])C([H])([H])[H])C([H])([H])[H])C(C([H])([H])[H])(C([H])([H])[H])C([H])([H])[H])C([H])([H])c2c([H])c(Oc3c([H])c(C(=O)N([H])C([H])([H])C([H])([H])C(=O)N4C([H])([H])C([H])([H])C([H])([H])C([H])(n5nc(-c6c([H])c([H])c(Oc7c([H])c([H])c(F)c([H])c7F)c([H])c6[H])c(C(=O)N([H])[H])c5N([H])[H])C4([H])[H])c([H])c(C([H])([H])[H])c3[H])c([H])c([H])c2C1([H])[H]

$$$$
18:0:0
     RDKit          3D

 91 99  0  0  1  0  0  0  0  0999 V2000
  -29.3990  -16.9900   21.2290 C   0  0  0  0  0  2  0  0  0  0  0  0
  -30.9210  -18.4810   19.9010 C   0  0  0  0  0  2  0  0  0  0  0  0
  -28.6820  -19.3620   20.1480 C   0  0  0  0  0  2  0  0  0  0  0  0
  -30.3810  -16.8240   20.0590 C   0  0  0  0  0  3  0  0  0  0  0  0
  -28.2850  -18.0650   20.9620 C   0  0  0  0  0  3  0  0  0  0  0  0
  -30.0740  -19.7990   20.2930 N   0  0  0  0  0  0  0  0  0  0  0  0
  -31.2270  -15.2970   20.0980 C   0  0  0  0  0  0  0  0  0  0  0  0
  -31.2210  -12.7670   19.5490 C   0  0  0  0  0  2  0  0  0  0  0  0
  -30.3570  -12.4610   18.2980 C   0  0  0  0  0  2  0  0  0  0  0  0
  -28.8750  -12.2860   18.6790 C   0  0  0  0  0  2  0  0  0  0  0  0
  -28.3980  -13.3860   19.6580 C   0  0  0  0  0  3  0  0  0  0  0  0
  -29.3860  -13.6140   20.8180 C   0  0  0  0  0  2  0  0  0  0  0  0
  -30.6750  -13.9960   20.2220 N   0  0  0  0  0  0  0  0  0  0  0  0
  -32.4470  -15.2770   19.8810 O   0  0  0  0  0  0  0  0  0  0  0  0
  -26.0600  -14.1170   20.3680 C   0  0  0  0  0  0  0  0  0  0  0  0
  -24.9350  -13.4140   20.7070 C   0  0  0  0  0  0  0  0  0  0  0  0
  -25.3030  -12.0330   20.6710 C   0  0  0  0  0  0  0  0  0  0  0  0
  -27.0370  -13.1680   20.1290 N   0  0  0  0  0  0  0  0  0  0  0  0
  -26.5950  -11.9090   20.3830 N   0  0  0  0  0  0  0  0  0  0  0  0
  -24.4840  -10.8220   20.8310 C   0  0  0  0  0  0  0  0  0  0  0  0
  -24.8430   -9.8010   21.7380 C   0  0  0  0  0  3  0  0  0  0  0  0
  -24.0280   -8.6570   21.8900 C   0  0  0  0  0  3  0  0  0  0  0  0
  -22.8400   -8.5270   21.1330 C   0  0  0  0  0  0  0  0  0  0  0  0
  -22.4990   -9.5350   20.2140 C   0  0  0  0  0  3  0  0  0  0  0  0
  -23.3140  -10.6700   20.0610 C   0  0  0  0  0  3  0  0  0  0  0  0
  -22.0020   -7.4400   21.1960 O   0  0  0  0  0  0  0  0  0  0  0  0
  -21.8980   -6.6730   22.3290 C   0  0  0  0  0  0  0  0  0  0  0  0
  -21.5060   -7.2230   23.5680 C   0  0  0  0  0  3  0  0  0  0  0  0
  -21.3460   -6.3880   24.6910 C   0  0  0  0  0  3  0  0  0  0  0  0
  -21.5690   -5.0030   24.5760 C   0  0  0  0  0  0  0  0  0  0  0  0
  -21.9540   -4.4510   23.3410 C   0  0  0  0  0  3  0  0  0  0  0  0
  -22.1160   -5.2850   22.2210 C   0  0  0  0  0  0  0  0  0  0  0  0
  -22.4660   -4.7450   21.0280 F   0  0  0  0  0  0  0  0  0  0  0  0
  -21.4080   -4.1970   25.6520 F   0  0  0  0  0  0  0  0  0  0  0  0
  -23.5690  -13.9850   20.9400 C   0  0  0  0  0  0  0  0  0  0  0  0
  -22.7770  -13.3540   21.7990 N   0  0  0  0  0  0  0  0  0  0  0  0
  -23.2160  -15.0290   20.3920 O   0  0  0  0  0  0  0  0  0  0  0  0
  -23.0770  -12.5090   22.2630 H   0  0  0  0  0  0  0  0  0  0  0  0
  -21.8560  -13.7200   21.9970 H   0  0  0  0  0  0  0  0  0  0  0  0
  -26.3300  -15.4780   20.2010 N   0  0  0  0  0  0  0  0  0  0  0  0
  -25.4560  -15.9850   20.0880 H   0  0  0  0  0  0  0  0  0  0  0  0
  -26.9160  -15.6250   19.3860 H   0  0  0  0  0  0  0  0  0  0  0  0
  -27.0840  -17.4340   20.3720 N   0  0  0  0  0  4  0  0  0  0  0  0
  -27.2500  -16.9840   19.4830 H   0  0  0  0  0  0  0  0  0  0  0  0
  -26.3660  -18.1250   20.2390 H   0  0  0  0  0  0  0  0  0  0  0  0
  -26.7130  -16.7420   20.9990 H   0  0  0  0  0  0  0  0  0  0  0  0
  -30.2960  -21.3580   19.8560 C   0  0  0  0  0  3  0  0  0  0  0  0
  -29.5620  -22.9020   20.3720 C   0  0  0  0  0  3  0  0  0  0  0  0
  -29.2910  -24.3670   18.1510 C   0  0  0  0  0  1  0  0  0  0  0  0
  -29.5910  -24.5320   19.6460 C   0  0  0  0  0  3  0  0  0  0  0  0
  -29.2550  -26.0690   20.1310 O   0  0  0  0  0  0  0  0  0  0  0  0
  -24.8070  -31.4210   22.9460 C   0  0  0  0  0  0  0  0  0  0  0  0
  -28.1070  -27.0010   19.9750 C   0  0  0  0  0  0  0  0  0  0  0  0
  -23.8990  -29.9670   21.1790 C   0  0  0  0  0  3  0  0  0  0  0  0
  -25.6150  -28.5980   19.8200 C   0  0  0  0  0  0  0  0  0  0  0  0
  -26.4260  -30.4730   21.2330 C   0  0  0  0  0  2  0  0  0  0  0  0
  -26.6990  -29.1100   20.5390 C   0  0  0  0  0  0  0  0  0  0  0  0
  -27.9360  -28.3320   20.5950 C   0  0  0  0  0  3  0  0  0  0  0  0
  -26.9710  -26.6280   19.2220 C   0  0  0  0  0  3  0  0  0  0  0  0
  -25.7730  -27.3790   19.1450 C   0  0  0  0  0  3  0  0  0  0  0  0
  -24.2990  -29.3720   19.8030 C   0  0  0  0  0  2  0  0  0  0  0  0
  -25.0590  -30.6470   21.8420 N   0  0  0  0  0  0  0  0  0  0  0  0
  -23.6570  -31.5670   23.3920 O   0  0  0  0  0  0  0  0  0  0  0  0
  -23.2560  -28.8620   22.0560 C   0  0  0  0  0  0  0  0  0  0  0  0
  -21.9480  -28.6040   21.8740 N   0  0  0  0  0  0  0  0  0  0  0  0
  -23.9420  -28.2380   22.8700 O   0  0  0  0  0  0  0  0  0  0  0  0
  -21.4450  -29.1640   21.1990 H   0  0  0  0  0  0  0  0  0  0  0  0
  -18.6360  -27.1760   22.2510 C   0  0  0  0  0  0  0  0  0  0  0  0
  -21.1750  -27.5630   22.5580 C   0  0  0  0  0  3  0  0  0  0  0  0
  -21.3600  -26.1900   21.8680 C   0  0  0  0  0  2  0  0  0  0  0  0
  -20.2820  -25.8910   20.8220 C   0  0  0  0  0  2  0  0  0  0  0  0
  -18.8920  -25.9010   21.4640 C   0  0  0  0  0  2  0  0  0  0  0  0
  -19.7070  -27.9640   22.7510 C   0  0  0  0  0  0  0  0  0  0  0  0
  -19.4110  -29.1540   23.4500 C   0  0  0  0  0  3  0  0  0  0  0  0
  -18.0780  -29.5600   23.6510 C   0  0  0  0  0  3  0  0  0  0  0  0
  -17.0230  -28.7700   23.1650 C   0  0  0  0  0  3  0  0  0  0  0  0
  -17.3020  -27.5790   22.4710 C   0  0  0  0  0  3  0  0  0  0  0  0
  -25.9500  -32.1730   23.6930 C   0  0  0  0  0  3  0  0  0  0  0  0
  -26.4430  -31.4190   24.9900 C   0  0  1  0  0  0  0  0  0  0  0  0
  -25.3010  -31.0380   25.9620 C   0  0  0  0  0  1  0  0  0  0  0  0
  -27.1950  -30.1200   24.6210 C   0  0  0  0  0  1  0  0  0  0  0  0
  -27.4500  -32.3050   25.7590 C   0  0  0  0  0  1  0  0  0  0  0  0
  -25.4530  -33.5150   24.0450 N   0  0  0  0  0  0  0  0  0  0  0  0
  -25.7300  -34.6380   23.3700 C   0  0  0  0  0  0  0  0  0  0  0  0
  -26.4930  -34.6600   22.4000 O   0  0  0  0  0  0  0  0  0  0  0  0
  -24.7780  -33.5610   24.7940 H   0  0  0  0  0  0  0  0  0  0  0  0
  -23.8490  -36.2580   22.9460 C   0  0  0  0  0  1  0  0  0  0  0  0
  -25.0580  -35.9440   23.8420 C   0  0  0  0  0  3  0  0  0  0  0  0
  -27.0050  -37.0110   24.8920 C   0  0  0  0  0  1  0  0  0  0  0  0
  -25.9740  -37.1050   23.8620 N   0  0  0  0  0  0  0  0  0  0  0  0
  -25.4580  -37.9690   24.0070 H   0  0  0  0  0  0  0  0  0  0  0  0
  2  4  1  0
  2  6  1  0
  3  6  1  0
  3  5  1  0
  4  7  1  0
  4  1  1  0
  5 43  1  0
  5  1  1  0
  7 13  1  0
  8 13  1  0
  9 10  1  0
  9  8  1  0
 11 10  1  0
 11 18  1  0
 11 12  1  0
 13 12  1  0
 14  7  2  0
 15 16  2  0
 16 35  1  0
 17 16  1  0
 17 20  1  0
 18 15  1  0
 18 19  1  0
 19 17  2  0
 20 21  1  0
 21 22  2  0
 23 26  1  0
 23 22  1  0
 24 23  2  0
 25 24  1  0
 25 20  2  0
 26 27  1  0
 27 28  1  0
 28 29  2  0
 30 29  1  0
 30 34  1  0
 31 30  2  0
 32 27  2  0
 32 31  1  0
 33 32  1  0
 35 36  1  0
 36 39  1  0
 36 38  1  0
 37 35  2  0
 40 15  1  0
 41 40  1  0
 42 40  1  0
 43 46  1  0
 44 43  1  0
 45 43  1  0
 47  6  1  0
 47 48  2  0
 50 49  1  0
 50 51  1  0
 50 48  1  0
 52 63  2  0
 53 51  1  0
 53 58  1  0
 54 62  1  0
 54 64  1  0
 55 57  1  0
 56 62  1  0
 57 58  2  0
 57 56  1  0
 59 53  2  0
 60 59  1  0
 60 55  2  0
 61 55  1  0
 61 54  1  0
 62 52  1  0
 64 66  2  0
 65 64  1  0
 67 65  1  0
 68 77  2  0
 68 73  1  0
 69 65  1  0
 69 73  1  0
 70 69  1  0
 71 72  1  0
 71 70  1  0
 72 68  1  0
 73 74  2  0
 74 75  1  0
 76 75  2  0
 77 76  1  0
 78 52  1  0
 78 83  1  0
 78 79  1  0
 79 82  1  1
 79 80  1  0
 81 79  1  0
 83 86  1  0
 84 88  1  0
 84 83  1  0
 85 84  2  0
 88 87  1  0
 88 90  1  0
 90 91  1  0
 90 89  1  0
M  ISO  4   4 100   7 100  50 101  51 101
M  END
>  <TORSDO>  (19) 
F 20

>  <SCORE>  (19) 
-12.662

>  <name>  (19) 
18

>  <ligand_id>  (19) 
18

>  <original_smiles>  (19) 
[H]c1c([H])c([H])c2c(c1[H])C([H])([H])C([H])([H])C([H])([H])C2([H])N([H])C(=O)C1([H])N(C(=O)C([H])(N([H])C(=O)C([H])(N([H])C([H])([H])[H])C([H])([H])[H])C(C([H])([H])[H])(C([H])([H])[H])C([H])([H])[H])C([H])([H])c2c([H])c(OC([H])(C([H])([H])[H])C([H])([H])C([H])([H])N3C([H])([H])C([H])(C(=O)N4C([H])([H])C([H])([H])C([H])([H])C([H])(n5nc(-c6c([H])c([H])c(Oc7c([H])c([H])c(F)c([H])c7F)c([H])c6[H])c(C(=O)N([H])[H])c5N([H])[H])C4([H])[H])C([H])([H])C([H])([N+]([H])([H])[H])C3([H])[H])c([H])c([H])c2C1([H])[H]

>  <smiles>  (19) 
[H]c1c([H])c([H])c2c(c1[H])C([H])([H])C([H])([H])C([H])([H])C2([H])N([H])C(=O)C1([H])N(C(=O)C([H])(N([H])C(=O)C([H])(N([H])C([H])([H])[H])C([H])([H])[H])C(C([H])([H])[H])(C([H])([H])[H])C([H])([H])[H])C([H])([H])c2c([H])c(OC([H])(C([H])([H])[H])C([H])([H])C([H])([H])N3C([H])([H])C([H])(C(=O)N4C([H])([H])C([H])([H])C([H])([H])C([H])(n5nc(-c6c([H])c([H])c(Oc7c([H])c([H])c(F)c([H])c7F)c([H])c6[H])c(C(=O)N([H])[H])c5N([H])[H])C4([H])[H])C([H])([H])C([H])([N+]([H])([H])[H])C3([H])[H])c([H])c([H])c2C1([H])[H]

$$$$
19:0:0
     RDKit          3D

 94103  0  0  1  0  0  0  0  0999 V2000
  -30.1280  -20.7950   18.8540 C   0  0  0  0  0  3  0  0  0  0  0  0
  -29.9230  -22.3750   18.9930 C   0  0  0  0  0  3  0  0  0  0  0  0
  -29.8370  -20.6100   20.9280 C   0  0  0  0  0  3  0  0  0  0  0  0
  -29.6590  -22.1980   21.0950 C   0  0  0  0  0  0  0  0  0  0  0  0
  -30.1120  -19.5810   19.8050 C   0  0  0  0  0  0  0  0  0  0  0  0
  -29.6170  -23.4030   20.1120 C   0  0  0  0  0  0  0  0  0  0  0  0
  -30.9380  -16.2040   19.5520 C   0  0  0  0  0  0  0  0  0  0  0  0
  -31.0080  -13.5480   18.7080 C   0  0  0  0  0  2  0  0  0  0  0  0
  -30.0330  -12.9610   17.6260 C   0  0  0  0  0  2  0  0  0  0  0  0
  -28.6890  -12.5470   18.2360 C   0  0  0  0  0  2  0  0  0  0  0  0
  -28.2550  -13.5790   19.2930 C   0  0  0  0  0  3  0  0  0  0  0  0
  -29.3770  -14.0210   20.2800 C   0  0  0  0  0  2  0  0  0  0  0  0
  -30.4230  -14.7710   19.5040 N   0  0  0  0  0  0  0  0  0  0  0  0
  -32.1490  -16.0350   19.2530 O   0  0  0  0  0  0  0  0  0  0  0  0
  -30.2230  -17.6970   19.7870 N   0  0  0  0  0  0  0  0  0  0  0  0
  -29.3280  -17.3890   20.1380 H   0  0  0  0  0  0  0  0  0  0  0  0
  -26.0410  -14.1430   20.3740 C   0  0  0  0  0  0  0  0  0  0  0  0
  -24.9840  -13.3930   20.7990 C   0  0  0  0  0  0  0  0  0  0  0  0
  -25.3590  -12.0270   20.6040 C   0  0  0  0  0  0  0  0  0  0  0  0
  -26.9940  -13.2440   19.9420 N   0  0  0  0  0  0  0  0  0  0  0  0
  -26.6060  -11.9540   20.1380 N   0  0  0  0  0  0  0  0  0  0  0  0
  -24.5730  -10.7960   20.7780 C   0  0  0  0  0  0  0  0  0  0  0  0
  -24.9740   -9.7800   21.6730 C   0  0  0  0  0  3  0  0  0  0  0  0
  -24.1830   -8.6210   21.8420 C   0  0  0  0  0  3  0  0  0  0  0  0
  -22.9770   -8.4720   21.1170 C   0  0  0  0  0  0  0  0  0  0  0  0
  -22.5940   -9.4760   20.2110 C   0  0  0  0  0  3  0  0  0  0  0  0
  -23.3850  -10.6250   20.0390 C   0  0  0  0  0  3  0  0  0  0  0  0
  -22.1590   -7.3710   21.1990 O   0  0  0  0  0  0  0  0  0  0  0  0
  -21.9400   -6.7210   22.3850 C   0  0  0  0  0  0  0  0  0  0  0  0
  -21.4250   -7.3890   23.5180 C   0  0  0  0  0  3  0  0  0  0  0  0
  -21.1490   -6.6700   24.6950 C   0  0  0  0  0  3  0  0  0  0  0  0
  -21.3800   -5.2810   24.7450 C   0  0  0  0  0  0  0  0  0  0  0  0
  -21.8860   -4.6130   23.6170 C   0  0  0  0  0  3  0  0  0  0  0  0
  -22.1620   -5.3280   22.4410 C   0  0  0  0  0  0  0  0  0  0  0  0
  -22.6310   -4.6740   21.3500 F   0  0  0  0  0  0  0  0  0  0  0  0
  -21.1090   -4.5890   25.8760 F   0  0  0  0  0  0  0  0  0  0  0  0
  -23.6570  -13.9240   21.2590 C   0  0  0  0  0  0  0  0  0  0  0  0
  -23.0040  -13.2220   22.1770 N   0  0  0  0  0  0  0  0  0  0  0  0
  -23.2200  -14.9950   20.8420 O   0  0  0  0  0  0  0  0  0  0  0  0
  -23.3750  -12.3530   22.5310 H   0  0  0  0  0  0  0  0  0  0  0  0
  -22.1200  -13.5600   22.5320 H   0  0  0  0  0  0  0  0  0  0  0  0
  -26.2630  -15.5140   20.2840 N   0  0  0  0  0  0  0  0  0  0  0  0
  -25.5560  -16.1930   20.5480 H   0  0  0  0  0  0  0  0  0  0  0  0
  -27.0680  -15.9360   19.8420 H   0  0  0  0  0  0  0  0  0  0  0  0
  -28.8550  -21.6960   23.5300 C   0  0  0  0  0  2  0  0  0  0  0  0
  -29.8730  -21.2220   24.5800 C   0  0  0  0  0  2  0  0  0  0  0  0
  -31.0400  -22.7700   23.1530 C   0  0  0  0  0  2  0  0  0  0  0  0
  -29.6180  -22.6340   22.5630 C   0  0  0  0  0  3  0  0  0  0  0  0
  -30.9380  -22.3230   24.6200 C   0  0  0  0  0  3  0  0  0  0  0  0
  -32.2280  -21.8860   25.1940 N   0  0  0  0  0  4  0  0  0  0  0  0
  -32.5570  -21.0350   24.7720 H   0  0  0  0  0  0  0  0  0  0  0  0
  -32.1410  -21.7260   26.1830 H   0  0  0  0  0  0  0  0  0  0  0  0
  -32.9290  -22.5920   25.0600 H   0  0  0  0  0  0  0  0  0  0  0  0
  -29.5870  -25.1570   20.1480 O   0  0  0  0  0  0  0  0  0  0  0  0
  -26.9000  -31.3930   24.5950 C   0  0  0  0  0  0  0  0  0  0  0  0
  -28.7620  -26.5590   20.4680 C   0  0  0  0  0  0  0  0  0  0  0  0
  -25.5430  -30.4830   22.7620 C   0  0  0  0  0  3  0  0  0  0  0  0
  -26.7710  -28.9780   20.9700 C   0  0  0  0  0  0  0  0  0  0  0  0
  -28.1200  -30.3030   22.5620 C   0  0  0  0  0  2  0  0  0  0  0  0
  -28.0110  -29.0040   21.6160 C   0  0  0  0  0  0  0  0  0  0  0  0
  -28.9740  -27.8480   21.3340 C   0  0  0  0  0  3  0  0  0  0  0  0
  -27.5190  -26.8490   19.8120 C   0  0  0  0  0  3  0  0  0  0  0  0
  -26.5890  -27.9300   20.0420 C   0  0  0  0  0  3  0  0  0  0  0  0
  -25.6860  -30.0450   21.2700 C   0  0  0  0  0  2  0  0  0  0  0  0
  -26.8890  -30.7520   23.3660 N   0  0  0  0  0  0  0  0  0  0  0  0
  -25.8520  -31.6950   25.1970 O   0  0  0  0  0  0  0  0  0  0  0  0
  -24.7290  -29.4250   23.5570 C   0  0  0  0  0  0  0  0  0  0  0  0
  -23.4570  -29.1720   23.1870 N   0  0  0  0  0  0  0  0  0  0  0  0
  -25.2660  -28.8230   24.4910 O   0  0  0  0  0  0  0  0  0  0  0  0
  -23.0630  -29.7110   22.4300 H   0  0  0  0  0  0  0  0  0  0  0  0
  -20.2840  -27.4120   22.8460 C   0  0  0  0  0  0  0  0  0  0  0  0
  -22.5980  -28.1260   23.7650 C   0  0  0  0  0  3  0  0  0  0  0  0
  -23.0760  -26.7170   23.3400 C   0  0  0  0  0  2  0  0  0  0  0  0
  -22.3670  -26.1900   22.0880 C   0  0  0  0  0  2  0  0  0  0  0  0
  -20.8580  -26.1040   22.3250 C   0  0  0  0  0  2  0  0  0  0  0  0
  -21.1040  -28.3680   23.5050 C   0  0  0  0  0  0  0  0  0  0  0  0
  -20.5210  -29.5750   23.9470 C   0  0  0  0  0  3  0  0  0  0  0  0
  -19.1560  -29.8380   23.7310 C   0  0  0  0  0  3  0  0  0  0  0  0
  -18.3480  -28.8850   23.0870 C   0  0  0  0  0  3  0  0  0  0  0  0
  -18.9120  -27.6720   22.6510 C   0  0  0  0  0  3  0  0  0  0  0  0
  -28.2300  -31.7890   25.3120 C   0  0  0  0  0  3  0  0  0  0  0  0
  -28.4350  -31.0280   26.6830 C   0  0  1  0  0  0  0  0  0  0  0  0
  -27.2430  -31.1600   27.6610 C   0  0  0  0  0  1  0  0  0  0  0  0
  -28.6750  -29.5190   26.4530 C   0  0  0  0  0  1  0  0  0  0  0  0
  -29.6960  -31.5670   27.4020 C   0  0  0  0  0  1  0  0  0  0  0  0
  -28.2230  -33.2490   25.5560 N   0  0  0  0  0  0  0  0  0  0  0  0
  -28.9410  -34.1550   24.8760 C   0  0  0  0  0  0  0  0  0  0  0  0
  -29.7260  -33.8370   23.9810 O   0  0  0  0  0  0  0  0  0  0  0  0
  -27.5650  -33.5880   26.2430 H   0  0  0  0  0  0  0  0  0  0  0  0
  -27.9030  -36.3460   24.1800 C   0  0  0  0  0  1  0  0  0  0  0  0
  -28.7660  -35.6460   25.2430 C   0  0  0  0  0  3  0  0  0  0  0  0
  -30.8090  -35.9690   26.5690 C   0  0  0  0  0  1  0  0  0  0  0  0
  -30.0470  -36.3750   25.3920 N   0  0  0  0  0  0  0  0  0  0  0  0
  -29.8870  -37.3770   25.4520 H   0  0  0  0  0  0  0  0  0  0  0  0
  1  2  2  0
  1  5  1  0
  2  6  1  0
  3  4  1  0
  5  3  2  0
  6 54  1  0
  6  4  2  0
  7 15  1  0
  8 13  1  0
  9 10  1  0
  9  8  1  0
 11 10  1  0
 11 20  1  0
 11 12  1  0
 13  7  1  0
 13 12  1  0
 14  7  2  0
 15  5  1  0
 15 16  1  0
 17 18  2  0
 18 37  1  0
 19 22  1  0
 19 18  1  0
 20 21  1  0
 20 17  1  0
 21 19  2  0
 22 23  1  0
 23 24  2  0
 25 28  1  0
 25 24  1  0
 26 25  2  0
 27 26  1  0
 27 22  2  0
 28 29  1  0
 29 34  2  0
 29 30  1  0
 30 31  2  0
 31 32  1  0
 32 36  1  0
 33 32  2  0
 34 33  1  0
 35 34  1  0
 37 38  1  0
 38 40  1  0
 38 41  1  0
 39 37  2  0
 42 17  1  0
 42 43  1  0
 44 42  1  0
 45 46  1  0
 46 49  1  0
 47 49  1  0
 48  4  1  0
 48 47  1  0
 48 45  1  0
 49 50  1  0
 50 52  1  0
 51 50  1  0
 53 50  1  0
 54 56  1  0
 55 66  2  0
 56 61  1  0
 57 65  1  0
 57 67  1  0
 58 64  1  0
 58 60  1  0
 59 65  1  0
 60 59  1  0
 61 60  2  0
 62 63  1  0
 62 56  2  0
 63 58  2  0
 64 57  1  0
 65 55  1  0
 67 69  2  0
 68 67  1  0
 70 68  1  0
 71 76  1  0
 72 68  1  0
 73 72  1  0
 74 75  1  0
 74 73  1  0
 75 71  1  0
 76 72  1  0
 76 77  2  0
 78 77  1  0
 79 78  2  0
 80 71  2  0
 80 79  1  0
 81 55  1  0
 81 86  1  0
 81 82  1  0
 82 85  1  1
 82 83  1  0
 84 82  1  0
 86 89  1  0
 87 91  1  0
 87 86  1  0
 88 87  2  0
 91 90  1  0
 91 93  1  0
 93 94  1  0
 93 92  1  0
M  ISO  4   6 101   7 100  15 100  54 101
M  END
>  <TORSDO>  (20) 
F 18

>  <SCORE>  (20) 
-9.574

>  <name>  (20) 
19

>  <ligand_id>  (20) 
19

>  <original_smiles>  (20) 
[H]c1c([H])c([H])c2c(c1[H])C([H])([H])C([H])([H])C([H])([H])C2([H])N([H])C(=O)C1([H])N(C(=O)C([H])(N([H])C(=O)C([H])(N([H])C([H])([H])[H])C([H])([H])[H])C(C([H])([H])[H])(C([H])([H])[H])C([H])([H])[H])C([H])([H])c2c([H])c(Oc3c([H])c([H])c(N([H])C(=O)N4C([H])([H])C([H])([H])C([H])([H])C([H])(n5nc(-c6c([H])c([H])c(Oc7c([H])c([H])c(F)c([H])c7F)c([H])c6[H])c(C(=O)N([H])[H])c5N([H])[H])C4([H])[H])c([H])c3C3([H])C([H])([H])C([H])([H])C([H])([N+]([H])([H])[H])C3([H])[H])c([H])c([H])c2C1([H])[H]

>  <smiles>  (20) 
[H]c1c([H])c([H])c2c(c1[H])C([H])([H])C([H])([H])C([H])([H])C2([H])N([H])C(=O)C1([H])N(C(=O)C([H])(N([H])C(=O)C([H])(N([H])C([H])([H])[H])C([H])([H])[H])C(C([H])([H])[H])(C([H])([H])[H])C([H])([H])[H])C([H])([H])c2c([H])c(Oc3c([H])c([H])c(N([H])C(=O)N4C([H])([H])C([H])([H])C([H])([H])C([H])(n5nc(-c6c([H])c([H])c(Oc7c([H])c([H])c(F)c([H])c7F)c([H])c6[H])c(C(=O)N([H])[H])c5N([H])[H])C4([H])[H])c([H])c3C3([H])C([H])([H])C([H])([H])C([H])([N+]([H])([H])[H])C3([H])[H])c([H])c([H])c2C1([H])[H]

$$$$
20:0:0
     RDKit          3D

 89 97  0  0  1  0  0  0  0  0999 V2000
  -28.2850  -21.2940   20.9890 C   0  0  0  0  0  3  0  0  0  0  0  0
  -29.1020  -23.0630   19.1430 C   0  0  0  0  0  3  0  0  0  0  0  0
  -29.1160  -20.4370   20.0690 C   0  0  0  0  0  0  0  0  0  0  0  0
  -27.9240  -22.8080   20.9880 C   0  0  0  0  0  0  0  0  0  0  0  0
  -29.4680  -21.5660   19.1360 C   0  0  0  0  0  0  0  0  0  0  0  0
  -28.2840  -23.9320   20.0430 C   0  0  0  0  0  0  0  0  0  0  0  0
  -27.0970  -23.2470   22.1810 C   0  0  0  0  0  1  0  0  0  0  0  0
  -30.3830  -21.1800   17.9840 C   0  0  0  0  0  1  0  0  0  0  0  0
  -30.2790  -15.8570   20.2150 C   0  0  0  0  0  0  0  0  0  0  0  0
  -30.4270  -13.2790   19.4570 C   0  0  0  0  0  2  0  0  0  0  0  0
  -29.5710  -12.8060   18.2460 C   0  0  0  0  0  2  0  0  0  0  0  0
  -28.1500  -12.4290   18.6910 C   0  0  0  0  0  2  0  0  0  0  0  0
  -27.6010  -13.4490   19.7130 C   0  0  0  0  0  3  0  0  0  0  0  0
  -28.6050  -13.8310   20.8290 C   0  0  0  0  0  2  0  0  0  0  0  0
  -29.7660  -14.4750   20.1660 N   0  0  0  0  0  0  0  0  0  0  0  0
  -31.5160  -15.7610   20.0810 O   0  0  0  0  0  0  0  0  0  0  0  0
  -29.8470  -18.7790   20.1410 C   0  0  0  0  0  0  0  0  0  0  0  0
  -29.5250  -17.2470   20.2310 N   0  0  0  0  0  0  0  0  0  0  0  0
  -31.0680  -18.9350   20.0640 O   0  0  0  0  0  0  0  0  0  0  0  0
  -28.5280  -17.1110   20.2900 H   0  0  0  0  0  0  0  0  0  0  0  0
  -25.2270  -13.9520   20.4450 C   0  0  0  0  0  0  0  0  0  0  0  0
  -24.1730  -13.1620   20.8060 C   0  0  0  0  0  0  0  0  0  0  0  0
  -24.6620  -11.8190   20.7940 C   0  0  0  0  0  0  0  0  0  0  0  0
  -26.2850  -13.0940   20.2230 N   0  0  0  0  0  0  0  0  0  0  0  0
  -25.9600  -11.8030   20.5000 N   0  0  0  0  0  0  0  0  0  0  0  0
  -23.9470  -10.5490   20.9840 C   0  0  0  0  0  0  0  0  0  0  0  0
  -24.3630   -9.6020   21.9440 C   0  0  0  0  0  3  0  0  0  0  0  0
  -23.6420   -8.4010   22.1240 C   0  0  0  0  0  3  0  0  0  0  0  0
  -22.4920   -8.1390   21.3440 C   0  0  0  0  0  0  0  0  0  0  0  0
  -22.0940   -9.0750   20.3720 C   0  0  0  0  0  3  0  0  0  0  0  0
  -22.8160  -10.2670   20.1910 C   0  0  0  0  0  3  0  0  0  0  0  0
  -21.7440   -6.9880   21.4310 O   0  0  0  0  0  0  0  0  0  0  0  0
  -21.6550   -6.2750   22.6000 C   0  0  0  0  0  0  0  0  0  0  0  0
  -21.1260   -6.8420   23.7790 C   0  0  0  0  0  3  0  0  0  0  0  0
  -20.9870   -6.0540   24.9400 C   0  0  0  0  0  3  0  0  0  0  0  0
  -21.3670   -4.6990   24.9190 C   0  0  0  0  0  0  0  0  0  0  0  0
  -21.8880   -4.1310   23.7440 C   0  0  0  0  0  3  0  0  0  0  0  0
  -22.0280   -4.9170   22.5860 C   0  0  0  0  0  0  0  0  0  0  0  0
  -22.5120   -4.3580   21.4510 F   0  0  0  0  0  0  0  0  0  0  0  0
  -21.2270   -3.9390   26.0310 F   0  0  0  0  0  0  0  0  0  0  0  0
  -22.7660  -13.6240   21.0430 C   0  0  0  0  0  0  0  0  0  0  0  0
  -22.0350  -12.9380   21.9130 N   0  0  0  0  0  0  0  0  0  0  0  0
  -22.3240  -14.6320   20.4910 O   0  0  0  0  0  0  0  0  0  0  0  0
  -22.4060  -12.1250   22.3810 H   0  0  0  0  0  0  0  0  0  0  0  0
  -21.0890  -13.2310   22.1150 H   0  0  0  0  0  0  0  0  0  0  0  0
  -25.3680  -15.3240   20.2530 N   0  0  0  0  0  0  0  0  0  0  0  0
  -24.5830  -15.9610   20.3320 H   0  0  0  0  0  0  0  0  0  0  0  0
  -26.2000  -15.7650   19.8840 H   0  0  0  0  0  0  0  0  0  0  0  0
  -28.1810  -25.5740   20.0750 O   0  0  0  0  0  0  0  0  0  0  0  0
  -24.6470  -31.8770   23.0890 C   0  0  0  0  0  0  0  0  0  0  0  0
  -27.1670  -26.7720   20.0690 C   0  0  0  0  0  0  0  0  0  0  0  0
  -23.4570  -30.4850   21.4500 C   0  0  0  0  0  3  0  0  0  0  0  0
  -24.9000  -28.8330   20.0260 C   0  0  0  0  0  0  0  0  0  0  0  0
  -26.0360  -30.6140   21.3260 C   0  0  0  0  0  2  0  0  0  0  0  0
  -26.0960  -29.1790   20.6650 C   0  0  0  0  0  0  0  0  0  0  0  0
  -27.2080  -28.1770   20.6540 C   0  0  0  0  0  3  0  0  0  0  0  0
  -25.9380  -26.6500   19.3700 C   0  0  0  0  0  3  0  0  0  0  0  0
  -24.8610  -27.5960   19.3570 C   0  0  0  0  0  3  0  0  0  0  0  0
  -23.6940  -29.7900   20.0760 C   0  0  0  0  0  2  0  0  0  0  0  0
  -24.7380  -31.0270   22.0070 N   0  0  0  0  0  0  0  0  0  0  0  0
  -23.5550  -32.1750   23.6020 O   0  0  0  0  0  0  0  0  0  0  0  0
  -22.7410  -29.5070   22.4200 C   0  0  0  0  0  0  0  0  0  0  0  0
  -21.4070  -29.3620   22.3060 N   0  0  0  0  0  0  0  0  0  0  0  0
  -23.4000  -28.8750   23.2500 O   0  0  0  0  0  0  0  0  0  0  0  0
  -20.9240  -29.9210   21.6160 H   0  0  0  0  0  0  0  0  0  0  0  0
  -18.0130  -28.1860   22.8700 C   0  0  0  0  0  0  0  0  0  0  0  0
  -20.5820  -28.4220   23.0770 C   0  0  0  0  0  3  0  0  0  0  0  0
  -20.6520  -26.9980   22.4770 C   0  0  0  0  0  2  0  0  0  0  0  0
  -19.5250  -26.7080   21.4790 C   0  0  0  0  0  2  0  0  0  0  0  0
  -18.1600  -26.8520   22.1560 C   0  0  0  0  0  2  0  0  0  0  0  0
  -19.1480  -28.9300   23.2870 C   0  0  0  0  0  0  0  0  0  0  0  0
  -18.9530  -30.1770   23.9210 C   0  0  0  0  0  3  0  0  0  0  0  0
  -17.6560  -30.6810   24.1360 C   0  0  0  0  0  3  0  0  0  0  0  0
  -16.5360  -29.9350   23.7300 C   0  0  0  0  0  3  0  0  0  0  0  0
  -16.7160  -28.6890   23.1040 C   0  0  0  0  0  3  0  0  0  0  0  0
  -25.9100  -32.5280   23.7310 C   0  0  0  0  0  3  0  0  0  0  0  0
  -25.5780  -33.9210   24.0940 N   0  0  0  0  0  0  0  0  0  0  0  0
  -25.8850  -35.0050   23.3680 C   0  0  0  0  0  0  0  0  0  0  0  0
  -26.5330  -34.9390   22.3210 O   0  0  0  0  0  0  0  0  0  0  0  0
  -24.9940  -34.0450   24.9080 H   0  0  0  0  0  0  0  0  0  0  0  0
  -24.1350  -36.8030   23.1200 C   0  0  0  0  0  1  0  0  0  0  0  0
  -25.4030  -36.3790   23.8800 C   0  0  0  0  0  3  0  0  0  0  0  0
  -27.5470  -37.2720   24.6820 C   0  0  0  0  0  1  0  0  0  0  0  0
  -26.4230  -37.4450   23.7650 N   0  0  0  0  0  0  0  0  0  0  0  0
  -26.0120  -38.3590   23.9370 H   0  0  0  0  0  0  0  0  0  0  0  0
  -26.4230  -31.7540   25.0080 C   0  0  1  0  0  0  0  0  0  0  0  0
  -25.3280  -31.5040   26.0710 C   0  0  0  0  0  1  0  0  0  0  0  0
  -27.0170  -30.3790   24.6240 C   0  0  0  0  0  1  0  0  0  0  0  0
  -27.5670  -32.5510   25.6800 C   0  0  0  0  0  1  0  0  0  0  0  0
  2  6  1  0
  3 17  1  0
  3  1  2  0
  4  1  1  0
  4  7  1  0
  5  2  2  0
  5  3  1  0
  6 49  1  0
  6  4  2  0
  8  5  1  0
  9 18  1  0
 10 15  1  0
 11 12  1  0
 11 10  1  0
 13 12  1  0
 13 24  1  0
 13 14  1  0
 15  9  1  0
 15 14  1  0
 16  9  2  0
 17 18  1  0
 18 20  1  0
 19 17  2  0
 21 22  2  0
 22 41  1  0
 23 22  1  0
 23 26  1  0
 24 21  1  0
 24 25  1  0
 25 23  2  0
 26 27  1  0
 27 28  2  0
 29 32  1  0
 29 28  1  0
 30 29  2  0
 31 30  1  0
 31 26  2  0
 32 33  1  0
 33 34  1  0
 34 35  2  0
 36 35  1  0
 36 40  1  0
 37 36  2  0
 38 33  2  0
 38 37  1  0
 39 38  1  0
 41 42  1  0
 42 45  1  0
 42 44  1  0
 43 41  2  0
 46 47  1  0
 46 21  1  0
 48 46  1  0
 50 61  2  0
 51 49  1  0
 51 56  1  0
 52 60  1  0
 52 62  1  0
 53 59  1  0
 53 55  1  0
 54 60  1  0
 55 54  1  0
 56 55  2  0
 57 51  2  0
 58 57  1  0
 58 53  2  0
 59 52  1  0
 60 50  1  0
 62 64  2  0
 63 62  1  0
 65 63  1  0
 66 75  2  0
 66 71  1  0
 67 63  1  0
 67 71  1  0
 68 67  1  0
 69 70  1  0
 69 68  1  0
 70 66  1  0
 71 72  2  0
 72 73  1  0
 74 73  2  0
 75 74  1  0
 76 50  1  0
 76 77  1  0
 76 86  1  0
 77 80  1  0
 78 82  1  0
 78 77  1  0
 79 78  2  0
 82 81  1  0
 84 82  1  0
 84 85  1  0
 84 83  1  0
 86 89  1  1
 86 87  1  0
 88 86  1  0
M  ISO  4   6 101   9 100  18 100  49 101
M  END
>  <TORSDO>  (21) 
F 16

>  <SCORE>  (21) 
-15.559

>  <name>  (21) 
20

>  <ligand_id>  (21) 
20

>  <original_smiles>  (21) 
[H]c1c([H])c([H])c2c(c1[H])C([H])([H])C([H])([H])C([H])([H])C2([H])N([H])C(=O)C1([H])N(C(=O)C([H])(N([H])C(=O)C([H])(N([H])C([H])([H])[H])C([H])([H])[H])C(C([H])([H])[H])(C([H])([H])[H])C([H])([H])[H])C([H])([H])c2c([H])c(Oc3c([H])c(C([H])([H])[H])c(C(=O)N([H])C(=O)N4C([H])([H])C([H])([H])C([H])([H])C([H])(n5nc(-c6c([H])c([H])c(Oc7c([H])c([H])c(F)c([H])c7F)c([H])c6[H])c(C(=O)N([H])[H])c5N([H])[H])C4([H])[H])c([H])c3C([H])([H])[H])c([H])c([H])c2C1([H])[H]

>  <smiles>  (21) 
[H]c1c([H])c([H])c2c(c1[H])C([H])([H])C([H])([H])C([H])([H])C2([H])N([H])C(=O)C1([H])N(C(=O)C([H])(N([H])C(=O)C([H])(N([H])C([H])([H])[H])C([H])([H])[H])C(C([H])([H])[H])(C([H])([H])[H])C([H])([H])[H])C([H])([H])c2c([H])c(Oc3c([H])c(C([H])([H])[H])c(C(=O)N([H])C(=O)N4C([H])([H])C([H])([H])C([H])([H])C([H])(n5nc(-c6c([H])c([H])c(Oc7c([H])c([H])c(F)c([H])c7F)c([H])c6[H])c(C(=O)N([H])[H])c5N([H])[H])C4([H])[H])c([H])c3C([H])([H])[H])c([H])c([H])c2C1([H])[H]

$$$$
21:0:0
     RDKit          3D

 89 98  0  0  1  0  0  0  0  0999 V2000
  -28.5560  -19.9390   21.6360 C   0  0  0  0  0  2  0  0  0  0  0  0
  -28.7910  -18.5460   20.9710 C   0  0  0  0  0  2  0  0  0  0  0  0
  -27.9260  -21.0650   20.7510 C   0  0  0  0  0  2  0  0  0  0  0  0
  -29.9490  -22.5300   20.2940 C   0  0  0  0  0  2  0  0  0  0  0  0
  -29.3770  -20.0010   18.9710 C   0  0  0  0  0  2  0  0  0  0  0  0
  -29.6110  -24.0990   20.1700 C   0  0  0  0  0  2  0  0  0  0  0  0
  -28.1860  -23.0440   18.9240 C   0  0  0  0  0  2  0  0  0  0  0  0
  -29.8200  -18.4750   19.8090 C   0  0  0  0  0  3  0  0  0  0  0  0
  -28.8700  -21.6020   19.6470 C   0  0  1  0  0  0  0  0  0  0  0  0
  -28.2170  -24.3950   19.7750 N   0  0  0  0  0  0  0  0  0  0  0  0
  -30.7210  -15.5940   19.3580 C   0  0  0  0  0  0  0  0  0  0  0  0
  -30.7240  -13.1070   18.5510 C   0  0  0  0  0  2  0  0  0  0  0  0
  -29.6800  -12.7740   17.4530 C   0  0  0  0  0  2  0  0  0  0  0  0
  -28.3060  -12.4710   18.0770 C   0  0  0  0  0  2  0  0  0  0  0  0
  -27.9400  -13.4880   19.1850 C   0  0  0  0  0  3  0  0  0  0  0  0
  -29.0970  -13.7270   20.1740 C   0  0  0  0  0  2  0  0  0  0  0  0
  -30.2090  -14.2630   19.3740 N   0  0  0  0  0  0  0  0  0  0  0  0
  -31.9360  -15.6260   19.1070 O   0  0  0  0  0  0  0  0  0  0  0  0
  -29.8710  -16.8270   19.4090 N   0  0  0  0  0  0  0  0  0  0  0  0
  -28.9190  -16.4920   19.3650 H   0  0  0  0  0  0  0  0  0  0  0  0
  -25.7150  -14.0460   20.2940 C   0  0  0  0  0  0  0  0  0  0  0  0
  -24.6910  -13.2670   20.7510 C   0  0  0  0  0  0  0  0  0  0  0  0
  -25.1100  -11.9140   20.5720 C   0  0  0  0  0  0  0  0  0  0  0  0
  -26.6890  -13.1660   19.8530 N   0  0  0  0  0  0  0  0  0  0  0  0
  -26.3470  -11.8720   20.0890 N   0  0  0  0  0  0  0  0  0  0  0  0
  -24.3780  -10.6560   20.7760 C   0  0  0  0  0  0  0  0  0  0  0  0
  -24.7890   -9.7100   21.7400 C   0  0  0  0  0  3  0  0  0  0  0  0
  -24.0560   -8.5200   21.9310 C   0  0  0  0  0  3  0  0  0  0  0  0
  -22.8970   -8.2680   21.1560 C   0  0  0  0  0  0  0  0  0  0  0  0
  -22.5060   -9.2030   20.1820 C   0  0  0  0  0  3  0  0  0  0  0  0
  -23.2400  -10.3850   19.9900 C   0  0  0  0  0  3  0  0  0  0  0  0
  -22.1360   -7.1290   21.2570 O   0  0  0  0  0  0  0  0  0  0  0  0
  -21.8710   -6.5440   22.4690 C   0  0  0  0  0  0  0  0  0  0  0  0
  -21.1780   -7.2290   23.4910 C   0  0  0  0  0  3  0  0  0  0  0  0
  -20.8640   -6.5690   24.6950 C   0  0  0  0  0  3  0  0  0  0  0  0
  -21.2320   -5.2220   24.8770 C   0  0  0  0  0  0  0  0  0  0  0  0
  -21.9170   -4.5350   23.8570 C   0  0  0  0  0  3  0  0  0  0  0  0
  -22.2310   -5.1950   22.6560 C   0  0  0  0  0  0  0  0  0  0  0  0
  -22.8730   -4.5220   21.6700 F   0  0  0  0  0  0  0  0  0  0  0  0
  -20.9250   -4.5830   26.0290 F   0  0  0  0  0  0  0  0  0  0  0  0
  -23.3550  -13.7540   21.2330 C   0  0  0  0  0  0  0  0  0  0  0  0
  -22.7390  -13.0300   22.1590 N   0  0  0  0  0  0  0  0  0  0  0  0
  -22.8750  -14.8100   20.8230 O   0  0  0  0  0  0  0  0  0  0  0  0
  -23.1440  -12.1750   22.5090 H   0  0  0  0  0  0  0  0  0  0  0  0
  -21.8480  -13.3350   22.5250 H   0  0  0  0  0  0  0  0  0  0  0  0
  -25.8910  -15.4220   20.1830 N   0  0  0  0  0  0  0  0  0  0  0  0
  -25.1600  -16.0780   20.4330 H   0  0  0  0  0  0  0  0  0  0  0  0
  -26.6850  -15.8680   19.7470 H   0  0  0  0  0  0  0  0  0  0  0  0
  -28.1740  -25.9870   19.1240 O   0  0  0  0  0  0  0  0  0  0  0  0
  -24.6740  -31.6250   22.9190 C   0  0  0  0  0  0  0  0  0  0  0  0
  -27.1340  -27.0360   19.3780 C   0  0  0  0  0  0  0  0  0  0  0  0
  -23.4310  -30.3730   21.2080 C   0  0  0  0  0  3  0  0  0  0  0  0
  -24.8300  -28.9100   19.5980 C   0  0  0  0  0  0  0  0  0  0  0  0
  -25.9900  -30.6130   20.9850 C   0  0  0  0  0  2  0  0  0  0  0  0
  -26.0420  -29.2600   20.2090 C   0  0  0  0  0  0  0  0  0  0  0  0
  -27.1880  -28.3460   20.0780 C   0  0  0  0  0  3  0  0  0  0  0  0
  -25.8910  -26.8490   18.7370 C   0  0  0  0  0  3  0  0  0  0  0  0
  -24.7780  -27.7240   18.8460 C   0  0  0  0  0  3  0  0  0  0  0  0
  -23.6130  -29.8190   19.7680 C   0  0  0  0  0  2  0  0  0  0  0  0
  -24.7240  -30.8940   21.7590 N   0  0  0  0  0  0  0  0  0  0  0  0
  -23.6010  -31.8520   23.5050 O   0  0  0  0  0  0  0  0  0  0  0  0
  -22.7830  -29.2830   22.1050 C   0  0  0  0  0  0  0  0  0  0  0  0
  -21.4510  -29.1090   22.0130 N   0  0  0  0  0  0  0  0  0  0  0  0
  -23.4880  -28.5970   22.8500 O   0  0  0  0  0  0  0  0  0  0  0  0
  -20.9360  -29.7200   21.3960 H   0  0  0  0  0  0  0  0  0  0  0  0
  -18.0960  -27.8600   22.6050 C   0  0  0  0  0  0  0  0  0  0  0  0
  -20.6710  -28.0900   22.7210 C   0  0  0  0  0  3  0  0  0  0  0  0
  -20.7190  -26.7360   21.9750 C   0  0  0  0  0  2  0  0  0  0  0  0
  -19.5490  -26.5300   21.0110 C   0  0  0  0  0  2  0  0  0  0  0  0
  -18.2150  -26.6000   21.7640 C   0  0  0  0  0  2  0  0  0  0  0  0
  -19.2480  -28.5660   23.0400 C   0  0  0  0  0  0  0  0  0  0  0  0
  -19.0800  -29.7480   23.7950 C   0  0  0  0  0  3  0  0  0  0  0  0
  -17.7940  -30.2220   24.1150 C   0  0  0  0  0  3  0  0  0  0  0  0
  -16.6570  -29.5110   23.6920 C   0  0  0  0  0  3  0  0  0  0  0  0
  -16.8100  -28.3320   22.9400 C   0  0  0  0  0  3  0  0  0  0  0  0
  -25.9590  -32.2270   23.5620 C   0  0  0  0  0  3  0  0  0  0  0  0
  -25.6410  -33.5900   24.0250 N   0  0  0  0  0  0  0  0  0  0  0  0
  -25.9340  -34.7160   23.3620 C   0  0  0  0  0  0  0  0  0  0  0  0
  -26.5620  -34.7160   22.3000 O   0  0  0  0  0  0  0  0  0  0  0  0
  -25.0770  -33.6590   24.8590 H   0  0  0  0  0  0  0  0  0  0  0  0
  -24.1710  -36.5130   23.2650 C   0  0  0  0  0  1  0  0  0  0  0  0
  -25.4600  -36.0530   23.9680 C   0  0  0  0  0  3  0  0  0  0  0  0
  -27.6180  -36.9060   24.7730 C   0  0  0  0  0  1  0  0  0  0  0  0
  -26.4730  -37.1280   23.8930 N   0  0  0  0  0  0  0  0  0  0  0  0
  -26.0640  -38.0280   24.1280 H   0  0  0  0  0  0  0  0  0  0  0  0
  -26.5120  -31.3630   24.7640 C   0  0  1  0  0  0  0  0  0  0  0  0
  -25.4450  -31.0300   25.8360 C   0  0  0  0  0  1  0  0  0  0  0  0
  -27.1000  -30.0260   24.2600 C   0  0  0  0  0  1  0  0  0  0  0  0
  -27.6690  -32.1170   25.4610 C   0  0  0  0  0  1  0  0  0  0  0  0
  2  1  1  0
  3  1  1  0
  9  5  1  6
  5  8  1  0
  6  4  1  0
  7 10  1  0
  8 19  1  0
  8  2  1  0
  9  7  1  0
  9  4  1  0
  9  3  1  0
 10  6  1  0
 11 17  1  0
 11 19  1  0
 12 17  1  0
 13 14  1  0
 13 12  1  0
 15 14  1  0
 15 24  1  0
 15 16  1  0
 17 16  1  0
 18 11  2  0
 20 19  1  0
 21 22  2  0
 22 41  1  0
 23 22  1  0
 23 26  1  0
 24 25  1  0
 24 21  1  0
 25 23  2  0
 26 27  1  0
 27 28  2  0
 29 32  1  0
 29 28  1  0
 30 29  2  0
 31 30  1  0
 31 26  2  0
 32 33  1  0
 33 38  2  0
 33 34  1  0
 34 35  2  0
 35 36  1  0
 36 40  1  0
 37 36  2  0
 38 37  1  0
 39 38  1  0
 41 42  1  0
 42 44  1  0
 42 45  1  0
 43 41  2  0
 46 21  1  0
 46 47  1  0
 48 46  1  0
 49 51  1  0
 49 10  1  0
 50 61  2  0
 51 56  1  0
 52 60  1  0
 52 62  1  0
 53 59  1  0
 53 55  1  0
 54 60  1  0
 55 54  1  0
 56 55  2  0
 57 58  1  0
 57 51  2  0
 58 53  2  0
 59 52  1  0
 60 50  1  0
 62 64  2  0
 63 62  1  0
 65 63  1  0
 66 75  2  0
 66 71  1  0
 67 63  1  0
 67 71  1  0
 68 67  1  0
 69 70  1  0
 69 68  1  0
 70 66  1  0
 71 72  2  0
 72 73  1  0
 74 73  2  0
 75 74  1  0
 76 50  1  0
 76 77  1  0
 76 86  1  0
 77 80  1  0
 78 82  1  0
 78 77  1  0
 79 78  2  0
 82 81  1  0
 84 82  1  0
 84 85  1  0
 84 83  1  0
 86 89  1  1
 86 87  1  0
 88 86  1  0
M  ISO  4  10 101  11 100  19 100  49 101
M  END
>  <TORSDO>  (22) 
F 16

>  <SCORE>  (22) 
-12.954

>  <name>  (22) 
21

>  <ligand_id>  (22) 
21

>  <original_smiles>  (22) 
[H]c1c([H])c([H])c2c(c1[H])C([H])([H])C([H])([H])C([H])([H])C2([H])N([H])C(=O)C1([H])N(C(=O)C([H])(N([H])C(=O)C([H])(N([H])C([H])([H])[H])C([H])([H])[H])C(C([H])([H])[H])(C([H])([H])[H])C([H])([H])[H])C([H])([H])c2c([H])c(ON3C([H])([H])C([H])([H])C4(C3([H])[H])C([H])([H])C([H])([H])C([H])([H])C([H])(N([H])C(=O)N3C([H])([H])C([H])([H])C([H])([H])C([H])(n5nc(-c6c([H])c([H])c(Oc7c([H])c([H])c(F)c([H])c7F)c([H])c6[H])c(C(=O)N([H])[H])c5N([H])[H])C3([H])[H])C4([H])[H])c([H])c([H])c2C1([H])[H]

>  <smiles>  (22) 
[H]c1c([H])c([H])c2c(c1[H])C([H])([H])C([H])([H])C([H])([H])C2([H])N([H])C(=O)C1([H])N(C(=O)C([H])(N([H])C(=O)C([H])(N([H])C([H])([H])[H])C([H])([H])[H])C(C([H])([H])[H])(C([H])([H])[H])C([H])([H])[H])C([H])([H])c2c([H])c(ON3C([H])([H])C([H])([H])C4(C3([H])[H])C([H])([H])C([H])([H])C([H])([H])C([H])(N([H])C(=O)N3C([H])([H])C([H])([H])C([H])([H])C([H])(n5nc(-c6c([H])c([H])c(Oc7c([H])c([H])c(F)c([H])c7F)c([H])c6[H])c(C(=O)N([H])[H])c5N([H])[H])C3([H])[H])C4([H])[H])c([H])c([H])c2C1([H])[H]

$$$$
22:0:0
     RDKit          3D

 92100  0  0  1  0  0  0  0  0999 V2000
  -30.3320  -17.3430   21.8260 C   0  0  0  0  0  3  0  0  0  0  0  0
  -29.6120  -18.1560   19.6880 C   0  0  0  0  0  3  0  0  0  0  0  0
  -30.0720  -16.9270   20.4950 C   0  0  0  0  0  0  0  0  0  0  0  0
  -30.2680  -18.6890   22.3310 C   0  0  0  0  0  0  0  0  0  0  0  0
  -29.4120  -19.6180   20.1370 C   0  0  0  0  0  0  0  0  0  0  0  0
  -29.7880  -19.7730   21.5040 C   0  0  0  0  0  0  0  0  0  0  0  0
  -30.6010  -15.3730   20.0890 C   0  0  0  0  0  0  0  0  0  0  0  0
  -30.5320  -12.8430   19.4920 C   0  0  0  0  0  2  0  0  0  0  0  0
  -29.6430  -12.5940   18.2490 C   0  0  0  0  0  2  0  0  0  0  0  0
  -28.1770  -12.3770   18.6630 C   0  0  0  0  0  2  0  0  0  0  0  0
  -27.7340  -13.4120   19.7340 C   0  0  0  0  0  3  0  0  0  0  0  0
  -28.7730  -13.6350   20.8590 C   0  0  0  0  0  2  0  0  0  0  0  0
  -30.0290  -14.0680   20.2290 N   0  0  0  0  0  0  0  0  0  0  0  0
  -31.7450  -15.3110   19.6200 O   0  0  0  0  0  0  0  0  0  0  0  0
  -25.4120  -14.0710   20.5380 C   0  0  0  0  0  0  0  0  0  0  0  0
  -24.3240  -13.3430   20.9380 C   0  0  0  0  0  0  0  0  0  0  0  0
  -24.7280  -11.9720   20.8890 C   0  0  0  0  0  0  0  0  0  0  0  0
  -26.4040  -13.1470   20.2650 N   0  0  0  0  0  0  0  0  0  0  0  0
  -26.0070  -11.8760   20.5380 N   0  0  0  0  0  0  0  0  0  0  0  0
  -23.9450  -10.7460   21.1080 C   0  0  0  0  0  0  0  0  0  0  0  0
  -24.3820   -9.7380   21.9980 C   0  0  0  0  0  3  0  0  0  0  0  0
  -23.6030   -8.5790   22.2020 C   0  0  0  0  0  3  0  0  0  0  0  0
  -22.3720   -8.4200   21.5210 C   0  0  0  0  0  0  0  0  0  0  0  0
  -21.9580   -9.4110   20.6120 C   0  0  0  0  0  3  0  0  0  0  0  0
  -22.7360  -10.5640   20.4080 C   0  0  0  0  0  3  0  0  0  0  0  0
  -21.5630   -7.3140   21.6330 O   0  0  0  0  0  0  0  0  0  0  0  0
  -21.5950   -6.5070   22.7430 C   0  0  0  0  0  0  0  0  0  0  0  0
  -21.3400   -7.0120   24.0360 C   0  0  0  0  0  3  0  0  0  0  0  0
  -21.3180   -6.1380   25.1400 C   0  0  0  0  0  3  0  0  0  0  0  0
  -21.5360   -4.7590   24.9550 C   0  0  0  0  0  0  0  0  0  0  0  0
  -21.7770   -4.2530   23.6620 C   0  0  0  0  0  3  0  0  0  0  0  0
  -21.8060   -5.1250   22.5600 C   0  0  0  0  0  0  0  0  0  0  0  0
  -22.0240   -4.6320   21.3180 F   0  0  0  0  0  0  0  0  0  0  0  0
  -21.5080   -3.9190   26.0140 F   0  0  0  0  0  0  0  0  0  0  0  0
  -22.9640  -13.8840   21.2470 C   0  0  0  0  0  0  0  0  0  0  0  0
  -22.2380  -13.2280   22.1450 N   0  0  0  0  0  0  0  0  0  0  0  0
  -22.5540  -14.9190   20.7260 O   0  0  0  0  0  0  0  0  0  0  0  0
  -22.5950  -12.4010   22.5960 H   0  0  0  0  0  0  0  0  0  0  0  0
  -21.3140  -13.5610   22.3840 H   0  0  0  0  0  0  0  0  0  0  0  0
  -25.6350  -15.4320   20.3560 N   0  0  0  0  0  0  0  0  0  0  0  0
  -24.9150  -16.1270   20.5130 H   0  0  0  0  0  0  0  0  0  0  0  0
  -26.5030  -15.8280   20.0160 H   0  0  0  0  0  0  0  0  0  0  0  0
  -30.7870  -18.8680   23.7610 C   0  0  0  0  0  0  0  0  0  0  0  0
  -31.3230  -17.9440   24.3860 O   0  0  0  0  0  0  0  0  0  0  0  0
  -31.7260  -21.2570   23.9970 C   0  0  0  0  0  1  0  0  0  0  0  0
  -30.7230  -20.2110   24.5200 C   0  0  0  0  0  2  0  0  0  0  0  0
  -29.6710  -21.0330   21.9970 O   0  0  0  0  0  0  0  0  0  0  0  0
  -29.3910  -21.6450   21.3280 H   0  0  0  0  0  0  0  0  0  0  0  0
  -28.7630  -21.0270   19.3040 C   0  0  0  0  0  2  0  0  0  0  0  0
  -28.9740  -22.8160   19.4490 C   0  0  0  0  0  3  0  0  0  0  0  0
  -27.9670  -24.2420   19.0090 C   0  0  0  0  0  3  0  0  0  0  0  0
  -28.1710  -25.8720   19.0330 O   0  0  0  0  0  0  0  0  0  0  0  0
  -24.7770  -31.4500   22.7530 C   0  0  0  0  0  0  0  0  0  0  0  0
  -27.1310  -26.9320   19.1230 C   0  0  0  0  0  0  0  0  0  0  0  0
  -23.4610  -30.1670   21.1170 C   0  0  0  0  0  3  0  0  0  0  0  0
  -24.7980  -28.7300   19.4290 C   0  0  0  0  0  0  0  0  0  0  0  0
  -25.9900  -30.4650   20.7510 C   0  0  0  0  0  2  0  0  0  0  0  0
  -26.0280  -29.1200   19.9750 C   0  0  0  0  0  0  0  0  0  0  0  0
  -27.1870  -28.2430   19.7990 C   0  0  0  0  0  3  0  0  0  0  0  0
  -25.8670  -26.6870   18.5440 C   0  0  0  0  0  3  0  0  0  0  0  0
  -24.7410  -27.5360   18.6930 C   0  0  0  0  0  3  0  0  0  0  0  0
  -23.5700  -29.6090   19.6720 C   0  0  0  0  0  2  0  0  0  0  0  0
  -24.7700  -30.7180   21.5940 N   0  0  0  0  0  0  0  0  0  0  0  0
  -23.7370  -31.6660   23.3960 O   0  0  0  0  0  0  0  0  0  0  0  0
  -22.8770  -29.0760   22.0530 C   0  0  0  0  0  0  0  0  0  0  0  0
  -21.5450  -28.8840   22.0290 N   0  0  0  0  0  0  0  0  0  0  0  0
  -23.6300  -28.4070   22.7680 O   0  0  0  0  0  0  0  0  0  0  0  0
  -20.9830  -29.4760   21.4300 H   0  0  0  0  0  0  0  0  0  0  0  0
  -18.2570  -27.4970   22.6840 C   0  0  0  0  0  0  0  0  0  0  0  0
  -20.8150  -27.8630   22.7890 C   0  0  0  0  0  3  0  0  0  0  0  0
  -20.9350  -26.4770   22.1170 C   0  0  0  0  0  2  0  0  0  0  0  0
  -19.7810  -26.1680   21.1590 C   0  0  0  0  0  2  0  0  0  0  0  0
  -18.4430  -26.2040   21.9030 C   0  0  0  0  0  2  0  0  0  0  0  0
  -19.3720  -28.2830   23.0860 C   0  0  0  0  0  0  0  0  0  0  0  0
  -19.1400  -29.4870   23.7870 C   0  0  0  0  0  3  0  0  0  0  0  0
  -17.8290  -29.9100   24.0790 C   0  0  0  0  0  3  0  0  0  0  0  0
  -16.7320  -29.1220   23.6900 C   0  0  0  0  0  3  0  0  0  0  0  0
  -16.9470  -27.9170   22.9990 C   0  0  0  0  0  3  0  0  0  0  0  0
  -26.0920  -32.0680   23.3210 C   0  0  0  0  0  3  0  0  0  0  0  0
  -25.7570  -33.3730   23.9220 N   0  0  0  0  0  0  0  0  0  0  0  0
  -26.0160  -34.5640   23.3640 C   0  0  0  0  0  0  0  0  0  0  0  0
  -26.6290  -34.6820   22.2980 O   0  0  0  0  0  0  0  0  0  0  0  0
  -25.2060  -33.3490   24.7680 H   0  0  0  0  0  0  0  0  0  0  0  0
  -24.2400  -36.3450   23.4380 C   0  0  0  0  0  1  0  0  0  0  0  0
  -25.5240  -35.8250   24.1010 C   0  0  0  0  0  3  0  0  0  0  0  0
  -27.6770  -36.5990   25.0010 C   0  0  0  0  0  1  0  0  0  0  0  0
  -26.5320  -36.9100   24.1500 N   0  0  0  0  0  0  0  0  0  0  0  0
  -26.1120  -37.7740   24.4830 H   0  0  0  0  0  0  0  0  0  0  0  0
  -26.8040  -31.1430   24.3860 C   0  0  1  0  0  0  0  0  0  0  0  0
  -25.8750  -30.6720   25.5290 C   0  0  0  0  0  1  0  0  0  0  0  0
  -27.3880  -29.8780   23.7140 C   0  0  0  0  0  1  0  0  0  0  0  0
  -28.0050  -31.8930   25.0140 C   0  0  0  0  0  1  0  0  0  0  0  0
  1  4  1  0
  2  5  2  0
  2  3  1  0
  3  1  2  0
  4 43  1  0
  5  6  1  0
  6 47  1  0
  6  4  2  0
  7 13  1  0
  7  3  1  0
  8 13  1  0
  9 10  1  0
  9  8  1  0
 11 10  1  0
 11 18  1  0
 11 12  1  0
 13 12  1  0
 14  7  2  0
 15 16  2  0
 16 35  1  0
 17 16  1  0
 17 20  1  0
 18 15  1  0
 18 19  1  0
 19 17  2  0
 20 21  1  0
 21 22  2  0
 23 26  1  0
 23 22  1  0
 24 23  2  0
 25 24  1  0
 25 20  2  0
 26 27  1  0
 27 28  1  0
 28 29  2  0
 30 29  1  0
 30 34  1  0
 31 30  2  0
 32 27  2  0
 32 31  1  0
 33 32  1  0
 35 36  1  0
 36 39  1  0
 36 38  1  0
 37 35  2  0
 40 41  1  0
 40 15  1  0
 42 40  1  0
 43 44  2  0
 43 46  1  0
 45 46  1  0
 48 47  1  0
 49 50  1  0
 49  5  1  0
 51 52  1  0
 51 50  2  0
 52 54  1  0
 53 64  2  0
 54 59  1  0
 55 63  1  0
 55 65  1  0
 56 62  1  0
 56 58  1  0
 57 63  1  0
 58 57  1  0
 59 58  2  0
 60 61  1  0
 60 54  2  0
 61 56  2  0
 62 55  1  0
 63 53  1  0
 65 67  2  0
 66 65  1  0
 68 66  1  0
 69 78  2  0
 69 74  1  0
 70 66  1  0
 70 74  1  0
 71 70  1  0
 72 73  1  0
 72 71  1  0
 73 69  1  0
 74 75  2  0
 75 76  1  0
 77 76  2  0
 78 77  1  0
 79 53  1  0
 79 80  1  0
 79 89  1  0
 80 83  1  0
 81 80  1  0
 81 85  1  0
 82 81  2  0
 85 84  1  0
 85 87  1  0
 87 88  1  0
 87 86  1  0
 89 92  1  1
 89 90  1  0
 91 89  1  0
M  ISO  4   3 100   7 100  51 101  52 101
M  END
>  <TORSDO>  (23) 
F 22

>  <SCORE>  (23) 
-11.225

>  <name>  (23) 
22

>  <ligand_id>  (23) 
22

>  <original_smiles>  (23) 
[H]Oc1c(C(=O)C([H])([H])C([H])([H])[H])c([H])c(C(=O)N2C([H])([H])C([H])([H])C([H])([H])C([H])(n3nc(-c4c([H])c([H])c(Oc5c([H])c([H])c(F)c([H])c5F)c([H])c4[H])c(C(=O)N([H])[H])c3N([H])[H])C2([H])[H])c([H])c1C([H])([H])C([H])([H])C([H])([H])Oc1c([H])c([H])c2c(c1[H])C([H])([H])N(C(=O)C([H])(N([H])C(=O)C([H])(N([H])C([H])([H])[H])C([H])([H])[H])C(C([H])([H])[H])(C([H])([H])[H])C([H])([H])[H])C([H])(C(=O)N([H])C1([H])c3c([H])c([H])c([H])c([H])c3C([H])([H])C([H])([H])C1([H])[H])C2([H])[H]

>  <smiles>  (23) 
[H]Oc1c(C(=O)C([H])([H])C([H])([H])[H])c([H])c(C(=O)N2C([H])([H])C([H])([H])C([H])([H])C([H])(n3nc(-c4c([H])c([H])c(Oc5c([H])c([H])c(F)c([H])c5F)c([H])c4[H])c(C(=O)N([H])[H])c3N([H])[H])C2([H])[H])c([H])c1C([H])([H])C([H])([H])C([H])([H])Oc1c([H])c([H])c2c(c1[H])C([H])([H])N(C(=O)C([H])(N([H])C(=O)C([H])(N([H])C([H])([H])[H])C([H])([H])[H])C(C([H])([H])[H])(C([H])([H])[H])C([H])([H])[H])C([H])(C(=O)N([H])C1([H])c3c([H])c([H])c([H])c([H])c3C([H])([H])C([H])([H])C1([H])[H])C2([H])[H]

$$$$
23:0:0
     RDKit          3D

 91100  0  0  1  0  0  0  0  0999 V2000
  -26.8010  -23.0900   21.3760 C   0  0  0  0  0  3  0  0  0  0  0  0
  -27.5970  -22.0250   20.8990 C   0  0  0  0  0  3  0  0  0  0  0  0
  -27.0830  -24.4490   21.0980 C   0  0  0  0  0  3  0  0  0  0  0  0
  -28.9980  -23.6970   19.8350 C   0  0  0  0  0  3  0  0  0  0  0  0
  -28.7570  -22.2460   20.1300 C   0  0  0  0  0  0  0  0  0  0  0  0
  -28.1680  -24.8590   20.2870 C   0  0  0  0  0  0  0  0  0  0  0  0
  -28.3480  -26.3130   20.0570 O   0  0  0  0  0  0  0  0  0  0  0  0
  -24.6020  -31.9030   23.1720 C   0  0  0  0  0  0  0  0  0  0  0  0
  -27.2830  -27.2980   20.0460 C   0  0  0  0  0  0  0  0  0  0  0  0
  -23.4350  -30.5160   21.5010 C   0  0  0  0  0  3  0  0  0  0  0  0
  -24.9200  -29.0040   20.0430 C   0  0  0  0  0  0  0  0  0  0  0  0
  -25.9830  -30.8350   21.3500 C   0  0  0  0  0  2  0  0  0  0  0  0
  -26.0890  -29.4560   20.6710 C   0  0  0  0  0  0  0  0  0  0  0  0
  -27.2690  -28.6180   20.6630 C   0  0  0  0  0  3  0  0  0  0  0  0
  -26.0940  -26.9630   19.3640 C   0  0  0  0  0  3  0  0  0  0  0  0
  -24.9350  -27.7710   19.3760 C   0  0  0  0  0  3  0  0  0  0  0  0
  -23.6740  -29.8750   20.1080 C   0  0  0  0  0  2  0  0  0  0  0  0
  -24.6930  -31.1070   22.0630 N   0  0  0  0  0  0  0  0  0  0  0  0
  -23.5100  -32.1510   23.7050 O   0  0  0  0  0  0  0  0  0  0  0  0
  -22.7790  -29.4730   22.4400 C   0  0  0  0  0  0  0  0  0  0  0  0
  -21.4570  -29.2640   22.2980 N   0  0  0  0  0  0  0  0  0  0  0  0
  -23.4600  -28.8550   23.2610 O   0  0  0  0  0  0  0  0  0  0  0  0
  -20.9620  -29.8160   21.6110 H   0  0  0  0  0  0  0  0  0  0  0  0
  -18.1170  -27.9260   22.7200 C   0  0  0  0  0  0  0  0  0  0  0  0
  -20.6570  -28.2920   23.0470 C   0  0  0  0  0  3  0  0  0  0  0  0
  -20.8290  -26.8680   22.4680 C   0  0  0  0  0  2  0  0  0  0  0  0
  -19.7630  -26.5050   21.4280 C   0  0  0  0  0  2  0  0  0  0  0  0
  -18.3630  -26.5900   22.0410 C   0  0  0  0  0  2  0  0  0  0  0  0
  -19.1930  -28.7320   23.1780 C   0  0  0  0  0  0  0  0  0  0  0  0
  -18.9070  -29.9800   23.7750 C   0  0  0  0  0  3  0  0  0  0  0  0
  -17.5790  -30.4230   23.9160 C   0  0  0  0  0  3  0  0  0  0  0  0
  -16.5170  -29.6150   23.4730 C   0  0  0  0  0  3  0  0  0  0  0  0
  -16.7870  -28.3680   22.8810 C   0  0  0  0  0  3  0  0  0  0  0  0
  -25.8650  -32.5530   23.8140 C   0  0  0  0  0  3  0  0  0  0  0  0
  -25.5300  -33.9430   24.1570 N   0  0  0  0  0  0  0  0  0  0  0  0
  -25.8630  -35.0140   23.4240 C   0  0  0  0  0  0  0  0  0  0  0  0
  -26.5530  -34.9340   22.4040 O   0  0  0  0  0  0  0  0  0  0  0  0
  -24.9220  -34.0780   24.9510 H   0  0  0  0  0  0  0  0  0  0  0  0
  -24.1300  -36.8020   23.0560 C   0  0  0  0  0  1  0  0  0  0  0  0
  -25.3510  -36.3900   23.8950 C   0  0  0  0  0  3  0  0  0  0  0  0
  -27.4560  -37.2750   24.8020 C   0  0  0  0  0  1  0  0  0  0  0  0
  -26.3780  -37.4540   23.8340 N   0  0  0  0  0  0  0  0  0  0  0  0
  -25.9590  -38.3670   23.9910 H   0  0  0  0  0  0  0  0  0  0  0  0
  -26.3770  -31.7810   25.0940 C   0  0  1  0  0  0  0  0  0  0  0  0
  -25.2740  -31.5230   26.1470 C   0  0  0  0  0  1  0  0  0  0  0  0
  -26.9850  -30.4130   24.7060 C   0  0  0  0  0  1  0  0  0  0  0  0
  -27.5070  -32.5870   25.7750 C   0  0  0  0  0  1  0  0  0  0  0  0
  -29.6320  -20.9050   19.6710 C   0  0  0  0  0  2  0  0  0  0  0  0
  -31.3090  -18.7940   21.7760 C   0  0  0  0  0  2  0  0  0  0  0  0
  -29.8410  -19.2440   21.7050 C   0  0  0  0  0  2  0  0  0  0  0  0
  -31.6880  -18.2570   20.3890 C   0  0  0  0  0  2  0  0  0  0  0  0
  -29.4640  -19.2910   20.2180 C   0  0  0  0  0  3  0  0  0  0  0  0
  -30.3640  -17.9550   19.6770 C   0  0  0  0  0  3  0  0  0  0  0  0
  -30.7830  -15.2120   19.7610 C   0  0  0  0  0  0  0  0  0  0  0  0
  -30.6550  -12.8110   18.9470 C   0  0  0  0  0  2  0  0  0  0  0  0
  -29.6550  -12.6730   17.7770 C   0  0  0  0  0  2  0  0  0  0  0  0
  -28.2280  -12.4460   18.3080 C   0  0  0  0  0  2  0  0  0  0  0  0
  -27.8640  -13.4200   19.4590 C   0  0  0  0  0  3  0  0  0  0  0  0
  -28.9830  -13.5280   20.5170 C   0  0  0  0  0  2  0  0  0  0  0  0
  -30.2020  -13.9430   19.8100 N   0  0  0  0  0  0  0  0  0  0  0  0
  -31.9610  -15.2630   19.3940 O   0  0  0  0  0  0  0  0  0  0  0  0
  -30.0220  -16.4140   19.9200 N   0  0  0  0  0  0  0  0  0  0  0  0
  -29.0650  -16.2430   20.1890 H   0  0  0  0  0  0  0  0  0  0  0  0
  -25.5590  -13.9810   20.4160 C   0  0  0  0  0  0  0  0  0  0  0  0
  -24.5170  -13.1990   20.8320 C   0  0  0  0  0  0  0  0  0  0  0  0
  -24.9600  -11.8470   20.6990 C   0  0  0  0  0  0  0  0  0  0  0  0
  -26.5680  -13.1070   20.0500 N   0  0  0  0  0  0  0  0  0  0  0  0
  -26.2230  -11.8140   20.2870 N   0  0  0  0  0  0  0  0  0  0  0  0
  -24.2330  -10.5840   20.8860 C   0  0  0  0  0  0  0  0  0  0  0  0
  -24.6460   -9.6280   21.8400 C   0  0  0  0  0  3  0  0  0  0  0  0
  -23.9170   -8.4300   22.0140 C   0  0  0  0  0  3  0  0  0  0  0  0
  -22.7620   -8.1820   21.2350 C   0  0  0  0  0  0  0  0  0  0  0  0
  -22.3700   -9.1260   20.2710 C   0  0  0  0  0  3  0  0  0  0  0  0
  -23.0980  -10.3150   20.0940 C   0  0  0  0  0  3  0  0  0  0  0  0
  -22.0080   -7.0370   21.3180 O   0  0  0  0  0  0  0  0  0  0  0  0
  -21.8260   -6.3790   22.5080 C   0  0  0  0  0  0  0  0  0  0  0  0
  -21.2350   -7.0100   23.6250 C   0  0  0  0  0  3  0  0  0  0  0  0
  -21.0020   -6.2780   24.8060 C   0  0  0  0  0  3  0  0  0  0  0  0
  -21.3510   -4.9150   24.8710 C   0  0  0  0  0  0  0  0  0  0  0  0
  -21.9340   -4.2830   23.7580 C   0  0  0  0  0  3  0  0  0  0  0  0
  -22.1690   -5.0140   22.5800 C   0  0  0  0  0  0  0  0  0  0  0  0
  -22.7110   -4.3950   21.5040 F   0  0  0  0  0  0  0  0  0  0  0  0
  -21.1210   -4.2090   26.0030 F   0  0  0  0  0  0  0  0  0  0  0  0
  -23.1520  -13.6750   21.2340 C   0  0  0  0  0  0  0  0  0  0  0  0
  -22.4880  -12.9500   22.1240 N   0  0  0  0  0  0  0  0  0  0  0  0
  -22.6880  -14.7260   20.7940 O   0  0  0  0  0  0  0  0  0  0  0  0
  -22.8790  -12.0990   22.5020 H   0  0  0  0  0  0  0  0  0  0  0  0
  -21.5740  -13.2480   22.4350 H   0  0  0  0  0  0  0  0  0  0  0  0
  -25.7240  -15.3580   20.2910 N   0  0  0  0  0  0  0  0  0  0  0  0
  -24.9730  -16.0090   20.4920 H   0  0  0  0  0  0  0  0  0  0  0  0
  -26.5370  -15.8050   19.8900 H   0  0  0  0  0  0  0  0  0  0  0  0
  2  1  2  0
  3  1  1  0
  4  5  2  0
  4  6  1  0
  5  2  1  0
  6  3  2  0
  7  6  1  0
  8 19  2  0
  9  7  1  0
  9 14  1  0
 10 18  1  0
 10 20  1  0
 11 17  1  0
 11 13  1  0
 12 18  1  0
 13 12  1  0
 14 13  2  0
 15 16  1  0
 15  9  2  0
 16 11  2  0
 17 10  1  0
 18  8  1  0
 20 22  2  0
 21 20  1  0
 23 21  1  0
 24 33  2  0
 24 29  1  0
 25 21  1  0
 25 29  1  0
 26 25  1  0
 27 28  1  0
 27 26  1  0
 28 24  1  0
 29 30  2  0
 30 31  1  0
 32 31  2  0
 33 32  1  0
 34  8  1  0
 34 35  1  0
 34 44  1  0
 35 38  1  0
 36 40  1  0
 36 35  1  0
 37 36  2  0
 40 39  1  0
 42 40  1  0
 42 43  1  0
 42 41  1  0
 44 47  1  1
 44 45  1  0
 46 44  1  0
 48  5  1  0
 50 49  1  0
 51 49  1  0
 52 48  1  0
 52 50  1  0
 53 62  1  0
 53 52  1  0
 53 51  1  0
 54 60  1  0
 54 62  1  0
 55 60  1  0
 56 57  1  0
 56 55  1  0
 58 57  1  0
 58 67  1  0
 58 59  1  0
 60 59  1  0
 61 54  2  0
 62 63  1  0
 64 65  2  0
 65 84  1  0
 66 65  1  0
 66 69  1  0
 67 68  1  0
 67 64  1  0
 68 66  2  0
 69 70  1  0
 70 71  2  0
 72 75  1  0
 72 71  1  0
 73 72  2  0
 74 73  1  0
 74 69  2  0
 75 76  1  0
 76 81  2  0
 76 77  1  0
 77 78  2  0
 78 79  1  0
 79 83  1  0
 80 79  2  0
 81 80  1  0
 82 81  1  0
 84 85  1  0
 85 88  1  0
 85 87  1  0
 86 84  2  0
 89 64  1  0
 89 90  1  0
 91 89  1  0
M  ISO  4   6 101   7 101  54 100  62 100
M  END
>  <TORSDO>  (24) 
F 18

>  <SCORE>  (24) 
-14.638

>  <name>  (24) 
23

>  <ligand_id>  (24) 
23

>  <original_smiles>  (24) 
[H]c1c([H])c([H])c2c(c1[H])C([H])([H])C([H])([H])C([H])([H])C2([H])N([H])C(=O)C1([H])N(C(=O)C([H])(N([H])C(=O)C([H])(N([H])C([H])([H])[H])C([H])([H])[H])C(C([H])([H])[H])(C([H])([H])[H])C([H])([H])[H])C([H])([H])c2c([H])c(Oc3c([H])c([H])c([H])c(C([H])([H])C4([H])C([H])([H])C([H])([H])C([H])([H])C4([H])N([H])C(=O)N4C([H])([H])C([H])([H])C([H])([H])C([H])(n5nc(-c6c([H])c([H])c(Oc7c([H])c([H])c(F)c([H])c7F)c([H])c6[H])c(C(=O)N([H])[H])c5N([H])[H])C4([H])[H])c3[H])c([H])c([H])c2C1([H])[H]

>  <smiles>  (24) 
[H]c1c([H])c([H])c2c(c1[H])C([H])([H])C([H])([H])C([H])([H])C2([H])N([H])C(=O)C1([H])N(C(=O)C([H])(N([H])C(=O)C([H])(N([H])C([H])([H])[H])C([H])([H])[H])C(C([H])([H])[H])(C([H])([H])[H])C([H])([H])[H])C([H])([H])c2c([H])c(Oc3c([H])c([H])c([H])c(C([H])([H])C4([H])C([H])([H])C([H])([H])C([H])([H])C4([H])N([H])C(=O)N4C([H])([H])C([H])([H])C([H])([H])C([H])(n5nc(-c6c([H])c([H])c(Oc7c([H])c([H])c(F)c([H])c7F)c([H])c6[H])c(C(=O)N([H])[H])c5N([H])[H])C4([H])[H])c3[H])c([H])c([H])c2C1([H])[H]

$$$$
24:0:0
     RDKit          3D

 93102  0  0  1  0  0  0  0  0999 V2000
  -30.6010  -22.2070   20.3670 C   0  0  0  0  0  3  0  0  0  0  0  0
  -30.2240  -23.5570   20.1270 C   0  0  0  0  0  3  0  0  0  0  0  0
  -28.3070  -21.5150   20.2050 C   0  0  0  0  0  3  0  0  0  0  0  0
  -29.6640  -21.1410   20.3810 C   0  0  0  0  0  0  0  0  0  0  0  0
  -28.8800  -23.9320   19.8850 C   0  0  0  0  0  0  0  0  0  0  0  0
  -27.9180  -22.8750   19.9630 C   0  0  0  0  0  0  0  0  0  0  0  0
  -26.4480  -23.1710   19.7300 C   0  0  0  0  0  1  0  0  0  0  0  0
  -30.6850  -17.7190   21.9190 C   0  0  0  0  0  0  0  0  0  0  0  0
  -30.4730  -19.2370   22.0220 C   0  0  0  0  0  2  0  0  0  0  0  0
  -29.5200  -18.3820   19.9690 C   0  0  0  0  0  2  0  0  0  0  0  0
  -30.1930  -19.6700   20.5750 C   0  0  0  0  0  3  0  0  0  0  0  0
  -30.4250  -17.1950   20.4990 C   0  0  0  0  0  3  0  0  0  0  0  0
  -31.0080  -17.0290   22.8890 O   0  0  0  0  0  0  0  0  0  0  0  0
  -30.5870  -14.6530   20.2530 C   0  0  0  0  0  0  0  0  0  0  0  0
  -30.2900  -12.4440   19.1610 C   0  0  0  0  0  2  0  0  0  0  0  0
  -29.3300  -12.5970   17.9620 C   0  0  0  0  0  2  0  0  0  0  0  0
  -27.8680  -12.4380   18.4190 C   0  0  0  0  0  2  0  0  0  0  0  0
  -27.5360  -13.2900   19.6750 C   0  0  0  0  0  3  0  0  0  0  0  0
  -28.6160  -13.1430   20.7700 C   0  0  0  0  0  2  0  0  0  0  0  0
  -29.9110  -13.4650   20.1590 N   0  0  0  0  0  0  0  0  0  0  0  0
  -31.7660  -14.7380   19.9000 O   0  0  0  0  0  0  0  0  0  0  0  0
  -29.8660  -15.7910   20.5070 N   0  0  0  0  0  0  0  0  0  0  0  0
  -28.8960  -15.6780   20.7550 H   0  0  0  0  0  0  0  0  0  0  0  0
  -25.1540  -13.8760   20.4260 C   0  0  0  0  0  0  0  0  0  0  0  0
  -24.0950  -13.0990   20.8090 C   0  0  0  0  0  0  0  0  0  0  0  0
  -24.5640  -11.7490   20.7790 C   0  0  0  0  0  0  0  0  0  0  0  0
  -26.1990  -13.0010   20.1810 N   0  0  0  0  0  0  0  0  0  0  0  0
  -25.8510  -11.7170   20.4560 N   0  0  0  0  0  0  0  0  0  0  0  0
  -23.8450  -10.4850   20.9790 C   0  0  0  0  0  0  0  0  0  0  0  0
  -24.2870   -9.5260   21.9170 C   0  0  0  0  0  3  0  0  0  0  0  0
  -23.5680   -8.3260   22.1070 C   0  0  0  0  0  3  0  0  0  0  0  0
  -22.3950   -8.0760   21.3570 C   0  0  0  0  0  0  0  0  0  0  0  0
  -21.9720   -9.0230   20.4080 C   0  0  0  0  0  3  0  0  0  0  0  0
  -22.6920  -10.2150   20.2170 C   0  0  0  0  0  3  0  0  0  0  0  0
  -21.6470   -6.9280   21.4550 O   0  0  0  0  0  0  0  0  0  0  0  0
  -21.6070   -6.1910   22.6110 C   0  0  0  0  0  0  0  0  0  0  0  0
  -21.1800   -6.7500   23.8360 C   0  0  0  0  0  3  0  0  0  0  0  0
  -21.0890   -5.9390   24.9850 C   0  0  0  0  0  3  0  0  0  0  0  0
  -21.4150   -4.5720   24.9120 C   0  0  0  0  0  0  0  0  0  0  0  0
  -21.8350   -4.0130   23.6910 C   0  0  0  0  0  3  0  0  0  0  0  0
  -21.9280   -4.8210   22.5440 C   0  0  0  0  0  0  0  0  0  0  0  0
  -22.3130   -4.2720   21.3660 F   0  0  0  0  0  0  0  0  0  0  0  0
  -21.3190   -3.7900   26.0130 F   0  0  0  0  0  0  0  0  0  0  0  0
  -22.6990  -13.5710   21.0940 C   0  0  0  0  0  0  0  0  0  0  0  0
  -21.9840  -12.8720   21.9670 N   0  0  0  0  0  0  0  0  0  0  0  0
  -22.2550  -14.5970   20.5810 O   0  0  0  0  0  0  0  0  0  0  0  0
  -22.3590  -12.0420   22.4020 H   0  0  0  0  0  0  0  0  0  0  0  0
  -21.0480  -13.1700   22.2040 H   0  0  0  0  0  0  0  0  0  0  0  0
  -25.3080  -15.2470   20.2410 N   0  0  0  0  0  0  0  0  0  0  0  0
  -24.5320  -15.8920   20.3480 H   0  0  0  0  0  0  0  0  0  0  0  0
  -26.1400  -15.6890   19.8700 H   0  0  0  0  0  0  0  0  0  0  0  0
  -28.5590  -25.3680   19.3220 C   0  0  0  0  0  2  0  0  0  0  0  0
  -28.3800  -26.5300   20.2120 O   0  0  0  0  0  0  0  0  0  0  0  0
  -24.6130  -31.8800   23.2320 C   0  0  0  0  0  0  0  0  0  0  0  0
  -27.2390  -27.3470   20.1440 C   0  0  0  0  0  0  0  0  0  0  0  0
  -23.4110  -30.4840   21.5870 C   0  0  0  0  0  3  0  0  0  0  0  0
  -24.8630  -28.9470   20.1550 C   0  0  0  0  0  0  0  0  0  0  0  0
  -25.9500  -30.8070   21.4090 C   0  0  0  0  0  2  0  0  0  0  0  0
  -26.0300  -29.4340   20.7550 C   0  0  0  0  0  0  0  0  0  0  0  0
  -27.2160  -28.6410   20.7480 C   0  0  0  0  0  3  0  0  0  0  0  0
  -26.0390  -26.9050   19.5400 C   0  0  0  0  0  3  0  0  0  0  0  0
  -24.8690  -27.6860   19.5430 C   0  0  0  0  0  3  0  0  0  0  0  0
  -23.6250  -29.8160   20.2050 C   0  0  0  0  0  2  0  0  0  0  0  0
  -24.6770  -31.0740   22.1320 N   0  0  0  0  0  0  0  0  0  0  0  0
  -23.5280  -32.1550   23.7660 O   0  0  0  0  0  0  0  0  0  0  0  0
  -22.7520  -29.4620   22.5440 C   0  0  0  0  0  0  0  0  0  0  0  0
  -21.4260  -29.2870   22.4190 N   0  0  0  0  0  0  0  0  0  0  0  0
  -23.4310  -28.8310   23.3570 O   0  0  0  0  0  0  0  0  0  0  0  0
  -20.9370  -29.8480   21.7360 H   0  0  0  0  0  0  0  0  0  0  0  0
  -18.0460  -28.1040   22.9270 C   0  0  0  0  0  0  0  0  0  0  0  0
  -20.6060  -28.3490   23.1870 C   0  0  0  0  0  3  0  0  0  0  0  0
  -20.6990  -26.9200   22.6020 C   0  0  0  0  0  2  0  0  0  0  0  0
  -19.5900  -26.6090   21.5910 C   0  0  0  0  0  2  0  0  0  0  0  0
  -18.2120  -26.7570   22.2420 C   0  0  0  0  0  2  0  0  0  0  0  0
  -19.1700  -28.8570   23.3550 C   0  0  0  0  0  0  0  0  0  0  0  0
  -18.9610  -30.1170   23.9560 C   0  0  0  0  0  3  0  0  0  0  0  0
  -17.6600  -30.6250   24.1330 C   0  0  0  0  0  3  0  0  0  0  0  0
  -16.5500  -29.8680   23.7190 C   0  0  0  0  0  3  0  0  0  0  0  0
  -16.7430  -28.6100   23.1220 C   0  0  0  0  0  3  0  0  0  0  0  0
  -25.8950  -32.5110   23.8560 C   0  0  0  0  0  3  0  0  0  0  0  0
  -25.5870  -33.9100   24.1830 N   0  0  0  0  0  0  0  0  0  0  0  0
  -25.9220  -34.9610   23.4240 C   0  0  0  0  0  0  0  0  0  0  0  0
  -26.5930  -34.8570   22.3930 O   0  0  0  0  0  0  0  0  0  0  0  0
  -24.9910  -34.0660   24.9830 H   0  0  0  0  0  0  0  0  0  0  0  0
  -24.1950  -36.7540   23.0640 C   0  0  0  0  0  1  0  0  0  0  0  0
  -25.4330  -36.3500   23.8790 C   0  0  0  0  0  3  0  0  0  0  0  0
  -27.5660  -37.2320   24.7170 C   0  0  0  0  0  1  0  0  0  0  0  0
  -26.4670  -37.4040   23.7730 N   0  0  0  0  0  0  0  0  0  0  0  0
  -26.0600  -38.3230   23.9240 H   0  0  0  0  0  0  0  0  0  0  0  0
  -26.4070  -31.7390   25.1340 C   0  0  1  0  0  0  0  0  0  0  0  0
  -25.3100  -31.5040   26.1970 C   0  0  0  0  0  1  0  0  0  0  0  0
  -26.9910  -30.3610   24.7450 C   0  0  0  0  0  1  0  0  0  0  0  0
  -27.5550  -32.5350   25.7980 C   0  0  0  0  0  1  0  0  0  0  0  0
  1  4  1  0
  2  1  2  0
  3  4  2  0
  5  6  2  0
  5  2  1  0
  6  3  1  0
  7  6  1  0
  8  9  1  0
  8 13  2  0
 10 12  1  0
 10 11  1  0
 11  4  1  0
 11  9  1  0
 12 22  1  0
 12  8  1  0
 14 22  1  0
 15 20  1  0
 16 17  1  0
 16 15  1  0
 18 17  1  0
 18 27  1  0
 18 19  1  0
 20 14  1  0
 20 19  1  0
 21 14  2  0
 22 23  1  0
 24 25  2  0
 25 44  1  0
 26 25  1  0
 26 29  1  0
 27 24  1  0
 27 28  1  0
 28 26  2  0
 29 30  1  0
 30 31  2  0
 32 35  1  0
 32 31  1  0
 33 32  2  0
 34 33  1  0
 34 29  2  0
 35 36  1  0
 36 37  1  0
 37 38  2  0
 39 38  1  0
 39 43  1  0
 40 39  2  0
 41 36  2  0
 41 40  1  0
 42 41  1  0
 44 45  1  0
 45 48  1  0
 45 47  1  0
 46 44  2  0
 49 50  1  0
 49 24  1  0
 51 49  1  0
 52  5  1  0
 52 53  1  0
 54 65  2  0
 55 53  1  0
 55 60  1  0
 56 64  1  0
 56 66  1  0
 57 63  1  0
 57 59  1  0
 58 64  1  0
 59 58  1  0
 60 59  2  0
 61 62  1  0
 61 55  2  0
 62 57  2  0
 63 56  1  0
 64 54  1  0
 66 68  2  0
 67 66  1  0
 69 67  1  0
 70 79  2  0
 70 75  1  0
 71 67  1  0
 71 75  1  0
 72 71  1  0
 73 74  1  0
 73 72  1  0
 74 70  1  0
 75 76  2  0
 76 77  1  0
 78 77  2  0
 79 78  1  0
 80 54  1  0
 80 81  1  0
 80 90  1  0
 81 84  1  0
 82 86  1  0
 82 81  1  0
 83 82  2  0
 86 85  1  0
 88 86  1  0
 88 89  1  0
 88 87  1  0
 90 93  1  1
 90 91  1  0
 92 90  1  0
M  ISO  4  14 100  22 100  52 101  53 101
M  END
>  <TORSDO>  (25) 
F 18

>  <SCORE>  (25) 
-14.611

>  <name>  (25) 
24

>  <ligand_id>  (25) 
24

>  <original_smiles>  (25) 
[H]c1c([H])c([H])c2c(c1[H])C([H])([H])C([H])([H])C([H])([H])C2([H])N([H])C(=O)C1([H])N(C(=O)C([H])(N([H])C(=O)C([H])(N([H])C([H])([H])[H])C([H])([H])[H])C(C([H])([H])[H])(C([H])([H])[H])C([H])([H])[H])C([H])([H])c2c([H])c(OC([H])([H])c3c([H])c([H])c(C4([H])C([H])([H])C(=O)C([H])(N([H])C(=O)N5C([H])([H])C([H])([H])C([H])([H])C([H])(n6nc(-c7c([H])c([H])c(Oc8c([H])c([H])c(F)c([H])c8F)c([H])c7[H])c(C(=O)N([H])[H])c6N([H])[H])C5([H])[H])C4([H])[H])c([H])c3C([H])([H])[H])c([H])c([H])c2C1([H])[H]

>  <smiles>  (25) 
[H]c1c([H])c([H])c2c(c1[H])C([H])([H])C([H])([H])C([H])([H])C2([H])N([H])C(=O)C1([H])N(C(=O)C([H])(N([H])C(=O)C([H])(N([H])C([H])([H])[H])C([H])([H])[H])C(C([H])([H])[H])(C([H])([H])[H])C([H])([H])[H])C([H])([H])c2c([H])c(OC([H])([H])c3c([H])c([H])c(C4([H])C([H])([H])C(=O)C([H])(N([H])C(=O)N5C([H])([H])C([H])([H])C([H])([H])C([H])(n6nc(-c7c([H])c([H])c(Oc8c([H])c([H])c(F)c([H])c8F)c([H])c7[H])c(C(=O)N([H])[H])c6N([H])[H])C5([H])[H])C4([H])[H])c([H])c3C([H])([H])[H])c([H])c([H])c2C1([H])[H]

$$$$
25:0:0
     RDKit          3D

 91100  0  0  1  0  0  0  0  0999 V2000
  -26.8010  -23.0900   21.3760 C   0  0  0  0  0  3  0  0  0  0  0  0
  -27.5970  -22.0250   20.8990 C   0  0  0  0  0  3  0  0  0  0  0  0
  -27.0830  -24.4490   21.0980 C   0  0  0  0  0  3  0  0  0  0  0  0
  -28.9980  -23.6970   19.8350 C   0  0  0  0  0  3  0  0  0  0  0  0
  -28.7570  -22.2460   20.1300 C   0  0  0  0  0  0  0  0  0  0  0  0
  -28.1680  -24.8590   20.2870 C   0  0  0  0  0  0  0  0  0  0  0  0
  -28.3480  -26.3130   20.0570 O   0  0  0  0  0  0  0  0  0  0  0  0
  -24.6020  -31.9030   23.1720 C   0  0  0  0  0  0  0  0  0  0  0  0
  -27.2830  -27.2980   20.0460 C   0  0  0  0  0  0  0  0  0  0  0  0
  -23.4350  -30.5160   21.5010 C   0  0  0  0  0  3  0  0  0  0  0  0
  -24.9200  -29.0040   20.0430 C   0  0  0  0  0  0  0  0  0  0  0  0
  -25.9830  -30.8350   21.3500 C   0  0  0  0  0  2  0  0  0  0  0  0
  -26.0890  -29.4560   20.6710 C   0  0  0  0  0  0  0  0  0  0  0  0
  -27.2690  -28.6180   20.6630 C   0  0  0  0  0  3  0  0  0  0  0  0
  -26.0940  -26.9630   19.3640 C   0  0  0  0  0  3  0  0  0  0  0  0
  -24.9350  -27.7710   19.3760 C   0  0  0  0  0  3  0  0  0  0  0  0
  -23.6740  -29.8750   20.1080 C   0  0  0  0  0  2  0  0  0  0  0  0
  -24.6930  -31.1070   22.0630 N   0  0  0  0  0  0  0  0  0  0  0  0
  -23.5100  -32.1510   23.7050 O   0  0  0  0  0  0  0  0  0  0  0  0
  -22.7790  -29.4730   22.4400 C   0  0  0  0  0  0  0  0  0  0  0  0
  -21.4570  -29.2640   22.2980 N   0  0  0  0  0  0  0  0  0  0  0  0
  -23.4600  -28.8550   23.2610 O   0  0  0  0  0  0  0  0  0  0  0  0
  -20.9620  -29.8160   21.6110 H   0  0  0  0  0  0  0  0  0  0  0  0
  -18.1170  -27.9260   22.7200 C   0  0  0  0  0  0  0  0  0  0  0  0
  -20.6570  -28.2920   23.0470 C   0  0  0  0  0  3  0  0  0  0  0  0
  -20.8290  -26.8680   22.4680 C   0  0  0  0  0  2  0  0  0  0  0  0
  -19.7630  -26.5050   21.4280 C   0  0  0  0  0  2  0  0  0  0  0  0
  -18.3630  -26.5900   22.0410 C   0  0  0  0  0  2  0  0  0  0  0  0
  -19.1930  -28.7320   23.1780 C   0  0  0  0  0  0  0  0  0  0  0  0
  -18.9070  -29.9800   23.7750 C   0  0  0  0  0  3  0  0  0  0  0  0
  -17.5790  -30.4230   23.9160 C   0  0  0  0  0  3  0  0  0  0  0  0
  -16.5170  -29.6150   23.4730 C   0  0  0  0  0  3  0  0  0  0  0  0
  -16.7870  -28.3680   22.8810 C   0  0  0  0  0  3  0  0  0  0  0  0
  -25.8650  -32.5530   23.8140 C   0  0  0  0  0  3  0  0  0  0  0  0
  -25.5300  -33.9430   24.1570 N   0  0  0  0  0  0  0  0  0  0  0  0
  -25.8630  -35.0140   23.4240 C   0  0  0  0  0  0  0  0  0  0  0  0
  -26.5530  -34.9340   22.4040 O   0  0  0  0  0  0  0  0  0  0  0  0
  -24.9220  -34.0780   24.9510 H   0  0  0  0  0  0  0  0  0  0  0  0
  -24.1300  -36.8020   23.0560 C   0  0  0  0  0  1  0  0  0  0  0  0
  -25.3510  -36.3900   23.8950 C   0  0  0  0  0  3  0  0  0  0  0  0
  -27.4560  -37.2750   24.8020 C   0  0  0  0  0  1  0  0  0  0  0  0
  -26.3780  -37.4540   23.8340 N   0  0  0  0  0  0  0  0  0  0  0  0
  -25.9590  -38.3670   23.9910 H   0  0  0  0  0  0  0  0  0  0  0  0
  -26.3770  -31.7810   25.0940 C   0  0  1  0  0  0  0  0  0  0  0  0
  -25.2740  -31.5230   26.1470 C   0  0  0  0  0  1  0  0  0  0  0  0
  -26.9850  -30.4130   24.7060 C   0  0  0  0  0  1  0  0  0  0  0  0
  -27.5070  -32.5870   25.7750 C   0  0  0  0  0  1  0  0  0  0  0  0
  -29.6320  -20.9050   19.6710 C   0  0  0  0  0  2  0  0  0  0  0  0
  -31.3090  -18.7940   21.7760 C   0  0  0  0  0  2  0  0  0  0  0  0
  -29.8410  -19.2440   21.7050 C   0  0  0  0  0  2  0  0  0  0  0  0
  -31.6880  -18.2570   20.3890 C   0  0  0  0  0  2  0  0  0  0  0  0
  -29.4640  -19.2910   20.2180 C   0  0  0  0  0  3  0  0  0  0  0  0
  -30.3640  -17.9550   19.6770 C   0  0  0  0  0  3  0  0  0  0  0  0
  -30.7830  -15.2120   19.7610 C   0  0  0  0  0  0  0  0  0  0  0  0
  -30.6550  -12.8110   18.9470 C   0  0  0  0  0  2  0  0  0  0  0  0
  -29.6550  -12.6730   17.7770 C   0  0  0  0  0  2  0  0  0  0  0  0
  -28.2280  -12.4460   18.3080 C   0  0  0  0  0  2  0  0  0  0  0  0
  -27.8640  -13.4200   19.4590 C   0  0  0  0  0  3  0  0  0  0  0  0
  -28.9830  -13.5280   20.5170 C   0  0  0  0  0  2  0  0  0  0  0  0
  -30.2020  -13.9430   19.8100 N   0  0  0  0  0  0  0  0  0  0  0  0
  -31.9610  -15.2630   19.3940 O   0  0  0  0  0  0  0  0  0  0  0  0
  -30.0220  -16.4140   19.9200 N   0  0  0  0  0  0  0  0  0  0  0  0
  -29.0650  -16.2430   20.1890 H   0  0  0  0  0  0  0  0  0  0  0  0
  -25.5590  -13.9810   20.4160 C   0  0  0  0  0  0  0  0  0  0  0  0
  -24.5170  -13.1990   20.8320 C   0  0  0  0  0  0  0  0  0  0  0  0
  -24.9600  -11.8470   20.6990 C   0  0  0  0  0  0  0  0  0  0  0  0
  -26.5680  -13.1070   20.0500 N   0  0  0  0  0  0  0  0  0  0  0  0
  -26.2230  -11.8140   20.2870 N   0  0  0  0  0  0  0  0  0  0  0  0
  -24.2330  -10.5840   20.8860 C   0  0  0  0  0  0  0  0  0  0  0  0
  -24.6460   -9.6280   21.8400 C   0  0  0  0  0  3  0  0  0  0  0  0
  -23.9170   -8.4300   22.0140 C   0  0  0  0  0  3  0  0  0  0  0  0
  -22.7620   -8.1820   21.2350 C   0  0  0  0  0  0  0  0  0  0  0  0
  -22.3700   -9.1260   20.2710 C   0  0  0  0  0  3  0  0  0  0  0  0
  -23.0980  -10.3150   20.0940 C   0  0  0  0  0  3  0  0  0  0  0  0
  -22.0080   -7.0370   21.3180 O   0  0  0  0  0  0  0  0  0  0  0  0
  -21.8260   -6.3790   22.5080 C   0  0  0  0  0  0  0  0  0  0  0  0
  -21.2350   -7.0100   23.6250 C   0  0  0  0  0  3  0  0  0  0  0  0
  -21.0020   -6.2780   24.8060 C   0  0  0  0  0  3  0  0  0  0  0  0
  -21.3510   -4.9150   24.8710 C   0  0  0  0  0  0  0  0  0  0  0  0
  -21.9340   -4.2830   23.7580 C   0  0  0  0  0  3  0  0  0  0  0  0
  -22.1690   -5.0140   22.5800 C   0  0  0  0  0  0  0  0  0  0  0  0
  -22.7110   -4.3950   21.5040 F   0  0  0  0  0  0  0  0  0  0  0  0
  -21.1210   -4.2090   26.0030 F   0  0  0  0  0  0  0  0  0  0  0  0
  -23.1520  -13.6750   21.2340 C   0  0  0  0  0  0  0  0  0  0  0  0
  -22.4880  -12.9500   22.1240 N   0  0  0  0  0  0  0  0  0  0  0  0
  -22.6880  -14.7260   20.7940 O   0  0  0  0  0  0  0  0  0  0  0  0
  -22.8790  -12.0990   22.5020 H   0  0  0  0  0  0  0  0  0  0  0  0
  -21.5740  -13.2480   22.4350 H   0  0  0  0  0  0  0  0  0  0  0  0
  -25.7240  -15.3580   20.2910 N   0  0  0  0  0  0  0  0  0  0  0  0
  -24.9730  -16.0090   20.4920 H   0  0  0  0  0  0  0  0  0  0  0  0
  -26.5370  -15.8050   19.8900 H   0  0  0  0  0  0  0  0  0  0  0  0
  2  1  2  0
  3  1  1  0
  4  5  2  0
  4  6  1  0
  5  2  1  0
  6  3  2  0
  7  6  1  0
  8 19  2  0
  9  7  1  0
  9 14  1  0
 10 18  1  0
 10 20  1  0
 11 17  1  0
 11 13  1  0
 12 18  1  0
 13 12  1  0
 14 13  2  0
 15 16  1  0
 15  9  2  0
 16 11  2  0
 17 10  1  0
 18  8  1  0
 20 22  2  0
 21 20  1  0
 23 21  1  0
 24 33  2  0
 24 29  1  0
 25 21  1  0
 25 29  1  0
 26 25  1  0
 27 28  1  0
 27 26  1  0
 28 24  1  0
 29 30  2  0
 30 31  1  0
 32 31  2  0
 33 32  1  0
 34  8  1  0
 34 35  1  0
 34 44  1  0
 35 38  1  0
 36 40  1  0
 36 35  1  0
 37 36  2  0
 40 39  1  0
 42 40  1  0
 42 43  1  0
 42 41  1  0
 44 47  1  1
 44 45  1  0
 46 44  1  0
 48  5  1  0
 50 49  1  0
 51 49  1  0
 52 48  1  0
 52 50  1  0
 53 62  1  0
 53 52  1  0
 53 51  1  0
 54 60  1  0
 54 62  1  0
 55 60  1  0
 56 57  1  0
 56 55  1  0
 58 57  1  0
 58 67  1  0
 58 59  1  0
 60 59  1  0
 61 54  2  0
 62 63  1  0
 64 65  2  0
 65 84  1  0
 66 65  1  0
 66 69  1  0
 67 68  1  0
 67 64  1  0
 68 66  2  0
 69 70  1  0
 70 71  2  0
 72 75  1  0
 72 71  1  0
 73 72  2  0
 74 73  1  0
 74 69  2  0
 75 76  1  0
 76 81  2  0
 76 77  1  0
 77 78  2  0
 78 79  1  0
 79 83  1  0
 80 79  2  0
 81 80  1  0
 82 81  1  0
 84 85  1  0
 85 88  1  0
 85 87  1  0
 86 84  2  0
 89 64  1  0
 89 90  1  0
 91 89  1  0
M  ISO  4   6 101   7 101  54 100  62 100
M  END
>  <TORSDO>  (26) 
F 18

>  <SCORE>  (26) 
-14.638

>  <name>  (26) 
25

>  <ligand_id>  (26) 
25

>  <original_smiles>  (26) 
[H]c1c([H])c([H])c2c(c1[H])C([H])([H])C([H])([H])C([H])([H])C2([H])N([H])C(=O)C1([H])N(C(=O)C([H])(N([H])C(=O)C([H])(N([H])C([H])([H])[H])C([H])([H])[H])C(C([H])([H])[H])(C([H])([H])[H])C([H])([H])[H])C([H])([H])c2c([H])c(Oc3c([H])c([H])c([H])c(C([H])([H])C4([H])C([H])([H])C([H])([H])C([H])([H])C4([H])N([H])C(=O)N4C([H])([H])C([H])([H])C([H])([H])C([H])(n5nc(-c6c([H])c([H])c(Oc7c([H])c([H])c(F)c([H])c7F)c([H])c6[H])c(C(=O)N([H])[H])c5N([H])[H])C4([H])[H])c3[H])c([H])c([H])c2C1([H])[H]

>  <smiles>  (26) 
[H]c1c([H])c([H])c2c(c1[H])C([H])([H])C([H])([H])C([H])([H])C2([H])N([H])C(=O)C1([H])N(C(=O)C([H])(N([H])C(=O)C([H])(N([H])C([H])([H])[H])C([H])([H])[H])C(C([H])([H])[H])(C([H])([H])[H])C([H])([H])[H])C([H])([H])c2c([H])c(Oc3c([H])c([H])c([H])c(C([H])([H])C4([H])C([H])([H])C([H])([H])C([H])([H])C4([H])N([H])C(=O)N4C([H])([H])C([H])([H])C([H])([H])C([H])(n5nc(-c6c([H])c([H])c(Oc7c([H])c([H])c(F)c([H])c7F)c([H])c6[H])c(C(=O)N([H])[H])c5N([H])[H])C4([H])[H])c3[H])c([H])c([H])c2C1([H])[H]

$$$$
26:0:0
     RDKit          3D

 88 96  0  0  1  0  0  0  0  0999 V2000
  -29.0170  -21.2900   19.7300 N   0  0  0  0  0  4  0  0  0  0  0  0
  -29.2850  -21.3850   18.7630 H   0  0  0  0  0  0  0  0  0  0  0  0
  -28.0410  -21.0410   19.7050 H   0  0  0  0  0  0  0  0  0  0  0  0
  -30.1890  -18.3840   22.3190 C   0  0  0  0  0  3  0  0  0  0  0  0
  -30.4510  -17.1890   21.7310 C   0  0  0  0  0  3  0  0  0  0  0  0
  -29.4730  -19.6130   21.7260 C   0  0  0  0  0  2  0  0  0  0  0  0
  -29.8500  -18.3290   19.5040 C   0  0  0  0  0  2  0  0  0  0  0  0
  -30.0970  -16.7870   20.3060 C   0  0  0  0  0  3  0  0  0  0  0  0
  -29.7990  -19.9200   20.2480 C   0  0  0  0  0  3  0  0  0  0  0  0
  -30.8130  -15.2740   19.8040 C   0  0  0  0  0  0  0  0  0  0  0  0
  -30.6130  -12.8990   18.7870 C   0  0  0  0  0  2  0  0  0  0  0  0
  -29.5750  -12.8650   17.6360 C   0  0  0  0  0  2  0  0  0  0  0  0
  -28.1540  -12.6380   18.1850 C   0  0  0  0  0  2  0  0  0  0  0  0
  -27.8640  -13.5260   19.4220 C   0  0  0  0  0  3  0  0  0  0  0  0
  -29.0140  -13.5150   20.4490 C   0  0  0  0  0  2  0  0  0  0  0  0
  -30.2250  -13.9820   19.7590 N   0  0  0  0  0  0  0  0  0  0  0  0
  -31.9760  -15.2790   19.3740 O   0  0  0  0  0  0  0  0  0  0  0  0
  -25.5840  -14.1250   20.3990 C   0  0  0  0  0  0  0  0  0  0  0  0
  -24.5330  -13.3660   20.8310 C   0  0  0  0  0  0  0  0  0  0  0  0
  -24.9510  -12.0050   20.7080 C   0  0  0  0  0  0  0  0  0  0  0  0
  -26.5720  -13.2310   20.0300 N   0  0  0  0  0  0  0  0  0  0  0  0
  -26.2090  -11.9450   20.2820 N   0  0  0  0  0  0  0  0  0  0  0  0
  -24.2010  -10.7580   20.9150 C   0  0  0  0  0  0  0  0  0  0  0  0
  -24.6240   -9.7850   21.8480 C   0  0  0  0  0  3  0  0  0  0  0  0
  -23.8730   -8.6050   22.0420 C   0  0  0  0  0  3  0  0  0  0  0  0
  -22.6860   -8.3900   21.3030 C   0  0  0  0  0  0  0  0  0  0  0  0
  -22.2810   -9.3500   20.3600 C   0  0  0  0  0  3  0  0  0  0  0  0
  -23.0330  -10.5210   20.1630 C   0  0  0  0  0  3  0  0  0  0  0  0
  -21.9070   -7.2610   21.4080 O   0  0  0  0  0  0  0  0  0  0  0  0
  -21.7740   -6.5850   22.5940 C   0  0  0  0  0  0  0  0  0  0  0  0
  -21.2930   -7.2160   23.7610 C   0  0  0  0  0  3  0  0  0  0  0  0
  -21.1050   -6.4670   24.9400 C   0  0  0  0  0  3  0  0  0  0  0  0
  -21.3890   -5.0880   24.9520 C   0  0  0  0  0  0  0  0  0  0  0  0
  -21.8620   -4.4560   23.7880 C   0  0  0  0  0  3  0  0  0  0  0  0
  -22.0510   -5.2030   22.6120 C   0  0  0  0  0  0  0  0  0  0  0  0
  -22.4870   -4.5860   21.4880 F   0  0  0  0  0  0  0  0  0  0  0  0
  -21.2020   -4.3680   26.0830 F   0  0  0  0  0  0  0  0  0  0  0  0
  -23.1810  -13.8730   21.2390 C   0  0  0  0  0  0  0  0  0  0  0  0
  -22.5190  -13.1820   22.1610 N   0  0  0  0  0  0  0  0  0  0  0  0
  -22.7250  -14.9170   20.7750 O   0  0  0  0  0  0  0  0  0  0  0  0
  -22.9040  -12.3380   22.5580 H   0  0  0  0  0  0  0  0  0  0  0  0
  -21.6150  -13.5040   22.4780 H   0  0  0  0  0  0  0  0  0  0  0  0
  -25.7740  -15.4970   20.2600 N   0  0  0  0  0  0  0  0  0  0  0  0
  -25.0420  -16.1670   20.4670 H   0  0  0  0  0  0  0  0  0  0  0  0
  -26.6040  -15.9270   19.8740 H   0  0  0  0  0  0  0  0  0  0  0  0
  -29.0720  -22.8390   20.3240 C   0  0  0  0  0  3  0  0  0  0  0  0
  -28.1160  -24.2760   19.8660 C   0  0  0  0  0  3  0  0  0  0  0  0
  -28.2240  -25.8770   20.2030 O   0  0  0  0  0  0  0  0  0  0  0  0
  -24.4380  -31.6750   23.1070 C   0  0  0  0  0  0  0  0  0  0  0  0
  -27.1690  -26.9160   20.1020 C   0  0  0  0  0  0  0  0  0  0  0  0
  -23.2980  -30.2460   21.4570 C   0  0  0  0  0  3  0  0  0  0  0  0
  -24.8070  -28.6960   20.0410 C   0  0  0  0  0  0  0  0  0  0  0  0
  -25.8550  -30.5480   21.3260 C   0  0  0  0  0  2  0  0  0  0  0  0
  -25.9740  -29.1450   20.6700 C   0  0  0  0  0  0  0  0  0  0  0  0
  -27.1480  -28.2750   20.6800 C   0  0  0  0  0  3  0  0  0  0  0  0
  -25.9720  -26.6110   19.4160 C   0  0  0  0  0  3  0  0  0  0  0  0
  -24.8280  -27.4500   19.3940 C   0  0  0  0  0  3  0  0  0  0  0  0
  -23.5570  -29.5720   20.0810 C   0  0  0  0  0  2  0  0  0  0  0  0
  -24.5510  -30.8500   22.0170 N   0  0  0  0  0  0  0  0  0  0  0  0
  -23.3370  -31.9290   23.6220 O   0  0  0  0  0  0  0  0  0  0  0  0
  -22.6310  -29.2260   22.4160 C   0  0  0  0  0  0  0  0  0  0  0  0
  -21.3090  -29.0170   22.2790 N   0  0  0  0  0  0  0  0  0  0  0  0
  -23.3100  -28.6230   23.2510 O   0  0  0  0  0  0  0  0  0  0  0  0
  -20.8130  -29.5570   21.5830 H   0  0  0  0  0  0  0  0  0  0  0  0
  -17.9670  -27.6850   22.7410 C   0  0  0  0  0  0  0  0  0  0  0  0
  -20.5100  -28.0530   23.0430 C   0  0  0  0  0  3  0  0  0  0  0  0
  -20.6750  -26.6230   22.4790 C   0  0  0  0  0  2  0  0  0  0  0  0
  -19.6020  -26.2520   21.4490 C   0  0  0  0  0  2  0  0  0  0  0  0
  -18.2070  -26.3430   22.0720 C   0  0  0  0  0  2  0  0  0  0  0  0
  -19.0470  -28.4950   23.1820 C   0  0  0  0  0  0  0  0  0  0  0  0
  -18.7660  -29.7480   23.7700 C   0  0  0  0  0  3  0  0  0  0  0  0
  -17.4400  -30.1940   23.9190 C   0  0  0  0  0  3  0  0  0  0  0  0
  -16.3740  -29.3820   23.4910 C   0  0  0  0  0  3  0  0  0  0  0  0
  -16.6380  -28.1300   22.9090 C   0  0  0  0  0  3  0  0  0  0  0  0
  -25.6850  -32.3550   23.7500 C   0  0  0  0  0  3  0  0  0  0  0  0
  -26.2200  -31.5900   25.0240 C   0  0  1  0  0  0  0  0  0  0  0  0
  -25.1270  -31.2970   26.0790 C   0  0  0  0  0  1  0  0  0  0  0  0
  -26.8600  -30.2400   24.6280 C   0  0  0  0  0  1  0  0  0  0  0  0
  -27.3330  -32.4200   25.7040 C   0  0  0  0  0  1  0  0  0  0  0  0
  -25.3160  -33.7360   24.1060 N   0  0  0  0  0  0  0  0  0  0  0  0
  -25.6010  -34.8200   23.3720 C   0  0  0  0  0  0  0  0  0  0  0  0
  -26.2660  -34.7650   22.3350 O   0  0  0  0  0  0  0  0  0  0  0  0
  -24.7210  -33.8480   24.9140 H   0  0  0  0  0  0  0  0  0  0  0  0
  -23.8000  -36.5560   23.0810 C   0  0  0  0  0  1  0  0  0  0  0  0
  -25.0670  -36.1810   23.8660 C   0  0  0  0  0  3  0  0  0  0  0  0
  -27.1750  -37.1360   24.6910 C   0  0  0  0  0  1  0  0  0  0  0  0
  -26.0570  -37.2760   23.7610 N   0  0  0  0  0  0  0  0  0  0  0  0
  -25.6160  -38.1770   23.9290 H   0  0  0  0  0  0  0  0  0  0  0  0
  1 46  1  0
  2  1  1  0
  3  1  1  0
  5  4  2  0
  6  4  1  0
  7  9  1  0
  7  8  1  0
  8 10  1  0
  8  5  1  0
  9  1  1  0
  9  6  1  0
 11 16  1  0
 12 13  1  0
 12 11  1  0
 14 13  1  0
 14 21  1  0
 14 15  1  0
 16 10  1  0
 16 15  1  0
 17 10  2  0
 18 19  2  0
 19 38  1  0
 20 19  1  0
 20 23  1  0
 21 22  1  0
 21 18  1  0
 22 20  2  0
 23 24  1  0
 24 25  2  0
 26 29  1  0
 26 25  1  0
 27 26  2  0
 28 27  1  0
 28 23  2  0
 29 30  1  0
 30 35  2  0
 30 31  1  0
 31 32  2  0
 32 33  1  0
 33 37  1  0
 34 33  2  0
 35 34  1  0
 36 35  1  0
 38 39  1  0
 39 42  1  0
 39 41  1  0
 40 38  2  0
 43 18  1  0
 43 44  1  0
 45 43  1  0
 47 48  1  0
 47 46  2  0
 49 60  2  0
 50 48  1  0
 50 55  1  0
 51 59  1  0
 51 61  1  0
 52 58  1  0
 52 54  1  0
 53 59  1  0
 54 55  2  0
 54 53  1  0
 56 50  2  0
 57 56  1  0
 57 52  2  0
 58 51  1  0
 59 49  1  0
 61 63  2  0
 62 61  1  0
 64 62  1  0
 65 74  2  0
 65 70  1  0
 66 62  1  0
 66 70  1  0
 67 66  1  0
 68 69  1  0
 68 67  1  0
 69 65  1  0
 70 71  2  0
 71 72  1  0
 73 72  2  0
 74 73  1  0
 75 49  1  0
 75 80  1  0
 75 76  1  0
 76 79  1  1
 76 77  1  0
 78 76  1  0
 80 83  1  0
 81 85  1  0
 81 80  1  0
 82 81  2  0
 85 84  1  0
 87 85  1  0
 87 88  1  0
 87 86  1  0
M  ISO  4   8 100  10 100  47 101  48 101
M  END
>  <TORSDO>  (27) 
F 19

>  <SCORE>  (27) 
-13.235

>  <name>  (27) 
26

>  <ligand_id>  (27) 
26

>  <original_smiles>  (27) 
[H]C1=C([H])C([H])(C(=O)N2C([H])([H])C([H])([H])C([H])([H])C([H])(n3nc(-c4c([H])c([H])c(Oc5c([H])c([H])c(F)c([H])c5F)c([H])c4[H])c(C(=O)N([H])[H])c3N([H])[H])C2([H])[H])C([H])([H])C([H])([N+]([H])([H])C([H])([H])C([H])([H])Oc2c([H])c([H])c3c(c2[H])C([H])([H])N(C(=O)C([H])(N([H])C(=O)C([H])(N([H])C([H])([H])[H])C([H])([H])[H])C(C([H])([H])[H])(C([H])([H])[H])C([H])([H])[H])C([H])(C(=O)N([H])C2([H])c4c([H])c([H])c([H])c([H])c4C([H])([H])C([H])([H])C2([H])[H])C3([H])[H])C1([H])[H]

>  <smiles>  (27) 
[H]C1=C([H])C([H])(C(=O)N2C([H])([H])C([H])([H])C([H])([H])C([H])(n3nc(-c4c([H])c([H])c(Oc5c([H])c([H])c(F)c([H])c5F)c([H])c4[H])c(C(=O)N([H])[H])c3N([H])[H])C2([H])[H])C([H])([H])C([H])([N+]([H])([H])C([H])([H])C([H])([H])Oc2c([H])c([H])c3c(c2[H])C([H])([H])N(C(=O)C([H])(N([H])C(=O)C([H])(N([H])C([H])([H])[H])C([H])([H])[H])C(C([H])([H])[H])(C([H])([H])[H])C([H])([H])[H])C([H])(C(=O)N([H])C2([H])c4c([H])c([H])c([H])c([H])c4C([H])([H])C([H])([H])C2([H])[H])C3([H])[H])C1([H])[H]

$$$$
27:0:0
     RDKit          3D

 90 98  0  0  1  0  0  0  0  0999 V2000
  -28.7330  -22.1610   19.1540 C   0  0  0  0  0  3  0  0  0  0  0  0
  -28.5120  -23.6330   19.1150 C   0  0  0  0  0  3  0  0  0  0  0  0
  -28.5320  -22.2050   21.4420 C   0  0  0  0  0  3  0  0  0  0  0  0
  -28.7720  -21.2950   20.3260 C   0  0  0  0  0  0  0  0  0  0  0  0
  -28.3120  -23.6770   21.4090 C   0  0  0  0  0  0  0  0  0  0  0  0
  -28.2550  -24.5370   20.2310 C   0  0  0  0  0  0  0  0  0  0  0  0
  -28.1560  -24.3180   22.6350 N   0  0  0  0  0  0  0  0  0  0  0  0
  -28.5450  -23.8760   23.4610 H   0  0  0  0  0  0  0  0  0  0  0  0
  -28.2610  -25.3290   22.6410 H   0  0  0  0  0  0  0  0  0  0  0  0
  -28.2410  -26.0650   20.2020 O   0  0  0  0  0  0  0  0  0  0  0  0
  -24.6720  -31.9490   23.2370 C   0  0  0  0  0  0  0  0  0  0  0  0
  -27.1740  -27.0900   20.2020 C   0  0  0  0  0  0  0  0  0  0  0  0
  -23.4500  -30.5580   21.6130 C   0  0  0  0  0  3  0  0  0  0  0  0
  -24.8730  -28.9430   20.1790 C   0  0  0  0  0  0  0  0  0  0  0  0
  -26.0110  -30.7660   21.4340 C   0  0  0  0  0  2  0  0  0  0  0  0
  -26.0650  -29.3580   20.7850 C   0  0  0  0  0  0  0  0  0  0  0  0
  -27.2090  -28.4490   20.7740 C   0  0  0  0  0  3  0  0  0  0  0  0
  -25.9540  -26.8110   19.5510 C   0  0  0  0  0  3  0  0  0  0  0  0
  -24.8380  -27.6900   19.5450 C   0  0  0  0  0  3  0  0  0  0  0  0
  -23.6570  -29.8660   20.2360 C   0  0  0  0  0  2  0  0  0  0  0  0
  -24.7330  -31.1180   22.1480 N   0  0  0  0  0  0  0  0  0  0  0  0
  -23.5920  -32.2450   23.7720 O   0  0  0  0  0  0  0  0  0  0  0  0
  -22.7650  -29.5670   22.5880 C   0  0  0  0  0  0  0  0  0  0  0  0
  -21.4360  -29.3910   22.4640 N   0  0  0  0  0  0  0  0  0  0  0  0
  -23.4350  -28.9540   23.4250 O   0  0  0  0  0  0  0  0  0  0  0  0
  -20.9490  -29.9350   21.7660 H   0  0  0  0  0  0  0  0  0  0  0  0
  -18.0630  -28.1600   22.9720 C   0  0  0  0  0  0  0  0  0  0  0  0
  -20.6190  -28.4560   23.2430 C   0  0  0  0  0  3  0  0  0  0  0  0
  -20.7370  -27.0180   22.6890 C   0  0  0  0  0  2  0  0  0  0  0  0
  -19.6430  -26.6710   21.6740 C   0  0  0  0  0  2  0  0  0  0  0  0
  -18.2570  -26.8060   22.3100 C   0  0  0  0  0  2  0  0  0  0  0  0
  -19.1710  -28.9420   23.3950 C   0  0  0  0  0  0  0  0  0  0  0  0
  -18.9330  -30.2060   23.9780 C   0  0  0  0  0  3  0  0  0  0  0  0
  -17.6210  -30.6910   24.1380 C   0  0  0  0  0  3  0  0  0  0  0  0
  -16.5280  -29.9070   23.7280 C   0  0  0  0  0  3  0  0  0  0  0  0
  -16.7500  -28.6440   23.1510 C   0  0  0  0  0  3  0  0  0  0  0  0
  -25.9560  -32.5840   23.8540 C   0  0  0  0  0  3  0  0  0  0  0  0
  -26.4690  -31.8190   25.1370 C   0  0  1  0  0  0  0  0  0  0  0  0
  -25.3780  -31.5970   26.2100 C   0  0  0  0  0  1  0  0  0  0  0  0
  -27.0440  -30.4350   24.7620 C   0  0  0  0  0  1  0  0  0  0  0  0
  -27.6280  -32.6110   25.7900 C   0  0  0  0  0  1  0  0  0  0  0  0
  -25.6510  -33.9860   24.1890 N   0  0  0  0  0  0  0  0  0  0  0  0
  -25.9520  -35.0420   23.4210 C   0  0  0  0  0  0  0  0  0  0  0  0
  -26.5780  -34.9370   22.3620 O   0  0  0  0  0  0  0  0  0  0  0  0
  -25.0890  -34.1400   25.0130 H   0  0  0  0  0  0  0  0  0  0  0  0
  -24.2020  -36.8330   23.1580 C   0  0  0  0  0  1  0  0  0  0  0  0
  -25.4880  -36.4330   23.8980 C   0  0  0  0  0  3  0  0  0  0  0  0
  -27.6570  -37.3380   24.6130 C   0  0  0  0  0  1  0  0  0  0  0  0
  -26.5100  -37.4890   23.7220 N   0  0  0  0  0  0  0  0  0  0  0  0
  -26.1070  -38.4090   23.8770 H   0  0  0  0  0  0  0  0  0  0  0  0
  -28.7400  -19.5530   20.3800 C   0  0  0  0  0  3  0  0  0  0  0  0
  -29.8970  -18.2040   20.3470 C   0  0  0  0  0  3  0  0  0  0  0  0
  -30.4000  -15.3210   20.2530 C   0  0  0  0  0  0  0  0  0  0  0  0
  -30.3580  -12.9120   19.3180 C   0  0  0  0  0  2  0  0  0  0  0  0
  -29.4170  -12.7560   18.0980 C   0  0  0  0  0  2  0  0  0  0  0  0
  -27.9720  -12.4840   18.5540 C   0  0  0  0  0  2  0  0  0  0  0  0
  -27.5440  -13.4130   19.7190 C   0  0  0  0  0  3  0  0  0  0  0  0
  -28.6120  -13.5160   20.8280 C   0  0  0  0  0  2  0  0  0  0  0  0
  -29.8340  -14.0230   20.1880 N   0  0  0  0  0  0  0  0  0  0  0  0
  -31.6130  -15.3470   20.0000 O   0  0  0  0  0  0  0  0  0  0  0  0
  -29.6260  -16.5660   20.3970 N   0  0  0  0  0  0  0  0  0  0  0  0
  -28.6510  -16.3560   20.5540 H   0  0  0  0  0  0  0  0  0  0  0  0
  -25.1770  -13.9420   20.5080 C   0  0  0  0  0  0  0  0  0  0  0  0
  -24.1280  -13.1510   20.8840 C   0  0  0  0  0  0  0  0  0  0  0  0
  -24.6090  -11.8060   20.8320 C   0  0  0  0  0  0  0  0  0  0  0  0
  -26.2260  -13.0800   20.2410 N   0  0  0  0  0  0  0  0  0  0  0  0
  -25.8970  -11.7890   20.5040 N   0  0  0  0  0  0  0  0  0  0  0  0
  -23.8970  -10.5330   21.0160 C   0  0  0  0  0  0  0  0  0  0  0  0
  -24.3290   -9.5740   21.9570 C   0  0  0  0  0  3  0  0  0  0  0  0
  -23.6150   -8.3680   22.1310 C   0  0  0  0  0  3  0  0  0  0  0  0
  -22.4540   -8.1150   21.3620 C   0  0  0  0  0  0  0  0  0  0  0  0
  -22.0410   -9.0640   20.4100 C   0  0  0  0  0  3  0  0  0  0  0  0
  -22.7570  -10.2600   20.2350 C   0  0  0  0  0  3  0  0  0  0  0  0
  -21.7110   -6.9620   21.4450 O   0  0  0  0  0  0  0  0  0  0  0  0
  -21.6280   -6.2410   22.6090 C   0  0  0  0  0  0  0  0  0  0  0  0
  -21.0990   -6.7960   23.7940 C   0  0  0  0  0  3  0  0  0  0  0  0
  -20.9690   -5.9990   24.9480 C   0  0  0  0  0  3  0  0  0  0  0  0
  -21.3560   -4.6460   24.9170 C   0  0  0  0  0  0  0  0  0  0  0  0
  -21.8760   -4.0890   23.7360 C   0  0  0  0  0  3  0  0  0  0  0  0
  -22.0090   -4.8830   22.5850 C   0  0  0  0  0  0  0  0  0  0  0  0
  -22.4920   -4.3360   21.4430 F   0  0  0  0  0  0  0  0  0  0  0  0
  -21.2230   -3.8770   26.0230 F   0  0  0  0  0  0  0  0  0  0  0  0
  -22.7290  -13.6110   21.1720 C   0  0  0  0  0  0  0  0  0  0  0  0
  -22.0200  -12.9040   22.0440 N   0  0  0  0  0  0  0  0  0  0  0  0
  -22.2750  -14.6330   20.6600 O   0  0  0  0  0  0  0  0  0  0  0  0
  -22.4010  -12.0790   22.4830 H   0  0  0  0  0  0  0  0  0  0  0  0
  -21.0810  -13.1940   22.2810 H   0  0  0  0  0  0  0  0  0  0  0  0
  -25.3200  -15.3160   20.3420 N   0  0  0  0  0  0  0  0  0  0  0  0
  -24.5410  -15.9550   20.4640 H   0  0  0  0  0  0  0  0  0  0  0  0
  -26.1400  -15.7660   19.9560 H   0  0  0  0  0  0  0  0  0  0  0  0
  1  4  1  0
  2  1  2  0
  2  6  1  0
  4 51  1  0
  4  3  2  0
  5  3  1  0
  5  7  1  0
  6  5  2  0
  7  9  1  0
  7  8  1  0
 10 12  1  0
 10  6  1  0
 11 22  2  0
 12 17  1  0
 13 21  1  0
 13 23  1  0
 14 20  1  0
 14 16  1  0
 15 21  1  0
 16 15  1  0
 17 16  2  0
 18 12  2  0
 19 18  1  0
 19 14  2  0
 20 13  1  0
 21 11  1  0
 23 25  2  0
 24 23  1  0
 26 24  1  0
 27 36  2  0
 27 32  1  0
 28 24  1  0
 28 32  1  0
 29 28  1  0
 30 31  1  0
 30 29  1  0
 31 27  1  0
 32 33  2  0
 33 34  1  0
 35 34  2  0
 36 35  1  0
 37 11  1  0
 37 42  1  0
 37 38  1  0
 38 41  1  1
 38 39  1  0
 40 38  1  0
 42 45  1  0
 43 47  1  0
 43 42  1  0
 44 43  2  0
 47 46  1  0
 49 50  1  0
 49 47  1  0
 49 48  1  0
 52 51  2  0
 52 61  1  0
 53 61  1  0
 54 59  1  0
 55 56  1  0
 55 54  1  0
 57 56  1  0
 57 66  1  0
 57 58  1  0
 59 53  1  0
 59 58  1  0
 60 53  2  0
 61 62  1  0
 63 64  2  0
 64 83  1  0
 65 64  1  0
 65 68  1  0
 66 67  1  0
 66 63  1  0
 67 65  2  0
 68 69  1  0
 69 70  2  0
 71 74  1  0
 71 70  1  0
 72 71  2  0
 73 72  1  0
 73 68  2  0
 74 75  1  0
 75 76  1  0
 76 77  2  0
 78 77  1  0
 78 82  1  0
 79 78  2  0
 80 75  2  0
 80 79  1  0
 81 80  1  0
 83 84  1  0
 84 87  1  0
 84 86  1  0
 85 83  2  0
 88 89  1  0
 88 63  1  0
 90 88  1  0
M  ISO  4   6 101  10 101  53 100  61 100
M  END
>  <TORSDO>  (28) 
F 19

>  <SCORE>  (28) 
-15.573

>  <name>  (28) 
27

>  <ligand_id>  (28) 
27

>  <original_smiles>  (28) 
[H]c1c([H])c([H])c2c(c1[H])C([H])([H])C([H])([H])C([H])([H])C2([H])N([H])C(=O)C1([H])N(C(=O)C([H])(N([H])C(=O)C([H])(N([H])C([H])([H])[H])C([H])([H])[H])C(C([H])([H])[H])(C([H])([H])[H])C([H])([H])[H])C([H])([H])c2c([H])c(Oc3c([H])c([H])c(C([H])([H])C([H])([H])N([H])C(=O)N4C([H])([H])C([H])([H])C([H])([H])C([H])(n5nc(-c6c([H])c([H])c(Oc7c([H])c([H])c(F)c([H])c7F)c([H])c6[H])c(C(=O)N([H])[H])c5N([H])[H])C4([H])[H])c([H])c3N([H])[H])c([H])c([H])c2C1([H])[H]

>  <smiles>  (28) 
[H]c1c([H])c([H])c2c(c1[H])C([H])([H])C([H])([H])C([H])([H])C2([H])N([H])C(=O)C1([H])N(C(=O)C([H])(N([H])C(=O)C([H])(N([H])C([H])([H])[H])C([H])([H])[H])C(C([H])([H])[H])(C([H])([H])[H])C([H])([H])[H])C([H])([H])c2c([H])c(Oc3c([H])c([H])c(C([H])([H])C([H])([H])N([H])C(=O)N4C([H])([H])C([H])([H])C([H])([H])C([H])(n5nc(-c6c([H])c([H])c(Oc7c([H])c([H])c(F)c([H])c7F)c([H])c6[H])c(C(=O)N([H])[H])c5N([H])[H])C4([H])[H])c([H])c3N([H])[H])c([H])c([H])c2C1([H])[H]

$$$$
28:0:0
     RDKit          3D

 97106  0  0  1  0  0  0  0  0999 V2000
  -29.9550  -18.4220   19.9250 C   0  0  0  0  0  0  0  0  0  0  0  0
  -30.3630  -15.4360   20.1560 C   0  0  0  0  0  0  0  0  0  0  0  0
  -30.3500  -12.9490   19.3620 C   0  0  0  0  0  2  0  0  0  0  0  0
  -29.4390  -12.6930   18.1370 C   0  0  0  0  0  2  0  0  0  0  0  0
  -28.0050  -12.3850   18.6040 C   0  0  0  0  0  2  0  0  0  0  0  0
  -27.5320  -13.3730   19.7010 C   0  0  0  0  0  3  0  0  0  0  0  0
  -28.5840  -13.6050   20.8080 C   0  0  0  0  0  2  0  0  0  0  0  0
  -29.7880  -14.1220   20.1340 N   0  0  0  0  0  0  0  0  0  0  0  0
  -31.5940  -15.3790   20.0200 O   0  0  0  0  0  0  0  0  0  0  0  0
  -29.6270  -16.7540   20.1110 N   0  0  0  0  0  4  0  0  0  0  0  0
  -28.6330  -16.5930   20.1780 H   0  0  0  0  0  0  0  0  0  0  0  0
  -25.1680  -13.9220   20.4750 C   0  0  0  0  0  0  0  0  0  0  0  0
  -24.1070  -13.1480   20.8460 C   0  0  0  0  0  0  0  0  0  0  0  0
  -24.5750  -11.7960   20.8190 C   0  0  0  0  0  0  0  0  0  0  0  0
  -26.2120  -13.0490   20.2280 N   0  0  0  0  0  0  0  0  0  0  0  0
  -25.8680  -11.7640   20.5050 N   0  0  0  0  0  0  0  0  0  0  0  0
  -23.8470  -10.5350   21.0100 C   0  0  0  0  0  0  0  0  0  0  0  0
  -24.2700   -9.5720   21.9520 C   0  0  0  0  0  3  0  0  0  0  0  0
  -23.5380   -8.3780   22.1330 C   0  0  0  0  0  3  0  0  0  0  0  0
  -22.3690   -8.1400   21.3700 C   0  0  0  0  0  0  0  0  0  0  0  0
  -21.9640   -9.0950   20.4210 C   0  0  0  0  0  3  0  0  0  0  0  0
  -22.6960  -10.2790   20.2380 C   0  0  0  0  0  3  0  0  0  0  0  0
  -21.6100   -6.9980   21.4620 O   0  0  0  0  0  0  0  0  0  0  0  0
  -21.5490   -6.2610   22.6190 C   0  0  0  0  0  0  0  0  0  0  0  0
  -21.1100   -6.8220   23.8380 C   0  0  0  0  0  3  0  0  0  0  0  0
  -21.0010   -6.0110   24.9870 C   0  0  0  0  0  3  0  0  0  0  0  0
  -21.3170   -4.6430   24.9160 C   0  0  0  0  0  0  0  0  0  0  0  0
  -21.7490   -4.0810   23.7020 C   0  0  0  0  0  3  0  0  0  0  0  0
  -21.8620   -4.8870   22.5560 C   0  0  0  0  0  0  0  0  0  0  0  0
  -22.2600   -4.3370   21.3830 F   0  0  0  0  0  0  0  0  0  0  0  0
  -21.2030   -3.8630   26.0160 F   0  0  0  0  0  0  0  0  0  0  0  0
  -22.7090  -13.6270   21.1030 C   0  0  0  0  0  0  0  0  0  0  0  0
  -21.9650  -12.9430   21.9620 N   0  0  0  0  0  0  0  0  0  0  0  0
  -22.2850  -14.6560   20.5760 O   0  0  0  0  0  0  0  0  0  0  0  0
  -22.3170  -12.1170   22.4220 H   0  0  0  0  0  0  0  0  0  0  0  0
  -21.0270  -13.2560   22.1660 H   0  0  0  0  0  0  0  0  0  0  0  0
  -25.3240  -15.2940   20.2930 N   0  0  0  0  0  0  0  0  0  0  0  0
  -24.5390  -15.9270   20.4020 H   0  0  0  0  0  0  0  0  0  0  0  0
  -26.1650  -15.7470   19.9640 H   0  0  0  0  0  0  0  0  0  0  0  0
  -32.5580  -20.5630   18.6900 C   0  0  0  0  0  2  0  0  0  0  0  0
  -32.3670  -19.0760   19.0260 C   0  0  0  0  0  2  0  0  0  0  0  0
  -32.2800  -20.8200   17.2030 C   0  0  0  0  0  2  0  0  0  0  0  0
  -30.4390  -19.0320   17.3050 C   0  0  0  0  0  2  0  0  0  0  0  0
  -30.9610  -18.5160   18.6990 C   0  0  0  0  0  3  0  0  0  0  0  0
  -30.8310  -20.4700   16.8320 C   0  0  0  0  0  3  0  0  0  0  0  0
  -29.8850  -21.5360   17.2120 N   0  0  0  0  0  4  0  0  0  0  0  0
  -29.8610  -21.6800   18.2070 H   0  0  0  0  0  0  0  0  0  0  0  0
  -28.9540  -21.3090   16.9060 H   0  0  0  0  0  0  0  0  0  0  0  0
  -30.1350  -22.4020   16.7630 H   0  0  0  0  0  0  0  0  0  0  0  0
  -26.9620  -20.9160   18.7550 C   0  0  0  0  0  3  0  0  0  0  0  0
  -27.2030  -22.2500   19.1800 C   0  0  0  0  0  3  0  0  0  0  0  0
  -27.7740  -19.7910   19.0770 C   0  0  0  0  0  3  0  0  0  0  0  0
  -29.1380  -21.3680   20.3090 C   0  0  0  0  0  3  0  0  0  0  0  0
  -28.2830  -22.6330   20.0070 C   0  0  0  0  0  0  0  0  0  0  0  0
  -28.9580  -19.8850   19.8490 C   0  0  0  0  0  0  0  0  0  0  0  0
  -28.1130  -24.2610   20.6800 C   0  0  0  0  0  2  0  0  0  0  0  0
  -28.2340  -25.8380   20.1740 O   0  0  0  0  0  0  0  0  0  0  0  0
  -24.6410  -31.8580   23.1830 C   0  0  0  0  0  0  0  0  0  0  0  0
  -27.2200  -26.9400   20.2260 C   0  0  0  0  0  0  0  0  0  0  0  0
  -23.4710  -30.4540   21.5380 C   0  0  0  0  0  3  0  0  0  0  0  0
  -24.9320  -28.8400   20.1430 C   0  0  0  0  0  0  0  0  0  0  0  0
  -26.0390  -30.6610   21.4180 C   0  0  0  0  0  2  0  0  0  0  0  0
  -26.1170  -29.2440   20.7720 C   0  0  0  0  0  0  0  0  0  0  0  0
  -27.2620  -28.3210   20.7780 C   0  0  0  0  0  3  0  0  0  0  0  0
  -26.0020  -26.6880   19.5650 C   0  0  0  0  0  3  0  0  0  0  0  0
  -24.9000  -27.5820   19.5200 C   0  0  0  0  0  3  0  0  0  0  0  0
  -23.7160  -29.7670   20.1690 C   0  0  0  0  0  2  0  0  0  0  0  0
  -24.7400  -31.0160   22.1020 N   0  0  0  0  0  0  0  0  0  0  0  0
  -23.5440  -32.1510   23.6860 O   0  0  0  0  0  0  0  0  0  0  0  0
  -22.7650  -29.4610   22.5000 C   0  0  0  0  0  0  0  0  0  0  0  0
  -21.4340  -29.3140   22.3810 N   0  0  0  0  0  0  0  0  0  0  0  0
  -23.4230  -28.8210   23.3220 O   0  0  0  0  0  0  0  0  0  0  0  0
  -20.9500  -29.8830   21.7000 H   0  0  0  0  0  0  0  0  0  0  0  0
  -18.0370  -28.1600   22.9170 C   0  0  0  0  0  0  0  0  0  0  0  0
  -20.6040  -28.3820   23.1520 C   0  0  0  0  0  3  0  0  0  0  0  0
  -20.6730  -26.9560   22.5590 C   0  0  0  0  0  2  0  0  0  0  0  0
  -19.5540  -26.6640   21.5540 C   0  0  0  0  0  2  0  0  0  0  0  0
  -18.1840  -26.8210   22.2180 C   0  0  0  0  0  2  0  0  0  0  0  0
  -19.1710  -28.9010   23.3430 C   0  0  0  0  0  0  0  0  0  0  0  0
  -18.9740  -30.1550   23.9610 C   0  0  0  0  0  3  0  0  0  0  0  0
  -17.6760  -30.6700   24.1530 C   0  0  0  0  0  3  0  0  0  0  0  0
  -16.5580  -29.9260   23.7400 C   0  0  0  0  0  3  0  0  0  0  0  0
  -16.7390  -28.6720   23.1290 C   0  0  0  0  0  3  0  0  0  0  0  0
  -25.9010  -32.5070   23.8300 C   0  0  0  0  0  3  0  0  0  0  0  0
  -26.3920  -31.7490   25.1250 C   0  0  1  0  0  0  0  0  0  0  0  0
  -25.2810  -31.5260   26.1760 C   0  0  0  0  0  1  0  0  0  0  0  0
  -26.9800  -30.3650   24.7650 C   0  0  0  0  0  1  0  0  0  0  0  0
  -27.5310  -32.5510   25.7990 C   0  0  0  0  0  1  0  0  0  0  0  0
  -25.5740  -33.9090   24.1560 N   0  0  0  0  0  0  0  0  0  0  0  0
  -25.9100  -34.9710   23.4140 C   0  0  0  0  0  0  0  0  0  0  0  0
  -26.5950  -34.8770   22.3910 O   0  0  0  0  0  0  0  0  0  0  0  0
  -24.9650  -34.0530   24.9490 H   0  0  0  0  0  0  0  0  0  0  0  0
  -24.1860  -36.7750   23.0550 C   0  0  0  0  0  1  0  0  0  0  0  0
  -25.4170  -36.3600   23.8760 C   0  0  0  0  0  3  0  0  0  0  0  0
  -27.5410  -37.2480   24.7370 C   0  0  0  0  0  1  0  0  0  0  0  0
  -26.4500  -37.4140   23.7810 N   0  0  0  0  0  0  0  0  0  0  0  0
  -26.0430  -38.3340   23.9260 H   0  0  0  0  0  0  0  0  0  0  0  0
  1 10  2  0
  3  8  1  0
  4  5  1  0
  4  3  1  0
  6  5  1  0
  6 15  1  0
  6  7  1  0
  8  2  1  0
  8  7  1  0
  9  2  2  0
 10  2  1  0
 10 11  1  0
 12 13  2  0
 13 32  1  0
 14 13  1  0
 14 17  1  0
 15 12  1  0
 15 16  1  0
 16 14  2  0
 17 18  1  0
 18 19  2  0
 20 23  1  0
 20 19  1  0
 21 20  2  0
 22 21  1  0
 22 17  2  0
 23 24  1  0
 24 25  1  0
 25 26  2  0
 27 26  1  0
 27 31  1  0
 28 27  2  0
 29 24  2  0
 29 28  1  0
 30 29  1  0
 32 33  1  0
 33 36  1  0
 33 35  1  0
 34 32  2  0
 37 38  1  0
 37 12  1  0
 39 37  1  0
 40 41  1  0
 42 40  1  0
 43 44  1  0
 44 41  1  0
 44  1  1  0
 45 42  1  0
 45 46  1  0
 45 43  1  0
 46 47  1  0
 48 46  1  0
 49 46  1  0
 50 52  2  0
 50 51  1  0
 51 54  2  0
 52 55  1  0
 54 53  1  0
 54 56  1  0
 55  1  1  0
 55 53  2  0
 57 59  1  0
 57 56  1  0
 58 69  2  0
 59 64  1  0
 60 68  1  0
 60 70  1  0
 61 67  1  0
 61 63  1  0
 62 68  1  0
 63 64  2  0
 63 62  1  0
 65 59  2  0
 66 65  1  0
 66 61  2  0
 67 60  1  0
 68 58  1  0
 70 72  2  0
 71 70  1  0
 73 71  1  0
 74 83  2  0
 74 79  1  0
 75 71  1  0
 75 79  1  0
 76 75  1  0
 77 78  1  0
 77 76  1  0
 78 74  1  0
 79 80  2  0
 80 81  1  0
 82 81  2  0
 83 82  1  0
 84 58  1  0
 84 89  1  0
 84 85  1  0
 85 88  1  1
 85 86  1  0
 87 85  1  0
 89 92  1  0
 90 94  1  0
 90 89  1  0
 91 90  2  0
 94 93  1  0
 96 94  1  0
 96 97  1  0
 96 95  1  0
M  ISO  4   2 100  10 100  56 101  57 101
M  END
>  <TORSDO>  (29) 
F 20

>  <SCORE>  (29) 
-16.465

>  <name>  (29) 
28

>  <ligand_id>  (29) 
28

>  <original_smiles>  (29) 
[H]c1c([H])c([H])c2c(c1[H])C([H])([H])C([H])([H])C([H])([H])C2([H])N([H])C(=O)C1([H])N(C(=O)C([H])(N([H])C(=O)C([H])(N([H])C([H])([H])[H])C([H])([H])[H])C(C([H])([H])[H])(C([H])([H])[H])C([H])([H])[H])C([H])([H])c2c([H])c(OC([H])([H])c3c([H])c([H])c([H])c(C([H])(N([H])C(=O)N4C([H])([H])C([H])([H])C([H])([H])C([H])(n5nc(-c6c([H])c([H])c(Oc7c([H])c([H])c(F)c([H])c7F)c([H])c6[H])c(C(=O)N([H])[H])c5N([H])[H])C4([H])[H])C4([H])C([H])([H])C([H])([H])C([H])([H])C([H])([N+]([H])([H])[H])C4([H])[H])c3[H])c([H])c([H])c2C1([H])[H]

>  <smiles>  (29) 
[H]c1c([H])c([H])c2c(c1[H])C([H])([H])C([H])([H])C([H])([H])C2([H])N([H])C(=O)C1([H])N(C(=O)C([H])(N([H])C(=O)C([H])(N([H])C([H])([H])[H])C([H])([H])[H])C(C([H])([H])[H])(C([H])([H])[H])C([H])([H])[H])C([H])([H])c2c([H])c(OC([H])([H])c3c([H])c([H])c([H])c(C([H])(N([H])C(=O)N4C([H])([H])C([H])([H])C([H])([H])C([H])(n5nc(-c6c([H])c([H])c(Oc7c([H])c([H])c(F)c([H])c7F)c([H])c6[H])c(C(=O)N([H])[H])c5N([H])[H])C4([H])[H])C4([H])C([H])([H])C([H])([H])C([H])([H])C([H])([N+]([H])([H])[H])C4([H])[H])c3[H])c([H])c([H])c2C1([H])[H]

$$$$
29:0:0
     RDKit          3D

 92100  0  0  1  0  0  0  0  0999 V2000
  -29.0050  -17.6440   22.0360 C   0  0  0  0  0  3  0  0  0  0  0  0
  -29.5470  -16.4880   21.4360 C   0  0  0  0  0  3  0  0  0  0  0  0
  -29.2540  -18.9420   21.5500 C   0  0  0  0  0  3  0  0  0  0  0  0
  -30.3410  -16.5260   20.2670 C   0  0  0  0  0  0  0  0  0  0  0  0
  -30.5640  -17.9270   19.7610 C   0  0  0  0  0  0  0  0  0  0  0  0
  -30.0370  -19.1770   20.4020 C   0  0  0  0  0  0  0  0  0  0  0  0
  -31.0000  -15.1300   19.7620 C   0  0  0  0  0  0  0  0  0  0  0  0
  -30.7960  -12.8060   18.7530 C   0  0  0  0  0  2  0  0  0  0  0  0
  -29.8050  -12.8390   17.5650 C   0  0  0  0  0  2  0  0  0  0  0  0
  -28.3610  -12.6120   18.0530 C   0  0  0  0  0  2  0  0  0  0  0  0
  -28.0340  -13.4870   19.2900 C   0  0  0  0  0  3  0  0  0  0  0  0
  -29.1380  -13.4230   20.3590 C   0  0  0  0  0  2  0  0  0  0  0  0
  -30.3890  -13.8690   19.7270 N   0  0  0  0  0  0  0  0  0  0  0  0
  -32.1440  -15.1740   19.2920 O   0  0  0  0  0  0  0  0  0  0  0  0
  -25.6980  -14.0670   20.1550 C   0  0  0  0  0  0  0  0  0  0  0  0
  -24.6580  -13.2910   20.5910 C   0  0  0  0  0  0  0  0  0  0  0  0
  -25.1210  -11.9420   20.5350 C   0  0  0  0  0  0  0  0  0  0  0  0
  -26.7240  -13.1890   19.8560 N   0  0  0  0  0  0  0  0  0  0  0  0
  -26.3930  -11.9060   20.1490 N   0  0  0  0  0  0  0  0  0  0  0  0
  -24.4070  -10.6790   20.7650 C   0  0  0  0  0  0  0  0  0  0  0  0
  -24.8250   -9.7630   21.7560 C   0  0  0  0  0  3  0  0  0  0  0  0
  -24.1090   -8.5650   21.9690 C   0  0  0  0  0  3  0  0  0  0  0  0
  -22.9580   -8.2790   21.1940 C   0  0  0  0  0  0  0  0  0  0  0  0
  -22.5600   -9.1850   20.1940 C   0  0  0  0  0  3  0  0  0  0  0  0
  -23.2780  -10.3730   19.9800 C   0  0  0  0  0  3  0  0  0  0  0  0
  -22.2160   -7.1300   21.3140 O   0  0  0  0  0  0  0  0  0  0  0  0
  -22.0430   -6.5040   22.5220 C   0  0  0  0  0  0  0  0  0  0  0  0
  -21.4730   -7.1710   23.6300 C   0  0  0  0  0  3  0  0  0  0  0  0
  -21.2490   -6.4720   24.8320 C   0  0  0  0  0  3  0  0  0  0  0  0
  -21.5870   -5.1080   24.9280 C   0  0  0  0  0  0  0  0  0  0  0  0
  -22.1470   -4.4420   23.8240 C   0  0  0  0  0  3  0  0  0  0  0  0
  -22.3720   -5.1370   22.6230 C   0  0  0  0  0  0  0  0  0  0  0  0
  -22.8940   -4.4850   21.5560 F   0  0  0  0  0  0  0  0  0  0  0  0
  -21.3630   -4.4350   26.0790 F   0  0  0  0  0  0  0  0  0  0  0  0
  -23.2810  -13.7720   20.9460 C   0  0  0  0  0  0  0  0  0  0  0  0
  -22.6210  -13.0950   21.8770 N   0  0  0  0  0  0  0  0  0  0  0  0
  -22.8050  -14.7830   20.4330 O   0  0  0  0  0  0  0  0  0  0  0  0
  -23.0230  -12.2790   22.3100 H   0  0  0  0  0  0  0  0  0  0  0  0
  -21.7020  -13.4020   22.1630 H   0  0  0  0  0  0  0  0  0  0  0  0
  -25.8460  -15.4390   19.9670 N   0  0  0  0  0  0  0  0  0  0  0  0
  -25.0760  -16.0870   20.0900 H   0  0  0  0  0  0  0  0  0  0  0  0
  -26.6860  -15.8790   19.6100 H   0  0  0  0  0  0  0  0  0  0  0  0
  -30.2370  -20.6080   20.0290 N   0  0  0  0  0  0  0  0  0  0  0  0
  -30.7760  -20.7590   19.1780 H   0  0  0  0  0  0  0  0  0  0  0  0
  -29.5280  -21.8870   20.6070 C   0  0  0  0  0  2  0  0  0  0  0  0
  -29.7880  -23.4850   20.1130 C   0  0  0  0  0  3  0  0  0  0  0  0
  -28.7700  -24.7990   20.4590 C   0  0  0  0  0  3  0  0  0  0  0  0
  -28.9700  -26.3270   20.1790 O   0  0  0  0  0  0  0  0  0  0  0  0
  -25.0300  -31.7460   23.3120 C   0  0  0  0  0  0  0  0  0  0  0  0
  -27.8720  -27.2650   20.1590 C   0  0  0  0  0  0  0  0  0  0  0  0
  -23.9510  -30.3840   21.5870 C   0  0  0  0  0  3  0  0  0  0  0  0
  -25.4820  -28.9270   20.1290 C   0  0  0  0  0  0  0  0  0  0  0  0
  -26.4840  -30.7500   21.5000 C   0  0  0  0  0  2  0  0  0  0  0  0
  -26.6250  -29.3890   20.7910 C   0  0  0  0  0  0  0  0  0  0  0  0
  -27.8210  -28.5750   20.7900 C   0  0  0  0  0  3  0  0  0  0  0  0
  -26.6990  -26.9110   19.4580 C   0  0  0  0  0  3  0  0  0  0  0  0
  -25.5300  -27.7030   19.4450 C   0  0  0  0  0  3  0  0  0  0  0  0
  -24.2190  -29.7730   20.1840 C   0  0  0  0  0  2  0  0  0  0  0  0
  -25.1760  -30.9810   22.1890 N   0  0  0  0  0  0  0  0  0  0  0  0
  -23.9170  -31.9620   23.8140 O   0  0  0  0  0  0  0  0  0  0  0  0
  -23.2820  -29.3190   22.4860 C   0  0  0  0  0  0  0  0  0  0  0  0
  -21.9740  -29.2020   22.2900 N   0  0  0  0  0  0  0  0  0  0  0  0
  -23.9230  -28.6310   23.2770 O   0  0  0  0  0  0  0  0  0  0  0  0
  -21.5800  -29.8990   21.6730 H   0  0  0  0  0  0  0  0  0  0  0  0
  -18.5870  -27.6310   22.5850 C   0  0  0  0  0  0  0  0  0  0  0  0
  -21.0470  -28.1420   22.6010 C   0  0  0  0  0  3  0  0  0  0  0  0
  -21.3690  -26.6700   22.3140 C   0  0  0  0  0  2  0  0  0  0  0  0
  -20.3040  -26.1220   21.3410 C   0  0  0  0  0  2  0  0  0  0  0  0
  -18.8680  -26.3000   21.8840 C   0  0  0  0  0  2  0  0  0  0  0  0
  -19.6380  -28.4690   23.0330 C   0  0  0  0  0  0  0  0  0  0  0  0
  -19.3480  -29.6800   23.6940 C   0  0  0  0  0  3  0  0  0  0  0  0
  -18.0140  -30.0890   23.8600 C   0  0  0  0  0  3  0  0  0  0  0  0
  -16.9670  -29.2760   23.3860 C   0  0  0  0  0  3  0  0  0  0  0  0
  -17.2520  -28.0470   22.7620 C   0  0  0  0  0  3  0  0  0  0  0  0
  -26.2590  -32.3970   24.0100 C   0  0  0  0  0  3  0  0  0  0  0  0
  -25.8870  -33.7700   24.3760 N   0  0  0  0  0  0  0  0  0  0  0  0
  -26.2040  -34.8620   23.6650 C   0  0  0  0  0  0  0  0  0  0  0  0
  -26.9080  -34.8170   22.6530 O   0  0  0  0  0  0  0  0  0  0  0  0
  -25.2640  -33.8750   25.1630 H   0  0  0  0  0  0  0  0  0  0  0  0
  -24.4340  -36.6170   23.3180 C   0  0  0  0  0  1  0  0  0  0  0  0
  -25.6580  -36.2140   24.1570 C   0  0  0  0  0  3  0  0  0  0  0  0
  -27.7320  -37.1320   25.0980 C   0  0  0  0  0  1  0  0  0  0  0  0
  -26.6600  -37.3020   24.1220 N   0  0  0  0  0  0  0  0  0  0  0  0
  -26.2200  -38.2020   24.2930 H   0  0  0  0  0  0  0  0  0  0  0  0
  -26.7410  -31.5950   25.2810 C   0  0  1  0  0  0  0  0  0  0  0  0
  -25.6050  -31.2650   26.2760 C   0  0  0  0  0  1  0  0  0  0  0  0
  -27.4110  -30.2620   24.8730 C   0  0  0  0  0  1  0  0  0  0  0  0
  -27.8110  -32.4170   26.0370 C   0  0  0  0  0  1  0  0  0  0  0  0
  -31.3860  -18.0930   18.4880 C   0  0  0  0  0  2  0  0  0  0  0  0
  -30.5210  -18.3170   17.2340 C   0  0  0  0  0  2  0  0  0  0  0  0
  -29.4070  -20.0480   15.7190 C   0  0  0  0  0  1  0  0  0  0  0  0
  -30.0410  -19.7680   17.0870 C   0  0  0  0  0  2  0  0  0  0  0  0
  2  1  2  0
  3  1  1  0
  4  2  1  0
  5  4  2  0
  5  6  1  0
  6  3  2  0
  7  4  1  0
  8 13  1  0
  9 10  1  0
  9  8  1  0
 11 10  1  0
 11 18  1  0
 11 12  1  0
 13  7  1  0
 13 12  1  0
 14  7  2  0
 15 16  2  0
 16 35  1  0
 17 16  1  0
 17 20  1  0
 18 19  1  0
 18 15  1  0
 19 17  2  0
 20 21  1  0
 21 22  2  0
 23 26  1  0
 23 22  1  0
 24 23  2  0
 25 24  1  0
 25 20  2  0
 26 27  1  0
 27 32  2  0
 27 28  1  0
 28 29  2  0
 29 30  1  0
 30 34  1  0
 31 30  2  0
 32 31  1  0
 33 32  1  0
 35 36  1  0
 36 39  1  0
 36 38  1  0
 37 35  2  0
 40 41  1  0
 40 15  1  0
 42 40  1  0
 43  6  1  0
 43 45  1  0
 44 43  1  0
 46 47  2  0
 46 45  1  0
 48 47  1  0
 49 60  2  0
 50 48  1  0
 50 55  1  0
 51 59  1  0
 51 61  1  0
 52 58  1  0
 52 54  1  0
 53 59  1  0
 54 53  1  0
 55 54  2  0
 56 50  2  0
 57 56  1  0
 57 52  2  0
 58 51  1  0
 59 49  1  0
 61 63  2  0
 62 61  1  0
 64 62  1  0
 65 74  2  0
 65 70  1  0
 66 62  1  0
 66 70  1  0
 67 66  1  0
 68 69  1  0
 68 67  1  0
 69 65  1  0
 70 71  2  0
 71 72  1  0
 73 72  2  0
 74 73  1  0
 75 49  1  0
 75 76  1  0
 75 85  1  0
 76 79  1  0
 77 81  1  0
 77 76  1  0
 78 77  2  0
 81 80  1  0
 83 81  1  0
 83 84  1  0
 83 82  1  0
 85 88  1  1
 85 86  1  0
 87 85  1  0
 89  5  1  0
 90 89  1  0
 91 92  1  0
 92 90  1  0
M  ISO  4   4 100   7 100  47 101  48 101
M  END
>  <TORSDO>  (30) 
F 23

>  <SCORE>  (30) 
-9.739

>  <name>  (30) 
29

>  <ligand_id>  (30) 
29

>  <original_smiles>  (30) 
[H]c1c([H])c(C(=O)N2C([H])([H])C([H])([H])C([H])([H])C([H])(n3nc(-c4c([H])c([H])c(Oc5c([H])c([H])c(F)c([H])c5F)c([H])c4[H])c(C(=O)N([H])[H])c3N([H])[H])C2([H])[H])c(C([H])([H])C([H])([H])C([H])([H])C([H])([H])[H])c(N([H])C([H])([H])C([H])([H])C([H])([H])Oc2c([H])c([H])c3c(c2[H])C([H])([H])N(C(=O)C([H])(N([H])C(=O)C([H])(N([H])C([H])([H])[H])C([H])([H])[H])C(C([H])([H])[H])(C([H])([H])[H])C([H])([H])[H])C([H])(C(=O)N([H])C2([H])c4c([H])c([H])c([H])c([H])c4C([H])([H])C([H])([H])C2([H])[H])C3([H])[H])c1[H]

>  <smiles>  (30) 
[H]c1c([H])c(C(=O)N2C([H])([H])C([H])([H])C([H])([H])C([H])(n3nc(-c4c([H])c([H])c(Oc5c([H])c([H])c(F)c([H])c5F)c([H])c4[H])c(C(=O)N([H])[H])c3N([H])[H])C2([H])[H])c(C([H])([H])C([H])([H])C([H])([H])C([H])([H])[H])c(N([H])C([H])([H])C([H])([H])C([H])([H])Oc2c([H])c([H])c3c(c2[H])C([H])([H])N(C(=O)C([H])(N([H])C(=O)C([H])(N([H])C([H])([H])[H])C([H])([H])[H])C(C([H])([H])[H])(C([H])([H])[H])C([H])([H])[H])C([H])(C(=O)N([H])C2([H])c4c([H])c([H])c([H])c([H])c4C([H])([H])C([H])([H])C2([H])[H])C3([H])[H])c1[H]

$$$$
30:0:0
     RDKit          3D

 93102  0  0  1  0  0  0  0  0999 V2000
  -26.2950  -23.8610   21.9310 C   0  0  0  0  0  2  0  0  0  0  0  0
  -26.8340  -22.6600   21.1310 C   0  0  0  0  0  2  0  0  0  0  0  0
  -27.1440  -25.1390   21.7590 C   0  0  0  0  0  2  0  0  0  0  0  0
  -28.8780  -23.9880   20.3040 C   0  0  0  0  0  2  0  0  0  0  0  0
  -28.3710  -22.6700   21.0460 C   0  0  0  0  0  3  0  0  0  0  0  0
  -27.8450  -25.1860   20.3750 C   0  0  0  0  0  3  0  0  0  0  0  0
  -29.1920  -20.2850   21.6080 C   0  0  0  0  0  3  0  0  0  0  0  0
  -28.9390  -20.8350   19.2730 C   0  0  0  0  0  3  0  0  0  0  0  0
  -29.6070  -18.9630   21.2730 C   0  0  0  0  0  3  0  0  0  0  0  0
  -29.3420  -19.5130   18.9390 C   0  0  0  0  0  3  0  0  0  0  0  0
  -28.8790  -21.2580   20.6200 C   0  0  0  0  0  0  0  0  0  0  0  0
  -29.7080  -18.5570   19.9250 C   0  0  0  0  0  0  0  0  0  0  0  0
  -31.9300  -17.6380   19.4360 C   0  0  0  0  0  1  0  0  0  0  0  0
  -30.4330  -17.2540   19.4710 C   0  0  0  0  0  3  0  0  0  0  0  0
  -30.8170  -14.7570   19.9290 C   0  0  0  0  0  0  0  0  0  0  0  0
  -30.4630  -12.5290   18.9330 C   0  0  0  0  0  2  0  0  0  0  0  0
  -29.4650  -12.6690   17.7650 C   0  0  0  0  0  2  0  0  0  0  0  0
  -28.0250  -12.5050   18.2810 C   0  0  0  0  0  2  0  0  0  0  0  0
  -27.7310  -13.3750   19.5320 C   0  0  0  0  0  3  0  0  0  0  0  0
  -28.8560  -13.2780   20.5890 C   0  0  0  0  0  2  0  0  0  0  0  0
  -30.1270  -13.5770   19.9190 N   0  0  0  0  0  0  0  0  0  0  0  0
  -31.9770  -14.7820   19.5270 O   0  0  0  0  0  0  0  0  0  0  0  0
  -30.1250  -15.9260   20.1240 N   0  0  0  0  0  0  0  0  0  0  0  0
  -29.1820  -15.8260   20.4720 H   0  0  0  0  0  0  0  0  0  0  0  0
  -25.3970  -13.9330   20.4400 C   0  0  0  0  0  0  0  0  0  0  0  0
  -24.3600  -13.1420   20.8560 C   0  0  0  0  0  0  0  0  0  0  0  0
  -24.8230  -11.7940   20.7500 C   0  0  0  0  0  0  0  0  0  0  0  0
  -26.4240  -13.0670   20.1050 N   0  0  0  0  0  0  0  0  0  0  0  0
  -26.0880  -11.7750   20.3540 N   0  0  0  0  0  0  0  0  0  0  0  0
  -24.1130  -10.5240   20.9490 C   0  0  0  0  0  0  0  0  0  0  0  0
  -24.5400   -9.5810   21.9100 C   0  0  0  0  0  3  0  0  0  0  0  0
  -23.8300   -8.3750   22.0960 C   0  0  0  0  0  3  0  0  0  0  0  0
  -22.6790   -8.1030   21.3180 C   0  0  0  0  0  0  0  0  0  0  0  0
  -22.2690   -9.0350   20.3490 C   0  0  0  0  0  3  0  0  0  0  0  0
  -22.9790  -10.2330   20.1620 C   0  0  0  0  0  3  0  0  0  0  0  0
  -21.9410   -6.9490   21.4130 O   0  0  0  0  0  0  0  0  0  0  0  0
  -21.7860   -6.2880   22.6060 C   0  0  0  0  0  0  0  0  0  0  0  0
  -21.2190   -6.9160   23.7370 C   0  0  0  0  0  3  0  0  0  0  0  0
  -21.0130   -6.1800   24.9210 C   0  0  0  0  0  3  0  0  0  0  0  0
  -21.3650   -4.8180   24.9750 C   0  0  0  0  0  0  0  0  0  0  0  0
  -21.9250   -4.1900   23.8480 C   0  0  0  0  0  3  0  0  0  0  0  0
  -22.1330   -4.9230   22.6660 C   0  0  0  0  0  0  0  0  0  0  0  0
  -22.6530   -4.3090   21.5770 F   0  0  0  0  0  0  0  0  0  0  0  0
  -21.1610   -4.1090   26.1080 F   0  0  0  0  0  0  0  0  0  0  0  0
  -22.9830  -13.6070   21.2350 C   0  0  0  0  0  0  0  0  0  0  0  0
  -22.3160  -12.8840   22.1280 N   0  0  0  0  0  0  0  0  0  0  0  0
  -22.5110  -14.6440   20.7730 O   0  0  0  0  0  0  0  0  0  0  0  0
  -22.7100  -12.0460   22.5270 H   0  0  0  0  0  0  0  0  0  0  0  0
  -21.3950  -13.1800   22.4220 H   0  0  0  0  0  0  0  0  0  0  0  0
  -25.5420  -15.3090   20.2960 N   0  0  0  0  0  0  0  0  0  0  0  0
  -24.7780  -15.9480   20.4820 H   0  0  0  0  0  0  0  0  0  0  0  0
  -26.3580  -15.7670   19.9110 H   0  0  0  0  0  0  0  0  0  0  0  0
  -28.2380  -26.5720   20.0290 O   0  0  0  0  0  0  0  0  0  0  0  0
  -24.5550  -31.8740   23.1530 C   0  0  0  0  0  0  0  0  0  0  0  0
  -27.1660  -27.4700   19.9260 C   0  0  0  0  0  0  0  0  0  0  0  0
  -23.3470  -30.5140   21.4880 C   0  0  0  0  0  3  0  0  0  0  0  0
  -24.7970  -29.0500   19.9850 C   0  0  0  0  0  0  0  0  0  0  0  0
  -25.8790  -30.8780   21.2840 C   0  0  0  0  0  2  0  0  0  0  0  0
  -25.9690  -29.5280   20.5880 C   0  0  0  0  0  0  0  0  0  0  0  0
  -27.1600  -28.7480   20.5530 C   0  0  0  0  0  3  0  0  0  0  0  0
  -25.9830  -27.0660   19.2610 C   0  0  0  0  0  3  0  0  0  0  0  0
  -24.8050  -27.8240   19.3120 C   0  0  0  0  0  3  0  0  0  0  0  0
  -23.5480  -29.8970   20.0820 C   0  0  0  0  0  2  0  0  0  0  0  0
  -24.6120  -31.1010   22.0320 N   0  0  0  0  0  0  0  0  0  0  0  0
  -23.4740  -32.1190   23.7070 O   0  0  0  0  0  0  0  0  0  0  0  0
  -22.7110  -29.4510   22.4170 C   0  0  0  0  0  0  0  0  0  0  0  0
  -21.3880  -29.2500   22.2890 N   0  0  0  0  0  0  0  0  0  0  0  0
  -23.4050  -28.8190   23.2170 O   0  0  0  0  0  0  0  0  0  0  0  0
  -20.8850  -29.8170   21.6210 H   0  0  0  0  0  0  0  0  0  0  0  0
  -18.0410  -27.9580   22.7410 C   0  0  0  0  0  0  0  0  0  0  0  0
  -20.5880  -28.2790   23.0400 C   0  0  0  0  0  3  0  0  0  0  0  0
  -20.7320  -26.8590   22.4460 C   0  0  0  0  0  2  0  0  0  0  0  0
  -19.6480  -26.5220   21.4170 C   0  0  0  0  0  2  0  0  0  0  0  0
  -18.2580  -26.6230   22.0510 C   0  0  0  0  0  2  0  0  0  0  0  0
  -19.1340  -28.7430   23.1930 C   0  0  0  0  0  0  0  0  0  0  0  0
  -18.8760  -29.9930   23.7980 C   0  0  0  0  0  3  0  0  0  0  0  0
  -17.5570  -30.4580   23.9560 C   0  0  0  0  0  3  0  0  0  0  0  0
  -16.4770  -29.6680   23.5230 C   0  0  0  0  0  3  0  0  0  0  0  0
  -16.7200  -28.4210   22.9210 C   0  0  0  0  0  3  0  0  0  0  0  0
  -25.8370  -32.5050   23.7760 C   0  0  0  0  0  3  0  0  0  0  0  0
  -25.5230  -33.8960   24.1220 N   0  0  0  0  0  0  0  0  0  0  0  0
  -25.8620  -34.9600   23.3840 C   0  0  0  0  0  0  0  0  0  0  0  0
  -26.5430  -34.8740   22.3580 O   0  0  0  0  0  0  0  0  0  0  0  0
  -24.9210  -34.0370   24.9210 H   0  0  0  0  0  0  0  0  0  0  0  0
  -24.1480  -36.7640   23.0250 C   0  0  0  0  0  1  0  0  0  0  0  0
  -25.3680  -36.3400   23.8580 C   0  0  0  0  0  3  0  0  0  0  0  0
  -27.4840  -37.1970   24.7620 C   0  0  0  0  0  1  0  0  0  0  0  0
  -26.4070  -37.3910   23.7950 N   0  0  0  0  0  0  0  0  0  0  0  0
  -26.0000  -38.3080   23.9550 H   0  0  0  0  0  0  0  0  0  0  0  0
  -26.3630  -31.7190   25.0390 C   0  0  1  0  0  0  0  0  0  0  0  0
  -25.2750  -31.4610   26.1070 C   0  0  0  0  0  1  0  0  0  0  0  0
  -26.9510  -30.3510   24.6280 C   0  0  0  0  0  1  0  0  0  0  0  0
  -27.5120  -32.5120   25.7060 C   0  0  0  0  0  1  0  0  0  0  0  0
  2  1  1  0
  3  1  1  0
  4  6  1  0
  4  5  1  0
  5 11  1  0
  5  2  1  0
  6 53  1  0
  6  3  1  0
  8 11  1  0
  9  7  1  0
 10  8  2  0
 10 12  1  0
 11  7  2  0
 12  9  2  0
 14 13  1  0
 14 12  1  0
 14 23  1  0
 15 23  1  0
 16 21  1  0
 17 18  1  0
 17 16  1  0
 19 18  1  0
 19 28  1  0
 19 20  1  0
 21 15  1  0
 21 20  1  0
 22 15  2  0
 23 24  1  0
 25 26  2  0
 26 45  1  0
 27 26  1  0
 27 30  1  0
 28 29  1  0
 28 25  1  0
 29 27  2  0
 30 31  1  0
 31 32  2  0
 33 36  1  0
 33 32  1  0
 34 33  2  0
 35 34  1  0
 35 30  2  0
 36 37  1  0
 37 42  2  0
 37 38  1  0
 38 39  2  0
 39 40  1  0
 40 44  1  0
 41 40  2  0
 42 41  1  0
 43 42  1  0
 45 46  1  0
 46 49  1  0
 46 48  1  0
 47 45  2  0
 50 25  1  0
 50 51  1  0
 52 50  1  0
 54 65  2  0
 55 53  1  0
 55 60  1  0
 56 64  1  0
 56 66  1  0
 57 63  1  0
 57 59  1  0
 58 64  1  0
 59 58  1  0
 60 59  2  0
 61 62  1  0
 61 55  2  0
 62 57  2  0
 63 56  1  0
 64 54  1  0
 66 68  2  0
 67 66  1  0
 69 67  1  0
 70 79  2  0
 70 75  1  0
 71 67  1  0
 71 75  1  0
 72 71  1  0
 73 74  1  0
 73 72  1  0
 74 70  1  0
 75 76  2  0
 76 77  1  0
 78 77  2  0
 79 78  1  0
 80 54  1  0
 80 81  1  0
 80 90  1  0
 81 84  1  0
 82 86  1  0
 82 81  1  0
 83 82  2  0
 86 85  1  0
 88 86  1  0
 88 89  1  0
 88 87  1  0
 90 93  1  1
 90 91  1  0
 92 90  1  0
M  ISO  4   6 101  15 100  23 100  53 101
M  END
>  <TORSDO>  (31) 
F 18

>  <SCORE>  (31) 
-13.864

>  <name>  (31) 
30

>  <ligand_id>  (31) 
30

>  <original_smiles>  (31) 
[H]c1c([H])c([H])c2c(c1[H])C([H])([H])C([H])([H])C([H])([H])C2([H])N([H])C(=O)C1([H])N(C(=O)C([H])(N([H])C(=O)C([H])(N([H])C([H])([H])[H])C([H])([H])[H])C(C([H])([H])[H])(C([H])([H])[H])C([H])([H])[H])C([H])([H])c2c([H])c(OC3([H])C([H])([H])C([H])([H])C([H])([H])C([H])(c4c([H])c([H])c(C([H])(N([H])C(=O)N5C([H])([H])C([H])([H])C([H])([H])C([H])(n6nc(-c7c([H])c([H])c(Oc8c([H])c([H])c(F)c([H])c8F)c([H])c7[H])c(C(=O)N([H])[H])c6N([H])[H])C5([H])[H])C([H])([H])[H])c([H])c4[H])C3([H])[H])c([H])c([H])c2C1([H])[H]

>  <smiles>  (31) 
[H]c1c([H])c([H])c2c(c1[H])C([H])([H])C([H])([H])C([H])([H])C2([H])N([H])C(=O)C1([H])N(C(=O)C([H])(N([H])C(=O)C([H])(N([H])C([H])([H])[H])C([H])([H])[H])C(C([H])([H])[H])(C([H])([H])[H])C([H])([H])[H])C([H])([H])c2c([H])c(OC3([H])C([H])([H])C([H])([H])C([H])([H])C([H])(c4c([H])c([H])c(C([H])(N([H])C(=O)N5C([H])([H])C([H])([H])C([H])([H])C([H])(n6nc(-c7c([H])c([H])c(Oc8c([H])c([H])c(F)c([H])c8F)c([H])c7[H])c(C(=O)N([H])[H])c6N([H])[H])C5([H])[H])C([H])([H])[H])c([H])c4[H])C3([H])[H])c([H])c([H])c2C1([H])[H]

$$$$
31:0:0
     RDKit          3D

 93102  0  0  1  0  0  0  0  0999 V2000
  -29.2490  -24.1740   22.6570 C   0  0  0  0  0  2  0  0  0  0  0  0
  -30.0050  -23.0500   21.9210 C   0  0  0  0  0  2  0  0  0  0  0  0
  -29.0900  -23.1970   19.4830 C   0  0  0  0  0  2  0  0  0  0  0  0
  -29.2760  -25.5380   21.9550 C   0  0  0  0  0  2  0  0  0  0  0  0
  -29.3890  -24.7240   19.5280 C   0  0  0  0  0  2  0  0  0  0  0  0
  -29.1830  -22.3740   20.8020 C   0  0  0  0  0  3  0  0  0  0  0  0
  -28.6190  -25.5770   20.5630 C   0  0  0  0  0  3  0  0  0  0  0  0
  -28.9430  -19.8530   21.2160 C   0  0  0  0  0  3  0  0  0  0  0  0
  -30.8800  -20.6250   19.9710 C   0  0  0  0  0  3  0  0  0  0  0  0
  -29.4770  -18.5430   21.2420 C   0  0  0  0  0  3  0  0  0  0  0  0
  -31.4110  -19.3160   19.9940 C   0  0  0  0  0  3  0  0  0  0  0  0
  -29.6570  -20.9190   20.6180 C   0  0  0  0  0  0  0  0  0  0  0  0
  -30.7400  -18.2730   20.6720 C   0  0  0  0  0  0  0  0  0  0  0  0
  -31.4570  -16.9420   20.9290 C   0  0  0  0  0  2  0  0  0  0  0  0
  -31.2950  -14.6520   19.9650 C   0  0  0  0  0  0  0  0  0  0  0  0
  -30.8770  -12.4330   18.9660 C   0  0  0  0  0  2  0  0  0  0  0  0
  -29.9180  -12.5690   17.7680 C   0  0  0  0  0  2  0  0  0  0  0  0
  -28.4530  -12.5120   18.2380 C   0  0  0  0  0  2  0  0  0  0  0  0
  -28.1690  -13.4610   19.4340 C   0  0  0  0  0  3  0  0  0  0  0  0
  -29.2390  -13.2990   20.5360 C   0  0  0  0  0  2  0  0  0  0  0  0
  -30.5570  -13.5100   19.9180 N   0  0  0  0  0  0  0  0  0  0  0  0
  -32.3940  -14.7510   19.4120 O   0  0  0  0  0  0  0  0  0  0  0  0
  -30.7400  -15.7030   20.5970 N   0  0  0  0  0  0  0  0  0  0  0  0
  -29.8190  -15.5760   20.9880 H   0  0  0  0  0  0  0  0  0  0  0  0
  -25.8360  -14.2110   20.2150 C   0  0  0  0  0  0  0  0  0  0  0  0
  -24.7360  -13.5050   20.6230 C   0  0  0  0  0  0  0  0  0  0  0  0
  -25.1140  -12.1290   20.5850 C   0  0  0  0  0  0  0  0  0  0  0  0
  -26.8190  -13.2680   19.9580 N   0  0  0  0  0  0  0  0  0  0  0  0
  -26.3900  -12.0110   20.2360 N   0  0  0  0  0  0  0  0  0  0  0  0
  -24.3220  -10.9120   20.8050 C   0  0  0  0  0  0  0  0  0  0  0  0
  -24.6950   -9.9510   21.7700 C   0  0  0  0  0  3  0  0  0  0  0  0
  -23.9060   -8.7980   21.9760 C   0  0  0  0  0  3  0  0  0  0  0  0
  -22.7300   -8.6000   21.2150 C   0  0  0  0  0  0  0  0  0  0  0  0
  -22.3740   -9.5480   20.2410 C   0  0  0  0  0  3  0  0  0  0  0  0
  -23.1630  -10.6920   20.0330 C   0  0  0  0  0  3  0  0  0  0  0  0
  -21.9160   -7.4980   21.3290 O   0  0  0  0  0  0  0  0  0  0  0  0
  -21.7680   -6.8320   22.5190 C   0  0  0  0  0  0  0  0  0  0  0  0
  -21.3170   -7.4850   23.6870 C   0  0  0  0  0  3  0  0  0  0  0  0
  -21.1120   -6.7480   24.8700 C   0  0  0  0  0  3  0  0  0  0  0  0
  -21.3470   -5.3600   24.8860 C   0  0  0  0  0  0  0  0  0  0  0  0
  -21.7900   -4.7070   23.7230 C   0  0  0  0  0  3  0  0  0  0  0  0
  -21.9960   -5.4420   22.5410 C   0  0  0  0  0  0  0  0  0  0  0  0
  -22.4030   -4.8040   21.4170 F   0  0  0  0  0  0  0  0  0  0  0  0
  -21.1440   -4.6510   26.0210 F   0  0  0  0  0  0  0  0  0  0  0  0
  -23.3780  -14.0660   20.9380 C   0  0  0  0  0  0  0  0  0  0  0  0
  -22.6460  -13.4250   21.8420 N   0  0  0  0  0  0  0  0  0  0  0  0
  -22.9790  -15.1080   20.4180 O   0  0  0  0  0  0  0  0  0  0  0  0
  -22.9840  -12.5830   22.2820 H   0  0  0  0  0  0  0  0  0  0  0  0
  -21.7360  -13.7820   22.0970 H   0  0  0  0  0  0  0  0  0  0  0  0
  -26.0760  -15.5690   20.0250 N   0  0  0  0  0  0  0  0  0  0  0  0
  -25.3570  -16.2720   20.1570 H   0  0  0  0  0  0  0  0  0  0  0  0
  -26.9470  -15.9540   19.6770 H   0  0  0  0  0  0  0  0  0  0  0  0
  -28.6710  -26.9630   20.1720 O   0  0  0  0  0  0  0  0  0  0  0  0
  -24.6440  -31.9550   23.2820 C   0  0  0  0  0  0  0  0  0  0  0  0
  -27.4770  -27.6520   20.1800 C   0  0  0  0  0  0  0  0  0  0  0  0
  -23.5100  -30.5410   21.6000 C   0  0  0  0  0  3  0  0  0  0  0  0
  -25.0340  -29.0750   20.1730 C   0  0  0  0  0  0  0  0  0  0  0  0
  -26.0230  -30.9890   21.4430 C   0  0  0  0  0  2  0  0  0  0  0  0
  -26.1650  -29.6310   20.7860 C   0  0  0  0  0  0  0  0  0  0  0  0
  -27.3920  -28.9290   20.7800 C   0  0  0  0  0  3  0  0  0  0  0  0
  -26.3310  -27.1100   19.5610 C   0  0  0  0  0  3  0  0  0  0  0  0
  -25.1130  -27.8130   19.5570 C   0  0  0  0  0  3  0  0  0  0  0  0
  -23.7620  -29.8900   20.2130 C   0  0  0  0  0  2  0  0  0  0  0  0
  -24.7430  -31.1770   22.1680 N   0  0  0  0  0  0  0  0  0  0  0  0
  -23.5460  -32.1810   23.8100 O   0  0  0  0  0  0  0  0  0  0  0  0
  -22.8800  -29.4830   22.5340 C   0  0  0  0  0  0  0  0  0  0  0  0
  -21.5620  -29.2700   22.3930 N   0  0  0  0  0  0  0  0  0  0  0  0
  -23.5740  -28.8580   23.3390 O   0  0  0  0  0  0  0  0  0  0  0  0
  -21.0620  -29.8320   21.7180 H   0  0  0  0  0  0  0  0  0  0  0  0
  -18.2100  -28.0010   22.8570 C   0  0  0  0  0  0  0  0  0  0  0  0
  -20.7630  -28.2950   23.1360 C   0  0  0  0  0  3  0  0  0  0  0  0
  -20.8910  -26.8840   22.5170 C   0  0  0  0  0  2  0  0  0  0  0  0
  -19.7930  -26.5710   21.4940 C   0  0  0  0  0  2  0  0  0  0  0  0
  -18.4100  -26.6750   22.1440 C   0  0  0  0  0  2  0  0  0  0  0  0
  -19.3160  -28.7690   23.3100 C   0  0  0  0  0  0  0  0  0  0  0  0
  -19.0770  -30.0110   23.9360 C   0  0  0  0  0  3  0  0  0  0  0  0
  -17.7650  -30.4860   24.1170 C   0  0  0  0  0  3  0  0  0  0  0  0
  -16.6730  -29.7140   23.6840 C   0  0  0  0  0  3  0  0  0  0  0  0
  -16.8970  -28.4740   23.0590 C   0  0  0  0  0  3  0  0  0  0  0  0
  -25.8990  -32.6180   23.9320 C   0  0  0  0  0  3  0  0  0  0  0  0
  -25.5600  -34.0180   24.2220 N   0  0  0  0  0  0  0  0  0  0  0  0
  -25.9000  -35.0580   23.4490 C   0  0  0  0  0  0  0  0  0  0  0  0
  -26.6030  -34.9420   22.4410 O   0  0  0  0  0  0  0  0  0  0  0  0
  -24.9420  -34.1820   25.0030 H   0  0  0  0  0  0  0  0  0  0  0  0
  -24.1530  -36.8100   23.0050 C   0  0  0  0  0  1  0  0  0  0  0  0
  -25.3770  -36.4470   23.8600 C   0  0  0  0  0  3  0  0  0  0  0  0
  -27.4740  -37.3840   24.7280 C   0  0  0  0  0  1  0  0  0  0  0  0
  -26.3960  -37.5150   23.7520 N   0  0  0  0  0  0  0  0  0  0  0  0
  -25.9700  -38.4300   23.8710 H   0  0  0  0  0  0  0  0  0  0  0  0
  -26.3860  -31.8810   25.2380 C   0  0  1  0  0  0  0  0  0  0  0  0
  -25.2620  -31.6370   26.2730 C   0  0  0  0  0  1  0  0  0  0  0  0
  -27.0120  -30.5100   24.8870 C   0  0  0  0  0  1  0  0  0  0  0  0
  -27.4960  -32.7090   25.9250 C   0  0  0  0  0  1  0  0  0  0  0  0
  2  1  1  0
  3  5  1  0
  3  6  1  0
  4  1  1  0
  5  7  1  0
  6 12  1  0
  6  2  1  0
  7 53  1  0
  7  4  1  0
  8 10  1  0
  9 11  2  0
  9 12  1  0
 11 13  1  0
 12  8  2  0
 13 14  1  0
 13 10  2  0
 15 23  1  0
 16 21  1  0
 17 18  1  0
 17 16  1  0
 19 18  1  0
 19 28  1  0
 19 20  1  0
 21 15  1  0
 21 20  1  0
 22 15  2  0
 23 14  1  0
 23 24  1  0
 25 26  2  0
 26 45  1  0
 27 26  1  0
 27 30  1  0
 28 25  1  0
 28 29  1  0
 29 27  2  0
 30 31  1  0
 31 32  2  0
 33 36  1  0
 33 32  1  0
 34 33  2  0
 35 34  1  0
 35 30  2  0
 36 37  1  0
 37 42  2  0
 37 38  1  0
 38 39  2  0
 39 40  1  0
 40 44  1  0
 41 40  2  0
 42 41  1  0
 43 42  1  0
 45 46  1  0
 46 49  1  0
 46 48  1  0
 47 45  2  0
 50 51  1  0
 50 25  1  0
 52 50  1  0
 53 55  1  0
 54 65  2  0
 55 60  1  0
 56 64  1  0
 56 66  1  0
 57 63  1  0
 57 59  1  0
 58 64  1  0
 59 58  1  0
 60 59  2  0
 61 55  2  0
 62 61  1  0
 62 57  2  0
 63 56  1  0
 64 54  1  0
 66 68  2  0
 67 66  1  0
 69 67  1  0
 70 79  2  0
 70 75  1  0
 71 67  1  0
 71 75  1  0
 72 71  1  0
 73 74  1  0
 73 72  1  0
 74 70  1  0
 75 76  2  0
 76 77  1  0
 78 77  2  0
 79 78  1  0
 80 54  1  0
 80 81  1  0
 80 90  1  0
 81 84  1  0
 82 86  1  0
 82 81  1  0
 83 82  2  0
 86 85  1  0
 88 86  1  0
 88 89  1  0
 88 87  1  0
 90 93  1  1
 90 91  1  0
 92 90  1  0
M  ISO  4   7 101  15 100  23 100  53 101
M  END
>  <TORSDO>  (32) 
F 18

>  <SCORE>  (32) 
-13.619

>  <name>  (32) 
31

>  <ligand_id>  (32) 
31

>  <original_smiles>  (32) 
[H]c1c([H])c([H])c2c(c1[H])C([H])([H])C([H])([H])C([H])([H])C2([H])N([H])C(=O)C1([H])N(C(=O)C([H])(N([H])C(=O)C([H])(N([H])C([H])([H])[H])C([H])([H])[H])C(C([H])([H])[H])(C([H])([H])[H])C([H])([H])[H])C([H])([H])c2c([H])c(OC3([H])C([H])([H])C([H])([H])C([H])([H])C([H])(c4c([H])c([H])c(C([H])([H])N([H])C(=O)N5C([H])([H])C([H])([H])C([H])([H])C([H])(n6nc(-c7c([H])c([H])c(Oc8c([H])c([H])c(F)c([H])c8F)c([H])c7[H])c(C(=O)N([H])[H])c6N([H])[H])C5([H])[H])c([H])c4[H])C([H])([H])C3([H])[H])c([H])c([H])c2C1([H])[H]

>  <smiles>  (32) 
[H]c1c([H])c([H])c2c(c1[H])C([H])([H])C([H])([H])C([H])([H])C2([H])N([H])C(=O)C1([H])N(C(=O)C([H])(N([H])C(=O)C([H])(N([H])C([H])([H])[H])C([H])([H])[H])C(C([H])([H])[H])(C([H])([H])[H])C([H])([H])[H])C([H])([H])c2c([H])c(OC3([H])C([H])([H])C([H])([H])C([H])([H])C([H])(c4c([H])c([H])c(C([H])([H])N([H])C(=O)N5C([H])([H])C([H])([H])C([H])([H])C([H])(n6nc(-c7c([H])c([H])c(Oc8c([H])c([H])c(F)c([H])c8F)c([H])c7[H])c(C(=O)N([H])[H])c6N([H])[H])C5([H])[H])c([H])c4[H])C([H])([H])C3([H])[H])c([H])c([H])c2C1([H])[H]

$$$$
32:0:0
     RDKit          3D

 90 92  0  0  1  0  0  0  0  0999 V2000
  -26.2700  -12.9700   20.4980 C   0  0  0  0  0  2  0  0  0  0  0  0
  -25.0320  -12.2740   21.2550 C   0  0  0  0  0  3  0  0  0  0  0  0
  -25.3810  -15.5930   19.0880 C   0  0  0  0  0  2  0  0  0  0  0  0
  -23.4300  -12.7360   20.7220 C   0  0  0  0  0  2  0  0  0  0  0  0
  -22.1370  -12.1070   21.1840 C   0  0  0  0  0  1  0  0  0  0  0  0
  -23.1440  -14.8080   19.2600 S   0  0  0  0  0 15  0  0  0  0  0  0
  -26.1620  -11.9790   22.4400 C   0  0  0  0  0  2  0  0  0  0  0  0
  -27.9150  -11.6620   22.1900 C   0  0  0  0  0  2  0  0  0  0  0  0
  -31.8060  -12.1090   21.0270 C   0  0  0  0  0  0  0  0  0  0  0  0
  -32.1640  -10.5970   18.9630 C   0  0  0  0  0  2  0  0  0  0  0  0
  -31.7660  -11.2040   17.5600 C   0  0  0  0  0  2  0  0  0  0  0  0
  -30.3990  -11.9470   17.4940 C   0  0  0  0  0  2  0  0  0  0  0  0
  -30.1540  -12.7010   18.8660 C   0  0  0  0  0  3  0  0  0  0  0  0
  -30.1040  -11.3820   19.6970 C   0  0  0  0  0  2  0  0  0  0  0  0
  -31.4240  -11.2120   20.0980 N   0  0  0  0  0  0  0  0  0  0  0  0
  -33.0060  -12.4930   20.9090 O   0  0  0  0  0  0  0  0  0  0  0  0
  -29.3720  -12.5590   22.4190 C   0  0  0  0  0  0  0  0  0  0  0  0
  -30.7830  -12.5610   21.9760 N   0  0  0  0  0  0  0  0  0  0  0  0
  -29.1860  -13.4370   23.2630 O   0  0  0  0  0  0  0  0  0  0  0  0
  -31.2320  -13.2400   22.5710 H   0  0  0  0  0  0  0  0  0  0  0  0
  -28.5070  -15.0550   20.3320 C   0  0  0  0  0  2  0  0  0  0  0  0
  -26.6620  -14.9770   20.3090 C   0  0  0  0  0  3  0  0  0  0  0  0
  -26.5020  -13.0550   18.7070 C   0  0  0  0  0  2  0  0  0  0  0  0
  -29.0940  -13.7460   19.0120 N   0  0  0  0  0  2  0  0  0  0  0  0
  -27.9320  -12.8590   18.2490 N   0  0  0  0  0  2  0  0  0  0  0  0
  -25.6570  -11.2510   19.2620 C   0  0  0  0  0  3  0  0  0  0  0  0
  -25.8820  -10.2180   20.4270 C   0  0  0  0  0  3  0  0  0  0  0  0
  -25.0070   -9.1810   21.1120 C   0  0  0  0  0  3  0  0  0  0  0  0
  -23.6530   -8.9080   20.7270 C   0  0  0  0  0  0  0  0  0  0  0  0
  -23.3730   -9.7890   19.6390 C   0  0  0  0  0  3  0  0  0  0  0  0
  -24.2610  -10.8040   19.0230 C   0  0  0  0  0  3  0  0  0  0  0  0
  -22.6940   -7.8780   21.0950 O   0  0  0  0  0  0  0  0  0  0  0  0
  -22.5310   -7.0380   22.2360 C   0  0  0  0  0  0  0  0  0  0  0  0
  -22.3940   -7.5480   23.5520 C   0  0  0  0  0  3  0  0  0  0  0  0
  -22.1700   -6.6990   24.6710 C   0  0  0  0  0  3  0  0  0  0  0  0
  -22.0620   -5.3040   24.5130 C   0  0  0  0  0  0  0  0  0  0  0  0
  -22.1150   -4.7730   23.2150 C   0  0  0  0  0  3  0  0  0  0  0  0
  -22.3200   -5.6220   22.0980 C   0  0  0  0  0  0  0  0  0  0  0  0
  -22.3050   -5.0390   20.8760 F   0  0  0  0  0  0  0  0  0  0  0  0
  -21.8970   -4.4870   25.5900 F   0  0  0  0  0  0  0  0  0  0  0  0
  -25.4950  -15.6600   21.1300 C   0  0  0  0  0  3  0  0  0  0  0  0
  -24.9980  -15.1100   22.2710 N   0  0  0  0  0  0  0  0  0  0  0  0
  -24.5860  -16.1570   20.4950 O   0  0  0  0  0  0  0  0  0  0  0  0
  -25.4400  -14.2940   22.6630 H   0  0  0  0  0  0  0  0  0  0  0  0
  -24.1030  -15.4110   22.6260 H   0  0  0  0  0  0  0  0  0  0  0  0
  -29.2760  -16.0760   20.4660 N   0  0  0  0  0  0  0  0  0  0  0  0
  -29.0350  -16.8820   21.0320 H   0  0  0  0  0  0  0  0  0  0  0  0
  -30.2240  -16.1100   20.1090 H   0  0  0  0  0  0  0  0  0  0  0  0
  -25.9160  -18.7840   19.2680 C   0  0  0  0  0 15  0  0  0  0  0  0
  -26.7400  -21.6400   19.8300 O   0  0  0  0  0 15  0  0  0  0  0  0
  -25.7980  -30.9240   23.2300 C   0  0  0  0  0  0  0  0  0  0  0  0
  -26.7760  -23.8820   20.0130 C   0  0  0  0  0  2  0  0  0  0  0  0
  -24.6160  -29.6420   21.5280 C   0  0  0  0  0  3  0  0  0  0  0  0
  -25.7360  -27.5120   20.0970 C   0  0  0  0  0  0  0  0  0  0  0  0
  -27.0420  -28.7830   21.7530 C   0  0  0  0  0  2  0  0  0  0  0  0
  -26.7850  -27.1910   20.9390 C   0  0  0  0  0  0  0  0  0  0  0  0
  -27.2480  -25.5010   20.8310 C   0  0  0  0  0  2  0  0  0  0  0  0
  -26.0730  -24.9670   19.1700 C   0  0  0  0  0  3  0  0  0  0  0  0
  -25.5760  -26.4160   19.1880 C   0  0  0  0  0  3  0  0  0  0  0  0
  -24.8740  -28.8650   20.1580 C   0  0  0  0  0  2  0  0  0  0  0  0
  -25.9120  -29.8860   22.2220 N   0  0  0  0  0  0  0  0  0  0  0  0
  -24.6870  -31.3700   23.6070 O   0  0  0  0  0  0  0  0  0  0  0  0
  -23.6920  -28.8400   22.4830 C   0  0  0  0  0  0  0  0  0  0  0  0
  -22.3560  -28.8540   22.3160 N   0  0  0  0  0  0  0  0  0  0  0  0
  -24.2170  -28.1890   23.3890 O   0  0  0  0  0  0  0  0  0  0  0  0
  -21.9640  -29.4270   21.5810 H   0  0  0  0  0  0  0  0  0  0  0  0
  -18.8950  -27.7590   22.6400 C   0  0  0  0  0  0  0  0  0  0  0  0
  -21.4440  -27.9510   23.0360 C   0  0  0  0  0  3  0  0  0  0  0  0
  -21.5260  -26.5220   22.4460 C   0  0  0  0  0  2  0  0  0  0  0  0
  -20.4840  -26.2690   21.3540 C   0  0  0  0  0  2  0  0  0  0  0  0
  -19.0730  -26.4310   21.9220 C   0  0  0  0  0  2  0  0  0  0  0  0
  -20.0090  -28.4830   23.1460 C   0  0  0  0  0  0  0  0  0  0  0  0
  -19.7820  -29.7210   23.7860 C   0  0  0  0  0  3  0  0  0  0  0  0
  -18.4790  -30.2350   23.9180 C   0  0  0  0  0  3  0  0  0  0  0  0
  -17.3810  -29.5100   23.4240 C   0  0  0  0  0  3  0  0  0  0  0  0
  -17.5900  -28.2710   22.7910 C   0  0  0  0  0  3  0  0  0  0  0  0
  -26.9670  -31.6530   24.0170 C   0  0  0  0  0  3  0  0  0  0  0  0
  -27.3690  -30.8920   25.3410 C   0  0  1  0  0  0  0  0  0  0  0  0
  -26.1990  -30.6580   26.3300 C   0  0  0  0  0  1  0  0  0  0  0  0
  -27.9570  -29.5210   24.9910 C   0  0  0  0  0  1  0  0  0  0  0  0
  -28.4810  -31.6590   26.0980 C   0  0  0  0  0  1  0  0  0  0  0  0
  -26.5940  -33.0570   24.4250 N   0  0  0  0  0  0  0  0  0  0  0  0
  -27.0780  -34.2170   23.9340 C   0  0  0  0  0  0  0  0  0  0  0  0
  -27.8900  -34.2330   23.0090 O   0  0  0  0  0  0  0  0  0  0  0  0
  -25.8760  -33.1180   25.1330 H   0  0  0  0  0  0  0  0  0  0  0  0
  -25.4630  -36.1590   23.6880 C   0  0  0  0  0  1  0  0  0  0  0  0
  -26.6040  -35.5720   24.5370 C   0  0  0  0  0  3  0  0  0  0  0  0
  -28.6690  -36.2940   25.6780 C   0  0  0  0  0  1  0  0  0  0  0  0
  -27.6750  -36.5950   24.6530 N   0  0  0  0  0  0  0  0  0  0  0  0
  -27.2780  -37.5090   24.8560 H   0  0  0  0  0  0  0  0  0  0  0  0
  1  2  1  0
  2  4  1  0
  2  7  1  0
  3 22  1  0
  3 43  1  0
  4  5  1  0
  8 17  1  0
  8  7  1  0
  9 18  1  0
 10 15  1  0
 11 10  1  0
 12 11  1  0
 13 12  1  0
 13 24  1  0
 13 14  1  0
 14 15  1  0
 15  9  1  0
 16  9  2  0
 17 19  2  0
 18 17  1  0
 18 20  1  0
 21 46  1  0
 22 21  1  0
 22 41  1  0
 23  1  1  0
 25 23  1  0
 25 24  1  0
 26 27  1  0
 27 28  2  0
 29 32  1  0
 29 28  1  0
 30 29  2  0
 31 26  2  0
 31 30  1  0
 32 33  1  0
 33 34  1  0
 34 35  2  0
 36 35  1  0
 36 40  1  0
 37 36  2  0
 38 33  2  0
 38 37  1  0
 39 38  1  0
 41 42  1  0
 42 45  1  0
 42 44  1  0
 43 41  1  0
 46 47  1  0
 48 46  1  0
 51 62  2  0
 52 57  1  0
 53 61  1  0
 53 63  1  0
 54 60  1  0
 54 56  2  0
 55 61  1  0
 56 55  1  0
 57 56  1  0
 58 59  2  0
 58 52  1  0
 59 54  1  0
 60 53  1  0
 61 51  1  0
 63 65  2  0
 64 63  1  0
 66 64  1  0
 67 76  2  0
 67 72  1  0
 68 64  1  0
 68 72  1  0
 69 68  1  0
 70 71  1  0
 70 69  1  0
 71 67  1  0
 72 73  2  0
 73 74  1  0
 75 74  2  0
 76 75  1  0
 77 51  1  0
 77 82  1  0
 77 78  1  0
 78 81  1  1
 78 79  1  0
 80 78  1  0
 82 85  1  0
 83 82  1  0
 83 87  1  0
 84 83  2  0
 87 86  1  0
 87 89  1  0
 89 90  1  0
 89 88  1  0
M  ISO  4   9 100  18 100  49 101  50 101
M  END
>  <TORSDO>  (33) 
F 19

>  <SCORE>  (33) 
8.425

>  <name>  (33) 
32

>  <ligand_id>  (33) 
32

>  <original_smiles>  (33) 
[H]c1c([H])c([H])c2c(c1[H])C([H])([H])C([H])([H])C([H])([H])C2([H])N([H])C(=O)C1([H])N(C(=O)C([H])(N([H])C(=O)C([H])(N([H])C([H])([H])[H])C([H])([H])[H])C(C([H])([H])[H])(C([H])([H])[H])C([H])([H])[H])C([H])([H])c2c([H])c(OC([H])([H])c3sc(C([H])([H])[H])c(C([H])([H])C([H])([H])C(=O)N([H])C(=O)N4C([H])([H])C([H])([H])C([H])([H])C([H])(n5nc(-c6c([H])c([H])c(Oc7c([H])c([H])c(F)c([H])c7F)c([H])c6[H])c(C(=O)N([H])[H])c5N([H])[H])C4([H])[H])c3[H])c([H])c([H])c2C1([H])[H]

>  <smiles>  (33) 
[H]c1c([H])c([H])c2c(c1[H])C([H])([H])C([H])([H])C([H])([H])C2([H])N([H])C(=O)C1([H])N(C(=O)C([H])(N([H])C(=O)C([H])(N([H])C([H])([H])[H])C([H])([H])[H])C(C([H])([H])[H])(C([H])([H])[H])C([H])([H])[H])C([H])([H])c2c([H])c(OC([H])([H])c3sc(C([H])([H])[H])c(C([H])([H])C([H])([H])C(=O)N([H])C(=O)N4C([H])([H])C([H])([H])C([H])([H])C([H])(n5nc(-c6c([H])c([H])c(Oc7c([H])c([H])c(F)c([H])c7F)c([H])c6[H])c(C(=O)N([H])[H])c5N([H])[H])C4([H])[H])c3[H])c([H])c([H])c2C1([H])[H]

$$$$
33:0:0
     RDKit          3D

 95104  0  0  1  0  0  0  0  0999 V2000
  -29.7620  -24.3860   20.0450 C   0  0  0  0  0  2  0  0  0  0  0  0
  -27.6130  -23.9230   21.0040 C   0  0  0  0  0  2  0  0  0  0  0  0
  -29.9430  -22.8700   19.5650 C   0  0  0  0  0  2  0  0  0  0  0  0
  -28.2780  -22.4680   21.2990 C   0  0  0  0  0  2  0  0  0  0  0  0
  -28.3120  -24.9760   20.0310 C   0  0  2  0  0  0  0  0  0  0  0  0
  -29.0910  -21.7920   20.2140 N   0  0  2  0  0  4  0  0  0  0  0  0
  -28.4330  -21.5200   19.4980 H   0  0  0  0  0  0  0  0  0  0  0  0
  -27.0450  -24.7460   15.8410 C   0  0  0  0  0  3  0  0  0  0  0  0
  -26.4740  -23.8710   16.7830 C   0  0  0  0  0  3  0  0  0  0  0  0
  -28.0170  -25.6750   16.2530 C   0  0  0  0  0  3  0  0  0  0  0  0
  -26.8690  -23.9300   18.1340 C   0  0  0  0  0  3  0  0  0  0  0  0
  -28.4120  -25.7320   17.6030 C   0  0  0  0  0  3  0  0  0  0  0  0
  -27.8360  -24.8710   18.5670 C   0  0  0  0  0  0  0  0  0  0  0  0
  -28.3070  -26.4490   20.4780 O   0  0  0  0  0  0  0  0  0  0  0  0
  -24.6780  -32.0300   23.5030 C   0  0  0  0  0  0  0  0  0  0  0  0
  -27.2040  -27.3590   20.4300 C   0  0  0  0  0  0  0  0  0  0  0  0
  -23.4610  -30.6710   21.8440 C   0  0  0  0  0  3  0  0  0  0  0  0
  -24.8880  -29.0920   20.4160 C   0  0  0  0  0  0  0  0  0  0  0  0
  -26.0160  -30.9150   21.6870 C   0  0  0  0  0  2  0  0  0  0  0  0
  -26.0700  -29.5320   21.0230 C   0  0  0  0  0  0  0  0  0  0  0  0
  -27.2290  -28.6810   21.0110 C   0  0  0  0  0  3  0  0  0  0  0  0
  -25.9840  -26.9900   19.8210 C   0  0  0  0  0  3  0  0  0  0  0  0
  -24.8540  -27.8310   19.8050 C   0  0  0  0  0  3  0  0  0  0  0  0
  -23.6750  -30.0030   20.4620 C   0  0  0  0  0  2  0  0  0  0  0  0
  -24.7380  -31.2240   22.4000 N   0  0  0  0  0  0  0  0  0  0  0  0
  -23.5940  -32.3270   24.0290 O   0  0  0  0  0  0  0  0  0  0  0  0
  -22.7660  -29.6630   22.7920 C   0  0  0  0  0  0  0  0  0  0  0  0
  -21.4510  -29.4580   22.6060 N   0  0  0  0  0  0  0  0  0  0  0  0
  -23.4140  -29.0680   23.6580 O   0  0  0  0  0  0  0  0  0  0  0  0
  -20.9850  -29.9910   21.8850 H   0  0  0  0  0  0  0  0  0  0  0  0
  -18.0920  -28.1400   22.9160 C   0  0  0  0  0  0  0  0  0  0  0  0
  -20.6130  -28.5180   23.3560 C   0  0  0  0  0  3  0  0  0  0  0  0
  -20.8130  -27.0710   22.8490 C   0  0  0  0  0  2  0  0  0  0  0  0
  -19.8000  -26.6620   21.7740 C   0  0  0  0  0  2  0  0  0  0  0  0
  -18.3710  -26.7740   22.3110 C   0  0  0  0  0  2  0  0  0  0  0  0
  -19.1460  -28.9650   23.3920 C   0  0  0  0  0  0  0  0  0  0  0  0
  -18.8350  -30.2390   23.9150 C   0  0  0  0  0  3  0  0  0  0  0  0
  -17.5030  -30.6900   23.9680 C   0  0  0  0  0  3  0  0  0  0  0  0
  -16.4630  -29.8640   23.5080 C   0  0  0  0  0  3  0  0  0  0  0  0
  -16.7580  -28.5900   22.9890 C   0  0  0  0  0  3  0  0  0  0  0  0
  -25.9650  -32.6370   24.1410 C   0  0  0  0  0  3  0  0  0  0  0  0
  -26.4360  -31.8670   25.4360 C   0  0  1  0  0  0  0  0  0  0  0  0
  -25.3150  -31.6580   26.4810 C   0  0  0  0  0  1  0  0  0  0  0  0
  -27.0040  -30.4770   25.0710 C   0  0  0  0  0  1  0  0  0  0  0  0
  -27.5860  -32.6460   26.1190 C   0  0  0  0  0  1  0  0  0  0  0  0
  -25.6850  -34.0470   24.4570 N   0  0  0  0  0  0  0  0  0  0  0  0
  -26.0150  -35.0840   23.6750 C   0  0  0  0  0  0  0  0  0  0  0  0
  -26.6560  -34.9540   22.6290 O   0  0  0  0  0  0  0  0  0  0  0  0
  -25.1140  -34.2230   25.2710 H   0  0  0  0  0  0  0  0  0  0  0  0
  -24.2860  -36.8880   23.3720 C   0  0  0  0  0  1  0  0  0  0  0  0
  -25.5650  -36.4880   24.1260 C   0  0  0  0  0  3  0  0  0  0  0  0
  -27.7430  -37.3780   24.8300 C   0  0  0  0  0  1  0  0  0  0  0  0
  -26.6000  -37.5280   23.9330 N   0  0  0  0  0  0  0  0  0  0  0  0
  -26.2080  -38.4560   24.0730 H   0  0  0  0  0  0  0  0  0  0  0  0
  -29.8770  -20.4720   20.5650 C   0  0  0  0  0  2  0  0  0  0  0  0
  -29.3110  -18.9300   20.3800 C   0  0  0  0  0  3  0  0  0  0  0  0
  -30.3380  -17.6400   20.5590 C   0  0  0  0  0  3  0  0  0  0  0  0
  -30.6800  -14.9880   20.3600 C   0  0  0  0  0  0  0  0  0  0  0  0
  -30.5370  -12.6810   19.3740 C   0  0  0  0  0  2  0  0  0  0  0  0
  -29.6110  -12.6980   18.1370 C   0  0  0  0  0  2  0  0  0  0  0  0
  -28.1410  -12.4960   18.5560 C   0  0  0  0  0  2  0  0  0  0  0  0
  -27.7360  -13.3940   19.7560 C   0  0  0  0  0  3  0  0  0  0  0  0
  -28.7860  -13.3590   20.8880 C   0  0  0  0  0  2  0  0  0  0  0  0
  -30.0690  -13.7480   20.2940 N   0  0  0  0  0  0  0  0  0  0  0  0
  -31.8780  -15.0750   20.0780 O   0  0  0  0  0  0  0  0  0  0  0  0
  -29.9070  -16.1470   20.5370 N   0  0  0  0  0  0  0  0  0  0  0  0
  -28.9260  -15.9740   20.7040 H   0  0  0  0  0  0  0  0  0  0  0  0
  -25.3390  -13.9510   20.4680 C   0  0  0  0  0  0  0  0  0  0  0  0
  -24.2810  -13.1640   20.8320 C   0  0  0  0  0  0  0  0  0  0  0  0
  -24.7620  -11.8180   20.8090 C   0  0  0  0  0  0  0  0  0  0  0  0
  -26.3960  -13.0850   20.2400 N   0  0  0  0  0  0  0  0  0  0  0  0
  -26.0560  -11.7970   20.5110 N   0  0  0  0  0  0  0  0  0  0  0  0
  -24.0490  -10.5480   20.9950 C   0  0  0  0  0  0  0  0  0  0  0  0
  -24.4470   -9.6140   21.9770 C   0  0  0  0  0  3  0  0  0  0  0  0
  -23.7340   -8.4080   22.1500 C   0  0  0  0  0  3  0  0  0  0  0  0
  -22.6080   -8.1280   21.3390 C   0  0  0  0  0  0  0  0  0  0  0  0
  -22.2300   -9.0500   20.3470 C   0  0  0  0  0  3  0  0  0  0  0  0
  -22.9440  -10.2470   20.1730 C   0  0  0  0  0  3  0  0  0  0  0  0
  -21.8690   -6.9720   21.4190 O   0  0  0  0  0  0  0  0  0  0  0  0
  -21.7360   -6.2820   22.5980 C   0  0  0  0  0  0  0  0  0  0  0  0
  -21.1680   -6.8740   23.7470 C   0  0  0  0  0  3  0  0  0  0  0  0
  -20.9870   -6.1080   24.9170 C   0  0  0  0  0  3  0  0  0  0  0  0
  -21.3630   -4.7510   24.9360 C   0  0  0  0  0  0  0  0  0  0  0  0
  -21.9220   -4.1590   23.7900 C   0  0  0  0  0  3  0  0  0  0  0  0
  -22.1050   -4.9220   22.6230 C   0  0  0  0  0  0  0  0  0  0  0  0
  -22.6260   -4.3400   21.5160 F   0  0  0  0  0  0  0  0  0  0  0  0
  -21.1820   -4.0140   26.0560 F   0  0  0  0  0  0  0  0  0  0  0  0
  -22.8750  -13.6230   21.0870 C   0  0  0  0  0  0  0  0  0  0  0  0
  -22.1450  -12.9170   21.9420 N   0  0  0  0  0  0  0  0  0  0  0  0
  -22.4330  -14.6460   20.5640 O   0  0  0  0  0  0  0  0  0  0  0  0
  -22.5140  -12.0900   22.3880 H   0  0  0  0  0  0  0  0  0  0  0  0
  -21.2000  -13.2080   22.1550 H   0  0  0  0  0  0  0  0  0  0  0  0
  -25.4860  -15.3240   20.2850 N   0  0  0  0  0  0  0  0  0  0  0  0
  -24.7050  -15.9630   20.3800 H   0  0  0  0  0  0  0  0  0  0  0  0
  -26.3200  -15.7690   19.9270 H   0  0  0  0  0  0  0  0  0  0  0  0
  2  4  1  0
  3  1  1  0
  3  6  1  0
  5  1  1  0
  5 14  1  1
  5  2  1  0
  6 55  1  0
  6  4  1  0
  6  7  1  6
  8 10  2  0
  8  9  1  0
  9 11  2  0
 10 12  1  0
 11 13  1  0
 12 13  2  0
 13  5  1  0
 15 26  2  0
 16 14  1  0
 16 21  1  0
 17 25  1  0
 17 27  1  0
 18 24  1  0
 18 20  1  0
 19 25  1  0
 20 19  1  0
 21 20  2  0
 22 16  2  0
 23 22  1  0
 23 18  2  0
 24 17  1  0
 25 15  1  0
 27 29  2  0
 28 27  1  0
 30 28  1  0
 31 40  2  0
 31 36  1  0
 32 28  1  0
 32 36  1  0
 33 32  1  0
 34 35  1  0
 34 33  1  0
 35 31  1  0
 36 37  2  0
 37 38  1  0
 39 38  2  0
 40 39  1  0
 41 15  1  0
 41 46  1  0
 41 42  1  0
 42 45  1  1
 42 43  1  0
 44 42  1  0
 46 49  1  0
 47 51  1  0
 47 46  1  0
 48 47  2  0
 51 50  1  0
 53 54  1  0
 53 51  1  0
 53 52  1  0
 56 57  2  0
 56 55  1  0
 58 66  1  0
 59 64  1  0
 60 61  1  0
 60 59  1  0
 62 61  1  0
 62 71  1  0
 62 63  1  0
 64 58  1  0
 64 63  1  0
 65 58  2  0
 66 57  1  0
 66 67  1  0
 68 69  2  0
 69 88  1  0
 70 69  1  0
 70 73  1  0
 71 68  1  0
 71 72  1  0
 72 70  2  0
 73 74  1  0
 74 75  2  0
 76 79  1  0
 76 75  1  0
 77 76  2  0
 78 77  1  0
 78 73  2  0
 79 80  1  0
 80 85  2  0
 80 81  1  0
 81 82  2  0
 82 83  1  0
 83 87  1  0
 84 83  2  0
 85 84  1  0
 86 85  1  0
 88 89  1  0
 89 92  1  0
 89 91  1  0
 90 88  2  0
 93 94  1  0
 93 68  1  0
 95 93  1  0
M  ISO  4   5 101  14 101  58 100  66 100
M  END
>  <TORSDO>  (34) 
F 20

>  <SCORE>  (34) 
-12.834

>  <name>  (34) 
33

>  <ligand_id>  (34) 
33

>  <original_smiles>  (34) 
[H]c1c([H])c([H])c(C2(Oc3c([H])c([H])c4c(c3[H])C([H])([H])N(C(=O)C([H])(N([H])C(=O)C([H])(N([H])C([H])([H])[H])C([H])([H])[H])C(C([H])([H])[H])(C([H])([H])[H])C([H])([H])[H])C([H])(C(=O)N([H])C3([H])c5c([H])c([H])c([H])c([H])c5C([H])([H])C([H])([H])C3([H])[H])C4([H])[H])C([H])([H])C([H])([H])[N+]([H])(C([H])([H])C([H])([H])C([H])([H])N([H])C(=O)N3C([H])([H])C([H])([H])C([H])([H])C([H])(n4nc(-c5c([H])c([H])c(Oc6c([H])c([H])c(F)c([H])c6F)c([H])c5[H])c(C(=O)N([H])[H])c4N([H])[H])C3([H])[H])C([H])([H])C2([H])[H])c([H])c1[H]

>  <smiles>  (34) 
[H]c1c([H])c([H])c(C2(Oc3c([H])c([H])c4c(c3[H])C([H])([H])N(C(=O)C([H])(N([H])C(=O)C([H])(N([H])C([H])([H])[H])C([H])([H])[H])C(C([H])([H])[H])(C([H])([H])[H])C([H])([H])[H])C([H])(C(=O)N([H])C3([H])c5c([H])c([H])c([H])c([H])c5C([H])([H])C([H])([H])C3([H])[H])C4([H])[H])C([H])([H])C([H])([H])[N+]([H])(C([H])([H])C([H])([H])C([H])([H])N([H])C(=O)N3C([H])([H])C([H])([H])C([H])([H])C([H])(n4nc(-c5c([H])c([H])c(Oc6c([H])c([H])c(F)c([H])c6F)c([H])c5[H])c(C(=O)N([H])[H])c4N([H])[H])C3([H])[H])C([H])([H])C2([H])[H])c([H])c1[H]

$$$$
34:0:0
     RDKit          3D

 89 97  0  0  1  0  0  0  0  0999 V2000
  -30.5070  -20.1410   20.2860 C   0  0  0  0  0  3  0  0  0  0  0  0
  -29.4170  -19.1680   20.1980 C   0  0  0  0  0  0  0  0  0  0  0  0
  -30.1510  -21.5380   20.2740 C   0  0  0  0  0  0  0  0  0  0  0  0
  -28.4160  -20.3300   20.1390 C   0  0  0  0  0  0  0  0  0  0  0  0
  -28.7720  -21.9010   20.1750 N   0  0  0  0  0  0  0  0  0  0  0  0
  -30.2320  -15.9670   20.1110 C   0  0  0  0  0  0  0  0  0  0  0  0
  -30.4090  -13.3700   19.2890 C   0  0  0  0  0  2  0  0  0  0  0  0
  -29.5200  -12.8510   18.1150 C   0  0  0  0  0  2  0  0  0  0  0  0
  -28.1280  -12.4320   18.6090 C   0  0  0  0  0  2  0  0  0  0  0  0
  -27.6000  -13.4360   19.6550 C   0  0  0  0  0  3  0  0  0  0  0  0
  -28.6380  -13.8450   20.7330 C   0  0  0  0  0  2  0  0  0  0  0  0
  -29.7490  -14.5560   20.0360 N   0  0  0  0  0  0  0  0  0  0  0  0
  -31.4690  -15.8810   19.9380 O   0  0  0  0  0  0  0  0  0  0  0  0
  -29.4370  -17.3690   20.1860 N   0  0  0  0  0  0  0  0  0  0  0  0
  -28.4730  -17.0750   20.2510 H   0  0  0  0  0  0  0  0  0  0  0  0
  -25.2560  -13.9160   20.4890 C   0  0  0  0  0  0  0  0  0  0  0  0
  -24.2160  -13.1190   20.8700 C   0  0  0  0  0  0  0  0  0  0  0  0
  -24.7020  -11.7760   20.8110 C   0  0  0  0  0  0  0  0  0  0  0  0
  -26.3050  -13.0640   20.2090 N   0  0  0  0  0  0  0  0  0  0  0  0
  -25.9900  -11.7660   20.4690 N   0  0  0  0  0  0  0  0  0  0  0  0
  -23.9920  -10.5030   21.0020 C   0  0  0  0  0  0  0  0  0  0  0  0
  -24.4320   -9.5410   21.9360 C   0  0  0  0  0  3  0  0  0  0  0  0
  -23.7160   -8.3380   22.1180 C   0  0  0  0  0  3  0  0  0  0  0  0
  -22.5430   -8.0880   21.3650 C   0  0  0  0  0  0  0  0  0  0  0  0
  -22.1210   -9.0400   20.4200 C   0  0  0  0  0  3  0  0  0  0  0  0
  -22.8390  -10.2330   20.2360 C   0  0  0  0  0  3  0  0  0  0  0  0
  -21.7980   -6.9370   21.4560 O   0  0  0  0  0  0  0  0  0  0  0  0
  -21.7330   -6.2110   22.6200 C   0  0  0  0  0  0  0  0  0  0  0  0
  -21.2400   -6.7690   23.8190 C   0  0  0  0  0  3  0  0  0  0  0  0
  -21.1240   -5.9680   24.9730 C   0  0  0  0  0  3  0  0  0  0  0  0
  -21.4920   -4.6110   24.9280 C   0  0  0  0  0  0  0  0  0  0  0  0
  -21.9780   -4.0520   23.7330 C   0  0  0  0  0  3  0  0  0  0  0  0
  -22.0950   -4.8500   22.5810 C   0  0  0  0  0  0  0  0  0  0  0  0
  -22.5440   -4.3000   21.4270 F   0  0  0  0  0  0  0  0  0  0  0  0
  -21.3750   -3.8390   26.0340 F   0  0  0  0  0  0  0  0  0  0  0  0
  -22.8200  -13.5760   21.1690 C   0  0  0  0  0  0  0  0  0  0  0  0
  -22.1210  -12.8740   22.0530 N   0  0  0  0  0  0  0  0  0  0  0  0
  -22.3580  -14.5950   20.6540 O   0  0  0  0  0  0  0  0  0  0  0  0
  -22.5080  -12.0520   22.4910 H   0  0  0  0  0  0  0  0  0  0  0  0
  -21.1840  -13.1650   22.2970 H   0  0  0  0  0  0  0  0  0  0  0  0
  -25.3920  -15.2910   20.3210 N   0  0  0  0  0  0  0  0  0  0  0  0
  -24.6140  -15.9290   20.4520 H   0  0  0  0  0  0  0  0  0  0  0  0
  -26.2150  -15.7430   19.9470 H   0  0  0  0  0  0  0  0  0  0  0  0
  -31.0380  -22.5690   20.3420 O   0  0  0  0  0  0  0  0  0  0  0  0
  -31.9130  -22.2000   20.4170 H   0  0  0  0  0  0  0  0  0  0  0  0
  -27.0840  -20.0700   20.0380 O   0  0  0  0  0  0  0  0  0  0  0  0
  -26.6230  -20.9020   20.0420 H   0  0  0  0  0  0  0  0  0  0  0  0
  -27.8920  -23.5670   20.0730 C   0  0  0  0  0  2  0  0  0  0  0  0
  -28.2010  -25.3390   20.2470 O   0  0  0  0  0  0  0  0  0  0  0  0
  -24.6790  -31.8170   23.1780 C   0  0  0  0  0  0  0  0  0  0  0  0
  -27.2470  -26.6270   20.2010 C   0  0  0  0  0  0  0  0  0  0  0  0
  -23.5260  -30.4340   21.5080 C   0  0  0  0  0  3  0  0  0  0  0  0
  -24.9970  -28.7660   20.1160 C   0  0  0  0  0  0  0  0  0  0  0  0
  -26.1140  -30.5270   21.4540 C   0  0  0  0  0  2  0  0  0  0  0  0
  -26.1860  -29.0830   20.7850 C   0  0  0  0  0  0  0  0  0  0  0  0
  -27.2870  -28.0490   20.7880 C   0  0  0  0  0  3  0  0  0  0  0  0
  -26.0220  -26.5630   19.4760 C   0  0  0  0  0  3  0  0  0  0  0  0
  -24.9650  -27.5340   19.4380 C   0  0  0  0  0  3  0  0  0  0  0  0
  -23.7990  -29.7380   20.1410 C   0  0  0  0  0  2  0  0  0  0  0  0
  -24.7980  -30.9620   22.1000 N   0  0  0  0  0  0  0  0  0  0  0  0
  -23.5740  -32.1200   23.6630 O   0  0  0  0  0  0  0  0  0  0  0  0
  -22.7750  -29.4610   22.4600 C   0  0  0  0  0  0  0  0  0  0  0  0
  -21.4410  -29.3290   22.3170 N   0  0  0  0  0  0  0  0  0  0  0  0
  -23.4090  -28.8230   23.3030 O   0  0  0  0  0  0  0  0  0  0  0  0
  -20.9780  -29.8930   21.6200 H   0  0  0  0  0  0  0  0  0  0  0  0
  -18.0290  -28.1620   22.8030 C   0  0  0  0  0  0  0  0  0  0  0  0
  -20.5940  -28.3890   23.0670 C   0  0  0  0  0  3  0  0  0  0  0  0
  -20.6730  -26.9670   22.4620 C   0  0  0  0  0  2  0  0  0  0  0  0
  -19.5660  -26.6860   21.4390 C   0  0  0  0  0  2  0  0  0  0  0  0
  -18.1880  -26.8310   22.0870 C   0  0  0  0  0  2  0  0  0  0  0  0
  -19.1580  -28.9010   23.2480 C   0  0  0  0  0  0  0  0  0  0  0  0
  -18.9520  -30.1440   23.8850 C   0  0  0  0  0  3  0  0  0  0  0  0
  -17.6520  -30.6500   24.0750 C   0  0  0  0  0  3  0  0  0  0  0  0
  -16.5390  -29.9100   23.6410 C   0  0  0  0  0  3  0  0  0  0  0  0
  -16.7280  -28.6660   23.0110 C   0  0  0  0  0  3  0  0  0  0  0  0
  -25.9240  -32.4660   23.8560 C   0  0  0  0  0  3  0  0  0  0  0  0
  -26.3840  -31.7040   25.1610 C   0  0  1  0  0  0  0  0  0  0  0  0
  -25.2490  -31.4830   26.1900 C   0  0  0  0  0  1  0  0  0  0  0  0
  -26.9730  -30.3180   24.8180 C   0  0  0  0  0  1  0  0  0  0  0  0
  -27.5150  -32.4960   25.8600 C   0  0  0  0  0  1  0  0  0  0  0  0
  -25.5930  -33.8680   24.1930 N   0  0  0  0  0  0  0  0  0  0  0  0
  -25.9150  -34.9400   23.4570 C   0  0  0  0  0  0  0  0  0  0  0  0
  -26.5740  -34.8550   22.4180 O   0  0  0  0  0  0  0  0  0  0  0  0
  -25.0040  -34.0050   25.0020 H   0  0  0  0  0  0  0  0  0  0  0  0
  -24.1640  -36.7350   23.1830 C   0  0  0  0  0  1  0  0  0  0  0  0
  -25.4350  -36.3250   23.9450 C   0  0  0  0  0  3  0  0  0  0  0  0
  -27.5840  -37.2330   24.7190 C   0  0  0  0  0  1  0  0  0  0  0  0
  -26.4550  -37.3890   23.8060 N   0  0  0  0  0  0  0  0  0  0  0  0
  -26.0450  -38.3050   23.9620 H   0  0  0  0  0  0  0  0  0  0  0  0
  2  1  1  0
  3  1  2  0
  3 44  1  0
  4  5  1  0
  4  2  2  0
  5  3  1  0
  6 14  1  0
  7 12  1  0
  8  9  1  0
  8  7  1  0
 10  9  1  0
 10 19  1  0
 10 11  1  0
 12  6  1  0
 12 11  1  0
 13  6  2  0
 14  2  1  0
 14 15  1  0
 16 17  2  0
 17 36  1  0
 18 17  1  0
 18 21  1  0
 19 20  1  0
 19 16  1  0
 20 18  2  0
 21 22  1  0
 22 23  2  0
 24 27  1  0
 24 23  1  0
 25 24  2  0
 26 25  1  0
 26 21  2  0
 27 28  1  0
 28 29  1  0
 29 30  2  0
 31 30  1  0
 31 35  1  0
 32 31  2  0
 33 28  2  0
 33 32  1  0
 34 33  1  0
 36 37  1  0
 37 40  1  0
 37 39  1  0
 38 36  2  0
 41 42  1  0
 41 16  1  0
 43 41  1  0
 44 45  1  0
 46 47  1  0
 46  4  1  0
 48  5  1  0
 48 49  1  0
 50 61  2  0
 51 49  1  0
 51 56  1  0
 52 60  1  0
 52 62  1  0
 53 59  1  0
 53 55  1  0
 54 60  1  0
 55 56  2  0
 55 54  1  0
 57 51  2  0
 58 57  1  0
 58 53  2  0
 59 52  1  0
 60 50  1  0
 62 64  2  0
 63 62  1  0
 65 63  1  0
 66 75  2  0
 66 71  1  0
 67 63  1  0
 67 71  1  0
 68 67  1  0
 69 70  1  0
 69 68  1  0
 70 66  1  0
 71 72  2  0
 72 73  1  0
 74 73  2  0
 75 74  1  0
 76 50  1  0
 76 81  1  0
 76 77  1  0
 77 80  1  1
 77 78  1  0
 79 77  1  0
 81 84  1  0
 82 86  1  0
 82 81  1  0
 83 82  2  0
 86 85  1  0
 88 86  1  0
 88 89  1  0
 88 87  1  0
M  ISO  4   6 100  14 100  48 101  49 101
M  END
>  <TORSDO>  (35) 
F 19

>  <SCORE>  (35) 
-15.982

>  <name>  (35) 
34

>  <ligand_id>  (35) 
34

>  <original_smiles>  (35) 
[H]Oc1c([H])c(N([H])C(=O)N2C([H])([H])C([H])([H])C([H])([H])C([H])(n3nc(-c4c([H])c([H])c(Oc5c([H])c([H])c(F)c([H])c5F)c([H])c4[H])c(C(=O)N([H])[H])c3N([H])[H])C2([H])[H])c(O[H])n1C([H])([H])Oc1c([H])c([H])c2c(c1[H])C([H])([H])N(C(=O)C([H])(N([H])C(=O)C([H])(N([H])C([H])([H])[H])C([H])([H])[H])C(C([H])([H])[H])(C([H])([H])[H])C([H])([H])[H])C([H])(C(=O)N([H])C1([H])c3c([H])c([H])c([H])c([H])c3C([H])([H])C([H])([H])C1([H])[H])C2([H])[H]

>  <smiles>  (35) 
[H]Oc1c([H])c(N([H])C(=O)N2C([H])([H])C([H])([H])C([H])([H])C([H])(n3nc(-c4c([H])c([H])c(Oc5c([H])c([H])c(F)c([H])c5F)c([H])c4[H])c(C(=O)N([H])[H])c3N([H])[H])C2([H])[H])c(O[H])n1C([H])([H])Oc1c([H])c([H])c2c(c1[H])C([H])([H])N(C(=O)C([H])(N([H])C(=O)C([H])(N([H])C([H])([H])[H])C([H])([H])[H])C(C([H])([H])[H])(C([H])([H])[H])C([H])([H])[H])C([H])(C(=O)N([H])C1([H])c3c([H])c([H])c([H])c([H])c3C([H])([H])C([H])([H])C1([H])[H])C2([H])[H]

$$$$
35:0:0
     RDKit          3D

 93101  0  0  1  0  0  0  0  0999 V2000
  -29.0040  -22.7760   22.1720 C   0  0  0  0  0  3  0  0  0  0  0  0
  -28.9430  -24.0110   22.8500 C   0  0  0  0  0  3  0  0  0  0  0  0
  -28.5660  -23.9560   20.0920 C   0  0  0  0  0  3  0  0  0  0  0  0
  -28.8290  -22.6960   20.7740 C   0  0  0  0  0  0  0  0  0  0  0  0
  -28.7000  -25.2210   22.1660 C   0  0  0  0  0  0  0  0  0  0  0  0
  -28.4920  -25.2420   20.7660 C   0  0  0  0  0  0  0  0  0  0  0  0
  -28.8110  -21.3010   20.0880 C   0  0  0  0  0  0  0  0  0  0  0  0
  -29.4030  -20.1930   20.6690 N   0  0  0  0  0  0  0  0  0  0  0  0
  -28.2160  -21.1930   19.0140 O   0  0  0  0  0  0  0  0  0  0  0  0
  -29.9290  -20.3800   21.5120 H   0  0  0  0  0  0  0  0  0  0  0  0
  -29.1040  -18.7250   20.3850 C   0  0  0  0  0  3  0  0  0  0  0  0
  -30.2150  -17.5660   20.5710 C   0  0  0  0  0  3  0  0  0  0  0  0
  -29.6880  -16.0450   20.7210 C   0  0  0  0  0  2  0  0  0  0  0  0
  -30.5690  -14.7490   20.3770 C   0  0  0  0  0  0  0  0  0  0  0  0
  -30.4190  -12.4730   19.3470 C   0  0  0  0  0  2  0  0  0  0  0  0
  -29.4730  -12.5580   18.1250 C   0  0  0  0  0  2  0  0  0  0  0  0
  -28.0020  -12.3740   18.5520 C   0  0  0  0  0  2  0  0  0  0  0  0
  -27.6260  -13.2570   19.7690 C   0  0  0  0  0  3  0  0  0  0  0  0
  -28.6830  -13.1500   20.8900 C   0  0  0  0  0  2  0  0  0  0  0  0
  -29.9900  -13.5020   20.3190 N   0  0  0  0  0  0  0  0  0  0  0  0
  -31.7400  -14.8970   20.0090 O   0  0  0  0  0  0  0  0  0  0  0  0
  -25.2360  -13.8560   20.4930 C   0  0  0  0  0  0  0  0  0  0  0  0
  -24.1710  -13.0820   20.8660 C   0  0  0  0  0  0  0  0  0  0  0  0
  -24.6370  -11.7320   20.8450 C   0  0  0  0  0  0  0  0  0  0  0  0
  -26.2800  -12.9740   20.2600 N   0  0  0  0  0  0  0  0  0  0  0  0
  -25.9270  -11.6940   20.5360 N   0  0  0  0  0  0  0  0  0  0  0  0
  -23.9140  -10.4690   21.0430 C   0  0  0  0  0  0  0  0  0  0  0  0
  -24.3540   -9.5040   21.9740 C   0  0  0  0  0  3  0  0  0  0  0  0
  -23.6320   -8.3060   22.1590 C   0  0  0  0  0  3  0  0  0  0  0  0
  -22.4550   -8.0650   21.4120 C   0  0  0  0  0  0  0  0  0  0  0  0
  -22.0330   -9.0180   20.4690 C   0  0  0  0  0  3  0  0  0  0  0  0
  -22.7570  -10.2080   20.2810 C   0  0  0  0  0  3  0  0  0  0  0  0
  -21.7020   -6.9190   21.5060 O   0  0  0  0  0  0  0  0  0  0  0  0
  -21.6700   -6.1720   22.6570 C   0  0  0  0  0  0  0  0  0  0  0  0
  -21.2640   -6.7240   23.8920 C   0  0  0  0  0  3  0  0  0  0  0  0
  -21.1780   -5.9050   25.0350 C   0  0  0  0  0  3  0  0  0  0  0  0
  -21.4870   -4.5340   24.9450 C   0  0  0  0  0  0  0  0  0  0  0  0
  -21.8850   -3.9810   23.7150 C   0  0  0  0  0  3  0  0  0  0  0  0
  -21.9730   -4.7980   22.5730 C   0  0  0  0  0  0  0  0  0  0  0  0
  -22.3370   -4.2560   21.3860 F   0  0  0  0  0  0  0  0  0  0  0  0
  -21.3970   -3.7450   26.0400 F   0  0  0  0  0  0  0  0  0  0  0  0
  -22.7710  -13.5580   21.1340 C   0  0  0  0  0  0  0  0  0  0  0  0
  -22.0440  -12.8650   22.0030 N   0  0  0  0  0  0  0  0  0  0  0  0
  -22.3320  -14.5780   20.6070 O   0  0  0  0  0  0  0  0  0  0  0  0
  -22.4130  -12.0390   22.4510 H   0  0  0  0  0  0  0  0  0  0  0  0
  -21.1050  -13.1650   22.2250 H   0  0  0  0  0  0  0  0  0  0  0  0
  -25.3980  -15.2250   20.3090 N   0  0  0  0  0  0  0  0  0  0  0  0
  -24.6310  -15.8800   20.4210 H   0  0  0  0  0  0  0  0  0  0  0  0
  -26.2510  -15.6660   19.9890 H   0  0  0  0  0  0  0  0  0  0  0  0
  -28.7000  -26.4090   22.8950 N   0  0  0  0  0  0  0  0  0  0  0  0
  -28.4980  -26.3580   23.8870 H   0  0  0  0  0  0  0  0  0  0  0  0
  -28.2600  -27.2050   22.4460 H   0  0  0  0  0  0  0  0  0  0  0  0
  -28.3800  -26.5040   20.1180 O   0  0  0  0  0  0  0  0  0  0  0  0
  -24.6240  -31.8920   23.2300 C   0  0  0  0  0  0  0  0  0  0  0  0
  -27.2410  -27.3240   20.1870 C   0  0  0  0  0  0  0  0  0  0  0  0
  -23.4160  -30.4850   21.5990 C   0  0  0  0  0  3  0  0  0  0  0  0
  -24.8660  -28.9230   20.1790 C   0  0  0  0  0  0  0  0  0  0  0  0
  -25.9520  -30.8100   21.4000 C   0  0  0  0  0  2  0  0  0  0  0  0
  -26.0350  -29.4240   20.7660 C   0  0  0  0  0  0  0  0  0  0  0  0
  -27.2270  -28.6380   20.7570 C   0  0  0  0  0  3  0  0  0  0  0  0
  -26.0510  -26.8710   19.5840 C   0  0  0  0  0  3  0  0  0  0  0  0
  -24.8750  -27.6510   19.5800 C   0  0  0  0  0  3  0  0  0  0  0  0
  -23.6280  -29.7970   20.2230 C   0  0  0  0  0  2  0  0  0  0  0  0
  -24.6830  -31.0810   22.1330 N   0  0  0  0  0  0  0  0  0  0  0  0
  -23.5430  -32.1700   23.7690 O   0  0  0  0  0  0  0  0  0  0  0  0
  -22.7590  -29.4730   22.5670 C   0  0  0  0  0  0  0  0  0  0  0  0
  -21.4320  -29.2940   22.4470 N   0  0  0  0  0  0  0  0  0  0  0  0
  -23.4420  -28.8520   23.3860 O   0  0  0  0  0  0  0  0  0  0  0  0
  -20.9410  -29.8460   21.7560 H   0  0  0  0  0  0  0  0  0  0  0  0
  -18.0590  -28.0900   22.9600 C   0  0  0  0  0  0  0  0  0  0  0  0
  -20.6180  -28.3580   23.2220 C   0  0  0  0  0  3  0  0  0  0  0  0
  -20.7220  -26.9240   22.6510 C   0  0  0  0  0  2  0  0  0  0  0  0
  -19.6180  -26.5960   21.6410 C   0  0  0  0  0  2  0  0  0  0  0  0
  -18.2380  -26.7390   22.2870 C   0  0  0  0  0  2  0  0  0  0  0  0
  -19.1770  -28.8570   23.3840 C   0  0  0  0  0  0  0  0  0  0  0  0
  -18.9570  -30.1210   23.9730 C   0  0  0  0  0  3  0  0  0  0  0  0
  -17.6520  -30.6200   24.1410 C   0  0  0  0  0  3  0  0  0  0  0  0
  -16.5480  -29.8500   23.7330 C   0  0  0  0  0  3  0  0  0  0  0  0
  -16.7530  -28.5880   23.1490 C   0  0  0  0  0  3  0  0  0  0  0  0
  -25.9090  -32.5300   23.8450 C   0  0  0  0  0  3  0  0  0  0  0  0
  -25.5940  -33.9250   24.1850 N   0  0  0  0  0  0  0  0  0  0  0  0
  -25.9170  -34.9840   23.4320 C   0  0  0  0  0  0  0  0  0  0  0  0
  -26.5810  -34.8910   22.3960 O   0  0  0  0  0  0  0  0  0  0  0  0
  -25.0030  -34.0720   24.9910 H   0  0  0  0  0  0  0  0  0  0  0  0
  -24.1800  -36.7740   23.1000 C   0  0  0  0  0  1  0  0  0  0  0  0
  -25.4270  -36.3680   23.9020 C   0  0  0  0  0  3  0  0  0  0  0  0
  -27.5650  -37.2540   24.7260 C   0  0  0  0  0  1  0  0  0  0  0  0
  -26.4560  -37.4260   23.7900 N   0  0  0  0  0  0  0  0  0  0  0  0
  -26.0490  -38.3440   23.9460 H   0  0  0  0  0  0  0  0  0  0  0  0
  -26.4380  -31.7550   25.1150 C   0  0  1  0  0  0  0  0  0  0  0  0
  -25.3540  -31.5090   26.1900 C   0  0  0  0  0  1  0  0  0  0  0  0
  -27.0220  -30.3820   24.7120 C   0  0  0  0  0  1  0  0  0  0  0  0
  -27.5910  -32.5510   25.7700 C   0  0  0  0  0  1  0  0  0  0  0  0
  1  2  1  0
  3  6  2  0
  3  4  1  0
  4  1  2  0
  5  2  2  0
  5 50  1  0
  6  5  1  0
  7  8  1  0
  7  4  1  0
  8 10  1  0
  9  7  2  0
 11 12  2  0
 11  8  1  0
 12 13  1  0
 14 13  1  0
 15 20  1  0
 16 17  1  0
 16 15  1  0
 18 17  1  0
 18 25  1  0
 18 19  1  0
 20 14  1  0
 20 19  1  0
 21 14  2  0
 22 23  2  0
 23 42  1  0
 24 23  1  0
 24 27  1  0
 25 22  1  0
 25 26  1  0
 26 24  2  0
 27 28  1  0
 28 29  2  0
 30 33  1  0
 30 29  1  0
 31 30  2  0
 32 31  1  0
 32 27  2  0
 33 34  1  0
 34 35  1  0
 35 36  2  0
 37 36  1  0
 37 41  1  0
 38 37  2  0
 39 34  2  0
 39 38  1  0
 40 39  1  0
 42 43  1  0
 43 46  1  0
 43 45  1  0
 44 42  2  0
 47 48  1  0
 47 22  1  0
 49 47  1  0
 50 51  1  0
 52 50  1  0
 53 55  1  0
 53  6  1  0
 54 65  2  0
 55 60  1  0
 56 64  1  0
 56 66  1  0
 57 63  1  0
 57 59  1  0
 58 64  1  0
 59 58  1  0
 60 59  2  0
 61 55  2  0
 62 61  1  0
 62 57  2  0
 63 56  1  0
 64 54  1  0
 66 68  2  0
 67 66  1  0
 69 67  1  0
 70 79  2  0
 70 75  1  0
 71 67  1  0
 71 75  1  0
 72 71  1  0
 73 74  1  0
 73 72  1  0
 74 70  1  0
 75 76  2  0
 76 77  1  0
 78 77  2  0
 79 78  1  0
 80 54  1  0
 80 81  1  0
 80 90  1  0
 81 84  1  0
 82 86  1  0
 82 81  1  0
 83 82  2  0
 86 85  1  0
 88 86  1  0
 88 89  1  0
 88 87  1  0
 90 93  1  1
 90 91  1  0
 92 90  1  0
M  ISO  4   6 101  13 100  14 100  53 101
M  END
>  <TORSDO>  (36) 
F 21

>  <SCORE>  (36) 
-13.626

>  <name>  (36) 
35

>  <ligand_id>  (36) 
35

>  <original_smiles>  (36) 
[H]c1c([H])c([H])c2c(c1[H])C([H])([H])C([H])([H])C([H])([H])C2([H])N([H])C(=O)C1([H])N(C(=O)C([H])(N([H])C(=O)C([H])(N([H])C([H])([H])[H])C([H])([H])[H])C(C([H])([H])[H])(C([H])([H])[H])C([H])([H])[H])C([H])([H])c2c([H])c(Oc3c([H])c(C(=O)N([H])C([H])([H])C([H])([H])C([H])([H])C(=O)N4C([H])([H])C([H])([H])C([H])([H])C([H])(n5nc(-c6c([H])c([H])c(Oc7c([H])c([H])c(F)c([H])c7F)c([H])c6[H])c(C(=O)N([H])[H])c5N([H])[H])C4([H])[H])c([H])c([H])c3N([H])[H])c([H])c([H])c2C1([H])[H]

>  <smiles>  (36) 
[H]c1c([H])c([H])c2c(c1[H])C([H])([H])C([H])([H])C([H])([H])C2([H])N([H])C(=O)C1([H])N(C(=O)C([H])(N([H])C(=O)C([H])(N([H])C([H])([H])[H])C([H])([H])[H])C(C([H])([H])[H])(C([H])([H])[H])C([H])([H])[H])C([H])([H])c2c([H])c(Oc3c([H])c(C(=O)N([H])C([H])([H])C([H])([H])C([H])([H])C(=O)N4C([H])([H])C([H])([H])C([H])([H])C([H])(n5nc(-c6c([H])c([H])c(Oc7c([H])c([H])c(F)c([H])c7F)c([H])c6[H])c(C(=O)N([H])[H])c5N([H])[H])C4([H])[H])c([H])c([H])c3N([H])[H])c([H])c([H])c2C1([H])[H]

$$$$
36:0:0
     RDKit          3D

 95105  0  0  1  0  0  0  0  0999 V2000
  -28.4130  -19.6210   19.6940 C   0  0  0  0  0  3  0  0  0  0  0  0
  -29.0450  -18.3780   19.9790 C   0  0  0  0  0  3  0  0  0  0  0  0
  -30.6420  -19.5170   21.4160 C   0  0  0  0  0  3  0  0  0  0  0  0
  -28.9010  -20.8120   20.2840 C   0  0  0  0  0  0  0  0  0  0  0  0
  -30.0120  -20.7510   21.1150 C   0  0  0  0  0  0  0  0  0  0  0  0
  -30.1580  -18.2920   20.8560 C   0  0  0  0  0  0  0  0  0  0  0  0
  -30.3380  -22.1210   21.6740 C   0  0  0  0  0  2  0  0  0  0  0  0
  -27.9360  -24.4450   18.9640 C   0  0  0  0  0  2  0  0  0  0  0  0
  -28.4190  -22.9610   18.9230 C   0  0  0  0  0  2  0  0  0  0  0  0
  -29.3690  -24.5080   21.0410 C   0  0  0  0  0  2  0  0  0  0  0  0
  -29.0830  -22.9960   21.3640 C   0  0  0  0  0  3  0  0  0  0  0  0
  -28.1880  -25.1970   20.3080 C   0  0  0  0  0  3  0  0  0  0  0  0
  -28.2680  -22.2110   20.2730 C   0  0  2  0  0  0  0  0  0  0  0  0
  -26.7800  -22.0760   20.6580 C   0  0  0  0  0  1  0  0  0  0  0  0
  -32.3580  -17.0070   21.1030 C   0  0  0  0  0  1  0  0  0  0  0  0
  -30.8200  -16.9330   21.2520 C   0  0  0  0  0  3  0  0  0  0  0  0
  -30.7320  -14.6120   20.0590 C   0  0  0  0  0  0  0  0  0  0  0  0
  -30.3030  -12.4450   18.9280 C   0  0  0  0  0  2  0  0  0  0  0  0
  -29.2990  -12.6300   17.7730 C   0  0  0  0  0  2  0  0  0  0  0  0
  -27.8560  -12.4860   18.2890 C   0  0  0  0  0  2  0  0  0  0  0  0
  -27.5900  -13.3400   19.5590 C   0  0  0  0  0  3  0  0  0  0  0  0
  -28.7120  -13.1650   20.6090 C   0  0  0  0  0  2  0  0  0  0  0  0
  -30.0000  -13.4590   19.9570 N   0  0  0  0  0  0  0  0  0  0  0  0
  -31.8090  -14.7270   19.4710 O   0  0  0  0  0  0  0  0  0  0  0  0
  -30.2030  -15.6450   20.7740 N   0  0  0  0  0  0  0  0  0  0  0  0
  -29.2880  -15.4560   21.1520 H   0  0  0  0  0  0  0  0  0  0  0  0
  -25.2530  -13.9550   20.4460 C   0  0  0  0  0  0  0  0  0  0  0  0
  -24.2000  -13.1900   20.8670 C   0  0  0  0  0  0  0  0  0  0  0  0
  -24.6360  -11.8320   20.7720 C   0  0  0  0  0  0  0  0  0  0  0  0
  -26.2670  -13.0670   20.1210 N   0  0  0  0  0  0  0  0  0  0  0  0
  -25.9030  -11.7830   20.3760 N   0  0  0  0  0  0  0  0  0  0  0  0
  -23.9010  -10.5760   20.9790 C   0  0  0  0  0  0  0  0  0  0  0  0
  -24.3540   -9.5970   21.8920 C   0  0  0  0  0  3  0  0  0  0  0  0
  -23.6190   -8.4080   22.0880 C   0  0  0  0  0  3  0  0  0  0  0  0
  -22.4170   -8.1910   21.3730 C   0  0  0  0  0  0  0  0  0  0  0  0
  -21.9840   -9.1580   20.4490 C   0  0  0  0  0  3  0  0  0  0  0  0
  -22.7190  -10.3400   20.2510 C   0  0  0  0  0  3  0  0  0  0  0  0
  -21.6500   -7.0550   21.4780 O   0  0  0  0  0  0  0  0  0  0  0  0
  -21.6140   -6.3170   22.6350 C   0  0  0  0  0  0  0  0  0  0  0  0
  -21.1810   -6.8720   23.8600 C   0  0  0  0  0  3  0  0  0  0  0  0
  -21.0910   -6.0600   25.0080 C   0  0  0  0  0  3  0  0  0  0  0  0
  -21.4220   -4.6940   24.9340 C   0  0  0  0  0  0  0  0  0  0  0  0
  -21.8470   -4.1390   23.7140 C   0  0  0  0  0  3  0  0  0  0  0  0
  -21.9400   -4.9480   22.5670 C   0  0  0  0  0  0  0  0  0  0  0  0
  -22.3290   -4.4030   21.3910 F   0  0  0  0  0  0  0  0  0  0  0  0
  -21.3290   -3.9120   26.0340 F   0  0  0  0  0  0  0  0  0  0  0  0
  -22.8300  -13.6810   21.2410 C   0  0  0  0  0  0  0  0  0  0  0  0
  -22.1420  -12.9790   22.1330 N   0  0  0  0  0  0  0  0  0  0  0  0
  -22.3810  -14.7280   20.7750 O   0  0  0  0  0  0  0  0  0  0  0  0
  -22.5170  -12.1350   22.5390 H   0  0  0  0  0  0  0  0  0  0  0  0
  -21.2270  -13.2970   22.4220 H   0  0  0  0  0  0  0  0  0  0  0  0
  -25.4260  -15.3290   20.2940 N   0  0  0  0  0  0  0  0  0  0  0  0
  -24.6800  -15.9890   20.4880 H   0  0  0  0  0  0  0  0  0  0  0  0
  -26.2520  -15.7690   19.9150 H   0  0  0  0  0  0  0  0  0  0  0  0
  -28.3750  -26.6460   20.1630 O   0  0  0  0  0  0  0  0  0  0  0  0
  -24.6520  -31.9440   23.2560 C   0  0  0  0  0  0  0  0  0  0  0  0
  -27.2360  -27.4530   20.1390 C   0  0  0  0  0  0  0  0  0  0  0  0
  -23.4300  -30.5580   21.6190 C   0  0  0  0  0  3  0  0  0  0  0  0
  -24.8660  -29.0290   20.1690 C   0  0  0  0  0  0  0  0  0  0  0  0
  -25.9640  -30.8950   21.4050 C   0  0  0  0  0  2  0  0  0  0  0  0
  -26.0380  -29.5250   20.7510 C   0  0  0  0  0  0  0  0  0  0  0  0
  -27.2300  -28.7490   20.7270 C   0  0  0  0  0  3  0  0  0  0  0  0
  -26.0410  -27.0040   19.5350 C   0  0  0  0  0  3  0  0  0  0  0  0
  -24.8690  -27.7720   19.5500 C   0  0  0  0  0  3  0  0  0  0  0  0
  -23.6270  -29.8930   20.2330 C   0  0  0  0  0  2  0  0  0  0  0  0
  -24.7020  -31.1460   22.1520 N   0  0  0  0  0  0  0  0  0  0  0  0
  -23.5760  -32.2170   23.8050 O   0  0  0  0  0  0  0  0  0  0  0  0
  -22.7800  -29.5310   22.5760 C   0  0  0  0  0  0  0  0  0  0  0  0
  -21.4600  -29.3300   22.4400 N   0  0  0  0  0  0  0  0  0  0  0  0
  -23.4640  -28.9180   23.4010 O   0  0  0  0  0  0  0  0  0  0  0  0
  -20.9680  -29.8730   21.7440 H   0  0  0  0  0  0  0  0  0  0  0  0
  -18.1000  -28.0840   22.9080 C   0  0  0  0  0  0  0  0  0  0  0  0
  -20.6490  -28.3850   23.2080 C   0  0  0  0  0  3  0  0  0  0  0  0
  -20.7820  -26.9500   22.6450 C   0  0  0  0  0  2  0  0  0  0  0  0
  -19.6980  -26.6040   21.6200 C   0  0  0  0  0  2  0  0  0  0  0  0
  -18.3040  -26.7330   22.2440 C   0  0  0  0  0  2  0  0  0  0  0  0
  -19.2010  -28.8660   23.3450 C   0  0  0  0  0  0  0  0  0  0  0  0
  -18.9550  -30.1320   23.9250 C   0  0  0  0  0  3  0  0  0  0  0  0
  -17.6420  -30.6140   24.0690 C   0  0  0  0  0  3  0  0  0  0  0  0
  -16.5550  -29.8310   23.6470 C   0  0  0  0  0  3  0  0  0  0  0  0
  -16.7850  -28.5650   23.0740 C   0  0  0  0  0  3  0  0  0  0  0  0
  -25.9440  -32.5700   23.8670 C   0  0  0  0  0  3  0  0  0  0  0  0
  -25.6400  -33.9650   24.2120 N   0  0  0  0  0  0  0  0  0  0  0  0
  -25.9440  -35.0210   23.4440 C   0  0  0  0  0  0  0  0  0  0  0  0
  -26.5820  -34.9220   22.3920 O   0  0  0  0  0  0  0  0  0  0  0  0
  -25.0690  -34.1130   25.0310 H   0  0  0  0  0  0  0  0  0  0  0  0
  -24.1900  -36.7970   23.1550 C   0  0  0  0  0  1  0  0  0  0  0  0
  -25.4650  -36.4050   23.9200 C   0  0  0  0  0  3  0  0  0  0  0  0
  -27.6180  -37.3120   24.6720 C   0  0  0  0  0  1  0  0  0  0  0  0
  -26.4830  -37.4660   23.7650 N   0  0  0  0  0  0  0  0  0  0  0  0
  -26.0760  -38.3840   23.9200 H   0  0  0  0  0  0  0  0  0  0  0  0
  -26.4710  -31.7860   25.1310 C   0  0  1  0  0  0  0  0  0  0  0  0
  -25.3860  -31.5360   26.2040 C   0  0  0  0  0  1  0  0  0  0  0  0
  -27.0550  -30.4140   24.7200 C   0  0  0  0  0  1  0  0  0  0  0  0
  -27.6270  -32.5760   25.7910 C   0  0  0  0  0  1  0  0  0  0  0  0
  1  2  2  0
  1  4  1  0
  2  6  1  0
  4  5  2  0
  5  3  1  0
  5  7  1  0
  6 16  1  0
  6  3  2  0
  8 12  1  0
  9  8  1  0
  9 13  1  0
 11 10  1  0
 11  7  1  0
 12 55  1  0
 12 10  1  0
 13  4  1  0
 13 14  1  1
 13 11  1  0
 16 15  1  0
 17 25  1  0
 18 23  1  0
 19 20  1  0
 19 18  1  0
 21 20  1  0
 21 30  1  0
 21 22  1  0
 23 17  1  0
 23 22  1  0
 24 17  2  0
 25 26  1  0
 25 16  1  0
 27 28  2  0
 28 47  1  0
 29 28  1  0
 29 32  1  0
 30 31  1  0
 30 27  1  0
 31 29  2  0
 32 33  1  0
 33 34  2  0
 35 38  1  0
 35 34  1  0
 36 35  2  0
 37 36  1  0
 37 32  2  0
 38 39  1  0
 39 40  1  0
 40 41  2  0
 42 41  1  0
 42 46  1  0
 43 42  2  0
 44 39  2  0
 44 43  1  0
 45 44  1  0
 47 48  1  0
 48 51  1  0
 48 50  1  0
 49 47  2  0
 52 27  1  0
 52 53  1  0
 54 52  1  0
 56 67  2  0
 57 55  1  0
 57 62  1  0
 58 66  1  0
 58 68  1  0
 59 65  1  0
 59 61  1  0
 60 66  1  0
 61 60  1  0
 62 61  2  0
 63 64  1  0
 63 57  2  0
 64 59  2  0
 65 58  1  0
 66 56  1  0
 68 70  2  0
 69 68  1  0
 71 69  1  0
 72 81  2  0
 72 77  1  0
 73 69  1  0
 73 77  1  0
 74 73  1  0
 75 76  1  0
 75 74  1  0
 76 72  1  0
 77 78  2  0
 78 79  1  0
 80 79  2  0
 81 80  1  0
 82 56  1  0
 82 83  1  0
 82 92  1  0
 83 86  1  0
 84 88  1  0
 84 83  1  0
 85 84  2  0
 88 87  1  0
 90 88  1  0
 90 91  1  0
 90 89  1  0
 92 95  1  1
 92 93  1  0
 94 92  1  0
M  ISO  4  12 101  17 100  25 100  55 101
M  END
>  <TORSDO>  (37) 
F 17

>  <SCORE>  (37) 
-14.536

>  <name>  (37) 
36

>  <ligand_id>  (37) 
36

>  <original_smiles>  (37) 
[H]c1c([H])c([H])c2c(c1[H])C([H])([H])C([H])([H])C([H])([H])C2([H])N([H])C(=O)C1([H])N(C(=O)C([H])(N([H])C(=O)C([H])(N([H])C([H])([H])[H])C([H])([H])[H])C(C([H])([H])[H])(C([H])([H])[H])C([H])([H])[H])C([H])([H])c2c([H])c(OC3([H])C([H])([H])C([H])([H])C4(C([H])([H])[H])c5c([H])c([H])c(C([H])(N([H])C(=O)N6C([H])([H])C([H])([H])C([H])([H])C([H])(n7nc(-c8c([H])c([H])c(Oc9c([H])c([H])c(F)c([H])c9F)c([H])c8[H])c(C(=O)N([H])[H])c7N([H])[H])C6([H])[H])C([H])([H])[H])c([H])c5C([H])([H])C4([H])C3([H])[H])c([H])c([H])c2C1([H])[H]

>  <smiles>  (37) 
[H]c1c([H])c([H])c2c(c1[H])C([H])([H])C([H])([H])C([H])([H])C2([H])N([H])C(=O)C1([H])N(C(=O)C([H])(N([H])C(=O)C([H])(N([H])C([H])([H])[H])C([H])([H])[H])C(C([H])([H])[H])(C([H])([H])[H])C([H])([H])[H])C([H])([H])c2c([H])c(OC3([H])C([H])([H])C([H])([H])C4(C([H])([H])[H])c5c([H])c([H])c(C([H])(N([H])C(=O)N6C([H])([H])C([H])([H])C([H])([H])C([H])(n7nc(-c8c([H])c([H])c(Oc9c([H])c([H])c(F)c([H])c9F)c([H])c8[H])c(C(=O)N([H])[H])c7N([H])[H])C6([H])[H])C([H])([H])[H])c([H])c5C([H])([H])C4([H])C3([H])[H])c([H])c([H])c2C1([H])[H]

$$$$
37:0:0
     RDKit          3D

 96106  0  0  1  0  0  0  0  0999 V2000
  -29.7050  -22.9770   21.7960 C   0  0  0  0  0  3  0  0  0  0  0  0
  -29.3460  -24.3830   21.8620 C   0  0  0  0  0  3  0  0  0  0  0  0
  -29.0320  -22.9240   19.5590 C   0  0  0  0  0  0  0  0  0  0  0  0
  -29.5900  -22.1540   20.6250 C   0  0  0  0  0  0  0  0  0  0  0  0
  -28.6900  -24.3240   19.6040 C   0  0  0  0  0  0  0  0  0  0  0  0
  -28.8320  -25.1660   20.7710 C   0  0  0  0  0  0  0  0  0  0  0  0
  -30.0330  -22.2300   17.3260 C   0  0  0  0  0  2  0  0  0  0  0  0
  -29.8910  -23.2110   16.1540 C   0  0  0  0  0  2  0  0  0  0  0  0
  -28.7630  -22.3840   18.1920 C   0  0  0  0  0  3  0  0  0  0  0  0
  -28.4000  -23.5440   16.1000 C   0  0  0  0  0  3  0  0  0  0  0  0
  -27.9520  -23.5240   17.5650 C   0  0  0  0  0  3  0  0  0  0  0  0
  -28.0370  -24.8080   15.3120 C   0  0  0  0  0  1  0  0  0  0  0  0
  -28.2660  -24.7420   18.3360 N   0  0  0  0  0  0  0  0  0  0  0  0
  -27.6710  -25.5570   18.2560 H   0  0  0  0  0  0  0  0  0  0  0  0
  -28.7630  -26.6270   20.8610 O   0  0  0  0  0  0  0  0  0  0  0  0
  -24.9340  -32.2420   23.6670 C   0  0  0  0  0  0  0  0  0  0  0  0
  -27.6360  -27.5090   20.8330 C   0  0  0  0  0  0  0  0  0  0  0  0
  -23.8020  -30.8300   21.9920 C   0  0  0  0  0  3  0  0  0  0  0  0
  -25.3030  -29.2250   20.6710 C   0  0  0  0  0  0  0  0  0  0  0  0
  -26.3570  -31.0970   21.9320 C   0  0  0  0  0  2  0  0  0  0  0  0
  -26.4550  -29.6940   21.3190 C   0  0  0  0  0  0  0  0  0  0  0  0
  -27.6220  -28.8520   21.3760 C   0  0  0  0  0  3  0  0  0  0  0  0
  -26.4480  -27.1170   20.1840 C   0  0  0  0  0  3  0  0  0  0  0  0
  -25.3080  -27.9460   20.0960 C   0  0  0  0  0  3  0  0  0  0  0  0
  -24.0820  -30.1280   20.6370 C   0  0  0  0  0  2  0  0  0  0  0  0
  -25.0490  -31.4110   22.5880 N   0  0  0  0  0  0  0  0  0  0  0  0
  -23.8260  -32.5400   24.1410 O   0  0  0  0  0  0  0  0  0  0  0  0
  -23.0750  -29.8420   22.9340 C   0  0  0  0  0  0  0  0  0  0  0  0
  -21.7750  -29.5950   22.6790 N   0  0  0  0  0  0  0  0  0  0  0  0
  -23.6830  -29.2950   23.8580 O   0  0  0  0  0  0  0  0  0  0  0  0
  -21.3430  -30.0910   21.9110 H   0  0  0  0  0  0  0  0  0  0  0  0
  -18.4230  -28.2440   22.8800 C   0  0  0  0  0  0  0  0  0  0  0  0
  -20.9190  -28.6610   23.4120 C   0  0  0  0  0  3  0  0  0  0  0  0
  -21.1540  -27.2060   22.9410 C   0  0  0  0  0  2  0  0  0  0  0  0
  -20.1910  -26.7670   21.8340 C   0  0  0  0  0  2  0  0  0  0  0  0
  -18.7390  -26.8710   22.3100 C   0  0  0  0  0  2  0  0  0  0  0  0
  -19.4470  -29.0910   23.3820 C   0  0  0  0  0  0  0  0  0  0  0  0
  -19.1000  -30.3690   23.8700 C   0  0  0  0  0  3  0  0  0  0  0  0
  -17.7620  -30.8040   23.8610 C   0  0  0  0  0  3  0  0  0  0  0  0
  -16.7510  -29.9570   23.3760 C   0  0  0  0  0  3  0  0  0  0  0  0
  -17.0810  -28.6780   22.8910 C   0  0  0  0  0  3  0  0  0  0  0  0
  -26.1880  -32.8770   24.3420 C   0  0  0  0  0  3  0  0  0  0  0  0
  -26.5960  -32.1590   25.6880 C   0  0  1  0  0  0  0  0  0  0  0  0
  -25.4140  -31.9550   26.6640 C   0  0  0  0  0  1  0  0  0  0  0  0
  -27.2170  -30.7710   25.4030 C   0  0  0  0  0  1  0  0  0  0  0  0
  -27.6780  -32.9840   26.4230 C   0  0  0  0  0  1  0  0  0  0  0  0
  -25.8940  -34.2970   24.5900 N   0  0  0  0  0  0  0  0  0  0  0  0
  -26.2570  -35.3040   23.7840 C   0  0  0  0  0  0  0  0  0  0  0  0
  -26.9460  -35.1340   22.7740 O   0  0  0  0  0  0  0  0  0  0  0  0
  -25.2920  -34.5000   25.3740 H   0  0  0  0  0  0  0  0  0  0  0  0
  -24.5510  -37.0930   23.3110 C   0  0  0  0  0  1  0  0  0  0  0  0
  -25.7820  -36.7230   24.1540 C   0  0  0  0  0  3  0  0  0  0  0  0
  -27.9180  -37.6380   24.9550 C   0  0  0  0  0  1  0  0  0  0  0  0
  -26.8280  -37.7570   23.9890 N   0  0  0  0  0  0  0  0  0  0  0  0
  -26.4290  -38.6870   24.0810 H   0  0  0  0  0  0  0  0  0  0  0  0
  -30.3220  -20.6940   20.4740 C   0  0  0  0  0  2  0  0  0  0  0  0
  -29.7110  -19.1560   20.5200 C   0  0  0  0  0  3  0  0  0  0  0  0
  -30.7480  -17.8510   20.5160 C   0  0  0  0  0  3  0  0  0  0  0  0
  -31.1220  -15.1990   20.6400 C   0  0  0  0  0  0  0  0  0  0  0  0
  -31.0690  -12.8220   19.8150 C   0  0  0  0  0  2  0  0  0  0  0  0
  -30.2010  -12.7050   18.5420 C   0  0  0  0  0  2  0  0  0  0  0  0
  -28.7240  -12.4830   18.9160 C   0  0  0  0  0  2  0  0  0  0  0  0
  -28.2380  -13.4710   20.0090 C   0  0  0  0  0  3  0  0  0  0  0  0
  -29.2290  -13.5670   21.1890 C   0  0  0  0  0  2  0  0  0  0  0  0
  -30.5330  -13.9450   20.6320 N   0  0  0  0  0  0  0  0  0  0  0  0
  -32.3210  -15.2860   20.3640 O   0  0  0  0  0  0  0  0  0  0  0  0
  -30.3390  -16.3640   20.7500 N   0  0  0  0  0  0  0  0  0  0  0  0
  -29.3650  -16.1990   20.9590 H   0  0  0  0  0  0  0  0  0  0  0  0
  -25.8290  -14.0400   20.6730 C   0  0  0  0  0  0  0  0  0  0  0  0
  -24.7530  -13.2580   20.9930 C   0  0  0  0  0  0  0  0  0  0  0  0
  -25.2190  -11.9090   20.9490 C   0  0  0  0  0  0  0  0  0  0  0  0
  -26.8800  -13.1670   20.4520 N   0  0  0  0  0  0  0  0  0  0  0  0
  -26.5200  -11.8780   20.6830 N   0  0  0  0  0  0  0  0  0  0  0  0
  -24.4890  -10.6420   21.0880 C   0  0  0  0  0  0  0  0  0  0  0  0
  -24.8010   -9.7170   22.1080 C   0  0  0  0  0  3  0  0  0  0  0  0
  -24.0690   -8.5150   22.2330 C   0  0  0  0  0  3  0  0  0  0  0  0
  -23.0130   -8.2310   21.3350 C   0  0  0  0  0  0  0  0  0  0  0  0
  -22.7230   -9.1450   20.3070 C   0  0  0  0  0  3  0  0  0  0  0  0
  -23.4540  -10.3390   20.1790 C   0  0  0  0  0  3  0  0  0  0  0  0
  -22.2660   -7.0790   21.3640 O   0  0  0  0  0  0  0  0  0  0  0  0
  -21.9570   -6.4510   22.5440 C   0  0  0  0  0  0  0  0  0  0  0  0
  -21.2460   -7.1080   23.5730 C   0  0  0  0  0  3  0  0  0  0  0  0
  -20.8870   -6.4040   24.7390 C   0  0  0  0  0  3  0  0  0  0  0  0
  -21.2300   -5.0450   24.8770 C   0  0  0  0  0  0  0  0  0  0  0  0
  -21.9330   -4.3880   23.8520 C   0  0  0  0  0  3  0  0  0  0  0  0
  -22.2920   -5.0890   22.6870 C   0  0  0  0  0  0  0  0  0  0  0  0
  -22.9500   -4.4460   21.6940 F   0  0  0  0  0  0  0  0  0  0  0  0
  -20.8790   -4.3670   25.9950 F   0  0  0  0  0  0  0  0  0  0  0  0
  -23.3480  -13.7300   21.2270 C   0  0  0  0  0  0  0  0  0  0  0  0
  -22.5940  -13.0190   22.0580 N   0  0  0  0  0  0  0  0  0  0  0  0
  -22.9250  -14.7630   20.7090 O   0  0  0  0  0  0  0  0  0  0  0  0
  -22.9510  -12.1830   22.4980 H   0  0  0  0  0  0  0  0  0  0  0  0
  -21.6490  -13.3130   22.2550 H   0  0  0  0  0  0  0  0  0  0  0  0
  -26.0000  -15.4140   20.5300 N   0  0  0  0  0  0  0  0  0  0  0  0
  -25.2320  -16.0700   20.6190 H   0  0  0  0  0  0  0  0  0  0  0  0
  -26.8550  -15.8550   20.2170 H   0  0  0  0  0  0  0  0  0  0  0  0
  1  2  1  0
  3  5  2  0
  3  4  1  0
  4  1  2  0
  5  6  1  0
  6 15  1  0
  6  2  2  0
  8  7  1  0
  9  7  1  0
  9  3  1  0
 10 12  1  0
 10  8  1  0
 10 11  1  0
 11  9  1  0
 11 13  1  0
 13  5  1  0
 14 13  1  0
 16 27  2  0
 17 15  1  0
 17 22  1  0
 18 26  1  0
 18 28  1  0
 19 21  1  0
 20 26  1  0
 21 22  2  0
 21 20  1  0
 23 17  2  0
 24 23  1  0
 24 19  2  0
 25 19  1  0
 25 18  1  0
 26 16  1  0
 28 30  2  0
 29 28  1  0
 31 29  1  0
 32 41  2  0
 32 37  1  0
 33 29  1  0
 34 33  1  0
 35 36  1  0
 35 34  1  0
 36 32  1  0
 37 33  1  0
 37 38  2  0
 39 38  1  0
 40 39  2  0
 41 40  1  0
 42 16  1  0
 42 47  1  0
 42 43  1  0
 43 46  1  1
 43 44  1  0
 45 43  1  0
 47 50  1  0
 48 52  1  0
 48 47  1  0
 49 48  2  0
 52 51  1  0
 54 55  1  0
 54 52  1  0
 54 53  1  0
 56 57  1  0
 56  4  1  0
 58 57  2  0
 58 67  1  0
 59 67  1  0
 60 65  1  0
 61 62  1  0
 61 60  1  0
 63 62  1  0
 63 72  1  0
 63 64  1  0
 65 59  1  0
 65 64  1  0
 66 59  2  0
 67 68  1  0
 69 70  2  0
 70 89  1  0
 71 70  1  0
 71 74  1  0
 72 69  1  0
 72 73  1  0
 73 71  2  0
 74 75  1  0
 75 76  2  0
 77 80  1  0
 77 76  1  0
 78 77  2  0
 79 78  1  0
 79 74  2  0
 80 81  1  0
 81 86  2  0
 81 82  1  0
 82 83  2  0
 83 84  1  0
 84 88  1  0
 85 84  2  0
 86 85  1  0
 87 86  1  0
 89 90  1  0
 90 93  1  0
 90 92  1  0
 91 89  2  0
 94 95  1  0
 94 69  1  0
 96 94  1  0
M  ISO  4   6 101  15 101  59 100  67 100
M  END
>  <TORSDO>  (38) 
F 19

>  <SCORE>  (38) 
-11.521

>  <name>  (38) 
37

>  <ligand_id>  (38) 
37

>  <original_smiles>  (38) 
[H]c1c([H])c([H])c2c(c1[H])C([H])([H])C([H])([H])C([H])([H])C2([H])N([H])C(=O)C1([H])N(C(=O)C([H])(N([H])C(=O)C([H])(N([H])C([H])([H])[H])C([H])([H])[H])C(C([H])([H])[H])(C([H])([H])[H])C([H])([H])[H])C([H])([H])c2c([H])c(Oc3c([H])c([H])c(C([H])([H])C([H])([H])C([H])([H])N([H])C(=O)N4C([H])([H])C([H])([H])C([H])([H])C([H])(n5nc(-c6c([H])c([H])c(Oc7c([H])c([H])c(F)c([H])c7F)c([H])c6[H])c(C(=O)N([H])[H])c5N([H])[H])C4([H])[H])c4c3N([H])C3([H])C4([H])C([H])([H])C([H])([H])C3([H])C([H])([H])[H])c([H])c([H])c2C1([H])[H]

>  <smiles>  (38) 
[H]c1c([H])c([H])c2c(c1[H])C([H])([H])C([H])([H])C([H])([H])C2([H])N([H])C(=O)C1([H])N(C(=O)C([H])(N([H])C(=O)C([H])(N([H])C([H])([H])[H])C([H])([H])[H])C(C([H])([H])[H])(C([H])([H])[H])C([H])([H])[H])C([H])([H])c2c([H])c(Oc3c([H])c([H])c(C([H])([H])C([H])([H])C([H])([H])N([H])C(=O)N4C([H])([H])C([H])([H])C([H])([H])C([H])(n5nc(-c6c([H])c([H])c(Oc7c([H])c([H])c(F)c([H])c7F)c([H])c6[H])c(C(=O)N([H])[H])c5N([H])[H])C4([H])[H])c4c3N([H])C3([H])C4([H])C([H])([H])C([H])([H])C3([H])C([H])([H])[H])c([H])c([H])c2C1([H])[H]

$$$$
38:0:0
     RDKit          3D

 88 96  0  0  1  0  0  0  0  0999 V2000
  -26.5590  -21.8060   20.2240 C   0  0  0  0  0  3  0  0  0  0  0  0
  -27.4600  -20.6840   20.1920 C   0  0  0  0  0  3  0  0  0  0  0  0
  -26.8660  -23.2120   20.2150 C   0  0  0  0  0  3  0  0  0  0  0  0
  -28.8740  -20.7720   20.1440 C   0  0  0  0  0  0  0  0  0  0  0  0
  -29.1290  -22.4210   20.1370 C   0  0  0  0  0  0  0  0  0  0  0  0
  -28.1650  -23.7790   20.1650 C   0  0  0  0  0  0  0  0  0  0  0  0
  -30.6010  -22.7750   20.1040 C   0  0  0  0  0  1  0  0  0  0  0  0
  -30.3970  -16.1680   20.0860 C   0  0  0  0  0  0  0  0  0  0  0  0
  -30.5990  -13.5560   19.3080 C   0  0  0  0  0  2  0  0  0  0  0  0
  -29.7190  -12.9910   18.1470 C   0  0  0  0  0  2  0  0  0  0  0  0
  -28.3400  -12.5550   18.6550 C   0  0  0  0  0  2  0  0  0  0  0  0
  -27.7930  -13.5730   19.6770 C   0  0  0  0  0  3  0  0  0  0  0  0
  -28.8240  -14.0290   20.7430 C   0  0  0  0  0  2  0  0  0  0  0  0
  -29.9190  -14.7500   20.0310 N   0  0  0  0  0  0  0  0  0  0  0  0
  -31.6330  -16.0630   19.9240 O   0  0  0  0  0  0  0  0  0  0  0  0
  -29.8300  -19.1910   20.1060 C   0  0  0  0  0  0  0  0  0  0  0  0
  -29.6220  -17.5910   20.1410 N   0  0  0  0  0  0  0  0  0  0  0  0
  -31.0280  -19.4740   20.0230 O   0  0  0  0  0  0  0  0  0  0  0  0
  -28.6330  -17.4130   20.2160 H   0  0  0  0  0  0  0  0  0  0  0  0
  -25.4630  -14.0400   20.5490 C   0  0  0  0  0  0  0  0  0  0  0  0
  -24.4240  -13.2380   20.9240 C   0  0  0  0  0  0  0  0  0  0  0  0
  -24.9050  -11.8950   20.8300 C   0  0  0  0  0  0  0  0  0  0  0  0
  -26.5060  -13.1900   20.2390 N   0  0  0  0  0  0  0  0  0  0  0  0
  -26.1870  -11.8880   20.4720 N   0  0  0  0  0  0  0  0  0  0  0  0
  -24.1910  -10.6210   21.0010 C   0  0  0  0  0  0  0  0  0  0  0  0
  -24.6100   -9.6570   21.9450 C   0  0  0  0  0  3  0  0  0  0  0  0
  -23.8900   -8.4530   22.1080 C   0  0  0  0  0  3  0  0  0  0  0  0
  -22.7370   -8.2040   21.3260 C   0  0  0  0  0  0  0  0  0  0  0  0
  -22.3370   -9.1560   20.3710 C   0  0  0  0  0  3  0  0  0  0  0  0
  -23.0580  -10.3510   20.2070 C   0  0  0  0  0  3  0  0  0  0  0  0
  -21.9910   -7.0520   21.3960 O   0  0  0  0  0  0  0  0  0  0  0  0
  -21.8470   -6.3580   22.5720 C   0  0  0  0  0  0  0  0  0  0  0  0
  -21.2550   -6.9420   23.7130 C   0  0  0  0  0  3  0  0  0  0  0  0
  -21.0630   -6.1730   24.8780 C   0  0  0  0  0  3  0  0  0  0  0  0
  -21.4520   -4.8190   24.9010 C   0  0  0  0  0  0  0  0  0  0  0  0
  -22.0360   -4.2360   23.7640 C   0  0  0  0  0  3  0  0  0  0  0  0
  -22.2290   -5.0010   22.6010 C   0  0  0  0  0  0  0  0  0  0  0  0
  -22.7730   -4.4280   21.5010 F   0  0  0  0  0  0  0  0  0  0  0  0
  -21.2620   -4.0780   26.0170 F   0  0  0  0  0  0  0  0  0  0  0  0
  -23.0330  -13.6940   21.2490 C   0  0  0  0  0  0  0  0  0  0  0  0
  -22.3380  -12.9720   22.1190 N   0  0  0  0  0  0  0  0  0  0  0  0
  -22.5730  -14.7290   20.7670 O   0  0  0  0  0  0  0  0  0  0  0  0
  -22.7250  -12.1350   22.5290 H   0  0  0  0  0  0  0  0  0  0  0  0
  -21.4070  -13.2610   22.3810 H   0  0  0  0  0  0  0  0  0  0  0  0
  -25.6030  -15.4180   20.4080 N   0  0  0  0  0  0  0  0  0  0  0  0
  -24.8290  -16.0550   20.5570 H   0  0  0  0  0  0  0  0  0  0  0  0
  -26.4240  -15.8710   20.0300 H   0  0  0  0  0  0  0  0  0  0  0  0
  -28.2470  -25.4610   20.1740 O   0  0  0  0  0  0  0  0  0  0  0  0
  -24.7410  -31.9290   23.2180 C   0  0  0  0  0  0  0  0  0  0  0  0
  -27.2780  -26.7460   20.1820 C   0  0  0  0  0  0  0  0  0  0  0  0
  -23.5600  -30.5340   21.5780 C   0  0  0  0  0  3  0  0  0  0  0  0
  -25.0130  -28.8780   20.1510 C   0  0  0  0  0  0  0  0  0  0  0  0
  -26.1440  -30.6460   21.4630 C   0  0  0  0  0  2  0  0  0  0  0  0
  -26.2110  -29.1990   20.7970 C   0  0  0  0  0  0  0  0  0  0  0  0
  -27.3160  -28.1660   20.7800 C   0  0  0  0  0  3  0  0  0  0  0  0
  -26.0470  -26.6930   19.4640 C   0  0  0  0  0  3  0  0  0  0  0  0
  -24.9790  -27.6530   19.4600 C   0  0  0  0  0  3  0  0  0  0  0  0
  -23.8070  -29.8410   20.2040 C   0  0  0  0  0  2  0  0  0  0  0  0
  -24.8410  -31.0740   22.1380 N   0  0  0  0  0  0  0  0  0  0  0  0
  -23.6450  -32.2230   23.7300 O   0  0  0  0  0  0  0  0  0  0  0  0
  -22.8420  -29.5560   22.5490 C   0  0  0  0  0  0  0  0  0  0  0  0
  -21.5110  -29.3820   22.4170 N   0  0  0  0  0  0  0  0  0  0  0  0
  -23.4980  -28.9480   23.3980 O   0  0  0  0  0  0  0  0  0  0  0  0
  -21.0270  -29.9250   21.7140 H   0  0  0  0  0  0  0  0  0  0  0  0
  -18.1410  -28.1110   22.9280 C   0  0  0  0  0  0  0  0  0  0  0  0
  -20.6970  -28.4310   23.1860 C   0  0  0  0  0  3  0  0  0  0  0  0
  -20.8240  -27.0010   22.6100 C   0  0  0  0  0  2  0  0  0  0  0  0
  -19.7290  -26.6610   21.5930 C   0  0  0  0  0  2  0  0  0  0  0  0
  -18.3450  -26.7720   22.2390 C   0  0  0  0  0  2  0  0  0  0  0  0
  -19.2440  -28.8970   23.3580 C   0  0  0  0  0  0  0  0  0  0  0  0
  -18.9950  -30.1450   23.9680 C   0  0  0  0  0  3  0  0  0  0  0  0
  -17.6790  -30.6110   24.1490 C   0  0  0  0  0  3  0  0  0  0  0  0
  -16.5920  -29.8240   23.7310 C   0  0  0  0  0  3  0  0  0  0  0  0
  -16.8240  -28.5750   23.1260 C   0  0  0  0  0  3  0  0  0  0  0  0
  -25.9960  -32.5930   23.8630 C   0  0  0  0  0  3  0  0  0  0  0  0
  -25.6620  -33.9920   24.2030 N   0  0  0  0  0  0  0  0  0  0  0  0
  -25.9620  -35.0650   23.4590 C   0  0  0  0  0  0  0  0  0  0  0  0
  -26.6020  -34.9820   22.4080 O   0  0  0  0  0  0  0  0  0  0  0  0
  -25.0850  -34.1280   25.0200 H   0  0  0  0  0  0  0  0  0  0  0  0
  -24.1990  -36.8520   23.2070 C   0  0  0  0  0  1  0  0  0  0  0  0
  -25.4820  -36.4490   23.9530 C   0  0  0  0  0  3  0  0  0  0  0  0
  -27.6340  -37.3700   24.7010 C   0  0  0  0  0  1  0  0  0  0  0  0
  -26.4950  -37.5170   23.8000 N   0  0  0  0  0  0  0  0  0  0  0  0
  -26.0800  -38.4310   23.9600 H   0  0  0  0  0  0  0  0  0  0  0  0
  -26.4930  -31.8400   25.1600 C   0  0  1  0  0  0  0  0  0  0  0  0
  -25.3830  -31.6090   26.2130 C   0  0  0  0  0  1  0  0  0  0  0  0
  -27.0900  -30.4590   24.8090 C   0  0  0  0  0  1  0  0  0  0  0  0
  -27.6270  -32.6470   25.8330 C   0  0  0  0  0  1  0  0  0  0  0  0
  2  1  2  0
  3  1  1  0
  4  2  1  0
  5  4  2  0
  5  6  1  0
  6 48  1  0
  6  3  2  0
  7  5  1  0
  8 17  1  0
  9 14  1  0
 10 11  1  0
 10  9  1  0
 12 11  1  0
 12 23  1  0
 12 13  1  0
 14  8  1  0
 14 13  1  0
 15  8  2  0
 16 17  1  0
 16  4  1  0
 17 19  1  0
 18 16  2  0
 20 21  2  0
 21 40  1  0
 22 21  1  0
 22 25  1  0
 23 24  1  0
 23 20  1  0
 24 22  2  0
 25 26  1  0
 26 27  2  0
 28 31  1  0
 28 27  1  0
 29 28  2  0
 30 29  1  0
 30 25  2  0
 31 32  1  0
 32 37  2  0
 32 33  1  0
 33 34  2  0
 34 35  1  0
 35 39  1  0
 36 35  2  0
 37 36  1  0
 38 37  1  0
 40 41  1  0
 41 44  1  0
 41 43  1  0
 42 40  2  0
 45 20  1  0
 45 46  1  0
 47 45  1  0
 48 50  1  0
 49 60  2  0
 50 55  1  0
 51 59  1  0
 51 61  1  0
 52 58  1  0
 52 54  1  0
 53 59  1  0
 54 53  1  0
 55 54  2  0
 56 50  2  0
 57 56  1  0
 57 52  2  0
 58 51  1  0
 59 49  1  0
 61 63  2  0
 62 61  1  0
 64 62  1  0
 65 74  2  0
 65 70  1  0
 66 62  1  0
 66 70  1  0
 67 66  1  0
 68 69  1  0
 68 67  1  0
 69 65  1  0
 70 71  2  0
 71 72  1  0
 73 72  2  0
 74 73  1  0
 75 49  1  0
 75 76  1  0
 75 85  1  0
 76 79  1  0
 77 81  1  0
 77 76  1  0
 78 77  2  0
 81 80  1  0
 83 81  1  0
 83 84  1  0
 83 82  1  0
 85 88  1  1
 85 86  1  0
 87 85  1  0
M  ISO  4   6 101   8 100  17 100  48 101
M  END
>  <TORSDO>  (39) 
F 16

>  <SCORE>  (39) 
-15.407

>  <name>  (39) 
38

>  <ligand_id>  (39) 
38

>  <original_smiles>  (39) 
[H]c1c([H])c(Oc2c([H])c([H])c3c(c2[H])C([H])([H])N(C(=O)C([H])(N([H])C(=O)C([H])(N([H])C([H])([H])[H])C([H])([H])[H])C(C([H])([H])[H])(C([H])([H])[H])C([H])([H])[H])C([H])(C(=O)N([H])C2([H])c4c([H])c([H])c([H])c([H])c4C([H])([H])C([H])([H])C2([H])[H])C3([H])[H])c(C([H])([H])[H])c(C(=O)N([H])C(=O)N2C([H])([H])C([H])([H])C([H])([H])C([H])(n3nc(-c4c([H])c([H])c(Oc5c([H])c([H])c(F)c([H])c5F)c([H])c4[H])c(C(=O)N([H])[H])c3N([H])[H])C2([H])[H])c1[H]

>  <smiles>  (39) 
[H]c1c([H])c(Oc2c([H])c([H])c3c(c2[H])C([H])([H])N(C(=O)C([H])(N([H])C(=O)C([H])(N([H])C([H])([H])[H])C([H])([H])[H])C(C([H])([H])[H])(C([H])([H])[H])C([H])([H])[H])C([H])(C(=O)N([H])C2([H])c4c([H])c([H])c([H])c([H])c4C([H])([H])C([H])([H])C2([H])[H])C3([H])[H])c(C([H])([H])[H])c(C(=O)N([H])C(=O)N2C([H])([H])C([H])([H])C([H])([H])C([H])(n3nc(-c4c([H])c([H])c(Oc5c([H])c([H])c(F)c([H])c5F)c([H])c4[H])c(C(=O)N([H])[H])c3N([H])[H])C2([H])[H])c1[H]

$$$$
39:0:0
     RDKit          3D

 88 96  0  0  1  0  0  0  0  0999 V2000
  -28.7420  -22.7280   21.3840 C   0  0  0  0  0  3  0  0  0  0  0  0
  -28.9770  -22.7790   19.0330 C   0  0  0  0  0  3  0  0  0  0  0  0
  -28.4080  -24.1420   21.3770 C   0  0  0  0  0  3  0  0  0  0  0  0
  -28.6460  -24.1910   19.0280 C   0  0  0  0  0  3  0  0  0  0  0  0
  -29.0730  -21.9670   20.2140 C   0  0  0  0  0  0  0  0  0  0  0  0
  -28.3680  -24.9620   20.2020 C   0  0  0  0  0  0  0  0  0  0  0  0
  -28.3280  -26.4140   20.2150 O   0  0  0  0  0  0  0  0  0  0  0  0
  -24.6230  -31.9550   23.2640 C   0  0  0  0  0  0  0  0  0  0  0  0
  -27.1950  -27.2790   20.2310 C   0  0  0  0  0  0  0  0  0  0  0  0
  -23.4090  -30.5570   21.6330 C   0  0  0  0  0  3  0  0  0  0  0  0
  -24.8490  -28.9670   20.2160 C   0  0  0  0  0  0  0  0  0  0  0  0
  -25.9540  -30.8330   21.4480 C   0  0  0  0  0  2  0  0  0  0  0  0
  -26.0240  -29.4370   20.8150 C   0  0  0  0  0  0  0  0  0  0  0  0
  -27.1960  -28.6040   20.8090 C   0  0  0  0  0  3  0  0  0  0  0  0
  -25.9930  -26.8810   19.6110 C   0  0  0  0  0  3  0  0  0  0  0  0
  -24.8400  -27.7010   19.6050 C   0  0  0  0  0  3  0  0  0  0  0  0
  -23.6210  -29.8640   20.2590 C   0  0  0  0  0  2  0  0  0  0  0  0
  -24.6820  -31.1360   22.1720 N   0  0  0  0  0  0  0  0  0  0  0  0
  -23.5400  -32.2460   23.7940 O   0  0  0  0  0  0  0  0  0  0  0  0
  -22.7300  -29.5570   22.6010 C   0  0  0  0  0  0  0  0  0  0  0  0
  -21.4030  -29.3860   22.4680 N   0  0  0  0  0  0  0  0  0  0  0  0
  -23.4000  -28.9370   23.4320 O   0  0  0  0  0  0  0  0  0  0  0  0
  -20.9270  -29.9350   21.7660 H   0  0  0  0  0  0  0  0  0  0  0  0
  -18.0160  -28.2060   22.9680 C   0  0  0  0  0  0  0  0  0  0  0  0
  -20.5750  -28.4570   23.2400 C   0  0  0  0  0  3  0  0  0  0  0  0
  -20.6720  -27.0240   22.6670 C   0  0  0  0  0  2  0  0  0  0  0  0
  -19.5700  -26.7030   21.6510 C   0  0  0  0  0  2  0  0  0  0  0  0
  -18.1880  -26.8540   22.2930 C   0  0  0  0  0  2  0  0  0  0  0  0
  -19.1380  -28.9640   23.3980 C   0  0  0  0  0  0  0  0  0  0  0  0
  -18.9240  -30.2290   23.9880 C   0  0  0  0  0  3  0  0  0  0  0  0
  -17.6220  -30.7360   24.1510 C   0  0  0  0  0  3  0  0  0  0  0  0
  -16.5140  -29.9770   23.7360 C   0  0  0  0  0  3  0  0  0  0  0  0
  -16.7130  -28.7120   23.1520 C   0  0  0  0  0  3  0  0  0  0  0  0
  -25.9070  -32.5820   23.8900 C   0  0  0  0  0  3  0  0  0  0  0  0
  -26.4170  -31.8040   25.1660 C   0  0  1  0  0  0  0  0  0  0  0  0
  -25.3200  -31.5690   26.2300 C   0  0  0  0  0  1  0  0  0  0  0  0
  -26.9910  -30.4250   24.7710 C   0  0  0  0  0  1  0  0  0  0  0  0
  -27.5740  -32.5850   25.8320 C   0  0  0  0  0  1  0  0  0  0  0  0
  -25.6030  -33.9810   24.2290 N   0  0  0  0  0  0  0  0  0  0  0  0
  -25.9090  -35.0350   23.4590 C   0  0  0  0  0  0  0  0  0  0  0  0
  -26.5500  -34.9320   22.4100 O   0  0  0  0  0  0  0  0  0  0  0  0
  -25.0320  -34.1340   25.0470 H   0  0  0  0  0  0  0  0  0  0  0  0
  -24.1600  -36.8200   23.1670 C   0  0  0  0  0  1  0  0  0  0  0  0
  -25.4350  -36.4260   23.9300 C   0  0  0  0  0  3  0  0  0  0  0  0
  -27.5950  -37.3230   24.6750 C   0  0  0  0  0  1  0  0  0  0  0  0
  -26.4590  -37.4810   23.7720 N   0  0  0  0  0  0  0  0  0  0  0  0
  -26.0570  -38.4010   23.9300 H   0  0  0  0  0  0  0  0  0  0  0  0
  -29.8110  -20.5030   20.2370 C   0  0  0  0  0  2  0  0  0  0  0  0
  -29.1890  -18.9630   20.3280 C   0  0  0  0  0  3  0  0  0  0  0  0
  -30.2090  -17.6380   20.3880 C   0  0  0  0  0  3  0  0  0  0  0  0
  -30.5280  -14.9550   20.3160 C   0  0  0  0  0  0  0  0  0  0  0  0
  -30.3670  -12.6280   19.3630 C   0  0  0  0  0  2  0  0  0  0  0  0
  -29.4270  -12.6260   18.1370 C   0  0  0  0  0  2  0  0  0  0  0  0
  -27.9660  -12.4220   18.5790 C   0  0  0  0  0  2  0  0  0  0  0  0
  -27.5740  -13.3310   19.7760 C   0  0  0  0  0  3  0  0  0  0  0  0
  -28.6400  -13.3200   20.8910 C   0  0  0  0  0  2  0  0  0  0  0  0
  -29.9120  -13.7120   20.2730 N   0  0  0  0  0  0  0  0  0  0  0  0
  -31.7220  -15.0240   20.0040 O   0  0  0  0  0  0  0  0  0  0  0  0
  -29.7760  -16.1360   20.4970 N   0  0  0  0  0  0  0  0  0  0  0  0
  -28.8070  -15.9810   20.7320 H   0  0  0  0  0  0  0  0  0  0  0  0
  -25.1990  -13.9000   20.5510 C   0  0  0  0  0  0  0  0  0  0  0  0
  -24.1400  -13.1170   20.9220 C   0  0  0  0  0  0  0  0  0  0  0  0
  -24.6050  -11.7670   20.8670 C   0  0  0  0  0  0  0  0  0  0  0  0
  -26.2400  -13.0260   20.2840 N   0  0  0  0  0  0  0  0  0  0  0  0
  -25.8920  -11.7370   20.5390 N   0  0  0  0  0  0  0  0  0  0  0  0
  -23.8810  -10.5020   21.0460 C   0  0  0  0  0  0  0  0  0  0  0  0
  -24.3040   -9.5360   21.9850 C   0  0  0  0  0  3  0  0  0  0  0  0
  -23.5790   -8.3360   22.1540 C   0  0  0  0  0  3  0  0  0  0  0  0
  -22.4160   -8.0960   21.3850 C   0  0  0  0  0  0  0  0  0  0  0  0
  -22.0110   -9.0510   20.4370 C   0  0  0  0  0  3  0  0  0  0  0  0
  -22.7370  -10.2410   20.2660 C   0  0  0  0  0  3  0  0  0  0  0  0
  -21.6650   -6.9470   21.4620 O   0  0  0  0  0  0  0  0  0  0  0  0
  -21.5800   -6.2210   22.6220 C   0  0  0  0  0  0  0  0  0  0  0  0
  -21.0760   -6.7800   23.8180 C   0  0  0  0  0  3  0  0  0  0  0  0
  -20.9400   -5.9770   24.9680 C   0  0  0  0  0  3  0  0  0  0  0  0
  -21.2960   -4.6160   24.9240 C   0  0  0  0  0  0  0  0  0  0  0  0
  -21.7930   -4.0550   23.7340 C   0  0  0  0  0  3  0  0  0  0  0  0
  -21.9300   -4.8550   22.5850 C   0  0  0  0  0  0  0  0  0  0  0  0
  -22.3890   -4.3050   21.4360 F   0  0  0  0  0  0  0  0  0  0  0  0
  -21.1590   -3.8430   26.0260 F   0  0  0  0  0  0  0  0  0  0  0  0
  -22.7450  -13.5910   21.2120 C   0  0  0  0  0  0  0  0  0  0  0  0
  -22.0250  -12.8850   22.0760 N   0  0  0  0  0  0  0  0  0  0  0  0
  -22.3040  -14.6220   20.7100 O   0  0  0  0  0  0  0  0  0  0  0  0
  -22.3970  -12.0500   22.5060 H   0  0  0  0  0  0  0  0  0  0  0  0
  -21.0900  -13.1840   22.3090 H   0  0  0  0  0  0  0  0  0  0  0  0
  -25.3560  -15.2730   20.3940 N   0  0  0  0  0  0  0  0  0  0  0  0
  -24.5780  -15.9120   20.5190 H   0  0  0  0  0  0  0  0  0  0  0  0
  -26.1850  -15.7270   20.0300 H   0  0  0  0  0  0  0  0  0  0  0  0
  2  5  1  0
  3  1  1  0
  4  2  2  0
  4  6  1  0
  5 48  1  0
  5  1  2  0
  6  7  1  0
  6  3  2  0
  7  9  1  0
  8 19  2  0
  9 14  1  0
 10 18  1  0
 10 20  1  0
 11 17  1  0
 11 13  1  0
 12 18  1  0
 13 12  1  0
 14 13  2  0
 15  9  2  0
 16 15  1  0
 16 11  2  0
 17 10  1  0
 18  8  1  0
 20 22  2  0
 21 20  1  0
 23 21  1  0
 24 33  2  0
 24 29  1  0
 25 21  1  0
 25 29  1  0
 26 25  1  0
 27 28  1  0
 27 26  1  0
 28 24  1  0
 29 30  2  0
 30 31  1  0
 32 31  2  0
 33 32  1  0
 34  8  1  0
 34 39  1  0
 34 35  1  0
 35 38  1  1
 35 36  1  0
 37 35  1  0
 39 42  1  0
 40 44  1  0
 40 39  1  0
 41 40  2  0
 44 43  1  0
 46 47  1  0
 46 44  1  0
 46 45  1  0
 48 49  1  0
 49 50  2  0
 50 59  1  0
 51 59  1  0
 52 57  1  0
 53 54  1  0
 53 52  1  0
 55 54  1  0
 55 64  1  0
 55 56  1  0
 57 51  1  0
 57 56  1  0
 58 51  2  0
 59 60  1  0
 61 62  2  0
 62 81  1  0
 63 62  1  0
 63 66  1  0
 64 65  1  0
 64 61  1  0
 65 63  2  0
 66 67  1  0
 67 68  2  0
 69 72  1  0
 69 68  1  0
 70 69  2  0
 71 70  1  0
 71 66  2  0
 72 73  1  0
 73 74  1  0
 74 75  2  0
 76 75  1  0
 76 80  1  0
 77 76  2  0
 78 73  2  0
 78 77  1  0
 79 78  1  0
 81 82  1  0
 82 85  1  0
 82 84  1  0
 83 81  2  0
 86 87  1  0
 86 61  1  0
 88 86  1  0
M  ISO  4   6 101   7 101  51 100  59 100
M  END
>  <TORSDO>  (40) 
F 19

>  <SCORE>  (40) 
-14.059

>  <name>  (40) 
39

>  <ligand_id>  (40) 
39

>  <original_smiles>  (40) 
[H]c1c([H])c([H])c2c(c1[H])C([H])([H])C([H])([H])C([H])([H])C2([H])N([H])C(=O)C1([H])N(C(=O)C([H])(N([H])C(=O)C([H])(N([H])C([H])([H])[H])C([H])([H])[H])C(C([H])([H])[H])(C([H])([H])[H])C([H])([H])[H])C([H])([H])c2c([H])c(Oc3c([H])c([H])c(C([H])([H])C([H])([H])C([H])([H])N([H])C(=O)N4C([H])([H])C([H])([H])C([H])([H])C([H])(n5nc(-c6c([H])c([H])c(Oc7c([H])c([H])c(F)c([H])c7F)c([H])c6[H])c(C(=O)N([H])[H])c5N([H])[H])C4([H])[H])c([H])c3[H])c([H])c([H])c2C1([H])[H]

>  <smiles>  (40) 
[H]c1c([H])c([H])c2c(c1[H])C([H])([H])C([H])([H])C([H])([H])C2([H])N([H])C(=O)C1([H])N(C(=O)C([H])(N([H])C(=O)C([H])(N([H])C([H])([H])[H])C([H])([H])[H])C(C([H])([H])[H])(C([H])([H])[H])C([H])([H])[H])C([H])([H])c2c([H])c(Oc3c([H])c([H])c(C([H])([H])C([H])([H])C([H])([H])N([H])C(=O)N4C([H])([H])C([H])([H])C([H])([H])C([H])(n5nc(-c6c([H])c([H])c(Oc7c([H])c([H])c(F)c([H])c7F)c([H])c6[H])c(C(=O)N([H])[H])c5N([H])[H])C4([H])[H])c([H])c3[H])c([H])c([H])c2C1([H])[H]

$$$$
40:0:0
     RDKit          3D

 94103  0  0  1  0  0  0  0  0999 V2000
  -29.1380  -23.8390   17.7730 C   0  0  0  0  0  3  0  0  0  0  0  0
  -29.0340  -22.7100   18.6080 C   0  0  0  0  0  3  0  0  0  0  0  0
  -28.9110  -25.1330   18.2880 C   0  0  0  0  0  3  0  0  0  0  0  0
  -28.4560  -24.1680   20.4760 C   0  0  0  0  0  3  0  0  0  0  0  0
  -28.6860  -22.8550   19.9650 C   0  0  0  0  0  0  0  0  0  0  0  0
  -28.5710  -25.3180   19.6450 C   0  0  0  0  0  0  0  0  0  0  0  0
  -28.4520  -26.6120   20.1410 O   0  0  0  0  0  0  0  0  0  0  0  0
  -24.5430  -31.7710   23.1610 C   0  0  0  0  0  0  0  0  0  0  0  0
  -27.2610  -27.3200   20.1140 C   0  0  0  0  0  0  0  0  0  0  0  0
  -23.3660  -30.3510   21.5130 C   0  0  0  0  0  3  0  0  0  0  0  0
  -24.8480  -28.8180   20.1060 C   0  0  0  0  0  0  0  0  0  0  0  0
  -25.8890  -30.7300   21.3320 C   0  0  0  0  0  2  0  0  0  0  0  0
  -25.9950  -29.3510   20.7040 C   0  0  0  0  0  0  0  0  0  0  0  0
  -27.2010  -28.6090   20.7070 C   0  0  0  0  0  3  0  0  0  0  0  0
  -26.0910  -26.8060   19.5120 C   0  0  0  0  0  3  0  0  0  0  0  0
  -24.8900  -27.5450   19.5090 C   0  0  0  0  0  3  0  0  0  0  0  0
  -23.5970  -29.6680   20.1370 C   0  0  0  0  0  2  0  0  0  0  0  0
  -24.6190  -30.9660   22.0620 N   0  0  0  0  0  0  0  0  0  0  0  0
  -23.4530  -32.0320   23.6900 O   0  0  0  0  0  0  0  0  0  0  0  0
  -22.7170  -29.3270   22.4710 C   0  0  0  0  0  0  0  0  0  0  0  0
  -21.3920  -29.1480   22.3500 N   0  0  0  0  0  0  0  0  0  0  0  0
  -23.4030  -28.6960   23.2810 O   0  0  0  0  0  0  0  0  0  0  0  0
  -20.8970  -29.7130   21.6720 H   0  0  0  0  0  0  0  0  0  0  0  0
  -18.0170  -27.9550   22.8570 C   0  0  0  0  0  0  0  0  0  0  0  0
  -20.5780  -28.2050   23.1180 C   0  0  0  0  0  3  0  0  0  0  0  0
  -20.6720  -26.7770   22.5310 C   0  0  0  0  0  2  0  0  0  0  0  0
  -19.5650  -26.4650   21.5190 C   0  0  0  0  0  2  0  0  0  0  0  0
  -18.1870  -26.6090   22.1710 C   0  0  0  0  0  2  0  0  0  0  0  0
  -19.1400  -28.7110   23.2870 C   0  0  0  0  0  0  0  0  0  0  0  0
  -18.9290  -29.9700   23.8880 C   0  0  0  0  0  3  0  0  0  0  0  0
  -17.6260  -30.4750   24.0630 C   0  0  0  0  0  3  0  0  0  0  0  0
  -16.5180  -29.7170   23.6500 C   0  0  0  0  0  3  0  0  0  0  0  0
  -16.7140  -28.4580   23.0520 C   0  0  0  0  0  3  0  0  0  0  0  0
  -25.8150  -32.4190   23.7910 C   0  0  0  0  0  3  0  0  0  0  0  0
  -25.4820  -33.8090   24.1310 N   0  0  0  0  0  0  0  0  0  0  0  0
  -25.7900  -34.8720   23.3740 C   0  0  0  0  0  0  0  0  0  0  0  0
  -26.4560  -34.7860   22.3400 O   0  0  0  0  0  0  0  0  0  0  0  0
  -24.8910  -33.9490   24.9360 H   0  0  0  0  0  0  0  0  0  0  0  0
  -24.0190  -36.6280   23.0450 C   0  0  0  0  0  1  0  0  0  0  0  0
  -25.2790  -36.2490   23.8410 C   0  0  0  0  0  3  0  0  0  0  0  0
  -27.4050  -37.1770   24.6460 C   0  0  0  0  0  1  0  0  0  0  0  0
  -26.2880  -37.3240   23.7170 N   0  0  0  0  0  0  0  0  0  0  0  0
  -25.8640  -38.2350   23.8710 H   0  0  0  0  0  0  0  0  0  0  0  0
  -26.3430  -31.6460   25.0610 C   0  0  1  0  0  0  0  0  0  0  0  0
  -25.2560  -31.3810   26.1270 C   0  0  0  0  0  1  0  0  0  0  0  0
  -26.9480  -30.2820   24.6520 C   0  0  0  0  0  1  0  0  0  0  0  0
  -27.4810  -32.4530   25.7310 C   0  0  0  0  0  1  0  0  0  0  0  0
  -28.4930  -21.5980   20.8340 C   0  0  0  0  0  2  0  0  0  0  0  0
  -29.1700  -19.2340   20.2020 C   0  0  0  0  0  0  0  0  0  0  0  0
  -29.4490  -20.4830   20.6450 N   0  0  0  0  0  0  0  0  0  0  0  0
  -28.1130  -18.9900   19.6170 O   0  0  0  0  0  0  0  0  0  0  0  0
  -30.3500  -20.6020   21.0870 H   0  0  0  0  0  0  0  0  0  0  0  0
  -30.8290  -14.4750   19.7930 C   0  0  0  0  0  0  0  0  0  0  0  0
  -30.4140  -12.3350   18.6170 C   0  0  0  0  0  2  0  0  0  0  0  0
  -29.3530  -12.5830   17.5220 C   0  0  0  0  0  2  0  0  0  0  0  0
  -27.9240  -12.4580   18.0920 C   0  0  0  0  0  2  0  0  0  0  0  0
  -27.7410  -13.2370   19.4230 C   0  0  0  0  0  3  0  0  0  0  0  0
  -28.9010  -12.9250   20.3900 C   0  0  0  0  0  2  0  0  0  0  0  0
  -30.1510  -13.2900   19.7080 N   0  0  0  0  0  0  0  0  0  0  0  0
  -31.9160  -14.6260   19.2210 O   0  0  0  0  0  0  0  0  0  0  0  0
  -29.6800  -17.3530   21.8150 C   0  0  0  0  0  2  0  0  0  0  0  0
  -29.8220  -15.8370   21.6180 C   0  0  0  0  0  2  0  0  0  0  0  0
  -30.1570  -16.8820   19.5020 C   0  0  0  0  0  2  0  0  0  0  0  0
  -30.1630  -18.0600   20.5370 C   0  0  1  0  0  0  0  0  0  0  0  0
  -31.6140  -18.5730   20.7280 C   0  0  0  0  0  1  0  0  0  0  0  0
  -30.1130  -15.5710   20.2050 N   0  0  0  0  0  0  0  0  0  0  0  0
  -25.4610  -13.8730   20.4290 C   0  0  0  0  0  0  0  0  0  0  0  0
  -24.4130  -13.1130   20.8720 C   0  0  0  0  0  0  0  0  0  0  0  0
  -24.8180  -11.7520   20.7210 C   0  0  0  0  0  0  0  0  0  0  0  0
  -26.4400  -12.9740   20.0330 N   0  0  0  0  0  0  0  0  0  0  0  0
  -26.0640  -11.6910   20.2660 N   0  0  0  0  0  0  0  0  0  0  0  0
  -24.0740  -10.5020   20.9320 C   0  0  0  0  0  0  0  0  0  0  0  0
  -24.5480   -9.5020   21.8090 C   0  0  0  0  0  3  0  0  0  0  0  0
  -23.8080   -8.3160   22.0090 C   0  0  0  0  0  3  0  0  0  0  0  0
  -22.5800   -8.1240   21.3320 C   0  0  0  0  0  0  0  0  0  0  0  0
  -22.1240   -9.1130   20.4430 C   0  0  0  0  0  3  0  0  0  0  0  0
  -22.8650  -10.2900   20.2410 C   0  0  0  0  0  3  0  0  0  0  0  0
  -21.8090   -6.9930   21.4430 O   0  0  0  0  0  0  0  0  0  0  0  0
  -21.7790   -6.2490   22.5960 C   0  0  0  0  0  0  0  0  0  0  0  0
  -21.4110   -6.8140   23.8360 C   0  0  0  0  0  3  0  0  0  0  0  0
  -21.3250   -6.0000   24.9840 C   0  0  0  0  0  3  0  0  0  0  0  0
  -21.5990   -4.6210   24.8920 C   0  0  0  0  0  0  0  0  0  0  0  0
  -21.9610   -4.0570   23.6550 C   0  0  0  0  0  3  0  0  0  0  0  0
  -22.0490   -4.8680   22.5110 C   0  0  0  0  0  0  0  0  0  0  0  0
  -22.3780   -4.3140   21.3190 F   0  0  0  0  0  0  0  0  0  0  0  0
  -21.5080   -3.8380   25.9920 F   0  0  0  0  0  0  0  0  0  0  0  0
  -23.0700  -13.6190   21.3200 C   0  0  0  0  0  0  0  0  0  0  0  0
  -22.4270  -12.9140   22.2450 N   0  0  0  0  0  0  0  0  0  0  0  0
  -22.6040  -14.6700   20.8850 O   0  0  0  0  0  0  0  0  0  0  0  0
  -22.8200  -12.0670   22.6240 H   0  0  0  0  0  0  0  0  0  0  0  0
  -21.5290  -13.2330   22.5800 H   0  0  0  0  0  0  0  0  0  0  0  0
  -25.6570  -15.2450   20.3090 N   0  0  0  0  0  0  0  0  0  0  0  0
  -24.9440  -15.9220   20.5580 H   0  0  0  0  0  0  0  0  0  0  0  0
  -26.5060  -15.6710   19.9550 H   0  0  0  0  0  0  0  0  0  0  0  0
  1  3  2  0
  1  2  1  0
  2  5  2  0
  3  6  1  0
  5  4  1  0
  5 48  1  0
  6  7  1  0
  6  4  2  0
  8 19  2  0
  9  7  1  0
  9 14  1  0
 10 18  1  0
 10 20  1  0
 11 17  1  0
 11 13  1  0
 12 18  1  0
 13 14  2  0
 13 12  1  0
 15  9  2  0
 16 15  1  0
 16 11  2  0
 17 10  1  0
 18  8  1  0
 20 22  2  0
 21 20  1  0
 23 21  1  0
 24 33  2  0
 24 29  1  0
 25 21  1  0
 25 29  1  0
 26 25  1  0
 27 28  1  0
 27 26  1  0
 28 24  1  0
 29 30  2  0
 30 31  1  0
 32 31  2  0
 33 32  1  0
 34  8  1  0
 34 35  1  0
 34 44  1  0
 35 38  1  0
 36 40  1  0
 36 35  1  0
 37 36  2  0
 40 39  1  0
 42 40  1  0
 42 43  1  0
 42 41  1  0
 44 47  1  1
 44 45  1  0
 46 44  1  0
 49 64  1  0
 49 50  1  0
 50 48  1  0
 50 52  1  0
 51 49  2  0
 53 66  1  0
 54 59  1  0
 55 56  1  0
 55 54  1  0
 57 56  1  0
 57 70  1  0
 57 58  1  0
 59 53  1  0
 59 58  1  0
 60 53  2  0
 62 61  1  0
 63 66  1  0
 63 64  1  0
 64 65  1  1
 64 61  1  0
 66 62  1  0
 67 68  2  0
 68 87  1  0
 69 68  1  0
 69 72  1  0
 70 71  1  0
 70 67  1  0
 71 69  2  0
 72 73  1  0
 73 74  2  0
 75 78  1  0
 75 74  1  0
 76 75  2  0
 77 76  1  0
 77 72  2  0
 78 79  1  0
 79 80  1  0
 80 81  2  0
 82 81  1  0
 82 86  1  0
 83 82  2  0
 84 79  2  0
 84 83  1  0
 85 84  1  0
 87 88  1  0
 88 91  1  0
 88 90  1  0
 89 87  2  0
 92 67  1  0
 92 93  1  0
 94 92  1  0
M  ISO  4   6 101   7 101  53 100  66 100
M  END
>  <TORSDO>  (41) 
F 18

>  <SCORE>  (41) 
-14.025

>  <name>  (41) 
40

>  <ligand_id>  (41) 
40

>  <original_smiles>  (41) 
[H]c1c([H])c(Oc2c([H])c([H])c3c(c2[H])C([H])([H])N(C(=O)C([H])(N([H])C(=O)C([H])(N([H])C([H])([H])[H])C([H])([H])[H])C(C([H])([H])[H])(C([H])([H])[H])C([H])([H])[H])C([H])(C(=O)N([H])C2([H])c4c([H])c([H])c([H])c([H])c4C([H])([H])C([H])([H])C2([H])[H])C3([H])[H])c([H])c(C([H])([H])N([H])C(=O)C2(C([H])([H])[H])C([H])([H])N(C(=O)N3C([H])([H])C([H])([H])C([H])([H])C([H])(n4nc(-c5c([H])c([H])c(Oc6c([H])c([H])c(F)c([H])c6F)c([H])c5[H])c(C(=O)N([H])[H])c4N([H])[H])C3([H])[H])C([H])([H])C2([H])[H])c1[H]

>  <smiles>  (41) 
[H]c1c([H])c(Oc2c([H])c([H])c3c(c2[H])C([H])([H])N(C(=O)C([H])(N([H])C(=O)C([H])(N([H])C([H])([H])[H])C([H])([H])[H])C(C([H])([H])[H])(C([H])([H])[H])C([H])([H])[H])C([H])(C(=O)N([H])C2([H])c4c([H])c([H])c([H])c([H])c4C([H])([H])C([H])([H])C2([H])[H])C3([H])[H])c([H])c(C([H])([H])N([H])C(=O)C2(C([H])([H])[H])C([H])([H])N(C(=O)N3C([H])([H])C([H])([H])C([H])([H])C([H])(n4nc(-c5c([H])c([H])c(Oc6c([H])c([H])c(F)c([H])c6F)c([H])c5[H])c(C(=O)N([H])[H])c4N([H])[H])C3([H])[H])C([H])([H])C2([H])[H])c1[H]

$$$$
41:0:0
     RDKit          3D

 86 93  0  0  1  0  0  0  0  0999 V2000
  -27.7380  -20.5330   18.9210 C   0  0  0  0  0  3  0  0  0  0  0  0
  -27.7100  -22.1730   19.0840 C   0  0  0  0  0  3  0  0  0  0  0  0
  -28.3370  -19.1870   19.1210 C   0  0  0  0  0  3  0  0  0  0  0  0
  -28.5020  -23.2080   19.6710 C   0  0  0  0  0  0  0  0  0  0  0  0
  -29.7140  -21.9850   20.2170 C   0  0  0  0  0  2  0  0  0  0  0  0
  -30.2570  -20.1510   19.8290 C   0  0  0  0  0  2  0  0  0  0  0  0
  -29.6360  -18.3590   19.8230 C   0  0  0  0  0  3  0  0  0  0  0  0
  -30.3960  -16.4070   19.5430 C   0  0  0  0  0  2  0  0  0  0  0  0
  -30.6600  -13.6990   18.7720 C   0  0  0  0  0  2  0  0  0  0  0  0
  -29.7300  -13.0020   17.7080 C   0  0  0  0  0  2  0  0  0  0  0  0
  -28.4290  -12.4890   18.3340 C   0  0  0  0  0  2  0  0  0  0  0  0
  -27.9150  -13.5190   19.3550 C   0  0  0  0  0  3  0  0  0  0  0  0
  -28.9990  -14.0900   20.3210 C   0  0  0  0  0  2  0  0  0  0  0  0
  -29.9990  -14.9110   19.5430 N   0  0  0  0  0  0  0  0  0  0  0  0
  -31.6080  -16.2440   19.2300 O   0  0  0  0  0  1  0  0  0  0  0  0
  -25.7280  -13.9670   20.5380 C   0  0  0  0  0  0  0  0  0  0  0  0
  -24.7060  -13.1720   20.9670 C   0  0  0  0  0  0  0  0  0  0  0  0
  -25.1080  -11.8270   20.7040 C   0  0  0  0  0  0  0  0  0  0  0  0
  -26.6880  -13.1150   20.0340 N   0  0  0  0  0  0  0  0  0  0  0  0
  -26.3410  -11.8070   20.1930 N   0  0  0  0  0  0  0  0  0  0  0  0
  -24.3560  -10.5700   20.8570 C   0  0  0  0  0  0  0  0  0  0  0  0
  -24.7900   -9.5430   21.7230 C   0  0  0  0  0  3  0  0  0  0  0  0
  -24.0330   -8.3600   21.8740 C   0  0  0  0  0  3  0  0  0  0  0  0
  -22.8240   -8.1950   21.1590 C   0  0  0  0  0  0  0  0  0  0  0  0
  -22.4050   -9.2100   20.2820 C   0  0  0  0  0  3  0  0  0  0  0  0
  -23.1630  -10.3840   20.1280 C   0  0  0  0  0  3  0  0  0  0  0  0
  -22.0380   -7.0690   21.2220 O   0  0  0  0  0  0  0  0  0  0  0  0
  -21.8920   -6.3540   22.3820 C   0  0  0  0  0  0  0  0  0  0  0  0
  -21.3830   -6.9410   23.5610 C   0  0  0  0  0  3  0  0  0  0  0  0
  -21.1870   -6.1530   24.7130 C   0  0  0  0  0  3  0  0  0  0  0  0
  -21.4870   -4.7800   24.6870 C   0  0  0  0  0  0  0  0  0  0  0  0
  -21.9870   -4.1900   23.5120 C   0  0  0  0  0  3  0  0  0  0  0  0
  -22.1850   -4.9740   22.3630 C   0  0  0  0  0  0  0  0  0  0  0  0
  -22.6480   -4.3970   21.2270 F   0  0  0  0  0  0  0  0  0  0  0  0
  -21.2900   -4.0200   25.7890 F   0  0  0  0  0  0  0  0  0  0  0  0
  -23.3830  -13.6530   21.4860 C   0  0  0  0  0  0  0  0  0  0  0  0
  -22.7640  -12.8970   22.3840 N   0  0  0  0  0  0  0  0  0  0  0  0
  -22.9160  -14.7350   21.1310 O   0  0  0  0  0  0  0  0  0  0  0  0
  -23.1630  -12.0240   22.6970 H   0  0  0  0  0  0  0  0  0  0  0  0
  -21.8780  -13.1960   22.7690 H   0  0  0  0  0  0  0  0  0  0  0  0
  -25.9060  -15.3470   20.4920 N   0  0  0  0  0  0  0  0  0  0  0  0
  -25.1770  -15.9810   20.7940 H   0  0  0  0  0  0  0  0  0  0  0  0
  -26.6450  -15.8080   19.9770 H   0  0  0  0  0  0  0  0  0  0  0  0
  -29.1060  -18.1040   21.2380 C   0  0  0  0  0  3  0  0  0  0  0  0
  -29.4970  -18.7540   22.2140 O   0  0  0  0  0  0  0  0  0  0  0  0
  -28.4110  -24.9900   19.7080 O   0  0  0  0  0  0  0  0  0  0  0  0
  -24.9070  -31.6660   22.8970 C   0  0  0  0  0  0  0  0  0  0  0  0
  -27.4440  -26.3660   19.7240 C   0  0  0  0  0  0  0  0  0  0  0  0
  -23.7340  -30.2960   21.2320 C   0  0  0  0  0  3  0  0  0  0  0  0
  -25.1860  -28.6310   19.7690 C   0  0  0  0  0  0  0  0  0  0  0  0
  -26.3260  -30.3530   21.1300 C   0  0  0  0  0  2  0  0  0  0  0  0
  -26.3910  -28.9000   20.4240 C   0  0  0  0  0  0  0  0  0  0  0  0
  -27.4780  -27.8080   20.3630 C   0  0  0  0  0  3  0  0  0  0  0  0
  -26.1980  -26.4230   19.0090 C   0  0  0  0  0  3  0  0  0  0  0  0
  -25.1520  -27.4250   19.0340 C   0  0  0  0  0  3  0  0  0  0  0  0
  -23.9860  -29.6160   19.8480 C   0  0  0  0  0  2  0  0  0  0  0  0
  -25.0190  -30.8140   21.8070 N   0  0  0  0  0  0  0  0  0  0  0  0
  -23.8090  -31.9510   23.4100 O   0  0  0  0  0  0  0  0  0  0  0  0
  -23.0040  -29.3150   22.1930 C   0  0  0  0  0  0  0  0  0  0  0  0
  -21.6650  -29.1820   22.0960 N   0  0  0  0  0  0  0  0  0  0  0  0
  -23.6630  -28.6670   23.0070 O   0  0  0  0  0  0  0  0  0  0  0  0
  -21.1750  -29.7600   21.4270 H   0  0  0  0  0  0  0  0  0  0  0  0
  -18.2790  -27.9650   22.6800 C   0  0  0  0  0  0  0  0  0  0  0  0
  -20.8500  -28.2170   22.8520 C   0  0  0  0  0  3  0  0  0  0  0  0
  -20.9170  -26.8110   22.2070 C   0  0  0  0  0  2  0  0  0  0  0  0
  -19.7780  -26.5460   21.2180 C   0  0  0  0  0  2  0  0  0  0  0  0
  -18.4220  -26.6580   21.9210 C   0  0  0  0  0  2  0  0  0  0  0  0
  -19.4160  -28.7060   23.1020 C   0  0  0  0  0  0  0  0  0  0  0  0
  -19.2190  -29.9250   23.7850 C   0  0  0  0  0  3  0  0  0  0  0  0
  -17.9210  -30.4090   24.0400 C   0  0  0  0  0  3  0  0  0  0  0  0
  -16.8000  -29.6680   23.6270 C   0  0  0  0  0  3  0  0  0  0  0  0
  -16.9810  -28.4460   22.9550 C   0  0  0  0  0  3  0  0  0  0  0  0
  -26.1520  -32.3340   23.5620 C   0  0  0  0  0  3  0  0  0  0  0  0
  -25.7800  -33.6940   24.0160 N   0  0  0  0  0  0  0  0  0  0  0  0
  -26.0250  -34.8340   23.3530 C   0  0  0  0  0  0  0  0  0  0  0  0
  -26.6320  -34.8540   22.2810 O   0  0  0  0  0  0  0  0  0  0  0  0
  -25.2260  -33.7450   24.8580 H   0  0  0  0  0  0  0  0  0  0  0  0
  -24.2050  -36.5800   23.3040 C   0  0  0  0  0  1  0  0  0  0  0  0
  -25.5260  -36.1620   23.9690 C   0  0  0  0  0  3  0  0  0  0  0  0
  -27.6680  -37.1060   24.7140 C   0  0  0  0  0  1  0  0  0  0  0  0
  -26.5040  -37.2650   23.8480 N   0  0  0  0  0  0  0  0  0  0  0  0
  -26.0720  -38.1620   24.0510 H   0  0  0  0  0  0  0  0  0  0  0  0
  -26.7070  -31.5130   24.7930 C   0  0  1  0  0  0  0  0  0  0  0  0
  -25.6390  -31.1930   25.8670 C   0  0  0  0  0  1  0  0  0  0  0  0
  -27.3190  -30.1720   24.3410 C   0  0  0  0  0  1  0  0  0  0  0  0
  -27.8480  -32.3020   25.4790 C   0  0  0  0  0  1  0  0  0  0  0  0
  1  2  1  0
  1  3  2  0
  2  4  2  0
  3  7  1  0
  4 46  1  0
  4  5  1  0
  6  5  1  0
  7  6  1  0
  7 44  1  0
  8 14  1  0
  9 14  1  0
 10 11  1  0
 10  9  1  0
 12 11  1  0
 12 19  1  0
 12 13  1  0
 14 13  1  0
 15  8  1  0
 16 17  2  0
 17 36  1  0
 18 21  1  0
 18 17  1  0
 19 20  1  0
 19 16  1  0
 20 18  2  0
 21 22  1  0
 22 23  2  0
 24 27  1  0
 24 23  1  0
 25 24  2  0
 26 25  1  0
 26 21  2  0
 27 28  1  0
 28 29  1  0
 29 30  2  0
 31 30  1  0
 31 35  1  0
 32 31  2  0
 33 28  2  0
 33 32  1  0
 34 33  1  0
 36 37  1  0
 37 39  1  0
 37 40  1  0
 38 36  2  0
 41 16  1  0
 41 42  1  0
 43 41  1  0
 44 45  2  0
 46 48  1  0
 47 58  2  0
 48 53  1  0
 49 57  1  0
 49 59  1  0
 50 56  1  0
 50 52  1  0
 51 57  1  0
 52 51  1  0
 53 52  2  0
 54 55  1  0
 54 48  2  0
 55 50  2  0
 56 49  1  0
 57 47  1  0
 59 61  2  0
 60 59  1  0
 62 60  1  0
 63 72  2  0
 63 68  1  0
 64 60  1  0
 64 68  1  0
 65 64  1  0
 66 67  1  0
 66 65  1  0
 67 63  1  0
 68 69  2  0
 69 70  1  0
 71 70  2  0
 72 71  1  0
 73 47  1  0
 73 74  1  0
 73 83  1  0
 74 77  1  0
 75 79  1  0
 75 74  1  0
 76 75  2  0
 79 78  1  0
 81 79  1  0
 81 82  1  0
 81 80  1  0
 83 86  1  1
 83 84  1  0
 85 83  1  0
M  ISO  4   4 101   7 100   8 100  46 101
M  END
>  <TORSDO>  (42) 
F 17

>  <SCORE>  (42) 
-13.190

>  <name>  (42) 
41

>  <ligand_id>  (42) 
41

>  <original_smiles>  (42) 
[H]C(=O)C1(C(=O)N2C([H])([H])C([H])([H])C([H])([H])C([H])(n3nc(-c4c([H])c([H])c(Oc5c([H])c([H])c(F)c([H])c5F)c([H])c4[H])c(C(=O)N([H])[H])c3N([H])[H])C2([H])[H])C([H])=C([H])C([H])=C(Oc2c([H])c([H])c3c(c2[H])C([H])([H])N(C(=O)C([H])(N([H])C(=O)C([H])(N([H])C([H])([H])[H])C([H])([H])[H])C(C([H])([H])[H])(C([H])([H])[H])C([H])([H])[H])C([H])(C(=O)N([H])C2([H])c4c([H])c([H])c([H])c([H])c4C([H])([H])C([H])([H])C2([H])[H])C3([H])[H])C([H])([H])C1([H])[H]

>  <smiles>  (42) 
[H]C(=O)C1(C(=O)N2C([H])([H])C([H])([H])C([H])([H])C([H])(n3nc(-c4c([H])c([H])c(Oc5c([H])c([H])c(F)c([H])c5F)c([H])c4[H])c(C(=O)N([H])[H])c3N([H])[H])C2([H])[H])C([H])=C([H])C([H])=C(Oc2c([H])c([H])c3c(c2[H])C([H])([H])N(C(=O)C([H])(N([H])C(=O)C([H])(N([H])C([H])([H])[H])C([H])([H])[H])C(C([H])([H])[H])(C([H])([H])[H])C([H])([H])[H])C([H])(C(=O)N([H])C2([H])c4c([H])c([H])c([H])c([H])c4C([H])([H])C([H])([H])C2([H])[H])C3([H])[H])C([H])([H])C1([H])[H]

$$$$
42:0:0
     RDKit          3D

 89 98  0  0  1  0  0  0  0  0999 V2000
  -30.6200  -15.2860   20.1210 C   0  0  0  0  0  0  0  0  0  0  0  0
  -30.6100  -12.7760   19.4210 C   0  0  0  0  0  2  0  0  0  0  0  0
  -29.7290  -12.4480   18.1900 C   0  0  0  0  0  2  0  0  0  0  0  0
  -28.2730  -12.1920   18.6160 C   0  0  0  0  0  2  0  0  0  0  0  0
  -27.7790  -13.2370   19.6470 C   0  0  0  0  0  3  0  0  0  0  0  0
  -28.8020  -13.4780   20.7780 C   0  0  0  0  0  2  0  0  0  0  0  0
  -30.0320  -13.9790   20.1390 N   0  0  0  0  0  0  0  0  0  0  0  0
  -31.8300  -15.2300   19.8500 O   0  0  0  0  0  0  0  0  0  0  0  0
  -30.6020  -20.8870   19.4780 C   0  0  0  0  0  3  0  0  0  0  0  0
  -30.0930  -22.2730   19.4000 C   0  0  0  0  0  3  0  0  0  0  0  0
  -29.8180  -19.6690   19.6340 C   0  0  0  0  0  0  0  0  0  0  0  0
  -28.4600  -20.1010   19.7240 C   0  0  0  0  0  0  0  0  0  0  0  0
  -28.7020  -22.6430   19.4680 C   0  0  0  0  0  0  0  0  0  0  0  0
  -30.4370  -18.0620   19.5500 C   0  0  0  0  0  3  0  0  0  0  0  0
  -27.4720  -18.9360   19.7890 C   0  0  0  0  0  3  0  0  0  0  0  0
  -27.6890  -17.8170   20.8790 C   0  0  0  0  0  3  0  0  0  0  0  0
  -29.0430  -17.0730   21.2100 C   0  0  0  0  0  3  0  0  0  0  0  0
  -27.9610  -21.4450   19.6450 N   0  0  0  0  0  0  0  0  0  0  0  0
  -29.9260  -16.6210   20.1090 N   0  0  0  0  0  0  0  0  0  0  0  0
  -25.4090  -13.8240   20.3810 C   0  0  0  0  0  0  0  0  0  0  0  0
  -24.3390  -13.0680   20.7630 C   0  0  0  0  0  0  0  0  0  0  0  0
  -24.7890  -11.7140   20.7400 C   0  0  0  0  0  0  0  0  0  0  0  0
  -26.4470  -12.9380   20.1540 N   0  0  0  0  0  0  0  0  0  0  0  0
  -26.0830  -11.6600   20.4360 N   0  0  0  0  0  0  0  0  0  0  0  0
  -24.0410  -10.4660   20.9300 C   0  0  0  0  0  0  0  0  0  0  0  0
  -24.4500   -9.4950   21.8710 C   0  0  0  0  0  3  0  0  0  0  0  0
  -23.7020   -8.3120   22.0510 C   0  0  0  0  0  3  0  0  0  0  0  0
  -22.5300   -8.0920   21.2890 C   0  0  0  0  0  0  0  0  0  0  0  0
  -22.1390   -9.0510   20.3390 C   0  0  0  0  0  3  0  0  0  0  0  0
  -22.8890  -10.2260   20.1580 C   0  0  0  0  0  3  0  0  0  0  0  0
  -21.7540   -6.9620   21.3770 O   0  0  0  0  0  0  0  0  0  0  0  0
  -21.6780   -6.2310   22.5360 C   0  0  0  0  0  0  0  0  0  0  0  0
  -21.2130   -6.7950   23.7440 C   0  0  0  0  0  3  0  0  0  0  0  0
  -21.0860   -5.9890   24.8930 C   0  0  0  0  0  3  0  0  0  0  0  0
  -21.4130   -4.6220   24.8360 C   0  0  0  0  0  0  0  0  0  0  0  0
  -21.8700   -4.0580   23.6310 C   0  0  0  0  0  3  0  0  0  0  0  0
  -22.0010   -4.8590   22.4840 C   0  0  0  0  0  0  0  0  0  0  0  0
  -22.4240   -4.3070   21.3220 F   0  0  0  0  0  0  0  0  0  0  0  0
  -21.2830   -3.8460   25.9360 F   0  0  0  0  0  0  0  0  0  0  0  0
  -22.9480  -13.5710   21.0210 C   0  0  0  0  0  0  0  0  0  0  0  0
  -22.2070  -12.9120   21.9040 N   0  0  0  0  0  0  0  0  0  0  0  0
  -22.5280  -14.5900   20.4750 O   0  0  0  0  0  0  0  0  0  0  0  0
  -22.5530  -12.0890   22.3710 H   0  0  0  0  0  0  0  0  0  0  0  0
  -21.2760  -13.2410   22.1170 H   0  0  0  0  0  0  0  0  0  0  0  0
  -25.5710  -15.1850   20.1760 N   0  0  0  0  0  0  0  0  0  0  0  0
  -24.8080  -15.8440   20.2850 H   0  0  0  0  0  0  0  0  0  0  0  0
  -26.4170  -15.6140   19.8250 H   0  0  0  0  0  0  0  0  0  0  0  0
  -27.8990  -24.1910   19.2580 C   0  0  0  0  0  2  0  0  0  0  0  0
  -28.2730  -25.7920   19.3130 O   0  0  0  0  0  0  0  0  0  0  0  0
  -24.7370  -31.4550   22.8460 C   0  0  0  0  0  0  0  0  0  0  0  0
  -27.2630  -26.8900   19.3650 C   0  0  0  0  0  0  0  0  0  0  0  0
  -23.5110  -30.1810   21.1340 C   0  0  0  0  0  3  0  0  0  0  0  0
  -24.9370  -28.7280   19.5400 C   0  0  0  0  0  0  0  0  0  0  0  0
  -26.0690  -30.4460   20.9300 C   0  0  0  0  0  2  0  0  0  0  0  0
  -26.1390  -29.0980   20.1580 C   0  0  0  0  0  0  0  0  0  0  0  0
  -27.2960  -28.2040   20.0470 C   0  0  0  0  0  3  0  0  0  0  0  0
  -26.0280  -26.6820   18.7080 C   0  0  0  0  0  3  0  0  0  0  0  0
  -24.9050  -27.5420   18.7950 C   0  0  0  0  0  3  0  0  0  0  0  0
  -23.7090  -29.6240   19.6980 C   0  0  0  0  0  2  0  0  0  0  0  0
  -24.7960  -30.7160   21.6910 N   0  0  0  0  0  0  0  0  0  0  0  0
  -23.6620  -31.6810   23.4230 O   0  0  0  0  0  0  0  0  0  0  0  0
  -22.8630  -29.0930   22.0330 C   0  0  0  0  0  0  0  0  0  0  0  0
  -21.5260  -28.9430   21.9650 N   0  0  0  0  0  0  0  0  0  0  0  0
  -23.5690  -28.3900   22.7610 O   0  0  0  0  0  0  0  0  0  0  0  0
  -21.0100  -29.5650   21.3580 H   0  0  0  0  0  0  0  0  0  0  0  0
  -18.1610  -27.7420   22.5910 C   0  0  0  0  0  0  0  0  0  0  0  0
  -20.7400  -27.9380   22.6870 C   0  0  0  0  0  3  0  0  0  0  0  0
  -20.7640  -26.5780   21.9480 C   0  0  0  0  0  2  0  0  0  0  0  0
  -19.5830  -26.3910   20.9910 C   0  0  0  0  0  2  0  0  0  0  0  0
  -18.2560  -26.4790   21.7510 C   0  0  0  0  0  2  0  0  0  0  0  0
  -19.3260  -28.4360   23.0150 C   0  0  0  0  0  0  0  0  0  0  0  0
  -19.1790  -29.6200   23.7690 C   0  0  0  0  0  3  0  0  0  0  0  0
  -17.9020  -30.1120   24.0970 C   0  0  0  0  0  3  0  0  0  0  0  0
  -16.7520  -29.4150   23.6840 C   0  0  0  0  0  3  0  0  0  0  0  0
  -16.8830  -28.2310   22.9370 C   0  0  0  0  0  3  0  0  0  0  0  0
  -26.0200  -32.0640   23.4900 C   0  0  0  0  0  3  0  0  0  0  0  0
  -25.6850  -33.4130   23.9780 N   0  0  0  0  0  0  0  0  0  0  0  0
  -25.9580  -34.5550   23.3320 C   0  0  0  0  0  0  0  0  0  0  0  0
  -26.5840  -34.5840   22.2680 O   0  0  0  0  0  0  0  0  0  0  0  0
  -25.1270  -33.4610   24.8170 H   0  0  0  0  0  0  0  0  0  0  0  0
  -24.1770  -36.3330   23.2520 C   0  0  0  0  0  1  0  0  0  0  0  0
  -25.4610  -35.8730   23.9620 C   0  0  0  0  0  3  0  0  0  0  0  0
  -27.6040  -36.7230   24.8080 C   0  0  0  0  0  1  0  0  0  0  0  0
  -26.4650  -36.9600   23.9250 N   0  0  0  0  0  0  0  0  0  0  0  0
  -26.0440  -37.8470   24.1840 H   0  0  0  0  0  0  0  0  0  0  0  0
  -26.5950  -31.1880   24.6700 C   0  0  1  0  0  0  0  0  0  0  0  0
  -25.5500  -30.8300   25.7510 C   0  0  0  0  0  1  0  0  0  0  0  0
  -27.1870  -29.8630   24.1400 C   0  0  0  0  0  1  0  0  0  0  0  0
  -27.7580  -31.9370   25.3610 C   0  0  0  0  0  1  0  0  0  0  0  0
  1  7  1  0
  2  7  1  0
  3  4  1  0
  3  2  1  0
  5  4  1  0
  5 23  1  0
  5  6  1  0
  7  6  1  0
  8  1  2  0
  9 11  1  0
 10 13  1  0
 10  9  2  0
 11 12  1  0
 12 15  2  0
 13 18  2  0
 14 11  2  0
 14 19  1  0
 15 16  1  0
 16 17  2  0
 18 12  1  0
 19  1  1  0
 19 17  1  0
 20 21  2  0
 21 40  1  0
 22 21  1  0
 22 25  1  0
 23 20  1  0
 23 24  1  0
 24 22  2  0
 25 26  1  0
 26 27  2  0
 28 31  1  0
 28 27  1  0
 29 28  2  0
 30 29  1  0
 30 25  2  0
 31 32  1  0
 32 33  1  0
 33 34  2  0
 35 34  1  0
 35 39  1  0
 36 35  2  0
 37 32  2  0
 37 36  1  0
 38 37  1  0
 40 41  1  0
 41 44  1  0
 41 43  1  0
 42 40  2  0
 45 46  1  0
 45 20  1  0
 47 45  1  0
 48 49  1  0
 48 13  1  0
 49 51  1  0
 50 61  2  0
 51 56  1  0
 52 60  1  0
 52 62  1  0
 53 59  1  0
 53 55  1  0
 54 60  1  0
 55 54  1  0
 56 55  2  0
 57 58  1  0
 57 51  2  0
 58 53  2  0
 59 52  1  0
 60 50  1  0
 62 64  2  0
 63 62  1  0
 65 63  1  0
 66 75  2  0
 66 71  1  0
 67 63  1  0
 67 71  1  0
 68 67  1  0
 69 70  1  0
 69 68  1  0
 70 66  1  0
 71 72  2  0
 72 73  1  0
 74 73  2  0
 75 74  1  0
 76 50  1  0
 76 77  1  0
 76 86  1  0
 77 80  1  0
 78 82  1  0
 78 77  1  0
 79 78  2  0
 82 81  1  0
 84 82  1  0
 84 85  1  0
 84 83  1  0
 86 89  1  1
 86 87  1  0
 88 86  1  0
M  ISO  4   1 100  19 100  48 101  49 101
M  END
>  <TORSDO>  (43) 
F 16

>  <SCORE>  (43) 
-14.149

>  <name>  (43) 
42

>  <ligand_id>  (43) 
42

>  <original_smiles>  (43) 
[H]c1c(C([H])([H])Oc2c([H])c([H])c3c(c2[H])C([H])([H])N(C(=O)C([H])(N([H])C(=O)C([H])(N([H])C([H])([H])[H])C([H])([H])[H])C(C([H])([H])[H])(C([H])([H])[H])C([H])([H])[H])C([H])(C(=O)N([H])C2([H])c4c([H])c([H])c([H])c([H])c4C([H])([H])C([H])([H])C2([H])[H])C3([H])[H])nc2c(c1[H])C([H])([H])N(C(=O)N1C([H])([H])C([H])([H])C([H])([H])C([H])(n3nc(-c4c([H])c([H])c(Oc5c([H])c([H])c(F)c([H])c5F)c([H])c4[H])c(C(=O)N([H])[H])c3N([H])[H])C1([H])[H])C([H])([H])C([H])([H])C2([H])[H]

>  <smiles>  (43) 
[H]c1c(C([H])([H])Oc2c([H])c([H])c3c(c2[H])C([H])([H])N(C(=O)C([H])(N([H])C(=O)C([H])(N([H])C([H])([H])[H])C([H])([H])[H])C(C([H])([H])[H])(C([H])([H])[H])C([H])([H])[H])C([H])(C(=O)N([H])C2([H])c4c([H])c([H])c([H])c([H])c4C([H])([H])C([H])([H])C2([H])[H])C3([H])[H])nc2c(c1[H])C([H])([H])N(C(=O)N1C([H])([H])C([H])([H])C([H])([H])C([H])(n3nc(-c4c([H])c([H])c(Oc5c([H])c([H])c(F)c([H])c5F)c([H])c4[H])c(C(=O)N([H])[H])c3N([H])[H])C1([H])[H])C([H])([H])C([H])([H])C2([H])[H]

$$$$
43:0:0
     RDKit          3D

 95104  0  0  1  0  0  0  0  0999 V2000
  -30.9000  -22.5160   19.9960 C   0  0  0  0  0  3  0  0  0  0  0  0
  -30.9860  -21.1260   20.2400 C   0  0  0  0  0  3  0  0  0  0  0  0
  -28.7340  -21.1610   21.1450 C   0  0  0  0  0  3  0  0  0  0  0  0
  -29.6280  -24.6270   20.0420 C   0  0  0  0  0  3  0  0  0  0  0  0
  -27.4080  -24.6840   21.0160 C   0  0  0  0  0  3  0  0  0  0  0  0
  -29.7260  -23.2400   20.3200 C   0  0  0  0  0  0  0  0  0  0  0  0
  -28.6390  -22.5590   20.9230 C   0  0  0  0  0  0  0  0  0  0  0  0
  -29.8910  -20.4220   20.7930 C   0  0  0  0  0  0  0  0  0  0  0  0
  -27.4810  -23.2990   21.2850 C   0  0  0  0  0  0  0  0  0  0  0  0
  -28.4600  -25.3650   20.3570 C   0  0  0  0  0  0  0  0  0  0  0  0
  -26.3840  -22.6830   21.8970 N   0  0  0  0  0  0  0  0  0  0  0  0
  -25.4900  -23.1590   21.8450 H   0  0  0  0  0  0  0  0  0  0  0  0
  -26.2860  -21.6810   21.7910 H   0  0  0  0  0  0  0  0  0  0  0  0
  -28.4080  -26.7180   20.0320 O   0  0  0  0  0  0  0  0  0  0  0  0
  -24.5950  -31.8740   23.1830 C   0  0  0  0  0  0  0  0  0  0  0  0
  -27.2280  -27.4450   20.0610 C   0  0  0  0  0  0  0  0  0  0  0  0
  -23.3810  -30.4950   21.5230 C   0  0  0  0  0  3  0  0  0  0  0  0
  -24.8340  -28.9600   20.0860 C   0  0  0  0  0  0  0  0  0  0  0  0
  -25.9070  -30.8420   21.3330 C   0  0  0  0  0  2  0  0  0  0  0  0
  -25.9910  -29.4720   20.6850 C   0  0  0  0  0  0  0  0  0  0  0  0
  -27.1870  -28.7160   20.6800 C   0  0  0  0  0  3  0  0  0  0  0  0
  -26.0620  -26.9610   19.4310 C   0  0  0  0  0  3  0  0  0  0  0  0
  -24.8630  -27.7020   19.4550 C   0  0  0  0  0  3  0  0  0  0  0  0
  -23.5900  -29.8210   20.1400 C   0  0  0  0  0  2  0  0  0  0  0  0
  -24.6450  -31.0840   22.0720 N   0  0  0  0  0  0  0  0  0  0  0  0
  -23.5140  -32.1480   23.7240 O   0  0  0  0  0  0  0  0  0  0  0  0
  -22.7250  -29.4700   22.4740 C   0  0  0  0  0  0  0  0  0  0  0  0
  -21.3960  -29.3090   22.3560 N   0  0  0  0  0  0  0  0  0  0  0  0
  -23.4050  -28.8240   23.2770 O   0  0  0  0  0  0  0  0  0  0  0  0
  -20.9110  -29.8790   21.6760 H   0  0  0  0  0  0  0  0  0  0  0  0
  -18.0060  -28.1730   22.8810 C   0  0  0  0  0  0  0  0  0  0  0  0
  -20.5710  -28.3680   23.1140 C   0  0  0  0  0  3  0  0  0  0  0  0
  -20.6310  -26.9530   22.5000 C   0  0  0  0  0  2  0  0  0  0  0  0
  -19.5050  -26.6800   21.4950 C   0  0  0  0  0  2  0  0  0  0  0  0
  -18.1390  -26.8390   22.1680 C   0  0  0  0  0  2  0  0  0  0  0  0
  -19.1470  -28.8990   23.3120 C   0  0  0  0  0  0  0  0  0  0  0  0
  -18.9680  -30.1520   23.9390 C   0  0  0  0  0  3  0  0  0  0  0  0
  -17.6770  -30.6790   24.1380 C   0  0  0  0  0  3  0  0  0  0  0  0
  -16.5500  -29.9480   23.7220 C   0  0  0  0  0  3  0  0  0  0  0  0
  -16.7150  -28.6970   23.1010 C   0  0  0  0  0  3  0  0  0  0  0  0
  -25.8860  -32.4890   23.8120 C   0  0  0  0  0  3  0  0  0  0  0  0
  -26.4020  -31.6930   25.0730 C   0  0  1  0  0  0  0  0  0  0  0  0
  -25.3110  -31.4470   26.1410 C   0  0  0  0  0  1  0  0  0  0  0  0
  -26.9720  -30.3170   24.6540 C   0  0  0  0  0  1  0  0  0  0  0  0
  -27.5600  -32.4680   25.7440 C   0  0  0  0  0  1  0  0  0  0  0  0
  -25.5850  -33.8840   24.1640 N   0  0  0  0  0  0  0  0  0  0  0  0
  -25.9080  -34.9410   23.4090 C   0  0  0  0  0  0  0  0  0  0  0  0
  -26.5630  -34.8460   22.3670 O   0  0  0  0  0  0  0  0  0  0  0  0
  -25.0030  -34.0340   24.9760 H   0  0  0  0  0  0  0  0  0  0  0  0
  -24.1730  -36.7330   23.0960 C   0  0  0  0  0  1  0  0  0  0  0  0
  -25.4300  -36.3250   23.8820 C   0  0  0  0  0  3  0  0  0  0  0  0
  -27.5820  -37.2030   24.6750 C   0  0  0  0  0  1  0  0  0  0  0  0
  -26.4610  -37.3790   23.7560 N   0  0  0  0  0  0  0  0  0  0  0  0
  -26.0580  -38.2970   23.9210 H   0  0  0  0  0  0  0  0  0  0  0  0
  -29.8970  -18.8990   21.0430 C   0  0  0  0  0  2  0  0  0  0  0  0
  -30.7550  -18.0120   20.1000 C   0  0  0  0  0  2  0  0  0  0  0  0
  -30.0260  -16.7760   19.5120 C   0  0  0  0  0  2  0  0  0  0  0  0
  -30.7060  -14.4930   20.1710 C   0  0  0  0  0  0  0  0  0  0  0  0
  -30.3490  -12.3220   19.0940 C   0  0  0  0  0  2  0  0  0  0  0  0
  -29.3830  -12.5690   17.9150 C   0  0  0  0  0  2  0  0  0  0  0  0
  -27.9180  -12.4500   18.3800 C   0  0  0  0  0  2  0  0  0  0  0  0
  -27.6260  -13.2770   19.6620 C   0  0  0  0  0  3  0  0  0  0  0  0
  -28.7160  -13.0510   20.7390 C   0  0  0  0  0  2  0  0  0  0  0  0
  -30.0300  -13.3140   20.1300 N   0  0  0  0  0  0  0  0  0  0  0  0
  -31.8570  -14.6270   19.7500 O   0  0  0  0  0  0  0  0  0  0  0  0
  -29.9300  -15.5750   20.3640 N   0  0  0  0  0  0  0  0  0  0  0  0
  -29.0150  -15.3760   20.7390 H   0  0  0  0  0  0  0  0  0  0  0  0
  -25.2510  -13.9020   20.4310 C   0  0  0  0  0  0  0  0  0  0  0  0
  -24.1860  -13.1390   20.8270 C   0  0  0  0  0  0  0  0  0  0  0  0
  -24.6340  -11.7840   20.7840 C   0  0  0  0  0  0  0  0  0  0  0  0
  -26.2830  -13.0120   20.1750 N   0  0  0  0  0  0  0  0  0  0  0  0
  -25.9160  -11.7340   20.4430 N   0  0  0  0  0  0  0  0  0  0  0  0
  -23.9020  -10.5280   20.9920 C   0  0  0  0  0  0  0  0  0  0  0  0
  -24.3550   -9.5530   21.9090 C   0  0  0  0  0  3  0  0  0  0  0  0
  -23.6230   -8.3620   22.1060 C   0  0  0  0  0  3  0  0  0  0  0  0
  -22.4270   -8.1370   21.3850 C   0  0  0  0  0  0  0  0  0  0  0  0
  -21.9940   -9.1000   20.4570 C   0  0  0  0  0  3  0  0  0  0  0  0
  -22.7250  -10.2830   20.2580 C   0  0  0  0  0  3  0  0  0  0  0  0
  -21.6660   -6.9970   21.4920 O   0  0  0  0  0  0  0  0  0  0  0  0
  -21.6510   -6.2470   22.6400 C   0  0  0  0  0  0  0  0  0  0  0  0
  -21.2770   -6.7970   23.8850 C   0  0  0  0  0  3  0  0  0  0  0  0
  -21.2080   -5.9740   25.0270 C   0  0  0  0  0  3  0  0  0  0  0  0
  -21.5050   -4.6010   24.9250 C   0  0  0  0  0  0  0  0  0  0  0  0
  -21.8700   -4.0500   23.6840 C   0  0  0  0  0  3  0  0  0  0  0  0
  -21.9410   -4.8700   22.5450 C   0  0  0  0  0  0  0  0  0  0  0  0
  -22.2760   -4.3310   21.3480 F   0  0  0  0  0  0  0  0  0  0  0  0
  -21.4290   -3.8080   26.0190 F   0  0  0  0  0  0  0  0  0  0  0  0
  -22.8010  -13.6280   21.1330 C   0  0  0  0  0  0  0  0  0  0  0  0
  -22.0890  -12.9400   22.0190 N   0  0  0  0  0  0  0  0  0  0  0  0
  -22.3570  -14.6580   20.6250 O   0  0  0  0  0  0  0  0  0  0  0  0
  -22.4570  -12.1060   22.4530 H   0  0  0  0  0  0  0  0  0  0  0  0
  -21.1610  -13.2510   22.2670 H   0  0  0  0  0  0  0  0  0  0  0  0
  -25.4200  -15.2710   20.2480 N   0  0  0  0  0  0  0  0  0  0  0  0
  -24.6550  -15.9260   20.3710 H   0  0  0  0  0  0  0  0  0  0  0  0
  -26.2560  -15.7080   19.8770 H   0  0  0  0  0  0  0  0  0  0  0  0
  1  2  2  0
  1  6  1  0
  2  8  1  0
  4  6  2  0
  4 10  1  0
  5  9  1  0
  6  7  1  0
  7  3  1  0
  7  9  2  0
  8 55  1  0
  8  3  2  0
  9 11  1  0
 10  5  2  0
 12 11  1  0
 13 11  1  0
 14 16  1  0
 14 10  1  0
 15 26  2  0
 16 21  1  0
 17 25  1  0
 17 27  1  0
 18 24  1  0
 18 20  1  0
 19 25  1  0
 20 19  1  0
 21 20  2  0
 22 23  1  0
 22 16  2  0
 23 18  2  0
 24 17  1  0
 25 15  1  0
 27 29  2  0
 28 27  1  0
 30 28  1  0
 31 40  2  0
 31 36  1  0
 32 28  1  0
 32 36  1  0
 33 32  1  0
 34 35  1  0
 34 33  1  0
 35 31  1  0
 36 37  2  0
 37 38  1  0
 39 38  2  0
 40 39  1  0
 41 15  1  0
 41 46  1  0
 41 42  1  0
 42 45  1  1
 42 43  1  0
 44 42  1  0
 46 49  1  0
 47 51  1  0
 47 46  1  0
 48 47  2  0
 51 50  1  0
 53 51  1  0
 53 54  1  0
 53 52  1  0
 56 55  1  0
 57 56  1  0
 57 66  1  0
 58 66  1  0
 59 64  1  0
 60 61  1  0
 60 59  1  0
 62 61  1  0
 62 71  1  0
 62 63  1  0
 64 58  1  0
 64 63  1  0
 65 58  2  0
 66 67  1  0
 68 69  2  0
 69 88  1  0
 70 69  1  0
 70 73  1  0
 71 68  1  0
 71 72  1  0
 72 70  2  0
 73 74  1  0
 74 75  2  0
 76 79  1  0
 76 75  1  0
 77 76  2  0
 78 77  1  0
 78 73  2  0
 79 80  1  0
 80 81  1  0
 81 82  2  0
 83 82  1  0
 83 87  1  0
 84 83  2  0
 85 80  2  0
 85 84  1  0
 86 85  1  0
 88 89  1  0
 89 92  1  0
 89 91  1  0
 90 88  2  0
 93 94  1  0
 93 68  1  0
 95 93  1  0
M  ISO  4  10 101  14 101  58 100  66 100
M  END
>  <TORSDO>  (44) 
F 20

>  <SCORE>  (44) 
-14.291

>  <name>  (44) 
43

>  <ligand_id>  (44) 
43

>  <original_smiles>  (44) 
[H]c1c([H])c([H])c2c(c1[H])C([H])([H])C([H])([H])C([H])([H])C2([H])N([H])C(=O)C1([H])N(C(=O)C([H])(N([H])C(=O)C([H])(N([H])C([H])([H])[H])C([H])([H])[H])C(C([H])([H])[H])(C([H])([H])[H])C([H])([H])[H])C([H])([H])c2c([H])c(Oc3c([H])c(N([H])[H])c4c([H])c(C([H])([H])C([H])([H])C([H])([H])N([H])C(=O)N5C([H])([H])C([H])([H])C([H])([H])C([H])(n6nc(-c7c([H])c([H])c(Oc8c([H])c([H])c(F)c([H])c8F)c([H])c7[H])c(C(=O)N([H])[H])c6N([H])[H])C5([H])[H])c([H])c([H])c4c3[H])c([H])c([H])c2C1([H])[H]

>  <smiles>  (44) 
[H]c1c([H])c([H])c2c(c1[H])C([H])([H])C([H])([H])C([H])([H])C2([H])N([H])C(=O)C1([H])N(C(=O)C([H])(N([H])C(=O)C([H])(N([H])C([H])([H])[H])C([H])([H])[H])C(C([H])([H])[H])(C([H])([H])[H])C([H])([H])[H])C([H])([H])c2c([H])c(Oc3c([H])c(N([H])[H])c4c([H])c(C([H])([H])C([H])([H])C([H])([H])N([H])C(=O)N5C([H])([H])C([H])([H])C([H])([H])C([H])(n6nc(-c7c([H])c([H])c(Oc8c([H])c([H])c(F)c([H])c8F)c([H])c7[H])c(C(=O)N([H])[H])c6N([H])[H])C5([H])[H])c([H])c([H])c4c3[H])c([H])c([H])c2C1([H])[H]

$$$$
44:0:0
     RDKit          3D

 95104  0  0  1  0  0  0  0  0999 V2000
  -28.3160  -19.6320   20.3940 C   0  0  0  0  0  3  0  0  0  0  0  0
  -29.2220  -18.5370   20.7300 C   0  0  0  0  0  0  0  0  0  0  0  0
  -30.3800  -19.0580   21.2440 C   0  0  0  0  0  0  0  0  0  0  0  0
  -28.7640  -20.9290   20.6790 C   0  0  0  0  0  0  0  0  0  0  0  0
  -29.0920  -16.9840   20.5080 C   0  0  0  0  0  2  0  0  0  0  0  0
  -31.6080  -18.2740   21.5570 C   0  0  0  0  0  2  0  0  0  0  0  0
  -31.4890  -16.7530   21.2700 C   0  0  0  0  0  2  0  0  0  0  0  0
  -30.4820  -16.2940   20.1480 C   0  0  1  0  0  0  0  0  0  0  0  0
  -30.3420  -20.8100   21.4130 S   0  0  0  0  0  0  0  0  0  0  0  0
  -30.7270  -14.7040   19.9340 C   0  0  0  0  0  0  0  0  0  0  0  0
  -30.1950  -12.4880   18.9500 C   0  0  0  0  0  2  0  0  0  0  0  0
  -29.2140  -12.6210   17.7730 C   0  0  0  0  0  2  0  0  0  0  0  0
  -27.7770  -12.4740   18.2920 C   0  0  0  0  0  2  0  0  0  0  0  0
  -27.4980  -13.3630   19.5330 C   0  0  0  0  0  3  0  0  0  0  0  0
  -28.6320  -13.3370   20.5840 C   0  0  0  0  0  2  0  0  0  0  0  0
  -29.9010  -13.5990   19.9000 N   0  0  0  0  0  0  0  0  0  0  0  0
  -31.8780  -14.4990   19.5660 O   0  0  0  0  0  0  0  0  0  0  0  0
  -25.1780  -13.9300   20.4500 C   0  0  0  0  0  0  0  0  0  0  0  0
  -24.1340  -13.1500   20.8670 C   0  0  0  0  0  0  0  0  0  0  0  0
  -24.5850  -11.7970   20.7700 C   0  0  0  0  0  0  0  0  0  0  0  0
  -26.1970  -13.0550   20.1200 N   0  0  0  0  0  0  0  0  0  0  0  0
  -25.8550  -11.7650   20.3780 N   0  0  0  0  0  0  0  0  0  0  0  0
  -23.8600  -10.5340   20.9750 C   0  0  0  0  0  0  0  0  0  0  0  0
  -24.3200   -9.5560   21.8840 C   0  0  0  0  0  3  0  0  0  0  0  0
  -23.5940   -8.3610   22.0770 C   0  0  0  0  0  3  0  0  0  0  0  0
  -22.3930   -8.1340   21.3640 C   0  0  0  0  0  0  0  0  0  0  0  0
  -21.9520   -9.1010   20.4430 C   0  0  0  0  0  3  0  0  0  0  0  0
  -22.6780  -10.2880   20.2480 C   0  0  0  0  0  3  0  0  0  0  0  0
  -21.6340   -6.9930   21.4680 O   0  0  0  0  0  0  0  0  0  0  0  0
  -21.5960   -6.2570   22.6250 C   0  0  0  0  0  0  0  0  0  0  0  0
  -21.1640   -6.8140   23.8470 C   0  0  0  0  0  3  0  0  0  0  0  0
  -21.0770   -6.0050   24.9980 C   0  0  0  0  0  3  0  0  0  0  0  0
  -21.4090   -4.6390   24.9260 C   0  0  0  0  0  0  0  0  0  0  0  0
  -21.8340   -4.0810   23.7080 C   0  0  0  0  0  3  0  0  0  0  0  0
  -21.9240   -4.8880   22.5590 C   0  0  0  0  0  0  0  0  0  0  0  0
  -22.3140   -4.3410   21.3820 F   0  0  0  0  0  0  0  0  0  0  0  0
  -21.3170   -3.8580   26.0280 F   0  0  0  0  0  0  0  0  0  0  0  0
  -22.7620  -13.6270   21.2410 C   0  0  0  0  0  0  0  0  0  0  0  0
  -22.0840  -12.9150   22.1360 N   0  0  0  0  0  0  0  0  0  0  0  0
  -22.3010  -14.6710   20.7780 O   0  0  0  0  0  0  0  0  0  0  0  0
  -22.4700  -12.0730   22.5360 H   0  0  0  0  0  0  0  0  0  0  0  0
  -21.1660  -13.2190   22.4260 H   0  0  0  0  0  0  0  0  0  0  0  0
  -25.3360  -15.3030   20.2950 N   0  0  0  0  0  0  0  0  0  0  0  0
  -24.5800  -15.9550   20.4770 H   0  0  0  0  0  0  0  0  0  0  0  0
  -26.1580  -15.7500   19.9130 H   0  0  0  0  0  0  0  0  0  0  0  0
  -28.0280  -22.2920   20.4720 C   0  0  0  0  0  2  0  0  0  0  0  0
  -28.7420  -23.7310   20.5670 C   0  0  0  0  0  3  0  0  0  0  0  0
  -27.8640  -24.9670   20.0410 C   0  0  0  0  0  3  0  0  0  0  0  0
  -28.2050  -26.4180   20.2100 O   0  0  0  0  0  0  0  0  0  0  0  0
  -24.5690  -31.8940   23.2190 C   0  0  0  0  0  0  0  0  0  0  0  0
  -27.1390  -27.3360   20.1100 C   0  0  0  0  0  0  0  0  0  0  0  0
  -23.3540  -30.5070   21.5810 C   0  0  0  0  0  3  0  0  0  0  0  0
  -24.7930  -28.9830   20.1150 C   0  0  0  0  0  0  0  0  0  0  0  0
  -25.8950  -30.8240   21.3800 C   0  0  0  0  0  2  0  0  0  0  0  0
  -25.9690  -29.4530   20.7140 C   0  0  0  0  0  0  0  0  0  0  0  0
  -27.1480  -28.6410   20.7020 C   0  0  0  0  0  3  0  0  0  0  0  0
  -25.9490  -26.9520   19.4490 C   0  0  0  0  0  3  0  0  0  0  0  0
  -24.7880  -27.7410   19.4650 C   0  0  0  0  0  3  0  0  0  0  0  0
  -23.5560  -29.8540   20.1890 C   0  0  0  0  0  2  0  0  0  0  0  0
  -24.6270  -31.0910   22.1160 N   0  0  0  0  0  0  0  0  0  0  0  0
  -23.4890  -32.1640   23.7660 O   0  0  0  0  0  0  0  0  0  0  0  0
  -22.7020  -29.4780   22.5350 C   0  0  0  0  0  0  0  0  0  0  0  0
  -21.3760  -29.2910   22.4110 N   0  0  0  0  0  0  0  0  0  0  0  0
  -23.3850  -28.8530   23.3510 O   0  0  0  0  0  0  0  0  0  0  0  0
  -20.8850  -29.8440   21.7230 H   0  0  0  0  0  0  0  0  0  0  0  0
  -18.0060  -28.0660   22.9110 C   0  0  0  0  0  0  0  0  0  0  0  0
  -20.5640  -28.3460   23.1810 C   0  0  0  0  0  3  0  0  0  0  0  0
  -20.6780  -26.9160   22.6020 C   0  0  0  0  0  2  0  0  0  0  0  0
  -19.5780  -26.5860   21.5890 C   0  0  0  0  0  2  0  0  0  0  0  0
  -18.1940  -26.7190   22.2340 C   0  0  0  0  0  2  0  0  0  0  0  0
  -19.1190  -28.8370   23.3410 C   0  0  0  0  0  0  0  0  0  0  0  0
  -18.8900  -30.0960   23.9360 C   0  0  0  0  0  3  0  0  0  0  0  0
  -17.5810  -30.5860   24.1040 C   0  0  0  0  0  3  0  0  0  0  0  0
  -16.4840  -29.8120   23.6900 C   0  0  0  0  0  3  0  0  0  0  0  0
  -16.6970  -28.5540   23.0990 C   0  0  0  0  0  3  0  0  0  0  0  0
  -25.8540  -32.5230   23.8360 C   0  0  0  0  0  3  0  0  0  0  0  0
  -25.5430  -33.9190   24.1730 N   0  0  0  0  0  0  0  0  0  0  0  0
  -25.8620  -34.9760   23.4160 C   0  0  0  0  0  0  0  0  0  0  0  0
  -26.5130  -34.8790   22.3730 O   0  0  0  0  0  0  0  0  0  0  0  0
  -24.9550  -34.0660   24.9800 H   0  0  0  0  0  0  0  0  0  0  0  0
  -24.1180  -36.7650   23.1060 C   0  0  0  0  0  1  0  0  0  0  0  0
  -25.3780  -36.3620   23.8880 C   0  0  0  0  0  3  0  0  0  0  0  0
  -27.5250  -37.2560   24.6750 C   0  0  0  0  0  1  0  0  0  0  0  0
  -26.4040  -37.4200   23.7520 N   0  0  0  0  0  0  0  0  0  0  0  0
  -25.9980  -38.3400   23.9070 H   0  0  0  0  0  0  0  0  0  0  0  0
  -26.3810  -31.7460   25.1040 C   0  0  1  0  0  0  0  0  0  0  0  0
  -25.2940  -31.4950   26.1770 C   0  0  0  0  0  1  0  0  0  0  0  0
  -26.9650  -30.3710   24.7000 C   0  0  0  0  0  1  0  0  0  0  0  0
  -27.5340  -32.5380   25.7620 C   0  0  0  0  0  1  0  0  0  0  0  0
  -30.8270  -16.9270   18.7380 C   0  0  0  0  0  2  0  0  0  0  0  0
  -32.3020  -17.1550   18.3090 C   0  0  0  0  0  2  0  0  0  0  0  0
  -32.4340  -17.1790   16.8410 N   0  0  0  0  0  4  0  0  0  0  0  0
  -32.0510  -16.3370   16.4480 H   0  0  0  0  0  0  0  0  0  0  0  0
  -33.4010  -17.2280   16.5730 H   0  0  0  0  0  0  0  0  0  0  0  0
  -31.9580  -17.9680   16.4420 H   0  0  0  0  0  0  0  0  0  0  0  0
  1  4  2  0
  1  2  1  0
  2  3  2  0
  3  9  1  0
  3  6  1  0
  4  9  1  0
  5  2  1  0
  7  6  1  0
  8 90  1  6
  8  5  1  0
  8  7  1  0
 10  8  1  0
 11 16  1  0
 12 13  1  0
 12 11  1  0
 14 13  1  0
 14 21  1  0
 14 15  1  0
 16 10  1  0
 16 15  1  0
 17 10  2  0
 18 19  2  0
 19 38  1  0
 20 19  1  0
 20 23  1  0
 21 22  1  0
 21 18  1  0
 22 20  2  0
 23 24  1  0
 24 25  2  0
 26 29  1  0
 26 25  1  0
 27 26  2  0
 28 27  1  0
 28 23  2  0
 29 30  1  0
 30 31  1  0
 31 32  2  0
 33 32  1  0
 33 37  1  0
 34 33  2  0
 35 30  2  0
 35 34  1  0
 36 35  1  0
 38 39  1  0
 39 42  1  0
 39 41  1  0
 40 38  2  0
 43 18  1  0
 43 44  1  0
 45 43  1  0
 46 47  1  0
 46  4  1  0
 48 49  1  0
 48 47  2  0
 50 61  2  0
 51 49  1  0
 51 56  1  0
 52 60  1  0
 52 62  1  0
 53 59  1  0
 53 55  1  0
 54 60  1  0
 55 54  1  0
 56 55  2  0
 57 58  1  0
 57 51  2  0
 58 53  2  0
 59 52  1  0
 60 50  1  0
 62 64  2  0
 63 62  1  0
 65 63  1  0
 66 75  2  0
 66 71  1  0
 67 63  1  0
 67 71  1  0
 68 67  1  0
 69 70  1  0
 69 68  1  0
 70 66  1  0
 71 72  2  0
 72 73  1  0
 74 73  2  0
 75 74  1  0
 76 50  1  0
 76 77  1  0
 76 86  1  0
 77 80  1  0
 78 82  1  0
 78 77  1  0
 79 78  2  0
 82 81  1  0
 84 82  1  0
 84 85  1  0
 84 83  1  0
 86 89  1  1
 86 87  1  0
 88 86  1  0
 91 90  1  0
 92 91  1  0
 93 92  1  0
 94 92  1  0
 95 92  1  0
M  ISO  4   8 100  10 100  48 101  49 101
M  END
>  <TORSDO>  (45) 
F 22

>  <SCORE>  (45) 
-13.530

>  <name>  (45) 
44

>  <ligand_id>  (45) 
44

>  <original_smiles>  (45) 
[H]c1c([H])c([H])c2c(c1[H])C([H])([H])C([H])([H])C([H])([H])C2([H])N([H])C(=O)C1([H])N(C(=O)C([H])(N([H])C(=O)C([H])(N([H])C([H])([H])[H])C([H])([H])[H])C(C([H])([H])[H])(C([H])([H])[H])C([H])([H])[H])C([H])([H])c2c([H])c(OC([H])([H])C([H])([H])C([H])([H])c3sc4c(c3[H])C([H])([H])C(C(=O)N3C([H])([H])C([H])([H])C([H])([H])C([H])(n5nc(-c6c([H])c([H])c(Oc7c([H])c([H])c(F)c([H])c7F)c([H])c6[H])c(C(=O)N([H])[H])c5N([H])[H])C3([H])[H])(C([H])([H])C([H])([H])[N+]([H])([H])[H])C([H])([H])C4([H])[H])c([H])c([H])c2C1([H])[H]

>  <smiles>  (45) 
[H]c1c([H])c([H])c2c(c1[H])C([H])([H])C([H])([H])C([H])([H])C2([H])N([H])C(=O)C1([H])N(C(=O)C([H])(N([H])C(=O)C([H])(N([H])C([H])([H])[H])C([H])([H])[H])C(C([H])([H])[H])(C([H])([H])[H])C([H])([H])[H])C([H])([H])c2c([H])c(OC([H])([H])C([H])([H])C([H])([H])c3sc4c(c3[H])C([H])([H])C(C(=O)N3C([H])([H])C([H])([H])C([H])([H])C([H])(n5nc(-c6c([H])c([H])c(Oc7c([H])c([H])c(F)c([H])c7F)c([H])c6[H])c(C(=O)N([H])[H])c5N([H])[H])C3([H])[H])(C([H])([H])C([H])([H])[N+]([H])([H])[H])C([H])([H])C4([H])[H])c([H])c([H])c2C1([H])[H]

$$$$
45:0:0
     RDKit          3D

 93101  0  0  1  0  0  0  0  0999 V2000
  -28.6230  -22.2540   21.4960 C   0  0  0  0  0  2  0  0  0  0  0  0
  -27.2650  -19.3570   19.4010 C   0  0  0  0  0  3  0  0  0  0  0  0
  -28.1210  -18.3020   19.7670 C   0  0  0  0  0  3  0  0  0  0  0  0
  -27.4600  -20.6430   19.9360 C   0  0  0  0  0  3  0  0  0  0  0  0
  -29.3980  -19.8280   21.1780 C   0  0  0  0  0  3  0  0  0  0  0  0
  -29.2020  -18.5290   20.6470 C   0  0  0  0  0  0  0  0  0  0  0  0
  -28.5140  -20.8820   20.8410 C   0  0  0  0  0  0  0  0  0  0  0  0
  -30.0980  -17.3650   21.0650 C   0  0  0  0  0  2  0  0  0  0  0  0
  -30.1990  -16.2330   20.0080 C   0  0  0  0  0  2  0  0  0  0  0  0
  -31.3350  -14.1510   19.4200 C   0  0  0  0  0  0  0  0  0  0  0  0
  -30.7540  -11.9250   18.5120 C   0  0  0  0  0  2  0  0  0  0  0  0
  -29.6840  -12.0360   17.4090 C   0  0  0  0  0  2  0  0  0  0  0  0
  -28.2710  -12.0310   18.0220 C   0  0  0  0  0  2  0  0  0  0  0  0
  -28.1260  -13.0480   19.1830 C   0  0  0  0  0  3  0  0  0  0  0  0
  -29.2870  -12.8960   20.1890 C   0  0  0  0  0  2  0  0  0  0  0  0
  -30.5570  -13.0360   19.4530 N   0  0  0  0  0  0  0  0  0  0  0  0
  -32.2870  -14.2920   18.6430 O   0  0  0  0  0  0  0  0  0  0  0  0
  -31.9270  -15.1680   21.5370 C   0  0  0  0  0  1  0  0  0  0  0  0
  -31.0550  -15.0790   20.3610 N   0  0  0  0  0  0  0  0  0  0  0  0
  -25.9900  -13.9190   20.3230 C   0  0  0  0  0  0  0  0  0  0  0  0
  -24.8720  -13.2760   20.7850 C   0  0  0  0  0  0  0  0  0  0  0  0
  -25.0890  -11.8850   20.5440 C   0  0  0  0  0  0  0  0  0  0  0  0
  -26.8280  -12.9250   19.8420 N   0  0  0  0  0  0  0  0  0  0  0  0
  -26.2950  -11.6900   20.0270 N   0  0  0  0  0  0  0  0  0  0  0  0
  -24.1970  -10.7320   20.7220 C   0  0  0  0  0  0  0  0  0  0  0  0
  -24.6070   -9.5840   21.4350 C   0  0  0  0  0  3  0  0  0  0  0  0
  -23.7240   -8.4970   21.6080 C   0  0  0  0  0  3  0  0  0  0  0  0
  -22.4160   -8.5520   21.0700 C   0  0  0  0  0  0  0  0  0  0  0  0
  -22.0230   -9.6890   20.3420 C   0  0  0  0  0  3  0  0  0  0  0  0
  -22.9050  -10.7670   20.1650 C   0  0  0  0  0  3  0  0  0  0  0  0
  -21.4990   -7.5340   21.1650 O   0  0  0  0  0  0  0  0  0  0  0  0
  -21.5260   -6.6380   22.2030 C   0  0  0  0  0  0  0  0  0  0  0  0
  -21.4550   -7.0560   23.5500 C   0  0  0  0  0  3  0  0  0  0  0  0
  -21.4140   -6.0970   24.5830 C   0  0  0  0  0  3  0  0  0  0  0  0
  -21.4350   -4.7240   24.2710 C   0  0  0  0  0  0  0  0  0  0  0  0
  -21.5030   -4.3060   22.9310 C   0  0  0  0  0  3  0  0  0  0  0  0
  -21.5430   -5.2620   21.8990 C   0  0  0  0  0  0  0  0  0  0  0  0
  -21.5860   -4.8530   20.6080 F   0  0  0  0  0  0  0  0  0  0  0  0
  -21.3890   -3.8040   25.2630 F   0  0  0  0  0  0  0  0  0  0  0  0
  -23.6320  -13.9220   21.3290 C   0  0  0  0  0  0  0  0  0  0  0  0
  -22.9480  -13.2500   22.2500 N   0  0  0  0  0  0  0  0  0  0  0  0
  -23.2850  -15.0470   20.9730 O   0  0  0  0  0  0  0  0  0  0  0  0
  -23.2430  -12.3330   22.5500 H   0  0  0  0  0  0  0  0  0  0  0  0
  -22.1220  -13.6590   22.6600 H   0  0  0  0  0  0  0  0  0  0  0  0
  -26.3520  -15.2590   20.2500 N   0  0  0  0  0  0  0  0  0  0  0  0
  -25.7200  -16.0020   20.5280 H   0  0  0  0  0  0  0  0  0  0  0  0
  -27.1820  -15.5990   19.7820 H   0  0  0  0  0  0  0  0  0  0  0  0
  -29.1970  -23.2780   20.5990 N   0  0  0  0  0  4  0  0  0  0  0  0
  -28.7950  -23.1480   19.6840 H   0  0  0  0  0  0  0  0  0  0  0  0
  -30.1870  -23.1030   20.5250 H   0  0  0  0  0  0  0  0  0  0  0  0
  -28.9540  -24.6680   21.0680 C   0  0  0  0  0  2  0  0  0  0  0  0
  -29.4770  -25.7550   20.1080 C   0  0  0  0  0  2  0  0  0  0  0  0
  -29.2390  -27.0520   20.6720 O   0  0  0  0  0  0  0  0  0  0  0  0
  -24.8630  -31.9140   23.4830 C   0  0  0  0  0  0  0  0  0  0  0  0
  -27.9890  -27.6390   20.6050 C   0  0  0  0  0  0  0  0  0  0  0  0
  -23.8680  -30.4460   21.7600 C   0  0  0  0  0  3  0  0  0  0  0  0
  -25.5070  -28.9980   20.4510 C   0  0  0  0  0  0  0  0  0  0  0  0
  -26.3790  -30.9440   21.7600 C   0  0  0  0  0  2  0  0  0  0  0  0
  -26.5860  -29.5860   21.1210 C   0  0  0  0  0  0  0  0  0  0  0  0
  -27.8260  -28.9160   21.1890 C   0  0  0  0  0  3  0  0  0  0  0  0
  -26.8800  -27.0500   19.9490 C   0  0  0  0  0  3  0  0  0  0  0  0
  -25.6490  -27.7290   19.8640 C   0  0  0  0  0  3  0  0  0  0  0  0
  -24.2200  -29.7900   20.3990 C   0  0  0  0  0  2  0  0  0  0  0  0
  -25.0490  -31.1180   22.3930 N   0  0  0  0  0  0  0  0  0  0  0  0
  -23.7290  -32.1260   23.9350 O   0  0  0  0  0  0  0  0  0  0  0  0
  -23.2090  -29.3840   22.6680 C   0  0  0  0  0  0  0  0  0  0  0  0
  -21.9140  -29.1230   22.4310 N   0  0  0  0  0  0  0  0  0  0  0  0
  -23.8640  -28.8010   23.5370 O   0  0  0  0  0  0  0  0  0  0  0  0
  -21.4540  -29.6450   21.7000 H   0  0  0  0  0  0  0  0  0  0  0  0
  -18.5790  -27.7520   22.6750 C   0  0  0  0  0  0  0  0  0  0  0  0
  -21.0920  -28.1380   23.1350 C   0  0  0  0  0  3  0  0  0  0  0  0
  -21.3120  -26.7220   22.5620 C   0  0  0  0  0  2  0  0  0  0  0  0
  -20.3060  -26.3490   21.4680 C   0  0  0  0  0  2  0  0  0  0  0  0
  -18.8750  -26.4170   22.0090 C   0  0  0  0  0  2  0  0  0  0  0  0
  -19.6230  -28.5670   23.1880 C   0  0  0  0  0  0  0  0  0  0  0  0
  -19.3020  -29.8130   23.7650 C   0  0  0  0  0  3  0  0  0  0  0  0
  -17.9650  -30.2470   23.8420 C   0  0  0  0  0  3  0  0  0  0  0  0
  -16.9330  -29.4290   23.3500 C   0  0  0  0  0  3  0  0  0  0  0  0
  -17.2390  -28.1830   22.7710 C   0  0  0  0  0  3  0  0  0  0  0  0
  -26.0600  -32.6160   24.1950 C   0  0  0  0  0  3  0  0  0  0  0  0
  -25.6820  -34.0190   24.4190 N   0  0  0  0  0  0  0  0  0  0  0  0
  -26.0270  -35.0360   23.6190 C   0  0  0  0  0  0  0  0  0  0  0  0
  -26.7670  -34.8970   22.6400 O   0  0  0  0  0  0  0  0  0  0  0  0
  -25.0360  -34.2000   25.1740 H   0  0  0  0  0  0  0  0  0  0  0  0
  -24.2360  -36.7120   23.0650 C   0  0  0  0  0  1  0  0  0  0  0  0
  -25.4560  -36.4260   23.9550 C   0  0  0  0  0  3  0  0  0  0  0  0
  -27.5190  -37.4490   24.8010 C   0  0  0  0  0  1  0  0  0  0  0  0
  -26.4430  -37.5190   23.8180 N   0  0  0  0  0  0  0  0  0  0  0  0
  -25.9920  -38.4260   23.9060 H   0  0  0  0  0  0  0  0  0  0  0  0
  -26.4730  -31.9250   25.5540 C   0  0  1  0  0  0  0  0  0  0  0  0
  -25.2770  -31.6190   26.4880 C   0  0  0  0  0  1  0  0  0  0  0  0
  -27.2090  -30.5910   25.2860 C   0  0  0  0  0  1  0  0  0  0  0  0
  -27.4660  -32.8290   26.3220 C   0  0  0  0  0  1  0  0  0  0  0  0
  2  3  2  0
  2  4  1  0
  3  6  1  0
  4  7  2  0
  6  8  1  0
  6  5  2  0
  7  5  1  0
  7  1  1  0
  9 19  1  0
  9  8  1  0
 10 16  1  0
 10 19  1  0
 11 16  1  0
 12 13  1  0
 12 11  1  0
 14 13  1  0
 14 23  1  0
 14 15  1  0
 16 15  1  0
 17 10  2  0
 19 18  1  0
 20 21  2  0
 21 40  1  0
 22 25  1  0
 22 21  1  0
 23 24  1  0
 23 20  1  0
 24 22  2  0
 25 26  1  0
 26 27  2  0
 28 31  1  0
 28 27  1  0
 29 28  2  0
 30 29  1  0
 30 25  2  0
 31 32  1  0
 32 33  1  0
 33 34  2  0
 35 34  1  0
 35 39  1  0
 36 35  2  0
 37 32  2  0
 37 36  1  0
 38 37  1  0
 40 41  1  0
 41 43  1  0
 41 44  1  0
 42 40  2  0
 45 20  1  0
 45 46  1  0
 47 45  1  0
 48 51  1  0
 48  1  1  0
 49 48  1  0
 50 48  1  0
 52 53  1  0
 52 51  1  0
 54 65  2  0
 55 53  1  0
 55 60  1  0
 56 64  1  0
 56 66  1  0
 57 59  1  0
 58 64  1  0
 59 60  2  0
 59 58  1  0
 61 55  2  0
 62 61  1  0
 62 57  2  0
 63 57  1  0
 63 56  1  0
 64 54  1  0
 66 68  2  0
 67 66  1  0
 69 67  1  0
 70 79  2  0
 70 75  1  0
 71 67  1  0
 71 75  1  0
 72 71  1  0
 73 74  1  0
 73 72  1  0
 74 70  1  0
 75 76  2  0
 76 77  1  0
 78 77  2  0
 79 78  1  0
 80 54  1  0
 80 81  1  0
 80 90  1  0
 81 84  1  0
 82 86  1  0
 82 81  1  0
 83 82  2  0
 86 85  1  0
 88 89  1  0
 88 86  1  0
 88 87  1  0
 90 93  1  1
 90 91  1  0
 92 90  1  0
M  ISO  4  10 100  19 100  52 101  53 101
M  END
>  <TORSDO>  (46) 
F 22

>  <SCORE>  (46) 
-10.954

>  <name>  (46) 
45

>  <ligand_id>  (46) 
45

>  <original_smiles>  (46) 
[H]c1c([H])c([H])c2c(c1[H])C([H])([H])C([H])([H])C([H])([H])C2([H])N([H])C(=O)C1([H])N(C(=O)C([H])(N([H])C(=O)C([H])(N([H])C([H])([H])[H])C([H])([H])[H])C(C([H])([H])[H])(C([H])([H])[H])C([H])([H])[H])C([H])([H])c2c([H])c(OC([H])([H])C([H])([H])[N+]([H])([H])C([H])([H])c3c([H])c([H])c([H])c(C([H])([H])C([H])([H])N(C(=O)N4C([H])([H])C([H])([H])C([H])([H])C([H])(n5nc(-c6c([H])c([H])c(Oc7c([H])c([H])c(F)c([H])c7F)c([H])c6[H])c(C(=O)N([H])[H])c5N([H])[H])C4([H])[H])C([H])([H])[H])c3[H])c([H])c([H])c2C1([H])[H]

>  <smiles>  (46) 
[H]c1c([H])c([H])c2c(c1[H])C([H])([H])C([H])([H])C([H])([H])C2([H])N([H])C(=O)C1([H])N(C(=O)C([H])(N([H])C(=O)C([H])(N([H])C([H])([H])[H])C([H])([H])[H])C(C([H])([H])[H])(C([H])([H])[H])C([H])([H])[H])C([H])([H])c2c([H])c(OC([H])([H])C([H])([H])[N+]([H])([H])C([H])([H])c3c([H])c([H])c([H])c(C([H])([H])C([H])([H])N(C(=O)N4C([H])([H])C([H])([H])C([H])([H])C([H])(n5nc(-c6c([H])c([H])c(Oc7c([H])c([H])c(F)c([H])c7F)c([H])c6[H])c(C(=O)N([H])[H])c5N([H])[H])C4([H])[H])C([H])([H])[H])c3[H])c([H])c([H])c2C1([H])[H]

$$$$
46:0:0
     RDKit          3D

 96104  0  0  1  0  0  0  0  0999 V2000
  -27.5480  -20.2370   19.8130 C   0  0  0  0  0  3  0  0  0  0  0  0
  -27.3370  -18.9780   19.2280 C   0  0  0  0  0  3  0  0  0  0  0  0
  -29.5680  -19.3800   20.8500 C   0  0  0  0  0  3  0  0  0  0  0  0
  -28.6870  -20.4730   20.6070 C   0  0  0  0  0  0  0  0  0  0  0  0
  -29.3770  -18.0830   20.2740 C   0  0  0  0  0  0  0  0  0  0  0  0
  -28.2470  -17.9180   19.4120 C   0  0  0  0  0  0  0  0  0  0  0  0
  -30.8250  -14.5930   20.3830 C   0  0  0  0  0  0  0  0  0  0  0  0
  -30.5480  -12.3750   19.3400 C   0  0  0  0  0  2  0  0  0  0  0  0
  -29.6120  -12.5200   18.1230 C   0  0  0  0  0  2  0  0  0  0  0  0
  -28.1410  -12.3680   18.5560 C   0  0  0  0  0  2  0  0  0  0  0  0
  -27.7850  -13.2430   19.7860 C   0  0  0  0  0  3  0  0  0  0  0  0
  -28.8430  -13.1140   20.9040 C   0  0  0  0  0  2  0  0  0  0  0  0
  -30.1550  -13.4080   20.3120 N   0  0  0  0  0  0  0  0  0  0  0  0
  -32.0160  -14.6670   20.0700 O   0  0  0  0  0  0  0  0  0  0  0  0
  -30.4350  -17.0020   20.5210 C   0  0  0  0  0  0  0  0  0  0  0  0
  -30.0490  -15.6970   20.5490 N   0  0  0  0  0  0  0  0  0  0  0  0
  -31.6020  -17.3690   20.7130 O   0  0  0  0  0  0  0  0  0  0  0  0
  -29.0510  -15.5520   20.5400 H   0  0  0  0  0  0  0  0  0  0  0  0
  -25.3980  -13.8700   20.5060 C   0  0  0  0  0  0  0  0  0  0  0  0
  -24.3270  -13.1020   20.8740 C   0  0  0  0  0  0  0  0  0  0  0  0
  -24.7800  -11.7470   20.8400 C   0  0  0  0  0  0  0  0  0  0  0  0
  -26.4350  -12.9790   20.2710 N   0  0  0  0  0  0  0  0  0  0  0  0
  -26.0690  -11.6990   20.5340 N   0  0  0  0  0  0  0  0  0  0  0  0
  -24.0480  -10.4890   21.0260 C   0  0  0  0  0  0  0  0  0  0  0  0
  -24.4610   -9.5290   21.9760 C   0  0  0  0  0  3  0  0  0  0  0  0
  -23.7320   -8.3330   22.1500 C   0  0  0  0  0  3  0  0  0  0  0  0
  -22.5770   -8.0880   21.3700 C   0  0  0  0  0  0  0  0  0  0  0  0
  -22.1840   -9.0350   20.4080 C   0  0  0  0  0  3  0  0  0  0  0  0
  -22.9130  -10.2230   20.2330 C   0  0  0  0  0  3  0  0  0  0  0  0
  -21.8230   -6.9430   21.4500 O   0  0  0  0  0  0  0  0  0  0  0  0
  -21.7230   -6.2270   22.6160 C   0  0  0  0  0  0  0  0  0  0  0  0
  -21.2030   -6.7970   23.7990 C   0  0  0  0  0  3  0  0  0  0  0  0
  -21.0530   -6.0060   24.9550 C   0  0  0  0  0  3  0  0  0  0  0  0
  -21.4150   -4.6450   24.9300 C   0  0  0  0  0  0  0  0  0  0  0  0
  -21.9280   -4.0740   23.7520 C   0  0  0  0  0  3  0  0  0  0  0  0
  -22.0780   -4.8630   22.5980 C   0  0  0  0  0  0  0  0  0  0  0  0
  -22.5540   -4.3040   21.4590 F   0  0  0  0  0  0  0  0  0  0  0  0
  -21.2640   -3.8830   26.0370 F   0  0  0  0  0  0  0  0  0  0  0  0
  -22.9300  -13.5850   21.1450 C   0  0  0  0  0  0  0  0  0  0  0  0
  -22.2000  -12.8870   22.0070 N   0  0  0  0  0  0  0  0  0  0  0  0
  -22.4960  -14.6130   20.6290 O   0  0  0  0  0  0  0  0  0  0  0  0
  -22.5650  -12.0540   22.4450 H   0  0  0  0  0  0  0  0  0  0  0  0
  -21.2630  -13.1910   22.2330 H   0  0  0  0  0  0  0  0  0  0  0  0
  -25.5740  -15.2390   20.3280 N   0  0  0  0  0  0  0  0  0  0  0  0
  -24.8090  -15.8970   20.4240 H   0  0  0  0  0  0  0  0  0  0  0  0
  -26.4100  -15.6660   19.9300 H   0  0  0  0  0  0  0  0  0  0  0  0
  -28.9100  -21.8400   21.2310 C   0  0  0  0  0  0  0  0  0  0  0  0
  -28.4650  -22.9120   20.5410 N   0  0  0  0  0  0  0  0  0  0  0  0
  -29.4820  -21.9420   22.3180 O   0  0  0  0  0  0  0  0  0  0  0  0
  -28.0550  -22.7230   19.6370 H   0  0  0  0  0  0  0  0  0  0  0  0
  -28.3870  -24.3070   21.0290 C   0  0  0  0  0  2  0  0  0  0  0  0
  -28.6510  -25.3730   19.9270 C   0  0  0  0  0  2  0  0  0  0  0  0
  -28.5180  -26.7380   20.3880 O   0  0  0  0  0  0  0  0  0  0  0  0
  -24.5290  -31.8970   23.2670 C   0  0  0  0  0  0  0  0  0  0  0  0
  -27.3120  -27.4210   20.3270 C   0  0  0  0  0  0  0  0  0  0  0  0
  -23.3880  -30.4620   21.6080 C   0  0  0  0  0  3  0  0  0  0  0  0
  -24.8990  -28.9200   20.2480 C   0  0  0  0  0  0  0  0  0  0  0  0
  -25.9170  -30.8420   21.4800 C   0  0  0  0  0  2  0  0  0  0  0  0
  -26.0340  -29.4610   20.8600 C   0  0  0  0  0  0  0  0  0  0  0  0
  -27.2410  -28.7200   20.8920 C   0  0  0  0  0  3  0  0  0  0  0  0
  -26.1470  -26.8950   19.7200 C   0  0  0  0  0  3  0  0  0  0  0  0
  -24.9510  -27.6380   19.6770 C   0  0  0  0  0  3  0  0  0  0  0  0
  -23.6460  -29.7660   20.2440 C   0  0  0  0  0  2  0  0  0  0  0  0
  -24.6270  -31.0840   22.1760 N   0  0  0  0  0  0  0  0  0  0  0  0
  -23.4290  -32.1620   23.7710 O   0  0  0  0  0  0  0  0  0  0  0  0
  -22.7170  -29.4460   22.5610 C   0  0  0  0  0  0  0  0  0  0  0  0
  -21.3950  -29.2640   22.4110 N   0  0  0  0  0  0  0  0  0  0  0  0
  -23.3850  -28.8250   23.3920 O   0  0  0  0  0  0  0  0  0  0  0  0
  -20.9190  -29.8150   21.7110 H   0  0  0  0  0  0  0  0  0  0  0  0
  -18.0060  -28.1100   22.8930 C   0  0  0  0  0  0  0  0  0  0  0  0
  -20.5650  -28.3280   23.1700 C   0  0  0  0  0  3  0  0  0  0  0  0
  -20.6480  -26.9030   22.5750 C   0  0  0  0  0  2  0  0  0  0  0  0
  -19.5420  -26.6080   21.5570 C   0  0  0  0  0  2  0  0  0  0  0  0
  -18.1630  -26.7650   22.2010 C   0  0  0  0  0  2  0  0  0  0  0  0
  -19.1340  -28.8500   23.3330 C   0  0  0  0  0  0  0  0  0  0  0  0
  -18.9330  -30.1110   23.9380 C   0  0  0  0  0  3  0  0  0  0  0  0
  -17.6360  -30.6300   24.1070 C   0  0  0  0  0  3  0  0  0  0  0  0
  -16.5220  -29.8860   23.6850 C   0  0  0  0  0  3  0  0  0  0  0  0
  -16.7070  -28.6280   23.0820 C   0  0  0  0  0  3  0  0  0  0  0  0
  -25.7880  -32.5500   23.9170 C   0  0  0  0  0  3  0  0  0  0  0  0
  -26.2670  -31.8100   25.2260 C   0  0  1  0  0  0  0  0  0  0  0  0
  -25.1390  -31.5790   26.2580 C   0  0  0  0  0  1  0  0  0  0  0  0
  -26.8790  -30.4330   24.8810 C   0  0  0  0  0  1  0  0  0  0  0  0
  -27.3840  -32.6310   25.9140 C   0  0  0  0  0  1  0  0  0  0  0  0
  -25.4600  -33.9530   24.2050 N   0  0  0  0  0  0  0  0  0  0  0  0
  -25.8190  -34.9910   23.4390 C   0  0  0  0  0  0  0  0  0  0  0  0
  -26.5330  -34.8690   22.4400 O   0  0  0  0  0  0  0  0  0  0  0  0
  -24.8300  -34.1210   24.9760 H   0  0  0  0  0  0  0  0  0  0  0  0
  -24.1170  -36.7780   22.9540 C   0  0  0  0  0  1  0  0  0  0  0  0
  -25.3070  -36.3870   23.8460 C   0  0  0  0  0  3  0  0  0  0  0  0
  -27.3830  -37.2880   24.7970 C   0  0  0  0  0  1  0  0  0  0  0  0
  -26.3460  -37.4370   23.7790 N   0  0  0  0  0  0  0  0  0  0  0  0
  -25.9310  -38.3600   23.8810 H   0  0  0  0  0  0  0  0  0  0  0  0
  -27.9770  -16.7620   18.6780 N   0  0  0  0  0  0  0  0  0  0  0  0
  -28.7800  -16.3170   18.2490 H   0  0  0  0  0  0  0  0  0  0  0  0
  -27.2560  -16.8730   17.9710 H   0  0  0  0  0  0  0  0  0  0  0  0
  1  4  1  0
  2  6  1  0
  2  1  2  0
  4  3  2  0
  4 47  1  0
  5 15  1  0
  5  3  1  0
  6  5  2  0
  7 16  1  0
  8 13  1  0
  9 10  1  0
  9  8  1  0
 11 10  1  0
 11 22  1  0
 11 12  1  0
 13  7  1  0
 13 12  1  0
 14  7  2  0
 15 16  1  0
 15 17  2  0
 18 16  1  0
 19 20  2  0
 20 39  1  0
 21 20  1  0
 21 24  1  0
 22 19  1  0
 22 23  1  0
 23 21  2  0
 24 25  1  0
 25 26  2  0
 27 30  1  0
 27 26  1  0
 28 27  2  0
 29 28  1  0
 29 24  2  0
 30 31  1  0
 31 32  1  0
 32 33  2  0
 34 33  1  0
 34 38  1  0
 35 34  2  0
 36 31  2  0
 36 35  1  0
 37 36  1  0
 39 40  1  0
 40 43  1  0
 40 42  1  0
 41 39  2  0
 44 45  1  0
 44 19  1  0
 46 44  1  0
 47 49  2  0
 48 51  1  0
 48 47  1  0
 50 48  1  0
 52 53  1  0
 52 51  1  0
 54 65  2  0
 55 53  1  0
 55 60  1  0
 56 64  1  0
 56 66  1  0
 57 59  1  0
 58 64  1  0
 59 60  2  0
 59 58  1  0
 61 55  2  0
 62 61  1  0
 62 57  2  0
 63 57  1  0
 63 56  1  0
 64 54  1  0
 66 68  2  0
 67 66  1  0
 69 67  1  0
 70 79  2  0
 70 75  1  0
 71 67  1  0
 71 75  1  0
 72 71  1  0
 73 74  1  0
 73 72  1  0
 74 70  1  0
 75 76  2  0
 76 77  1  0
 78 77  2  0
 79 78  1  0
 80 54  1  0
 80 85  1  0
 80 81  1  0
 81 84  1  1
 81 82  1  0
 83 81  1  0
 85 88  1  0
 86 90  1  0
 86 85  1  0
 87 86  2  0
 90 89  1  0
 92 90  1  0
 92 93  1  0
 92 91  1  0
 94  6  1  0
 95 94  1  0
 96 94  1  0
M  ISO  4   7 100  16 100  52 101  53 101
M  END
>  <TORSDO>  (47) 
F 20

>  <SCORE>  (47) 
-14.494

>  <name>  (47) 
46

>  <ligand_id>  (47) 
46

>  <original_smiles>  (47) 
[H]c1c([H])c([H])c2c(c1[H])C([H])([H])C([H])([H])C([H])([H])C2([H])N([H])C(=O)C1([H])N(C(=O)C([H])(N([H])C(=O)C([H])(N([H])C([H])([H])[H])C([H])([H])[H])C(C([H])([H])[H])(C([H])([H])[H])C([H])([H])[H])C([H])([H])c2c([H])c(OC([H])([H])C([H])([H])N([H])C(=O)c3c([H])c([H])c(N([H])[H])c(C(=O)N([H])C(=O)N4C([H])([H])C([H])([H])C([H])([H])C([H])(n5nc(-c6c([H])c([H])c(Oc7c([H])c([H])c(F)c([H])c7F)c([H])c6[H])c(C(=O)N([H])[H])c5N([H])[H])C4([H])[H])c3[H])c([H])c([H])c2C1([H])[H]

>  <smiles>  (47) 
[H]c1c([H])c([H])c2c(c1[H])C([H])([H])C([H])([H])C([H])([H])C2([H])N([H])C(=O)C1([H])N(C(=O)C([H])(N([H])C(=O)C([H])(N([H])C([H])([H])[H])C([H])([H])[H])C(C([H])([H])[H])(C([H])([H])[H])C([H])([H])[H])C([H])([H])c2c([H])c(OC([H])([H])C([H])([H])N([H])C(=O)c3c([H])c([H])c(N([H])[H])c(C(=O)N([H])C(=O)N4C([H])([H])C([H])([H])C([H])([H])C([H])(n5nc(-c6c([H])c([H])c(Oc7c([H])c([H])c(F)c([H])c7F)c([H])c6[H])c(C(=O)N([H])[H])c5N([H])[H])C4([H])[H])c3[H])c([H])c([H])c2C1([H])[H]

$$$$
47:0:0
     RDKit          3D

 96104  0  0  1  0  0  0  0  0999 V2000
  -28.7810  -23.4310   17.7300 C   0  0  0  0  0  3  0  0  0  0  0  0
  -28.5660  -23.5170   20.4560 C   0  0  0  0  0  3  0  0  0  0  0  0
  -29.0370  -22.2350   18.4430 C   0  0  0  0  0  0  0  0  0  0  0  0
  -28.8990  -22.1730   19.8640 C   0  0  0  0  0  0  0  0  0  0  0  0
  -28.4710  -24.6680   18.3320 C   0  0  0  0  0  0  0  0  0  0  0  0
  -28.3450  -24.8160   19.7330 C   0  0  0  0  0  0  0  0  0  0  0  0
  -29.5170  -21.0740   17.6160 C   0  0  0  0  0  0  0  0  0  0  0  0
  -31.4490  -19.5810   17.1650 C   0  0  0  0  0  1  0  0  0  0  0  0
  -30.7760  -20.6800   17.8490 N   0  0  0  0  0  0  0  0  0  0  0  0
  -28.7980  -20.5730   16.7510 O   0  0  0  0  0  0  0  0  0  0  0  0
  -31.2960  -21.1750   18.5590 H   0  0  0  0  0  0  0  0  0  0  0  0
  -28.3630  -25.7790   17.4940 N   0  0  0  0  0  0  0  0  0  0  0  0
  -28.1260  -25.6310   16.5180 H   0  0  0  0  0  0  0  0  0  0  0  0
  -27.9340  -26.6090   17.8890 H   0  0  0  0  0  0  0  0  0  0  0  0
  -28.2470  -26.2070   20.2440 O   0  0  0  0  0  0  0  0  0  0  0  0
  -24.6030  -31.9100   23.2030 C   0  0  0  0  0  0  0  0  0  0  0  0
  -27.1720  -27.1790   20.1480 C   0  0  0  0  0  0  0  0  0  0  0  0
  -23.3920  -30.5020   21.5800 C   0  0  0  0  0  3  0  0  0  0  0  0
  -24.8290  -28.9210   20.1430 C   0  0  0  0  0  0  0  0  0  0  0  0
  -25.9410  -30.7740   21.3840 C   0  0  0  0  0  2  0  0  0  0  0  0
  -26.0130  -29.3760   20.7370 C   0  0  0  0  0  0  0  0  0  0  0  0
  -27.1810  -28.5190   20.7230 C   0  0  0  0  0  3  0  0  0  0  0  0
  -25.9560  -26.8260   19.5250 C   0  0  0  0  0  3  0  0  0  0  0  0
  -24.8150  -27.6620   19.5210 C   0  0  0  0  0  3  0  0  0  0  0  0
  -23.6000  -29.8150   20.2040 C   0  0  0  0  0  2  0  0  0  0  0  0
  -24.6660  -31.0860   22.1110 N   0  0  0  0  0  0  0  0  0  0  0  0
  -23.5210  -32.1950   23.7410 O   0  0  0  0  0  0  0  0  0  0  0  0
  -22.7240  -29.5030   22.5550 C   0  0  0  0  0  0  0  0  0  0  0  0
  -21.3980  -29.3090   22.4240 N   0  0  0  0  0  0  0  0  0  0  0  0
  -23.3980  -28.9010   23.3940 O   0  0  0  0  0  0  0  0  0  0  0  0
  -20.9090  -29.8410   21.7150 H   0  0  0  0  0  0  0  0  0  0  0  0
  -18.0390  -28.0310   22.9000 C   0  0  0  0  0  0  0  0  0  0  0  0
  -20.5860  -28.3690   23.2020 C   0  0  0  0  0  3  0  0  0  0  0  0
  -20.7350  -26.9280   22.6610 C   0  0  0  0  0  2  0  0  0  0  0  0
  -19.6590  -26.5540   21.6360 C   0  0  0  0  0  2  0  0  0  0  0  0
  -18.2630  -26.6740   22.2540 C   0  0  0  0  0  2  0  0  0  0  0  0
  -19.1300  -28.8340   23.3300 C   0  0  0  0  0  0  0  0  0  0  0  0
  -18.8650  -30.1010   23.8940 C   0  0  0  0  0  3  0  0  0  0  0  0
  -17.5440  -30.5690   24.0280 C   0  0  0  0  0  3  0  0  0  0  0  0
  -16.4680  -29.7630   23.6120 C   0  0  0  0  0  3  0  0  0  0  0  0
  -16.7160  -28.4960   23.0550 C   0  0  0  0  0  3  0  0  0  0  0  0
  -25.8850  -32.5510   23.8180 C   0  0  0  0  0  3  0  0  0  0  0  0
  -25.5730  -33.9510   24.1500 N   0  0  0  0  0  0  0  0  0  0  0  0
  -25.9030  -35.0060   23.3960 C   0  0  0  0  0  0  0  0  0  0  0  0
  -26.5710  -34.9050   22.3630 O   0  0  0  0  0  0  0  0  0  0  0  0
  -24.9770  -34.1030   24.9500 H   0  0  0  0  0  0  0  0  0  0  0  0
  -24.1880  -36.8140   23.0440 C   0  0  0  0  0  1  0  0  0  0  0  0
  -25.4210  -36.3960   23.8590 C   0  0  0  0  0  3  0  0  0  0  0  0
  -27.5510  -37.2690   24.7140 C   0  0  0  0  0  1  0  0  0  0  0  0
  -26.4600  -37.4440   23.7590 N   0  0  0  0  0  0  0  0  0  0  0  0
  -26.0570  -38.3660   23.9050 H   0  0  0  0  0  0  0  0  0  0  0  0
  -26.4040  -31.7860   25.0980 C   0  0  1  0  0  0  0  0  0  0  0  0
  -25.3150  -31.5510   26.1700 C   0  0  0  0  0  1  0  0  0  0  0  0
  -26.9850  -30.4060   24.7140 C   0  0  0  0  0  1  0  0  0  0  0  0
  -27.5620  -32.5820   25.7480 C   0  0  0  0  0  1  0  0  0  0  0  0
  -29.2840  -20.7520   20.6730 C   0  0  0  0  0  2  0  0  0  0  0  0
  -28.9930  -19.1040   20.2750 C   0  0  0  0  0  3  0  0  0  0  0  0
  -29.9390  -17.7650   20.7430 C   0  0  0  0  0  3  0  0  0  0  0  0
  -30.4210  -15.0460   20.3640 C   0  0  0  0  0  0  0  0  0  0  0  0
  -30.3370  -12.6980   19.3740 C   0  0  0  0  0  2  0  0  0  0  0  0
  -29.4030  -12.6600   18.1430 C   0  0  0  0  0  2  0  0  0  0  0  0
  -27.9460  -12.4160   18.5810 C   0  0  0  0  0  2  0  0  0  0  0  0
  -27.5290  -13.3200   19.7720 C   0  0  0  0  0  3  0  0  0  0  0  0
  -28.5860  -13.3350   20.8950 C   0  0  0  0  0  2  0  0  0  0  0  0
  -29.8450  -13.7760   20.2820 N   0  0  0  0  0  0  0  0  0  0  0  0
  -31.6290  -15.1290   20.1180 O   0  0  0  0  0  0  0  0  0  0  0  0
  -29.6200  -16.2180   20.5270 N   0  0  0  0  0  0  0  0  0  0  0  0
  -28.6370  -16.0010   20.6110 H   0  0  0  0  0  0  0  0  0  0  0  0
  -25.1420  -13.8510   20.5160 C   0  0  0  0  0  0  0  0  0  0  0  0
  -24.0940  -13.0550   20.8870 C   0  0  0  0  0  0  0  0  0  0  0  0
  -24.5850  -11.7130   20.8530 C   0  0  0  0  0  0  0  0  0  0  0  0
  -26.2000  -12.9940   20.2740 N   0  0  0  0  0  0  0  0  0  0  0  0
  -25.8760  -11.7030   20.5390 N   0  0  0  0  0  0  0  0  0  0  0  0
  -23.8830  -10.4370   21.0390 C   0  0  0  0  0  0  0  0  0  0  0  0
  -24.3250   -9.4830   21.9800 C   0  0  0  0  0  3  0  0  0  0  0  0
  -23.6220   -8.2730   22.1550 C   0  0  0  0  0  3  0  0  0  0  0  0
  -22.4620   -8.0080   21.3880 C   0  0  0  0  0  0  0  0  0  0  0  0
  -22.0390   -8.9520   20.4360 C   0  0  0  0  0  3  0  0  0  0  0  0
  -22.7430  -10.1560   20.2610 C   0  0  0  0  0  3  0  0  0  0  0  0
  -21.7290   -6.8490   21.4720 O   0  0  0  0  0  0  0  0  0  0  0  0
  -21.6710   -6.1140   22.6280 C   0  0  0  0  0  0  0  0  0  0  0  0
  -21.1870   -6.6630   23.8360 C   0  0  0  0  0  3  0  0  0  0  0  0
  -21.0850   -5.8530   24.9840 C   0  0  0  0  0  3  0  0  0  0  0  0
  -21.4510   -4.4950   24.9240 C   0  0  0  0  0  0  0  0  0  0  0  0
  -21.9250   -3.9460   23.7190 C   0  0  0  0  0  3  0  0  0  0  0  0
  -22.0330   -4.7530   22.5740 C   0  0  0  0  0  0  0  0  0  0  0  0
  -22.4720   -4.2140   21.4110 F   0  0  0  0  0  0  0  0  0  0  0  0
  -21.3420   -3.7140   26.0240 F   0  0  0  0  0  0  0  0  0  0  0  0
  -22.6900  -13.5040   21.1590 C   0  0  0  0  0  0  0  0  0  0  0  0
  -21.9750  -12.7850   22.0140 N   0  0  0  0  0  0  0  0  0  0  0  0
  -22.2350  -14.5270   20.6460 O   0  0  0  0  0  0  0  0  0  0  0  0
  -22.3540  -11.9550   22.4440 H   0  0  0  0  0  0  0  0  0  0  0  0
  -21.0290  -13.0630   22.2390 H   0  0  0  0  0  0  0  0  0  0  0  0
  -25.2800  -15.2250   20.3350 N   0  0  0  0  0  0  0  0  0  0  0  0
  -24.4940  -15.8590   20.4340 H   0  0  0  0  0  0  0  0  0  0  0  0
  -26.0910  -15.6690   19.9250 H   0  0  0  0  0  0  0  0  0  0  0  0
  1  5  2  0
  1  3  1  0
  3  4  2  0
  4  2  1  0
  4 56  1  0
  5  6  1  0
  6 15  1  0
  6  2  2  0
  7  9  1  0
  7  3  1  0
  8  9  1  0
  9 11  1  0
 10  7  2  0
 12 14  1  0
 12  5  1  0
 13 12  1  0
 16 27  2  0
 17 15  1  0
 17 22  1  0
 18 26  1  0
 18 28  1  0
 19 25  1  0
 19 21  1  0
 20 26  1  0
 21 20  1  0
 22 21  2  0
 23 17  2  0
 24 23  1  0
 24 19  2  0
 25 18  1  0
 26 16  1  0
 28 30  2  0
 29 28  1  0
 31 29  1  0
 32 41  2  0
 32 37  1  0
 33 29  1  0
 33 37  1  0
 34 33  1  0
 35 36  1  0
 35 34  1  0
 36 32  1  0
 37 38  2  0
 38 39  1  0
 40 39  2  0
 41 40  1  0
 42 16  1  0
 42 43  1  0
 42 52  1  0
 43 46  1  0
 44 48  1  0
 44 43  1  0
 45 44  2  0
 48 47  1  0
 50 48  1  0
 50 51  1  0
 50 49  1  0
 52 55  1  1
 52 53  1  0
 54 52  1  0
 57 56  1  0
 57 58  2  0
 59 67  1  0
 60 65  1  0
 61 62  1  0
 61 60  1  0
 63 62  1  0
 63 72  1  0
 63 64  1  0
 65 59  1  0
 65 64  1  0
 66 59  2  0
 67 68  1  0
 67 58  1  0
 69 70  2  0
 70 89  1  0
 71 70  1  0
 71 74  1  0
 72 69  1  0
 72 73  1  0
 73 71  2  0
 74 75  1  0
 75 76  2  0
 77 80  1  0
 77 76  1  0
 78 77  2  0
 79 78  1  0
 79 74  2  0
 80 81  1  0
 81 82  1  0
 82 83  2  0
 84 83  1  0
 84 88  1  0
 85 84  2  0
 86 81  2  0
 86 85  1  0
 87 86  1  0
 89 90  1  0
 90 93  1  0
 90 92  1  0
 91 89  2  0
 94 95  1  0
 94 69  1  0
 96 94  1  0
M  ISO  4   6 101  15 101  59 100  67 100
M  END
>  <TORSDO>  (48) 
F 21

>  <SCORE>  (48) 
-15.062

>  <name>  (48) 
47

>  <ligand_id>  (48) 
47

>  <original_smiles>  (48) 
[H]c1c([H])c([H])c2c(c1[H])C([H])([H])C([H])([H])C([H])([H])C2([H])N([H])C(=O)C1([H])N(C(=O)C([H])(N([H])C(=O)C([H])(N([H])C([H])([H])[H])C([H])([H])[H])C(C([H])([H])[H])(C([H])([H])[H])C([H])([H])[H])C([H])([H])c2c([H])c(Oc3c([H])c(C([H])([H])C([H])([H])C([H])([H])N([H])C(=O)N4C([H])([H])C([H])([H])C([H])([H])C([H])(n5nc(-c6c([H])c([H])c(Oc7c([H])c([H])c(F)c([H])c7F)c([H])c6[H])c(C(=O)N([H])[H])c5N([H])[H])C4([H])[H])c(C(=O)N([H])C([H])([H])[H])c([H])c3N([H])[H])c([H])c([H])c2C1([H])[H]

>  <smiles>  (48) 
[H]c1c([H])c([H])c2c(c1[H])C([H])([H])C([H])([H])C([H])([H])C2([H])N([H])C(=O)C1([H])N(C(=O)C([H])(N([H])C(=O)C([H])(N([H])C([H])([H])[H])C([H])([H])[H])C(C([H])([H])[H])(C([H])([H])[H])C([H])([H])[H])C([H])([H])c2c([H])c(Oc3c([H])c(C([H])([H])C([H])([H])C([H])([H])N([H])C(=O)N4C([H])([H])C([H])([H])C([H])([H])C([H])(n5nc(-c6c([H])c([H])c(Oc7c([H])c([H])c(F)c([H])c7F)c([H])c6[H])c(C(=O)N([H])[H])c5N([H])[H])C4([H])[H])c(C(=O)N([H])C([H])([H])[H])c([H])c3N([H])[H])c([H])c([H])c2C1([H])[H]

$$$$
48:0:0
     RDKit          3D

 92100  0  0  1  0  0  0  0  0999 V2000
  -28.9400  -21.6640   20.4540 C   0  0  0  0  0  0  0  0  0  0  0  0
  -28.9910  -22.8700   19.8490 N   0  0  0  0  0  0  0  0  0  0  0  0
  -29.0180  -21.5340   21.6780 O   0  0  0  0  0  0  0  0  0  0  0  0
  -28.9670  -22.8550   18.8390 H   0  0  0  0  0  0  0  0  0  0  0  0
  -28.2650  -19.4640   17.3830 C   0  0  0  0  0  3  0  0  0  0  0  0
  -28.7980  -18.2310   17.7850 C   0  0  0  0  0  3  0  0  0  0  0  0
  -28.2760  -20.5600   18.2650 C   0  0  0  0  0  3  0  0  0  0  0  0
  -29.3630  -19.1690   19.9630 C   0  0  0  0  0  3  0  0  0  0  0  0
  -29.3560  -18.0560   19.0670 C   0  0  0  0  0  0  0  0  0  0  0  0
  -28.8560  -20.4430   19.5520 C   0  0  0  0  0  0  0  0  0  0  0  0
  -29.9830  -16.7230   19.2760 C   0  0  0  0  0  3  0  0  0  0  0  0
  -30.0250  -15.8560   20.3210 C   0  0  0  0  0  0  0  0  0  0  0  0
  -29.3580  -16.1220   21.6610 C   0  0  0  0  0  1  0  0  0  0  0  0
  -30.8180  -14.6280   20.0780 C   0  0  0  0  0  0  0  0  0  0  0  0
  -30.4800  -12.4620   18.9600 C   0  0  0  0  0  2  0  0  0  0  0  0
  -29.4900  -12.6980   17.7970 C   0  0  0  0  0  2  0  0  0  0  0  0
  -28.0210  -12.6030   18.2650 C   0  0  0  0  0  2  0  0  0  0  0  0
  -27.7550  -13.3580   19.5950 C   0  0  0  0  0  3  0  0  0  0  0  0
  -28.8670  -13.0920   20.6300 C   0  0  0  0  0  2  0  0  0  0  0  0
  -30.1500  -13.4370   20.0110 N   0  0  0  0  0  0  0  0  0  0  0  0
  -31.9800  -14.7240   19.6760 O   0  0  0  0  0  0  0  0  0  0  0  0
  -25.3920  -13.9430   20.4190 C   0  0  0  0  0  0  0  0  0  0  0  0
  -24.3400  -13.1640   20.8190 C   0  0  0  0  0  0  0  0  0  0  0  0
  -24.7980  -11.8130   20.7410 C   0  0  0  0  0  0  0  0  0  0  0  0
  -26.4250  -13.0660   20.1280 N   0  0  0  0  0  0  0  0  0  0  0  0
  -26.0740  -11.7760   20.3740 N   0  0  0  0  0  0  0  0  0  0  0  0
  -24.0740  -10.5480   20.9430 C   0  0  0  0  0  0  0  0  0  0  0  0
  -24.5270   -9.5830   21.8690 C   0  0  0  0  0  3  0  0  0  0  0  0
  -23.8070   -8.3840   22.0600 C   0  0  0  0  0  3  0  0  0  0  0  0
  -22.6210   -8.1410   21.3280 C   0  0  0  0  0  0  0  0  0  0  0  0
  -22.1910   -9.0940   20.3870 C   0  0  0  0  0  3  0  0  0  0  0  0
  -22.9100  -10.2840   20.1950 C   0  0  0  0  0  3  0  0  0  0  0  0
  -21.8730   -6.9930   21.4240 O   0  0  0  0  0  0  0  0  0  0  0  0
  -21.8020   -6.2720   22.5890 C   0  0  0  0  0  0  0  0  0  0  0  0
  -21.3460   -6.8490   23.7950 C   0  0  0  0  0  3  0  0  0  0  0  0
  -21.2280   -6.0580   24.9540 C   0  0  0  0  0  3  0  0  0  0  0  0
  -21.5530   -4.6880   24.9090 C   0  0  0  0  0  0  0  0  0  0  0  0
  -21.9950   -4.1090   23.7050 C   0  0  0  0  0  3  0  0  0  0  0  0
  -22.1170   -4.8990   22.5500 C   0  0  0  0  0  0  0  0  0  0  0  0
  -22.5270   -4.3320   21.3900 F   0  0  0  0  0  0  0  0  0  0  0  0
  -21.4300   -3.9250   26.0190 F   0  0  0  0  0  0  0  0  0  0  0  0
  -22.9560  -13.6340   21.1680 C   0  0  0  0  0  0  0  0  0  0  0  0
  -22.2730  -12.9240   22.0590 N   0  0  0  0  0  0  0  0  0  0  0  0
  -22.4940  -14.6670   20.6830 O   0  0  0  0  0  0  0  0  0  0  0  0
  -22.6710  -12.0950   22.4780 H   0  0  0  0  0  0  0  0  0  0  0  0
  -21.3420  -13.2110   22.3230 H   0  0  0  0  0  0  0  0  0  0  0  0
  -25.5470  -15.3170   20.2550 N   0  0  0  0  0  0  0  0  0  0  0  0
  -24.7920  -15.9720   20.4150 H   0  0  0  0  0  0  0  0  0  0  0  0
  -26.3920  -15.7600   19.9150 H   0  0  0  0  0  0  0  0  0  0  0  0
  -29.1540  -24.2020   20.4800 C   0  0  0  0  0  2  0  0  0  0  0  0
  -28.0410  -25.1960   20.0570 C   0  0  0  0  0  2  0  0  0  0  0  0
  -28.2660  -26.6010   20.3540 O   0  0  0  0  0  0  0  0  0  0  0  0
  -24.5900  -31.9580   23.3300 C   0  0  0  0  0  0  0  0  0  0  0  0
  -27.1460  -27.4260   20.2820 C   0  0  0  0  0  0  0  0  0  0  0  0
  -23.3680  -30.5760   21.6870 C   0  0  0  0  0  3  0  0  0  0  0  0
  -24.7980  -29.0250   20.2560 C   0  0  0  0  0  0  0  0  0  0  0  0
  -25.9030  -30.8840   21.4990 C   0  0  0  0  0  2  0  0  0  0  0  0
  -25.9650  -29.5080   20.8590 C   0  0  0  0  0  0  0  0  0  0  0  0
  -27.1450  -28.7210   20.8650 C   0  0  0  0  0  3  0  0  0  0  0  0
  -25.9610  -26.9870   19.6440 C   0  0  0  0  0  3  0  0  0  0  0  0
  -24.7970  -27.7700   19.6330 C   0  0  0  0  0  3  0  0  0  0  0  0
  -23.5750  -29.9140   20.2990 C   0  0  0  0  0  2  0  0  0  0  0  0
  -24.6390  -31.1540   22.2310 N   0  0  0  0  0  0  0  0  0  0  0  0
  -23.5100  -32.2450   23.8660 O   0  0  0  0  0  0  0  0  0  0  0  0
  -22.7010  -29.5590   22.6440 C   0  0  0  0  0  0  0  0  0  0  0  0
  -21.3740  -29.3870   22.5060 N   0  0  0  0  0  0  0  0  0  0  0  0
  -23.3700  -28.9350   23.4710 O   0  0  0  0  0  0  0  0  0  0  0  0
  -20.8920  -29.9470   21.8170 H   0  0  0  0  0  0  0  0  0  0  0  0
  -17.9930  -28.1970   22.9690 C   0  0  0  0  0  0  0  0  0  0  0  0
  -20.5460  -28.4580   23.2760 C   0  0  0  0  0  3  0  0  0  0  0  0
  -20.6570  -27.0180   22.7250 C   0  0  0  0  0  2  0  0  0  0  0  0
  -19.5700  -26.6800   21.6990 C   0  0  0  0  0  2  0  0  0  0  0  0
  -18.1790  -26.8380   22.3180 C   0  0  0  0  0  2  0  0  0  0  0  0
  -19.1040  -28.9630   23.4070 C   0  0  0  0  0  0  0  0  0  0  0  0
  -18.8770  -30.2360   23.9790 C   0  0  0  0  0  3  0  0  0  0  0  0
  -17.5700  -30.7390   24.1190 C   0  0  0  0  0  3  0  0  0  0  0  0
  -16.4720  -29.9710   23.6930 C   0  0  0  0  0  3  0  0  0  0  0  0
  -16.6840  -28.7020   23.1230 C   0  0  0  0  0  3  0  0  0  0  0  0
  -25.8840  -32.5740   23.9500 C   0  0  0  0  0  3  0  0  0  0  0  0
  -26.3790  -31.8120   25.2410 C   0  0  1  0  0  0  0  0  0  0  0  0
  -25.2780  -31.6050   26.3050 C   0  0  0  0  0  1  0  0  0  0  0  0
  -26.9500  -30.4220   24.8730 C   0  0  0  0  0  1  0  0  0  0  0  0
  -27.5300  -32.6000   25.9110 C   0  0  0  0  0  1  0  0  0  0  0  0
  -25.5910  -33.9800   24.2570 N   0  0  0  0  0  0  0  0  0  0  0  0
  -25.9130  -35.0180   23.4720 C   0  0  0  0  0  0  0  0  0  0  0  0
  -26.5640  -34.8920   22.4320 O   0  0  0  0  0  0  0  0  0  0  0  0
  -25.0100  -34.1500   25.0650 H   0  0  0  0  0  0  0  0  0  0  0  0
  -24.1830  -36.8200   23.1270 C   0  0  0  0  0  1  0  0  0  0  0  0
  -25.4420  -36.4170   23.9130 C   0  0  0  0  0  3  0  0  0  0  0  0
  -27.6020  -37.3150   24.6680 C   0  0  0  0  0  1  0  0  0  0  0  0
  -26.4730  -37.4640   23.7550 N   0  0  0  0  0  0  0  0  0  0  0  0
  -26.0700  -38.3860   23.8960 H   0  0  0  0  0  0  0  0  0  0  0  0
  1  3  2  0
  2  1  1  0
  2 50  1  0
  4  2  1  0
  5  6  2  0
  5  7  1  0
  6  9  1  0
  7 10  2  0
  9 11  1  0
  9  8  2  0
 10  8  1  0
 10  1  1  0
 11 12  2  0
 12 13  1  0
 14 12  1  0
 15 20  1  0
 16 17  1  0
 16 15  1  0
 18 17  1  0
 18 25  1  0
 18 19  1  0
 20 14  1  0
 20 19  1  0
 21 14  2  0
 22 23  2  0
 23 42  1  0
 24 23  1  0
 24 27  1  0
 25 26  1  0
 25 22  1  0
 26 24  2  0
 27 28  1  0
 28 29  2  0
 30 33  1  0
 30 29  1  0
 31 30  2  0
 32 31  1  0
 32 27  2  0
 33 34  1  0
 34 35  1  0
 35 36  2  0
 37 36  1  0
 37 41  1  0
 38 37  2  0
 39 34  2  0
 39 38  1  0
 40 39  1  0
 42 43  1  0
 43 46  1  0
 43 45  1  0
 44 42  2  0
 47 48  1  0
 47 22  1  0
 49 47  1  0
 51 52  1  0
 51 50  1  0
 53 64  2  0
 54 52  1  0
 54 59  1  0
 55 63  1  0
 55 65  1  0
 56 62  1  0
 56 58  1  0
 57 63  1  0
 58 59  2  0
 58 57  1  0
 60 54  2  0
 61 60  1  0
 61 56  2  0
 62 55  1  0
 63 53  1  0
 65 67  2  0
 66 65  1  0
 68 66  1  0
 69 78  2  0
 69 74  1  0
 70 66  1  0
 70 74  1  0
 71 70  1  0
 72 73  1  0
 72 71  1  0
 73 69  1  0
 74 75  2  0
 75 76  1  0
 77 76  2  0
 78 77  1  0
 79 53  1  0
 79 84  1  0
 79 80  1  0
 80 83  1  1
 80 81  1  0
 82 80  1  0
 84 87  1  0
 85 89  1  0
 85 84  1  0
 86 85  2  0
 89 88  1  0
 91 92  1  0
 91 89  1  0
 91 90  1  0
M  ISO  4  12 100  14 100  51 101  52 101
M  END
>  <TORSDO>  (49) 
F 20

>  <SCORE>  (49) 
-13.654

>  <name>  (49) 
48

>  <ligand_id>  (49) 
48

>  <original_smiles>  (49) 
[H]C(=C(C(=O)N1C([H])([H])C([H])([H])C([H])([H])C([H])(n2nc(-c3c([H])c([H])c(Oc4c([H])c([H])c(F)c([H])c4F)c([H])c3[H])c(C(=O)N([H])[H])c2N([H])[H])C1([H])[H])C([H])([H])[H])c1c([H])c([H])c([H])c(C(=O)N([H])C([H])([H])C([H])([H])Oc2c([H])c([H])c3c(c2[H])C([H])([H])N(C(=O)C([H])(N([H])C(=O)C([H])(N([H])C([H])([H])[H])C([H])([H])[H])C(C([H])([H])[H])(C([H])([H])[H])C([H])([H])[H])C([H])(C(=O)N([H])C2([H])c4c([H])c([H])c([H])c([H])c4C([H])([H])C([H])([H])C2([H])[H])C3([H])[H])c1[H]

>  <smiles>  (49) 
[H]C(=C(C(=O)N1C([H])([H])C([H])([H])C([H])([H])C([H])(n2nc(-c3c([H])c([H])c(Oc4c([H])c([H])c(F)c([H])c4F)c([H])c3[H])c(C(=O)N([H])[H])c2N([H])[H])C1([H])[H])C([H])([H])[H])c1c([H])c([H])c([H])c(C(=O)N([H])C([H])([H])C([H])([H])Oc2c([H])c([H])c3c(c2[H])C([H])([H])N(C(=O)C([H])(N([H])C(=O)C([H])(N([H])C([H])([H])[H])C([H])([H])[H])C(C([H])([H])[H])(C([H])([H])[H])C([H])([H])[H])C([H])(C(=O)N([H])C2([H])c4c([H])c([H])c([H])c([H])c4C([H])([H])C([H])([H])C2([H])[H])C3([H])[H])c1[H]

$$$$
49:0:0
     RDKit          3D

 92102  0  0  1  0  0  0  0  0999 V2000
  -28.2470  -23.3290   17.6960 C   0  0  0  0  0  3  0  0  0  0  0  0
  -28.5830  -22.1150   18.3460 C   0  0  0  0  0  3  0  0  0  0  0  0
  -28.1250  -24.5750   18.3710 C   0  0  0  0  0  3  0  0  0  0  0  0
  -28.8010  -22.1050   19.7310 C   0  0  0  0  0  0  0  0  0  0  0  0
  -28.6320  -23.4010   20.4090 C   0  0  0  0  0  0  0  0  0  0  0  0
  -28.2940  -24.7400   19.7700 C   0  0  0  0  0  0  0  0  0  0  0  0
  -28.8710  -23.0360   21.8670 C   0  0  0  0  0  2  0  0  0  0  0  0
  -28.8600  -21.4410   21.9640 C   0  0  0  0  0  2  0  0  0  0  0  0
  -30.9650  -18.8460   20.9160 C   0  0  0  0  0  2  0  0  0  0  0  0
  -30.7430  -20.3800   20.5530 C   0  0  0  0  0  2  0  0  0  0  0  0
  -28.7050  -19.1930   20.3380 C   0  0  0  0  0  2  0  0  0  0  0  0
  -29.8770  -18.0010   20.2140 C   0  0  0  0  0  3  0  0  0  0  0  0
  -29.2300  -20.7740   20.5890 C   0  0  2  0  0  0  0  0  0  0  0  0
  -30.5380  -15.2280   20.4480 C   0  0  0  0  0  0  0  0  0  0  0  0
  -30.5210  -12.8180   19.5900 C   0  0  0  0  0  2  0  0  0  0  0  0
  -29.6260  -12.6830   18.3350 C   0  0  0  0  0  2  0  0  0  0  0  0
  -28.1560  -12.4450   18.7310 C   0  0  0  0  0  2  0  0  0  0  0  0
  -27.6940  -13.3960   19.8660 C   0  0  0  0  0  3  0  0  0  0  0  0
  -28.7170  -13.4830   21.0180 C   0  0  0  0  0  2  0  0  0  0  0  0
  -29.9850  -13.9370   20.4320 N   0  0  0  0  0  0  0  0  0  0  0  0
  -31.7410  -15.2930   20.1660 O   0  0  0  0  0  0  0  0  0  0  0  0
  -29.7310  -16.4230   20.5770 N   0  0  0  0  0  0  0  0  0  0  0  0
  -28.7820  -16.1780   20.8190 H   0  0  0  0  0  0  0  0  0  0  0  0
  -25.3000  -13.9510   20.5620 C   0  0  0  0  0  0  0  0  0  0  0  0
  -24.2360  -13.1690   20.9130 C   0  0  0  0  0  0  0  0  0  0  0  0
  -24.7110  -11.8210   20.8900 C   0  0  0  0  0  0  0  0  0  0  0  0
  -26.3530  -13.0820   20.3400 N   0  0  0  0  0  0  0  0  0  0  0  0
  -26.0080  -11.7950   20.6050 N   0  0  0  0  0  0  0  0  0  0  0  0
  -23.9900  -10.5540   21.0670 C   0  0  0  0  0  0  0  0  0  0  0  0
  -24.3990   -9.5930   22.0170 C   0  0  0  0  0  3  0  0  0  0  0  0
  -23.6730   -8.3930   22.1800 C   0  0  0  0  0  3  0  0  0  0  0  0
  -22.5240   -8.1460   21.3930 C   0  0  0  0  0  0  0  0  0  0  0  0
  -22.1340   -9.0950   20.4310 C   0  0  0  0  0  3  0  0  0  0  0  0
  -22.8620  -10.2860   20.2660 C   0  0  0  0  0  3  0  0  0  0  0  0
  -21.7720   -6.9970   21.4650 O   0  0  0  0  0  0  0  0  0  0  0  0
  -21.6790   -6.2700   22.6250 C   0  0  0  0  0  0  0  0  0  0  0  0
  -21.1560   -6.8270   23.8130 C   0  0  0  0  0  3  0  0  0  0  0  0
  -21.0110   -6.0230   24.9620 C   0  0  0  0  0  3  0  0  0  0  0  0
  -21.3810   -4.6650   24.9230 C   0  0  0  0  0  0  0  0  0  0  0  0
  -21.8970   -4.1090   23.7400 C   0  0  0  0  0  3  0  0  0  0  0  0
  -22.0420   -4.9090   22.5930 C   0  0  0  0  0  0  0  0  0  0  0  0
  -22.5200   -4.3620   21.4490 F   0  0  0  0  0  0  0  0  0  0  0  0
  -21.2360   -3.8910   26.0240 F   0  0  0  0  0  0  0  0  0  0  0  0
  -22.8310  -13.6380   21.1530 C   0  0  0  0  0  0  0  0  0  0  0  0
  -22.0870  -12.9370   22.0010 N   0  0  0  0  0  0  0  0  0  0  0  0
  -22.3990  -14.6610   20.6220 O   0  0  0  0  0  0  0  0  0  0  0  0
  -22.4490  -12.1090   22.4510 H   0  0  0  0  0  0  0  0  0  0  0  0
  -21.1440  -13.2330   22.2060 H   0  0  0  0  0  0  0  0  0  0  0  0
  -25.4570  -15.3240   20.3860 N   0  0  0  0  0  0  0  0  0  0  0  0
  -24.6790  -15.9690   20.4740 H   0  0  0  0  0  0  0  0  0  0  0  0
  -26.2950  -15.7650   20.0280 H   0  0  0  0  0  0  0  0  0  0  0  0
  -28.2610  -26.1590   20.2540 O   0  0  0  0  0  0  0  0  0  0  0  0
  -24.6260  -31.9080   23.2350 C   0  0  0  0  0  0  0  0  0  0  0  0
  -27.2170  -27.1800   20.1370 C   0  0  0  0  0  0  0  0  0  0  0  0
  -23.4260  -30.5150   21.5930 C   0  0  0  0  0  3  0  0  0  0  0  0
  -24.8790  -28.9600   20.1340 C   0  0  0  0  0  0  0  0  0  0  0  0
  -25.9810  -30.7890   21.4130 C   0  0  0  0  0  2  0  0  0  0  0  0
  -26.0620  -29.3970   20.7430 C   0  0  0  0  0  0  0  0  0  0  0  0
  -27.2250  -28.5240   20.7250 C   0  0  0  0  0  3  0  0  0  0  0  0
  -26.0010  -26.8640   19.4910 C   0  0  0  0  0  3  0  0  0  0  0  0
  -24.8690  -27.7120   19.4910 C   0  0  0  0  0  3  0  0  0  0  0  0
  -23.6440  -29.8510   20.2060 C   0  0  0  0  0  2  0  0  0  0  0  0
  -24.7000  -31.0940   22.1350 N   0  0  0  0  0  0  0  0  0  0  0  0
  -23.5420  -32.1780   23.7730 O   0  0  0  0  0  0  0  0  0  0  0  0
  -22.7620  -29.4970   22.5530 C   0  0  0  0  0  0  0  0  0  0  0  0
  -21.4390  -29.2880   22.4110 N   0  0  0  0  0  0  0  0  0  0  0  0
  -23.4400  -28.8960   23.3890 O   0  0  0  0  0  0  0  0  0  0  0  0
  -20.9490  -29.8230   21.7080 H   0  0  0  0  0  0  0  0  0  0  0  0
  -18.0970  -27.9520   22.8500 C   0  0  0  0  0  0  0  0  0  0  0  0
  -20.6360  -28.3320   23.1780 C   0  0  0  0  0  3  0  0  0  0  0  0
  -20.8120  -26.8950   22.6320 C   0  0  0  0  0  2  0  0  0  0  0  0
  -19.7520  -26.5090   21.5940 C   0  0  0  0  0  2  0  0  0  0  0  0
  -18.3490  -26.6040   22.1990 C   0  0  0  0  0  2  0  0  0  0  0  0
  -19.1700  -28.7700   23.2960 C   0  0  0  0  0  0  0  0  0  0  0  0
  -18.8800  -30.0300   23.8650 C   0  0  0  0  0  3  0  0  0  0  0  0
  -17.5510  -30.4730   23.9900 C   0  0  0  0  0  3  0  0  0  0  0  0
  -16.4910  -29.6550   23.5600 C   0  0  0  0  0  3  0  0  0  0  0  0
  -16.7660  -28.3960   22.9970 C   0  0  0  0  0  3  0  0  0  0  0  0
  -25.9010  -32.5530   23.8590 C   0  0  0  0  0  3  0  0  0  0  0  0
  -25.5840  -33.9540   24.1870 N   0  0  0  0  0  0  0  0  0  0  0  0
  -25.9140  -35.0100   23.4310 C   0  0  0  0  0  0  0  0  0  0  0  0
  -26.5830  -34.9080   22.3990 O   0  0  0  0  0  0  0  0  0  0  0  0
  -24.9880  -34.1050   24.9870 H   0  0  0  0  0  0  0  0  0  0  0  0
  -24.1870  -36.8070   23.0760 C   0  0  0  0  0  1  0  0  0  0  0  0
  -25.4280  -36.4000   23.8890 C   0  0  0  0  0  3  0  0  0  0  0  0
  -27.5580  -37.2840   24.7320 C   0  0  0  0  0  1  0  0  0  0  0  0
  -26.4630  -37.4520   23.7810 N   0  0  0  0  0  0  0  0  0  0  0  0
  -26.0580  -38.3740   23.9240 H   0  0  0  0  0  0  0  0  0  0  0  0
  -26.4100  -31.7940   25.1460 C   0  0  1  0  0  0  0  0  0  0  0  0
  -25.3110  -31.5660   26.2130 C   0  0  0  0  0  1  0  0  0  0  0  0
  -26.9940  -30.4110   24.7760 C   0  0  0  0  0  1  0  0  0  0  0  0
  -27.5600  -32.5920   25.8070 C   0  0  0  0  0  1  0  0  0  0  0  0
  1  2  2  0
  1  3  1  0
  2  4  1  0
  3  6  2  0
  4  5  2  0
  4 13  1  0
  5  7  1  0
  6 52  1  0
  6  5  1  0
  7  8  1  0
 13 10  1  1
 10  9  1  0
 12 11  1  0
 12 22  1  0
 12  9  1  0
 13 11  1  0
 13  8  1  0
 14 22  1  0
 15 20  1  0
 16 17  1  0
 16 15  1  0
 18 17  1  0
 18 27  1  0
 18 19  1  0
 20 14  1  0
 20 19  1  0
 21 14  2  0
 22 23  1  0
 24 25  2  0
 25 44  1  0
 26 25  1  0
 26 29  1  0
 27 24  1  0
 27 28  1  0
 28 26  2  0
 29 30  1  0
 30 31  2  0
 32 35  1  0
 32 31  1  0
 33 32  2  0
 34 33  1  0
 34 29  2  0
 35 36  1  0
 36 37  1  0
 37 38  2  0
 39 38  1  0
 39 43  1  0
 40 39  2  0
 41 36  2  0
 41 40  1  0
 42 41  1  0
 44 45  1  0
 45 48  1  0
 45 47  1  0
 46 44  2  0
 49 50  1  0
 49 24  1  0
 51 49  1  0
 53 64  2  0
 54 52  1  0
 54 59  1  0
 55 63  1  0
 55 65  1  0
 56 62  1  0
 56 58  1  0
 57 63  1  0
 58 57  1  0
 59 58  2  0
 60 61  1  0
 60 54  2  0
 61 56  2  0
 62 55  1  0
 63 53  1  0
 65 67  2  0
 66 65  1  0
 68 66  1  0
 69 78  2  0
 69 74  1  0
 70 66  1  0
 70 74  1  0
 71 70  1  0
 72 73  1  0
 72 71  1  0
 73 69  1  0
 74 75  2  0
 75 76  1  0
 77 76  2  0
 78 77  1  0
 79 53  1  0
 79 80  1  0
 79 89  1  0
 80 83  1  0
 81 85  1  0
 81 80  1  0
 82 81  2  0
 85 84  1  0
 87 85  1  0
 87 88  1  0
 87 86  1  0
 89 92  1  1
 89 90  1  0
 91 89  1  0
M  ISO  4   6 101  14 100  22 100  52 101
M  END
>  <TORSDO>  (50) 
F 16

>  <SCORE>  (50) 
-15.704

>  <name>  (50) 
49

>  <ligand_id>  (50) 
49

>  <original_smiles>  (50) 
[H]c1c([H])c([H])c2c(c1[H])C([H])([H])C([H])([H])C([H])([H])C2([H])N([H])C(=O)C1([H])N(C(=O)C([H])(N([H])C(=O)C([H])(N([H])C([H])([H])[H])C([H])([H])[H])C(C([H])([H])[H])(C([H])([H])[H])C([H])([H])[H])C([H])([H])c2c([H])c(Oc3c([H])c([H])c([H])c4c3C([H])([H])C([H])([H])C43C([H])([H])C([H])([H])C([H])(N([H])C(=O)N4C([H])([H])C([H])([H])C([H])([H])C([H])(n5nc(-c6c([H])c([H])c(Oc7c([H])c([H])c(F)c([H])c7F)c([H])c6[H])c(C(=O)N([H])[H])c5N([H])[H])C4([H])[H])C3([H])[H])c([H])c([H])c2C1([H])[H]

>  <smiles>  (50) 
[H]c1c([H])c([H])c2c(c1[H])C([H])([H])C([H])([H])C([H])([H])C2([H])N([H])C(=O)C1([H])N(C(=O)C([H])(N([H])C(=O)C([H])(N([H])C([H])([H])[H])C([H])([H])[H])C(C([H])([H])[H])(C([H])([H])[H])C([H])([H])[H])C([H])([H])c2c([H])c(Oc3c([H])c([H])c([H])c4c3C([H])([H])C([H])([H])C43C([H])([H])C([H])([H])C([H])(N([H])C(=O)N4C([H])([H])C([H])([H])C([H])([H])C([H])(n5nc(-c6c([H])c([H])c(Oc7c([H])c([H])c(F)c([H])c7F)c([H])c6[H])c(C(=O)N([H])[H])c5N([H])[H])C4([H])[H])C3([H])[H])c([H])c([H])c2C1([H])[H]

$$$$
50:0:0
     RDKit          3D

 92101  0  0  1  0  0  0  0  0999 V2000
  -28.1890  -23.6770   17.7240 C   0  0  0  0  0  3  0  0  0  0  0  0
  -28.3900  -22.5700   18.5740 C   0  0  0  0  0  3  0  0  0  0  0  0
  -28.2050  -24.9900   18.2350 C   0  0  0  0  0  3  0  0  0  0  0  0
  -28.6250  -24.1010   20.4530 C   0  0  0  0  0  3  0  0  0  0  0  0
  -28.6340  -22.7560   19.9490 C   0  0  0  0  0  0  0  0  0  0  0  0
  -28.3850  -25.2370   19.6150 C   0  0  0  0  0  0  0  0  0  0  0  0
  -28.3790  -26.5560   20.1000 O   0  0  0  0  0  0  0  0  0  0  0  0
  -24.6330  -31.8610   23.2190 C   0  0  0  0  0  0  0  0  0  0  0  0
  -27.2260  -27.3450   20.1050 C   0  0  0  0  0  0  0  0  0  0  0  0
  -23.4130  -30.4660   21.5890 C   0  0  0  0  0  3  0  0  0  0  0  0
  -24.8480  -28.9210   20.1530 C   0  0  0  0  0  0  0  0  0  0  0  0
  -25.9490  -30.7970   21.3780 C   0  0  0  0  0  2  0  0  0  0  0  0
  -26.0220  -29.4230   20.7270 C   0  0  0  0  0  0  0  0  0  0  0  0
  -27.2130  -28.6430   20.6950 C   0  0  0  0  0  3  0  0  0  0  0  0
  -26.0150  -26.8780   19.5420 C   0  0  0  0  0  3  0  0  0  0  0  0
  -24.8430  -27.6510   19.5590 C   0  0  0  0  0  3  0  0  0  0  0  0
  -23.6090  -29.7870   20.2090 C   0  0  0  0  0  2  0  0  0  0  0  0
  -24.6840  -31.0580   22.1180 N   0  0  0  0  0  0  0  0  0  0  0  0
  -23.5560  -32.1370   23.7650 O   0  0  0  0  0  0  0  0  0  0  0  0
  -22.7630  -29.4470   22.5550 C   0  0  0  0  0  0  0  0  0  0  0  0
  -21.4370  -29.2660   22.4370 N   0  0  0  0  0  0  0  0  0  0  0  0
  -23.4510  -28.8210   23.3660 O   0  0  0  0  0  0  0  0  0  0  0  0
  -20.9420  -29.8210   21.7520 H   0  0  0  0  0  0  0  0  0  0  0  0
  -18.0650  -28.0670   22.9580 C   0  0  0  0  0  0  0  0  0  0  0  0
  -20.6250  -28.3290   23.2150 C   0  0  0  0  0  3  0  0  0  0  0  0
  -20.7250  -26.8960   22.6420 C   0  0  0  0  0  2  0  0  0  0  0  0
  -19.6170  -26.5690   21.6350 C   0  0  0  0  0  2  0  0  0  0  0  0
  -18.2390  -26.7150   22.2860 C   0  0  0  0  0  2  0  0  0  0  0  0
  -19.1860  -28.8300   23.3810 C   0  0  0  0  0  0  0  0  0  0  0  0
  -18.9700  -30.0940   23.9720 C   0  0  0  0  0  3  0  0  0  0  0  0
  -17.6670  -30.5960   24.1410 C   0  0  0  0  0  3  0  0  0  0  0  0
  -16.5600  -29.8310   23.7340 C   0  0  0  0  0  3  0  0  0  0  0  0
  -16.7610  -28.5660   23.1510 C   0  0  0  0  0  3  0  0  0  0  0  0
  -25.9230  -32.4910   23.8300 C   0  0  0  0  0  3  0  0  0  0  0  0
  -25.6110  -33.8840   24.1780 N   0  0  0  0  0  0  0  0  0  0  0  0
  -25.9270  -34.9460   23.4250 C   0  0  0  0  0  0  0  0  0  0  0  0
  -26.5810  -34.8560   22.3830 O   0  0  0  0  0  0  0  0  0  0  0  0
  -25.0200  -34.0290   24.9830 H   0  0  0  0  0  0  0  0  0  0  0  0
  -24.1800  -36.7310   23.1230 C   0  0  0  0  0  1  0  0  0  0  0  0
  -25.4390  -36.3270   23.9060 C   0  0  0  0  0  3  0  0  0  0  0  0
  -27.5860  -37.2170   24.7000 C   0  0  0  0  0  1  0  0  0  0  0  0
  -26.4630  -37.3880   23.7820 N   0  0  0  0  0  0  0  0  0  0  0  0
  -26.0540  -38.3040   23.9450 H   0  0  0  0  0  0  0  0  0  0  0  0
  -26.4600  -31.7100   25.0910 C   0  0  1  0  0  0  0  0  0  0  0  0
  -25.3830  -31.4610   26.1710 C   0  0  0  0  0  1  0  0  0  0  0  0
  -27.0400  -30.3360   24.6780 C   0  0  0  0  0  1  0  0  0  0  0  0
  -27.6170  -32.5030   25.7440 C   0  0  0  0  0  1  0  0  0  0  0  0
  -28.8470  -21.5330   20.8920 C   0  0  0  0  0  2  0  0  0  0  0  0
  -28.2490  -19.0860   20.0930 C   0  0  0  0  0  2  0  0  0  0  0  0
  -30.4880  -19.4890   21.2030 C   0  0  0  0  0  2  0  0  0  0  0  0
  -28.7290  -17.6720   19.6160 C   0  0  0  0  0  2  0  0  0  0  0  0
  -30.3220  -17.9740   21.5560 C   0  0  0  0  0  2  0  0  0  0  0  0
  -29.3720  -20.1400   20.3190 C   0  0  0  0  0  3  0  0  0  0  0  0
  -29.9780  -17.0780   20.3420 C   0  0  0  0  0  3  0  0  0  0  0  0
  -30.5990  -14.5720   20.3740 C   0  0  0  0  0  0  0  0  0  0  0  0
  -30.3700  -12.3500   19.3070 C   0  0  0  0  0  2  0  0  0  0  0  0
  -29.4280  -12.5080   18.0930 C   0  0  0  0  0  2  0  0  0  0  0  0
  -27.9520  -12.3750   18.5150 C   0  0  0  0  0  2  0  0  0  0  0  0
  -27.6070  -13.2280   19.7650 C   0  0  0  0  0  3  0  0  0  0  0  0
  -28.6600  -13.0390   20.8810 C   0  0  0  0  0  2  0  0  0  0  0  0
  -29.9760  -13.3590   20.3090 N   0  0  0  0  0  0  0  0  0  0  0  0
  -31.7530  -14.7340   19.9640 O   0  0  0  0  0  0  0  0  0  0  0  0
  -29.8030  -15.6310   20.6930 N   0  0  0  0  0  0  0  0  0  0  0  0
  -28.8990  -15.3780   21.0640 H   0  0  0  0  0  0  0  0  0  0  0  0
  -25.2150  -13.8500   20.4720 C   0  0  0  0  0  0  0  0  0  0  0  0
  -24.1440  -13.0860   20.8460 C   0  0  0  0  0  0  0  0  0  0  0  0
  -24.5990  -11.7320   20.8270 C   0  0  0  0  0  0  0  0  0  0  0  0
  -26.2550  -12.9630   20.2470 N   0  0  0  0  0  0  0  0  0  0  0  0
  -25.8900  -11.6840   20.5200 N   0  0  0  0  0  0  0  0  0  0  0  0
  -23.8660  -10.4750   21.0260 C   0  0  0  0  0  0  0  0  0  0  0  0
  -24.3000   -9.5070   21.9590 C   0  0  0  0  0  3  0  0  0  0  0  0
  -23.5680   -8.3140   22.1470 C   0  0  0  0  0  3  0  0  0  0  0  0
  -22.3890   -8.0810   21.3980 C   0  0  0  0  0  0  0  0  0  0  0  0
  -21.9730   -9.0380   20.4560 C   0  0  0  0  0  3  0  0  0  0  0  0
  -22.7080  -10.2220   20.2660 C   0  0  0  0  0  3  0  0  0  0  0  0
  -21.6300   -6.9410   21.4940 O   0  0  0  0  0  0  0  0  0  0  0  0
  -21.5880   -6.1990   22.6480 C   0  0  0  0  0  0  0  0  0  0  0  0
  -21.1870   -6.7580   23.8800 C   0  0  0  0  0  3  0  0  0  0  0  0
  -21.0870   -5.9410   25.0240 C   0  0  0  0  0  3  0  0  0  0  0  0
  -21.3850   -4.5680   24.9370 C   0  0  0  0  0  0  0  0  0  0  0  0
  -21.7810   -4.0100   23.7090 C   0  0  0  0  0  3  0  0  0  0  0  0
  -21.8790   -4.8220   22.5670 C   0  0  0  0  0  0  0  0  0  0  0  0
  -22.2400   -4.2740   21.3820 F   0  0  0  0  0  0  0  0  0  0  0  0
  -21.2820   -3.7820   26.0340 F   0  0  0  0  0  0  0  0  0  0  0  0
  -22.7480  -13.5730   21.1120 C   0  0  0  0  0  0  0  0  0  0  0  0
  -22.0180  -12.8910   21.9880 N   0  0  0  0  0  0  0  0  0  0  0  0
  -22.3130  -14.5930   20.5800 O   0  0  0  0  0  0  0  0  0  0  0  0
  -22.3860  -12.0690   22.4430 H   0  0  0  0  0  0  0  0  0  0  0  0
  -21.0810  -13.1970   22.2050 H   0  0  0  0  0  0  0  0  0  0  0  0
  -25.3840  -15.2200   20.2820 N   0  0  0  0  0  0  0  0  0  0  0  0
  -24.6130  -15.8720   20.3930 H   0  0  0  0  0  0  0  0  0  0  0  0
  -26.2200  -15.6520   19.9170 H   0  0  0  0  0  0  0  0  0  0  0  0
  1  3  2  0
  1  2  1  0
  2  5  2  0
  3  6  1  0
  5  4  1  0
  5 48  1  0
  6  7  1  0
  6  4  2  0
  7  9  1  0
  8 19  2  0
  9 14  1  0
 10 18  1  0
 10 20  1  0
 11 17  1  0
 11 13  1  0
 12 18  1  0
 13 12  1  0
 14 13  2  0
 15 16  1  0
 15  9  2  0
 16 11  2  0
 17 10  1  0
 18  8  1  0
 20 22  2  0
 21 20  1  0
 23 21  1  0
 24 33  2  0
 24 29  1  0
 25 21  1  0
 25 29  1  0
 26 25  1  0
 27 28  1  0
 27 26  1  0
 28 24  1  0
 29 30  2  0
 30 31  1  0
 32 31  2  0
 33 32  1  0
 34  8  1  0
 34 35  1  0
 34 44  1  0
 35 38  1  0
 36 40  1  0
 36 35  1  0
 37 36  2  0
 40 39  1  0
 42 40  1  0
 42 43  1  0
 42 41  1  0
 44 47  1  1
 44 45  1  0
 46 44  1  0
 49 53  1  0
 50 52  1  0
 51 49  1  0
 51 54  1  0
 53 48  1  0
 53 50  1  0
 54 63  1  0
 54 52  1  0
 55 63  1  0
 56 61  1  0
 57 58  1  0
 57 56  1  0
 59 58  1  0
 59 68  1  0
 59 60  1  0
 61 55  1  0
 61 60  1  0
 62 55  2  0
 63 64  1  0
 65 66  2  0
 66 85  1  0
 67 66  1  0
 67 70  1  0
 68 65  1  0
 68 69  1  0
 69 67  2  0
 70 71  1  0
 71 72  2  0
 73 76  1  0
 73 72  1  0
 74 73  2  0
 75 74  1  0
 75 70  2  0
 76 77  1  0
 77 78  1  0
 78 79  2  0
 80 79  1  0
 80 84  1  0
 81 80  2  0
 82 77  2  0
 82 81  1  0
 83 82  1  0
 85 86  1  0
 86 89  1  0
 86 88  1  0
 87 85  2  0
 90 91  1  0
 90 65  1  0
 92 90  1  0
M  ISO  4   6 101   7 101  55 100  63 100
M  END
>  <TORSDO>  (51) 
F 18

>  <SCORE>  (51) 
-14.798

>  <name>  (51) 
50

>  <ligand_id>  (51) 
50

>  <original_smiles>  (51) 
[H]c1c([H])c([H])c2c(c1[H])C([H])([H])C([H])([H])C([H])([H])C2([H])N([H])C(=O)C1([H])N(C(=O)C([H])(N([H])C(=O)C([H])(N([H])C([H])([H])[H])C([H])([H])[H])C(C([H])([H])[H])(C([H])([H])[H])C([H])([H])[H])C([H])([H])c2c([H])c(Oc3c([H])c([H])c([H])c(C([H])([H])C4([H])C([H])([H])C([H])([H])C([H])(N([H])C(=O)N5C([H])([H])C([H])([H])C([H])([H])C([H])(n6nc(-c7c([H])c([H])c(Oc8c([H])c([H])c(F)c([H])c8F)c([H])c7[H])c(C(=O)N([H])[H])c6N([H])[H])C5([H])[H])C([H])([H])C4([H])[H])c3[H])c([H])c([H])c2C1([H])[H]

>  <smiles>  (51) 
[H]c1c([H])c([H])c2c(c1[H])C([H])([H])C([H])([H])C([H])([H])C2([H])N([H])C(=O)C1([H])N(C(=O)C([H])(N([H])C(=O)C([H])(N([H])C([H])([H])[H])C([H])([H])[H])C(C([H])([H])[H])(C([H])([H])[H])C([H])([H])[H])C([H])([H])c2c([H])c(Oc3c([H])c([H])c([H])c(C([H])([H])C4([H])C([H])([H])C([H])([H])C([H])(N([H])C(=O)N5C([H])([H])C([H])([H])C([H])([H])C([H])(n6nc(-c7c([H])c([H])c(Oc8c([H])c([H])c(F)c([H])c8F)c([H])c7[H])c(C(=O)N([H])[H])c6N([H])[H])C5([H])[H])C([H])([H])C4([H])[H])c3[H])c([H])c([H])c2C1([H])[H]

$$$$
51:0:0
     RDKit          3D

 90 99  0  0  1  0  0  0  0  0999 V2000
  -27.8840  -20.8360   18.8530 C   0  0  0  0  0  3  0  0  0  0  0  0
  -28.4330  -19.5520   19.2410 C   0  0  0  0  0  3  0  0  0  0  0  0
  -29.5940  -20.6600   21.0160 C   0  0  0  0  0  3  0  0  0  0  0  0
  -28.1710  -22.0590   19.5400 C   0  0  0  0  0  0  0  0  0  0  0  0
  -29.0140  -21.9780   20.6340 C   0  0  0  0  0  0  0  0  0  0  0  0
  -29.3380  -19.3610   20.3340 C   0  0  0  0  0  0  0  0  0  0  0  0
  -27.7420  -23.5270   19.2660 C   0  0  0  0  0  0  0  0  0  0  0  0
  -29.1610  -23.4830   21.1710 C   0  0  0  0  0  2  0  0  0  0  0  0
  -28.0670  -24.5030   20.4770 C   0  0  0  0  0  3  0  0  0  0  0  0
  -27.1930  -23.9130   18.2300 O   0  0  0  0  0  0  0  0  0  0  0  0
  -28.2390  -26.0860   20.2620 O   0  0  0  0  0  0  0  0  0  0  0  0
  -24.6450  -31.8920   23.2480 C   0  0  0  0  0  0  0  0  0  0  0  0
  -27.1790  -27.0910   20.2420 C   0  0  0  0  0  0  0  0  0  0  0  0
  -23.4350  -30.4970   21.6180 C   0  0  0  0  0  3  0  0  0  0  0  0
  -24.8690  -28.8950   20.2010 C   0  0  0  0  0  0  0  0  0  0  0  0
  -25.9950  -30.7310   21.4470 C   0  0  0  0  0  2  0  0  0  0  0  0
  -26.0580  -29.3280   20.8020 C   0  0  0  0  0  0  0  0  0  0  0  0
  -27.2140  -28.4470   20.7920 C   0  0  0  0  0  3  0  0  0  0  0  0
  -25.9570  -26.7720   19.6130 C   0  0  0  0  0  3  0  0  0  0  0  0
  -24.8360  -27.6340   19.5870 C   0  0  0  0  0  3  0  0  0  0  0  0
  -23.6510  -29.8100   20.2430 C   0  0  0  0  0  2  0  0  0  0  0  0
  -24.7130  -31.0650   22.1590 N   0  0  0  0  0  0  0  0  0  0  0  0
  -23.5600  -32.1850   23.7760 O   0  0  0  0  0  0  0  0  0  0  0  0
  -22.7490  -29.5020   22.5890 C   0  0  0  0  0  0  0  0  0  0  0  0
  -21.4200  -29.3350   22.4650 N   0  0  0  0  0  0  0  0  0  0  0  0
  -23.4180  -28.8800   23.4190 O   0  0  0  0  0  0  0  0  0  0  0  0
  -20.9360  -29.8880   21.7720 H   0  0  0  0  0  0  0  0  0  0  0  0
  -18.0380  -28.1270   22.9660 C   0  0  0  0  0  0  0  0  0  0  0  0
  -20.5960  -28.4030   23.2410 C   0  0  0  0  0  3  0  0  0  0  0  0
  -20.7050  -26.9650   22.6830 C   0  0  0  0  0  2  0  0  0  0  0  0
  -19.6090  -26.6270   21.6680 C   0  0  0  0  0  2  0  0  0  0  0  0
  -18.2240  -26.7720   22.3030 C   0  0  0  0  0  2  0  0  0  0  0  0
  -19.1520  -28.9000   23.3920 C   0  0  0  0  0  0  0  0  0  0  0  0
  -18.9250  -30.1650   23.9750 C   0  0  0  0  0  3  0  0  0  0  0  0
  -17.6160  -30.6600   24.1350 C   0  0  0  0  0  3  0  0  0  0  0  0
  -16.5170  -29.8860   23.7240 C   0  0  0  0  0  3  0  0  0  0  0  0
  -16.7290  -28.6220   23.1450 C   0  0  0  0  0  3  0  0  0  0  0  0
  -25.9250  -32.5280   23.8720 C   0  0  0  0  0  3  0  0  0  0  0  0
  -25.6180  -33.9290   24.2040 N   0  0  0  0  0  0  0  0  0  0  0  0
  -25.9400  -34.9850   23.4450 C   0  0  0  0  0  0  0  0  0  0  0  0
  -26.5930  -34.8830   22.4040 O   0  0  0  0  0  0  0  0  0  0  0  0
  -25.0400  -34.0820   25.0170 H   0  0  0  0  0  0  0  0  0  0  0  0
  -24.2060  -36.7840   23.1340 C   0  0  0  0  0  1  0  0  0  0  0  0
  -25.4650  -36.3750   23.9170 C   0  0  0  0  0  3  0  0  0  0  0  0
  -27.6150  -37.2610   24.7020 C   0  0  0  0  0  1  0  0  0  0  0  0
  -26.4940  -37.4280   23.7800 N   0  0  0  0  0  0  0  0  0  0  0  0
  -26.0910  -38.3480   23.9360 H   0  0  0  0  0  0  0  0  0  0  0  0
  -26.4340  -31.7630   25.1570 C   0  0  1  0  0  0  0  0  0  0  0  0
  -25.3370  -31.5410   26.2260 C   0  0  0  0  0  1  0  0  0  0  0  0
  -27.0130  -30.3810   24.7800 C   0  0  0  0  0  1  0  0  0  0  0  0
  -27.5880  -32.5570   25.8140 C   0  0  0  0  0  1  0  0  0  0  0  0
  -30.1140  -17.8890   20.6650 C   0  0  0  0  0  2  0  0  0  0  0  0
  -30.4730  -15.1110   20.3850 C   0  0  0  0  0  0  0  0  0  0  0  0
  -30.3990  -12.7190   19.4740 C   0  0  0  0  0  2  0  0  0  0  0  0
  -29.4760  -12.5870   18.2390 C   0  0  0  0  0  2  0  0  0  0  0  0
  -28.0170  -12.3520   18.6750 C   0  0  0  0  0  2  0  0  0  0  0  0
  -27.5830  -13.3060   19.8180 C   0  0  0  0  0  3  0  0  0  0  0  0
  -28.6300  -13.3900   20.9460 C   0  0  0  0  0  2  0  0  0  0  0  0
  -29.8820  -13.8380   20.3230 N   0  0  0  0  0  0  0  0  0  0  0  0
  -31.6910  -15.1390   20.1740 O   0  0  0  0  0  0  0  0  0  0  0  0
  -29.7100  -16.3370   20.4870 N   0  0  0  0  0  0  0  0  0  0  0  0
  -28.7180  -16.1750   20.5550 H   0  0  0  0  0  0  0  0  0  0  0  0
  -25.2040  -13.8720   20.5560 C   0  0  0  0  0  0  0  0  0  0  0  0
  -24.1410  -13.0940   20.9200 C   0  0  0  0  0  0  0  0  0  0  0  0
  -24.6100  -11.7440   20.8900 C   0  0  0  0  0  0  0  0  0  0  0  0
  -26.2490  -12.9980   20.3180 N   0  0  0  0  0  0  0  0  0  0  0  0
  -25.9030  -11.7120   20.5860 N   0  0  0  0  0  0  0  0  0  0  0  0
  -23.8850  -10.4800   21.0730 C   0  0  0  0  0  0  0  0  0  0  0  0
  -24.3160   -9.5060   22.0000 C   0  0  0  0  0  3  0  0  0  0  0  0
  -23.5880   -8.3090   22.1710 C   0  0  0  0  0  3  0  0  0  0  0  0
  -22.4150   -8.0770   21.4160 C   0  0  0  0  0  0  0  0  0  0  0  0
  -22.0010   -9.0400   20.4770 C   0  0  0  0  0  3  0  0  0  0  0  0
  -22.7300  -10.2280   20.3040 C   0  0  0  0  0  3  0  0  0  0  0  0
  -21.6570   -6.9340   21.4990 O   0  0  0  0  0  0  0  0  0  0  0  0
  -21.6090   -6.1830   22.6450 C   0  0  0  0  0  0  0  0  0  0  0  0
  -21.1750   -6.7280   23.8740 C   0  0  0  0  0  3  0  0  0  0  0  0
  -21.0750   -5.9040   25.0120 C   0  0  0  0  0  3  0  0  0  0  0  0
  -21.3980   -4.5370   24.9240 C   0  0  0  0  0  0  0  0  0  0  0  0
  -21.8250   -3.9920   23.7010 C   0  0  0  0  0  3  0  0  0  0  0  0
  -21.9270   -4.8130   22.5640 C   0  0  0  0  0  0  0  0  0  0  0  0
  -22.3180   -4.2780   21.3820 F   0  0  0  0  0  0  0  0  0  0  0  0
  -21.2950   -3.7430   26.0160 F   0  0  0  0  0  0  0  0  0  0  0  0
  -22.7410  -13.5680   21.1810 C   0  0  0  0  0  0  0  0  0  0  0  0
  -22.0080  -12.8700   22.0400 N   0  0  0  0  0  0  0  0  0  0  0  0
  -22.3070  -14.5950   20.6580 O   0  0  0  0  0  0  0  0  0  0  0  0
  -22.3720  -12.0390   22.4830 H   0  0  0  0  0  0  0  0  0  0  0  0
  -21.0690  -13.1710   22.2610 H   0  0  0  0  0  0  0  0  0  0  0  0
  -25.3630  -15.2440   20.3800 N   0  0  0  0  0  0  0  0  0  0  0  0
  -24.5900  -15.8920   20.4820 H   0  0  0  0  0  0  0  0  0  0  0  0
  -26.2020  -15.6850   20.0270 H   0  0  0  0  0  0  0  0  0  0  0  0
  1  2  2  0
  1  4  1  0
  2  6  1  0
  4  5  2  0
  5  3  1  0
  5  8  1  0
  6 52  1  0
  6  3  2  0
  7  4  1  0
  7  9  1  0
  9 11  1  0
  9  8  1  0
 10  7  2  0
 12 23  2  0
 13 11  1  0
 13 18  1  0
 14 22  1  0
 14 24  1  0
 15 21  1  0
 15 17  1  0
 16 22  1  0
 17 16  1  0
 18 17  2  0
 19 13  2  0
 20 19  1  0
 20 15  2  0
 21 14  1  0
 22 12  1  0
 24 26  2  0
 25 24  1  0
 27 25  1  0
 28 37  2  0
 28 33  1  0
 29 25  1  0
 29 33  1  0
 30 29  1  0
 31 32  1  0
 31 30  1  0
 32 28  1  0
 33 34  2  0
 34 35  1  0
 36 35  2  0
 37 36  1  0
 38 12  1  0
 38 39  1  0
 38 48  1  0
 39 42  1  0
 40 44  1  0
 40 39  1  0
 41 40  2  0
 44 43  1  0
 46 44  1  0
 46 47  1  0
 46 45  1  0
 48 51  1  1
 48 49  1  0
 50 48  1  0
 53 61  1  0
 54 59  1  0
 55 56  1  0
 55 54  1  0
 57 56  1  0
 57 66  1  0
 57 58  1  0
 59 53  1  0
 59 58  1  0
 60 53  2  0
 61 62  1  0
 61 52  1  0
 63 64  2  0
 64 83  1  0
 65 64  1  0
 65 68  1  0
 66 63  1  0
 66 67  1  0
 67 65  2  0
 68 69  1  0
 69 70  2  0
 71 74  1  0
 71 70  1  0
 72 71  2  0
 73 72  1  0
 73 68  2  0
 74 75  1  0
 75 76  1  0
 76 77  2  0
 78 77  1  0
 78 82  1  0
 79 78  2  0
 80 75  2  0
 80 79  1  0
 81 80  1  0
 83 84  1  0
 84 87  1  0
 84 86  1  0
 85 83  2  0
 88 89  1  0
 88 63  1  0
 90 88  1  0
M  ISO  4   9 101  11 101  53 100  61 100
M  END
>  <TORSDO>  (52) 
F 17

>  <SCORE>  (52) 
-15.851

>  <name>  (52) 
51

>  <ligand_id>  (52) 
51

>  <original_smiles>  (52) 
[H]c1c([H])c([H])c2c(c1[H])C([H])([H])C([H])([H])C([H])([H])C2([H])N([H])C(=O)C1([H])N(C(=O)C([H])(N([H])C(=O)C([H])(N([H])C([H])([H])[H])C([H])([H])[H])C(C([H])([H])[H])(C([H])([H])[H])C([H])([H])[H])C([H])([H])c2c([H])c(OC3([H])C(=O)c4c([H])c([H])c(C([H])([H])N([H])C(=O)N5C([H])([H])C([H])([H])C([H])([H])C([H])(n6nc(-c7c([H])c([H])c(Oc8c([H])c([H])c(F)c([H])c8F)c([H])c7[H])c(C(=O)N([H])[H])c6N([H])[H])C5([H])[H])c([H])c4C3([H])[H])c([H])c([H])c2C1([H])[H]

>  <smiles>  (52) 
[H]c1c([H])c([H])c2c(c1[H])C([H])([H])C([H])([H])C([H])([H])C2([H])N([H])C(=O)C1([H])N(C(=O)C([H])(N([H])C(=O)C([H])(N([H])C([H])([H])[H])C([H])([H])[H])C(C([H])([H])[H])(C([H])([H])[H])C([H])([H])[H])C([H])([H])c2c([H])c(OC3([H])C(=O)c4c([H])c([H])c(C([H])([H])N([H])C(=O)N5C([H])([H])C([H])([H])C([H])([H])C([H])(n6nc(-c7c([H])c([H])c(Oc8c([H])c([H])c(F)c([H])c8F)c([H])c7[H])c(C(=O)N([H])[H])c6N([H])[H])C5([H])[H])c([H])c4C3([H])[H])c([H])c([H])c2C1([H])[H]

$$$$
52:0:0
     RDKit          3D

 93102  0  0  1  0  0  0  0  0999 V2000
  -28.6400  -22.1800   21.6430 C   0  0  0  0  0  3  0  0  0  0  0  0
  -28.4000  -23.6450   21.5880 C   0  0  0  0  0  3  0  0  0  0  0  0
  -28.9240  -22.1400   19.3710 C   0  0  0  0  0  3  0  0  0  0  0  0
  -28.7110  -23.6200   19.2970 C   0  0  0  0  0  0  0  0  0  0  0  0
  -28.9020  -21.2680   20.5360 C   0  0  0  0  0  0  0  0  0  0  0  0
  -28.3650  -24.5180   20.4150 C   0  0  0  0  0  0  0  0  0  0  0  0
  -29.1140  -26.1910   15.7070 C   0  0  0  0  0  2  0  0  0  0  0  0
  -30.3790  -25.6280   16.3830 C   0  0  0  0  0  2  0  0  0  0  0  0
  -27.9460  -25.1950   15.7970 C   0  0  0  0  0  2  0  0  0  0  0  0
  -30.1080  -25.2060   17.8400 C   0  0  0  0  0  2  0  0  0  0  0  0
  -27.6800  -24.8220   17.2620 C   0  0  0  0  0  2  0  0  0  0  0  0
  -28.9370  -24.2080   17.9020 C   0  0  0  0  0  3  0  0  0  0  0  0
  -28.3190  -26.0570   20.4130 O   0  0  0  0  0  0  0  0  0  0  0  0
  -24.6690  -31.9780   23.2770 C   0  0  0  0  0  0  0  0  0  0  0  0
  -27.2450  -27.0820   20.3750 C   0  0  0  0  0  0  0  0  0  0  0  0
  -23.4830  -30.5650   21.6360 C   0  0  0  0  0  3  0  0  0  0  0  0
  -24.9480  -28.9450   20.2550 C   0  0  0  0  0  0  0  0  0  0  0  0
  -26.0500  -30.7830   21.5170 C   0  0  0  0  0  2  0  0  0  0  0  0
  -26.1260  -29.3660   20.8830 C   0  0  0  0  0  0  0  0  0  0  0  0
  -27.2700  -28.4540   20.9170 C   0  0  0  0  0  3  0  0  0  0  0  0
  -26.0290  -26.7920   19.7190 C   0  0  0  0  0  3  0  0  0  0  0  0
  -24.9250  -27.6780   19.6460 C   0  0  0  0  0  3  0  0  0  0  0  0
  -23.7170  -29.8500   20.2770 C   0  0  0  0  0  2  0  0  0  0  0  0
  -24.7530  -31.1390   22.1940 N   0  0  0  0  0  0  0  0  0  0  0  0
  -23.5760  -32.2770   23.7780 O   0  0  0  0  0  0  0  0  0  0  0  0
  -22.7760  -29.5870   22.6100 C   0  0  0  0  0  0  0  0  0  0  0  0
  -21.4470  -29.4300   22.4730 N   0  0  0  0  0  0  0  0  0  0  0  0
  -23.4310  -28.9650   23.4490 O   0  0  0  0  0  0  0  0  0  0  0  0
  -20.9700  -29.9940   21.7830 H   0  0  0  0  0  0  0  0  0  0  0  0
  -18.0450  -28.2680   22.9580 C   0  0  0  0  0  0  0  0  0  0  0  0
  -20.6050  -28.4990   23.2360 C   0  0  0  0  0  3  0  0  0  0  0  0
  -20.6890  -27.0660   22.6580 C   0  0  0  0  0  2  0  0  0  0  0  0
  -19.5880  -26.7640   21.6340 C   0  0  0  0  0  2  0  0  0  0  0  0
  -18.2080  -26.9200   22.2770 C   0  0  0  0  0  2  0  0  0  0  0  0
  -19.1700  -29.0190   23.3920 C   0  0  0  0  0  0  0  0  0  0  0  0
  -18.9640  -30.2830   23.9850 C   0  0  0  0  0  3  0  0  0  0  0  0
  -17.6620  -30.7960   24.1470 C   0  0  0  0  0  3  0  0  0  0  0  0
  -16.5520  -30.0390   23.7340 C   0  0  0  0  0  3  0  0  0  0  0  0
  -16.7440  -28.7780   23.1480 C   0  0  0  0  0  3  0  0  0  0  0  0
  -25.9360  -32.6160   23.9250 C   0  0  0  0  0  3  0  0  0  0  0  0
  -26.4160  -31.8610   25.2260 C   0  0  1  0  0  0  0  0  0  0  0  0
  -25.2950  -31.6370   26.2690 C   0  0  0  0  0  1  0  0  0  0  0  0
  -27.0060  -30.4800   24.8710 C   0  0  0  0  0  1  0  0  0  0  0  0
  -27.5450  -32.6670   25.9110 C   0  0  0  0  0  1  0  0  0  0  0  0
  -25.6190  -34.0180   24.2470 N   0  0  0  0  0  0  0  0  0  0  0  0
  -25.9380  -35.0710   23.4840 C   0  0  0  0  0  0  0  0  0  0  0  0
  -26.5880  -34.9630   22.4400 O   0  0  0  0  0  0  0  0  0  0  0  0
  -25.0250  -34.1730   25.0500 H   0  0  0  0  0  0  0  0  0  0  0  0
  -24.1810  -36.8510   23.1960 C   0  0  0  0  0  1  0  0  0  0  0  0
  -25.4640  -36.4640   23.9510 C   0  0  0  0  0  3  0  0  0  0  0  0
  -27.6280  -37.3790   24.6710 C   0  0  0  0  0  1  0  0  0  0  0  0
  -26.4820  -37.5260   23.7760 N   0  0  0  0  0  0  0  0  0  0  0  0
  -26.0740  -38.4440   23.9290 H   0  0  0  0  0  0  0  0  0  0  0  0
  -28.8750  -19.5280   20.6290 C   0  0  0  0  0  3  0  0  0  0  0  0
  -29.9580  -18.1740   20.2660 C   0  0  0  0  0  3  0  0  0  0  0  0
  -30.4710  -15.3160   20.1600 C   0  0  0  0  0  0  0  0  0  0  0  0
  -30.4300  -12.9310   19.1980 C   0  0  0  0  0  2  0  0  0  0  0  0
  -29.4560  -12.7500   18.0070 C   0  0  0  0  0  2  0  0  0  0  0  0
  -28.0170  -12.5080   18.4850 C   0  0  0  0  0  2  0  0  0  0  0  0
  -27.6140  -13.4240   19.6660 C   0  0  0  0  0  3  0  0  0  0  0  0
  -28.7040  -13.4910   20.7530 C   0  0  0  0  0  2  0  0  0  0  0  0
  -29.9130  -14.0150   20.1020 N   0  0  0  0  0  0  0  0  0  0  0  0
  -31.6550  -15.3680   19.8080 O   0  0  0  0  0  0  0  0  0  0  0  0
  -29.7120  -16.5450   20.4200 N   0  0  0  0  0  0  0  0  0  0  0  0
  -28.7880  -16.3310   20.7680 H   0  0  0  0  0  0  0  0  0  0  0  0
  -25.2590  -13.9440   20.5090 C   0  0  0  0  0  0  0  0  0  0  0  0
  -24.2130  -13.1520   20.8960 C   0  0  0  0  0  0  0  0  0  0  0  0
  -24.6850  -11.8080   20.8080 C   0  0  0  0  0  0  0  0  0  0  0  0
  -26.2980  -13.0830   20.2040 N   0  0  0  0  0  0  0  0  0  0  0  0
  -25.9660  -11.7880   20.4490 N   0  0  0  0  0  0  0  0  0  0  0  0
  -23.9710  -10.5370   20.9910 C   0  0  0  0  0  0  0  0  0  0  0  0
  -24.4030   -9.5730   21.9290 C   0  0  0  0  0  3  0  0  0  0  0  0
  -23.6860   -8.3680   22.1040 C   0  0  0  0  0  3  0  0  0  0  0  0
  -22.5250   -8.1180   21.3360 C   0  0  0  0  0  0  0  0  0  0  0  0
  -22.1130   -9.0700   20.3890 C   0  0  0  0  0  3  0  0  0  0  0  0
  -22.8290  -10.2660   20.2130 C   0  0  0  0  0  3  0  0  0  0  0  0
  -21.7810   -6.9670   21.4160 O   0  0  0  0  0  0  0  0  0  0  0  0
  -21.6750   -6.2570   22.5830 C   0  0  0  0  0  0  0  0  0  0  0  0
  -21.1610   -6.8380   23.7630 C   0  0  0  0  0  3  0  0  0  0  0  0
  -20.9980   -6.0510   24.9200 C   0  0  0  0  0  3  0  0  0  0  0  0
  -21.3490   -4.6890   24.9050 C   0  0  0  0  0  0  0  0  0  0  0  0
  -21.8580   -4.1090   23.7280 C   0  0  0  0  0  3  0  0  0  0  0  0
  -22.0170   -4.8900   22.5700 C   0  0  0  0  0  0  0  0  0  0  0  0
  -22.4900   -4.3200   21.4350 F   0  0  0  0  0  0  0  0  0  0  0  0
  -21.1870   -3.9310   26.0160 F   0  0  0  0  0  0  0  0  0  0  0  0
  -22.8220  -13.6170   21.2200 C   0  0  0  0  0  0  0  0  0  0  0  0
  -22.1220  -12.9010   22.0930 N   0  0  0  0  0  0  0  0  0  0  0  0
  -22.3640  -14.6470   20.7350 O   0  0  0  0  0  0  0  0  0  0  0  0
  -22.5120  -12.0770   22.5260 H   0  0  0  0  0  0  0  0  0  0  0  0
  -21.1910  -13.1970   22.3450 H   0  0  0  0  0  0  0  0  0  0  0  0
  -25.4060  -15.3200   20.3680 N   0  0  0  0  0  0  0  0  0  0  0  0
  -24.6400  -15.9600   20.5430 H   0  0  0  0  0  0  0  0  0  0  0  0
  -26.2140  -15.7720   19.9620 H   0  0  0  0  0  0  0  0  0  0  0  0
  2  1  1  0
  3  5  1  0
  4  3  2  0
  4  6  1  0
  5 54  1  0
  5  1  2  0
  6  2  2  0
  7  9  1  0
  7  8  1  0
  8 10  1  0
  9 11  1  0
 10 12  1  0
 11 12  1  0
 12  4  1  0
 13  6  1  0
 14 25  2  0
 15 13  1  0
 15 20  1  0
 16 24  1  0
 16 26  1  0
 17 23  1  0
 17 19  1  0
 18 24  1  0
 19 20  2  0
 19 18  1  0
 21 15  2  0
 22 21  1  0
 22 17  2  0
 23 16  1  0
 24 14  1  0
 26 28  2  0
 27 26  1  0
 29 27  1  0
 30 39  2  0
 30 35  1  0
 31 27  1  0
 31 35  1  0
 32 31  1  0
 33 34  1  0
 33 32  1  0
 34 30  1  0
 35 36  2  0
 36 37  1  0
 38 37  2  0
 39 38  1  0
 40 14  1  0
 40 45  1  0
 40 41  1  0
 41 44  1  1
 41 42  1  0
 43 41  1  0
 45 48  1  0
 46 50  1  0
 46 45  1  0
 47 46  2  0
 50 49  1  0
 52 53  1  0
 52 50  1  0
 52 51  1  0
 55 64  1  0
 55 54  2  0
 56 64  1  0
 57 62  1  0
 58 59  1  0
 58 57  1  0
 60 59  1  0
 60 69  1  0
 60 61  1  0
 62 56  1  0
 62 61  1  0
 63 56  2  0
 64 65  1  0
 66 67  2  0
 67 86  1  0
 68 67  1  0
 68 71  1  0
 69 70  1  0
 69 66  1  0
 70 68  2  0
 71 72  1  0
 72 73  2  0
 74 77  1  0
 74 73  1  0
 75 74  2  0
 76 75  1  0
 76 71  2  0
 77 78  1  0
 78 79  1  0
 79 80  2  0
 81 80  1  0
 81 85  1  0
 82 81  2  0
 83 78  2  0
 83 82  1  0
 84 83  1  0
 86 87  1  0
 87 90  1  0
 87 89  1  0
 88 86  2  0
 91 66  1  0
 91 92  1  0
 93 91  1  0
M  ISO  4   6 101  13 101  56 100  64 100
M  END
>  <TORSDO>  (53) 
F 19

>  <SCORE>  (53) 
-15.256

>  <name>  (53) 
52

>  <ligand_id>  (53) 
52

>  <original_smiles>  (53) 
[H]c1c([H])c([H])c2c(c1[H])C([H])([H])C([H])([H])C([H])([H])C2([H])N([H])C(=O)C1([H])N(C(=O)C([H])(N([H])C(=O)C([H])(N([H])C([H])([H])[H])C([H])([H])[H])C(C([H])([H])[H])(C([H])([H])[H])C([H])([H])[H])C([H])([H])c2c([H])c(Oc3c([H])c([H])c(C([H])([H])C([H])([H])N([H])C(=O)N4C([H])([H])C([H])([H])C([H])([H])C([H])(n5nc(-c6c([H])c([H])c(Oc7c([H])c([H])c(F)c([H])c7F)c([H])c6[H])c(C(=O)N([H])[H])c5N([H])[H])C4([H])[H])c([H])c3C3([H])C([H])([H])C([H])([H])C([H])([H])C([H])([H])C3([H])[H])c([H])c([H])c2C1([H])[H]

>  <smiles>  (53) 
[H]c1c([H])c([H])c2c(c1[H])C([H])([H])C([H])([H])C([H])([H])C2([H])N([H])C(=O)C1([H])N(C(=O)C([H])(N([H])C(=O)C([H])(N([H])C([H])([H])[H])C([H])([H])[H])C(C([H])([H])[H])(C([H])([H])[H])C([H])([H])[H])C([H])([H])c2c([H])c(Oc3c([H])c([H])c(C([H])([H])C([H])([H])N([H])C(=O)N4C([H])([H])C([H])([H])C([H])([H])C([H])(n5nc(-c6c([H])c([H])c(Oc7c([H])c([H])c(F)c([H])c7F)c([H])c6[H])c(C(=O)N([H])[H])c5N([H])[H])C4([H])[H])c([H])c3C3([H])C([H])([H])C([H])([H])C([H])([H])C([H])([H])C3([H])[H])c([H])c([H])c2C1([H])[H]

$$$$
53:0:0
     RDKit          3D

 92100  0  0  1  0  0  0  0  0999 V2000
  -27.3670  -24.2150   22.7410 C   0  0  0  0  0  3  0  0  0  0  0  0
  -28.6750  -23.7200   22.8950 C   0  0  0  0  0  3  0  0  0  0  0  0
  -27.0050  -24.8230   21.5230 C   0  0  0  0  0  3  0  0  0  0  0  0
  -29.4890  -23.5420   21.7580 C   0  0  0  0  0  0  0  0  0  0  0  0
  -28.9020  -23.7190   20.4820 C   0  0  0  0  0  3  0  0  0  0  0  0
  -27.9600  -24.8980   20.4740 C   0  0  0  0  0  3  0  0  0  0  0  0
  -30.8840  -22.9700   21.9450 C   0  0  0  0  0  1  0  0  0  0  0  0
  -28.1540  -22.3110   18.4240 C   0  0  0  0  0  1  0  0  0  0  0  0
  -28.5560  -22.2030   19.9000 C   0  0  0  0  0  3  0  0  0  0  0  0
  -29.5150  -20.9440   20.0900 N   0  0  0  0  0  4  0  0  0  0  0  0
  -30.2630  -21.0470   19.4240 H   0  0  0  0  0  0  0  0  0  0  0  0
  -29.9250  -21.0720   21.0000 H   0  0  0  0  0  0  0  0  0  0  0  0
  -29.0470  -19.4270   20.0520 C   0  0  0  0  0  3  0  0  0  0  0  0
  -30.0940  -18.0940   20.0550 C   0  0  0  0  0  3  0  0  0  0  0  0
  -29.6400  -16.4960   20.3540 C   0  0  0  0  0  2  0  0  0  0  0  0
  -30.5260  -15.1110   20.1100 C   0  0  0  0  0  0  0  0  0  0  0  0
  -30.4450  -12.7410   19.2110 C   0  0  0  0  0  2  0  0  0  0  0  0
  -29.4920  -12.6870   17.9900 C   0  0  0  0  0  2  0  0  0  0  0  0
  -28.0340  -12.4680   18.4390 C   0  0  0  0  0  2  0  0  0  0  0  0
  -27.6340  -13.4130   19.6020 C   0  0  0  0  0  3  0  0  0  0  0  0
  -28.7030  -13.4350   20.7160 C   0  0  0  0  0  2  0  0  0  0  0  0
  -29.9780  -13.8330   20.1070 N   0  0  0  0  0  0  0  0  0  0  0  0
  -31.7130  -15.2080   19.7780 O   0  0  0  0  0  0  0  0  0  0  0  0
  -25.2690  -13.9960   20.3850 C   0  0  0  0  0  0  0  0  0  0  0  0
  -24.2110  -13.2200   20.7730 C   0  0  0  0  0  0  0  0  0  0  0  0
  -24.6740  -11.8690   20.7320 C   0  0  0  0  0  0  0  0  0  0  0  0
  -26.3050  -13.1160   20.1230 N   0  0  0  0  0  0  0  0  0  0  0  0
  -25.9600  -11.8320   20.4010 N   0  0  0  0  0  0  0  0  0  0  0  0
  -23.9520  -10.6060   20.9310 C   0  0  0  0  0  0  0  0  0  0  0  0
  -24.3610   -9.6640   21.8990 C   0  0  0  0  0  3  0  0  0  0  0  0
  -23.6370   -8.4650   22.0840 C   0  0  0  0  0  3  0  0  0  0  0  0
  -22.4880   -8.2020   21.3010 C   0  0  0  0  0  0  0  0  0  0  0  0
  -22.0980   -9.1340   20.3220 C   0  0  0  0  0  3  0  0  0  0  0  0
  -22.8240  -10.3230   20.1360 C   0  0  0  0  0  3  0  0  0  0  0  0
  -21.7370   -7.0550   21.3950 O   0  0  0  0  0  0  0  0  0  0  0  0
  -21.6240   -6.3620   22.5740 C   0  0  0  0  0  0  0  0  0  0  0  0
  -21.0880   -6.9540   23.7390 C   0  0  0  0  0  3  0  0  0  0  0  0
  -20.9270   -6.1850   24.9090 C   0  0  0  0  0  3  0  0  0  0  0  0
  -21.2940   -4.8260   24.9150 C   0  0  0  0  0  0  0  0  0  0  0  0
  -21.8230   -4.2340   23.7550 C   0  0  0  0  0  3  0  0  0  0  0  0
  -21.9850   -5.0000   22.5880 C   0  0  0  0  0  0  0  0  0  0  0  0
  -22.4770   -4.4180   21.4670 F   0  0  0  0  0  0  0  0  0  0  0  0
  -21.1320   -4.0850   26.0370 F   0  0  0  0  0  0  0  0  0  0  0  0
  -22.8180  -13.6950   21.0670 C   0  0  0  0  0  0  0  0  0  0  0  0
  -22.1000  -12.9910   21.9350 N   0  0  0  0  0  0  0  0  0  0  0  0
  -22.3750  -14.7250   20.5600 O   0  0  0  0  0  0  0  0  0  0  0  0
  -22.4750  -12.1610   22.3680 H   0  0  0  0  0  0  0  0  0  0  0  0
  -21.1650  -13.2870   22.1750 H   0  0  0  0  0  0  0  0  0  0  0  0
  -25.4340  -15.3680   20.2140 N   0  0  0  0  0  0  0  0  0  0  0  0
  -24.6740  -16.0280   20.3420 H   0  0  0  0  0  0  0  0  0  0  0  0
  -26.2880  -15.8030   19.8890 H   0  0  0  0  0  0  0  0  0  0  0  0
  -28.1740  -26.2790   19.9970 O   0  0  0  0  0  0  0  0  0  0  0  0
  -24.6200  -31.9160   23.1890 C   0  0  0  0  0  0  0  0  0  0  0  0
  -27.1470  -27.2940   19.9950 C   0  0  0  0  0  0  0  0  0  0  0  0
  -23.3900  -30.5550   21.5430 C   0  0  0  0  0  3  0  0  0  0  0  0
  -24.8180  -29.0290   20.0430 C   0  0  0  0  0  0  0  0  0  0  0  0
  -25.9410  -30.8360   21.3340 C   0  0  0  0  0  2  0  0  0  0  0  0
  -26.0070  -29.4620   20.6480 C   0  0  0  0  0  0  0  0  0  0  0  0
  -27.1720  -28.6060   20.6170 C   0  0  0  0  0  3  0  0  0  0  0  0
  -25.9420  -26.9740   19.3320 C   0  0  0  0  0  3  0  0  0  0  0  0
  -24.7950  -27.7960   19.3730 C   0  0  0  0  0  3  0  0  0  0  0  0
  -23.5860  -29.9170   20.1410 C   0  0  0  0  0  2  0  0  0  0  0  0
  -24.6710  -31.1230   22.0760 N   0  0  0  0  0  0  0  0  0  0  0  0
  -23.5450  -32.1830   23.7500 O   0  0  0  0  0  0  0  0  0  0  0  0
  -22.7410  -29.5200   22.4940 C   0  0  0  0  0  0  0  0  0  0  0  0
  -21.4130  -29.3320   22.3850 N   0  0  0  0  0  0  0  0  0  0  0  0
  -23.4320  -28.8890   23.2980 O   0  0  0  0  0  0  0  0  0  0  0  0
  -20.9070  -29.8990   21.7210 H   0  0  0  0  0  0  0  0  0  0  0  0
  -18.0630  -28.0370   22.8670 C   0  0  0  0  0  0  0  0  0  0  0  0
  -20.6120  -28.3700   23.1450 C   0  0  0  0  0  3  0  0  0  0  0  0
  -20.7500  -26.9470   22.5610 C   0  0  0  0  0  2  0  0  0  0  0  0
  -19.6660  -26.6150   21.5290 C   0  0  0  0  0  2  0  0  0  0  0  0
  -18.2810  -26.7010   22.1800 C   0  0  0  0  0  2  0  0  0  0  0  0
  -19.1570  -28.8310   23.3010 C   0  0  0  0  0  0  0  0  0  0  0  0
  -18.8970  -30.0810   23.9010 C   0  0  0  0  0  3  0  0  0  0  0  0
  -17.5770  -30.5340   24.0780 C   0  0  0  0  0  3  0  0  0  0  0  0
  -16.4960  -29.7390   23.6570 C   0  0  0  0  0  3  0  0  0  0  0  0
  -16.7410  -28.4940   23.0560 C   0  0  0  0  0  3  0  0  0  0  0  0
  -25.9090  -32.5460   23.8010 C   0  0  0  0  0  3  0  0  0  0  0  0
  -25.6080  -33.9460   24.1400 N   0  0  0  0  0  0  0  0  0  0  0  0
  -25.9620  -35.0070   23.4000 C   0  0  0  0  0  0  0  0  0  0  0  0
  -26.6410  -34.9080   22.3750 O   0  0  0  0  0  0  0  0  0  0  0  0
  -25.0050  -34.0970   24.9350 H   0  0  0  0  0  0  0  0  0  0  0  0
  -24.2720  -36.8380   23.0390 C   0  0  0  0  0  1  0  0  0  0  0  0
  -25.4880  -36.3970   23.8690 C   0  0  0  0  0  3  0  0  0  0  0  0
  -27.6130  -37.2360   24.7700 C   0  0  0  0  0  1  0  0  0  0  0  0
  -26.5410  -37.4330   23.7990 N   0  0  0  0  0  0  0  0  0  0  0  0
  -26.1470  -38.3600   23.9510 H   0  0  0  0  0  0  0  0  0  0  0  0
  -26.4330  -31.7740   25.0760 C   0  0  1  0  0  0  0  0  0  0  0  0
  -25.3490  -31.5390   26.1530 C   0  0  0  0  0  1  0  0  0  0  0  0
  -27.0040  -30.3910   24.6880 C   0  0  0  0  0  1  0  0  0  0  0  0
  -27.5920  -32.5620   25.7280 C   0  0  0  0  0  1  0  0  0  0  0  0
  1  2  1  0
  3  1  2  0
  4  7  1  0
  4  2  2  0
  5  9  1  0
  5  4  1  0
  6 52  1  0
  6  5  1  0
  6  3  1  0
  9  8  1  0
  9 10  1  0
 10 12  1  0
 11 10  1  0
 13 14  2  0
 13 10  1  0
 14 15  1  0
 16 15  1  0
 17 22  1  0
 18 19  1  0
 18 17  1  0
 20 19  1  0
 20 27  1  0
 20 21  1  0
 22 16  1  0
 22 21  1  0
 23 16  2  0
 24 25  2  0
 25 44  1  0
 26 25  1  0
 26 29  1  0
 27 24  1  0
 27 28  1  0
 28 26  2  0
 29 30  1  0
 30 31  2  0
 32 35  1  0
 32 31  1  0
 33 32  2  0
 34 33  1  0
 34 29  2  0
 35 36  1  0
 36 41  2  0
 36 37  1  0
 37 38  2  0
 38 39  1  0
 39 43  1  0
 40 39  2  0
 41 40  1  0
 42 41  1  0
 44 45  1  0
 45 48  1  0
 45 47  1  0
 46 44  2  0
 49 50  1  0
 49 24  1  0
 51 49  1  0
 53 64  2  0
 54 52  1  0
 54 59  1  0
 55 63  1  0
 55 65  1  0
 56 62  1  0
 56 58  1  0
 57 63  1  0
 58 57  1  0
 59 58  2  0
 60 61  1  0
 60 54  2  0
 61 56  2  0
 62 55  1  0
 63 53  1  0
 65 67  2  0
 66 65  1  0
 68 66  1  0
 69 78  2  0
 69 74  1  0
 70 66  1  0
 70 74  1  0
 71 70  1  0
 72 73  1  0
 72 71  1  0
 73 69  1  0
 74 75  2  0
 75 76  1  0
 77 76  2  0
 78 77  1  0
 79 53  1  0
 79 80  1  0
 79 89  1  0
 80 83  1  0
 81 85  1  0
 81 80  1  0
 82 81  2  0
 85 84  1  0
 87 85  1  0
 87 88  1  0
 87 86  1  0
 89 92  1  1
 89 90  1  0
 91 89  1  0
M  ISO  4   6 101  15 100  16 100  52 101
M  END
>  <TORSDO>  (54) 
F 21

>  <SCORE>  (54) 
-13.170

>  <name>  (54) 
53

>  <ligand_id>  (54) 
53

>  <original_smiles>  (54) 
[H]c1c([H])c(Oc2c([H])c([H])c3c(c2[H])C([H])([H])N(C(=O)C([H])(N([H])C(=O)C([H])(N([H])C([H])([H])[H])C([H])([H])[H])C(C([H])([H])[H])(C([H])([H])[H])C([H])([H])[H])C([H])(C(=O)N([H])C2([H])c4c([H])c([H])c([H])c([H])c4C([H])([H])C([H])([H])C2([H])[H])C3([H])[H])c(C([H])(C([H])([H])[H])[N+]([H])([H])C([H])([H])C([H])([H])C([H])([H])C(=O)N2C([H])([H])C([H])([H])C([H])([H])C([H])(n3nc(-c4c([H])c([H])c(Oc5c([H])c([H])c(F)c([H])c5F)c([H])c4[H])c(C(=O)N([H])[H])c3N([H])[H])C2([H])[H])c(C([H])([H])[H])c1[H]

>  <smiles>  (54) 
[H]c1c([H])c(Oc2c([H])c([H])c3c(c2[H])C([H])([H])N(C(=O)C([H])(N([H])C(=O)C([H])(N([H])C([H])([H])[H])C([H])([H])[H])C(C([H])([H])[H])(C([H])([H])[H])C([H])([H])[H])C([H])(C(=O)N([H])C2([H])c4c([H])c([H])c([H])c([H])c4C([H])([H])C([H])([H])C2([H])[H])C3([H])[H])c(C([H])(C([H])([H])[H])[N+]([H])([H])C([H])([H])C([H])([H])C([H])([H])C(=O)N2C([H])([H])C([H])([H])C([H])([H])C([H])(n3nc(-c4c([H])c([H])c(Oc5c([H])c([H])c(F)c([H])c5F)c([H])c4[H])c(C(=O)N([H])[H])c3N([H])[H])C2([H])[H])c(C([H])([H])[H])c1[H]

$$$$
54:0:0
     RDKit          3D

 99109  0  0  1  0  0  0  0  0999 V2000
  -28.2090  -22.5700   19.4950 C   0  0  0  0  0  3  0  0  0  0  0  0
  -29.5790  -24.3750   20.3580 C   0  0  0  0  0  3  0  0  0  0  0  0
  -27.2460  -24.7740   19.8910 C   0  0  0  0  0  3  0  0  0  0  0  0
  -29.4450  -22.9670   20.0390 C   0  0  0  0  0  0  0  0  0  0  0  0
  -27.1170  -23.4500   19.4240 C   0  0  0  0  0  0  0  0  0  0  0  0
  -28.5080  -25.3340   20.2360 C   0  0  0  0  0  0  0  0  0  0  0  0
  -30.6300  -21.9750   20.1150 C   0  0  0  0  0  0  0  0  0  0  0  0
  -29.6810  -18.4960   21.6350 C   0  0  0  0  0  2  0  0  0  0  0  0
  -31.3780  -18.2070   19.8170 C   0  0  0  0  0  2  0  0  0  0  0  0
  -29.3630  -19.8230   20.8400 C   0  0  0  0  0  2  0  0  0  0  0  0
  -31.6910  -19.7250   20.0380 C   0  0  0  0  0  2  0  0  0  0  0  0
  -30.7690  -17.5300   21.0660 C   0  0  0  0  0  3  0  0  0  0  0  0
  -30.5190  -20.6010   20.3210 N   0  0  0  0  0  0  0  0  0  0  0  0
  -31.7480  -22.4710   19.9450 O   0  0  0  0  0  0  0  0  0  0  0  0
  -31.0440  -15.0150   20.5100 C   0  0  0  0  0  0  0  0  0  0  0  0
  -30.8250  -12.8170   19.3700 C   0  0  0  0  0  2  0  0  0  0  0  0
  -29.9120  -12.9580   18.1340 C   0  0  0  0  0  2  0  0  0  0  0  0
  -28.4400  -12.7530   18.5340 C   0  0  0  0  0  2  0  0  0  0  0  0
  -28.0310  -13.5910   19.7720 C   0  0  0  0  0  3  0  0  0  0  0  0
  -29.0700  -13.4700   20.9110 C   0  0  0  0  0  2  0  0  0  0  0  0
  -30.3860  -13.8220   20.3590 N   0  0  0  0  0  0  0  0  0  0  0  0
  -32.2190  -15.1450   20.1670 O   0  0  0  0  0  0  0  0  0  0  0  0
  -30.3080  -16.1060   20.8780 N   0  0  0  0  0  0  0  0  0  0  0  0
  -29.3390  -15.9120   21.0780 H   0  0  0  0  0  0  0  0  0  0  0  0
  -25.5990  -14.1100   20.4140 C   0  0  0  0  0  0  0  0  0  0  0  0
  -24.5460  -13.3020   20.7540 C   0  0  0  0  0  0  0  0  0  0  0  0
  -25.0580  -11.9690   20.7580 C   0  0  0  0  0  0  0  0  0  0  0  0
  -26.6800  -13.2640   20.2220 N   0  0  0  0  0  0  0  0  0  0  0  0
  -26.3580  -11.9730   20.4930 N   0  0  0  0  0  0  0  0  0  0  0  0
  -24.3670  -10.6840   20.9380 C   0  0  0  0  0  0  0  0  0  0  0  0
  -24.7570   -9.7720   21.9420 C   0  0  0  0  0  3  0  0  0  0  0  0
  -24.0660   -8.5510   22.1090 C   0  0  0  0  0  3  0  0  0  0  0  0
  -22.9710   -8.2360   21.2680 C   0  0  0  0  0  0  0  0  0  0  0  0
  -22.6000   -9.1370   20.2550 C   0  0  0  0  0  3  0  0  0  0  0  0
  -23.2930  -10.3480   20.0880 C   0  0  0  0  0  3  0  0  0  0  0  0
  -22.2580   -7.0620   21.3400 O   0  0  0  0  0  0  0  0  0  0  0  0
  -22.0550   -6.4160   22.5320 C   0  0  0  0  0  0  0  0  0  0  0  0
  -21.4020   -7.0410   23.6170 C   0  0  0  0  0  3  0  0  0  0  0  0
  -21.1500   -6.3160   24.8000 C   0  0  0  0  0  3  0  0  0  0  0  0
  -21.5400   -4.9670   24.8970 C   0  0  0  0  0  0  0  0  0  0  0  0
  -22.1840   -4.3410   23.8160 C   0  0  0  0  0  3  0  0  0  0  0  0
  -22.4380   -5.0630   22.6360 C   0  0  0  0  0  0  0  0  0  0  0  0
  -23.0400   -4.4480   21.5890 F   0  0  0  0  0  0  0  0  0  0  0  0
  -21.2930   -4.2680   26.0290 F   0  0  0  0  0  0  0  0  0  0  0  0
  -23.1260  -13.7340   20.9730 C   0  0  0  0  0  0  0  0  0  0  0  0
  -22.3980  -13.0290   21.8340 N   0  0  0  0  0  0  0  0  0  0  0  0
  -22.6660  -14.7320   20.4210 O   0  0  0  0  0  0  0  0  0  0  0  0
  -22.7810  -12.2210   22.3010 H   0  0  0  0  0  0  0  0  0  0  0  0
  -21.4450  -13.3010   22.0290 H   0  0  0  0  0  0  0  0  0  0  0  0
  -25.7180  -15.4820   20.2290 N   0  0  0  0  0  0  0  0  0  0  0  0
  -24.9200  -16.1050   20.2940 H   0  0  0  0  0  0  0  0  0  0  0  0
  -26.5580  -15.9460   19.9060 H   0  0  0  0  0  0  0  0  0  0  0  0
  -24.2180  -21.3930   16.8020 C   0  0  0  0  0  2  0  0  0  0  0  0
  -24.1580  -21.1270   18.3170 C   0  0  0  0  0  2  0  0  0  0  0  0
  -24.6180  -22.8480   16.5010 C   0  0  0  0  0  2  0  0  0  0  0  0
  -25.4620  -21.5310   19.0280 C   0  0  0  0  0  2  0  0  0  0  0  0
  -25.9330  -23.2210   17.2040 C   0  0  0  0  0  2  0  0  0  0  0  0
  -25.8350  -22.9990   18.7280 C   0  0  0  0  0  3  0  0  0  0  0  0
  -28.7030  -26.7400   20.4140 O   0  0  0  0  0  0  0  0  0  0  0  0
  -25.1480  -32.0340   23.8080 C   0  0  0  0  0  0  0  0  0  0  0  0
  -27.6420  -27.6670   20.3950 C   0  0  0  0  0  0  0  0  0  0  0  0
  -23.9060  -30.7870   22.0750 C   0  0  0  0  0  3  0  0  0  0  0  0
  -25.3210  -29.3340   20.5170 C   0  0  0  0  0  0  0  0  0  0  0  0
  -26.4520  -31.0600   21.9100 C   0  0  0  0  0  2  0  0  0  0  0  0
  -26.4950  -29.7340   21.1650 C   0  0  0  0  0  0  0  0  0  0  0  0
  -27.6530  -28.8990   21.1200 C   0  0  0  0  0  3  0  0  0  0  0  0
  -26.4830  -27.3950   19.6320 C   0  0  0  0  0  3  0  0  0  0  0  0
  -25.3160  -28.1680   19.7440 C   0  0  0  0  0  3  0  0  0  0  0  0
  -24.0950  -30.2150   20.6460 C   0  0  0  0  0  2  0  0  0  0  0  0
  -25.1860  -31.3090   22.6510 N   0  0  0  0  0  0  0  0  0  0  0  0
  -24.0760  -32.2940   24.3730 O   0  0  0  0  0  0  0  0  0  0  0  0
  -23.2320  -29.7140   22.9630 C   0  0  0  0  0  0  0  0  0  0  0  0
  -21.9380  -29.4560   22.7190 N   0  0  0  0  0  0  0  0  0  0  0  0
  -23.8760  -29.1170   23.8300 O   0  0  0  0  0  0  0  0  0  0  0  0
  -21.4870  -29.9700   21.9740 H   0  0  0  0  0  0  0  0  0  0  0  0
  -18.6210  -28.0350   22.9060 C   0  0  0  0  0  0  0  0  0  0  0  0
  -21.1200  -28.4630   23.4140 C   0  0  0  0  0  3  0  0  0  0  0  0
  -21.3690  -27.0470   22.8450 C   0  0  0  0  0  2  0  0  0  0  0  0
  -20.3960  -26.6820   21.7190 C   0  0  0  0  0  2  0  0  0  0  0  0
  -18.9560  -26.7130   22.2350 C   0  0  0  0  0  2  0  0  0  0  0  0
  -19.6410  -28.8650   23.4430 C   0  0  0  0  0  0  0  0  0  0  0  0
  -19.2840  -30.1020   24.0170 C   0  0  0  0  0  3  0  0  0  0  0  0
  -17.9400  -30.5140   24.0690 C   0  0  0  0  0  3  0  0  0  0  0  0
  -16.9320  -29.6810   23.5540 C   0  0  0  0  0  3  0  0  0  0  0  0
  -17.2710  -28.4440   22.9780 C   0  0  0  0  0  3  0  0  0  0  0  0
  -26.4490  -32.5900   24.4640 C   0  0  0  0  0  3  0  0  0  0  0  0
  -26.1780  -33.9750   24.8710 N   0  0  0  0  0  0  0  0  0  0  0  0
  -26.4670  -35.0560   24.1350 C   0  0  0  0  0  0  0  0  0  0  0  0
  -27.0610  -34.9920   23.0550 O   0  0  0  0  0  0  0  0  0  0  0  0
  -25.6300  -34.0980   25.7110 H   0  0  0  0  0  0  0  0  0  0  0  0
  -24.7140  -36.8560   24.0130 C   0  0  0  0  0  1  0  0  0  0  0  0
  -26.0300  -36.4280   24.6840 C   0  0  0  0  0  3  0  0  0  0  0  0
  -28.2330  -37.2930   25.3340 C   0  0  0  0  0  1  0  0  0  0  0  0
  -27.0490  -37.4840   24.5020 N   0  0  0  0  0  0  0  0  0  0  0  0
  -26.6620  -38.4000   24.7090 H   0  0  0  0  0  0  0  0  0  0  0  0
  -26.9420  -31.7320   25.6950 C   0  0  1  0  0  0  0  0  0  0  0  0
  -25.8090  -31.3620   26.6800 C   0  0  0  0  0  1  0  0  0  0  0  0
  -27.6050  -30.4150   25.2290 C   0  0  0  0  0  1  0  0  0  0  0  0
  -28.0250  -32.5140   26.4740 C   0  0  0  0  0  1  0  0  0  0  0  0
  1  4  1  0
  3  6  2  0
  4  7  1  0
  4  2  2  0
  5  1  2  0
  5  3  1  0
  6  2  1  0
  6 59  1  0
  7 13  1  0
  9 11  1  0
  9 12  1  0
 10  8  1  0
 11 13  1  0
 12 23  1  0
 12  8  1  0
 13 10  1  0
 14  7  2  0
 15 23  1  0
 16 21  1  0
 17 18  1  0
 17 16  1  0
 19 18  1  0
 19 28  1  0
 19 20  1  0
 21 15  1  0
 21 20  1  0
 22 15  2  0
 23 24  1  0
 25 26  2  0
 26 27  1  0
 26 45  1  0
 27 30  1  0
 28 25  1  0
 28 29  1  0
 29 27  2  0
 30 31  1  0
 31 32  2  0
 33 36  1  0
 33 32  1  0
 34 33  2  0
 35 34  1  0
 35 30  2  0
 36 37  1  0
 37 42  2  0
 37 38  1  0
 38 39  2  0
 39 40  1  0
 40 44  1  0
 41 40  2  0
 42 41  1  0
 43 42  1  0
 45 46  1  0
 46 49  1  0
 46 48  1  0
 47 45  2  0
 50 51  1  0
 50 25  1  0
 52 50  1  0
 53 54  1  0
 54 56  1  0
 55 53  1  0
 55 57  1  0
 57 58  1  0
 58 56  1  0
 58  5  1  0
 60 71  2  0
 61 59  1  0
 61 66  1  0
 62 70  1  0
 62 72  1  0
 63 69  1  0
 63 65  1  0
 64 70  1  0
 65 64  1  0
 66 65  2  0
 67 68  1  0
 67 61  2  0
 68 63  2  0
 69 62  1  0
 70 60  1  0
 72 74  2  0
 73 72  1  0
 75 73  1  0
 76 85  2  0
 76 81  1  0
 77 73  1  0
 77 81  1  0
 78 77  1  0
 79 80  1  0
 79 78  1  0
 80 76  1  0
 81 82  2  0
 82 83  1  0
 84 83  2  0
 85 84  1  0
 86 60  1  0
 86 87  1  0
 86 96  1  0
 87 90  1  0
 88 92  1  0
 88 87  1  0
 89 88  2  0
 92 91  1  0
 94 92  1  0
 94 95  1  0
 94 93  1  0
 96 99  1  1
 96 97  1  0
 98 96  1  0
M  ISO  4   6 101  15 100  23 100  59 101
M  END
>  <TORSDO>  (55) 
F 18

>  <SCORE>  (55) 
-11.824

>  <name>  (55) 
54

>  <ligand_id>  (55) 
54

>  <original_smiles>  (55) 
[H]c1c([H])c([H])c2c(c1[H])C([H])([H])C([H])([H])C([H])([H])C2([H])N([H])C(=O)C1([H])N(C(=O)C([H])(N([H])C(=O)C([H])(N([H])C([H])([H])[H])C([H])([H])[H])C(C([H])([H])[H])(C([H])([H])[H])C([H])([H])[H])C([H])([H])c2c([H])c(Oc3c([H])c(C(=O)N4C([H])([H])C([H])([H])C([H])(N([H])C(=O)N5C([H])([H])C([H])([H])C([H])([H])C([H])(n6nc(-c7c([H])c([H])c(Oc8c([H])c([H])c(F)c([H])c8F)c([H])c7[H])c(C(=O)N([H])[H])c6N([H])[H])C5([H])[H])C([H])([H])C4([H])[H])c([H])c(C4([H])C([H])([H])C([H])([H])C([H])([H])C([H])([H])C4([H])[H])c3[H])c([H])c([H])c2C1([H])[H]

>  <smiles>  (55) 
[H]c1c([H])c([H])c2c(c1[H])C([H])([H])C([H])([H])C([H])([H])C2([H])N([H])C(=O)C1([H])N(C(=O)C([H])(N([H])C(=O)C([H])(N([H])C([H])([H])[H])C([H])([H])[H])C(C([H])([H])[H])(C([H])([H])[H])C([H])([H])[H])C([H])([H])c2c([H])c(Oc3c([H])c(C(=O)N4C([H])([H])C([H])([H])C([H])(N([H])C(=O)N5C([H])([H])C([H])([H])C([H])([H])C([H])(n6nc(-c7c([H])c([H])c(Oc8c([H])c([H])c(F)c([H])c8F)c([H])c7[H])c(C(=O)N([H])[H])c6N([H])[H])C5([H])[H])C([H])([H])C4([H])[H])c([H])c(C4([H])C([H])([H])C([H])([H])C([H])([H])C([H])([H])C4([H])[H])c3[H])c([H])c([H])c2C1([H])[H]

$$$$
55:0:0
     RDKit          3D

 89 97  0  0  1  0  0  0  0  0999 V2000
  -31.0870  -21.9210   17.8620 C   0  0  0  0  0  3  0  0  0  0  0  0
  -30.9660  -23.2870   18.0650 C   0  0  0  0  0  3  0  0  0  0  0  0
  -30.3240  -21.0380   18.6290 C   0  0  0  0  0  3  0  0  0  0  0  0
  -30.0060  -23.7620   18.9600 C   0  0  0  0  0  3  0  0  0  0  0  0
  -29.4150  -21.3820   19.6650 C   0  0  0  0  0  0  0  0  0  0  0  0
  -29.1270  -22.9640   19.7430 C   0  0  0  0  0  0  0  0  0  0  0  0
  -28.9880  -19.7900   20.2650 C   0  0  0  0  0  2  0  0  0  0  0  0
  -31.4440  -18.4430   19.9940 C   0  0  0  0  0  1  0  0  0  0  0  0
  -29.9790  -18.2440   20.4270 C   0  0  0  0  0  0  0  0  0  0  0  0
  -30.3770  -15.2910   20.2530 C   0  0  0  0  0  0  0  0  0  0  0  0
  -30.3280  -12.8460   19.3630 C   0  0  0  0  0  2  0  0  0  0  0  0
  -29.3950  -12.6310   18.1460 C   0  0  0  0  0  2  0  0  0  0  0  0
  -27.9580  -12.3480   18.6100 C   0  0  0  0  0  2  0  0  0  0  0  0
  -27.5140  -13.3150   19.7370 C   0  0  0  0  0  3  0  0  0  0  0  0
  -28.5760  -13.4790   20.8440 C   0  0  0  0  0  2  0  0  0  0  0  0
  -29.7900  -13.9920   20.1870 N   0  0  0  0  0  0  0  0  0  0  0  0
  -31.6010  -15.2510   20.0580 O   0  0  0  0  0  0  0  0  0  0  0  0
  -29.6430  -16.5910   20.3320 N   0  0  0  0  0  4  0  0  0  0  0  0
  -28.6510  -16.4190   20.3920 H   0  0  0  0  0  0  0  0  0  0  0  0
  -25.1550  -13.8650   20.5240 C   0  0  0  0  0  0  0  0  0  0  0  0
  -24.0990  -13.0860   20.9040 C   0  0  0  0  0  0  0  0  0  0  0  0
  -24.5700  -11.7370   20.8680 C   0  0  0  0  0  0  0  0  0  0  0  0
  -26.1960  -12.9930   20.2660 N   0  0  0  0  0  0  0  0  0  0  0  0
  -25.8590  -11.7060   20.5440 N   0  0  0  0  0  0  0  0  0  0  0  0
  -23.8480  -10.4730   21.0620 C   0  0  0  0  0  0  0  0  0  0  0  0
  -24.2990   -9.4980   21.9780 C   0  0  0  0  0  3  0  0  0  0  0  0
  -23.5750   -8.3000   22.1640 C   0  0  0  0  0  3  0  0  0  0  0  0
  -22.3850   -8.0690   21.4340 C   0  0  0  0  0  0  0  0  0  0  0  0
  -21.9520   -9.0340   20.5070 C   0  0  0  0  0  3  0  0  0  0  0  0
  -22.6760  -10.2220   20.3200 C   0  0  0  0  0  3  0  0  0  0  0  0
  -21.6290   -6.9260   21.5320 O   0  0  0  0  0  0  0  0  0  0  0  0
  -21.6180   -6.1640   22.6720 C   0  0  0  0  0  0  0  0  0  0  0  0
  -21.2460   -6.7020   23.9240 C   0  0  0  0  0  3  0  0  0  0  0  0
  -21.1820   -5.8680   25.0580 C   0  0  0  0  0  3  0  0  0  0  0  0
  -21.4780   -4.4960   24.9420 C   0  0  0  0  0  0  0  0  0  0  0  0
  -21.8440   -3.9580   23.6950 C   0  0  0  0  0  3  0  0  0  0  0  0
  -21.9100   -4.7890   22.5640 C   0  0  0  0  0  0  0  0  0  0  0  0
  -22.2410   -4.2610   21.3600 F   0  0  0  0  0  0  0  0  0  0  0  0
  -21.4100   -3.6920   26.0280 F   0  0  0  0  0  0  0  0  0  0  0  0
  -22.7040  -13.5590   21.1830 C   0  0  0  0  0  0  0  0  0  0  0  0
  -21.9830  -12.8670   22.0570 N   0  0  0  0  0  0  0  0  0  0  0  0
  -22.2600  -14.5810   20.6600 O   0  0  0  0  0  0  0  0  0  0  0  0
  -22.3550  -12.0440   22.5060 H   0  0  0  0  0  0  0  0  0  0  0  0
  -21.0460  -13.1680   22.2840 H   0  0  0  0  0  0  0  0  0  0  0  0
  -25.3100  -15.2360   20.3420 N   0  0  0  0  0  0  0  0  0  0  0  0
  -24.5420  -15.8880   20.4610 H   0  0  0  0  0  0  0  0  0  0  0  0
  -26.1430  -15.6730   19.9670 H   0  0  0  0  0  0  0  0  0  0  0  0
  -28.0580  -24.1890   20.3560 C   0  0  0  0  0  2  0  0  0  0  0  0
  -28.2260  -25.8440   20.2150 O   0  0  0  0  0  0  0  0  0  0  0  0
  -24.6490  -31.8420   23.1810 C   0  0  0  0  0  0  0  0  0  0  0  0
  -27.1920  -26.9250   20.2040 C   0  0  0  0  0  0  0  0  0  0  0  0
  -23.4480  -30.4290   21.5630 C   0  0  0  0  0  3  0  0  0  0  0  0
  -24.8880  -28.8060   20.1530 C   0  0  0  0  0  0  0  0  0  0  0  0
  -26.0140  -30.6380   21.4010 C   0  0  0  0  0  2  0  0  0  0  0  0
  -26.0820  -29.2190   20.7600 C   0  0  0  0  0  0  0  0  0  0  0  0
  -27.2290  -28.3020   20.7550 C   0  0  0  0  0  3  0  0  0  0  0  0
  -25.9660  -26.6620   19.5560 C   0  0  0  0  0  3  0  0  0  0  0  0
  -24.8560  -27.5480   19.5300 C   0  0  0  0  0  3  0  0  0  0  0  0
  -23.6700  -29.7280   20.1930 C   0  0  0  0  0  2  0  0  0  0  0  0
  -24.7260  -30.9970   22.1010 N   0  0  0  0  0  0  0  0  0  0  0  0
  -23.5610  -32.1350   23.7040 O   0  0  0  0  0  0  0  0  0  0  0  0
  -22.7580  -29.4430   22.5420 C   0  0  0  0  0  0  0  0  0  0  0  0
  -21.4270  -29.2780   22.4260 N   0  0  0  0  0  0  0  0  0  0  0  0
  -23.4280  -28.8270   23.3740 O   0  0  0  0  0  0  0  0  0  0  0  0
  -20.9380  -29.8270   21.7330 H   0  0  0  0  0  0  0  0  0  0  0  0
  -18.0510  -28.0600   22.9550 C   0  0  0  0  0  0  0  0  0  0  0  0
  -20.6090  -28.3470   23.2110 C   0  0  0  0  0  3  0  0  0  0  0  0
  -20.7180  -26.9070   22.6590 C   0  0  0  0  0  2  0  0  0  0  0  0
  -19.6170  -26.5620   21.6490 C   0  0  0  0  0  2  0  0  0  0  0  0
  -18.2360  -26.7040   22.2940 C   0  0  0  0  0  2  0  0  0  0  0  0
  -19.1640  -28.8370   23.3710 C   0  0  0  0  0  0  0  0  0  0  0  0
  -18.9340  -30.1030   23.9530 C   0  0  0  0  0  3  0  0  0  0  0  0
  -17.6240  -30.5910   24.1220 C   0  0  0  0  0  3  0  0  0  0  0  0
  -16.5260  -29.8110   23.7190 C   0  0  0  0  0  3  0  0  0  0  0  0
  -16.7400  -28.5480   23.1410 C   0  0  0  0  0  3  0  0  0  0  0  0
  -25.9210  -32.4930   23.8020 C   0  0  0  0  0  3  0  0  0  0  0  0
  -26.4500  -31.7240   25.0760 C   0  0  1  0  0  0  0  0  0  0  0  0
  -25.3660  -31.4830   26.1530 C   0  0  0  0  0  1  0  0  0  0  0  0
  -27.0380  -30.3470   24.6910 C   0  0  0  0  0  1  0  0  0  0  0  0
  -27.6020  -32.5250   25.7290 C   0  0  0  0  0  1  0  0  0  0  0  0
  -25.5950  -33.8860   24.1520 N   0  0  0  0  0  0  0  0  0  0  0  0
  -25.9020  -34.9590   23.4090 C   0  0  0  0  0  0  0  0  0  0  0  0
  -26.5550  -34.8780   22.3650 O   0  0  0  0  0  0  0  0  0  0  0  0
  -25.0120  -34.0210   24.9660 H   0  0  0  0  0  0  0  0  0  0  0  0
  -24.1480  -36.7440   23.1270 C   0  0  0  0  0  1  0  0  0  0  0  0
  -25.4140  -36.3370   23.9000 C   0  0  0  0  0  3  0  0  0  0  0  0
  -27.5600  -37.2390   24.6870 C   0  0  0  0  0  1  0  0  0  0  0  0
  -26.4340  -37.4030   23.7720 N   0  0  0  0  0  0  0  0  0  0  0  0
  -26.0210  -38.3170   23.9370 H   0  0  0  0  0  0  0  0  0  0  0  0
  1  2  2  0
  1  3  1  0
  2  4  1  0
  3  5  2  0
  4  6  2  0
  5  6  1  0
  5  7  1  0
  6 48  1  0
  7  9  1  0
  8  9  1  0
 10 18  1  0
 11 16  1  0
 12 13  1  0
 12 11  1  0
 14 13  1  0
 14 23  1  0
 14 15  1  0
 16 10  1  0
 16 15  1  0
 17 10  2  0
 18 19  1  0
 18  9  2  0
 20 21  2  0
 21 40  1  0
 22 21  1  0
 22 25  1  0
 23 20  1  0
 23 24  1  0
 24 22  2  0
 25 26  1  0
 26 27  2  0
 28 31  1  0
 28 27  1  0
 29 28  2  0
 30 29  1  0
 30 25  2  0
 31 32  1  0
 32 33  1  0
 33 34  2  0
 35 34  1  0
 35 39  1  0
 36 35  2  0
 37 32  2  0
 37 36  1  0
 38 37  1  0
 40 41  1  0
 41 44  1  0
 41 43  1  0
 42 40  2  0
 45 46  1  0
 45 20  1  0
 47 45  1  0
 49 48  1  0
 50 61  2  0
 51 49  1  0
 51 56  1  0
 52 60  1  0
 52 62  1  0
 53 59  1  0
 53 55  1  0
 54 60  1  0
 55 54  1  0
 56 55  2  0
 57 51  2  0
 58 57  1  0
 58 53  2  0
 59 52  1  0
 60 50  1  0
 62 64  2  0
 63 62  1  0
 65 63  1  0
 66 75  2  0
 66 71  1  0
 67 63  1  0
 67 71  1  0
 68 67  1  0
 69 70  1  0
 69 68  1  0
 70 66  1  0
 71 72  2  0
 72 73  1  0
 74 73  2  0
 75 74  1  0
 76 50  1  0
 76 81  1  0
 76 77  1  0
 77 80  1  1
 77 78  1  0
 79 77  1  0
 81 84  1  0
 82 86  1  0
 82 81  1  0
 83 82  2  0
 86 85  1  0
 88 86  1  0
 88 89  1  0
 88 87  1  0
M  ISO  4  10 100  18 100  48 101  49 101
M  END
>  <TORSDO>  (56) 
F 19

>  <SCORE>  (56) 
-16.558

>  <name>  (56) 
55

>  <ligand_id>  (56) 
55

>  <original_smiles>  (56) 
[H]c1c([H])c([H])c(C([H])([H])C([H])(N([H])C(=O)N2C([H])([H])C([H])([H])C([H])([H])C([H])(n3nc(-c4c([H])c([H])c(Oc5c([H])c([H])c(F)c([H])c5F)c([H])c4[H])c(C(=O)N([H])[H])c3N([H])[H])C2([H])[H])C([H])([H])[H])c(C([H])([H])Oc2c([H])c([H])c3c(c2[H])C([H])([H])N(C(=O)C([H])(N([H])C(=O)C([H])(N([H])C([H])([H])[H])C([H])([H])[H])C(C([H])([H])[H])(C([H])([H])[H])C([H])([H])[H])C([H])(C(=O)N([H])C2([H])c4c([H])c([H])c([H])c([H])c4C([H])([H])C([H])([H])C2([H])[H])C3([H])[H])c1[H]

>  <smiles>  (56) 
[H]c1c([H])c([H])c(C([H])([H])C([H])(N([H])C(=O)N2C([H])([H])C([H])([H])C([H])([H])C([H])(n3nc(-c4c([H])c([H])c(Oc5c([H])c([H])c(F)c([H])c5F)c([H])c4[H])c(C(=O)N([H])[H])c3N([H])[H])C2([H])[H])C([H])([H])[H])c(C([H])([H])Oc2c([H])c([H])c3c(c2[H])C([H])([H])N(C(=O)C([H])(N([H])C(=O)C([H])(N([H])C([H])([H])[H])C([H])([H])[H])C(C([H])([H])[H])(C([H])([H])[H])C([H])([H])[H])C([H])(C(=O)N([H])C2([H])c4c([H])c([H])c([H])c([H])c4C([H])([H])C([H])([H])C2([H])[H])C3([H])[H])c1[H]

$$$$
56:0:0
     RDKit          3D

 95104  0  0  1  0  0  0  0  0999 V2000
  -29.5720  -19.5000   20.1280 C   0  0  0  0  0  3  0  0  0  0  0  0
  -31.1550  -17.8970   18.4740 C   0  0  0  0  0  3  0  0  0  0  0  0
  -29.9200  -18.1740   20.5170 C   0  0  0  0  0  0  0  0  0  0  0  0
  -30.7330  -17.3180   19.6990 C   0  0  0  0  0  0  0  0  0  0  0  0
  -30.8180  -19.2300   18.0910 C   0  0  0  0  0  0  0  0  0  0  0  0
  -30.0270  -20.0780   18.9230 C   0  0  0  0  0  0  0  0  0  0  0  0
  -29.4100  -17.7280   21.8750 C   0  0  0  0  0  2  0  0  0  0  0  0
  -30.3070  -16.6820   22.5190 C   0  0  0  0  0  2  0  0  0  0  0  0
  -30.5510  -15.5410   21.5310 C   0  0  0  0  0  2  0  0  0  0  0  0
  -31.2970  -15.9190   20.2260 C   0  0  2  0  0  0  0  0  0  0  0  0
  -31.3450  -19.7410   16.7580 C   0  0  0  0  0  1  0  0  0  0  0  0
  -32.7660  -16.2150   20.6360 C   0  0  0  0  0  1  0  0  0  0  0  0
  -31.4320  -14.6870   19.1750 C   0  0  0  0  0  0  0  0  0  0  0  0
  -30.8620  -12.5310   18.0270 C   0  0  0  0  0  2  0  0  0  0  0  0
  -29.6700  -12.7110   17.0580 C   0  0  0  0  0  2  0  0  0  0  0  0
  -28.3150  -12.5850   17.7850 C   0  0  0  0  0  2  0  0  0  0  0  0
  -28.2850  -13.3940   19.1090 C   0  0  0  0  0  3  0  0  0  0  0  0
  -29.5430  -13.0590   19.9310 C   0  0  0  0  0  2  0  0  0  0  0  0
  -30.7130  -13.5000   19.1470 N   0  0  0  0  0  0  0  0  0  0  0  0
  -32.3310  -14.8120   18.3350 O   0  0  0  0  0  0  0  0  0  0  0  0
  -26.2130  -14.0740   20.4730 C   0  0  0  0  0  0  0  0  0  0  0  0
  -25.1730  -13.3420   20.9830 C   0  0  0  0  0  0  0  0  0  0  0  0
  -25.4420  -11.9820   20.6390 C   0  0  0  0  0  0  0  0  0  0  0  0
  -27.0560  -13.1570   19.8620 N   0  0  0  0  0  0  0  0  0  0  0  0
  -26.6070  -11.8860   20.0120 N   0  0  0  0  0  0  0  0  0  0  0  0
  -24.6300  -10.7720   20.8220 C   0  0  0  0  0  0  0  0  0  0  0  0
  -25.0510   -9.7200   21.6650 C   0  0  0  0  0  3  0  0  0  0  0  0
  -24.2450   -8.5750   21.8380 C   0  0  0  0  0  3  0  0  0  0  0  0
  -23.0030   -8.4740   21.1690 C   0  0  0  0  0  0  0  0  0  0  0  0
  -22.5990   -9.5130   20.3120 C   0  0  0  0  0  3  0  0  0  0  0  0
  -23.4050  -10.6500   20.1360 C   0  0  0  0  0  3  0  0  0  0  0  0
  -22.1650   -7.3880   21.2580 O   0  0  0  0  0  0  0  0  0  0  0  0
  -21.9940   -6.7060   22.4360 C   0  0  0  0  0  0  0  0  0  0  0  0
  -21.5210   -7.3420   23.6040 C   0  0  0  0  0  3  0  0  0  0  0  0
  -21.2930   -6.5870   24.7720 C   0  0  0  0  0  3  0  0  0  0  0  0
  -21.5270   -5.1990   24.7730 C   0  0  0  0  0  0  0  0  0  0  0  0
  -21.9930   -4.5630   23.6090 C   0  0  0  0  0  3  0  0  0  0  0  0
  -22.2220   -5.3140   22.4430 C   0  0  0  0  0  0  0  0  0  0  0  0
  -22.6510   -4.6930   21.3180 F   0  0  0  0  0  0  0  0  0  0  0  0
  -21.3000   -4.4740   25.8920 F   0  0  0  0  0  0  0  0  0  0  0  0
  -23.9510  -13.8820   21.6670 C   0  0  0  0  0  0  0  0  0  0  0  0
  -23.3990  -13.1330   22.6160 N   0  0  0  0  0  0  0  0  0  0  0  0
  -23.5040  -14.9960   21.3950 O   0  0  0  0  0  0  0  0  0  0  0  0
  -23.7760  -12.2280   22.8520 H   0  0  0  0  0  0  0  0  0  0  0  0
  -22.5870  -13.4710   23.1140 H   0  0  0  0  0  0  0  0  0  0  0  0
  -26.5020  -15.4340   20.4590 N   0  0  0  0  0  0  0  0  0  0  0  0
  -25.8720  -16.1270   20.8480 H   0  0  0  0  0  0  0  0  0  0  0  0
  -27.3040  -15.8420   19.9960 H   0  0  0  0  0  0  0  0  0  0  0  0
  -29.6660  -21.5470   18.4870 C   0  0  0  0  0  2  0  0  0  0  0  0
  -29.0380  -22.5130   19.4600 N   0  0  0  0  0  4  0  0  0  0  0  0
  -29.5210  -22.4250   20.3400 H   0  0  0  0  0  0  0  0  0  0  0  0
  -28.0850  -22.2180   19.6040 H   0  0  0  0  0  0  0  0  0  0  0  0
  -29.0450  -23.9740   19.0340 C   0  0  0  0  0  3  0  0  0  0  0  0
  -28.1570  -24.9690   19.8820 C   0  0  0  0  0  3  0  0  0  0  0  0
  -28.3170  -26.4080   19.6030 O   0  0  0  0  0  0  0  0  0  0  0  0
  -24.6000  -31.6200   22.9040 C   0  0  0  0  0  0  0  0  0  0  0  0
  -27.1740  -27.2100   19.6460 C   0  0  0  0  0  0  0  0  0  0  0  0
  -23.3650  -30.2650   21.2480 C   0  0  0  0  0  3  0  0  0  0  0  0
  -24.7910  -28.7710   19.7430 C   0  0  0  0  0  0  0  0  0  0  0  0
  -25.8930  -30.6170   21.0110 C   0  0  0  0  0  2  0  0  0  0  0  0
  -25.9670  -29.2610   20.3240 C   0  0  0  0  0  0  0  0  0  0  0  0
  -27.1630  -28.4930   20.2650 C   0  0  0  0  0  3  0  0  0  0  0  0
  -25.9790  -26.7660   19.0390 C   0  0  0  0  0  3  0  0  0  0  0  0
  -24.7960  -27.5270   19.0920 C   0  0  0  0  0  3  0  0  0  0  0  0
  -23.5490  -29.6320   19.8450 C   0  0  0  0  0  2  0  0  0  0  0  0
  -24.6400  -30.8490   21.7790 N   0  0  0  0  0  0  0  0  0  0  0  0
  -23.5290  -31.8740   23.4720 O   0  0  0  0  0  0  0  0  0  0  0  0
  -22.7330  -29.2150   22.1910 C   0  0  0  0  0  0  0  0  0  0  0  0
  -21.4010  -29.0550   22.1090 N   0  0  0  0  0  0  0  0  0  0  0  0
  -23.4360  -28.5480   22.9540 O   0  0  0  0  0  0  0  0  0  0  0  0
  -20.8930  -29.6450   21.4650 H   0  0  0  0  0  0  0  0  0  0  0  0
  -18.0280  -27.8940   22.7070 C   0  0  0  0  0  0  0  0  0  0  0  0
  -20.6000  -28.0950   22.8710 C   0  0  0  0  0  3  0  0  0  0  0  0
  -20.6490  -26.6930   22.2240 C   0  0  0  0  0  2  0  0  0  0  0  0
  -19.4970  -26.4390   21.2480 C   0  0  0  0  0  2  0  0  0  0  0  0
  -18.1480  -26.5760   21.9610 C   0  0  0  0  0  2  0  0  0  0  0  0
  -19.1790  -28.6150   23.1200 C   0  0  0  0  0  0  0  0  0  0  0  0
  -19.0120  -29.8530   23.7790 C   0  0  0  0  0  3  0  0  0  0  0  0
  -17.7260  -30.3680   24.0290 C   0  0  0  0  0  3  0  0  0  0  0  0
  -16.5900  -29.6430   23.6320 C   0  0  0  0  0  3  0  0  0  0  0  0
  -16.7420  -28.4080   22.9760 C   0  0  0  0  0  3  0  0  0  0  0  0
  -25.8960  -32.2380   23.5160 C   0  0  0  0  0  3  0  0  0  0  0  0
  -26.4990  -31.3760   24.6920 C   0  0  1  0  0  0  0  0  0  0  0  0
  -25.4590  -30.9680   25.7610 C   0  0  0  0  0  1  0  0  0  0  0  0
  -27.1450  -30.0820   24.1430 C   0  0  0  0  0  1  0  0  0  0  0  0
  -27.6270  -32.1680   25.3950 C   0  0  0  0  0  1  0  0  0  0  0  0
  -25.5630  -33.5920   23.9830 N   0  0  0  0  0  0  0  0  0  0  0  0
  -25.8280  -34.7180   23.3070 C   0  0  0  0  0  0  0  0  0  0  0  0
  -26.4510  -34.7260   22.2420 O   0  0  0  0  0  0  0  0  0  0  0  0
  -25.0040  -33.6560   24.8220 H   0  0  0  0  0  0  0  0  0  0  0  0
  -24.0400  -36.4810   23.1880 C   0  0  0  0  0  1  0  0  0  0  0  0
  -25.3250  -36.0440   23.9080 C   0  0  0  0  0  3  0  0  0  0  0  0
  -27.4680  -36.9160   24.7310 C   0  0  0  0  0  1  0  0  0  0  0  0
  -26.3240  -37.1340   23.8480 N   0  0  0  0  0  0  0  0  0  0  0  0
  -25.9010  -38.0250   24.0930 H   0  0  0  0  0  0  0  0  0  0  0  0
  1  3  1  0
  2  4  1  0
  3  7  1  0
  4 10  1  0
  4  3  2  0
  5  2  2  0
  5  6  1  0
  6  1  2  0
  7  8  1  0
  9  8  1  0
 10 12  1  1
 10  9  1  0
 11  5  1  0
 13 10  1  0
 14 19  1  0
 15 16  1  0
 15 14  1  0
 17 16  1  0
 17 24  1  0
 17 18  1  0
 19 13  1  0
 19 18  1  0
 20 13  2  0
 21 22  2  0
 22 41  1  0
 23 26  1  0
 23 22  1  0
 24 25  1  0
 24 21  1  0
 25 23  2  0
 26 27  1  0
 27 28  2  0
 29 32  1  0
 29 28  1  0
 30 29  2  0
 31 30  1  0
 31 26  2  0
 32 33  1  0
 33 38  2  0
 33 34  1  0
 34 35  2  0
 35 36  1  0
 36 40  1  0
 37 36  2  0
 38 37  1  0
 39 38  1  0
 41 42  1  0
 42 44  1  0
 42 45  1  0
 43 41  2  0
 46 21  1  0
 46 47  1  0
 48 46  1  0
 49  6  1  0
 49 50  1  0
 50 52  1  0
 50 51  1  0
 53 50  1  0
 53 54  2  0
 55 57  1  0
 55 54  1  0
 56 67  2  0
 57 62  1  0
 58 66  1  0
 58 68  1  0
 59 65  1  0
 59 61  1  0
 60 66  1  0
 61 60  1  0
 62 61  2  0
 63 64  1  0
 63 57  2  0
 64 59  2  0
 65 58  1  0
 66 56  1  0
 68 70  2  0
 69 68  1  0
 71 69  1  0
 72 81  2  0
 72 77  1  0
 73 69  1  0
 73 77  1  0
 74 73  1  0
 75 76  1  0
 75 74  1  0
 76 72  1  0
 77 78  2  0
 78 79  1  0
 80 79  2  0
 81 80  1  0
 82 56  1  0
 82 87  1  0
 82 83  1  0
 83 86  1  1
 83 84  1  0
 85 83  1  0
 87 90  1  0
 88 92  1  0
 88 87  1  0
 89 88  2  0
 92 91  1  0
 94 92  1  0
 94 95  1  0
 94 93  1  0
M  ISO  4  10 100  13 100  54 101  55 101
M  END
>  <TORSDO>  (57) 
F 20

>  <SCORE>  (57) 
-9.395

>  <name>  (57) 
56

>  <ligand_id>  (57) 
56

>  <original_smiles>  (57) 
[H]c1c([H])c([H])c2c(c1[H])C([H])([H])C([H])([H])C([H])([H])C2([H])N([H])C(=O)C1([H])N(C(=O)C([H])(N([H])C(=O)C([H])(N([H])C([H])([H])[H])C([H])([H])[H])C(C([H])([H])[H])(C([H])([H])[H])C([H])([H])[H])C([H])([H])c2c([H])c(OC([H])([H])C([H])([H])[N+]([H])([H])C([H])([H])c3c([H])c4c(c([H])c3C([H])([H])[H])C(C(=O)N3C([H])([H])C([H])([H])C([H])([H])C([H])(n5nc(-c6c([H])c([H])c(Oc7c([H])c([H])c(F)c([H])c7F)c([H])c6[H])c(C(=O)N([H])[H])c5N([H])[H])C3([H])[H])(C([H])([H])[H])C([H])([H])C([H])([H])C4([H])[H])c([H])c([H])c2C1([H])[H]

>  <smiles>  (57) 
[H]c1c([H])c([H])c2c(c1[H])C([H])([H])C([H])([H])C([H])([H])C2([H])N([H])C(=O)C1([H])N(C(=O)C([H])(N([H])C(=O)C([H])(N([H])C([H])([H])[H])C([H])([H])[H])C(C([H])([H])[H])(C([H])([H])[H])C([H])([H])[H])C([H])([H])c2c([H])c(OC([H])([H])C([H])([H])[N+]([H])([H])C([H])([H])c3c([H])c4c(c([H])c3C([H])([H])[H])C(C(=O)N3C([H])([H])C([H])([H])C([H])([H])C([H])(n5nc(-c6c([H])c([H])c(Oc7c([H])c([H])c(F)c([H])c7F)c([H])c6[H])c(C(=O)N([H])[H])c5N([H])[H])C3([H])[H])(C([H])([H])[H])C([H])([H])C([H])([H])C4([H])[H])c([H])c([H])c2C1([H])[H]

$$$$
57:0:0
     RDKit          3D

 97106  0  0  1  0  0  0  0  0999 V2000
  -31.0330  -23.0650   21.8700 C   0  0  0  0  0  3  0  0  0  0  0  0
  -30.8920  -22.9910   19.4440 C   0  0  0  0  0  3  0  0  0  0  0  0
  -30.9210  -21.6590   21.9210 C   0  0  0  0  0  3  0  0  0  0  0  0
  -30.7830  -21.5890   19.4950 C   0  0  0  0  0  3  0  0  0  0  0  0
  -31.0060  -23.7480   20.6340 C   0  0  0  0  0  0  0  0  0  0  0  0
  -30.8040  -20.9070   20.7300 C   0  0  0  0  0  0  0  0  0  0  0  0
  -29.2520  -18.8790   20.8290 C   0  0  0  0  0  2  0  0  0  0  0  0
  -31.5590  -18.6520   21.7820 C   0  0  0  0  0  2  0  0  0  0  0  0
  -29.2030  -17.3730   20.5140 C   0  0  0  0  0  2  0  0  0  0  0  0
  -31.5410  -17.1230   21.5480 C   0  0  0  0  0  2  0  0  0  0  0  0
  -30.7010  -19.3810   20.7260 C   0  0  0  0  0  3  0  0  0  0  0  0
  -30.1020  -16.5520   21.4640 C   0  0  0  0  0  3  0  0  0  0  0  0
  -30.3930  -14.4480   20.0280 C   0  0  0  0  0  0  0  0  0  0  0  0
  -30.0120  -12.3880   18.7100 C   0  0  0  0  0  2  0  0  0  0  0  0
  -28.9390  -12.6090   17.6290 C   0  0  0  0  0  2  0  0  0  0  0  0
  -27.5250  -12.3840   18.2010 C   0  0  0  0  0  2  0  0  0  0  0  0
  -27.2910  -13.1650   19.5210 C   0  0  0  0  0  3  0  0  0  0  0  0
  -28.4550  -12.9100   20.5050 C   0  0  0  0  0  2  0  0  0  0  0  0
  -29.7260  -13.2750   19.8480 N   0  0  0  0  0  0  0  0  0  0  0  0
  -31.2680  -14.8500   19.2540 O   0  0  0  0  0  0  0  0  0  0  0  0
  -30.0200  -15.1190   21.1330 N   0  0  0  0  0  0  0  0  0  0  0  0
  -29.4290  -14.5750   21.7460 H   0  0  0  0  0  0  0  0  0  0  0  0
  -24.9460  -13.6740   20.4670 C   0  0  0  0  0  0  0  0  0  0  0  0
  -23.9500  -12.8530   20.9230 C   0  0  0  0  0  0  0  0  0  0  0  0
  -24.4540  -11.5220   20.8170 C   0  0  0  0  0  0  0  0  0  0  0  0
  -25.9960  -12.8370   20.1170 N   0  0  0  0  0  0  0  0  0  0  0  0
  -25.7060  -11.5390   20.3810 N   0  0  0  0  0  0  0  0  0  0  0  0
  -23.7960  -10.2280   21.0490 C   0  0  0  0  0  0  0  0  0  0  0  0
  -24.2920   -9.3070   21.9970 C   0  0  0  0  0  3  0  0  0  0  0  0
  -23.6280   -8.0830   22.2220 C   0  0  0  0  0  3  0  0  0  0  0  0
  -22.4540   -7.7670   21.4990 C   0  0  0  0  0  0  0  0  0  0  0  0
  -21.9760   -8.6780   20.5380 C   0  0  0  0  0  3  0  0  0  0  0  0
  -22.6410   -9.8940   20.3120 C   0  0  0  0  0  3  0  0  0  0  0  0
  -21.7630   -6.5880   21.6260 O   0  0  0  0  0  0  0  0  0  0  0  0
  -21.7150   -5.9040   22.8150 C   0  0  0  0  0  0  0  0  0  0  0  0
  -21.1900   -6.4870   23.9890 C   0  0  0  0  0  3  0  0  0  0  0  0
  -21.1000   -5.7270   25.1720 C   0  0  0  0  0  3  0  0  0  0  0  0
  -21.5250   -4.3860   25.1810 C   0  0  0  0  0  0  0  0  0  0  0  0
  -22.0450   -3.8030   24.0130 C   0  0  0  0  0  3  0  0  0  0  0  0
  -22.1380   -4.5590   22.8320 C   0  0  0  0  0  0  0  0  0  0  0  0
  -22.6190   -3.9870   21.7010 F   0  0  0  0  0  0  0  0  0  0  0  0
  -21.4330   -3.6530   26.3150 F   0  0  0  0  0  0  0  0  0  0  0  0
  -22.5690  -13.2720   21.3450 C   0  0  0  0  0  0  0  0  0  0  0  0
  -21.9620  -12.5420   22.2740 N   0  0  0  0  0  0  0  0  0  0  0  0
  -22.0400  -14.2830   20.8850 O   0  0  0  0  0  0  0  0  0  0  0  0
  -22.4040  -11.7260   22.6680 H   0  0  0  0  0  0  0  0  0  0  0  0
  -21.0410  -12.8070   22.5940 H   0  0  0  0  0  0  0  0  0  0  0  0
  -25.0430  -15.0530   20.3040 N   0  0  0  0  0  0  0  0  0  0  0  0
  -24.2760  -15.6780   20.5230 H   0  0  0  0  0  0  0  0  0  0  0  0
  -25.8460  -15.5320   19.9170 H   0  0  0  0  0  0  0  0  0  0  0  0
  -31.1030  -25.2520   20.5980 C   0  0  0  0  0  0  0  0  0  0  0  0
  -30.7130  -25.8210   19.4540 N   0  0  0  0  0  0  0  0  0  0  0  0
  -31.4490  -25.8980   21.5910 O   0  0  0  0  0  0  0  0  0  0  0  0
  -30.4210  -25.1930   18.7200 H   0  0  0  0  0  0  0  0  0  0  0  0
  -30.5030  -27.2450   19.2200 C   0  0  0  0  0  2  0  0  0  0  0  0
  -29.1080  -27.4670   18.6180 C   0  0  0  0  0  2  0  0  0  0  0  0
  -28.1200  -26.7670   19.3770 O   0  0  0  0  0  0  0  0  0  0  0  0
  -24.5640  -31.6690   23.1180 C   0  0  0  0  0  0  0  0  0  0  0  0
  -26.9630  -27.4760   19.5670 C   0  0  0  0  0  0  0  0  0  0  0  0
  -23.2340  -30.4060   21.4520 C   0  0  0  0  0  3  0  0  0  0  0  0
  -24.5790  -28.9510   19.8460 C   0  0  0  0  0  0  0  0  0  0  0  0
  -25.7430  -30.7570   21.1300 C   0  0  0  0  0  2  0  0  0  0  0  0
  -25.7710  -29.4320   20.4000 C   0  0  0  0  0  0  0  0  0  0  0  0
  -26.9650  -28.6990   20.2680 C   0  0  0  0  0  3  0  0  0  0  0  0
  -25.7560  -26.9770   19.0400 C   0  0  0  0  0  3  0  0  0  0  0  0
  -24.5590  -27.7150   19.1710 C   0  0  0  0  0  3  0  0  0  0  0  0
  -23.3510  -29.8170   20.0190 C   0  0  0  0  0  2  0  0  0  0  0  0
  -24.5360  -30.9510   21.9600 N   0  0  0  0  0  0  0  0  0  0  0  0
  -23.5250  -31.9200   23.7420 O   0  0  0  0  0  0  0  0  0  0  0  0
  -22.6230  -29.3320   22.3750 C   0  0  0  0  0  0  0  0  0  0  0  0
  -21.2960  -29.1540   22.2820 N   0  0  0  0  0  0  0  0  0  0  0  0
  -23.3390  -28.6620   23.1270 O   0  0  0  0  0  0  0  0  0  0  0  0
  -20.7840  -29.7460   21.6420 H   0  0  0  0  0  0  0  0  0  0  0  0
  -17.9440  -27.9230   22.8170 C   0  0  0  0  0  0  0  0  0  0  0  0
  -20.5060  -28.1750   23.0270 C   0  0  0  0  0  3  0  0  0  0  0  0
  -20.5970  -26.7770   22.3720 C   0  0  0  0  0  2  0  0  0  0  0  0
  -19.4660  -26.5060   21.3740 C   0  0  0  0  0  2  0  0  0  0  0  0
  -18.1030  -26.6120   22.0650 C   0  0  0  0  0  2  0  0  0  0  0  0
  -19.0730  -28.6650   23.2540 C   0  0  0  0  0  0  0  0  0  0  0  0
  -18.8700  -29.8940   23.9160 C   0  0  0  0  0  3  0  0  0  0  0  0
  -17.5700  -30.3820   24.1480 C   0  0  0  0  0  3  0  0  0  0  0  0
  -16.4550  -29.6380   23.7250 C   0  0  0  0  0  3  0  0  0  0  0  0
  -16.6440  -28.4110   23.0660 C   0  0  0  0  0  3  0  0  0  0  0  0
  -25.9000  -32.2330   23.6990 C   0  0  0  0  0  3  0  0  0  0  0  0
  -26.4330  -31.4100   24.9360 C   0  0  1  0  0  0  0  0  0  0  0  0
  -25.3660  -31.1720   26.0300 C   0  0  0  0  0  1  0  0  0  0  0  0
  -26.9630  -30.0270   24.4880 C   0  0  0  0  0  1  0  0  0  0  0  0
  -27.6260  -32.1500   25.5830 C   0  0  0  0  0  1  0  0  0  0  0  0
  -25.6640  -33.6350   24.0650 N   0  0  0  0  0  0  0  0  0  0  0  0
  -26.0370  -34.6870   23.3220 C   0  0  0  0  0  0  0  0  0  0  0  0
  -26.6850  -34.5730   22.2790 O   0  0  0  0  0  0  0  0  0  0  0  0
  -25.0890  -33.7980   24.8790 H   0  0  0  0  0  0  0  0  0  0  0  0
  -24.3900  -36.5630   23.0320 C   0  0  0  0  0  1  0  0  0  0  0  0
  -25.6230  -36.0860   23.8170 C   0  0  0  0  0  3  0  0  0  0  0  0
  -27.8090  -36.8520   24.6350 C   0  0  0  0  0  1  0  0  0  0  0  0
  -26.7040  -37.0900   23.7100 N   0  0  0  0  0  0  0  0  0  0  0  0
  -26.3470  -38.0260   23.8830 H   0  0  0  0  0  0  0  0  0  0  0  0
  1  3  1  0
  2  4  2  0
  2  5  1  0
  4  6  1  0
  5  1  2  0
  6  3  2  0
  9  7  1  0
  9 12  1  0
 10  8  1  0
 11  6  1  0
 11  7  1  0
 11  8  1  0
 12 21  1  0
 12 10  1  0
 13 21  1  0
 14 19  1  0
 15 16  1  0
 15 14  1  0
 17 16  1  0
 17 26  1  0
 17 18  1  0
 19 13  1  0
 19 18  1  0
 20 13  2  0
 21 22  1  0
 23 24  2  0
 24 43  1  0
 25 24  1  0
 25 28  1  0
 26 27  1  0
 26 23  1  0
 27 25  2  0
 28 29  1  0
 29 30  2  0
 31 34  1  0
 31 30  1  0
 32 31  2  0
 33 32  1  0
 33 28  2  0
 34 35  1  0
 35 40  2  0
 35 36  1  0
 36 37  2  0
 37 38  1  0
 38 42  1  0
 39 38  2  0
 40 39  1  0
 41 40  1  0
 43 44  1  0
 44 47  1  0
 44 46  1  0
 45 43  2  0
 48 23  1  0
 48 49  1  0
 50 48  1  0
 51  5  1  0
 51 53  2  0
 52 51  1  0
 54 52  1  0
 55 52  1  0
 56 55  1  0
 56 57  1  0
 57 59  1  0
 58 69  2  0
 59 64  1  0
 60 68  1  0
 60 70  1  0
 61 67  1  0
 61 63  1  0
 62 68  1  0
 63 62  1  0
 64 63  2  0
 65 66  1  0
 65 59  2  0
 66 61  2  0
 67 60  1  0
 68 58  1  0
 70 72  2  0
 71 70  1  0
 73 71  1  0
 74 83  2  0
 74 79  1  0
 75 71  1  0
 75 79  1  0
 76 75  1  0
 77 78  1  0
 77 76  1  0
 78 74  1  0
 79 80  2  0
 80 81  1  0
 82 81  2  0
 83 82  1  0
 84 58  1  0
 84 89  1  0
 84 85  1  0
 85 88  1  1
 85 86  1  0
 87 85  1  0
 89 92  1  0
 90 94  1  0
 90 89  1  0
 91 90  2  0
 94 93  1  0
 96 94  1  0
 96 97  1  0
 96 95  1  0
M  ISO  4  13 100  21 100  56 101  57 101
M  END
>  <TORSDO>  (58) 
F 20

>  <SCORE>  (58) 
-12.861

>  <name>  (58) 
57

>  <ligand_id>  (58) 
57

>  <original_smiles>  (58) 
[H]c1c([H])c([H])c2c(c1[H])C([H])([H])C([H])([H])C([H])([H])C2([H])N([H])C(=O)C1([H])N(C(=O)C([H])(N([H])C(=O)C([H])(N([H])C([H])([H])[H])C([H])([H])[H])C(C([H])([H])[H])(C([H])([H])[H])C([H])([H])[H])C([H])([H])c2c([H])c(OC([H])([H])C([H])([H])N([H])C(=O)c3c([H])c([H])c(C4([H])C([H])([H])C([H])([H])C([H])(N([H])C(=O)N5C([H])([H])C([H])([H])C([H])([H])C([H])(n6nc(-c7c([H])c([H])c(Oc8c([H])c([H])c(F)c([H])c8F)c([H])c7[H])c(C(=O)N([H])[H])c6N([H])[H])C5([H])[H])C([H])([H])C4([H])[H])c([H])c3[H])c([H])c([H])c2C1([H])[H]

>  <smiles>  (58) 
[H]c1c([H])c([H])c2c(c1[H])C([H])([H])C([H])([H])C([H])([H])C2([H])N([H])C(=O)C1([H])N(C(=O)C([H])(N([H])C(=O)C([H])(N([H])C([H])([H])[H])C([H])([H])[H])C(C([H])([H])[H])(C([H])([H])[H])C([H])([H])[H])C([H])([H])c2c([H])c(OC([H])([H])C([H])([H])N([H])C(=O)c3c([H])c([H])c(C4([H])C([H])([H])C([H])([H])C([H])(N([H])C(=O)N5C([H])([H])C([H])([H])C([H])([H])C([H])(n6nc(-c7c([H])c([H])c(Oc8c([H])c([H])c(F)c([H])c8F)c([H])c7[H])c(C(=O)N([H])[H])c6N([H])[H])C5([H])[H])C([H])([H])C4([H])[H])c([H])c3[H])c([H])c([H])c2C1([H])[H]

$$$$
58:0:0
     RDKit          3D

 91100  0  0  1  0  0  0  0  0999 V2000
  -31.1030  -21.7290   20.9700 C   0  0  0  0  0  3  0  0  0  0  0  0
  -28.6220  -21.1870   20.0480 C   0  0  0  0  0  3  0  0  0  0  0  0
  -30.2790  -22.8350   20.6130 C   0  0  0  0  0  0  0  0  0  0  0  0
  -28.9250  -22.7040   20.2420 C   0  0  0  0  0  0  0  0  0  0  0  0
  -30.7400  -20.3510   20.8630 C   0  0  0  0  0  0  0  0  0  0  0  0
  -29.4990  -19.9240   20.3220 C   0  0  0  0  0  0  0  0  0  0  0  0
  -30.8910  -24.2170   20.4460 C   0  0  0  0  0  2  0  0  0  0  0  0
  -30.5260  -24.8550   19.0690 C   0  0  0  0  0  2  0  0  0  0  0  0
  -29.0740  -24.5810   18.5730 C   0  0  0  0  0  2  0  0  0  0  0  0
  -28.1670  -24.2360   19.7620 C   0  0  0  0  0  3  0  0  0  0  0  0
  -31.7950  -19.3180   21.2200 C   0  0  0  0  0  1  0  0  0  0  0  0
  -28.1890  -25.8010   20.3510 O   0  0  0  0  0  0  0  0  0  0  0  0
  -24.6710  -31.8450   23.2440 C   0  0  0  0  0  0  0  0  0  0  0  0
  -27.2100  -26.9350   20.2110 C   0  0  0  0  0  0  0  0  0  0  0  0
  -23.4720  -30.4520   21.6070 C   0  0  0  0  0  3  0  0  0  0  0  0
  -24.9170  -28.8440   20.1720 C   0  0  0  0  0  0  0  0  0  0  0  0
  -26.0400  -30.6470   21.4610 C   0  0  0  0  0  2  0  0  0  0  0  0
  -26.1050  -29.2350   20.8000 C   0  0  0  0  0  0  0  0  0  0  0  0
  -27.2380  -28.2990   20.8030 C   0  0  0  0  0  3  0  0  0  0  0  0
  -25.9980  -26.7120   19.5160 C   0  0  0  0  0  3  0  0  0  0  0  0
  -24.8910  -27.6050   19.5080 C   0  0  0  0  0  3  0  0  0  0  0  0
  -23.7000  -29.7690   20.2270 C   0  0  0  0  0  2  0  0  0  0  0  0
  -24.7490  -31.0100   22.1570 N   0  0  0  0  0  0  0  0  0  0  0  0
  -23.5830  -32.1370   23.7680 O   0  0  0  0  0  0  0  0  0  0  0  0
  -22.7760  -29.4590   22.5750 C   0  0  0  0  0  0  0  0  0  0  0  0
  -21.4440  -29.2970   22.4520 N   0  0  0  0  0  0  0  0  0  0  0  0
  -23.4400  -28.8360   23.4050 O   0  0  0  0  0  0  0  0  0  0  0  0
  -20.9610  -29.8530   21.7600 H   0  0  0  0  0  0  0  0  0  0  0  0
  -18.0630  -28.0760   22.9560 C   0  0  0  0  0  0  0  0  0  0  0  0
  -20.6210  -28.3600   23.2250 C   0  0  0  0  0  3  0  0  0  0  0  0
  -20.7320  -26.9240   22.6590 C   0  0  0  0  0  2  0  0  0  0  0  0
  -19.6340  -26.5920   21.6420 C   0  0  0  0  0  2  0  0  0  0  0  0
  -18.2500  -26.7280   22.2820 C   0  0  0  0  0  2  0  0  0  0  0  0
  -19.1750  -28.8500   23.3840 C   0  0  0  0  0  0  0  0  0  0  0  0
  -18.9430  -30.1090   23.9790 C   0  0  0  0  0  3  0  0  0  0  0  0
  -17.6330  -30.5970   24.1450 C   0  0  0  0  0  3  0  0  0  0  0  0
  -16.5360  -29.8210   23.7300 C   0  0  0  0  0  3  0  0  0  0  0  0
  -16.7520  -28.5620   23.1430 C   0  0  0  0  0  3  0  0  0  0  0  0
  -25.9440  -32.4860   23.8770 C   0  0  0  0  0  3  0  0  0  0  0  0
  -25.6290  -33.8880   24.2090 N   0  0  0  0  0  0  0  0  0  0  0  0
  -25.9510  -34.9490   23.4580 C   0  0  0  0  0  0  0  0  0  0  0  0
  -26.6050  -34.8500   22.4150 O   0  0  0  0  0  0  0  0  0  0  0  0
  -25.0450  -34.0350   25.0200 H   0  0  0  0  0  0  0  0  0  0  0  0
  -24.2110  -36.7450   23.1580 C   0  0  0  0  0  1  0  0  0  0  0  0
  -25.4750  -36.3380   23.9320 C   0  0  0  0  0  3  0  0  0  0  0  0
  -27.6300  -37.2300   24.7040 C   0  0  0  0  0  1  0  0  0  0  0  0
  -26.5030  -37.3940   23.7910 N   0  0  0  0  0  0  0  0  0  0  0  0
  -26.0980  -38.3140   23.9460 H   0  0  0  0  0  0  0  0  0  0  0  0
  -26.4440  -31.7250   25.1660 C   0  0  1  0  0  0  0  0  0  0  0  0
  -25.3420  -31.5060   26.2300 C   0  0  0  0  0  1  0  0  0  0  0  0
  -27.0230  -30.3400   24.8010 C   0  0  0  0  0  1  0  0  0  0  0  0
  -27.5980  -32.5160   25.8260 C   0  0  0  0  0  1  0  0  0  0  0  0
  -29.3870  -18.2170   19.8430 C   0  0  0  0  0  2  0  0  0  0  0  0
  -30.3680  -15.3760   20.2420 C   0  0  0  0  0  0  0  0  0  0  0  0
  -30.3790  -12.8940   19.4360 C   0  0  0  0  0  2  0  0  0  0  0  0
  -29.4870  -12.6680   18.1850 C   0  0  0  0  0  2  0  0  0  0  0  0
  -28.0310  -12.3970   18.5990 C   0  0  0  0  0  2  0  0  0  0  0  0
  -27.5600  -13.3620   19.7170 C   0  0  0  0  0  3  0  0  0  0  0  0
  -28.5890  -13.5310   20.8570 C   0  0  0  0  0  2  0  0  0  0  0  0
  -29.8290  -14.0480   20.2510 N   0  0  0  0  0  0  0  0  0  0  0  0
  -31.5610  -15.3810   19.8990 O   0  0  0  0  0  0  0  0  0  0  0  0
  -29.6050  -16.6480   20.4550 N   0  0  0  0  0  0  0  0  0  0  0  0
  -28.7530  -16.3930   20.9370 H   0  0  0  0  0  0  0  0  0  0  0  0
  -25.1820  -13.9130   20.4440 C   0  0  0  0  0  0  0  0  0  0  0  0
  -24.1170  -13.1370   20.8040 C   0  0  0  0  0  0  0  0  0  0  0  0
  -24.5870  -11.7860   20.7820 C   0  0  0  0  0  0  0  0  0  0  0  0
  -26.2270  -13.0400   20.2090 N   0  0  0  0  0  0  0  0  0  0  0  0
  -25.8820  -11.7540   20.4820 N   0  0  0  0  0  0  0  0  0  0  0  0
  -23.8570  -10.5240   20.9670 C   0  0  0  0  0  0  0  0  0  0  0  0
  -24.2790   -9.5550   21.9040 C   0  0  0  0  0  3  0  0  0  0  0  0
  -23.5450   -8.3610   22.0800 C   0  0  0  0  0  3  0  0  0  0  0  0
  -22.3740   -8.1290   21.3200 C   0  0  0  0  0  0  0  0  0  0  0  0
  -21.9710   -9.0860   20.3730 C   0  0  0  0  0  3  0  0  0  0  0  0
  -22.7060  -10.2700   20.1950 C   0  0  0  0  0  3  0  0  0  0  0  0
  -21.6150   -6.9860   21.4040 O   0  0  0  0  0  0  0  0  0  0  0  0
  -21.5610   -6.2400   22.5540 C   0  0  0  0  0  0  0  0  0  0  0  0
  -21.1330   -6.7920   23.7810 C   0  0  0  0  0  3  0  0  0  0  0  0
  -21.0260   -5.9730   24.9230 C   0  0  0  0  0  3  0  0  0  0  0  0
  -21.3380   -4.6030   24.8380 C   0  0  0  0  0  0  0  0  0  0  0  0
  -21.7590   -4.0510   23.6160 C   0  0  0  0  0  3  0  0  0  0  0  0
  -21.8670   -4.8670   22.4770 C   0  0  0  0  0  0  0  0  0  0  0  0
  -22.2530   -4.3250   21.2970 F   0  0  0  0  0  0  0  0  0  0  0  0
  -21.2280   -3.8150   25.9340 F   0  0  0  0  0  0  0  0  0  0  0  0
  -22.7170  -13.6150   21.0550 C   0  0  0  0  0  0  0  0  0  0  0  0
  -21.9780  -12.9220   21.9140 N   0  0  0  0  0  0  0  0  0  0  0  0
  -22.2890  -14.6390   20.5250 O   0  0  0  0  0  0  0  0  0  0  0  0
  -22.3380  -12.0960   22.3680 H   0  0  0  0  0  0  0  0  0  0  0  0
  -21.0370  -13.2260   22.1250 H   0  0  0  0  0  0  0  0  0  0  0  0
  -25.3440  -15.2840   20.2620 N   0  0  0  0  0  0  0  0  0  0  0  0
  -24.5700  -15.9320   20.3560 H   0  0  0  0  0  0  0  0  0  0  0  0
  -26.1830  -15.7190   19.9020 H   0  0  0  0  0  0  0  0  0  0  0  0
  2  4  2  0
  2  6  1  0
  3  1  2  0
  4  3  1  0
  5  1  1  0
  5 11  1  0
  6  5  2  0
  7  3  1  0
  8  7  1  0
  9  8  1  0
  9 10  1  0
 10  4  1  0
 10 12  1  0
 13 24  2  0
 14 12  1  0
 14 19  1  0
 15 23  1  0
 15 25  1  0
 16 22  1  0
 16 18  1  0
 17 23  1  0
 18 19  2  0
 18 17  1  0
 20 14  2  0
 21 20  1  0
 21 16  2  0
 22 15  1  0
 23 13  1  0
 25 27  2  0
 26 25  1  0
 28 26  1  0
 29 38  2  0
 29 34  1  0
 30 26  1  0
 30 34  1  0
 31 30  1  0
 32 33  1  0
 32 31  1  0
 33 29  1  0
 34 35  2  0
 35 36  1  0
 37 36  2  0
 38 37  1  0
 39 13  1  0
 39 40  1  0
 39 49  1  0
 40 43  1  0
 41 45  1  0
 41 40  1  0
 42 41  2  0
 45 44  1  0
 47 45  1  0
 47 48  1  0
 47 46  1  0
 49 52  1  1
 49 50  1  0
 51 49  1  0
 53  6  1  0
 53 62  1  0
 54 60  1  0
 54 62  1  0
 55 60  1  0
 56 57  1  0
 56 55  1  0
 58 57  1  0
 58 67  1  0
 58 59  1  0
 60 59  1  0
 61 54  2  0
 62 63  1  0
 64 65  2  0
 65 84  1  0
 66 65  1  0
 66 69  1  0
 67 64  1  0
 67 68  1  0
 68 66  2  0
 69 70  1  0
 70 71  2  0
 72 75  1  0
 72 71  1  0
 73 72  2  0
 74 73  1  0
 74 69  2  0
 75 76  1  0
 76 77  1  0
 77 78  2  0
 79 78  1  0
 79 83  1  0
 80 79  2  0
 81 76  2  0
 81 80  1  0
 82 81  1  0
 84 85  1  0
 85 88  1  0
 85 87  1  0
 86 84  2  0
 89 90  1  0
 89 64  1  0
 91 89  1  0
M  ISO  4  10 101  12 101  54 100  62 100
M  END
>  <TORSDO>  (59) 
F 17

>  <SCORE>  (59) 
-16.805

>  <name>  (59) 
58

>  <ligand_id>  (59) 
58

>  <original_smiles>  (59) 
[H]c1c([H])c([H])c2c(c1[H])C([H])([H])C([H])([H])C([H])([H])C2([H])N([H])C(=O)C1([H])N(C(=O)C([H])(N([H])C(=O)C([H])(N([H])C([H])([H])[H])C([H])([H])[H])C(C([H])([H])[H])(C([H])([H])[H])C([H])([H])[H])C([H])([H])c2c([H])c(OC3([H])c4c([H])c(C([H])([H])N([H])C(=O)N5C([H])([H])C([H])([H])C([H])([H])C([H])(n6nc(-c7c([H])c([H])c(Oc8c([H])c([H])c(F)c([H])c8F)c([H])c7[H])c(C(=O)N([H])[H])c6N([H])[H])C5([H])[H])c(C([H])([H])[H])c([H])c4C([H])([H])C([H])([H])C3([H])[H])c([H])c([H])c2C1([H])[H]

>  <smiles>  (59) 
[H]c1c([H])c([H])c2c(c1[H])C([H])([H])C([H])([H])C([H])([H])C2([H])N([H])C(=O)C1([H])N(C(=O)C([H])(N([H])C(=O)C([H])(N([H])C([H])([H])[H])C([H])([H])[H])C(C([H])([H])[H])(C([H])([H])[H])C([H])([H])[H])C([H])([H])c2c([H])c(OC3([H])c4c([H])c(C([H])([H])N([H])C(=O)N5C([H])([H])C([H])([H])C([H])([H])C([H])(n6nc(-c7c([H])c([H])c(Oc8c([H])c([H])c(F)c([H])c8F)c([H])c7[H])c(C(=O)N([H])[H])c6N([H])[H])C5([H])[H])c(C([H])([H])[H])c([H])c4C([H])([H])C([H])([H])C3([H])[H])c([H])c([H])c2C1([H])[H]

$$$$
59:0:0
     RDKit          3D

 91100  0  0  1  0  0  0  0  0999 V2000
  -26.9230  -23.9030   19.8390 C   0  0  0  0  0  3  0  0  0  0  0  0
  -29.0210  -23.0480   20.6610 C   0  0  0  0  0  3  0  0  0  0  0  0
  -26.6950  -22.5750   19.3960 C   0  0  0  0  0  0  0  0  0  0  0  0
  -27.5660  -21.4810   19.5620 C   0  0  0  0  0  0  0  0  0  0  0  0
  -28.8030  -21.5530   20.2450 C   0  0  0  0  0  0  0  0  0  0  0  0
  -28.1240  -24.3230   20.4620 C   0  0  0  0  0  0  0  0  0  0  0  0
  -25.4700  -22.1230   18.7240 C   0  0  0  0  0  0  0  0  0  0  0  0
  -26.9530  -20.2130   19.0030 C   0  0  0  0  0  3  0  0  0  0  0  0
  -25.6080  -20.6460   18.3790 C   0  0  0  0  0  3  0  0  0  0  0  0
  -24.4650  -22.7940   18.4680 O   0  0  0  0  0  0  0  0  0  0  0  0
  -28.2380  -25.8390   20.8210 O   0  0  0  0  0  0  0  0  0  0  0  0
  -24.5510  -31.9820   23.4140 C   0  0  0  0  0  0  0  0  0  0  0  0
  -27.2570  -26.9820   20.6830 C   0  0  0  0  0  0  0  0  0  0  0  0
  -23.4500  -30.5400   21.7540 C   0  0  0  0  0  3  0  0  0  0  0  0
  -24.9780  -28.9020   20.4520 C   0  0  0  0  0  0  0  0  0  0  0  0
  -26.0240  -30.7330   21.7550 C   0  0  0  0  0  2  0  0  0  0  0  0
  -26.1260  -29.3020   21.1480 C   0  0  0  0  0  0  0  0  0  0  0  0
  -27.2550  -28.3590   21.2500 C   0  0  0  0  0  3  0  0  0  0  0  0
  -26.1120  -26.7880   19.8710 C   0  0  0  0  0  3  0  0  0  0  0  0
  -24.9990  -27.6650   19.7930 C   0  0  0  0  0  3  0  0  0  0  0  0
  -23.7550  -29.8210   20.4130 C   0  0  0  0  0  2  0  0  0  0  0  0
  -24.6940  -31.1170   22.3600 N   0  0  0  0  0  0  0  0  0  0  0  0
  -23.4340  -32.2870   23.8650 O   0  0  0  0  0  0  0  0  0  0  0  0
  -22.7030  -29.5700   22.7060 C   0  0  0  0  0  0  0  0  0  0  0  0
  -21.3770  -29.4160   22.5250 N   0  0  0  0  0  0  0  0  0  0  0  0
  -23.3220  -28.9550   23.5750 O   0  0  0  0  0  0  0  0  0  0  0  0
  -20.9320  -29.9580   21.7990 H   0  0  0  0  0  0  0  0  0  0  0  0
  -17.9540  -28.2880   22.9440 C   0  0  0  0  0  0  0  0  0  0  0  0
  -20.5100  -28.5020   23.2770 C   0  0  0  0  0  3  0  0  0  0  0  0
  -20.5970  -27.0650   22.7130 C   0  0  0  0  0  2  0  0  0  0  0  0
  -19.5180  -26.7590   21.6700 C   0  0  0  0  0  2  0  0  0  0  0  0
  -18.1220  -26.9330   22.2750 C   0  0  0  0  0  2  0  0  0  0  0  0
  -19.0750  -29.0310   23.3990 C   0  0  0  0  0  0  0  0  0  0  0  0
  -18.8630  -30.2970   23.9860 C   0  0  0  0  0  3  0  0  0  0  0  0
  -17.5630  -30.8190   24.1210 C   0  0  0  0  0  3  0  0  0  0  0  0
  -16.4550  -30.0730   23.6810 C   0  0  0  0  0  3  0  0  0  0  0  0
  -16.6520  -28.8090   23.0980 C   0  0  0  0  0  3  0  0  0  0  0  0
  -25.7830  -32.6460   24.0990 C   0  0  0  0  0  3  0  0  0  0  0  0
  -25.4670  -34.0690   24.3210 N   0  0  0  0  0  0  0  0  0  0  0  0
  -25.8650  -35.0790   23.5350 C   0  0  0  0  0  0  0  0  0  0  0  0
  -26.5990  -34.9110   22.5590 O   0  0  0  0  0  0  0  0  0  0  0  0
  -24.8140  -34.2710   25.0630 H   0  0  0  0  0  0  0  0  0  0  0  0
  -24.1760  -36.8710   22.9970 C   0  0  0  0  0  1  0  0  0  0  0  0
  -25.3730  -36.5000   23.8870 C   0  0  0  0  0  3  0  0  0  0  0  0
  -27.4830  -37.4070   24.7590 C   0  0  0  0  0  1  0  0  0  0  0  0
  -26.4220  -37.5370   23.7650 N   0  0  0  0  0  0  0  0  0  0  0  0
  -26.0190  -38.4670   23.8510 H   0  0  0  0  0  0  0  0  0  0  0  0
  -26.1770  -31.9590   25.4650 C   0  0  1  0  0  0  0  0  0  0  0  0
  -24.9860  -31.7890   26.4390 C   0  0  0  0  0  1  0  0  0  0  0  0
  -26.7870  -30.5600   25.2260 C   0  0  0  0  0  1  0  0  0  0  0  0
  -27.2640  -32.7950   26.1790 C   0  0  0  0  0  1  0  0  0  0  0  0
  -29.5280  -19.9760   20.6330 C   0  0  0  0  0  2  0  0  0  0  0  0
  -29.7860  -18.3610   19.8120 C   0  0  0  0  0  2  0  0  0  0  0  0
  -30.5290  -15.4400   19.9890 C   0  0  0  0  0  0  0  0  0  0  0  0
  -30.4290  -13.0100   19.0490 C   0  0  0  0  0  2  0  0  0  0  0  0
  -29.4560  -12.8600   17.8510 C   0  0  0  0  0  2  0  0  0  0  0  0
  -28.0220  -12.5920   18.3400 C   0  0  0  0  0  2  0  0  0  0  0  0
  -27.6370  -13.5210   19.5180 C   0  0  0  0  0  3  0  0  0  0  0  0
  -28.7340  -13.6140   20.6040 C   0  0  0  0  0  2  0  0  0  0  0  0
  -29.9480  -14.1320   19.9480 N   0  0  0  0  0  0  0  0  0  0  0  0
  -31.7100  -15.4310   19.6130 O   0  0  0  0  0  0  0  0  0  0  0  0
  -29.8100  -16.7240   20.2660 N   0  0  0  0  0  0  0  0  0  0  0  0
  -28.9270  -16.4900   20.6930 H   0  0  0  0  0  0  0  0  0  0  0  0
  -25.3050  -14.0940   20.3730 C   0  0  0  0  0  0  0  0  0  0  0  0
  -24.2470  -13.3250   20.7670 C   0  0  0  0  0  0  0  0  0  0  0  0
  -24.6930  -11.9690   20.6910 C   0  0  0  0  0  0  0  0  0  0  0  0
  -26.3240  -13.2090   20.0700 N   0  0  0  0  0  0  0  0  0  0  0  0
  -25.9710  -11.9240   20.3290 N   0  0  0  0  0  0  0  0  0  0  0  0
  -23.9530  -10.7140   20.8820 C   0  0  0  0  0  0  0  0  0  0  0  0
  -24.3680   -9.7440   21.8210 C   0  0  0  0  0  3  0  0  0  0  0  0
  -23.6260   -8.5580   22.0030 C   0  0  0  0  0  3  0  0  0  0  0  0
  -22.4520   -8.3310   21.2440 C   0  0  0  0  0  0  0  0  0  0  0  0
  -22.0580   -9.2880   20.2920 C   0  0  0  0  0  3  0  0  0  0  0  0
  -22.8010  -10.4660   20.1090 C   0  0  0  0  0  3  0  0  0  0  0  0
  -21.6810   -7.1980   21.3350 O   0  0  0  0  0  0  0  0  0  0  0  0
  -21.5720   -6.4910   22.5070 C   0  0  0  0  0  0  0  0  0  0  0  0
  -21.0900   -7.0860   23.6940 C   0  0  0  0  0  3  0  0  0  0  0  0
  -20.9290   -6.3060   24.8560 C   0  0  0  0  0  3  0  0  0  0  0  0
  -21.2390   -4.9340   24.8330 C   0  0  0  0  0  0  0  0  0  0  0  0
  -21.7130   -4.3380   23.6500 C   0  0  0  0  0  3  0  0  0  0  0  0
  -21.8750   -5.1150   22.4890 C   0  0  0  0  0  0  0  0  0  0  0  0
  -22.3130   -4.5300   21.3470 F   0  0  0  0  0  0  0  0  0  0  0  0
  -21.0770   -4.1820   25.9480 F   0  0  0  0  0  0  0  0  0  0  0  0
  -22.8680  -13.8170   21.0930 C   0  0  0  0  0  0  0  0  0  0  0  0
  -22.1670  -13.1340   21.9910 N   0  0  0  0  0  0  0  0  0  0  0  0
  -22.4250  -14.8470   20.5880 O   0  0  0  0  0  0  0  0  0  0  0  0
  -22.5390  -12.3040   22.4260 H   0  0  0  0  0  0  0  0  0  0  0  0
  -21.2420  -13.4470   22.2450 H   0  0  0  0  0  0  0  0  0  0  0  0
  -25.4790  -15.4660   20.2160 N   0  0  0  0  0  0  0  0  0  0  0  0
  -24.7260  -16.1230   20.3790 H   0  0  0  0  0  0  0  0  0  0  0  0
  -26.3070  -15.8990   19.8310 H   0  0  0  0  0  0  0  0  0  0  0  0
  1  6  1  0
  3  4  1  0
  3  1  2  0
  4  5  2  0
  5 52  1  0
  5  2  1  0
  6  2  2  0
  6 11  1  0
  7  3  1  0
  8  4  1  0
  9  7  1  0
  9  8  2  0
 10  7  2  0
 12 23  2  0
 13 11  1  0
 13 18  1  0
 14 22  1  0
 14 24  1  0
 15 17  1  0
 16 22  1  0
 17 18  2  0
 17 16  1  0
 19 13  2  0
 20 19  1  0
 20 15  2  0
 21 15  1  0
 21 14  1  0
 22 12  1  0
 24 26  2  0
 25 24  1  0
 27 25  1  0
 28 37  2  0
 28 33  1  0
 29 25  1  0
 29 33  1  0
 30 29  1  0
 31 32  1  0
 31 30  1  0
 32 28  1  0
 33 34  2  0
 34 35  1  0
 36 35  2  0
 37 36  1  0
 38 12  1  0
 38 39  1  0
 38 48  1  0
 39 42  1  0
 40 44  1  0
 40 39  1  0
 41 40  2  0
 44 43  1  0
 46 47  1  0
 46 44  1  0
 46 45  1  0
 48 51  1  1
 48 49  1  0
 50 48  1  0
 53 62  1  0
 53 52  1  0
 54 62  1  0
 55 60  1  0
 56 57  1  0
 56 55  1  0
 58 57  1  0
 58 67  1  0
 58 59  1  0
 60 54  1  0
 60 59  1  0
 61 54  2  0
 62 63  1  0
 64 65  2  0
 65 84  1  0
 66 65  1  0
 66 69  1  0
 67 68  1  0
 67 64  1  0
 68 66  2  0
 69 70  1  0
 70 71  2  0
 72 75  1  0
 72 71  1  0
 73 72  2  0
 74 73  1  0
 74 69  2  0
 75 76  1  0
 76 77  1  0
 77 78  2  0
 79 78  1  0
 79 83  1  0
 80 79  2  0
 81 76  2  0
 81 80  1  0
 82 81  1  0
 84 85  1  0
 85 88  1  0
 85 87  1  0
 86 84  2  0
 89 64  1  0
 89 90  1  0
 91 89  1  0
M  ISO  4   6 101  11 101  54 100  62 100
M  END
>  <TORSDO>  (60) 
F 18

>  <SCORE>  (60) 
-15.270

>  <name>  (60) 
59

>  <ligand_id>  (60) 
59

>  <original_smiles>  (60) 
[H]c1c([H])c([H])c2c(c1[H])C([H])([H])C([H])([H])C([H])([H])C2([H])N([H])C(=O)C1([H])N(C(=O)C([H])(N([H])C(=O)C([H])(N([H])C([H])([H])[H])C([H])([H])[H])C(C([H])([H])[H])(C([H])([H])[H])C([H])([H])[H])C([H])([H])c2c([H])c(Oc3c([H])c4c(c(C([H])([H])C([H])([H])N([H])C(=O)N5C([H])([H])C([H])([H])C([H])([H])C([H])(n6nc(-c7c([H])c([H])c(Oc8c([H])c([H])c(F)c([H])c8F)c([H])c7[H])c(C(=O)N([H])[H])c6N([H])[H])C5([H])[H])c3[H])C([H])([H])C([H])([H])C4=O)c([H])c([H])c2C1([H])[H]

>  <smiles>  (60) 
[H]c1c([H])c([H])c2c(c1[H])C([H])([H])C([H])([H])C([H])([H])C2([H])N([H])C(=O)C1([H])N(C(=O)C([H])(N([H])C(=O)C([H])(N([H])C([H])([H])[H])C([H])([H])[H])C(C([H])([H])[H])(C([H])([H])[H])C([H])([H])[H])C([H])([H])c2c([H])c(Oc3c([H])c4c(c(C([H])([H])C([H])([H])N([H])C(=O)N5C([H])([H])C([H])([H])C([H])([H])C([H])(n6nc(-c7c([H])c([H])c(Oc8c([H])c([H])c(F)c([H])c8F)c([H])c7[H])c(C(=O)N([H])[H])c6N([H])[H])C5([H])[H])c3[H])C([H])([H])C([H])([H])C4=O)c([H])c([H])c2C1([H])[H]

$$$$
60:0:0
     RDKit          3D

 88 96  0  0  1  0  0  0  0  0999 V2000
  -28.3610  -21.2670   21.1310 C   0  0  0  0  0  3  0  0  0  0  0  0
  -28.0100  -22.7800   21.1670 C   0  0  0  0  0  3  0  0  0  0  0  0
  -28.9700  -23.0570   19.2180 C   0  0  0  0  0  3  0  0  0  0  0  0
  -29.0810  -20.4190   20.1170 C   0  0  0  0  0  0  0  0  0  0  0  0
  -29.3350  -21.5570   19.1610 C   0  0  0  0  0  0  0  0  0  0  0  0
  -28.2490  -23.9190   20.2070 C   0  0  0  0  0  0  0  0  0  0  0  0
  -30.1310  -21.1770   17.9210 C   0  0  0  0  0  1  0  0  0  0  0  0
  -30.2410  -15.8370   20.1220 C   0  0  0  0  0  0  0  0  0  0  0  0
  -30.3510  -13.2730   19.3110 C   0  0  0  0  0  2  0  0  0  0  0  0
  -29.4450  -12.8320   18.1250 C   0  0  0  0  0  2  0  0  0  0  0  0
  -28.0420  -12.4500   18.6150 C   0  0  0  0  0  2  0  0  0  0  0  0
  -27.5380  -13.4450   19.6840 C   0  0  0  0  0  3  0  0  0  0  0  0
  -28.5880  -13.8010   20.7660 C   0  0  0  0  0  2  0  0  0  0  0  0
  -29.7250  -14.4560   20.0710 N   0  0  0  0  0  0  0  0  0  0  0  0
  -31.4710  -15.7420   19.9280 O   0  0  0  0  0  0  0  0  0  0  0  0
  -29.8140  -18.7610   20.1060 C   0  0  0  0  0  0  0  0  0  0  0  0
  -29.4940  -17.2270   20.2030 N   0  0  0  0  0  0  0  0  0  0  0  0
  -31.0230  -18.9140   19.9250 O   0  0  0  0  0  0  0  0  0  0  0  0
  -28.5050  -17.0910   20.3300 H   0  0  0  0  0  0  0  0  0  0  0  0
  -25.1990  -13.9360   20.5350 C   0  0  0  0  0  0  0  0  0  0  0  0
  -24.1580  -13.1390   20.9160 C   0  0  0  0  0  0  0  0  0  0  0  0
  -24.6390  -11.7950   20.8430 C   0  0  0  0  0  0  0  0  0  0  0  0
  -26.2430  -13.0800   20.2400 N   0  0  0  0  0  0  0  0  0  0  0  0
  -25.9230  -11.7830   20.4930 N   0  0  0  0  0  0  0  0  0  0  0  0
  -23.9260  -10.5230   21.0270 C   0  0  0  0  0  0  0  0  0  0  0  0
  -24.3690   -9.5520   21.9520 C   0  0  0  0  0  3  0  0  0  0  0  0
  -23.6510   -8.3490   22.1270 C   0  0  0  0  0  3  0  0  0  0  0  0
  -22.4740   -8.1090   21.3780 C   0  0  0  0  0  0  0  0  0  0  0  0
  -22.0490   -9.0680   20.4440 C   0  0  0  0  0  3  0  0  0  0  0  0
  -22.7690  -10.2620   20.2660 C   0  0  0  0  0  3  0  0  0  0  0  0
  -21.7270   -6.9570   21.4640 O   0  0  0  0  0  0  0  0  0  0  0  0
  -21.6660   -6.2240   22.6220 C   0  0  0  0  0  0  0  0  0  0  0  0
  -21.1810   -6.7730   23.8280 C   0  0  0  0  0  3  0  0  0  0  0  0
  -21.0700   -5.9630   24.9760 C   0  0  0  0  0  3  0  0  0  0  0  0
  -21.4330   -4.6050   24.9180 C   0  0  0  0  0  0  0  0  0  0  0  0
  -21.9110   -4.0540   23.7160 C   0  0  0  0  0  3  0  0  0  0  0  0
  -22.0240   -4.8610   22.5700 C   0  0  0  0  0  0  0  0  0  0  0  0
  -22.4650   -4.3200   21.4090 F   0  0  0  0  0  0  0  0  0  0  0  0
  -21.3200   -3.8250   26.0180 F   0  0  0  0  0  0  0  0  0  0  0  0
  -22.7650  -13.5980   21.2270 C   0  0  0  0  0  0  0  0  0  0  0  0
  -22.0660  -12.8860   22.1030 N   0  0  0  0  0  0  0  0  0  0  0  0
  -22.3070  -14.6270   20.7290 O   0  0  0  0  0  0  0  0  0  0  0  0
  -22.4520  -12.0560   22.5270 H   0  0  0  0  0  0  0  0  0  0  0  0
  -21.1320  -13.1760   22.3550 H   0  0  0  0  0  0  0  0  0  0  0  0
  -25.3390  -15.3110   20.3770 N   0  0  0  0  0  0  0  0  0  0  0  0
  -24.5630  -15.9500   20.5120 H   0  0  0  0  0  0  0  0  0  0  0  0
  -26.1580  -15.7620   19.9910 H   0  0  0  0  0  0  0  0  0  0  0  0
  -28.1550  -25.5600   20.2790 O   0  0  0  0  0  0  0  0  0  0  0  0
  -24.6470  -31.9050   23.2330 C   0  0  0  0  0  0  0  0  0  0  0  0
  -27.1450  -26.7610   20.2610 C   0  0  0  0  0  0  0  0  0  0  0  0
  -23.4490  -30.5030   21.6080 C   0  0  0  0  0  3  0  0  0  0  0  0
  -24.8840  -28.8300   20.2020 C   0  0  0  0  0  0  0  0  0  0  0  0
  -26.0290  -30.6190   21.4830 C   0  0  0  0  0  2  0  0  0  0  0  0
  -26.0830  -29.1770   20.8360 C   0  0  0  0  0  0  0  0  0  0  0  0
  -27.1910  -28.1700   20.8340 C   0  0  0  0  0  3  0  0  0  0  0  0
  -25.9140  -26.6390   19.5640 C   0  0  0  0  0  3  0  0  0  0  0  0
  -24.8410  -27.5870   19.5430 C   0  0  0  0  0  3  0  0  0  0  0  0
  -23.6840  -29.7920   20.2420 C   0  0  0  0  0  2  0  0  0  0  0  0
  -24.7330  -31.0440   22.1590 N   0  0  0  0  0  0  0  0  0  0  0  0
  -23.5560  -32.2130   23.7450 O   0  0  0  0  0  0  0  0  0  0  0  0
  -22.7300  -29.5370   22.5890 C   0  0  0  0  0  0  0  0  0  0  0  0
  -21.3980  -29.3770   22.4610 N   0  0  0  0  0  0  0  0  0  0  0  0
  -23.3830  -28.9270   23.4390 O   0  0  0  0  0  0  0  0  0  0  0  0
  -20.9200  -29.9180   21.7540 H   0  0  0  0  0  0  0  0  0  0  0  0
  -18.0170  -28.1400   22.9640 C   0  0  0  0  0  0  0  0  0  0  0  0
  -20.5730  -28.4450   23.2400 C   0  0  0  0  0  3  0  0  0  0  0  0
  -20.6930  -27.0040   22.6920 C   0  0  0  0  0  2  0  0  0  0  0  0
  -19.6050  -26.6530   21.6730 C   0  0  0  0  0  2  0  0  0  0  0  0
  -18.2160  -26.7860   22.3040 C   0  0  0  0  0  2  0  0  0  0  0  0
  -19.1220  -28.9260   23.3890 C   0  0  0  0  0  0  0  0  0  0  0  0
  -18.8780  -30.1880   23.9720 C   0  0  0  0  0  3  0  0  0  0  0  0
  -17.5640  -30.6670   24.1300 C   0  0  0  0  0  3  0  0  0  0  0  0
  -16.4740  -29.8810   23.7180 C   0  0  0  0  0  3  0  0  0  0  0  0
  -16.7010  -28.6190   23.1410 C   0  0  0  0  0  3  0  0  0  0  0  0
  -25.9130  -32.5570   23.8670 C   0  0  0  0  0  3  0  0  0  0  0  0
  -25.5950  -33.9630   24.1950 N   0  0  0  0  0  0  0  0  0  0  0  0
  -25.9120  -35.0240   23.4420 C   0  0  0  0  0  0  0  0  0  0  0  0
  -26.5590  -34.9250   22.3960 O   0  0  0  0  0  0  0  0  0  0  0  0
  -25.0130  -34.1120   25.0060 H   0  0  0  0  0  0  0  0  0  0  0  0
  -24.1720  -36.8270   23.1530 C   0  0  0  0  0  1  0  0  0  0  0  0
  -25.4410  -36.4160   23.9170 C   0  0  0  0  0  3  0  0  0  0  0  0
  -27.6010  -37.3110   24.6760 C   0  0  0  0  0  1  0  0  0  0  0  0
  -26.4660  -37.4740   23.7710 N   0  0  0  0  0  0  0  0  0  0  0  0
  -26.0610  -38.3920   23.9360 H   0  0  0  0  0  0  0  0  0  0  0  0
  -26.4080  -31.8080   25.1680 C   0  0  1  0  0  0  0  0  0  0  0  0
  -25.3010  -31.5980   26.2270 C   0  0  0  0  0  1  0  0  0  0  0  0
  -26.9890  -30.4190   24.8220 C   0  0  0  0  0  1  0  0  0  0  0  0
  -27.5540  -32.6090   25.8300 C   0  0  0  0  0  1  0  0  0  0  0  0
  1  2  1  0
  3  6  1  0
  4  1  2  0
  5  3  2  0
  5  4  1  0
  6 48  1  0
  6  2  2  0
  7  5  1  0
  8 17  1  0
  9 14  1  0
 10 11  1  0
 10  9  1  0
 12 11  1  0
 12 23  1  0
 12 13  1  0
 14  8  1  0
 14 13  1  0
 15  8  2  0
 16  4  1  0
 16 17  1  0
 17 19  1  0
 18 16  2  0
 20 21  2  0
 21 40  1  0
 22 21  1  0
 22 25  1  0
 23 24  1  0
 23 20  1  0
 24 22  2  0
 25 26  1  0
 26 27  2  0
 28 31  1  0
 28 27  1  0
 29 28  2  0
 30 29  1  0
 30 25  2  0
 31 32  1  0
 32 33  1  0
 33 34  2  0
 35 34  1  0
 35 39  1  0
 36 35  2  0
 37 32  2  0
 37 36  1  0
 38 37  1  0
 40 41  1  0
 41 44  1  0
 41 43  1  0
 42 40  2  0
 45 46  1  0
 45 20  1  0
 47 45  1  0
 49 60  2  0
 50 48  1  0
 50 55  1  0
 51 59  1  0
 51 61  1  0
 52 58  1  0
 52 54  1  0
 53 59  1  0
 54 53  1  0
 55 54  2  0
 56 50  2  0
 57 56  1  0
 57 52  2  0
 58 51  1  0
 59 49  1  0
 61 63  2  0
 62 61  1  0
 64 62  1  0
 65 74  2  0
 65 70  1  0
 66 62  1  0
 66 70  1  0
 67 66  1  0
 68 69  1  0
 68 67  1  0
 69 65  1  0
 70 71  2  0
 71 72  1  0
 73 72  2  0
 74 73  1  0
 75 49  1  0
 75 76  1  0
 75 85  1  0
 76 79  1  0
 77 81  1  0
 77 76  1  0
 78 77  2  0
 81 80  1  0
 83 81  1  0
 83 84  1  0
 83 82  1  0
 85 88  1  1
 85 86  1  0
 87 85  1  0
M  ISO  4   6 101   8 100  17 100  48 101
M  END
>  <TORSDO>  (61) 
F 16

>  <SCORE>  (61) 
-15.964

>  <name>  (61) 
60

>  <ligand_id>  (61) 
60

>  <original_smiles>  (61) 
[H]c1c([H])c([H])c2c(c1[H])C([H])([H])C([H])([H])C([H])([H])C2([H])N([H])C(=O)C1([H])N(C(=O)C([H])(N([H])C(=O)C([H])(N([H])C([H])([H])[H])C([H])([H])[H])C(C([H])([H])[H])(C([H])([H])[H])C([H])([H])[H])C([H])([H])c2c([H])c(Oc3c([H])c([H])c(C(=O)N([H])C(=O)N4C([H])([H])C([H])([H])C([H])([H])C([H])(n5nc(-c6c([H])c([H])c(Oc7c([H])c([H])c(F)c([H])c7F)c([H])c6[H])c(C(=O)N([H])[H])c5N([H])[H])C4([H])[H])c(C([H])([H])[H])c3[H])c([H])c([H])c2C1([H])[H]

>  <smiles>  (61) 
[H]c1c([H])c([H])c2c(c1[H])C([H])([H])C([H])([H])C([H])([H])C2([H])N([H])C(=O)C1([H])N(C(=O)C([H])(N([H])C(=O)C([H])(N([H])C([H])([H])[H])C([H])([H])[H])C(C([H])([H])[H])(C([H])([H])[H])C([H])([H])[H])C([H])([H])c2c([H])c(Oc3c([H])c([H])c(C(=O)N([H])C(=O)N4C([H])([H])C([H])([H])C([H])([H])C([H])(n5nc(-c6c([H])c([H])c(Oc7c([H])c([H])c(F)c([H])c7F)c([H])c6[H])c(C(=O)N([H])[H])c5N([H])[H])C4([H])[H])c(C([H])([H])[H])c3[H])c([H])c([H])c2C1([H])[H]

$$$$
61:0:0
     RDKit          3D

 88 96  0  0  1  0  0  0  0  0999 V2000
  -28.4250  -21.9080   19.2150 C   0  0  0  0  0  2  0  0  0  0  0  0
  -28.7040  -22.0520   21.5690 C   0  0  0  0  0  2  0  0  0  0  0  0
  -28.5250  -23.5520   19.1030 C   0  0  0  0  0  2  0  0  0  0  0  0
  -28.8140  -23.6890   21.4570 C   0  0  0  0  0  2  0  0  0  0  0  0
  -29.1810  -21.0800   20.3770 C   0  0  0  0  0  3  0  0  0  0  0  0
  -28.0550  -24.5120   20.3060 C   0  0  0  0  0  3  0  0  0  0  0  0
  -28.9140  -19.4800   20.5390 N   0  0  0  0  0  4  0  0  0  0  0  0
  -28.1030  -19.2800   19.9760 H   0  0  0  0  0  0  0  0  0  0  0  0
  -28.5990  -19.3790   21.4900 H   0  0  0  0  0  0  0  0  0  0  0  0
  -29.9180  -18.2220   20.3270 C   0  0  0  0  0  3  0  0  0  0  0  0
  -29.5250  -16.5550   20.6250 C   0  0  0  0  0  3  0  0  0  0  0  0
  -30.3890  -15.1170   20.3250 C   0  0  0  0  0  0  0  0  0  0  0  0
  -30.3280  -12.7380   19.3670 C   0  0  0  0  0  2  0  0  0  0  0  0
  -29.3840  -12.6810   18.1390 C   0  0  0  0  0  2  0  0  0  0  0  0
  -27.9250  -12.4470   18.5760 C   0  0  0  0  0  2  0  0  0  0  0  0
  -27.5190  -13.3580   19.7620 C   0  0  0  0  0  3  0  0  0  0  0  0
  -28.5810  -13.3730   20.8800 C   0  0  0  0  0  2  0  0  0  0  0  0
  -29.8450  -13.8210   20.2810 N   0  0  0  0  0  0  0  0  0  0  0  0
  -31.5850  -15.1830   20.0090 O   0  0  0  0  0  0  0  0  0  0  0  0
  -25.1470  -13.9240   20.5260 C   0  0  0  0  0  0  0  0  0  0  0  0
  -24.0850  -13.1450   20.8970 C   0  0  0  0  0  0  0  0  0  0  0  0
  -24.5510  -11.7960   20.8570 C   0  0  0  0  0  0  0  0  0  0  0  0
  -26.1880  -13.0480   20.2710 N   0  0  0  0  0  0  0  0  0  0  0  0
  -25.8410  -11.7630   20.5380 N   0  0  0  0  0  0  0  0  0  0  0  0
  -23.8270  -10.5320   21.0440 C   0  0  0  0  0  0  0  0  0  0  0  0
  -24.2600   -9.5610   21.9730 C   0  0  0  0  0  3  0  0  0  0  0  0
  -23.5330   -8.3630   22.1500 C   0  0  0  0  0  3  0  0  0  0  0  0
  -22.3580   -8.1290   21.3970 C   0  0  0  0  0  0  0  0  0  0  0  0
  -21.9430   -9.0890   20.4580 C   0  0  0  0  0  3  0  0  0  0  0  0
  -22.6710  -10.2770   20.2790 C   0  0  0  0  0  3  0  0  0  0  0  0
  -21.6020   -6.9840   21.4830 O   0  0  0  0  0  0  0  0  0  0  0  0
  -21.5520   -6.2410   22.6350 C   0  0  0  0  0  0  0  0  0  0  0  0
  -21.1140   -6.7910   23.8590 C   0  0  0  0  0  3  0  0  0  0  0  0
  -21.0110   -5.9730   25.0030 C   0  0  0  0  0  3  0  0  0  0  0  0
  -21.3340   -4.6060   24.9220 C   0  0  0  0  0  0  0  0  0  0  0  0
  -21.7640   -4.0550   23.7020 C   0  0  0  0  0  3  0  0  0  0  0  0
  -21.8690   -4.8700   22.5610 C   0  0  0  0  0  0  0  0  0  0  0  0
  -22.2630   -4.3280   21.3830 F   0  0  0  0  0  0  0  0  0  0  0  0
  -21.2280   -3.8180   26.0170 F   0  0  0  0  0  0  0  0  0  0  0  0
  -22.6890  -13.6210   21.1750 C   0  0  0  0  0  0  0  0  0  0  0  0
  -21.9650  -12.9230   22.0430 N   0  0  0  0  0  0  0  0  0  0  0  0
  -22.2490  -14.6480   20.6590 O   0  0  0  0  0  0  0  0  0  0  0  0
  -22.3340  -12.0920   22.4820 H   0  0  0  0  0  0  0  0  0  0  0  0
  -21.0290  -13.2230   22.2730 H   0  0  0  0  0  0  0  0  0  0  0  0
  -25.3070  -15.2960   20.3560 N   0  0  0  0  0  0  0  0  0  0  0  0
  -24.5390  -15.9470   20.4750 H   0  0  0  0  0  0  0  0  0  0  0  0
  -26.1500  -15.7370   20.0120 H   0  0  0  0  0  0  0  0  0  0  0  0
  -28.2290  -26.1000   20.2500 O   0  0  0  0  0  0  0  0  0  0  0  0
  -24.6390  -31.8970   23.2240 C   0  0  0  0  0  0  0  0  0  0  0  0
  -27.1720  -27.1040   20.2050 C   0  0  0  0  0  0  0  0  0  0  0  0
  -23.4260  -30.5010   21.5960 C   0  0  0  0  0  3  0  0  0  0  0  0
  -24.8580  -28.9010   20.1700 C   0  0  0  0  0  0  0  0  0  0  0  0
  -25.9830  -30.7370   21.4190 C   0  0  0  0  0  2  0  0  0  0  0  0
  -26.0450  -29.3360   20.7710 C   0  0  0  0  0  0  0  0  0  0  0  0
  -27.2010  -28.4560   20.7640 C   0  0  0  0  0  3  0  0  0  0  0  0
  -25.9570  -26.7840   19.5640 C   0  0  0  0  0  3  0  0  0  0  0  0
  -24.8300  -27.6420   19.5480 C   0  0  0  0  0  3  0  0  0  0  0  0
  -23.6370  -29.8130   20.2190 C   0  0  0  0  0  2  0  0  0  0  0  0
  -24.7040  -31.0700   22.1340 N   0  0  0  0  0  0  0  0  0  0  0  0
  -23.5560  -32.1910   23.7550 O   0  0  0  0  0  0  0  0  0  0  0  0
  -22.7420  -29.5060   22.5670 C   0  0  0  0  0  0  0  0  0  0  0  0
  -21.4120  -29.3400   22.4470 N   0  0  0  0  0  0  0  0  0  0  0  0
  -23.4130  -28.8830   23.3940 O   0  0  0  0  0  0  0  0  0  0  0  0
  -20.9260  -29.8940   21.7550 H   0  0  0  0  0  0  0  0  0  0  0  0
  -18.0310  -28.1380   22.9590 C   0  0  0  0  0  0  0  0  0  0  0  0
  -20.5910  -28.4090   23.2250 C   0  0  0  0  0  3  0  0  0  0  0  0
  -20.6940  -26.9720   22.6640 C   0  0  0  0  0  2  0  0  0  0  0  0
  -19.5950  -26.6380   21.6520 C   0  0  0  0  0  2  0  0  0  0  0  0
  -18.2120  -26.7850   22.2940 C   0  0  0  0  0  2  0  0  0  0  0  0
  -19.1480  -28.9080   23.3830 C   0  0  0  0  0  0  0  0  0  0  0  0
  -18.9240  -30.1730   23.9690 C   0  0  0  0  0  3  0  0  0  0  0  0
  -17.6170  -30.6700   24.1330 C   0  0  0  0  0  3  0  0  0  0  0  0
  -16.5160  -29.8980   23.7240 C   0  0  0  0  0  3  0  0  0  0  0  0
  -16.7230  -28.6350   23.1440 C   0  0  0  0  0  3  0  0  0  0  0  0
  -25.9210  -32.5320   23.8440 C   0  0  0  0  0  3  0  0  0  0  0  0
  -26.4370  -31.7610   25.1220 C   0  0  1  0  0  0  0  0  0  0  0  0
  -25.3480  -31.5320   26.1940 C   0  0  0  0  0  1  0  0  0  0  0  0
  -27.0130  -30.3800   24.7360 C   0  0  0  0  0  1  0  0  0  0  0  0
  -27.5940  -32.5520   25.7770 C   0  0  0  0  0  1  0  0  0  0  0  0
  -25.6130  -33.9310   24.1820 N   0  0  0  0  0  0  0  0  0  0  0  0
  -25.9300  -34.9900   23.4280 C   0  0  0  0  0  0  0  0  0  0  0  0
  -26.5790  -34.8930   22.3820 O   0  0  0  0  0  0  0  0  0  0  0  0
  -25.0340  -34.0800   24.9970 H   0  0  0  0  0  0  0  0  0  0  0  0
  -24.1930  -36.7880   23.1290 C   0  0  0  0  0  1  0  0  0  0  0  0
  -25.4560  -36.3780   23.9050 C   0  0  0  0  0  3  0  0  0  0  0  0
  -27.6100  -37.2640   24.6820 C   0  0  0  0  0  1  0  0  0  0  0  0
  -26.4840  -37.4330   23.7680 N   0  0  0  0  0  0  0  0  0  0  0  0
  -26.0810  -38.3520   23.9290 H   0  0  0  0  0  0  0  0  0  0  0  0
  1  5  1  0
  3  1  1  0
  3  6  1  0
  4  2  1  0
  5  7  1  0
  5  2  1  0
  6 48  1  0
  6  4  1  0
  7  9  1  0
  8  7  1  0
 10  7  1  0
 10 11  2  0
 12 11  1  0
 13 18  1  0
 14 15  1  0
 14 13  1  0
 16 15  1  0
 16 23  1  0
 16 17  1  0
 18 12  1  0
 18 17  1  0
 19 12  2  0
 20 21  2  0
 21 40  1  0
 22 21  1  0
 22 25  1  0
 23 20  1  0
 23 24  1  0
 24 22  2  0
 25 26  1  0
 26 27  2  0
 28 31  1  0
 28 27  1  0
 29 28  2  0
 30 29  1  0
 30 25  2  0
 31 32  1  0
 32 33  1  0
 33 34  2  0
 35 34  1  0
 35 39  1  0
 36 35  2  0
 37 32  2  0
 37 36  1  0
 38 37  1  0
 40 41  1  0
 41 44  1  0
 41 43  1  0
 42 40  2  0
 45 46  1  0
 45 20  1  0
 47 45  1  0
 49 60  2  0
 50 48  1  0
 50 55  1  0
 51 59  1  0
 51 61  1  0
 52 58  1  0
 52 54  1  0
 53 59  1  0
 54 53  1  0
 55 54  2  0
 56 50  2  0
 57 56  1  0
 57 52  2  0
 58 51  1  0
 59 49  1  0
 61 63  2  0
 62 61  1  0
 64 62  1  0
 65 74  2  0
 65 70  1  0
 66 62  1  0
 66 70  1  0
 67 66  1  0
 68 69  1  0
 68 67  1  0
 69 65  1  0
 70 71  2  0
 71 72  1  0
 73 72  2  0
 74 73  1  0
 75 49  1  0
 75 80  1  0
 75 76  1  0
 76 79  1  1
 76 77  1  0
 78 76  1  0
 80 83  1  0
 81 85  1  0
 81 80  1  0
 82 81  2  0
 85 84  1  0
 87 85  1  0
 87 88  1  0
 87 86  1  0
M  ISO  4   6 101  11 100  12 100  48 101
M  END
>  <TORSDO>  (62) 
F 19

>  <SCORE>  (62) 
-15.283

>  <name>  (62) 
61

>  <ligand_id>  (62) 
61

>  <original_smiles>  (62) 
[H]c1c([H])c([H])c2c(c1[H])C([H])([H])C([H])([H])C([H])([H])C2([H])N([H])C(=O)C1([H])N(C(=O)C([H])(N([H])C(=O)C([H])(N([H])C([H])([H])[H])C([H])([H])[H])C(C([H])([H])[H])(C([H])([H])[H])C([H])([H])[H])C([H])([H])c2c([H])c(OC3([H])C([H])([H])C([H])([H])C([H])([N+]([H])([H])C([H])([H])C([H])([H])C(=O)N4C([H])([H])C([H])([H])C([H])([H])C([H])(n5nc(-c6c([H])c([H])c(Oc7c([H])c([H])c(F)c([H])c7F)c([H])c6[H])c(C(=O)N([H])[H])c5N([H])[H])C4([H])[H])C([H])([H])C3([H])[H])c([H])c([H])c2C1([H])[H]

>  <smiles>  (62) 
[H]c1c([H])c([H])c2c(c1[H])C([H])([H])C([H])([H])C([H])([H])C2([H])N([H])C(=O)C1([H])N(C(=O)C([H])(N([H])C(=O)C([H])(N([H])C([H])([H])[H])C([H])([H])[H])C(C([H])([H])[H])(C([H])([H])[H])C([H])([H])[H])C([H])([H])c2c([H])c(OC3([H])C([H])([H])C([H])([H])C([H])([N+]([H])([H])C([H])([H])C([H])([H])C(=O)N4C([H])([H])C([H])([H])C([H])([H])C([H])(n5nc(-c6c([H])c([H])c(Oc7c([H])c([H])c(F)c([H])c7F)c([H])c6[H])c(C(=O)N([H])[H])c5N([H])[H])C4([H])[H])C([H])([H])C3([H])[H])c([H])c([H])c2C1([H])[H]

$$$$
62:0:0
     RDKit          3D

 91100  0  0  1  0  0  0  0  0999 V2000
  -26.5220  -21.7390   19.8710 C   0  0  0  0  0  2  0  0  0  0  0  0
  -27.4560  -20.5520   19.4060 C   0  0  0  0  0  2  0  0  0  0  0  0
  -26.8270  -23.2300   19.4210 C   0  0  0  0  0  2  0  0  0  0  0  0
  -29.1710  -22.3810   19.9480 C   0  0  0  0  0  2  0  0  0  0  0  0
  -28.8470  -20.5330   20.0830 C   0  0  0  0  0  3  0  0  0  0  0  0
  -28.0600  -23.8940   20.1030 C   0  0  0  0  0  3  0  0  0  0  0  0
  -29.7800  -17.3440   21.6610 C   0  0  0  0  0  3  0  0  0  0  0  0
  -31.1250  -19.3100   20.1130 C   0  0  0  0  0  3  0  0  0  0  0  0
  -29.6490  -17.3480   20.2580 C   0  0  0  0  0  0  0  0  0  0  0  0
  -29.7880  -18.9400   19.8730 C   0  0  0  0  0  0  0  0  0  0  0  0
  -30.9290  -18.0020   22.1770 C   0  0  0  0  0  0  0  0  0  0  0  0
  -31.6800  -18.8790   21.3420 C   0  0  0  0  0  0  0  0  0  0  0  0
  -31.3990  -17.6500   23.5800 C   0  0  0  0  0  1  0  0  0  0  0  0
  -33.0060  -19.4690   21.8060 C   0  0  0  0  0  1  0  0  0  0  0  0
  -30.2980  -15.7690   19.7590 C   0  0  0  0  0  0  0  0  0  0  0  0
  -30.3240  -13.2160   18.9510 C   0  0  0  0  0  2  0  0  0  0  0  0
  -29.3530  -12.8670   17.7880 C   0  0  0  0  0  2  0  0  0  0  0  0
  -27.9500  -12.5250   18.3110 C   0  0  0  0  0  2  0  0  0  0  0  0
  -27.5330  -13.4830   19.4500 C   0  0  0  0  0  3  0  0  0  0  0  0
  -28.6390  -13.7790   20.4930 C   0  0  0  0  0  2  0  0  0  0  0  0
  -29.7890  -14.3910   19.7850 N   0  0  0  0  0  0  0  0  0  0  0  0
  -31.4620  -15.7110   19.3220 O   0  0  0  0  0  0  0  0  0  0  0  0
  -25.2400  -13.9800   20.4120 C   0  0  0  0  0  0  0  0  0  0  0  0
  -24.2120  -13.1860   20.8310 C   0  0  0  0  0  0  0  0  0  0  0  0
  -24.6710  -11.8370   20.7070 C   0  0  0  0  0  0  0  0  0  0  0  0
  -26.2580  -13.1190   20.0500 N   0  0  0  0  0  0  0  0  0  0  0  0
  -25.9350  -11.8190   20.2910 N   0  0  0  0  0  0  0  0  0  0  0  0
  -23.9510  -10.5700   20.9080 C   0  0  0  0  0  0  0  0  0  0  0  0
  -24.3980   -9.6040   21.8380 C   0  0  0  0  0  3  0  0  0  0  0  0
  -23.6760   -8.4060   22.0300 C   0  0  0  0  0  3  0  0  0  0  0  0
  -22.4910   -8.1650   21.2920 C   0  0  0  0  0  0  0  0  0  0  0  0
  -22.0640   -9.1180   20.3490 C   0  0  0  0  0  3  0  0  0  0  0  0
  -22.7850  -10.3070   20.1590 C   0  0  0  0  0  3  0  0  0  0  0  0
  -21.7370   -7.0200   21.3900 O   0  0  0  0  0  0  0  0  0  0  0  0
  -21.6300   -6.3240   22.5690 C   0  0  0  0  0  0  0  0  0  0  0  0
  -21.1460   -6.9280   23.7480 C   0  0  0  0  0  3  0  0  0  0  0  0
  -20.9960   -6.1620   24.9200 C   0  0  0  0  0  3  0  0  0  0  0  0
  -21.3150   -4.7910   24.9130 C   0  0  0  0  0  0  0  0  0  0  0  0
  -21.7940   -4.1870   23.7360 C   0  0  0  0  0  3  0  0  0  0  0  0
  -21.9520   -4.9520   22.5670 C   0  0  0  0  0  0  0  0  0  0  0  0
  -22.3930   -4.3630   21.4310 F   0  0  0  0  0  0  0  0  0  0  0  0
  -21.1610   -4.0490   26.0350 F   0  0  0  0  0  0  0  0  0  0  0  0
  -22.8390  -13.6500   21.2260 C   0  0  0  0  0  0  0  0  0  0  0  0
  -22.1890  -12.9200   22.1230 N   0  0  0  0  0  0  0  0  0  0  0  0
  -22.3660  -14.6970   20.7810 O   0  0  0  0  0  0  0  0  0  0  0  0
  -22.6010  -12.0800   22.5030 H   0  0  0  0  0  0  0  0  0  0  0  0
  -21.2750  -13.2020   22.4450 H   0  0  0  0  0  0  0  0  0  0  0  0
  -25.3900  -15.3560   20.2750 N   0  0  0  0  0  0  0  0  0  0  0  0
  -24.6380  -16.0060   20.4670 H   0  0  0  0  0  0  0  0  0  0  0  0
  -26.2170  -15.8040   19.8960 H   0  0  0  0  0  0  0  0  0  0  0  0
  -28.1400  -25.6540   19.9460 O   0  0  0  0  0  0  0  0  0  0  0  0
  -24.5980  -31.8430   23.0550 C   0  0  0  0  0  0  0  0  0  0  0  0
  -27.1310  -26.8390   19.9680 C   0  0  0  0  0  0  0  0  0  0  0  0
  -23.4010  -30.4610   21.4090 C   0  0  0  0  0  3  0  0  0  0  0  0
  -24.8460  -28.8510   19.9550 C   0  0  0  0  0  0  0  0  0  0  0  0
  -25.9750  -30.6220   21.2680 C   0  0  0  0  0  2  0  0  0  0  0  0
  -26.0390  -29.2020   20.5930 C   0  0  0  0  0  0  0  0  0  0  0  0
  -27.1620  -28.2230   20.5780 C   0  0  0  0  0  3  0  0  0  0  0  0
  -25.9110  -26.7090   19.2570 C   0  0  0  0  0  3  0  0  0  0  0  0
  -24.8180  -27.6300   19.2600 C   0  0  0  0  0  3  0  0  0  0  0  0
  -23.6280  -29.7860   20.0270 C   0  0  0  0  0  2  0  0  0  0  0  0
  -24.6810  -31.0070   21.9650 N   0  0  0  0  0  0  0  0  0  0  0  0
  -23.5110  -32.1330   23.5820 O   0  0  0  0  0  0  0  0  0  0  0  0
  -22.7020  -29.4630   22.3690 C   0  0  0  0  0  0  0  0  0  0  0  0
  -21.3690  -29.3260   22.2740 N   0  0  0  0  0  0  0  0  0  0  0  0
  -23.3710  -28.8140   23.1750 O   0  0  0  0  0  0  0  0  0  0  0  0
  -20.8740  -29.8970   21.6030 H   0  0  0  0  0  0  0  0  0  0  0  0
  -17.9870  -28.1340   22.8530 C   0  0  0  0  0  0  0  0  0  0  0  0
  -20.5550  -28.3760   23.0450 C   0  0  0  0  0  3  0  0  0  0  0  0
  -20.6290  -26.9590   22.4290 C   0  0  0  0  0  2  0  0  0  0  0  0
  -19.4940  -26.6750   21.4400 C   0  0  0  0  0  2  0  0  0  0  0  0
  -18.1340  -26.8080   22.1270 C   0  0  0  0  0  2  0  0  0  0  0  0
  -19.1230  -28.8780   23.2700 C   0  0  0  0  0  0  0  0  0  0  0  0
  -18.9270  -30.1200   23.9160 C   0  0  0  0  0  3  0  0  0  0  0  0
  -17.6290  -30.6160   24.1460 C   0  0  0  0  0  3  0  0  0  0  0  0
  -16.5100  -29.8720   23.7370 C   0  0  0  0  0  3  0  0  0  0  0  0
  -16.6900  -28.6300   23.1020 C   0  0  0  0  0  3  0  0  0  0  0  0
  -25.8640  -32.4890   23.6910 C   0  0  0  0  0  3  0  0  0  0  0  0
  -25.5350  -33.8770   24.0810 N   0  0  0  0  0  0  0  0  0  0  0  0
  -25.8290  -34.9700   23.3640 C   0  0  0  0  0  0  0  0  0  0  0  0
  -26.4660  -34.9180   22.3090 O   0  0  0  0  0  0  0  0  0  0  0  0
  -24.9600  -33.9910   24.9040 H   0  0  0  0  0  0  0  0  0  0  0  0
  -24.0520  -36.7480   23.1720 C   0  0  0  0  0  1  0  0  0  0  0  0
  -25.3430  -36.3360   23.8980 C   0  0  0  0  0  3  0  0  0  0  0  0
  -27.4990  -37.2340   24.6540 C   0  0  0  0  0  1  0  0  0  0  0  0
  -26.3470  -37.4140   23.7750 N   0  0  0  0  0  0  0  0  0  0  0  0
  -25.9350  -38.3200   23.9870 H   0  0  0  0  0  0  0  0  0  0  0  0
  -26.4040  -31.6910   24.9450 C   0  0  1  0  0  0  0  0  0  0  0  0
  -25.3210  -31.4220   26.0160 C   0  0  0  0  0  1  0  0  0  0  0  0
  -26.9920  -30.3250   24.5220 C   0  0  0  0  0  1  0  0  0  0  0  0
  -27.5640  -32.4750   25.6060 C   0  0  0  0  0  1  0  0  0  0  0  0
  2  1  1  0
  2  5  1  0
  3  1  1  0
  3  6  1  0
  4  5  1  0
  4  6  1  0
  5 10  1  0
  6 51  1  0
  7 11  1  0
  8 12  1  0
  9  7  2  0
 10  8  2  0
 10  9  1  0
 11 13  1  0
 12 14  1  0
 12 11  2  0
 15 21  1  0
 15  9  1  0
 16 21  1  0
 17 18  1  0
 17 16  1  0
 19 18  1  0
 19 26  1  0
 19 20  1  0
 21 20  1  0
 22 15  2  0
 23 24  2  0
 24 43  1  0
 25 24  1  0
 25 28  1  0
 26 27  1  0
 26 23  1  0
 27 25  2  0
 28 29  1  0
 29 30  2  0
 31 34  1  0
 31 30  1  0
 32 31  2  0
 33 32  1  0
 33 28  2  0
 34 35  1  0
 35 36  1  0
 36 37  2  0
 38 37  1  0
 38 42  1  0
 39 38  2  0
 40 35  2  0
 40 39  1  0
 41 40  1  0
 43 44  1  0
 44 47  1  0
 44 46  1  0
 45 43  2  0
 48 23  1  0
 48 49  1  0
 50 48  1  0
 51 53  1  0
 52 63  2  0
 53 58  1  0
 54 62  1  0
 54 64  1  0
 55 61  1  0
 55 57  1  0
 56 62  1  0
 57 56  1  0
 58 57  2  0
 59 60  1  0
 59 53  2  0
 60 55  2  0
 61 54  1  0
 62 52  1  0
 64 66  2  0
 65 64  1  0
 67 65  1  0
 68 77  2  0
 68 73  1  0
 69 65  1  0
 69 73  1  0
 70 69  1  0
 71 72  1  0
 71 70  1  0
 72 68  1  0
 73 74  2  0
 74 75  1  0
 76 75  2  0
 77 76  1  0
 78 52  1  0
 78 79  1  0
 78 88  1  0
 79 82  1  0
 80 84  1  0
 80 79  1  0
 81 80  2  0
 84 83  1  0
 86 84  1  0
 86 87  1  0
 86 85  1  0
 88 91  1  1
 88 89  1  0
 90 88  1  0
M  ISO  4   6 101   9 100  15 100  51 101
M  END
>  <TORSDO>  (63) 
F 17

>  <SCORE>  (63) 
-14.935

>  <name>  (63) 
62

>  <ligand_id>  (63) 
62

>  <original_smiles>  (63) 
[H]c1c([H])c([H])c2c(c1[H])C([H])([H])C([H])([H])C([H])([H])C2([H])N([H])C(=O)C1([H])N(C(=O)C([H])(N([H])C(=O)C([H])(N([H])C([H])([H])[H])C([H])([H])[H])C(C([H])([H])[H])(C([H])([H])[H])C([H])([H])[H])C([H])([H])c2c([H])c(OC3([H])C([H])([H])C([H])([H])C([H])([H])C([H])(c4c([H])c(C([H])([H])[H])c(C([H])([H])[H])c([H])c4C(=O)N4C([H])([H])C([H])([H])C([H])([H])C([H])(n5nc(-c6c([H])c([H])c(Oc7c([H])c([H])c(F)c([H])c7F)c([H])c6[H])c(C(=O)N([H])[H])c5N([H])[H])C4([H])[H])C3([H])[H])c([H])c([H])c2C1([H])[H]

>  <smiles>  (63) 
[H]c1c([H])c([H])c2c(c1[H])C([H])([H])C([H])([H])C([H])([H])C2([H])N([H])C(=O)C1([H])N(C(=O)C([H])(N([H])C(=O)C([H])(N([H])C([H])([H])[H])C([H])([H])[H])C(C([H])([H])[H])(C([H])([H])[H])C([H])([H])[H])C([H])([H])c2c([H])c(OC3([H])C([H])([H])C([H])([H])C([H])([H])C([H])(c4c([H])c(C([H])([H])[H])c(C([H])([H])[H])c([H])c4C(=O)N4C([H])([H])C([H])([H])C([H])([H])C([H])(n5nc(-c6c([H])c([H])c(Oc7c([H])c([H])c(F)c([H])c7F)c([H])c6[H])c(C(=O)N([H])[H])c5N([H])[H])C4([H])[H])C3([H])[H])c([H])c([H])c2C1([H])[H]

$$$$
63:0:0
     RDKit          3D

 89 97  0  0  1  0  0  0  0  0999 V2000
  -28.7020  -22.6320   19.1100 C   0  0  0  0  0  3  0  0  0  0  0  0
  -28.3800  -24.0490   19.0700 C   0  0  0  0  0  3  0  0  0  0  0  0
  -28.8770  -22.7490   21.4610 C   0  0  0  0  0  3  0  0  0  0  0  0
  -29.0040  -21.9050   20.3090 C   0  0  0  0  0  0  0  0  0  0  0  0
  -28.3160  -24.9050   20.2220 C   0  0  0  0  0  0  0  0  0  0  0  0
  -28.5630  -24.1640   21.4260 C   0  0  0  0  0  0  0  0  0  0  0  0
  -28.5770  -24.8450   22.5970 F   0  0  0  0  0  0  0  0  0  0  0  0
  -28.2920  -26.3650   20.1730 O   0  0  0  0  0  0  0  0  0  0  0  0
  -24.6100  -31.9300   23.2260 C   0  0  0  0  0  0  0  0  0  0  0  0
  -27.1700  -27.2450   20.1890 C   0  0  0  0  0  0  0  0  0  0  0  0
  -23.3940  -30.5300   21.5980 C   0  0  0  0  0  3  0  0  0  0  0  0
  -24.8280  -28.9440   20.1730 C   0  0  0  0  0  0  0  0  0  0  0  0
  -25.9410  -30.8000   21.4140 C   0  0  0  0  0  2  0  0  0  0  0  0
  -26.0070  -29.4070   20.7720 C   0  0  0  0  0  0  0  0  0  0  0  0
  -27.1740  -28.5700   20.7670 C   0  0  0  0  0  3  0  0  0  0  0  0
  -25.9670  -26.8590   19.5630 C   0  0  0  0  0  3  0  0  0  0  0  0
  -24.8150  -27.6790   19.5600 C   0  0  0  0  0  3  0  0  0  0  0  0
  -23.6030  -29.8440   20.2210 C   0  0  0  0  0  2  0  0  0  0  0  0
  -24.6680  -31.1080   22.1340 N   0  0  0  0  0  0  0  0  0  0  0  0
  -23.5290  -32.2180   23.7630 O   0  0  0  0  0  0  0  0  0  0  0  0
  -22.7230  -29.5280   22.5690 C   0  0  0  0  0  0  0  0  0  0  0  0
  -21.3960  -29.3540   22.4450 N   0  0  0  0  0  0  0  0  0  0  0  0
  -23.3980  -28.9090   23.3940 O   0  0  0  0  0  0  0  0  0  0  0  0
  -20.9080  -29.9040   21.7510 H   0  0  0  0  0  0  0  0  0  0  0  0
  -18.0160  -28.1630   22.9620 C   0  0  0  0  0  0  0  0  0  0  0  0
  -20.5760  -28.4230   23.2240 C   0  0  0  0  0  3  0  0  0  0  0  0
  -20.6750  -26.9880   22.6550 C   0  0  0  0  0  2  0  0  0  0  0  0
  -19.5700  -26.6610   21.6450 C   0  0  0  0  0  2  0  0  0  0  0  0
  -18.1900  -26.8110   22.2910 C   0  0  0  0  0  2  0  0  0  0  0  0
  -19.1360  -28.9260   23.3850 C   0  0  0  0  0  0  0  0  0  0  0  0
  -18.9190  -30.1920   23.9720 C   0  0  0  0  0  3  0  0  0  0  0  0
  -17.6150  -30.6930   24.1420 C   0  0  0  0  0  3  0  0  0  0  0  0
  -16.5090  -29.9260   23.7330 C   0  0  0  0  0  3  0  0  0  0  0  0
  -16.7110  -28.6630   23.1500 C   0  0  0  0  0  3  0  0  0  0  0  0
  -25.8960  -32.5600   23.8430 C   0  0  0  0  0  3  0  0  0  0  0  0
  -26.4220  -31.7840   25.1130 C   0  0  1  0  0  0  0  0  0  0  0  0
  -25.3360  -31.5420   26.1870 C   0  0  0  0  0  1  0  0  0  0  0  0
  -27.0030  -30.4080   24.7160 C   0  0  0  0  0  1  0  0  0  0  0  0
  -27.5760  -32.5780   25.7710 C   0  0  0  0  0  1  0  0  0  0  0  0
  -25.5880  -33.9570   24.1860 N   0  0  0  0  0  0  0  0  0  0  0  0
  -25.8940  -35.0160   23.4260 C   0  0  0  0  0  0  0  0  0  0  0  0
  -26.5320  -34.9210   22.3740 O   0  0  0  0  0  0  0  0  0  0  0  0
  -25.0180  -34.1060   25.0070 H   0  0  0  0  0  0  0  0  0  0  0  0
  -24.1410  -36.8010   23.1450 C   0  0  0  0  0  1  0  0  0  0  0  0
  -25.4160  -36.4010   23.9060 C   0  0  0  0  0  3  0  0  0  0  0  0
  -27.5710  -37.3030   24.6620 C   0  0  0  0  0  1  0  0  0  0  0  0
  -26.4370  -37.4610   23.7570 N   0  0  0  0  0  0  0  0  0  0  0  0
  -26.0290  -38.3790   23.9150 H   0  0  0  0  0  0  0  0  0  0  0  0
  -29.7500  -20.4410   20.3420 C   0  0  0  0  0  2  0  0  0  0  0  0
  -29.1450  -18.8950   20.3980 C   0  0  0  0  0  3  0  0  0  0  0  0
  -30.1840  -17.5880   20.4590 C   0  0  0  0  0  3  0  0  0  0  0  0
  -30.5370  -14.9210   20.3120 C   0  0  0  0  0  0  0  0  0  0  0  0
  -30.3710  -12.6230   19.3040 C   0  0  0  0  0  2  0  0  0  0  0  0
  -29.4050  -12.6470   18.0990 C   0  0  0  0  0  2  0  0  0  0  0  0
  -27.9500  -12.4440   18.5620 C   0  0  0  0  0  2  0  0  0  0  0  0
  -27.5840  -13.3250   19.7850 C   0  0  0  0  0  3  0  0  0  0  0  0
  -28.6670  -13.2760   20.8830 C   0  0  0  0  0  2  0  0  0  0  0  0
  -29.9300  -13.6800   20.2510 N   0  0  0  0  0  0  0  0  0  0  0  0
  -31.7260  -15.0090   19.9910 O   0  0  0  0  0  0  0  0  0  0  0  0
  -29.7680  -16.0840   20.5180 N   0  0  0  0  0  0  0  0  0  0  0  0
  -28.7980  -15.9090   20.7340 H   0  0  0  0  0  0  0  0  0  0  0  0
  -25.2120  -13.8790   20.5800 C   0  0  0  0  0  0  0  0  0  0  0  0
  -24.1620  -13.0890   20.9610 C   0  0  0  0  0  0  0  0  0  0  0  0
  -24.6350  -11.7440   20.8990 C   0  0  0  0  0  0  0  0  0  0  0  0
  -26.2570  -13.0130   20.3050 N   0  0  0  0  0  0  0  0  0  0  0  0
  -25.9190  -11.7220   20.5610 N   0  0  0  0  0  0  0  0  0  0  0  0
  -23.9220  -10.4730   21.0820 C   0  0  0  0  0  0  0  0  0  0  0  0
  -24.3760   -9.4960   21.9960 C   0  0  0  0  0  3  0  0  0  0  0  0
  -23.6610   -8.2910   22.1700 C   0  0  0  0  0  3  0  0  0  0  0  0
  -22.4770   -8.0560   21.4300 C   0  0  0  0  0  0  0  0  0  0  0  0
  -22.0430   -9.0210   20.5050 C   0  0  0  0  0  3  0  0  0  0  0  0
  -22.7590  -10.2180   20.3290 C   0  0  0  0  0  3  0  0  0  0  0  0
  -21.7320   -6.9050   21.5140 O   0  0  0  0  0  0  0  0  0  0  0  0
  -21.6980   -6.1510   22.6610 C   0  0  0  0  0  0  0  0  0  0  0  0
  -21.2450   -6.6830   23.8880 C   0  0  0  0  0  3  0  0  0  0  0  0
  -21.1600   -5.8540   25.0260 C   0  0  0  0  0  3  0  0  0  0  0  0
  -21.5180   -4.4960   24.9350 C   0  0  0  0  0  0  0  0  0  0  0  0
  -21.9640   -3.9640   23.7130 C   0  0  0  0  0  3  0  0  0  0  0  0
  -22.0500   -4.7890   22.5780 C   0  0  0  0  0  0  0  0  0  0  0  0
  -22.4600   -4.2660   21.3970 F   0  0  0  0  0  0  0  0  0  0  0  0
  -21.4280   -3.6980   26.0250 F   0  0  0  0  0  0  0  0  0  0  0  0
  -22.7680  -13.5540   21.2680 C   0  0  0  0  0  0  0  0  0  0  0  0
  -22.0640  -12.8440   22.1420 N   0  0  0  0  0  0  0  0  0  0  0  0
  -22.3120  -14.5810   20.7690 O   0  0  0  0  0  0  0  0  0  0  0  0
  -22.4470  -12.0120   22.5660 H   0  0  0  0  0  0  0  0  0  0  0  0
  -21.1310  -13.1390   22.3910 H   0  0  0  0  0  0  0  0  0  0  0  0
  -25.3570  -15.2550   20.4210 N   0  0  0  0  0  0  0  0  0  0  0  0
  -24.5790  -15.8910   20.5560 H   0  0  0  0  0  0  0  0  0  0  0  0
  -26.1800  -15.7120   20.0490 H   0  0  0  0  0  0  0  0  0  0  0  0
  1  4  1  0
  2  1  2  0
  2  5  1  0
  4 49  1  0
  4  3  2  0
  5  6  2  0
  6  3  1  0
  6  7  1  0
  8 10  1  0
  8  5  1  0
  9 20  2  0
 10 15  1  0
 11 19  1  0
 11 21  1  0
 12 18  1  0
 12 14  1  0
 13 19  1  0
 14 13  1  0
 15 14  2  0
 16 10  2  0
 17 16  1  0
 17 12  2  0
 18 11  1  0
 19  9  1  0
 21 23  2  0
 22 21  1  0
 24 22  1  0
 25 34  2  0
 25 30  1  0
 26 22  1  0
 26 30  1  0
 27 26  1  0
 28 29  1  0
 28 27  1  0
 29 25  1  0
 30 31  2  0
 31 32  1  0
 33 32  2  0
 34 33  1  0
 35  9  1  0
 35 40  1  0
 35 36  1  0
 36 39  1  1
 36 37  1  0
 38 36  1  0
 40 43  1  0
 41 45  1  0
 41 40  1  0
 42 41  2  0
 45 44  1  0
 47 45  1  0
 47 48  1  0
 47 46  1  0
 49 50  1  0
 50 51  2  0
 51 60  1  0
 52 60  1  0
 53 58  1  0
 54 55  1  0
 54 53  1  0
 56 55  1  0
 56 65  1  0
 56 57  1  0
 58 52  1  0
 58 57  1  0
 59 52  2  0
 60 61  1  0
 62 63  2  0
 63 82  1  0
 64 63  1  0
 64 67  1  0
 65 66  1  0
 65 62  1  0
 66 64  2  0
 67 68  1  0
 68 69  2  0
 70 73  1  0
 70 69  1  0
 71 70  2  0
 72 71  1  0
 72 67  2  0
 73 74  1  0
 74 75  1  0
 75 76  2  0
 77 76  1  0
 77 81  1  0
 78 77  2  0
 79 74  2  0
 79 78  1  0
 80 79  1  0
 82 83  1  0
 83 86  1  0
 83 85  1  0
 84 82  2  0
 87 88  1  0
 87 62  1  0
 89 87  1  0
M  ISO  4   5 101   8 101  52 100  60 100
M  END
>  <TORSDO>  (64) 
F 19

>  <SCORE>  (64) 
-14.212

>  <name>  (64) 
63

>  <ligand_id>  (64) 
63

>  <original_smiles>  (64) 
[H]c1c([H])c([H])c2c(c1[H])C([H])([H])C([H])([H])C([H])([H])C2([H])N([H])C(=O)C1([H])N(C(=O)C([H])(N([H])C(=O)C([H])(N([H])C([H])([H])[H])C([H])([H])[H])C(C([H])([H])[H])(C([H])([H])[H])C([H])([H])[H])C([H])([H])c2c([H])c(Oc3c([H])c([H])c(C([H])([H])C([H])([H])C([H])([H])N([H])C(=O)N4C([H])([H])C([H])([H])C([H])([H])C([H])(n5nc(-c6c([H])c([H])c(Oc7c([H])c([H])c(F)c([H])c7F)c([H])c6[H])c(C(=O)N([H])[H])c5N([H])[H])C4([H])[H])c([H])c3F)c([H])c([H])c2C1([H])[H]

>  <smiles>  (64) 
[H]c1c([H])c([H])c2c(c1[H])C([H])([H])C([H])([H])C([H])([H])C2([H])N([H])C(=O)C1([H])N(C(=O)C([H])(N([H])C(=O)C([H])(N([H])C([H])([H])[H])C([H])([H])[H])C(C([H])([H])[H])(C([H])([H])[H])C([H])([H])[H])C([H])([H])c2c([H])c(Oc3c([H])c([H])c(C([H])([H])C([H])([H])C([H])([H])N([H])C(=O)N4C([H])([H])C([H])([H])C([H])([H])C([H])(n5nc(-c6c([H])c([H])c(Oc7c([H])c([H])c(F)c([H])c7F)c([H])c6[H])c(C(=O)N([H])[H])c5N([H])[H])C4([H])[H])c([H])c3F)c([H])c([H])c2C1([H])[H]

$$$$
64:0:0
     RDKit          3D

 98107  0  0  1  0  0  0  0  0999 V2000
  -29.8300  -23.8440   21.7830 C   0  0  0  0  0  3  0  0  0  0  0  0
  -30.4690  -22.5930   21.7290 C   0  0  0  0  0  0  0  0  0  0  0  0
  -29.9900  -21.5810   20.8490 C   0  0  0  0  0  0  0  0  0  0  0  0
  -28.7750  -24.1620   20.9150 C   0  0  0  0  0  0  0  0  0  0  0  0
  -28.9210  -21.8970   19.9570 C   0  0  0  0  0  0  0  0  0  0  0  0
  -28.3570  -23.2050   19.9550 C   0  0  0  0  0  0  0  0  0  0  0  0
  -31.7070  -22.4220   22.6060 C   0  0  0  0  0  2  0  0  0  0  0  0
  -32.4760  -21.1060   22.4420 C   0  0  0  0  0  2  0  0  0  0  0  0
  -32.2230  -20.4250   21.0910 C   0  0  0  0  0  2  0  0  0  0  0  0
  -30.7260  -20.2340   20.7710 C   0  0  0  0  0  3  0  0  0  0  0  0
  -28.3730  -20.8660   18.9690 C   0  0  0  0  0  1  0  0  0  0  0  0
  -27.3040  -23.5970   18.9280 C   0  0  0  0  0  1  0  0  0  0  0  0
  -30.0790  -19.0690   21.5860 C   0  0  0  0  0  0  0  0  0  0  0  0
  -29.5380  -18.0600   20.8760 N   0  0  0  0  0  0  0  0  0  0  0  0
  -30.1710  -19.0110   22.8150 O   0  0  0  0  0  0  0  0  0  0  0  0
  -29.3780  -18.2710   19.9010 H   0  0  0  0  0  0  0  0  0  0  0  0
  -29.6890  -16.6180   21.1590 C   0  0  0  0  0  2  0  0  0  0  0  0
  -29.8200  -16.1360   18.6520 C   0  0  0  0  0  1  0  0  0  0  0  0
  -31.8550  -16.7820   19.8850 C   0  0  0  0  0  1  0  0  0  0  0  0
  -30.5250  -15.9510   20.0190 C   0  0  1  0  0  0  0  0  0  0  0  0
  -30.9520  -14.4370   20.2260 C   0  0  0  0  0  0  0  0  0  0  0  0
  -30.4460  -12.2700   19.2040 C   0  0  0  0  0  2  0  0  0  0  0  0
  -29.5030  -12.4370   17.9970 C   0  0  0  0  0  2  0  0  0  0  0  0
  -28.0360  -12.3520   18.4520 C   0  0  0  0  0  2  0  0  0  0  0  0
  -27.7280  -13.2280   19.6960 C   0  0  0  0  0  3  0  0  0  0  0  0
  -28.8200  -13.1350   20.7830 C   0  0  0  0  0  2  0  0  0  0  0  0
  -30.1290  -13.3480   20.1570 N   0  0  0  0  0  0  0  0  0  0  0  0
  -32.1570  -14.2480   20.1030 O   0  0  0  0  0  0  0  0  0  0  0  0
  -25.3650  -13.8470   20.4770 C   0  0  0  0  0  0  0  0  0  0  0  0
  -24.2940  -13.0820   20.8450 C   0  0  0  0  0  0  0  0  0  0  0  0
  -24.7410  -11.7260   20.8000 C   0  0  0  0  0  0  0  0  0  0  0  0
  -26.3950  -12.9580   20.2210 N   0  0  0  0  0  0  0  0  0  0  0  0
  -26.0280  -11.6770   20.4800 N   0  0  0  0  0  0  0  0  0  0  0  0
  -24.0010  -10.4720   20.9830 C   0  0  0  0  0  0  0  0  0  0  0  0
  -24.4090   -9.5040   21.9270 C   0  0  0  0  0  3  0  0  0  0  0  0
  -23.6710   -8.3120   22.0970 C   0  0  0  0  0  3  0  0  0  0  0  0
  -22.5090   -8.0800   21.3200 C   0  0  0  0  0  0  0  0  0  0  0  0
  -22.1220   -9.0350   20.3640 C   0  0  0  0  0  3  0  0  0  0  0  0
  -22.8600  -10.2180   20.1940 C   0  0  0  0  0  3  0  0  0  0  0  0
  -21.7420   -6.9440   21.3990 O   0  0  0  0  0  0  0  0  0  0  0  0
  -21.6400   -6.2240   22.5610 C   0  0  0  0  0  0  0  0  0  0  0  0
  -21.1420   -6.7990   23.7500 C   0  0  0  0  0  3  0  0  0  0  0  0
  -20.9910   -6.0060   24.9060 C   0  0  0  0  0  3  0  0  0  0  0  0
  -21.3230   -4.6380   24.8710 C   0  0  0  0  0  0  0  0  0  0  0  0
  -21.8090   -4.0620   23.6830 C   0  0  0  0  0  3  0  0  0  0  0  0
  -21.9650   -4.8530   22.5310 C   0  0  0  0  0  0  0  0  0  0  0  0
  -22.4150   -4.2880   21.3860 F   0  0  0  0  0  0  0  0  0  0  0  0
  -21.1670   -3.8750   25.9770 F   0  0  0  0  0  0  0  0  0  0  0  0
  -22.9050  -13.5710   21.1320 C   0  0  0  0  0  0  0  0  0  0  0  0
  -22.1720  -12.8770   21.9960 N   0  0  0  0  0  0  0  0  0  0  0  0
  -22.4760  -14.6080   20.6260 O   0  0  0  0  0  0  0  0  0  0  0  0
  -22.5260  -12.0380   22.4290 H   0  0  0  0  0  0  0  0  0  0  0  0
  -21.2380  -13.1930   22.2230 H   0  0  0  0  0  0  0  0  0  0  0  0
  -25.5410  -15.2180   20.3140 N   0  0  0  0  0  0  0  0  0  0  0  0
  -24.7810  -15.8720   20.4620 H   0  0  0  0  0  0  0  0  0  0  0  0
  -26.3900  -15.6660   19.9990 H   0  0  0  0  0  0  0  0  0  0  0  0
  -28.0370  -25.4810   21.1330 C   0  0  0  0  0  2  0  0  0  0  0  0
  -28.3260  -26.5390   20.2050 O   0  0  0  0  0  0  0  0  0  0  0  0
  -24.5880  -31.7680   23.2250 C   0  0  0  0  0  0  0  0  0  0  0  0
  -27.2410  -27.3750   20.1120 C   0  0  0  0  0  0  0  0  0  0  0  0
  -23.4060  -30.4060   21.5380 C   0  0  0  0  0  3  0  0  0  0  0  0
  -24.8750  -28.9070   20.0990 C   0  0  0  0  0  0  0  0  0  0  0  0
  -25.9390  -30.7560   21.3940 C   0  0  0  0  0  2  0  0  0  0  0  0
  -26.0280  -29.4030   20.7230 C   0  0  0  0  0  0  0  0  0  0  0  0
  -27.2190  -28.6430   20.7320 C   0  0  0  0  0  3  0  0  0  0  0  0
  -26.0810  -26.9080   19.4600 C   0  0  0  0  0  3  0  0  0  0  0  0
  -24.8970  -27.6580   19.4610 C   0  0  0  0  0  3  0  0  0  0  0  0
  -23.6340  -29.7630   20.1470 C   0  0  0  0  0  2  0  0  0  0  0  0
  -24.6620  -30.9880   22.1120 N   0  0  0  0  0  0  0  0  0  0  0  0
  -23.4970  -32.0380   23.7460 O   0  0  0  0  0  0  0  0  0  0  0  0
  -22.7320  -29.3640   22.4620 C   0  0  0  0  0  0  0  0  0  0  0  0
  -21.4030  -29.2230   22.3330 N   0  0  0  0  0  0  0  0  0  0  0  0
  -23.4010  -28.6910   23.2500 O   0  0  0  0  0  0  0  0  0  0  0  0
  -20.9290  -29.8200   21.6710 H   0  0  0  0  0  0  0  0  0  0  0  0
  -17.9910  -28.1500   22.8410 C   0  0  0  0  0  0  0  0  0  0  0  0
  -20.5600  -28.2860   23.0750 C   0  0  0  0  0  3  0  0  0  0  0  0
  -20.5910  -26.8800   22.4310 C   0  0  0  0  0  2  0  0  0  0  0  0
  -19.4580  -26.6520   21.4260 C   0  0  0  0  0  2  0  0  0  0  0  0
  -18.0950  -26.8280   22.1010 C   0  0  0  0  0  2  0  0  0  0  0  0
  -19.1470  -28.8430   23.2830 C   0  0  0  0  0  0  0  0  0  0  0  0
  -18.9940  -30.0880   23.9310 C   0  0  0  0  0  3  0  0  0  0  0  0
  -17.7140  -30.6350   24.1440 C   0  0  0  0  0  3  0  0  0  0  0  0
  -16.5730  -29.9370   23.7170 C   0  0  0  0  0  3  0  0  0  0  0  0
  -16.7110  -28.6960   23.0720 C   0  0  0  0  0  3  0  0  0  0  0  0
  -25.8650  -32.3790   23.8830 C   0  0  0  0  0  3  0  0  0  0  0  0
  -26.3660  -31.5680   25.1410 C   0  0  1  0  0  0  0  0  0  0  0  0
  -25.2590  -31.2900   26.1830 C   0  0  0  0  0  1  0  0  0  0  0  0
  -26.9600  -30.2070   24.7090 C   0  0  0  0  0  1  0  0  0  0  0  0
  -27.5060  -32.3440   25.8430 C   0  0  0  0  0  1  0  0  0  0  0  0
  -25.5520  -33.7660   24.2480 N   0  0  0  0  0  0  0  0  0  0  0  0
  -25.8840  -34.8380   23.5170 C   0  0  0  0  0  0  0  0  0  0  0  0
  -26.5610  -34.7620   22.4870 O   0  0  0  0  0  0  0  0  0  0  0  0
  -24.9550  -33.9000   25.0510 H   0  0  0  0  0  0  0  0  0  0  0  0
  -24.1550  -36.6330   23.1930 C   0  0  0  0  0  1  0  0  0  0  0  0
  -25.3890  -36.2120   24.0060 C   0  0  0  0  0  3  0  0  0  0  0  0
  -27.5090  -37.0790   24.8870 C   0  0  0  0  0  1  0  0  0  0  0  0
  -26.4200  -37.2710   23.9330 N   0  0  0  0  0  0  0  0  0  0  0  0
  -26.0100  -38.1850   24.0980 H   0  0  0  0  0  0  0  0  0  0  0  0
  2  1  1  0
  2  7  1  0
  3  2  2  0
  4 57  1  0
  4  1  2  0
  5  3  1  0
  6  5  2  0
  6  4  1  0
  8  7  1  0
  9  8  1  0
 10  3  1  0
 10  9  1  0
 10 13  1  0
 11  5  1  0
 12  6  1  0
 13 15  2  0
 14 17  1  0
 14 13  1  0
 16 14  1  0
 20 18  1  6
 19 20  1  0
 20 21  1  0
 20 17  1  0
 22 27  1  0
 23 24  1  0
 23 22  1  0
 25 24  1  0
 25 32  1  0
 25 26  1  0
 27 21  1  0
 27 26  1  0
 28 21  2  0
 29 30  2  0
 30 49  1  0
 31 30  1  0
 31 34  1  0
 32 29  1  0
 32 33  1  0
 33 31  2  0
 34 35  1  0
 35 36  2  0
 37 40  1  0
 37 36  1  0
 38 37  2  0
 39 38  1  0
 39 34  2  0
 40 41  1  0
 41 42  1  0
 42 43  2  0
 44 43  1  0
 44 48  1  0
 45 44  2  0
 46 41  2  0
 46 45  1  0
 47 46  1  0
 49 50  1  0
 50 53  1  0
 50 52  1  0
 51 49  2  0
 54 55  1  0
 54 29  1  0
 56 54  1  0
 58 57  1  0
 59 70  2  0
 60 58  1  0
 60 65  1  0
 61 69  1  0
 61 71  1  0
 62 68  1  0
 62 64  1  0
 63 69  1  0
 64 65  2  0
 64 63  1  0
 66 67  1  0
 66 60  2  0
 67 62  2  0
 68 61  1  0
 69 59  1  0
 71 73  2  0
 72 71  1  0
 74 72  1  0
 75 84  2  0
 75 80  1  0
 76 72  1  0
 76 80  1  0
 77 76  1  0
 78 79  1  0
 78 77  1  0
 79 75  1  0
 80 81  2  0
 81 82  1  0
 83 82  2  0
 84 83  1  0
 85 59  1  0
 85 90  1  0
 85 86  1  0
 86 89  1  1
 86 87  1  0
 88 86  1  0
 90 93  1  0
 91 95  1  0
 91 90  1  0
 92 91  2  0
 95 94  1  0
 97 95  1  0
 97 98  1  0
 97 96  1  0
M  ISO  4  20 100  21 100  57 101  58 101
M  END
>  <TORSDO>  (65) 
F 20

>  <SCORE>  (65) 
-12.584

>  <name>  (65) 
64

>  <ligand_id>  (65) 
64

>  <original_smiles>  (65) 
[H]c1c([H])c([H])c2c(c1[H])C([H])([H])C([H])([H])C([H])([H])C2([H])N([H])C(=O)C1([H])N(C(=O)C([H])(N([H])C(=O)C([H])(N([H])C([H])([H])[H])C([H])([H])[H])C(C([H])([H])[H])(C([H])([H])[H])C([H])([H])[H])C([H])([H])c2c([H])c(OC([H])([H])c3c([H])c4c(c(C([H])([H])[H])c3C([H])([H])[H])C([H])(C(=O)N([H])C([H])([H])C(C(=O)N3C([H])([H])C([H])([H])C([H])([H])C([H])(n5nc(-c6c([H])c([H])c(Oc7c([H])c([H])c(F)c([H])c7F)c([H])c6[H])c(C(=O)N([H])[H])c5N([H])[H])C3([H])[H])(C([H])([H])[H])C([H])([H])[H])C([H])([H])C([H])([H])C4([H])[H])c([H])c([H])c2C1([H])[H]

>  <smiles>  (65) 
[H]c1c([H])c([H])c2c(c1[H])C([H])([H])C([H])([H])C([H])([H])C2([H])N([H])C(=O)C1([H])N(C(=O)C([H])(N([H])C(=O)C([H])(N([H])C([H])([H])[H])C([H])([H])[H])C(C([H])([H])[H])(C([H])([H])[H])C([H])([H])[H])C([H])([H])c2c([H])c(OC([H])([H])c3c([H])c4c(c(C([H])([H])[H])c3C([H])([H])[H])C([H])(C(=O)N([H])C([H])([H])C(C(=O)N3C([H])([H])C([H])([H])C([H])([H])C([H])(n5nc(-c6c([H])c([H])c(Oc7c([H])c([H])c(F)c([H])c7F)c([H])c6[H])c(C(=O)N([H])[H])c5N([H])[H])C3([H])[H])(C([H])([H])[H])C([H])([H])[H])C([H])([H])C([H])([H])C4([H])[H])c([H])c([H])c2C1([H])[H]

$$$$
65:0:0
     RDKit          3D

 91100  0  0  1  0  0  0  0  0999 V2000
  -27.8670  -19.7610   19.6310 C   0  0  0  0  0  3  0  0  0  0  0  0
  -29.3030  -21.5150   20.4770 C   0  0  0  0  0  3  0  0  0  0  0  0
  -29.1160  -19.9600   20.2830 C   0  0  0  0  0  0  0  0  0  0  0  0
  -27.0190  -20.8300   19.2300 C   0  0  0  0  0  0  0  0  0  0  0  0
  -27.2550  -22.2090   19.4280 C   0  0  0  0  0  0  0  0  0  0  0  0
  -28.4140  -22.7470   20.0520 C   0  0  0  0  0  0  0  0  0  0  0  0
  -25.6440  -20.6140   18.6330 C   0  0  0  0  0  2  0  0  0  0  0  0
  -26.0130  -22.9910   19.0350 C   0  0  0  0  0  2  0  0  0  0  0  0
  -24.9070  -21.9200   18.9800 C   0  0  0  0  0  2  0  0  0  0  0  0
  -30.5780  -15.8000   20.9910 C   0  0  0  0  0  0  0  0  0  0  0  0
  -30.7610  -13.2250   20.4660 C   0  0  0  0  0  2  0  0  0  0  0  0
  -30.0590  -12.7390   19.1720 C   0  0  0  0  0  2  0  0  0  0  0  0
  -28.5750  -12.4340   19.4430 C   0  0  0  0  0  2  0  0  0  0  0  0
  -27.9100  -13.5390   20.2970 C   0  0  0  0  0  3  0  0  0  0  0  0
  -28.7640  -13.9570   21.5160 C   0  0  0  0  0  2  0  0  0  0  0  0
  -30.0500  -14.4560   20.9860 N   0  0  0  0  0  0  0  0  0  0  0  0
  -31.8120  -15.7650   21.1390 O   0  0  0  0  0  0  0  0  0  0  0  0
  -30.0080  -18.5730   20.8000 C   0  0  0  0  0  0  0  0  0  0  0  0
  -28.8960  -16.7740   19.5030 C   0  0  0  0  0  1  0  0  0  0  0  0
  -29.8300  -17.0710   20.5950 N   0  0  0  0  0  0  0  0  0  0  0  0
  -30.9660  -18.9020   21.5050 O   0  0  0  0  0  0  0  0  0  0  0  0
  -25.4800  -14.1650   20.7450 C   0  0  0  0  0  0  0  0  0  0  0  0
  -24.3590  -13.4190   20.9610 C   0  0  0  0  0  0  0  0  0  0  0  0
  -24.7920  -12.0580   20.9790 C   0  0  0  0  0  0  0  0  0  0  0  0
  -26.5240  -13.2620   20.6350 N   0  0  0  0  0  0  0  0  0  0  0  0
  -26.1130  -11.9880   20.8440 N   0  0  0  0  0  0  0  0  0  0  0  0
  -24.0130  -10.8190   21.0580 C   0  0  0  0  0  0  0  0  0  0  0  0
  -24.3360   -9.8020   21.9820 C   0  0  0  0  0  3  0  0  0  0  0  0
  -23.5540   -8.6290   22.0530 C   0  0  0  0  0  3  0  0  0  0  0  0
  -22.4390   -8.4660   21.1950 C   0  0  0  0  0  0  0  0  0  0  0  0
  -22.1370   -9.4720   20.2610 C   0  0  0  0  0  3  0  0  0  0  0  0
  -22.9190  -10.6370   20.1900 C   0  0  0  0  0  3  0  0  0  0  0  0
  -21.6360   -7.3520   21.1770 O   0  0  0  0  0  0  0  0  0  0  0  0
  -21.5440   -6.5160   22.2610 C   0  0  0  0  0  0  0  0  0  0  0  0
  -21.1360   -6.9820   23.5300 C   0  0  0  0  0  3  0  0  0  0  0  0
  -20.9990   -6.0760   24.6000 C   0  0  0  0  0  3  0  0  0  0  0  0
  -21.2500   -4.7040   24.3990 C   0  0  0  0  0  0  0  0  0  0  0  0
  -21.6440   -4.2380   23.1330 C   0  0  0  0  0  3  0  0  0  0  0  0
  -21.7940   -5.1420   22.0680 C   0  0  0  0  0  0  0  0  0  0  0  0
  -22.1620   -4.6890   20.8450 F   0  0  0  0  0  0  0  0  0  0  0  0
  -21.1050   -3.8290   25.4220 F   0  0  0  0  0  0  0  0  0  0  0  0
  -22.9550  -13.9380   21.0450 C   0  0  0  0  0  0  0  0  0  0  0  0
  -22.1030  -13.2680   21.8120 N   0  0  0  0  0  0  0  0  0  0  0  0
  -22.6220  -14.9730   20.4680 O   0  0  0  0  0  0  0  0  0  0  0  0
  -22.3910  -12.4360   22.3060 H   0  0  0  0  0  0  0  0  0  0  0  0
  -21.1530  -13.5960   21.9150 H   0  0  0  0  0  0  0  0  0  0  0  0
  -25.6840  -15.5320   20.5990 N   0  0  0  0  0  0  0  0  0  0  0  0
  -24.9050  -16.1800   20.5750 H   0  0  0  0  0  0  0  0  0  0  0  0
  -26.5610  -15.9520   20.3360 H   0  0  0  0  0  0  0  0  0  0  0  0
  -28.3510  -24.4900   20.4690 C   0  0  0  0  0  2  0  0  0  0  0  0
  -28.0730  -25.9920   19.7540 O   0  0  0  0  0  0  0  0  0  0  0  0
  -24.5270  -31.9450   23.0350 C   0  0  0  0  0  0  0  0  0  0  0  0
  -27.0410  -27.0820   19.9030 C   0  0  0  0  0  0  0  0  0  0  0  0
  -23.3110  -30.5700   21.3950 C   0  0  0  0  0  3  0  0  0  0  0  0
  -24.7440  -28.9890   19.9250 C   0  0  0  0  0  0  0  0  0  0  0  0
  -25.8780  -30.7900   21.2010 C   0  0  0  0  0  2  0  0  0  0  0  0
  -25.9450  -29.3800   20.5350 C   0  0  0  0  0  0  0  0  0  0  0  0
  -27.0910  -28.4540   20.4880 C   0  0  0  0  0  3  0  0  0  0  0  0
  -25.8080  -26.8610   19.2520 C   0  0  0  0  0  3  0  0  0  0  0  0
  -24.7010  -27.7500   19.2670 C   0  0  0  0  0  3  0  0  0  0  0  0
  -23.5270  -29.9110   20.0020 C   0  0  0  0  0  2  0  0  0  0  0  0
  -24.5950  -31.1330   21.9300 N   0  0  0  0  0  0  0  0  0  0  0  0
  -23.4450  -32.2130   23.5840 O   0  0  0  0  0  0  0  0  0  0  0  0
  -22.6470  -29.5500   22.3560 C   0  0  0  0  0  0  0  0  0  0  0  0
  -21.3140  -29.3830   22.2670 N   0  0  0  0  0  0  0  0  0  0  0  0
  -23.3390  -28.9080   23.1530 O   0  0  0  0  0  0  0  0  0  0  0  0
  -20.8100  -29.9530   21.6030 H   0  0  0  0  0  0  0  0  0  0  0  0
  -17.9490  -28.1510   22.8640 C   0  0  0  0  0  0  0  0  0  0  0  0
  -20.5180  -28.4210   23.0380 C   0  0  0  0  0  3  0  0  0  0  0  0
  -20.5980  -27.0050   22.4190 C   0  0  0  0  0  2  0  0  0  0  0  0
  -19.4600  -26.7080   21.4380 C   0  0  0  0  0  2  0  0  0  0  0  0
  -18.1050  -26.8240   22.1390 C   0  0  0  0  0  2  0  0  0  0  0  0
  -19.0820  -28.9060   23.2740 C   0  0  0  0  0  0  0  0  0  0  0  0
  -18.8770  -30.1430   23.9240 C   0  0  0  0  0  3  0  0  0  0  0  0
  -17.5750  -30.6260   24.1620 C   0  0  0  0  0  3  0  0  0  0  0  0
  -16.4600  -29.8690   23.7620 C   0  0  0  0  0  3  0  0  0  0  0  0
  -16.6490  -28.6320   23.1200 C   0  0  0  0  0  3  0  0  0  0  0  0
  -25.8010  -32.5930   23.6580 C   0  0  0  0  0  3  0  0  0  0  0  0
  -25.4500  -33.9600   24.0900 N   0  0  0  0  0  0  0  0  0  0  0  0
  -25.7570  -35.0800   23.4240 C   0  0  0  0  0  0  0  0  0  0  0  0
  -26.4280  -35.0740   22.3880 O   0  0  0  0  0  0  0  0  0  0  0  0
  -24.8530  -34.0330   24.9000 H   0  0  0  0  0  0  0  0  0  0  0  0
  -24.0030  -36.8780   23.2170 C   0  0  0  0  0  1  0  0  0  0  0  0
  -25.2490  -36.4210   23.9930 C   0  0  0  0  0  3  0  0  0  0  0  0
  -27.3680  -37.2730   24.9040 C   0  0  0  0  0  1  0  0  0  0  0  0
  -26.2670  -37.4960   23.9720 N   0  0  0  0  0  0  0  0  0  0  0  0
  -25.8430  -38.3950   24.1860 H   0  0  0  0  0  0  0  0  0  0  0  0
  -26.3830  -31.7750   24.8770 C   0  0  1  0  0  0  0  0  0  0  0  0
  -25.3350  -31.4570   25.9720 C   0  0  0  0  0  1  0  0  0  0  0  0
  -26.9870  -30.4330   24.4040 C   0  0  0  0  0  1  0  0  0  0  0  0
  -27.5320  -32.5680   25.5410 C   0  0  0  0  0  1  0  0  0  0  0  0
  1  3  1  0
  3  2  2  0
  3 18  1  0
  4  5  1  0
  4  1  2  0
  5  6  2  0
  6 50  1  0
  6  2  1  0
  7  9  1  0
  7  4  1  0
  8  5  1  0
  9  8  1  0
 10 17  2  0
 11 16  1  0
 12 13  1  0
 12 11  1  0
 14 13  1  0
 14 25  1  0
 14 15  1  0
 16 10  1  0
 16 15  1  0
 18 21  2  0
 19 20  1  0
 20 18  1  0
 20 10  1  0
 22 23  2  0
 23 24  1  0
 23 42  1  0
 24 27  1  0
 25 22  1  0
 25 26  1  0
 26 24  2  0
 27 28  1  0
 28 29  2  0
 30 29  1  0
 31 30  2  0
 32 31  1  0
 32 27  2  0
 33 30  1  0
 33 34  1  0
 34 35  1  0
 35 36  2  0
 37 36  1  0
 37 41  1  0
 38 37  2  0
 39 34  2  0
 39 38  1  0
 40 39  1  0
 42 43  1  0
 43 46  1  0
 43 45  1  0
 44 42  2  0
 47 22  1  0
 48 47  1  0
 49 47  1  0
 51 53  1  0
 51 50  1  0
 52 63  2  0
 53 58  1  0
 54 62  1  0
 54 64  1  0
 55 61  1  0
 55 57  1  0
 56 62  1  0
 57 56  1  0
 58 57  2  0
 59 60  1  0
 59 53  2  0
 60 55  2  0
 61 54  1  0
 62 52  1  0
 64 66  2  0
 65 64  1  0
 67 65  1  0
 68 77  2  0
 68 73  1  0
 69 65  1  0
 69 73  1  0
 70 69  1  0
 71 72  1  0
 71 70  1  0
 72 68  1  0
 73 74  2  0
 74 75  1  0
 76 75  2  0
 77 76  1  0
 78 52  1  0
 78 79  1  0
 78 88  1  0
 79 82  1  0
 80 84  1  0
 80 79  1  0
 81 80  2  0
 84 83  1  0
 86 84  1  0
 86 87  1  0
 86 85  1  0
 88 91  1  1
 88 89  1  0
 90 88  1  0
M  ISO  4  10 100  20 100  50 101  51 101
M  END
>  <TORSDO>  (66) 
F 17

>  <SCORE>  (66) 
-15.495

>  <name>  (66) 
65

>  <ligand_id>  (66) 
65

>  <original_smiles>  (66) 
[H]c1c([H])c([H])c2c(c1[H])C([H])([H])C([H])([H])C([H])([H])C2([H])N([H])C(=O)C1([H])N(C(=O)C([H])(N([H])C(=O)C([H])(N([H])C([H])([H])[H])C([H])([H])[H])C(C([H])([H])[H])(C([H])([H])[H])C([H])([H])[H])C([H])([H])c2c([H])c(OC([H])([H])c3c([H])c(C(=O)N(C(=O)N4C([H])([H])C([H])([H])C([H])([H])C([H])(n5nc(-c6c([H])c([H])c(Oc7c([H])c([H])c(F)c([H])c7F)c([H])c6[H])c(C(=O)N([H])[H])c5N([H])[H])C4([H])[H])C([H])([H])[H])c([H])c4c3C([H])([H])C([H])([H])C4([H])[H])c([H])c([H])c2C1([H])[H]

>  <smiles>  (66) 
[H]c1c([H])c([H])c2c(c1[H])C([H])([H])C([H])([H])C([H])([H])C2([H])N([H])C(=O)C1([H])N(C(=O)C([H])(N([H])C(=O)C([H])(N([H])C([H])([H])[H])C([H])([H])[H])C(C([H])([H])[H])(C([H])([H])[H])C([H])([H])[H])C([H])([H])c2c([H])c(OC([H])([H])c3c([H])c(C(=O)N(C(=O)N4C([H])([H])C([H])([H])C([H])([H])C([H])(n5nc(-c6c([H])c([H])c(Oc7c([H])c([H])c(F)c([H])c7F)c([H])c6[H])c(C(=O)N([H])[H])c5N([H])[H])C4([H])[H])C([H])([H])[H])c([H])c4c3C([H])([H])C([H])([H])C4([H])[H])c([H])c([H])c2C1([H])[H]

$$$$
66:0:0
     RDKit          3D

 89 98  0  0  1  0  0  0  0  0999 V2000
  -28.5700  -20.4710   21.2050 C   0  0  0  0  0  3  0  0  0  0  0  0
  -28.1960  -21.9120   21.1350 C   0  0  0  0  0  3  0  0  0  0  0  0
  -29.3870  -22.1610   19.1630 C   0  0  0  0  0  3  0  0  0  0  0  0
  -29.3740  -19.7640   20.2270 C   0  0  0  0  0  0  0  0  0  0  0  0
  -29.7530  -20.7220   19.2370 C   0  0  0  0  0  0  0  0  0  0  0  0
  -28.5670  -22.9020   20.1210 C   0  0  0  0  0  0  0  0  0  0  0  0
  -30.6560  -20.0020   18.2550 C   0  0  0  0  0  2  0  0  0  0  0  0
  -30.6700  -18.4740   18.6240 C   0  0  0  0  0  2  0  0  0  0  0  0
  -30.1290  -18.2360   20.0630 C   0  0  0  0  0  3  0  0  0  0  0  0
  -30.4820  -15.3700   20.1260 C   0  0  0  0  0  0  0  0  0  0  0  0
  -30.4040  -12.9440   19.2410 C   0  0  0  0  0  2  0  0  0  0  0  0
  -29.4460  -12.7640   18.0380 C   0  0  0  0  0  2  0  0  0  0  0  0
  -28.0100  -12.4990   18.5220 C   0  0  0  0  0  2  0  0  0  0  0  0
  -27.5970  -13.4560   19.6700 C   0  0  0  0  0  3  0  0  0  0  0  0
  -28.6800  -13.5910   20.7610 C   0  0  0  0  0  2  0  0  0  0  0  0
  -29.8970  -14.0780   20.0940 N   0  0  0  0  0  0  0  0  0  0  0  0
  -31.6880  -15.3670   19.8470 O   0  0  0  0  0  0  0  0  0  0  0  0
  -29.7450  -16.6420   20.2580 N   0  0  0  0  0  0  0  0  0  0  0  0
  -28.7700  -16.4970   20.4690 H   0  0  0  0  0  0  0  0  0  0  0  0
  -25.2580  -14.0050   20.5220 C   0  0  0  0  0  0  0  0  0  0  0  0
  -24.2060  -13.2230   20.9100 C   0  0  0  0  0  0  0  0  0  0  0  0
  -24.6660  -11.8720   20.8280 C   0  0  0  0  0  0  0  0  0  0  0  0
  -26.2870  -13.1330   20.2190 N   0  0  0  0  0  0  0  0  0  0  0  0
  -25.9460  -11.8420   20.4700 N   0  0  0  0  0  0  0  0  0  0  0  0
  -23.9410  -10.6070   21.0110 C   0  0  0  0  0  0  0  0  0  0  0  0
  -24.3770   -9.6310   21.9330 C   0  0  0  0  0  3  0  0  0  0  0  0
  -23.6500   -8.4330   22.1050 C   0  0  0  0  0  3  0  0  0  0  0  0
  -22.4700   -8.2050   21.3560 C   0  0  0  0  0  0  0  0  0  0  0  0
  -22.0540   -9.1700   20.4230 C   0  0  0  0  0  3  0  0  0  0  0  0
  -22.7820  -10.3590   20.2490 C   0  0  0  0  0  3  0  0  0  0  0  0
  -21.7140   -7.0600   21.4390 O   0  0  0  0  0  0  0  0  0  0  0  0
  -21.6360   -6.3320   22.5990 C   0  0  0  0  0  0  0  0  0  0  0  0
  -21.1230   -6.8840   23.7920 C   0  0  0  0  0  3  0  0  0  0  0  0
  -20.9940   -6.0800   24.9430 C   0  0  0  0  0  3  0  0  0  0  0  0
  -21.3690   -4.7240   24.8990 C   0  0  0  0  0  0  0  0  0  0  0  0
  -21.8750   -4.1710   23.7100 C   0  0  0  0  0  3  0  0  0  0  0  0
  -22.0040   -4.9720   22.5620 C   0  0  0  0  0  0  0  0  0  0  0  0
  -22.4730   -4.4280   21.4130 F   0  0  0  0  0  0  0  0  0  0  0  0
  -21.2390   -3.9490   26.0010 F   0  0  0  0  0  0  0  0  0  0  0  0
  -22.8210  -13.6980   21.2370 C   0  0  0  0  0  0  0  0  0  0  0  0
  -22.1210  -12.9880   22.1140 N   0  0  0  0  0  0  0  0  0  0  0  0
  -22.3700  -14.7330   20.7510 O   0  0  0  0  0  0  0  0  0  0  0  0
  -22.5010  -12.1510   22.5310 H   0  0  0  0  0  0  0  0  0  0  0  0
  -21.1920  -13.2880   22.3750 H   0  0  0  0  0  0  0  0  0  0  0  0
  -25.4170  -15.3800   20.3730 N   0  0  0  0  0  0  0  0  0  0  0  0
  -24.6550  -16.0300   20.5290 H   0  0  0  0  0  0  0  0  0  0  0  0
  -26.2420  -15.8250   19.9930 H   0  0  0  0  0  0  0  0  0  0  0  0
  -27.8270  -24.4640   19.9100 C   0  0  0  0  0  2  0  0  0  0  0  0
  -28.1950  -26.0230   20.1990 O   0  0  0  0  0  0  0  0  0  0  0  0
  -24.6740  -31.9260   23.2690 C   0  0  0  0  0  0  0  0  0  0  0  0
  -27.1990  -27.1260   20.1460 C   0  0  0  0  0  0  0  0  0  0  0  0
  -23.4600  -30.5520   21.6270 C   0  0  0  0  0  3  0  0  0  0  0  0
  -24.8940  -28.9820   20.1590 C   0  0  0  0  0  0  0  0  0  0  0  0
  -26.0220  -30.7800   21.4470 C   0  0  0  0  0  2  0  0  0  0  0  0
  -26.0880  -29.3830   20.7700 C   0  0  0  0  0  0  0  0  0  0  0  0
  -27.2360  -28.4760   20.7430 C   0  0  0  0  0  3  0  0  0  0  0  0
  -25.9760  -26.8760   19.4830 C   0  0  0  0  0  3  0  0  0  0  0  0
  -24.8610  -27.7470   19.4950 C   0  0  0  0  0  3  0  0  0  0  0  0
  -23.6710  -29.8930   20.2370 C   0  0  0  0  0  2  0  0  0  0  0  0
  -24.7400  -31.1110   22.1680 N   0  0  0  0  0  0  0  0  0  0  0  0
  -23.5920  -32.2040   23.8100 O   0  0  0  0  0  0  0  0  0  0  0  0
  -22.7830  -29.5370   22.5850 C   0  0  0  0  0  0  0  0  0  0  0  0
  -21.4580  -29.3440   22.4510 N   0  0  0  0  0  0  0  0  0  0  0  0
  -23.4580  -28.9250   23.4180 O   0  0  0  0  0  0  0  0  0  0  0  0
  -20.9670  -29.8890   21.7570 H   0  0  0  0  0  0  0  0  0  0  0  0
  -18.0980  -28.0650   22.9370 C   0  0  0  0  0  0  0  0  0  0  0  0
  -20.6510  -28.3880   23.2170 C   0  0  0  0  0  3  0  0  0  0  0  0
  -20.7870  -26.9590   22.6440 C   0  0  0  0  0  2  0  0  0  0  0  0
  -19.6990  -26.6110   21.6220 C   0  0  0  0  0  2  0  0  0  0  0  0
  -18.3100  -26.7220   22.2590 C   0  0  0  0  0  2  0  0  0  0  0  0
  -19.1960  -28.8540   23.3730 C   0  0  0  0  0  0  0  0  0  0  0  0
  -18.9420  -30.1070   23.9710 C   0  0  0  0  0  3  0  0  0  0  0  0
  -17.6240  -30.5740   24.1350 C   0  0  0  0  0  3  0  0  0  0  0  0
  -16.5420  -29.7840   23.7130 C   0  0  0  0  0  3  0  0  0  0  0  0
  -16.7790  -28.5310   23.1200 C   0  0  0  0  0  3  0  0  0  0  0  0
  -25.9530  -32.5610   23.8930 C   0  0  0  0  0  3  0  0  0  0  0  0
  -25.6470  -33.9640   24.2200 N   0  0  0  0  0  0  0  0  0  0  0  0
  -25.9550  -35.0170   23.4510 C   0  0  0  0  0  0  0  0  0  0  0  0
  -26.5900  -34.9080   22.3980 O   0  0  0  0  0  0  0  0  0  0  0  0
  -25.0790  -34.1210   25.0400 H   0  0  0  0  0  0  0  0  0  0  0  0
  -24.2110  -36.8100   23.1640 C   0  0  0  0  0  1  0  0  0  0  0  0
  -25.4880  -36.4100   23.9200 C   0  0  0  0  0  3  0  0  0  0  0  0
  -27.6480  -37.3170   24.6580 C   0  0  0  0  0  1  0  0  0  0  0  0
  -26.5130  -37.4630   23.7510 N   0  0  0  0  0  0  0  0  0  0  0  0
  -26.1110  -38.3850   23.8940 H   0  0  0  0  0  0  0  0  0  0  0  0
  -26.4560  -31.8000   25.1810 C   0  0  1  0  0  0  0  0  0  0  0  0
  -25.3550  -31.5770   26.2450 C   0  0  0  0  0  1  0  0  0  0  0  0
  -27.0370  -30.4150   24.8140 C   0  0  0  0  0  1  0  0  0  0  0  0
  -27.6060  -32.5950   25.8440 C   0  0  0  0  0  1  0  0  0  0  0  0
  2  1  1  0
  3  5  2  0
  3  6  1  0
  4  1  2  0
  5  4  1  0
  6  2  2  0
  7  8  1  0
  7  5  1  0
  8  9  1  0
  9  4  1  0
  9 18  1  0
 10 18  1  0
 11 16  1  0
 12 13  1  0
 12 11  1  0
 14 13  1  0
 14 23  1  0
 14 15  1  0
 16 10  1  0
 16 15  1  0
 17 10  2  0
 18 19  1  0
 20 21  2  0
 21 40  1  0
 22 21  1  0
 22 25  1  0
 23 24  1  0
 23 20  1  0
 24 22  2  0
 25 26  1  0
 26 27  2  0
 28 31  1  0
 28 27  1  0
 29 28  2  0
 30 29  1  0
 30 25  2  0
 31 32  1  0
 32 33  1  0
 33 34  2  0
 35 34  1  0
 35 39  1  0
 36 35  2  0
 37 32  2  0
 37 36  1  0
 38 37  1  0
 40 41  1  0
 41 44  1  0
 41 43  1  0
 42 40  2  0
 45 20  1  0
 45 46  1  0
 47 45  1  0
 48  6  1  0
 48 49  1  0
 50 61  2  0
 51 49  1  0
 51 56  1  0
 52 60  1  0
 52 62  1  0
 53 59  1  0
 53 55  1  0
 54 60  1  0
 55 54  1  0
 56 55  2  0
 57 58  1  0
 57 51  2  0
 58 53  2  0
 59 52  1  0
 60 50  1  0
 62 64  2  0
 63 62  1  0
 65 63  1  0
 66 75  2  0
 66 71  1  0
 67 63  1  0
 67 71  1  0
 68 67  1  0
 69 70  1  0
 69 68  1  0
 70 66  1  0
 71 72  2  0
 72 73  1  0
 74 73  2  0
 75 74  1  0
 76 50  1  0
 76 77  1  0
 76 86  1  0
 77 80  1  0
 78 82  1  0
 78 77  1  0
 79 78  2  0
 82 81  1  0
 84 85  1  0
 84 82  1  0
 84 83  1  0
 86 89  1  1
 86 87  1  0
 88 86  1  0
M  ISO  4  10 100  18 100  48 101  49 101
M  END
>  <TORSDO>  (67) 
F 17

>  <SCORE>  (67) 
-15.548

>  <name>  (67) 
66

>  <ligand_id>  (67) 
66

>  <original_smiles>  (67) 
[H]c1c([H])c([H])c2c(c1[H])C([H])([H])C([H])([H])C([H])([H])C2([H])N([H])C(=O)C1([H])N(C(=O)C([H])(N([H])C(=O)C([H])(N([H])C([H])([H])[H])C([H])([H])[H])C(C([H])([H])[H])(C([H])([H])[H])C([H])([H])[H])C([H])([H])c2c([H])c(OC([H])([H])c3c([H])c([H])c4c(c3[H])C([H])([H])C([H])([H])C4([H])N([H])C(=O)N3C([H])([H])C([H])([H])C([H])([H])C([H])(n4nc(-c5c([H])c([H])c(Oc6c([H])c([H])c(F)c([H])c6F)c([H])c5[H])c(C(=O)N([H])[H])c4N([H])[H])C3([H])[H])c([H])c([H])c2C1([H])[H]

>  <smiles>  (67) 
[H]c1c([H])c([H])c2c(c1[H])C([H])([H])C([H])([H])C([H])([H])C2([H])N([H])C(=O)C1([H])N(C(=O)C([H])(N([H])C(=O)C([H])(N([H])C([H])([H])[H])C([H])([H])[H])C(C([H])([H])[H])(C([H])([H])[H])C([H])([H])[H])C([H])([H])c2c([H])c(OC([H])([H])c3c([H])c([H])c4c(c3[H])C([H])([H])C([H])([H])C4([H])N([H])C(=O)N3C([H])([H])C([H])([H])C([H])([H])C([H])(n4nc(-c5c([H])c([H])c(Oc6c([H])c([H])c(F)c([H])c6F)c([H])c5[H])c(C(=O)N([H])[H])c4N([H])[H])C3([H])[H])c([H])c([H])c2C1([H])[H]

$$$$
67:0:0
     RDKit          3D

 91100  0  0  1  0  0  0  0  0999 V2000
  -28.7820  -22.6450   19.0510 C   0  0  0  0  0  3  0  0  0  0  0  0
  -28.4550  -24.0630   19.0020 C   0  0  0  0  0  3  0  0  0  0  0  0
  -29.2490  -22.8370   21.3460 C   0  0  0  0  0  0  0  0  0  0  0  0
  -28.9210  -24.2380   21.2960 C   0  0  0  0  0  0  0  0  0  0  0  0
  -29.2360  -21.9470   20.2230 C   0  0  0  0  0  0  0  0  0  0  0  0
  -28.5310  -24.9590   20.1210 C   0  0  0  0  0  0  0  0  0  0  0  0
  -29.7260  -22.4600   22.7260 C   0  0  0  0  0  2  0  0  0  0  0  0
  -29.1520  -24.8820   22.6370 C   0  0  0  0  0  2  0  0  0  0  0  0
  -29.4210  -23.7000   23.5940 C   0  0  0  0  0  2  0  0  0  0  0  0
  -28.5030  -26.4110   20.0190 O   0  0  0  0  0  0  0  0  0  0  0  0
  -24.7340  -31.8000   23.2340 C   0  0  0  0  0  0  0  0  0  0  0  0
  -27.3770  -27.2830   20.0380 C   0  0  0  0  0  0  0  0  0  0  0  0
  -23.5560  -30.4730   21.5180 C   0  0  0  0  0  3  0  0  0  0  0  0
  -25.0270  -28.9650   20.0490 C   0  0  0  0  0  0  0  0  0  0  0  0
  -26.1030  -30.7720   21.3910 C   0  0  0  0  0  2  0  0  0  0  0  0
  -26.1890  -29.4100   20.6890 C   0  0  0  0  0  0  0  0  0  0  0  0
  -27.3640  -28.5820   20.6700 C   0  0  0  0  0  3  0  0  0  0  0  0
  -26.1920  -26.9150   19.3710 C   0  0  0  0  0  3  0  0  0  0  0  0
  -25.0350  -27.7290   19.3780 C   0  0  0  0  0  3  0  0  0  0  0  0
  -23.7940  -29.8510   20.1150 C   0  0  0  0  0  2  0  0  0  0  0  0
  -24.8170  -31.0340   22.1050 N   0  0  0  0  0  0  0  0  0  0  0  0
  -23.6410  -32.0570   23.7630 O   0  0  0  0  0  0  0  0  0  0  0  0
  -22.8740  -29.4230   22.4280 C   0  0  0  0  0  0  0  0  0  0  0  0
  -21.5490  -29.2490   22.2710 N   0  0  0  0  0  0  0  0  0  0  0  0
  -23.5360  -28.7680   23.2350 O   0  0  0  0  0  0  0  0  0  0  0  0
  -21.0720  -29.8300   21.5970 H   0  0  0  0  0  0  0  0  0  0  0  0
  -18.1690  -28.0110   22.6580 C   0  0  0  0  0  0  0  0  0  0  0  0
  -20.7200  -28.2770   22.9880 C   0  0  0  0  0  3  0  0  0  0  0  0
  -20.8440  -26.8700   22.3590 C   0  0  0  0  0  2  0  0  0  0  0  0
  -19.7650  -26.5810   21.3110 C   0  0  0  0  0  2  0  0  0  0  0  0
  -18.3700  -26.6910   21.9320 C   0  0  0  0  0  2  0  0  0  0  0  0
  -19.2740  -28.7630   23.1390 C   0  0  0  0  0  0  0  0  0  0  0  0
  -19.0330  -29.9980   23.7780 C   0  0  0  0  0  3  0  0  0  0  0  0
  -17.7220  -30.4830   23.9390 C   0  0  0  0  0  3  0  0  0  0  0  0
  -16.6320  -29.7270   23.4730 C   0  0  0  0  0  3  0  0  0  0  0  0
  -16.8560  -28.4930   22.8380 C   0  0  0  0  0  3  0  0  0  0  0  0
  -26.0030  -32.4080   23.9050 C   0  0  0  0  0  3  0  0  0  0  0  0
  -26.5130  -31.5710   25.1420 C   0  0  1  0  0  0  0  0  0  0  0  0
  -25.4130  -31.2720   26.1870 C   0  0  0  0  0  1  0  0  0  0  0  0
  -27.1050  -30.2180   24.6830 C   0  0  0  0  0  1  0  0  0  0  0  0
  -27.6560  -32.3330   25.8550 C   0  0  0  0  0  1  0  0  0  0  0  0
  -25.6780  -33.7840   24.3130 N   0  0  0  0  0  0  0  0  0  0  0  0
  -25.9800  -34.8820   23.6080 C   0  0  0  0  0  0  0  0  0  0  0  0
  -26.6280  -34.8440   22.5590 O   0  0  0  0  0  0  0  0  0  0  0  0
  -25.0980  -33.8850   25.1330 H   0  0  0  0  0  0  0  0  0  0  0  0
  -24.2040  -36.6550   23.4100 C   0  0  0  0  0  1  0  0  0  0  0  0
  -25.4840  -36.2370   24.1520 C   0  0  0  0  0  3  0  0  0  0  0  0
  -27.6310  -37.1310   24.9430 C   0  0  0  0  0  1  0  0  0  0  0  0
  -26.4910  -37.3160   24.0490 N   0  0  0  0  0  0  0  0  0  0  0  0
  -26.0730  -38.2200   24.2510 H   0  0  0  0  0  0  0  0  0  0  0  0
  -29.9770  -20.4860   20.1720 C   0  0  0  0  0  2  0  0  0  0  0  0
  -29.4010  -18.9530   20.4360 C   0  0  0  0  0  3  0  0  0  0  0  0
  -30.4290  -17.6450   20.3110 C   0  0  0  0  0  3  0  0  0  0  0  0
  -30.8020  -14.9760   20.2880 C   0  0  0  0  0  0  0  0  0  0  0  0
  -30.6550  -12.6500   19.3360 C   0  0  0  0  0  2  0  0  0  0  0  0
  -29.7060  -12.6450   18.1170 C   0  0  0  0  0  2  0  0  0  0  0  0
  -28.2460  -12.4400   18.5680 C   0  0  0  0  0  2  0  0  0  0  0  0
  -27.8620  -13.3510   19.7640 C   0  0  0  0  0  3  0  0  0  0  0  0
  -28.9320  -13.3370   20.8750 C   0  0  0  0  0  2  0  0  0  0  0  0
  -30.2000  -13.7290   20.2520 N   0  0  0  0  0  0  0  0  0  0  0  0
  -31.9930  -15.0600   19.9750 O   0  0  0  0  0  0  0  0  0  0  0  0
  -30.0270  -16.1420   20.4620 N   0  0  0  0  0  0  0  0  0  0  0  0
  -29.0560  -15.9710   20.6750 H   0  0  0  0  0  0  0  0  0  0  0  0
  -25.4930  -13.9170   20.5550 C   0  0  0  0  0  0  0  0  0  0  0  0
  -24.4360  -13.1340   20.9290 C   0  0  0  0  0  0  0  0  0  0  0  0
  -24.8990  -11.7840   20.8600 C   0  0  0  0  0  0  0  0  0  0  0  0
  -26.5310  -13.0450   20.2780 N   0  0  0  0  0  0  0  0  0  0  0  0
  -26.1840  -11.7550   20.5260 N   0  0  0  0  0  0  0  0  0  0  0  0
  -24.1770  -10.5170   21.0360 C   0  0  0  0  0  0  0  0  0  0  0  0
  -24.5970   -9.5500   21.9740 C   0  0  0  0  0  3  0  0  0  0  0  0
  -23.8730   -8.3490   22.1390 C   0  0  0  0  0  3  0  0  0  0  0  0
  -22.7150   -8.1070   21.3620 C   0  0  0  0  0  0  0  0  0  0  0  0
  -22.3140   -9.0630   20.4130 C   0  0  0  0  0  3  0  0  0  0  0  0
  -23.0390  -10.2550   20.2460 C   0  0  0  0  0  3  0  0  0  0  0  0
  -21.9630   -6.9590   21.4350 O   0  0  0  0  0  0  0  0  0  0  0  0
  -21.8450   -6.2490   22.6030 C   0  0  0  0  0  0  0  0  0  0  0  0
  -21.3280   -6.8330   23.7800 C   0  0  0  0  0  3  0  0  0  0  0  0
  -21.1590   -6.0480   24.9380 C   0  0  0  0  0  3  0  0  0  0  0  0
  -21.4960   -4.6810   24.9210 C   0  0  0  0  0  0  0  0  0  0  0  0
  -22.0060   -4.0970   23.7480 C   0  0  0  0  0  3  0  0  0  0  0  0
  -22.1770   -4.8790   22.5910 C   0  0  0  0  0  0  0  0  0  0  0  0
  -22.6490   -4.3060   21.4570 F   0  0  0  0  0  0  0  0  0  0  0  0
  -21.3260   -3.9260   26.0300 F   0  0  0  0  0  0  0  0  0  0  0  0
  -23.0430  -13.6040   21.2330 C   0  0  0  0  0  0  0  0  0  0  0  0
  -22.3330  -12.8920   22.1010 N   0  0  0  0  0  0  0  0  0  0  0  0
  -22.5960  -14.6370   20.7390 O   0  0  0  0  0  0  0  0  0  0  0  0
  -22.7090  -12.0560   22.5220 H   0  0  0  0  0  0  0  0  0  0  0  0
  -21.3990  -13.1880   22.3480 H   0  0  0  0  0  0  0  0  0  0  0  0
  -25.6500  -15.2920   20.4030 N   0  0  0  0  0  0  0  0  0  0  0  0
  -24.8810  -15.9380   20.5360 H   0  0  0  0  0  0  0  0  0  0  0  0
  -26.4790  -15.7370   20.0310 H   0  0  0  0  0  0  0  0  0  0  0  0
  1  5  1  0
  2  1  2  0
  2  6  1  0
  3  7  1  0
  4  3  1  0
  4  8  1  0
  5  3  2  0
  6  4  2  0
  7  9  1  0
  8  9  1  0
 10 12  1  0
 10  6  1  0
 11 22  2  0
 12 17  1  0
 13 21  1  0
 13 23  1  0
 14 20  1  0
 14 16  1  0
 15 21  1  0
 16 15  1  0
 17 16  2  0
 18 19  1  0
 18 12  2  0
 19 14  2  0
 20 13  1  0
 21 11  1  0
 23 25  2  0
 24 23  1  0
 26 24  1  0
 27 36  2  0
 27 32  1  0
 28 24  1  0
 28 32  1  0
 29 28  1  0
 30 31  1  0
 30 29  1  0
 31 27  1  0
 32 33  2  0
 33 34  1  0
 35 34  2  0
 36 35  1  0
 37 11  1  0
 37 42  1  0
 37 38  1  0
 38 41  1  1
 38 39  1  0
 40 38  1  0
 42 45  1  0
 43 47  1  0
 43 42  1  0
 44 43  2  0
 47 46  1  0
 49 47  1  0
 49 50  1  0
 49 48  1  0
 51  5  1  0
 51 52  1  0
 53 52  2  0
 53 62  1  0
 54 62  1  0
 55 60  1  0
 56 57  1  0
 56 55  1  0
 58 57  1  0
 58 67  1  0
 58 59  1  0
 60 54  1  0
 60 59  1  0
 61 54  2  0
 62 63  1  0
 64 65  2  0
 65 84  1  0
 66 65  1  0
 66 69  1  0
 67 68  1  0
 67 64  1  0
 68 66  2  0
 69 70  1  0
 70 71  2  0
 72 75  1  0
 72 71  1  0
 73 72  2  0
 74 73  1  0
 74 69  2  0
 75 76  1  0
 76 77  1  0
 77 78  2  0
 79 78  1  0
 79 83  1  0
 80 79  2  0
 81 76  2  0
 81 80  1  0
 82 81  1  0
 84 85  1  0
 85 88  1  0
 85 87  1  0
 86 84  2  0
 89 90  1  0
 89 64  1  0
 91 89  1  0
M  ISO  4   6 101  10 101  54 100  62 100
M  END
>  <TORSDO>  (68) 
F 19

>  <SCORE>  (68) 
-13.744

>  <name>  (68) 
67

>  <ligand_id>  (68) 
67

>  <original_smiles>  (68) 
[H]c1c([H])c([H])c2c(c1[H])C([H])([H])C([H])([H])C([H])([H])C2([H])N([H])C(=O)C1([H])N(C(=O)C([H])(N([H])C(=O)C([H])(N([H])C([H])([H])[H])C([H])([H])[H])C(C([H])([H])[H])(C([H])([H])[H])C([H])([H])[H])C([H])([H])c2c([H])c(Oc3c([H])c([H])c(C([H])([H])C([H])([H])C([H])([H])N([H])C(=O)N4C([H])([H])C([H])([H])C([H])([H])C([H])(n5nc(-c6c([H])c([H])c(Oc7c([H])c([H])c(F)c([H])c7F)c([H])c6[H])c(C(=O)N([H])[H])c5N([H])[H])C4([H])[H])c4c3C([H])([H])C([H])([H])C4([H])[H])c([H])c([H])c2C1([H])[H]

>  <smiles>  (68) 
[H]c1c([H])c([H])c2c(c1[H])C([H])([H])C([H])([H])C([H])([H])C2([H])N([H])C(=O)C1([H])N(C(=O)C([H])(N([H])C(=O)C([H])(N([H])C([H])([H])[H])C([H])([H])[H])C(C([H])([H])[H])(C([H])([H])[H])C([H])([H])[H])C([H])([H])c2c([H])c(Oc3c([H])c([H])c(C([H])([H])C([H])([H])C([H])([H])N([H])C(=O)N4C([H])([H])C([H])([H])C([H])([H])C([H])(n5nc(-c6c([H])c([H])c(Oc7c([H])c([H])c(F)c([H])c7F)c([H])c6[H])c(C(=O)N([H])[H])c5N([H])[H])C4([H])[H])c4c3C([H])([H])C([H])([H])C4([H])[H])c([H])c([H])c2C1([H])[H]

$$$$
68:0:0
     RDKit          3D

 96105  0  0  1  0  0  0  0  0999 V2000
  -29.9980  -20.9100   21.3020 C   0  0  0  0  0  3  0  0  0  0  0  0
  -29.5700  -22.3290   21.1410 C   0  0  0  0  0  3  0  0  0  0  0  0
  -28.6260  -21.7610   19.1240 C   0  0  0  0  0  3  0  0  0  0  0  0
  -29.7740  -19.7810   20.3980 C   0  0  0  0  0  0  0  0  0  0  0  0
  -29.0410  -20.3430   19.2780 C   0  0  0  0  0  0  0  0  0  0  0  0
  -28.8550  -22.8970   20.0100 C   0  0  0  0  0  0  0  0  0  0  0  0
  -28.7140  -19.3980   18.1360 C   0  0  0  0  0  2  0  0  0  0  0  0
  -29.9520  -19.0300   17.3000 C   0  0  0  0  0  2  0  0  0  0  0  0
  -31.5110  -18.2640   19.2270 C   0  0  0  0  0  2  0  0  0  0  0  0
  -30.5810  -18.2450   20.4600 C   0  0  0  0  0  3  0  0  0  0  0  0
  -30.8140  -17.8910   17.8920 C   0  0  0  0  0  3  0  0  0  0  0  0
  -30.8760  -15.3860   20.5040 C   0  0  0  0  0  0  0  0  0  0  0  0
  -30.7940  -13.0220   19.4760 C   0  0  0  0  0  2  0  0  0  0  0  0
  -29.8920  -12.9430   18.2220 C   0  0  0  0  0  2  0  0  0  0  0  0
  -28.4310  -12.6780   18.6220 C   0  0  0  0  0  2  0  0  0  0  0  0
  -27.9820  -13.5700   19.8070 C   0  0  0  0  0  3  0  0  0  0  0  0
  -29.0140  -13.6160   20.9530 C   0  0  0  0  0  2  0  0  0  0  0  0
  -30.2700  -14.1130   20.3740 N   0  0  0  0  0  0  0  0  0  0  0  0
  -32.0940  -15.3720   20.2790 O   0  0  0  0  0  0  0  0  0  0  0  0
  -30.1600  -16.6630   20.6630 N   0  0  0  0  0  0  0  0  0  0  0  0
  -29.1780  -16.5370   20.8550 H   0  0  0  0  0  0  0  0  0  0  0  0
  -25.5850  -14.1000   20.4990 C   0  0  0  0  0  0  0  0  0  0  0  0
  -24.5210  -13.3090   20.8310 C   0  0  0  0  0  0  0  0  0  0  0  0
  -25.0020  -11.9640   20.8010 C   0  0  0  0  0  0  0  0  0  0  0  0
  -26.6430  -13.2380   20.2760 N   0  0  0  0  0  0  0  0  0  0  0  0
  -26.3020  -11.9460   20.5260 N   0  0  0  0  0  0  0  0  0  0  0  0
  -24.2830  -10.6930   20.9580 C   0  0  0  0  0  0  0  0  0  0  0  0
  -24.6600   -9.7440   21.9330 C   0  0  0  0  0  3  0  0  0  0  0  0
  -23.9370   -8.5400   22.0780 C   0  0  0  0  0  3  0  0  0  0  0  0
  -22.8230   -8.2760   21.2460 C   0  0  0  0  0  0  0  0  0  0  0  0
  -22.4660   -9.2130   20.2610 C   0  0  0  0  0  3  0  0  0  0  0  0
  -23.1900  -10.4090   20.1150 C   0  0  0  0  0  3  0  0  0  0  0  0
  -22.0770   -7.1230   21.2970 O   0  0  0  0  0  0  0  0  0  0  0  0
  -21.8860   -6.4410   22.4730 C   0  0  0  0  0  0  0  0  0  0  0  0
  -21.3130   -7.0580   23.6070 C   0  0  0  0  0  3  0  0  0  0  0  0
  -21.0700   -6.3020   24.7720 C   0  0  0  0  0  3  0  0  0  0  0  0
  -21.3890   -4.9320   24.8020 C   0  0  0  0  0  0  0  0  0  0  0  0
  -21.9550   -4.3150   23.6710 C   0  0  0  0  0  3  0  0  0  0  0  0
  -22.1990   -5.0670   22.5090 C   0  0  0  0  0  0  0  0  0  0  0  0
  -22.7250   -4.4640   21.4160 F   0  0  0  0  0  0  0  0  0  0  0  0
  -21.1500   -4.2040   25.9180 F   0  0  0  0  0  0  0  0  0  0  0  0
  -23.1110  -13.7700   21.0610 C   0  0  0  0  0  0  0  0  0  0  0  0
  -22.3740  -13.0790   21.9230 N   0  0  0  0  0  0  0  0  0  0  0  0
  -22.6730  -14.7790   20.5110 O   0  0  0  0  0  0  0  0  0  0  0  0
  -22.7420  -12.2640   22.3890 H   0  0  0  0  0  0  0  0  0  0  0  0
  -21.4270  -13.3720   22.1200 H   0  0  0  0  0  0  0  0  0  0  0  0
  -25.7370  -15.4740   20.3380 N   0  0  0  0  0  0  0  0  0  0  0  0
  -24.9580  -16.1160   20.4320 H   0  0  0  0  0  0  0  0  0  0  0  0
  -26.5820  -15.9240   20.0120 H   0  0  0  0  0  0  0  0  0  0  0  0
  -31.8550  -17.4510   16.8530 C   0  0  0  0  0  0  0  0  0  0  0  0
  -31.6770  -16.2770   16.2590 N   0  0  0  0  0  0  0  0  0  0  0  0
  -32.8170  -18.1650   16.5760 O   0  0  0  0  0  0  0  0  0  0  0  0
  -30.8720  -15.7080   16.4750 H   0  0  0  0  0  0  0  0  0  0  0  0
  -32.3360  -15.9540   15.5650 H   0  0  0  0  0  0  0  0  0  0  0  0
  -28.1240  -24.4450   19.7160 C   0  0  0  0  0  2  0  0  0  0  0  0
  -28.4700  -26.0210   19.9130 O   0  0  0  0  0  0  0  0  0  0  0  0
  -24.6170  -31.7160   22.9750 C   0  0  0  0  0  0  0  0  0  0  0  0
  -27.4270  -27.0780   19.8610 C   0  0  0  0  0  0  0  0  0  0  0  0
  -23.5090  -30.3170   21.2820 C   0  0  0  0  0  3  0  0  0  0  0  0
  -25.0470  -28.8350   19.8350 C   0  0  0  0  0  0  0  0  0  0  0  0
  -26.0640  -30.6580   21.1770 C   0  0  0  0  0  2  0  0  0  0  0  0
  -26.2070  -29.2770   20.4830 C   0  0  0  0  0  0  0  0  0  0  0  0
  -27.3950  -28.4210   20.4740 C   0  0  0  0  0  3  0  0  0  0  0  0
  -26.2310  -26.7850   19.1660 C   0  0  0  0  0  3  0  0  0  0  0  0
  -25.0810  -27.6090   19.1580 C   0  0  0  0  0  3  0  0  0  0  0  0
  -23.7860  -29.6910   19.8890 C   0  0  0  0  0  2  0  0  0  0  0  0
  -24.7490  -30.9220   21.8650 N   0  0  0  0  0  0  0  0  0  0  0  0
  -23.5090  -31.9390   23.4890 O   0  0  0  0  0  0  0  0  0  0  0  0
  -22.8510  -29.2590   22.2060 C   0  0  0  0  0  0  0  0  0  0  0  0
  -21.5240  -29.0710   22.0890 N   0  0  0  0  0  0  0  0  0  0  0  0
  -23.5410  -28.6100   22.9960 O   0  0  0  0  0  0  0  0  0  0  0  0
  -21.0190  -29.6470   21.4300 H   0  0  0  0  0  0  0  0  0  0  0  0
  -18.1630  -27.8190   22.6360 C   0  0  0  0  0  0  0  0  0  0  0  0
  -20.7300  -28.0820   22.8270 C   0  0  0  0  0  3  0  0  0  0  0  0
  -20.8150  -26.6890   22.1610 C   0  0  0  0  0  2  0  0  0  0  0  0
  -19.6790  -26.4250   21.1670 C   0  0  0  0  0  2  0  0  0  0  0  0
  -18.3210  -26.5190   21.8670 C   0  0  0  0  0  2  0  0  0  0  0  0
  -19.2940  -28.5610   23.0740 C   0  0  0  0  0  0  0  0  0  0  0  0
  -19.0880  -29.7780   23.7590 C   0  0  0  0  0  3  0  0  0  0  0  0
  -17.7870  -30.2550   24.0070 C   0  0  0  0  0  3  0  0  0  0  0  0
  -16.6720  -29.5100   23.5820 C   0  0  0  0  0  3  0  0  0  0  0  0
  -16.8610  -28.2930   22.9040 C   0  0  0  0  0  3  0  0  0  0  0  0
  -25.8500  -32.3960   23.6440 C   0  0  0  0  0  3  0  0  0  0  0  0
  -25.4600  -33.7640   24.0250 N   0  0  0  0  0  0  0  0  0  0  0  0
  -25.7440  -34.8680   23.3190 C   0  0  0  0  0  0  0  0  0  0  0  0
  -26.4250  -34.8430   22.2900 O   0  0  0  0  0  0  0  0  0  0  0  0
  -24.8550  -33.8540   24.8280 H   0  0  0  0  0  0  0  0  0  0  0  0
  -23.9280  -36.5900   23.0390 C   0  0  0  0  0  1  0  0  0  0  0  0
  -25.1880  -36.2120   23.8350 C   0  0  0  0  0  3  0  0  0  0  0  0
  -27.2720  -37.1720   24.7090 C   0  0  0  0  0  1  0  0  0  0  0  0
  -26.1660  -37.3200   23.7670 N   0  0  0  0  0  0  0  0  0  0  0  0
  -25.7130  -38.2110   23.9470 H   0  0  0  0  0  0  0  0  0  0  0  0
  -26.3810  -31.6110   24.9070 C   0  0  1  0  0  0  0  0  0  0  0  0
  -25.2840  -31.2890   25.9480 C   0  0  0  0  0  1  0  0  0  0  0  0
  -27.0350  -30.2730   24.4910 C   0  0  0  0  0  1  0  0  0  0  0  0
  -27.4830  -32.4360   25.6110 C   0  0  0  0  0  1  0  0  0  0  0  0
  2  1  1  0
  3  5  2  0
  3  6  1  0
  4 10  1  0
  4  1  2  0
  5  4  1  0
  6  2  2  0
  7  5  1  0
  8 11  1  0
  8  7  1  0
  9 10  1  0
 10 20  1  0
 11 50  1  0
 11  9  1  0
 12 20  1  0
 13 18  1  0
 14 15  1  0
 14 13  1  0
 16 15  1  0
 16 25  1  0
 16 17  1  0
 18 12  1  0
 18 17  1  0
 19 12  2  0
 20 21  1  0
 22 23  2  0
 23 42  1  0
 24 23  1  0
 24 27  1  0
 25 22  1  0
 25 26  1  0
 26 24  2  0
 27 28  1  0
 28 29  2  0
 30 33  1  0
 30 29  1  0
 31 30  2  0
 32 31  1  0
 32 27  2  0
 33 34  1  0
 34 39  2  0
 34 35  1  0
 35 36  2  0
 36 37  1  0
 37 41  1  0
 38 37  2  0
 39 38  1  0
 40 39  1  0
 42 43  1  0
 43 46  1  0
 43 45  1  0
 44 42  2  0
 47 48  1  0
 47 22  1  0
 49 47  1  0
 51 53  1  0
 51 50  1  0
 52 50  2  0
 54 51  1  0
 55 56  1  0
 55  6  1  0
 57 68  2  0
 58 56  1  0
 58 63  1  0
 59 67  1  0
 59 69  1  0
 60 66  1  0
 60 62  1  0
 61 67  1  0
 62 61  1  0
 63 62  2  0
 64 58  2  0
 65 64  1  0
 65 60  2  0
 66 59  1  0
 67 57  1  0
 69 71  2  0
 70 69  1  0
 72 70  1  0
 73 82  2  0
 73 78  1  0
 74 70  1  0
 74 78  1  0
 75 74  1  0
 76 77  1  0
 76 75  1  0
 77 73  1  0
 78 79  2  0
 79 80  1  0
 81 80  2  0
 82 81  1  0
 83 57  1  0
 83 84  1  0
 83 93  1  0
 84 87  1  0
 85 89  1  0
 85 84  1  0
 86 85  2  0
 89 88  1  0
 91 89  1  0
 91 92  1  0
 91 90  1  0
 93 96  1  1
 93 94  1  0
 95 93  1  0
M  ISO  4  12 100  20 100  55 101  56 101
M  END
>  <TORSDO>  (69) 
F 18

>  <SCORE>  (69) 
-15.012

>  <name>  (69) 
68

>  <ligand_id>  (69) 
68

>  <original_smiles>  (69) 
[H]c1c([H])c([H])c2c(c1[H])C([H])([H])C([H])([H])C([H])([H])C2([H])N([H])C(=O)C1([H])N(C(=O)C([H])(N([H])C(=O)C([H])(N([H])C([H])([H])[H])C([H])([H])[H])C(C([H])([H])[H])(C([H])([H])[H])C([H])([H])[H])C([H])([H])c2c([H])c(OC([H])([H])c3c([H])c([H])c4c(c3[H])C([H])([H])C([H])([H])C([H])(C(=O)N([H])[H])C([H])([H])C4([H])N([H])C(=O)N3C([H])([H])C([H])([H])C([H])([H])C([H])(n4nc(-c5c([H])c([H])c(Oc6c([H])c([H])c(F)c([H])c6F)c([H])c5[H])c(C(=O)N([H])[H])c4N([H])[H])C3([H])[H])c([H])c([H])c2C1([H])[H]

>  <smiles>  (69) 
[H]c1c([H])c([H])c2c(c1[H])C([H])([H])C([H])([H])C([H])([H])C2([H])N([H])C(=O)C1([H])N(C(=O)C([H])(N([H])C(=O)C([H])(N([H])C([H])([H])[H])C([H])([H])[H])C(C([H])([H])[H])(C([H])([H])[H])C([H])([H])[H])C([H])([H])c2c([H])c(OC([H])([H])c3c([H])c([H])c4c(c3[H])C([H])([H])C([H])([H])C([H])(C(=O)N([H])[H])C([H])([H])C4([H])N([H])C(=O)N3C([H])([H])C([H])([H])C([H])([H])C([H])(n4nc(-c5c([H])c([H])c(Oc6c([H])c([H])c(F)c([H])c6F)c([H])c5[H])c(C(=O)N([H])[H])c4N([H])[H])C3([H])[H])c([H])c([H])c2C1([H])[H]

$$$$
69:0:0
     RDKit          3D

 89 97  0  0  1  0  0  0  0  0999 V2000
  -28.7770  -21.6930   21.9280 C   0  0  0  0  0  3  0  0  0  0  0  0
  -28.2220  -24.1500   21.9310 C   0  0  0  0  0  3  0  0  0  0  0  0
  -28.4310  -22.9050   22.5890 C   0  0  0  0  0  0  0  0  0  0  0  0
  -28.9540  -21.5830   20.5360 C   0  0  0  0  0  0  0  0  0  0  0  0
  -28.7500  -22.9870   19.8810 C   0  0  0  0  0  0  0  0  0  0  0  0
  -28.3670  -24.3450   20.5430 C   0  0  0  0  0  0  0  0  0  0  0  0
  -28.2680  -22.8590   24.0940 C   0  0  0  0  0  1  0  0  0  0  0  0
  -28.9530  -23.0490   18.3800 C   0  0  0  0  0  1  0  0  0  0  0  0
  -28.2930  -25.8250   20.0930 O   0  0  0  0  0  0  0  0  0  0  0  0
  -24.6670  -31.8200   23.1660 C   0  0  0  0  0  0  0  0  0  0  0  0
  -27.2450  -26.8980   20.1860 C   0  0  0  0  0  0  0  0  0  0  0  0
  -23.4850  -30.4260   21.5170 C   0  0  0  0  0  3  0  0  0  0  0  0
  -24.9440  -28.7980   20.1230 C   0  0  0  0  0  0  0  0  0  0  0  0
  -26.0550  -30.6190   21.3980 C   0  0  0  0  0  2  0  0  0  0  0  0
  -26.1280  -29.1970   20.7560 C   0  0  0  0  0  0  0  0  0  0  0  0
  -27.2730  -28.2680   20.7590 C   0  0  0  0  0  3  0  0  0  0  0  0
  -26.0220  -26.6560   19.5170 C   0  0  0  0  0  3  0  0  0  0  0  0
  -24.9140  -27.5470   19.4880 C   0  0  0  0  0  3  0  0  0  0  0  0
  -23.7310  -29.7320   20.1480 C   0  0  0  0  0  2  0  0  0  0  0  0
  -24.7570  -30.9820   22.0820 N   0  0  0  0  0  0  0  0  0  0  0  0
  -23.5730  -32.1160   23.6740 O   0  0  0  0  0  0  0  0  0  0  0  0
  -22.7690  -29.4410   22.4790 C   0  0  0  0  0  0  0  0  0  0  0  0
  -21.4360  -29.3060   22.3550 N   0  0  0  0  0  0  0  0  0  0  0  0
  -23.4220  -28.7960   23.3040 O   0  0  0  0  0  0  0  0  0  0  0  0
  -20.9640  -29.8780   21.6690 H   0  0  0  0  0  0  0  0  0  0  0  0
  -18.0310  -28.1410   22.8440 C   0  0  0  0  0  0  0  0  0  0  0  0
  -20.5940  -28.3760   23.1180 C   0  0  0  0  0  3  0  0  0  0  0  0
  -20.6790  -26.9440   22.5390 C   0  0  0  0  0  2  0  0  0  0  0  0
  -19.5780  -26.6380   21.5190 C   0  0  0  0  0  2  0  0  0  0  0  0
  -18.1950  -26.7930   22.1590 C   0  0  0  0  0  2  0  0  0  0  0  0
  -19.1570  -28.8900   23.2780 C   0  0  0  0  0  0  0  0  0  0  0  0
  -18.9500  -30.1480   23.8820 C   0  0  0  0  0  3  0  0  0  0  0  0
  -17.6510  -30.6600   24.0540 C   0  0  0  0  0  3  0  0  0  0  0  0
  -16.5390  -29.9100   23.6340 C   0  0  0  0  0  3  0  0  0  0  0  0
  -16.7290  -28.6530   23.0330 C   0  0  0  0  0  3  0  0  0  0  0  0
  -25.9330  -32.4580   23.8120 C   0  0  0  0  0  3  0  0  0  0  0  0
  -25.5960  -33.8380   24.2030 N   0  0  0  0  0  0  0  0  0  0  0  0
  -25.9100  -34.9340   23.4990 C   0  0  0  0  0  0  0  0  0  0  0  0
  -26.5710  -34.8890   22.4590 O   0  0  0  0  0  0  0  0  0  0  0  0
  -25.0040  -33.9420   25.0150 H   0  0  0  0  0  0  0  0  0  0  0  0
  -24.1480  -36.7220   23.2650 C   0  0  0  0  0  1  0  0  0  0  0  0
  -25.4120  -36.2960   24.0300 C   0  0  0  0  0  3  0  0  0  0  0  0
  -27.5550  -37.1740   24.8470 C   0  0  0  0  0  1  0  0  0  0  0  0
  -26.4250  -37.3700   23.9430 N   0  0  0  0  0  0  0  0  0  0  0  0
  -26.0100  -38.2740   24.1510 H   0  0  0  0  0  0  0  0  0  0  0  0
  -26.4540  -31.6530   25.0670 C   0  0  1  0  0  0  0  0  0  0  0  0
  -25.3630  -31.3790   26.1310 C   0  0  0  0  0  1  0  0  0  0  0  0
  -27.0450  -30.2910   24.6420 C   0  0  0  0  0  1  0  0  0  0  0  0
  -27.6030  -32.4350   25.7470 C   0  0  0  0  0  1  0  0  0  0  0  0
  -29.1590  -19.9250   19.9500 C   0  0  0  0  0  2  0  0  0  0  0  0
  -30.0050  -18.3900   20.5090 C   0  0  0  0  0  2  0  0  0  0  0  0
  -30.4100  -15.3950   20.3460 C   0  0  0  0  0  0  0  0  0  0  0  0
  -30.4450  -12.9220   19.4700 C   0  0  0  0  0  2  0  0  0  0  0  0
  -29.5200  -12.5990   18.2660 C   0  0  0  0  0  2  0  0  0  0  0  0
  -28.0810  -12.2990   18.7190 C   0  0  0  0  0  2  0  0  0  0  0  0
  -27.6110  -13.2710   19.8270 C   0  0  0  0  0  3  0  0  0  0  0  0
  -28.6730  -13.4650   20.9360 C   0  0  0  0  0  2  0  0  0  0  0  0
  -29.8510  -14.0670   20.2680 N   0  0  0  0  0  0  0  0  0  0  0  0
  -31.6450  -15.3480   20.2230 O   0  0  0  0  0  0  0  0  0  0  0  0
  -28.2100  -16.6860   20.2950 C   0  0  0  0  0  1  0  0  0  0  0  0
  -29.6690  -16.7290   20.3560 N   0  0  0  0  0  0  0  0  0  0  0  0
  -25.2370  -13.8210   20.5790 C   0  0  0  0  0  0  0  0  0  0  0  0
  -24.1710  -13.0390   20.9230 C   0  0  0  0  0  0  0  0  0  0  0  0
  -24.6390  -11.6910   20.8750 C   0  0  0  0  0  0  0  0  0  0  0  0
  -26.2840  -12.9510   20.3350 N   0  0  0  0  0  0  0  0  0  0  0  0
  -25.9350  -11.6610   20.5790 N   0  0  0  0  0  0  0  0  0  0  0  0
  -23.9070  -10.4290   21.0390 C   0  0  0  0  0  0  0  0  0  0  0  0
  -24.3630   -9.4230   21.9180 C   0  0  0  0  0  3  0  0  0  0  0  0
  -23.6300   -8.2270   22.0770 C   0  0  0  0  0  3  0  0  0  0  0  0
  -22.4280   -8.0290   21.3550 C   0  0  0  0  0  0  0  0  0  0  0  0
  -21.9910   -9.0250   20.4650 C   0  0  0  0  0  3  0  0  0  0  0  0
  -22.7240  -10.2130   20.3050 C   0  0  0  0  0  3  0  0  0  0  0  0
  -21.6660   -6.8870   21.4220 O   0  0  0  0  0  0  0  0  0  0  0  0
  -21.6870   -6.0730   22.5260 C   0  0  0  0  0  0  0  0  0  0  0  0
  -21.4010   -6.5630   23.8190 C   0  0  0  0  0  3  0  0  0  0  0  0
  -21.3660   -5.6790   24.9160 C   0  0  0  0  0  3  0  0  0  0  0  0
  -21.6060   -4.3050   24.7220 C   0  0  0  0  0  0  0  0  0  0  0  0
  -21.8830   -3.8140   23.4330 C   0  0  0  0  0  3  0  0  0  0  0  0
  -21.9200   -4.6960   22.3390 C   0  0  0  0  0  0  0  0  0  0  0  0
  -22.1680   -4.2150   21.0970 F   0  0  0  0  0  0  0  0  0  0  0  0
  -21.5630   -3.4540   25.7730 F   0  0  0  0  0  0  0  0  0  0  0  0
  -22.7740  -13.5170   21.1850 C   0  0  0  0  0  0  0  0  0  0  0  0
  -22.0400  -12.8160   22.0420 N   0  0  0  0  0  0  0  0  0  0  0  0
  -22.3420  -14.5480   20.6710 O   0  0  0  0  0  0  0  0  0  0  0  0
  -22.4030  -11.9820   22.4790 H   0  0  0  0  0  0  0  0  0  0  0  0
  -21.1020  -13.1180   22.2650 H   0  0  0  0  0  0  0  0  0  0  0  0
  -25.3880  -15.1940   20.4280 N   0  0  0  0  0  0  0  0  0  0  0  0
  -24.6240  -15.8420   20.5830 H   0  0  0  0  0  0  0  0  0  0  0  0
  -26.2630  -15.6530   20.2150 H   0  0  0  0  0  0  0  0  0  0  0  0
  1  3  1  0
  2  3  2  0
  3  7  1  0
  4  1  2  0
  5  4  1  0
  5  6  2  0
  6  2  1  0
  8  5  1  0
  9 11  1  0
  9  6  1  0
 10 21  2  0
 11 16  1  0
 12 20  1  0
 12 22  1  0
 13 19  1  0
 13 15  1  0
 14 20  1  0
 15 16  2  0
 15 14  1  0
 17 11  2  0
 18 17  1  0
 18 13  2  0
 19 12  1  0
 20 10  1  0
 22 24  2  0
 23 22  1  0
 25 23  1  0
 26 35  2  0
 26 31  1  0
 27 23  1  0
 27 31  1  0
 28 27  1  0
 29 30  1  0
 29 28  1  0
 30 26  1  0
 31 32  2  0
 32 33  1  0
 34 33  2  0
 35 34  1  0
 36 10  1  0
 36 37  1  0
 36 46  1  0
 37 40  1  0
 38 42  1  0
 38 37  1  0
 39 38  2  0
 42 41  1  0
 44 42  1  0
 44 45  1  0
 44 43  1  0
 46 49  1  1
 46 47  1  0
 48 46  1  0
 50 51  1  0
 50  4  1  0
 52 61  1  0
 53 58  1  0
 54 55  1  0
 54 53  1  0
 56 55  1  0
 56 65  1  0
 56 57  1  0
 58 52  1  0
 58 57  1  0
 59 52  2  0
 60 61  1  0
 61 51  1  0
 62 63  2  0
 63 82  1  0
 64 63  1  0
 64 67  1  0
 65 62  1  0
 65 66  1  0
 66 64  2  0
 67 68  1  0
 68 69  2  0
 70 73  1  0
 70 69  1  0
 71 70  2  0
 72 71  1  0
 72 67  2  0
 73 74  1  0
 74 75  1  0
 75 76  2  0
 77 76  1  0
 77 81  1  0
 78 77  2  0
 79 74  2  0
 79 78  1  0
 80 79  1  0
 82 83  1  0
 83 86  1  0
 83 85  1  0
 84 82  2  0
 87 62  1  0
 87 88  1  0
 89 87  1  0
M  ISO  4   6 101   9 101  52 100  61 100
M  END
>  <TORSDO>  (70) 
F 18

>  <SCORE>  (70) 
-12.159

>  <name>  (70) 
69

>  <ligand_id>  (70) 
69

>  <original_smiles>  (70) 
[H]c1c([H])c([H])c2c(c1[H])C([H])([H])C([H])([H])C([H])([H])C2([H])N([H])C(=O)C1([H])N(C(=O)C([H])(N([H])C(=O)C([H])(N([H])C([H])([H])[H])C([H])([H])[H])C(C([H])([H])[H])(C([H])([H])[H])C([H])([H])[H])C([H])([H])c2c([H])c(Oc3c([H])c(C([H])([H])[H])c([H])c(C([H])([H])C([H])([H])N(C(=O)N4C([H])([H])C([H])([H])C([H])([H])C([H])(n5nc(-c6c([H])c([H])c(Oc7c([H])c([H])c(F)c([H])c7F)c([H])c6[H])c(C(=O)N([H])[H])c5N([H])[H])C4([H])[H])C([H])([H])[H])c3C([H])([H])[H])c([H])c([H])c2C1([H])[H]

>  <smiles>  (70) 
[H]c1c([H])c([H])c2c(c1[H])C([H])([H])C([H])([H])C([H])([H])C2([H])N([H])C(=O)C1([H])N(C(=O)C([H])(N([H])C(=O)C([H])(N([H])C([H])([H])[H])C([H])([H])[H])C(C([H])([H])[H])(C([H])([H])[H])C([H])([H])[H])C([H])([H])c2c([H])c(Oc3c([H])c(C([H])([H])[H])c([H])c(C([H])([H])C([H])([H])N(C(=O)N4C([H])([H])C([H])([H])C([H])([H])C([H])(n5nc(-c6c([H])c([H])c(Oc7c([H])c([H])c(F)c([H])c7F)c([H])c6[H])c(C(=O)N([H])[H])c5N([H])[H])C4([H])[H])C([H])([H])[H])c3C([H])([H])[H])c([H])c([H])c2C1([H])[H]

$$$$
70:0:0
     RDKit          3D

 92100  0  0  1  0  0  0  0  0999 V2000
  -29.0420  -22.2390   19.0020 C   0  0  0  0  0  3  0  0  0  0  0  0
  -28.8080  -23.6990   18.8500 C   0  0  0  0  0  3  0  0  0  0  0  0
  -27.9110  -22.2890   20.9970 C   0  0  0  0  0  3  0  0  0  0  0  0
  -27.6540  -23.7560   20.8560 C   0  0  0  0  0  0  0  0  0  0  0  0
  -28.6260  -21.3830   20.1010 C   0  0  0  0  0  0  0  0  0  0  0  0
  -28.0800  -24.6010   19.7380 C   0  0  0  0  0  0  0  0  0  0  0  0
  -26.9280  -24.4340   21.9830 C   0  0  0  0  0  0  0  0  0  0  0  0
  -25.7440  -23.9260   22.3030 N   0  0  0  0  0  0  0  0  0  0  0  0
  -27.3860  -25.4220   22.5570 O   0  0  0  0  0  0  0  0  0  0  0  0
  -25.3850  -23.1310   21.7960 H   0  0  0  0  0  0  0  0  0  0  0  0
  -25.1920  -24.3470   23.0350 H   0  0  0  0  0  0  0  0  0  0  0  0
  -28.0340  -26.1270   19.6150 O   0  0  0  0  0  0  0  0  0  0  0  0
  -24.5330  -31.8800   22.9850 C   0  0  0  0  0  0  0  0  0  0  0  0
  -26.9630  -27.1420   19.6990 C   0  0  0  0  0  0  0  0  0  0  0  0
  -23.2660  -30.5350   21.3550 C   0  0  0  0  0  3  0  0  0  0  0  0
  -24.6480  -28.9770   19.8230 C   0  0  0  0  0  0  0  0  0  0  0  0
  -25.8190  -30.7670   21.0990 C   0  0  0  0  0  2  0  0  0  0  0  0
  -25.8580  -29.3790   20.4020 C   0  0  0  0  0  0  0  0  0  0  0  0
  -27.0080  -28.4810   20.3160 C   0  0  0  0  0  3  0  0  0  0  0  0
  -25.7200  -26.8760   19.0850 C   0  0  0  0  0  3  0  0  0  0  0  0
  -24.5990  -27.7440   19.1480 C   0  0  0  0  0  3  0  0  0  0  0  0
  -23.4300  -29.8910   19.9500 C   0  0  0  0  0  2  0  0  0  0  0  0
  -24.5630  -31.0860   21.8660 N   0  0  0  0  0  0  0  0  0  0  0  0
  -23.4690  -32.1510   23.5650 O   0  0  0  0  0  0  0  0  0  0  0  0
  -22.6180  -29.5090   22.3200 C   0  0  0  0  0  0  0  0  0  0  0  0
  -21.2850  -29.3400   22.2400 N   0  0  0  0  0  0  0  0  0  0  0  0
  -23.3190  -28.8660   23.1050 O   0  0  0  0  0  0  0  0  0  0  0  0
  -20.7720  -29.9080   21.5810 H   0  0  0  0  0  0  0  0  0  0  0  0
  -17.9280  -28.1200   22.8680 C   0  0  0  0  0  0  0  0  0  0  0  0
  -20.4980  -28.3750   23.0150 C   0  0  0  0  0  3  0  0  0  0  0  0
  -20.5680  -26.9650   22.3830 C   0  0  0  0  0  2  0  0  0  0  0  0
  -19.4170  -26.6820   21.4120 C   0  0  0  0  0  2  0  0  0  0  0  0
  -18.0680  -26.8000   22.1290 C   0  0  0  0  0  2  0  0  0  0  0  0
  -19.0670  -28.8680   23.2690 C   0  0  0  0  0  0  0  0  0  0  0  0
  -18.8790  -30.1030   23.9260 C   0  0  0  0  0  3  0  0  0  0  0  0
  -17.5840  -30.5930   24.1810 C   0  0  0  0  0  3  0  0  0  0  0  0
  -16.4600  -29.8440   23.7920 C   0  0  0  0  0  3  0  0  0  0  0  0
  -16.6330  -28.6090   23.1420 C   0  0  0  0  0  3  0  0  0  0  0  0
  -25.8340  -32.5020   23.5800 C   0  0  0  0  0  3  0  0  0  0  0  0
  -26.4280  -31.6620   24.7780 C   0  0  1  0  0  0  0  0  0  0  0  0
  -25.3990  -31.3500   25.8900 C   0  0  0  0  0  1  0  0  0  0  0  0
  -27.0010  -30.3150   24.2800 C   0  0  0  0  0  1  0  0  0  0  0  0
  -27.6080  -32.4290   25.4210 C   0  0  0  0  0  1  0  0  0  0  0  0
  -25.5180  -33.8700   24.0280 N   0  0  0  0  0  0  0  0  0  0  0  0
  -25.8070  -34.9860   23.3460 C   0  0  0  0  0  0  0  0  0  0  0  0
  -26.4310  -34.9730   22.2820 O   0  0  0  0  0  0  0  0  0  0  0  0
  -24.9560  -33.9510   24.8610 H   0  0  0  0  0  0  0  0  0  0  0  0
  -24.0560  -36.7910   23.2120 C   0  0  0  0  0  1  0  0  0  0  0  0
  -25.3320  -36.3310   23.9350 C   0  0  0  0  0  3  0  0  0  0  0  0
  -27.4900  -37.1700   24.7530 C   0  0  0  0  0  1  0  0  0  0  0  0
  -26.3530  -37.3990   23.8660 N   0  0  0  0  0  0  0  0  0  0  0  0
  -25.9460  -38.3020   24.0980 H   0  0  0  0  0  0  0  0  0  0  0  0
  -28.6390  -19.6400   20.1950 C   0  0  0  0  0  3  0  0  0  0  0  0
  -29.8030  -18.3350   20.5150 C   0  0  0  0  0  3  0  0  0  0  0  0
  -30.3750  -15.4650   20.6260 C   0  0  0  0  0  0  0  0  0  0  0  0
  -30.4610  -13.0010   19.8540 C   0  0  0  0  0  2  0  0  0  0  0  0
  -29.6150  -12.7320   18.5860 C   0  0  0  0  0  2  0  0  0  0  0  0
  -28.1470  -12.4500   18.9560 C   0  0  0  0  0  2  0  0  0  0  0  0
  -27.6110  -13.4490   20.0120 C   0  0  0  0  0  3  0  0  0  0  0  0
  -28.5890  -13.6540   21.1880 C   0  0  0  0  0  2  0  0  0  0  0  0
  -29.8440  -14.1510   20.6040 N   0  0  0  0  0  0  0  0  0  0  0  0
  -31.6030  -15.5080   20.4830 O   0  0  0  0  0  0  0  0  0  0  0  0
  -29.5640  -16.6950   20.6100 N   0  0  0  0  0  0  0  0  0  0  0  0
  -28.5820  -16.4690   20.6710 H   0  0  0  0  0  0  0  0  0  0  0  0
  -25.2000  -13.9780   20.6520 C   0  0  0  0  0  0  0  0  0  0  0  0
  -24.1320  -13.1870   20.9670 C   0  0  0  0  0  0  0  0  0  0  0  0
  -24.6180  -11.8420   20.9580 C   0  0  0  0  0  0  0  0  0  0  0  0
  -26.2650  -13.1170   20.4570 N   0  0  0  0  0  0  0  0  0  0  0  0
  -25.9250  -11.8270   20.7130 N   0  0  0  0  0  0  0  0  0  0  0  0
  -23.9000  -10.5700   21.1100 C   0  0  0  0  0  0  0  0  0  0  0  0
  -24.3000   -9.6040   22.0590 C   0  0  0  0  0  3  0  0  0  0  0  0
  -23.5790   -8.3980   22.1990 C   0  0  0  0  0  3  0  0  0  0  0  0
  -22.4450   -8.1510   21.3900 C   0  0  0  0  0  0  0  0  0  0  0  0
  -22.0650   -9.1060   20.4310 C   0  0  0  0  0  3  0  0  0  0  0  0
  -22.7870  -10.3030   20.2890 C   0  0  0  0  0  3  0  0  0  0  0  0
  -21.7010   -6.9960   21.4380 O   0  0  0  0  0  0  0  0  0  0  0  0
  -21.6070   -6.2480   22.5840 C   0  0  0  0  0  0  0  0  0  0  0  0
  -21.0980   -6.7850   23.7860 C   0  0  0  0  0  3  0  0  0  0  0  0
  -20.9560   -5.9600   24.9200 C   0  0  0  0  0  3  0  0  0  0  0  0
  -21.3120   -4.6010   24.8530 C   0  0  0  0  0  0  0  0  0  0  0  0
  -21.8150   -4.0630   23.6550 C   0  0  0  0  0  3  0  0  0  0  0  0
  -21.9600   -4.8840   22.5230 C   0  0  0  0  0  0  0  0  0  0  0  0
  -22.4240   -4.3560   21.3650 F   0  0  0  0  0  0  0  0  0  0  0  0
  -21.1690   -3.8070   25.9390 F   0  0  0  0  0  0  0  0  0  0  0  0
  -22.7170  -13.6450   21.1630 C   0  0  0  0  0  0  0  0  0  0  0  0
  -21.9570  -12.9440   21.9960 N   0  0  0  0  0  0  0  0  0  0  0  0
  -22.2920  -14.6600   20.6110 O   0  0  0  0  0  0  0  0  0  0  0  0
  -22.3140  -12.1240   22.4630 H   0  0  0  0  0  0  0  0  0  0  0  0
  -21.0060  -13.2350   22.1720 H   0  0  0  0  0  0  0  0  0  0  0  0
  -25.3490  -15.3520   20.4860 N   0  0  0  0  0  0  0  0  0  0  0  0
  -24.5590  -15.9840   20.5610 H   0  0  0  0  0  0  0  0  0  0  0  0
  -26.1890  -15.8060   20.1510 H   0  0  0  0  0  0  0  0  0  0  0  0
  1  5  1  0
  2  1  2  0
  2  6  1  0
  4  3  1  0
  4  7  1  0
  5 53  1  0
  5  3  2  0
  6  4  2  0
  7  8  1  0
  7  9  2  0
  8 11  1  0
 10  8  1  0
 12 14  1  0
 12  6  1  0
 13 24  2  0
 14 19  1  0
 15 23  1  0
 15 25  1  0
 16 22  1  0
 16 18  1  0
 17 23  1  0
 18 17  1  0
 19 18  2  0
 20 21  1  0
 20 14  2  0
 21 16  2  0
 22 15  1  0
 23 13  1  0
 25 27  2  0
 26 25  1  0
 28 26  1  0
 29 38  2  0
 29 34  1  0
 30 26  1  0
 30 34  1  0
 31 30  1  0
 32 33  1  0
 32 31  1  0
 33 29  1  0
 34 35  2  0
 35 36  1  0
 37 36  2  0
 38 37  1  0
 39 13  1  0
 39 44  1  0
 39 40  1  0
 40 43  1  1
 40 41  1  0
 42 40  1  0
 44 47  1  0
 45 49  1  0
 45 44  1  0
 46 45  2  0
 49 48  1  0
 51 49  1  0
 51 52  1  0
 51 50  1  0
 53 54  2  0
 54 63  1  0
 56 61  1  0
 57 58  1  0
 57 56  1  0
 59 58  1  0
 59 68  1  0
 59 60  1  0
 61 55  1  0
 61 60  1  0
 62 55  2  0
 63 55  1  0
 63 64  1  0
 65 66  2  0
 66 85  1  0
 67 66  1  0
 67 70  1  0
 68 65  1  0
 68 69  1  0
 69 67  2  0
 70 71  1  0
 71 72  2  0
 73 76  1  0
 73 72  1  0
 74 73  2  0
 75 74  1  0
 75 70  2  0
 76 77  1  0
 77 78  1  0
 78 79  2  0
 80 79  1  0
 80 84  1  0
 81 80  2  0
 82 77  2  0
 82 81  1  0
 83 82  1  0
 85 86  1  0
 86 89  1  0
 86 88  1  0
 87 85  2  0
 90 91  1  0
 90 65  1  0
 92 90  1  0
M  ISO  4   6 101  12 101  55 100  63 100
M  END
>  <TORSDO>  (71) 
F 19

>  <SCORE>  (71) 
-15.101

>  <name>  (71) 
70

>  <ligand_id>  (71) 
70

>  <original_smiles>  (71) 
[H]c1c([H])c([H])c2c(c1[H])C([H])([H])C([H])([H])C([H])([H])C2([H])N([H])C(=O)C1([H])N(C(=O)C([H])(N([H])C(=O)C([H])(N([H])C([H])([H])[H])C([H])([H])[H])C(C([H])([H])[H])(C([H])([H])[H])C([H])([H])[H])C([H])([H])c2c([H])c(Oc3c([H])c([H])c(C([H])([H])C([H])([H])N([H])C(=O)N4C([H])([H])C([H])([H])C([H])([H])C([H])(n5nc(-c6c([H])c([H])c(Oc7c([H])c([H])c(F)c([H])c7F)c([H])c6[H])c(C(=O)N([H])[H])c5N([H])[H])C4([H])[H])c([H])c3C(=O)N([H])[H])c([H])c([H])c2C1([H])[H]

>  <smiles>  (71) 
[H]c1c([H])c([H])c2c(c1[H])C([H])([H])C([H])([H])C([H])([H])C2([H])N([H])C(=O)C1([H])N(C(=O)C([H])(N([H])C(=O)C([H])(N([H])C([H])([H])[H])C([H])([H])[H])C(C([H])([H])[H])(C([H])([H])[H])C([H])([H])[H])C([H])([H])c2c([H])c(Oc3c([H])c([H])c(C([H])([H])C([H])([H])N([H])C(=O)N4C([H])([H])C([H])([H])C([H])([H])C([H])(n5nc(-c6c([H])c([H])c(Oc7c([H])c([H])c(F)c([H])c7F)c([H])c6[H])c(C(=O)N([H])[H])c5N([H])[H])C4([H])[H])c([H])c3C(=O)N([H])[H])c([H])c([H])c2C1([H])[H]

$$$$
71:0:0
     RDKit          3D

 94103  0  0  1  0  0  0  0  0999 V2000
  -27.2430  -23.2300   22.1270 C   0  0  0  0  0  3  0  0  0  0  0  0
  -27.8040  -22.0760   21.5290 C   0  0  0  0  0  3  0  0  0  0  0  0
  -27.3870  -24.5280   21.5900 C   0  0  0  0  0  3  0  0  0  0  0  0
  -28.6860  -23.5290   19.8070 C   0  0  0  0  0  3  0  0  0  0  0  0
  -28.5530  -22.1230   20.3310 C   0  0  0  0  0  0  0  0  0  0  0  0
  -28.1130  -24.7830   20.4090 C   0  0  0  0  0  0  0  0  0  0  0  0
  -31.0590  -19.6070   18.2570 C   0  0  0  0  0  0  0  0  0  0  0  0
  -29.0270  -19.1410   20.3600 C   0  0  0  0  0  0  0  0  0  0  0  0
  -30.5090  -18.1740   18.4600 C   0  0  0  0  0  2  0  0  0  0  0  0
  -30.4640  -20.8130   19.0340 C   0  0  0  0  0  2  0  0  0  0  0  0
  -30.0510  -17.8680   19.9010 C   0  0  0  0  0  3  0  0  0  0  0  0
  -29.0370  -20.6630   19.6370 C   0  0  2  0  0  0  0  0  0  0  0  0
  -28.0230  -20.5170   18.4740 C   0  0  0  0  0  1  0  0  0  0  0  0
  -31.9820  -19.7940   17.4620 O   0  0  0  0  0  0  0  0  0  0  0  0
  -28.1920  -18.9170   21.2370 O   0  0  0  0  0  0  0  0  0  0  0  0
  -30.4980  -15.1110   19.9090 C   0  0  0  0  0  0  0  0  0  0  0  0
  -30.3370  -12.7600   18.9520 C   0  0  0  0  0  2  0  0  0  0  0  0
  -29.3360  -12.7300   17.7750 C   0  0  0  0  0  2  0  0  0  0  0  0
  -27.9040  -12.4960   18.2930 C   0  0  0  0  0  2  0  0  0  0  0  0
  -27.5640  -13.3950   19.5100 C   0  0  0  0  0  3  0  0  0  0  0  0
  -28.6850  -13.4070   20.5680 C   0  0  0  0  0  2  0  0  0  0  0  0
  -29.9070  -13.8450   19.8850 N   0  0  0  0  0  0  0  0  0  0  0  0
  -31.6860  -15.1660   19.5720 O   0  0  0  0  0  0  0  0  0  0  0  0
  -29.7270  -16.3060   20.0780 N   0  0  0  0  0  0  0  0  0  0  0  0
  -28.7700  -16.1280   20.3490 H   0  0  0  0  0  0  0  0  0  0  0  0
  -25.2400  -13.9470   20.4210 C   0  0  0  0  0  0  0  0  0  0  0  0
  -24.2050  -13.1610   20.8420 C   0  0  0  0  0  0  0  0  0  0  0  0
  -24.6670  -11.8120   20.7470 C   0  0  0  0  0  0  0  0  0  0  0  0
  -26.2640  -13.0770   20.0900 N   0  0  0  0  0  0  0  0  0  0  0  0
  -25.9340  -11.7850   20.3500 N   0  0  0  0  0  0  0  0  0  0  0  0
  -23.9550  -10.5440   20.9540 C   0  0  0  0  0  0  0  0  0  0  0  0
  -24.4240   -9.5730   21.8660 C   0  0  0  0  0  3  0  0  0  0  0  0
  -23.7110   -8.3710   22.0620 C   0  0  0  0  0  3  0  0  0  0  0  0
  -22.5130   -8.1320   21.3460 C   0  0  0  0  0  0  0  0  0  0  0  0
  -22.0620   -9.0930   20.4240 C   0  0  0  0  0  3  0  0  0  0  0  0
  -22.7740  -10.2870   20.2270 C   0  0  0  0  0  3  0  0  0  0  0  0
  -21.7670   -6.9830   21.4510 O   0  0  0  0  0  0  0  0  0  0  0  0
  -21.7290   -6.2520   22.6120 C   0  0  0  0  0  0  0  0  0  0  0  0
  -21.3070   -6.8180   23.8340 C   0  0  0  0  0  3  0  0  0  0  0  0
  -21.2190   -6.0140   24.9880 C   0  0  0  0  0  3  0  0  0  0  0  0
  -21.5380   -4.6450   24.9200 C   0  0  0  0  0  0  0  0  0  0  0  0
  -21.9530   -4.0790   23.7010 C   0  0  0  0  0  3  0  0  0  0  0  0
  -22.0450   -4.8810   22.5500 C   0  0  0  0  0  0  0  0  0  0  0  0
  -22.4240   -4.3240   21.3740 F   0  0  0  0  0  0  0  0  0  0  0  0
  -21.4460   -3.8710   26.0260 F   0  0  0  0  0  0  0  0  0  0  0  0
  -22.8280  -13.6290   21.2130 C   0  0  0  0  0  0  0  0  0  0  0  0
  -22.1580  -12.9110   22.1060 N   0  0  0  0  0  0  0  0  0  0  0  0
  -22.3600  -14.6650   20.7470 O   0  0  0  0  0  0  0  0  0  0  0  0
  -22.5540  -12.0740   22.5050 H   0  0  0  0  0  0  0  0  0  0  0  0
  -21.2380  -13.2040   22.3980 H   0  0  0  0  0  0  0  0  0  0  0  0
  -25.3910  -15.3210   20.2620 N   0  0  0  0  0  0  0  0  0  0  0  0
  -24.6250  -15.9650   20.4220 H   0  0  0  0  0  0  0  0  0  0  0  0
  -26.1990  -15.7650   19.8490 H   0  0  0  0  0  0  0  0  0  0  0  0
  -28.2530  -26.2070   20.0200 O   0  0  0  0  0  0  0  0  0  0  0  0
  -24.6320  -31.9000   23.1630 C   0  0  0  0  0  0  0  0  0  0  0  0
  -27.2000  -27.2050   20.0610 C   0  0  0  0  0  0  0  0  0  0  0  0
  -23.4280  -30.5190   21.5150 C   0  0  0  0  0  3  0  0  0  0  0  0
  -24.8720  -28.9570   20.0660 C   0  0  0  0  0  0  0  0  0  0  0  0
  -25.9820  -30.7820   21.3440 C   0  0  0  0  0  2  0  0  0  0  0  0
  -26.0550  -29.3950   20.6780 C   0  0  0  0  0  0  0  0  0  0  0  0
  -27.2200  -28.5320   20.6620 C   0  0  0  0  0  3  0  0  0  0  0  0
  -25.9950  -26.8770   19.4090 C   0  0  0  0  0  3  0  0  0  0  0  0
  -24.8540  -27.7110   19.4170 C   0  0  0  0  0  3  0  0  0  0  0  0
  -23.6450  -29.8550   20.1300 C   0  0  0  0  0  2  0  0  0  0  0  0
  -24.7020  -31.0890   22.0620 N   0  0  0  0  0  0  0  0  0  0  0  0
  -23.5470  -32.1760   23.6990 O   0  0  0  0  0  0  0  0  0  0  0  0
  -22.7540  -29.5010   22.4690 C   0  0  0  0  0  0  0  0  0  0  0  0
  -21.4280  -29.3230   22.3400 N   0  0  0  0  0  0  0  0  0  0  0  0
  -23.4290  -28.8760   23.2900 O   0  0  0  0  0  0  0  0  0  0  0  0
  -20.9370  -29.8810   21.6540 H   0  0  0  0  0  0  0  0  0  0  0  0
  -18.0610  -28.0720   22.8220 C   0  0  0  0  0  0  0  0  0  0  0  0
  -20.6140  -28.3730   23.1040 C   0  0  0  0  0  3  0  0  0  0  0  0
  -20.7390  -26.9420   22.5310 C   0  0  0  0  0  2  0  0  0  0  0  0
  -19.6510  -26.6040   21.5080 C   0  0  0  0  0  2  0  0  0  0  0  0
  -18.2620  -26.7270   22.1420 C   0  0  0  0  0  2  0  0  0  0  0  0
  -19.1650  -28.8510   23.2590 C   0  0  0  0  0  0  0  0  0  0  0  0
  -18.9210  -30.1070   23.8560 C   0  0  0  0  0  3  0  0  0  0  0  0
  -17.6070  -30.5850   24.0170 C   0  0  0  0  0  3  0  0  0  0  0  0
  -16.5180  -29.8040   23.5930 C   0  0  0  0  0  3  0  0  0  0  0  0
  -16.7460  -28.5480   23.0020 C   0  0  0  0  0  3  0  0  0  0  0  0
  -25.9100  -32.5350   23.7910 C   0  0  0  0  0  3  0  0  0  0  0  0
  -25.5940  -33.9280   24.1450 N   0  0  0  0  0  0  0  0  0  0  0  0
  -25.9220  -34.9980   23.4090 C   0  0  0  0  0  0  0  0  0  0  0  0
  -26.5900  -34.9150   22.3750 O   0  0  0  0  0  0  0  0  0  0  0  0
  -25.0000  -34.0670   24.9500 H   0  0  0  0  0  0  0  0  0  0  0  0
  -24.1920  -36.8010   23.0970 C   0  0  0  0  0  1  0  0  0  0  0  0
  -25.4360  -36.3780   23.8950 C   0  0  0  0  0  3  0  0  0  0  0  0
  -27.5730  -37.2490   24.7390 C   0  0  0  0  0  1  0  0  0  0  0  0
  -26.4700  -37.4360   23.8010 N   0  0  0  0  0  0  0  0  0  0  0  0
  -26.0640  -38.3520   23.9680 H   0  0  0  0  0  0  0  0  0  0  0  0
  -26.4310  -31.7490   25.0580 C   0  0  1  0  0  0  0  0  0  0  0  0
  -25.3400  -31.5020   26.1270 C   0  0  0  0  0  1  0  0  0  0  0  0
  -27.0140  -30.3740   24.6580 C   0  0  0  0  0  1  0  0  0  0  0  0
  -27.5830  -32.5380   25.7240 C   0  0  0  0  0  1  0  0  0  0  0  0
  2  1  2  0
  3  1  1  0
  4  5  2  0
  4  6  1  0
  5  2  1  0
  6  3  2  0
  7  9  1  0
  7 10  1  0
  8 15  2  0
  9 11  1  0
 10 12  1  0
 11 24  1  0
 11  8  1  0
 12 13  1  6
 12  5  1  0
 12  8  1  0
 14  7  2  0
 16 24  1  0
 17 22  1  0
 18 19  1  0
 18 17  1  0
 20 19  1  0
 20 29  1  0
 20 21  1  0
 22 16  1  0
 22 21  1  0
 23 16  2  0
 24 25  1  0
 26 27  2  0
 27 46  1  0
 28 27  1  0
 28 31  1  0
 29 30  1  0
 29 26  1  0
 30 28  2  0
 31 32  1  0
 32 33  2  0
 34 37  1  0
 34 33  1  0
 35 34  2  0
 36 35  1  0
 36 31  2  0
 37 38  1  0
 38 39  1  0
 39 40  2  0
 41 40  1  0
 41 45  1  0
 42 41  2  0
 43 38  2  0
 43 42  1  0
 44 43  1  0
 46 47  1  0
 47 50  1  0
 47 49  1  0
 48 46  2  0
 51 26  1  0
 51 52  1  0
 53 51  1  0
 54 56  1  0
 54  6  1  0
 55 66  2  0
 56 61  1  0
 57 65  1  0
 57 67  1  0
 58 64  1  0
 58 60  1  0
 59 65  1  0
 60 59  1  0
 61 60  2  0
 62 63  1  0
 62 56  2  0
 63 58  2  0
 64 57  1  0
 65 55  1  0
 67 69  2  0
 68 67  1  0
 70 68  1  0
 71 80  2  0
 71 76  1  0
 72 68  1  0
 72 76  1  0
 73 72  1  0
 74 75  1  0
 74 73  1  0
 75 71  1  0
 76 77  2  0
 77 78  1  0
 79 78  2  0
 80 79  1  0
 81 55  1  0
 81 82  1  0
 81 91  1  0
 82 85  1  0
 83 87  1  0
 83 82  1  0
 84 83  2  0
 87 86  1  0
 89 87  1  0
 89 90  1  0
 89 88  1  0
 91 94  1  1
 91 92  1  0
 93 91  1  0
M  ISO  4   6 101  16 100  24 100  54 101
M  END
>  <TORSDO>  (72) 
F 17

>  <SCORE>  (72) 
-14.508

>  <name>  (72) 
71

>  <ligand_id>  (72) 
71

>  <original_smiles>  (72) 
[H]c1c([H])c([H])c2c(c1[H])C([H])([H])C([H])([H])C([H])([H])C2([H])N([H])C(=O)C1([H])N(C(=O)C([H])(N([H])C(=O)C([H])(N([H])C([H])([H])[H])C([H])([H])[H])C(C([H])([H])[H])(C([H])([H])[H])C([H])([H])[H])C([H])([H])c2c([H])c(Oc3c([H])c([H])c([H])c(C4(C([H])([H])[H])C(=O)C([H])(N([H])C(=O)N5C([H])([H])C([H])([H])C([H])([H])C([H])(n6nc(-c7c([H])c([H])c(Oc8c([H])c([H])c(F)c([H])c8F)c([H])c7[H])c(C(=O)N([H])[H])c6N([H])[H])C5([H])[H])C([H])([H])C(=O)C4([H])[H])c3[H])c([H])c([H])c2C1([H])[H]

>  <smiles>  (72) 
[H]c1c([H])c([H])c2c(c1[H])C([H])([H])C([H])([H])C([H])([H])C2([H])N([H])C(=O)C1([H])N(C(=O)C([H])(N([H])C(=O)C([H])(N([H])C([H])([H])[H])C([H])([H])[H])C(C([H])([H])[H])(C([H])([H])[H])C([H])([H])[H])C([H])([H])c2c([H])c(Oc3c([H])c([H])c([H])c(C4(C([H])([H])[H])C(=O)C([H])(N([H])C(=O)N5C([H])([H])C([H])([H])C([H])([H])C([H])(n6nc(-c7c([H])c([H])c(Oc8c([H])c([H])c(F)c([H])c8F)c([H])c7[H])c(C(=O)N([H])[H])c6N([H])[H])C5([H])[H])C([H])([H])C(=O)C4([H])[H])c3[H])c([H])c([H])c2C1([H])[H]

$$$$
72:0:0
     RDKit          3D

 89 97  0  0  1  0  0  0  0  0999 V2000
  -28.1680  -22.7820   17.9130 C   0  0  0  0  0  3  0  0  0  0  0  0
  -28.5050  -21.5790   18.5920 C   0  0  0  0  0  3  0  0  0  0  0  0
  -28.0510  -24.0580   18.5240 C   0  0  0  0  0  3  0  0  0  0  0  0
  -28.7730  -21.5050   19.9770 C   0  0  0  0  0  0  0  0  0  0  0  0
  -28.6070  -22.9350   20.5900 C   0  0  0  0  0  0  0  0  0  0  0  0
  -28.2450  -24.2940   19.8990 C   0  0  0  0  0  0  0  0  0  0  0  0
  -28.7870  -23.0110   22.0930 C   0  0  0  0  0  1  0  0  0  0  0  0
  -28.2130  -25.7910   20.3140 O   0  0  0  0  0  0  0  0  0  0  0  0
  -24.6480  -31.8320   23.1680 C   0  0  0  0  0  0  0  0  0  0  0  0
  -27.2150  -26.9120   20.1740 C   0  0  0  0  0  0  0  0  0  0  0  0
  -23.4610  -30.4250   21.5350 C   0  0  0  0  0  3  0  0  0  0  0  0
  -24.9160  -28.8150   20.1140 C   0  0  0  0  0  0  0  0  0  0  0  0
  -26.0280  -30.6370   21.3870 C   0  0  0  0  0  2  0  0  0  0  0  0
  -26.1030  -29.2190   20.7380 C   0  0  0  0  0  0  0  0  0  0  0  0
  -27.2420  -28.2860   20.7440 C   0  0  0  0  0  3  0  0  0  0  0  0
  -25.9980  -26.6720   19.4950 C   0  0  0  0  0  3  0  0  0  0  0  0
  -24.8930  -27.5650   19.4700 C   0  0  0  0  0  3  0  0  0  0  0  0
  -23.6950  -29.7350   20.1620 C   0  0  0  0  0  2  0  0  0  0  0  0
  -24.7360  -30.9920   22.0850 N   0  0  0  0  0  0  0  0  0  0  0  0
  -23.5570  -32.1230   23.6840 O   0  0  0  0  0  0  0  0  0  0  0  0
  -22.7660  -29.4350   22.5070 C   0  0  0  0  0  0  0  0  0  0  0  0
  -21.4340  -29.2800   22.3940 N   0  0  0  0  0  0  0  0  0  0  0  0
  -23.4340  -28.8040   23.3300 O   0  0  0  0  0  0  0  0  0  0  0  0
  -20.9470  -29.8420   21.7090 H   0  0  0  0  0  0  0  0  0  0  0  0
  -18.0480  -28.0860   22.9310 C   0  0  0  0  0  0  0  0  0  0  0  0
  -20.6110  -28.3440   23.1690 C   0  0  0  0  0  3  0  0  0  0  0  0
  -20.7010  -26.9120   22.5900 C   0  0  0  0  0  2  0  0  0  0  0  0
  -19.5880  -26.5980   21.5840 C   0  0  0  0  0  2  0  0  0  0  0  0
  -18.2130  -26.7430   22.2430 C   0  0  0  0  0  2  0  0  0  0  0  0
  -19.1730  -28.8460   23.3520 C   0  0  0  0  0  0  0  0  0  0  0  0
  -18.9610  -30.1020   23.9600 C   0  0  0  0  0  3  0  0  0  0  0  0
  -17.6570  -30.6010   24.1470 C   0  0  0  0  0  3  0  0  0  0  0  0
  -16.5480  -29.8410   23.7380 C   0  0  0  0  0  3  0  0  0  0  0  0
  -16.7440  -28.5850   23.1360 C   0  0  0  0  0  3  0  0  0  0  0  0
  -25.9150  -32.4830   23.8020 C   0  0  0  0  0  3  0  0  0  0  0  0
  -25.5900  -33.8820   24.1430 N   0  0  0  0  0  0  0  0  0  0  0  0
  -25.9180  -34.9480   23.4030 C   0  0  0  0  0  0  0  0  0  0  0  0
  -26.5880  -34.8600   22.3710 O   0  0  0  0  0  0  0  0  0  0  0  0
  -24.9910  -34.0220   24.9440 H   0  0  0  0  0  0  0  0  0  0  0  0
  -24.1850  -36.7490   23.0770 C   0  0  0  0  0  1  0  0  0  0  0  0
  -25.4310  -36.3340   23.8790 C   0  0  0  0  0  3  0  0  0  0  0  0
  -27.5660  -37.2190   24.7110 C   0  0  0  0  0  1  0  0  0  0  0  0
  -26.4600  -37.3920   23.7720 N   0  0  0  0  0  0  0  0  0  0  0  0
  -26.0540  -38.3100   23.9290 H   0  0  0  0  0  0  0  0  0  0  0  0
  -26.4240  -31.7170   25.0860 C   0  0  1  0  0  0  0  0  0  0  0  0
  -25.3240  -31.4810   26.1480 C   0  0  0  0  0  1  0  0  0  0  0  0
  -27.0130  -30.3380   24.7090 C   0  0  0  0  0  1  0  0  0  0  0  0
  -27.5700  -32.5140   25.7520 C   0  0  0  0  0  1  0  0  0  0  0  0
  -29.0390  -19.8610   20.6150 C   0  0  0  0  0  2  0  0  0  0  0  0
  -29.9910  -18.4200   18.5150 C   0  0  0  0  0  1  0  0  0  0  0  0
  -29.8670  -18.3200   20.0410 C   0  0  0  0  0  0  0  0  0  0  0  0
  -30.4310  -15.3730   20.2540 C   0  0  0  0  0  0  0  0  0  0  0  0
  -30.4180  -12.9060   19.3950 C   0  0  0  0  0  2  0  0  0  0  0  0
  -29.5080  -12.6980   18.1570 C   0  0  0  0  0  2  0  0  0  0  0  0
  -28.0550  -12.4240   18.5830 C   0  0  0  0  0  2  0  0  0  0  0  0
  -27.6010  -13.3770   19.7180 C   0  0  0  0  0  3  0  0  0  0  0  0
  -28.6460  -13.5310   20.8450 C   0  0  0  0  0  2  0  0  0  0  0  0
  -29.8730  -14.0540   20.2210 N   0  0  0  0  0  0  0  0  0  0  0  0
  -31.6420  -15.3620   19.9860 O   0  0  0  0  0  0  0  0  0  0  0  0
  -29.6760  -16.6660   20.3830 N   0  0  0  0  0  4  0  0  0  0  0  0
  -28.7250  -16.4650   20.6580 H   0  0  0  0  0  0  0  0  0  0  0  0
  -25.2320  -13.9290   20.4680 C   0  0  0  0  0  0  0  0  0  0  0  0
  -24.1700  -13.1510   20.8350 C   0  0  0  0  0  0  0  0  0  0  0  0
  -24.6390  -11.8010   20.8100 C   0  0  0  0  0  0  0  0  0  0  0  0
  -26.2750  -13.0550   20.2270 N   0  0  0  0  0  0  0  0  0  0  0  0
  -25.9320  -11.7680   20.5000 N   0  0  0  0  0  0  0  0  0  0  0  0
  -23.9100  -10.5390   21.0000 C   0  0  0  0  0  0  0  0  0  0  0  0
  -24.3340   -9.5710   21.9360 C   0  0  0  0  0  3  0  0  0  0  0  0
  -23.6010   -8.3790   22.1150 C   0  0  0  0  0  3  0  0  0  0  0  0
  -22.4290   -8.1440   21.3580 C   0  0  0  0  0  0  0  0  0  0  0  0
  -22.0240   -9.0990   20.4090 C   0  0  0  0  0  3  0  0  0  0  0  0
  -22.7580  -10.2830   20.2290 C   0  0  0  0  0  3  0  0  0  0  0  0
  -21.6690   -7.0030   21.4470 O   0  0  0  0  0  0  0  0  0  0  0  0
  -21.6100   -6.2640   22.6010 C   0  0  0  0  0  0  0  0  0  0  0  0
  -21.1800   -6.8220   23.8240 C   0  0  0  0  0  3  0  0  0  0  0  0
  -21.0700   -6.0110   24.9700 C   0  0  0  0  0  3  0  0  0  0  0  0
  -21.3780   -4.6400   24.8940 C   0  0  0  0  0  0  0  0  0  0  0  0
  -21.7990   -4.0790   23.6750 C   0  0  0  0  0  3  0  0  0  0  0  0
  -21.9110   -4.8880   22.5320 C   0  0  0  0  0  0  0  0  0  0  0  0
  -22.2990   -4.3380   21.3560 F   0  0  0  0  0  0  0  0  0  0  0  0
  -21.2630   -3.8570   25.9930 F   0  0  0  0  0  0  0  0  0  0  0  0
  -22.7720  -13.6280   21.0960 C   0  0  0  0  0  0  0  0  0  0  0  0
  -22.0370  -12.9370   21.9600 N   0  0  0  0  0  0  0  0  0  0  0  0
  -22.3390  -14.6520   20.5680 O   0  0  0  0  0  0  0  0  0  0  0  0
  -22.3980  -12.1090   22.4110 H   0  0  0  0  0  0  0  0  0  0  0  0
  -21.0970  -13.2410   22.1730 H   0  0  0  0  0  0  0  0  0  0  0  0
  -25.3940  -15.3000   20.2850 N   0  0  0  0  0  0  0  0  0  0  0  0
  -24.6220  -15.9520   20.3780 H   0  0  0  0  0  0  0  0  0  0  0  0
  -26.2310  -15.7290   19.9100 H   0  0  0  0  0  0  0  0  0  0  0  0
  1  3  2  0
  1  2  1  0
  2  4  2  0
  3  6  1  0
  4  5  1  0
  4 49  1  0
  5  7  1  0
  6  8  1  0
  6  5  2  0
  9 20  2  0
 10  8  1  0
 10 15  1  0
 11 19  1  0
 11 21  1  0
 12 18  1  0
 12 14  1  0
 13 19  1  0
 14 15  2  0
 14 13  1  0
 16 10  2  0
 17 16  1  0
 17 12  2  0
 18 11  1  0
 19  9  1  0
 21 23  2  0
 22 21  1  0
 24 22  1  0
 25 34  2  0
 25 30  1  0
 26 22  1  0
 26 30  1  0
 27 26  1  0
 28 29  1  0
 28 27  1  0
 29 25  1  0
 30 31  2  0
 31 32  1  0
 33 32  2  0
 34 33  1  0
 35  9  1  0
 35 36  1  0
 35 45  1  0
 36 39  1  0
 37 41  1  0
 37 36  1  0
 38 37  2  0
 41 40  1  0
 43 41  1  0
 43 44  1  0
 43 42  1  0
 45 48  1  1
 45 46  1  0
 47 45  1  0
 50 51  1  0
 51 60  2  0
 51 49  1  0
 52 60  1  0
 53 58  1  0
 54 55  1  0
 54 53  1  0
 56 55  1  0
 56 65  1  0
 56 57  1  0
 58 52  1  0
 58 57  1  0
 59 52  2  0
 60 61  1  0
 62 63  2  0
 63 82  1  0
 64 63  1  0
 64 67  1  0
 65 62  1  0
 65 66  1  0
 66 64  2  0
 67 68  1  0
 68 69  2  0
 70 73  1  0
 70 69  1  0
 71 70  2  0
 72 71  1  0
 72 67  2  0
 73 74  1  0
 74 75  1  0
 75 76  2  0
 77 76  1  0
 77 81  1  0
 78 77  2  0
 79 74  2  0
 79 78  1  0
 80 79  1  0
 82 83  1  0
 83 86  1  0
 83 85  1  0
 84 82  2  0
 87 88  1  0
 87 62  1  0
 89 87  1  0
M  ISO  4   6 101   8 101  52 100  60 100
M  END
>  <TORSDO>  (73) 
F 18

>  <SCORE>  (73) 
-15.863

>  <name>  (73) 
72

>  <ligand_id>  (73) 
72

>  <original_smiles>  (73) 
[H]c1c([H])c([H])c2c(c1[H])C([H])([H])C([H])([H])C([H])([H])C2([H])N([H])C(=O)C1([H])N(C(=O)C([H])(N([H])C(=O)C([H])(N([H])C([H])([H])[H])C([H])([H])[H])C(C([H])([H])[H])(C([H])([H])[H])C([H])([H])[H])C([H])([H])c2c([H])c(Oc3c([H])c([H])c([H])c(C([H])([H])C([H])(N([H])C(=O)N4C([H])([H])C([H])([H])C([H])([H])C([H])(n5nc(-c6c([H])c([H])c(Oc7c([H])c([H])c(F)c([H])c7F)c([H])c6[H])c(C(=O)N([H])[H])c5N([H])[H])C4([H])[H])C([H])([H])[H])c3C([H])([H])[H])c([H])c([H])c2C1([H])[H]

>  <smiles>  (73) 
[H]c1c([H])c([H])c2c(c1[H])C([H])([H])C([H])([H])C([H])([H])C2([H])N([H])C(=O)C1([H])N(C(=O)C([H])(N([H])C(=O)C([H])(N([H])C([H])([H])[H])C([H])([H])[H])C(C([H])([H])[H])(C([H])([H])[H])C([H])([H])[H])C([H])([H])c2c([H])c(Oc3c([H])c([H])c([H])c(C([H])([H])C([H])(N([H])C(=O)N4C([H])([H])C([H])([H])C([H])([H])C([H])(n5nc(-c6c([H])c([H])c(Oc7c([H])c([H])c(F)c([H])c7F)c([H])c6[H])c(C(=O)N([H])[H])c5N([H])[H])C4([H])[H])C([H])([H])[H])c3C([H])([H])[H])c([H])c([H])c2C1([H])[H]

$$$$
73:0:0
     RDKit          3D

 91101  0  0  1  0  0  0  0  0999 V2000
  -30.6520  -15.2260   20.2330 C   0  0  0  0  0  0  0  0  0  0  0  0
  -30.5140  -12.7940   19.4560 C   0  0  0  0  0  2  0  0  0  0  0  0
  -29.6000  -12.5590   18.2350 C   0  0  0  0  0  2  0  0  0  0  0  0
  -28.1520  -12.3230   18.6960 C   0  0  0  0  0  2  0  0  0  0  0  0
  -27.7030  -13.3440   19.7720 C   0  0  0  0  0  3  0  0  0  0  0  0
  -28.7540  -13.5630   20.8810 C   0  0  0  0  0  2  0  0  0  0  0  0
  -29.9880  -13.9840   20.2070 N   0  0  0  0  0  0  0  0  0  0  0  0
  -31.8720  -15.1250   20.0530 O   0  0  0  0  0  0  0  0  0  0  0  0
  -28.7520  -22.2960   18.6050 C   0  0  0  0  0  3  0  0  0  0  0  0
  -28.4850  -23.7440   18.5090 C   0  0  0  0  0  3  0  0  0  0  0  0
  -28.2340  -23.8800   20.8320 C   0  0  0  0  0  3  0  0  0  0  0  0
  -28.7880  -21.5560   19.8420 C   0  0  0  0  0  0  0  0  0  0  0  0
  -28.5000  -22.4340   20.9180 C   0  0  0  0  0  0  0  0  0  0  0  0
  -28.2120  -24.6580   19.6050 C   0  0  0  0  0  0  0  0  0  0  0  0
  -28.5590  -21.6220   22.1920 C   0  0  0  0  0  2  0  0  0  0  0  0
  -29.1350  -20.2090   21.8300 C   0  0  0  0  0  2  0  0  0  0  0  0
  -30.5290  -19.3090   19.8280 C   0  0  0  0  0  2  0  0  0  0  0  0
  -28.2720  -18.6950   19.8910 C   0  0  0  0  0  2  0  0  0  0  0  0
  -30.9600  -17.8180   20.3430 C   0  0  0  0  0  2  0  0  0  0  0  0
  -28.6640  -17.1420   20.3370 C   0  0  0  0  0  2  0  0  0  0  0  0
  -29.1610  -19.9800   20.2840 C   0  0  2  0  0  0  0  0  0  0  0  0
  -30.0730  -16.5780   20.2360 N   0  0  0  0  0  0  0  0  0  0  0  0
  -25.3560  -13.9180   20.5900 C   0  0  0  0  0  0  0  0  0  0  0  0
  -24.2920  -13.1450   20.9590 C   0  0  0  0  0  0  0  0  0  0  0  0
  -24.7430  -11.7910   20.8880 C   0  0  0  0  0  0  0  0  0  0  0  0
  -26.3830  -13.0380   20.3060 N   0  0  0  0  0  0  0  0  0  0  0  0
  -26.0280  -11.7500   20.5560 N   0  0  0  0  0  0  0  0  0  0  0  0
  -24.0060  -10.5320   21.0590 C   0  0  0  0  0  0  0  0  0  0  0  0
  -24.4160   -9.5550   21.9940 C   0  0  0  0  0  3  0  0  0  0  0  0
  -23.6760   -8.3650   22.1560 C   0  0  0  0  0  3  0  0  0  0  0  0
  -22.5110   -8.1410   21.3850 C   0  0  0  0  0  0  0  0  0  0  0  0
  -22.1190   -9.1070   20.4390 C   0  0  0  0  0  3  0  0  0  0  0  0
  -22.8610  -10.2880   20.2740 C   0  0  0  0  0  3  0  0  0  0  0  0
  -21.7440   -7.0030   21.4560 O   0  0  0  0  0  0  0  0  0  0  0  0
  -21.6350   -6.2810   22.6170 C   0  0  0  0  0  0  0  0  0  0  0  0
  -21.1440   -6.8560   23.8090 C   0  0  0  0  0  3  0  0  0  0  0  0
  -20.9820   -6.0600   24.9600 C   0  0  0  0  0  3  0  0  0  0  0  0
  -21.3010   -4.6910   24.9210 C   0  0  0  0  0  0  0  0  0  0  0  0
  -21.7860   -4.1150   23.7330 C   0  0  0  0  0  3  0  0  0  0  0  0
  -21.9490   -4.9070   22.5840 C   0  0  0  0  0  0  0  0  0  0  0  0
  -22.3950   -4.3430   21.4360 F   0  0  0  0  0  0  0  0  0  0  0  0
  -21.1400   -3.9230   26.0240 F   0  0  0  0  0  0  0  0  0  0  0  0
  -22.9050  -13.6300   21.2580 C   0  0  0  0  0  0  0  0  0  0  0  0
  -22.1840  -12.9260   22.1220 N   0  0  0  0  0  0  0  0  0  0  0  0
  -22.4710  -14.6700   20.7640 O   0  0  0  0  0  0  0  0  0  0  0  0
  -22.5500  -12.0860   22.5440 H   0  0  0  0  0  0  0  0  0  0  0  0
  -21.2520  -13.2320   22.3660 H   0  0  0  0  0  0  0  0  0  0  0  0
  -25.5280  -15.2920   20.4440 N   0  0  0  0  0  0  0  0  0  0  0  0
  -24.7720  -15.9490   20.6040 H   0  0  0  0  0  0  0  0  0  0  0  0
  -26.3780  -15.7340   20.1220 H   0  0  0  0  0  0  0  0  0  0  0  0
  -28.2020  -26.1570   19.5030 O   0  0  0  0  0  0  0  0  0  0  0  0
  -24.6960  -31.7370   22.9550 C   0  0  0  0  0  0  0  0  0  0  0  0
  -27.1250  -27.1320   19.5810 C   0  0  0  0  0  0  0  0  0  0  0  0
  -23.4280  -30.4310   21.2930 C   0  0  0  0  0  3  0  0  0  0  0  0
  -24.8110  -28.9210   19.7260 C   0  0  0  0  0  0  0  0  0  0  0  0
  -25.9760  -30.6880   21.0420 C   0  0  0  0  0  2  0  0  0  0  0  0
  -26.0150  -29.3230   20.3160 C   0  0  0  0  0  0  0  0  0  0  0  0
  -27.1690  -28.4470   20.2240 C   0  0  0  0  0  3  0  0  0  0  0  0
  -25.8930  -26.8470   18.9570 C   0  0  0  0  0  3  0  0  0  0  0  0
  -24.7660  -27.7010   19.0310 C   0  0  0  0  0  3  0  0  0  0  0  0
  -23.5920  -29.8260   19.8720 C   0  0  0  0  0  2  0  0  0  0  0  0
  -24.7230  -30.9740   21.8170 N   0  0  0  0  0  0  0  0  0  0  0  0
  -23.6320  -31.9950   23.5400 O   0  0  0  0  0  0  0  0  0  0  0  0
  -22.7830  -29.3780   22.2290 C   0  0  0  0  0  0  0  0  0  0  0  0
  -21.4500  -29.2190   22.1520 N   0  0  0  0  0  0  0  0  0  0  0  0
  -23.4860  -28.7050   22.9880 O   0  0  0  0  0  0  0  0  0  0  0  0
  -20.9390  -29.8150   21.5150 H   0  0  0  0  0  0  0  0  0  0  0  0
  -18.0840  -28.0150   22.7560 C   0  0  0  0  0  0  0  0  0  0  0  0
  -20.6570  -28.2420   22.9040 C   0  0  0  0  0  3  0  0  0  0  0  0
  -20.7130  -26.8480   22.2370 C   0  0  0  0  0  2  0  0  0  0  0  0
  -19.5570  -26.5990   21.2630 C   0  0  0  0  0  2  0  0  0  0  0  0
  -18.2120  -26.7100   21.9860 C   0  0  0  0  0  2  0  0  0  0  0  0
  -19.2310  -28.7420   23.1730 C   0  0  0  0  0  0  0  0  0  0  0  0
  -19.0550  -29.9630   23.8580 C   0  0  0  0  0  3  0  0  0  0  0  0
  -17.7650  -30.4590   24.1270 C   0  0  0  0  0  3  0  0  0  0  0  0
  -16.6330  -29.7290   23.7230 C   0  0  0  0  0  3  0  0  0  0  0  0
  -16.7950  -28.5080   23.0430 C   0  0  0  0  0  3  0  0  0  0  0  0
  -25.9980  -32.3400   23.5650 C   0  0  0  0  0  3  0  0  0  0  0  0
  -25.6840  -33.6980   24.0430 N   0  0  0  0  0  0  0  0  0  0  0  0
  -25.9400  -34.8260   23.3660 C   0  0  0  0  0  0  0  0  0  0  0  0
  -26.5320  -34.8350   22.2840 O   0  0  0  0  0  0  0  0  0  0  0  0
  -25.1450  -33.7630   24.8920 H   0  0  0  0  0  0  0  0  0  0  0  0
  -24.1550  -36.6010   23.3240 C   0  0  0  0  0  1  0  0  0  0  0  0
  -25.4680  -36.1560   23.9880 C   0  0  0  0  0  3  0  0  0  0  0  0
  -27.6480  -37.0230   24.7180 C   0  0  0  0  0  1  0  0  0  0  0  0
  -26.4680  -37.2430   23.8840 N   0  0  0  0  0  0  0  0  0  0  0  0
  -26.0590  -38.1370   24.1440 H   0  0  0  0  0  0  0  0  0  0  0  0
  -26.5910  -31.4700   24.7420 C   0  0  1  0  0  0  0  0  0  0  0  0
  -25.5630  -31.1320   25.8470 C   0  0  0  0  0  1  0  0  0  0  0  0
  -27.1610  -30.1350   24.2100 C   0  0  0  0  0  1  0  0  0  0  0  0
  -27.7710  -32.2220   25.4040 C   0  0  0  0  0  1  0  0  0  0  0  0
  1 22  1  0
  2  7  1  0
  3  4  1  0
  3  2  1  0
  5  4  1  0
  5 26  1  0
  5  6  1  0
  7  1  1  0
  7  6  1  0
  8  1  2  0
  9 12  1  0
 10  9  2  0
 10 14  1  0
 11 13  1  0
 12 21  1  0
 12 13  2  0
 13 15  1  0
 14 11  2  0
 16 15  1  0
 17 19  1  0
 21 18  1  1
 18 20  1  0
 21 17  1  0
 21 16  1  0
 22 20  1  0
 22 19  1  0
 23 24  2  0
 24 43  1  0
 25 24  1  0
 25 28  1  0
 26 27  1  0
 26 23  1  0
 27 25  2  0
 28 29  1  0
 29 30  2  0
 31 34  1  0
 31 30  1  0
 32 31  2  0
 33 32  1  0
 33 28  2  0
 34 35  1  0
 35 36  1  0
 36 37  2  0
 38 37  1  0
 38 42  1  0
 39 38  2  0
 40 35  2  0
 40 39  1  0
 41 40  1  0
 43 44  1  0
 44 47  1  0
 44 46  1  0
 45 43  2  0
 48 23  1  0
 48 49  1  0
 50 48  1  0
 51 53  1  0
 51 14  1  0
 52 63  2  0
 53 58  1  0
 54 62  1  0
 54 64  1  0
 55 61  1  0
 55 57  1  0
 56 62  1  0
 57 56  1  0
 58 57  2  0
 59 60  1  0
 59 53  2  0
 60 55  2  0
 61 54  1  0
 62 52  1  0
 64 66  2  0
 65 64  1  0
 67 65  1  0
 68 77  2  0
 68 73  1  0
 69 65  1  0
 69 73  1  0
 70 69  1  0
 71 72  1  0
 71 70  1  0
 72 68  1  0
 73 74  2  0
 74 75  1  0
 76 75  2  0
 77 76  1  0
 78 52  1  0
 78 79  1  0
 78 88  1  0
 79 82  1  0
 80 84  1  0
 80 79  1  0
 81 80  2  0
 84 83  1  0
 86 84  1  0
 86 87  1  0
 86 85  1  0
 88 91  1  1
 88 89  1  0
 90 88  1  0
M  ISO  4   1 100  14 101  22 100  51 101
M  END
>  <TORSDO>  (74) 
F 15

>  <SCORE>  (74) 
-14.765

>  <name>  (74) 
73

>  <ligand_id>  (74) 
73

>  <original_smiles>  (74) 
[H]c1c([H])c([H])c2c(c1[H])C([H])([H])C([H])([H])C([H])([H])C2([H])N([H])C(=O)C1([H])N(C(=O)C([H])(N([H])C(=O)C([H])(N([H])C([H])([H])[H])C([H])([H])[H])C(C([H])([H])[H])(C([H])([H])[H])C([H])([H])[H])C([H])([H])c2c([H])c(Oc3c([H])c([H])c4c(c3[H])C([H])([H])C([H])([H])C43C([H])([H])C([H])([H])N(C(=O)N4C([H])([H])C([H])([H])C([H])([H])C([H])(n5nc(-c6c([H])c([H])c(Oc7c([H])c([H])c(F)c([H])c7F)c([H])c6[H])c(C(=O)N([H])[H])c5N([H])[H])C4([H])[H])C([H])([H])C3([H])[H])c([H])c([H])c2C1([H])[H]

>  <smiles>  (74) 
[H]c1c([H])c([H])c2c(c1[H])C([H])([H])C([H])([H])C([H])([H])C2([H])N([H])C(=O)C1([H])N(C(=O)C([H])(N([H])C(=O)C([H])(N([H])C([H])([H])[H])C([H])([H])[H])C(C([H])([H])[H])(C([H])([H])[H])C([H])([H])[H])C([H])([H])c2c([H])c(Oc3c([H])c([H])c4c(c3[H])C([H])([H])C([H])([H])C43C([H])([H])C([H])([H])N(C(=O)N4C([H])([H])C([H])([H])C([H])([H])C([H])(n5nc(-c6c([H])c([H])c(Oc7c([H])c([H])c(F)c([H])c7F)c([H])c6[H])c(C(=O)N([H])[H])c5N([H])[H])C4([H])[H])C([H])([H])C3([H])[H])c([H])c([H])c2C1([H])[H]

$$$$
74:0:0
     RDKit          3D

 89 97  0  0  1  0  0  0  0  0999 V2000
  -27.2800  -21.3170   20.3600 C   0  0  0  0  0  3  0  0  0  0  0  0
  -26.3610  -22.3820   20.5100 C   0  0  0  0  0  3  0  0  0  0  0  0
  -28.9540  -23.0520   20.1900 C   0  0  0  0  0  3  0  0  0  0  0  0
  -28.6680  -21.5140   20.2550 C   0  0  0  0  0  0  0  0  0  0  0  0
  -26.6850  -23.7660   20.5350 C   0  0  0  0  0  0  0  0  0  0  0  0
  -27.9920  -24.2870   20.2710 C   0  0  0  0  0  0  0  0  0  0  0  0
  -25.5440  -24.8410   22.2630 C   0  0  0  0  0  1  0  0  0  0  0  0
  -25.6330  -24.5710   20.8720 O   0  0  0  0  0  0  0  0  0  0  0  0
  -28.1970  -25.8410   20.1950 O   0  0  0  0  0  0  0  0  0  0  0  0
  -24.6350  -31.8710   23.1830 C   0  0  0  0  0  0  0  0  0  0  0  0
  -27.2260  -27.0010   20.1250 C   0  0  0  0  0  0  0  0  0  0  0  0
  -23.4670  -30.4930   21.5100 C   0  0  0  0  0  3  0  0  0  0  0  0
  -24.9430  -28.9250   20.0670 C   0  0  0  0  0  0  0  0  0  0  0  0
  -26.0360  -30.6970   21.4140 C   0  0  0  0  0  2  0  0  0  0  0  0
  -26.1140  -29.2940   20.7390 C   0  0  0  0  0  0  0  0  0  0  0  0
  -27.2430  -28.3470   20.7610 C   0  0  0  0  0  3  0  0  0  0  0  0
  -26.0690  -26.8560   19.3260 C   0  0  0  0  0  3  0  0  0  0  0  0
  -24.9480  -27.7270   19.3380 C   0  0  0  0  0  3  0  0  0  0  0  0
  -23.7180  -29.8390   20.1240 C   0  0  0  0  0  2  0  0  0  0  0  0
  -24.7320  -31.0490   22.0880 N   0  0  0  0  0  0  0  0  0  0  0  0
  -23.5370  -32.1500   23.6950 O   0  0  0  0  0  0  0  0  0  0  0  0
  -22.7660  -29.4790   22.4530 C   0  0  0  0  0  0  0  0  0  0  0  0
  -21.4360  -29.3150   22.3180 N   0  0  0  0  0  0  0  0  0  0  0  0
  -23.4260  -28.8410   23.2760 O   0  0  0  0  0  0  0  0  0  0  0  0
  -20.9550  -29.8810   21.6330 H   0  0  0  0  0  0  0  0  0  0  0  0
  -18.0500  -28.1070   22.8130 C   0  0  0  0  0  0  0  0  0  0  0  0
  -20.6130  -28.3620   23.0700 C   0  0  0  0  0  3  0  0  0  0  0  0
  -20.7060  -26.9430   22.4600 C   0  0  0  0  0  2  0  0  0  0  0  0
  -19.6000  -26.6490   21.4430 C   0  0  0  0  0  2  0  0  0  0  0  0
  -18.2210  -26.7770   22.0970 C   0  0  0  0  0  2  0  0  0  0  0  0
  -19.1720  -28.8580   23.2550 C   0  0  0  0  0  0  0  0  0  0  0  0
  -18.9550  -30.1010   23.8890 C   0  0  0  0  0  3  0  0  0  0  0  0
  -17.6500  -30.5940   24.0810 C   0  0  0  0  0  3  0  0  0  0  0  0
  -16.5440  -29.8410   23.6510 C   0  0  0  0  0  3  0  0  0  0  0  0
  -16.7440  -28.5980   23.0240 C   0  0  0  0  0  3  0  0  0  0  0  0
  -25.8950  -32.5130   23.8370 C   0  0  0  0  0  3  0  0  0  0  0  0
  -26.3770  -31.7490   25.1330 C   0  0  1  0  0  0  0  0  0  0  0  0
  -25.2570  -31.5220   26.1750 C   0  0  0  0  0  1  0  0  0  0  0  0
  -26.9680  -30.3660   24.7790 C   0  0  0  0  0  1  0  0  0  0  0  0
  -27.5110  -32.5480   25.8180 C   0  0  0  0  0  1  0  0  0  0  0  0
  -25.5710  -33.9120   24.1670 N   0  0  0  0  0  0  0  0  0  0  0  0
  -25.9080  -34.9770   23.4260 C   0  0  0  0  0  0  0  0  0  0  0  0
  -26.5850  -34.8840   22.3990 O   0  0  0  0  0  0  0  0  0  0  0  0
  -24.9690  -34.0580   24.9640 H   0  0  0  0  0  0  0  0  0  0  0  0
  -24.1820  -36.7800   23.0860 C   0  0  0  0  0  1  0  0  0  0  0  0
  -25.4210  -36.3640   23.8960 C   0  0  0  0  0  3  0  0  0  0  0  0
  -27.5490  -37.2500   24.7450 C   0  0  0  0  0  1  0  0  0  0  0  0
  -26.4530  -37.4180   23.7930 N   0  0  0  0  0  0  0  0  0  0  0  0
  -26.0460  -38.3380   23.9390 H   0  0  0  0  0  0  0  0  0  0  0  0
  -29.5910  -20.0150   20.4660 C   0  0  0  0  0  2  0  0  0  0  0  0
  -29.5750  -18.3390   19.7380 C   0  0  0  0  0  2  0  0  0  0  0  0
  -30.4860  -15.4660   20.0260 C   0  0  0  0  0  0  0  0  0  0  0  0
  -30.4620  -12.9950   19.1890 C   0  0  0  0  0  2  0  0  0  0  0  0
  -29.5240  -12.7830   17.9710 C   0  0  0  0  0  2  0  0  0  0  0  0
  -28.0840  -12.5080   18.4350 C   0  0  0  0  0  2  0  0  0  0  0  0
  -27.6540  -13.4650   19.5740 C   0  0  0  0  0  3  0  0  0  0  0  0
  -28.7230  -13.6240   20.6800 C   0  0  0  0  0  2  0  0  0  0  0  0
  -29.9430  -14.1400   20.0360 N   0  0  0  0  0  0  0  0  0  0  0  0
  -31.6670  -15.4790   19.6490 O   0  0  0  0  0  0  0  0  0  0  0  0
  -29.7280  -16.7320   20.2680 N   0  0  0  0  0  0  0  0  0  0  0  0
  -28.8710  -16.4720   20.7360 H   0  0  0  0  0  0  0  0  0  0  0  0
  -25.2980  -14.0130   20.3760 C   0  0  0  0  0  0  0  0  0  0  0  0
  -24.2470  -13.2340   20.7690 C   0  0  0  0  0  0  0  0  0  0  0  0
  -24.7160  -11.8850   20.7280 C   0  0  0  0  0  0  0  0  0  0  0  0
  -26.3370  -13.1420   20.1080 N   0  0  0  0  0  0  0  0  0  0  0  0
  -26.0020  -11.8540   20.3860 N   0  0  0  0  0  0  0  0  0  0  0  0
  -23.9950  -10.6220   20.9340 C   0  0  0  0  0  0  0  0  0  0  0  0
  -24.4400   -9.6580   21.8650 C   0  0  0  0  0  3  0  0  0  0  0  0
  -23.7140   -8.4620   22.0620 C   0  0  0  0  0  3  0  0  0  0  0  0
  -22.5290   -8.2210   21.3260 C   0  0  0  0  0  0  0  0  0  0  0  0
  -22.1030   -9.1740   20.3840 C   0  0  0  0  0  3  0  0  0  0  0  0
  -22.8290  -10.3600   20.1860 C   0  0  0  0  0  3  0  0  0  0  0  0
  -21.7760   -7.0780   21.4320 O   0  0  0  0  0  0  0  0  0  0  0  0
  -21.7370   -6.3450   22.5900 C   0  0  0  0  0  0  0  0  0  0  0  0
  -21.3080   -6.9060   23.8120 C   0  0  0  0  0  3  0  0  0  0  0  0
  -21.2160   -6.1000   24.9640 C   0  0  0  0  0  3  0  0  0  0  0  0
  -21.5440   -4.7330   24.8950 C   0  0  0  0  0  0  0  0  0  0  0  0
  -21.9670   -4.1700   23.6770 C   0  0  0  0  0  3  0  0  0  0  0  0
  -22.0590   -4.9740   22.5280 C   0  0  0  0  0  0  0  0  0  0  0  0
  -22.4460   -4.4220   21.3530 F   0  0  0  0  0  0  0  0  0  0  0  0
  -21.4490   -3.9550   25.9990 F   0  0  0  0  0  0  0  0  0  0  0  0
  -22.8550  -13.7100   21.0670 C   0  0  0  0  0  0  0  0  0  0  0  0
  -22.1490  -13.0210   21.9570 N   0  0  0  0  0  0  0  0  0  0  0  0
  -22.4050  -14.7300   20.5480 O   0  0  0  0  0  0  0  0  0  0  0  0
  -22.5290  -12.1970   22.3990 H   0  0  0  0  0  0  0  0  0  0  0  0
  -21.2170  -13.3240   22.1990 H   0  0  0  0  0  0  0  0  0  0  0  0
  -25.4500  -15.3850   20.1940 N   0  0  0  0  0  0  0  0  0  0  0  0
  -24.6760  -16.0290   20.3150 H   0  0  0  0  0  0  0  0  0  0  0  0
  -26.2750  -15.8270   19.8080 H   0  0  0  0  0  0  0  0  0  0  0  0
  1  2  1  0
  2  5  2  0
  3  4  1  0
  3  6  2  0
  4  1  2  0
  4 50  1  0
  5  8  1  0
  6  5  1  0
  8  7  1  0
  9  6  1  0
 10 21  2  0
 11  9  1  0
 11 16  1  0
 12 20  1  0
 12 22  1  0
 13 19  1  0
 13 15  1  0
 14 20  1  0
 15 16  2  0
 15 14  1  0
 17 18  1  0
 17 11  2  0
 18 13  2  0
 19 12  1  0
 20 10  1  0
 22 24  2  0
 23 22  1  0
 25 23  1  0
 26 35  2  0
 26 31  1  0
 27 23  1  0
 27 31  1  0
 28 27  1  0
 29 30  1  0
 29 28  1  0
 30 26  1  0
 31 32  2  0
 32 33  1  0
 34 33  2  0
 35 34  1  0
 36 10  1  0
 36 41  1  0
 36 37  1  0
 37 40  1  1
 37 38  1  0
 39 37  1  0
 41 44  1  0
 42 46  1  0
 42 41  1  0
 43 42  2  0
 46 45  1  0
 48 46  1  0
 48 49  1  0
 48 47  1  0
 51 60  1  0
 51 50  1  0
 52 58  1  0
 52 60  1  0
 53 58  1  0
 54 55  1  0
 54 53  1  0
 56 55  1  0
 56 65  1  0
 56 57  1  0
 58 57  1  0
 59 52  2  0
 60 61  1  0
 62 63  2  0
 63 82  1  0
 64 63  1  0
 64 67  1  0
 65 62  1  0
 65 66  1  0
 66 64  2  0
 67 68  1  0
 68 69  2  0
 70 73  1  0
 70 69  1  0
 71 70  2  0
 72 71  1  0
 72 67  2  0
 73 74  1  0
 74 75  1  0
 75 76  2  0
 77 76  1  0
 77 81  1  0
 78 77  2  0
 79 74  2  0
 79 78  1  0
 80 79  1  0
 82 83  1  0
 83 86  1  0
 83 85  1  0
 84 82  2  0
 87 88  1  0
 87 62  1  0
 89 87  1  0
M  ISO  4   6 101   9 101  52 100  60 100
M  END
>  <TORSDO>  (75) 
F 19

>  <SCORE>  (75) 
-14.728

>  <name>  (75) 
74

>  <ligand_id>  (75) 
74

>  <original_smiles>  (75) 
[H]c1c([H])c([H])c2c(c1[H])C([H])([H])C([H])([H])C([H])([H])C2([H])N([H])C(=O)C1([H])N(C(=O)C([H])(N([H])C(=O)C([H])(N([H])C([H])([H])[H])C([H])([H])[H])C(C([H])([H])[H])(C([H])([H])[H])C([H])([H])[H])C([H])([H])c2c([H])c(Oc3c([H])c(C([H])([H])C([H])([H])N([H])C(=O)N4C([H])([H])C([H])([H])C([H])([H])C([H])(n5nc(-c6c([H])c([H])c(Oc7c([H])c([H])c(F)c([H])c7F)c([H])c6[H])c(C(=O)N([H])[H])c5N([H])[H])C4([H])[H])c([H])c([H])c3OC([H])([H])[H])c([H])c([H])c2C1([H])[H]

>  <smiles>  (75) 
[H]c1c([H])c([H])c2c(c1[H])C([H])([H])C([H])([H])C([H])([H])C2([H])N([H])C(=O)C1([H])N(C(=O)C([H])(N([H])C(=O)C([H])(N([H])C([H])([H])[H])C([H])([H])[H])C(C([H])([H])[H])(C([H])([H])[H])C([H])([H])[H])C([H])([H])c2c([H])c(Oc3c([H])c(C([H])([H])C([H])([H])N([H])C(=O)N4C([H])([H])C([H])([H])C([H])([H])C([H])(n5nc(-c6c([H])c([H])c(Oc7c([H])c([H])c(F)c([H])c7F)c([H])c6[H])c(C(=O)N([H])[H])c5N([H])[H])C4([H])[H])c([H])c([H])c3OC([H])([H])[H])c([H])c([H])c2C1([H])[H]

$$$$
75:0:0
     RDKit          3D

 89 98  0  0  1  0  0  0  0  0999 V2000
  -26.7470  -20.9820   19.0030 C   0  0  0  0  0  3  0  0  0  0  0  0
  -27.0410  -22.3080   19.4470 C   0  0  0  0  0  3  0  0  0  0  0  0
  -29.1650  -21.4040   20.1790 C   0  0  0  0  0  3  0  0  0  0  0  0
  -27.6390  -19.8770   19.1350 C   0  0  0  0  0  0  0  0  0  0  0  0
  -28.8580  -19.9210   19.8210 C   0  0  0  0  0  0  0  0  0  0  0  0
  -28.2840  -22.6780   20.0170 C   0  0  0  0  0  0  0  0  0  0  0  0
  -27.5510  -18.6100   18.3240 C   0  0  0  0  0  2  0  0  0  0  0  0
  -29.0350  -18.1950   18.1650 C   0  0  0  0  0  2  0  0  0  0  0  0
  -29.6990  -18.3820   19.5560 C   0  0  0  0  0  3  0  0  0  0  0  0
  -30.4230  -15.4860   20.0340 C   0  0  0  0  0  0  0  0  0  0  0  0
  -30.4740  -13.0040   19.2850 C   0  0  0  0  0  2  0  0  0  0  0  0
  -29.5410  -12.7460   18.0750 C   0  0  0  0  0  2  0  0  0  0  0  0
  -28.0990  -12.4780   18.5380 C   0  0  0  0  0  2  0  0  0  0  0  0
  -27.6630  -13.4340   19.6800 C   0  0  0  0  0  3  0  0  0  0  0  0
  -28.7400  -13.5940   20.7730 C   0  0  0  0  0  2  0  0  0  0  0  0
  -29.9180  -14.1490   20.0900 N   0  0  0  0  0  0  0  0  0  0  0  0
  -31.6440  -15.4950   19.7890 O   0  0  0  0  0  0  0  0  0  0  0  0
  -29.6110  -16.7640   20.0710 N   0  0  0  0  0  0  0  0  0  0  0  0
  -28.6480  -16.5360   20.3020 H   0  0  0  0  0  0  0  0  0  0  0  0
  -25.3200  -13.9720   20.4980 C   0  0  0  0  0  0  0  0  0  0  0  0
  -24.2640  -13.1940   20.8730 C   0  0  0  0  0  0  0  0  0  0  0  0
  -24.7330  -11.8470   20.8220 C   0  0  0  0  0  0  0  0  0  0  0  0
  -26.3540  -13.1060   20.2170 N   0  0  0  0  0  0  0  0  0  0  0  0
  -26.0180  -11.8200   20.4810 N   0  0  0  0  0  0  0  0  0  0  0  0
  -24.0150  -10.5800   21.0090 C   0  0  0  0  0  0  0  0  0  0  0  0
  -24.4490   -9.6070   21.9370 C   0  0  0  0  0  3  0  0  0  0  0  0
  -23.7250   -8.4060   22.1170 C   0  0  0  0  0  3  0  0  0  0  0  0
  -22.5480   -8.1690   21.3670 C   0  0  0  0  0  0  0  0  0  0  0  0
  -22.1320   -9.1280   20.4240 C   0  0  0  0  0  3  0  0  0  0  0  0
  -22.8580  -10.3180   20.2460 C   0  0  0  0  0  3  0  0  0  0  0  0
  -21.7980   -7.0190   21.4530 O   0  0  0  0  0  0  0  0  0  0  0  0
  -21.7280   -6.2910   22.6130 C   0  0  0  0  0  0  0  0  0  0  0  0
  -21.2520   -6.8470   23.8210 C   0  0  0  0  0  3  0  0  0  0  0  0
  -21.1380   -6.0380   24.9670 C   0  0  0  0  0  3  0  0  0  0  0  0
  -21.4910   -4.6770   24.9090 C   0  0  0  0  0  0  0  0  0  0  0  0
  -21.9630   -4.1220   23.7060 C   0  0  0  0  0  3  0  0  0  0  0  0
  -22.0800   -4.9270   22.5600 C   0  0  0  0  0  0  0  0  0  0  0  0
  -22.5160   -4.3810   21.3980 F   0  0  0  0  0  0  0  0  0  0  0  0
  -21.3730   -3.9000   26.0110 F   0  0  0  0  0  0  0  0  0  0  0  0
  -22.8720  -13.6670   21.1700 C   0  0  0  0  0  0  0  0  0  0  0  0
  -22.1510  -12.9590   22.0340 N   0  0  0  0  0  0  0  0  0  0  0  0
  -22.4340  -14.7040   20.6700 O   0  0  0  0  0  0  0  0  0  0  0  0
  -22.5250  -12.1240   22.4660 H   0  0  0  0  0  0  0  0  0  0  0  0
  -21.2200  -13.2750   22.2750 H   0  0  0  0  0  0  0  0  0  0  0  0
  -25.4920  -15.3400   20.3520 N   0  0  0  0  0  0  0  0  0  0  0  0
  -24.7580  -16.0150   20.5170 H   0  0  0  0  0  0  0  0  0  0  0  0
  -26.3530  -15.7750   20.0600 H   0  0  0  0  0  0  0  0  0  0  0  0
  -28.4740  -24.3420   20.5890 C   0  0  0  0  0  2  0  0  0  0  0  0
  -28.2620  -25.9180   20.0740 O   0  0  0  0  0  0  0  0  0  0  0  0
  -24.6240  -31.9160   23.1830 C   0  0  0  0  0  0  0  0  0  0  0  0
  -27.2090  -26.9780   20.2140 C   0  0  0  0  0  0  0  0  0  0  0  0
  -23.4460  -30.4950   21.5600 C   0  0  0  0  0  3  0  0  0  0  0  0
  -24.9030  -28.8610   20.1750 C   0  0  0  0  0  0  0  0  0  0  0  0
  -26.0150  -30.6970   21.4300 C   0  0  0  0  0  2  0  0  0  0  0  0
  -26.0930  -29.2740   20.7890 C   0  0  0  0  0  0  0  0  0  0  0  0
  -27.2440  -28.3550   20.7740 C   0  0  0  0  0  3  0  0  0  0  0  0
  -25.9820  -26.7190   19.5780 C   0  0  0  0  0  3  0  0  0  0  0  0
  -24.8690  -27.6000   19.5560 C   0  0  0  0  0  3  0  0  0  0  0  0
  -23.6890  -29.7890   20.1970 C   0  0  0  0  0  2  0  0  0  0  0  0
  -24.7170  -31.0680   22.1060 N   0  0  0  0  0  0  0  0  0  0  0  0
  -23.5290  -32.2060   23.6930 O   0  0  0  0  0  0  0  0  0  0  0  0
  -22.7510  -29.5100   22.5390 C   0  0  0  0  0  0  0  0  0  0  0  0
  -21.4250  -29.3300   22.4050 N   0  0  0  0  0  0  0  0  0  0  0  0
  -23.4180  -28.8950   23.3770 O   0  0  0  0  0  0  0  0  0  0  0  0
  -20.9330  -29.8750   21.7100 H   0  0  0  0  0  0  0  0  0  0  0  0
  -18.0410  -28.1320   22.9690 C   0  0  0  0  0  0  0  0  0  0  0  0
  -20.6050  -28.4010   23.1880 C   0  0  0  0  0  3  0  0  0  0  0  0
  -20.6930  -26.9720   22.6070 C   0  0  0  0  0  2  0  0  0  0  0  0
  -19.5790  -26.6720   21.5980 C   0  0  0  0  0  2  0  0  0  0  0  0
  -18.2120  -26.7900   22.2770 C   0  0  0  0  0  2  0  0  0  0  0  0
  -19.1650  -28.9010   23.3710 C   0  0  0  0  0  0  0  0  0  0  0  0
  -18.9520  -30.1660   23.9610 C   0  0  0  0  0  3  0  0  0  0  0  0
  -17.6480  -30.6650   24.1500 C   0  0  0  0  0  3  0  0  0  0  0  0
  -16.5390  -29.8930   23.7590 C   0  0  0  0  0  3  0  0  0  0  0  0
  -16.7360  -28.6310   23.1740 C   0  0  0  0  0  3  0  0  0  0  0  0
  -25.8850  -32.5730   23.8200 C   0  0  0  0  0  3  0  0  0  0  0  0
  -25.5520  -33.9740   24.1390 N   0  0  0  0  0  0  0  0  0  0  0  0
  -25.8790  -35.0350   23.3910 C   0  0  0  0  0  0  0  0  0  0  0  0
  -26.5590  -34.9400   22.3700 O   0  0  0  0  0  0  0  0  0  0  0  0
  -24.9470  -34.1240   24.9290 H   0  0  0  0  0  0  0  0  0  0  0  0
  -24.1570  -36.8310   23.0190 C   0  0  0  0  0  1  0  0  0  0  0  0
  -25.3840  -36.4230   23.8470 C   0  0  0  0  0  3  0  0  0  0  0  0
  -27.5010  -37.3140   24.7190 C   0  0  0  0  0  1  0  0  0  0  0  0
  -26.4140  -37.4830   23.7580 N   0  0  0  0  0  0  0  0  0  0  0  0
  -26.0010  -38.4010   23.9020 H   0  0  0  0  0  0  0  0  0  0  0  0
  -26.3870  -31.8300   25.1200 C   0  0  1  0  0  0  0  0  0  0  0  0
  -25.2750  -31.6010   26.1700 C   0  0  0  0  0  1  0  0  0  0  0  0
  -26.9910  -30.4540   24.7690 C   0  0  0  0  0  1  0  0  0  0  0  0
  -27.5200  -32.6470   25.7840 C   0  0  0  0  0  1  0  0  0  0  0  0
  1  4  2  0
  1  2  1  0
  2  6  2  0
  4  5  1  0
  5  3  2  0
  6  3  1  0
  6 48  1  0
  7  4  1  0
  8  7  1  0
  8  9  1  0
  9  5  1  0
  9 18  1  0
 10 18  1  0
 10 16  1  0
 11 16  1  0
 12 13  1  0
 12 11  1  0
 14 13  1  0
 14 23  1  0
 14 15  1  0
 16 15  1  0
 17 10  2  0
 18 19  1  0
 20 21  2  0
 21 40  1  0
 22 21  1  0
 22 25  1  0
 23 24  1  0
 23 20  1  0
 24 22  2  0
 25 26  1  0
 26 27  2  0
 28 31  1  0
 28 27  1  0
 29 28  2  0
 30 29  1  0
 30 25  2  0
 31 32  1  0
 32 33  1  0
 33 34  2  0
 35 34  1  0
 35 39  1  0
 36 35  2  0
 37 32  2  0
 37 36  1  0
 38 37  1  0
 40 41  1  0
 41 44  1  0
 41 43  1  0
 42 40  2  0
 45 20  1  0
 45 46  1  0
 47 45  1  0
 49 51  1  0
 49 48  1  0
 50 61  2  0
 51 56  1  0
 52 60  1  0
 52 62  1  0
 53 59  1  0
 53 55  1  0
 54 60  1  0
 55 54  1  0
 56 55  2  0
 57 51  2  0
 58 57  1  0
 58 53  2  0
 59 52  1  0
 60 50  1  0
 62 64  2  0
 63 62  1  0
 65 63  1  0
 66 75  2  0
 66 71  1  0
 67 63  1  0
 67 71  1  0
 68 67  1  0
 69 70  1  0
 69 68  1  0
 70 66  1  0
 71 72  2  0
 72 73  1  0
 74 73  2  0
 75 74  1  0
 76 50  1  0
 76 77  1  0
 76 86  1  0
 77 80  1  0
 78 82  1  0
 78 77  1  0
 79 78  2  0
 82 81  1  0
 84 82  1  0
 84 85  1  0
 84 83  1  0
 86 89  1  1
 86 87  1  0
 88 86  1  0
M  ISO  4  10 100  18 100  48 101  49 101
M  END
>  <TORSDO>  (76) 
F 17

>  <SCORE>  (76) 
-16.681

>  <name>  (76) 
75

>  <ligand_id>  (76) 
75

>  <original_smiles>  (76) 
[H]c1c([H])c([H])c2c(c1[H])C([H])([H])C([H])([H])C([H])([H])C2([H])N([H])C(=O)C1([H])N(C(=O)C([H])(N([H])C(=O)C([H])(N([H])C([H])([H])[H])C([H])([H])[H])C(C([H])([H])[H])(C([H])([H])[H])C([H])([H])[H])C([H])([H])c2c([H])c(OC([H])([H])c3c([H])c([H])c4c(c3[H])C([H])(N([H])C(=O)N3C([H])([H])C([H])([H])C([H])([H])C([H])(n5nc(-c6c([H])c([H])c(Oc7c([H])c([H])c(F)c([H])c7F)c([H])c6[H])c(C(=O)N([H])[H])c5N([H])[H])C3([H])[H])C([H])([H])C4([H])[H])c([H])c([H])c2C1([H])[H]

>  <smiles>  (76) 
[H]c1c([H])c([H])c2c(c1[H])C([H])([H])C([H])([H])C([H])([H])C2([H])N([H])C(=O)C1([H])N(C(=O)C([H])(N([H])C(=O)C([H])(N([H])C([H])([H])[H])C([H])([H])[H])C(C([H])([H])[H])(C([H])([H])[H])C([H])([H])[H])C([H])([H])c2c([H])c(OC([H])([H])c3c([H])c([H])c4c(c3[H])C([H])(N([H])C(=O)N3C([H])([H])C([H])([H])C([H])([H])C([H])(n5nc(-c6c([H])c([H])c(Oc7c([H])c([H])c(F)c([H])c7F)c([H])c6[H])c(C(=O)N([H])[H])c5N([H])[H])C3([H])[H])C([H])([H])C4([H])[H])c([H])c([H])c2C1([H])[H]

$$$$
76:0:0
     RDKit          3D

 93102  0  0  1  0  0  0  0  0999 V2000
  -27.3090  -22.9300   17.6790 C   0  0  0  0  0  3  0  0  0  0  0  0
  -27.6210  -21.6000   17.9970 C   0  0  0  0  0  3  0  0  0  0  0  0
  -27.5790  -24.0220   18.5170 C   0  0  0  0  0  3  0  0  0  0  0  0
  -29.7090  -20.0510   21.1560 C   0  0  0  0  0  3  0  0  0  0  0  0
  -28.3060  -21.2160   19.1720 C   0  0  0  0  0  0  0  0  0  0  0  0
  -28.6050  -22.3790   20.0850 C   0  0  0  0  0  0  0  0  0  0  0  0
  -29.3940  -18.8960   20.2430 C   0  0  0  0  0  0  0  0  0  0  0  0
  -28.1440  -23.9670   19.8100 C   0  0  0  0  0  0  0  0  0  0  0  0
  -29.3680  -21.5660   21.0980 C   0  0  0  0  0  0  0  0  0  0  0  0
  -28.6200  -19.7020   19.2650 C   0  0  0  0  0  0  0  0  0  0  0  0
  -30.3390  -15.8230   20.2880 C   0  0  0  0  0  0  0  0  0  0  0  0
  -30.5060  -13.2620   19.4860 C   0  0  0  0  0  2  0  0  0  0  0  0
  -29.6290  -12.8090   18.2820 C   0  0  0  0  0  2  0  0  0  0  0  0
  -28.2100  -12.4320   18.7350 C   0  0  0  0  0  2  0  0  0  0  0  0
  -27.6750  -13.4350   19.7810 C   0  0  0  0  0  3  0  0  0  0  0  0
  -28.6960  -13.7860   20.8900 C   0  0  0  0  0  2  0  0  0  0  0  0
  -29.8520  -14.4370   20.2260 N   0  0  0  0  0  0  0  0  0  0  0  0
  -31.5780  -15.7850   20.1460 O   0  0  0  0  0  0  0  0  0  0  0  0
  -29.5070  -17.1530   20.3100 N   0  0  0  0  0  0  0  0  0  0  0  0
  -28.5590  -16.8130   20.2380 H   0  0  0  0  0  0  0  0  0  0  0  0
  -25.3090  -13.9300   20.5560 C   0  0  0  0  0  0  0  0  0  0  0  0
  -24.2580  -13.1350   20.9130 C   0  0  0  0  0  0  0  0  0  0  0  0
  -24.7430  -11.7910   20.8650 C   0  0  0  0  0  0  0  0  0  0  0  0
  -26.3630  -13.0750   20.3000 N   0  0  0  0  0  0  0  0  0  0  0  0
  -26.0370  -11.7790   20.5550 N   0  0  0  0  0  0  0  0  0  0  0  0
  -24.0280  -10.5190   21.0390 C   0  0  0  0  0  0  0  0  0  0  0  0
  -24.4470   -9.5570   21.9830 C   0  0  0  0  0  3  0  0  0  0  0  0
  -23.7250   -8.3540   22.1470 C   0  0  0  0  0  3  0  0  0  0  0  0
  -22.5720   -8.1040   21.3650 C   0  0  0  0  0  0  0  0  0  0  0  0
  -22.1730   -9.0560   20.4100 C   0  0  0  0  0  3  0  0  0  0  0  0
  -22.8950  -10.2490   20.2450 C   0  0  0  0  0  3  0  0  0  0  0  0
  -21.8270   -6.9520   21.4370 O   0  0  0  0  0  0  0  0  0  0  0  0
  -21.7280   -6.2290   22.5990 C   0  0  0  0  0  0  0  0  0  0  0  0
  -21.1740   -6.7810   23.7740 C   0  0  0  0  0  3  0  0  0  0  0  0
  -21.0270   -5.9820   24.9260 C   0  0  0  0  0  3  0  0  0  0  0  0
  -21.4240   -4.6320   24.9020 C   0  0  0  0  0  0  0  0  0  0  0  0
  -21.9710   -4.0790   23.7300 C   0  0  0  0  0  3  0  0  0  0  0  0
  -22.1190   -4.8750   22.5820 C   0  0  0  0  0  0  0  0  0  0  0  0
  -22.6270   -4.3320   21.4490 F   0  0  0  0  0  0  0  0  0  0  0  0
  -21.2780   -3.8620   26.0060 F   0  0  0  0  0  0  0  0  0  0  0  0
  -22.8550  -13.5940   21.1790 C   0  0  0  0  0  0  0  0  0  0  0  0
  -22.1280  -12.8820   22.0320 N   0  0  0  0  0  0  0  0  0  0  0  0
  -22.4120  -14.6220   20.6660 O   0  0  0  0  0  0  0  0  0  0  0  0
  -22.5000  -12.0520   22.4690 H   0  0  0  0  0  0  0  0  0  0  0  0
  -21.1870  -13.1730   22.2540 H   0  0  0  0  0  0  0  0  0  0  0  0
  -25.4500  -15.3060   20.3910 N   0  0  0  0  0  0  0  0  0  0  0  0
  -24.6670  -15.9410   20.5020 H   0  0  0  0  0  0  0  0  0  0  0  0
  -26.2760  -15.7570   20.0230 H   0  0  0  0  0  0  0  0  0  0  0  0
  -29.8450  -22.3000   22.1480 O   0  0  0  0  0  0  0  0  0  0  0  0
  -30.3460  -21.7870   22.7750 H   0  0  0  0  0  0  0  0  0  0  0  0
  -28.1020  -18.8830   18.2990 O   0  0  0  0  0  0  0  0  0  0  0  0
  -27.5270  -19.3440   17.7000 H   0  0  0  0  0  0  0  0  0  0  0  0
  -28.1640  -25.5170   20.3210 O   0  0  0  0  0  0  0  0  0  0  0  0
  -24.6570  -31.8710   23.2430 C   0  0  0  0  0  0  0  0  0  0  0  0
  -27.2080  -26.7690   20.2280 C   0  0  0  0  0  0  0  0  0  0  0  0
  -23.4770  -30.4740   21.6060 C   0  0  0  0  0  3  0  0  0  0  0  0
  -24.9310  -28.8340   20.1900 C   0  0  0  0  0  0  0  0  0  0  0  0
  -26.0600  -30.6120   21.4910 C   0  0  0  0  0  2  0  0  0  0  0  0
  -26.1300  -29.1780   20.8250 C   0  0  0  0  0  0  0  0  0  0  0  0
  -27.2470  -28.1760   20.8130 C   0  0  0  0  0  3  0  0  0  0  0  0
  -25.9520  -26.6480   19.5660 C   0  0  0  0  0  3  0  0  0  0  0  0
  -24.8840  -27.5940   19.5390 C   0  0  0  0  0  3  0  0  0  0  0  0
  -23.7230  -29.7840   20.2340 C   0  0  0  0  0  2  0  0  0  0  0  0
  -24.7570  -31.0180   22.1660 N   0  0  0  0  0  0  0  0  0  0  0  0
  -23.5610  -32.1670   23.7510 O   0  0  0  0  0  0  0  0  0  0  0  0
  -22.7600  -29.4920   22.5740 C   0  0  0  0  0  0  0  0  0  0  0  0
  -21.4300  -29.3210   22.4360 N   0  0  0  0  0  0  0  0  0  0  0  0
  -23.4130  -28.8820   23.4240 O   0  0  0  0  0  0  0  0  0  0  0  0
  -20.9520  -29.8640   21.7310 H   0  0  0  0  0  0  0  0  0  0  0  0
  -18.0550  -28.0560   22.9150 C   0  0  0  0  0  0  0  0  0  0  0  0
  -20.6070  -28.3790   23.2070 C   0  0  0  0  0  3  0  0  0  0  0  0
  -20.7420  -26.9410   22.6510 C   0  0  0  0  0  2  0  0  0  0  0  0
  -19.6610  -26.5870   21.6240 C   0  0  0  0  0  2  0  0  0  0  0  0
  -18.2680  -26.7080   22.2490 C   0  0  0  0  0  2  0  0  0  0  0  0
  -19.1520  -28.8480   23.3500 C   0  0  0  0  0  0  0  0  0  0  0  0
  -18.8960  -30.1050   23.9380 C   0  0  0  0  0  3  0  0  0  0  0  0
  -17.5770  -30.5730   24.0930 C   0  0  0  0  0  3  0  0  0  0  0  0
  -16.4960  -29.7810   23.6700 C   0  0  0  0  0  3  0  0  0  0  0  0
  -16.7360  -28.5250   23.0880 C   0  0  0  0  0  3  0  0  0  0  0  0
  -25.9140  -32.5280   23.8890 C   0  0  0  0  0  3  0  0  0  0  0  0
  -25.5970  -33.9400   24.1850 N   0  0  0  0  0  0  0  0  0  0  0  0
  -25.9540  -34.9880   23.4310 C   0  0  0  0  0  0  0  0  0  0  0  0
  -26.6420  -34.8690   22.4140 O   0  0  0  0  0  0  0  0  0  0  0  0
  -24.9860  -34.1060   24.9720 H   0  0  0  0  0  0  0  0  0  0  0  0
  -24.2650  -36.8160   23.0290 C   0  0  0  0  0  1  0  0  0  0  0  0
  -25.4800  -36.3910   23.8710 C   0  0  0  0  0  3  0  0  0  0  0  0
  -27.5990  -37.2630   24.7570 C   0  0  0  0  0  1  0  0  0  0  0  0
  -26.5310  -37.4280   23.7740 N   0  0  0  0  0  0  0  0  0  0  0  0
  -26.1330  -38.3560   23.8920 H   0  0  0  0  0  0  0  0  0  0  0  0
  -26.3820  -31.8000   25.2100 C   0  0  1  0  0  0  0  0  0  0  0  0
  -25.2540  -31.6070   26.2520 C   0  0  0  0  0  1  0  0  0  0  0  0
  -26.9660  -30.4040   24.8980 C   0  0  0  0  0  1  0  0  0  0  0  0
  -27.5190  -32.6080   25.8790 C   0  0  0  0  0  1  0  0  0  0  0  0
  1  2  2  0
  1  3  1  0
  2  5  1  0
  3  8  2  0
  5 10  2  0
  5  6  1  0
  6  9  2  0
  7 19  1  0
  7  4  2  0
  8  6  1  0
  8 53  1  0
  9  4  1  0
  9 49  1  0
 10  7  1  0
 11 19  1  0
 12 17  1  0
 13 14  1  0
 13 12  1  0
 15 14  1  0
 15 24  1  0
 15 16  1  0
 17 11  1  0
 17 16  1  0
 18 11  2  0
 20 19  1  0
 21 22  2  0
 22 41  1  0
 23 22  1  0
 23 26  1  0
 24 25  1  0
 24 21  1  0
 25 23  2  0
 26 27  1  0
 27 28  2  0
 29 32  1  0
 29 28  1  0
 30 29  2  0
 31 30  1  0
 31 26  2  0
 32 33  1  0
 33 34  1  0
 34 35  2  0
 36 35  1  0
 36 40  1  0
 37 36  2  0
 38 33  2  0
 38 37  1  0
 39 38  1  0
 41 42  1  0
 42 45  1  0
 42 44  1  0
 43 41  2  0
 46 47  1  0
 46 21  1  0
 48 46  1  0
 49 50  1  0
 51 10  1  0
 52 51  1  0
 54 65  2  0
 55 53  1  0
 55 60  1  0
 56 64  1  0
 56 66  1  0
 57 63  1  0
 57 59  1  0
 58 64  1  0
 59 58  1  0
 60 59  2  0
 61 55  2  0
 62 61  1  0
 62 57  2  0
 63 56  1  0
 64 54  1  0
 66 68  2  0
 67 66  1  0
 69 67  1  0
 70 79  2  0
 70 75  1  0
 71 67  1  0
 71 75  1  0
 72 71  1  0
 73 74  1  0
 73 72  1  0
 74 70  1  0
 75 76  2  0
 76 77  1  0
 78 77  2  0
 79 78  1  0
 80 54  1  0
 80 81  1  0
 80 90  1  0
 81 84  1  0
 82 86  1  0
 82 81  1  0
 83 82  2  0
 86 85  1  0
 88 86  1  0
 88 89  1  0
 88 87  1  0
 90 93  1  1
 90 91  1  0
 92 90  1  0
M  ISO  4   8 101  11 100  19 100  53 101
M  END
>  <TORSDO>  (77) 
F 18

>  <SCORE>  (77) 
-15.422

>  <name>  (77) 
76

>  <ligand_id>  (77) 
76

>  <original_smiles>  (77) 
[H]Oc1c(N([H])C(=O)N2C([H])([H])C([H])([H])C([H])([H])C([H])(n3nc(-c4c([H])c([H])c(Oc5c([H])c([H])c(F)c([H])c5F)c([H])c4[H])c(C(=O)N([H])[H])c3N([H])[H])C2([H])[H])c([H])c(O[H])c2c(Oc3c([H])c([H])c4c(c3[H])C([H])([H])N(C(=O)C([H])(N([H])C(=O)C([H])(N([H])C([H])([H])[H])C([H])([H])[H])C(C([H])([H])[H])(C([H])([H])[H])C([H])([H])[H])C([H])(C(=O)N([H])C3([H])c5c([H])c([H])c([H])c([H])c5C([H])([H])C([H])([H])C3([H])[H])C4([H])[H])c([H])c([H])c([H])c12

>  <smiles>  (77) 
[H]Oc1c(N([H])C(=O)N2C([H])([H])C([H])([H])C([H])([H])C([H])(n3nc(-c4c([H])c([H])c(Oc5c([H])c([H])c(F)c([H])c5F)c([H])c4[H])c(C(=O)N([H])[H])c3N([H])[H])C2([H])[H])c([H])c(O[H])c2c(Oc3c([H])c([H])c4c(c3[H])C([H])([H])N(C(=O)C([H])(N([H])C(=O)C([H])(N([H])C([H])([H])[H])C([H])([H])[H])C(C([H])([H])[H])(C([H])([H])[H])C([H])([H])[H])C([H])(C(=O)N([H])C3([H])c5c([H])c([H])c([H])c([H])c5C([H])([H])C([H])([H])C3([H])[H])C4([H])[H])c([H])c([H])c([H])c12

$$$$
77:0:0
     RDKit          3D

101111  0  0  1  0  0  0  0  0999 V2000
  -28.2150  -24.9050   18.6420 C   0  0  0  0  0  2  0  0  0  0  0  0
  -30.1140  -26.2520   19.6030 C   0  0  0  0  0  2  0  0  0  0  0  0
  -28.2490  -23.9080   19.8040 C   0  0  0  0  0  2  0  0  0  0  0  0
  -30.6480  -24.8350   19.9340 C   0  0  0  0  0  2  0  0  0  0  0  0
  -28.6290  -26.2610   19.2220 C   0  0  0  0  0  3  0  0  0  0  0  0
  -29.6380  -23.7880   20.5280 C   0  0  1  0  0  0  0  0  0  0  0  0
  -29.8790  -25.0820   22.7560 C   0  0  0  0  0  3  0  0  0  0  0  0
  -29.6910  -25.2490   24.1410 C   0  0  0  0  0  3  0  0  0  0  0  0
  -28.4810  -23.1530   24.2200 C   0  0  0  0  0  3  0  0  0  0  0  0
  -29.3870  -23.9440   22.0630 C   0  0  0  0  0  0  0  0  0  0  0  0
  -28.9910  -24.2840   24.8790 C   0  0  0  0  0  0  0  0  0  0  0  0
  -28.6740  -22.9670   22.8320 C   0  0  0  0  0  0  0  0  0  0  0  0
  -28.8050  -24.4430   26.3750 C   0  0  0  0  0  1  0  0  0  0  0  0
  -28.0990  -21.6840   22.2410 C   0  0  0  0  0  1  0  0  0  0  0  0
  -31.0530  -21.7850   21.2620 C   0  0  0  0  0  3  0  0  0  0  0  0
  -30.2140  -21.7970   18.9820 C   0  0  0  0  0  3  0  0  0  0  0  0
  -31.5600  -20.4880   21.0720 C   0  0  0  0  0  3  0  0  0  0  0  0
  -30.6930  -20.4890   18.7990 C   0  0  0  0  0  3  0  0  0  0  0  0
  -30.3070  -22.4290   20.2460 C   0  0  0  0  0  0  0  0  0  0  0  0
  -31.3190  -19.8090   19.8600 C   0  0  0  0  0  0  0  0  0  0  0  0
  -31.6490  -18.3360   19.6840 C   0  0  0  0  0  2  0  0  0  0  0  0
  -31.3450  -17.4670   20.9270 C   0  0  0  0  0  2  0  0  0  0  0  0
  -31.3940  -15.2900   19.6470 C   0  0  0  0  0  0  0  0  0  0  0  0
  -30.9850  -13.1530   18.4890 C   0  0  0  0  0  2  0  0  0  0  0  0
  -29.8940  -13.3110   17.4130 C   0  0  0  0  0  2  0  0  0  0  0  0
  -28.4880  -13.1350   18.0210 C   0  0  0  0  0  2  0  0  0  0  0  0
  -28.2820  -13.9920   19.2990 C   0  0  0  0  0  3  0  0  0  0  0  0
  -29.4620  -13.7920   20.2730 C   0  0  0  0  0  2  0  0  0  0  0  0
  -30.7140  -14.1190   19.5600 N   0  0  0  0  0  0  0  0  0  0  0  0
  -32.3250  -15.6010   18.8980 O   0  0  0  0  0  0  0  0  0  0  0  0
  -30.9550  -16.0950   20.6170 N   0  0  0  0  0  0  0  0  0  0  0  0
  -30.2090  -15.7130   21.1770 H   0  0  0  0  0  0  0  0  0  0  0  0
  -26.0600  -14.5670   20.4730 C   0  0  0  0  0  0  0  0  0  0  0  0
  -25.0150  -13.7820   20.8850 C   0  0  0  0  0  0  0  0  0  0  0  0
  -25.3780  -12.4390   20.5600 C   0  0  0  0  0  0  0  0  0  0  0  0
  -26.9990  -13.6980   19.9370 N   0  0  0  0  0  0  0  0  0  0  0  0
  -26.5970  -12.4050   20.0400 N   0  0  0  0  0  0  0  0  0  0  0  0
  -24.6120  -11.1910   20.6630 C   0  0  0  0  0  0  0  0  0  0  0  0
  -25.1150  -10.0730   21.3650 C   0  0  0  0  0  3  0  0  0  0  0  0
  -24.3530   -8.8890   21.4640 C   0  0  0  0  0  3  0  0  0  0  0  0
  -23.0760   -8.8130   20.8600 C   0  0  0  0  0  0  0  0  0  0  0  0
  -22.5900   -9.9220   20.1440 C   0  0  0  0  0  3  0  0  0  0  0  0
  -23.3510  -11.0980   20.0410 C   0  0  0  0  0  3  0  0  0  0  0  0
  -22.2760   -7.6960   20.8830 O   0  0  0  0  0  0  0  0  0  0  0  0
  -22.1960   -6.8900   21.9910 C   0  0  0  0  0  0  0  0  0  0  0  0
  -21.8240   -7.3970   23.2550 C   0  0  0  0  0  3  0  0  0  0  0  0
  -21.6860   -6.5220   24.3500 C   0  0  0  0  0  3  0  0  0  0  0  0
  -21.9110   -5.1420   24.1840 C   0  0  0  0  0  0  0  0  0  0  0  0
  -22.2770   -4.6360   22.9230 C   0  0  0  0  0  3  0  0  0  0  0  0
  -22.4180   -5.5080   21.8300 C   0  0  0  0  0  0  0  0  0  0  0  0
  -22.7490   -5.0120   20.6130 F   0  0  0  0  0  0  0  0  0  0  0  0
  -21.7710   -4.3000   25.2340 F   0  0  0  0  0  0  0  0  0  0  0  0
  -23.7100  -14.2570   21.4590 C   0  0  0  0  0  0  0  0  0  0  0  0
  -23.0900  -13.4530   22.3170 N   0  0  0  0  0  0  0  0  0  0  0  0
  -23.2570  -15.3670   21.1880 O   0  0  0  0  0  0  0  0  0  0  0  0
  -23.4740  -12.5510   22.5560 H   0  0  0  0  0  0  0  0  0  0  0  0
  -22.2190  -13.7430   22.7380 H   0  0  0  0  0  0  0  0  0  0  0  0
  -26.2810  -15.9400   20.4940 N   0  0  0  0  0  0  0  0  0  0  0  0
  -25.5850  -16.5960   20.8330 H   0  0  0  0  0  0  0  0  0  0  0  0
  -27.1040  -16.3940   20.1180 H   0  0  0  0  0  0  0  0  0  0  0  0
  -28.3440  -27.3430   18.3390 O   0  0  0  0  0  0  0  0  0  0  0  0
  -24.3570  -31.2700   22.6900 C   0  0  0  0  0  0  0  0  0  0  0  0
  -27.1160  -27.9210   18.5520 C   0  0  0  0  0  0  0  0  0  0  0  0
  -23.1450  -30.1290   20.8600 C   0  0  0  0  0  3  0  0  0  0  0  0
  -24.6030  -29.0990   19.0450 C   0  0  0  0  0  0  0  0  0  0  0  0
  -25.6000  -30.7960   20.5860 C   0  0  0  0  0  2  0  0  0  0  0  0
  -25.7520  -29.6130   19.6570 C   0  0  0  0  0  0  0  0  0  0  0  0
  -27.0120  -29.0320   19.4100 C   0  0  0  0  0  3  0  0  0  0  0  0
  -25.9490  -27.4070   17.9430 C   0  0  0  0  0  3  0  0  0  0  0  0
  -24.6940  -27.9900   18.1880 C   0  0  0  0  0  3  0  0  0  0  0  0
  -23.2930  -29.7840   19.3540 C   0  0  0  0  0  2  0  0  0  0  0  0
  -24.3890  -30.7360   21.4370 N   0  0  0  0  0  0  0  0  0  0  0  0
  -23.3060  -31.3040   23.3430 O   0  0  0  0  0  0  0  0  0  0  0  0
  -22.6750  -28.8630   21.6090 C   0  0  0  0  0  0  0  0  0  0  0  0
  -21.3630  -28.5860   21.5450 N   0  0  0  0  0  0  0  0  0  0  0  0
  -23.4810  -28.1460   22.2080 O   0  0  0  0  0  0  0  0  0  0  0  0
  -20.7680  -29.2260   21.0390 H   0  0  0  0  0  0  0  0  0  0  0  0
  -18.1550  -26.9900   22.0010 C   0  0  0  0  0  0  0  0  0  0  0  0
  -20.6970  -27.4290   22.1430 C   0  0  0  0  0  3  0  0  0  0  0  0
  -20.8630  -26.1720   21.2580 C   0  0  0  0  0  2  0  0  0  0  0  0
  -19.7010  -25.9670   20.2800 C   0  0  0  0  0  2  0  0  0  0  0  0
  -18.3750  -25.8400   21.0330 C   0  0  0  0  0  2  0  0  0  0  0  0
  -19.2430  -27.7450   22.5090 C   0  0  0  0  0  0  0  0  0  0  0  0
  -18.9790  -28.8290   23.3760 C   0  0  0  0  0  3  0  0  0  0  0  0
  -17.6590  -29.1530   23.7420 C   0  0  0  0  0  3  0  0  0  0  0  0
  -16.5870  -28.3890   23.2500 C   0  0  0  0  0  3  0  0  0  0  0  0
  -16.8350  -27.3100   22.3840 C   0  0  0  0  0  3  0  0  0  0  0  0
  -25.6310  -31.8860   23.3500 C   0  0  0  0  0  3  0  0  0  0  0  0
  -26.1930  -31.0220   24.5440 C   0  0  1  0  0  0  0  0  0  0  0  0
  -25.1270  -30.6550   25.6040 C   0  0  0  0  0  1  0  0  0  0  0  0
  -26.8110  -29.7050   24.0180 C   0  0  0  0  0  1  0  0  0  0  0  0
  -27.3330  -31.7900   25.2540 C   0  0  0  0  0  1  0  0  0  0  0  0
  -25.2820  -33.2370   23.8030 N   0  0  0  0  0  0  0  0  0  0  0  0
  -25.6610  -34.3660   23.1890 C   0  0  0  0  0  0  0  0  0  0  0  0
  -26.4150  -34.3770   22.2120 O   0  0  0  0  0  0  0  0  0  0  0  0
  -24.6310  -33.3040   24.5700 H   0  0  0  0  0  0  0  0  0  0  0  0
  -23.9800  -36.2070   22.8630 C   0  0  0  0  0  1  0  0  0  0  0  0
  -25.1220  -35.6940   23.7540 C   0  0  0  0  0  3  0  0  0  0  0  0
  -27.1440  -36.4430   24.9230 C   0  0  0  0  0  1  0  0  0  0  0  0
  -26.1560  -36.7410   23.8900 N   0  0  0  0  0  0  0  0  0  0  0  0
  -25.7320  -37.6380   24.1100 H   0  0  0  0  0  0  0  0  0  0  0  0
  1  5  1  0
  1  3  1  0
  2  4  1  0
  3  6  1  0
  4  6  1  0
  5 61  1  0
  5  2  1  0
  6 19  1  1
  6 10  1  0
  7  8  1  0
  8 11  2  0
  9 11  1  0
 10  7  2  0
 10 12  1  0
 11 13  1  0
 12  9  2  0
 14 12  1  0
 16 19  1  0
 17 15  1  0
 18 16  2  0
 18 20  1  0
 19 15  2  0
 20 17  2  0
 21 20  1  0
 21 22  1  0
 23 31  1  0
 24 29  1  0
 25 26  1  0
 25 24  1  0
 27 26  1  0
 27 36  1  0
 27 28  1  0
 29 23  1  0
 29 28  1  0
 30 23  2  0
 31 22  1  0
 31 32  1  0
 33 58  1  0
 33 34  2  0
 34 53  1  0
 35 38  1  0
 35 34  1  0
 36 37  1  0
 36 33  1  0
 37 35  2  0
 38 39  1  0
 39 40  2  0
 41 44  1  0
 41 40  1  0
 42 41  2  0
 43 42  1  0
 43 38  2  0
 44 45  1  0
 45 46  1  0
 46 47  2  0
 48 47  1  0
 48 52  1  0
 49 48  2  0
 50 45  2  0
 50 49  1  0
 51 50  1  0
 53 54  1  0
 54 56  1  0
 54 57  1  0
 55 53  2  0
 58 59  1  0
 60 58  1  0
 61 63  1  0
 62 73  2  0
 63 68  1  0
 64 72  1  0
 64 74  1  0
 65 71  1  0
 65 67  1  0
 66 72  1  0
 67 66  1  0
 68 67  2  0
 69 70  1  0
 69 63  2  0
 70 65  2  0
 71 64  1  0
 72 62  1  0
 74 76  2  0
 75 74  1  0
 77 75  1  0
 78 87  2  0
 78 83  1  0
 79 75  1  0
 79 83  1  0
 80 79  1  0
 81 82  1  0
 81 80  1  0
 82 78  1  0
 83 84  2  0
 84 85  1  0
 86 85  2  0
 87 86  1  0
 88 62  1  0
 88 93  1  0
 88 89  1  0
 89 92  1  1
 89 90  1  0
 91 89  1  0
 93 96  1  0
 94 98  1  0
 94 93  1  0
 95 94  2  0
 98 97  1  0
 98100  1  0
100101  1  0
100 99  1  0
M  ISO  4   5 101  23 100  31 100  61 101
M  END
>  <TORSDO>  (78) 
F 20

>  <SCORE>  (78) 
-0.288

>  <name>  (78) 
77

>  <ligand_id>  (78) 
77

>  <original_smiles>  (78) 
[H]c1c([H])c([H])c2c(c1[H])C([H])([H])C([H])([H])C([H])([H])C2([H])N([H])C(=O)C1([H])N(C(=O)C([H])(N([H])C(=O)C([H])(N([H])C([H])([H])[H])C([H])([H])[H])C(C([H])([H])[H])(C([H])([H])[H])C([H])([H])[H])C([H])([H])c2c([H])c(OC3([H])C([H])([H])C([H])([H])C(c4c([H])c([H])c(C([H])([H])C([H])([H])N([H])C(=O)N5C([H])([H])C([H])([H])C([H])([H])C([H])(n6nc(-c7c([H])c([H])c(Oc8c([H])c([H])c(F)c([H])c8F)c([H])c7[H])c(C(=O)N([H])[H])c6N([H])[H])C5([H])[H])c([H])c4[H])(c4c([H])c([H])c(C([H])([H])[H])c([H])c4C([H])([H])[H])C([H])([H])C3([H])[H])c([H])c([H])c2C1([H])[H]

>  <smiles>  (78) 
[H]c1c([H])c([H])c2c(c1[H])C([H])([H])C([H])([H])C([H])([H])C2([H])N([H])C(=O)C1([H])N(C(=O)C([H])(N([H])C(=O)C([H])(N([H])C([H])([H])[H])C([H])([H])[H])C(C([H])([H])[H])(C([H])([H])[H])C([H])([H])[H])C([H])([H])c2c([H])c(OC3([H])C([H])([H])C([H])([H])C(c4c([H])c([H])c(C([H])([H])C([H])([H])N([H])C(=O)N5C([H])([H])C([H])([H])C([H])([H])C([H])(n6nc(-c7c([H])c([H])c(Oc8c([H])c([H])c(F)c([H])c8F)c([H])c7[H])c(C(=O)N([H])[H])c6N([H])[H])C5([H])[H])c([H])c4[H])(c4c([H])c([H])c(C([H])([H])[H])c([H])c4C([H])([H])[H])C([H])([H])C3([H])[H])c([H])c([H])c2C1([H])[H]

$$$$
78:0:0
     RDKit          3D

 94103  0  0  1  0  0  0  0  0999 V2000
  -28.1650  -21.7640   18.0290 C   0  0  0  0  0  1  0  0  0  0  0  0
  -29.3150  -21.9170   19.0450 C   0  0  0  0  0  3  0  0  0  0  0  0
  -28.8420  -19.8630   20.5560 C   0  0  0  0  0  3  0  0  0  0  0  0
  -29.3410  -18.5440   20.7930 C   0  0  0  0  0  0  0  0  0  0  0  0
  -30.5290  -18.3150   20.1660 C   0  0  0  0  0  0  0  0  0  0  0  0
  -29.6260  -20.5960   19.6950 C   0  0  0  0  0  0  0  0  0  0  0  0
  -28.6350  -17.4390   21.5240 C   0  0  0  0  0  2  0  0  0  0  0  0
  -31.1660  -16.9660   20.1000 C   0  0  0  0  0  2  0  0  0  0  0  0
  -29.1330  -16.0030   21.1620 C   0  0  0  0  0  2  0  0  0  0  0  0
  -30.0760  -15.8590   19.9150 C   0  0  1  0  0  0  0  0  0  0  0  0
  -29.3190  -16.2010   18.5940 C   0  0  0  0  0  1  0  0  0  0  0  0
  -31.0460  -19.6880   19.2260 S   0  0  0  0  0  0  0  0  0  0  0  0
  -30.7620  -14.4470   19.7300 C   0  0  0  0  0  0  0  0  0  0  0  0
  -30.3330  -12.2820   18.6440 C   0  0  0  0  0  2  0  0  0  0  0  0
  -29.2720  -12.4930   17.5400 C   0  0  0  0  0  2  0  0  0  0  0  0
  -27.8390  -12.4020   18.1130 C   0  0  0  0  0  2  0  0  0  0  0  0
  -27.6500  -13.2040   19.4300 C   0  0  0  0  0  3  0  0  0  0  0  0
  -28.8190  -12.9260   20.4000 C   0  0  0  0  0  2  0  0  0  0  0  0
  -30.0720  -13.2650   19.7120 N   0  0  0  0  0  0  0  0  0  0  0  0
  -31.9230  -14.4760   19.3150 O   0  0  0  0  0  0  0  0  0  0  0  0
  -25.3680  -13.8600   20.4140 C   0  0  0  0  0  0  0  0  0  0  0  0
  -24.3150  -13.1050   20.8560 C   0  0  0  0  0  0  0  0  0  0  0  0
  -24.7210  -11.7440   20.7140 C   0  0  0  0  0  0  0  0  0  0  0  0
  -26.3510  -12.9540   20.0410 N   0  0  0  0  0  0  0  0  0  0  0  0
  -25.9710  -11.6750   20.2780 N   0  0  0  0  0  0  0  0  0  0  0  0
  -23.9730  -10.4970   20.9150 C   0  0  0  0  0  0  0  0  0  0  0  0
  -24.4490   -9.4880   21.7800 C   0  0  0  0  0  3  0  0  0  0  0  0
  -23.7070   -8.3030   21.9710 C   0  0  0  0  0  3  0  0  0  0  0  0
  -22.4750   -8.1210   21.2970 C   0  0  0  0  0  0  0  0  0  0  0  0
  -22.0190   -9.1180   20.4200 C   0  0  0  0  0  3  0  0  0  0  0  0
  -22.7600  -10.2960   20.2270 C   0  0  0  0  0  3  0  0  0  0  0  0
  -21.6980   -6.9940   21.4030 O   0  0  0  0  0  0  0  0  0  0  0  0
  -21.6780   -6.2390   22.5480 C   0  0  0  0  0  0  0  0  0  0  0  0
  -21.3270   -6.7930   23.7980 C   0  0  0  0  0  3  0  0  0  0  0  0
  -21.2510   -5.9660   24.9370 C   0  0  0  0  0  3  0  0  0  0  0  0
  -21.5180   -4.5870   24.8260 C   0  0  0  0  0  0  0  0  0  0  0  0
  -21.8630   -4.0350   23.5800 C   0  0  0  0  0  3  0  0  0  0  0  0
  -21.9400   -4.8590   22.4440 C   0  0  0  0  0  0  0  0  0  0  0  0
  -22.2540   -4.3190   21.2410 F   0  0  0  0  0  0  0  0  0  0  0  0
  -21.4370   -3.7910   25.9170 F   0  0  0  0  0  0  0  0  0  0  0  0
  -22.9710  -13.6130   21.2910 C   0  0  0  0  0  0  0  0  0  0  0  0
  -22.3210  -12.9120   22.2150 N   0  0  0  0  0  0  0  0  0  0  0  0
  -22.5100  -14.6660   20.8540 O   0  0  0  0  0  0  0  0  0  0  0  0
  -22.7050  -12.0580   22.5900 H   0  0  0  0  0  0  0  0  0  0  0  0
  -21.4300  -13.2420   22.5550 H   0  0  0  0  0  0  0  0  0  0  0  0
  -25.5550  -15.2330   20.2800 N   0  0  0  0  0  0  0  0  0  0  0  0
  -24.8130  -15.8960   20.4810 H   0  0  0  0  0  0  0  0  0  0  0  0
  -26.3740  -15.6660   19.8740 H   0  0  0  0  0  0  0  0  0  0  0  0
  -29.0610  -22.9770   20.0500 N   0  0  0  0  0  4  0  0  0  0  0  0
  -28.2610  -22.7200   20.6060 H   0  0  0  0  0  0  0  0  0  0  0  0
  -29.8580  -22.9810   20.6670 H   0  0  0  0  0  0  0  0  0  0  0  0
  -28.8870  -24.3520   19.5070 C   0  0  0  0  0  2  0  0  0  0  0  0
  -28.6440  -25.3870   20.6200 C   0  0  0  0  0  2  0  0  0  0  0  0
  -28.6370  -26.7150   20.0910 O   0  0  0  0  0  0  0  0  0  0  0  0
  -24.5130  -31.6390   23.1220 C   0  0  0  0  0  0  0  0  0  0  0  0
  -27.4210  -27.3550   20.0830 C   0  0  0  0  0  0  0  0  0  0  0  0
  -23.4040  -30.1970   21.4430 C   0  0  0  0  0  3  0  0  0  0  0  0
  -24.9560  -28.7300   20.0480 C   0  0  0  0  0  0  0  0  0  0  0  0
  -25.9140  -30.6700   21.3070 C   0  0  0  0  0  2  0  0  0  0  0  0
  -26.0740  -29.3100   20.6600 C   0  0  0  0  0  0  0  0  0  0  0  0
  -27.3110  -28.6320   20.6710 C   0  0  0  0  0  3  0  0  0  0  0  0
  -26.2880  -26.7760   19.4700 C   0  0  0  0  0  3  0  0  0  0  0  0
  -25.0570  -27.4600   19.4520 C   0  0  0  0  0  3  0  0  0  0  0  0
  -23.6750  -29.5330   20.0660 C   0  0  0  0  0  2  0  0  0  0  0  0
  -24.6260  -30.8500   22.0160 N   0  0  0  0  0  0  0  0  0  0  0  0
  -23.4100  -31.8640   23.6380 O   0  0  0  0  0  0  0  0  0  0  0  0
  -22.7790  -29.1450   22.3840 C   0  0  0  0  0  0  0  0  0  0  0  0
  -21.4610  -28.9240   22.2430 N   0  0  0  0  0  0  0  0  0  0  0  0
  -23.4750  -28.5260   23.1950 O   0  0  0  0  0  0  0  0  0  0  0  0
  -20.9620  -29.4770   21.5610 H   0  0  0  0  0  0  0  0  0  0  0  0
  -18.1160  -27.6460   22.7070 C   0  0  0  0  0  0  0  0  0  0  0  0
  -20.6660  -27.9540   22.9930 C   0  0  0  0  0  3  0  0  0  0  0  0
  -20.8030  -26.5380   22.3890 C   0  0  0  0  0  2  0  0  0  0  0  0
  -19.7110  -26.2110   21.3650 C   0  0  0  0  0  2  0  0  0  0  0  0
  -18.3240  -26.3130   22.0070 C   0  0  0  0  0  2  0  0  0  0  0  0
  -19.2160  -28.4220   23.1560 C   0  0  0  0  0  0  0  0  0  0  0  0
  -18.9680  -29.6700   23.7700 C   0  0  0  0  0  3  0  0  0  0  0  0
  -17.6520  -30.1390   23.9400 C   0  0  0  0  0  3  0  0  0  0  0  0
  -16.5660  -29.3590   23.5080 C   0  0  0  0  0  3  0  0  0  0  0  0
  -16.7990  -28.1140   22.8970 C   0  0  0  0  0  3  0  0  0  0  0  0
  -25.7590  -32.3180   23.7730 C   0  0  0  0  0  3  0  0  0  0  0  0
  -26.2910  -31.5560   25.0490 C   0  0  1  0  0  0  0  0  0  0  0  0
  -25.1920  -31.2590   26.0960 C   0  0  0  0  0  1  0  0  0  0  0  0
  -26.9410  -30.2100   24.6530 C   0  0  0  0  0  1  0  0  0  0  0  0
  -27.3950  -32.3930   25.7380 C   0  0  0  0  0  1  0  0  0  0  0  0
  -25.3840  -33.6970   24.1110 N   0  0  0  0  0  0  0  0  0  0  0  0
  -25.6810  -34.7710   23.3650 C   0  0  0  0  0  0  0  0  0  0  0  0
  -26.3710  -34.7060   22.3430 O   0  0  0  0  0  0  0  0  0  0  0  0
  -24.7680  -33.8180   24.9010 H   0  0  0  0  0  0  0  0  0  0  0  0
  -23.8750  -36.4810   23.0040 C   0  0  0  0  0  1  0  0  0  0  0  0
  -25.1240  -36.1300   23.8260 C   0  0  0  0  0  3  0  0  0  0  0  0
  -27.2060  -37.1060   24.6870 C   0  0  0  0  0  1  0  0  0  0  0  0
  -26.1070  -37.2310   23.7320 N   0  0  0  0  0  0  0  0  0  0  0  0
  -25.6590  -38.1310   23.8810 H   0  0  0  0  0  0  0  0  0  0  0  0
  2  1  1  0
  2  6  1  0
  2 49  1  0
  3  4  1  0
  4  7  1  0
  5  4  2  0
  6  3  2  0
  8  5  1  0
  9  7  1  0
 10 11  1  6
 10  8  1  0
 10  9  1  0
 12  6  1  0
 12  5  1  0
 13 10  1  0
 14 19  1  0
 15 16  1  0
 15 14  1  0
 17 16  1  0
 17 24  1  0
 17 18  1  0
 19 13  1  0
 19 18  1  0
 20 13  2  0
 21 22  2  0
 22 41  1  0
 23 22  1  0
 23 26  1  0
 24 25  1  0
 24 21  1  0
 25 23  2  0
 26 27  1  0
 27 28  2  0
 29 32  1  0
 29 28  1  0
 30 29  2  0
 31 30  1  0
 31 26  2  0
 32 33  1  0
 33 34  1  0
 34 35  2  0
 36 35  1  0
 36 40  1  0
 37 36  2  0
 38 33  2  0
 38 37  1  0
 39 38  1  0
 41 42  1  0
 42 45  1  0
 42 44  1  0
 43 41  2  0
 46 21  1  0
 46 47  1  0
 48 46  1  0
 49 50  1  0
 49 51  1  0
 52 49  1  0
 52 53  1  0
 54 53  1  0
 55 66  2  0
 56 54  1  0
 56 61  1  0
 57 65  1  0
 57 67  1  0
 58 64  1  0
 58 60  1  0
 59 65  1  0
 60 61  2  0
 60 59  1  0
 62 56  2  0
 63 62  1  0
 63 58  2  0
 64 57  1  0
 65 55  1  0
 67 69  2  0
 68 67  1  0
 70 68  1  0
 71 80  2  0
 71 76  1  0
 72 68  1  0
 72 76  1  0
 73 72  1  0
 74 75  1  0
 74 73  1  0
 75 71  1  0
 76 77  2  0
 77 78  1  0
 79 78  2  0
 80 79  1  0
 81 55  1  0
 81 86  1  0
 81 82  1  0
 82 85  1  1
 82 83  1  0
 84 82  1  0
 86 89  1  0
 87 91  1  0
 87 86  1  0
 88 87  2  0
 91 90  1  0
 93 91  1  0
 93 94  1  0
 93 92  1  0
M  ISO  4  10 100  13 100  53 101  54 101
M  END
>  <TORSDO>  (79) 
F 20

>  <SCORE>  (79) 
-11.845

>  <name>  (79) 
78

>  <ligand_id>  (79) 
78

>  <original_smiles>  (79) 
[H]c1c([H])c([H])c2c(c1[H])C([H])([H])C([H])([H])C([H])([H])C2([H])N([H])C(=O)C1([H])N(C(=O)C([H])(N([H])C(=O)C([H])(N([H])C([H])([H])[H])C([H])([H])[H])C(C([H])([H])[H])(C([H])([H])[H])C([H])([H])[H])C([H])([H])c2c([H])c(OC([H])([H])C([H])([H])[N+]([H])([H])C([H])(c3sc4c(c3[H])C([H])([H])C([H])([H])C(C(=O)N3C([H])([H])C([H])([H])C([H])([H])C([H])(n5nc(-c6c([H])c([H])c(Oc7c([H])c([H])c(F)c([H])c7F)c([H])c6[H])c(C(=O)N([H])[H])c5N([H])[H])C3([H])[H])(C([H])([H])[H])C4([H])[H])C([H])([H])[H])c([H])c([H])c2C1([H])[H]

>  <smiles>  (79) 
[H]c1c([H])c([H])c2c(c1[H])C([H])([H])C([H])([H])C([H])([H])C2([H])N([H])C(=O)C1([H])N(C(=O)C([H])(N([H])C(=O)C([H])(N([H])C([H])([H])[H])C([H])([H])[H])C(C([H])([H])[H])(C([H])([H])[H])C([H])([H])[H])C([H])([H])c2c([H])c(OC([H])([H])C([H])([H])[N+]([H])([H])C([H])(c3sc4c(c3[H])C([H])([H])C([H])([H])C(C(=O)N3C([H])([H])C([H])([H])C([H])([H])C([H])(n5nc(-c6c([H])c([H])c(Oc7c([H])c([H])c(F)c([H])c7F)c([H])c6[H])c(C(=O)N([H])[H])c5N([H])[H])C3([H])[H])(C([H])([H])[H])C4([H])[H])C([H])([H])[H])c([H])c([H])c2C1([H])[H]

$$$$
79:0:0
     RDKit          3D

 89 96  0  0  1  0  0  0  0  0999 V2000
  -28.9990  -23.4520   20.4440 C   0  0  0  0  0  3  0  0  0  0  0  0
  -30.2320  -23.7650   19.6930 N   0  0  0  0  0  4  0  0  0  0  0  0
  -30.0880  -23.6860   18.7020 H   0  0  0  0  0  0  0  0  0  0  0  0
  -30.9830  -23.1510   19.9490 H   0  0  0  0  0  0  0  0  0  0  0  0
  -30.5300  -24.7070   19.8870 H   0  0  0  0  0  0  0  0  0  0  0  0
  -28.5940  -21.8310   20.2030 C   0  0  0  0  0  3  0  0  0  0  0  0
  -29.5560  -20.4910   20.5250 C   0  0  0  0  0  3  0  0  0  0  0  0
  -29.1600  -18.8910   20.2200 C   0  0  0  0  0  3  0  0  0  0  0  0
  -30.1730  -17.5950   20.5330 C   0  0  0  0  0  3  0  0  0  0  0  0
  -30.5470  -14.9060   20.3440 C   0  0  0  0  0  0  0  0  0  0  0  0
  -30.3900  -12.5850   19.3710 C   0  0  0  0  0  2  0  0  0  0  0  0
  -29.4550  -12.6060   18.1420 C   0  0  0  0  0  2  0  0  0  0  0  0
  -27.9800  -12.4340   18.5630 C   0  0  0  0  0  2  0  0  0  0  0  0
  -27.6000  -13.3070   19.7890 C   0  0  0  0  0  3  0  0  0  0  0  0
  -28.6670  -13.2530   20.9020 C   0  0  0  0  0  2  0  0  0  0  0  0
  -29.9380  -13.6590   20.2890 N   0  0  0  0  0  0  0  0  0  0  0  0
  -31.7530  -14.9830   20.0940 O   0  0  0  0  0  0  0  0  0  0  0  0
  -29.7700  -16.0800   20.4640 N   0  0  0  0  0  0  0  0  0  0  0  0
  -28.7830  -15.8990   20.5590 H   0  0  0  0  0  0  0  0  0  0  0  0
  -25.2060  -13.8640   20.5080 C   0  0  0  0  0  0  0  0  0  0  0  0
  -24.1480  -13.0820   20.8780 C   0  0  0  0  0  0  0  0  0  0  0  0
  -24.6250  -11.7350   20.8510 C   0  0  0  0  0  0  0  0  0  0  0  0
  -26.2610  -12.9960   20.2800 N   0  0  0  0  0  0  0  0  0  0  0  0
  -25.9190  -11.7120   20.5500 N   0  0  0  0  0  0  0  0  0  0  0  0
  -23.9050  -10.4670   21.0380 C   0  0  0  0  0  0  0  0  0  0  0  0
  -24.3430   -9.4950   21.9620 C   0  0  0  0  0  3  0  0  0  0  0  0
  -23.6180   -8.2970   22.1370 C   0  0  0  0  0  3  0  0  0  0  0  0
  -22.4410   -8.0600   21.3880 C   0  0  0  0  0  0  0  0  0  0  0  0
  -22.0210   -9.0230   20.4520 C   0  0  0  0  0  3  0  0  0  0  0  0
  -22.7480  -10.2130   20.2760 C   0  0  0  0  0  3  0  0  0  0  0  0
  -21.6900   -6.9110   21.4720 O   0  0  0  0  0  0  0  0  0  0  0  0
  -21.6560   -6.1580   22.6180 C   0  0  0  0  0  0  0  0  0  0  0  0
  -21.2450   -6.6990   23.8570 C   0  0  0  0  0  3  0  0  0  0  0  0
  -21.1630   -5.8720   24.9940 C   0  0  0  0  0  3  0  0  0  0  0  0
  -21.4830   -4.5030   24.8960 C   0  0  0  0  0  0  0  0  0  0  0  0
  -21.8870   -3.9630   23.6620 C   0  0  0  0  0  3  0  0  0  0  0  0
  -21.9710   -4.7880   22.5270 C   0  0  0  0  0  0  0  0  0  0  0  0
  -22.3390   -4.2590   21.3350 F   0  0  0  0  0  0  0  0  0  0  0  0
  -21.3950   -3.7020   25.9830 F   0  0  0  0  0  0  0  0  0  0  0  0
  -22.7460  -13.5500   21.1440 C   0  0  0  0  0  0  0  0  0  0  0  0
  -22.0230  -12.8520   22.0140 N   0  0  0  0  0  0  0  0  0  0  0  0
  -22.3020  -14.5710   20.6170 O   0  0  0  0  0  0  0  0  0  0  0  0
  -22.3950  -12.0260   22.4620 H   0  0  0  0  0  0  0  0  0  0  0  0
  -21.0840  -13.1460   22.2390 H   0  0  0  0  0  0  0  0  0  0  0  0
  -25.3580  -15.2340   20.3190 N   0  0  0  0  0  0  0  0  0  0  0  0
  -24.5850  -15.8820   20.4110 H   0  0  0  0  0  0  0  0  0  0  0  0
  -26.1920  -15.6680   19.9420 H   0  0  0  0  0  0  0  0  0  0  0  0
  -27.9300  -24.7110   20.1840 C   0  0  0  0  0  2  0  0  0  0  0  0
  -28.2290  -26.2260   20.2980 O   0  0  0  0  0  0  0  0  0  0  0  0
  -24.6310  -31.9020   23.2610 C   0  0  0  0  0  0  0  0  0  0  0  0
  -27.1710  -27.1980   20.2260 C   0  0  0  0  0  0  0  0  0  0  0  0
  -23.4190  -30.5100   21.6300 C   0  0  0  0  0  3  0  0  0  0  0  0
  -24.8530  -28.9390   20.1980 C   0  0  0  0  0  0  0  0  0  0  0  0
  -25.9720  -30.7760   21.4490 C   0  0  0  0  0  2  0  0  0  0  0  0
  -26.0380  -29.3870   20.7970 C   0  0  0  0  0  0  0  0  0  0  0  0
  -27.2010  -28.5330   20.7910 C   0  0  0  0  0  3  0  0  0  0  0  0
  -25.9580  -26.8440   19.5930 C   0  0  0  0  0  3  0  0  0  0  0  0
  -24.8240  -27.6800   19.5850 C   0  0  0  0  0  3  0  0  0  0  0  0
  -23.6240  -29.8320   20.2530 C   0  0  0  0  0  2  0  0  0  0  0  0
  -24.6960  -31.0840   22.1690 N   0  0  0  0  0  0  0  0  0  0  0  0
  -23.5490  -32.1940   23.7950 O   0  0  0  0  0  0  0  0  0  0  0  0
  -22.7470  -29.5030   22.5960 C   0  0  0  0  0  0  0  0  0  0  0  0
  -21.4200  -29.3280   22.4660 N   0  0  0  0  0  0  0  0  0  0  0  0
  -23.4190  -28.8800   23.4220 O   0  0  0  0  0  0  0  0  0  0  0  0
  -20.9400  -29.8670   21.7580 H   0  0  0  0  0  0  0  0  0  0  0  0
  -18.0380  -28.1230   22.9530 C   0  0  0  0  0  0  0  0  0  0  0  0
  -20.5960  -28.3960   23.2360 C   0  0  0  0  0  3  0  0  0  0  0  0
  -20.7100  -26.9610   22.6720 C   0  0  0  0  0  2  0  0  0  0  0  0
  -19.6150  -26.6280   21.6530 C   0  0  0  0  0  2  0  0  0  0  0  0
  -18.2260  -26.7720   22.2860 C   0  0  0  0  0  2  0  0  0  0  0  0
  -19.1520  -28.8940   23.3830 C   0  0  0  0  0  0  0  0  0  0  0  0
  -18.9250  -30.1600   23.9670 C   0  0  0  0  0  3  0  0  0  0  0  0
  -17.6180  -30.6550   24.1230 C   0  0  0  0  0  3  0  0  0  0  0  0
  -16.5180  -29.8810   23.7100 C   0  0  0  0  0  3  0  0  0  0  0  0
  -16.7300  -28.6170   23.1300 C   0  0  0  0  0  3  0  0  0  0  0  0
  -25.9180  -32.5260   23.8850 C   0  0  0  0  0  3  0  0  0  0  0  0
  -26.4290  -31.7510   25.1600 C   0  0  1  0  0  0  0  0  0  0  0  0
  -25.3320  -31.5220   26.2270 C   0  0  0  0  0  1  0  0  0  0  0  0
  -27.0010  -30.3680   24.7740 C   0  0  0  0  0  1  0  0  0  0  0  0
  -27.5900  -32.5380   25.8190 C   0  0  0  0  0  1  0  0  0  0  0  0
  -25.6180  -33.9270   24.2190 N   0  0  0  0  0  0  0  0  0  0  0  0
  -25.9380  -34.9790   23.4520 C   0  0  0  0  0  0  0  0  0  0  0  0
  -26.5830  -34.8730   22.4060 O   0  0  0  0  0  0  0  0  0  0  0  0
  -25.0360  -34.0870   25.0290 H   0  0  0  0  0  0  0  0  0  0  0  0
  -24.1940  -36.7700   23.1530 C   0  0  0  0  0  1  0  0  0  0  0  0
  -25.4650  -36.3710   23.9190 C   0  0  0  0  0  3  0  0  0  0  0  0
  -27.6250  -37.2650   24.6700 C   0  0  0  0  0  1  0  0  0  0  0  0
  -26.4920  -37.4230   23.7600 N   0  0  0  0  0  0  0  0  0  0  0  0
  -26.0900  -38.3440   23.9150 H   0  0  0  0  0  0  0  0  0  0  0  0
  1 48  1  0
  2  5  1  0
  2  4  1  0
  2  1  1  0
  3  2  1  0
  6  1  1  0
  6  7  2  0
  8  7  1  0
  8  9  2  0
 10 18  1  0
 11 16  1  0
 12 13  1  0
 12 11  1  0
 14 13  1  0
 14 23  1  0
 14 15  1  0
 16 10  1  0
 16 15  1  0
 17 10  2  0
 18  9  1  0
 18 19  1  0
 20 21  2  0
 21 40  1  0
 22 21  1  0
 22 25  1  0
 23 20  1  0
 23 24  1  0
 24 22  2  0
 25 26  1  0
 26 27  2  0
 28 31  1  0
 28 27  1  0
 29 28  2  0
 30 29  1  0
 30 25  2  0
 31 32  1  0
 32 33  1  0
 33 34  2  0
 35 34  1  0
 35 39  1  0
 36 35  2  0
 37 32  2  0
 37 36  1  0
 38 37  1  0
 40 41  1  0
 41 44  1  0
 41 43  1  0
 42 40  2  0
 45 46  1  0
 45 20  1  0
 47 45  1  0
 48 49  1  0
 50 61  2  0
 51 49  1  0
 51 56  1  0
 52 60  1  0
 52 62  1  0
 53 59  1  0
 53 55  1  0
 54 60  1  0
 55 54  1  0
 56 55  2  0
 57 51  2  0
 58 57  1  0
 58 53  2  0
 59 52  1  0
 60 50  1  0
 62 64  2  0
 63 62  1  0
 65 63  1  0
 66 75  2  0
 66 71  1  0
 67 63  1  0
 67 71  1  0
 68 67  1  0
 69 70  1  0
 69 68  1  0
 70 66  1  0
 71 72  2  0
 72 73  1  0
 74 73  2  0
 75 74  1  0
 76 50  1  0
 76 81  1  0
 76 77  1  0
 77 80  1  1
 77 78  1  0
 79 77  1  0
 81 84  1  0
 82 86  1  0
 82 81  1  0
 83 82  2  0
 86 85  1  0
 88 89  1  0
 88 86  1  0
 88 87  1  0
M  ISO  4  10 100  18 100  48 101  49 101
M  END
>  <TORSDO>  (80) 
F 22

>  <SCORE>  (80) 
-13.048

>  <name>  (80) 
79

>  <ligand_id>  (80) 
79

>  <original_smiles>  (80) 
[H]c1c([H])c([H])c2c(c1[H])C([H])([H])C([H])([H])C([H])([H])C2([H])N([H])C(=O)C1([H])N(C(=O)C([H])(N([H])C(=O)C([H])(N([H])C([H])([H])[H])C([H])([H])[H])C(C([H])([H])[H])(C([H])([H])[H])C([H])([H])[H])C([H])([H])c2c([H])c(OC([H])([H])C([H])(C([H])([H])C([H])([H])C([H])([H])C([H])([H])N([H])C(=O)N3C([H])([H])C([H])([H])C([H])([H])C([H])(n4nc(-c5c([H])c([H])c(Oc6c([H])c([H])c(F)c([H])c6F)c([H])c5[H])c(C(=O)N([H])[H])c4N([H])[H])C3([H])[H])[N+]([H])([H])[H])c([H])c([H])c2C1([H])[H]

>  <smiles>  (80) 
[H]c1c([H])c([H])c2c(c1[H])C([H])([H])C([H])([H])C([H])([H])C2([H])N([H])C(=O)C1([H])N(C(=O)C([H])(N([H])C(=O)C([H])(N([H])C([H])([H])[H])C([H])([H])[H])C(C([H])([H])[H])(C([H])([H])[H])C([H])([H])[H])C([H])([H])c2c([H])c(OC([H])([H])C([H])(C([H])([H])C([H])([H])C([H])([H])C([H])([H])N([H])C(=O)N3C([H])([H])C([H])([H])C([H])([H])C([H])(n4nc(-c5c([H])c([H])c(Oc6c([H])c([H])c(F)c([H])c6F)c([H])c5[H])c(C(=O)N([H])[H])c4N([H])[H])C3([H])[H])[N+]([H])([H])[H])c([H])c([H])c2C1([H])[H]

$$$$
80:0:0
     RDKit          3D

 88 96  0  0  1  0  0  0  0  0999 V2000
  -28.4890  -20.0770   19.0220 C   0  0  0  0  0  3  0  0  0  0  0  0
  -29.1990  -19.8320   20.1820 C   0  0  0  0  0  0  0  0  0  0  0  0
  -29.1810  -21.2980   20.8340 C   0  0  0  0  0  0  0  0  0  0  0  0
  -28.5490  -22.5200   20.2250 C   0  0  0  0  0  0  0  0  0  0  0  0
  -29.8170  -21.4780   22.1790 C   0  0  0  0  0  1  0  0  0  0  0  0
  -27.9270  -21.7800   18.7470 S   0  0  0  0  0  0  0  0  0  0  0  0
  -30.3770  -15.4850   20.2770 C   0  0  0  0  0  0  0  0  0  0  0  0
  -30.3970  -13.0070   19.3930 C   0  0  0  0  0  2  0  0  0  0  0  0
  -29.4890  -12.6930   18.1770 C   0  0  0  0  0  2  0  0  0  0  0  0
  -28.0530  -12.3840   18.6310 C   0  0  0  0  0  2  0  0  0  0  0  0
  -27.5690  -13.3730   19.7180 C   0  0  0  0  0  3  0  0  0  0  0  0
  -28.6110  -13.6090   20.8320 C   0  0  0  0  0  2  0  0  0  0  0  0
  -29.8060  -14.1680   20.1710 N   0  0  0  0  0  0  0  0  0  0  0  0
  -31.6130  -15.4170   20.1670 O   0  0  0  0  0  0  0  0  0  0  0  0
  -29.9840  -18.2620   20.4860 C   0  0  0  0  0  0  0  0  0  0  0  0
  -29.6380  -16.8110   20.2630 N   0  0  0  0  0  0  0  0  0  0  0  0
  -31.0870  -18.4170   21.0150 O   0  0  0  0  0  0  0  0  0  0  0  0
  -28.6640  -16.7000   20.0400 H   0  0  0  0  0  0  0  0  0  0  0  0
  -25.2010  -13.9110   20.4750 C   0  0  0  0  0  0  0  0  0  0  0  0
  -24.1430  -13.1270   20.8420 C   0  0  0  0  0  0  0  0  0  0  0  0
  -24.6200  -11.7800   20.8160 C   0  0  0  0  0  0  0  0  0  0  0  0
  -26.2490  -13.0430   20.2350 N   0  0  0  0  0  0  0  0  0  0  0  0
  -25.9130  -11.7540   20.5110 N   0  0  0  0  0  0  0  0  0  0  0  0
  -23.8990  -10.5140   21.0040 C   0  0  0  0  0  0  0  0  0  0  0  0
  -24.3210   -9.5550   21.9510 C   0  0  0  0  0  3  0  0  0  0  0  0
  -23.5970   -8.3570   22.1280 C   0  0  0  0  0  3  0  0  0  0  0  0
  -22.4350   -8.1090   21.3580 C   0  0  0  0  0  0  0  0  0  0  0  0
  -22.0330   -9.0560   20.4000 C   0  0  0  0  0  3  0  0  0  0  0  0
  -22.7580  -10.2450   20.2210 C   0  0  0  0  0  3  0  0  0  0  0  0
  -21.6840   -6.9610   21.4430 O   0  0  0  0  0  0  0  0  0  0  0  0
  -21.6090   -6.2350   22.6050 C   0  0  0  0  0  0  0  0  0  0  0  0
  -21.1280   -6.7990   23.8060 C   0  0  0  0  0  3  0  0  0  0  0  0
  -21.0010   -5.9980   24.9590 C   0  0  0  0  0  3  0  0  0  0  0  0
  -21.3460   -4.6350   24.9110 C   0  0  0  0  0  0  0  0  0  0  0  0
  -21.8210   -4.0700   23.7140 C   0  0  0  0  0  3  0  0  0  0  0  0
  -21.9480   -4.8680   22.5630 C   0  0  0  0  0  0  0  0  0  0  0  0
  -22.3860   -4.3130   21.4070 F   0  0  0  0  0  0  0  0  0  0  0  0
  -21.2180   -3.8630   26.0160 F   0  0  0  0  0  0  0  0  0  0  0  0
  -22.7410  -13.5970   21.0960 C   0  0  0  0  0  0  0  0  0  0  0  0
  -22.0090  -12.9010   21.9580 N   0  0  0  0  0  0  0  0  0  0  0  0
  -22.3050  -14.6190   20.5680 O   0  0  0  0  0  0  0  0  0  0  0  0
  -22.3750  -12.0740   22.4070 H   0  0  0  0  0  0  0  0  0  0  0  0
  -21.0690  -13.2000   22.1730 H   0  0  0  0  0  0  0  0  0  0  0  0
  -25.3540  -15.2810   20.2920 N   0  0  0  0  0  0  0  0  0  0  0  0
  -24.5790  -15.9280   20.3940 H   0  0  0  0  0  0  0  0  0  0  0  0
  -26.1900  -15.7210   19.9340 H   0  0  0  0  0  0  0  0  0  0  0  0
  -27.9830  -24.1610   20.7180 C   0  0  0  0  0  2  0  0  0  0  0  0
  -28.2230  -25.7550   20.2210 O   0  0  0  0  0  0  0  0  0  0  0  0
  -24.6650  -31.8750   23.1910 C   0  0  0  0  0  0  0  0  0  0  0  0
  -27.2280  -26.9010   20.2410 C   0  0  0  0  0  0  0  0  0  0  0  0
  -23.4810  -30.4620   21.5640 C   0  0  0  0  0  3  0  0  0  0  0  0
  -24.9370  -28.8330   20.1670 C   0  0  0  0  0  0  0  0  0  0  0  0
  -26.0540  -30.6560   21.4290 C   0  0  0  0  0  2  0  0  0  0  0  0
  -26.1280  -29.2290   20.7890 C   0  0  0  0  0  0  0  0  0  0  0  0
  -27.2690  -28.2900   20.7920 C   0  0  0  0  0  3  0  0  0  0  0  0
  -26.0010  -26.6780   19.5740 C   0  0  0  0  0  3  0  0  0  0  0  0
  -24.9030  -27.5800   19.5370 C   0  0  0  0  0  3  0  0  0  0  0  0
  -23.7200  -29.7630   20.1980 C   0  0  0  0  0  2  0  0  0  0  0  0
  -24.7560  -31.0280   22.1140 N   0  0  0  0  0  0  0  0  0  0  0  0
  -23.5720  -32.1680   23.7050 O   0  0  0  0  0  0  0  0  0  0  0  0
  -22.7810  -29.4780   22.5390 C   0  0  0  0  0  0  0  0  0  0  0  0
  -21.4500  -29.3160   22.4180 N   0  0  0  0  0  0  0  0  0  0  0  0
  -23.4440  -28.8590   23.3740 O   0  0  0  0  0  0  0  0  0  0  0  0
  -20.9650  -29.8630   21.7200 H   0  0  0  0  0  0  0  0  0  0  0  0
  -18.0660  -28.1120   22.9500 C   0  0  0  0  0  0  0  0  0  0  0  0
  -20.6270  -28.3830   23.1980 C   0  0  0  0  0  3  0  0  0  0  0  0
  -20.7260  -26.9470   22.6290 C   0  0  0  0  0  2  0  0  0  0  0  0
  -19.6200  -26.6190   21.6220 C   0  0  0  0  0  2  0  0  0  0  0  0
  -18.2410  -26.7630   22.2730 C   0  0  0  0  0  2  0  0  0  0  0  0
  -19.1860  -28.8790   23.3700 C   0  0  0  0  0  0  0  0  0  0  0  0
  -18.9660  -30.1390   23.9680 C   0  0  0  0  0  3  0  0  0  0  0  0
  -17.6600  -30.6330   24.1480 C   0  0  0  0  0  3  0  0  0  0  0  0
  -16.5550  -29.8650   23.7410 C   0  0  0  0  0  3  0  0  0  0  0  0
  -16.7600  -28.6050   23.1500 C   0  0  0  0  0  3  0  0  0  0  0  0
  -25.9300  -32.5320   23.8230 C   0  0  0  0  0  3  0  0  0  0  0  0
  -25.6050  -33.9360   24.1400 N   0  0  0  0  0  0  0  0  0  0  0  0
  -25.9460  -34.9930   23.3900 C   0  0  0  0  0  0  0  0  0  0  0  0
  -26.6260  -34.8900   22.3670 O   0  0  0  0  0  0  0  0  0  0  0  0
  -25.0030  -34.0880   24.9350 H   0  0  0  0  0  0  0  0  0  0  0  0
  -24.2320  -36.8010   23.0160 C   0  0  0  0  0  1  0  0  0  0  0  0
  -25.4570  -36.3840   23.8450 C   0  0  0  0  0  3  0  0  0  0  0  0
  -27.5810  -37.2630   24.7140 C   0  0  0  0  0  1  0  0  0  0  0  0
  -26.4950  -37.4350   23.7530 N   0  0  0  0  0  0  0  0  0  0  0  0
  -26.0880  -38.3550   23.8980 H   0  0  0  0  0  0  0  0  0  0  0  0
  -26.4270  -31.7880   25.1240 C   0  0  1  0  0  0  0  0  0  0  0  0
  -25.3180  -31.5740   26.1820 C   0  0  0  0  0  1  0  0  0  0  0  0
  -27.0150  -30.4020   24.7800 C   0  0  0  0  0  1  0  0  0  0  0  0
  -27.5690  -32.5960   25.7840 C   0  0  0  0  0  1  0  0  0  0  0  0
  1  2  2  0
  2 15  1  0
  2  3  1  0
  3  5  1  0
  4 47  1  0
  4  3  2  0
  6  1  1  0
  6  4  1  0
  8 13  1  0
  9 10  1  0
  9  8  1  0
 11 10  1  0
 11 22  1  0
 11 12  1  0
 13  7  1  0
 13 12  1  0
 14  7  2  0
 15 17  2  0
 16  7  1  0
 16 15  1  0
 18 16  1  0
 19 20  2  0
 20 39  1  0
 21 20  1  0
 21 24  1  0
 22 19  1  0
 22 23  1  0
 23 21  2  0
 24 25  1  0
 25 26  2  0
 27 30  1  0
 27 26  1  0
 28 27  2  0
 29 28  1  0
 29 24  2  0
 30 31  1  0
 31 32  1  0
 32 33  2  0
 34 33  1  0
 34 38  1  0
 35 34  2  0
 36 31  2  0
 36 35  1  0
 37 36  1  0
 39 40  1  0
 40 43  1  0
 40 42  1  0
 41 39  2  0
 44 45  1  0
 44 19  1  0
 46 44  1  0
 48 50  1  0
 48 47  1  0
 49 60  2  0
 50 55  1  0
 51 59  1  0
 51 61  1  0
 52 58  1  0
 52 54  1  0
 53 59  1  0
 54 55  2  0
 54 53  1  0
 56 50  2  0
 57 56  1  0
 57 52  2  0
 58 51  1  0
 59 49  1  0
 61 63  2  0
 62 61  1  0
 64 62  1  0
 65 74  2  0
 65 70  1  0
 66 62  1  0
 66 70  1  0
 67 66  1  0
 68 69  1  0
 68 67  1  0
 69 65  1  0
 70 71  2  0
 71 72  1  0
 73 72  2  0
 74 73  1  0
 75 49  1  0
 75 76  1  0
 75 85  1  0
 76 79  1  0
 77 81  1  0
 77 76  1  0
 78 77  2  0
 81 80  1  0
 83 81  1  0
 83 84  1  0
 83 82  1  0
 85 88  1  1
 85 86  1  0
 87 85  1  0
M  ISO  4   7 100  16 100  47 101  48 101
M  END
>  <TORSDO>  (81) 
F 17

>  <SCORE>  (81) 
-16.832

>  <name>  (81) 
80

>  <ligand_id>  (81) 
80

>  <original_smiles>  (81) 
[H]c1sc(C([H])([H])Oc2c([H])c([H])c3c(c2[H])C([H])([H])N(C(=O)C([H])(N([H])C(=O)C([H])(N([H])C([H])([H])[H])C([H])([H])[H])C(C([H])([H])[H])(C([H])([H])[H])C([H])([H])[H])C([H])(C(=O)N([H])C2([H])c4c([H])c([H])c([H])c([H])c4C([H])([H])C([H])([H])C2([H])[H])C3([H])[H])c(C([H])([H])[H])c1C(=O)N([H])C(=O)N1C([H])([H])C([H])([H])C([H])([H])C([H])(n2nc(-c3c([H])c([H])c(Oc4c([H])c([H])c(F)c([H])c4F)c([H])c3[H])c(C(=O)N([H])[H])c2N([H])[H])C1([H])[H]

>  <smiles>  (81) 
[H]c1sc(C([H])([H])Oc2c([H])c([H])c3c(c2[H])C([H])([H])N(C(=O)C([H])(N([H])C(=O)C([H])(N([H])C([H])([H])[H])C([H])([H])[H])C(C([H])([H])[H])(C([H])([H])[H])C([H])([H])[H])C([H])(C(=O)N([H])C2([H])c4c([H])c([H])c([H])c([H])c4C([H])([H])C([H])([H])C2([H])[H])C3([H])[H])c(C([H])([H])[H])c1C(=O)N([H])C(=O)N1C([H])([H])C([H])([H])C([H])([H])C([H])(n2nc(-c3c([H])c([H])c(Oc4c([H])c([H])c(F)c([H])c4F)c([H])c3[H])c(C(=O)N([H])[H])c2N([H])[H])C1([H])[H]

$$$$
81:0:0
     RDKit          3D

 93 97  0  0  1  0  0  0  0  0999 V2000
  -20.3760  -26.1540   22.9750 C   0  0  0  0  0  1  0  0  0  0  0  0
  -21.0620  -24.6910   23.1770 C   0  0  0  0  0  2  0  0  0  0  0  0
  -21.5650  -27.3090   21.5210 C   0  0  0  0  0  1  0  0  0  0  0  0
  -23.1820  -25.1210   21.5120 C   0  0  0  0  0  3  0  0  0  0  0  0
  -22.3760  -24.2160   22.4280 C   0  0  0  0  0  0  0  0  0  0  0  0
  -23.1350  -26.5810   21.1060 C   0  0  0  0  0  3  0  0  0  0  0  0
  -21.8800  -21.6990   22.0480 C   0  0  0  0  0  1  0  0  0  0  0  0
  -22.9800  -22.6490   22.5540 C   0  0  0  0  0  3  0  0  0  0  0  0
  -24.4160  -22.1020   22.0650 N   0  0  0  0  0  4  0  0  0  0  0  0
  -24.5670  -22.4930   21.1500 H   0  0  0  0  0  0  0  0  0  0  0  0
  -25.0940  -22.5370   22.6700 H   0  0  0  0  0  0  0  0  0  0  0  0
  -24.8460  -20.5500   21.9480 C   0  0  0  0  0  3  0  0  0  0  0  0
  -26.4390  -19.9170   21.7570 C   0  0  0  0  0  3  0  0  0  0  0  0
  -26.9040  -18.3110   21.3360 C   0  0  0  0  0  2  0  0  0  0  0  0
  -28.3940  -17.4510   21.5320 C   0  0  0  0  0  3  0  0  0  0  0  0
  -29.0270  -16.2510   20.4850 C   0  0  0  0  0  3  0  0  0  0  0  0
  -30.1820  -14.9840   20.5530 C   0  0  0  0  0  0  0  0  0  0  0  0
  -30.4260  -12.6370   19.5600 C   0  0  0  0  0  2  0  0  0  0  0  0
  -29.5300  -12.5250   18.2990 C   0  0  0  0  0  2  0  0  0  0  0  0
  -28.0660  -12.2280   18.6900 C   0  0  0  0  0  2  0  0  0  0  0  0
  -27.5880  -13.1620   19.8200 C   0  0  0  0  0  3  0  0  0  0  0  0
  -28.5670  -13.1600   21.0010 C   0  0  0  0  0  2  0  0  0  0  0  0
  -29.8250  -13.6490   20.4830 N   0  0  0  0  0  0  0  0  0  0  0  0
  -31.3900  -15.1990   20.3210 O   0  0  0  0  0  0  0  0  0  0  0  0
  -25.2340  -13.8000   20.5570 C   0  0  0  0  0  0  0  0  0  0  0  0
  -24.1620  -13.0350   20.9190 C   0  0  0  0  0  0  0  0  0  0  0  0
  -24.6140  -11.6800   20.8750 C   0  0  0  0  0  0  0  0  0  0  0  0
  -26.2510  -12.8980   20.2910 N   0  0  0  0  0  0  0  0  0  0  0  0
  -25.8970  -11.6230   20.5580 N   0  0  0  0  0  0  0  0  0  0  0  0
  -23.8860  -10.4240   21.0460 C   0  0  0  0  0  0  0  0  0  0  0  0
  -24.3500   -9.4190   21.9220 C   0  0  0  0  0  3  0  0  0  0  0  0
  -23.6240   -8.2200   22.0760 C   0  0  0  0  0  3  0  0  0  0  0  0
  -22.4230   -8.0220   21.3540 C   0  0  0  0  0  0  0  0  0  0  0  0
  -21.9810   -9.0180   20.4650 C   0  0  0  0  0  3  0  0  0  0  0  0
  -22.7070  -10.2080   20.3080 C   0  0  0  0  0  3  0  0  0  0  0  0
  -21.6600   -6.8830   21.4240 O   0  0  0  0  0  0  0  0  0  0  0  0
  -21.6840   -6.0710   22.5290 C   0  0  0  0  0  0  0  0  0  0  0  0
  -21.4000   -6.5620   23.8220 C   0  0  0  0  0  3  0  0  0  0  0  0
  -21.3640   -5.6780   24.9180 C   0  0  0  0  0  3  0  0  0  0  0  0
  -21.6040   -4.3040   24.7240 C   0  0  0  0  0  0  0  0  0  0  0  0
  -21.8820   -3.8130   23.4360 C   0  0  0  0  0  3  0  0  0  0  0  0
  -21.9190   -4.6940   22.3410 C   0  0  0  0  0  0  0  0  0  0  0  0
  -22.1660   -4.2120   21.0990 F   0  0  0  0  0  0  0  0  0  0  0  0
  -21.5640   -3.4540   25.7760 F   0  0  0  0  0  0  0  0  0  0  0  0
  -22.7700  -13.5230   21.1910 C   0  0  0  0  0  0  0  0  0  0  0  0
  -22.0340  -12.8250   22.0490 N   0  0  0  0  0  0  0  0  0  0  0  0
  -22.3430  -14.5550   20.6770 O   0  0  0  0  0  0  0  0  0  0  0  0
  -22.3920  -11.9870   22.4820 H   0  0  0  0  0  0  0  0  0  0  0  0
  -21.0990  -13.1360   22.2750 H   0  0  0  0  0  0  0  0  0  0  0  0
  -25.4220  -15.1720   20.4070 N   0  0  0  0  0  0  0  0  0  0  0  0
  -24.6760  -15.8440   20.5480 H   0  0  0  0  0  0  0  0  0  0  0  0
  -26.2820  -15.6020   20.0940 H   0  0  0  0  0  0  0  0  0  0  0  0
  -24.7890  -26.8820   21.2150 O   0  0  0  0  0  0  0  0  0  0  0  0
  -24.6730  -31.9620   23.1970 C   0  0  0  0  0  0  0  0  0  0  0  0
  -26.0400  -27.1240   20.4810 C   0  0  0  0  0  3  0  0  0  0  0  0
  -23.4330  -30.6430   21.5660 C   0  0  0  0  0  3  0  0  0  0  0  0
  -24.7350  -29.2250   19.8600 C   0  0  0  0  0  3  0  0  0  0  0  0
  -25.9670  -30.8040   21.3810 C   0  0  0  0  0  2  0  0  0  0  0  0
  -25.8610  -29.4650   20.6630 C   0  0  0  0  0  3  0  0  0  0  0  0
  -26.6970  -28.3480   20.8640 C   0  0  0  0  0  2  0  0  0  0  0  0
  -25.6950  -27.0960   19.1590 C   0  0  0  0  0  2  0  0  0  0  0  0
  -24.7230  -28.0960   18.9920 C   0  0  0  0  0  2  0  0  0  0  0  0
  -23.5280  -30.0790   20.1080 C   0  0  0  0  0  2  0  0  0  0  0  0
  -24.7130  -31.2140   22.0560 N   0  0  0  0  0  0  0  0  0  0  0  0
  -23.5960  -32.2490   23.7470 O   0  0  0  0  0  0  0  0  0  0  0  0
  -23.0110  -29.6250   22.6350 C   0  0  0  0  0  0  0  0  0  0  0  0
  -21.7450  -29.5110   22.9630 N   0  0  0  0  0  0  0  0  0  0  0  0
  -23.8520  -29.0080   23.2730 O   0  0  0  0  0  0  0  0  0  0  0  0
  -21.0530  -30.0990   22.5200 H   0  0  0  0  0  0  0  0  0  0  0  0
  -18.6190  -27.9600   22.3280 C   0  0  0  0  0  0  0  0  0  0  0  0
  -21.2610  -28.3490   23.7220 C   0  0  0  0  0  2  0  0  0  0  0  0
  -22.3810  -26.7150   23.4400 C   0  0  0  0  0 15  0  0  0  0  0  0
  -20.5650  -25.4870   20.9360 C   0  0  0  0  0 15  0  0  0  0  0  0
  -18.9460  -26.6520   21.1280 C   0  0  0  0  0  1  0  0  0  0  0  0
  -19.5990  -28.6510   23.2900 C   0  0  0  0  0  0  0  0  0  0  0  0
  -19.1120  -29.8370   23.9610 C   0  0  0  0  0  3  0  0  0  0  0  0
  -17.7850  -30.3100   23.9620 C   0  0  0  0  0  3  0  0  0  0  0  0
  -16.8210  -29.5410   23.3080 C   0  0  0  0  0  3  0  0  0  0  0  0
  -17.2370  -28.4120   22.5310 C   0  0  0  0  0  3  0  0  0  0  0  0
  -25.9660  -32.5090   23.8440 C   0  0  0  0  0  3  0  0  0  0  0  0
  -25.6550  -33.8830   24.2500 N   0  0  0  0  0  0  0  0  0  0  0  0
  -25.9230  -34.9620   23.5090 C   0  0  0  0  0  0  0  0  0  0  0  0
  -26.5550  -34.9050   22.4510 O   0  0  0  0  0  0  0  0  0  0  0  0
  -25.0900  -33.9950   25.0780 H   0  0  0  0  0  0  0  0  0  0  0  0
  -24.1530  -36.7330   23.2600 C   0  0  0  0  0  1  0  0  0  0  0  0
  -25.4170  -36.3190   24.0310 C   0  0  0  0  0  3  0  0  0  0  0  0
  -27.5610  -37.1900   24.8470 C   0  0  0  0  0  1  0  0  0  0  0  0
  -26.4310  -37.3900   23.9430 N   0  0  0  0  0  0  0  0  0  0  0  0
  -26.0170  -38.2960   24.1480 H   0  0  0  0  0  0  0  0  0  0  0  0
  -26.4640  -31.6650   25.0800 C   0  0  1  0  0  0  0  0  0  0  0  0
  -25.3700  -31.3800   26.1360 C   0  0  0  0  0  1  0  0  0  0  0  0
  -27.0420  -30.3050   24.6260 C   0  0  0  0  0  1  0  0  0  0  0  0
  -27.6180  -32.4220   25.7780 C   0  0  0  0  0  1  0  0  0  0  0  0
  1  2  1  0
  4  5  2  0
  5  8  1  0
  5  2  1  0
  6 53  1  0
  6  4  1  0
  6  3  1  0
  8  7  1  0
  9  8  1  0
  9 11  1  0
 10  9  1  0
 12  9  1  0
 13 12  2  0
 14 15  1  0
 14 13  1  0
 16 17  1  0
 16 15  2  0
 18 23  1  0
 19 20  1  0
 19 18  1  0
 21 20  1  0
 21 28  1  0
 21 22  1  0
 23 17  1  0
 23 22  1  0
 24 17  2  0
 25 26  2  0
 26 45  1  0
 27 26  1  0
 27 30  1  0
 28 25  1  0
 28 29  1  0
 29 27  2  0
 30 31  1  0
 31 32  2  0
 33 36  1  0
 33 32  1  0
 34 33  2  0
 35 34  1  0
 35 30  2  0
 36 37  1  0
 37 38  1  0
 38 39  2  0
 40 39  1  0
 40 44  1  0
 41 40  2  0
 42 37  2  0
 42 41  1  0
 43 42  1  0
 45 46  1  0
 46 49  1  0
 46 48  1  0
 47 45  2  0
 50 51  1  0
 50 25  1  0
 52 50  1  0
 54 65  2  0
 55 60  1  0
 55 53  1  0
 56 64  1  0
 56 66  1  0
 57 62  1  0
 57 63  1  0
 57 59  1  0
 58 64  1  0
 59 60  1  0
 59 58  1  0
 61 55  1  0
 62 61  1  0
 63 56  1  0
 64 54  1  0
 66 67  1  0
 66 68  2  0
 67 71  1  0
 69 67  1  0
 70 79  2  0
 70 75  1  0
 74 70  1  0
 75 71  1  0
 75 76  2  0
 76 77  1  0
 78 77  2  0
 79 78  1  0
 80 54  1  0
 80 81  1  0
 80 90  1  0
 81 84  1  0
 82 86  1  0
 82 81  1  0
 83 82  2  0
 86 85  1  0
 88 86  1  0
 88 89  1  0
 88 87  1  0
 90 93  1  1
 90 91  1  0
 92 90  1  0
M  ISO  4   6 101  16 100  17 100  53 101
M  END
>  <TORSDO>  (82) 
F 23

>  <SCORE>  (82) 
23.276

>  <name>  (82) 
81

>  <ligand_id>  (82) 
81

>  <original_smiles>  (82) 
[H]c1c([H])c([H])c2c(c1[H])C([H])([H])C([H])([H])C([H])([H])C2([H])N([H])C(=O)C1([H])N(C(=O)C([H])(N([H])C(=O)C([H])(N([H])C([H])([H])[H])C([H])([H])[H])C(C([H])([H])[H])(C([H])([H])[H])C([H])([H])[H])C([H])([H])c2c([H])c(Oc3c([H])c([H])c([H])c(C([H])(C([H])([H])[H])[N+]([H])([H])C([H])([H])C([H])([H])C([H])([H])C([H])([H])C([H])([H])C(=O)N4C([H])([H])C([H])([H])C([H])([H])C([H])(n5nc(-c6c([H])c([H])c(Oc7c([H])c([H])c(F)c([H])c7F)c([H])c6[H])c(C(=O)N([H])[H])c5N([H])[H])C4([H])[H])c3[H])c([H])c([H])c2C1([H])[H]

>  <smiles>  (82) 
[H]c1c([H])c([H])c2c(c1[H])C([H])([H])C([H])([H])C([H])([H])C2([H])N([H])C(=O)C1([H])N(C(=O)C([H])(N([H])C(=O)C([H])(N([H])C([H])([H])[H])C([H])([H])[H])C(C([H])([H])[H])(C([H])([H])[H])C([H])([H])[H])C([H])([H])c2c([H])c(Oc3c([H])c([H])c([H])c(C([H])(C([H])([H])[H])[N+]([H])([H])C([H])([H])C([H])([H])C([H])([H])C([H])([H])C([H])([H])C(=O)N4C([H])([H])C([H])([H])C([H])([H])C([H])(n5nc(-c6c([H])c([H])c(Oc7c([H])c([H])c(F)c([H])c7F)c([H])c6[H])c(C(=O)N([H])[H])c5N([H])[H])C4([H])[H])c3[H])c([H])c([H])c2C1([H])[H]

$$$$
82:0:0
     RDKit          3D

 91100  0  0  1  0  0  0  0  0999 V2000
  -29.1990  -23.0610   21.0920 C   0  0  0  0  0  3  0  0  0  0  0  0
  -28.0340  -21.3730   19.3360 C   0  0  0  0  0  3  0  0  0  0  0  0
  -29.4850  -21.5530   21.0200 C   0  0  0  0  0  0  0  0  0  0  0  0
  -28.9490  -20.5240   20.1550 C   0  0  0  0  0  0  0  0  0  0  0  0
  -28.2820  -23.9540   20.2990 C   0  0  0  0  0  0  0  0  0  0  0  0
  -27.7360  -22.8830   19.3990 C   0  0  0  0  0  0  0  0  0  0  0  0
  -30.5020  -20.7910   21.8700 C   0  0  0  0  0  2  0  0  0  0  0  0
  -29.7580  -18.8780   20.1810 C   0  0  0  0  0  3  0  0  0  0  0  0
  -30.7760  -19.3180   21.2980 C   0  0  0  0  0  3  0  0  0  0  0  0
  -26.8730  -23.3270   18.4540 F   0  0  0  0  0  0  0  0  0  0  0  0
  -30.2760  -15.7410   20.1380 C   0  0  0  0  0  0  0  0  0  0  0  0
  -30.3670  -13.2030   19.2920 C   0  0  0  0  0  2  0  0  0  0  0  0
  -29.4430  -12.7940   18.1070 C   0  0  0  0  0  2  0  0  0  0  0  0
  -28.0390  -12.4230   18.6050 C   0  0  0  0  0  2  0  0  0  0  0  0
  -27.5540  -13.4110   19.6900 C   0  0  0  0  0  3  0  0  0  0  0  0
  -28.6150  -13.7290   20.7700 C   0  0  0  0  0  2  0  0  0  0  0  0
  -29.7560  -14.3720   20.0760 N   0  0  0  0  0  0  0  0  0  0  0  0
  -31.5020  -15.6780   19.9250 O   0  0  0  0  0  0  0  0  0  0  0  0
  -29.5240  -17.1100   20.2410 N   0  0  0  0  0  0  0  0  0  0  0  0
  -28.5420  -16.9160   20.3740 H   0  0  0  0  0  0  0  0  0  0  0  0
  -25.2190  -13.9080   20.5510 C   0  0  0  0  0  0  0  0  0  0  0  0
  -24.1790  -13.1120   20.9390 C   0  0  0  0  0  0  0  0  0  0  0  0
  -24.6580  -11.7680   20.8620 C   0  0  0  0  0  0  0  0  0  0  0  0
  -26.2590  -13.0510   20.2510 N   0  0  0  0  0  0  0  0  0  0  0  0
  -25.9400  -11.7540   20.5050 N   0  0  0  0  0  0  0  0  0  0  0  0
  -23.9460  -10.4950   21.0470 C   0  0  0  0  0  0  0  0  0  0  0  0
  -24.3980   -9.5180   21.9610 C   0  0  0  0  0  3  0  0  0  0  0  0
  -23.6810   -8.3160   22.1380 C   0  0  0  0  0  3  0  0  0  0  0  0
  -22.4950   -8.0810   21.4020 C   0  0  0  0  0  0  0  0  0  0  0  0
  -22.0610   -9.0460   20.4760 C   0  0  0  0  0  3  0  0  0  0  0  0
  -22.7790  -10.2400   20.2970 C   0  0  0  0  0  3  0  0  0  0  0  0
  -21.7480   -6.9310   21.4890 O   0  0  0  0  0  0  0  0  0  0  0  0
  -21.7040   -6.1860   22.6410 C   0  0  0  0  0  0  0  0  0  0  0  0
  -21.2560   -6.7320   23.8640 C   0  0  0  0  0  3  0  0  0  0  0  0
  -21.1610   -5.9130   25.0070 C   0  0  0  0  0  3  0  0  0  0  0  0
  -21.5030   -4.5510   24.9280 C   0  0  0  0  0  0  0  0  0  0  0  0
  -21.9450   -4.0040   23.7100 C   0  0  0  0  0  3  0  0  0  0  0  0
  -22.0420   -4.8200   22.5700 C   0  0  0  0  0  0  0  0  0  0  0  0
  -22.4470   -4.2830   21.3940 F   0  0  0  0  0  0  0  0  0  0  0  0
  -21.4060   -3.7620   26.0240 F   0  0  0  0  0  0  0  0  0  0  0  0
  -22.7870  -13.5720   21.2580 C   0  0  0  0  0  0  0  0  0  0  0  0
  -22.0910  -12.8580   22.1340 N   0  0  0  0  0  0  0  0  0  0  0  0
  -22.3270  -14.6020   20.7660 O   0  0  0  0  0  0  0  0  0  0  0  0
  -22.4790  -12.0250   22.5550 H   0  0  0  0  0  0  0  0  0  0  0  0
  -21.1590  -13.1480   22.3920 H   0  0  0  0  0  0  0  0  0  0  0  0
  -25.3610  -15.2840   20.3970 N   0  0  0  0  0  0  0  0  0  0  0  0
  -24.5880  -15.9250   20.5460 H   0  0  0  0  0  0  0  0  0  0  0  0
  -26.1830  -15.7360   20.0210 H   0  0  0  0  0  0  0  0  0  0  0  0
  -32.0820  -19.3150   20.7420 O   0  0  0  0  0  0  0  0  0  0  0  0
  -32.0800  -19.9220   20.0080 H   0  0  0  0  0  0  0  0  0  0  0  0
  -28.1950  -25.5850   20.3140 O   0  0  0  0  0  0  0  0  0  0  0  0
  -24.6710  -31.8860   23.2380 C   0  0  0  0  0  0  0  0  0  0  0  0
  -27.1790  -26.7660   20.2850 C   0  0  0  0  0  0  0  0  0  0  0  0
  -23.4770  -30.4810   21.6110 C   0  0  0  0  0  3  0  0  0  0  0  0
  -24.9160  -28.8130   20.2120 C   0  0  0  0  0  0  0  0  0  0  0  0
  -26.0550  -30.6090   21.4910 C   0  0  0  0  0  2  0  0  0  0  0  0
  -26.1110  -29.1680   20.8470 C   0  0  0  0  0  0  0  0  0  0  0  0
  -27.2230  -28.1720   20.8540 C   0  0  0  0  0  3  0  0  0  0  0  0
  -25.9520  -26.6240   19.5860 C   0  0  0  0  0  3  0  0  0  0  0  0
  -24.8750  -27.5660   19.5580 C   0  0  0  0  0  3  0  0  0  0  0  0
  -23.7140  -29.7720   20.2460 C   0  0  0  0  0  2  0  0  0  0  0  0
  -24.7590  -31.0280   22.1650 N   0  0  0  0  0  0  0  0  0  0  0  0
  -23.5790  -32.1940   23.7480 O   0  0  0  0  0  0  0  0  0  0  0  0
  -22.7580  -29.5150   22.5910 C   0  0  0  0  0  0  0  0  0  0  0  0
  -21.4260  -29.3540   22.4590 N   0  0  0  0  0  0  0  0  0  0  0  0
  -23.4090  -28.9050   23.4410 O   0  0  0  0  0  0  0  0  0  0  0  0
  -20.9490  -29.8950   21.7510 H   0  0  0  0  0  0  0  0  0  0  0  0
  -18.0440  -28.1220   22.9520 C   0  0  0  0  0  0  0  0  0  0  0  0
  -20.5980  -28.4250   23.2370 C   0  0  0  0  0  3  0  0  0  0  0  0
  -20.7200  -26.9830   22.6910 C   0  0  0  0  0  2  0  0  0  0  0  0
  -19.6340  -26.6310   21.6690 C   0  0  0  0  0  2  0  0  0  0  0  0
  -18.2430  -26.7670   22.2960 C   0  0  0  0  0  2  0  0  0  0  0  0
  -19.1480  -28.9080   23.3800 C   0  0  0  0  0  0  0  0  0  0  0  0
  -18.9040  -30.1720   23.9590 C   0  0  0  0  0  3  0  0  0  0  0  0
  -17.5900  -30.6520   24.1120 C   0  0  0  0  0  3  0  0  0  0  0  0
  -16.5000  -29.8670   23.6970 C   0  0  0  0  0  3  0  0  0  0  0  0
  -16.7280  -28.6040   23.1240 C   0  0  0  0  0  3  0  0  0  0  0  0
  -25.9370  -32.5380   23.8740 C   0  0  0  0  0  3  0  0  0  0  0  0
  -25.6160  -33.9390   24.2080 N   0  0  0  0  0  0  0  0  0  0  0  0
  -25.9260  -35.0040   23.4540 C   0  0  0  0  0  0  0  0  0  0  0  0
  -26.5690  -34.9090   22.4060 O   0  0  0  0  0  0  0  0  0  0  0  0
  -25.0390  -34.0860   25.0240 H   0  0  0  0  0  0  0  0  0  0  0  0
  -24.1740  -36.7950   23.1860 C   0  0  0  0  0  1  0  0  0  0  0  0
  -25.4530  -36.3930   23.9370 C   0  0  0  0  0  3  0  0  0  0  0  0
  -27.6120  -37.3040   24.6750 C   0  0  0  0  0  1  0  0  0  0  0  0
  -26.4730  -37.4530   23.7740 N   0  0  0  0  0  0  0  0  0  0  0  0
  -26.0660  -38.3720   23.9270 H   0  0  0  0  0  0  0  0  0  0  0  0
  -26.4340  -31.7830   25.1700 C   0  0  1  0  0  0  0  0  0  0  0  0
  -25.3290  -31.5680   26.2320 C   0  0  0  0  0  1  0  0  0  0  0  0
  -27.0150  -30.3950   24.8170 C   0  0  0  0  0  1  0  0  0  0  0  0
  -27.5830  -32.5800   25.8320 C   0  0  0  0  0  1  0  0  0  0  0  0
  2  6  2  0
  2  4  1  0
  3  1  1  0
  3  7  1  0
  4  8  1  0
  4  3  2  0
  5 51  1  0
  5  1  2  0
  6  5  1  0
  8 19  1  0
  8  9  1  0
  9 49  1  0
  9  7  1  0
 10  6  1  0
 11 19  1  0
 12 17  1  0
 13 14  1  0
 13 12  1  0
 15 14  1  0
 15 24  1  0
 15 16  1  0
 17 11  1  0
 17 16  1  0
 18 11  2  0
 19 20  1  0
 21 22  2  0
 22 41  1  0
 23 22  1  0
 23 26  1  0
 24 25  1  0
 24 21  1  0
 25 23  2  0
 26 27  1  0
 27 28  2  0
 29 32  1  0
 29 28  1  0
 30 29  2  0
 31 30  1  0
 31 26  2  0
 32 33  1  0
 33 34  1  0
 34 35  2  0
 36 35  1  0
 36 40  1  0
 37 36  2  0
 38 33  2  0
 38 37  1  0
 39 38  1  0
 41 42  1  0
 42 45  1  0
 42 44  1  0
 43 41  2  0
 46 47  1  0
 46 21  1  0
 48 46  1  0
 50 49  1  0
 52 63  2  0
 53 51  1  0
 53 58  1  0
 54 62  1  0
 54 64  1  0
 55 61  1  0
 55 57  1  0
 56 62  1  0
 57 58  2  0
 57 56  1  0
 59 53  2  0
 60 59  1  0
 60 55  2  0
 61 54  1  0
 62 52  1  0
 64 66  2  0
 65 64  1  0
 67 65  1  0
 68 77  2  0
 68 73  1  0
 69 65  1  0
 69 73  1  0
 70 69  1  0
 71 72  1  0
 71 70  1  0
 72 68  1  0
 73 74  2  0
 74 75  1  0
 76 75  2  0
 77 76  1  0
 78 52  1  0
 78 79  1  0
 78 88  1  0
 79 82  1  0
 80 84  1  0
 80 79  1  0
 81 80  2  0
 84 83  1  0
 86 87  1  0
 86 84  1  0
 86 85  1  0
 88 91  1  1
 88 89  1  0
 90 88  1  0
M  ISO  4   5 101  11 100  19 100  51 101
M  END
>  <TORSDO>  (83) 
F 17

>  <SCORE>  (83) 
-15.874

>  <name>  (83) 
82

>  <ligand_id>  (83) 
82

>  <original_smiles>  (83) 
[H]OC1([H])C([H])([H])c2c([H])c(Oc3c([H])c([H])c4c(c3[H])C([H])([H])N(C(=O)C([H])(N([H])C(=O)C([H])(N([H])C([H])([H])[H])C([H])([H])[H])C(C([H])([H])[H])(C([H])([H])[H])C([H])([H])[H])C([H])(C(=O)N([H])C3([H])c5c([H])c([H])c([H])c([H])c5C([H])([H])C([H])([H])C3([H])[H])C4([H])[H])c(F)c([H])c2C1([H])N([H])C(=O)N1C([H])([H])C([H])([H])C([H])([H])C([H])(n2nc(-c3c([H])c([H])c(Oc4c([H])c([H])c(F)c([H])c4F)c([H])c3[H])c(C(=O)N([H])[H])c2N([H])[H])C1([H])[H]

>  <smiles>  (83) 
[H]OC1([H])C([H])([H])c2c([H])c(Oc3c([H])c([H])c4c(c3[H])C([H])([H])N(C(=O)C([H])(N([H])C(=O)C([H])(N([H])C([H])([H])[H])C([H])([H])[H])C(C([H])([H])[H])(C([H])([H])[H])C([H])([H])[H])C([H])(C(=O)N([H])C3([H])c5c([H])c([H])c([H])c([H])c5C([H])([H])C([H])([H])C3([H])[H])C4([H])[H])c(F)c([H])c2C1([H])N([H])C(=O)N1C([H])([H])C([H])([H])C([H])([H])C([H])(n2nc(-c3c([H])c([H])c(Oc4c([H])c([H])c(F)c([H])c4F)c([H])c3[H])c(C(=O)N([H])[H])c2N([H])[H])C1([H])[H]

$$$$
83:0:0
     RDKit          3D

 87 96  0  0  1  0  0  0  0  0999 V2000
  -30.3540  -15.6740   20.2220 C   0  0  0  0  0  0  0  0  0  0  0  0
  -30.5010  -13.0940   19.5100 C   0  0  0  0  0  2  0  0  0  0  0  0
  -29.6360  -12.6160   18.3060 C   0  0  0  0  0  2  0  0  0  0  0  0
  -28.2010  -12.2740   18.7400 C   0  0  0  0  0  2  0  0  0  0  0  0
  -27.6620  -13.3180   19.7420 C   0  0  0  0  0  3  0  0  0  0  0  0
  -28.6750  -13.6420   20.8660 C   0  0  0  0  0  2  0  0  0  0  0  0
  -29.8480  -14.2910   20.2150 N   0  0  0  0  0  0  0  0  0  0  0  0
  -31.5890  -15.6120   20.0560 O   0  0  0  0  0  0  0  0  0  0  0  0
  -29.9950  -21.3740   19.4910 C   0  0  0  0  0  3  0  0  0  0  0  0
  -30.3840  -19.8850   19.5960 C   0  0  0  0  0  3  0  0  0  0  0  0
  -27.9530  -20.8890   20.2620 C   0  0  0  0  0  3  0  0  0  0  0  0
  -28.3380  -19.4140   20.3480 C   0  0  0  0  0  0  0  0  0  0  0  0
  -28.7220  -22.0950   19.8230 C   0  0  0  0  0  0  0  0  0  0  0  0
  -29.5690  -18.7170   20.0420 C   0  0  0  0  0  0  0  0  0  0  0  0
  -27.4080  -18.3050   20.7810 C   0  0  0  0  0  3  0  0  0  0  0  0
  -28.1340  -16.9100   20.5970 C   0  0  0  0  0  3  0  0  0  0  0  0
  -29.5600  -17.0340   20.2380 N   0  0  0  0  0  0  0  0  0  0  0  0
  -25.2750  -13.8860   20.4270 C   0  0  0  0  0  0  0  0  0  0  0  0
  -24.2040  -13.1240   20.7890 C   0  0  0  0  0  0  0  0  0  0  0  0
  -24.6690  -11.7730   20.7970 C   0  0  0  0  0  0  0  0  0  0  0  0
  -26.3260  -13.0060   20.2340 N   0  0  0  0  0  0  0  0  0  0  0  0
  -25.9700  -11.7270   20.5210 N   0  0  0  0  0  0  0  0  0  0  0  0
  -23.9260  -10.5210   20.9890 C   0  0  0  0  0  0  0  0  0  0  0  0
  -24.3350   -9.5570   21.9350 C   0  0  0  0  0  3  0  0  0  0  0  0
  -23.5880   -8.3730   22.1190 C   0  0  0  0  0  3  0  0  0  0  0  0
  -22.4180   -8.1470   21.3560 C   0  0  0  0  0  0  0  0  0  0  0  0
  -22.0270   -9.1010   20.3980 C   0  0  0  0  0  3  0  0  0  0  0  0
  -22.7760  -10.2750   20.2130 C   0  0  0  0  0  3  0  0  0  0  0  0
  -21.6440   -7.0150   21.4470 O   0  0  0  0  0  0  0  0  0  0  0  0
  -21.5880   -6.2750   22.6010 C   0  0  0  0  0  0  0  0  0  0  0  0
  -21.1830   -6.8400   23.8300 C   0  0  0  0  0  3  0  0  0  0  0  0
  -21.0720   -6.0270   24.9760 C   0  0  0  0  0  3  0  0  0  0  0  0
  -21.3560   -4.6510   24.8940 C   0  0  0  0  0  0  0  0  0  0  0  0
  -21.7540   -4.0860   23.6690 C   0  0  0  0  0  3  0  0  0  0  0  0
  -21.8660   -4.8960   22.5260 C   0  0  0  0  0  0  0  0  0  0  0  0
  -22.2300   -4.3420   21.3440 F   0  0  0  0  0  0  0  0  0  0  0  0
  -21.2420   -3.8690   25.9920 F   0  0  0  0  0  0  0  0  0  0  0  0
  -22.8050  -13.6180   21.0060 C   0  0  0  0  0  0  0  0  0  0  0  0
  -22.0520  -12.9600   21.8800 N   0  0  0  0  0  0  0  0  0  0  0  0
  -22.3870  -14.6270   20.4360 O   0  0  0  0  0  0  0  0  0  0  0  0
  -22.4050  -12.1480   22.3640 H   0  0  0  0  0  0  0  0  0  0  0  0
  -21.1130  -13.2760   22.0720 H   0  0  0  0  0  0  0  0  0  0  0  0
  -25.4240  -15.2490   20.2120 N   0  0  0  0  0  0  0  0  0  0  0  0
  -24.6340  -15.8820   20.2560 H   0  0  0  0  0  0  0  0  0  0  0  0
  -26.2550  -15.6760   19.8300 H   0  0  0  0  0  0  0  0  0  0  0  0
  -28.0140  -23.8060   19.5310 C   0  0  0  0  0  2  0  0  0  0  0  0
  -28.2710  -25.5230   19.7510 O   0  0  0  0  0  0  0  0  0  0  0  0
  -24.6850  -31.6150   22.9550 C   0  0  0  0  0  0  0  0  0  0  0  0
  -27.2810  -26.7210   19.7400 C   0  0  0  0  0  0  0  0  0  0  0  0
  -23.5000  -30.2540   21.2850 C   0  0  0  0  0  3  0  0  0  0  0  0
  -24.9630  -28.6930   19.7910 C   0  0  0  0  0  0  0  0  0  0  0  0
  -26.0730  -30.4620   21.1290 C   0  0  0  0  0  2  0  0  0  0  0  0
  -26.1600  -29.0570   20.4190 C   0  0  0  0  0  0  0  0  0  0  0  0
  -27.3020  -28.0980   20.3650 C   0  0  0  0  0  3  0  0  0  0  0  0
  -26.0430  -26.5660   19.0640 C   0  0  0  0  0  3  0  0  0  0  0  0
  -24.9410  -27.4750   19.0900 C   0  0  0  0  0  3  0  0  0  0  0  0
  -23.7340  -29.6120   19.8870 C   0  0  0  0  0  2  0  0  0  0  0  0
  -24.7770  -30.8080   21.8430 N   0  0  0  0  0  0  0  0  0  0  0  0
  -23.5940  -31.8720   23.4940 O   0  0  0  0  0  0  0  0  0  0  0  0
  -22.8200  -29.2270   22.2310 C   0  0  0  0  0  0  0  0  0  0  0  0
  -21.4850  -29.0700   22.1400 N   0  0  0  0  0  0  0  0  0  0  0  0
  -23.5050  -28.5670   23.0170 O   0  0  0  0  0  0  0  0  0  0  0  0
  -20.9820  -29.6510   21.4830 H   0  0  0  0  0  0  0  0  0  0  0  0
  -18.1170  -27.8390   22.7250 C   0  0  0  0  0  0  0  0  0  0  0  0
  -20.6870  -28.0940   22.8920 C   0  0  0  0  0  3  0  0  0  0  0  0
  -20.7610  -26.6950   22.2370 C   0  0  0  0  0  2  0  0  0  0  0  0
  -19.6160  -26.4300   21.2530 C   0  0  0  0  0  2  0  0  0  0  0  0
  -18.2640  -26.5340   21.9620 C   0  0  0  0  0  2  0  0  0  0  0  0
  -19.2530  -28.5800   23.1480 C   0  0  0  0  0  0  0  0  0  0  0  0
  -19.0580  -29.7990   23.8300 C   0  0  0  0  0  3  0  0  0  0  0  0
  -17.7610  -30.2820   24.0880 C   0  0  0  0  0  3  0  0  0  0  0  0
  -16.6400  -29.5400   23.6750 C   0  0  0  0  0  3  0  0  0  0  0  0
  -16.8190  -28.3190   23.0010 C   0  0  0  0  0  3  0  0  0  0  0  0
  -25.9440  -32.2680   23.6000 C   0  0  0  0  0  3  0  0  0  0  0  0
  -25.5830  -33.6290   24.0440 N   0  0  0  0  0  0  0  0  0  0  0  0
  -25.8580  -34.7580   23.3760 C   0  0  0  0  0  0  0  0  0  0  0  0
  -26.5010  -34.7650   22.3230 O   0  0  0  0  0  0  0  0  0  0  0  0
  -25.0030  -33.6920   24.8690 H   0  0  0  0  0  0  0  0  0  0  0  0
  -24.0610  -36.5190   23.2330 C   0  0  0  0  0  1  0  0  0  0  0  0
  -25.3430  -36.0910   23.9640 C   0  0  0  0  0  3  0  0  0  0  0  0
  -27.4750  -36.9880   24.7950 C   0  0  0  0  0  1  0  0  0  0  0  0
  -26.3370  -37.1860   23.9030 N   0  0  0  0  0  0  0  0  0  0  0  0
  -25.9050  -38.0770   24.1350 H   0  0  0  0  0  0  0  0  0  0  0  0
  -26.5120  -31.4410   24.8210 C   0  0  1  0  0  0  0  0  0  0  0  0
  -25.4520  -31.1150   25.9000 C   0  0  0  0  0  1  0  0  0  0  0  0
  -27.1190  -30.1020   24.3480 C   0  0  0  0  0  1  0  0  0  0  0  0
  -27.6590  -32.2270   25.5000 C   0  0  0  0  0  1  0  0  0  0  0  0
  1 17  1  0
  2  7  1  0
  3  4  1  0
  3  2  1  0
  5  4  1  0
  5 21  1  0
  5  6  1  0
  7  1  1  0
  7  6  1  0
  8  1  2  0
  9 10  2  0
  9 13  1  0
 10 14  1  0
 11 12  1  0
 12 15  1  0
 13 11  2  0
 14 17  1  0
 14 12  2  0
 16 15  2  0
 17 16  1  0
 18 19  2  0
 19 20  1  0
 19 38  1  0
 20 23  1  0
 21 18  1  0
 21 22  1  0
 22 20  2  0
 23 24  1  0
 24 25  2  0
 26 29  1  0
 26 25  1  0
 27 26  2  0
 28 27  1  0
 28 23  2  0
 29 30  1  0
 30 31  1  0
 31 32  2  0
 33 32  1  0
 33 37  1  0
 34 33  2  0
 35 30  2  0
 35 34  1  0
 36 35  1  0
 38 39  1  0
 39 42  1  0
 39 41  1  0
 40 38  2  0
 43 44  1  0
 43 18  1  0
 45 43  1  0
 46 47  1  0
 46 13  1  0
 48 59  2  0
 49 47  1  0
 49 54  1  0
 50 58  1  0
 50 60  1  0
 51 57  1  0
 51 53  1  0
 52 58  1  0
 53 52  1  0
 54 53  2  0
 55 56  1  0
 55 49  2  0
 56 51  2  0
 57 50  1  0
 58 48  1  0
 60 62  2  0
 61 60  1  0
 63 61  1  0
 64 73  2  0
 64 69  1  0
 65 61  1  0
 65 69  1  0
 66 65  1  0
 67 68  1  0
 67 66  1  0
 68 64  1  0
 69 70  2  0
 70 71  1  0
 72 71  2  0
 73 72  1  0
 74 48  1  0
 74 75  1  0
 74 84  1  0
 75 78  1  0
 76 80  1  0
 76 75  1  0
 77 76  2  0
 80 79  1  0
 82 80  1  0
 82 83  1  0
 82 81  1  0
 84 87  1  1
 84 85  1  0
 86 84  1  0
M  ISO  4   1 100  17 100  46 101  47 101
M  END
>  <TORSDO>  (84) 
F 16

>  <SCORE>  (84) 
-15.248

>  <name>  (84) 
83

>  <ligand_id>  (84) 
83

>  <original_smiles>  (84) 
[H]c1c([H])c([H])c2c(c1[H])C([H])([H])C([H])([H])C([H])([H])C2([H])N([H])C(=O)C1([H])N(C(=O)C([H])(N([H])C(=O)C([H])(N([H])C([H])([H])[H])C([H])([H])[H])C(C([H])([H])[H])(C([H])([H])[H])C([H])([H])[H])C([H])([H])c2c([H])c(OC([H])([H])c3c([H])c([H])c4c(c3[H])C([H])([H])C([H])([H])N4C(=O)N3C([H])([H])C([H])([H])C([H])([H])C([H])(n4nc(-c5c([H])c([H])c(Oc6c([H])c([H])c(F)c([H])c6F)c([H])c5[H])c(C(=O)N([H])[H])c4N([H])[H])C3([H])[H])c([H])c([H])c2C1([H])[H]

>  <smiles>  (84) 
[H]c1c([H])c([H])c2c(c1[H])C([H])([H])C([H])([H])C([H])([H])C2([H])N([H])C(=O)C1([H])N(C(=O)C([H])(N([H])C(=O)C([H])(N([H])C([H])([H])[H])C([H])([H])[H])C(C([H])([H])[H])(C([H])([H])[H])C([H])([H])[H])C([H])([H])c2c([H])c(OC([H])([H])c3c([H])c([H])c4c(c3[H])C([H])([H])C([H])([H])N4C(=O)N3C([H])([H])C([H])([H])C([H])([H])C([H])(n4nc(-c5c([H])c([H])c(Oc6c([H])c([H])c(F)c([H])c6F)c([H])c5[H])c(C(=O)N([H])[H])c4N([H])[H])C3([H])[H])c([H])c([H])c2C1([H])[H]

$$$$
84:0:0
     RDKit          3D

 90 98  0  0  1  0  0  0  0  0999 V2000
  -27.8280  -24.4520   18.5090 C   0  0  0  0  0  3  0  0  0  0  0  0
  -27.8030  -23.1490   17.9640 C   0  0  0  0  0  3  0  0  0  0  0  0
  -28.7260  -23.4830   20.5260 C   0  0  0  0  0  3  0  0  0  0  0  0
  -28.7610  -22.0790   19.9750 C   0  0  0  0  0  0  0  0  0  0  0  0
  -28.2360  -24.7270   19.8330 C   0  0  0  0  0  0  0  0  0  0  0  0
  -28.2450  -22.0030   18.6620 C   0  0  0  0  0  0  0  0  0  0  0  0
  -28.2090  -20.8170   18.0160 F   0  0  0  0  0  0  0  0  0  0  0  0
  -28.2580  -26.1570   20.2500 O   0  0  0  0  0  0  0  0  0  0  0  0
  -24.6360  -31.9120   23.2160 C   0  0  0  0  0  0  0  0  0  0  0  0
  -27.1960  -27.1550   20.1730 C   0  0  0  0  0  0  0  0  0  0  0  0
  -23.4300  -30.5150   21.5870 C   0  0  0  0  0  3  0  0  0  0  0  0
  -24.8690  -28.9350   20.1570 C   0  0  0  0  0  0  0  0  0  0  0  0
  -25.9870  -30.7670   21.4120 C   0  0  0  0  0  2  0  0  0  0  0  0
  -26.0570  -29.3720   20.7570 C   0  0  0  0  0  0  0  0  0  0  0  0
  -27.2160  -28.4990   20.7450 C   0  0  0  0  0  3  0  0  0  0  0  0
  -25.9630  -26.8240   19.5630 C   0  0  0  0  0  3  0  0  0  0  0  0
  -24.8390  -27.6750   19.5450 C   0  0  0  0  0  3  0  0  0  0  0  0
  -23.6450  -29.8380   20.2080 C   0  0  0  0  0  2  0  0  0  0  0  0
  -24.7060  -31.0880   22.1260 N   0  0  0  0  0  0  0  0  0  0  0  0
  -23.5510  -32.1980   23.7470 O   0  0  0  0  0  0  0  0  0  0  0  0
  -22.7520  -29.5100   22.5530 C   0  0  0  0  0  0  0  0  0  0  0  0
  -21.4260  -29.3300   22.4240 N   0  0  0  0  0  0  0  0  0  0  0  0
  -23.4240  -28.8940   23.3840 O   0  0  0  0  0  0  0  0  0  0  0  0
  -20.9390  -29.8780   21.7290 H   0  0  0  0  0  0  0  0  0  0  0  0
  -18.0510  -28.1050   22.9230 C   0  0  0  0  0  0  0  0  0  0  0  0
  -20.6080  -28.3930   23.1990 C   0  0  0  0  0  3  0  0  0  0  0  0
  -20.7230  -26.9570   22.6380 C   0  0  0  0  0  2  0  0  0  0  0  0
  -19.6300  -26.6150   21.6220 C   0  0  0  0  0  2  0  0  0  0  0  0
  -18.2440  -26.7530   22.2580 C   0  0  0  0  0  2  0  0  0  0  0  0
  -19.1610  -28.8830   23.3510 C   0  0  0  0  0  0  0  0  0  0  0  0
  -18.9260  -30.1460   23.9350 C   0  0  0  0  0  3  0  0  0  0  0  0
  -17.6160  -30.6330   24.0940 C   0  0  0  0  0  3  0  0  0  0  0  0
  -16.5210  -29.8540   23.6810 C   0  0  0  0  0  3  0  0  0  0  0  0
  -16.7390  -28.5920   23.1020 C   0  0  0  0  0  3  0  0  0  0  0  0
  -25.9140  -32.5510   23.8380 C   0  0  0  0  0  3  0  0  0  0  0  0
  -25.6060  -33.9540   24.1560 N   0  0  0  0  0  0  0  0  0  0  0  0
  -25.9490  -35.0040   23.3990 C   0  0  0  0  0  0  0  0  0  0  0  0
  -26.6240  -34.8930   22.3720 O   0  0  0  0  0  0  0  0  0  0  0  0
  -25.0060  -34.1150   24.9520 H   0  0  0  0  0  0  0  0  0  0  0  0
  -24.2460  -36.8200   23.0180 C   0  0  0  0  0  1  0  0  0  0  0  0
  -25.4700  -36.3990   23.8490 C   0  0  0  0  0  3  0  0  0  0  0  0
  -27.5960  -37.2660   24.7200 C   0  0  0  0  0  1  0  0  0  0  0  0
  -26.5140  -37.4410   23.7540 N   0  0  0  0  0  0  0  0  0  0  0  0
  -26.1160  -38.3670   23.8900 H   0  0  0  0  0  0  0  0  0  0  0  0
  -26.4190  -31.7950   25.1290 C   0  0  1  0  0  0  0  0  0  0  0  0
  -25.3190  -31.5770   26.1940 C   0  0  0  0  0  1  0  0  0  0  0  0
  -26.9990  -30.4090   24.7660 C   0  0  0  0  0  1  0  0  0  0  0  0
  -27.5700  -32.5940   25.7870 C   0  0  0  0  0  1  0  0  0  0  0  0
  -29.4290  -20.6800   20.6230 C   0  0  0  0  0  2  0  0  0  0  0  0
  -29.0950  -19.0270   20.2720 C   0  0  0  0  0  2  0  0  0  0  0  0
  -30.5400  -15.1000   20.4210 C   0  0  0  0  0  0  0  0  0  0  0  0
  -30.4550  -12.7330   19.4800 C   0  0  0  0  0  2  0  0  0  0  0  0
  -29.5290  -12.6410   18.2460 C   0  0  0  0  0  2  0  0  0  0  0  0
  -28.0710  -12.3990   18.6770 C   0  0  0  0  0  2  0  0  0  0  0  0
  -27.6370  -13.3270   19.8410 C   0  0  0  0  0  3  0  0  0  0  0  0
  -28.6890  -13.3900   20.9680 C   0  0  0  0  0  2  0  0  0  0  0  0
  -29.9440  -13.8350   20.3500 N   0  0  0  0  0  0  0  0  0  0  0  0
  -31.7590  -15.1200   20.2170 O   0  0  0  0  0  0  0  0  0  0  0  0
  -30.1010  -17.7060   20.5270 C   0  0  0  0  0  0  0  0  0  0  0  0
  -29.7570  -16.3090   20.4780 N   0  0  0  0  0  0  0  0  0  0  0  0
  -31.2720  -18.0160   20.7580 O   0  0  0  0  0  0  0  0  0  0  0  0
  -28.7660  -16.1420   20.4310 H   0  0  0  0  0  0  0  0  0  0  0  0
  -25.2500  -13.8630   20.5780 C   0  0  0  0  0  0  0  0  0  0  0  0
  -24.1970  -13.0720   20.9430 C   0  0  0  0  0  0  0  0  0  0  0  0
  -24.6820  -11.7280   20.9120 C   0  0  0  0  0  0  0  0  0  0  0  0
  -26.3060  -13.0020   20.3400 N   0  0  0  0  0  0  0  0  0  0  0  0
  -25.9760  -11.7130   20.6090 N   0  0  0  0  0  0  0  0  0  0  0  0
  -23.9740  -10.4540   21.0960 C   0  0  0  0  0  0  0  0  0  0  0  0
  -24.4150   -9.4900   22.0280 C   0  0  0  0  0  3  0  0  0  0  0  0
  -23.7040   -8.2820   22.2000 C   0  0  0  0  0  3  0  0  0  0  0  0
  -22.5360   -8.0320   21.4400 C   0  0  0  0  0  0  0  0  0  0  0  0
  -22.1140   -8.9860   20.4970 C   0  0  0  0  0  3  0  0  0  0  0  0
  -22.8260  -10.1830   20.3230 C   0  0  0  0  0  3  0  0  0  0  0  0
  -21.7960   -6.8770   21.5220 O   0  0  0  0  0  0  0  0  0  0  0  0
  -21.7510   -6.1320   22.6730 C   0  0  0  0  0  0  0  0  0  0  0  0
  -21.2880   -6.6710   23.8930 C   0  0  0  0  0  3  0  0  0  0  0  0
  -21.1920   -5.8500   25.0340 C   0  0  0  0  0  3  0  0  0  0  0  0
  -21.5480   -4.4910   24.9560 C   0  0  0  0  0  0  0  0  0  0  0  0
  -22.0050   -3.9510   23.7410 C   0  0  0  0  0  3  0  0  0  0  0  0
  -22.1020   -4.7690   22.6020 C   0  0  0  0  0  0  0  0  0  0  0  0
  -22.5220   -4.2380   21.4290 F   0  0  0  0  0  0  0  0  0  0  0  0
  -21.4490   -3.7010   26.0510 F   0  0  0  0  0  0  0  0  0  0  0  0
  -22.7900  -13.5270   21.2010 C   0  0  0  0  0  0  0  0  0  0  0  0
  -22.0640  -12.8170   22.0560 N   0  0  0  0  0  0  0  0  0  0  0  0
  -22.3440  -14.5480   20.6800 O   0  0  0  0  0  0  0  0  0  0  0  0
  -22.4370  -11.9910   22.4990 H   0  0  0  0  0  0  0  0  0  0  0  0
  -21.1190  -13.1040   22.2720 H   0  0  0  0  0  0  0  0  0  0  0  0
  -25.3880  -15.2370   20.4000 N   0  0  0  0  0  0  0  0  0  0  0  0
  -24.6010  -15.8690   20.4970 H   0  0  0  0  0  0  0  0  0  0  0  0
  -26.2110  -15.6870   20.0210 H   0  0  0  0  0  0  0  0  0  0  0  0
  1  5  1  0
  2  1  2  0
  2  6  1  0
  4  3  1  0
  4 49  1  0
  5  8  1  0
  5  3  2  0
  6  4  2  0
  7  6  1  0
  9 20  2  0
 10  8  1  0
 10 15  1  0
 11 19  1  0
 11 21  1  0
 12 18  1  0
 12 14  1  0
 13 19  1  0
 14 13  1  0
 15 14  2  0
 16 10  2  0
 17 16  1  0
 17 12  2  0
 18 11  1  0
 19  9  1  0
 21 23  2  0
 22 21  1  0
 24 22  1  0
 25 34  2  0
 25 30  1  0
 26 22  1  0
 26 30  1  0
 27 26  1  0
 28 29  1  0
 28 27  1  0
 29 25  1  0
 30 31  2  0
 31 32  1  0
 33 32  2  0
 34 33  1  0
 35  9  1  0
 35 36  1  0
 35 45  1  0
 36 39  1  0
 37 41  1  0
 37 36  1  0
 38 37  2  0
 41 40  1  0
 43 41  1  0
 43 44  1  0
 43 42  1  0
 45 48  1  1
 45 46  1  0
 47 45  1  0
 50 59  1  0
 50 49  1  0
 51 60  1  0
 52 57  1  0
 53 54  1  0
 53 52  1  0
 55 54  1  0
 55 66  1  0
 55 56  1  0
 57 51  1  0
 57 56  1  0
 58 51  2  0
 59 61  2  0
 60 59  1  0
 62 60  1  0
 63 64  2  0
 64 83  1  0
 65 64  1  0
 65 68  1  0
 66 63  1  0
 66 67  1  0
 67 65  2  0
 68 69  1  0
 69 70  2  0
 71 74  1  0
 71 70  1  0
 72 71  2  0
 73 72  1  0
 73 68  2  0
 74 75  1  0
 75 76  1  0
 76 77  2  0
 78 77  1  0
 78 82  1  0
 79 78  2  0
 80 75  2  0
 80 79  1  0
 81 80  1  0
 83 84  1  0
 84 87  1  0
 84 86  1  0
 85 83  2  0
 88 89  1  0
 88 63  1  0
 90 88  1  0
M  ISO  4   5 101   8 101  51 100  60 100
M  END
>  <TORSDO>  (85) 
F 18

>  <SCORE>  (85) 
-15.522

>  <name>  (85) 
84

>  <ligand_id>  (85) 
84

>  <original_smiles>  (85) 
[H]c1c([H])c([H])c2c(c1[H])C([H])([H])C([H])([H])C([H])([H])C2([H])N([H])C(=O)C1([H])N(C(=O)C([H])(N([H])C(=O)C([H])(N([H])C([H])([H])[H])C([H])([H])[H])C(C([H])([H])[H])(C([H])([H])[H])C([H])([H])[H])C([H])([H])c2c([H])c(Oc3c([H])c([H])c(F)c(C([H])([H])C([H])([H])C(=O)N([H])C(=O)N4C([H])([H])C([H])([H])C([H])([H])C([H])(n5nc(-c6c([H])c([H])c(Oc7c([H])c([H])c(F)c([H])c7F)c([H])c6[H])c(C(=O)N([H])[H])c5N([H])[H])C4([H])[H])c3[H])c([H])c([H])c2C1([H])[H]

>  <smiles>  (85) 
[H]c1c([H])c([H])c2c(c1[H])C([H])([H])C([H])([H])C([H])([H])C2([H])N([H])C(=O)C1([H])N(C(=O)C([H])(N([H])C(=O)C([H])(N([H])C([H])([H])[H])C([H])([H])[H])C(C([H])([H])[H])(C([H])([H])[H])C([H])([H])[H])C([H])([H])c2c([H])c(Oc3c([H])c([H])c(F)c(C([H])([H])C([H])([H])C(=O)N([H])C(=O)N4C([H])([H])C([H])([H])C([H])([H])C([H])(n5nc(-c6c([H])c([H])c(Oc7c([H])c([H])c(F)c([H])c7F)c([H])c6[H])c(C(=O)N([H])[H])c5N([H])[H])C4([H])[H])c3[H])c([H])c([H])c2C1([H])[H]

$$$$
85:0:0
     RDKit          3D

 88 97  0  0  1  0  0  0  0  0999 V2000
  -30.5120  -20.2320   20.0030 C   0  0  0  0  0  3  0  0  0  0  0  0
  -30.1370  -21.7160   19.9530 C   0  0  0  0  0  3  0  0  0  0  0  0
  -27.9550  -21.1450   19.9000 C   0  0  0  0  0  3  0  0  0  0  0  0
  -29.6240  -19.0430   19.9740 C   0  0  0  0  0  0  0  0  0  0  0  0
  -28.3330  -19.6790   19.9320 C   0  0  0  0  0  0  0  0  0  0  0  0
  -28.8000  -22.3710   19.9160 C   0  0  0  0  0  0  0  0  0  0  0  0
  -27.3360  -18.5370   20.0250 C   0  0  0  0  0  2  0  0  0  0  0  0
  -28.1020  -17.1530   19.9630 C   0  0  0  0  0  2  0  0  0  0  0  0
  -29.6210  -17.2640   20.2880 C   0  0  2  0  0  0  0  0  0  0  0  0
  -29.8030  -17.2430   21.8200 C   0  0  0  0  0  1  0  0  0  0  0  0
  -30.4270  -15.6500   19.8500 C   0  0  0  0  0  0  0  0  0  0  0  0
  -30.5560  -13.0950   19.1000 C   0  0  0  0  0  2  0  0  0  0  0  0
  -29.6000  -12.6970   17.9400 C   0  0  0  0  0  2  0  0  0  0  0  0
  -28.2000  -12.3400   18.4650 C   0  0  0  0  0  2  0  0  0  0  0  0
  -27.7370  -13.3420   19.5480 C   0  0  0  0  0  3  0  0  0  0  0  0
  -28.8270  -13.6480   20.6020 C   0  0  0  0  0  2  0  0  0  0  0  0
  -29.9740  -14.2640   19.8940 N   0  0  0  0  0  0  0  0  0  0  0  0
  -31.6130  -15.6450   19.4690 O   0  0  0  0  0  0  0  0  0  0  0  0
  -25.4260  -13.8350   20.4980 C   0  0  0  0  0  0  0  0  0  0  0  0
  -24.3990  -13.0360   20.9120 C   0  0  0  0  0  0  0  0  0  0  0  0
  -24.8650  -11.6940   20.7800 C   0  0  0  0  0  0  0  0  0  0  0  0
  -26.4540  -12.9820   20.1410 N   0  0  0  0  0  0  0  0  0  0  0  0
  -26.1330  -11.6810   20.3730 N   0  0  0  0  0  0  0  0  0  0  0  0
  -24.1500  -10.4240   20.9600 C   0  0  0  0  0  0  0  0  0  0  0  0
  -24.5830   -9.4530   21.8900 C   0  0  0  0  0  3  0  0  0  0  0  0
  -23.8630   -8.2520   22.0600 C   0  0  0  0  0  3  0  0  0  0  0  0
  -22.6930   -8.0120   21.2990 C   0  0  0  0  0  0  0  0  0  0  0  0
  -22.2780   -8.9710   20.3590 C   0  0  0  0  0  3  0  0  0  0  0  0
  -23.0000  -10.1630   20.1870 C   0  0  0  0  0  3  0  0  0  0  0  0
  -21.9430   -6.8630   21.3790 O   0  0  0  0  0  0  0  0  0  0  0  0
  -21.7950   -6.1810   22.5600 C   0  0  0  0  0  0  0  0  0  0  0  0
  -21.2010   -6.7780   23.6950 C   0  0  0  0  0  3  0  0  0  0  0  0
  -21.0040   -6.0210   24.8670 C   0  0  0  0  0  3  0  0  0  0  0  0
  -21.3900   -4.6680   24.9050 C   0  0  0  0  0  0  0  0  0  0  0  0
  -21.9750   -4.0700   23.7730 C   0  0  0  0  0  3  0  0  0  0  0  0
  -22.1740   -4.8250   22.6040 C   0  0  0  0  0  0  0  0  0  0  0  0
  -22.7180   -4.2390   21.5110 F   0  0  0  0  0  0  0  0  0  0  0  0
  -21.1930   -3.9370   26.0260 F   0  0  0  0  0  0  0  0  0  0  0  0
  -23.0260  -13.4990   21.3040 C   0  0  0  0  0  0  0  0  0  0  0  0
  -22.3690  -12.7740   22.2000 N   0  0  0  0  0  0  0  0  0  0  0  0
  -22.5510  -14.5410   20.8520 O   0  0  0  0  0  0  0  0  0  0  0  0
  -22.7700  -11.9330   22.5870 H   0  0  0  0  0  0  0  0  0  0  0  0
  -21.4510  -13.0660   22.5060 H   0  0  0  0  0  0  0  0  0  0  0  0
  -25.5530  -15.2110   20.3630 N   0  0  0  0  0  0  0  0  0  0  0  0
  -24.7810  -15.8390   20.5540 H   0  0  0  0  0  0  0  0  0  0  0  0
  -26.3560  -15.6780   19.9650 H   0  0  0  0  0  0  0  0  0  0  0  0
  -28.1510  -24.0850   19.7190 C   0  0  0  0  0  2  0  0  0  0  0  0
  -28.4230  -25.7280   20.1410 O   0  0  0  0  0  0  0  0  0  0  0  0
  -24.7940  -31.7410   23.3080 C   0  0  0  0  0  0  0  0  0  0  0  0
  -27.4520  -26.9200   20.1040 C   0  0  0  0  0  0  0  0  0  0  0  0
  -23.6660  -30.4420   21.5510 C   0  0  0  0  0  3  0  0  0  0  0  0
  -25.1670  -28.8980   20.0900 C   0  0  0  0  0  0  0  0  0  0  0  0
  -26.2430  -30.6170   21.5200 C   0  0  0  0  0  2  0  0  0  0  0  0
  -26.3370  -29.2330   20.7830 C   0  0  0  0  0  0  0  0  0  0  0  0
  -27.4670  -28.2710   20.7620 C   0  0  0  0  0  3  0  0  0  0  0  0
  -26.2500  -26.7800   19.3660 C   0  0  0  0  0  3  0  0  0  0  0  0
  -25.1580  -27.6960   19.3620 C   0  0  0  0  0  3  0  0  0  0  0  0
  -23.9510  -29.8320   20.1490 C   0  0  0  0  0  2  0  0  0  0  0  0
  -24.9220  -30.9610   22.1810 N   0  0  0  0  0  0  0  0  0  0  0  0
  -23.6840  -32.0060   23.7990 O   0  0  0  0  0  0  0  0  0  0  0  0
  -22.9250  -29.4030   22.4360 C   0  0  0  0  0  0  0  0  0  0  0  0
  -21.5950  -29.2700   22.2740 N   0  0  0  0  0  0  0  0  0  0  0  0
  -23.5600  -28.7160   23.2400 O   0  0  0  0  0  0  0  0  0  0  0  0
  -21.1340  -29.8770   21.6100 H   0  0  0  0  0  0  0  0  0  0  0  0
  -18.1750  -28.1220   22.6980 C   0  0  0  0  0  0  0  0  0  0  0  0
  -20.7430  -28.2930   22.9630 C   0  0  0  0  0  3  0  0  0  0  0  0
  -20.8000  -26.9150   22.2620 C   0  0  0  0  0  2  0  0  0  0  0  0
  -19.6850  -26.7170   21.2300 C   0  0  0  0  0  2  0  0  0  0  0  0
  -18.3100  -26.8390   21.8950 C   0  0  0  0  0  2  0  0  0  0  0  0
  -19.3160  -28.8130   23.1850 C   0  0  0  0  0  0  0  0  0  0  0  0
  -19.1320  -30.0150   23.9020 C   0  0  0  0  0  3  0  0  0  0  0  0
  -17.8410  -30.5270   24.1290 C   0  0  0  0  0  3  0  0  0  0  0  0
  -16.7150  -29.8340   23.6540 C   0  0  0  0  0  3  0  0  0  0  0  0
  -16.8820  -28.6310   22.9450 C   0  0  0  0  0  3  0  0  0  0  0  0
  -26.0350  -32.3510   24.0260 C   0  0  0  0  0  3  0  0  0  0  0  0
  -25.7230  -33.7530   24.3710 N   0  0  0  0  0  0  0  0  0  0  0  0
  -26.0730  -34.8210   23.6440 C   0  0  0  0  0  0  0  0  0  0  0  0
  -26.7510  -34.7330   22.6170 O   0  0  0  0  0  0  0  0  0  0  0  0
  -25.1210  -33.8950   25.1690 H   0  0  0  0  0  0  0  0  0  0  0  0
  -24.3450  -36.6330   23.3470 C   0  0  0  0  0  1  0  0  0  0  0  0
  -25.6000  -36.2100   24.1290 C   0  0  0  0  0  3  0  0  0  0  0  0
  -27.7440  -37.0930   24.9420 C   0  0  0  0  0  1  0  0  0  0  0  0
  -26.6340  -37.2620   24.0090 N   0  0  0  0  0  0  0  0  0  0  0  0
  -26.2300  -38.1820   24.1610 H   0  0  0  0  0  0  0  0  0  0  0  0
  -26.4470  -31.5580   25.3290 C   0  0  1  0  0  0  0  0  0  0  0  0
  -25.2790  -31.3320   26.3190 C   0  0  0  0  0  1  0  0  0  0  0  0
  -27.0270  -30.1720   24.9720 C   0  0  0  0  0  1  0  0  0  0  0  0
  -27.5660  -32.3220   26.0750 C   0  0  0  0  0  1  0  0  0  0  0  0
  2  1  2  0
  3  6  2  0
  3  5  1  0
  4  1  1  0
  4  9  1  0
  5  4  2  0
  5  7  1  0
  6  2  1  0
  8  7  1  0
  8  9  1  0
  9 10  1  1
 11 17  1  0
 11  9  1  0
 12 17  1  0
 13 14  1  0
 13 12  1  0
 15 14  1  0
 15 22  1  0
 15 16  1  0
 17 16  1  0
 18 11  2  0
 19 20  2  0
 20 39  1  0
 21 20  1  0
 21 24  1  0
 22 23  1  0
 22 19  1  0
 23 21  2  0
 24 25  1  0
 25 26  2  0
 27 30  1  0
 27 26  1  0
 28 27  2  0
 29 28  1  0
 29 24  2  0
 30 31  1  0
 31 36  2  0
 31 32  1  0
 32 33  2  0
 33 34  1  0
 34 38  1  0
 35 34  2  0
 36 35  1  0
 37 36  1  0
 39 40  1  0
 40 43  1  0
 40 42  1  0
 41 39  2  0
 44 19  1  0
 44 45  1  0
 46 44  1  0
 47  6  1  0
 47 48  1  0
 49 60  2  0
 50 48  1  0
 50 55  1  0
 51 59  1  0
 51 61  1  0
 52 58  1  0
 52 54  1  0
 53 59  1  0
 54 53  1  0
 55 54  2  0
 56 50  2  0
 57 56  1  0
 57 52  2  0
 58 51  1  0
 59 49  1  0
 61 63  2  0
 62 61  1  0
 64 62  1  0
 65 74  2  0
 65 70  1  0
 66 62  1  0
 66 70  1  0
 67 66  1  0
 68 69  1  0
 68 67  1  0
 69 65  1  0
 70 71  2  0
 71 72  1  0
 73 72  2  0
 74 73  1  0
 75 49  1  0
 75 76  1  0
 75 85  1  0
 76 79  1  0
 77 81  1  0
 77 76  1  0
 78 77  2  0
 81 80  1  0
 83 81  1  0
 83 84  1  0
 83 82  1  0
 85 88  1  1
 85 86  1  0
 87 85  1  0
M  ISO  4   9 100  11 100  47 101  48 101
M  END
>  <TORSDO>  (86) 
F 17

>  <SCORE>  (86) 
-16.308

>  <name>  (86) 
85

>  <ligand_id>  (86) 
85

>  <original_smiles>  (86) 
[H]c1c([H])c([H])c2c(c1[H])C([H])([H])C([H])([H])C([H])([H])C2([H])N([H])C(=O)C1([H])N(C(=O)C([H])(N([H])C(=O)C([H])(N([H])C([H])([H])[H])C([H])([H])[H])C(C([H])([H])[H])(C([H])([H])[H])C([H])([H])[H])C([H])([H])c2c([H])c(OC([H])([H])c3c([H])c([H])c4c(c3[H])C([H])([H])C([H])([H])C4(C(=O)N3C([H])([H])C([H])([H])C([H])([H])C([H])(n4nc(-c5c([H])c([H])c(Oc6c([H])c([H])c(F)c([H])c6F)c([H])c5[H])c(C(=O)N([H])[H])c4N([H])[H])C3([H])[H])C([H])([H])[H])c([H])c([H])c2C1([H])[H]

>  <smiles>  (86) 
[H]c1c([H])c([H])c2c(c1[H])C([H])([H])C([H])([H])C([H])([H])C2([H])N([H])C(=O)C1([H])N(C(=O)C([H])(N([H])C(=O)C([H])(N([H])C([H])([H])[H])C([H])([H])[H])C(C([H])([H])[H])(C([H])([H])[H])C([H])([H])[H])C([H])([H])c2c([H])c(OC([H])([H])c3c([H])c([H])c4c(c3[H])C([H])([H])C([H])([H])C4(C(=O)N3C([H])([H])C([H])([H])C([H])([H])C([H])(n4nc(-c5c([H])c([H])c(Oc6c([H])c([H])c(F)c([H])c6F)c([H])c5[H])c(C(=O)N([H])[H])c4N([H])[H])C3([H])[H])C([H])([H])[H])c([H])c([H])c2C1([H])[H]

$$$$
86:0:0
     RDKit          3D

100109  0  0  1  0  0  0  0  0999 V2000
  -30.1550  -20.1750   20.9850 C   0  0  0  0  0  3  0  0  0  0  0  0
  -30.9270  -19.7090   23.4560 C   0  0  0  0  0  2  0  0  0  0  0  0
  -30.5330  -22.0700   22.7190 C   0  0  0  0  0  2  0  0  0  0  0  0
  -30.7870  -20.1360   24.9310 C   0  0  0  0  0  2  0  0  0  0  0  0
  -30.3690  -22.5170   24.1850 C   0  0  0  0  0  2  0  0  0  0  0  0
  -30.0910  -20.5960   22.4960 C   0  0  0  0  0  3  0  0  0  0  0  0
  -31.1410  -21.6180   25.1700 C   0  0  0  0  0  3  0  0  0  0  0  0
  -32.5970  -21.8590   25.1180 N   0  0  0  0  0  4  0  0  0  0  0  0
  -32.9830  -21.6470   24.2160 H   0  0  0  0  0  0  0  0  0  0  0  0
  -33.0670  -21.2970   25.8050 H   0  0  0  0  0  0  0  0  0  0  0  0
  -32.7950  -22.8210   25.3290 H   0  0  0  0  0  0  0  0  0  0  0  0
  -30.2600  -22.5500   17.8990 C   0  0  0  0  0  3  0  0  0  0  0  0
  -29.4350  -23.6430   18.2440 C   0  0  0  0  0  3  0  0  0  0  0  0
  -30.4150  -21.4410   18.7600 C   0  0  0  0  0  3  0  0  0  0  0  0
  -28.8670  -22.4820   20.3080 C   0  0  0  0  0  3  0  0  0  0  0  0
  -28.7220  -23.6460   19.4560 C   0  0  0  0  0  0  0  0  0  0  0  0
  -29.7440  -21.3670   20.0030 C   0  0  0  0  0  0  0  0  0  0  0  0
  -27.7170  -24.8210   19.7590 C   0  0  0  0  0  2  0  0  0  0  0  0
  -28.0460  -26.2580   19.4890 O   0  0  0  0  0  0  0  0  0  0  0  0
  -24.6840  -31.6590   22.9850 C   0  0  0  0  0  0  0  0  0  0  0  0
  -26.9730  -27.1770   19.5490 C   0  0  0  0  0  0  0  0  0  0  0  0
  -23.3510  -30.3880   21.3460 C   0  0  0  0  0  3  0  0  0  0  0  0
  -24.6710  -28.8820   19.7600 C   0  0  0  0  0  0  0  0  0  0  0  0
  -25.8900  -30.6350   21.0390 C   0  0  0  0  0  2  0  0  0  0  0  0
  -25.8900  -29.2920   20.3140 C   0  0  0  0  0  0  0  0  0  0  0  0
  -27.0450  -28.4560   20.1970 C   0  0  0  0  0  3  0  0  0  0  0  0
  -25.7250  -26.8390   18.9710 C   0  0  0  0  0  3  0  0  0  0  0  0
  -24.5920  -27.6620   19.0790 C   0  0  0  0  0  3  0  0  0  0  0  0
  -23.4690  -29.7890   19.9220 C   0  0  0  0  0  2  0  0  0  0  0  0
  -24.6640  -30.9080   21.8450 N   0  0  0  0  0  0  0  0  0  0  0  0
  -23.6390  -31.9380   23.5910 O   0  0  0  0  0  0  0  0  0  0  0  0
  -22.7100  -29.3370   22.2840 C   0  0  0  0  0  0  0  0  0  0  0  0
  -21.3760  -29.1910   22.2110 N   0  0  0  0  0  0  0  0  0  0  0  0
  -23.4100  -28.6590   23.0400 O   0  0  0  0  0  0  0  0  0  0  0  0
  -20.8680  -29.7900   21.5740 H   0  0  0  0  0  0  0  0  0  0  0  0
  -18.0000  -28.0310   22.8030 C   0  0  0  0  0  0  0  0  0  0  0  0
  -20.5710  -28.2340   22.9740 C   0  0  0  0  0  3  0  0  0  0  0  0
  -20.6210  -26.8270   22.3350 C   0  0  0  0  0  2  0  0  0  0  0  0
  -19.4710  -26.5680   21.3560 C   0  0  0  0  0  2  0  0  0  0  0  0
  -18.1200  -26.7100   22.0630 C   0  0  0  0  0  2  0  0  0  0  0  0
  -19.1490  -28.7550   23.2170 C   0  0  0  0  0  0  0  0  0  0  0  0
  -18.9790  -29.9940   23.8710 C   0  0  0  0  0  3  0  0  0  0  0  0
  -17.6920  -30.5100   24.1140 C   0  0  0  0  0  3  0  0  0  0  0  0
  -16.5570  -29.7820   23.7150 C   0  0  0  0  0  3  0  0  0  0  0  0
  -16.7120  -28.5450   23.0660 C   0  0  0  0  0  3  0  0  0  0  0  0
  -26.0160  -32.2210   23.5650 C   0  0  0  0  0  3  0  0  0  0  0  0
  -25.7420  -33.5710   24.0820 N   0  0  0  0  0  0  0  0  0  0  0  0
  -26.0610  -34.7080   23.4490 C   0  0  0  0  0  0  0  0  0  0  0  0
  -26.6900  -34.7280   22.3870 O   0  0  0  0  0  0  0  0  0  0  0  0
  -25.1820  -33.6290   24.9190 H   0  0  0  0  0  0  0  0  0  0  0  0
  -24.3550  -36.5550   23.3900 C   0  0  0  0  0  1  0  0  0  0  0  0
  -25.6150  -36.0320   24.0980 C   0  0  0  0  0  3  0  0  0  0  0  0
  -27.7920  -36.7740   24.9590 C   0  0  0  0  0  1  0  0  0  0  0  0
  -26.6620  -37.0770   24.0840 N   0  0  0  0  0  0  0  0  0  0  0  0
  -26.2780  -37.9760   24.3620 H   0  0  0  0  0  0  0  0  0  0  0  0
  -26.6340  -31.3100   24.6970 C   0  0  1  0  0  0  0  0  0  0  0  0
  -25.6340  -30.9490   25.8200 C   0  0  0  0  0  1  0  0  0  0  0  0
  -27.1720  -29.9880   24.1030 C   0  0  0  0  0  1  0  0  0  0  0  0
  -27.8420  -32.0280   25.3440 C   0  0  0  0  0  1  0  0  0  0  0  0
  -29.5630  -18.7860   20.7360 N   0  0  0  0  0  4  0  0  0  0  0  0
  -28.8010  -18.6570   21.3800 H   0  0  0  0  0  0  0  0  0  0  0  0
  -29.1450  -18.8210   19.8210 H   0  0  0  0  0  0  0  0  0  0  0  0
  -30.4830  -17.5490   20.7400 C   0  0  0  0  0  3  0  0  0  0  0  0
  -29.8460  -16.0850   20.9680 C   0  0  0  0  0  3  0  0  0  0  0  0
  -30.6770  -14.7610   20.6380 C   0  0  0  0  0  0  0  0  0  0  0  0
  -30.4720  -12.5390   19.5190 C   0  0  0  0  0  2  0  0  0  0  0  0
  -29.5440  -12.7030   18.2920 C   0  0  0  0  0  2  0  0  0  0  0  0
  -28.0640  -12.5390   18.6930 C   0  0  0  0  0  2  0  0  0  0  0  0
  -27.6930  -13.3740   19.9470 C   0  0  0  0  0  3  0  0  0  0  0  0
  -28.7360  -13.1950   21.0710 C   0  0  0  0  0  2  0  0  0  0  0  0
  -30.0570  -13.5370   20.5280 N   0  0  0  0  0  0  0  0  0  0  0  0
  -31.8590  -14.8780   20.3000 O   0  0  0  0  0  0  0  0  0  0  0  0
  -25.2980  -13.9770   20.6510 C   0  0  0  0  0  0  0  0  0  0  0  0
  -24.2190  -13.2070   20.9880 C   0  0  0  0  0  0  0  0  0  0  0  0
  -24.6700  -11.8520   20.9350 C   0  0  0  0  0  0  0  0  0  0  0  0
  -26.3380  -13.0930   20.4110 N   0  0  0  0  0  0  0  0  0  0  0  0
  -25.9640  -11.8080   20.6440 N   0  0  0  0  0  0  0  0  0  0  0  0
  -23.9290  -10.5940   21.0870 C   0  0  0  0  0  0  0  0  0  0  0  0
  -24.3270   -9.6090   22.0180 C   0  0  0  0  0  3  0  0  0  0  0  0
  -23.5880   -8.4160   22.1590 C   0  0  0  0  0  3  0  0  0  0  0  0
  -22.4360   -8.1970   21.3670 C   0  0  0  0  0  0  0  0  0  0  0  0
  -22.0570   -9.1690   20.4240 C   0  0  0  0  0  3  0  0  0  0  0  0
  -22.7960  -10.3550   20.2820 C   0  0  0  0  0  3  0  0  0  0  0  0
  -21.6720   -7.0560   21.4170 O   0  0  0  0  0  0  0  0  0  0  0  0
  -21.5630   -6.3110   22.5640 C   0  0  0  0  0  0  0  0  0  0  0  0
  -21.0760   -6.8650   23.7680 C   0  0  0  0  0  3  0  0  0  0  0  0
  -20.9160   -6.0460   24.9050 C   0  0  0  0  0  3  0  0  0  0  0  0
  -21.2330   -4.6760   24.8370 C   0  0  0  0  0  0  0  0  0  0  0  0
  -21.7130   -4.1230   23.6370 C   0  0  0  0  0  3  0  0  0  0  0  0
  -21.8750   -4.9380   22.5020 C   0  0  0  0  0  0  0  0  0  0  0  0
  -22.3180   -4.3960   21.3430 F   0  0  0  0  0  0  0  0  0  0  0  0
  -21.0720   -3.8880   25.9250 F   0  0  0  0  0  0  0  0  0  0  0  0
  -22.8220  -13.6920   21.2500 C   0  0  0  0  0  0  0  0  0  0  0  0
  -22.0790  -12.9900   22.0980 N   0  0  0  0  0  0  0  0  0  0  0  0
  -22.3980  -14.7260   20.7360 O   0  0  0  0  0  0  0  0  0  0  0  0
  -22.4340  -12.1520   22.5340 H   0  0  0  0  0  0  0  0  0  0  0  0
  -21.1400  -13.2950   22.3140 H   0  0  0  0  0  0  0  0  0  0  0  0
  -25.4780  -15.3500   20.5050 N   0  0  0  0  0  0  0  0  0  0  0  0
  -24.7110  -16.0060   20.6100 H   0  0  0  0  0  0  0  0  0  0  0  0
  -26.3300  -15.7850   20.1790 H   0  0  0  0  0  0  0  0  0  0  0  0
  1 60  1  0
  2  4  1  0
  3  5  1  0
  4  7  1  0
  5  7  1  0
  6  1  1  0
  6  3  1  0
  6  2  1  0
  7  8  1  0
  8 11  1  0
  8 10  1  0
  9  8  1  0
 12 13  2  0
 12 14  1  0
 13 16  1  0
 14 17  2  0
 16 18  1  0
 16 15  2  0
 17 15  1  0
 17  1  1  0
 19 21  1  0
 19 18  1  0
 20 31  2  0
 21 26  1  0
 22 30  1  0
 22 32  1  0
 23 29  1  0
 23 25  1  0
 24 30  1  0
 25 24  1  0
 26 25  2  0
 27 28  1  0
 27 21  2  0
 28 23  2  0
 29 22  1  0
 30 20  1  0
 32 34  2  0
 33 32  1  0
 35 33  1  0
 36 45  2  0
 36 41  1  0
 37 33  1  0
 37 41  1  0
 38 37  1  0
 39 40  1  0
 39 38  1  0
 40 36  1  0
 41 42  2  0
 42 43  1  0
 44 43  2  0
 45 44  1  0
 46 20  1  0
 46 47  1  0
 46 56  1  0
 47 50  1  0
 48 47  1  0
 48 52  1  0
 49 48  2  0
 52 51  1  0
 54 52  1  0
 54 55  1  0
 54 53  1  0
 56 59  1  1
 56 57  1  0
 58 56  1  0
 60 63  1  0
 60 61  1  0
 62 60  1  0
 63 64  2  0
 65 64  1  0
 66 71  1  0
 67 68  1  0
 67 66  1  0
 69 68  1  0
 69 76  1  0
 69 70  1  0
 71 65  1  0
 71 70  1  0
 72 65  2  0
 73 74  2  0
 74 93  1  0
 75 74  1  0
 75 78  1  0
 76 77  1  0
 76 73  1  0
 77 75  2  0
 78 79  1  0
 79 80  2  0
 81 84  1  0
 81 80  1  0
 82 81  2  0
 83 82  1  0
 83 78  2  0
 84 85  1  0
 85 86  1  0
 86 87  2  0
 88 87  1  0
 88 92  1  0
 89 88  2  0
 90 85  2  0
 90 89  1  0
 91 90  1  0
 93 94  1  0
 94 97  1  0
 94 96  1  0
 95 93  2  0
 98 99  1  0
 98 73  1  0
100 98  1  0
M  ISO  4  18 101  19 101  64 100  65 100
M  END
>  <TORSDO>  (87) 
F 23

>  <SCORE>  (87) 
-11.549

>  <name>  (87) 
86

>  <ligand_id>  (87) 
86

>  <original_smiles>  (87) 
[H]c1c([H])c([H])c2c(c1[H])C([H])([H])C([H])([H])C([H])([H])C2([H])N([H])C(=O)C1([H])N(C(=O)C([H])(N([H])C(=O)C([H])(N([H])C([H])([H])[H])C([H])([H])[H])C(C([H])([H])[H])(C([H])([H])[H])C([H])([H])[H])C([H])([H])c2c([H])c(OC([H])([H])c3c([H])c([H])c([H])c(C([H])(C4([H])C([H])([H])C([H])([H])C([H])([N+]([H])([H])[H])C([H])([H])C4([H])[H])[N+]([H])([H])C([H])([H])C([H])([H])C(=O)N4C([H])([H])C([H])([H])C([H])([H])C([H])(n5nc(-c6c([H])c([H])c(Oc7c([H])c([H])c(F)c([H])c7F)c([H])c6[H])c(C(=O)N([H])[H])c5N([H])[H])C4([H])[H])c3[H])c([H])c([H])c2C1([H])[H]

>  <smiles>  (87) 
[H]c1c([H])c([H])c2c(c1[H])C([H])([H])C([H])([H])C([H])([H])C2([H])N([H])C(=O)C1([H])N(C(=O)C([H])(N([H])C(=O)C([H])(N([H])C([H])([H])[H])C([H])([H])[H])C(C([H])([H])[H])(C([H])([H])[H])C([H])([H])[H])C([H])([H])c2c([H])c(OC([H])([H])c3c([H])c([H])c([H])c(C([H])(C4([H])C([H])([H])C([H])([H])C([H])([N+]([H])([H])[H])C([H])([H])C4([H])[H])[N+]([H])([H])C([H])([H])C([H])([H])C(=O)N4C([H])([H])C([H])([H])C([H])([H])C([H])(n5nc(-c6c([H])c([H])c(Oc7c([H])c([H])c(F)c([H])c7F)c([H])c6[H])c(C(=O)N([H])[H])c5N([H])[H])C4([H])[H])c3[H])c([H])c([H])c2C1([H])[H]

$$$$
87:0:0
     RDKit          3D

 89 97  0  0  1  0  0  0  0  0999 V2000
  -27.7120  -23.1420   17.9940 C   0  0  0  0  0  2  0  0  0  0  0  0
  -28.5950  -22.0010   18.5520 C   0  0  0  0  0  2  0  0  0  0  0  0
  -28.1730  -24.5560   18.4170 C   0  0  0  0  0  2  0  0  0  0  0  0
  -28.9380  -23.5150   20.5880 C   0  0  0  0  0  2  0  0  0  0  0  0
  -28.6410  -21.9480   20.0970 C   0  0  0  0  0  3  0  0  0  0  0  0
  -28.0640  -24.7720   19.9420 C   0  0  0  0  0  3  0  0  0  0  0  0
  -29.5250  -20.7260   20.5660 N   0  0  0  0  0  4  0  0  0  0  0  0
  -29.7050  -20.8610   21.5470 H   0  0  0  0  0  0  0  0  0  0  0  0
  -30.4160  -20.8140   20.1060 H   0  0  0  0  0  0  0  0  0  0  0  0
  -29.0680  -19.2240   20.4170 C   0  0  0  0  0  3  0  0  0  0  0  0
  -30.1010  -17.9140   20.5770 C   0  0  0  0  0  3  0  0  0  0  0  0
  -29.5850  -16.3260   20.6640 C   0  0  0  0  0  2  0  0  0  0  0  0
  -30.4750  -14.9640   20.4000 C   0  0  0  0  0  0  0  0  0  0  0  0
  -30.3690  -12.6580   19.3690 C   0  0  0  0  0  2  0  0  0  0  0  0
  -29.4200  -12.7030   18.1470 C   0  0  0  0  0  2  0  0  0  0  0  0
  -27.9550  -12.4860   18.5770 C   0  0  0  0  0  2  0  0  0  0  0  0
  -27.5670  -13.3530   19.8020 C   0  0  0  0  0  3  0  0  0  0  0  0
  -28.6310  -13.2840   20.9170 C   0  0  0  0  0  2  0  0  0  0  0  0
  -29.9150  -13.6930   20.3360 N   0  0  0  0  0  0  0  0  0  0  0  0
  -31.6640  -15.0780   20.0840 O   0  0  0  0  0  0  0  0  0  0  0  0
  -25.1780  -13.9070   20.5480 C   0  0  0  0  0  0  0  0  0  0  0  0
  -24.1210  -13.1190   20.9130 C   0  0  0  0  0  0  0  0  0  0  0  0
  -24.6000  -11.7730   20.8710 C   0  0  0  0  0  0  0  0  0  0  0  0
  -26.2300  -13.0410   20.2990 N   0  0  0  0  0  0  0  0  0  0  0  0
  -25.8910  -11.7520   20.5590 N   0  0  0  0  0  0  0  0  0  0  0  0
  -23.8870  -10.5020   21.0530 C   0  0  0  0  0  0  0  0  0  0  0  0
  -24.3230   -9.5370   21.9870 C   0  0  0  0  0  3  0  0  0  0  0  0
  -23.6100   -8.3300   22.1570 C   0  0  0  0  0  3  0  0  0  0  0  0
  -22.4450   -8.0820   21.3940 C   0  0  0  0  0  0  0  0  0  0  0  0
  -22.0260   -9.0360   20.4500 C   0  0  0  0  0  3  0  0  0  0  0  0
  -22.7420  -10.2340   20.2770 C   0  0  0  0  0  3  0  0  0  0  0  0
  -21.7020   -6.9290   21.4720 O   0  0  0  0  0  0  0  0  0  0  0  0
  -21.6400   -6.1900   22.6270 C   0  0  0  0  0  0  0  0  0  0  0  0
  -21.1600   -6.7370   23.8370 C   0  0  0  0  0  3  0  0  0  0  0  0
  -21.0490   -5.9230   24.9810 C   0  0  0  0  0  3  0  0  0  0  0  0
  -21.4070   -4.5630   24.9180 C   0  0  0  0  0  0  0  0  0  0  0  0
  -21.8810   -4.0160   23.7120 C   0  0  0  0  0  3  0  0  0  0  0  0
  -21.9940   -4.8260   22.5690 C   0  0  0  0  0  0  0  0  0  0  0  0
  -22.4300   -4.2890   21.4050 F   0  0  0  0  0  0  0  0  0  0  0  0
  -21.2940   -3.7790   26.0150 F   0  0  0  0  0  0  0  0  0  0  0  0
  -22.7200  -13.5790   21.1890 C   0  0  0  0  0  0  0  0  0  0  0  0
  -21.9970  -12.8660   22.0460 N   0  0  0  0  0  0  0  0  0  0  0  0
  -22.2730  -14.6060   20.6800 O   0  0  0  0  0  0  0  0  0  0  0  0
  -22.3730  -12.0350   22.4790 H   0  0  0  0  0  0  0  0  0  0  0  0
  -21.0570  -13.1560   22.2730 H   0  0  0  0  0  0  0  0  0  0  0  0
  -25.3270  -15.2810   20.3830 N   0  0  0  0  0  0  0  0  0  0  0  0
  -24.5550  -15.9270   20.5050 H   0  0  0  0  0  0  0  0  0  0  0  0
  -26.1750  -15.7330   20.0630 H   0  0  0  0  0  0  0  0  0  0  0  0
  -28.2560  -26.2830   20.2290 O   0  0  0  0  0  0  0  0  0  0  0  0
  -24.6290  -31.9160   23.2490 C   0  0  0  0  0  0  0  0  0  0  0  0
  -27.1770  -27.2350   20.1710 C   0  0  0  0  0  0  0  0  0  0  0  0
  -23.4080  -30.5250   21.6230 C   0  0  0  0  0  3  0  0  0  0  0  0
  -24.8390  -28.9600   20.1770 C   0  0  0  0  0  0  0  0  0  0  0  0
  -25.9590  -30.7990   21.4250 C   0  0  0  0  0  2  0  0  0  0  0  0
  -26.0260  -29.4110   20.7680 C   0  0  0  0  0  0  0  0  0  0  0  0
  -27.1940  -28.5660   20.7470 C   0  0  0  0  0  3  0  0  0  0  0  0
  -25.9550  -26.8750   19.5580 C   0  0  0  0  0  3  0  0  0  0  0  0
  -24.8140  -27.7040   19.5590 C   0  0  0  0  0  3  0  0  0  0  0  0
  -23.6120  -29.8530   20.2400 C   0  0  0  0  0  2  0  0  0  0  0  0
  -24.6870  -31.1010   22.1540 N   0  0  0  0  0  0  0  0  0  0  0  0
  -23.5500  -32.1990   23.7910 O   0  0  0  0  0  0  0  0  0  0  0  0
  -22.7440  -29.5140   22.5890 C   0  0  0  0  0  0  0  0  0  0  0  0
  -21.4190  -29.3230   22.4590 N   0  0  0  0  0  0  0  0  0  0  0  0
  -23.4210  -28.9030   23.4200 O   0  0  0  0  0  0  0  0  0  0  0  0
  -20.9280  -29.8670   21.7630 H   0  0  0  0  0  0  0  0  0  0  0  0
  -18.0540  -28.0730   22.9470 C   0  0  0  0  0  0  0  0  0  0  0  0
  -20.6060  -28.3830   23.2350 C   0  0  0  0  0  3  0  0  0  0  0  0
  -20.7370  -26.9440   22.6810 C   0  0  0  0  0  2  0  0  0  0  0  0
  -19.6500  -26.5890   21.6620 C   0  0  0  0  0  2  0  0  0  0  0  0
  -18.2600  -26.7180   22.2900 C   0  0  0  0  0  2  0  0  0  0  0  0
  -19.1560  -28.8610   23.3760 C   0  0  0  0  0  0  0  0  0  0  0  0
  -18.9090  -30.1270   23.9510 C   0  0  0  0  0  3  0  0  0  0  0  0
  -17.5930  -30.6060   24.1000 C   0  0  0  0  0  3  0  0  0  0  0  0
  -16.5060  -29.8160   23.6870 C   0  0  0  0  0  3  0  0  0  0  0  0
  -16.7380  -28.5510   23.1160 C   0  0  0  0  0  3  0  0  0  0  0  0
  -25.9160  -32.5490   23.8620 C   0  0  0  0  0  3  0  0  0  0  0  0
  -26.4230  -31.7960   25.1530 C   0  0  1  0  0  0  0  0  0  0  0  0
  -25.3260  -31.5860   26.2230 C   0  0  0  0  0  1  0  0  0  0  0  0
  -26.9950  -30.4060   24.7890 C   0  0  0  0  0  1  0  0  0  0  0  0
  -27.5800  -32.5910   25.8020 C   0  0  0  0  0  1  0  0  0  0  0  0
  -25.6170  -33.9560   24.1740 N   0  0  0  0  0  0  0  0  0  0  0  0
  -25.9570  -34.9980   23.4040 C   0  0  0  0  0  0  0  0  0  0  0  0
  -26.6220  -34.8760   22.3710 O   0  0  0  0  0  0  0  0  0  0  0  0
  -25.0260  -34.1250   24.9740 H   0  0  0  0  0  0  0  0  0  0  0  0
  -24.2540  -36.8120   23.0270 C   0  0  0  0  0  1  0  0  0  0  0  0
  -25.4860  -36.3970   23.8480 C   0  0  0  0  0  3  0  0  0  0  0  0
  -27.6250  -37.2660   24.6850 C   0  0  0  0  0  1  0  0  0  0  0  0
  -26.5320  -37.4360   23.7300 N   0  0  0  0  0  0  0  0  0  0  0  0
  -26.1360  -38.3630   23.8640 H   0  0  0  0  0  0  0  0  0  0  0  0
  1  3  1  0
  1  2  1  0
  2  5  1  0
  3  6  1  0
  5  7  1  0
  5  4  1  0
  6 49  1  0
  6  4  1  0
  7  8  1  0
  9  7  1  0
 10  7  1  0
 10 11  2  0
 11 12  1  0
 13 12  1  0
 14 19  1  0
 15 16  1  0
 15 14  1  0
 17 16  1  0
 17 24  1  0
 17 18  1  0
 19 13  1  0
 19 18  1  0
 20 13  2  0
 21 22  2  0
 22 41  1  0
 23 22  1  0
 23 26  1  0
 24 21  1  0
 24 25  1  0
 25 23  2  0
 26 27  1  0
 27 28  2  0
 29 32  1  0
 29 28  1  0
 30 29  2  0
 31 30  1  0
 31 26  2  0
 32 33  1  0
 33 34  1  0
 34 35  2  0
 36 35  1  0
 36 40  1  0
 37 36  2  0
 38 33  2  0
 38 37  1  0
 39 38  1  0
 41 42  1  0
 42 45  1  0
 42 44  1  0
 43 41  2  0
 46 47  1  0
 46 21  1  0
 48 46  1  0
 50 61  2  0
 51 49  1  0
 51 56  1  0
 52 60  1  0
 52 62  1  0
 53 59  1  0
 53 55  1  0
 54 60  1  0
 55 54  1  0
 56 55  2  0
 57 58  1  0
 57 51  2  0
 58 53  2  0
 59 52  1  0
 60 50  1  0
 62 64  2  0
 63 62  1  0
 65 63  1  0
 66 75  2  0
 66 71  1  0
 67 63  1  0
 67 71  1  0
 68 67  1  0
 69 70  1  0
 69 68  1  0
 70 66  1  0
 71 72  2  0
 72 73  1  0
 74 73  2  0
 75 74  1  0
 76 50  1  0
 76 81  1  0
 76 77  1  0
 77 80  1  1
 77 78  1  0
 79 77  1  0
 81 84  1  0
 82 86  1  0
 82 81  1  0
 83 82  2  0
 86 85  1  0
 88 86  1  0
 88 89  1  0
 88 87  1  0
M  ISO  4   6 101  12 100  13 100  49 101
M  END
>  <TORSDO>  (88) 
F 20

>  <SCORE>  (88) 
-13.701

>  <name>  (88) 
87

>  <ligand_id>  (88) 
87

>  <original_smiles>  (88) 
[H]c1c([H])c([H])c2c(c1[H])C([H])([H])C([H])([H])C([H])([H])C2([H])N([H])C(=O)C1([H])N(C(=O)C([H])(N([H])C(=O)C([H])(N([H])C([H])([H])[H])C([H])([H])[H])C(C([H])([H])[H])(C([H])([H])[H])C([H])([H])[H])C([H])([H])c2c([H])c(OC3([H])C([H])([H])C([H])([H])C([H])([H])C([H])([N+]([H])([H])C([H])([H])C([H])([H])C([H])([H])C(=O)N4C([H])([H])C([H])([H])C([H])([H])C([H])(n5nc(-c6c([H])c([H])c(Oc7c([H])c([H])c(F)c([H])c7F)c([H])c6[H])c(C(=O)N([H])[H])c5N([H])[H])C4([H])[H])C3([H])[H])c([H])c([H])c2C1([H])[H]

>  <smiles>  (88) 
[H]c1c([H])c([H])c2c(c1[H])C([H])([H])C([H])([H])C([H])([H])C2([H])N([H])C(=O)C1([H])N(C(=O)C([H])(N([H])C(=O)C([H])(N([H])C([H])([H])[H])C([H])([H])[H])C(C([H])([H])[H])(C([H])([H])[H])C([H])([H])[H])C([H])([H])c2c([H])c(OC3([H])C([H])([H])C([H])([H])C([H])([H])C([H])([N+]([H])([H])C([H])([H])C([H])([H])C([H])([H])C(=O)N4C([H])([H])C([H])([H])C([H])([H])C([H])(n5nc(-c6c([H])c([H])c(Oc7c([H])c([H])c(F)c([H])c7F)c([H])c6[H])c(C(=O)N([H])[H])c5N([H])[H])C4([H])[H])C3([H])[H])c([H])c([H])c2C1([H])[H]

$$$$
88:0:0
     RDKit          3D

 94104  0  0  1  0  0  0  0  0999 V2000
  -27.9440  -21.3710   21.0020 C   0  0  0  0  0  3  0  0  0  0  0  0
  -27.6490  -22.8840   20.9790 C   0  0  0  0  0  3  0  0  0  0  0  0
  -29.3140  -23.1770   19.5250 C   0  0  0  0  0  3  0  0  0  0  0  0
  -28.9710  -20.5810   20.2630 C   0  0  0  0  0  0  0  0  0  0  0  0
  -29.6020  -21.6680   19.5400 C   0  0  0  0  0  0  0  0  0  0  0  0
  -28.2880  -24.0180   20.2340 C   0  0  0  0  0  0  0  0  0  0  0  0
  -30.0120  -19.9650   16.7260 C   0  0  0  0  0  2  0  0  0  0  0  0
  -30.7510  -20.9840   18.7990 C   0  0  0  0  0  3  0  0  0  0  0  0
  -30.7390  -19.4000   19.0310 C   0  0  0  0  0  3  0  0  0  0  0  0
  -30.7010  -21.2130   17.2820 C   0  0  0  0  0  3  0  0  0  0  0  0
  -30.3520  -18.7890   17.6560 C   0  0  0  0  0  3  0  0  0  0  0  0
  -29.8060  -18.9430   20.2270 C   0  0  1  0  0  0  0  0  0  0  0  0
  -32.0970  -21.4530   16.6830 C   0  0  0  0  0  1  0  0  0  0  0  0
  -31.4500  -17.8910   17.0540 C   0  0  0  0  0  1  0  0  0  0  0  0
  -30.6230  -19.0230   21.5290 C   0  0  0  0  0  1  0  0  0  0  0  0
  -30.2860  -15.7940   20.0630 C   0  0  0  0  0  0  0  0  0  0  0  0
  -30.3660  -13.2640   19.1930 C   0  0  0  0  0  2  0  0  0  0  0  0
  -29.4300  -12.8500   18.0220 C   0  0  0  0  0  2  0  0  0  0  0  0
  -28.0330  -12.4750   18.5390 C   0  0  0  0  0  2  0  0  0  0  0  0
  -27.5570  -13.4610   19.6280 C   0  0  0  0  0  3  0  0  0  0  0  0
  -28.6310  -13.7830   20.6940 C   0  0  0  0  0  2  0  0  0  0  0  0
  -29.7570  -14.4310   19.9820 N   0  0  0  0  0  0  0  0  0  0  0  0
  -31.5180  -15.7150   19.8890 O   0  0  0  0  0  0  0  0  0  0  0  0
  -29.5440  -17.1730   20.1510 N   0  0  0  0  0  0  0  0  0  0  0  0
  -28.5530  -16.9890   20.2040 H   0  0  0  0  0  0  0  0  0  0  0  0
  -25.2330  -13.9500   20.5240 C   0  0  0  0  0  0  0  0  0  0  0  0
  -24.1980  -13.1520   20.9170 C   0  0  0  0  0  0  0  0  0  0  0  0
  -24.6760  -11.8080   20.8260 C   0  0  0  0  0  0  0  0  0  0  0  0
  -26.2700  -13.0960   20.2040 N   0  0  0  0  0  0  0  0  0  0  0  0
  -25.9540  -11.7980   20.4540 N   0  0  0  0  0  0  0  0  0  0  0  0
  -23.9670  -10.5340   21.0100 C   0  0  0  0  0  0  0  0  0  0  0  0
  -24.4190   -9.5610   21.9280 C   0  0  0  0  0  3  0  0  0  0  0  0
  -23.7030   -8.3570   22.1040 C   0  0  0  0  0  3  0  0  0  0  0  0
  -22.5230   -8.1160   21.3620 C   0  0  0  0  0  0  0  0  0  0  0  0
  -22.0920   -9.0780   20.4300 C   0  0  0  0  0  3  0  0  0  0  0  0
  -22.8070  -10.2740   20.2530 C   0  0  0  0  0  3  0  0  0  0  0  0
  -21.7780   -6.9640   21.4470 O   0  0  0  0  0  0  0  0  0  0  0  0
  -21.7110   -6.2360   22.6080 C   0  0  0  0  0  0  0  0  0  0  0  0
  -21.2160   -6.7910   23.8080 C   0  0  0  0  0  3  0  0  0  0  0  0
  -21.0990   -5.9870   24.9600 C   0  0  0  0  0  3  0  0  0  0  0  0
  -21.4670   -4.6290   24.9110 C   0  0  0  0  0  0  0  0  0  0  0  0
  -21.9550   -4.0730   23.7160 C   0  0  0  0  0  3  0  0  0  0  0  0
  -22.0730   -4.8740   22.5670 C   0  0  0  0  0  0  0  0  0  0  0  0
  -22.5230   -4.3290   21.4110 F   0  0  0  0  0  0  0  0  0  0  0  0
  -21.3480   -3.8540   26.0160 F   0  0  0  0  0  0  0  0  0  0  0  0
  -22.8100  -13.6090   21.2560 C   0  0  0  0  0  0  0  0  0  0  0  0
  -22.1290  -12.8920   22.1410 N   0  0  0  0  0  0  0  0  0  0  0  0
  -22.3410  -14.6380   20.7710 O   0  0  0  0  0  0  0  0  0  0  0  0
  -22.5240  -12.0590   22.5540 H   0  0  0  0  0  0  0  0  0  0  0  0
  -21.1990  -13.1800   22.4130 H   0  0  0  0  0  0  0  0  0  0  0  0
  -25.3720  -15.3280   20.3760 N   0  0  0  0  0  0  0  0  0  0  0  0
  -24.6020  -15.9680   20.5360 H   0  0  0  0  0  0  0  0  0  0  0  0
  -26.1910  -15.7820   19.9930 H   0  0  0  0  0  0  0  0  0  0  0  0
  -28.1910  -25.6440   20.2900 O   0  0  0  0  0  0  0  0  0  0  0  0
  -24.6650  -31.9280   23.2570 C   0  0  0  0  0  0  0  0  0  0  0  0
  -27.1720  -26.8220   20.2820 C   0  0  0  0  0  0  0  0  0  0  0  0
  -23.4700  -30.5290   21.6270 C   0  0  0  0  0  3  0  0  0  0  0  0
  -24.9070  -28.8660   20.2210 C   0  0  0  0  0  0  0  0  0  0  0  0
  -26.0470  -30.6580   21.5030 C   0  0  0  0  0  2  0  0  0  0  0  0
  -26.1030  -29.2200   20.8550 C   0  0  0  0  0  0  0  0  0  0  0  0
  -27.2160  -28.2260   20.8540 C   0  0  0  0  0  3  0  0  0  0  0  0
  -25.9430  -26.6800   19.5880 C   0  0  0  0  0  3  0  0  0  0  0  0
  -24.8660  -27.6210   19.5650 C   0  0  0  0  0  3  0  0  0  0  0  0
  -23.7050  -29.8230   20.2600 C   0  0  0  0  0  2  0  0  0  0  0  0
  -24.7510  -31.0720   22.1810 N   0  0  0  0  0  0  0  0  0  0  0  0
  -23.5740  -32.2330   23.7700 O   0  0  0  0  0  0  0  0  0  0  0  0
  -22.7520  -29.5580   22.6030 C   0  0  0  0  0  0  0  0  0  0  0  0
  -21.4200  -29.3980   22.4730 N   0  0  0  0  0  0  0  0  0  0  0  0
  -23.4050  -28.9450   23.4520 O   0  0  0  0  0  0  0  0  0  0  0  0
  -20.9430  -29.9420   21.7670 H   0  0  0  0  0  0  0  0  0  0  0  0
  -18.0380  -28.1670   22.9700 C   0  0  0  0  0  0  0  0  0  0  0  0
  -20.5930  -28.4650   23.2500 C   0  0  0  0  0  3  0  0  0  0  0  0
  -20.7120  -27.0260   22.6960 C   0  0  0  0  0  2  0  0  0  0  0  0
  -19.6240  -26.6810   21.6750 C   0  0  0  0  0  2  0  0  0  0  0  0
  -18.2350  -26.8150   22.3050 C   0  0  0  0  0  2  0  0  0  0  0  0
  -19.1440  -28.9500   23.3980 C   0  0  0  0  0  0  0  0  0  0  0  0
  -18.9030  -30.2110   23.9840 C   0  0  0  0  0  3  0  0  0  0  0  0
  -17.5890  -30.6930   24.1420 C   0  0  0  0  0  3  0  0  0  0  0  0
  -16.4980  -29.9100   23.7260 C   0  0  0  0  0  3  0  0  0  0  0  0
  -16.7240  -28.6490   23.1470 C   0  0  0  0  0  3  0  0  0  0  0  0
  -25.9320  -32.5760   23.8960 C   0  0  0  0  0  3  0  0  0  0  0  0
  -25.6160  -33.9810   24.2230 N   0  0  0  0  0  0  0  0  0  0  0  0
  -25.9290  -35.0410   23.4640 C   0  0  0  0  0  0  0  0  0  0  0  0
  -26.5710  -34.9380   22.4160 O   0  0  0  0  0  0  0  0  0  0  0  0
  -25.0400  -34.1320   25.0390 H   0  0  0  0  0  0  0  0  0  0  0  0
  -24.1810  -36.8360   23.1860 C   0  0  0  0  0  1  0  0  0  0  0  0
  -25.4590  -36.4330   23.9390 C   0  0  0  0  0  3  0  0  0  0  0  0
  -27.6220  -37.3390   24.6760 C   0  0  0  0  0  1  0  0  0  0  0  0
  -26.4820  -37.4900   23.7740 N   0  0  0  0  0  0  0  0  0  0  0  0
  -26.0770  -38.4110   23.9260 H   0  0  0  0  0  0  0  0  0  0  0  0
  -26.4230  -31.8250   25.1950 C   0  0  1  0  0  0  0  0  0  0  0  0
  -25.3130  -31.6130   26.2520 C   0  0  0  0  0  1  0  0  0  0  0  0
  -27.0040  -30.4350   24.8480 C   0  0  0  0  0  1  0  0  0  0  0  0
  -27.5700  -32.6220   25.8600 C   0  0  0  0  0  1  0  0  0  0  0  0
  2  1  1  0
  3  5  2  0
  3  6  1  0
  4  1  2  0
  5  4  1  0
  6 54  1  0
  6  2  2  0
  7 10  1  0
  7 11  1  0
  8  9  1  0
  8  5  1  0
  9 12  1  0
 10  8  1  0
 11  9  1  0
 12  4  1  0
 12 15  1  1
 13 10  1  0
 14 11  1  0
 16 24  1  0
 17 22  1  0
 18 19  1  0
 18 17  1  0
 19 20  1  0
 20 29  1  0
 20 21  1  0
 22 16  1  0
 22 21  1  0
 23 16  2  0
 24 25  1  0
 24 12  1  0
 26 27  2  0
 27 46  1  0
 28 27  1  0
 28 31  1  0
 29 30  1  0
 29 26  1  0
 30 28  2  0
 31 32  1  0
 32 33  2  0
 34 37  1  0
 34 33  1  0
 35 34  2  0
 36 35  1  0
 36 31  2  0
 37 38  1  0
 38 39  1  0
 39 40  2  0
 41 40  1  0
 41 45  1  0
 42 41  2  0
 43 38  2  0
 43 42  1  0
 44 43  1  0
 46 47  1  0
 47 50  1  0
 47 49  1  0
 48 46  2  0
 51 26  1  0
 51 52  1  0
 53 51  1  0
 55 66  2  0
 55 81  1  0
 56 54  1  0
 56 61  1  0
 57 65  1  0
 57 67  1  0
 58 64  1  0
 58 60  1  0
 59 65  1  0
 60 59  1  0
 61 60  2  0
 62 56  2  0
 63 62  1  0
 63 58  2  0
 64 57  1  0
 65 55  1  0
 67 69  2  0
 68 67  1  0
 68 72  1  0
 70 68  1  0
 71 80  2  0
 71 76  1  0
 72 76  1  0
 73 72  1  0
 74 75  1  0
 74 73  1  0
 75 71  1  0
 76 77  2  0
 77 78  1  0
 79 78  2  0
 80 79  1  0
 81 82  1  0
 81 91  1  0
 82 85  1  0
 83 87  1  0
 83 82  1  0
 84 83  2  0
 86 87  1  0
 89 90  1  0
 89 87  1  0
 89 88  1  0
 91 94  1  1
 91 92  1  0
 93 91  1  0
M  ISO  4   6 101  16 100  24 100  54 101
M  END
>  <TORSDO>  (89) 
F 16

>  <SCORE>  (89) 
-16.147

>  <name>  (89) 
88

>  <ligand_id>  (89) 
88

>  <original_smiles>  (89) 
[H]c1c([H])c([H])c2c(c1[H])C([H])([H])C([H])([H])C([H])([H])C2([H])N([H])C(=O)C1([H])N(C(=O)C([H])(N([H])C(=O)C([H])(N([H])C([H])([H])[H])C([H])([H])[H])C(C([H])([H])[H])(C([H])([H])[H])C([H])([H])[H])C([H])([H])c2c([H])c(Oc3c([H])c([H])c4c(c3[H])C3([H])C([H])(C([H])([H])[H])C([H])([H])C([H])(C([H])([H])[H])C3([H])C4(N([H])C(=O)N3C([H])([H])C([H])([H])C([H])([H])C([H])(n4nc(-c5c([H])c([H])c(Oc6c([H])c([H])c(F)c([H])c6F)c([H])c5[H])c(C(=O)N([H])[H])c4N([H])[H])C3([H])[H])C([H])([H])[H])c([H])c([H])c2C1([H])[H]

>  <smiles>  (89) 
[H]c1c([H])c([H])c2c(c1[H])C([H])([H])C([H])([H])C([H])([H])C2([H])N([H])C(=O)C1([H])N(C(=O)C([H])(N([H])C(=O)C([H])(N([H])C([H])([H])[H])C([H])([H])[H])C(C([H])([H])[H])(C([H])([H])[H])C([H])([H])[H])C([H])([H])c2c([H])c(Oc3c([H])c([H])c4c(c3[H])C3([H])C([H])(C([H])([H])[H])C([H])([H])C([H])(C([H])([H])[H])C3([H])C4(N([H])C(=O)N3C([H])([H])C([H])([H])C([H])([H])C([H])(n4nc(-c5c([H])c([H])c(Oc6c([H])c([H])c(F)c([H])c6F)c([H])c5[H])c(C(=O)N([H])[H])c4N([H])[H])C3([H])[H])C([H])([H])[H])c([H])c([H])c2C1([H])[H]

$$$$
89:0:0
     RDKit          3D

 89 97  0  0  1  0  0  0  0  0999 V2000
  -27.0680  -19.9340   20.0790 C   0  0  0  0  0  3  0  0  0  0  0  0
  -27.9760  -18.8440   20.0530 C   0  0  0  0  0  3  0  0  0  0  0  0
  -27.4760  -21.2950   20.0680 C   0  0  0  0  0  3  0  0  0  0  0  0
  -29.7550  -20.4880   19.9900 C   0  0  0  0  0  3  0  0  0  0  0  0
  -29.3740  -19.0360   20.0100 C   0  0  0  0  0  0  0  0  0  0  0  0
  -28.8370  -21.6740   20.0190 C   0  0  0  0  0  0  0  0  0  0  0  0
  -30.7790  -15.1580   19.9720 C   0  0  0  0  0  0  0  0  0  0  0  0
  -30.6520  -12.7620   19.1170 C   0  0  0  0  0  2  0  0  0  0  0  0
  -29.6880  -12.6510   17.9120 C   0  0  0  0  0  2  0  0  0  0  0  0
  -28.2420  -12.4400   18.3980 C   0  0  0  0  0  2  0  0  0  0  0  0
  -27.8570  -13.4040   19.5510 C   0  0  0  0  0  3  0  0  0  0  0  0
  -28.9420  -13.4790   20.6440 C   0  0  0  0  0  2  0  0  0  0  0  0
  -30.1840  -13.8910   19.9820 N   0  0  0  0  0  0  0  0  0  0  0  0
  -31.9770  -15.1680   19.6640 O   0  0  0  0  0  0  0  0  0  0  0  0
  -30.3620  -17.7520   19.9520 C   0  0  0  0  0  0  0  0  0  0  0  0
  -30.0100  -16.3670   20.1060 N   0  0  0  0  0  0  0  0  0  0  0  0
  -31.5420  -18.0460   19.7390 O   0  0  0  0  0  0  0  0  0  0  0  0
  -29.0430  -16.2150   20.3290 H   0  0  0  0  0  0  0  0  0  0  0  0
  -25.5200  -13.9910   20.4080 C   0  0  0  0  0  0  0  0  0  0  0  0
  -24.4650  -13.2210   20.8120 C   0  0  0  0  0  0  0  0  0  0  0  0
  -24.9100  -11.8660   20.7330 C   0  0  0  0  0  0  0  0  0  0  0  0
  -26.5390  -13.1070   20.1000 N   0  0  0  0  0  0  0  0  0  0  0  0
  -26.1860  -11.8220   20.3630 N   0  0  0  0  0  0  0  0  0  0  0  0
  -24.1750  -10.6090   20.9270 C   0  0  0  0  0  0  0  0  0  0  0  0
  -24.5950   -9.6450   21.8690 C   0  0  0  0  0  3  0  0  0  0  0  0
  -23.8610   -8.4540   22.0510 C   0  0  0  0  0  3  0  0  0  0  0  0
  -22.6920   -8.2170   21.2890 C   0  0  0  0  0  0  0  0  0  0  0  0
  -22.2910   -9.1690   20.3360 C   0  0  0  0  0  3  0  0  0  0  0  0
  -23.0260  -10.3520   20.1520 C   0  0  0  0  0  3  0  0  0  0  0  0
  -21.9280   -7.0770   21.3810 O   0  0  0  0  0  0  0  0  0  0  0  0
  -21.7780   -6.4050   22.5680 C   0  0  0  0  0  0  0  0  0  0  0  0
  -21.1500   -6.9970   23.6860 C   0  0  0  0  0  3  0  0  0  0  0  0
  -20.9520   -6.2450   24.8620 C   0  0  0  0  0  3  0  0  0  0  0  0
  -21.3770   -4.9040   24.9210 C   0  0  0  0  0  0  0  0  0  0  0  0
  -21.9970   -4.3110   23.8070 C   0  0  0  0  0  3  0  0  0  0  0  0
  -22.1960   -5.0600   22.6340 C   0  0  0  0  0  0  0  0  0  0  0  0
  -22.7750   -4.4770   21.5570 F   0  0  0  0  0  0  0  0  0  0  0  0
  -21.1810   -4.1810   26.0480 F   0  0  0  0  0  0  0  0  0  0  0  0
  -23.0850  -13.7100   21.1450 C   0  0  0  0  0  0  0  0  0  0  0  0
  -22.3890  -13.0240   22.0440 N   0  0  0  0  0  0  0  0  0  0  0  0
  -22.6330  -14.7370   20.6420 O   0  0  0  0  0  0  0  0  0  0  0  0
  -22.7660  -12.1950   22.4800 H   0  0  0  0  0  0  0  0  0  0  0  0
  -21.4660  -13.3360   22.3070 H   0  0  0  0  0  0  0  0  0  0  0  0
  -25.6920  -15.3610   20.2450 N   0  0  0  0  0  0  0  0  0  0  0  0
  -24.9270  -16.0100   20.3890 H   0  0  0  0  0  0  0  0  0  0  0  0
  -26.4700  -15.7680   19.7420 H   0  0  0  0  0  0  0  0  0  0  0  0
  -29.2230  -23.3040   20.0410 C   0  0  0  0  0  3  0  0  0  0  0  0
  -28.1860  -24.6650   19.9170 C   0  0  0  0  0  3  0  0  0  0  0  0
  -28.4800  -26.2040   20.1620 O   0  0  0  0  0  0  0  0  0  0  0  0
  -24.7430  -31.7770   23.3280 C   0  0  0  0  0  0  0  0  0  0  0  0
  -27.4490  -27.2290   20.1170 C   0  0  0  0  0  0  0  0  0  0  0  0
  -23.6280  -30.5030   21.5400 C   0  0  0  0  0  3  0  0  0  0  0  0
  -25.1410  -29.0200   20.0820 C   0  0  0  0  0  0  0  0  0  0  0  0
  -26.1910  -30.7550   21.5250 C   0  0  0  0  0  2  0  0  0  0  0  0
  -26.2920  -29.4080   20.7800 C   0  0  0  0  0  0  0  0  0  0  0  0
  -27.4490  -28.5320   20.7760 C   0  0  0  0  0  3  0  0  0  0  0  0
  -26.2700  -26.9570   19.3900 C   0  0  0  0  0  3  0  0  0  0  0  0
  -25.1470  -27.8110   19.3740 C   0  0  0  0  0  3  0  0  0  0  0  0
  -23.9160  -29.9230   20.1310 C   0  0  0  0  0  2  0  0  0  0  0  0
  -24.8730  -31.0330   22.1870 N   0  0  0  0  0  0  0  0  0  0  0  0
  -23.6310  -32.0280   23.8180 O   0  0  0  0  0  0  0  0  0  0  0  0
  -22.8990  -29.4360   22.3960 C   0  0  0  0  0  0  0  0  0  0  0  0
  -21.5660  -29.3290   22.2420 N   0  0  0  0  0  0  0  0  0  0  0  0
  -23.5350  -28.7090   23.1620 O   0  0  0  0  0  0  0  0  0  0  0  0
  -21.1100  -29.9690   21.6080 H   0  0  0  0  0  0  0  0  0  0  0  0
  -18.1220  -28.3020   22.7200 C   0  0  0  0  0  0  0  0  0  0  0  0
  -20.7010  -28.3520   22.9110 C   0  0  0  0  0  3  0  0  0  0  0  0
  -20.6770  -27.0090   22.1450 C   0  0  0  0  0  2  0  0  0  0  0  0
  -19.5230  -26.9040   21.1440 C   0  0  0  0  0  2  0  0  0  0  0  0
  -18.1760  -27.0520   21.8580 C   0  0  0  0  0  2  0  0  0  0  0  0
  -19.3070  -28.9210   23.2000 C   0  0  0  0  0  0  0  0  0  0  0  0
  -19.1970  -30.0990   23.9700 C   0  0  0  0  0  3  0  0  0  0  0  0
  -17.9370  -30.6580   24.2580 C   0  0  0  0  0  3  0  0  0  0  0  0
  -16.7670  -30.0340   23.7890 C   0  0  0  0  0  3  0  0  0  0  0  0
  -16.8610  -28.8550   23.0280 C   0  0  0  0  0  3  0  0  0  0  0  0
  -25.9840  -32.3650   24.0650 C   0  0  0  0  0  3  0  0  0  0  0  0
  -25.6720  -33.7560   24.4310 N   0  0  0  0  0  0  0  0  0  0  0  0
  -25.9920  -34.8310   23.6980 C   0  0  0  0  0  0  0  0  0  0  0  0
  -26.6470  -34.7560   22.6560 O   0  0  0  0  0  0  0  0  0  0  0  0
  -25.0860  -33.8870   25.2430 H   0  0  0  0  0  0  0  0  0  0  0  0
  -24.2320  -36.6140   23.4520 C   0  0  0  0  0  1  0  0  0  0  0  0
  -25.5120  -36.2090   24.2000 C   0  0  0  0  0  3  0  0  0  0  0  0
  -27.6570  -37.1260   24.9720 C   0  0  0  0  0  1  0  0  0  0  0  0
  -26.5270  -37.2750   24.0560 N   0  0  0  0  0  0  0  0  0  0  0  0
  -26.1150  -38.1920   24.2040 H   0  0  0  0  0  0  0  0  0  0  0  0
  -26.3920  -31.5400   25.3490 C   0  0  1  0  0  0  0  0  0  0  0  0
  -25.2200  -31.2820   26.3250 C   0  0  0  0  0  1  0  0  0  0  0  0
  -26.9840  -30.1670   24.9560 C   0  0  0  0  0  1  0  0  0  0  0  0
  -27.5010  -32.2920   26.1210 C   0  0  0  0  0  1  0  0  0  0  0  0
  2  1  2  0
  3  1  1  0
  4  5  2  0
  4  6  1  0
  5  2  1  0
  6 47  1  0
  6  3  2  0
  7 13  1  0
  7 16  1  0
  8 13  1  0
  9 10  1  0
  9  8  1  0
 11 10  1  0
 11 22  1  0
 11 12  1  0
 13 12  1  0
 14  7  2  0
 15  5  1  0
 15 16  1  0
 16 18  1  0
 17 15  2  0
 19 20  2  0
 20 39  1  0
 21 20  1  0
 21 24  1  0
 22 23  1  0
 22 19  1  0
 23 21  2  0
 24 25  1  0
 25 26  2  0
 27 30  1  0
 27 26  1  0
 28 27  2  0
 29 28  1  0
 29 24  2  0
 30 31  1  0
 31 36  2  0
 31 32  1  0
 32 33  2  0
 33 34  1  0
 34 38  1  0
 35 34  2  0
 36 35  1  0
 37 36  1  0
 39 40  1  0
 40 43  1  0
 40 42  1  0
 41 39  2  0
 44 45  1  0
 44 19  1  0
 46 44  1  0
 48 47  2  0
 48 49  1  0
 50 61  2  0
 51 49  1  0
 51 56  1  0
 52 60  1  0
 52 62  1  0
 53 59  1  0
 53 55  1  0
 54 60  1  0
 55 54  1  0
 56 55  2  0
 57 51  2  0
 58 57  1  0
 58 53  2  0
 59 52  1  0
 60 50  1  0
 62 64  2  0
 63 62  1  0
 65 63  1  0
 66 75  2  0
 66 71  1  0
 67 63  1  0
 67 71  1  0
 68 67  1  0
 69 70  1  0
 69 68  1  0
 70 66  1  0
 71 72  2  0
 72 73  1  0
 74 73  2  0
 75 74  1  0
 76 50  1  0
 76 77  1  0
 76 86  1  0
 77 80  1  0
 78 82  1  0
 78 77  1  0
 79 78  2  0
 82 81  1  0
 84 82  1  0
 84 85  1  0
 84 83  1  0
 86 89  1  1
 86 87  1  0
 88 86  1  0
M  ISO  4   7 100  16 100  48 101  49 101
M  END
>  <TORSDO>  (90) 
F 18

>  <SCORE>  (90) 
-14.345

>  <name>  (90) 
89

>  <ligand_id>  (90) 
89

>  <original_smiles>  (90) 
[H]c1c([H])c(C(=O)N([H])C(=O)N2C([H])([H])C([H])([H])C([H])([H])C([H])(n3nc(-c4c([H])c([H])c(Oc5c([H])c([H])c(F)c([H])c5F)c([H])c4[H])c(C(=O)N([H])[H])c3N([H])[H])C2([H])[H])c([H])c(C([H])([H])C([H])([H])Oc2c([H])c([H])c3c(c2[H])C([H])([H])N(C(=O)C([H])(N([H])C(=O)C([H])(N([H])C([H])([H])[H])C([H])([H])[H])C(C([H])([H])[H])(C([H])([H])[H])C([H])([H])[H])C([H])(C(=O)N([H])C2([H])c4c([H])c([H])c([H])c([H])c4C([H])([H])C([H])([H])C2([H])[H])C3([H])[H])c1[H]

>  <smiles>  (90) 
[H]c1c([H])c(C(=O)N([H])C(=O)N2C([H])([H])C([H])([H])C([H])([H])C([H])(n3nc(-c4c([H])c([H])c(Oc5c([H])c([H])c(F)c([H])c5F)c([H])c4[H])c(C(=O)N([H])[H])c3N([H])[H])C2([H])[H])c([H])c(C([H])([H])C([H])([H])Oc2c([H])c([H])c3c(c2[H])C([H])([H])N(C(=O)C([H])(N([H])C(=O)C([H])(N([H])C([H])([H])[H])C([H])([H])[H])C(C([H])([H])[H])(C([H])([H])[H])C([H])([H])[H])C([H])(C(=O)N([H])C2([H])c4c([H])c([H])c([H])c([H])c4C([H])([H])C([H])([H])C2([H])[H])C3([H])[H])c1[H]

$$$$
90:0:0
     RDKit          3D

 91 99  0  0  1  0  0  0  0  0999 V2000
  -28.6070  -25.6560   18.0570 C   0  0  0  0  0  3  0  0  0  0  0  0
  -28.8180  -25.0220   16.8310 C   0  0  0  0  0  3  0  0  0  0  0  0
  -28.8970  -22.9090   17.9840 C   0  0  0  0  0  3  0  0  0  0  0  0
  -28.7370  -23.4660   19.2880 C   0  0  0  0  0  0  0  0  0  0  0  0
  -28.4890  -24.9950   19.3110 C   0  0  0  0  0  0  0  0  0  0  0  0
  -28.9390  -23.6400   16.7950 C   0  0  0  0  0  0  0  0  0  0  0  0
  -29.1100  -23.0050   15.6130 F   0  0  0  0  0  0  0  0  0  0  0  0
  -28.8260  -22.2710   20.3690 C   0  0  0  0  0  0  0  0  0  0  0  0
  -29.2760  -20.9420   20.0250 N   0  0  0  0  0  0  0  0  0  0  0  0
  -28.4610  -22.5050   21.5210 O   0  0  0  0  0  0  0  0  0  0  0  0
  -29.6120  -20.9010   19.0730 H   0  0  0  0  0  0  0  0  0  0  0  0
  -29.2680  -19.4990   20.7170 C   0  0  0  0  0  3  0  0  0  0  0  0
  -29.9830  -18.0530   20.1300 C   0  0  0  0  0  3  0  0  0  0  0  0
  -29.7540  -16.4610   20.7300 C   0  0  0  0  0  2  0  0  0  0  0  0
  -30.5510  -15.0330   20.3370 C   0  0  0  0  0  0  0  0  0  0  0  0
  -30.4620  -12.6630   19.3890 C   0  0  0  0  0  2  0  0  0  0  0  0
  -29.5400  -12.6280   18.1460 C   0  0  0  0  0  2  0  0  0  0  0  0
  -28.0700  -12.4180   18.5590 C   0  0  0  0  0  2  0  0  0  0  0  0
  -27.6570  -13.3330   19.7410 C   0  0  0  0  0  3  0  0  0  0  0  0
  -28.7030  -13.3330   20.8760 C   0  0  0  0  0  2  0  0  0  0  0  0
  -29.9850  -13.7520   20.2940 N   0  0  0  0  0  0  0  0  0  0  0  0
  -31.7360  -15.0980   19.9880 O   0  0  0  0  0  0  0  0  0  0  0  0
  -25.2670  -13.9130   20.4460 C   0  0  0  0  0  0  0  0  0  0  0  0
  -24.1990  -13.1400   20.8120 C   0  0  0  0  0  0  0  0  0  0  0  0
  -24.6660  -11.7900   20.8040 C   0  0  0  0  0  0  0  0  0  0  0  0
  -26.3140  -13.0350   20.2270 N   0  0  0  0  0  0  0  0  0  0  0  0
  -25.9620  -11.7530   20.5100 N   0  0  0  0  0  0  0  0  0  0  0  0
  -23.9390  -10.5280   21.0020 C   0  0  0  0  0  0  0  0  0  0  0  0
  -24.3650   -9.5690   21.9460 C   0  0  0  0  0  3  0  0  0  0  0  0
  -23.6360   -8.3740   22.1320 C   0  0  0  0  0  3  0  0  0  0  0  0
  -22.4670   -8.1300   21.3730 C   0  0  0  0  0  0  0  0  0  0  0  0
  -22.0590   -9.0790   20.4180 C   0  0  0  0  0  3  0  0  0  0  0  0
  -22.7900  -10.2650   20.2310 C   0  0  0  0  0  3  0  0  0  0  0  0
  -21.7110   -6.9870   21.4680 O   0  0  0  0  0  0  0  0  0  0  0  0
  -21.6620   -6.2490   22.6230 C   0  0  0  0  0  0  0  0  0  0  0  0
  -21.2500   -6.8140   23.8510 C   0  0  0  0  0  3  0  0  0  0  0  0
  -21.1470   -6.0040   24.9990 C   0  0  0  0  0  3  0  0  0  0  0  0
  -21.4450   -4.6300   24.9210 C   0  0  0  0  0  0  0  0  0  0  0  0
  -21.8490   -4.0650   23.6990 C   0  0  0  0  0  3  0  0  0  0  0  0
  -21.9530   -4.8720   22.5530 C   0  0  0  0  0  0  0  0  0  0  0  0
  -22.3220   -4.3190   21.3730 F   0  0  0  0  0  0  0  0  0  0  0  0
  -21.3390   -3.8490   26.0220 F   0  0  0  0  0  0  0  0  0  0  0  0
  -22.7980  -13.6180   21.0580 C   0  0  0  0  0  0  0  0  0  0  0  0
  -22.0610  -12.9340   21.9270 N   0  0  0  0  0  0  0  0  0  0  0  0
  -22.3650  -14.6340   20.5150 O   0  0  0  0  0  0  0  0  0  0  0  0
  -22.4240  -12.1130   22.3880 H   0  0  0  0  0  0  0  0  0  0  0  0
  -21.1200  -13.2370   22.1330 H   0  0  0  0  0  0  0  0  0  0  0  0
  -25.4320  -15.2820   20.2580 N   0  0  0  0  0  0  0  0  0  0  0  0
  -24.6690  -15.9420   20.3680 H   0  0  0  0  0  0  0  0  0  0  0  0
  -26.2910  -15.7200   19.9500 H   0  0  0  0  0  0  0  0  0  0  0  0
  -28.2250  -26.0710   20.2760 O   0  0  0  0  0  0  0  0  0  0  0  0
  -24.5520  -31.8480   23.1240 C   0  0  0  0  0  0  0  0  0  0  0  0
  -27.2030  -27.1060   20.1490 C   0  0  0  0  0  0  0  0  0  0  0  0
  -23.3840  -30.4320   21.4810 C   0  0  0  0  0  3  0  0  0  0  0  0
  -24.8630  -28.8570   20.0790 C   0  0  0  0  0  0  0  0  0  0  0  0
  -25.9400  -30.7060   21.3490 C   0  0  0  0  0  2  0  0  0  0  0  0
  -26.0330  -29.3070   20.7050 C   0  0  0  0  0  0  0  0  0  0  0  0
  -27.2010  -28.4450   20.7290 C   0  0  0  0  0  3  0  0  0  0  0  0
  -25.9980  -26.7650   19.4930 C   0  0  0  0  0  3  0  0  0  0  0  0
  -24.8610  -27.6000   19.4580 C   0  0  0  0  0  3  0  0  0  0  0  0
  -23.6280  -29.7470   20.1100 C   0  0  0  0  0  2  0  0  0  0  0  0
  -24.6450  -31.0170   22.0400 N   0  0  0  0  0  0  0  0  0  0  0  0
  -23.4560  -32.1290   23.6350 O   0  0  0  0  0  0  0  0  0  0  0  0
  -22.6970  -29.4280   22.4420 C   0  0  0  0  0  0  0  0  0  0  0  0
  -21.3650  -29.2820   22.3300 N   0  0  0  0  0  0  0  0  0  0  0  0
  -23.3670  -28.7840   23.2530 O   0  0  0  0  0  0  0  0  0  0  0  0
  -20.8810  -29.8520   21.6510 H   0  0  0  0  0  0  0  0  0  0  0  0
  -17.9660  -28.1580   22.8890 C   0  0  0  0  0  0  0  0  0  0  0  0
  -20.5360  -28.3520   23.1030 C   0  0  0  0  0  3  0  0  0  0  0  0
  -20.5870  -26.9280   22.5000 C   0  0  0  0  0  2  0  0  0  0  0  0
  -19.4560  -26.6520   21.5060 C   0  0  0  0  0  2  0  0  0  0  0  0
  -18.0920  -26.8180   22.1840 C   0  0  0  0  0  2  0  0  0  0  0  0
  -19.1130  -28.8850   23.3070 C   0  0  0  0  0  0  0  0  0  0  0  0
  -18.9360  -30.1380   23.9320 C   0  0  0  0  0  3  0  0  0  0  0  0
  -17.6480  -30.6660   24.1400 C   0  0  0  0  0  3  0  0  0  0  0  0
  -16.5170  -29.9360   23.7360 C   0  0  0  0  0  3  0  0  0  0  0  0
  -16.6760  -28.6830   23.1170 C   0  0  0  0  0  3  0  0  0  0  0  0
  -25.8150  -32.4980   23.7640 C   0  0  0  0  0  3  0  0  0  0  0  0
  -26.3290  -31.7250   25.0410 C   0  0  1  0  0  0  0  0  0  0  0  0
  -25.2290  -31.4720   26.0990 C   0  0  0  0  0  1  0  0  0  0  0  0
  -26.9290  -30.3560   24.6520 C   0  0  0  0  0  1  0  0  0  0  0  0
  -27.4660  -32.5270   25.7170 C   0  0  0  0  0  1  0  0  0  0  0  0
  -25.4780  -33.8880   24.1090 N   0  0  0  0  0  0  0  0  0  0  0  0
  -25.8100  -34.9620   23.3770 C   0  0  0  0  0  0  0  0  0  0  0  0
  -26.4970  -34.8830   22.3560 O   0  0  0  0  0  0  0  0  0  0  0  0
  -24.8620  -34.0190   24.8990 H   0  0  0  0  0  0  0  0  0  0  0  0
  -24.0720  -36.7480   23.0260 C   0  0  0  0  0  1  0  0  0  0  0  0
  -25.3020  -36.3370   23.8520 C   0  0  0  0  0  3  0  0  0  0  0  0
  -27.4140  -37.2250   24.7370 C   0  0  0  0  0  1  0  0  0  0  0  0
  -26.3250  -37.4020   23.7790 N   0  0  0  0  0  0  0  0  0  0  0  0
  -25.9090  -38.3150   23.9380 H   0  0  0  0  0  0  0  0  0  0  0  0
  1  5  1  0
  2  1  2  0
  3  4  1  0
  4  5  2  0
  4  8  1  0
  5 51  1  0
  6  2  1  0
  6  3  2  0
  7  6  1  0
  8 10  2  0
  9  8  1  0
  9 12  1  0
 11  9  1  0
 13 12  2  0
 13 14  1  0
 15 14  1  0
 16 21  1  0
 17 18  1  0
 17 16  1  0
 19 18  1  0
 19 26  1  0
 19 20  1  0
 21 15  1  0
 21 20  1  0
 22 15  2  0
 23 24  2  0
 24 43  1  0
 25 24  1  0
 25 28  1  0
 26 23  1  0
 26 27  1  0
 27 25  2  0
 28 29  1  0
 29 30  2  0
 31 34  1  0
 31 30  1  0
 32 31  2  0
 33 32  1  0
 33 28  2  0
 34 35  1  0
 35 36  1  0
 36 37  2  0
 38 37  1  0
 38 42  1  0
 39 38  2  0
 40 35  2  0
 40 39  1  0
 41 40  1  0
 43 44  1  0
 44 47  1  0
 44 46  1  0
 45 43  2  0
 48 49  1  0
 48 23  1  0
 50 48  1  0
 52 63  2  0
 53 51  1  0
 53 58  1  0
 54 62  1  0
 54 64  1  0
 55 61  1  0
 55 57  1  0
 56 62  1  0
 57 58  2  0
 57 56  1  0
 59 53  2  0
 60 59  1  0
 60 55  2  0
 61 54  1  0
 62 52  1  0
 64 66  2  0
 65 64  1  0
 67 65  1  0
 68 77  2  0
 68 73  1  0
 69 65  1  0
 69 73  1  0
 70 69  1  0
 71 72  1  0
 71 70  1  0
 72 68  1  0
 73 74  2  0
 74 75  1  0
 76 75  2  0
 77 76  1  0
 78 52  1  0
 78 83  1  0
 78 79  1  0
 79 82  1  1
 79 80  1  0
 81 79  1  0
 83 86  1  0
 84 88  1  0
 84 83  1  0
 85 84  2  0
 88 87  1  0
 90 88  1  0
 90 91  1  0
 90 89  1  0
M  ISO  4   5 101  14 100  15 100  51 101
M  END
>  <TORSDO>  (91) 
F 20

>  <SCORE>  (91) 
-14.691

>  <name>  (91) 
90

>  <ligand_id>  (91) 
90

>  <original_smiles>  (91) 
[H]c1c([H])c([H])c2c(c1[H])C([H])([H])C([H])([H])C([H])([H])C2([H])N([H])C(=O)C1([H])N(C(=O)C([H])(N([H])C(=O)C([H])(N([H])C([H])([H])[H])C([H])([H])[H])C(C([H])([H])[H])(C([H])([H])[H])C([H])([H])[H])C([H])([H])c2c([H])c(Oc3c([H])c([H])c(F)c([H])c3C(=O)N([H])C([H])([H])C([H])([H])C([H])([H])C(=O)N3C([H])([H])C([H])([H])C([H])([H])C([H])(n4nc(-c5c([H])c([H])c(Oc6c([H])c([H])c(F)c([H])c6F)c([H])c5[H])c(C(=O)N([H])[H])c4N([H])[H])C3([H])[H])c([H])c([H])c2C1([H])[H]

>  <smiles>  (91) 
[H]c1c([H])c([H])c2c(c1[H])C([H])([H])C([H])([H])C([H])([H])C2([H])N([H])C(=O)C1([H])N(C(=O)C([H])(N([H])C(=O)C([H])(N([H])C([H])([H])[H])C([H])([H])[H])C(C([H])([H])[H])(C([H])([H])[H])C([H])([H])[H])C([H])([H])c2c([H])c(Oc3c([H])c([H])c(F)c([H])c3C(=O)N([H])C([H])([H])C([H])([H])C([H])([H])C(=O)N3C([H])([H])C([H])([H])C([H])([H])C([H])(n4nc(-c5c([H])c([H])c(Oc6c([H])c([H])c(F)c([H])c6F)c([H])c5[H])c(C(=O)N([H])[H])c4N([H])[H])C3([H])[H])c([H])c([H])c2C1([H])[H]

$$$$
91:0:0
     RDKit          3D

 87 94  0  0  1  0  0  0  0  0999 V2000
  -26.9810  -21.2940   18.8710 C   0  0  0  0  0  3  0  0  0  0  0  0
  -27.2060  -22.7050   19.1380 C   0  0  0  0  0  3  0  0  0  0  0  0
  -29.1570  -21.8380   20.1940 C   0  0  0  0  0  3  0  0  0  0  0  0
  -27.7850  -20.1410   19.2260 C   0  0  0  0  0  0  0  0  0  0  0  0
  -29.0220  -20.1520   19.8890 C   0  0  0  0  0  3  0  0  0  0  0  0
  -28.2940  -23.2910   19.8550 C   0  0  0  0  0  0  0  0  0  0  0  0
  -27.2970  -18.7160   19.0480 C   0  0  0  0  0  2  0  0  0  0  0  0
  -27.9820  -17.8030   20.1070 C   0  0  0  0  0  2  0  0  0  0  0  0
  -29.4740  -18.1960   20.3190 C   0  0  0  0  0  2  0  0  0  0  0  0
  -29.8390  -18.3260   21.8090 C   0  0  0  0  0  1  0  0  0  0  0  0
  -30.2930  -16.3140   19.9330 C   0  0  0  0  0  2  0  0  0  0  0  0
  -30.5720  -13.6150   19.1760 C   0  0  0  0  0  2  0  0  0  0  0  0
  -29.6990  -12.9650   18.0410 C   0  0  0  0  0  2  0  0  0  0  0  0
  -28.3420  -12.4850   18.5670 C   0  0  0  0  0  2  0  0  0  0  0  0
  -27.7850  -13.5070   19.5730 C   0  0  0  0  0  3  0  0  0  0  0  0
  -28.8170  -14.0400   20.6150 C   0  0  0  0  0  2  0  0  0  0  0  0
  -29.8880  -14.8300   19.9100 N   0  0  0  0  0  0  0  0  0  0  0  0
  -31.5120  -16.1810   19.6480 O   0  0  0  0  0  1  0  0  0  0  0  0
  -25.4760  -13.9610   20.4950 C   0  0  0  0  0  0  0  0  0  0  0  0
  -24.4420  -13.1650   20.8860 C   0  0  0  0  0  0  0  0  0  0  0  0
  -24.9110  -11.8190   20.7740 C   0  0  0  0  0  0  0  0  0  0  0  0
  -26.5110  -13.1120   20.1600 N   0  0  0  0  0  0  0  0  0  0  0  0
  -26.1890  -11.8060   20.3880 N   0  0  0  0  0  0  0  0  0  0  0  0
  -24.1870  -10.5520   20.9530 C   0  0  0  0  0  0  0  0  0  0  0  0
  -24.6030   -9.5860   21.8960 C   0  0  0  0  0  3  0  0  0  0  0  0
  -23.8710   -8.3900   22.0680 C   0  0  0  0  0  3  0  0  0  0  0  0
  -22.7060   -8.1530   21.3000 C   0  0  0  0  0  0  0  0  0  0  0  0
  -22.3090   -9.1080   20.3470 C   0  0  0  0  0  3  0  0  0  0  0  0
  -23.0410  -10.2940   20.1730 C   0  0  0  0  0  3  0  0  0  0  0  0
  -21.9460   -7.0100   21.3800 O   0  0  0  0  0  0  0  0  0  0  0  0
  -21.7990   -6.3250   22.5600 C   0  0  0  0  0  0  0  0  0  0  0  0
  -21.2610   -6.9360   23.7130 C   0  0  0  0  0  3  0  0  0  0  0  0
  -21.0590   -6.1770   24.8840 C   0  0  0  0  0  3  0  0  0  0  0  0
  -21.3870   -4.8080   24.9010 C   0  0  0  0  0  0  0  0  0  0  0  0
  -21.9180   -4.1970   23.7520 C   0  0  0  0  0  3  0  0  0  0  0  0
  -22.1200   -4.9530   22.5840 C   0  0  0  0  0  0  0  0  0  0  0  0
  -22.6110   -4.3530   21.4730 F   0  0  0  0  0  0  0  0  0  0  0  0
  -21.1890   -4.0780   26.0230 F   0  0  0  0  0  0  0  0  0  0  0  0
  -23.0610  -13.6330   21.2390 C   0  0  0  0  0  0  0  0  0  0  0  0
  -22.3770  -12.9160   22.1200 N   0  0  0  0  0  0  0  0  0  0  0  0
  -22.6040  -14.6770   20.7700 O   0  0  0  0  0  0  0  0  0  0  0  0
  -22.7600  -12.0720   22.5170 H   0  0  0  0  0  0  0  0  0  0  0  0
  -21.4550  -13.2180   22.4030 H   0  0  0  0  0  0  0  0  0  0  0  0
  -25.6140  -15.3380   20.3610 N   0  0  0  0  0  0  0  0  0  0  0  0
  -24.8440  -15.9700   20.5470 H   0  0  0  0  0  0  0  0  0  0  0  0
  -26.4290  -15.8030   19.9870 H   0  0  0  0  0  0  0  0  0  0  0  0
  -28.2880  -25.0400   20.0060 O   0  0  0  0  0  0  0  0  0  0  0  0
  -24.8300  -31.7570   23.0330 C   0  0  0  0  0  0  0  0  0  0  0  0
  -27.3410  -26.4130   19.9800 C   0  0  0  0  0  0  0  0  0  0  0  0
  -23.6440  -30.3570   21.4010 C   0  0  0  0  0  3  0  0  0  0  0  0
  -25.0890  -28.6640   19.9700 C   0  0  0  0  0  0  0  0  0  0  0  0
  -26.2350  -30.4110   21.2920 C   0  0  0  0  0  2  0  0  0  0  0  0
  -26.2950  -28.9480   20.6180 C   0  0  0  0  0  0  0  0  0  0  0  0
  -27.3800  -27.8610   20.5860 C   0  0  0  0  0  3  0  0  0  0  0  0
  -26.0970  -26.4450   19.2640 C   0  0  0  0  0  3  0  0  0  0  0  0
  -25.0510  -27.4440   19.2660 C   0  0  0  0  0  3  0  0  0  0  0  0
  -23.8900  -29.6490   20.0310 C   0  0  0  0  0  2  0  0  0  0  0  0
  -24.9320  -30.8830   21.9600 N   0  0  0  0  0  0  0  0  0  0  0  0
  -23.7330  -32.0580   23.5410 O   0  0  0  0  0  0  0  0  0  0  0  0
  -22.9140  -29.3960   22.3820 C   0  0  0  0  0  0  0  0  0  0  0  0
  -21.5760  -29.2560   22.2770 N   0  0  0  0  0  0  0  0  0  0  0  0
  -23.5710  -28.7700   23.2160 O   0  0  0  0  0  0  0  0  0  0  0  0
  -21.0890  -29.8120   21.5880 H   0  0  0  0  0  0  0  0  0  0  0  0
  -18.1970  -28.0100   22.8300 C   0  0  0  0  0  0  0  0  0  0  0  0
  -20.7590  -28.3090   23.0540 C   0  0  0  0  0  3  0  0  0  0  0  0
  -20.8660  -26.8790   22.4710 C   0  0  0  0  0  2  0  0  0  0  0  0
  -19.7550  -26.5540   21.4670 C   0  0  0  0  0  2  0  0  0  0  0  0
  -18.3810  -26.6740   22.1310 C   0  0  0  0  0  2  0  0  0  0  0  0
  -19.3120  -28.7850   23.2480 C   0  0  0  0  0  0  0  0  0  0  0  0
  -19.0810  -30.0320   23.8700 C   0  0  0  0  0  3  0  0  0  0  0  0
  -17.7710  -30.5050   24.0710 C   0  0  0  0  0  3  0  0  0  0  0  0
  -16.6720  -29.7290   23.6650 C   0  0  0  0  0  3  0  0  0  0  0  0
  -16.8860  -28.4820   23.0510 C   0  0  0  0  0  3  0  0  0  0  0  0
  -26.0790  -32.4300   23.6790 C   0  0  0  0  0  3  0  0  0  0  0  0
  -25.7240  -33.8120   24.0740 N   0  0  0  0  0  0  0  0  0  0  0  0
  -25.9920  -34.9200   23.3690 C   0  0  0  0  0  0  0  0  0  0  0  0
  -26.6110  -34.8870   22.3030 O   0  0  0  0  0  0  0  0  0  0  0  0
  -25.1620  -33.9060   24.9080 H   0  0  0  0  0  0  0  0  0  0  0  0
  -24.1870  -36.6790   23.2360 C   0  0  0  0  0  1  0  0  0  0  0  0
  -25.5020  -36.2770   23.9250 C   0  0  0  0  0  3  0  0  0  0  0  0
  -27.6630  -37.2150   24.6270 C   0  0  0  0  0  1  0  0  0  0  0  0
  -26.4880  -37.3710   23.7740 N   0  0  0  0  0  0  0  0  0  0  0  0
  -26.0640  -38.2710   23.9800 H   0  0  0  0  0  0  0  0  0  0  0  0
  -26.6150  -31.6470   24.9430 C   0  0  1  0  0  0  0  0  0  0  0  0
  -25.5320  -31.3750   26.0160 C   0  0  0  0  0  1  0  0  0  0  0  0
  -27.2170  -30.2830   24.5440 C   0  0  0  0  0  1  0  0  0  0  0  0
  -27.7600  -32.4480   25.6080 C   0  0  0  0  0  1  0  0  0  0  0  0
  1  2  2  0
  1  4  1  0
  2  6  1  0
  4  5  2  0
  5  3  1  0
  6 47  1  0
  6  3  2  0
  7  4  1  0
  7  8  1  0
  8  9  1  0
  9 10  1  0
 12 17  1  0
 13 14  1  0
 13 12  1  0
 15 14  1  0
 15 22  1  0
 15 16  1  0
 17 11  1  0
 17 16  1  0
 18 11  1  0
 19 20  2  0
 20 39  1  0
 21 20  1  0
 21 24  1  0
 22 23  1  0
 22 19  1  0
 23 21  2  0
 24 25  1  0
 25 26  2  0
 27 30  1  0
 27 26  1  0
 28 27  2  0
 29 28  1  0
 29 24  2  0
 30 31  1  0
 31 36  2  0
 31 32  1  0
 32 33  2  0
 33 34  1  0
 34 38  1  0
 35 34  2  0
 36 35  1  0
 37 36  1  0
 39 40  1  0
 40 43  1  0
 40 42  1  0
 41 39  2  0
 44 19  1  0
 44 45  1  0
 46 44  1  0
 48 59  2  0
 49 47  1  0
 49 54  1  0
 50 58  1  0
 50 60  1  0
 51 57  1  0
 51 53  1  0
 52 58  1  0
 53 52  1  0
 54 53  2  0
 55 56  1  0
 55 49  2  0
 56 51  2  0
 57 50  1  0
 58 48  1  0
 60 62  2  0
 61 60  1  0
 63 61  1  0
 64 73  2  0
 64 69  1  0
 65 61  1  0
 65 69  1  0
 66 65  1  0
 67 68  1  0
 67 66  1  0
 68 64  1  0
 69 70  2  0
 70 71  1  0
 72 71  2  0
 73 72  1  0
 74 48  1  0
 74 75  1  0
 74 84  1  0
 75 78  1  0
 76 80  1  0
 76 75  1  0
 77 76  2  0
 80 79  1  0
 82 80  1  0
 82 83  1  0
 82 81  1  0
 84 87  1  1
 84 85  1  0
 86 84  1  0
M  ISO  4   6 101   9 100  11 100  47 101
M  END
>  <TORSDO>  (92) 
F 16

>  <SCORE>  (92) 
-16.188

>  <name>  (92) 
91

>  <ligand_id>  (92) 
91

>  <original_smiles>  (92) 
[H]c1c([H])c([H])c2c(c1[H])C([H])([H])C([H])([H])C([H])([H])C2([H])N([H])C(=O)C1([H])N(C(=O)C([H])(N([H])C(=O)C([H])(N([H])C([H])([H])[H])C([H])([H])[H])C(C([H])([H])[H])(C([H])([H])[H])C([H])([H])[H])C([H])([H])c2c([H])c(Oc3c([H])c([H])c4c(c3[H])C(C(=O)N3C([H])([H])C([H])([H])C([H])([H])C([H])(n5nc(-c6c([H])c([H])c(Oc7c([H])c([H])c(F)c([H])c7F)c([H])c6[H])c(C(=O)N([H])[H])c5N([H])[H])C3([H])[H])(C([H])([H])[H])C([H])([H])C4([H])[H])c([H])c([H])c2C1([H])[H]

>  <smiles>  (92) 
[H]c1c([H])c([H])c2c(c1[H])C([H])([H])C([H])([H])C([H])([H])C2([H])N([H])C(=O)C1([H])N(C(=O)C([H])(N([H])C(=O)C([H])(N([H])C([H])([H])[H])C([H])([H])[H])C(C([H])([H])[H])(C([H])([H])[H])C([H])([H])[H])C([H])([H])c2c([H])c(Oc3c([H])c([H])c4c(c3[H])C(C(=O)N3C([H])([H])C([H])([H])C([H])([H])C([H])(n5nc(-c6c([H])c([H])c(Oc7c([H])c([H])c(F)c([H])c7F)c([H])c6[H])c(C(=O)N([H])[H])c5N([H])[H])C3([H])[H])(C([H])([H])[H])C([H])([H])C4([H])[H])c([H])c([H])c2C1([H])[H]

$$$$
92:0:0
     RDKit          3D

 91 99  0  0  1  0  0  0  0  0999 V2000
  -29.4570  -22.5200   20.1700 N   0  0  0  0  0  4  0  0  0  0  0  0
  -30.4370  -22.6480   19.9750 H   0  0  0  0  0  0  0  0  0  0  0  0
  -29.3720  -22.5680   21.1730 H   0  0  0  0  0  0  0  0  0  0  0  0
  -28.9430  -19.3110   21.7700 C   0  0  0  0  0  2  0  0  0  0  0  0
  -29.0510  -17.8320   21.2730 C   0  0  0  0  0  2  0  0  0  0  0  0
  -30.0710  -18.5200   19.0800 C   0  0  0  0  0  2  0  0  0  0  0  0
  -28.2320  -20.3430   20.8310 C   0  0  0  0  0  2  0  0  0  0  0  0
  -30.3260  -20.0850   19.4020 C   0  0  0  0  0  2  0  0  0  0  0  0
  -30.1730  -17.4540   20.2600 C   0  0  0  0  0  3  0  0  0  0  0  0
  -29.1100  -21.0640   19.7660 C   0  0  0  0  0  3  0  0  0  0  0  0
  -30.8630  -14.8740   19.7080 C   0  0  0  0  0  0  0  0  0  0  0  0
  -30.6330  -12.5970   18.6850 C   0  0  0  0  0  2  0  0  0  0  0  0
  -29.5990  -12.6690   17.5380 C   0  0  0  0  0  2  0  0  0  0  0  0
  -28.1610  -12.4990   18.0740 C   0  0  0  0  0  2  0  0  0  0  0  0
  -27.8800  -13.3790   19.3210 C   0  0  0  0  0  3  0  0  0  0  0  0
  -29.0200  -13.2630   20.3560 C   0  0  0  0  0  2  0  0  0  0  0  0
  -30.2660  -13.6340   19.6720 N   0  0  0  0  0  0  0  0  0  0  0  0
  -32.0390  -15.0120   19.3540 O   0  0  0  0  0  0  0  0  0  0  0  0
  -30.0250  -15.9540   19.9580 N   0  0  0  0  0  0  0  0  0  0  0  0
  -29.0810  -15.6300   20.0970 H   0  0  0  0  0  0  0  0  0  0  0  0
  -25.5630  -13.9910   20.2370 C   0  0  0  0  0  0  0  0  0  0  0  0
  -24.5190  -13.2240   20.6760 C   0  0  0  0  0  0  0  0  0  0  0  0
  -24.9600  -11.8680   20.5860 C   0  0  0  0  0  0  0  0  0  0  0  0
  -26.5730  -13.1020   19.9080 N   0  0  0  0  0  0  0  0  0  0  0  0
  -26.2220  -11.8200   20.1820 N   0  0  0  0  0  0  0  0  0  0  0  0
  -24.2300  -10.6120   20.8050 C   0  0  0  0  0  0  0  0  0  0  0  0
  -24.6300   -9.6900   21.7990 C   0  0  0  0  0  3  0  0  0  0  0  0
  -23.9020   -8.4990   22.0050 C   0  0  0  0  0  3  0  0  0  0  0  0
  -22.7600   -8.2200   21.2170 C   0  0  0  0  0  0  0  0  0  0  0  0
  -22.3800   -9.1290   20.2140 C   0  0  0  0  0  3  0  0  0  0  0  0
  -23.1090  -10.3130   20.0060 C   0  0  0  0  0  3  0  0  0  0  0  0
  -22.0070   -7.0760   21.3280 O   0  0  0  0  0  0  0  0  0  0  0  0
  -21.7900   -6.4730   22.5410 C   0  0  0  0  0  0  0  0  0  0  0  0
  -21.1680   -7.1530   23.6100 C   0  0  0  0  0  3  0  0  0  0  0  0
  -20.9000   -6.4740   24.8160 C   0  0  0  0  0  3  0  0  0  0  0  0
  -21.2470   -5.1150   24.9510 C   0  0  0  0  0  0  0  0  0  0  0  0
  -21.8620   -4.4370   23.8860 C   0  0  0  0  0  3  0  0  0  0  0  0
  -22.1300   -5.1130   22.6830 C   0  0  0  0  0  0  0  0  0  0  0  0
  -22.7050   -4.4480   21.6520 F   0  0  0  0  0  0  0  0  0  0  0  0
  -20.9850   -4.4610   26.1060 F   0  0  0  0  0  0  0  0  0  0  0  0
  -23.1510  -13.7150   21.0540 C   0  0  0  0  0  0  0  0  0  0  0  0
  -22.4870  -13.0260   21.9760 N   0  0  0  0  0  0  0  0  0  0  0  0
  -22.6820  -14.7420   20.5660 O   0  0  0  0  0  0  0  0  0  0  0  0
  -22.8760  -12.1970   22.3970 H   0  0  0  0  0  0  0  0  0  0  0  0
  -21.5720  -13.3390   22.2680 H   0  0  0  0  0  0  0  0  0  0  0  0
  -25.7300  -15.3620   20.0650 N   0  0  0  0  0  0  0  0  0  0  0  0
  -24.9630  -16.0070   20.2200 H   0  0  0  0  0  0  0  0  0  0  0  0
  -26.5170  -15.7920   19.6000 H   0  0  0  0  0  0  0  0  0  0  0  0
  -28.7380  -23.7520   19.5580 C   0  0  0  0  0  2  0  0  0  0  0  0
  -28.6580  -25.1350   20.4220 C   0  0  0  0  0  2  0  0  0  0  0  0
  -28.5990  -26.5240   19.8390 O   0  0  0  0  0  0  0  0  0  0  0  0
  -24.5670  -31.6700   23.0630 C   0  0  0  0  0  0  0  0  0  0  0  0
  -27.4290  -27.3110   19.9010 C   0  0  0  0  0  0  0  0  0  0  0  0
  -23.4500  -30.2650   21.3680 C   0  0  0  0  0  3  0  0  0  0  0  0
  -24.9880  -28.8230   19.9140 C   0  0  0  0  0  0  0  0  0  0  0  0
  -25.9730  -30.7100   21.2170 C   0  0  0  0  0  2  0  0  0  0  0  0
  -26.1290  -29.3520   20.5310 C   0  0  0  0  0  0  0  0  0  0  0  0
  -27.3540  -28.6120   20.5050 C   0  0  0  0  0  3  0  0  0  0  0  0
  -26.2600  -26.8350   19.2730 C   0  0  0  0  0  3  0  0  0  0  0  0
  -25.0560  -27.5720   19.2770 C   0  0  0  0  0  3  0  0  0  0  0  0
  -23.7100  -29.6390   19.9730 C   0  0  0  0  0  2  0  0  0  0  0  0
  -24.6820  -30.8980   21.9410 N   0  0  0  0  0  0  0  0  0  0  0  0
  -23.4660  -31.8740   23.5960 O   0  0  0  0  0  0  0  0  0  0  0  0
  -22.8270  -29.1900   22.2930 C   0  0  0  0  0  0  0  0  0  0  0  0
  -21.5040  -28.9760   22.1740 N   0  0  0  0  0  0  0  0  0  0  0  0
  -23.5340  -28.5510   23.0760 O   0  0  0  0  0  0  0  0  0  0  0  0
  -20.9910  -29.5430   21.5120 H   0  0  0  0  0  0  0  0  0  0  0  0
  -18.1650  -27.6920   22.7110 C   0  0  0  0  0  0  0  0  0  0  0  0
  -20.7270  -27.9800   22.9120 C   0  0  0  0  0  3  0  0  0  0  0  0
  -20.8330  -26.5880   22.2460 C   0  0  0  0  0  2  0  0  0  0  0  0
  -19.7010  -26.3090   21.2510 C   0  0  0  0  0  2  0  0  0  0  0  0
  -18.3400  -26.3920   21.9470 C   0  0  0  0  0  2  0  0  0  0  0  0
  -19.2860  -28.4460   23.1510 C   0  0  0  0  0  0  0  0  0  0  0  0
  -19.0670  -29.6650   23.8290 C   0  0  0  0  0  3  0  0  0  0  0  0
  -17.7610  -30.1320   24.0690 C   0  0  0  0  0  3  0  0  0  0  0  0
  -16.6550  -29.3740   23.6450 C   0  0  0  0  0  3  0  0  0  0  0  0
  -16.8590  -28.1550   22.9730 C   0  0  0  0  0  3  0  0  0  0  0  0
  -25.8090  -32.3480   23.7180 C   0  0  0  0  0  3  0  0  0  0  0  0
  -26.3450  -31.5740   24.9850 C   0  0  1  0  0  0  0  0  0  0  0  0
  -25.2500  -31.2530   26.0280 C   0  0  0  0  0  1  0  0  0  0  0  0
  -27.0030  -30.2370   24.5710 C   0  0  0  0  0  1  0  0  0  0  0  0
  -27.4480  -32.4080   25.6810 C   0  0  0  0  0  1  0  0  0  0  0  0
  -25.4300  -33.7230   24.0770 N   0  0  0  0  0  0  0  0  0  0  0  0
  -25.7270  -34.8100   23.3530 C   0  0  0  0  0  0  0  0  0  0  0  0
  -26.4190  -34.7650   22.3310 O   0  0  0  0  0  0  0  0  0  0  0  0
  -24.8190  -33.8290   24.8730 H   0  0  0  0  0  0  0  0  0  0  0  0
  -23.9290  -36.5370   23.0160 C   0  0  0  0  0  1  0  0  0  0  0  0
  -25.1730  -36.1650   23.8380 C   0  0  0  0  0  3  0  0  0  0  0  0
  -27.2460  -37.1220   24.7380 C   0  0  0  0  0  1  0  0  0  0  0  0
  -26.1610  -37.2650   23.7720 N   0  0  0  0  0  0  0  0  0  0  0  0
  -25.7090  -38.1610   23.9370 H   0  0  0  0  0  0  0  0  0  0  0  0
  1  3  1  0
  2  1  1  0
  5  4  1  0
  6  8  1  0
  6  9  1  0
  7  4  1  0
  8 10  1  0
  9 19  1  0
  9  5  1  0
 10  1  1  0
 10  7  1  0
 11 19  1  0
 12 17  1  0
 13 14  1  0
 13 12  1  0
 15 14  1  0
 15 24  1  0
 15 16  1  0
 17 11  1  0
 17 16  1  0
 18 11  2  0
 19 20  1  0
 21 22  2  0
 22 41  1  0
 23 22  1  0
 23 26  1  0
 24 25  1  0
 24 21  1  0
 25 23  2  0
 26 27  1  0
 27 28  2  0
 29 32  1  0
 29 28  1  0
 30 29  2  0
 31 30  1  0
 31 26  2  0
 32 33  1  0
 33 38  2  0
 33 34  1  0
 34 35  2  0
 35 36  1  0
 36 40  1  0
 37 36  2  0
 38 37  1  0
 39 38  1  0
 41 42  1  0
 42 45  1  0
 42 44  1  0
 43 41  2  0
 46 47  1  0
 46 21  1  0
 48 46  1  0
 49  1  1  0
 49 50  1  0
 51 53  1  0
 51 50  1  0
 52 63  2  0
 53 58  1  0
 54 62  1  0
 54 64  1  0
 55 61  1  0
 55 57  1  0
 56 62  1  0
 57 56  1  0
 58 57  2  0
 59 60  1  0
 59 53  2  0
 60 55  2  0
 61 54  1  0
 62 52  1  0
 64 66  2  0
 65 64  1  0
 67 65  1  0
 68 77  2  0
 68 73  1  0
 69 65  1  0
 69 73  1  0
 70 69  1  0
 71 72  1  0
 71 70  1  0
 72 68  1  0
 73 74  2  0
 74 75  1  0
 76 75  2  0
 77 76  1  0
 78 52  1  0
 78 83  1  0
 78 79  1  0
 79 82  1  1
 79 80  1  0
 81 79  1  0
 83 86  1  0
 84 88  1  0
 84 83  1  0
 85 84  2  0
 88 87  1  0
 90 88  1  0
 90 91  1  0
 90 89  1  0
M  ISO  4  11 100  19 100  50 101  51 101
M  END
>  <TORSDO>  (93) 
F 19

>  <SCORE>  (93) 
-11.287

>  <name>  (93) 
92

>  <ligand_id>  (93) 
92

>  <original_smiles>  (93) 
[H]c1c([H])c([H])c2c(c1[H])C([H])([H])C([H])([H])C([H])([H])C2([H])N([H])C(=O)C1([H])N(C(=O)C([H])(N([H])C(=O)C([H])(N([H])C([H])([H])[H])C([H])([H])[H])C(C([H])([H])[H])(C([H])([H])[H])C([H])([H])[H])C([H])([H])c2c([H])c(OC([H])([H])C([H])([H])[N+]([H])([H])C3([H])C([H])([H])C([H])([H])C([H])([H])C([H])(N([H])C(=O)N4C([H])([H])C([H])([H])C([H])([H])C([H])(n5nc(-c6c([H])c([H])c(Oc7c([H])c([H])c(F)c([H])c7F)c([H])c6[H])c(C(=O)N([H])[H])c5N([H])[H])C4([H])[H])C([H])([H])C3([H])[H])c([H])c([H])c2C1([H])[H]

>  <smiles>  (93) 
[H]c1c([H])c([H])c2c(c1[H])C([H])([H])C([H])([H])C([H])([H])C2([H])N([H])C(=O)C1([H])N(C(=O)C([H])(N([H])C(=O)C([H])(N([H])C([H])([H])[H])C([H])([H])[H])C(C([H])([H])[H])(C([H])([H])[H])C([H])([H])[H])C([H])([H])c2c([H])c(OC([H])([H])C([H])([H])[N+]([H])([H])C3([H])C([H])([H])C([H])([H])C([H])([H])C([H])(N([H])C(=O)N4C([H])([H])C([H])([H])C([H])([H])C([H])(n5nc(-c6c([H])c([H])c(Oc7c([H])c([H])c(F)c([H])c7F)c([H])c6[H])c(C(=O)N([H])[H])c5N([H])[H])C4([H])[H])C([H])([H])C3([H])[H])c([H])c([H])c2C1([H])[H]

$$$$
93:0:0
     RDKit          3D

 86 92  0  0  1  0  0  0  0  0999 V2000
  -27.9210  -20.7970   20.6970 C   0  0  0  0  0  3  0  0  0  0  0  0
  -27.6170  -22.3410   20.6970 C   0  0  0  0  0  3  0  0  0  0  0  0
  -29.0710  -19.8850   20.2580 C   0  0  0  0  0  3  0  0  0  0  0  0
  -29.8480  -21.1170   19.7870 C   0  0  0  0  0  0  0  0  0  0  0  0
  -29.5470  -22.6890   19.8000 C   0  0  0  0  0  0  0  0  0  0  0  0
  -28.3670  -23.5820   20.2390 C   0  0  0  0  0  0  0  0  0  0  0  0
  -31.1860  -20.6990   19.1940 C   0  0  0  0  0  1  0  0  0  0  0  0
  -30.6800  -23.5540   19.2610 C   0  0  0  0  0  1  0  0  0  0  0  0
  -28.2100  -25.2890   20.2850 O   0  0  0  0  0  0  0  0  0  0  0  0
  -24.6990  -31.8770   23.2070 C   0  0  0  0  0  0  0  0  0  0  0  0
  -27.2170  -26.5740   20.2770 C   0  0  0  0  0  0  0  0  0  0  0  0
  -23.5190  -30.4600   21.5850 C   0  0  0  0  0  3  0  0  0  0  0  0
  -24.9660  -28.7540   20.2000 C   0  0  0  0  0  0  0  0  0  0  0  0
  -26.1060  -30.5350   21.4860 C   0  0  0  0  0  2  0  0  0  0  0  0
  -26.1650  -29.0700   20.8460 C   0  0  0  0  0  0  0  0  0  0  0  0
  -27.2590  -28.0160   20.8480 C   0  0  0  0  0  3  0  0  0  0  0  0
  -25.9810  -26.5320   19.5630 C   0  0  0  0  0  3  0  0  0  0  0  0
  -24.9260  -27.5130   19.5330 C   0  0  0  0  0  3  0  0  0  0  0  0
  -23.7690  -29.7330   20.2280 C   0  0  0  0  0  2  0  0  0  0  0  0
  -24.8010  -30.9980   22.1440 N   0  0  0  0  0  0  0  0  0  0  0  0
  -23.6030  -32.1900   23.7060 O   0  0  0  0  0  0  0  0  0  0  0  0
  -22.7820  -29.5120   22.5720 C   0  0  0  0  0  0  0  0  0  0  0  0
  -21.4480  -29.3610   22.4460 N   0  0  0  0  0  0  0  0  0  0  0  0
  -23.4290  -28.9030   23.4280 O   0  0  0  0  0  0  0  0  0  0  0  0
  -20.9720  -29.9020   21.7360 H   0  0  0  0  0  0  0  0  0  0  0  0
  -18.0610  -28.1330   22.9630 C   0  0  0  0  0  0  0  0  0  0  0  0
  -20.6200  -28.4320   23.2280 C   0  0  0  0  0  3  0  0  0  0  0  0
  -20.7330  -26.9910   22.6760 C   0  0  0  0  0  2  0  0  0  0  0  0
  -19.6390  -26.6450   21.6610 C   0  0  0  0  0  2  0  0  0  0  0  0
  -18.2540  -26.7810   22.2970 C   0  0  0  0  0  2  0  0  0  0  0  0
  -19.1700  -28.9160   23.3840 C   0  0  0  0  0  0  0  0  0  0  0  0
  -18.9310  -30.1760   23.9750 C   0  0  0  0  0  3  0  0  0  0  0  0
  -17.6180  -30.6560   24.1420 C   0  0  0  0  0  3  0  0  0  0  0  0
  -16.5250  -29.8720   23.7320 C   0  0  0  0  0  3  0  0  0  0  0  0
  -16.7470  -28.6130   23.1490 C   0  0  0  0  0  3  0  0  0  0  0  0
  -25.9540  -32.5440   23.8510 C   0  0  0  0  0  3  0  0  0  0  0  0
  -25.6220  -33.9470   24.1820 N   0  0  0  0  0  0  0  0  0  0  0  0
  -25.9340  -35.0160   23.4380 C   0  0  0  0  0  0  0  0  0  0  0  0
  -26.5830  -34.9270   22.3930 O   0  0  0  0  0  0  0  0  0  0  0  0
  -25.0380  -34.0870   24.9940 H   0  0  0  0  0  0  0  0  0  0  0  0
  -24.1820  -36.8120   23.1670 C   0  0  0  0  0  1  0  0  0  0  0  0
  -25.4570  -36.4050   23.9230 C   0  0  0  0  0  3  0  0  0  0  0  0
  -27.6120  -37.3180   24.6780 C   0  0  0  0  0  1  0  0  0  0  0  0
  -26.4770  -37.4680   23.7720 N   0  0  0  0  0  0  0  0  0  0  0  0
  -26.0670  -38.3860   23.9270 H   0  0  0  0  0  0  0  0  0  0  0  0
  -26.4460  -31.7990   25.1550 C   0  0  1  0  0  0  0  0  0  0  0  0
  -25.3360  -31.5850   26.2110 C   0  0  0  0  0  1  0  0  0  0  0  0
  -27.0350  -30.4120   24.8170 C   0  0  0  0  0  1  0  0  0  0  0  0
  -27.5890  -32.6060   25.8190 C   0  0  0  0  0  1  0  0  0  0  0  0
  -29.2320  -17.8860   20.3630 C   0  0  0  0  0 15  0  0  0  0  0  0
  -30.1440  -16.1190   20.0990 C   0  0  0  0  0  2  0  0  0  0  0  0
  -30.3920  -13.4830   19.2910 C   0  0  0  0  0  2  0  0  0  0  0  0
  -29.5050  -12.9520   18.1140 C   0  0  0  0  0  2  0  0  0  0  0  0
  -28.1170  -12.5100   18.5980 C   0  0  0  0  0  2  0  0  0  0  0  0
  -27.5830  -13.4990   19.6520 C   0  0  0  0  0  3  0  0  0  0  0  0
  -28.6180  -13.9220   20.7290 C   0  0  0  0  0  2  0  0  0  0  0  0
  -29.7300  -14.6660   20.0610 N   0  0  0  0  0  0  0  0  0  0  0  0
  -31.3710  -16.0390   19.8480 O   0  0  0  0  0  1  0  0  0  0  0  0
  -25.2470  -13.9630   20.5110 C   0  0  0  0  0  0  0  0  0  0  0  0
  -24.2100  -13.1630   20.8950 C   0  0  0  0  0  0  0  0  0  0  0  0
  -24.6960  -11.8200   20.8210 C   0  0  0  0  0  0  0  0  0  0  0  0
  -26.2940  -13.1130   20.2140 N   0  0  0  0  0  0  0  0  0  0  0  0
  -25.9800  -11.8130   20.4650 N   0  0  0  0  0  0  0  0  0  0  0  0
  -23.9840  -10.5460   21.0100 C   0  0  0  0  0  0  0  0  0  0  0  0
  -24.4320   -9.5760   21.9330 C   0  0  0  0  0  3  0  0  0  0  0  0
  -23.7160   -8.3730   22.1140 C   0  0  0  0  0  3  0  0  0  0  0  0
  -22.5330   -8.1320   21.3740 C   0  0  0  0  0  0  0  0  0  0  0  0
  -22.1020   -9.0910   20.4410 C   0  0  0  0  0  3  0  0  0  0  0  0
  -22.8200  -10.2850   20.2580 C   0  0  0  0  0  3  0  0  0  0  0  0
  -21.7880   -6.9810   21.4640 O   0  0  0  0  0  0  0  0  0  0  0  0
  -21.7370   -6.2430   22.6210 C   0  0  0  0  0  0  0  0  0  0  0  0
  -21.2730   -6.7940   23.8350 C   0  0  0  0  0  3  0  0  0  0  0  0
  -21.1700   -5.9830   24.9830 C   0  0  0  0  0  3  0  0  0  0  0  0
  -21.5220   -4.6210   24.9170 C   0  0  0  0  0  0  0  0  0  0  0  0
  -21.9800   -4.0700   23.7070 C   0  0  0  0  0  3  0  0  0  0  0  0
  -22.0840   -4.8790   22.5620 C   0  0  0  0  0  0  0  0  0  0  0  0
  -22.5040   -4.3370   21.3930 F   0  0  0  0  0  0  0  0  0  0  0  0
  -21.4190   -3.8390   26.0170 F   0  0  0  0  0  0  0  0  0  0  0  0
  -22.8160  -13.6200   21.2090 C   0  0  0  0  0  0  0  0  0  0  0  0
  -22.1220  -12.9120   22.0900 N   0  0  0  0  0  0  0  0  0  0  0  0
  -22.3550  -14.6460   20.7090 O   0  0  0  0  0  0  0  0  0  0  0  0
  -22.5100  -12.0840   22.5180 H   0  0  0  0  0  0  0  0  0  0  0  0
  -21.1870  -13.2020   22.3420 H   0  0  0  0  0  0  0  0  0  0  0  0
  -25.3860  -15.3400   20.3550 N   0  0  0  0  0  0  0  0  0  0  0  0
  -24.6140  -15.9810   20.5030 H   0  0  0  0  0  0  0  0  0  0  0  0
  -26.2180  -15.7940   20.0020 H   0  0  0  0  0  0  0  0  0  0  0  0
  2  1  1  0
  3  1  2  0
  4  5  2  0
  4  3  1  0
  5  6  1  0
  6  9  1  0
  6  2  2  0
  7  4  1  0
  8  5  1  0
 10 21  2  0
 11  9  1  0
 11 16  1  0
 12 20  1  0
 12 22  1  0
 13 19  1  0
 13 15  1  0
 14 20  1  0
 15 16  2  0
 15 14  1  0
 17 11  2  0
 18 17  1  0
 18 13  2  0
 19 12  1  0
 20 10  1  0
 22 24  2  0
 23 22  1  0
 25 23  1  0
 26 35  2  0
 26 31  1  0
 27 23  1  0
 27 31  1  0
 28 27  1  0
 29 30  1  0
 29 28  1  0
 30 26  1  0
 31 32  2  0
 32 33  1  0
 34 33  2  0
 35 34  1  0
 36 10  1  0
 36 37  1  0
 36 46  1  0
 37 40  1  0
 38 42  1  0
 38 37  1  0
 39 38  2  0
 42 41  1  0
 44 42  1  0
 44 45  1  0
 44 43  1  0
 46 49  1  1
 46 47  1  0
 48 46  1  0
 52 57  1  0
 53 54  1  0
 53 52  1  0
 55 54  1  0
 55 62  1  0
 55 56  1  0
 57 51  1  0
 57 56  1  0
 58 51  1  0
 59 60  2  0
 60 79  1  0
 61 60  1  0
 61 64  1  0
 62 63  1  0
 62 59  1  0
 63 61  2  0
 64 65  1  0
 65 66  2  0
 67 70  1  0
 67 66  1  0
 68 67  2  0
 69 68  1  0
 69 64  2  0
 70 71  1  0
 71 72  1  0
 72 73  2  0
 74 73  1  0
 74 78  1  0
 75 74  2  0
 76 71  2  0
 76 75  1  0
 77 76  1  0
 79 80  1  0
 80 83  1  0
 80 82  1  0
 81 79  2  0
 84 85  1  0
 84 59  1  0
 86 84  1  0
M  ISO  4   6 101   9 101  50 100  51 100
M  END
>  <TORSDO>  (94) 
F 17

>  <SCORE>  (94) 
-16.395

>  <name>  (94) 
93

>  <ligand_id>  (94) 
93

>  <original_smiles>  (94) 
[H]c1c([H])c([H])c2c(c1[H])C([H])([H])C([H])([H])C([H])([H])C2([H])N([H])C(=O)C1([H])N(C(=O)C([H])(N([H])C(=O)C([H])(N([H])C([H])([H])[H])C([H])([H])[H])C(C([H])([H])[H])(C([H])([H])[H])C([H])([H])[H])C([H])([H])c2c([H])c(Oc3c([H])c([H])c(C([H])([H])C(=O)N4C([H])([H])C([H])([H])C([H])([H])C([H])(n5nc(-c6c([H])c([H])c(Oc7c([H])c([H])c(F)c([H])c7F)c([H])c6[H])c(C(=O)N([H])[H])c5N([H])[H])C4([H])[H])c(C([H])([H])[H])c3C([H])([H])[H])c([H])c([H])c2C1([H])[H]

>  <smiles>  (94) 
[H]c1c([H])c([H])c2c(c1[H])C([H])([H])C([H])([H])C([H])([H])C2([H])N([H])C(=O)C1([H])N(C(=O)C([H])(N([H])C(=O)C([H])(N([H])C([H])([H])[H])C([H])([H])[H])C(C([H])([H])[H])(C([H])([H])[H])C([H])([H])[H])C([H])([H])c2c([H])c(Oc3c([H])c([H])c(C([H])([H])C(=O)N4C([H])([H])C([H])([H])C([H])([H])C([H])(n5nc(-c6c([H])c([H])c(Oc7c([H])c([H])c(F)c([H])c7F)c([H])c6[H])c(C(=O)N([H])[H])c5N([H])[H])C4([H])[H])c(C([H])([H])[H])c3C([H])([H])[H])c([H])c([H])c2C1([H])[H]

$$$$
94:0:0
     RDKit          3D

 88 95  0  0  1  0  0  0  0  0999 V2000
  -27.9940  -21.4920   18.0310 C   0  0  0  0  0  3  0  0  0  0  0  0
  -29.0640  -21.7790   20.3830 C   0  0  0  0  0  3  0  0  0  0  0  0
  -28.4840  -20.2690   18.6270 C   0  0  0  0  0  0  0  0  0  0  0  0
  -29.1730  -20.1520   19.8370 C   0  0  0  0  0  3  0  0  0  0  0  0
  -28.0140  -22.8600   18.5300 C   0  0  0  0  0  0  0  0  0  0  0  0
  -28.4740  -23.2990   19.8250 C   0  0  0  0  0  0  0  0  0  0  0  0
  -28.1750  -18.8890   18.0790 C   0  0  0  0  0  2  0  0  0  0  0  0
  -28.1810  -17.8810   19.2690 C   0  0  0  0  0  2  0  0  0  0  0  0
  -29.4090  -18.1440   20.1920 C   0  0  0  0  0  2  0  0  0  0  0  0
  -27.5040  -23.8960   17.5450 C   0  0  0  0  0  1  0  0  0  0  0  0
  -29.0640  -18.0530   21.6890 C   0  0  0  0  0  1  0  0  0  0  0  0
  -30.3030  -16.2830   19.8910 C   0  0  0  0  0  2  0  0  0  0  0  0
  -30.5840  -13.5970   19.0980 C   0  0  0  0  0  2  0  0  0  0  0  0
  -29.6920  -12.9580   17.9700 C   0  0  0  0  0  2  0  0  0  0  0  0
  -28.3400  -12.4720   18.5100 C   0  0  0  0  0  2  0  0  0  0  0  0
  -27.8010  -13.4830   19.5360 C   0  0  0  0  0  3  0  0  0  0  0  0
  -28.8480  -13.9960   20.5690 C   0  0  0  0  0  2  0  0  0  0  0  0
  -29.9070  -14.7980   19.8580 N   0  0  0  0  0  0  0  0  0  0  0  0
  -31.5260  -16.1640   19.6150 O   0  0  0  0  0  1  0  0  0  0  0  0
  -25.5110  -13.9370   20.5030 C   0  0  0  0  0  0  0  0  0  0  0  0
  -24.4790  -13.1380   20.9000 C   0  0  0  0  0  0  0  0  0  0  0  0
  -24.9410  -11.7920   20.7640 C   0  0  0  0  0  0  0  0  0  0  0  0
  -26.5340  -13.0860   20.1380 N   0  0  0  0  0  0  0  0  0  0  0  0
  -26.2110  -11.7810   20.3550 N   0  0  0  0  0  0  0  0  0  0  0  0
  -24.2150  -10.5230   20.9410 C   0  0  0  0  0  0  0  0  0  0  0  0
  -24.6320   -9.5540   21.8780 C   0  0  0  0  0  3  0  0  0  0  0  0
  -23.9010   -8.3580   22.0500 C   0  0  0  0  0  3  0  0  0  0  0  0
  -22.7350   -8.1220   21.2830 C   0  0  0  0  0  0  0  0  0  0  0  0
  -22.3350   -9.0790   20.3350 C   0  0  0  0  0  3  0  0  0  0  0  0
  -23.0680  -10.2670   20.1620 C   0  0  0  0  0  3  0  0  0  0  0  0
  -21.9780   -6.9770   21.3620 O   0  0  0  0  0  0  0  0  0  0  0  0
  -21.8150   -6.3000   22.5440 C   0  0  0  0  0  0  0  0  0  0  0  0
  -21.2450   -6.9130   23.6800 C   0  0  0  0  0  3  0  0  0  0  0  0
  -21.0300   -6.1620   24.8530 C   0  0  0  0  0  3  0  0  0  0  0  0
  -21.3760   -4.7990   24.8900 C   0  0  0  0  0  0  0  0  0  0  0  0
  -21.9380   -4.1840   23.7580 C   0  0  0  0  0  3  0  0  0  0  0  0
  -22.1550   -4.9320   22.5870 C   0  0  0  0  0  0  0  0  0  0  0  0
  -22.6760   -4.3290   21.4920 F   0  0  0  0  0  0  0  0  0  0  0  0
  -21.1650   -4.0750   26.0140 F   0  0  0  0  0  0  0  0  0  0  0  0
  -23.1040  -13.6050   21.2840 C   0  0  0  0  0  0  0  0  0  0  0  0
  -22.4370  -12.8800   22.1730 N   0  0  0  0  0  0  0  0  0  0  0  0
  -22.6380  -14.6510   20.8330 O   0  0  0  0  0  0  0  0  0  0  0  0
  -22.8320  -12.0360   22.5590 H   0  0  0  0  0  0  0  0  0  0  0  0
  -21.5190  -13.1760   22.4740 H   0  0  0  0  0  0  0  0  0  0  0  0
  -25.6600  -15.3160   20.3850 N   0  0  0  0  0  0  0  0  0  0  0  0
  -24.9050  -15.9600   20.5960 H   0  0  0  0  0  0  0  0  0  0  0  0
  -26.4840  -15.7750   20.0240 H   0  0  0  0  0  0  0  0  0  0  0  0
  -28.3960  -25.0260   20.1480 O   0  0  0  0  0  0  0  0  0  0  0  0
  -24.9950  -31.7460   23.2060 C   0  0  0  0  0  0  0  0  0  0  0  0
  -27.4720  -26.4150   20.0990 C   0  0  0  0  0  0  0  0  0  0  0  0
  -23.8090  -30.3880   21.5410 C   0  0  0  0  0  3  0  0  0  0  0  0
  -25.2460  -28.6970   20.1000 C   0  0  0  0  0  0  0  0  0  0  0  0
  -26.4030  -30.4100   21.4570 C   0  0  0  0  0  2  0  0  0  0  0  0
  -26.4520  -28.9560   20.7620 C   0  0  0  0  0  0  0  0  0  0  0  0
  -27.5230  -27.8560   20.7250 C   0  0  0  0  0  3  0  0  0  0  0  0
  -26.2260  -26.4660   19.3870 C   0  0  0  0  0  3  0  0  0  0  0  0
  -25.1940  -27.4800   19.3900 C   0  0  0  0  0  3  0  0  0  0  0  0
  -24.0590  -29.6970   20.1640 C   0  0  0  0  0  2  0  0  0  0  0  0
  -25.0980  -30.8890   22.1210 N   0  0  0  0  0  0  0  0  0  0  0  0
  -23.8990  -32.0550   23.7070 O   0  0  0  0  0  0  0  0  0  0  0  0
  -23.0570  -29.4220   22.5000 C   0  0  0  0  0  0  0  0  0  0  0  0
  -21.7190  -29.2960   22.3750 N   0  0  0  0  0  0  0  0  0  0  0  0
  -23.6950  -28.7820   23.3380 O   0  0  0  0  0  0  0  0  0  0  0  0
  -21.2490  -29.8620   21.6820 H   0  0  0  0  0  0  0  0  0  0  0  0
  -18.3200  -28.0800   22.8650 C   0  0  0  0  0  0  0  0  0  0  0  0
  -20.8820  -28.3490   23.1280 C   0  0  0  0  0  3  0  0  0  0  0  0
  -20.9820  -26.9260   22.5270 C   0  0  0  0  0  2  0  0  0  0  0  0
  -19.8800  -26.6260   21.5050 C   0  0  0  0  0  2  0  0  0  0  0  0
  -18.4980  -26.7500   22.1510 C   0  0  0  0  0  2  0  0  0  0  0  0
  -19.4380  -28.8380   23.3080 C   0  0  0  0  0  0  0  0  0  0  0  0
  -19.2100  -30.0770   23.9440 C   0  0  0  0  0  3  0  0  0  0  0  0
  -17.9020  -30.5610   24.1360 C   0  0  0  0  0  3  0  0  0  0  0  0
  -16.8010  -29.8030   23.7030 C   0  0  0  0  0  3  0  0  0  0  0  0
  -17.0110  -28.5620   23.0750 C   0  0  0  0  0  3  0  0  0  0  0  0
  -26.2470  -32.3920   23.8770 C   0  0  0  0  0  3  0  0  0  0  0  0
  -25.9190  -33.7880   24.2510 N   0  0  0  0  0  0  0  0  0  0  0  0
  -26.2230  -34.8800   23.5360 C   0  0  0  0  0  0  0  0  0  0  0  0
  -26.8550  -34.8200   22.4790 O   0  0  0  0  0  0  0  0  0  0  0  0
  -25.3480  -33.9050   25.0750 H   0  0  0  0  0  0  0  0  0  0  0  0
  -24.4600  -36.6780   23.3570 C   0  0  0  0  0  1  0  0  0  0  0  0
  -25.7570  -36.2540   24.0690 C   0  0  0  0  0  3  0  0  0  0  0  0
  -27.9280  -37.1530   24.7890 C   0  0  0  0  0  1  0  0  0  0  0  0
  -26.7680  -37.3240   23.9180 N   0  0  0  0  0  0  0  0  0  0  0  0
  -26.3610  -38.2360   24.1100 H   0  0  0  0  0  0  0  0  0  0  0  0
  -26.7280  -31.6100   25.1630 C   0  0  1  0  0  0  0  0  0  0  0  0
  -25.6100  -31.3750   26.2080 C   0  0  0  0  0  1  0  0  0  0  0  0
  -27.3080  -30.2280   24.7910 C   0  0  0  0  0  1  0  0  0  0  0  0
  -27.8740  -32.3890   25.8530 C   0  0  0  0  0  1  0  0  0  0  0  0
  1  5  2  0
  1  3  1  0
  3  4  2  0
  4  2  1  0
  5  6  1  0
  6 48  1  0
  6  2  2  0
  7  3  1  0
  7  8  1  0
  8  9  1  0
  9 11  1  0
 10  5  1  0
 13 18  1  0
 14 15  1  0
 14 13  1  0
 16 15  1  0
 16 23  1  0
 16 17  1  0
 18 12  1  0
 18 17  1  0
 19 12  1  0
 20 21  2  0
 21 40  1  0
 22 21  1  0
 22 25  1  0
 23 24  1  0
 23 20  1  0
 24 22  2  0
 25 26  1  0
 26 27  2  0
 28 31  1  0
 28 27  1  0
 29 28  2  0
 30 29  1  0
 30 25  2  0
 31 32  1  0
 32 37  2  0
 32 33  1  0
 33 34  2  0
 34 35  1  0
 35 39  1  0
 36 35  2  0
 37 36  1  0
 38 37  1  0
 40 41  1  0
 41 44  1  0
 41 43  1  0
 42 40  2  0
 45 20  1  0
 45 46  1  0
 47 45  1  0
 49 60  2  0
 50 48  1  0
 50 55  1  0
 51 59  1  0
 51 61  1  0
 52 58  1  0
 52 54  1  0
 53 59  1  0
 54 53  1  0
 55 54  2  0
 56 57  1  0
 56 50  2  0
 57 52  2  0
 58 51  1  0
 59 49  1  0
 61 63  2  0
 62 61  1  0
 64 62  1  0
 65 74  2  0
 65 70  1  0
 66 62  1  0
 66 70  1  0
 67 66  1  0
 68 69  1  0
 68 67  1  0
 69 65  1  0
 70 71  2  0
 71 72  1  0
 73 72  2  0
 74 73  1  0
 75 49  1  0
 75 76  1  0
 75 85  1  0
 76 79  1  0
 77 81  1  0
 77 76  1  0
 78 77  2  0
 81 80  1  0
 83 81  1  0
 83 84  1  0
 83 82  1  0
 85 88  1  1
 85 86  1  0
 87 85  1  0
M  ISO  4   6 101   9 100  12 100  48 101
M  END
>  <TORSDO>  (95) 
F 16

>  <SCORE>  (95) 
-15.232

>  <name>  (95) 
94

>  <ligand_id>  (95) 
94

>  <original_smiles>  (95) 
[H]c1c([H])c([H])c2c(c1[H])C([H])([H])C([H])([H])C([H])([H])C2([H])N([H])C(=O)C1([H])N(C(=O)C([H])(N([H])C(=O)C([H])(N([H])C([H])([H])[H])C([H])([H])[H])C(C([H])([H])[H])(C([H])([H])[H])C([H])([H])[H])C([H])([H])c2c([H])c(Oc3c([H])c4c(c([H])c3C([H])([H])[H])C([H])([H])C([H])([H])C4(C(=O)N3C([H])([H])C([H])([H])C([H])([H])C([H])(n4nc(-c5c([H])c([H])c(Oc6c([H])c([H])c(F)c([H])c6F)c([H])c5[H])c(C(=O)N([H])[H])c4N([H])[H])C3([H])[H])C([H])([H])[H])c([H])c([H])c2C1([H])[H]

>  <smiles>  (95) 
[H]c1c([H])c([H])c2c(c1[H])C([H])([H])C([H])([H])C([H])([H])C2([H])N([H])C(=O)C1([H])N(C(=O)C([H])(N([H])C(=O)C([H])(N([H])C([H])([H])[H])C([H])([H])[H])C(C([H])([H])[H])(C([H])([H])[H])C([H])([H])[H])C([H])([H])c2c([H])c(Oc3c([H])c4c(c([H])c3C([H])([H])[H])C([H])([H])C([H])([H])C4(C(=O)N3C([H])([H])C([H])([H])C([H])([H])C([H])(n4nc(-c5c([H])c([H])c(Oc6c([H])c([H])c(F)c([H])c6F)c([H])c5[H])c(C(=O)N([H])[H])c4N([H])[H])C3([H])[H])C([H])([H])[H])c([H])c([H])c2C1([H])[H]

$$$$
95:0:0
     RDKit          3D

 90 99  0  0  1  0  0  0  0  0999 V2000
  -28.5540  -21.3630   20.4680 C   0  0  0  0  0  3  0  0  0  0  0  0
  -30.4850  -20.3400   18.8710 C   0  0  0  0  0  3  0  0  0  0  0  0
  -28.8980  -19.8890   20.3940 C   0  0  0  0  0  0  0  0  0  0  0  0
  -29.9000  -19.1670   19.5710 C   0  0  0  0  0  0  0  0  0  0  0  0
  -30.1400  -21.8270   18.9440 C   0  0  0  0  0  0  0  0  0  0  0  0
  -29.0960  -22.5260   19.7460 C   0  0  0  0  0  0  0  0  0  0  0  0
  -27.9950  -18.9870   21.2020 C   0  0  0  0  0  2  0  0  0  0  0  0
  -27.5420  -17.8060   20.3500 C   0  0  0  0  0  2  0  0  0  0  0  0
  -28.6880  -16.8340   20.0380 C   0  0  0  0  0  2  0  0  0  0  0  0
  -29.9220  -17.3470   19.2400 C   0  0  1  0  0  0  0  0  0  0  0  0
  -30.9390  -22.7170   18.0060 C   0  0  0  0  0  1  0  0  0  0  0  0
  -29.5680  -17.3820   17.7320 C   0  0  0  0  0  1  0  0  0  0  0  0
  -30.9690  -15.8100   19.2690 C   0  0  0  0  0  0  0  0  0  0  0  0
  -31.1270  -13.2280   18.6660 C   0  0  0  0  0  2  0  0  0  0  0  0
  -30.1030  -12.7660   17.5850 C   0  0  0  0  0  2  0  0  0  0  0  0
  -28.7220  -12.4450   18.1910 C   0  0  0  0  0  2  0  0  0  0  0  0
  -28.3230  -13.4770   19.2720 C   0  0  0  0  0  3  0  0  0  0  0  0
  -29.4860  -13.7860   20.2430 C   0  0  0  0  0  2  0  0  0  0  0  0
  -30.5740  -14.4140   19.4430 N   0  0  0  0  0  0  0  0  0  0  0  0
  -32.1680  -15.8390   18.9350 O   0  0  0  0  0  0  0  0  0  0  0  0
  -26.1130  -14.0500   20.4100 C   0  0  0  0  0  0  0  0  0  0  0  0
  -25.0730  -13.2860   20.8560 C   0  0  0  0  0  0  0  0  0  0  0  0
  -25.4520  -11.9300   20.6210 C   0  0  0  0  0  0  0  0  0  0  0  0
  -27.0650  -13.1620   19.9390 N   0  0  0  0  0  0  0  0  0  0  0  0
  -26.6860  -11.8710   20.1250 N   0  0  0  0  0  0  0  0  0  0  0  0
  -24.6830  -10.6900   20.7890 C   0  0  0  0  0  0  0  0  0  0  0  0
  -25.0730   -9.6980   21.7150 C   0  0  0  0  0  3  0  0  0  0  0  0
  -24.3010   -8.5260   21.8740 C   0  0  0  0  0  3  0  0  0  0  0  0
  -23.1270   -8.3410   21.1070 C   0  0  0  0  0  0  0  0  0  0  0  0
  -22.7550   -9.3220   20.1710 C   0  0  0  0  0  3  0  0  0  0  0  0
  -23.5280  -10.4830   20.0080 C   0  0  0  0  0  3  0  0  0  0  0  0
  -22.3330   -7.2210   21.1760 O   0  0  0  0  0  0  0  0  0  0  0  0
  -22.0820   -6.5910   22.3680 C   0  0  0  0  0  0  0  0  0  0  0  0
  -21.4810   -7.2660   23.4540 C   0  0  0  0  0  3  0  0  0  0  0  0
  -21.1730   -6.5640   24.6360 C   0  0  0  0  0  3  0  0  0  0  0  0
  -21.4570   -5.1900   24.7330 C   0  0  0  0  0  0  0  0  0  0  0  0
  -22.0510   -4.5140   23.6530 C   0  0  0  0  0  3  0  0  0  0  0  0
  -22.3600   -5.2130   22.4730 C   0  0  0  0  0  0  0  0  0  0  0  0
  -22.9130   -4.5530   21.4280 F   0  0  0  0  0  0  0  0  0  0  0  0
  -21.1540   -4.5150   25.8670 F   0  0  0  0  0  0  0  0  0  0  0  0
  -23.7610  -13.7960   21.3740 C   0  0  0  0  0  0  0  0  0  0  0  0
  -23.1390  -13.0600   22.2890 N   0  0  0  0  0  0  0  0  0  0  0  0
  -23.3080  -14.8810   21.0090 O   0  0  0  0  0  0  0  0  0  0  0  0
  -23.5310  -12.1900   22.6130 H   0  0  0  0  0  0  0  0  0  0  0  0
  -22.2600  -13.3760   22.6740 H   0  0  0  0  0  0  0  0  0  0  0  0
  -26.3080  -15.4240   20.3400 N   0  0  0  0  0  0  0  0  0  0  0  0
  -25.6110  -16.0840   20.6680 H   0  0  0  0  0  0  0  0  0  0  0  0
  -27.1170  -15.8720   19.9330 H   0  0  0  0  0  0  0  0  0  0  0  0
  -28.3520  -24.1890   19.5660 C   0  0  0  0  0  2  0  0  0  0  0  0
  -28.5130  -25.8040   20.0990 O   0  0  0  0  0  0  0  0  0  0  0  0
  -24.7960  -31.7530   23.2330 C   0  0  0  0  0  0  0  0  0  0  0  0
  -27.4970  -26.9470   20.0600 C   0  0  0  0  0  0  0  0  0  0  0  0
  -23.6480  -30.3660   21.5550 C   0  0  0  0  0  3  0  0  0  0  0  0
  -25.1460  -28.8360   20.0790 C   0  0  0  0  0  0  0  0  0  0  0  0
  -26.2150  -30.6300   21.4220 C   0  0  0  0  0  2  0  0  0  0  0  0
  -26.3260  -29.2330   20.7190 C   0  0  0  0  0  0  0  0  0  0  0  0
  -27.4870  -28.3130   20.6810 C   0  0  0  0  0  3  0  0  0  0  0  0
  -26.2750  -26.7380   19.3740 C   0  0  0  0  0  3  0  0  0  0  0  0
  -25.1520  -27.6140   19.3850 C   0  0  0  0  0  3  0  0  0  0  0  0
  -23.9030  -29.7300   20.1600 C   0  0  0  0  0  2  0  0  0  0  0  0
  -24.9080  -30.9460   22.1250 N   0  0  0  0  0  0  0  0  0  0  0  0
  -23.6960  -31.9980   23.7560 O   0  0  0  0  0  0  0  0  0  0  0  0
  -22.9740  -29.3310   22.4950 C   0  0  0  0  0  0  0  0  0  0  0  0
  -21.6590  -29.0910   22.3250 N   0  0  0  0  0  0  0  0  0  0  0  0
  -23.6440  -28.7450   23.3490 O   0  0  0  0  0  0  0  0  0  0  0  0
  -21.1670  -29.6180   21.6170 H   0  0  0  0  0  0  0  0  0  0  0  0
  -18.3480  -27.6430   22.6990 C   0  0  0  0  0  0  0  0  0  0  0  0
  -20.8700  -28.0980   23.0630 C   0  0  0  0  0  3  0  0  0  0  0  0
  -21.0980  -26.6760   22.4970 C   0  0  0  0  0  2  0  0  0  0  0  0
  -20.0630  -26.2740   21.4400 C   0  0  0  0  0  2  0  0  0  0  0  0
  -18.6500  -26.3150   22.0280 C   0  0  0  0  0  2  0  0  0  0  0  0
  -19.3890  -28.4870   23.1710 C   0  0  0  0  0  0  0  0  0  0  0  0
  -19.0480  -29.7230   23.7610 C   0  0  0  0  0  3  0  0  0  0  0  0
  -17.7030  -30.1190   23.8820 C   0  0  0  0  0  3  0  0  0  0  0  0
  -16.6770  -29.2750   23.4240 C   0  0  0  0  0  3  0  0  0  0  0  0
  -17.0010  -28.0380   22.8370 C   0  0  0  0  0  3  0  0  0  0  0  0
  -26.0420  -32.4180   23.8930 C   0  0  0  0  0  3  0  0  0  0  0  0
  -25.6980  -33.8160   24.2160 N   0  0  0  0  0  0  0  0  0  0  0  0
  -26.0000  -34.8780   23.4570 C   0  0  0  0  0  0  0  0  0  0  0  0
  -26.6550  -34.7860   22.4160 O   0  0  0  0  0  0  0  0  0  0  0  0
  -25.1140  -33.9620   25.0270 H   0  0  0  0  0  0  0  0  0  0  0  0
  -24.2350  -36.6480   23.1420 C   0  0  0  0  0  1  0  0  0  0  0  0
  -25.5000  -36.2620   23.9250 C   0  0  0  0  0  3  0  0  0  0  0  0
  -27.6320  -37.1950   24.7150 C   0  0  0  0  0  1  0  0  0  0  0  0
  -26.5120  -37.3330   23.7880 N   0  0  0  0  0  0  0  0  0  0  0  0
  -26.0900  -38.2480   23.9330 H   0  0  0  0  0  0  0  0  0  0  0  0
  -26.5290  -31.6690   25.1940 C   0  0  1  0  0  0  0  0  0  0  0  0
  -25.4040  -31.4080   26.2250 C   0  0  0  0  0  1  0  0  0  0  0  0
  -27.1600  -30.3040   24.8430 C   0  0  0  0  0  1  0  0  0  0  0  0
  -27.6360  -32.4970   25.8900 C   0  0  0  0  0  1  0  0  0  0  0  0
  2  5  2  0
  2  4  1  0
  3  1  1  0
  3  7  1  0
  4  3  2  0
  5  6  1  0
  6  1  2  0
  8  7  1  0
  9  8  1  0
 10 12  1  6
 10 13  1  0
 10  4  1  0
 10  9  1  0
 11  5  1  0
 13 19  1  0
 14 19  1  0
 15 16  1  0
 15 14  1  0
 17 16  1  0
 17 24  1  0
 17 18  1  0
 19 18  1  0
 20 13  2  0
 21 22  2  0
 22 41  1  0
 23 26  1  0
 23 22  1  0
 24 25  1  0
 24 21  1  0
 25 23  2  0
 26 27  1  0
 27 28  2  0
 29 32  1  0
 29 28  1  0
 30 29  2  0
 31 30  1  0
 31 26  2  0
 32 33  1  0
 33 38  2  0
 33 34  1  0
 34 35  2  0
 35 36  1  0
 36 40  1  0
 37 36  2  0
 38 37  1  0
 39 38  1  0
 41 42  1  0
 42 44  1  0
 42 45  1  0
 43 41  2  0
 46 21  1  0
 46 47  1  0
 48 46  1  0
 49  6  1  0
 49 50  1  0
 51 62  2  0
 52 50  1  0
 52 57  1  0
 53 61  1  0
 53 63  1  0
 54 60  1  0
 54 56  1  0
 55 61  1  0
 56 55  1  0
 57 56  2  0
 58 59  1  0
 58 52  2  0
 59 54  2  0
 60 53  1  0
 61 51  1  0
 63 65  2  0
 64 63  1  0
 66 64  1  0
 67 76  2  0
 67 72  1  0
 68 64  1  0
 68 72  1  0
 69 68  1  0
 70 71  1  0
 70 69  1  0
 71 67  1  0
 72 73  2  0
 73 74  1  0
 75 74  2  0
 76 75  1  0
 77 51  1  0
 77 78  1  0
 77 87  1  0
 78 81  1  0
 79 83  1  0
 79 78  1  0
 80 79  2  0
 83 82  1  0
 85 83  1  0
 85 86  1  0
 85 84  1  0
 87 90  1  1
 87 88  1  0
 89 87  1  0
M  ISO  4  10 100  13 100  49 101  50 101
M  END
>  <TORSDO>  (96) 
F 17

>  <SCORE>  (96) 
-13.345

>  <name>  (96) 
95

>  <ligand_id>  (96) 
95

>  <original_smiles>  (96) 
[H]c1c([H])c([H])c2c(c1[H])C([H])([H])C([H])([H])C([H])([H])C2([H])N([H])C(=O)C1([H])N(C(=O)C([H])(N([H])C(=O)C([H])(N([H])C([H])([H])[H])C([H])([H])[H])C(C([H])([H])[H])(C([H])([H])[H])C([H])([H])[H])C([H])([H])c2c([H])c(OC([H])([H])c3c([H])c4c(c([H])c3C([H])([H])[H])C(C(=O)N3C([H])([H])C([H])([H])C([H])([H])C([H])(n5nc(-c6c([H])c([H])c(Oc7c([H])c([H])c(F)c([H])c7F)c([H])c6[H])c(C(=O)N([H])[H])c5N([H])[H])C3([H])[H])(C([H])([H])[H])C([H])([H])C([H])([H])C4([H])[H])c([H])c([H])c2C1([H])[H]

>  <smiles>  (96) 
[H]c1c([H])c([H])c2c(c1[H])C([H])([H])C([H])([H])C([H])([H])C2([H])N([H])C(=O)C1([H])N(C(=O)C([H])(N([H])C(=O)C([H])(N([H])C([H])([H])[H])C([H])([H])[H])C(C([H])([H])[H])(C([H])([H])[H])C([H])([H])[H])C([H])([H])c2c([H])c(OC([H])([H])c3c([H])c4c(c([H])c3C([H])([H])[H])C(C(=O)N3C([H])([H])C([H])([H])C([H])([H])C([H])(n5nc(-c6c([H])c([H])c(Oc7c([H])c([H])c(F)c([H])c7F)c([H])c6[H])c(C(=O)N([H])[H])c5N([H])[H])C3([H])[H])(C([H])([H])[H])C([H])([H])C([H])([H])C4([H])[H])c([H])c([H])c2C1([H])[H]

$$$$
96:0:0
     RDKit          3D

 90 99  0  0  1  0  0  0  0  0999 V2000
  -26.2580  -22.4670   21.2770 C   0  0  0  0  0  2  0  0  0  0  0  0
  -26.3180  -23.8860   21.8670 C   0  0  0  0  0  2  0  0  0  0  0  0
  -27.5610  -21.6450   21.3710 C   0  0  0  0  0  2  0  0  0  0  0  0
  -27.5450  -24.7380   21.4980 C   0  0  0  0  0  2  0  0  0  0  0  0
  -28.8970  -23.2950   19.7860 C   0  0  0  0  0  2  0  0  0  0  0  0
  -28.4000  -21.6470   20.0750 C   0  0  0  0  0  3  0  0  0  0  0  0
  -27.9300  -24.7460   20.0020 C   0  0  0  0  0  3  0  0  0  0  0  0
  -30.7920  -18.1880   20.6150 C   0  0  0  0  0  3  0  0  0  0  0  0
  -28.8860  -17.5280   19.4720 C   0  0  0  0  0  3  0  0  0  0  0  0
  -30.3520  -19.6000   20.5880 C   0  0  0  0  0  3  0  0  0  0  0  0
  -28.4530  -18.9370   19.4360 C   0  0  0  0  0  3  0  0  0  0  0  0
  -30.0920  -17.0230   20.0880 C   0  0  0  0  0  0  0  0  0  0  0  0
  -29.1360  -20.1010   19.9830 C   0  0  0  0  0  0  0  0  0  0  0  0
  -30.7360  -15.5030   19.9810 C   0  0  0  0  0  0  0  0  0  0  0  0
  -30.6270  -13.0750   19.1730 C   0  0  0  0  0  2  0  0  0  0  0  0
  -29.6710  -12.8990   17.9700 C   0  0  0  0  0  2  0  0  0  0  0  0
  -28.2380  -12.6360   18.4610 C   0  0  0  0  0  2  0  0  0  0  0  0
  -27.8220  -13.6100   19.5920 C   0  0  0  0  0  3  0  0  0  0  0  0
  -28.9050  -13.7860   20.6750 C   0  0  0  0  0  2  0  0  0  0  0  0
  -30.1310  -14.2280   20.0010 N   0  0  0  0  0  0  0  0  0  0  0  0
  -31.9460  -15.4630   19.7220 O   0  0  0  0  0  0  0  0  0  0  0  0
  -25.4960  -14.1400   20.4970 C   0  0  0  0  0  0  0  0  0  0  0  0
  -24.4530  -13.3480   20.8880 C   0  0  0  0  0  0  0  0  0  0  0  0
  -24.9170  -12.0010   20.7800 C   0  0  0  0  0  0  0  0  0  0  0  0
  -26.5220  -13.2760   20.1610 N   0  0  0  0  0  0  0  0  0  0  0  0
  -26.1900  -11.9810   20.4030 N   0  0  0  0  0  0  0  0  0  0  0  0
  -24.2000  -10.7310   20.9590 C   0  0  0  0  0  0  0  0  0  0  0  0
  -24.6170   -9.7700   21.9070 C   0  0  0  0  0  3  0  0  0  0  0  0
  -23.8960   -8.5680   22.0730 C   0  0  0  0  0  3  0  0  0  0  0  0
  -22.7440   -8.3170   21.2900 C   0  0  0  0  0  0  0  0  0  0  0  0
  -22.3460   -9.2660   20.3320 C   0  0  0  0  0  3  0  0  0  0  0  0
  -23.0680  -10.4590   20.1640 C   0  0  0  0  0  3  0  0  0  0  0  0
  -21.9970   -7.1650   21.3650 O   0  0  0  0  0  0  0  0  0  0  0  0
  -21.8370   -6.4870   22.5460 C   0  0  0  0  0  0  0  0  0  0  0  0
  -21.2530   -7.0910   23.6800 C   0  0  0  0  0  3  0  0  0  0  0  0
  -21.0430   -6.3360   24.8510 C   0  0  0  0  0  3  0  0  0  0  0  0
  -21.4080   -4.9770   24.8880 C   0  0  0  0  0  0  0  0  0  0  0  0
  -21.9860   -4.3720   23.7580 C   0  0  0  0  0  3  0  0  0  0  0  0
  -22.1960   -5.1250   22.5890 C   0  0  0  0  0  0  0  0  0  0  0  0
  -22.7330   -4.5300   21.4960 F   0  0  0  0  0  0  0  0  0  0  0  0
  -21.2010   -4.2490   26.0110 F   0  0  0  0  0  0  0  0  0  0  0  0
  -23.0720  -13.8130   21.2450 C   0  0  0  0  0  0  0  0  0  0  0  0
  -22.3930  -13.0930   22.1290 N   0  0  0  0  0  0  0  0  0  0  0  0
  -22.6080  -14.8510   20.7760 O   0  0  0  0  0  0  0  0  0  0  0  0
  -22.7840  -12.2520   22.5290 H   0  0  0  0  0  0  0  0  0  0  0  0
  -21.4680  -13.3860   22.4110 H   0  0  0  0  0  0  0  0  0  0  0  0
  -25.6520  -15.5170   20.3710 N   0  0  0  0  0  0  0  0  0  0  0  0
  -24.8980  -16.1670   20.5710 H   0  0  0  0  0  0  0  0  0  0  0  0
  -26.5030  -15.9770   20.0760 H   0  0  0  0  0  0  0  0  0  0  0  0
  -28.2010  -26.3110   19.7280 O   0  0  0  0  0  0  0  0  0  0  0  0
  -24.7010  -31.9560   23.1620 C   0  0  0  0  0  0  0  0  0  0  0  0
  -27.1660  -27.3550   19.7790 C   0  0  0  0  0  0  0  0  0  0  0  0
  -23.4460  -30.6420   21.5000 C   0  0  0  0  0  3  0  0  0  0  0  0
  -24.8440  -29.1490   19.9320 C   0  0  0  0  0  0  0  0  0  0  0  0
  -25.9970  -30.9120   21.2520 C   0  0  0  0  0  2  0  0  0  0  0  0
  -26.0510  -29.5500   20.5190 C   0  0  0  0  0  0  0  0  0  0  0  0
  -27.2110  -28.6730   20.4210 C   0  0  0  0  0  3  0  0  0  0  0  0
  -25.9290  -27.0880   19.1520 C   0  0  0  0  0  3  0  0  0  0  0  0
  -24.8010  -27.9370   19.2300 C   0  0  0  0  0  3  0  0  0  0  0  0
  -23.6180  -30.0430   20.0790 C   0  0  0  0  0  2  0  0  0  0  0  0
  -24.7370  -31.1920   22.0250 N   0  0  0  0  0  0  0  0  0  0  0  0
  -23.6330  -32.2050   23.7450 O   0  0  0  0  0  0  0  0  0  0  0  0
  -22.8070  -29.5820   22.4330 C   0  0  0  0  0  0  0  0  0  0  0  0
  -21.4820  -29.3750   22.3190 N   0  0  0  0  0  0  0  0  0  0  0  0
  -23.5070  -28.9490   23.2270 O   0  0  0  0  0  0  0  0  0  0  0  0
  -20.9690  -29.9410   21.6560 H   0  0  0  0  0  0  0  0  0  0  0  0
  -18.1500  -28.0340   22.8180 C   0  0  0  0  0  0  0  0  0  0  0  0
  -20.7020  -28.3830   23.0650 C   0  0  0  0  0  3  0  0  0  0  0  0
  -20.8490  -26.9760   22.4410 C   0  0  0  0  0  2  0  0  0  0  0  0
  -19.7470  -26.6480   21.4280 C   0  0  0  0  0  2  0  0  0  0  0  0
  -18.3680  -26.7180   22.0910 C   0  0  0  0  0  2  0  0  0  0  0  0
  -19.2450  -28.8240   23.2610 C   0  0  0  0  0  0  0  0  0  0  0  0
  -18.9860  -30.0530   23.9040 C   0  0  0  0  0  3  0  0  0  0  0  0
  -17.6650  -30.4970   24.1050 C   0  0  0  0  0  3  0  0  0  0  0  0
  -16.5850  -29.7050   23.6760 C   0  0  0  0  0  3  0  0  0  0  0  0
  -16.8290  -28.4750   23.0390 C   0  0  0  0  0  3  0  0  0  0  0  0
  -25.9960  -32.5720   23.7720 C   0  0  0  0  0  3  0  0  0  0  0  0
  -25.6990  -33.9640   24.1490 N   0  0  0  0  0  0  0  0  0  0  0  0
  -25.9990  -35.0390   23.4080 C   0  0  0  0  0  0  0  0  0  0  0  0
  -26.6200  -34.9620   22.3450 O   0  0  0  0  0  0  0  0  0  0  0  0
  -25.1420  -34.0970   24.9800 H   0  0  0  0  0  0  0  0  0  0  0  0
  -24.2510  -36.8410   23.2020 C   0  0  0  0  0  1  0  0  0  0  0  0
  -25.5400  -36.4180   23.9270 C   0  0  0  0  0  3  0  0  0  0  0  0
  -27.7160  -37.2950   24.6520 C   0  0  0  0  0  1  0  0  0  0  0  0
  -26.5630  -37.4750   23.7750 N   0  0  0  0  0  0  0  0  0  0  0  0
  -26.1640  -38.3910   23.9600 H   0  0  0  0  0  0  0  0  0  0  0  0
  -26.5310  -31.7710   25.0240 C   0  0  1  0  0  0  0  0  0  0  0  0
  -25.4580  -31.5230   26.1100 C   0  0  0  0  0  1  0  0  0  0  0  0
  -27.0930  -30.3950   24.5990 C   0  0  0  0  0  1  0  0  0  0  0  0
  -27.7030  -32.5420   25.6760 C   0  0  0  0  0  1  0  0  0  0  0  0
  1  3  1  0
  1  2  1  0
  4  2  1  0
  5  7  1  0
  5  6  1  0
  6 13  1  0
  6  3  1  0
  7 50  1  0
  7  4  1  0
  9 12  1  0
 10  8  1  0
 11  9  2  0
 11 13  1  0
 12  8  2  0
 13 10  2  0
 14 20  1  0
 14 12  1  0
 15 20  1  0
 16 17  1  0
 16 15  1  0
 18 17  1  0
 18 25  1  0
 18 19  1  0
 20 19  1  0
 21 14  2  0
 22 23  2  0
 23 42  1  0
 24 23  1  0
 24 27  1  0
 25 26  1  0
 25 22  1  0
 26 24  2  0
 27 28  1  0
 28 29  2  0
 30 33  1  0
 30 29  1  0
 31 30  2  0
 32 31  1  0
 32 27  2  0
 33 34  1  0
 34 39  2  0
 34 35  1  0
 35 36  2  0
 36 37  1  0
 37 41  1  0
 38 37  2  0
 39 38  1  0
 40 39  1  0
 42 43  1  0
 43 46  1  0
 43 45  1  0
 44 42  2  0
 47 22  1  0
 47 48  1  0
 49 47  1  0
 50 52  1  0
 51 62  2  0
 52 57  1  0
 53 61  1  0
 53 63  1  0
 54 60  1  0
 54 56  1  0
 55 61  1  0
 56 55  1  0
 57 56  2  0
 58 59  1  0
 58 52  2  0
 59 54  2  0
 60 53  1  0
 61 51  1  0
 63 65  2  0
 64 63  1  0
 66 64  1  0
 67 76  2  0
 67 72  1  0
 68 64  1  0
 68 72  1  0
 69 68  1  0
 70 71  1  0
 70 69  1  0
 71 67  1  0
 72 73  2  0
 73 74  1  0
 75 74  2  0
 76 75  1  0
 77 51  1  0
 77 78  1  0
 77 87  1  0
 78 81  1  0
 79 83  1  0
 79 78  1  0
 80 79  2  0
 83 82  1  0
 85 83  1  0
 85 86  1  0
 85 84  1  0
 87 90  1  1
 87 88  1  0
 89 87  1  0
M  ISO  4   7 101  12 100  14 100  50 101
M  END
>  <TORSDO>  (97) 
F 17

>  <SCORE>  (97) 
-14.274

>  <name>  (97) 
96

>  <ligand_id>  (97) 
96

>  <original_smiles>  (97) 
[H]c1c([H])c([H])c2c(c1[H])C([H])([H])C([H])([H])C([H])([H])C2([H])N([H])C(=O)C1([H])N(C(=O)C([H])(N([H])C(=O)C([H])(N([H])C([H])([H])[H])C([H])([H])[H])C(C([H])([H])[H])(C([H])([H])[H])C([H])([H])[H])C([H])([H])c2c([H])c(OC3([H])C([H])([H])C([H])([H])C([H])([H])C([H])([H])C([H])(c4c([H])c([H])c(C(=O)N5C([H])([H])C([H])([H])C([H])([H])C([H])(n6nc(-c7c([H])c([H])c(Oc8c([H])c([H])c(F)c([H])c8F)c([H])c7[H])c(C(=O)N([H])[H])c6N([H])[H])C5([H])[H])c([H])c4[H])C3([H])[H])c([H])c([H])c2C1([H])[H]

>  <smiles>  (97) 
[H]c1c([H])c([H])c2c(c1[H])C([H])([H])C([H])([H])C([H])([H])C2([H])N([H])C(=O)C1([H])N(C(=O)C([H])(N([H])C(=O)C([H])(N([H])C([H])([H])[H])C([H])([H])[H])C(C([H])([H])[H])(C([H])([H])[H])C([H])([H])[H])C([H])([H])c2c([H])c(OC3([H])C([H])([H])C([H])([H])C([H])([H])C([H])([H])C([H])(c4c([H])c([H])c(C(=O)N5C([H])([H])C([H])([H])C([H])([H])C([H])(n6nc(-c7c([H])c([H])c(Oc8c([H])c([H])c(F)c([H])c8F)c([H])c7[H])c(C(=O)N([H])[H])c6N([H])[H])C5([H])[H])c([H])c4[H])C3([H])[H])c([H])c([H])c2C1([H])[H]

$$$$
97:0:0
     RDKit          3D

 94102  0  0  1  0  0  0  0  0999 V2000
  -29.5600  -19.0110   20.0030 C   0  0  0  0  0  3  0  0  0  0  0  0
  -28.8790  -20.5400   20.5430 N   0  0  0  0  0  4  0  0  0  0  0  0
  -27.8860  -20.3600   20.5330 H   0  0  0  0  0  0  0  0  0  0  0  0
  -29.1150  -20.5690   21.5220 H   0  0  0  0  0  0  0  0  0  0  0  0
  -28.9990  -22.2240   20.0650 C   0  0  0  0  0  3  0  0  0  0  0  0
  -28.0320  -23.8500   20.3830 C   0  0  0  0  0  3  0  0  0  0  0  0
  -28.1940  -25.5860   20.2550 O   0  0  0  0  0  0  0  0  0  0  0  0
  -24.6040  -31.8030   23.1480 C   0  0  0  0  0  0  0  0  0  0  0  0
  -27.1910  -26.7560   20.2230 C   0  0  0  0  0  0  0  0  0  0  0  0
  -23.4390  -30.3910   21.5070 C   0  0  0  0  0  3  0  0  0  0  0  0
  -24.9060  -28.7460   20.1240 C   0  0  0  0  0  0  0  0  0  0  0  0
  -26.0160  -30.5580   21.4080 C   0  0  0  0  0  2  0  0  0  0  0  0
  -26.0930  -29.1250   20.7630 C   0  0  0  0  0  0  0  0  0  0  0  0
  -27.2210  -28.1590   20.7780 C   0  0  0  0  0  3  0  0  0  0  0  0
  -25.9660  -26.5740   19.5320 C   0  0  0  0  0  3  0  0  0  0  0  0
  -24.8800  -27.4940   19.4870 C   0  0  0  0  0  3  0  0  0  0  0  0
  -23.6950  -29.6880   20.1420 C   0  0  0  0  0  2  0  0  0  0  0  0
  -24.7100  -30.9500   22.0730 N   0  0  0  0  0  0  0  0  0  0  0  0
  -23.5050  -32.0960   23.6480 O   0  0  0  0  0  0  0  0  0  0  0  0
  -22.7210  -29.4160   22.4780 C   0  0  0  0  0  0  0  0  0  0  0  0
  -21.3870  -29.2730   22.3610 N   0  0  0  0  0  0  0  0  0  0  0  0
  -23.3770  -28.7830   23.3090 O   0  0  0  0  0  0  0  0  0  0  0  0
  -20.9060  -29.8350   21.6730 H   0  0  0  0  0  0  0  0  0  0  0  0
  -17.9880  -28.1160   22.9090 C   0  0  0  0  0  0  0  0  0  0  0  0
  -20.5550  -28.3420   23.1350 C   0  0  0  0  0  3  0  0  0  0  0  0
  -20.6260  -26.9130   22.5460 C   0  0  0  0  0  2  0  0  0  0  0  0
  -19.5040  -26.6170   21.5450 C   0  0  0  0  0  2  0  0  0  0  0  0
  -18.1330  -26.7750   22.2090 C   0  0  0  0  0  2  0  0  0  0  0  0
  -19.1240  -28.8590   23.3280 C   0  0  0  0  0  0  0  0  0  0  0  0
  -18.9280  -30.1120   23.9460 C   0  0  0  0  0  3  0  0  0  0  0  0
  -17.6310  -30.6230   24.1460 C   0  0  0  0  0  3  0  0  0  0  0  0
  -16.5110  -29.8790   23.7380 C   0  0  0  0  0  3  0  0  0  0  0  0
  -16.6900  -28.6260   23.1250 C   0  0  0  0  0  3  0  0  0  0  0  0
  -25.8600  -32.4620   23.7950 C   0  0  0  0  0  3  0  0  0  0  0  0
  -25.5260  -33.8610   24.1270 N   0  0  0  0  0  0  0  0  0  0  0  0
  -25.8670  -34.9320   23.3970 C   0  0  0  0  0  0  0  0  0  0  0  0
  -26.5540  -34.8480   22.3770 O   0  0  0  0  0  0  0  0  0  0  0  0
  -24.9200  -34.0000   24.9220 H   0  0  0  0  0  0  0  0  0  0  0  0
  -24.1450  -36.7390   23.0460 C   0  0  0  0  0  1  0  0  0  0  0  0
  -25.3690  -36.3150   23.8740 C   0  0  0  0  0  3  0  0  0  0  0  0
  -27.4840  -37.1950   24.7640 C   0  0  0  0  0  1  0  0  0  0  0  0
  -26.4020  -37.3730   23.8000 N   0  0  0  0  0  0  0  0  0  0  0  0
  -25.9880  -38.2900   23.9500 H   0  0  0  0  0  0  0  0  0  0  0  0
  -26.3560  -31.7100   25.0920 C   0  0  1  0  0  0  0  0  0  0  0  0
  -25.2450  -31.4820   26.1440 C   0  0  0  0  0  1  0  0  0  0  0  0
  -26.9500  -30.3290   24.7410 C   0  0  0  0  0  1  0  0  0  0  0  0
  -27.4910  -32.5180   25.7630 C   0  0  0  0  0  1  0  0  0  0  0  0
  -30.9960  -19.2190   19.4690 C   0  0  0  0  0  2  0  0  0  0  0  0
  -30.4340  -20.0970   17.0400 C   0  0  0  0  0  0  0  0  0  0  0  0
  -31.1680  -20.1470   18.2830 C   0  0  0  0  0  0  0  0  0  0  0  0
  -30.7750  -21.1120   16.1810 C   0  0  0  0  0  0  0  0  0  0  0  0
  -32.1440  -21.1200   18.2590 C   0  0  0  0  0  0  0  0  0  0  0  0
  -29.4070  -19.0670   16.6540 C   0  0  0  0  0  1  0  0  0  0  0  0
  -30.2040  -21.4000   14.8300 C   0  0  0  0  0  1  0  0  0  0  0  0
  -32.0520  -22.0970   16.8230 S   0  0  0  0  0  0  0  0  0  0  0  0
  -32.7970  -22.3570   20.3770 C   0  0  0  0  0  1  0  0  0  0  0  0
  -33.2210  -21.3990   19.2630 C   0  0  0  0  0  2  0  0  0  0  0  0
  -29.5150  -17.2000   20.6170 C   0  0  0  0  0  2  0  0  0  0  0  0
  -30.2890  -15.5510   20.2760 C   0  0  0  0  0  0  0  0  0  0  0  0
  -30.3810  -13.0180   19.4520 C   0  0  0  0  0  2  0  0  0  0  0  0
  -29.4880  -12.7000   18.2160 C   0  0  0  0  0  2  0  0  0  0  0  0
  -28.0470  -12.3800   18.6430 C   0  0  0  0  0  2  0  0  0  0  0  0
  -27.5540  -13.3600   19.7330 C   0  0  0  0  0  3  0  0  0  0  0  0
  -28.5820  -13.5990   20.8640 C   0  0  0  0  0  2  0  0  0  0  0  0
  -29.7910  -14.1830   20.2480 N   0  0  0  0  0  0  0  0  0  0  0  0
  -31.5000  -15.5080   19.9890 O   0  0  0  0  0  0  0  0  0  0  0  0
  -25.1790  -13.8940   20.4630 C   0  0  0  0  0  0  0  0  0  0  0  0
  -24.1170  -13.1120   20.8220 C   0  0  0  0  0  0  0  0  0  0  0  0
  -24.5920  -11.7640   20.8050 C   0  0  0  0  0  0  0  0  0  0  0  0
  -26.2290  -13.0240   20.2360 N   0  0  0  0  0  0  0  0  0  0  0  0
  -25.8900  -11.7370   20.5100 N   0  0  0  0  0  0  0  0  0  0  0  0
  -23.8670  -10.5000   20.9970 C   0  0  0  0  0  0  0  0  0  0  0  0
  -24.2830   -9.5430   21.9480 C   0  0  0  0  0  3  0  0  0  0  0  0
  -23.5540   -8.3480   22.1290 C   0  0  0  0  0  3  0  0  0  0  0  0
  -22.3940   -8.1000   21.3560 C   0  0  0  0  0  0  0  0  0  0  0  0
  -21.9940   -9.0470   20.3970 C   0  0  0  0  0  3  0  0  0  0  0  0
  -22.7240  -10.2350   20.2140 C   0  0  0  0  0  3  0  0  0  0  0  0
  -21.6380   -6.9570   21.4460 O   0  0  0  0  0  0  0  0  0  0  0  0
  -21.5670   -6.2270   22.6050 C   0  0  0  0  0  0  0  0  0  0  0  0
  -21.1150   -6.7950   23.8170 C   0  0  0  0  0  3  0  0  0  0  0  0
  -20.9940   -5.9910   24.9670 C   0  0  0  0  0  3  0  0  0  0  0  0
  -21.3140   -4.6220   24.9080 C   0  0  0  0  0  0  0  0  0  0  0  0
  -21.7600   -4.0540   23.7010 C   0  0  0  0  0  3  0  0  0  0  0  0
  -21.8820   -4.8550   22.5520 C   0  0  0  0  0  0  0  0  0  0  0  0
  -22.2920   -4.2970   21.3870 F   0  0  0  0  0  0  0  0  0  0  0  0
  -21.1910   -3.8480   26.0120 F   0  0  0  0  0  0  0  0  0  0  0  0
  -22.7160  -13.5860   21.0680 C   0  0  0  0  0  0  0  0  0  0  0  0
  -21.9790  -12.8930   21.9290 N   0  0  0  0  0  0  0  0  0  0  0  0
  -22.2850  -14.6060   20.5350 O   0  0  0  0  0  0  0  0  0  0  0  0
  -22.3420  -12.0640   22.3720 H   0  0  0  0  0  0  0  0  0  0  0  0
  -21.0390  -13.1960   22.1460 H   0  0  0  0  0  0  0  0  0  0  0  0
  -25.3360  -15.2650   20.2790 N   0  0  0  0  0  0  0  0  0  0  0  0
  -24.5600  -15.9110   20.3830 H   0  0  0  0  0  0  0  0  0  0  0  0
  -26.1830  -15.7070   19.9510 H   0  0  0  0  0  0  0  0  0  0  0  0
  1 48  1  0
  1  2  1  0
  1 58  1  0
  2  4  1  0
  3  2  1  0
  5  6  2  0
  5  2  1  0
  7  6  1  0
  8 19  2  0
  9  7  1  0
  9 14  1  0
 10 18  1  0
 10 20  1  0
 11 17  1  0
 11 13  1  0
 12 18  1  0
 13 14  2  0
 13 12  1  0
 15  9  2  0
 16 15  1  0
 16 11  2  0
 17 10  1  0
 18  8  1  0
 20 22  2  0
 21 20  1  0
 23 21  1  0
 24 33  2  0
 24 29  1  0
 25 21  1  0
 25 29  1  0
 26 25  1  0
 27 28  1  0
 27 26  1  0
 28 24  1  0
 29 30  2  0
 30 31  1  0
 32 31  2  0
 33 32  1  0
 34  8  1  0
 34 35  1  0
 34 44  1  0
 35 38  1  0
 36 40  1  0
 36 35  1  0
 37 36  2  0
 40 39  1  0
 42 40  1  0
 42 43  1  0
 42 41  1  0
 44 47  1  1
 44 45  1  0
 46 44  1  0
 49 50  1  0
 50 48  1  0
 51 55  1  0
 51 49  2  0
 52 50  2  0
 52 57  1  0
 53 49  1  0
 54 51  1  0
 55 52  1  0
 57 56  1  0
 59 58  1  0
 60 65  1  0
 61 62  1  0
 61 60  1  0
 63 62  1  0
 63 70  1  0
 63 64  1  0
 65 59  1  0
 65 64  1  0
 66 59  2  0
 67 68  2  0
 68 87  1  0
 69 68  1  0
 69 72  1  0
 70 67  1  0
 70 71  1  0
 71 69  2  0
 72 73  1  0
 73 74  2  0
 75 78  1  0
 75 74  1  0
 76 75  2  0
 77 76  1  0
 77 72  2  0
 78 79  1  0
 79 80  1  0
 80 81  2  0
 82 81  1  0
 82 86  1  0
 83 82  2  0
 84 79  2  0
 84 83  1  0
 85 84  1  0
 87 88  1  0
 88 91  1  0
 88 90  1  0
 89 87  2  0
 92 93  1  0
 92 67  1  0
 94 92  1  0
M  ISO  4   6 101   7 101  58 100  59 100
M  END
>  <TORSDO>  (98) 
F 23

>  <SCORE>  (98) 
-15.369

>  <name>  (98) 
97

>  <ligand_id>  (98) 
97

>  <original_smiles>  (98) 
[H]c1c([H])c([H])c2c(c1[H])C([H])([H])C([H])([H])C([H])([H])C2([H])N([H])C(=O)C1([H])N(C(=O)C([H])(N([H])C(=O)C([H])(N([H])C([H])([H])[H])C([H])([H])[H])C(C([H])([H])[H])(C([H])([H])[H])C([H])([H])[H])C([H])([H])c2c([H])c(OC([H])([H])C([H])([H])[N+]([H])([H])C([H])(C([H])([H])C(=O)N3C([H])([H])C([H])([H])C([H])([H])C([H])(n4nc(-c5c([H])c([H])c(Oc6c([H])c([H])c(F)c([H])c6F)c([H])c5[H])c(C(=O)N([H])[H])c4N([H])[H])C3([H])[H])C([H])([H])c3c(C([H])([H])C([H])([H])[H])sc(C([H])([H])[H])c3C([H])([H])[H])c([H])c([H])c2C1([H])[H]

>  <smiles>  (98) 
[H]c1c([H])c([H])c2c(c1[H])C([H])([H])C([H])([H])C([H])([H])C2([H])N([H])C(=O)C1([H])N(C(=O)C([H])(N([H])C(=O)C([H])(N([H])C([H])([H])[H])C([H])([H])[H])C(C([H])([H])[H])(C([H])([H])[H])C([H])([H])[H])C([H])([H])c2c([H])c(OC([H])([H])C([H])([H])[N+]([H])([H])C([H])(C([H])([H])C(=O)N3C([H])([H])C([H])([H])C([H])([H])C([H])(n4nc(-c5c([H])c([H])c(Oc6c([H])c([H])c(F)c([H])c6F)c([H])c5[H])c(C(=O)N([H])[H])c4N([H])[H])C3([H])[H])C([H])([H])c3c(C([H])([H])C([H])([H])[H])sc(C([H])([H])[H])c3C([H])([H])[H])c([H])c([H])c2C1([H])[H]

$$$$
