0:0:0
     RDKit          3D

 87 95  0  0  1  0  0  0  0  0999 V2000
  -30.1440  -16.1360   20.2860 C   0  0  0  0  0  0  0  0  0  0  0  0
  -30.3540  -13.5100   19.4370 C   0  0  0  0  0  2  0  0  0  0  0  0
  -29.5360  -12.8280   18.2910 C   0  0  0  0  0  2  0  0  0  0  0  0
  -28.1610  -12.3650   18.7800 C   0  0  0  0  0  2  0  0  0  0  0  0
  -27.5600  -13.4070   19.7380 C   0  0  0  0  0  3  0  0  0  0  0  0
  -28.5470  -13.9470   20.8100 C   0  0  0  0  0  2  0  0  0  0  0  0
  -29.6160  -14.7270   20.0930 N   0  0  0  0  0  0  0  0  0  0  0  0
  -31.3810  -15.9030   20.3180 O   0  0  0  0  0  0  0  0  0  0  0  0
  -28.6140  -18.6510   19.6650 C   0  0  0  0  0  0  0  0  0  0  0  0
  -27.9470  -22.0140   19.5770 C   0  0  0  0  0  0  0  0  0  0  0  0
  -30.2090  -19.1010   20.9350 C   0  0  0  0  0  2  0  0  0  0  0  0
  -29.3930  -22.3470   21.0710 C   0  0  0  0  0  2  0  0  0  0  0  0
  -28.2090  -20.3350   20.1930 C   0  0  0  0  0  3  0  0  0  0  0  0
  -29.2550  -20.5760   21.1540 C   0  0  0  0  0  3  0  0  0  0  0  0
  -29.5880  -17.7130   20.3280 N   0  0  0  0  0  0  0  0  0  0  0  0
  -28.2120  -23.2420   20.3990 N   0  0  0  0  0  2  0  0  0  0  0  0
  -27.9620  -18.2190   18.7090 O   0  0  0  0  0  0  0  0  0  0  0  0
  -27.4630  -22.1440   18.4480 O   0  0  0  0  0  0  0  0  0  0  0  0
  -25.1920  -13.8830   20.4810 C   0  0  0  0  0  0  0  0  0  0  0  0
  -24.1400  -13.0870   20.8310 C   0  0  0  0  0  0  0  0  0  0  0  0
  -24.6330  -11.7430   20.8160 C   0  0  0  0  0  0  0  0  0  0  0  0
  -26.2560  -13.0290   20.2630 N   0  0  0  0  0  0  0  0  0  0  0  0
  -25.9330  -11.7340   20.5280 N   0  0  0  0  0  0  0  0  0  0  0  0
  -23.9170  -10.4720   20.9990 C   0  0  0  0  0  0  0  0  0  0  0  0
  -24.3260   -9.5210   21.9600 C   0  0  0  0  0  3  0  0  0  0  0  0
  -23.6040   -8.3200   22.1340 C   0  0  0  0  0  3  0  0  0  0  0  0
  -22.4560   -8.0620   21.3480 C   0  0  0  0  0  0  0  0  0  0  0  0
  -22.0640   -9.0010   20.3780 C   0  0  0  0  0  3  0  0  0  0  0  0
  -22.7870  -10.1930   20.2030 C   0  0  0  0  0  3  0  0  0  0  0  0
  -21.7070   -6.9110   21.4300 O   0  0  0  0  0  0  0  0  0  0  0  0
  -21.6170   -6.1940   22.5960 C   0  0  0  0  0  0  0  0  0  0  0  0
  -21.1320   -6.7710   23.7900 C   0  0  0  0  0  3  0  0  0  0  0  0
  -20.9880   -5.9800   24.9470 C   0  0  0  0  0  3  0  0  0  0  0  0
  -21.3180   -4.6120   24.9120 C   0  0  0  0  0  0  0  0  0  0  0  0
  -21.7940   -4.0330   23.7220 C   0  0  0  0  0  3  0  0  0  0  0  0
  -21.9410   -4.8220   22.5670 C   0  0  0  0  0  0  0  0  0  0  0  0
  -22.3790   -4.2550   21.4190 F   0  0  0  0  0  0  0  0  0  0  0  0
  -21.1730   -3.8500   26.0200 F   0  0  0  0  0  0  0  0  0  0  0  0
  -22.7290  -13.5450   21.0590 C   0  0  0  0  0  0  0  0  0  0  0  0
  -21.9910  -12.8520   21.9170 N   0  0  0  0  0  0  0  0  0  0  0  0
  -22.2890  -14.5550   20.5090 O   0  0  0  0  0  0  0  0  0  0  0  0
  -22.3600  -12.0360   22.3840 H   0  0  0  0  0  0  0  0  0  0  0  0
  -21.0450  -13.1450   22.1160 H   0  0  0  0  0  0  0  0  0  0  0  0
  -25.3330  -15.2570   20.2970 N   0  0  0  0  0  0  0  0  0  0  0  0
  -24.5510  -15.8970   20.3900 H   0  0  0  0  0  0  0  0  0  0  0  0
  -26.1830  -15.7070   19.9820 H   0  0  0  0  0  0  0  0  0  0  0  0
  -28.1930  -25.1310   20.1520 O   0  0  0  0  0  1  0  0  0  0  0  0
  -24.6980  -31.8350   23.1020 C   0  0  0  0  0  0  0  0  0  0  0  0
  -27.1980  -26.4340   20.2440 C   0  0  0  0  0  0  0  0  0  0  0  0
  -23.5250  -30.4080   21.4870 C   0  0  0  0  0  3  0  0  0  0  0  0
  -24.9700  -28.6690   20.1330 C   0  0  0  0  0  0  0  0  0  0  0  0
  -26.1170  -30.4460   21.4150 C   0  0  0  0  0  2  0  0  0  0  0  0
  -26.1680  -28.9680   20.7910 C   0  0  0  0  0  0  0  0  0  0  0  0
  -27.2500  -27.8900   20.8030 C   0  0  0  0  0  3  0  0  0  0  0  0
  -25.9670  -26.4290   19.5170 C   0  0  0  0  0  3  0  0  0  0  0  0
  -24.9250  -27.4260   19.4730 C   0  0  0  0  0  3  0  0  0  0  0  0
  -23.7820  -29.6630   20.1410 C   0  0  0  0  0  2  0  0  0  0  0  0
  -24.8070  -30.9380   22.0520 N   0  0  0  0  0  0  0  0  0  0  0  0
  -23.5980  -32.1590   23.5860 O   0  0  0  0  0  0  0  0  0  0  0  0
  -22.7720  -29.4750   22.4770 C   0  0  0  0  0  0  0  0  0  0  0  0
  -21.4340  -29.3540   22.3620 N   0  0  0  0  0  0  0  0  0  0  0  0
  -23.4110  -28.8510   23.3270 O   0  0  0  0  0  0  0  0  0  0  0  0
  -20.9640  -29.9050   21.6570 H   0  0  0  0  0  0  0  0  0  0  0  0
  -18.0220  -28.2170   22.9330 C   0  0  0  0  0  0  0  0  0  0  0  0
  -20.5920  -28.4400   23.1480 C   0  0  0  0  0  3  0  0  0  0  0  0
  -20.6540  -27.0030   22.5760 C   0  0  0  0  0  2  0  0  0  0  0  0
  -19.5300  -26.7040   21.5780 C   0  0  0  0  0  2  0  0  0  0  0  0
  -18.1620  -26.8710   22.2450 C   0  0  0  0  0  2  0  0  0  0  0  0
  -19.1610  -28.9620   23.3410 C   0  0  0  0  0  0  0  0  0  0  0  0
  -18.9710  -30.2210   23.9520 C   0  0  0  0  0  3  0  0  0  0  0  0
  -17.6760  -30.7360   24.1520 C   0  0  0  0  0  3  0  0  0  0  0  0
  -16.5530  -29.9900   23.7540 C   0  0  0  0  0  3  0  0  0  0  0  0
  -16.7270  -28.7310   23.1530 C   0  0  0  0  0  3  0  0  0  0  0  0
  -25.9470  -32.5070   23.7500 C   0  0  0  0  0  3  0  0  0  0  0  0
  -25.6030  -33.9040   24.0980 N   0  0  0  0  0  0  0  0  0  0  0  0
  -25.9240  -34.9880   23.3790 C   0  0  0  0  0  0  0  0  0  0  0  0
  -26.5900  -34.9190   22.3440 O   0  0  0  0  0  0  0  0  0  0  0  0
  -25.0040  -34.0280   24.9010 H   0  0  0  0  0  0  0  0  0  0  0  0
  -24.1760  -36.7870   23.1070 C   0  0  0  0  0  1  0  0  0  0  0  0
  -25.4360  -36.3650   23.8820 C   0  0  0  0  0  3  0  0  0  0  0  0
  -27.5740  -37.2620   24.6990 C   0  0  0  0  0  1  0  0  0  0  0  0
  -26.4570  -37.4330   23.7750 N   0  0  0  0  0  0  0  0  0  0  0  0
  -26.0440  -38.3460   23.9420 H   0  0  0  0  0  0  0  0  0  0  0  0
  -26.4490  -31.7550   25.0460 C   0  0  1  0  0  0  0  0  0  0  0  0
  -25.3450  -31.5260   26.1030 C   0  0  0  0  0  1  0  0  0  0  0  0
  -27.0440  -30.3740   24.6960 C   0  0  0  0  0  1  0  0  0  0  0  0
  -27.5880  -32.5630   25.7120 C   0  0  0  0  0  1  0  0  0  0  0  0
  1  8  2  0
  1 15  1  0
  2  7  1  0
  3  4  1  0
  3  2  1  0
  5  4  1  0
  5 22  1  0
  5  6  1  0
  7  1  1  0
  7  6  1  0
  9 13  1  0
  9 15  1  0
 10 16  1  0
 12 14  1  0
 13 10  1  0
 13 14  1  0
 14 11  1  0
 15 11  1  0
 16 12  1  0
 17  9  2  0
 18 10  2  0
 19 20  2  0
 20 39  1  0
 21 20  1  0
 21 24  1  0
 22 19  1  0
 22 23  1  0
 23 21  2  0
 24 25  1  0
 25 26  2  0
 27 30  1  0
 27 26  1  0
 28 27  2  0
 29 28  1  0
 29 24  2  0
 30 31  1  0
 31 32  1  0
 32 33  2  0
 34 33  1  0
 34 38  1  0
 35 34  2  0
 36 31  2  0
 36 35  1  0
 37 36  1  0
 39 40  1  0
 40 43  1  0
 40 42  1  0
 41 39  2  0
 44 45  1  0
 44 19  1  0
 46 44  1  0
 47 49  1  0
 48 59  2  0
 49 54  1  0
 50 58  1  0
 50 60  1  0
 51 57  1  0
 51 53  1  0
 52 58  1  0
 53 54  2  0
 53 52  1  0
 55 49  2  0
 56 55  1  0
 56 51  2  0
 57 50  1  0
 58 48  1  0
 60 62  2  0
 61 60  1  0
 63 61  1  0
 64 73  2  0
 64 69  1  0
 65 61  1  0
 65 69  1  0
 66 65  1  0
 67 68  1  0
 67 66  1  0
 68 64  1  0
 69 70  2  0
 70 71  1  0
 72 71  2  0
 73 72  1  0
 74 48  1  0
 74 75  1  0
 74 84  1  0
 75 78  1  0
 76 80  1  0
 76 75  1  0
 77 76  2  0
 80 79  1  0
 82 80  1  0
 82 83  1  0
 82 81  1  0
 84 87  1  1
 84 85  1  0
 86 84  1  0
M  ISO  4   1 100  15 100  16 101  47 101
M  END
>  <TORSDO>  (1) 
F 15

>  <SCORE>  (1) 
-16.576

>  <name>  (1) 
0

>  <ligand_id>  (1) 
0

>  <original_smiles>  (1) 
[H]c1c([H])c([H])c2c(c1[H])C([H])([H])C([H])([H])C([H])([H])C2([H])N([H])C(=O)C1([H])N(C(=O)C([H])(N([H])C(=O)C([H])(N([H])C([H])([H])[H])C([H])([H])[H])C(C([H])([H])[H])(C([H])([H])[H])C([H])([H])[H])C([H])([H])c2c([H])c(ON3C(=O)C4([H])C(=O)N(C(=O)N5C([H])([H])C([H])([H])C([H])([H])C([H])(n6nc(-c7c([H])c([H])c(Oc8c([H])c([H])c(F)c([H])c8F)c([H])c7[H])c(C(=O)N([H])[H])c6N([H])[H])C5([H])[H])C([H])([H])C4([H])C3([H])[H])c([H])c([H])c2C1([H])[H]

>  <smiles>  (1) 
[H]c1c([H])c([H])c2c(c1[H])C([H])([H])C([H])([H])C([H])([H])C2([H])N([H])C(=O)C1([H])N(C(=O)C([H])(N([H])C(=O)C([H])(N([H])C([H])([H])[H])C([H])([H])[H])C(C([H])([H])[H])(C([H])([H])[H])C([H])([H])[H])C([H])([H])c2c([H])c(ON3C(=O)C4([H])C(=O)N(C(=O)N5C([H])([H])C([H])([H])C([H])([H])C([H])(n6nc(-c7c([H])c([H])c(Oc8c([H])c([H])c(F)c([H])c8F)c([H])c7[H])c(C(=O)N([H])[H])c6N([H])[H])C5([H])[H])C([H])([H])C4([H])C3([H])[H])c([H])c([H])c2C1([H])[H]

$$$$
1:0:0
     RDKit          3D

 91100  0  0  1  0  0  0  0  0999 V2000
  -28.5260  -20.5470   18.4910 C   0  0  0  0  0  3  0  0  0  0  0  0
  -28.4940  -21.9070   18.9230 C   0  0  0  0  0  3  0  0  0  0  0  0
  -29.4670  -21.2410   21.0410 C   0  0  0  0  0  3  0  0  0  0  0  0
  -29.0370  -19.5290   19.3340 C   0  0  0  0  0  0  0  0  0  0  0  0
  -29.4940  -19.8570   20.6010 C   0  0  0  0  0  0  0  0  0  0  0  0
  -28.9650  -22.3180   20.2010 C   0  0  0  0  0  0  0  0  0  0  0  0
  -29.1720  -18.0210   19.0410 C   0  0  0  0  0  2  0  0  0  0  0  0
  -29.9700  -18.5420   21.2960 C   0  0  0  0  0  2  0  0  0  0  0  0
  -30.0780  -17.4050   20.1710 C   0  0  0  0  0  3  0  0  0  0  0  0
  -30.6200  -14.7870   20.2090 C   0  0  0  0  0  0  0  0  0  0  0  0
  -30.4040  -12.5110   19.1890 C   0  0  0  0  0  2  0  0  0  0  0  0
  -29.4250  -12.5890   17.9950 C   0  0  0  0  0  2  0  0  0  0  0  0
  -27.9720  -12.4050   18.4720 C   0  0  0  0  0  2  0  0  0  0  0  0
  -27.6360  -13.2780   19.7100 C   0  0  0  0  0  3  0  0  0  0  0  0
  -28.7310  -13.1830   20.7960 C   0  0  0  0  0  2  0  0  0  0  0  0
  -30.0050  -13.5530   20.1670 N   0  0  0  0  0  0  0  0  0  0  0  0
  -31.7820  -14.9000   19.8070 O   0  0  0  0  0  0  0  0  0  0  0  0
  -29.8500  -15.9110   20.4930 N   0  0  0  0  0  0  0  0  0  0  0  0
  -28.9260  -15.6930   20.8330 H   0  0  0  0  0  0  0  0  0  0  0  0
  -25.2780  -13.8570   20.5350 C   0  0  0  0  0  0  0  0  0  0  0  0
  -24.2240  -13.0770   20.9270 C   0  0  0  0  0  0  0  0  0  0  0  0
  -24.6820  -11.7260   20.8510 C   0  0  0  0  0  0  0  0  0  0  0  0
  -26.3100  -12.9810   20.2420 N   0  0  0  0  0  0  0  0  0  0  0  0
  -25.9610  -11.6920   20.4940 N   0  0  0  0  0  0  0  0  0  0  0  0
  -23.9580  -10.4610   21.0400 C   0  0  0  0  0  0  0  0  0  0  0  0
  -24.4130   -9.4780   21.9460 C   0  0  0  0  0  3  0  0  0  0  0  0
  -23.6890   -8.2790   22.1240 C   0  0  0  0  0  3  0  0  0  0  0  0
  -22.4970   -8.0550   21.3960 C   0  0  0  0  0  0  0  0  0  0  0  0
  -22.0610   -9.0280   20.4790 C   0  0  0  0  0  3  0  0  0  0  0  0
  -22.7850  -10.2170   20.2980 C   0  0  0  0  0  3  0  0  0  0  0  0
  -21.7420   -6.9110   21.4860 O   0  0  0  0  0  0  0  0  0  0  0  0
  -21.7070   -6.1590   22.6330 C   0  0  0  0  0  0  0  0  0  0  0  0
  -21.2670   -6.6960   23.8620 C   0  0  0  0  0  3  0  0  0  0  0  0
  -21.1800   -5.8690   25.0000 C   0  0  0  0  0  3  0  0  0  0  0  0
  -21.5250   -4.5070   24.9110 C   0  0  0  0  0  0  0  0  0  0  0  0
  -21.9600   -3.9710   23.6860 C   0  0  0  0  0  3  0  0  0  0  0  0
  -22.0470   -4.7930   22.5500 C   0  0  0  0  0  0  0  0  0  0  0  0
  -22.4460   -4.2660   21.3680 F   0  0  0  0  0  0  0  0  0  0  0  0
  -21.4360   -3.7120   26.0030 F   0  0  0  0  0  0  0  0  0  0  0  0
  -22.8380  -13.5510   21.2580 C   0  0  0  0  0  0  0  0  0  0  0  0
  -22.1400  -12.8400   22.1350 N   0  0  0  0  0  0  0  0  0  0  0  0
  -22.3860  -14.5880   20.7730 O   0  0  0  0  0  0  0  0  0  0  0  0
  -22.5190  -12.0000   22.5480 H   0  0  0  0  0  0  0  0  0  0  0  0
  -21.2120  -13.1390   22.3980 H   0  0  0  0  0  0  0  0  0  0  0  0
  -25.4370  -15.2300   20.3790 N   0  0  0  0  0  0  0  0  0  0  0  0
  -24.6720  -15.8790   20.5260 H   0  0  0  0  0  0  0  0  0  0  0  0
  -26.2630  -15.6740   19.9990 H   0  0  0  0  0  0  0  0  0  0  0  0
  -29.0140  -23.8810   20.5970 C   0  0  0  0  0  2  0  0  0  0  0  0
  -27.9440  -24.8510   20.1330 N   0  0  0  0  0  0  0  0  0  0  0  0
  -27.1530  -24.7370   20.7590 H   0  0  0  0  0  0  0  0  0  0  0  0
  -28.3290  -26.3430   20.2850 O   0  0  0  0  0  0  0  0  0  0  0  0
  -24.6370  -31.8850   23.2630 C   0  0  0  0  0  0  0  0  0  0  0  0
  -27.2350  -27.2500   20.2350 C   0  0  0  0  0  0  0  0  0  0  0  0
  -23.4370  -30.4890   21.6210 C   0  0  0  0  0  3  0  0  0  0  0  0
  -24.8890  -28.9240   20.2020 C   0  0  0  0  0  0  0  0  0  0  0  0
  -25.9840  -30.7760   21.4580 C   0  0  0  0  0  2  0  0  0  0  0  0
  -26.0590  -29.3890   20.8170 C   0  0  0  0  0  0  0  0  0  0  0  0
  -27.2300  -28.5610   20.8300 C   0  0  0  0  0  3  0  0  0  0  0  0
  -26.0460  -26.8680   19.5730 C   0  0  0  0  0  3  0  0  0  0  0  0
  -24.8890  -27.6720   19.5700 C   0  0  0  0  0  3  0  0  0  0  0  0
  -23.6580  -29.8100   20.2440 C   0  0  0  0  0  2  0  0  0  0  0  0
  -24.7050  -31.0700   22.1690 N   0  0  0  0  0  0  0  0  0  0  0  0
  -23.5520  -32.1700   23.7910 O   0  0  0  0  0  0  0  0  0  0  0  0
  -22.7630  -29.4780   22.5820 C   0  0  0  0  0  0  0  0  0  0  0  0
  -21.4370  -29.3050   22.4480 N   0  0  0  0  0  0  0  0  0  0  0  0
  -23.4340  -28.8530   23.4070 O   0  0  0  0  0  0  0  0  0  0  0  0
  -20.9540  -29.8610   21.7570 H   0  0  0  0  0  0  0  0  0  0  0  0
  -18.0510  -28.1280   22.9510 C   0  0  0  0  0  0  0  0  0  0  0  0
  -20.6120  -28.3710   23.2190 C   0  0  0  0  0  3  0  0  0  0  0  0
  -20.7030  -26.9400   22.6410 C   0  0  0  0  0  2  0  0  0  0  0  0
  -19.5980  -26.6260   21.6270 C   0  0  0  0  0  2  0  0  0  0  0  0
  -18.2180  -26.7790   22.2720 C   0  0  0  0  0  2  0  0  0  0  0  0
  -19.1750  -28.8820   23.3820 C   0  0  0  0  0  0  0  0  0  0  0  0
  -18.9650  -30.1450   23.9780 C   0  0  0  0  0  3  0  0  0  0  0  0
  -17.6630  -30.6540   24.1470 C   0  0  0  0  0  3  0  0  0  0  0  0
  -16.5540  -29.8970   23.7320 C   0  0  0  0  0  3  0  0  0  0  0  0
  -16.7480  -28.6360   23.1400 C   0  0  0  0  0  3  0  0  0  0  0  0
  -25.9180  -32.5170   23.8900 C   0  0  0  0  0  3  0  0  0  0  0  0
  -25.6110  -33.9190   24.2120 N   0  0  0  0  0  0  0  0  0  0  0  0
  -25.9310  -34.9670   23.4430 C   0  0  0  0  0  0  0  0  0  0  0  0
  -26.5850  -34.8560   22.4020 O   0  0  0  0  0  0  0  0  0  0  0  0
  -25.0290  -34.0790   25.0220 H   0  0  0  0  0  0  0  0  0  0  0  0
  -24.1930  -36.7560   23.1090 C   0  0  0  0  0  1  0  0  0  0  0  0
  -25.4510  -36.3590   23.8980 C   0  0  0  0  0  3  0  0  0  0  0  0
  -27.5970  -37.2600   24.6830 C   0  0  0  0  0  1  0  0  0  0  0  0
  -26.4790  -37.4130   23.7550 N   0  0  0  0  0  0  0  0  0  0  0  0
  -26.0740  -38.3340   23.8950 H   0  0  0  0  0  0  0  0  0  0  0  0
  -26.4220  -31.7520   25.1750 C   0  0  1  0  0  0  0  0  0  0  0  0
  -25.3200  -31.5230   26.2360 C   0  0  0  0  0  1  0  0  0  0  0  0
  -27.0060  -30.3700   24.7980 C   0  0  0  0  0  1  0  0  0  0  0  0
  -27.5690  -32.5470   25.8420 C   0  0  0  0  0  1  0  0  0  0  0  0
  1  2  2  0
  1  4  1  0
  2  6  1  0
  4  5  2  0
  5  3  1  0
  5  8  1  0
  6 48  1  0
  6  3  2  0
  7  4  1  0
  7  9  1  0
  9 18  1  0
  9  8  1  0
 10 18  1  0
 11 16  1  0
 12 13  1  0
 12 11  1  0
 14 13  1  0
 14 23  1  0
 14 15  1  0
 16 10  1  0
 16 15  1  0
 17 10  2  0
 18 19  1  0
 20 21  2  0
 21 40  1  0
 22 21  1  0
 22 25  1  0
 23 24  1  0
 23 20  1  0
 24 22  2  0
 25 26  1  0
 26 27  2  0
 28 31  1  0
 28 27  1  0
 29 28  2  0
 30 29  1  0
 30 25  2  0
 31 32  1  0
 32 33  1  0
 33 34  2  0
 35 34  1  0
 35 39  1  0
 36 35  2  0
 37 32  2  0
 37 36  1  0
 38 37  1  0
 40 41  1  0
 41 44  1  0
 41 43  1  0
 42 40  2  0
 45 46  1  0
 45 20  1  0
 47 45  1  0
 49 51  1  0
 49 48  1  0
 49 50  1  0
 52 63  2  0
 53 51  1  0
 53 58  1  0
 54 62  1  0
 54 64  1  0
 55 61  1  0
 55 57  1  0
 56 62  1  0
 57 58  2  0
 57 56  1  0
 59 53  2  0
 60 59  1  0
 60 55  2  0
 61 54  1  0
 62 52  1  0
 64 66  2  0
 65 64  1  0
 67 65  1  0
 68 77  2  0
 68 73  1  0
 69 65  1  0
 69 73  1  0
 70 69  1  0
 71 72  1  0
 71 70  1  0
 72 68  1  0
 73 74  2  0
 74 75  1  0
 76 75  2  0
 77 76  1  0
 78 52  1  0
 78 79  1  0
 78 88  1  0
 79 82  1  0
 80 84  1  0
 80 79  1  0
 81 80  2  0
 84 83  1  0
 86 87  1  0
 86 84  1  0
 86 85  1  0
 88 91  1  1
 88 89  1  0
 90 88  1  0
M  ISO  4  10 100  18 100  49 101  51 101
M  END
>  <TORSDO>  (2) 
F 18

>  <SCORE>  (2) 
-14.626

>  <name>  (2) 
1

>  <ligand_id>  (2) 
1

>  <original_smiles>  (2) 
[H]c1c([H])c([H])c2c(c1[H])C([H])([H])C([H])([H])C([H])([H])C2([H])N([H])C(=O)C1([H])N(C(=O)C([H])(N([H])C(=O)C([H])(N([H])C([H])([H])[H])C([H])([H])[H])C(C([H])([H])[H])(C([H])([H])[H])C([H])([H])[H])C([H])([H])c2c([H])c(ON([H])C([H])([H])c3c([H])c([H])c4c(c3[H])C([H])([H])C([H])(N([H])C(=O)N3C([H])([H])C([H])([H])C([H])([H])C([H])(n5nc(-c6c([H])c([H])c(Oc7c([H])c([H])c(F)c([H])c7F)c([H])c6[H])c(C(=O)N([H])[H])c5N([H])[H])C3([H])[H])C4([H])[H])c([H])c([H])c2C1([H])[H]

>  <smiles>  (2) 
[H]c1c([H])c([H])c2c(c1[H])C([H])([H])C([H])([H])C([H])([H])C2([H])N([H])C(=O)C1([H])N(C(=O)C([H])(N([H])C(=O)C([H])(N([H])C([H])([H])[H])C([H])([H])[H])C(C([H])([H])[H])(C([H])([H])[H])C([H])([H])[H])C([H])([H])c2c([H])c(ON([H])C([H])([H])c3c([H])c([H])c4c(c3[H])C([H])([H])C([H])(N([H])C(=O)N3C([H])([H])C([H])([H])C([H])([H])C([H])(n5nc(-c6c([H])c([H])c(Oc7c([H])c([H])c(F)c([H])c7F)c([H])c6[H])c(C(=O)N([H])[H])c5N([H])[H])C3([H])[H])C4([H])[H])c([H])c([H])c2C1([H])[H]

$$$$
2:0:0
     RDKit          3D

 94103  0  0  1  0  0  0  0  0999 V2000
  -29.2420  -21.5510   21.2620 C   0  0  0  0  0  3  0  0  0  0  0  0
  -28.8960  -23.0430   21.3010 C   0  0  0  0  0  3  0  0  0  0  0  0
  -29.1190  -20.5400   20.1770 C   0  0  0  0  0  0  0  0  0  0  0  0
  -28.5400  -21.4650   19.1440 C   0  0  0  0  0  0  0  0  0  0  0  0
  -28.2340  -22.9860   19.1730 C   0  0  0  0  0  0  0  0  0  0  0  0
  -28.3470  -23.9850   20.2790 C   0  0  0  0  0  0  0  0  0  0  0  0
  -28.2570  -20.7660   17.8120 C   0  0  0  0  0  2  0  0  0  0  0  0
  -29.6640  -18.6880   18.3570 C   0  0  0  0  0  2  0  0  0  0  0  0
  -29.7870  -18.8020   19.8970 C   0  0  0  0  0  3  0  0  0  0  0  0
  -28.3040  -19.2200   17.8330 C   0  0  0  0  0  3  0  0  0  0  0  0
  -27.8170  -23.6260   17.8520 C   0  0  0  0  0  1  0  0  0  0  0  0
  -30.4400  -15.7170   20.2000 C   0  0  0  0  0  0  0  0  0  0  0  0
  -30.5060  -13.1880   19.3510 C   0  0  0  0  0  2  0  0  0  0  0  0
  -29.6020  -12.8490   18.1320 C   0  0  0  0  0  2  0  0  0  0  0  0
  -28.1770  -12.5040   18.5870 C   0  0  0  0  0  2  0  0  0  0  0  0
  -27.6900  -13.4760   19.6830 C   0  0  0  0  0  3  0  0  0  0  0  0
  -28.7300  -13.7410   20.7980 C   0  0  0  0  0  2  0  0  0  0  0  0
  -29.9130  -14.3530   20.1550 N   0  0  0  0  0  0  0  0  0  0  0  0
  -31.6530  -15.6570   19.9200 O   0  0  0  0  0  0  0  0  0  0  0  0
  -29.7010  -17.0850   20.3620 N   0  0  0  0  0  0  0  0  0  0  0  0
  -28.7880  -16.8890   20.7440 H   0  0  0  0  0  0  0  0  0  0  0  0
  -25.3330  -14.0010   20.4600 C   0  0  0  0  0  0  0  0  0  0  0  0
  -24.2780  -13.2210   20.8320 C   0  0  0  0  0  0  0  0  0  0  0  0
  -24.7500  -11.8720   20.7930 C   0  0  0  0  0  0  0  0  0  0  0  0
  -26.3760  -13.1340   20.2050 N   0  0  0  0  0  0  0  0  0  0  0  0
  -26.0400  -11.8450   20.4710 N   0  0  0  0  0  0  0  0  0  0  0  0
  -24.0240  -10.6080   20.9810 C   0  0  0  0  0  0  0  0  0  0  0  0
  -24.4480   -9.6430   21.9210 C   0  0  0  0  0  3  0  0  0  0  0  0
  -23.7180   -8.4480   22.1000 C   0  0  0  0  0  3  0  0  0  0  0  0
  -22.5480   -8.2080   21.3400 C   0  0  0  0  0  0  0  0  0  0  0  0
  -22.1430   -9.1620   20.3880 C   0  0  0  0  0  3  0  0  0  0  0  0
  -22.8740  -10.3480   20.2090 C   0  0  0  0  0  3  0  0  0  0  0  0
  -21.7910   -7.0660   21.4280 O   0  0  0  0  0  0  0  0  0  0  0  0
  -21.7190   -6.3370   22.5870 C   0  0  0  0  0  0  0  0  0  0  0  0
  -21.2510   -6.9000   23.7950 C   0  0  0  0  0  3  0  0  0  0  0  0
  -21.1270   -6.0970   24.9460 C   0  0  0  0  0  3  0  0  0  0  0  0
  -21.4640   -4.7310   24.8920 C   0  0  0  0  0  0  0  0  0  0  0  0
  -21.9260   -4.1670   23.6900 C   0  0  0  0  0  3  0  0  0  0  0  0
  -22.0500   -4.9680   22.5410 C   0  0  0  0  0  0  0  0  0  0  0  0
  -22.4760   -4.4140   21.3790 F   0  0  0  0  0  0  0  0  0  0  0  0
  -21.3400   -3.9580   25.9950 F   0  0  0  0  0  0  0  0  0  0  0  0
  -22.8810  -13.6960   21.1060 C   0  0  0  0  0  0  0  0  0  0  0  0
  -22.1590  -13.0050   21.9790 N   0  0  0  0  0  0  0  0  0  0  0  0
  -22.4430  -14.7190   20.5830 O   0  0  0  0  0  0  0  0  0  0  0  0
  -22.5290  -12.1790   22.4270 H   0  0  0  0  0  0  0  0  0  0  0  0
  -21.2220  -13.3060   22.2050 H   0  0  0  0  0  0  0  0  0  0  0  0
  -25.4870  -15.3750   20.2850 N   0  0  0  0  0  0  0  0  0  0  0  0
  -24.7180  -16.0230   20.4160 H   0  0  0  0  0  0  0  0  0  0  0  0
  -26.3290  -15.8180   19.9450 H   0  0  0  0  0  0  0  0  0  0  0  0
  -27.9750  -18.6880   16.4950 N   0  0  0  0  0  4  0  0  0  0  0  0
  -28.6290  -18.9990   15.7980 H   0  0  0  0  0  0  0  0  0  0  0  0
  -27.0560  -18.9930   16.2200 H   0  0  0  0  0  0  0  0  0  0  0  0
  -27.9650  -17.6840   16.4970 H   0  0  0  0  0  0  0  0  0  0  0  0
  -28.2630  -25.6050   20.3200 O   0  0  0  0  0  0  0  0  0  0  0  0
  -24.6490  -31.8690   23.1750 C   0  0  0  0  0  0  0  0  0  0  0  0
  -27.2370  -26.7680   20.2790 C   0  0  0  0  0  0  0  0  0  0  0  0
  -23.4880  -30.4330   21.5560 C   0  0  0  0  0  3  0  0  0  0  0  0
  -24.9550  -28.7790   20.1760 C   0  0  0  0  0  0  0  0  0  0  0  0
  -26.0630  -30.6000   21.4460 C   0  0  0  0  0  2  0  0  0  0  0  0
  -26.1410  -29.1550   20.8170 C   0  0  0  0  0  0  0  0  0  0  0  0
  -27.2650  -28.1760   20.8360 C   0  0  0  0  0  3  0  0  0  0  0  0
  -26.0140  -26.5970   19.5830 C   0  0  0  0  0  3  0  0  0  0  0  0
  -24.9280  -27.5250   19.5400 C   0  0  0  0  0  3  0  0  0  0  0  0
  -23.7450  -29.7250   20.1940 C   0  0  0  0  0  2  0  0  0  0  0  0
  -24.7580  -31.0010   22.1110 N   0  0  0  0  0  0  0  0  0  0  0  0
  -23.5510  -32.1640   23.6750 O   0  0  0  0  0  0  0  0  0  0  0  0
  -22.7760  -29.4600   22.5340 C   0  0  0  0  0  0  0  0  0  0  0  0
  -21.4450  -29.3000   22.4110 N   0  0  0  0  0  0  0  0  0  0  0  0
  -23.4350  -28.8480   23.3790 O   0  0  0  0  0  0  0  0  0  0  0  0
  -20.9600  -29.8510   21.7170 H   0  0  0  0  0  0  0  0  0  0  0  0
  -18.0590  -28.0940   22.9490 C   0  0  0  0  0  0  0  0  0  0  0  0
  -20.6210  -28.3680   23.1920 C   0  0  0  0  0  3  0  0  0  0  0  0
  -20.7200  -26.9320   22.6300 C   0  0  0  0  0  2  0  0  0  0  0  0
  -19.6120  -26.6000   21.6240 C   0  0  0  0  0  2  0  0  0  0  0  0
  -18.2330  -26.7440   22.2740 C   0  0  0  0  0  2  0  0  0  0  0  0
  -19.1790  -28.8630   23.3640 C   0  0  0  0  0  0  0  0  0  0  0  0
  -18.9590  -30.1210   23.9640 C   0  0  0  0  0  3  0  0  0  0  0  0
  -17.6520  -30.6150   24.1470 C   0  0  0  0  0  3  0  0  0  0  0  0
  -16.5470  -29.8460   23.7430 C   0  0  0  0  0  3  0  0  0  0  0  0
  -16.7510  -28.5870   23.1500 C   0  0  0  0  0  3  0  0  0  0  0  0
  -25.9030  -32.5420   23.8120 C   0  0  0  0  0  3  0  0  0  0  0  0
  -26.4110  -31.7970   25.1090 C   0  0  1  0  0  0  0  0  0  0  0  0
  -25.3060  -31.5590   26.1650 C   0  0  0  0  0  1  0  0  0  0  0  0
  -27.0200  -30.4220   24.7560 C   0  0  0  0  0  1  0  0  0  0  0  0
  -27.5380  -32.6180   25.7780 C   0  0  0  0  0  1  0  0  0  0  0  0
  -25.5570  -33.9380   24.1440 N   0  0  0  0  0  0  0  0  0  0  0  0
  -25.8750  -35.0090   23.4030 C   0  0  0  0  0  0  0  0  0  0  0  0
  -26.5480  -34.9270   22.3740 O   0  0  0  0  0  0  0  0  0  0  0  0
  -24.9570  -34.0740   24.9430 H   0  0  0  0  0  0  0  0  0  0  0  0
  -24.1260  -36.7950   23.0730 C   0  0  0  0  0  1  0  0  0  0  0  0
  -25.3710  -36.3890   23.8790 C   0  0  0  0  0  3  0  0  0  0  0  0
  -27.4900  -37.3000   24.7240 C   0  0  0  0  0  1  0  0  0  0  0  0
  -26.3900  -37.4590   23.7780 N   0  0  0  0  0  0  0  0  0  0  0  0
  -25.9690  -38.3720   23.9320 H   0  0  0  0  0  0  0  0  0  0  0  0
  1  2  1  0
  3  1  2  0
  4  5  2  0
  4  3  1  0
  5  6  1  0
  6 54  1  0
  6  2  2  0
  7 10  1  0
  7  4  1  0
  8  9  1  0
  9  3  1  0
  9 20  1  0
 10 50  1  0
 10  8  1  0
 11  5  1  0
 12 20  1  0
 13 18  1  0
 14 15  1  0
 14 13  1  0
 16 15  1  0
 16 25  1  0
 16 17  1  0
 18 12  1  0
 18 17  1  0
 19 12  2  0
 20 21  1  0
 22 23  2  0
 23 42  1  0
 24 23  1  0
 24 27  1  0
 25 22  1  0
 25 26  1  0
 26 24  2  0
 27 28  1  0
 28 29  2  0
 30 33  1  0
 30 29  1  0
 31 30  2  0
 32 31  1  0
 32 27  2  0
 33 34  1  0
 34 35  1  0
 35 36  2  0
 37 36  1  0
 37 41  1  0
 38 37  2  0
 39 34  2  0
 39 38  1  0
 40 39  1  0
 42 43  1  0
 43 46  1  0
 43 45  1  0
 44 42  2  0
 47 48  1  0
 47 22  1  0
 49 47  1  0
 50 53  1  0
 51 50  1  0
 52 50  1  0
 55 66  2  0
 56 54  1  0
 56 61  1  0
 57 65  1  0
 57 67  1  0
 58 64  1  0
 58 60  1  0
 59 65  1  0
 60 61  2  0
 60 59  1  0
 62 56  2  0
 63 62  1  0
 63 58  2  0
 64 57  1  0
 65 55  1  0
 67 69  2  0
 68 67  1  0
 70 68  1  0
 71 80  2  0
 71 76  1  0
 72 68  1  0
 72 76  1  0
 73 72  1  0
 74 75  1  0
 74 73  1  0
 75 71  1  0
 76 77  2  0
 77 78  1  0
 79 78  2  0
 80 79  1  0
 81 55  1  0
 81 86  1  0
 81 82  1  0
 82 85  1  1
 82 83  1  0
 84 82  1  0
 86 89  1  0
 87 91  1  0
 87 86  1  0
 88 87  2  0
 91 90  1  0
 93 91  1  0
 93 94  1  0
 93 92  1  0
M  ISO  4   6 101  12 100  20 100  54 101
M  END
>  <TORSDO>  (3) 
F 17

>  <SCORE>  (3) 
-16.000

>  <name>  (3) 
2

>  <ligand_id>  (3) 
2

>  <original_smiles>  (3) 
[H]c1c([H])c([H])c2c(c1[H])C([H])([H])C([H])([H])C([H])([H])C2([H])N([H])C(=O)C1([H])N(C(=O)C([H])(N([H])C(=O)C([H])(N([H])C([H])([H])[H])C([H])([H])[H])C(C([H])([H])[H])(C([H])([H])[H])C([H])([H])[H])C([H])([H])c2c([H])c(Oc3c([H])c([H])c4c(c3C([H])([H])[H])C([H])([H])C([H])([N+]([H])([H])[H])C([H])([H])C4([H])N([H])C(=O)N3C([H])([H])C([H])([H])C([H])([H])C([H])(n4nc(-c5c([H])c([H])c(Oc6c([H])c([H])c(F)c([H])c6F)c([H])c5[H])c(C(=O)N([H])[H])c4N([H])[H])C3([H])[H])c([H])c([H])c2C1([H])[H]

>  <smiles>  (3) 
[H]c1c([H])c([H])c2c(c1[H])C([H])([H])C([H])([H])C([H])([H])C2([H])N([H])C(=O)C1([H])N(C(=O)C([H])(N([H])C(=O)C([H])(N([H])C([H])([H])[H])C([H])([H])[H])C(C([H])([H])[H])(C([H])([H])[H])C([H])([H])[H])C([H])([H])c2c([H])c(Oc3c([H])c([H])c4c(c3C([H])([H])[H])C([H])([H])C([H])([N+]([H])([H])[H])C([H])([H])C4([H])N([H])C(=O)N3C([H])([H])C([H])([H])C([H])([H])C([H])(n4nc(-c5c([H])c([H])c(Oc6c([H])c([H])c(F)c([H])c6F)c([H])c5[H])c(C(=O)N([H])[H])c4N([H])[H])C3([H])[H])c([H])c([H])c2C1([H])[H]

$$$$
3:0:0
     RDKit          3D

 93102  0  0  1  0  0  0  0  0999 V2000
  -27.2090  -23.4670   22.2300 C   0  0  0  0  0  3  0  0  0  0  0  0
  -27.8390  -22.3560   21.6320 C   0  0  0  0  0  3  0  0  0  0  0  0
  -27.3650  -24.7750   21.7240 C   0  0  0  0  0  3  0  0  0  0  0  0
  -28.8070  -23.8710   19.9970 C   0  0  0  0  0  3  0  0  0  0  0  0
  -28.6650  -22.5000   20.4960 C   0  0  0  0  0  0  0  0  0  0  0  0
  -28.1610  -25.0380   20.5870 C   0  0  0  0  0  0  0  0  0  0  0  0
  -30.4080  -21.5190   18.8550 C   0  0  0  0  0  1  0  0  0  0  0  0
  -29.2480  -21.1640   19.8100 C   0  0  0  0  0  3  0  0  0  0  0  0
  -29.6510  -19.9500   20.6830 N   0  0  0  0  0  4  0  0  0  0  0  0
  -30.6280  -20.0520   20.8970 H   0  0  0  0  0  0  0  0  0  0  0  0
  -29.1670  -20.0620   21.5570 H   0  0  0  0  0  0  0  0  0  0  0  0
  -30.6450  -14.8130   20.4820 C   0  0  0  0  0  0  0  0  0  0  0  0
  -30.4670  -12.5090   19.5520 C   0  0  0  0  0  2  0  0  0  0  0  0
  -29.5730  -12.5480   18.2940 C   0  0  0  0  0  2  0  0  0  0  0  0
  -28.0880  -12.3920   18.6790 C   0  0  0  0  0  2  0  0  0  0  0  0
  -27.6700  -13.3100   19.8590 C   0  0  0  0  0  3  0  0  0  0  0  0
  -28.6930  -13.2770   21.0130 C   0  0  0  0  0  2  0  0  0  0  0  0
  -30.0050  -13.5980   20.4380 N   0  0  0  0  0  0  0  0  0  0  0  0
  -31.8700  -14.8650   20.3300 O   0  0  0  0  0  0  0  0  0  0  0  0
  -29.9020  -18.0280   18.8770 C   0  0  0  0  0  2  0  0  0  0  0  0
  -29.7460  -16.4750   18.9040 C   0  0  0  0  0  2  0  0  0  0  0  0
  -29.9390  -17.2550   21.0940 C   0  0  0  0  0  2  0  0  0  0  0  0
  -29.3830  -18.4860   20.2360 C   0  0  0  0  0  3  0  0  0  0  0  0
  -29.8820  -15.9680   20.2930 N   0  0  0  0  0  0  0  0  0  0  0  0
  -25.2620  -13.9190   20.4990 C   0  0  0  0  0  0  0  0  0  0  0  0
  -24.1810  -13.1540   20.8420 C   0  0  0  0  0  0  0  0  0  0  0  0
  -24.6410  -11.8010   20.8580 C   0  0  0  0  0  0  0  0  0  0  0  0
  -26.3120  -13.0330   20.3140 N   0  0  0  0  0  0  0  0  0  0  0  0
  -25.9430  -11.7560   20.5950 N   0  0  0  0  0  0  0  0  0  0  0  0
  -23.9040  -10.5430   21.0470 C   0  0  0  0  0  0  0  0  0  0  0  0
  -24.3140   -9.5820   21.9970 C   0  0  0  0  0  3  0  0  0  0  0  0
  -23.5770   -8.3920   22.1740 C   0  0  0  0  0  3  0  0  0  0  0  0
  -22.4160   -8.1530   21.4010 C   0  0  0  0  0  0  0  0  0  0  0  0
  -22.0240   -9.1020   20.4400 C   0  0  0  0  0  3  0  0  0  0  0  0
  -22.7630  -10.2850   20.2610 C   0  0  0  0  0  3  0  0  0  0  0  0
  -21.6540   -7.0130   21.4850 O   0  0  0  0  0  0  0  0  0  0  0  0
  -21.5970   -6.2700   22.6370 C   0  0  0  0  0  0  0  0  0  0  0  0
  -21.1930   -6.8320   23.8680 C   0  0  0  0  0  3  0  0  0  0  0  0
  -21.0810   -6.0160   25.0110 C   0  0  0  0  0  3  0  0  0  0  0  0
  -21.3630   -4.6390   24.9250 C   0  0  0  0  0  0  0  0  0  0  0  0
  -21.7630   -4.0770   23.7000 C   0  0  0  0  0  3  0  0  0  0  0  0
  -21.8760   -4.8900   22.5580 C   0  0  0  0  0  0  0  0  0  0  0  0
  -22.2410   -4.3410   21.3750 F   0  0  0  0  0  0  0  0  0  0  0  0
  -21.2480   -3.8530   26.0210 F   0  0  0  0  0  0  0  0  0  0  0  0
  -22.7750  -13.6420   21.0450 C   0  0  0  0  0  0  0  0  0  0  0  0
  -22.0100  -12.9710   21.8970 N   0  0  0  0  0  0  0  0  0  0  0  0
  -22.3610  -14.6550   20.4820 O   0  0  0  0  0  0  0  0  0  0  0  0
  -22.3560  -12.1570   22.3840 H   0  0  0  0  0  0  0  0  0  0  0  0
  -21.0660  -13.2840   22.0750 H   0  0  0  0  0  0  0  0  0  0  0  0
  -25.4370  -15.2860   20.3050 N   0  0  0  0  0  0  0  0  0  0  0  0
  -24.6670  -15.9430   20.3730 H   0  0  0  0  0  0  0  0  0  0  0  0
  -26.3040  -15.7150   20.0120 H   0  0  0  0  0  0  0  0  0  0  0  0
  -28.3010  -26.3960   20.1430 O   0  0  0  0  0  0  0  0  0  0  0  0
  -24.6190  -31.8950   23.1970 C   0  0  0  0  0  0  0  0  0  0  0  0
  -27.2100  -27.2950   20.1420 C   0  0  0  0  0  0  0  0  0  0  0  0
  -23.4120  -30.4920   21.5630 C   0  0  0  0  0  3  0  0  0  0  0  0
  -24.8580  -28.9380   20.1330 C   0  0  0  0  0  0  0  0  0  0  0  0
  -25.9530  -30.8000   21.3750 C   0  0  0  0  0  2  0  0  0  0  0  0
  -26.0310  -29.4160   20.7310 C   0  0  0  0  0  0  0  0  0  0  0  0
  -27.2130  -28.6050   20.7270 C   0  0  0  0  0  3  0  0  0  0  0  0
  -26.0170  -26.8800   19.5170 C   0  0  0  0  0  3  0  0  0  0  0  0
  -24.8530  -27.6760   19.5180 C   0  0  0  0  0  3  0  0  0  0  0  0
  -23.6240  -29.8180   20.1830 C   0  0  0  0  0  2  0  0  0  0  0  0
  -24.6820  -31.0830   22.1010 N   0  0  0  0  0  0  0  0  0  0  0  0
  -23.5380  -32.1710   23.7340 O   0  0  0  0  0  0  0  0  0  0  0  0
  -22.7530  -29.4760   22.5280 C   0  0  0  0  0  0  0  0  0  0  0  0
  -21.4250  -29.3060   22.4140 N   0  0  0  0  0  0  0  0  0  0  0  0
  -23.4360  -28.8450   23.3390 O   0  0  0  0  0  0  0  0  0  0  0  0
  -20.9330  -29.8640   21.7300 H   0  0  0  0  0  0  0  0  0  0  0  0
  -18.0480  -28.1200   22.9420 C   0  0  0  0  0  0  0  0  0  0  0  0
  -20.6090  -28.3710   23.1910 C   0  0  0  0  0  3  0  0  0  0  0  0
  -20.7020  -26.9390   22.6130 C   0  0  0  0  0  2  0  0  0  0  0  0
  -19.5900  -26.6220   21.6080 C   0  0  0  0  0  2  0  0  0  0  0  0
  -18.2140  -26.7720   22.2620 C   0  0  0  0  0  2  0  0  0  0  0  0
  -19.1730  -28.8780   23.3640 C   0  0  0  0  0  0  0  0  0  0  0  0
  -18.9610  -30.1400   23.9600 C   0  0  0  0  0  3  0  0  0  0  0  0
  -17.6590  -30.6440   24.1400 C   0  0  0  0  0  3  0  0  0  0  0  0
  -16.5490  -29.8830   23.7330 C   0  0  0  0  0  3  0  0  0  0  0  0
  -16.7450  -28.6240   23.1390 C   0  0  0  0  0  3  0  0  0  0  0  0
  -25.9020  -32.5300   23.8150 C   0  0  0  0  0  3  0  0  0  0  0  0
  -25.5840  -33.9230   24.1570 N   0  0  0  0  0  0  0  0  0  0  0  0
  -25.9070  -34.9860   23.4090 C   0  0  0  0  0  0  0  0  0  0  0  0
  -26.5700  -34.8960   22.3710 O   0  0  0  0  0  0  0  0  0  0  0  0
  -24.9870  -34.0650   24.9590 H   0  0  0  0  0  0  0  0  0  0  0  0
  -24.1640  -36.7740   23.0910 C   0  0  0  0  0  1  0  0  0  0  0  0
  -25.4160  -36.3670   23.8840 C   0  0  0  0  0  3  0  0  0  0  0  0
  -27.5560  -37.2550   24.6980 C   0  0  0  0  0  1  0  0  0  0  0  0
  -26.4390  -37.4270   23.7730 N   0  0  0  0  0  0  0  0  0  0  0  0
  -26.0300  -38.3420   23.9380 H   0  0  0  0  0  0  0  0  0  0  0  0
  -26.4310  -31.7540   25.0830 C   0  0  1  0  0  0  0  0  0  0  0  0
  -25.3450  -31.5090   26.1570 C   0  0  0  0  0  1  0  0  0  0  0  0
  -27.0140  -30.3780   24.6810 C   0  0  0  0  0  1  0  0  0  0  0  0
  -27.5840  -32.5480   25.7410 C   0  0  0  0  0  1  0  0  0  0  0  0
  2  1  2  0
  3  1  1  0
  4  5  2  0
  4  6  1  0
  5  2  1  0
  6  3  2  0
  8  7  1  0
  8  5  1  0
  8  9  1  0
  9 10  1  0
  9 11  1  0
 13 18  1  0
 14 15  1  0
 14 13  1  0
 16 15  1  0
 16 28  1  0
 16 17  1  0
 18 12  1  0
 18 17  1  0
 19 12  2  0
 20 21  1  0
 20 23  1  0
 21 24  1  0
 23  9  1  0
 23 22  1  0
 24 12  1  0
 24 22  1  0
 25 26  2  0
 26 27  1  0
 26 45  1  0
 27 30  1  0
 28 25  1  0
 28 29  1  0
 29 27  2  0
 30 31  1  0
 31 32  2  0
 33 36  1  0
 33 32  1  0
 34 33  2  0
 35 34  1  0
 35 30  2  0
 36 37  1  0
 37 38  1  0
 38 39  2  0
 40 39  1  0
 40 44  1  0
 41 40  2  0
 42 37  2  0
 42 41  1  0
 43 42  1  0
 45 46  1  0
 46 49  1  0
 46 48  1  0
 47 45  2  0
 50 51  1  0
 50 25  1  0
 52 50  1  0
 53  6  1  0
 54 65  2  0
 55 53  1  0
 55 60  1  0
 56 64  1  0
 56 66  1  0
 57 63  1  0
 57 59  1  0
 58 64  1  0
 59 58  1  0
 60 59  2  0
 61 62  1  0
 61 55  2  0
 62 57  2  0
 63 56  1  0
 64 54  1  0
 66 68  2  0
 67 66  1  0
 69 67  1  0
 70 79  2  0
 70 75  1  0
 71 67  1  0
 71 75  1  0
 72 71  1  0
 73 74  1  0
 73 72  1  0
 74 70  1  0
 75 76  2  0
 76 77  1  0
 78 77  2  0
 79 78  1  0
 80 54  1  0
 80 81  1  0
 80 90  1  0
 81 84  1  0
 82 86  1  0
 82 81  1  0
 83 82  2  0
 86 85  1  0
 88 86  1  0
 88 89  1  0
 88 87  1  0
 90 93  1  1
 90 91  1  0
 92 90  1  0
M  ISO  4   6 101  12 100  24 100  53 101
M  END
>  <TORSDO>  (4) 
F 18

>  <SCORE>  (4) 
-14.363

>  <name>  (4) 
3

>  <ligand_id>  (4) 
3

>  <original_smiles>  (4) 
[H]c1c([H])c([H])c2c(c1[H])C([H])([H])C([H])([H])C([H])([H])C2([H])N([H])C(=O)C1([H])N(C(=O)C([H])(N([H])C(=O)C([H])(N([H])C([H])([H])[H])C([H])([H])[H])C(C([H])([H])[H])(C([H])([H])[H])C([H])([H])[H])C([H])([H])c2c([H])c(Oc3c([H])c([H])c([H])c(C([H])(C([H])([H])[H])[N+]([H])([H])C4([H])C([H])([H])N(C(=O)N5C([H])([H])C([H])([H])C([H])([H])C([H])(n6nc(-c7c([H])c([H])c(Oc8c([H])c([H])c(F)c([H])c8F)c([H])c7[H])c(C(=O)N([H])[H])c6N([H])[H])C5([H])[H])C([H])([H])C4([H])[H])c3[H])c([H])c([H])c2C1([H])[H]

>  <smiles>  (4) 
[H]c1c([H])c([H])c2c(c1[H])C([H])([H])C([H])([H])C([H])([H])C2([H])N([H])C(=O)C1([H])N(C(=O)C([H])(N([H])C(=O)C([H])(N([H])C([H])([H])[H])C([H])([H])[H])C(C([H])([H])[H])(C([H])([H])[H])C([H])([H])[H])C([H])([H])c2c([H])c(Oc3c([H])c([H])c([H])c(C([H])(C([H])([H])[H])[N+]([H])([H])C4([H])C([H])([H])N(C(=O)N5C([H])([H])C([H])([H])C([H])([H])C([H])(n6nc(-c7c([H])c([H])c(Oc8c([H])c([H])c(F)c([H])c8F)c([H])c7[H])c(C(=O)N([H])[H])c6N([H])[H])C5([H])[H])C([H])([H])C4([H])[H])c3[H])c([H])c([H])c2C1([H])[H]

$$$$
4:0:0
     RDKit          3D

 87 95  0  0  1  0  0  0  0  0999 V2000
  -27.5380  -20.8500   20.4800 C   0  0  0  0  0  3  0  0  0  0  0  0
  -26.6600  -21.9760   20.6600 C   0  0  0  0  0  3  0  0  0  0  0  0
  -29.1380  -22.5460   20.0080 C   0  0  0  0  0  3  0  0  0  0  0  0
  -28.9140  -20.9050   20.1350 C   0  0  0  0  0  0  0  0  0  0  0  0
  -28.2160  -23.9160   20.1820 C   0  0  0  0  0  0  0  0  0  0  0  0
  -26.9490  -23.3770   20.5350 C   0  0  0  0  0  0  0  0  0  0  0  0
  -25.9300  -24.2330   20.7850 F   0  0  0  0  0  0  0  0  0  0  0  0
  -29.7820  -19.1850   19.9860 C   0  0  0  0  0  0  0  0  0  0  0  0
  -31.1990  -19.4980   19.5590 C   0  0  0  0  0  1  0  0  0  0  0  0
  -29.5890  -17.6670   20.1230 N   0  0  0  0  0  0  0  0  0  0  0  0
  -30.4300  -16.1980   19.9440 C   0  0  0  0  0  0  0  0  0  0  0  0
  -30.6200  -13.5880   19.1710 C   0  0  0  0  0  2  0  0  0  0  0  0
  -29.7130  -13.0680   18.0070 C   0  0  0  0  0  2  0  0  0  0  0  0
  -28.3270  -12.6540   18.5120 C   0  0  0  0  0  2  0  0  0  0  0  0
  -27.8130  -13.6540   19.5680 C   0  0  0  0  0  3  0  0  0  0  0  0
  -28.8600  -14.0680   20.6310 C   0  0  0  0  0  2  0  0  0  0  0  0
  -29.9780  -14.7750   19.9400 N   0  0  0  0  0  0  0  0  0  0  0  0
  -31.6450  -16.1070   19.6750 O   0  0  0  0  0  0  0  0  0  0  0  0
  -25.4980  -14.1200   20.4800 C   0  0  0  0  0  0  0  0  0  0  0  0
  -24.4680  -13.3150   20.8770 C   0  0  0  0  0  0  0  0  0  0  0  0
  -24.9460  -11.9720   20.7680 C   0  0  0  0  0  0  0  0  0  0  0  0
  -26.5340  -13.2700   20.1470 N   0  0  0  0  0  0  0  0  0  0  0  0
  -26.2200  -11.9660   20.3830 N   0  0  0  0  0  0  0  0  0  0  0  0
  -24.2360  -10.6970   20.9520 C   0  0  0  0  0  0  0  0  0  0  0  0
  -24.6620   -9.7390   21.8980 C   0  0  0  0  0  3  0  0  0  0  0  0
  -23.9430   -8.5350   22.0690 C   0  0  0  0  0  3  0  0  0  0  0  0
  -22.7870   -8.2810   21.2960 C   0  0  0  0  0  0  0  0  0  0  0  0
  -22.3800   -9.2280   20.3400 C   0  0  0  0  0  3  0  0  0  0  0  0
  -23.0970  -10.4240   20.1670 C   0  0  0  0  0  3  0  0  0  0  0  0
  -22.0420   -7.1280   21.3750 O   0  0  0  0  0  0  0  0  0  0  0  0
  -21.9000   -6.4400   22.5540 C   0  0  0  0  0  0  0  0  0  0  0  0
  -21.2950   -7.0240   23.6890 C   0  0  0  0  0  3  0  0  0  0  0  0
  -21.1070   -6.2610   24.8580 C   0  0  0  0  0  3  0  0  0  0  0  0
  -21.5130   -4.9120   24.8930 C   0  0  0  0  0  0  0  0  0  0  0  0
  -22.1120   -4.3280   23.7640 C   0  0  0  0  0  3  0  0  0  0  0  0
  -22.3010   -5.0900   22.5970 C   0  0  0  0  0  0  0  0  0  0  0  0
  -22.8570   -4.5150   21.5030 F   0  0  0  0  0  0  0  0  0  0  0  0
  -21.3290   -4.1780   26.0150 F   0  0  0  0  0  0  0  0  0  0  0  0
  -23.0850  -13.7700   21.2380 C   0  0  0  0  0  0  0  0  0  0  0  0
  -22.4130  -13.0480   22.1280 N   0  0  0  0  0  0  0  0  0  0  0  0
  -22.6130  -14.8030   20.7690 O   0  0  0  0  0  0  0  0  0  0  0  0
  -22.8140  -12.2150   22.5360 H   0  0  0  0  0  0  0  0  0  0  0  0
  -21.4870  -13.3370   22.4060 H   0  0  0  0  0  0  0  0  0  0  0  0
  -25.6310  -15.4980   20.3470 N   0  0  0  0  0  0  0  0  0  0  0  0
  -24.8620  -16.1310   20.5470 H   0  0  0  0  0  0  0  0  0  0  0  0
  -26.4580  -15.9720   20.0040 H   0  0  0  0  0  0  0  0  0  0  0  0
  -28.3160  -25.5860   20.1200 O   0  0  0  0  0  0  0  0  0  0  0  0
  -24.7740  -31.9470   23.2670 C   0  0  0  0  0  0  0  0  0  0  0  0
  -27.3480  -26.8600   20.1500 C   0  0  0  0  0  0  0  0  0  0  0  0
  -23.6150  -30.5980   21.5740 C   0  0  0  0  0  3  0  0  0  0  0  0
  -25.0850  -28.9790   20.1290 C   0  0  0  0  0  0  0  0  0  0  0  0
  -26.2020  -30.7090   21.5040 C   0  0  0  0  0  2  0  0  0  0  0  0
  -26.2740  -29.2860   20.8030 C   0  0  0  0  0  0  0  0  0  0  0  0
  -27.3810  -28.2600   20.7810 C   0  0  0  0  0  3  0  0  0  0  0  0
  -26.1320  -26.8190   19.4090 C   0  0  0  0  0  3  0  0  0  0  0  0
  -25.0610  -27.7740   19.4110 C   0  0  0  0  0  3  0  0  0  0  0  0
  -23.8810  -29.9400   20.1880 C   0  0  0  0  0  2  0  0  0  0  0  0
  -24.8890  -31.1200   22.1670 N   0  0  0  0  0  0  0  0  0  0  0  0
  -23.6720  -32.2300   23.7690 O   0  0  0  0  0  0  0  0  0  0  0  0
  -22.8830  -29.5950   22.5080 C   0  0  0  0  0  0  0  0  0  0  0  0
  -21.5520  -29.4380   22.3580 N   0  0  0  0  0  0  0  0  0  0  0  0
  -23.5240  -28.9550   23.3440 O   0  0  0  0  0  0  0  0  0  0  0  0
  -21.0840  -30.0010   21.6640 H   0  0  0  0  0  0  0  0  0  0  0  0
  -18.1580  -28.2130   22.8230 C   0  0  0  0  0  0  0  0  0  0  0  0
  -20.7190  -28.4730   23.0890 C   0  0  0  0  0  3  0  0  0  0  0  0
  -20.8210  -27.0660   22.4560 C   0  0  0  0  0  2  0  0  0  0  0  0
  -19.7170  -26.7840   21.4320 C   0  0  0  0  0  2  0  0  0  0  0  0
  -18.3360  -26.8960   22.0840 C   0  0  0  0  0  2  0  0  0  0  0  0
  -19.2770  -28.9620   23.2790 C   0  0  0  0  0  0  0  0  0  0  0  0
  -19.0520  -30.1890   23.9370 C   0  0  0  0  0  3  0  0  0  0  0  0
  -17.7460  -30.6720   24.1390 C   0  0  0  0  0  3  0  0  0  0  0  0
  -16.6430  -29.9240   23.6930 C   0  0  0  0  0  3  0  0  0  0  0  0
  -16.8490  -28.6950   23.0400 C   0  0  0  0  0  3  0  0  0  0  0  0
  -26.0210  -32.5870   23.9500 C   0  0  0  0  0  3  0  0  0  0  0  0
  -25.6940  -33.9880   24.2950 N   0  0  0  0  0  0  0  0  0  0  0  0
  -26.0060  -35.0620   23.5560 C   0  0  0  0  0  0  0  0  0  0  0  0
  -26.6510  -34.9790   22.5090 O   0  0  0  0  0  0  0  0  0  0  0  0
  -25.1180  -34.1200   25.1120 H   0  0  0  0  0  0  0  0  0  0  0  0
  -24.2450  -36.8510   23.3100 C   0  0  0  0  0  1  0  0  0  0  0  0
  -25.5290  -36.4460   24.0520 C   0  0  0  0  0  3  0  0  0  0  0  0
  -27.6860  -37.3610   24.7970 C   0  0  0  0  0  1  0  0  0  0  0  0
  -26.5440  -37.5130   23.8980 N   0  0  0  0  0  0  0  0  0  0  0  0
  -26.1340  -38.4290   24.0600 H   0  0  0  0  0  0  0  0  0  0  0  0
  -26.4770  -31.8160   25.2510 C   0  0  1  0  0  0  0  0  0  0  0  0
  -25.3400  -31.5890   26.2770 C   0  0  0  0  0  1  0  0  0  0  0  0
  -27.0690  -30.4340   24.9030 C   0  0  0  0  0  1  0  0  0  0  0  0
  -27.6040  -32.6060   25.9570 C   0  0  0  0  0  1  0  0  0  0  0  0
  1  2  1  0
  3  4  1  0
  3  5  2  0
  4  1  2  0
  5  6  1  0
  6  2  2  0
  6  7  1  0
  8 10  2  0
  8  4  1  0
  9  8  1  0
 11 10  1  0
 12 17  1  0
 13 14  1  0
 13 12  1  0
 15 14  1  0
 15 22  1  0
 15 16  1  0
 17 11  1  0
 17 16  1  0
 18 11  2  0
 19 20  2  0
 20 39  1  0
 21 20  1  0
 21 24  1  0
 22 23  1  0
 22 19  1  0
 23 21  2  0
 24 25  1  0
 25 26  2  0
 27 30  1  0
 27 26  1  0
 28 27  2  0
 29 28  1  0
 29 24  2  0
 30 31  1  0
 31 36  2  0
 31 32  1  0
 32 33  2  0
 33 34  1  0
 34 38  1  0
 35 34  2  0
 36 35  1  0
 37 36  1  0
 39 40  1  0
 40 43  1  0
 40 42  1  0
 41 39  2  0
 44 19  1  0
 44 45  1  0
 46 44  1  0
 47 49  1  0
 47  5  1  0
 48 59  2  0
 49 54  1  0
 50 58  1  0
 50 60  1  0
 51 57  1  0
 51 53  1  0
 52 58  1  0
 53 52  1  0
 54 53  2  0
 55 56  1  0
 55 49  2  0
 56 51  2  0
 57 50  1  0
 58 48  1  0
 60 62  2  0
 61 60  1  0
 63 61  1  0
 64 73  2  0
 64 69  1  0
 65 61  1  0
 65 69  1  0
 66 65  1  0
 67 68  1  0
 67 66  1  0
 68 64  1  0
 69 70  2  0
 70 71  1  0
 72 71  2  0
 73 72  1  0
 74 48  1  0
 74 75  1  0
 74 84  1  0
 75 78  1  0
 76 80  1  0
 76 75  1  0
 77 76  2  0
 80 79  1  0
 82 80  1  0
 82 83  1  0
 82 81  1  0
 84 87  1  1
 84 85  1  0
 86 84  1  0
M  ISO  4   5 101  10 100  11 100  47 101
M  END
>  <TORSDO>  (5) 
F 17

>  <SCORE>  (5) 
-15.318

>  <name>  (5) 
4

>  <ligand_id>  (5) 
4

>  <original_smiles>  (5) 
[H]c1c([H])c([H])c2c(c1[H])C([H])([H])C([H])([H])C([H])([H])C2([H])N([H])C(=O)C1([H])N(C(=O)C([H])(N([H])C(=O)C([H])(N([H])C([H])([H])[H])C([H])([H])[H])C(C([H])([H])[H])(C([H])([H])[H])C([H])([H])[H])C([H])([H])c2c([H])c(Oc3c([H])c(C(=NC(=O)N4C([H])([H])C([H])([H])C([H])([H])C([H])(n5nc(-c6c([H])c([H])c(Oc7c([H])c([H])c(F)c([H])c7F)c([H])c6[H])c(C(=O)N([H])[H])c5N([H])[H])C4([H])[H])C([H])([H])[H])c([H])c([H])c3F)c([H])c([H])c2C1([H])[H]

>  <smiles>  (5) 
[H]c1c([H])c([H])c2c(c1[H])C([H])([H])C([H])([H])C([H])([H])C2([H])N([H])C(=O)C1([H])N(C(=O)C([H])(N([H])C(=O)C([H])(N([H])C([H])([H])[H])C([H])([H])[H])C(C([H])([H])[H])(C([H])([H])[H])C([H])([H])[H])C([H])([H])c2c([H])c(Oc3c([H])c(C(=NC(=O)N4C([H])([H])C([H])([H])C([H])([H])C([H])(n5nc(-c6c([H])c([H])c(Oc7c([H])c([H])c(F)c([H])c7F)c([H])c6[H])c(C(=O)N([H])[H])c5N([H])[H])C4([H])[H])C([H])([H])[H])c([H])c([H])c3F)c([H])c([H])c2C1([H])[H]

$$$$
5:0:0
     RDKit          3D

 90 99  0  0  1  0  0  0  0  0999 V2000
  -30.4080  -15.4500   20.3470 C   0  0  0  0  0  0  0  0  0  0  0  0
  -30.3920  -12.9900   19.4440 C   0  0  0  0  0  2  0  0  0  0  0  0
  -29.4850  -12.7120   18.2190 C   0  0  0  0  0  2  0  0  0  0  0  0
  -28.0440  -12.4110   18.6650 C   0  0  0  0  0  2  0  0  0  0  0  0
  -27.5690  -13.3850   19.7720 C   0  0  0  0  0  3  0  0  0  0  0  0
  -28.6120  -13.5990   20.8890 C   0  0  0  0  0  2  0  0  0  0  0  0
  -29.8110  -14.1490   20.2300 N   0  0  0  0  0  0  0  0  0  0  0  0
  -31.6420  -15.3630   20.2240 O   0  0  0  0  0  0  0  0  0  0  0  0
  -30.1250  -21.2730   18.5830 C   0  0  0  0  0  3  0  0  0  0  0  0
  -28.6360  -21.1670   20.8300 C   0  0  0  0  0  3  0  0  0  0  0  0
  -29.9600  -19.9690   19.1570 C   0  0  0  0  0  0  0  0  0  0  0  0
  -29.2380  -19.8140   20.3490 C   0  0  0  0  0  0  0  0  0  0  0  0
  -28.7390  -22.5990   20.2300 C   0  0  0  0  0  0  0  0  0  0  0  0
  -29.5550  -22.5010   19.0690 C   0  0  0  0  0  0  0  0  0  0  0  0
  -30.6030  -18.7310   18.5600 C   0  0  0  0  0  0  0  0  0  0  0  0
  -29.2850  -18.1710   20.9340 C   0  0  0  0  0  2  0  0  0  0  0  0
  -29.9020  -17.3340   18.7320 C   0  0  0  0  0  2  0  0  0  0  0  0
  -29.7460  -16.7950   20.1170 N   0  0  0  0  0  0  0  0  0  0  0  0
  -31.6300  -18.7960   17.8810 O   0  0  0  0  0  0  0  0  0  0  0  0
  -29.7870  -23.6290   18.3540 F   0  0  0  0  0  0  0  0  0  0  0  0
  -25.1950  -13.9180   20.5150 C   0  0  0  0  0  0  0  0  0  0  0  0
  -24.1380  -13.1320   20.8770 C   0  0  0  0  0  0  0  0  0  0  0  0
  -24.6190  -11.7860   20.8590 C   0  0  0  0  0  0  0  0  0  0  0  0
  -26.2470  -13.0510   20.2840 N   0  0  0  0  0  0  0  0  0  0  0  0
  -25.9140  -11.7640   20.5600 N   0  0  0  0  0  0  0  0  0  0  0  0
  -23.9010  -10.5180   21.0480 C   0  0  0  0  0  0  0  0  0  0  0  0
  -24.3340   -9.5550   21.9850 C   0  0  0  0  0  3  0  0  0  0  0  0
  -23.6140   -8.3550   22.1650 C   0  0  0  0  0  3  0  0  0  0  0  0
  -22.4450   -8.1080   21.4060 C   0  0  0  0  0  0  0  0  0  0  0  0
  -22.0300   -9.0600   20.4580 C   0  0  0  0  0  3  0  0  0  0  0  0
  -22.7510  -10.2510   20.2770 C   0  0  0  0  0  3  0  0  0  0  0  0
  -21.6950   -6.9600   21.4950 O   0  0  0  0  0  0  0  0  0  0  0  0
  -21.6500   -6.2170   22.6480 C   0  0  0  0  0  0  0  0  0  0  0  0
  -21.2000   -6.7630   23.8690 C   0  0  0  0  0  3  0  0  0  0  0  0
  -21.1030   -5.9460   25.0130 C   0  0  0  0  0  3  0  0  0  0  0  0
  -21.4470   -4.5820   24.9360 C   0  0  0  0  0  0  0  0  0  0  0  0
  -21.8890   -4.0360   23.7190 C   0  0  0  0  0  3  0  0  0  0  0  0
  -21.9870   -4.8510   22.5770 C   0  0  0  0  0  0  0  0  0  0  0  0
  -22.3940   -4.3130   21.4020 F   0  0  0  0  0  0  0  0  0  0  0  0
  -21.3470   -3.7960   26.0320 F   0  0  0  0  0  0  0  0  0  0  0  0
  -22.7330  -13.5980   21.1250 C   0  0  0  0  0  0  0  0  0  0  0  0
  -22.0040  -12.9060   21.9930 N   0  0  0  0  0  0  0  0  0  0  0  0
  -22.2930  -14.6120   20.5850 O   0  0  0  0  0  0  0  0  0  0  0  0
  -22.3740  -12.0880   22.4520 H   0  0  0  0  0  0  0  0  0  0  0  0
  -21.0600  -13.2010   22.2020 H   0  0  0  0  0  0  0  0  0  0  0  0
  -25.3470  -15.2900   20.3330 N   0  0  0  0  0  0  0  0  0  0  0  0
  -24.5740  -15.9370   20.4430 H   0  0  0  0  0  0  0  0  0  0  0  0
  -26.1970  -15.7380   20.0160 H   0  0  0  0  0  0  0  0  0  0  0  0
  -27.9320  -24.1490   20.6080 C   0  0  0  0  0  2  0  0  0  0  0  0
  -28.2270  -25.7920   20.3790 O   0  0  0  0  0  0  0  0  0  0  0  0
  -24.6490  -31.9020   23.2710 C   0  0  0  0  0  0  0  0  0  0  0  0
  -27.2270  -26.9270   20.3510 C   0  0  0  0  0  0  0  0  0  0  0  0
  -23.4720  -30.4810   21.6440 C   0  0  0  0  0  3  0  0  0  0  0  0
  -24.9350  -28.8500   20.2580 C   0  0  0  0  0  0  0  0  0  0  0  0
  -26.0450  -30.6770   21.5200 C   0  0  0  0  0  2  0  0  0  0  0  0
  -26.1220  -29.2500   20.8850 C   0  0  0  0  0  0  0  0  0  0  0  0
  -27.2620  -28.3150   20.8980 C   0  0  0  0  0  3  0  0  0  0  0  0
  -26.0060  -26.6960   19.6760 C   0  0  0  0  0  3  0  0  0  0  0  0
  -24.9060  -27.5940   19.6320 C   0  0  0  0  0  3  0  0  0  0  0  0
  -23.7180  -29.7780   20.2810 C   0  0  0  0  0  2  0  0  0  0  0  0
  -24.7440  -31.0490   22.1980 N   0  0  0  0  0  0  0  0  0  0  0  0
  -23.5540  -32.1990   23.7770 O   0  0  0  0  0  0  0  0  0  0  0  0
  -22.7670  -29.5010   22.6180 C   0  0  0  0  0  0  0  0  0  0  0  0
  -21.4390  -29.3240   22.4760 N   0  0  0  0  0  0  0  0  0  0  0  0
  -23.4230  -28.8980   23.4700 O   0  0  0  0  0  0  0  0  0  0  0  0
  -20.9620  -29.8610   21.7650 H   0  0  0  0  0  0  0  0  0  0  0  0
  -18.0620  -28.0830   22.9550 C   0  0  0  0  0  0  0  0  0  0  0  0
  -20.6140  -28.3920   23.2530 C   0  0  0  0  0  3  0  0  0  0  0  0
  -20.7430  -26.9500   22.7120 C   0  0  0  0  0  2  0  0  0  0  0  0
  -19.6630  -26.5910   21.6860 C   0  0  0  0  0  2  0  0  0  0  0  0
  -18.2690  -26.7250   22.3050 C   0  0  0  0  0  2  0  0  0  0  0  0
  -19.1610  -28.8730   23.3850 C   0  0  0  0  0  0  0  0  0  0  0  0
  -18.9110  -30.1400   23.9560 C   0  0  0  0  0  3  0  0  0  0  0  0
  -17.5950  -30.6190   24.0980 C   0  0  0  0  0  3  0  0  0  0  0  0
  -16.5100  -29.8280   23.6820 C   0  0  0  0  0  3  0  0  0  0  0  0
  -16.7440  -28.5630   23.1160 C   0  0  0  0  0  3  0  0  0  0  0  0
  -25.9100  -32.5580   23.9070 C   0  0  0  0  0  3  0  0  0  0  0  0
  -25.5880  -33.9650   24.2120 N   0  0  0  0  0  0  0  0  0  0  0  0
  -25.9260  -35.0140   23.4500 C   0  0  0  0  0  0  0  0  0  0  0  0
  -26.6030  -34.9010   22.4260 O   0  0  0  0  0  0  0  0  0  0  0  0
  -24.9870  -34.1260   25.0070 H   0  0  0  0  0  0  0  0  0  0  0  0
  -24.2010  -36.8110   23.0760 C   0  0  0  0  0  1  0  0  0  0  0  0
  -25.4400  -36.4100   23.8940 C   0  0  0  0  0  3  0  0  0  0  0  0
  -27.5700  -37.3090   24.7240 C   0  0  0  0  0  1  0  0  0  0  0  0
  -26.4740  -37.4620   23.7710 N   0  0  0  0  0  0  0  0  0  0  0  0
  -26.0660  -38.3840   23.9010 H   0  0  0  0  0  0  0  0  0  0  0  0
  -26.3980  -31.8210   25.2170 C   0  0  1  0  0  0  0  0  0  0  0  0
  -25.2830  -31.6170   26.2690 C   0  0  0  0  0  1  0  0  0  0  0  0
  -26.9840  -30.4310   24.8830 C   0  0  0  0  0  1  0  0  0  0  0  0
  -27.5380  -32.6300   25.8790 C   0  0  0  0  0  1  0  0  0  0  0  0
  2  7  1  0
  3  4  1  0
  3  2  1  0
  5  4  1  0
  5 24  1  0
  5  6  1  0
  7  1  1  0
  7  6  1  0
  8  1  2  0
  9 14  2  0
  9 11  1  0
 11 12  2  0
 12 10  1  0
 12 16  1  0
 13 49  1  0
 13 10  2  0
 14 13  1  0
 15 17  1  0
 15 11  1  0
 17 18  1  0
 18  1  1  0
 18 16  1  0
 19 15  2  0
 20 14  1  0
 21 22  2  0
 22 41  1  0
 23 22  1  0
 23 26  1  0
 24 21  1  0
 24 25  1  0
 25 23  2  0
 26 27  1  0
 27 28  2  0
 29 32  1  0
 29 28  1  0
 30 29  2  0
 31 30  1  0
 31 26  2  0
 32 33  1  0
 33 34  1  0
 34 35  2  0
 36 35  1  0
 36 40  1  0
 37 36  2  0
 38 33  2  0
 38 37  1  0
 39 38  1  0
 41 42  1  0
 42 45  1  0
 42 44  1  0
 43 41  2  0
 46 47  1  0
 46 21  1  0
 48 46  1  0
 50 49  1  0
 51 62  2  0
 52 50  1  0
 52 57  1  0
 53 61  1  0
 53 63  1  0
 54 60  1  0
 54 56  1  0
 55 61  1  0
 56 57  2  0
 56 55  1  0
 58 52  2  0
 59 58  1  0
 59 54  2  0
 60 53  1  0
 61 51  1  0
 63 65  2  0
 64 63  1  0
 66 64  1  0
 67 76  2  0
 67 72  1  0
 68 64  1  0
 68 72  1  0
 69 68  1  0
 70 71  1  0
 70 69  1  0
 71 67  1  0
 72 73  2  0
 73 74  1  0
 75 74  2  0
 76 75  1  0
 77 51  1  0
 77 78  1  0
 77 87  1  0
 78 81  1  0
 79 83  1  0
 79 78  1  0
 80 79  2  0
 83 82  1  0
 85 83  1  0
 85 86  1  0
 85 84  1  0
 87 90  1  1
 87 88  1  0
 89 87  1  0
M  ISO  4   1 100  18 100  49 101  50 101
M  END
>  <TORSDO>  (6) 
F 16

>  <SCORE>  (6) 
-16.730

>  <name>  (6) 
5

>  <ligand_id>  (6) 
5

>  <original_smiles>  (6) 
[H]c1c([H])c([H])c2c(c1[H])C([H])([H])C([H])([H])C([H])([H])C2([H])N([H])C(=O)C1([H])N(C(=O)C([H])(N([H])C(=O)C([H])(N([H])C([H])([H])[H])C([H])([H])[H])C(C([H])([H])[H])(C([H])([H])[H])C([H])([H])[H])C([H])([H])c2c([H])c(OC([H])([H])c3c([H])c4c(c([H])c3F)C(=O)C([H])([H])N(C(=O)N3C([H])([H])C([H])([H])C([H])([H])C([H])(n5nc(-c6c([H])c([H])c(Oc7c([H])c([H])c(F)c([H])c7F)c([H])c6[H])c(C(=O)N([H])[H])c5N([H])[H])C3([H])[H])C4([H])[H])c([H])c([H])c2C1([H])[H]

>  <smiles>  (6) 
[H]c1c([H])c([H])c2c(c1[H])C([H])([H])C([H])([H])C([H])([H])C2([H])N([H])C(=O)C1([H])N(C(=O)C([H])(N([H])C(=O)C([H])(N([H])C([H])([H])[H])C([H])([H])[H])C(C([H])([H])[H])(C([H])([H])[H])C([H])([H])[H])C([H])([H])c2c([H])c(OC([H])([H])c3c([H])c4c(c([H])c3F)C(=O)C([H])([H])N(C(=O)N3C([H])([H])C([H])([H])C([H])([H])C([H])(n5nc(-c6c([H])c([H])c(Oc7c([H])c([H])c(F)c([H])c7F)c([H])c6[H])c(C(=O)N([H])[H])c5N([H])[H])C3([H])[H])C4([H])[H])c([H])c([H])c2C1([H])[H]

$$$$
6:0:0
     RDKit          3D

 89 97  0  0  1  0  0  0  0  0999 V2000
  -30.6010  -21.0310   21.1520 C   0  0  0  0  0  3  0  0  0  0  0  0
  -30.9400  -22.3730   21.4410 C   0  0  0  0  0  3  0  0  0  0  0  0
  -28.5270  -21.8730   20.2500 C   0  0  0  0  0  3  0  0  0  0  0  0
  -29.3660  -20.6810   20.5770 C   0  0  0  0  0  0  0  0  0  0  0  0
  -30.0920  -23.4830   21.1730 C   0  0  0  0  0  0  0  0  0  0  0  0
  -28.8500  -23.3150   20.5030 C   0  0  0  0  0  0  0  0  0  0  0  0
  -30.5400  -24.8430   21.6890 C   0  0  0  0  0  1  0  0  0  0  0  0
  -29.0090  -19.0600   20.4410 C   0  0  0  0  0  3  0  0  0  0  0  0
  -30.0940  -17.7490   20.5330 C   0  0  0  0  0  3  0  0  0  0  0  0
  -30.4760  -15.0180   20.3120 C   0  0  0  0  0  0  0  0  0  0  0  0
  -30.3430  -12.6730   19.3350 C   0  0  0  0  0  2  0  0  0  0  0  0
  -29.3960  -12.6510   18.1120 C   0  0  0  0  0  2  0  0  0  0  0  0
  -27.9320  -12.4470   18.5540 C   0  0  0  0  0  2  0  0  0  0  0  0
  -27.5450  -13.3360   19.7680 C   0  0  0  0  0  3  0  0  0  0  0  0
  -28.6210  -13.3230   20.8740 C   0  0  0  0  0  2  0  0  0  0  0  0
  -29.8790  -13.7560   20.2530 N   0  0  0  0  0  0  0  0  0  0  0  0
  -31.6630  -15.0890   19.9840 O   0  0  0  0  0  0  0  0  0  0  0  0
  -29.7170  -16.2030   20.5410 N   0  0  0  0  0  0  0  0  0  0  0  0
  -28.7540  -16.0150   20.7770 H   0  0  0  0  0  0  0  0  0  0  0  0
  -25.1710  -13.8800   20.5540 C   0  0  0  0  0  0  0  0  0  0  0  0
  -24.1230  -13.0940   20.9430 C   0  0  0  0  0  0  0  0  0  0  0  0
  -24.5970  -11.7470   20.8810 C   0  0  0  0  0  0  0  0  0  0  0  0
  -26.2180  -13.0160   20.2850 N   0  0  0  0  0  0  0  0  0  0  0  0
  -25.8820  -11.7240   20.5420 N   0  0  0  0  0  0  0  0  0  0  0  0
  -23.8820  -10.4770   21.0650 C   0  0  0  0  0  0  0  0  0  0  0  0
  -24.3290   -9.5010   21.9830 C   0  0  0  0  0  3  0  0  0  0  0  0
  -23.6110   -8.2970   22.1560 C   0  0  0  0  0  3  0  0  0  0  0  0
  -22.4300   -8.0630   21.4130 C   0  0  0  0  0  0  0  0  0  0  0  0
  -22.0010   -9.0290   20.4840 C   0  0  0  0  0  3  0  0  0  0  0  0
  -22.7200  -10.2230   20.3080 C   0  0  0  0  0  3  0  0  0  0  0  0
  -21.6810   -6.9140   21.4970 O   0  0  0  0  0  0  0  0  0  0  0  0
  -21.6370   -6.1650   22.6470 C   0  0  0  0  0  0  0  0  0  0  0  0
  -21.1730   -6.7050   23.8680 C   0  0  0  0  0  3  0  0  0  0  0  0
  -21.0790   -5.8830   25.0100 C   0  0  0  0  0  3  0  0  0  0  0  0
  -21.4340   -4.5230   24.9300 C   0  0  0  0  0  0  0  0  0  0  0  0
  -21.8900   -3.9850   23.7150 C   0  0  0  0  0  3  0  0  0  0  0  0
  -21.9870   -4.8040   22.5760 C   0  0  0  0  0  0  0  0  0  0  0  0
  -22.4040   -4.2750   21.4000 F   0  0  0  0  0  0  0  0  0  0  0  0
  -21.3420   -3.7290   26.0230 F   0  0  0  0  0  0  0  0  0  0  0  0
  -22.7270  -13.5580   21.2490 C   0  0  0  0  0  0  0  0  0  0  0  0
  -22.0220  -12.8470   22.1200 N   0  0  0  0  0  0  0  0  0  0  0  0
  -22.2710  -14.5850   20.7480 O   0  0  0  0  0  0  0  0  0  0  0  0
  -22.4050  -12.0180   22.5480 H   0  0  0  0  0  0  0  0  0  0  0  0
  -21.0850  -13.1350   22.3630 H   0  0  0  0  0  0  0  0  0  0  0  0
  -25.3120  -15.2540   20.3700 N   0  0  0  0  0  0  0  0  0  0  0  0
  -24.5100  -15.8720   20.4330 H   0  0  0  0  0  0  0  0  0  0  0  0
  -26.0920  -15.6720   19.8760 H   0  0  0  0  0  0  0  0  0  0  0  0
  -27.8750  -24.6260   20.1430 C   0  0  0  0  0  2  0  0  0  0  0  0
  -28.1880  -26.1620   20.2640 O   0  0  0  0  0  0  0  0  0  0  0  0
  -24.5910  -31.9020   23.2020 C   0  0  0  0  0  0  0  0  0  0  0  0
  -27.1440  -27.1690   20.1640 C   0  0  0  0  0  0  0  0  0  0  0  0
  -23.3790  -30.5190   21.5600 C   0  0  0  0  0  3  0  0  0  0  0  0
  -24.8190  -28.9370   20.1240 C   0  0  0  0  0  0  0  0  0  0  0  0
  -25.9330  -30.7700   21.3870 C   0  0  0  0  0  2  0  0  0  0  0  0
  -26.0040  -29.3770   20.7310 C   0  0  0  0  0  0  0  0  0  0  0  0
  -27.1640  -28.5090   20.7330 C   0  0  0  0  0  3  0  0  0  0  0  0
  -25.9380  -26.8410   19.5050 C   0  0  0  0  0  3  0  0  0  0  0  0
  -24.8040  -27.6860   19.4890 C   0  0  0  0  0  3  0  0  0  0  0  0
  -23.5940  -29.8410   20.1790 C   0  0  0  0  0  2  0  0  0  0  0  0
  -24.6550  -31.0870   22.1050 N   0  0  0  0  0  0  0  0  0  0  0  0
  -23.5090  -32.1870   23.7390 O   0  0  0  0  0  0  0  0  0  0  0  0
  -22.6980  -29.5130   22.5250 C   0  0  0  0  0  0  0  0  0  0  0  0
  -21.3690  -29.3400   22.3990 N   0  0  0  0  0  0  0  0  0  0  0  0
  -23.3690  -28.8900   23.3510 O   0  0  0  0  0  0  0  0  0  0  0  0
  -20.8870  -29.8900   21.7030 H   0  0  0  0  0  0  0  0  0  0  0  0
  -17.9880  -28.1280   22.9020 C   0  0  0  0  0  0  0  0  0  0  0  0
  -20.5470  -28.4000   23.1720 C   0  0  0  0  0  3  0  0  0  0  0  0
  -20.6540  -26.9670   22.6030 C   0  0  0  0  0  2  0  0  0  0  0  0
  -19.5550  -26.6360   21.5880 C   0  0  0  0  0  2  0  0  0  0  0  0
  -18.1710  -26.7780   22.2270 C   0  0  0  0  0  2  0  0  0  0  0  0
  -19.1030  -28.8950   23.3300 C   0  0  0  0  0  0  0  0  0  0  0  0
  -18.8790  -30.1560   23.9250 C   0  0  0  0  0  3  0  0  0  0  0  0
  -17.5720  -30.6500   24.0930 C   0  0  0  0  0  3  0  0  0  0  0  0
  -16.4710  -29.8800   23.6790 C   0  0  0  0  0  3  0  0  0  0  0  0
  -16.6800  -28.6200   23.0890 C   0  0  0  0  0  3  0  0  0  0  0  0
  -25.8730  -32.5310   23.8270 C   0  0  0  0  0  3  0  0  0  0  0  0
  -26.3870  -31.7490   25.0980 C   0  0  1  0  0  0  0  0  0  0  0  0
  -25.2970  -31.5100   26.1690 C   0  0  0  0  0  1  0  0  0  0  0  0
  -26.9720  -30.3740   24.7030 C   0  0  0  0  0  1  0  0  0  0  0  0
  -27.5410  -32.5390   25.7620 C   0  0  0  0  0  1  0  0  0  0  0  0
  -25.5640  -33.9260   24.1760 N   0  0  0  0  0  0  0  0  0  0  0  0
  -25.8810  -34.9910   23.4250 C   0  0  0  0  0  0  0  0  0  0  0  0
  -26.5330  -34.9010   22.3820 O   0  0  0  0  0  0  0  0  0  0  0  0
  -24.9850  -34.0660   24.9910 H   0  0  0  0  0  0  0  0  0  0  0  0
  -24.1510  -36.7930   23.1210 C   0  0  0  0  0  1  0  0  0  0  0  0
  -25.4030  -36.3740   23.9090 C   0  0  0  0  0  3  0  0  0  0  0  0
  -27.5470  -37.2530   24.7240 C   0  0  0  0  0  1  0  0  0  0  0  0
  -26.4350  -37.4300   23.7920 N   0  0  0  0  0  0  0  0  0  0  0  0
  -26.0310  -38.3500   23.9490 H   0  0  0  0  0  0  0  0  0  0  0  0
  1  2  1  0
  3  6  2  0
  3  4  1  0
  4  1  2  0
  5  2  2  0
  5  7  1  0
  6  5  1  0
  8  9  2  0
  8  4  1  0
  9 18  1  0
 10 18  1  0
 11 16  1  0
 12 13  1  0
 12 11  1  0
 14 13  1  0
 14 23  1  0
 14 15  1  0
 16 10  1  0
 16 15  1  0
 17 10  2  0
 18 19  1  0
 20 21  2  0
 21 40  1  0
 22 21  1  0
 22 25  1  0
 23 24  1  0
 23 20  1  0
 24 22  2  0
 25 26  1  0
 26 27  2  0
 28 31  1  0
 28 27  1  0
 29 28  2  0
 30 29  1  0
 30 25  2  0
 31 32  1  0
 32 33  1  0
 33 34  2  0
 35 34  1  0
 35 39  1  0
 36 35  2  0
 37 32  2  0
 37 36  1  0
 38 37  1  0
 40 41  1  0
 41 44  1  0
 41 43  1  0
 42 40  2  0
 45 46  1  0
 45 20  1  0
 47 45  1  0
 48 49  1  0
 48  6  1  0
 50 61  2  0
 51 49  1  0
 51 56  1  0
 52 60  1  0
 52 62  1  0
 53 59  1  0
 53 55  1  0
 54 60  1  0
 55 56  2  0
 55 54  1  0
 57 51  2  0
 58 57  1  0
 58 53  2  0
 59 52  1  0
 60 50  1  0
 62 64  2  0
 63 62  1  0
 65 63  1  0
 66 75  2  0
 66 71  1  0
 67 63  1  0
 67 71  1  0
 68 67  1  0
 69 70  1  0
 69 68  1  0
 70 66  1  0
 71 72  2  0
 72 73  1  0
 74 73  2  0
 75 74  1  0
 76 50  1  0
 76 81  1  0
 76 77  1  0
 77 80  1  1
 77 78  1  0
 79 77  1  0
 81 84  1  0
 82 86  1  0
 82 81  1  0
 83 82  2  0
 86 85  1  0
 88 86  1  0
 88 89  1  0
 88 87  1  0
M  ISO  4  10 100  18 100  48 101  49 101
M  END
>  <TORSDO>  (7) 
F 19

>  <SCORE>  (7) 
-15.119

>  <name>  (7) 
6

>  <ligand_id>  (7) 
6

>  <original_smiles>  (7) 
[H]c1c([H])c([H])c2c(c1[H])C([H])([H])C([H])([H])C([H])([H])C2([H])N([H])C(=O)C1([H])N(C(=O)C([H])(N([H])C(=O)C([H])(N([H])C([H])([H])[H])C([H])([H])[H])C(C([H])([H])[H])(C([H])([H])[H])C([H])([H])[H])C([H])([H])c2c([H])c(OC([H])([H])c3c([H])c(C([H])([H])C([H])([H])N([H])C(=O)N4C([H])([H])C([H])([H])C([H])([H])C([H])(n5nc(-c6c([H])c([H])c(Oc7c([H])c([H])c(F)c([H])c7F)c([H])c6[H])c(C(=O)N([H])[H])c5N([H])[H])C4([H])[H])c([H])c([H])c3C([H])([H])[H])c([H])c([H])c2C1([H])[H]

>  <smiles>  (7) 
[H]c1c([H])c([H])c2c(c1[H])C([H])([H])C([H])([H])C([H])([H])C2([H])N([H])C(=O)C1([H])N(C(=O)C([H])(N([H])C(=O)C([H])(N([H])C([H])([H])[H])C([H])([H])[H])C(C([H])([H])[H])(C([H])([H])[H])C([H])([H])[H])C([H])([H])c2c([H])c(OC([H])([H])c3c([H])c(C([H])([H])C([H])([H])N([H])C(=O)N4C([H])([H])C([H])([H])C([H])([H])C([H])(n5nc(-c6c([H])c([H])c(Oc7c([H])c([H])c(F)c([H])c7F)c([H])c6[H])c(C(=O)N([H])[H])c5N([H])[H])C4([H])[H])c([H])c([H])c3C([H])([H])[H])c([H])c([H])c2C1([H])[H]

$$$$
7:0:0
     RDKit          3D

 99 95  0  0  1  0  0  0  0  0999 V2000
  -17.6090  -25.7850   20.9800 C   0  0  0  0  0  3  0  0  0  0  0  0
  -19.9440  -26.6540   19.8380 C   0  0  0  0  0  1  0  0  0  0  0  0
  -18.8530  -25.6300   19.7860 C   0  0  0  0  0  0  0  0  0  0  0  0
  -17.4360  -26.9630   22.2930 C   0  0  0  0  0  1  0  0  0  0  0  0
  -19.4700  -28.8100   22.4220 C   0  0  0  0  0 15  0  0  0  0  0  0
  -20.8000  -28.3670   21.0090 C   0  0  0  0  0 15  0  0  0  0  0  0
  -16.1310  -27.4800   23.8910 C   0  0  0  0  0 15  0  0  0  0  0  0
  -18.9460  -30.0260   24.0460 C   0  0  0  0  0 15  0  0  0  0  0  0
  -16.9590  -29.3390   25.0230 C   0  0  0  0  0 15  0  0  0  0  0  0
  -19.3380  -24.5860   18.3820 C   0  0  0  0  0  0  0  0  0  0  0  0
  -19.7600  -24.9200   16.8810 N   0  0  0  0  0  0  0  0  0  0  0  0
  -19.3070  -23.3830   18.6480 O   0  0  0  0  0  0  0  0  0  0  0  0
  -19.8090  -25.9290   16.8010 H   0  0  0  0  0  0  0  0  0  0  0  0
  -20.1000  -24.2490   15.2290 C   0  0  0  0  0  1  0  0  0  0  0  0
  -19.5180  -25.9050   12.2770 C   0  0  0  0  0  2  0  0  0  0  0  0
  -19.6610  -23.6020   11.9520 C   0  0  0  0  0  2  0  0  0  0  0  0
  -19.2030  -26.1050   10.5200 C   0  0  0  0  0  2  0  0  0  0  0  0
  -18.8060  -23.8920   10.4290 C   0  0  0  0  0  2  0  0  0  0  0  0
  -20.1240  -24.6230   13.2610 C   0  0  0  0  0  2  0  0  0  0  0  0
  -19.0520  -25.0310    9.1830 C   0  0  0  0  0  3  0  0  0  0  0  0
  -17.9870  -25.4380    6.0480 C   0  0  0  0  0  0  0  0  0  0  0  0
  -16.2190  -26.1120    4.0960 C   0  0  0  0  0  2  0  0  0  0  0  0
  -15.2870  -27.3150    4.4650 C   0  0  0  0  0  2  0  0  0  0  0  0
  -14.2700  -26.9350    5.5590 C   0  0  0  0  0  2  0  0  0  0  0  0
  -14.9500  -26.0340    6.6100 C   0  0  0  0  0  3  0  0  0  0  0  0
  -15.5930  -24.8110    5.9700 C   0  0  0  0  0  2  0  0  0  0  0  0
  -16.7350  -25.3910    5.3530 N   0  0  0  0  0  0  0  0  0  0  0  0
  -18.8360  -25.7690    5.1690 O   0  0  0  0  0  0  0  0  0  0  0  0
  -18.1220  -25.1970    7.6190 N   0  0  0  0  0  0  0  0  0  0  0  0
  -17.1700  -24.9920    7.8890 H   0  0  0  0  0  0  0  0  0  0  0  0
  -14.1610  -25.9190    8.9890 C   0  0  0  0  0  0  0  0  0  0  0  0
  -13.1570  -25.2100    9.5730 C   0  0  0  0  0  0  0  0  0  0  0  0
  -12.5710  -24.4250    8.5330 C   0  0  0  0  0  0  0  0  0  0  0  0
  -14.1080  -25.5720    7.6560 N   0  0  0  0  0  0  0  0  0  0  0  0
  -13.2100  -24.6030    7.3920 N   0  0  0  0  0  0  0  0  0  0  0  0
  -11.3900  -23.5700    8.5330 C   0  0  0  0  0  0  0  0  0  0  0  0
  -11.3670  -22.3450    7.8340 C   0  0  0  0  0  3  0  0  0  0  0  0
  -10.2130  -21.5350    7.8620 C   0  0  0  0  0  3  0  0  0  0  0  0
   -9.0760  -21.9500    8.5950 C   0  0  0  0  0  0  0  0  0  0  0  0
   -9.1000  -23.1830    9.2660 C   0  0  0  0  0  3  0  0  0  0  0  0
  -10.2450  -23.9910    9.2330 C   0  0  0  0  0  3  0  0  0  0  0  0
   -7.9030  -21.2410    8.6620 O   0  0  0  0  0  0  0  0  0  0  0  0
   -7.8110  -19.9600    8.1850 C   0  0  0  0  0  0  0  0  0  0  0  0
   -8.5570  -18.9010    8.7470 C   0  0  0  0  0  3  0  0  0  0  0  0
   -8.3760  -17.5860    8.2730 C   0  0  0  0  0  3  0  0  0  0  0  0
   -7.4500  -17.3290    7.2440 C   0  0  0  0  0  0  0  0  0  0  0  0
   -6.7050  -18.3830    6.6870 C   0  0  0  0  0  3  0  0  0  0  0  0
   -6.8840  -19.6950    7.1590 C   0  0  0  0  0  0  0  0  0  0  0  0
   -6.1490  -20.7050    6.6360 F   0  0  0  0  0  0  0  0  0  0  0  0
   -7.2690  -16.0660    6.7930 F   0  0  0  0  0  0  0  0  0  0  0  0
  -12.6990  -25.3460   10.9900 C   0  0  0  0  0  0  0  0  0  0  0  0
  -12.3270  -24.2420   11.6240 N   0  0  0  0  0  0  0  0  0  0  0  0
  -12.7110  -26.4360   11.5580 O   0  0  0  0  0  0  0  0  0  0  0  0
  -12.3400  -23.3420   11.1670 H   0  0  0  0  0  0  0  0  0  0  0  0
  -12.0360  -24.2970   12.5890 H   0  0  0  0  0  0  0  0  0  0  0  0
  -15.0860  -26.8400    9.4690 N   0  0  0  0  0  0  0  0  0  0  0  0
  -15.0290  -27.1430   10.4350 H   0  0  0  0  0  0  0  0  0  0  0  0
  -15.6030  -27.4850    8.8880 H   0  0  0  0  0  0  0  0  0  0  0  0
  -22.7740  -28.7180   20.6970 O   0  0  0  0  0  1  0  0  0  0  0  0
  -25.3300  -31.5530   24.0530 C   0  0  0  0  0  0  0  0  0  0  0  0
  -24.3500  -28.1920   20.2900 C   0  0  0  0  0  3  0  0  0  0  0  0
  -23.7740  -30.9230   22.3230 C   0  0  0  0  0  3  0  0  0  0  0  0
  -24.7270  -30.5190   19.8380 C   0  0  0  0  0  3  0  0  0  0  0  0
  -26.2370  -30.9950   21.7730 C   0  0  0  0  0  2  0  0  0  0  0  0
  -25.7890  -30.0920   20.6340 C   0  0  0  0  0  3  0  0  0  0  0  0
  -25.6870  -28.6980   20.7660 C   0  0  0  0  0  2  0  0  0  0  0  0
  -24.6590  -28.2920   18.9170 C   0  0  0  0  0  2  0  0  0  0  0  0
  -24.3390  -29.6450   18.7540 C   0  0  0  0  0  2  0  0  0  0  0  0
  -23.6550  -31.1650   20.7310 C   0  0  0  0  0  2  0  0  0  0  0  0
  -25.1430  -31.2640   22.7400 N   0  0  0  0  0  0  0  0  0  0  0  0
  -24.3710  -31.6980   24.8280 O   0  0  0  0  0  0  0  0  0  0  0  0
  -23.5920  -29.5180   23.0290 C   0  0  0  0  0  0  0  0  0  0  0  0
  -24.3710  -28.5160   22.9230 N   0  0  0  0  0  0  0  0  0  0  0  0
  -22.6290  -29.1990   23.6880 O   0  0  0  0  0  0  0  0  0  0  0  0
  -25.1630  -28.5760   22.2960 H   0  0  0  0  0  0  0  0  0  0  0  0
  -25.4900  -24.5640   22.3210 C   0  0  0  0  0  2  0  0  0  0  0  0
  -24.5710  -27.5880   24.1200 C   0  0  0  0  0  2  0  0  0  0  0  0
  -26.5160  -27.5610   24.8590 C   0  0  0  0  0 15  0  0  0  0  0  0
  -27.9810  -26.1350   23.8380 C   0  0  0  0  0 15  0  0  0  0  0  0
  -27.2290  -24.6250   22.6730 C   0  0  0  0  0  1  0  0  0  0  0  0
  -24.0020  -26.2330   23.1740 C   0  0  0  0  0  2  0  0  0  0  0  0
  -22.7510  -26.6920   22.2620 C   0  0  0  0  0  2  0  0  0  0  0  0
  -22.6540  -26.0710   20.8790 C   0  0  0  0  0  1  0  0  0  0  0  0
  -24.0330  -24.4960   20.1110 C   0  0  0  0  0  1  0  0  0  0  0  0
  -25.1900  -23.8850   20.9110 C   0  0  0  0  0  2  0  0  0  0  0  0
  -26.7510  -31.7160   24.6240 C   0  0  0  0  0  3  0  0  0  0  0  0
  -27.0540  -30.7740   25.8530 C   0  0  1  0  0  0  0  0  0  0  0  0
  -25.8570  -30.5860   26.8160 C   0  0  0  0  0  1  0  0  0  0  0  0
  -27.5220  -29.3770   25.3900 C   0  0  0  0  0  1  0  0  0  0  0  0
  -28.2290  -31.3660   26.6630 C   0  0  0  0  0  1  0  0  0  0  0  0
  -26.8400  -33.1220   25.0150 N   0  0  0  0  0  0  0  0  0  0  0  0
  -27.6890  -33.9970   24.4670 C   0  0  0  0  0  0  0  0  0  0  0  0
  -28.5570  -33.6670   23.6570 O   0  0  0  0  0  0  0  0  0  0  0  0
  -26.1180  -33.4680   25.6300 H   0  0  0  0  0  0  0  0  0  0  0  0
  -27.0490  -36.3130   23.7240 C   0  0  0  0  0  1  0  0  0  0  0  0
  -27.5570  -35.4660   24.9020 C   0  0  0  0  0  3  0  0  0  0  0  0
  -29.2310  -35.4380   26.6930 C   0  0  0  0  0  1  0  0  0  0  0  0
  -28.8180  -36.0330   25.4230 N   0  0  0  0  0  0  0  0  0  0  0  0
  -28.7320  -37.0370   25.5610 H   0  0  0  0  0  0  0  0  0  0  0  0
  1  4  1  0
  3  2  1  0
  3  1  2  0
 10 12  2  0
 10  3  1  0
 11 10  1  0
 13 11  1  0
 14 11  1  0
 15 19  1  0
 16 19  1  0
 17 15  1  0
 18 16  1  0
 20 18  1  0
 20 17  1  0
 21 29  1  0
 22 23  1  0
 22 27  1  0
 23 24  1  0
 25 24  1  0
 25 34  1  0
 26 25  1  0
 27 26  1  0
 27 21  1  0
 28 21  2  0
 29 30  1  0
 29 20  1  0
 31 56  1  0
 31 32  2  0
 32 51  1  0
 33 36  1  0
 33 32  1  0
 34 31  1  0
 35 34  1  0
 35 33  2  0
 36 41  1  0
 37 38  1  0
 37 36  2  0
 38 39  2  0
 39 42  1  0
 39 40  1  0
 41 40  2  0
 43 42  1  0
 43 44  1  0
 45 44  2  0
 46 45  1  0
 47 48  1  0
 47 46  2  0
 48 43  2  0
 49 48  1  0
 50 46  1  0
 51 53  2  0
 51 52  1  0
 52 55  1  0
 54 52  1  0
 56 57  1  0
 58 56  1  0
 60 71  2  0
 61 59  1  0
 61 66  1  0
 62 70  1  0
 62 72  1  0
 63 68  1  0
 63 65  1  0
 63 69  1  0
 64 70  1  0
 65 66  1  0
 65 64  1  0
 67 61  1  0
 68 67  1  0
 69 62  1  0
 70 60  1  0
 72 74  2  0
 73 72  1  0
 73 77  1  0
 75 73  1  0
 76 80  1  0
 81 77  1  0
 82 81  1  0
 83 82  1  0
 84 85  1  0
 85 76  1  0
 86 60  1  0
 86 91  1  0
 86 87  1  0
 87 90  1  1
 87 88  1  0
 89 87  1  0
 91 94  1  0
 92 96  1  0
 92 91  1  0
 93 92  2  0
 96 95  1  0
 96 98  1  0
 98 99  1  0
 98 97  1  0
M  ISO  4   6 101  21 100  29 100  59 101
M  END
>  <TORSDO>  (8) 
F 19

>  <SCORE>  (8) 
-8.273

>  <name>  (8) 
7

>  <ligand_id>  (8) 
7

>  <original_smiles>  (8) 
[H]c1c([H])c([H])c2c(c1[H])C([H])([H])C([H])([H])C([H])([H])C2([H])N([H])C(=O)C1([H])N(C(=O)C([H])(N([H])C(=O)C([H])(N([H])C([H])([H])[H])C([H])([H])[H])C(C([H])([H])[H])(C([H])([H])[H])C([H])([H])[H])C([H])([H])c2c([H])c(Oc3c([H])c(C(=O)N([H])C([H])([H])C4([H])C([H])([H])C([H])([H])C([H])(N([H])C(=O)N5C([H])([H])C([H])([H])C([H])([H])C([H])(n6nc(-c7c([H])c([H])c(Oc8c([H])c([H])c(F)c([H])c8F)c([H])c7[H])c(C(=O)N([H])[H])c6N([H])[H])C5([H])[H])C([H])([H])C4([H])[H])c([H])c4c3C([H])([H])C([H])([H])C4([H])[H])c([H])c([H])c2C1([H])[H]

>  <smiles>  (8) 
[H]c1c([H])c([H])c2c(c1[H])C([H])([H])C([H])([H])C([H])([H])C2([H])N([H])C(=O)C1([H])N(C(=O)C([H])(N([H])C(=O)C([H])(N([H])C([H])([H])[H])C([H])([H])[H])C(C([H])([H])[H])(C([H])([H])[H])C([H])([H])[H])C([H])([H])c2c([H])c(Oc3c([H])c(C(=O)N([H])C([H])([H])C4([H])C([H])([H])C([H])([H])C([H])(N([H])C(=O)N5C([H])([H])C([H])([H])C([H])([H])C([H])(n6nc(-c7c([H])c([H])c(Oc8c([H])c([H])c(F)c([H])c8F)c([H])c7[H])c(C(=O)N([H])[H])c6N([H])[H])C5([H])[H])C([H])([H])C4([H])[H])c([H])c4c3C([H])([H])C([H])([H])C4([H])[H])c([H])c([H])c2C1([H])[H]

$$$$
8:0:0
     RDKit          3D

 93102  0  0  1  0  0  0  0  0999 V2000
  -28.6850  -20.9520   20.3700 C   0  0  0  0  0  3  0  0  0  0  0  0
  -28.7260  -22.1960   18.1930 C   0  0  0  0  0  1  0  0  0  0  0  0
  -28.0900  -22.0780   19.5320 N   0  0  2  0  0  4  0  0  0  0  0  0
  -27.1570  -21.7520   19.3200 H   0  0  0  0  0  0  0  0  0  0  0  0
  -27.8540  -23.4160   20.2350 C   0  0  0  0  0  3  0  0  0  0  0  0
  -28.3570  -24.7520   19.5300 C   0  0  0  0  0  3  0  0  0  0  0  0
  -28.2620  -26.0570   20.1950 O   0  0  0  0  0  0  0  0  0  0  0  0
  -24.5720  -31.4530   23.0630 C   0  0  0  0  0  0  0  0  0  0  0  0
  -27.1430  -26.8800   20.0740 C   0  0  0  0  0  0  0  0  0  0  0  0
  -23.3830  -30.1070   21.3610 C   0  0  0  0  0  3  0  0  0  0  0  0
  -24.8350  -28.5390   19.9690 C   0  0  0  0  0  0  0  0  0  0  0  0
  -25.9280  -30.3730   21.2600 C   0  0  0  0  0  2  0  0  0  0  0  0
  -25.9880  -29.0000   20.6120 C   0  0  0  0  0  0  0  0  0  0  0  0
  -27.1450  -28.1750   20.6600 C   0  0  0  0  0  3  0  0  0  0  0  0
  -25.9720  -26.4650   19.4030 C   0  0  0  0  0  3  0  0  0  0  0  0
  -24.8280  -27.2790   19.3500 C   0  0  0  0  0  3  0  0  0  0  0  0
  -23.6300  -29.4510   19.9730 C   0  0  0  0  0  2  0  0  0  0  0  0
  -24.6440  -30.6590   21.9560 N   0  0  0  0  0  0  0  0  0  0  0  0
  -23.4800  -31.7480   23.5700 O   0  0  0  0  0  0  0  0  0  0  0  0
  -22.6660  -29.0960   22.2830 C   0  0  0  0  0  0  0  0  0  0  0  0
  -21.3300  -29.0210   22.1710 N   0  0  0  0  0  0  0  0  0  0  0  0
  -23.3080  -28.3900   23.0670 O   0  0  0  0  0  0  0  0  0  0  0  0
  -20.8700  -29.6490   21.5280 H   0  0  0  0  0  0  0  0  0  0  0  0
  -17.8760  -28.1120   22.7370 C   0  0  0  0  0  0  0  0  0  0  0  0
  -20.4590  -28.1010   22.9030 C   0  0  0  0  0  3  0  0  0  0  0  0
  -20.3980  -26.7200   22.2080 C   0  0  0  0  0  2  0  0  0  0  0  0
  -19.2280  -26.5960   21.2310 C   0  0  0  0  0  2  0  0  0  0  0  0
  -17.8960  -26.8120   21.9530 C   0  0  0  0  0  2  0  0  0  0  0  0
  -19.0830  -28.7250   23.1700 C   0  0  0  0  0  0  0  0  0  0  0  0
  -19.0160  -29.9540   23.8620 C   0  0  0  0  0  3  0  0  0  0  0  0
  -17.7750  -30.5640   24.1320 C   0  0  0  0  0  3  0  0  0  0  0  0
  -16.5850  -29.9440   23.7160 C   0  0  0  0  0  3  0  0  0  0  0  0
  -16.6380  -28.7220   23.0200 C   0  0  0  0  0  3  0  0  0  0  0  0
  -25.8530  -32.0410   23.7360 C   0  0  0  0  0  3  0  0  0  0  0  0
  -25.5680  -33.4390   24.0820 N   0  0  0  0  0  0  0  0  0  0  0  0
  -25.9580  -34.4980   23.3570 C   0  0  0  0  0  0  0  0  0  0  0  0
  -26.6700  -34.3970   22.3520 O   0  0  0  0  0  0  0  0  0  0  0  0
  -24.9550  -33.5920   24.8690 H   0  0  0  0  0  0  0  0  0  0  0  0
  -24.3100  -36.3550   22.9620 C   0  0  0  0  0  1  0  0  0  0  0  0
  -25.4940  -35.8910   23.8250 C   0  0  0  0  0  3  0  0  0  0  0  0
  -27.6000  -36.7000   24.7960 C   0  0  0  0  0  1  0  0  0  0  0  0
  -26.5620  -36.9130   23.7910 N   0  0  0  0  0  0  0  0  0  0  0  0
  -26.1720  -37.8400   23.9350 H   0  0  0  0  0  0  0  0  0  0  0  0
  -26.3120  -31.2310   25.0090 C   0  0  1  0  0  0  0  0  0  0  0  0
  -25.1900  -31.0190   26.0490 C   0  0  0  0  0  1  0  0  0  0  0  0
  -26.8430  -29.8370   24.6010 C   0  0  0  0  0  1  0  0  0  0  0  0
  -27.4810  -31.9640   25.7080 C   0  0  0  0  0  1  0  0  0  0  0  0
  -28.6950  -19.5220   19.6850 C   0  0  0  0  0  3  0  0  0  0  0  0
  -30.1510  -17.1170   22.4540 C   0  0  0  0  0  3  0  0  0  0  0  0
  -29.5710  -18.2430   21.7980 C   0  0  0  0  0  3  0  0  0  0  0  0
  -29.8600  -17.2220   19.5640 C   0  0  0  0  0  3  0  0  0  0  0  0
  -30.5050  -16.0280   21.6430 C   0  0  0  0  0  0  0  0  0  0  0  0
  -30.3960  -16.0800   20.2050 C   0  0  0  0  0  0  0  0  0  0  0  0
  -29.4080  -18.3150   20.3740 C   0  0  0  0  0  0  0  0  0  0  0  0
  -31.6950  -15.0850   21.6210 C   0  0  0  0  0  2  0  0  0  0  0  0
  -31.7000  -15.2940   20.0310 C   0  0  2  0  0  0  0  0  0  0  0  0
  -32.7850  -16.2970   19.5440 C   0  0  0  0  0  1  0  0  0  0  0  0
  -31.6720  -14.0020   19.1040 C   0  0  0  0  0  0  0  0  0  0  0  0
  -30.8320  -11.8470   18.1720 C   0  0  0  0  0  2  0  0  0  0  0  0
  -29.7510  -12.0860   17.1020 C   0  0  0  0  0  2  0  0  0  0  0  0
  -28.3610  -12.1530   17.7590 C   0  0  0  0  0  2  0  0  0  0  0  0
  -28.3400  -13.0720   19.0120 C   0  0  0  0  0  3  0  0  0  0  0  0
  -29.5510  -12.8510   19.9430 C   0  0  0  0  0  2  0  0  0  0  0  0
  -30.7820  -12.9580   19.1520 N   0  0  0  0  0  0  0  0  0  0  0  0
  -32.5730  -13.9620   18.2620 O   0  0  0  0  0  0  0  0  0  0  0  0
  -26.2750  -13.9720   20.2430 C   0  0  0  0  0  0  0  0  0  0  0  0
  -25.1720  -13.3560   20.7640 C   0  0  0  0  0  0  0  0  0  0  0  0
  -25.3500  -11.9560   20.5300 C   0  0  0  0  0  0  0  0  0  0  0  0
  -27.0760  -12.9640   19.7380 N   0  0  0  0  0  0  0  0  0  0  0  0
  -26.5300  -11.7360   19.9570 N   0  0  0  0  0  0  0  0  0  0  0  0
  -24.4450  -10.8260   20.7680 C   0  0  0  0  0  0  0  0  0  0  0  0
  -24.8290   -9.7330   21.5730 C   0  0  0  0  0  3  0  0  0  0  0  0
  -23.9370   -8.6650   21.8070 C   0  0  0  0  0  3  0  0  0  0  0  0
  -22.6430   -8.6850   21.2390 C   0  0  0  0  0  0  0  0  0  0  0  0
  -22.2720   -9.7680   20.4230 C   0  0  0  0  0  3  0  0  0  0  0  0
  -23.1620  -10.8280   20.1870 C   0  0  0  0  0  3  0  0  0  0  0  0
  -21.7190   -7.6770   21.3840 O   0  0  0  0  0  0  0  0  0  0  0  0
  -21.6110   -6.9630   22.5500 C   0  0  0  0  0  0  0  0  0  0  0  0
  -21.3730   -7.5970   23.7890 C   0  0  0  0  0  3  0  0  0  0  0  0
  -21.1950   -6.8240   24.9530 C   0  0  0  0  0  3  0  0  0  0  0  0
  -21.2430   -5.4190   24.8830 C   0  0  0  0  0  0  0  0  0  0  0  0
  -21.4700   -4.7860   23.6500 C   0  0  0  0  0  3  0  0  0  0  0  0
  -21.6480   -5.5550   22.4860 C   0  0  0  0  0  0  0  0  0  0  0  0
  -21.8450   -4.9370   21.2980 F   0  0  0  0  0  0  0  0  0  0  0  0
  -21.0650   -4.6750   26.0020 F   0  0  0  0  0  0  0  0  0  0  0  0
  -23.9720  -14.0280   21.3670 C   0  0  0  0  0  0  0  0  0  0  0  0
  -23.4430  -13.4900   22.4580 N   0  0  0  0  0  0  0  0  0  0  0  0
  -23.5350  -15.0810   20.9020 O   0  0  0  0  0  0  0  0  0  0  0  0
  -23.8150  -12.6380   22.8580 H   0  0  0  0  0  0  0  0  0  0  0  0
  -22.6470  -13.9330   22.8970 H   0  0  0  0  0  0  0  0  0  0  0  0
  -26.6680  -15.3070   20.1560 N   0  0  0  0  0  0  0  0  0  0  0  0
  -26.1000  -16.0690   20.5120 H   0  0  0  0  0  0  0  0  0  0  0  0
  -27.5690  -15.6140   19.8070 H   0  0  0  0  0  0  0  0  0  0  0  0
  2  3  1  0
  3  5  1  0
  3  1  1  0
  3  4  1  6
  6  7  1  0
  6  5  2  0
  8 19  2  0
  9  7  1  0
  9 14  1  0
 10 18  1  0
 10 20  1  0
 11 17  1  0
 11 13  1  0
 12 18  1  0
 13 14  2  0
 13 12  1  0
 15  9  2  0
 16 15  1  0
 16 11  2  0
 17 10  1  0
 18  8  1  0
 20 22  2  0
 21 20  1  0
 23 21  1  0
 24 33  2  0
 24 29  1  0
 25 21  1  0
 25 29  1  0
 26 25  1  0
 27 28  1  0
 27 26  1  0
 28 24  1  0
 29 30  2  0
 30 31  1  0
 32 31  2  0
 33 32  1  0
 34  8  1  0
 34 35  1  0
 34 44  1  0
 35 38  1  0
 36 40  1  0
 36 35  1  0
 37 36  2  0
 40 39  1  0
 42 40  1  0
 42 43  1  0
 42 41  1  0
 44 47  1  1
 44 45  1  0
 46 44  1  0
 48  1  2  0
 48 54  1  0
 50 49  1  0
 51 53  2  0
 51 54  1  0
 52 49  2  0
 53 52  1  0
 54 50  2  0
 55 52  1  0
 56 57  1  1
 56 53  1  0
 56 55  1  0
 58 64  1  0
 58 56  1  0
 59 64  1  0
 60 61  1  0
 60 59  1  0
 62 61  1  0
 62 69  1  0
 62 63  1  0
 64 63  1  0
 65 58  2  0
 66 67  2  0
 67 86  1  0
 68 67  1  0
 68 71  1  0
 69 70  1  0
 69 66  1  0
 70 68  2  0
 71 72  1  0
 72 73  2  0
 74 77  1  0
 74 73  1  0
 75 74  2  0
 76 75  1  0
 76 71  2  0
 77 78  1  0
 78 79  1  0
 79 80  2  0
 81 80  1  0
 81 85  1  0
 82 81  2  0
 83 78  2  0
 83 82  1  0
 84 83  1  0
 86 87  1  0
 87 89  1  0
 87 90  1  0
 88 86  2  0
 91 66  1  0
 91 92  1  0
 93 91  1  0
M  ISO  4   6 101   7 101  56 100  58 100
M  END
>  <TORSDO>  (9) 
F 21

>  <SCORE>  (9) 
-10.268

>  <name>  (9) 
8

>  <ligand_id>  (9) 
8

>  <original_smiles>  (9) 
[H]c1c([H])c([H])c2c(c1[H])C([H])([H])C([H])([H])C([H])([H])C2([H])N([H])C(=O)C1([H])N(C(=O)C([H])(N([H])C(=O)C([H])(N([H])C([H])([H])[H])C([H])([H])[H])C(C([H])([H])[H])(C([H])([H])[H])C([H])([H])[H])C([H])([H])c2c([H])c(OC([H])([H])C([H])([H])[N+]([H])(C([H])([H])[H])C([H])([H])C([H])([H])c3c([H])c([H])c4c(c3[H])C(C(=O)N3C([H])([H])C([H])([H])C([H])([H])C([H])(n5nc(-c6c([H])c([H])c(Oc7c([H])c([H])c(F)c([H])c7F)c([H])c6[H])c(C(=O)N([H])[H])c5N([H])[H])C3([H])[H])(C([H])([H])[H])C4([H])[H])c([H])c([H])c2C1([H])[H]

>  <smiles>  (9) 
[H]c1c([H])c([H])c2c(c1[H])C([H])([H])C([H])([H])C([H])([H])C2([H])N([H])C(=O)C1([H])N(C(=O)C([H])(N([H])C(=O)C([H])(N([H])C([H])([H])[H])C([H])([H])[H])C(C([H])([H])[H])(C([H])([H])[H])C([H])([H])[H])C([H])([H])c2c([H])c(OC([H])([H])C([H])([H])[N+]([H])(C([H])([H])[H])C([H])([H])C([H])([H])c3c([H])c([H])c4c(c3[H])C(C(=O)N3C([H])([H])C([H])([H])C([H])([H])C([H])(n5nc(-c6c([H])c([H])c(Oc7c([H])c([H])c(F)c([H])c7F)c([H])c6[H])c(C(=O)N([H])[H])c5N([H])[H])C3([H])[H])(C([H])([H])[H])C4([H])[H])c([H])c([H])c2C1([H])[H]

$$$$
9:0:0
     RDKit          3D

 89 97  0  0  1  0  0  0  0  0999 V2000
  -29.6210  -21.4410   20.8500 C   0  0  0  0  0  3  0  0  0  0  0  0
  -29.3660  -22.9690   20.8740 C   0  0  0  0  0  3  0  0  0  0  0  0
  -27.7770  -21.2080   19.6710 C   0  0  0  0  0  3  0  0  0  0  0  0
  -28.8570  -20.3170   20.2220 C   0  0  0  0  0  0  0  0  0  0  0  0
  -28.2850  -23.8640   20.3180 C   0  0  0  0  0  0  0  0  0  0  0  0
  -27.5200  -22.7320   19.6930 C   0  0  0  0  0  0  0  0  0  0  0  0
  -30.3440  -15.8030   20.1660 C   0  0  0  0  0  0  0  0  0  0  0  0
  -30.3360  -13.2740   19.2900 C   0  0  0  0  0  2  0  0  0  0  0  0
  -29.4410  -12.8100   18.1080 C   0  0  0  0  0  2  0  0  0  0  0  0
  -28.0460  -12.4260   18.6090 C   0  0  0  0  0  2  0  0  0  0  0  0
  -27.5400  -13.4330   19.6650 C   0  0  0  0  0  3  0  0  0  0  0  0
  -28.5850  -13.8240   20.7410 C   0  0  0  0  0  2  0  0  0  0  0  0
  -29.7080  -14.4820   20.0230 N   0  0  0  0  0  0  0  0  0  0  0  0
  -31.5660  -15.5680   20.0620 O   0  0  0  0  0  0  0  0  0  0  0  0
  -28.9310  -18.5100   20.1940 C   0  0  0  0  0  0  0  0  0  0  0  0
  -29.9570  -17.3410   20.2320 N   0  0  0  0  0  0  0  0  0  0  0  0
  -27.7840  -18.0730   20.0630 O   0  0  0  0  0  0  0  0  0  0  0  0
  -30.8450  -17.8110   20.3090 H   0  0  0  0  0  0  0  0  0  0  0  0
  -25.1970  -13.9250   20.4900 C   0  0  0  0  0  0  0  0  0  0  0  0
  -24.1520  -13.1290   20.8630 C   0  0  0  0  0  0  0  0  0  0  0  0
  -24.6370  -11.7840   20.8110 C   0  0  0  0  0  0  0  0  0  0  0  0
  -26.2460  -13.0690   20.2200 N   0  0  0  0  0  0  0  0  0  0  0  0
  -25.9260  -11.7720   20.4790 N   0  0  0  0  0  0  0  0  0  0  0  0
  -23.9250  -10.5110   20.9980 C   0  0  0  0  0  0  0  0  0  0  0  0
  -24.3630   -9.5480   21.9340 C   0  0  0  0  0  3  0  0  0  0  0  0
  -23.6450   -8.3460   22.1120 C   0  0  0  0  0  3  0  0  0  0  0  0
  -22.4750   -8.0960   21.3550 C   0  0  0  0  0  0  0  0  0  0  0  0
  -22.0570   -9.0490   20.4090 C   0  0  0  0  0  3  0  0  0  0  0  0
  -22.7750  -10.2420   20.2280 C   0  0  0  0  0  3  0  0  0  0  0  0
  -21.7300   -6.9460   21.4440 O   0  0  0  0  0  0  0  0  0  0  0  0
  -21.6630   -6.2170   22.6050 C   0  0  0  0  0  0  0  0  0  0  0  0
  -21.1810   -6.7760   23.8080 C   0  0  0  0  0  3  0  0  0  0  0  0
  -21.0650   -5.9730   24.9610 C   0  0  0  0  0  3  0  0  0  0  0  0
  -21.4200   -4.6120   24.9100 C   0  0  0  0  0  0  0  0  0  0  0  0
  -21.8940   -4.0520   23.7100 C   0  0  0  0  0  3  0  0  0  0  0  0
  -22.0130   -4.8530   22.5610 C   0  0  0  0  0  0  0  0  0  0  0  0
  -22.4490   -4.3030   21.4020 F   0  0  0  0  0  0  0  0  0  0  0  0
  -21.3010   -3.8390   26.0140 F   0  0  0  0  0  0  0  0  0  0  0  0
  -22.7540  -13.5870   21.1500 C   0  0  0  0  0  0  0  0  0  0  0  0
  -22.0450  -12.8800   22.0230 N   0  0  0  0  0  0  0  0  0  0  0  0
  -22.3000  -14.6090   20.6380 O   0  0  0  0  0  0  0  0  0  0  0  0
  -22.4280  -12.0550   22.4590 H   0  0  0  0  0  0  0  0  0  0  0  0
  -21.1070  -13.1690   22.2600 H   0  0  0  0  0  0  0  0  0  0  0  0
  -25.3380  -15.3000   20.3250 N   0  0  0  0  0  0  0  0  0  0  0  0
  -24.5680  -15.9440   20.4700 H   0  0  0  0  0  0  0  0  0  0  0  0
  -26.1890  -15.7640   20.0280 H   0  0  0  0  0  0  0  0  0  0  0  0
  -26.4030  -23.1160   19.0130 O   0  0  0  0  0  0  0  0  0  0  0  0
  -26.2990  -24.0600   19.0290 H   0  0  0  0  0  0  0  0  0  0  0  0
  -28.1960  -25.5110   20.3350 O   0  0  0  0  0  0  0  0  0  0  0  0
  -24.7150  -31.9010   23.2480 C   0  0  0  0  0  0  0  0  0  0  0  0
  -27.2010  -26.7280   20.3080 C   0  0  0  0  0  0  0  0  0  0  0  0
  -23.5230  -30.5010   21.6170 C   0  0  0  0  0  3  0  0  0  0  0  0
  -24.9610  -28.8230   20.2250 C   0  0  0  0  0  0  0  0  0  0  0  0
  -26.1060  -30.6030   21.5130 C   0  0  0  0  0  2  0  0  0  0  0  0
  -26.1550  -29.1580   20.8700 C   0  0  0  0  0  0  0  0  0  0  0  0
  -27.2540  -28.1390   20.8820 C   0  0  0  0  0  3  0  0  0  0  0  0
  -25.9790  -26.6280   19.5900 C   0  0  0  0  0  3  0  0  0  0  0  0
  -24.9150  -27.5840   19.5610 C   0  0  0  0  0  3  0  0  0  0  0  0
  -23.7660  -29.7920   20.2530 C   0  0  0  0  0  2  0  0  0  0  0  0
  -24.8060  -31.0380   22.1770 N   0  0  0  0  0  0  0  0  0  0  0  0
  -23.6220  -32.2150   23.7500 O   0  0  0  0  0  0  0  0  0  0  0  0
  -22.7930  -29.5390   22.5920 C   0  0  0  0  0  0  0  0  0  0  0  0
  -21.4610  -29.3880   22.4570 N   0  0  0  0  0  0  0  0  0  0  0  0
  -23.4380  -28.9240   23.4440 O   0  0  0  0  0  0  0  0  0  0  0  0
  -20.9900  -29.9330   21.7490 H   0  0  0  0  0  0  0  0  0  0  0  0
  -18.0680  -28.1780   22.9450 C   0  0  0  0  0  0  0  0  0  0  0  0
  -20.6250  -28.4610   23.2320 C   0  0  0  0  0  3  0  0  0  0  0  0
  -20.7370  -27.0200   22.6830 C   0  0  0  0  0  2  0  0  0  0  0  0
  -19.6500  -26.6790   21.6590 C   0  0  0  0  0  2  0  0  0  0  0  0
  -18.2590  -26.8230   22.2840 C   0  0  0  0  0  2  0  0  0  0  0  0
  -19.1780  -28.9540   23.3750 C   0  0  0  0  0  0  0  0  0  0  0  0
  -18.9420  -30.2180   23.9580 C   0  0  0  0  0  3  0  0  0  0  0  0
  -17.6310  -30.7080   24.1120 C   0  0  0  0  0  3  0  0  0  0  0  0
  -16.5370  -29.9310   23.6940 C   0  0  0  0  0  3  0  0  0  0  0  0
  -16.7560  -28.6670   23.1170 C   0  0  0  0  0  3  0  0  0  0  0  0
  -25.9780  -32.5490   23.8900 C   0  0  0  0  0  3  0  0  0  0  0  0
  -25.6620  -33.9550   24.2160 N   0  0  0  0  0  0  0  0  0  0  0  0
  -25.9790  -35.0150   23.4620 C   0  0  0  0  0  0  0  0  0  0  0  0
  -26.6250  -34.9130   22.4160 O   0  0  0  0  0  0  0  0  0  0  0  0
  -25.0840  -34.1060   25.0300 H   0  0  0  0  0  0  0  0  0  0  0  0
  -24.2330  -36.8130   23.1850 C   0  0  0  0  0  1  0  0  0  0  0  0
  -25.5110  -36.4080   23.9370 C   0  0  0  0  0  3  0  0  0  0  0  0
  -27.6750  -37.3140   24.6700 C   0  0  0  0  0  1  0  0  0  0  0  0
  -26.5340  -37.4650   23.7700 N   0  0  0  0  0  0  0  0  0  0  0  0
  -26.1300  -38.3850   23.9230 H   0  0  0  0  0  0  0  0  0  0  0  0
  -26.4630  -31.7970   25.1930 C   0  0  1  0  0  0  0  0  0  0  0  0
  -25.3480  -31.5910   26.2460 C   0  0  0  0  0  1  0  0  0  0  0  0
  -27.0410  -30.4060   24.8510 C   0  0  0  0  0  1  0  0  0  0  0  0
  -27.6090  -32.5930   25.8620 C   0  0  0  0  0  1  0  0  0  0  0  0
  1  2  1  0
  3  6  2  0
  3  4  1  0
  4  1  2  0
  5 49  1  0
  5  2  2  0
  6  5  1  0
  7 16  1  0
  8 13  1  0
  9 10  1  0
  9  8  1  0
 11 10  1  0
 11 22  1  0
 11 12  1  0
 13  7  1  0
 13 12  1  0
 14  7  2  0
 15  4  1  0
 15 16  1  0
 16 18  1  0
 17 15  2  0
 19 20  2  0
 20 39  1  0
 21 20  1  0
 21 24  1  0
 22 23  1  0
 22 19  1  0
 23 21  2  0
 24 25  1  0
 25 26  2  0
 27 30  1  0
 27 26  1  0
 28 27  2  0
 29 28  1  0
 29 24  2  0
 30 31  1  0
 31 32  1  0
 32 33  2  0
 34 33  1  0
 34 38  1  0
 35 34  2  0
 36 31  2  0
 36 35  1  0
 37 36  1  0
 39 40  1  0
 40 43  1  0
 40 42  1  0
 41 39  2  0
 44 45  1  0
 44 19  1  0
 46 44  1  0
 47 48  1  0
 47  6  1  0
 50 61  2  0
 51 49  1  0
 51 56  1  0
 52 60  1  0
 52 62  1  0
 53 59  1  0
 53 55  1  0
 54 60  1  0
 55 56  2  0
 55 54  1  0
 57 51  2  0
 58 57  1  0
 58 53  2  0
 59 52  1  0
 60 50  1  0
 62 64  2  0
 63 62  1  0
 65 63  1  0
 66 75  2  0
 66 71  1  0
 67 63  1  0
 67 71  1  0
 68 67  1  0
 69 70  1  0
 69 68  1  0
 70 66  1  0
 71 72  2  0
 72 73  1  0
 74 73  2  0
 75 74  1  0
 76 50  1  0
 76 77  1  0
 76 86  1  0
 77 80  1  0
 78 82  1  0
 78 77  1  0
 79 78  2  0
 82 81  1  0
 84 85  1  0
 84 82  1  0
 84 83  1  0
 86 89  1  1
 86 87  1  0
 88 86  1  0
M  ISO  4   5 101   7 100  16 100  49 101
M  END
>  <TORSDO>  (10) 
F 17

>  <SCORE>  (10) 
-15.746

>  <name>  (10) 
9

>  <ligand_id>  (10) 
9

>  <original_smiles>  (10) 
[H]Oc1c([H])c(C(=O)N([H])C(=O)N2C([H])([H])C([H])([H])C([H])([H])C([H])(n3nc(-c4c([H])c([H])c(Oc5c([H])c([H])c(F)c([H])c5F)c([H])c4[H])c(C(=O)N([H])[H])c3N([H])[H])C2([H])[H])c([H])c([H])c1Oc1c([H])c([H])c2c(c1[H])C([H])([H])N(C(=O)C([H])(N([H])C(=O)C([H])(N([H])C([H])([H])[H])C([H])([H])[H])C(C([H])([H])[H])(C([H])([H])[H])C([H])([H])[H])C([H])(C(=O)N([H])C1([H])c3c([H])c([H])c([H])c([H])c3C([H])([H])C([H])([H])C1([H])[H])C2([H])[H]

>  <smiles>  (10) 
[H]Oc1c([H])c(C(=O)N([H])C(=O)N2C([H])([H])C([H])([H])C([H])([H])C([H])(n3nc(-c4c([H])c([H])c(Oc5c([H])c([H])c(F)c([H])c5F)c([H])c4[H])c(C(=O)N([H])[H])c3N([H])[H])C2([H])[H])c([H])c([H])c1Oc1c([H])c([H])c2c(c1[H])C([H])([H])N(C(=O)C([H])(N([H])C(=O)C([H])(N([H])C([H])([H])[H])C([H])([H])[H])C(C([H])([H])[H])(C([H])([H])[H])C([H])([H])[H])C([H])(C(=O)N([H])C1([H])c3c([H])c([H])c([H])c([H])c3C([H])([H])C([H])([H])C1([H])[H])C2([H])[H]

$$$$
10:0:0
     RDKit          3D

 88 96  0  0  1  0  0  0  0  0999 V2000
  -30.7440  -23.6500   18.6900 C   0  0  0  0  0  2  0  0  0  0  0  0
  -31.2280  -23.7380   20.1410 C   0  0  0  0  0  2  0  0  0  0  0  0
  -29.7090  -22.5230   18.6620 C   0  0  0  0  0  2  0  0  0  0  0  0
  -30.4010  -22.7160   20.9320 C   0  0  0  0  0  2  0  0  0  0  0  0
  -29.1540  -22.4000   20.0900 C   0  0  2  0  0  0  0  0  0  0  0  0
  -28.9190  -20.5430   20.3150 C   0  0  0  0  0  3  0  0  0  0  0  0
  -29.8510  -18.9390   19.9610 C   0  0  0  0  0  3  0  0  0  0  0  0
  -29.7480  -17.1180   21.8720 C   0  0  0  0  0  1  0  0  0  0  0  0
  -28.1600  -16.9250   19.9650 C   0  0  0  0  0  1  0  0  0  0  0  0
  -29.6270  -17.1090   20.3360 C   0  0  1  0  0  0  0  0  0  0  0  0
  -30.4010  -15.4920   19.9010 C   0  0  0  0  0  0  0  0  0  0  0  0
  -30.3730  -13.0190   18.9340 C   0  0  0  0  0  2  0  0  0  0  0  0
  -29.3640  -12.7830   17.7730 C   0  0  0  0  0  2  0  0  0  0  0  0
  -27.9610  -12.4490   18.3100 C   0  0  0  0  0  2  0  0  0  0  0  0
  -27.5770  -13.3760   19.4860 C   0  0  0  0  0  3  0  0  0  0  0  0
  -28.7090  -13.5300   20.5290 C   0  0  0  0  0  2  0  0  0  0  0  0
  -29.8750  -14.1370   19.8420 N   0  0  0  0  0  0  0  0  0  0  0  0
  -31.5870  -15.4670   19.5310 O   0  0  0  0  0  0  0  0  0  0  0  0
  -25.2620  -13.8880   20.4340 C   0  0  0  0  0  0  0  0  0  0  0  0
  -24.2370  -13.0980   20.8600 C   0  0  0  0  0  0  0  0  0  0  0  0
  -24.7020  -11.7530   20.7430 C   0  0  0  0  0  0  0  0  0  0  0  0
  -26.2920  -13.0310   20.0850 N   0  0  0  0  0  0  0  0  0  0  0  0
  -25.9690  -11.7340   20.3350 N   0  0  0  0  0  0  0  0  0  0  0  0
  -23.9850  -10.4860   20.9350 C   0  0  0  0  0  0  0  0  0  0  0  0
  -24.4390   -9.5100   21.8470 C   0  0  0  0  0  3  0  0  0  0  0  0
  -23.7150   -8.3120   22.0320 C   0  0  0  0  0  3  0  0  0  0  0  0
  -22.5240   -8.0830   21.3040 C   0  0  0  0  0  0  0  0  0  0  0  0
  -22.0880   -9.0490   20.3790 C   0  0  0  0  0  3  0  0  0  0  0  0
  -22.8110  -10.2380   20.1930 C   0  0  0  0  0  3  0  0  0  0  0  0
  -21.7700   -6.9380   21.3980 O   0  0  0  0  0  0  0  0  0  0  0  0
  -21.7060   -6.2140   22.5620 C   0  0  0  0  0  0  0  0  0  0  0  0
  -21.2560   -6.7870   23.7710 C   0  0  0  0  0  3  0  0  0  0  0  0
  -21.1390   -5.9900   24.9270 C   0  0  0  0  0  3  0  0  0  0  0  0
  -21.4620   -4.6200   24.8740 C   0  0  0  0  0  0  0  0  0  0  0  0
  -21.9050   -4.0470   23.6690 C   0  0  0  0  0  3  0  0  0  0  0  0
  -22.0230   -4.8420   22.5160 C   0  0  0  0  0  0  0  0  0  0  0  0
  -22.4310   -4.2800   21.3530 F   0  0  0  0  0  0  0  0  0  0  0  0
  -21.3410   -3.8530   25.9830 F   0  0  0  0  0  0  0  0  0  0  0  0
  -22.8660  -13.5670   21.2480 C   0  0  0  0  0  0  0  0  0  0  0  0
  -22.2090  -12.8540   22.1560 N   0  0  0  0  0  0  0  0  0  0  0  0
  -22.3910  -14.6040   20.7860 O   0  0  0  0  0  0  0  0  0  0  0  0
  -22.6090  -12.0170   22.5510 H   0  0  0  0  0  0  0  0  0  0  0  0
  -21.2930  -13.1520   22.4600 H   0  0  0  0  0  0  0  0  0  0  0  0
  -25.3770  -15.2640   20.2830 N   0  0  0  0  0  0  0  0  0  0  0  0
  -24.6010  -15.8890   20.4750 H   0  0  0  0  0  0  0  0  0  0  0  0
  -26.1760  -15.7360   19.8820 H   0  0  0  0  0  0  0  0  0  0  0  0
  -28.0920  -23.9520   20.2790 C   0  0  0  0  0  2  0  0  0  0  0  0
  -28.2690  -25.6560   20.2500 O   0  0  0  0  0  0  0  0  0  0  0  0
  -24.6390  -31.7780   23.1430 C   0  0  0  0  0  0  0  0  0  0  0  0
  -27.2490  -26.7920   20.2040 C   0  0  0  0  0  0  0  0  0  0  0  0
  -23.4720  -30.3580   21.5080 C   0  0  0  0  0  3  0  0  0  0  0  0
  -24.9450  -28.7290   20.1190 C   0  0  0  0  0  0  0  0  0  0  0  0
  -26.0450  -30.5540   21.3920 C   0  0  0  0  0  2  0  0  0  0  0  0
  -26.1300  -29.1270   20.7490 C   0  0  0  0  0  0  0  0  0  0  0  0
  -27.2720  -28.1850   20.7570 C   0  0  0  0  0  3  0  0  0  0  0  0
  -26.0260  -26.5720   19.5270 C   0  0  0  0  0  3  0  0  0  0  0  0
  -24.9250  -27.4740   19.4850 C   0  0  0  0  0  3  0  0  0  0  0  0
  -23.7240  -29.6560   20.1440 C   0  0  0  0  0  2  0  0  0  0  0  0
  -24.7410  -30.9270   22.0670 N   0  0  0  0  0  0  0  0  0  0  0  0
  -23.5410  -32.0680   23.6480 O   0  0  0  0  0  0  0  0  0  0  0  0
  -22.7660  -29.3750   22.4800 C   0  0  0  0  0  0  0  0  0  0  0  0
  -21.4320  -29.2270   22.3660 N   0  0  0  0  0  0  0  0  0  0  0  0
  -23.4270  -28.7430   23.3070 O   0  0  0  0  0  0  0  0  0  0  0  0
  -20.9490  -29.7870   21.6770 H   0  0  0  0  0  0  0  0  0  0  0  0
  -18.0390  -28.0540   22.9130 C   0  0  0  0  0  0  0  0  0  0  0  0
  -20.6050  -28.2950   23.1420 C   0  0  0  0  0  3  0  0  0  0  0  0
  -20.6830  -26.8650   22.5570 C   0  0  0  0  0  2  0  0  0  0  0  0
  -19.5650  -26.5610   21.5550 C   0  0  0  0  0  2  0  0  0  0  0  0
  -18.1940  -26.7110   22.2200 C   0  0  0  0  0  2  0  0  0  0  0  0
  -19.1710  -28.8050   23.3320 C   0  0  0  0  0  0  0  0  0  0  0  0
  -18.9690  -30.0600   23.9450 C   0  0  0  0  0  3  0  0  0  0  0  0
  -17.6700  -30.5660   24.1420 C   0  0  0  0  0  3  0  0  0  0  0  0
  -16.5540  -29.8130   23.7360 C   0  0  0  0  0  3  0  0  0  0  0  0
  -16.7390  -28.5600   23.1290 C   0  0  0  0  0  3  0  0  0  0  0  0
  -25.8960  -32.4390   23.7860 C   0  0  0  0  0  3  0  0  0  0  0  0
  -26.4120  -31.6730   25.0670 C   0  0  1  0  0  0  0  0  0  0  0  0
  -25.3140  -31.4180   26.1270 C   0  0  0  0  0  1  0  0  0  0  0  0
  -27.0180  -30.3030   24.6860 C   0  0  0  0  0  1  0  0  0  0  0  0
  -27.5470  -32.4810   25.7390 C   0  0  0  0  0  1  0  0  0  0  0  0
  -25.5510  -33.8300   24.1380 N   0  0  0  0  0  0  0  0  0  0  0  0
  -25.8610  -34.9090   23.4070 C   0  0  0  0  0  0  0  0  0  0  0  0
  -26.5240  -34.8410   22.3700 O   0  0  0  0  0  0  0  0  0  0  0  0
  -24.9570  -33.9540   24.9450 H   0  0  0  0  0  0  0  0  0  0  0  0
  -24.0960  -36.6850   23.1200 C   0  0  0  0  0  1  0  0  0  0  0  0
  -25.3560  -36.2820   23.9020 C   0  0  0  0  0  3  0  0  0  0  0  0
  -27.4850  -37.1970   24.7200 C   0  0  0  0  0  1  0  0  0  0  0  0
  -26.3680  -37.3580   23.7940 N   0  0  0  0  0  0  0  0  0  0  0  0
  -25.9450  -38.2670   23.9600 H   0  0  0  0  0  0  0  0  0  0  0  0
  1  2  1  0
  2  4  1  0
  3  1  1  0
  3  5  1  0
  5 47  1  6
  5  6  1  0
  5  4  1  0
  7  6  2  0
  7 10  1  0
 10  9  1  1
 10  8  1  0
 11 10  1  0
 12 17  1  0
 13 14  1  0
 13 12  1  0
 15 14  1  0
 15 22  1  0
 15 16  1  0
 17 11  1  0
 17 16  1  0
 18 11  2  0
 19 20  2  0
 20 39  1  0
 21 20  1  0
 21 24  1  0
 22 23  1  0
 22 19  1  0
 23 21  2  0
 24 25  1  0
 25 26  2  0
 27 30  1  0
 27 26  1  0
 28 27  2  0
 29 28  1  0
 29 24  2  0
 30 31  1  0
 31 32  1  0
 32 33  2  0
 34 33  1  0
 34 38  1  0
 35 34  2  0
 36 31  2  0
 36 35  1  0
 37 36  1  0
 39 40  1  0
 40 43  1  0
 40 42  1  0
 41 39  2  0
 44 19  1  0
 44 45  1  0
 46 44  1  0
 48 47  1  0
 49 60  2  0
 50 48  1  0
 50 55  1  0
 51 59  1  0
 51 61  1  0
 52 58  1  0
 52 54  1  0
 53 59  1  0
 54 55  2  0
 54 53  1  0
 56 50  2  0
 57 56  1  0
 57 52  2  0
 58 51  1  0
 59 49  1  0
 61 63  2  0
 62 61  1  0
 64 62  1  0
 65 74  2  0
 65 70  1  0
 66 62  1  0
 66 70  1  0
 67 66  1  0
 68 69  1  0
 68 67  1  0
 69 65  1  0
 70 71  2  0
 71 72  1  0
 73 72  2  0
 74 73  1  0
 75 49  1  0
 75 80  1  0
 75 76  1  0
 76 79  1  1
 76 77  1  0
 78 76  1  0
 80 83  1  0
 81 85  1  0
 81 80  1  0
 82 81  2  0
 85 84  1  0
 87 85  1  0
 87 88  1  0
 87 86  1  0
M  ISO  4  10 100  11 100  47 101  48 101
M  END
>  <TORSDO>  (11) 
F 20

>  <SCORE>  (11) 
-16.353

>  <name>  (11) 
10

>  <ligand_id>  (11) 
10

>  <original_smiles>  (11) 
[H]c1c([H])c([H])c2c(c1[H])C([H])([H])C([H])([H])C([H])([H])C2([H])N([H])C(=O)C1([H])N(C(=O)C([H])(N([H])C(=O)C([H])(N([H])C([H])([H])[H])C([H])([H])[H])C(C([H])([H])[H])(C([H])([H])[H])C([H])([H])[H])C([H])([H])c2c([H])c(OC([H])([H])C3(C([H])([H])C([H])([H])C(C(=O)N4C([H])([H])C([H])([H])C([H])([H])C([H])(n5nc(-c6c([H])c([H])c(Oc7c([H])c([H])c(F)c([H])c7F)c([H])c6[H])c(C(=O)N([H])[H])c5N([H])[H])C4([H])[H])(C([H])([H])[H])C([H])([H])[H])C([H])([H])C([H])([H])C([H])([H])C3([H])[H])c([H])c([H])c2C1([H])[H]

>  <smiles>  (11) 
[H]c1c([H])c([H])c2c(c1[H])C([H])([H])C([H])([H])C([H])([H])C2([H])N([H])C(=O)C1([H])N(C(=O)C([H])(N([H])C(=O)C([H])(N([H])C([H])([H])[H])C([H])([H])[H])C(C([H])([H])[H])(C([H])([H])[H])C([H])([H])[H])C([H])([H])c2c([H])c(OC([H])([H])C3(C([H])([H])C([H])([H])C(C(=O)N4C([H])([H])C([H])([H])C([H])([H])C([H])(n5nc(-c6c([H])c([H])c(Oc7c([H])c([H])c(F)c([H])c7F)c([H])c6[H])c(C(=O)N([H])[H])c5N([H])[H])C4([H])[H])(C([H])([H])[H])C([H])([H])[H])C([H])([H])C([H])([H])C([H])([H])C3([H])[H])c([H])c([H])c2C1([H])[H]

$$$$
11:0:0
     RDKit          3D

 94103  0  0  1  0  0  0  0  0999 V2000
  -29.4060  -23.3710   19.0250 C   0  0  0  0  0  3  0  0  0  0  0  0
  -29.3430  -24.7810   18.9020 C   0  0  0  0  0  3  0  0  0  0  0  0
  -28.1310  -24.9520   21.0150 C   0  0  0  0  0  3  0  0  0  0  0  0
  -28.8250  -22.7600   20.1550 C   0  0  0  0  0  0  0  0  0  0  0  0
  -28.1980  -23.5460   21.1200 C   0  0  0  0  0  0  0  0  0  0  0  0
  -28.7030  -25.5830   19.8820 C   0  0  0  0  0  0  0  0  0  0  0  0
  -27.5990  -22.7010   22.2110 C   0  0  0  0  0  2  0  0  0  0  0  0
  -28.1530  -21.2840   21.9290 C   0  0  0  0  0  2  0  0  0  0  0  0
  -28.7000  -21.2690   20.4720 C   0  0  0  0  0  3  0  0  0  0  0  0
  -29.9490  -20.4730   20.3170 N   0  0  0  0  0  4  0  0  0  0  0  0
  -30.6790  -20.9230   20.8420 H   0  0  0  0  0  0  0  0  0  0  0  0
  -30.2090  -20.5120   19.3440 H   0  0  0  0  0  0  0  0  0  0  0  0
  -29.8620  -19.0360   20.7250 C   0  0  0  0  0  2  0  0  0  0  0  0
  -31.1420  -18.2170   20.3890 C   0  0  0  0  0  2  0  0  0  0  0  0
  -31.3900  -16.9400   21.2460 C   0  0  0  0  0  2  0  0  0  0  0  0
  -31.3190  -14.7150   20.0690 C   0  0  0  0  0  0  0  0  0  0  0  0
  -30.9340  -12.5260   18.9810 C   0  0  0  0  0  2  0  0  0  0  0  0
  -29.9650  -12.6830   17.7920 C   0  0  0  0  0  2  0  0  0  0  0  0
  -28.5000  -12.6000   18.2640 C   0  0  0  0  0  2  0  0  0  0  0  0
  -28.2130  -13.5110   19.4860 C   0  0  0  0  0  3  0  0  0  0  0  0
  -29.2850  -13.3110   20.5800 C   0  0  0  0  0  2  0  0  0  0  0  0
  -30.6020  -13.5630   19.9710 N   0  0  0  0  0  0  0  0  0  0  0  0
  -32.4060  -14.8790   19.5080 O   0  0  0  0  0  0  0  0  0  0  0  0
  -30.7430  -15.7010   20.7850 N   0  0  0  0  0  0  0  0  0  0  0  0
  -29.8400  -15.4820   21.1800 H   0  0  0  0  0  0  0  0  0  0  0  0
  -25.8710  -14.2300   20.2780 C   0  0  0  0  0  0  0  0  0  0  0  0
  -24.7780  -13.5090   20.6760 C   0  0  0  0  0  0  0  0  0  0  0  0
  -25.1700  -12.1360   20.6160 C   0  0  0  0  0  0  0  0  0  0  0  0
  -26.8640  -13.3010   20.0060 N   0  0  0  0  0  0  0  0  0  0  0  0
  -26.4450  -12.0350   20.2650 N   0  0  0  0  0  0  0  0  0  0  0  0
  -24.3890  -10.9100   20.8190 C   0  0  0  0  0  0  0  0  0  0  0  0
  -24.7580   -9.9500   21.7860 C   0  0  0  0  0  3  0  0  0  0  0  0
  -23.9800   -8.7880   21.9740 C   0  0  0  0  0  3  0  0  0  0  0  0
  -22.8170   -8.5780   21.1950 C   0  0  0  0  0  0  0  0  0  0  0  0
  -22.4670   -9.5250   20.2180 C   0  0  0  0  0  3  0  0  0  0  0  0
  -23.2450  -10.6790   20.0280 C   0  0  0  0  0  3  0  0  0  0  0  0
  -22.0150   -7.4670   21.2910 O   0  0  0  0  0  0  0  0  0  0  0  0
  -21.8430   -6.8030   22.4790 C   0  0  0  0  0  0  0  0  0  0  0  0
  -21.3040   -7.4410   23.6170 C   0  0  0  0  0  3  0  0  0  0  0  0
  -21.0800   -6.7040   24.7970 C   0  0  0  0  0  3  0  0  0  0  0  0
  -21.3840   -5.3300   24.8390 C   0  0  0  0  0  0  0  0  0  0  0  0
  -21.9160   -4.6920   23.7050 C   0  0  0  0  0  3  0  0  0  0  0  0
  -22.1420   -5.4260   22.5270 C   0  0  0  0  0  0  0  0  0  0  0  0
  -22.6340   -4.8020   21.4300 F   0  0  0  0  0  0  0  0  0  0  0  0
  -21.1620   -4.6200   25.9700 F   0  0  0  0  0  0  0  0  0  0  0  0
  -23.4170  -14.0530   20.9990 C   0  0  0  0  0  0  0  0  0  0  0  0
  -22.6880  -13.3880   21.8900 N   0  0  0  0  0  0  0  0  0  0  0  0
  -23.0110  -15.1000   20.4990 O   0  0  0  0  0  0  0  0  0  0  0  0
  -23.0300  -12.5390   22.3140 H   0  0  0  0  0  0  0  0  0  0  0  0
  -21.7750  -13.7340   22.1490 H   0  0  0  0  0  0  0  0  0  0  0  0
  -26.1010  -15.5930   20.1080 N   0  0  0  0  0  0  0  0  0  0  0  0
  -25.3710  -16.2840   20.2430 H   0  0  0  0  0  0  0  0  0  0  0  0
  -26.9600  -15.9890   19.7480 H   0  0  0  0  0  0  0  0  0  0  0  0
  -28.6760  -26.9590   19.7210 O   0  0  0  0  0  0  0  0  0  0  0  0
  -24.7230  -31.7380   23.2490 C   0  0  0  0  0  0  0  0  0  0  0  0
  -27.4820  -27.6460   19.8010 C   0  0  0  0  0  0  0  0  0  0  0  0
  -23.5550  -30.4610   21.4820 C   0  0  0  0  0  3  0  0  0  0  0  0
  -25.0480  -29.0880   19.9340 C   0  0  0  0  0  0  0  0  0  0  0  0
  -26.0710  -30.8930   21.3290 C   0  0  0  0  0  2  0  0  0  0  0  0
  -26.1910  -29.5840   20.5740 C   0  0  0  0  0  0  0  0  0  0  0  0
  -27.4090  -28.8690   20.5080 C   0  0  0  0  0  3  0  0  0  0  0  0
  -26.3230  -27.1670   19.1500 C   0  0  0  0  0  3  0  0  0  0  0  0
  -25.1090  -27.8780   19.2200 C   0  0  0  0  0  3  0  0  0  0  0  0
  -23.7840  -29.9120   20.0480 C   0  0  0  0  0  2  0  0  0  0  0  0
  -24.8000  -31.0410   22.0790 N   0  0  0  0  0  0  0  0  0  0  0  0
  -23.6350  -31.9380   23.8060 O   0  0  0  0  0  0  0  0  0  0  0  0
  -22.9250  -29.3440   22.3440 C   0  0  0  0  0  0  0  0  0  0  0  0
  -21.6070  -29.1390   22.1880 N   0  0  0  0  0  0  0  0  0  0  0  0
  -23.6190  -28.6680   23.1080 O   0  0  0  0  0  0  0  0  0  0  0  0
  -21.1080  -29.7400   21.5480 H   0  0  0  0  0  0  0  0  0  0  0  0
  -18.2610  -27.8210   22.5490 C   0  0  0  0  0  0  0  0  0  0  0  0
  -20.8100  -28.1160   22.8640 C   0  0  0  0  0  3  0  0  0  0  0  0
  -20.9530  -26.7450   22.1650 C   0  0  0  0  0  2  0  0  0  0  0  0
  -19.8660  -26.4880   21.1160 C   0  0  0  0  0  2  0  0  0  0  0  0
  -18.4760  -26.5410   21.7570 C   0  0  0  0  0  2  0  0  0  0  0  0
  -19.3580  -28.5680   23.0540 C   0  0  0  0  0  0  0  0  0  0  0  0
  -19.1050  -29.7690   23.7520 C   0  0  0  0  0  3  0  0  0  0  0  0
  -17.7880  -30.2240   23.9490 C   0  0  0  0  0  3  0  0  0  0  0  0
  -16.7060  -29.4720   23.4610 C   0  0  0  0  0  3  0  0  0  0  0  0
  -16.9430  -28.2720   22.7670 C   0  0  0  0  0  3  0  0  0  0  0  0
  -25.9940  -32.3400   23.9290 C   0  0  0  0  0  3  0  0  0  0  0  0
  -26.5080  -31.4860   25.1520 C   0  0  1  0  0  0  0  0  0  0  0  0
  -25.4070  -31.1570   26.1870 C   0  0  0  0  0  1  0  0  0  0  0  0
  -27.1140  -30.1480   24.6690 C   0  0  0  0  0  1  0  0  0  0  0  0
  -27.6410  -32.2460   25.8820 C   0  0  0  0  0  1  0  0  0  0  0  0
  -25.6640  -33.7070   24.3500 N   0  0  0  0  0  0  0  0  0  0  0  0
  -25.9810  -34.8120   23.6620 C   0  0  0  0  0  0  0  0  0  0  0  0
  -26.6550  -34.7870   22.6290 O   0  0  0  0  0  0  0  0  0  0  0  0
  -25.0690  -33.8010   25.1600 H   0  0  0  0  0  0  0  0  0  0  0  0
  -24.2200  -36.5900   23.4270 C   0  0  0  0  0  1  0  0  0  0  0  0
  -25.4710  -36.1590   24.2080 C   0  0  0  0  0  3  0  0  0  0  0  0
  -27.5870  -37.0330   25.0940 C   0  0  0  0  0  1  0  0  0  0  0  0
  -26.4830  -37.2380   24.1600 N   0  0  0  0  0  0  0  0  0  0  0  0
  -26.0600  -38.1390   24.3640 H   0  0  0  0  0  0  0  0  0  0  0  0
  1  4  1  0
  2  1  2  0
  2  6  1  0
  3  5  1  0
  4  9  1  0
  4  5  2  0
  5  7  1  0
  6  3  2  0
  8  7  1  0
  9 10  1  0
  9  8  1  0
 10 13  1  0
 10 11  1  0
 12 10  1  0
 14 13  1  0
 14 15  1  0
 16 24  1  0
 17 22  1  0
 18 19  1  0
 18 17  1  0
 20 19  1  0
 20 29  1  0
 20 21  1  0
 22 16  1  0
 22 21  1  0
 23 16  2  0
 24 25  1  0
 24 15  1  0
 26 27  2  0
 27 46  1  0
 28 27  1  0
 28 31  1  0
 29 30  1  0
 29 26  1  0
 30 28  2  0
 31 32  1  0
 32 33  2  0
 34 37  1  0
 34 33  1  0
 35 34  2  0
 36 35  1  0
 36 31  2  0
 37 38  1  0
 38 43  2  0
 38 39  1  0
 39 40  2  0
 40 41  1  0
 41 45  1  0
 42 41  2  0
 43 42  1  0
 44 43  1  0
 46 47  1  0
 47 50  1  0
 47 49  1  0
 48 46  2  0
 51 52  1  0
 51 26  1  0
 53 51  1  0
 54 56  1  0
 54  6  1  0
 55 66  2  0
 56 61  1  0
 57 65  1  0
 57 67  1  0
 58 64  1  0
 58 60  1  0
 59 65  1  0
 60 59  1  0
 61 60  2  0
 62 63  1  0
 62 56  2  0
 63 58  2  0
 64 57  1  0
 65 55  1  0
 67 69  2  0
 68 67  1  0
 70 68  1  0
 71 80  2  0
 71 76  1  0
 72 68  1  0
 72 76  1  0
 73 72  1  0
 74 75  1  0
 74 73  1  0
 75 71  1  0
 76 77  2  0
 77 78  1  0
 79 78  2  0
 80 79  1  0
 81 55  1  0
 81 86  1  0
 81 82  1  0
 82 85  1  1
 82 83  1  0
 84 82  1  0
 86 89  1  0
 87 91  1  0
 87 86  1  0
 88 87  2  0
 91 90  1  0
 93 91  1  0
 93 94  1  0
 93 92  1  0
M  ISO  4   6 101  16 100  24 100  54 101
M  END
>  <TORSDO>  (12) 
F 20

>  <SCORE>  (12) 
-11.953

>  <name>  (12) 
11

>  <ligand_id>  (12) 
11

>  <original_smiles>  (12) 
[H]c1c([H])c([H])c2c(c1[H])C([H])([H])C([H])([H])C([H])([H])C2([H])N([H])C(=O)C1([H])N(C(=O)C([H])(N([H])C(=O)C([H])(N([H])C([H])([H])[H])C([H])([H])[H])C(C([H])([H])[H])(C([H])([H])[H])C([H])([H])[H])C([H])([H])c2c([H])c(Oc3c([H])c([H])c4c(c3[H])C([H])([H])C([H])([H])C4([H])[N+]([H])([H])C([H])([H])C([H])([H])C([H])([H])N([H])C(=O)N3C([H])([H])C([H])([H])C([H])([H])C([H])(n4nc(-c5c([H])c([H])c(Oc6c([H])c([H])c(F)c([H])c6F)c([H])c5[H])c(C(=O)N([H])[H])c4N([H])[H])C3([H])[H])c([H])c([H])c2C1([H])[H]

>  <smiles>  (12) 
[H]c1c([H])c([H])c2c(c1[H])C([H])([H])C([H])([H])C([H])([H])C2([H])N([H])C(=O)C1([H])N(C(=O)C([H])(N([H])C(=O)C([H])(N([H])C([H])([H])[H])C([H])([H])[H])C(C([H])([H])[H])(C([H])([H])[H])C([H])([H])[H])C([H])([H])c2c([H])c(Oc3c([H])c([H])c4c(c3[H])C([H])([H])C([H])([H])C4([H])[N+]([H])([H])C([H])([H])C([H])([H])C([H])([H])N([H])C(=O)N3C([H])([H])C([H])([H])C([H])([H])C([H])(n4nc(-c5c([H])c([H])c(Oc6c([H])c([H])c(F)c([H])c6F)c([H])c5[H])c(C(=O)N([H])[H])c4N([H])[H])C3([H])[H])c([H])c([H])c2C1([H])[H]

$$$$
12:0:0
     RDKit          3D

 89 98  0  0  1  0  0  0  0  0999 V2000
  -31.0900  -14.7440   19.8610 C   0  0  0  0  0  0  0  0  0  0  0  0
  -30.7710  -12.4110   19.0220 C   0  0  0  0  0  2  0  0  0  0  0  0
  -29.7980  -12.4020   17.8220 C   0  0  0  0  0  2  0  0  0  0  0  0
  -28.3420  -12.2910   18.3110 C   0  0  0  0  0  2  0  0  0  0  0  0
  -28.0230  -13.2840   19.4610 C   0  0  0  0  0  3  0  0  0  0  0  0
  -29.1130  -13.2650   20.5500 C   0  0  0  0  0  2  0  0  0  0  0  0
  -30.3990  -13.5510   19.8970 N   0  0  0  0  0  0  0  0  0  0  0  0
  -32.2290  -14.7600   19.3820 O   0  0  0  0  0  0  0  0  0  0  0  0
  -28.9190  -20.0730   20.8680 C   0  0  0  0  0  3  0  0  0  0  0  0
  -29.3520  -18.7050   20.6830 C   0  0  0  0  0  0  0  0  0  0  0  0
  -30.0850  -18.5150   19.5520 C   0  0  0  0  0  0  0  0  0  0  0  0
  -29.3070  -20.9880   19.9010 C   0  0  0  0  0  0  0  0  0  0  0  0
  -29.0970  -17.5220   21.5830 C   0  0  0  0  0  2  0  0  0  0  0  0
  -30.6770  -17.1390   19.1440 C   0  0  0  0  0  2  0  0  0  0  0  0
  -30.1900  -16.4180   21.4500 C   0  0  0  0  0  2  0  0  0  0  0  0
  -30.4230  -15.9510   20.0620 N   0  0  0  0  0  0  0  0  0  0  0  0
  -30.2530  -20.0820   18.6950 S   0  0  0  0  0  0  0  0  0  0  0  0
  -25.7170  -13.9870   20.3360 C   0  0  0  0  0  0  0  0  0  0  0  0
  -24.6310  -13.2640   20.7500 C   0  0  0  0  0  0  0  0  0  0  0  0
  -25.0170  -11.8910   20.6650 C   0  0  0  0  0  0  0  0  0  0  0  0
  -26.6940  -13.0590   20.0200 N   0  0  0  0  0  0  0  0  0  0  0  0
  -26.2840  -11.7910   20.2810 N   0  0  0  0  0  0  0  0  0  0  0  0
  -24.2330  -10.6650   20.8710 C   0  0  0  0  0  0  0  0  0  0  0  0
  -24.6400   -9.6740   21.7900 C   0  0  0  0  0  3  0  0  0  0  0  0
  -23.8590   -8.5130   21.9850 C   0  0  0  0  0  3  0  0  0  0  0  0
  -22.6560   -8.3380   21.2600 C   0  0  0  0  0  0  0  0  0  0  0  0
  -22.2680   -9.3180   20.3290 C   0  0  0  0  0  3  0  0  0  0  0  0
  -23.0490  -10.4690   20.1340 C   0  0  0  0  0  3  0  0  0  0  0  0
  -21.8480   -7.2320   21.3630 O   0  0  0  0  0  0  0  0  0  0  0  0
  -21.7540   -6.5170   22.5300 C   0  0  0  0  0  0  0  0  0  0  0  0
  -21.3080   -7.1070   23.7330 C   0  0  0  0  0  3  0  0  0  0  0  0
  -21.1590   -6.3190   24.8910 C   0  0  0  0  0  3  0  0  0  0  0  0
  -21.4450   -4.9410   24.8490 C   0  0  0  0  0  0  0  0  0  0  0  0
  -21.8840   -4.3500   23.6500 C   0  0  0  0  0  3  0  0  0  0  0  0
  -22.0340   -5.1350   22.4940 C   0  0  0  0  0  0  0  0  0  0  0  0
  -22.4370   -4.5570   21.3370 F   0  0  0  0  0  0  0  0  0  0  0  0
  -21.2950   -4.1830   25.9600 F   0  0  0  0  0  0  0  0  0  0  0  0
  -23.2810  -13.8100   21.1110 C   0  0  0  0  0  0  0  0  0  0  0  0
  -22.5660  -13.1360   22.0040 N   0  0  0  0  0  0  0  0  0  0  0  0
  -22.8720  -14.8690   20.6350 O   0  0  0  0  0  0  0  0  0  0  0  0
  -22.9100  -12.2790   22.4110 H   0  0  0  0  0  0  0  0  0  0  0  0
  -21.6610  -13.4840   22.2890 H   0  0  0  0  0  0  0  0  0  0  0  0
  -25.9470  -15.3520   20.1790 N   0  0  0  0  0  0  0  0  0  0  0  0
  -25.2280  -16.0450   20.3520 H   0  0  0  0  0  0  0  0  0  0  0  0
  -26.8040  -15.7510   19.8170 H   0  0  0  0  0  0  0  0  0  0  0  0
  -28.9370  -22.5190   19.9810 C   0  0  0  0  0  2  0  0  0  0  0  0
  -29.0460  -23.6550   18.8500 C   0  0  0  0  0  2  0  0  0  0  0  0
  -28.4010  -25.0740   19.2800 C   0  0  0  0  0  2  0  0  0  0  0  0
  -28.2670  -26.2620   18.3810 O   0  0  0  0  0  0  0  0  0  0  0  0
  -24.7300  -31.0120   22.5630 C   0  0  0  0  0  0  0  0  0  0  0  0
  -27.1540  -27.0950   18.5940 C   0  0  0  0  0  0  0  0  0  0  0  0
  -23.4150  -29.8480   20.8280 C   0  0  0  0  0  3  0  0  0  0  0  0
  -24.7640  -28.6060   19.0440 C   0  0  0  0  0  0  0  0  0  0  0  0
  -25.9180  -30.2910   20.4760 C   0  0  0  0  0  2  0  0  0  0  0  0
  -25.9730  -29.0370   19.6090 C   0  0  0  0  0  0  0  0  0  0  0  0
  -27.1720  -28.2960   19.3730 C   0  0  0  0  0  3  0  0  0  0  0  0
  -25.9250  -26.7300   18.0060 C   0  0  0  0  0  3  0  0  0  0  0  0
  -24.7420  -27.4610   18.2310 C   0  0  0  0  0  3  0  0  0  0  0  0
  -23.5160  -29.4120   19.3430 C   0  0  0  0  0  2  0  0  0  0  0  0
  -24.7110  -30.3930   21.3460 N   0  0  0  0  0  0  0  0  0  0  0  0
  -23.6950  -31.1570   23.2290 O   0  0  0  0  0  0  0  0  0  0  0  0
  -22.8690  -28.6660   21.6650 C   0  0  0  0  0  0  0  0  0  0  0  0
  -21.5460  -28.4420   21.6060 N   0  0  0  0  0  0  0  0  0  0  0  0
  -23.6330  -27.9600   22.3290 O   0  0  0  0  0  0  0  0  0  0  0  0
  -20.9840  -29.0690   21.0470 H   0  0  0  0  0  0  0  0  0  0  0  0
  -18.2680  -27.0050   22.1490 C   0  0  0  0  0  0  0  0  0  0  0  0
  -20.8270  -27.3590   22.2780 C   0  0  0  0  0  3  0  0  0  0  0  0
  -20.9440  -26.0360   21.4850 C   0  0  0  0  0  2  0  0  0  0  0  0
  -19.7830  -25.8120   20.5110 C   0  0  0  0  0  2  0  0  0  0  0  0
  -18.4500  -25.7820   21.2660 C   0  0  0  0  0  2  0  0  0  0  0  0
  -19.3820  -27.7540   22.6110 C   0  0  0  0  0  0  0  0  0  0  0  0
  -19.1550  -28.9020   23.4010 C   0  0  0  0  0  3  0  0  0  0  0  0
  -17.8470  -29.3030   23.7300 C   0  0  0  0  0  3  0  0  0  0  0  0
  -16.7480  -28.5480   23.2830 C   0  0  0  0  0  3  0  0  0  0  0  0
  -16.9600  -27.4010   22.4970 C   0  0  0  0  0  3  0  0  0  0  0  0
  -26.0500  -31.5870   23.1650 C   0  0  0  0  0  3  0  0  0  0  0  0
  -25.7150  -32.8430   23.8520 N   0  0  0  0  0  0  0  0  0  0  0  0
  -25.9340  -34.0670   23.3530 C   0  0  0  0  0  0  0  0  0  0  0  0
  -26.5110  -34.2570   22.2790 O   0  0  0  0  0  0  0  0  0  0  0  0
  -25.1910  -32.7620   24.7100 H   0  0  0  0  0  0  0  0  0  0  0  0
  -24.1260  -35.8010   23.5710 C   0  0  0  0  0  1  0  0  0  0  0  0
  -25.4370  -35.2710   24.1750 C   0  0  0  0  0  3  0  0  0  0  0  0
  -27.5910  -36.0320   25.0750 C   0  0  0  0  0  1  0  0  0  0  0  0
  -26.4220  -36.3700   24.2670 N   0  0  0  0  0  0  0  0  0  0  0  0
  -25.9960  -37.2040   24.6590 H   0  0  0  0  0  0  0  0  0  0  0  0
  -26.7680  -30.5880   24.1540 C   0  0  1  0  0  0  0  0  0  0  0  0
  -25.8410  -30.0340   25.2600 C   0  0  0  0  0  1  0  0  0  0  0  0
  -27.3570  -29.3830   23.3840 C   0  0  0  0  0  1  0  0  0  0  0  0
  -27.9600  -31.2970   24.8380 C   0  0  0  0  0  1  0  0  0  0  0  0
  1  7  1  0
  1 16  1  0
  2  7  1  0
  3  4  1  0
  3  2  1  0
  5  4  1  0
  5 21  1  0
  5  6  1  0
  7  6  1  0
  8  1  2  0
 10  9  1  0
 10 13  1  0
 11 10  2  0
 12 46  1  0
 12  9  2  0
 14 11  1  0
 14 16  1  0
 15 13  1  0
 16 15  1  0
 17 11  1  0
 17 12  1  0
 18 19  2  0
 19 38  1  0
 20 19  1  0
 20 23  1  0
 21 22  1  0
 21 18  1  0
 22 20  2  0
 23 24  1  0
 24 25  2  0
 26 29  1  0
 26 25  1  0
 27 26  2  0
 28 27  1  0
 28 23  2  0
 29 30  1  0
 30 31  1  0
 31 32  2  0
 33 32  1  0
 33 37  1  0
 34 33  2  0
 35 30  2  0
 35 34  1  0
 36 35  1  0
 38 39  1  0
 39 42  1  0
 39 41  1  0
 40 38  2  0
 43 18  1  0
 43 44  1  0
 45 43  1  0
 47 48  1  0
 47 46  1  0
 49 51  1  0
 49 48  1  0
 50 61  2  0
 51 56  1  0
 52 60  1  0
 52 62  1  0
 53 59  1  0
 53 55  1  0
 54 60  1  0
 55 54  1  0
 56 55  2  0
 57 58  1  0
 57 51  2  0
 58 53  2  0
 59 52  1  0
 60 50  1  0
 62 64  2  0
 63 62  1  0
 65 63  1  0
 66 75  2  0
 66 71  1  0
 67 63  1  0
 67 71  1  0
 68 67  1  0
 69 70  1  0
 69 68  1  0
 70 66  1  0
 71 72  2  0
 72 73  1  0
 74 73  2  0
 75 74  1  0
 76 50  1  0
 76 77  1  0
 76 86  1  0
 77 80  1  0
 78 77  1  0
 78 82  1  0
 79 78  2  0
 82 81  1  0
 82 84  1  0
 84 85  1  0
 84 83  1  0
 86 89  1  1
 86 87  1  0
 88 86  1  0
M  ISO  4   1 100  16 100  48 101  49 101
M  END
>  <TORSDO>  (13) 
F 18

>  <SCORE>  (13) 
-11.208

>  <name>  (13) 
12

>  <ligand_id>  (13) 
12

>  <original_smiles>  (13) 
[H]c1c([H])c([H])c2c(c1[H])C([H])([H])C([H])([H])C([H])([H])C2([H])N([H])C(=O)C1([H])N(C(=O)C([H])(N([H])C(=O)C([H])(N([H])C([H])([H])[H])C([H])([H])[H])C(C([H])([H])[H])(C([H])([H])[H])C([H])([H])[H])C([H])([H])c2c([H])c(OC([H])([H])C([H])([H])C([H])([H])c3sc4c(c3[H])C([H])([H])C([H])([H])N(C(=O)N3C([H])([H])C([H])([H])C([H])([H])C([H])(n5nc(-c6c([H])c([H])c(Oc7c([H])c([H])c(F)c([H])c7F)c([H])c6[H])c(C(=O)N([H])[H])c5N([H])[H])C3([H])[H])C4([H])[H])c([H])c([H])c2C1([H])[H]

>  <smiles>  (13) 
[H]c1c([H])c([H])c2c(c1[H])C([H])([H])C([H])([H])C([H])([H])C2([H])N([H])C(=O)C1([H])N(C(=O)C([H])(N([H])C(=O)C([H])(N([H])C([H])([H])[H])C([H])([H])[H])C(C([H])([H])[H])(C([H])([H])[H])C([H])([H])[H])C([H])([H])c2c([H])c(OC([H])([H])C([H])([H])C([H])([H])c3sc4c(c3[H])C([H])([H])C([H])([H])N(C(=O)N3C([H])([H])C([H])([H])C([H])([H])C([H])(n5nc(-c6c([H])c([H])c(Oc7c([H])c([H])c(F)c([H])c7F)c([H])c6[H])c(C(=O)N([H])[H])c5N([H])[H])C3([H])[H])C4([H])[H])c([H])c([H])c2C1([H])[H]

$$$$
13:0:0
     RDKit          3D

 98107  0  0  1  0  0  0  0  0999 V2000
  -30.2360  -19.5000   20.0390 C   0  0  0  0  0  3  0  0  0  0  0  0
  -31.5070  -21.4560   19.3740 C   0  0  0  0  0  3  0  0  0  0  0  0
  -31.0480  -18.5970   19.2690 C   0  0  0  0  0  0  0  0  0  0  0  0
  -32.1050  -19.2250   18.5380 C   0  0  0  0  0  0  0  0  0  0  0  0
  -30.3990  -20.9230   20.0550 C   0  0  0  0  0  0  0  0  0  0  0  0
  -32.3570  -20.6130   18.6410 C   0  0  0  0  0  0  0  0  0  0  0  0
  -32.9480  -18.4540   17.5350 C   0  0  0  0  0  2  0  0  0  0  0  0
  -32.1380  -17.3540   16.8630 C   0  0  0  0  0  2  0  0  0  0  0  0
  -31.6640  -16.3970   17.9450 C   0  0  0  0  0  2  0  0  0  0  0  0
  -30.7080  -17.0580   18.9860 C   0  0  0  0  0  3  0  0  0  0  0  0
  -33.3950  -21.1690   17.9690 F   0  0  0  0  0  0  0  0  0  0  0  0
  -30.8450  -14.8950   20.4180 C   0  0  0  0  0  0  0  0  0  0  0  0
  -30.6400  -12.6330   19.4270 C   0  0  0  0  0  2  0  0  0  0  0  0
  -29.7080  -12.6670   18.1980 C   0  0  0  0  0  2  0  0  0  0  0  0
  -28.2310  -12.4940   18.6140 C   0  0  0  0  0  2  0  0  0  0  0  0
  -27.8320  -13.3880   19.8190 C   0  0  0  0  0  3  0  0  0  0  0  0
  -28.8900  -13.2940   20.9390 C   0  0  0  0  0  2  0  0  0  0  0  0
  -30.1710  -13.6970   20.3370 N   0  0  0  0  0  0  0  0  0  0  0  0
  -32.0730  -14.8760   20.3640 O   0  0  0  0  0  0  0  0  0  0  0  0
  -30.1850  -16.0650   20.0320 N   0  0  0  0  0  0  0  0  0  0  0  0
  -25.4120  -13.9700   20.4840 C   0  0  0  0  0  0  0  0  0  0  0  0
  -24.3450  -13.1950   20.8300 C   0  0  0  0  0  0  0  0  0  0  0  0
  -24.8260  -11.8520   20.8200 C   0  0  0  0  0  0  0  0  0  0  0  0
  -26.4790  -13.1050   20.2860 N   0  0  0  0  0  0  0  0  0  0  0  0
  -26.1260  -11.8230   20.5510 N   0  0  0  0  0  0  0  0  0  0  0  0
  -24.1080  -10.5890   20.9950 C   0  0  0  0  0  0  0  0  0  0  0  0
  -24.4930   -9.6530   21.9790 C   0  0  0  0  0  3  0  0  0  0  0  0
  -23.7700   -8.4530   22.1430 C   0  0  0  0  0  3  0  0  0  0  0  0
  -22.6500   -8.1830   21.3210 C   0  0  0  0  0  0  0  0  0  0  0  0
  -22.2860   -9.1080   20.3280 C   0  0  0  0  0  3  0  0  0  0  0  0
  -23.0100  -10.3000   20.1610 C   0  0  0  0  0  3  0  0  0  0  0  0
  -21.9040   -7.0330   21.3920 O   0  0  0  0  0  0  0  0  0  0  0  0
  -21.7600   -6.3420   22.5690 C   0  0  0  0  0  0  0  0  0  0  0  0
  -21.1670   -6.9280   23.7090 C   0  0  0  0  0  3  0  0  0  0  0  0
  -20.9740   -6.1600   24.8740 C   0  0  0  0  0  3  0  0  0  0  0  0
  -21.3630   -4.8070   24.9000 C   0  0  0  0  0  0  0  0  0  0  0  0
  -21.9490   -4.2220   23.7640 C   0  0  0  0  0  3  0  0  0  0  0  0
  -22.1450   -4.9870   22.6010 C   0  0  0  0  0  0  0  0  0  0  0  0
  -22.6900   -4.4120   21.5020 F   0  0  0  0  0  0  0  0  0  0  0  0
  -21.1700   -4.0680   26.0160 F   0  0  0  0  0  0  0  0  0  0  0  0
  -22.9380  -13.6670   21.0580 C   0  0  0  0  0  0  0  0  0  0  0  0
  -22.1940  -12.9770   21.9140 N   0  0  0  0  0  0  0  0  0  0  0  0
  -22.5090  -14.6860   20.5190 O   0  0  0  0  0  0  0  0  0  0  0  0
  -22.5550  -12.1540   22.3730 H   0  0  0  0  0  0  0  0  0  0  0  0
  -21.2490  -13.2740   22.1110 H   0  0  0  0  0  0  0  0  0  0  0  0
  -25.5320  -15.3370   20.3080 N   0  0  0  0  0  0  0  0  0  0  0  0
  -24.7390  -15.9620   20.4050 H   0  0  0  0  0  0  0  0  0  0  0  0
  -26.3930  -15.8160   20.0810 H   0  0  0  0  0  0  0  0  0  0  0  0
  -27.8740  -17.1350   19.9380 C   0  0  0  0  0  1  0  0  0  0  0  0
  -29.0430  -16.5930   20.8070 C   0  0  0  0  0  2  0  0  0  0  0  0
  -28.9160  -21.3570   22.1070 C   0  0  0  0  0  1  0  0  0  0  0  0
  -29.3410  -21.8630   20.7150 C   0  0  0  0  0  3  0  0  0  0  0  0
  -29.7190  -23.3120   20.8440 N   0  0  0  0  0  4  0  0  0  0  0  0
  -29.6100  -23.5190   21.8250 H   0  0  0  0  0  0  0  0  0  0  0  0
  -30.7020  -23.4130   20.6500 H   0  0  0  0  0  0  0  0  0  0  0  0
  -28.9340  -24.3530   20.0840 C   0  0  0  0  0  2  0  0  0  0  0  0
  -28.6880  -25.6820   20.8850 C   0  0  0  0  0  2  0  0  0  0  0  0
  -28.5660  -26.8890   20.0900 O   0  0  0  0  0  0  0  0  0  0  0  0
  -24.6410  -31.9420   23.3380 C   0  0  0  0  0  0  0  0  0  0  0  0
  -27.3830  -27.6040   20.1660 C   0  0  0  0  0  0  0  0  0  0  0  0
  -23.4730  -30.5780   21.6380 C   0  0  0  0  0  3  0  0  0  0  0  0
  -24.9650  -29.0930   20.1890 C   0  0  0  0  0  0  0  0  0  0  0  0
  -25.9970  -30.9670   21.4830 C   0  0  0  0  0  2  0  0  0  0  0  0
  -26.1110  -29.6120   20.8050 C   0  0  0  0  0  0  0  0  0  0  0  0
  -27.3240  -28.8800   20.7840 C   0  0  0  0  0  3  0  0  0  0  0  0
  -26.2190  -27.1000   19.5510 C   0  0  0  0  0  3  0  0  0  0  0  0
  -25.0150  -27.8360   19.5600 C   0  0  0  0  0  3  0  0  0  0  0  0
  -23.7100  -29.9380   20.2430 C   0  0  0  0  0  2  0  0  0  0  0  0
  -24.7210  -31.1760   22.2110 N   0  0  0  0  0  0  0  0  0  0  0  0
  -23.5500  -32.1850   23.8730 O   0  0  0  0  0  0  0  0  0  0  0  0
  -22.8190  -29.5240   22.5590 C   0  0  0  0  0  0  0  0  0  0  0  0
  -21.4970  -29.3360   22.4140 N   0  0  0  0  0  0  0  0  0  0  0  0
  -23.5000  -28.8760   23.3590 O   0  0  0  0  0  0  0  0  0  0  0  0
  -21.0090  -29.9100   21.7410 H   0  0  0  0  0  0  0  0  0  0  0  0
  -18.1260  -28.1070   22.8540 C   0  0  0  0  0  0  0  0  0  0  0  0
  -20.6820  -28.3660   23.1450 C   0  0  0  0  0  3  0  0  0  0  0  0
  -20.7930  -26.9590   22.5130 C   0  0  0  0  0  2  0  0  0  0  0  0
  -19.6950  -26.6710   21.4840 C   0  0  0  0  0  2  0  0  0  0  0  0
  -18.3110  -26.7860   22.1280 C   0  0  0  0  0  2  0  0  0  0  0  0
  -19.2390  -28.8570   23.3180 C   0  0  0  0  0  0  0  0  0  0  0  0
  -19.0140  -30.0950   23.9560 C   0  0  0  0  0  3  0  0  0  0  0  0
  -17.7060  -30.5840   24.1370 C   0  0  0  0  0  3  0  0  0  0  0  0
  -16.6080  -29.8310   23.6890 C   0  0  0  0  0  3  0  0  0  0  0  0
  -16.8170  -28.5940   23.0550 C   0  0  0  0  0  3  0  0  0  0  0  0
  -25.9110  -32.5680   23.9950 C   0  0  0  0  0  3  0  0  0  0  0  0
  -25.6020  -33.9700   24.3090 N   0  0  0  0  0  0  0  0  0  0  0  0
  -25.9710  -35.0170   23.5580 C   0  0  0  0  0  0  0  0  0  0  0  0
  -26.6760  -34.9040   22.5510 O   0  0  0  0  0  0  0  0  0  0  0  0
  -24.9800  -34.1320   25.0860 H   0  0  0  0  0  0  0  0  0  0  0  0
  -24.2900  -36.8340   23.1150 C   0  0  0  0  0  1  0  0  0  0  0  0
  -25.4780  -36.4110   23.9930 C   0  0  0  0  0  3  0  0  0  0  0  0
  -27.5690  -37.2710   24.9510 C   0  0  0  0  0  1  0  0  0  0  0  0
  -26.5300  -37.4490   23.9390 N   0  0  0  0  0  0  0  0  0  0  0  0
  -26.1290  -38.3760   24.0570 H   0  0  0  0  0  0  0  0  0  0  0  0
  -26.3880  -31.7990   25.2880 C   0  0  1  0  0  0  0  0  0  0  0  0
  -25.2630  -31.5660   26.3220 C   0  0  0  0  0  1  0  0  0  0  0  0
  -26.9780  -30.4180   24.9150 C   0  0  0  0  0  1  0  0  0  0  0  0
  -27.5210  -32.5910   25.9810 C   0  0  0  0  0  1  0  0  0  0  0  0
  1  5  1  0
  2  5  2  0
  3  1  2  0
  4  6  2  0
  4  3  1  0
  5 52  1  0
  6  2  1  0
  7  4  1  0
  8  7  1  0
  8  9  1  0
  9 10  1  0
 10  3  1  0
 10 20  1  0
 11  6  1  0
 13 18  1  0
 14 15  1  0
 14 13  1  0
 16 15  1  0
 16 24  1  0
 16 17  1  0
 18 12  1  0
 18 17  1  0
 19 12  2  0
 20 12  1  0
 20 50  1  0
 21 22  2  0
 22 41  1  0
 23 22  1  0
 23 26  1  0
 24 21  1  0
 24 25  1  0
 25 23  2  0
 26 27  1  0
 27 28  2  0
 29 32  1  0
 29 28  1  0
 30 29  2  0
 31 30  1  0
 31 26  2  0
 32 33  1  0
 33 38  2  0
 33 34  1  0
 34 35  2  0
 35 36  1  0
 36 40  1  0
 37 36  2  0
 38 37  1  0
 39 38  1  0
 41 42  1  0
 42 45  1  0
 42 44  1  0
 43 41  2  0
 46 47  1  0
 46 21  1  0
 48 46  1  0
 49 50  1  0
 52 53  1  0
 52 51  1  0
 53 54  1  0
 55 53  1  0
 56 53  1  0
 56 57  1  0
 58 60  1  0
 58 57  1  0
 59 70  2  0
 60 65  1  0
 61 69  1  0
 61 71  1  0
 62 68  1  0
 62 64  1  0
 63 69  1  0
 64 63  1  0
 65 64  2  0
 66 67  1  0
 66 60  2  0
 67 62  2  0
 68 61  1  0
 69 59  1  0
 71 73  2  0
 72 71  1  0
 74 72  1  0
 75 84  2  0
 75 80  1  0
 76 72  1  0
 76 80  1  0
 77 76  1  0
 78 79  1  0
 78 77  1  0
 79 75  1  0
 80 81  2  0
 81 82  1  0
 83 82  2  0
 84 83  1  0
 85 59  1  0
 85 86  1  0
 85 95  1  0
 86 89  1  0
 87 91  1  0
 87 86  1  0
 88 87  2  0
 91 90  1  0
 93 91  1  0
 93 94  1  0
 93 92  1  0
 95 98  1  1
 95 96  1  0
 97 95  1  0
M  ISO  4  12 100  20 100  57 101  58 101
M  END
>  <TORSDO>  (14) 
F 21

>  <SCORE>  (14) 
-13.595

>  <name>  (14) 
13

>  <ligand_id>  (14) 
13

>  <original_smiles>  (14) 
[H]c1c([H])c([H])c2c(c1[H])C([H])([H])C([H])([H])C([H])([H])C2([H])N([H])C(=O)C1([H])N(C(=O)C([H])(N([H])C(=O)C([H])(N([H])C([H])([H])[H])C([H])([H])[H])C(C([H])([H])[H])(C([H])([H])[H])C([H])([H])[H])C([H])([H])c2c([H])c(OC([H])([H])C([H])([H])[N+]([H])([H])C([H])(c3c([H])c(F)c4c(c3[H])C([H])(N(C(=O)N3C([H])([H])C([H])([H])C([H])([H])C([H])(n5nc(-c6c([H])c([H])c(Oc7c([H])c([H])c(F)c([H])c7F)c([H])c6[H])c(C(=O)N([H])[H])c5N([H])[H])C3([H])[H])C([H])([H])C([H])([H])[H])C([H])([H])C([H])([H])C4([H])[H])C([H])([H])[H])c([H])c([H])c2C1([H])[H]

>  <smiles>  (14) 
[H]c1c([H])c([H])c2c(c1[H])C([H])([H])C([H])([H])C([H])([H])C2([H])N([H])C(=O)C1([H])N(C(=O)C([H])(N([H])C(=O)C([H])(N([H])C([H])([H])[H])C([H])([H])[H])C(C([H])([H])[H])(C([H])([H])[H])C([H])([H])[H])C([H])([H])c2c([H])c(OC([H])([H])C([H])([H])[N+]([H])([H])C([H])(c3c([H])c(F)c4c(c3[H])C([H])(N(C(=O)N3C([H])([H])C([H])([H])C([H])([H])C([H])(n5nc(-c6c([H])c([H])c(Oc7c([H])c([H])c(F)c([H])c7F)c([H])c6[H])c(C(=O)N([H])[H])c5N([H])[H])C3([H])[H])C([H])([H])C([H])([H])[H])C([H])([H])C([H])([H])C4([H])[H])C([H])([H])[H])c([H])c([H])c2C1([H])[H]

$$$$
14:0:0
     RDKit          3D

 92101  0  0  1  0  0  0  0  0999 V2000
  -28.2370  -22.2880   21.6960 C   0  0  0  0  0  3  0  0  0  0  0  0
  -27.8950  -23.4260   22.4600 C   0  0  0  0  0  3  0  0  0  0  0  0
  -28.6050  -23.7770   19.8110 C   0  0  0  0  0  3  0  0  0  0  0  0
  -28.6140  -22.3990   20.3460 C   0  0  0  0  0  0  0  0  0  0  0  0
  -27.9070  -24.7390   21.9270 C   0  0  0  0  0  0  0  0  0  0  0  0
  -28.2490  -24.9910   20.5700 C   0  0  0  0  0  0  0  0  0  0  0  0
  -27.6060  -25.7730   22.7650 O   0  0  0  0  0  0  0  0  0  0  0  0
  -27.3670  -25.4860   23.6400 H   0  0  0  0  0  0  0  0  0  0  0  0
  -28.3280  -26.3700   20.1160 O   0  0  0  0  0  0  0  0  0  0  0  0
  -24.6120  -31.9130   23.1870 C   0  0  0  0  0  0  0  0  0  0  0  0
  -27.2410  -27.2920   20.1340 C   0  0  0  0  0  0  0  0  0  0  0  0
  -23.4260  -30.5130   21.5390 C   0  0  0  0  0  3  0  0  0  0  0  0
  -24.8900  -28.9650   20.1100 C   0  0  0  0  0  0  0  0  0  0  0  0
  -25.9720  -30.8210   21.3750 C   0  0  0  0  0  2  0  0  0  0  0  0
  -26.0600  -29.4370   20.7200 C   0  0  0  0  0  0  0  0  0  0  0  0
  -27.2390  -28.6140   20.7170 C   0  0  0  0  0  3  0  0  0  0  0  0
  -26.0500  -26.9020   19.4920 C   0  0  0  0  0  3  0  0  0  0  0  0
  -24.8910  -27.7070   19.4850 C   0  0  0  0  0  3  0  0  0  0  0  0
  -23.6530  -29.8470   20.1570 C   0  0  0  0  0  2  0  0  0  0  0  0
  -24.6890  -31.1030   22.0890 N   0  0  0  0  0  0  0  0  0  0  0  0
  -23.5230  -32.1820   23.7170 O   0  0  0  0  0  0  0  0  0  0  0  0
  -22.7600  -29.4900   22.4930 C   0  0  0  0  0  0  0  0  0  0  0  0
  -21.4360  -29.3050   22.3600 N   0  0  0  0  0  0  0  0  0  0  0  0
  -23.4390  -28.8680   23.3150 O   0  0  0  0  0  0  0  0  0  0  0  0
  -20.9500  -29.8540   21.6660 H   0  0  0  0  0  0  0  0  0  0  0  0
  -18.0640  -28.0850   22.8630 C   0  0  0  0  0  0  0  0  0  0  0  0
  -20.6220  -28.3570   23.1260 C   0  0  0  0  0  3  0  0  0  0  0  0
  -20.7290  -26.9300   22.5390 C   0  0  0  0  0  2  0  0  0  0  0  0
  -19.6270  -26.6120   21.5220 C   0  0  0  0  0  2  0  0  0  0  0  0
  -18.2460  -26.7430   22.1720 C   0  0  0  0  0  2  0  0  0  0  0  0
  -19.1800  -28.8490   23.2970 C   0  0  0  0  0  0  0  0  0  0  0  0
  -18.9540  -30.1040   23.9050 C   0  0  0  0  0  3  0  0  0  0  0  0
  -17.6460  -30.5940   24.0800 C   0  0  0  0  0  3  0  0  0  0  0  0
  -16.5450  -29.8270   23.6630 C   0  0  0  0  0  3  0  0  0  0  0  0
  -16.7560  -28.5730   23.0590 C   0  0  0  0  0  3  0  0  0  0  0  0
  -25.8850  -32.5540   23.8200 C   0  0  0  0  0  3  0  0  0  0  0  0
  -25.5630  -33.9490   24.1510 N   0  0  0  0  0  0  0  0  0  0  0  0
  -25.8960  -35.0090   23.4010 C   0  0  0  0  0  0  0  0  0  0  0  0
  -26.5790  -34.9150   22.3770 O   0  0  0  0  0  0  0  0  0  0  0  0
  -24.9530  -34.0950   24.9420 H   0  0  0  0  0  0  0  0  0  0  0  0
  -24.1710  -36.8020   23.0290 C   0  0  0  0  0  1  0  0  0  0  0  0
  -25.3980  -36.3940   23.8610 C   0  0  0  0  0  3  0  0  0  0  0  0
  -27.5140  -37.2770   24.7420 C   0  0  0  0  0  1  0  0  0  0  0  0
  -26.4320  -37.4500   23.7760 N   0  0  0  0  0  0  0  0  0  0  0  0
  -26.0220  -38.3670   23.9240 H   0  0  0  0  0  0  0  0  0  0  0  0
  -26.3940  -31.7870   25.1030 C   0  0  1  0  0  0  0  0  0  0  0  0
  -25.2910  -31.5450   26.1600 C   0  0  0  0  0  1  0  0  0  0  0  0
  -26.9870  -30.4100   24.7240 C   0  0  0  0  0  1  0  0  0  0  0  0
  -27.5330  -32.5890   25.7770 C   0  0  0  0  0  1  0  0  0  0  0  0
  -28.9200  -21.0360   19.5190 C   0  0  0  0  0  2  0  0  0  0  0  0
  -30.7780  -14.9880   20.0150 C   0  0  0  0  0  0  0  0  0  0  0  0
  -30.4770  -12.6860   19.0440 C   0  0  0  0  0  2  0  0  0  0  0  0
  -29.4900  -12.6710   17.8610 C   0  0  0  0  0  2  0  0  0  0  0  0
  -28.0510  -12.4760   18.3690 C   0  0  0  0  0  2  0  0  0  0  0  0
  -27.7150  -13.3840   19.5830 C   0  0  0  0  0  3  0  0  0  0  0  0
  -28.8360  -13.3980   20.6450 C   0  0  0  0  0  2  0  0  0  0  0  0
  -30.0600  -13.7990   19.9430 N   0  0  0  0  0  0  0  0  0  0  0  0
  -31.9820  -14.8960   19.7520 O   0  0  0  0  0  0  0  0  0  0  0  0
  -30.5070  -18.8610   19.1940 C   0  0  0  0  0  2  0  0  0  0  0  0
  -28.4640  -18.3450   20.2730 C   0  0  0  0  0  2  0  0  0  0  0  0
  -31.1120  -17.4630   19.6550 C   0  0  0  0  0  2  0  0  0  0  0  0
  -29.0230  -16.8840   20.7060 C   0  0  0  0  0  2  0  0  0  0  0  0
  -29.4610  -19.5690   20.1190 C   0  0  0  0  0  3  0  0  0  0  0  0
  -30.2060  -16.3010   19.9850 N   0  0  0  0  0  0  0  0  0  0  0  0
  -25.3820  -13.9330   20.4790 C   0  0  0  0  0  0  0  0  0  0  0  0
  -24.3420  -13.1440   20.8870 C   0  0  0  0  0  0  0  0  0  0  0  0
  -24.8080  -11.7960   20.7920 C   0  0  0  0  0  0  0  0  0  0  0  0
  -26.4130  -13.0670   20.1570 N   0  0  0  0  0  0  0  0  0  0  0  0
  -26.0800  -11.7750   20.4110 N   0  0  0  0  0  0  0  0  0  0  0  0
  -24.0930  -10.5270   20.9830 C   0  0  0  0  0  0  0  0  0  0  0  0
  -24.5360   -9.5620   21.9150 C   0  0  0  0  0  3  0  0  0  0  0  0
  -23.8190   -8.3590   22.0950 C   0  0  0  0  0  3  0  0  0  0  0  0
  -22.6450   -8.1130   21.3450 C   0  0  0  0  0  0  0  0  0  0  0  0
  -22.2210   -9.0660   20.4020 C   0  0  0  0  0  3  0  0  0  0  0  0
  -22.9390  -10.2600   20.2190 C   0  0  0  0  0  3  0  0  0  0  0  0
  -21.9000   -6.9610   21.4350 O   0  0  0  0  0  0  0  0  0  0  0  0
  -21.8180   -6.2470   22.6040 C   0  0  0  0  0  0  0  0  0  0  0  0
  -21.3140   -6.8190   23.7920 C   0  0  0  0  0  3  0  0  0  0  0  0
  -21.1810   -6.0290   24.9520 C   0  0  0  0  0  3  0  0  0  0  0  0
  -21.5430   -4.6690   24.9240 C   0  0  0  0  0  0  0  0  0  0  0  0
  -22.0390   -4.0960   23.7400 C   0  0  0  0  0  3  0  0  0  0  0  0
  -22.1720   -4.8830   22.5830 C   0  0  0  0  0  0  0  0  0  0  0  0
  -22.6320   -4.3220   21.4380 F   0  0  0  0  0  0  0  0  0  0  0  0
  -21.4080   -3.9090   26.0350 F   0  0  0  0  0  0  0  0  0  0  0  0
  -22.9620  -13.6090   21.2460 C   0  0  0  0  0  0  0  0  0  0  0  0
  -22.2790  -12.8850   22.1240 N   0  0  0  0  0  0  0  0  0  0  0  0
  -22.4990  -14.6500   20.7810 O   0  0  0  0  0  0  0  0  0  0  0  0
  -22.6700  -12.0440   22.5240 H   0  0  0  0  0  0  0  0  0  0  0  0
  -21.3520  -13.1760   22.4010 H   0  0  0  0  0  0  0  0  0  0  0  0
  -25.5270  -15.3090   20.3270 N   0  0  0  0  0  0  0  0  0  0  0  0
  -24.7570  -15.9490   20.4900 H   0  0  0  0  0  0  0  0  0  0  0  0
  -26.3420  -15.7630   19.9350 H   0  0  0  0  0  0  0  0  0  0  0  0
  1  2  1  0
  3  4  1  0
  3  6  2  0
  4  1  2  0
  5  2  2  0
  5  7  1  0
  6  5  1  0
  7  8  1  0
  9 11  1  0
  9  6  1  0
 10 21  2  0
 11 16  1  0
 12 20  1  0
 12 22  1  0
 13 19  1  0
 13 15  1  0
 14 20  1  0
 15 14  1  0
 16 15  2  0
 17 11  2  0
 18 17  1  0
 18 13  2  0
 19 12  1  0
 20 10  1  0
 22 24  2  0
 23 22  1  0
 25 23  1  0
 26 35  2  0
 26 31  1  0
 27 23  1  0
 27 31  1  0
 28 27  1  0
 29 30  1  0
 29 28  1  0
 30 26  1  0
 31 32  2  0
 32 33  1  0
 34 33  2  0
 35 34  1  0
 36 10  1  0
 36 37  1  0
 36 46  1  0
 37 40  1  0
 38 42  1  0
 38 37  1  0
 39 38  2  0
 42 41  1  0
 44 42  1  0
 44 45  1  0
 44 43  1  0
 46 49  1  1
 46 47  1  0
 48 46  1  0
 50  4  1  0
 52 57  1  0
 53 54  1  0
 53 52  1  0
 55 54  1  0
 55 68  1  0
 55 56  1  0
 57 51  1  0
 57 56  1  0
 58 51  2  0
 59 61  1  0
 59 63  1  0
 60 62  1  0
 61 64  1  0
 63 50  1  0
 63 60  1  0
 64 51  1  0
 64 62  1  0
 65 66  2  0
 66 85  1  0
 67 66  1  0
 67 70  1  0
 68 69  1  0
 68 65  1  0
 69 67  2  0
 70 71  1  0
 71 72  2  0
 73 76  1  0
 73 72  1  0
 74 73  2  0
 75 74  1  0
 75 70  2  0
 76 77  1  0
 77 78  1  0
 78 79  2  0
 80 79  1  0
 80 84  1  0
 81 80  2  0
 82 77  2  0
 82 81  1  0
 83 82  1  0
 85 86  1  0
 86 89  1  0
 86 88  1  0
 87 85  2  0
 90 65  1  0
 90 91  1  0
 92 90  1  0
M  ISO  4   6 101   9 101  51 100  64 100
M  END
>  <TORSDO>  (15) 
F 18

>  <SCORE>  (15) 
-14.656

>  <name>  (15) 
14

>  <ligand_id>  (15) 
14

>  <original_smiles>  (15) 
[H]Oc1c([H])c([H])c(C([H])([H])C2([H])C([H])([H])C([H])([H])N(C(=O)N3C([H])([H])C([H])([H])C([H])([H])C([H])(n4nc(-c5c([H])c([H])c(Oc6c([H])c([H])c(F)c([H])c6F)c([H])c5[H])c(C(=O)N([H])[H])c4N([H])[H])C3([H])[H])C([H])([H])C2([H])[H])c([H])c1Oc1c([H])c([H])c2c(c1[H])C([H])([H])N(C(=O)C([H])(N([H])C(=O)C([H])(N([H])C([H])([H])[H])C([H])([H])[H])C(C([H])([H])[H])(C([H])([H])[H])C([H])([H])[H])C([H])(C(=O)N([H])C1([H])c3c([H])c([H])c([H])c([H])c3C([H])([H])C([H])([H])C1([H])[H])C2([H])[H]

>  <smiles>  (15) 
[H]Oc1c([H])c([H])c(C([H])([H])C2([H])C([H])([H])C([H])([H])N(C(=O)N3C([H])([H])C([H])([H])C([H])([H])C([H])(n4nc(-c5c([H])c([H])c(Oc6c([H])c([H])c(F)c([H])c6F)c([H])c5[H])c(C(=O)N([H])[H])c4N([H])[H])C3([H])[H])C([H])([H])C2([H])[H])c([H])c1Oc1c([H])c([H])c2c(c1[H])C([H])([H])N(C(=O)C([H])(N([H])C(=O)C([H])(N([H])C([H])([H])[H])C([H])([H])[H])C(C([H])([H])[H])(C([H])([H])[H])C([H])([H])[H])C([H])(C(=O)N([H])C1([H])c3c([H])c([H])c([H])c([H])c3C([H])([H])C([H])([H])C1([H])[H])C2([H])[H]

$$$$
15:0:0
     RDKit          3D

 93102  0  0  1  0  0  0  0  0999 V2000
  -29.0660  -16.8700   19.4300 C   0  0  0  0  0  3  0  0  0  0  0  0
  -29.6770  -18.8760   21.2440 C   0  0  0  0  0  3  0  0  0  0  0  0
  -29.8600  -16.4280   20.5340 C   0  0  0  0  0  0  0  0  0  0  0  0
  -28.5640  -18.2160   19.2650 C   0  0  0  0  0  0  0  0  0  0  0  0
  -28.8760  -19.3130   20.1420 C   0  0  0  0  0  0  0  0  0  0  0  0
  -30.1400  -17.5130   21.4470 C   0  0  0  0  0  0  0  0  0  0  0  0
  -27.5550  -18.4620   18.1630 C   0  0  0  0  0  2  0  0  0  0  0  0
  -26.4000  -19.3070   18.7090 C   0  0  0  0  0  2  0  0  0  0  0  0
  -26.8810  -20.7090   19.1170 C   0  0  0  0  0  2  0  0  0  0  0  0
  -28.1350  -20.7830   20.0430 C   0  0  0  0  0  3  0  0  0  0  0  0
  -30.9290  -17.2370   22.7210 C   0  0  0  0  0  1  0  0  0  0  0  0
  -30.5680  -14.9980   20.5890 C   0  0  0  0  0  0  0  0  0  0  0  0
  -30.5020  -12.5930   19.8720 C   0  0  0  0  0  2  0  0  0  0  0  0
  -29.6940  -12.4490   18.5640 C   0  0  0  0  0  2  0  0  0  0  0  0
  -28.2000  -12.2470   18.8830 C   0  0  0  0  0  2  0  0  0  0  0  0
  -27.6760  -13.2600   19.9370 C   0  0  0  0  0  3  0  0  0  0  0  0
  -28.6270  -13.4130   21.1410 C   0  0  0  0  0  2  0  0  0  0  0  0
  -29.9500  -13.7580   20.6150 N   0  0  0  0  0  0  0  0  0  0  0  0
  -31.7900  -15.0080   20.4160 O   0  0  0  0  0  0  0  0  0  0  0  0
  -25.2630  -13.8610   20.5290 C   0  0  0  0  0  0  0  0  0  0  0  0
  -24.1690  -13.0940   20.8200 C   0  0  0  0  0  0  0  0  0  0  0  0
  -24.6210  -11.7380   20.8070 C   0  0  0  0  0  0  0  0  0  0  0  0
  -26.3080  -12.9730   20.3490 N   0  0  0  0  0  0  0  0  0  0  0  0
  -25.9290  -11.6910   20.5810 N   0  0  0  0  0  0  0  0  0  0  0  0
  -23.8740  -10.4800   20.9370 C   0  0  0  0  0  0  0  0  0  0  0  0
  -24.2400   -9.4960   21.8810 C   0  0  0  0  0  3  0  0  0  0  0  0
  -23.4910   -8.3040   21.9980 C   0  0  0  0  0  3  0  0  0  0  0  0
  -22.3650   -8.0900   21.1690 C   0  0  0  0  0  0  0  0  0  0  0  0
  -22.0210   -9.0630   20.2140 C   0  0  0  0  0  3  0  0  0  0  0  0
  -22.7690  -10.2450   20.0950 C   0  0  0  0  0  3  0  0  0  0  0  0
  -21.5930   -6.9520   21.1950 O   0  0  0  0  0  0  0  0  0  0  0  0
  -21.4830   -6.1850   22.3270 C   0  0  0  0  0  0  0  0  0  0  0  0
  -20.9710   -6.7070   23.5350 C   0  0  0  0  0  3  0  0  0  0  0  0
  -20.8080   -5.8640   24.6530 C   0  0  0  0  0  3  0  0  0  0  0  0
  -21.1490   -4.5000   24.5620 C   0  0  0  0  0  0  0  0  0  0  0  0
  -21.6560   -3.9780   23.3590 C   0  0  0  0  0  3  0  0  0  0  0  0
  -21.8170   -4.8190   22.2440 C   0  0  0  0  0  0  0  0  0  0  0  0
  -22.2850   -4.3070   21.0790 F   0  0  0  0  0  0  0  0  0  0  0  0
  -20.9880   -3.6880   25.6340 F   0  0  0  0  0  0  0  0  0  0  0  0
  -22.7610  -13.5830   21.0030 C   0  0  0  0  0  0  0  0  0  0  0  0
  -21.9780  -12.8950   21.8270 N   0  0  0  0  0  0  0  0  0  0  0  0
  -22.3640  -14.6100   20.4540 O   0  0  0  0  0  0  0  0  0  0  0  0
  -22.3140  -12.0640   22.2910 H   0  0  0  0  0  0  0  0  0  0  0  0
  -21.0310  -13.2020   21.9950 H   0  0  0  0  0  0  0  0  0  0  0  0
  -25.4550  -15.2320   20.3820 N   0  0  0  0  0  0  0  0  0  0  0  0
  -24.6980  -15.8990   20.4680 H   0  0  0  0  0  0  0  0  0  0  0  0
  -26.3480  -15.6650   20.1900 H   0  0  0  0  0  0  0  0  0  0  0  0
  -28.8330  -22.1430   19.7190 N   0  0  0  0  0  4  0  0  0  0  0  0
  -28.9000  -22.1890   18.7140 H   0  0  0  0  0  0  0  0  0  0  0  0
  -29.7850  -22.0760   20.0480 H   0  0  0  0  0  0  0  0  0  0  0  0
  -28.2460  -23.5110   20.2470 C   0  0  0  0  0  2  0  0  0  0  0  0
  -28.3440  -24.9290   19.3890 C   0  0  0  0  0  2  0  0  0  0  0  0
  -28.2860  -26.3660   19.9460 O   0  0  0  0  0  0  0  0  0  0  0  0
  -24.5750  -31.8010   23.1170 C   0  0  0  0  0  0  0  0  0  0  0  0
  -27.1830  -27.2750   19.8860 C   0  0  0  0  0  0  0  0  0  0  0  0
  -23.3790  -30.4630   21.4220 C   0  0  0  0  0  3  0  0  0  0  0  0
  -24.8320  -28.9640   19.9280 C   0  0  0  0  0  0  0  0  0  0  0  0
  -25.9210  -30.7730   21.2520 C   0  0  0  0  0  2  0  0  0  0  0  0
  -26.0050  -29.4080   20.5510 C   0  0  0  0  0  0  0  0  0  0  0  0
  -27.1760  -28.5770   20.5180 C   0  0  0  0  0  3  0  0  0  0  0  0
  -25.9820  -26.9140   19.2360 C   0  0  0  0  0  3  0  0  0  0  0  0
  -24.8310  -27.7300   19.2580 C   0  0  0  0  0  3  0  0  0  0  0  0
  -23.5970  -29.8400   20.0150 C   0  0  0  0  0  2  0  0  0  0  0  0
  -24.6460  -31.0300   21.9880 N   0  0  0  0  0  0  0  0  0  0  0  0
  -23.4900  -32.0500   23.6630 O   0  0  0  0  0  0  0  0  0  0  0  0
  -22.7130  -29.4110   22.3430 C   0  0  0  0  0  0  0  0  0  0  0  0
  -21.3770  -29.2850   22.2570 N   0  0  0  0  0  0  0  0  0  0  0  0
  -23.3970  -28.7120   23.0950 O   0  0  0  0  0  0  0  0  0  0  0  0
  -20.8830  -29.9060   21.6330 H   0  0  0  0  0  0  0  0  0  0  0  0
  -17.9740  -28.2160   22.8880 C   0  0  0  0  0  0  0  0  0  0  0  0
  -20.5550  -28.3220   22.9960 C   0  0  0  0  0  3  0  0  0  0  0  0
  -20.5370  -26.9480   22.2880 C   0  0  0  0  0  2  0  0  0  0  0  0
  -19.3540  -26.7780   21.3280 C   0  0  0  0  0  2  0  0  0  0  0  0
  -18.0290  -26.9310   22.0790 C   0  0  0  0  0  2  0  0  0  0  0  0
  -19.1600  -28.8780   23.3030 C   0  0  0  0  0  0  0  0  0  0  0  0
  -19.0510  -30.0880   24.0200 C   0  0  0  0  0  3  0  0  0  0  0  0
  -17.7900  -30.6380   24.3210 C   0  0  0  0  0  3  0  0  0  0  0  0
  -16.6190  -29.9710   23.9200 C   0  0  0  0  0  3  0  0  0  0  0  0
  -16.7140  -28.7600   23.2120 C   0  0  0  0  0  3  0  0  0  0  0  0
  -25.8530  -32.4160   23.7680 C   0  0  0  0  0  3  0  0  0  0  0  0
  -26.3480  -31.6150   25.0350 C   0  0  1  0  0  0  0  0  0  0  0  0
  -25.2450  -31.3630   26.0880 C   0  0  0  0  0  1  0  0  0  0  0  0
  -26.9210  -30.2410   24.6190 C   0  0  0  0  0  1  0  0  0  0  0  0
  -27.5020  -32.3810   25.7240 C   0  0  0  0  0  1  0  0  0  0  0  0
  -25.5480  -33.8090   24.1300 N   0  0  0  0  0  0  0  0  0  0  0  0
  -25.8950  -34.8800   23.4020 C   0  0  0  0  0  0  0  0  0  0  0  0
  -26.5760  -34.8010   22.3790 O   0  0  0  0  0  0  0  0  0  0  0  0
  -24.9610  -33.9470   24.9380 H   0  0  0  0  0  0  0  0  0  0  0  0
  -24.1950  -36.7000   23.0550 C   0  0  0  0  0  1  0  0  0  0  0  0
  -25.4080  -36.2590   23.8900 C   0  0  0  0  0  3  0  0  0  0  0  0
  -27.5210  -37.1020   24.8120 C   0  0  0  0  0  1  0  0  0  0  0  0
  -26.4520  -37.3050   23.8370 N   0  0  0  0  0  0  0  0  0  0  0  0
  -26.0490  -38.2260   23.9920 H   0  0  0  0  0  0  0  0  0  0  0  0
  1  3  1  0
  2  6  1  0
  3 12  1  0
  3  6  2  0
  4  1  2  0
  4  5  1  0
  5  2  2  0
  6 11  1  0
  7  8  1  0
  7  4  1  0
  8  9  1  0
  9 10  1  0
 10 48  1  0
 10  5  1  0
 12 18  1  0
 13 18  1  0
 14 15  1  0
 14 13  1  0
 16 15  1  0
 16 23  1  0
 16 17  1  0
 18 17  1  0
 19 12  2  0
 20 21  2  0
 21 40  1  0
 22 21  1  0
 22 25  1  0
 23 20  1  0
 23 24  1  0
 24 22  2  0
 25 26  1  0
 26 27  2  0
 28 31  1  0
 28 27  1  0
 29 28  2  0
 30 29  1  0
 30 25  2  0
 31 32  1  0
 32 33  1  0
 33 34  2  0
 35 34  1  0
 35 39  1  0
 36 35  2  0
 37 32  2  0
 37 36  1  0
 38 37  1  0
 40 41  1  0
 41 44  1  0
 41 43  1  0
 42 40  2  0
 45 46  1  0
 45 20  1  0
 47 45  1  0
 48 50  1  0
 48 51  1  0
 49 48  1  0
 52 53  1  0
 52 51  1  0
 54 65  2  0
 55 53  1  0
 55 60  1  0
 56 64  1  0
 56 66  1  0
 57 63  1  0
 57 59  1  0
 58 64  1  0
 59 58  1  0
 60 59  2  0
 61 62  1  0
 61 55  2  0
 62 57  2  0
 63 56  1  0
 64 54  1  0
 66 68  2  0
 67 66  1  0
 69 67  1  0
 70 79  2  0
 70 75  1  0
 71 67  1  0
 71 75  1  0
 72 71  1  0
 73 74  1  0
 73 72  1  0
 74 70  1  0
 75 76  2  0
 76 77  1  0
 78 77  2  0
 79 78  1  0
 80 54  1  0
 80 85  1  0
 80 81  1  0
 81 84  1  1
 81 82  1  0
 83 81  1  0
 85 88  1  0
 86 90  1  0
 86 85  1  0
 87 86  2  0
 90 89  1  0
 92 90  1  0
 92 93  1  0
 92 91  1  0
M  ISO  4   3 100  12 100  52 101  53 101
M  END
>  <TORSDO>  (16) 
F 19

>  <SCORE>  (16) 
-13.127

>  <name>  (16) 
15

>  <ligand_id>  (16) 
15

>  <original_smiles>  (16) 
[H]c1c([H])c([H])c2c(c1[H])C([H])([H])C([H])([H])C([H])([H])C2([H])N([H])C(=O)C1([H])N(C(=O)C([H])(N([H])C(=O)C([H])(N([H])C([H])([H])[H])C([H])([H])[H])C(C([H])([H])[H])(C([H])([H])[H])C([H])([H])[H])C([H])([H])c2c([H])c(OC([H])([H])C([H])([H])[N+]([H])([H])C3([H])c4c([H])c(C([H])([H])[H])c(C(=O)N5C([H])([H])C([H])([H])C([H])([H])C([H])(n6nc(-c7c([H])c([H])c(Oc8c([H])c([H])c(F)c([H])c8F)c([H])c7[H])c(C(=O)N([H])[H])c6N([H])[H])C5([H])[H])c([H])c4C([H])([H])C([H])([H])C3([H])[H])c([H])c([H])c2C1([H])[H]

>  <smiles>  (16) 
[H]c1c([H])c([H])c2c(c1[H])C([H])([H])C([H])([H])C([H])([H])C2([H])N([H])C(=O)C1([H])N(C(=O)C([H])(N([H])C(=O)C([H])(N([H])C([H])([H])[H])C([H])([H])[H])C(C([H])([H])[H])(C([H])([H])[H])C([H])([H])[H])C([H])([H])c2c([H])c(OC([H])([H])C([H])([H])[N+]([H])([H])C3([H])c4c([H])c(C([H])([H])[H])c(C(=O)N5C([H])([H])C([H])([H])C([H])([H])C([H])(n6nc(-c7c([H])c([H])c(Oc8c([H])c([H])c(F)c([H])c8F)c([H])c7[H])c(C(=O)N([H])[H])c6N([H])[H])C5([H])[H])c([H])c4C([H])([H])C([H])([H])C3([H])[H])c([H])c([H])c2C1([H])[H]

$$$$
16:0:0
     RDKit          3D

 91100  0  0  1  0  0  0  0  0999 V2000
  -28.0190  -22.9380   19.2450 C   0  0  0  0  0  3  0  0  0  0  0  0
  -29.5770  -21.7000   21.0830 C   0  0  0  0  0  0  0  0  0  0  0  0
  -29.1970  -20.6080   20.1330 C   0  0  0  0  0  0  0  0  0  0  0  0
  -28.3580  -21.4360   19.2110 C   0  0  0  0  0  0  0  0  0  0  0  0
  -29.2350  -23.2060   21.0940 C   0  0  0  0  0  0  0  0  0  0  0  0
  -28.3980  -24.0390   20.1830 C   0  0  0  0  0  0  0  0  0  0  0  0
  -30.5270  -21.2370   22.1940 C   0  0  0  0  0  2  0  0  0  0  0  0
  -30.7700  -19.7200   22.3020 C   0  0  0  0  0  2  0  0  0  0  0  0
  -31.1840  -19.0720   20.9730 C   0  0  0  0  0  2  0  0  0  0  0  0
  -29.9740  -18.8980   20.0420 C   0  0  0  0  0  3  0  0  0  0  0  0
  -27.7950  -20.6900   18.0150 C   0  0  0  0  0  1  0  0  0  0  0  0
  -29.9030  -24.0490   22.1760 C   0  0  0  0  0  1  0  0  0  0  0  0
  -30.4500  -15.7710   20.0410 C   0  0  0  0  0  0  0  0  0  0  0  0
  -30.5600  -13.2150   19.2700 C   0  0  0  0  0  2  0  0  0  0  0  0
  -29.6430  -12.7660   18.0960 C   0  0  0  0  0  2  0  0  0  0  0  0
  -28.2390  -12.4010   18.6030 C   0  0  0  0  0  2  0  0  0  0  0  0
  -27.7420  -13.4210   19.6530 C   0  0  0  0  0  3  0  0  0  0  0  0
  -28.7970  -13.7790   20.7250 C   0  0  0  0  0  2  0  0  0  0  0  0
  -29.9360  -14.4020   20.0130 N   0  0  0  0  0  0  0  0  0  0  0  0
  -31.6800  -15.7070   19.8550 O   0  0  0  0  0  0  0  0  0  0  0  0
  -29.6940  -17.1400   20.0900 N   0  0  0  0  0  0  0  0  0  0  0  0
  -28.7040  -16.9570   20.1650 H   0  0  0  0  0  0  0  0  0  0  0  0
  -25.4170  -13.9330   20.5350 C   0  0  0  0  0  0  0  0  0  0  0  0
  -24.3720  -13.1450   20.9220 C   0  0  0  0  0  0  0  0  0  0  0  0
  -24.8390  -11.7970   20.8320 C   0  0  0  0  0  0  0  0  0  0  0  0
  -26.4480  -13.0700   20.2210 N   0  0  0  0  0  0  0  0  0  0  0  0
  -26.1180  -11.7740   20.4690 N   0  0  0  0  0  0  0  0  0  0  0  0
  -24.1170  -10.5300   21.0130 C   0  0  0  0  0  0  0  0  0  0  0  0
  -24.5500   -9.5550   21.9380 C   0  0  0  0  0  3  0  0  0  0  0  0
  -23.8240   -8.3560   22.1090 C   0  0  0  0  0  3  0  0  0  0  0  0
  -22.6500   -8.1230   21.3550 C   0  0  0  0  0  0  0  0  0  0  0  0
  -22.2350   -9.0860   20.4190 C   0  0  0  0  0  3  0  0  0  0  0  0
  -22.9620  -10.2770   20.2460 C   0  0  0  0  0  3  0  0  0  0  0  0
  -21.8940   -6.9770   21.4370 O   0  0  0  0  0  0  0  0  0  0  0  0
  -21.7990   -6.2590   22.6020 C   0  0  0  0  0  0  0  0  0  0  0  0
  -21.2860   -6.8300   23.7870 C   0  0  0  0  0  3  0  0  0  0  0  0
  -21.1380   -6.0370   24.9430 C   0  0  0  0  0  3  0  0  0  0  0  0
  -21.4950   -4.6750   24.9140 C   0  0  0  0  0  0  0  0  0  0  0  0
  -22.0020   -4.1050   23.7330 C   0  0  0  0  0  3  0  0  0  0  0  0
  -22.1500   -4.8950   22.5800 C   0  0  0  0  0  0  0  0  0  0  0  0
  -22.6200   -4.3350   21.4380 F   0  0  0  0  0  0  0  0  0  0  0  0
  -21.3470   -3.9110   26.0210 F   0  0  0  0  0  0  0  0  0  0  0  0
  -22.9870  -13.6150   21.2530 C   0  0  0  0  0  0  0  0  0  0  0  0
  -22.2910  -12.9050   22.1330 N   0  0  0  0  0  0  0  0  0  0  0  0
  -22.5320  -14.6500   20.7650 O   0  0  0  0  0  0  0  0  0  0  0  0
  -22.6720  -12.0680   22.5490 H   0  0  0  0  0  0  0  0  0  0  0  0
  -21.3630  -13.2050   22.3980 H   0  0  0  0  0  0  0  0  0  0  0  0
  -25.5700  -15.3090   20.3890 N   0  0  0  0  0  0  0  0  0  0  0  0
  -24.8060  -15.9570   20.5460 H   0  0  0  0  0  0  0  0  0  0  0  0
  -26.3940  -15.7560   20.0090 H   0  0  0  0  0  0  0  0  0  0  0  0
  -28.3030  -25.6590   20.1360 O   0  0  0  0  0  0  0  0  0  0  0  0
  -24.7410  -31.8670   23.1870 C   0  0  0  0  0  0  0  0  0  0  0  0
  -27.2750  -26.8190   20.1580 C   0  0  0  0  0  0  0  0  0  0  0  0
  -23.5500  -30.4690   21.5530 C   0  0  0  0  0  3  0  0  0  0  0  0
  -24.9950  -28.8320   20.1270 C   0  0  0  0  0  0  0  0  0  0  0  0
  -26.1260  -30.6240   21.4180 C   0  0  0  0  0  2  0  0  0  0  0  0
  -26.1890  -29.1940   20.7580 C   0  0  0  0  0  0  0  0  0  0  0  0
  -27.3130  -28.2150   20.7420 C   0  0  0  0  0  3  0  0  0  0  0  0
  -26.0440  -26.6640   19.4730 C   0  0  0  0  0  3  0  0  0  0  0  0
  -24.9580  -27.5920   19.4640 C   0  0  0  0  0  3  0  0  0  0  0  0
  -23.7850  -29.7780   20.1780 C   0  0  0  0  0  2  0  0  0  0  0  0
  -24.8300  -31.0190   22.1060 N   0  0  0  0  0  0  0  0  0  0  0  0
  -23.6490  -32.1580   23.7060 O   0  0  0  0  0  0  0  0  0  0  0  0
  -22.8460  -29.4820   22.5240 C   0  0  0  0  0  0  0  0  0  0  0  0
  -21.5150  -29.3210   22.4040 N   0  0  0  0  0  0  0  0  0  0  0  0
  -23.5100  -28.8610   23.3580 O   0  0  0  0  0  0  0  0  0  0  0  0
  -21.0290  -29.8730   21.7100 H   0  0  0  0  0  0  0  0  0  0  0  0
  -18.1360  -28.0910   22.9290 C   0  0  0  0  0  0  0  0  0  0  0  0
  -20.6960  -28.3780   23.1770 C   0  0  0  0  0  3  0  0  0  0  0  0
  -20.8030  -26.9470   22.5970 C   0  0  0  0  0  2  0  0  0  0  0  0
  -19.6990  -26.6200   21.5880 C   0  0  0  0  0  2  0  0  0  0  0  0
  -18.3200  -26.7490   22.2400 C   0  0  0  0  0  2  0  0  0  0  0  0
  -19.2510  -28.8620   23.3530 C   0  0  0  0  0  0  0  0  0  0  0  0
  -19.0200  -30.1160   23.9620 C   0  0  0  0  0  3  0  0  0  0  0  0
  -17.7110  -30.5990   24.1470 C   0  0  0  0  0  3  0  0  0  0  0  0
  -16.6120  -29.8250   23.7340 C   0  0  0  0  0  3  0  0  0  0  0  0
  -16.8260  -28.5730   23.1310 C   0  0  0  0  0  3  0  0  0  0  0  0
  -26.0030  -32.5200   23.8250 C   0  0  0  0  0  3  0  0  0  0  0  0
  -25.6710  -33.9150   24.1790 N   0  0  0  0  0  0  0  0  0  0  0  0
  -25.9610  -34.9910   23.4330 C   0  0  0  0  0  0  0  0  0  0  0  0
  -26.5930  -34.9140   22.3770 O   0  0  0  0  0  0  0  0  0  0  0  0
  -25.1010  -34.0460   25.0000 H   0  0  0  0  0  0  0  0  0  0  0  0
  -24.1820  -36.7630   23.2060 C   0  0  0  0  0  1  0  0  0  0  0  0
  -25.4770  -36.3680   23.9360 C   0  0  0  0  0  3  0  0  0  0  0  0
  -27.6350  -37.2970   24.6540 C   0  0  0  0  0  1  0  0  0  0  0  0
  -26.4800  -37.4440   23.7720 N   0  0  0  0  0  0  0  0  0  0  0  0
  -26.0640  -38.3540   23.9460 H   0  0  0  0  0  0  0  0  0  0  0  0
  -26.5160  -31.7530   25.1070 C   0  0  1  0  0  0  0  0  0  0  0  0
  -25.4190  -31.5090   26.1710 C   0  0  0  0  0  1  0  0  0  0  0  0
  -27.1090  -30.3770   24.7320 C   0  0  0  0  0  1  0  0  0  0  0  0
  -27.6590  -32.5540   25.7750 C   0  0  0  0  0  1  0  0  0  0  0  0
  1  6  1  0
  2  5  1  0
  2  7  1  0
  3  2  2  0
  4  1  2  0
  4  3  1  0
  5 12  1  0
  6  5  2  0
  7  8  1  0
  9  8  1  0
 10 21  1  0
 10  3  1  0
 10  9  1  0
 11  4  1  0
 13 21  1  0
 14 19  1  0
 15 16  1  0
 15 14  1  0
 17 16  1  0
 17 26  1  0
 17 18  1  0
 19 13  1  0
 19 18  1  0
 20 13  2  0
 21 22  1  0
 23 24  2  0
 24 43  1  0
 25 24  1  0
 25 28  1  0
 26 27  1  0
 26 23  1  0
 27 25  2  0
 28 29  1  0
 29 30  2  0
 31 34  1  0
 31 30  1  0
 32 31  2  0
 33 32  1  0
 33 28  2  0
 34 35  1  0
 35 36  1  0
 36 37  2  0
 38 37  1  0
 38 42  1  0
 39 38  2  0
 40 35  2  0
 40 39  1  0
 41 40  1  0
 43 44  1  0
 44 47  1  0
 44 46  1  0
 45 43  2  0
 48 23  1  0
 48 49  1  0
 50 48  1  0
 51 53  1  0
 51  6  1  0
 52 63  2  0
 53 58  1  0
 54 62  1  0
 54 64  1  0
 55 61  1  0
 55 57  1  0
 56 62  1  0
 57 56  1  0
 58 57  2  0
 59 53  2  0
 60 59  1  0
 60 55  2  0
 61 54  1  0
 62 52  1  0
 64 66  2  0
 65 64  1  0
 67 65  1  0
 68 77  2  0
 68 73  1  0
 69 65  1  0
 69 73  1  0
 70 69  1  0
 71 72  1  0
 71 70  1  0
 72 68  1  0
 73 74  2  0
 74 75  1  0
 76 75  2  0
 77 76  1  0
 78 52  1  0
 78 79  1  0
 78 88  1  0
 79 82  1  0
 80 84  1  0
 80 79  1  0
 81 80  2  0
 84 83  1  0
 86 84  1  0
 86 87  1  0
 86 85  1  0
 88 91  1  1
 88 89  1  0
 90 88  1  0
M  ISO  4   6 101  13 100  21 100  51 101
M  END
>  <TORSDO>  (17) 
F 16

>  <SCORE>  (17) 
-16.064

>  <name>  (17) 
16

>  <ligand_id>  (17) 
16

>  <original_smiles>  (17) 
[H]c1c([H])c([H])c2c(c1[H])C([H])([H])C([H])([H])C([H])([H])C2([H])N([H])C(=O)C1([H])N(C(=O)C([H])(N([H])C(=O)C([H])(N([H])C([H])([H])[H])C([H])([H])[H])C(C([H])([H])[H])(C([H])([H])[H])C([H])([H])[H])C([H])([H])c2c([H])c(Oc3c([H])c(C([H])([H])[H])c4c(c3C([H])([H])[H])C([H])([H])C([H])([H])C([H])([H])C4([H])N([H])C(=O)N3C([H])([H])C([H])([H])C([H])([H])C([H])(n4nc(-c5c([H])c([H])c(Oc6c([H])c([H])c(F)c([H])c6F)c([H])c5[H])c(C(=O)N([H])[H])c4N([H])[H])C3([H])[H])c([H])c([H])c2C1([H])[H]

>  <smiles>  (17) 
[H]c1c([H])c([H])c2c(c1[H])C([H])([H])C([H])([H])C([H])([H])C2([H])N([H])C(=O)C1([H])N(C(=O)C([H])(N([H])C(=O)C([H])(N([H])C([H])([H])[H])C([H])([H])[H])C(C([H])([H])[H])(C([H])([H])[H])C([H])([H])[H])C([H])([H])c2c([H])c(Oc3c([H])c(C([H])([H])[H])c4c(c3C([H])([H])[H])C([H])([H])C([H])([H])C([H])([H])C4([H])N([H])C(=O)N3C([H])([H])C([H])([H])C([H])([H])C([H])(n4nc(-c5c([H])c([H])c(Oc6c([H])c([H])c(F)c([H])c6F)c([H])c5[H])c(C(=O)N([H])[H])c4N([H])[H])C3([H])[H])c([H])c([H])c2C1([H])[H]

$$$$
17:0:0
     RDKit          3D

 88 96  0  0  1  0  0  0  0  0999 V2000
  -27.7060  -22.6290   18.0430 C   0  0  0  0  0  3  0  0  0  0  0  0
  -28.2140  -21.4650   18.6830 C   0  0  0  0  0  3  0  0  0  0  0  0
  -27.7090  -23.9410   18.6000 C   0  0  0  0  0  3  0  0  0  0  0  0
  -28.7340  -22.9390   20.5260 C   0  0  0  0  0  3  0  0  0  0  0  0
  -28.7760  -21.4720   19.9750 C   0  0  0  0  0  0  0  0  0  0  0  0
  -28.1920  -24.2620   19.8920 C   0  0  0  0  0  0  0  0  0  0  0  0
  -28.1980  -25.7760   20.2760 O   0  0  0  0  0  0  0  0  0  0  0  0
  -24.6440  -31.8450   23.1820 C   0  0  0  0  0  0  0  0  0  0  0  0
  -27.1860  -26.8940   20.1810 C   0  0  0  0  0  0  0  0  0  0  0  0
  -23.4460  -30.4370   21.5630 C   0  0  0  0  0  3  0  0  0  0  0  0
  -24.8870  -28.8150   20.1420 C   0  0  0  0  0  0  0  0  0  0  0  0
  -26.0190  -30.6270   21.4110 C   0  0  0  0  0  2  0  0  0  0  0  0
  -26.0830  -29.2100   20.7550 C   0  0  0  0  0  0  0  0  0  0  0  0
  -27.2190  -28.2730   20.7480 C   0  0  0  0  0  3  0  0  0  0  0  0
  -25.9460  -26.6610   19.5360 C   0  0  0  0  0  3  0  0  0  0  0  0
  -24.8490  -27.5620   19.5110 C   0  0  0  0  0  3  0  0  0  0  0  0
  -23.6720  -29.7460   20.1890 C   0  0  0  0  0  2  0  0  0  0  0  0
  -24.7260  -30.9980   22.1040 N   0  0  0  0  0  0  0  0  0  0  0  0
  -23.5550  -32.1390   23.7030 O   0  0  0  0  0  0  0  0  0  0  0  0
  -22.7520  -29.4490   22.5370 C   0  0  0  0  0  0  0  0  0  0  0  0
  -21.4200  -29.2890   22.4210 N   0  0  0  0  0  0  0  0  0  0  0  0
  -23.4210  -28.8240   23.3640 O   0  0  0  0  0  0  0  0  0  0  0  0
  -20.9350  -29.8400   21.7270 H   0  0  0  0  0  0  0  0  0  0  0  0
  -18.0360  -28.0870   22.9550 C   0  0  0  0  0  0  0  0  0  0  0  0
  -20.5980  -28.3600   23.2040 C   0  0  0  0  0  3  0  0  0  0  0  0
  -20.6980  -26.9230   22.6400 C   0  0  0  0  0  2  0  0  0  0  0  0
  -19.5920  -26.5900   21.6340 C   0  0  0  0  0  2  0  0  0  0  0  0
  -18.2130  -26.7340   22.2840 C   0  0  0  0  0  2  0  0  0  0  0  0
  -19.1550  -28.8550   23.3730 C   0  0  0  0  0  0  0  0  0  0  0  0
  -18.9330  -30.1190   23.9630 C   0  0  0  0  0  3  0  0  0  0  0  0
  -17.6260  -30.6110   24.1390 C   0  0  0  0  0  3  0  0  0  0  0  0
  -16.5220  -29.8400   23.7370 C   0  0  0  0  0  3  0  0  0  0  0  0
  -16.7290  -28.5800   23.1490 C   0  0  0  0  0  3  0  0  0  0  0  0
  -25.9140  -32.4950   23.8080 C   0  0  0  0  0  3  0  0  0  0  0  0
  -25.5920  -33.8940   24.1430 N   0  0  0  0  0  0  0  0  0  0  0  0
  -25.9190  -34.9590   23.3970 C   0  0  0  0  0  0  0  0  0  0  0  0
  -26.5840  -34.8670   22.3630 O   0  0  0  0  0  0  0  0  0  0  0  0
  -25.0030  -34.0400   24.9490 H   0  0  0  0  0  0  0  0  0  0  0  0
  -24.1870  -36.7580   23.0700 C   0  0  0  0  0  1  0  0  0  0  0  0
  -25.4320  -36.3440   23.8710 C   0  0  0  0  0  3  0  0  0  0  0  0
  -27.5670  -37.2290   24.7030 C   0  0  0  0  0  1  0  0  0  0  0  0
  -26.4620  -37.4010   23.7630 N   0  0  0  0  0  0  0  0  0  0  0  0
  -26.0550  -38.3190   23.9160 H   0  0  0  0  0  0  0  0  0  0  0  0
  -26.4260  -31.7390   25.0960 C   0  0  1  0  0  0  0  0  0  0  0  0
  -25.3280  -31.5160   26.1620 C   0  0  0  0  0  1  0  0  0  0  0  0
  -27.0110  -30.3560   24.7310 C   0  0  0  0  0  1  0  0  0  0  0  0
  -27.5740  -32.5410   25.7520 C   0  0  0  0  0  1  0  0  0  0  0  0
  -29.2400  -19.8780   20.6080 C   0  0  0  0  0  2  0  0  0  0  0  0
  -31.0590  -18.4470   19.1390 C   0  0  0  0  0  1  0  0  0  0  0  0
  -29.7160  -18.2670   19.8720 C   0  0  0  0  0  0  0  0  0  0  0  0
  -30.4030  -15.3550   20.2980 C   0  0  0  0  0  0  0  0  0  0  0  0
  -30.3950  -12.8700   19.5050 C   0  0  0  0  0  2  0  0  0  0  0  0
  -29.5120  -12.6430   18.2510 C   0  0  0  0  0  2  0  0  0  0  0  0
  -28.0560  -12.3640   18.6600 C   0  0  0  0  0  2  0  0  0  0  0  0
  -27.5730  -13.3500   19.7500 C   0  0  0  0  0  3  0  0  0  0  0  0
  -28.5910  -13.5430   20.8970 C   0  0  0  0  0  2  0  0  0  0  0  0
  -29.8390  -14.0410   20.2890 N   0  0  0  0  0  0  0  0  0  0  0  0
  -31.6160  -15.3320   20.0420 O   0  0  0  0  0  0  0  0  0  0  0  0
  -29.6530  -16.6480   20.3930 N   0  0  0  0  0  4  0  0  0  0  0  0
  -28.7150  -16.4410   20.7060 H   0  0  0  0  0  0  0  0  0  0  0  0
  -25.1910  -13.9120   20.4510 C   0  0  0  0  0  0  0  0  0  0  0  0
  -24.1230  -13.1390   20.8100 C   0  0  0  0  0  0  0  0  0  0  0  0
  -24.5910  -11.7880   20.8050 C   0  0  0  0  0  0  0  0  0  0  0  0
  -26.2380  -13.0340   20.2390 N   0  0  0  0  0  0  0  0  0  0  0  0
  -25.8870  -11.7520   20.5170 N   0  0  0  0  0  0  0  0  0  0  0  0
  -23.8610  -10.5280   20.9950 C   0  0  0  0  0  0  0  0  0  0  0  0
  -24.2740   -9.5680   21.9450 C   0  0  0  0  0  3  0  0  0  0  0  0
  -23.5420   -8.3740   22.1200 C   0  0  0  0  0  3  0  0  0  0  0  0
  -22.3790   -8.1320   21.3510 C   0  0  0  0  0  0  0  0  0  0  0  0
  -21.9850   -9.0820   20.3910 C   0  0  0  0  0  3  0  0  0  0  0  0
  -22.7180  -10.2680   20.2140 C   0  0  0  0  0  3  0  0  0  0  0  0
  -21.6180   -6.9900   21.4370 O   0  0  0  0  0  0  0  0  0  0  0  0
  -21.5510   -6.2570   22.5940 C   0  0  0  0  0  0  0  0  0  0  0  0
  -21.1170   -6.8230   23.8130 C   0  0  0  0  0  3  0  0  0  0  0  0
  -20.9960   -6.0150   24.9610 C   0  0  0  0  0  3  0  0  0  0  0  0
  -21.3020   -4.6430   24.8920 C   0  0  0  0  0  0  0  0  0  0  0  0
  -21.7290   -4.0750   23.6780 C   0  0  0  0  0  3  0  0  0  0  0  0
  -21.8520   -4.8810   22.5320 C   0  0  0  0  0  0  0  0  0  0  0  0
  -22.2430   -4.3260   21.3600 F   0  0  0  0  0  0  0  0  0  0  0  0
  -21.1790   -3.8640   25.9930 F   0  0  0  0  0  0  0  0  0  0  0  0
  -22.7210  -13.6150   21.0420 C   0  0  0  0  0  0  0  0  0  0  0  0
  -21.9730  -12.9330   21.9030 N   0  0  0  0  0  0  0  0  0  0  0  0
  -22.2990  -14.6370   20.4990 O   0  0  0  0  0  0  0  0  0  0  0  0
  -22.3230  -12.1080   22.3670 H   0  0  0  0  0  0  0  0  0  0  0  0
  -21.0300  -13.2420   22.1010 H   0  0  0  0  0  0  0  0  0  0  0  0
  -25.3600  -15.2800   20.2600 N   0  0  0  0  0  0  0  0  0  0  0  0
  -24.5920  -15.9390   20.3380 H   0  0  0  0  0  0  0  0  0  0  0  0
  -26.2140  -15.7080   19.9310 H   0  0  0  0  0  0  0  0  0  0  0  0
  1  3  2  0
  1  2  1  0
  2  5  2  0
  3  6  1  0
  5  4  1  0
  5 48  1  0
  6  7  1  0
  6  4  2  0
  8 19  2  0
  9  7  1  0
  9 14  1  0
 10 18  1  0
 10 20  1  0
 11 17  1  0
 11 13  1  0
 12 18  1  0
 13 12  1  0
 14 13  2  0
 15  9  2  0
 16 15  1  0
 16 11  2  0
 17 10  1  0
 18  8  1  0
 20 22  2  0
 21 20  1  0
 23 21  1  0
 24 33  2  0
 24 29  1  0
 25 21  1  0
 25 29  1  0
 26 25  1  0
 27 28  1  0
 27 26  1  0
 28 24  1  0
 29 30  2  0
 30 31  1  0
 32 31  2  0
 33 32  1  0
 34  8  1  0
 34 35  1  0
 34 44  1  0
 35 38  1  0
 36 40  1  0
 36 35  1  0
 37 36  2  0
 40 39  1  0
 42 40  1  0
 42 43  1  0
 42 41  1  0
 44 47  1  1
 44 45  1  0
 46 44  1  0
 49 50  1  0
 50 59  2  0
 50 48  1  0
 51 59  1  0
 52 57  1  0
 53 54  1  0
 53 52  1  0
 55 54  1  0
 55 64  1  0
 55 56  1  0
 57 51  1  0
 57 56  1  0
 58 51  2  0
 59 60  1  0
 61 62  2  0
 62 81  1  0
 63 62  1  0
 63 66  1  0
 64 61  1  0
 64 65  1  0
 65 63  2  0
 66 67  1  0
 67 68  2  0
 69 72  1  0
 69 68  1  0
 70 69  2  0
 71 70  1  0
 71 66  2  0
 72 73  1  0
 73 74  1  0
 74 75  2  0
 76 75  1  0
 76 80  1  0
 77 76  2  0
 78 73  2  0
 78 77  1  0
 79 78  1  0
 81 82  1  0
 82 85  1  0
 82 84  1  0
 83 81  2  0
 86 87  1  0
 86 61  1  0
 88 86  1  0
M  ISO  4   6 101   7 101  51 100  59 100
M  END
>  <TORSDO>  (18) 
F 18

>  <SCORE>  (18) 
-15.686

>  <name>  (18) 
17

>  <ligand_id>  (18) 
17

>  <original_smiles>  (18) 
[H]c1c([H])c([H])c2c(c1[H])C([H])([H])C([H])([H])C([H])([H])C2([H])N([H])C(=O)C1([H])N(C(=O)C([H])(N([H])C(=O)C([H])(N([H])C([H])([H])[H])C([H])([H])[H])C(C([H])([H])[H])(C([H])([H])[H])C([H])([H])[H])C([H])([H])c2c([H])c(Oc3c([H])c([H])c([H])c(C([H])([H])C([H])(N([H])C(=O)N4C([H])([H])C([H])([H])C([H])([H])C([H])(n5nc(-c6c([H])c([H])c(Oc7c([H])c([H])c(F)c([H])c7F)c([H])c6[H])c(C(=O)N([H])[H])c5N([H])[H])C4([H])[H])C([H])([H])[H])c3[H])c([H])c([H])c2C1([H])[H]

>  <smiles>  (18) 
[H]c1c([H])c([H])c2c(c1[H])C([H])([H])C([H])([H])C([H])([H])C2([H])N([H])C(=O)C1([H])N(C(=O)C([H])(N([H])C(=O)C([H])(N([H])C([H])([H])[H])C([H])([H])[H])C(C([H])([H])[H])(C([H])([H])[H])C([H])([H])[H])C([H])([H])c2c([H])c(Oc3c([H])c([H])c([H])c(C([H])([H])C([H])(N([H])C(=O)N4C([H])([H])C([H])([H])C([H])([H])C([H])(n5nc(-c6c([H])c([H])c(Oc7c([H])c([H])c(F)c([H])c7F)c([H])c6[H])c(C(=O)N([H])[H])c5N([H])[H])C4([H])[H])C([H])([H])[H])c3[H])c([H])c([H])c2C1([H])[H]

$$$$
18:0:0
     RDKit          3D

 90 99  0  0  1  0  0  0  0  0999 V2000
  -31.2250  -21.2680   19.5150 C   0  0  0  0  0  3  0  0  0  0  0  0
  -28.6770  -20.6740   20.0620 C   0  0  0  0  0  3  0  0  0  0  0  0
  -30.8940  -19.9020   19.8060 C   0  0  0  0  0  0  0  0  0  0  0  0
  -29.6020  -19.3720   19.8860 C   0  0  0  0  0  0  0  0  0  0  0  0
  -30.3060  -22.3680   19.5040 C   0  0  0  0  0  0  0  0  0  0  0  0
  -28.9590  -22.2570   19.9510 C   0  0  0  0  0  0  0  0  0  0  0  0
  -30.9760  -17.8680   21.1410 C   0  0  0  0  0  2  0  0  0  0  0  0
  -31.8730  -18.9500   20.4450 C   0  0  0  0  0  3  0  0  0  0  0  0
  -29.6870  -17.5500   20.2950 C   0  0  1  0  0  0  0  0  0  0  0  0
  -30.7970  -23.7120   19.0000 C   0  0  0  0  0  1  0  0  0  0  0  0
  -32.9880  -18.4790   19.5060 C   0  0  0  0  0  1  0  0  0  0  0  0
  -28.4510  -17.3230   21.1830 C   0  0  0  0  0  1  0  0  0  0  0  0
  -30.2660  -15.8120   19.7130 C   0  0  0  0  0  0  0  0  0  0  0  0
  -30.3590  -13.2510   18.8840 C   0  0  0  0  0  2  0  0  0  0  0  0
  -29.3750  -12.8050   17.7620 C   0  0  0  0  0  2  0  0  0  0  0  0
  -28.0370  -12.3550   18.3520 C   0  0  0  0  0  2  0  0  0  0  0  0
  -27.5860  -13.3280   19.4610 C   0  0  0  0  0  3  0  0  0  0  0  0
  -28.6910  -13.7350   20.4770 C   0  0  0  0  0  2  0  0  0  0  0  0
  -29.7890  -14.4120   19.7300 N   0  0  0  0  0  0  0  0  0  0  0  0
  -31.4120  -15.7240   19.2210 O   0  0  0  0  0  0  0  0  0  0  0  0
  -25.3120  -13.7380   20.4950 C   0  0  0  0  0  0  0  0  0  0  0  0
  -24.3150  -12.9120   20.9160 C   0  0  0  0  0  0  0  0  0  0  0  0
  -24.8040  -11.5780   20.7470 C   0  0  0  0  0  0  0  0  0  0  0  0
  -26.3430  -12.9150   20.0920 N   0  0  0  0  0  0  0  0  0  0  0  0
  -26.0580  -11.6010   20.3030 N   0  0  0  0  0  0  0  0  0  0  0  0
  -24.1220  -10.2890   20.9300 C   0  0  0  0  0  0  0  0  0  0  0  0
  -24.5950   -9.3260   21.8460 C   0  0  0  0  0  3  0  0  0  0  0  0
  -23.9090   -8.1040   22.0220 C   0  0  0  0  0  3  0  0  0  0  0  0
  -22.7300   -7.8380   21.2830 C   0  0  0  0  0  0  0  0  0  0  0  0
  -22.2760   -8.7920   20.3550 C   0  0  0  0  0  3  0  0  0  0  0  0
  -22.9640  -10.0040   20.1780 C   0  0  0  0  0  3  0  0  0  0  0  0
  -22.0110   -6.6720   21.3710 O   0  0  0  0  0  0  0  0  0  0  0  0
  -21.8770   -5.9920   22.5560 C   0  0  0  0  0  0  0  0  0  0  0  0
  -21.2760   -6.5800   23.6890 C   0  0  0  0  0  3  0  0  0  0  0  0
  -21.0980   -5.8210   24.8650 C   0  0  0  0  0  3  0  0  0  0  0  0
  -21.5100   -4.4740   24.9030 C   0  0  0  0  0  0  0  0  0  0  0  0
  -22.1000   -3.8850   23.7690 C   0  0  0  0  0  3  0  0  0  0  0  0
  -22.2790   -4.6430   22.6000 C   0  0  0  0  0  0  0  0  0  0  0  0
  -22.8300   -4.0620   21.5070 F   0  0  0  0  0  0  0  0  0  0  0  0
  -21.3290   -3.7440   26.0260 F   0  0  0  0  0  0  0  0  0  0  0  0
  -22.9480  -13.3330   21.3630 C   0  0  0  0  0  0  0  0  0  0  0  0
  -22.3370  -12.5740   22.2630 N   0  0  0  0  0  0  0  0  0  0  0  0
  -22.4380  -14.3760   20.9530 O   0  0  0  0  0  0  0  0  0  0  0  0
  -22.7670  -11.7280   22.6080 H   0  0  0  0  0  0  0  0  0  0  0  0
  -21.4270  -12.8370   22.6050 H   0  0  0  0  0  0  0  0  0  0  0  0
  -25.4330  -15.1210   20.3840 N   0  0  0  0  0  0  0  0  0  0  0  0
  -24.6760  -15.7490   20.6360 H   0  0  0  0  0  0  0  0  0  0  0  0
  -26.2290  -15.6010   19.9890 H   0  0  0  0  0  0  0  0  0  0  0  0
  -28.0030  -23.8380   20.2070 C   0  0  0  0  0  2  0  0  0  0  0  0
  -28.2600  -25.5790   20.1790 O   0  0  0  0  0  0  0  0  0  0  0  0
  -24.7510  -31.8320   23.2380 C   0  0  0  0  0  0  0  0  0  0  0  0
  -27.2880  -26.7940   20.1840 C   0  0  0  0  0  0  0  0  0  0  0  0
  -23.5640  -30.4650   21.5740 C   0  0  0  0  0  3  0  0  0  0  0  0
  -25.0140  -28.8210   20.1600 C   0  0  0  0  0  0  0  0  0  0  0  0
  -26.1470  -30.5950   21.4720 C   0  0  0  0  0  2  0  0  0  0  0  0
  -26.2130  -29.1710   20.7960 C   0  0  0  0  0  0  0  0  0  0  0  0
  -27.3330  -28.1860   20.7770 C   0  0  0  0  0  3  0  0  0  0  0  0
  -26.0540  -26.6540   19.5010 C   0  0  0  0  0  3  0  0  0  0  0  0
  -24.9720  -27.5830   19.4960 C   0  0  0  0  0  3  0  0  0  0  0  0
  -23.8110  -29.7760   20.2020 C   0  0  0  0  0  2  0  0  0  0  0  0
  -24.8450  -30.9950   22.1490 N   0  0  0  0  0  0  0  0  0  0  0  0
  -23.6540  -32.1330   23.7430 O   0  0  0  0  0  0  0  0  0  0  0  0
  -22.8350  -29.4820   22.5290 C   0  0  0  0  0  0  0  0  0  0  0  0
  -21.5050  -29.3220   22.3760 N   0  0  0  0  0  0  0  0  0  0  0  0
  -23.4770  -28.8530   23.3740 O   0  0  0  0  0  0  0  0  0  0  0  0
  -21.0380  -29.8810   21.6740 H   0  0  0  0  0  0  0  0  0  0  0  0
  -18.1100  -28.1100   22.8370 C   0  0  0  0  0  0  0  0  0  0  0  0
  -20.6690  -28.3750   23.1230 C   0  0  0  0  0  3  0  0  0  0  0  0
  -20.7720  -26.9480   22.5320 C   0  0  0  0  0  2  0  0  0  0  0  0
  -19.6790  -26.6400   21.5020 C   0  0  0  0  0  2  0  0  0  0  0  0
  -18.2930  -26.7730   22.1380 C   0  0  0  0  0  2  0  0  0  0  0  0
  -19.2250  -28.8670   23.2870 C   0  0  0  0  0  0  0  0  0  0  0  0
  -18.9980  -30.1150   23.9060 C   0  0  0  0  0  3  0  0  0  0  0  0
  -17.6920  -30.6100   24.0730 C   0  0  0  0  0  3  0  0  0  0  0  0
  -16.5910  -29.8490   23.6410 C   0  0  0  0  0  3  0  0  0  0  0  0
  -16.8020  -28.6000   23.0280 C   0  0  0  0  0  3  0  0  0  0  0  0
  -26.0120  -32.4680   23.9000 C   0  0  0  0  0  3  0  0  0  0  0  0
  -25.6970  -33.8690   24.2380 N   0  0  0  0  0  0  0  0  0  0  0  0
  -25.9890  -34.9310   23.4770 C   0  0  0  0  0  0  0  0  0  0  0  0
  -26.6100  -34.8320   22.4150 O   0  0  0  0  0  0  0  0  0  0  0  0
  -25.1420  -34.0170   25.0680 H   0  0  0  0  0  0  0  0  0  0  0  0
  -24.2200  -36.7100   23.2670 C   0  0  0  0  0  1  0  0  0  0  0  0
  -25.5280  -36.3180   23.9700 C   0  0  0  0  0  3  0  0  0  0  0  0
  -27.7060  -37.2550   24.6160 C   0  0  0  0  0  1  0  0  0  0  0  0
  -26.5300  -37.3870   23.7600 N   0  0  0  0  0  0  0  0  0  0  0  0
  -26.1220  -38.3030   23.9190 H   0  0  0  0  0  0  0  0  0  0  0  0
  -26.4810  -31.7000   25.1990 C   0  0  1  0  0  0  0  0  0  0  0  0
  -25.3560  -31.4770   26.2380 C   0  0  0  0  0  1  0  0  0  0  0  0
  -27.0600  -30.3130   24.8410 C   0  0  0  0  0  1  0  0  0  0  0  0
  -27.6190  -32.4830   25.8900 C   0  0  0  0  0  1  0  0  0  0  0  0
  1  3  1  0
  3  4  2  0
  3  8  1  0
  4  2  1  0
  4  9  1  0
  5  1  2  0
  5  6  1  0
  6  2  2  0
  6 49  1  0
  8 11  1  0
  8  7  1  0
  9  7  1  0
  9 12  1  1
 10  5  1  0
 13 19  1  0
 13  9  1  0
 14 19  1  0
 15 16  1  0
 15 14  1  0
 17 16  1  0
 17 24  1  0
 17 18  1  0
 19 18  1  0
 20 13  2  0
 21 22  2  0
 22 41  1  0
 23 22  1  0
 23 26  1  0
 24 25  1  0
 24 21  1  0
 25 23  2  0
 26 27  1  0
 27 28  2  0
 29 32  1  0
 29 28  1  0
 30 29  2  0
 31 30  1  0
 31 26  2  0
 32 33  1  0
 33 38  2  0
 33 34  1  0
 34 35  2  0
 35 36  1  0
 36 40  1  0
 37 36  2  0
 38 37  1  0
 39 38  1  0
 41 42  1  0
 42 45  1  0
 42 44  1  0
 43 41  2  0
 46 21  1  0
 46 47  1  0
 48 46  1  0
 50 52  1  0
 50 49  1  0
 51 62  2  0
 52 57  1  0
 53 61  1  0
 53 63  1  0
 54 60  1  0
 54 56  1  0
 55 61  1  0
 56 55  1  0
 57 56  2  0
 58 52  2  0
 59 58  1  0
 59 54  2  0
 60 53  1  0
 61 51  1  0
 63 65  2  0
 64 63  1  0
 66 64  1  0
 67 76  2  0
 67 72  1  0
 68 64  1  0
 68 72  1  0
 69 68  1  0
 70 71  1  0
 70 69  1  0
 71 67  1  0
 72 73  2  0
 73 74  1  0
 75 74  2  0
 76 75  1  0
 77 51  1  0
 77 78  1  0
 77 87  1  0
 78 81  1  0
 79 83  1  0
 79 78  1  0
 80 79  2  0
 83 82  1  0
 85 86  1  0
 85 83  1  0
 85 84  1  0
 87 90  1  1
 87 88  1  0
 89 87  1  0
M  ISO  4   9 100  13 100  49 101  50 101
M  END
>  <TORSDO>  (19) 
F 17

>  <SCORE>  (19) 
-15.725

>  <name>  (19) 
18

>  <ligand_id>  (19) 
18

>  <original_smiles>  (19) 
[H]c1c([H])c([H])c2c(c1[H])C([H])([H])C([H])([H])C([H])([H])C2([H])N([H])C(=O)C1([H])N(C(=O)C([H])(N([H])C(=O)C([H])(N([H])C([H])([H])[H])C([H])([H])[H])C(C([H])([H])[H])(C([H])([H])[H])C([H])([H])[H])C([H])([H])c2c([H])c(OC([H])([H])c3c([H])c4c(c([H])c3C([H])([H])[H])C([H])(C([H])([H])[H])C([H])([H])C4(C(=O)N3C([H])([H])C([H])([H])C([H])([H])C([H])(n4nc(-c5c([H])c([H])c(Oc6c([H])c([H])c(F)c([H])c6F)c([H])c5[H])c(C(=O)N([H])[H])c4N([H])[H])C3([H])[H])C([H])([H])[H])c([H])c([H])c2C1([H])[H]

>  <smiles>  (19) 
[H]c1c([H])c([H])c2c(c1[H])C([H])([H])C([H])([H])C([H])([H])C2([H])N([H])C(=O)C1([H])N(C(=O)C([H])(N([H])C(=O)C([H])(N([H])C([H])([H])[H])C([H])([H])[H])C(C([H])([H])[H])(C([H])([H])[H])C([H])([H])[H])C([H])([H])c2c([H])c(OC([H])([H])c3c([H])c4c(c([H])c3C([H])([H])[H])C([H])(C([H])([H])[H])C([H])([H])C4(C(=O)N3C([H])([H])C([H])([H])C([H])([H])C([H])(n4nc(-c5c([H])c([H])c(Oc6c([H])c([H])c(F)c([H])c6F)c([H])c5[H])c(C(=O)N([H])[H])c4N([H])[H])C3([H])[H])C([H])([H])[H])c([H])c([H])c2C1([H])[H]

$$$$
19:0:0
     RDKit          3D

 95105  0  0  1  0  0  0  0  0999 V2000
  -27.0360  -24.4110   21.4860 C   0  0  0  0  0  3  0  0  0  0  0  0
  -25.8100  -23.8030   21.2320 C   0  0  0  0  0  3  0  0  0  0  0  0
  -27.8730  -23.1500   19.5760 C   0  0  0  0  0  0  0  0  0  0  0  0
  -27.9500  -24.4530   20.4200 C   0  0  0  0  0  0  0  0  0  0  0  0
  -26.5290  -23.0410   19.1770 C   0  0  0  0  0  0  0  0  0  0  0  0
  -26.2340  -22.0230   18.1380 C   0  0  0  0  0  2  0  0  0  0  0  0
  -28.2630  -18.7160   20.5030 C   0  0  0  0  0  2  0  0  0  0  0  0
  -30.3980  -19.3040   19.5820 C   0  0  0  0  0  2  0  0  0  0  0  0
  -28.1200  -20.3740   20.7330 C   0  0  0  0  0  2  0  0  0  0  0  0
  -29.8000  -20.8310   19.1490 C   0  0  0  0  0  2  0  0  0  0  0  0
  -29.4650  -17.9910   19.7060 C   0  0  0  0  0  3  0  0  0  0  0  0
  -28.3120  -21.4330   19.5290 C   0  0  2  0  0  0  0  0  0  0  0  0
  -27.2280  -20.9130   18.4730 C   0  0  2  0  0  0  0  0  0  0  0  0
  -25.5020  -23.2910   20.0190 N   0  0  0  0  0  0  0  0  0  0  0  0
  -27.7740  -20.4350   17.3600 F   0  0  0  0  0  0  0  0  0  0  0  0
  -26.3890  -19.9690   18.9070 F   0  0  0  0  0  0  0  0  0  0  0  0
  -30.6490  -15.2530   19.8500 C   0  0  0  0  0  0  0  0  0  0  0  0
  -30.5810  -12.8400   18.9660 C   0  0  0  0  0  2  0  0  0  0  0  0
  -29.6060  -12.7920   17.7680 C   0  0  0  0  0  2  0  0  0  0  0  0
  -28.1450  -12.6000   18.2240 C   0  0  0  0  0  2  0  0  0  0  0  0
  -27.7950  -13.4510   19.4710 C   0  0  0  0  0  3  0  0  0  0  0  0
  -28.9030  -13.4660   20.5490 C   0  0  0  0  0  2  0  0  0  0  0  0
  -30.1270  -13.9430   19.8830 N   0  0  0  0  0  0  0  0  0  0  0  0
  -31.8190  -15.3360   19.4570 O   0  0  0  0  0  0  0  0  0  0  0  0
  -29.8060  -16.4140   20.1020 N   0  0  0  0  0  0  0  0  0  0  0  0
  -28.9900  -16.0350   20.5630 H   0  0  0  0  0  0  0  0  0  0  0  0
  -25.4570  -14.0010   20.3380 C   0  0  0  0  0  0  0  0  0  0  0  0
  -24.4150  -13.2190   20.7490 C   0  0  0  0  0  0  0  0  0  0  0  0
  -24.8720  -11.8690   20.6650 C   0  0  0  0  0  0  0  0  0  0  0  0
  -26.4850  -13.1290   20.0270 N   0  0  0  0  0  0  0  0  0  0  0  0
  -26.1450  -11.8360   20.2830 N   0  0  0  0  0  0  0  0  0  0  0  0
  -24.1450  -10.6090   20.8660 C   0  0  0  0  0  0  0  0  0  0  0  0
  -24.5600   -9.6560   21.8240 C   0  0  0  0  0  3  0  0  0  0  0  0
  -23.8290   -8.4640   22.0140 C   0  0  0  0  0  3  0  0  0  0  0  0
  -22.6720   -8.2090   21.2400 C   0  0  0  0  0  0  0  0  0  0  0  0
  -22.2740   -9.1490   20.2710 C   0  0  0  0  0  3  0  0  0  0  0  0
  -23.0070  -10.3330   20.0800 C   0  0  0  0  0  3  0  0  0  0  0  0
  -21.9170   -7.0650   21.3350 O   0  0  0  0  0  0  0  0  0  0  0  0
  -21.7690   -6.3950   22.5230 C   0  0  0  0  0  0  0  0  0  0  0  0
  -21.2320   -7.0190   23.6700 C   0  0  0  0  0  3  0  0  0  0  0  0
  -21.0340   -6.2750   24.8500 C   0  0  0  0  0  3  0  0  0  0  0  0
  -21.3630   -4.9080   24.8840 C   0  0  0  0  0  0  0  0  0  0  0  0
  -21.8920   -4.2810   23.7410 C   0  0  0  0  0  3  0  0  0  0  0  0
  -22.0910   -5.0230   22.5630 C   0  0  0  0  0  0  0  0  0  0  0  0
  -22.5820   -4.4090   21.4590 F   0  0  0  0  0  0  0  0  0  0  0  0
  -21.1670   -4.1900   26.0150 F   0  0  0  0  0  0  0  0  0  0  0  0
  -23.0390  -13.7000   21.1070 C   0  0  0  0  0  0  0  0  0  0  0  0
  -22.3530  -12.9980   22.0050 N   0  0  0  0  0  0  0  0  0  0  0  0
  -22.5790  -14.7320   20.6210 O   0  0  0  0  0  0  0  0  0  0  0  0
  -22.7410  -12.1660   22.4240 H   0  0  0  0  0  0  0  0  0  0  0  0
  -21.4310  -13.3020   22.2810 H   0  0  0  0  0  0  0  0  0  0  0  0
  -25.6080  -15.3750   20.1730 N   0  0  0  0  0  0  0  0  0  0  0  0
  -24.8200  -16.0040   20.2690 H   0  0  0  0  0  0  0  0  0  0  0  0
  -26.4100  -15.8200   19.7440 H   0  0  0  0  0  0  0  0  0  0  0  0
  -28.2090  -25.9250   20.1130 O   0  0  0  0  0  0  0  0  0  0  0  0
  -24.7450  -31.8580   23.2400 C   0  0  0  0  0  0  0  0  0  0  0  0
  -27.2290  -27.0410   20.1490 C   0  0  0  0  0  0  0  0  0  0  0  0
  -23.5290  -30.4890   21.6170 C   0  0  0  0  0  3  0  0  0  0  0  0
  -24.9450  -28.9080   20.1660 C   0  0  0  0  0  0  0  0  0  0  0  0
  -26.0840  -30.7030   21.4160 C   0  0  0  0  0  2  0  0  0  0  0  0
  -26.1470  -29.2910   20.7770 C   0  0  0  0  0  0  0  0  0  0  0  0
  -27.2990  -28.3910   20.7410 C   0  0  0  0  0  3  0  0  0  0  0  0
  -26.0150  -26.8010   19.4870 C   0  0  0  0  0  3  0  0  0  0  0  0
  -24.8970  -27.6800   19.4960 C   0  0  0  0  0  3  0  0  0  0  0  0
  -23.7470  -29.8490   20.2270 C   0  0  0  0  0  2  0  0  0  0  0  0
  -24.8090  -31.0350   22.1510 N   0  0  0  0  0  0  0  0  0  0  0  0
  -23.6580  -32.1420   23.7750 O   0  0  0  0  0  0  0  0  0  0  0  0
  -22.8670  -29.4550   22.5570 C   0  0  0  0  0  0  0  0  0  0  0  0
  -21.5370  -29.3150   22.4800 N   0  0  0  0  0  0  0  0  0  0  0  0
  -23.5580  -28.8040   23.3490 O   0  0  0  0  0  0  0  0  0  0  0  0
  -21.0590  -29.9660   21.8740 H   0  0  0  0  0  0  0  0  0  0  0  0
  -18.1660  -28.0460   22.9610 C   0  0  0  0  0  0  0  0  0  0  0  0
  -20.7270  -28.3290   23.2140 C   0  0  0  0  0  3  0  0  0  0  0  0
  -20.8490  -26.9090   22.6060 C   0  0  0  0  0  2  0  0  0  0  0  0
  -19.7220  -26.5600   21.6300 C   0  0  0  0  0  2  0  0  0  0  0  0
  -18.3400  -26.7070   22.2690 C   0  0  0  0  0  2  0  0  0  0  0  0
  -19.2780  -28.8110   23.3950 C   0  0  0  0  0  0  0  0  0  0  0  0
  -19.0520  -30.0730   23.9850 C   0  0  0  0  0  3  0  0  0  0  0  0
  -17.7400  -30.5550   24.1490 C   0  0  0  0  0  3  0  0  0  0  0  0
  -16.6400  -29.7780   23.7350 C   0  0  0  0  0  3  0  0  0  0  0  0
  -16.8620  -28.5230   23.1540 C   0  0  0  0  0  3  0  0  0  0  0  0
  -26.0110  -32.5140   23.8540 C   0  0  0  0  0  3  0  0  0  0  0  0
  -25.6930  -33.9140   24.1660 N   0  0  0  0  0  0  0  0  0  0  0  0
  -26.0410  -34.9810   23.4280 C   0  0  0  0  0  0  0  0  0  0  0  0
  -26.7250  -34.8720   22.4060 O   0  0  0  0  0  0  0  0  0  0  0  0
  -25.0270  -34.0590   24.9080 H   0  0  0  0  0  0  0  0  0  0  0  0
  -24.3090  -36.7800   23.0550 C   0  0  0  0  0  1  0  0  0  0  0  0
  -25.5440  -36.3690   23.8800 C   0  0  0  0  0  3  0  0  0  0  0  0
  -27.6710  -37.2470   24.7410 C   0  0  0  0  0  1  0  0  0  0  0  0
  -26.5790  -37.4230   23.7850 N   0  0  0  0  0  0  0  0  0  0  0  0
  -26.1720  -38.3440   23.9280 H   0  0  0  0  0  0  0  0  0  0  0  0
  -26.5070  -31.7640   25.1450 C   0  0  1  0  0  0  0  0  0  0  0  0
  -25.3990  -31.5540   26.2070 C   0  0  0  0  0  1  0  0  0  0  0  0
  -27.0840  -30.3850   24.7620 C   0  0  0  0  0  1  0  0  0  0  0  0
  -27.6430  -32.5670   25.8090 C   0  0  0  0  0  1  0  0  0  0  0  0
  2  1  1  0
  3  4  1  0
  4  1  2  0
  5  3  2  0
  5 14  1  0
  6 13  1  0
  6  5  1  0
  7  9  1  0
  8 11  1  0
 10  8  1  0
 11 25  1  0
 11  7  1  0
 12 10  1  6
 12  3  1  0
 12  9  1  0
 13 16  1  1
 13 12  1  0
 14  2  2  0
 15 13  1  0
 17 23  1  0
 17 25  1  0
 18 23  1  0
 19 20  1  0
 19 18  1  0
 21 20  1  0
 21 30  1  0
 21 22  1  0
 23 22  1  0
 24 17  2  0
 25 26  1  0
 27 28  2  0
 28 47  1  0
 29 28  1  0
 29 32  1  0
 30 31  1  0
 30 27  1  0
 31 29  2  0
 32 33  1  0
 33 34  2  0
 35 38  1  0
 35 34  1  0
 36 35  2  0
 37 36  1  0
 37 32  2  0
 38 39  1  0
 39 44  2  0
 39 40  1  0
 40 41  2  0
 41 42  1  0
 42 46  1  0
 43 42  2  0
 44 43  1  0
 45 44  1  0
 47 48  1  0
 48 51  1  0
 48 50  1  0
 49 47  2  0
 52 53  1  0
 52 27  1  0
 54 52  1  0
 55 57  1  0
 55  4  1  0
 56 67  2  0
 57 62  1  0
 58 66  1  0
 58 68  1  0
 59 65  1  0
 59 61  1  0
 60 66  1  0
 61 60  1  0
 62 61  2  0
 63 64  1  0
 63 57  2  0
 64 59  2  0
 65 58  1  0
 66 56  1  0
 68 70  2  0
 69 68  1  0
 71 69  1  0
 72 81  2  0
 72 77  1  0
 73 69  1  0
 73 77  1  0
 74 73  1  0
 75 76  1  0
 75 74  1  0
 76 72  1  0
 77 78  2  0
 78 79  1  0
 80 79  2  0
 81 80  1  0
 82 56  1  0
 82 83  1  0
 82 92  1  0
 83 86  1  0
 84 88  1  0
 84 83  1  0
 85 84  2  0
 88 87  1  0
 90 88  1  0
 90 91  1  0
 90 89  1  0
 92 95  1  1
 92 93  1  0
 94 92  1  0
M  ISO  4   4 101  17 100  25 100  55 101
M  END
>  <TORSDO>  (20) 
F 16

>  <SCORE>  (20) 
-15.612

>  <name>  (20) 
19

>  <ligand_id>  (20) 
19

>  <original_smiles>  (20) 
[H]c1nc2c(c(Oc3c([H])c([H])c4c(c3[H])C([H])([H])N(C(=O)C([H])(N([H])C(=O)C([H])(N([H])C([H])([H])[H])C([H])([H])[H])C(C([H])([H])[H])(C([H])([H])[H])C([H])([H])[H])C([H])(C(=O)N([H])C3([H])c5c([H])c([H])c([H])c([H])c5C([H])([H])C([H])([H])C3([H])[H])C4([H])[H])c1[H])C1(C([H])([H])C([H])([H])C([H])(N([H])C(=O)N3C([H])([H])C([H])([H])C([H])([H])C([H])(n4nc(-c5c([H])c([H])c(Oc6c([H])c([H])c(F)c([H])c6F)c([H])c5[H])c(C(=O)N([H])[H])c4N([H])[H])C3([H])[H])C([H])([H])C1([H])[H])C(F)(F)C2([H])[H]

>  <smiles>  (20) 
[H]c1nc2c(c(Oc3c([H])c([H])c4c(c3[H])C([H])([H])N(C(=O)C([H])(N([H])C(=O)C([H])(N([H])C([H])([H])[H])C([H])([H])[H])C(C([H])([H])[H])(C([H])([H])[H])C([H])([H])[H])C([H])(C(=O)N([H])C3([H])c5c([H])c([H])c([H])c([H])c5C([H])([H])C([H])([H])C3([H])[H])C4([H])[H])c1[H])C1(C([H])([H])C([H])([H])C([H])(N([H])C(=O)N3C([H])([H])C([H])([H])C([H])([H])C([H])(n4nc(-c5c([H])c([H])c(Oc6c([H])c([H])c(F)c([H])c6F)c([H])c5[H])c(C(=O)N([H])[H])c4N([H])[H])C3([H])[H])C([H])([H])C1([H])[H])C(F)(F)C2([H])[H]

$$$$
20:0:0
     RDKit          3D

 93102  0  0  1  0  0  0  0  0999 V2000
  -29.3440  -23.8220   17.6540 C   0  0  0  0  0  3  0  0  0  0  0  0
  -28.1930  -24.2910   18.3370 C   0  0  0  0  0  3  0  0  0  0  0  0
  -30.4740  -23.4010   18.4040 C   0  0  0  0  0  3  0  0  0  0  0  0
  -30.3180  -23.1770   19.7940 C   0  0  0  0  0  3  0  0  0  0  0  0
  -28.9790  -23.0010   20.2020 C   0  0  0  0  0  3  0  0  0  0  0  0
  -28.2240  -24.3140   19.7520 C   0  0  0  0  0  3  0  0  0  0  0  0
  -31.8210  -23.2060   17.7170 C   0  0  0  0  0  2  0  0  0  0  0  0
  -31.5070  -22.9080   20.7100 C   0  0  0  0  0  2  0  0  0  0  0  0
  -32.9280  -22.6460   18.6340 C   0  0  0  0  0  2  0  0  0  0  0  0
  -32.8560  -23.2410   20.0460 C   0  0  0  0  0  2  0  0  0  0  0  0
  -28.2130  -25.7910   20.2320 O   0  0  0  0  0  0  0  0  0  0  0  0
  -24.6640  -31.8210   23.2000 C   0  0  0  0  0  0  0  0  0  0  0  0
  -27.2050  -26.9090   20.1510 C   0  0  0  0  0  0  0  0  0  0  0  0
  -23.4640  -30.4250   21.5690 C   0  0  0  0  0  3  0  0  0  0  0  0
  -24.9050  -28.8150   20.1360 C   0  0  0  0  0  0  0  0  0  0  0  0
  -26.0310  -30.6260   21.4150 C   0  0  0  0  0  2  0  0  0  0  0  0
  -26.0980  -29.2110   20.7540 C   0  0  0  0  0  0  0  0  0  0  0  0
  -27.2360  -28.2760   20.7380 C   0  0  0  0  0  3  0  0  0  0  0  0
  -25.9710  -26.6700   19.5020 C   0  0  0  0  0  3  0  0  0  0  0  0
  -24.8720  -27.5720   19.4860 C   0  0  0  0  0  3  0  0  0  0  0  0
  -23.6880  -29.7380   20.1940 C   0  0  0  0  0  2  0  0  0  0  0  0
  -24.7420  -30.9860   22.1150 N   0  0  0  0  0  0  0  0  0  0  0  0
  -23.5770  -32.1150   23.7260 O   0  0  0  0  0  0  0  0  0  0  0  0
  -22.7640  -29.4380   22.5400 C   0  0  0  0  0  0  0  0  0  0  0  0
  -21.4330  -29.2810   22.4200 N   0  0  0  0  0  0  0  0  0  0  0  0
  -23.4280  -28.8120   23.3720 O   0  0  0  0  0  0  0  0  0  0  0  0
  -20.9530  -29.8240   21.7160 H   0  0  0  0  0  0  0  0  0  0  0  0
  -18.0500  -28.0660   22.9290 C   0  0  0  0  0  0  0  0  0  0  0  0
  -20.6070  -28.3480   23.1950 C   0  0  0  0  0  3  0  0  0  0  0  0
  -20.7180  -26.9120   22.6330 C   0  0  0  0  0  2  0  0  0  0  0  0
  -19.6180  -26.5740   21.6200 C   0  0  0  0  0  2  0  0  0  0  0  0
  -18.2340  -26.7140   22.2600 C   0  0  0  0  0  2  0  0  0  0  0  0
  -19.1630  -28.8400   23.3530 C   0  0  0  0  0  0  0  0  0  0  0  0
  -18.9320  -30.1010   23.9450 C   0  0  0  0  0  3  0  0  0  0  0  0
  -17.6230  -30.5890   24.1110 C   0  0  0  0  0  3  0  0  0  0  0  0
  -16.5260  -29.8140   23.6990 C   0  0  0  0  0  3  0  0  0  0  0  0
  -16.7380  -28.5530   23.1150 C   0  0  0  0  0  3  0  0  0  0  0  0
  -25.9360  -32.4620   23.8270 C   0  0  0  0  0  3  0  0  0  0  0  0
  -26.4600  -31.6850   25.0990 C   0  0  1  0  0  0  0  0  0  0  0  0
  -25.3730  -31.4450   26.1720 C   0  0  0  0  0  1  0  0  0  0  0  0
  -27.0380  -30.3060   24.7070 C   0  0  0  0  0  1  0  0  0  0  0  0
  -27.6120  -32.4790   25.7560 C   0  0  0  0  0  1  0  0  0  0  0  0
  -25.6170  -33.8580   24.1780 N   0  0  0  0  0  0  0  0  0  0  0  0
  -25.9360  -34.9300   23.4410 C   0  0  0  0  0  0  0  0  0  0  0  0
  -26.5920  -34.8490   22.3990 O   0  0  0  0  0  0  0  0  0  0  0  0
  -25.0230  -33.9910   24.9840 H   0  0  0  0  0  0  0  0  0  0  0  0
  -24.1950  -36.7300   23.1660 C   0  0  0  0  0  1  0  0  0  0  0  0
  -25.4570  -36.3090   23.9360 C   0  0  0  0  0  3  0  0  0  0  0  0
  -27.6090  -37.1980   24.7240 C   0  0  0  0  0  1  0  0  0  0  0  0
  -26.4810  -37.3690   23.8100 N   0  0  0  0  0  0  0  0  0  0  0  0
  -26.0740  -38.2860   23.9810 H   0  0  0  0  0  0  0  0  0  0  0  0
  -28.6830  -21.2940   19.8440 C   0  0  0  0  0  2  0  0  0  0  0  0
  -29.3110  -19.6870   20.4370 C   0  0  0  0  0  2  0  0  0  0  0  0
  -28.8550  -17.9750   18.3460 C   0  0  0  0  0  1  0  0  0  0  0  0
  -29.6240  -18.0580   19.6880 C   0  0  0  0  0  0  0  0  0  0  0  0
  -30.3820  -15.2270   20.1910 C   0  0  0  0  0  0  0  0  0  0  0  0
  -30.3540  -12.7660   19.3750 C   0  0  0  0  0  2  0  0  0  0  0  0
  -29.4390  -12.5730   18.1400 C   0  0  0  0  0  2  0  0  0  0  0  0
  -27.9800  -12.3320   18.5660 C   0  0  0  0  0  2  0  0  0  0  0  0
  -27.5380  -13.3010   19.6950 C   0  0  0  0  0  3  0  0  0  0  0  0
  -28.5870  -13.4210   20.8180 C   0  0  0  0  0  2  0  0  0  0  0  0
  -29.8200  -13.9180   20.1880 N   0  0  0  0  0  0  0  0  0  0  0  0
  -31.5970  -15.2320   19.9480 O   0  0  0  0  0  0  0  0  0  0  0  0
  -29.5960  -16.4840   20.2580 N   0  0  0  0  0  4  0  0  0  0  0  0
  -28.6430  -16.2210   20.4620 H   0  0  0  0  0  0  0  0  0  0  0  0
  -25.1680  -13.8730   20.4460 C   0  0  0  0  0  0  0  0  0  0  0  0
  -24.0990  -13.0960   20.8120 C   0  0  0  0  0  0  0  0  0  0  0  0
  -24.5700  -11.7480   20.7970 C   0  0  0  0  0  0  0  0  0  0  0  0
  -26.2070  -12.9930   20.2060 N   0  0  0  0  0  0  0  0  0  0  0  0
  -25.8610  -11.7110   20.4920 N   0  0  0  0  0  0  0  0  0  0  0  0
  -23.8440  -10.4870   20.9960 C   0  0  0  0  0  0  0  0  0  0  0  0
  -24.2780   -9.5250   21.9350 C   0  0  0  0  0  3  0  0  0  0  0  0
  -23.5510   -8.3300   22.1250 C   0  0  0  0  0  3  0  0  0  0  0  0
  -22.3760   -8.0890   21.3760 C   0  0  0  0  0  0  0  0  0  0  0  0
  -21.9580   -9.0400   20.4290 C   0  0  0  0  0  3  0  0  0  0  0  0
  -22.6860  -10.2270   20.2370 C   0  0  0  0  0  3  0  0  0  0  0  0
  -21.6200   -6.9450   21.4770 O   0  0  0  0  0  0  0  0  0  0  0  0
  -21.5880   -6.2000   22.6290 C   0  0  0  0  0  0  0  0  0  0  0  0
  -21.1960   -6.7590   23.8650 C   0  0  0  0  0  3  0  0  0  0  0  0
  -21.1090   -5.9430   25.0110 C   0  0  0  0  0  3  0  0  0  0  0  0
  -21.4010   -4.5690   24.9210 C   0  0  0  0  0  0  0  0  0  0  0  0
  -21.7880   -4.0110   23.6900 C   0  0  0  0  0  3  0  0  0  0  0  0
  -21.8770   -4.8230   22.5460 C   0  0  0  0  0  0  0  0  0  0  0  0
  -22.2280   -4.2770   21.3570 F   0  0  0  0  0  0  0  0  0  0  0  0
  -21.3120   -3.7840   26.0170 F   0  0  0  0  0  0  0  0  0  0  0  0
  -22.7010  -13.5740   21.0660 C   0  0  0  0  0  0  0  0  0  0  0  0
  -21.9690  -12.8890   21.9400 N   0  0  0  0  0  0  0  0  0  0  0  0
  -22.2640  -14.5880   20.5250 O   0  0  0  0  0  0  0  0  0  0  0  0
  -22.3320  -12.0650   22.3920 H   0  0  0  0  0  0  0  0  0  0  0  0
  -21.0300  -13.1900   22.1530 H   0  0  0  0  0  0  0  0  0  0  0  0
  -25.3340  -15.2410   20.2720 N   0  0  0  0  0  0  0  0  0  0  0  0
  -24.5950  -15.9080   20.4630 H   0  0  0  0  0  0  0  0  0  0  0  0
  -26.1950  -15.6890   19.9870 H   0  0  0  0  0  0  0  0  0  0  0  0
  1  2  2  0
  2  6  1  0
  3  1  1  0
  3  4  1  0
  4  5  1  0
  4  8  1  0
  5 52  1  0
  6  5  1  0
  6 11  1  0
  7  3  1  0
  7  9  1  0
  9 10  1  0
 10  8  1  0
 12 23  2  0
 13 11  1  0
 13 18  1  0
 14 22  1  0
 14 24  1  0
 15 21  1  0
 15 17  1  0
 16 22  1  0
 17 16  1  0
 18 17  2  0
 19 13  2  0
 20 19  1  0
 20 15  2  0
 21 14  1  0
 22 12  1  0
 24 26  2  0
 25 24  1  0
 27 25  1  0
 28 37  2  0
 28 33  1  0
 29 25  1  0
 29 33  1  0
 30 29  1  0
 31 32  1  0
 31 30  1  0
 32 28  1  0
 33 34  2  0
 34 35  1  0
 36 35  2  0
 37 36  1  0
 38 12  1  0
 38 43  1  0
 38 39  1  0
 39 42  1  1
 39 40  1  0
 41 39  1  0
 43 46  1  0
 44 48  1  0
 44 43  1  0
 45 44  2  0
 48 47  1  0
 50 48  1  0
 50 51  1  0
 50 49  1  0
 52 53  1  0
 54 55  1  0
 55 64  2  3
 55 53  1  0
 56 64  1  0
 57 62  1  0
 58 59  1  0
 58 57  1  0
 60 59  1  0
 60 69  1  0
 60 61  1  0
 62 56  1  0
 62 61  1  0
 63 56  2  0
 64 65  1  0
 66 67  2  0
 67 86  1  0
 68 67  1  0
 68 71  1  0
 69 66  1  0
 69 70  1  0
 70 68  2  0
 71 72  1  0
 72 73  2  0
 74 77  1  0
 74 73  1  0
 75 74  2  0
 76 75  1  0
 76 71  2  0
 77 78  1  0
 78 79  1  0
 79 80  2  0
 81 80  1  0
 81 85  1  0
 82 81  2  0
 83 78  2  0
 83 82  1  0
 84 83  1  0
 86 87  1  0
 87 90  1  0
 87 89  1  0
 88 86  2  0
 91 66  1  0
 91 92  1  0
 93 91  1  0
M  ISO  4   6 101  11 101  56 100  64 100
M  END
>  <TORSDO>  (21) 
F 19

>  <SCORE>  (21) 
-15.743

>  <name>  (21) 
20

>  <ligand_id>  (21) 
20

>  <original_smiles>  (21) 
[H]c1c([H])c([H])c2c(c1[H])C([H])([H])C([H])([H])C([H])([H])C2([H])N([H])C(=O)C1([H])N(C(=O)C([H])(N([H])C(=O)C([H])(N([H])C([H])([H])[H])C([H])([H])[H])C(C([H])([H])[H])(C([H])([H])[H])C([H])([H])[H])C([H])([H])c2c([H])c(Oc3c([H])c([H])c4c(c3C([H])([H])C([H])([H])C([H])(N([H])C(=O)N3C([H])([H])C([H])([H])C([H])([H])C([H])(n5nc(-c6c([H])c([H])c(Oc7c([H])c([H])c(F)c([H])c7F)c([H])c6[H])c(C(=O)N([H])[H])c5N([H])[H])C3([H])[H])C([H])([H])[H])C([H])([H])C([H])([H])C([H])([H])C4([H])[H])c([H])c([H])c2C1([H])[H]

>  <smiles>  (21) 
[H]c1c([H])c([H])c2c(c1[H])C([H])([H])C([H])([H])C([H])([H])C2([H])N([H])C(=O)C1([H])N(C(=O)C([H])(N([H])C(=O)C([H])(N([H])C([H])([H])[H])C([H])([H])[H])C(C([H])([H])[H])(C([H])([H])[H])C([H])([H])[H])C([H])([H])c2c([H])c(Oc3c([H])c([H])c4c(c3C([H])([H])C([H])([H])C([H])(N([H])C(=O)N3C([H])([H])C([H])([H])C([H])([H])C([H])(n5nc(-c6c([H])c([H])c(Oc7c([H])c([H])c(F)c([H])c7F)c([H])c6[H])c(C(=O)N([H])[H])c5N([H])[H])C3([H])[H])C([H])([H])[H])C([H])([H])C([H])([H])C([H])([H])C4([H])[H])c([H])c([H])c2C1([H])[H]

$$$$
21:0:0
     RDKit          3D

 88 97  0  0  1  0  0  0  0  0999 V2000
  -28.2470  -21.5110   18.8030 C   0  0  0  0  0  3  0  0  0  0  0  0
  -27.9990  -23.0070   19.0260 C   0  0  0  0  0  3  0  0  0  0  0  0
  -29.1400  -22.9470   21.0070 C   0  0  0  0  0  3  0  0  0  0  0  0
  -29.3890  -21.4300   20.8050 C   0  0  0  0  0  0  0  0  0  0  0  0
  -28.9450  -20.5660   19.7010 C   0  0  0  0  0  0  0  0  0  0  0  0
  -28.3830  -23.9550   20.1250 C   0  0  0  0  0  0  0  0  0  0  0  0
  -30.1060  -20.0940   21.2790 C   0  0  0  0  0  0  0  0  0  0  0  0
  -29.8350  -19.0560   19.9560 C   0  0  0  0  0  3  0  0  0  0  0  0
  -30.7020  -19.9140   22.3450 O   0  0  0  0  0  0  0  0  0  0  0  0
  -30.4610  -15.8920   20.0480 C   0  0  0  0  0  0  0  0  0  0  0  0
  -30.6130  -13.3180   19.2790 C   0  0  0  0  0  2  0  0  0  0  0  0
  -29.7080  -12.8410   18.1040 C   0  0  0  0  0  2  0  0  0  0  0  0
  -28.3120  -12.4500   18.6060 C   0  0  0  0  0  2  0  0  0  0  0  0
  -27.7970  -13.4600   19.6550 C   0  0  0  0  0  3  0  0  0  0  0  0
  -28.8440  -13.8450   20.7300 C   0  0  0  0  0  2  0  0  0  0  0  0
  -29.9710  -14.5030   20.0240 N   0  0  0  0  0  0  0  0  0  0  0  0
  -31.6890  -15.8350   19.8350 O   0  0  0  0  0  0  0  0  0  0  0  0
  -29.6850  -17.2630   20.1170 N   0  0  0  0  0  0  0  0  0  0  0  0
  -28.7150  -17.0510   20.2920 H   0  0  0  0  0  0  0  0  0  0  0  0
  -25.4690  -13.9450   20.5360 C   0  0  0  0  0  0  0  0  0  0  0  0
  -24.4310  -13.1450   20.9200 C   0  0  0  0  0  0  0  0  0  0  0  0
  -24.9080  -11.8020   20.8240 C   0  0  0  0  0  0  0  0  0  0  0  0
  -26.5080  -13.0910   20.2200 N   0  0  0  0  0  0  0  0  0  0  0  0
  -26.1880  -11.7920   20.4590 N   0  0  0  0  0  0  0  0  0  0  0  0
  -24.1950  -10.5280   20.9990 C   0  0  0  0  0  0  0  0  0  0  0  0
  -24.6210   -9.5640   21.9390 C   0  0  0  0  0  3  0  0  0  0  0  0
  -23.9020   -8.3600   22.1050 C   0  0  0  0  0  3  0  0  0  0  0  0
  -22.7440   -8.1100   21.3310 C   0  0  0  0  0  0  0  0  0  0  0  0
  -22.3370   -9.0630   20.3800 C   0  0  0  0  0  3  0  0  0  0  0  0
  -23.0570  -10.2580   20.2120 C   0  0  0  0  0  3  0  0  0  0  0  0
  -21.9980   -6.9590   21.4060 O   0  0  0  0  0  0  0  0  0  0  0  0
  -21.8650   -6.2630   22.5810 C   0  0  0  0  0  0  0  0  0  0  0  0
  -21.2850   -6.8430   23.7290 C   0  0  0  0  0  3  0  0  0  0  0  0
  -21.1040   -6.0720   24.8950 C   0  0  0  0  0  3  0  0  0  0  0  0
  -21.4930   -4.7190   24.9100 C   0  0  0  0  0  0  0  0  0  0  0  0
  -22.0660   -4.1370   23.7650 C   0  0  0  0  0  3  0  0  0  0  0  0
  -22.2480   -4.9060   22.6030 C   0  0  0  0  0  0  0  0  0  0  0  0
  -22.7800   -4.3350   21.4960 F   0  0  0  0  0  0  0  0  0  0  0  0
  -21.3130   -3.9740   26.0270 F   0  0  0  0  0  0  0  0  0  0  0  0
  -23.0420  -13.6040   21.2530 C   0  0  0  0  0  0  0  0  0  0  0  0
  -22.3560  -12.8870   22.1350 N   0  0  0  0  0  0  0  0  0  0  0  0
  -22.5770  -14.6340   20.7660 O   0  0  0  0  0  0  0  0  0  0  0  0
  -22.7480  -12.0540   22.5490 H   0  0  0  0  0  0  0  0  0  0  0  0
  -21.4260  -13.1770   22.4020 H   0  0  0  0  0  0  0  0  0  0  0  0
  -25.6100  -15.3230   20.3950 N   0  0  0  0  0  0  0  0  0  0  0  0
  -24.8370  -15.9600   20.5490 H   0  0  0  0  0  0  0  0  0  0  0  0
  -26.4250  -15.7760   20.0060 H   0  0  0  0  0  0  0  0  0  0  0  0
  -28.3070  -25.5960   20.1850 O   0  0  0  0  0  0  0  0  0  0  0  0
  -24.7820  -31.8830   23.2190 C   0  0  0  0  0  0  0  0  0  0  0  0
  -27.2990  -26.7990   20.1650 C   0  0  0  0  0  0  0  0  0  0  0  0
  -23.5870  -30.4980   21.5770 C   0  0  0  0  0  3  0  0  0  0  0  0
  -25.0270  -28.8560   20.1390 C   0  0  0  0  0  0  0  0  0  0  0  0
  -26.1650  -30.6330   21.4440 C   0  0  0  0  0  2  0  0  0  0  0  0
  -26.2240  -29.2000   20.7750 C   0  0  0  0  0  0  0  0  0  0  0  0
  -27.3380  -28.2000   20.7570 C   0  0  0  0  0  3  0  0  0  0  0  0
  -26.0680  -26.6790   19.4660 C   0  0  0  0  0  3  0  0  0  0  0  0
  -24.9900  -27.6230   19.4610 C   0  0  0  0  0  3  0  0  0  0  0  0
  -23.8190  -29.8090   20.1990 C   0  0  0  0  0  2  0  0  0  0  0  0
  -24.8690  -31.0390   22.1320 N   0  0  0  0  0  0  0  0  0  0  0  0
  -23.6910  -32.1760   23.7390 O   0  0  0  0  0  0  0  0  0  0  0  0
  -22.8760  -29.5130   22.5460 C   0  0  0  0  0  0  0  0  0  0  0  0
  -21.5450  -29.3450   22.4180 N   0  0  0  0  0  0  0  0  0  0  0  0
  -23.5360  -28.8970   23.3870 O   0  0  0  0  0  0  0  0  0  0  0  0
  -21.0610  -29.8930   21.7200 H   0  0  0  0  0  0  0  0  0  0  0  0
  -18.1730  -28.0830   22.9170 C   0  0  0  0  0  0  0  0  0  0  0  0
  -20.7290  -28.3980   23.1870 C   0  0  0  0  0  3  0  0  0  0  0  0
  -20.8540  -26.9650   22.6160 C   0  0  0  0  0  2  0  0  0  0  0  0
  -19.7630  -26.6250   21.5960 C   0  0  0  0  0  2  0  0  0  0  0  0
  -18.3760  -26.7420   22.2340 C   0  0  0  0  0  2  0  0  0  0  0  0
  -19.2760  -28.8680   23.3500 C   0  0  0  0  0  0  0  0  0  0  0  0
  -19.0290  -30.1200   23.9540 C   0  0  0  0  0  3  0  0  0  0  0  0
  -17.7130  -30.5900   24.1260 C   0  0  0  0  0  3  0  0  0  0  0  0
  -16.6250  -29.8050   23.7050 C   0  0  0  0  0  3  0  0  0  0  0  0
  -16.8560  -28.5530   23.1070 C   0  0  0  0  0  3  0  0  0  0  0  0
  -26.0460  -32.5330   23.8590 C   0  0  0  0  0  3  0  0  0  0  0  0
  -25.7220  -33.9320   24.2040 N   0  0  0  0  0  0  0  0  0  0  0  0
  -26.0150  -35.0020   23.4510 C   0  0  0  0  0  0  0  0  0  0  0  0
  -26.6420  -34.9160   22.3930 O   0  0  0  0  0  0  0  0  0  0  0  0
  -25.1570  -34.0710   25.0280 H   0  0  0  0  0  0  0  0  0  0  0  0
  -24.2480  -36.7860   23.2250 C   0  0  0  0  0  1  0  0  0  0  0  0
  -25.5450  -36.3870   23.9490 C   0  0  0  0  0  3  0  0  0  0  0  0
  -27.7080  -37.3120   24.6550 C   0  0  0  0  0  1  0  0  0  0  0  0
  -26.5550  -37.4530   23.7710 N   0  0  0  0  0  0  0  0  0  0  0  0
  -26.1450  -38.3700   23.9260 H   0  0  0  0  0  0  0  0  0  0  0  0
  -26.5470  -31.7700   25.1490 C   0  0  1  0  0  0  0  0  0  0  0  0
  -25.4420  -31.5410   26.2080 C   0  0  0  0  0  1  0  0  0  0  0  0
  -27.1330  -30.3880   24.7860 C   0  0  0  0  0  1  0  0  0  0  0  0
  -27.6910  -32.5670   25.8170 C   0  0  0  0  0  1  0  0  0  0  0  0
  1  2  2  0
  1  5  1  0
  2  6  1  0
  4  3  1  0
  4  7  1  0
  5  8  1  0
  5  4  2  0
  6 48  1  0
  6  3  2  0
  7  9  2  0
  8 18  1  0
  8  7  1  0
 10 18  1  0
 11 16  1  0
 12 13  1  0
 12 11  1  0
 14 13  1  0
 14 23  1  0
 14 15  1  0
 16 10  1  0
 16 15  1  0
 17 10  2  0
 18 19  1  0
 20 21  2  0
 21 40  1  0
 22 21  1  0
 22 25  1  0
 23 24  1  0
 23 20  1  0
 24 22  2  0
 25 26  1  0
 26 27  2  0
 28 31  1  0
 28 27  1  0
 29 28  2  0
 30 29  1  0
 30 25  2  0
 31 32  1  0
 32 37  2  0
 32 33  1  0
 33 34  2  0
 34 35  1  0
 35 39  1  0
 36 35  2  0
 37 36  1  0
 38 37  1  0
 40 41  1  0
 41 44  1  0
 41 43  1  0
 42 40  2  0
 45 20  1  0
 45 46  1  0
 47 45  1  0
 49 60  2  0
 50 48  1  0
 50 55  1  0
 51 59  1  0
 51 61  1  0
 52 58  1  0
 52 54  1  0
 53 59  1  0
 54 53  1  0
 55 54  2  0
 56 50  2  0
 57 56  1  0
 57 52  2  0
 58 51  1  0
 59 49  1  0
 61 63  2  0
 62 61  1  0
 64 62  1  0
 65 74  2  0
 65 70  1  0
 66 62  1  0
 66 70  1  0
 67 66  1  0
 68 69  1  0
 68 67  1  0
 69 65  1  0
 70 71  2  0
 71 72  1  0
 73 72  2  0
 74 73  1  0
 75 49  1  0
 75 76  1  0
 75 85  1  0
 76 79  1  0
 77 81  1  0
 77 76  1  0
 78 77  2  0
 81 80  1  0
 83 84  1  0
 83 81  1  0
 83 82  1  0
 85 88  1  1
 85 86  1  0
 87 85  1  0
M  ISO  4   6 101  10 100  18 100  48 101
M  END
>  <TORSDO>  (22) 
F 16

>  <SCORE>  (22) 
-15.592

>  <name>  (22) 
21

>  <ligand_id>  (22) 
21

>  <original_smiles>  (22) 
[H]c1c([H])c([H])c2c(c1[H])C([H])([H])C([H])([H])C([H])([H])C2([H])N([H])C(=O)C1([H])N(C(=O)C([H])(N([H])C(=O)C([H])(N([H])C([H])([H])[H])C([H])([H])[H])C(C([H])([H])[H])(C([H])([H])[H])C([H])([H])[H])C([H])([H])c2c([H])c(Oc3c([H])c([H])c4c(c3[H])C(=O)C4([H])N([H])C(=O)N3C([H])([H])C([H])([H])C([H])([H])C([H])(n4nc(-c5c([H])c([H])c(Oc6c([H])c([H])c(F)c([H])c6F)c([H])c5[H])c(C(=O)N([H])[H])c4N([H])[H])C3([H])[H])c([H])c([H])c2C1([H])[H]

>  <smiles>  (22) 
[H]c1c([H])c([H])c2c(c1[H])C([H])([H])C([H])([H])C([H])([H])C2([H])N([H])C(=O)C1([H])N(C(=O)C([H])(N([H])C(=O)C([H])(N([H])C([H])([H])[H])C([H])([H])[H])C(C([H])([H])[H])(C([H])([H])[H])C([H])([H])[H])C([H])([H])c2c([H])c(Oc3c([H])c([H])c4c(c3[H])C(=O)C4([H])N([H])C(=O)N3C([H])([H])C([H])([H])C([H])([H])C([H])(n4nc(-c5c([H])c([H])c(Oc6c([H])c([H])c(F)c([H])c6F)c([H])c5[H])c(C(=O)N([H])[H])c4N([H])[H])C3([H])[H])c([H])c([H])c2C1([H])[H]

$$$$
22:0:0
     RDKit          3D

 92101  0  0  1  0  0  0  0  0999 V2000
  -27.5100  -20.6500   21.1130 C   0  0  0  0  0  3  0  0  0  0  0  0
  -28.2960  -19.5140   20.7470 C   0  0  0  0  0  3  0  0  0  0  0  0
  -29.6890  -21.0380   19.5080 C   0  0  0  0  0  3  0  0  0  0  0  0
  -29.0430  -23.7140   19.4870 C   0  0  0  0  0  3  0  0  0  0  0  0
  -27.1170  -24.4160   20.7310 C   0  0  0  0  0  3  0  0  0  0  0  0
  -27.7730  -21.9880   20.6890 C   0  0  0  0  0  0  0  0  0  0  0  0
  -28.8820  -22.2590   19.8570 C   0  0  0  0  0  0  0  0  0  0  0  0
  -29.4400  -19.6110   19.9220 C   0  0  0  0  0  0  0  0  0  0  0  0
  -28.1710  -24.8700   19.8970 C   0  0  0  0  0  0  0  0  0  0  0  0
  -26.9220  -23.0540   21.1030 C   0  0  0  0  0  0  0  0  0  0  0  0
  -25.8620  -22.7690   21.9000 F   0  0  0  0  0  0  0  0  0  0  0  0
  -30.5440  -18.2640   18.0070 C   0  0  0  0  0  1  0  0  0  0  0  0
  -30.3250  -18.2220   19.5290 C   0  0  0  0  0  3  0  0  0  0  0  0
  -30.8520  -15.4620   19.7770 C   0  0  0  0  0  0  0  0  0  0  0  0
  -30.7950  -13.0420   18.9520 C   0  0  0  0  0  2  0  0  0  0  0  0
  -29.8060  -12.8730   17.7740 C   0  0  0  0  0  2  0  0  0  0  0  0
  -28.3830  -12.6090   18.2950 C   0  0  0  0  0  2  0  0  0  0  0  0
  -27.9940  -13.5630   19.4540 C   0  0  0  0  0  3  0  0  0  0  0  0
  -29.1060  -13.6990   20.5160 C   0  0  0  0  0  2  0  0  0  0  0  0
  -30.3060  -14.1680   19.8120 N   0  0  0  0  0  0  0  0  0  0  0  0
  -32.0390  -15.5180   19.4320 O   0  0  0  0  0  0  0  0  0  0  0  0
  -30.0620  -16.6710   19.9050 N   0  0  0  0  0  0  0  0  0  0  0  0
  -29.1130  -16.4850   20.1910 H   0  0  0  0  0  0  0  0  0  0  0  0
  -25.6810  -14.0800   20.4070 C   0  0  0  0  0  0  0  0  0  0  0  0
  -24.6540  -13.2810   20.8220 C   0  0  0  0  0  0  0  0  0  0  0  0
  -25.1200  -11.9360   20.6900 C   0  0  0  0  0  0  0  0  0  0  0  0
  -26.7050  -13.2230   20.0420 N   0  0  0  0  0  0  0  0  0  0  0  0
  -26.3840  -11.9250   20.2790 N   0  0  0  0  0  0  0  0  0  0  0  0
  -24.4130  -10.6620   20.8740 C   0  0  0  0  0  0  0  0  0  0  0  0
  -24.8230   -9.7230   21.8460 C   0  0  0  0  0  3  0  0  0  0  0  0
  -24.1150   -8.5140   22.0180 C   0  0  0  0  0  3  0  0  0  0  0  0
  -22.9810   -8.2360   21.2170 C   0  0  0  0  0  0  0  0  0  0  0  0
  -22.5900   -9.1630   20.2360 C   0  0  0  0  0  3  0  0  0  0  0  0
  -23.3000  -10.3630   20.0620 C   0  0  0  0  0  3  0  0  0  0  0  0
  -22.2460   -7.0770   21.2970 O   0  0  0  0  0  0  0  0  0  0  0  0
  -22.0210   -6.4480   22.4950 C   0  0  0  0  0  0  0  0  0  0  0  0
  -21.3620   -7.0940   23.5630 C   0  0  0  0  0  3  0  0  0  0  0  0
  -21.0900   -6.3880   24.7520 C   0  0  0  0  0  3  0  0  0  0  0  0
  -21.4660   -5.0370   24.8710 C   0  0  0  0  0  0  0  0  0  0  0  0
  -22.1170   -4.3900   23.8050 C   0  0  0  0  0  3  0  0  0  0  0  0
  -22.3900   -5.0930   22.6200 C   0  0  0  0  0  0  0  0  0  0  0  0
  -22.9990   -4.4600   21.5880 F   0  0  0  0  0  0  0  0  0  0  0  0
  -21.1980   -4.3550   26.0090 F   0  0  0  0  0  0  0  0  0  0  0  0
  -23.2800  -13.7350   21.2210 C   0  0  0  0  0  0  0  0  0  0  0  0
  -22.6290  -13.0040   22.1160 N   0  0  0  0  0  0  0  0  0  0  0  0
  -22.7980  -14.7740   20.7710 O   0  0  0  0  0  0  0  0  0  0  0  0
  -23.0360  -12.1650   22.5010 H   0  0  0  0  0  0  0  0  0  0  0  0
  -21.7090  -13.2880   22.4220 H   0  0  0  0  0  0  0  0  0  0  0  0
  -25.8230  -15.4590   20.2790 N   0  0  0  0  0  0  0  0  0  0  0  0
  -25.0500  -16.0910   20.4610 H   0  0  0  0  0  0  0  0  0  0  0  0
  -26.6100  -15.9160   19.8390 H   0  0  0  0  0  0  0  0  0  0  0  0
  -28.3030  -26.3410   19.6190 O   0  0  0  0  0  0  0  0  0  0  0  0
  -24.7460  -31.8990   23.1100 C   0  0  0  0  0  0  0  0  0  0  0  0
  -27.2580  -27.3620   19.7000 C   0  0  0  0  0  0  0  0  0  0  0  0
  -23.5120  -30.6100   21.4120 C   0  0  0  0  0  3  0  0  0  0  0  0
  -24.9320  -29.1390   19.8420 C   0  0  0  0  0  0  0  0  0  0  0  0
  -26.0610  -30.8880   21.2000 C   0  0  0  0  0  2  0  0  0  0  0  0
  -26.1260  -29.5340   20.4570 C   0  0  0  0  0  0  0  0  0  0  0  0
  -27.2870  -28.6620   20.3720 C   0  0  0  0  0  3  0  0  0  0  0  0
  -26.0410  -27.0990   19.0360 C   0  0  0  0  0  3  0  0  0  0  0  0
  -24.9050  -27.9380   19.1150 C   0  0  0  0  0  3  0  0  0  0  0  0
  -23.7020  -30.0290   19.9850 C   0  0  0  0  0  2  0  0  0  0  0  0
  -24.7960  -31.1520   21.9630 N   0  0  0  0  0  0  0  0  0  0  0  0
  -23.6720  -32.1370   23.6860 O   0  0  0  0  0  0  0  0  0  0  0  0
  -22.8660  -29.5340   22.3240 C   0  0  0  0  0  0  0  0  0  0  0  0
  -21.5380  -29.3520   22.2140 N   0  0  0  0  0  0  0  0  0  0  0  0
  -23.5630  -28.8670   23.0930 O   0  0  0  0  0  0  0  0  0  0  0  0
  -21.0300  -29.9420   21.5690 H   0  0  0  0  0  0  0  0  0  0  0  0
  -18.1830  -28.0880   22.7500 C   0  0  0  0  0  0  0  0  0  0  0  0
  -20.7490  -28.3540   22.9430 C   0  0  0  0  0  3  0  0  0  0  0  0
  -20.8370  -26.9700   22.2600 C   0  0  0  0  0  2  0  0  0  0  0  0
  -19.7000  -26.7140   21.2640 C   0  0  0  0  0  2  0  0  0  0  0  0
  -18.3420  -26.7970   21.9660 C   0  0  0  0  0  2  0  0  0  0  0  0
  -19.3120  -28.8270   23.1960 C   0  0  0  0  0  0  0  0  0  0  0  0
  -19.1050  -30.0360   23.8960 C   0  0  0  0  0  3  0  0  0  0  0  0
  -17.8040  -30.5090   24.1470 C   0  0  0  0  0  3  0  0  0  0  0  0
  -16.6900  -29.7670   23.7130 C   0  0  0  0  0  3  0  0  0  0  0  0
  -16.8800  -28.5570   23.0220 C   0  0  0  0  0  3  0  0  0  0  0  0
  -26.0340  -32.5070   23.7450 C   0  0  0  0  0  3  0  0  0  0  0  0
  -25.7260  -33.8880   24.1550 N   0  0  0  0  0  0  0  0  0  0  0  0
  -26.0050  -34.9800   23.4320 C   0  0  0  0  0  0  0  0  0  0  0  0
  -26.6150  -34.9310   22.3600 O   0  0  0  0  0  0  0  0  0  0  0  0
  -25.1730  -33.9970   24.9930 H   0  0  0  0  0  0  0  0  0  0  0  0
  -24.2260  -36.7550   23.2920 C   0  0  0  0  0  1  0  0  0  0  0  0
  -25.5370  -36.3420   23.9810 C   0  0  0  0  0  3  0  0  0  0  0  0
  -27.7140  -37.2440   24.6750 C   0  0  0  0  0  1  0  0  0  0  0  0
  -26.5410  -37.4170   23.8220 N   0  0  0  0  0  0  0  0  0  0  0  0
  -26.1340  -38.3260   24.0250 H   0  0  0  0  0  0  0  0  0  0  0  0
  -26.5650  -31.6760   24.9790 C   0  0  1  0  0  0  0  0  0  0  0  0
  -25.4850  -31.3940   26.0510 C   0  0  0  0  0  1  0  0  0  0  0  0
  -27.1380  -30.3150   24.5240 C   0  0  0  0  0  1  0  0  0  0  0  0
  -27.7270  -32.4360   25.6610 C   0  0  0  0  0  1  0  0  0  0  0  0
  2  1  1  0
  3  7  2  0
  3  8  1  0
  4  7  1  0
  4  9  2  0
  5 10  2  0
  6 10  1  0
  6  1  2  0
  7  6  1  0
  8  2  2  0
  9  5  1  0
 10 11  1  0
 13 12  1  0
 13 22  1  0
 13  8  1  0
 14 20  1  0
 14 22  1  0
 15 20  1  0
 16 17  1  0
 16 15  1  0
 18 17  1  0
 18 27  1  0
 18 19  1  0
 20 19  1  0
 21 14  2  0
 22 23  1  0
 24 25  2  0
 25 44  1  0
 26 25  1  0
 26 29  1  0
 27 28  1  0
 27 24  1  0
 28 26  2  0
 29 30  1  0
 30 31  2  0
 32 35  1  0
 32 31  1  0
 33 32  2  0
 34 33  1  0
 34 29  2  0
 35 36  1  0
 36 41  2  0
 36 37  1  0
 37 38  2  0
 38 39  1  0
 39 43  1  0
 40 39  2  0
 41 40  1  0
 42 41  1  0
 44 45  1  0
 45 48  1  0
 45 47  1  0
 46 44  2  0
 49 24  1  0
 49 50  1  0
 51 49  1  0
 52 54  1  0
 52  9  1  0
 53 64  2  0
 54 59  1  0
 55 63  1  0
 55 65  1  0
 56 62  1  0
 56 58  1  0
 57 63  1  0
 58 57  1  0
 59 58  2  0
 60 61  1  0
 60 54  2  0
 61 56  2  0
 62 55  1  0
 63 53  1  0
 65 67  2  0
 66 65  1  0
 68 66  1  0
 69 78  2  0
 69 74  1  0
 70 66  1  0
 70 74  1  0
 71 70  1  0
 72 73  1  0
 72 71  1  0
 73 69  1  0
 74 75  2  0
 75 76  1  0
 77 76  2  0
 78 77  1  0
 79 53  1  0
 79 80  1  0
 79 89  1  0
 80 83  1  0
 81 85  1  0
 81 80  1  0
 82 81  2  0
 85 84  1  0
 87 85  1  0
 87 88  1  0
 87 86  1  0
 89 92  1  1
 89 90  1  0
 91 89  1  0
M  ISO  4   9 101  14 100  22 100  52 101
M  END
>  <TORSDO>  (23) 
F 17

>  <SCORE>  (23) 
-13.049

>  <name>  (23) 
22

>  <ligand_id>  (23) 
22

>  <original_smiles>  (23) 
[H]c1c([H])c([H])c2c(c1[H])C([H])([H])C([H])([H])C([H])([H])C2([H])N([H])C(=O)C1([H])N(C(=O)C([H])(N([H])C(=O)C([H])(N([H])C([H])([H])[H])C([H])([H])[H])C(C([H])([H])[H])(C([H])([H])[H])C([H])([H])[H])C([H])([H])c2c([H])c(Oc3c([H])c(F)c4c([H])c([H])c(C([H])(N([H])C(=O)N5C([H])([H])C([H])([H])C([H])([H])C([H])(n6nc(-c7c([H])c([H])c(Oc8c([H])c([H])c(F)c([H])c8F)c([H])c7[H])c(C(=O)N([H])[H])c6N([H])[H])C5([H])[H])C([H])([H])[H])c([H])c4c3[H])c([H])c([H])c2C1([H])[H]

>  <smiles>  (23) 
[H]c1c([H])c([H])c2c(c1[H])C([H])([H])C([H])([H])C([H])([H])C2([H])N([H])C(=O)C1([H])N(C(=O)C([H])(N([H])C(=O)C([H])(N([H])C([H])([H])[H])C([H])([H])[H])C(C([H])([H])[H])(C([H])([H])[H])C([H])([H])[H])C([H])([H])c2c([H])c(Oc3c([H])c(F)c4c([H])c([H])c(C([H])(N([H])C(=O)N5C([H])([H])C([H])([H])C([H])([H])C([H])(n6nc(-c7c([H])c([H])c(Oc8c([H])c([H])c(F)c([H])c8F)c([H])c7[H])c(C(=O)N([H])[H])c6N([H])[H])C5([H])[H])C([H])([H])[H])c([H])c4c3[H])c([H])c([H])c2C1([H])[H]

$$$$
23:0:0
     RDKit          3D

 95104  0  0  1  0  0  0  0  0999 V2000
  -27.3460  -22.1910   20.2500 C   0  0  0  0  0  3  0  0  0  0  0  0
  -26.7290  -24.5850   20.2530 C   0  0  0  0  0  3  0  0  0  0  0  0
  -29.0380  -23.9300   20.1110 C   0  0  0  0  0  3  0  0  0  0  0  0
  -26.3730  -23.2100   20.2490 C   0  0  0  0  0  0  0  0  0  0  0  0
  -28.7180  -22.4690   20.2100 C   0  0  0  0  0  0  0  0  0  0  0  0
  -28.0600  -25.0670   20.1180 C   0  0  0  0  0  0  0  0  0  0  0  0
  -22.9080  -24.1370   20.2700 C   0  0  0  0  0  0  0  0  0  0  0  0
  -23.3170  -24.0080   18.8280 C   0  0  0  0  0  2  0  0  0  0  0  0
  -24.0120  -23.6060   21.1500 C   0  0  0  0  0  2  0  0  0  0  0  0
  -24.2690  -22.8110   18.8230 C   0  0  0  0  0  2  0  0  0  0  0  0
  -24.9120  -22.7690   20.2260 C   0  0  0  0  0  3  0  0  0  0  0  0
  -21.7910  -24.5630   20.6790 N   0  0  0  0  0  0  0  0  0  0  0  0
  -21.1790  -24.8200   19.9130 H   0  0  0  0  0  0  0  0  0  0  0  0
  -28.3070  -26.5370   20.0240 O   0  0  0  0  0  0  0  0  0  0  0  0
  -24.7650  -32.1090   23.4480 C   0  0  0  0  0  0  0  0  0  0  0  0
  -27.2980  -27.5870   20.0500 C   0  0  0  0  0  0  0  0  0  0  0  0
  -23.5630  -30.8490   21.7040 C   0  0  0  0  0  3  0  0  0  0  0  0
  -25.0030  -29.3840   20.1570 C   0  0  0  0  0  0  0  0  0  0  0  0
  -26.1200  -31.0940   21.5750 C   0  0  0  0  0  2  0  0  0  0  0  0
  -26.1810  -29.7480   20.8210 C   0  0  0  0  0  0  0  0  0  0  0  0
  -27.3220  -28.8550   20.7720 C   0  0  0  0  0  3  0  0  0  0  0  0
  -26.1260  -27.3920   19.2880 C   0  0  0  0  0  3  0  0  0  0  0  0
  -24.9890  -28.2210   19.3760 C   0  0  0  0  0  3  0  0  0  0  0  0
  -23.7820  -30.2820   20.2760 C   0  0  0  0  0  2  0  0  0  0  0  0
  -24.8360  -31.3710   22.2980 N   0  0  0  0  0  0  0  0  0  0  0  0
  -23.6800  -32.3560   23.9950 O   0  0  0  0  0  0  0  0  0  0  0  0
  -22.8760  -29.7750   22.5870 C   0  0  0  0  0  0  0  0  0  0  0  0
  -21.5520  -29.6030   22.4280 N   0  0  0  0  0  0  0  0  0  0  0  0
  -23.5390  -29.1020   23.3810 O   0  0  0  0  0  0  0  0  0  0  0  0
  -21.0750  -30.1840   21.7520 H   0  0  0  0  0  0  0  0  0  0  0  0
  -18.1700  -28.3810   22.8400 C   0  0  0  0  0  0  0  0  0  0  0  0
  -20.7280  -28.6170   23.1330 C   0  0  0  0  0  3  0  0  0  0  0  0
  -20.8270  -27.2270   22.4610 C   0  0  0  0  0  2  0  0  0  0  0  0
  -19.7280  -26.9760   21.4200 C   0  0  0  0  0  2  0  0  0  0  0  0
  -18.3430  -27.0890   22.0610 C   0  0  0  0  0  2  0  0  0  0  0  0
  -19.2880  -29.1060   23.3310 C   0  0  0  0  0  0  0  0  0  0  0  0
  -19.0650  -30.3170   24.0230 C   0  0  0  0  0  3  0  0  0  0  0  0
  -17.7580  -30.7990   24.2290 C   0  0  0  0  0  3  0  0  0  0  0  0
  -16.6560  -30.0720   23.7500 C   0  0  0  0  0  3  0  0  0  0  0  0
  -16.8620  -28.8650   23.0590 C   0  0  0  0  0  3  0  0  0  0  0  0
  -26.0450  -32.6910   24.1210 C   0  0  0  0  0  3  0  0  0  0  0  0
  -26.5360  -31.8430   25.3570 C   0  0  1  0  0  0  0  0  0  0  0  0
  -25.4270  -31.5570   26.3970 C   0  0  0  0  0  1  0  0  0  0  0  0
  -27.1050  -30.4810   24.8980 C   0  0  0  0  0  1  0  0  0  0  0  0
  -27.6920  -32.5820   26.0740 C   0  0  0  0  0  1  0  0  0  0  0  0
  -25.7460  -34.0720   24.5360 N   0  0  0  0  0  0  0  0  0  0  0  0
  -26.0600  -35.1670   23.8310 C   0  0  0  0  0  0  0  0  0  0  0  0
  -26.6970  -35.1220   22.7770 O   0  0  0  0  0  0  0  0  0  0  0  0
  -25.1790  -34.1810   25.3640 H   0  0  0  0  0  0  0  0  0  0  0  0
  -24.3130  -36.9710   23.6580 C   0  0  0  0  0  1  0  0  0  0  0  0
  -25.5940  -36.5290   24.3840 C   0  0  0  0  0  3  0  0  0  0  0  0
  -27.7640  -37.3840   25.1550 C   0  0  0  0  0  1  0  0  0  0  0  0
  -26.6160  -37.5930   24.2760 N   0  0  0  0  0  0  0  0  0  0  0  0
  -26.2130  -38.4990   24.4920 H   0  0  0  0  0  0  0  0  0  0  0  0
  -29.6890  -21.1300   20.1410 C   0  0  0  0  0  2  0  0  0  0  0  0
  -29.3580  -19.5670   20.7370 C   0  0  0  0  0  3  0  0  0  0  0  0
  -30.3090  -18.1900   20.4590 C   0  0  0  0  0  3  0  0  0  0  0  0
  -30.7890  -15.5110   20.9240 C   0  0  0  0  0  0  0  0  0  0  0  0
  -30.8090  -13.0990   20.1200 C   0  0  0  0  0  2  0  0  0  0  0  0
  -30.0200  -12.9800   18.7980 C   0  0  0  0  0  2  0  0  0  0  0  0
  -28.5180  -12.7730   19.0720 C   0  0  0  0  0  2  0  0  0  0  0  0
  -27.9760  -13.7310   20.1630 C   0  0  0  0  0  3  0  0  0  0  0  0
  -28.9050  -13.8200   21.3900 C   0  0  0  0  0  2  0  0  0  0  0  0
  -30.2230  -14.2330   20.8980 N   0  0  0  0  0  0  0  0  0  0  0  0
  -32.0110  -15.5840   20.7700 O   0  0  0  0  0  0  0  0  0  0  0  0
  -29.9890  -16.6940   20.8970 N   0  0  0  0  0  0  0  0  0  0  0  0
  -29.0050  -16.5170   21.0290 H   0  0  0  0  0  0  0  0  0  0  0  0
  -25.5300  -14.2770   20.6720 C   0  0  0  0  0  0  0  0  0  0  0  0
  -24.4460  -13.4870   20.9380 C   0  0  0  0  0  0  0  0  0  0  0  0
  -24.9270  -12.1430   20.9550 C   0  0  0  0  0  0  0  0  0  0  0  0
  -26.6010  -13.4130   20.5320 N   0  0  0  0  0  0  0  0  0  0  0  0
  -26.2420  -12.1240   20.7690 N   0  0  0  0  0  0  0  0  0  0  0  0
  -24.2010  -10.8710   21.0760 C   0  0  0  0  0  0  0  0  0  0  0  0
  -24.5660   -9.8950   22.0290 C   0  0  0  0  0  3  0  0  0  0  0  0
  -23.8370   -8.6910   22.1360 C   0  0  0  0  0  3  0  0  0  0  0  0
  -22.7260   -8.4560   21.2890 C   0  0  0  0  0  0  0  0  0  0  0  0
  -22.3830   -9.4200   20.3260 C   0  0  0  0  0  3  0  0  0  0  0  0
  -23.1140  -10.6140   20.2160 C   0  0  0  0  0  3  0  0  0  0  0  0
  -21.9710   -7.3090   21.3060 O   0  0  0  0  0  0  0  0  0  0  0  0
  -21.8530   -6.5420   22.4390 C   0  0  0  0  0  0  0  0  0  0  0  0
  -21.3420   -7.0670   23.6460 C   0  0  0  0  0  3  0  0  0  0  0  0
  -21.1750   -6.2270   24.7650 C   0  0  0  0  0  3  0  0  0  0  0  0
  -21.5090   -4.8620   24.6740 C   0  0  0  0  0  0  0  0  0  0  0  0
  -22.0140   -4.3360   23.4720 C   0  0  0  0  0  3  0  0  0  0  0  0
  -22.1810   -5.1740   22.3550 C   0  0  0  0  0  0  0  0  0  0  0  0
  -22.6480   -4.6580   21.1930 F   0  0  0  0  0  0  0  0  0  0  0  0
  -21.3380   -4.0510   25.7450 F   0  0  0  0  0  0  0  0  0  0  0  0
  -23.0230  -13.9470   21.0690 C   0  0  0  0  0  0  0  0  0  0  0  0
  -22.2270  -13.2490   21.8690 N   0  0  0  0  0  0  0  0  0  0  0  0
  -22.6260  -14.9600   20.4970 O   0  0  0  0  0  0  0  0  0  0  0  0
  -22.5600  -12.4260   22.3490 H   0  0  0  0  0  0  0  0  0  0  0  0
  -21.2690  -13.5440   22.0040 H   0  0  0  0  0  0  0  0  0  0  0  0
  -25.6960  -15.6500   20.5100 N   0  0  0  0  0  0  0  0  0  0  0  0
  -24.9220  -16.3010   20.5840 H   0  0  0  0  0  0  0  0  0  0  0  0
  -26.5600  -16.0870   20.2170 H   0  0  0  0  0  0  0  0  0  0  0  0
  3  6  2  0
  3  5  1  0
  4  1  1  0
  4  2  2  0
  5  1  2  0
  6  2  1  0
  7 12  2  0
  7  9  1  0
  8  7  1  0
 10  8  1  0
 10 11  1  0
 11  4  1  0
 11  9  1  0
 13 12  1  0
 14 16  1  0
 14  6  1  0
 15 26  2  0
 16 21  1  0
 17 25  1  0
 17 27  1  0
 18 24  1  0
 18 20  1  0
 19 25  1  0
 20 19  1  0
 21 20  2  0
 22 23  1  0
 22 16  2  0
 23 18  2  0
 24 17  1  0
 25 15  1  0
 27 29  2  0
 28 27  1  0
 30 28  1  0
 31 40  2  0
 31 36  1  0
 32 28  1  0
 32 36  1  0
 33 32  1  0
 34 35  1  0
 34 33  1  0
 35 31  1  0
 36 37  2  0
 37 38  1  0
 39 38  2  0
 40 39  1  0
 41 15  1  0
 41 46  1  0
 41 42  1  0
 42 45  1  1
 42 43  1  0
 44 42  1  0
 46 49  1  0
 47 51  1  0
 47 46  1  0
 48 47  2  0
 51 50  1  0
 53 51  1  0
 53 54  1  0
 53 52  1  0
 55  5  1  0
 55 56  1  0
 57 56  2  0
 57 66  1  0
 59 64  1  0
 60 61  1  0
 60 59  1  0
 62 61  1  0
 62 71  1  0
 62 63  1  0
 64 58  1  0
 64 63  1  0
 65 58  2  0
 66 58  1  0
 66 67  1  0
 68 69  2  0
 69 70  1  0
 69 88  1  0
 70 73  1  0
 71 68  1  0
 71 72  1  0
 72 70  2  0
 73 74  1  0
 74 75  2  0
 76 79  1  0
 76 75  1  0
 77 76  2  0
 78 77  1  0
 78 73  2  0
 79 80  1  0
 80 81  1  0
 81 82  2  0
 83 82  1  0
 83 87  1  0
 84 83  2  0
 85 80  2  0
 85 84  1  0
 86 85  1  0
 88 89  1  0
 89 92  1  0
 89 91  1  0
 90 88  2  0
 93 94  1  0
 93 68  1  0
 95 93  1  0
M  ISO  4   6 101  14 101  58 100  66 100
M  END
>  <TORSDO>  (24) 
F 20

>  <SCORE>  (24) 
-14.173

>  <name>  (24) 
23

>  <ligand_id>  (24) 
23

>  <original_smiles>  (24) 
[H]N=C1C([H])([H])C([H])([H])C([H])(c2c([H])c(Oc3c([H])c([H])c4c(c3[H])C([H])([H])N(C(=O)C([H])(N([H])C(=O)C([H])(N([H])C([H])([H])[H])C([H])([H])[H])C(C([H])([H])[H])(C([H])([H])[H])C([H])([H])[H])C([H])(C(=O)N([H])C3([H])c5c([H])c([H])c([H])c([H])c5C([H])([H])C([H])([H])C3([H])[H])C4([H])[H])c([H])c(C([H])([H])C([H])([H])C([H])([H])N([H])C(=O)N3C([H])([H])C([H])([H])C([H])([H])C([H])(n4nc(-c5c([H])c([H])c(Oc6c([H])c([H])c(F)c([H])c6F)c([H])c5[H])c(C(=O)N([H])[H])c4N([H])[H])C3([H])[H])c2[H])C1([H])[H]

>  <smiles>  (24) 
[H]N=C1C([H])([H])C([H])([H])C([H])(c2c([H])c(Oc3c([H])c([H])c4c(c3[H])C([H])([H])N(C(=O)C([H])(N([H])C(=O)C([H])(N([H])C([H])([H])[H])C([H])([H])[H])C(C([H])([H])[H])(C([H])([H])[H])C([H])([H])[H])C([H])(C(=O)N([H])C3([H])c5c([H])c([H])c([H])c([H])c5C([H])([H])C([H])([H])C3([H])[H])C4([H])[H])c([H])c(C([H])([H])C([H])([H])C([H])([H])N([H])C(=O)N3C([H])([H])C([H])([H])C([H])([H])C([H])(n4nc(-c5c([H])c([H])c(Oc6c([H])c([H])c(F)c([H])c6F)c([H])c5[H])c(C(=O)N([H])[H])c4N([H])[H])C3([H])[H])c2[H])C1([H])[H]

$$$$
24:0:0
     RDKit          3D

 89 97  0  0  1  0  0  0  0  0999 V2000
  -30.3010  -22.3810   18.2330 C   0  0  0  0  0  3  0  0  0  0  0  0
  -30.2190  -21.0640   18.7580 C   0  0  0  0  0  3  0  0  0  0  0  0
  -29.6750  -23.4980   18.8410 C   0  0  0  0  0  3  0  0  0  0  0  0
  -28.8470  -21.9820   20.5350 C   0  0  0  0  0  3  0  0  0  0  0  0
  -29.4940  -20.7850   19.9370 C   0  0  0  0  0  0  0  0  0  0  0  0
  -28.9100  -23.3700   20.0180 C   0  0  0  0  0  0  0  0  0  0  0  0
  -29.4840  -19.2580   20.5430 C   0  0  0  0  0  3  0  0  0  0  0  0
  -29.9830  -17.8140   19.8190 C   0  0  0  0  0  3  0  0  0  0  0  0
  -31.1180  -16.5920   21.7360 C   0  0  0  0  0  1  0  0  0  0  0  0
  -28.7160  -16.1750   21.3730 C   0  0  0  0  0  1  0  0  0  0  0  0
  -30.0560  -16.3330   20.6420 C   0  0  1  0  0  0  0  0  0  0  0  0
  -30.5570  -14.8750   19.9690 C   0  0  0  0  0  0  0  0  0  0  0  0
  -30.3210  -12.5590   18.9350 C   0  0  0  0  0  2  0  0  0  0  0  0
  -29.2930  -12.5690   17.7780 C   0  0  0  0  0  2  0  0  0  0  0  0
  -27.8610  -12.3520   18.3030 C   0  0  0  0  0  2  0  0  0  0  0  0
  -27.5610  -13.2220   19.5490 C   0  0  0  0  0  3  0  0  0  0  0  0
  -28.7040  -13.1240   20.5820 C   0  0  0  0  0  2  0  0  0  0  0  0
  -29.9340  -13.6110   19.9290 N   0  0  0  0  0  0  0  0  0  0  0  0
  -31.6670  -14.9120   19.4310 O   0  0  0  0  0  0  0  0  0  0  0  0
  -25.2340  -13.7970   20.4630 C   0  0  0  0  0  0  0  0  0  0  0  0
  -24.1970  -13.0190   20.8940 C   0  0  0  0  0  0  0  0  0  0  0  0
  -24.6540  -11.6690   20.7990 C   0  0  0  0  0  0  0  0  0  0  0  0
  -26.2560  -12.9230   20.1340 N   0  0  0  0  0  0  0  0  0  0  0  0
  -25.9180  -11.6340   20.3970 N   0  0  0  0  0  0  0  0  0  0  0  0
  -23.9370  -10.4040   21.0110 C   0  0  0  0  0  0  0  0  0  0  0  0
  -24.4050   -9.4320   21.9230 C   0  0  0  0  0  3  0  0  0  0  0  0
  -23.6850   -8.2340   22.1230 C   0  0  0  0  0  3  0  0  0  0  0  0
  -22.4860   -7.9990   21.4100 C   0  0  0  0  0  0  0  0  0  0  0  0
  -22.0380   -8.9600   20.4870 C   0  0  0  0  0  3  0  0  0  0  0  0
  -22.7570  -10.1490   20.2840 C   0  0  0  0  0  3  0  0  0  0  0  0
  -21.7370   -6.8520   21.5200 O   0  0  0  0  0  0  0  0  0  0  0  0
  -21.7090   -6.1180   22.6780 C   0  0  0  0  0  0  0  0  0  0  0  0
  -21.2900   -6.6800   23.9040 C   0  0  0  0  0  3  0  0  0  0  0  0
  -21.2030   -5.8710   25.0550 C   0  0  0  0  0  3  0  0  0  0  0  0
  -21.5340   -4.5040   24.9830 C   0  0  0  0  0  0  0  0  0  0  0  0
  -21.9480   -3.9440   23.7620 C   0  0  0  0  0  3  0  0  0  0  0  0
  -22.0320   -4.7480   22.6130 C   0  0  0  0  0  0  0  0  0  0  0  0
  -22.4100   -4.1980   21.4330 F   0  0  0  0  0  0  0  0  0  0  0  0
  -21.4470   -3.7250   26.0870 F   0  0  0  0  0  0  0  0  0  0  0  0
  -22.8250  -13.4930   21.2750 C   0  0  0  0  0  0  0  0  0  0  0  0
  -22.1590  -12.7830   22.1780 N   0  0  0  0  0  0  0  0  0  0  0  0
  -22.3550  -14.5300   20.8070 O   0  0  0  0  0  0  0  0  0  0  0  0
  -22.5560  -11.9470   22.5790 H   0  0  0  0  0  0  0  0  0  0  0  0
  -21.2370  -13.0770   22.4650 H   0  0  0  0  0  0  0  0  0  0  0  0
  -25.3780  -15.1700   20.2980 N   0  0  0  0  0  0  0  0  0  0  0  0
  -24.6140  -15.8130   20.4760 H   0  0  0  0  0  0  0  0  0  0  0  0
  -26.1880  -15.6270   19.8980 H   0  0  0  0  0  0  0  0  0  0  0  0
  -28.1430  -24.6880   20.6340 C   0  0  0  0  0  2  0  0  0  0  0  0
  -28.3980  -26.1740   20.2650 O   0  0  0  0  0  0  0  0  0  0  0  0
  -24.6920  -31.8350   23.2120 C   0  0  0  0  0  0  0  0  0  0  0  0
  -27.3180  -27.1260   20.2480 C   0  0  0  0  0  0  0  0  0  0  0  0
  -23.5060  -30.4190   21.5830 C   0  0  0  0  0  3  0  0  0  0  0  0
  -24.9680  -28.8360   20.1840 C   0  0  0  0  0  0  0  0  0  0  0  0
  -26.0580  -30.7050   21.4180 C   0  0  0  0  0  2  0  0  0  0  0  0
  -26.1440  -29.3080   20.7850 C   0  0  0  0  0  0  0  0  0  0  0  0
  -27.3190  -28.4730   20.7920 C   0  0  0  0  0  3  0  0  0  0  0  0
  -26.1140  -26.7470   19.6160 C   0  0  0  0  0  3  0  0  0  0  0  0
  -24.9680  -27.5700   19.5810 C   0  0  0  0  0  3  0  0  0  0  0  0
  -23.7350  -29.7250   20.2140 C   0  0  0  0  0  2  0  0  0  0  0  0
  -24.7730  -31.0080   22.1260 N   0  0  0  0  0  0  0  0  0  0  0  0
  -23.6010  -32.1210   23.7280 O   0  0  0  0  0  0  0  0  0  0  0  0
  -22.8290  -29.4170   22.5520 C   0  0  0  0  0  0  0  0  0  0  0  0
  -21.5010  -29.2390   22.4170 N   0  0  0  0  0  0  0  0  0  0  0  0
  -23.4970  -28.8010   23.3840 O   0  0  0  0  0  0  0  0  0  0  0  0
  -21.0200  -29.7940   21.7210 H   0  0  0  0  0  0  0  0  0  0  0  0
  -18.1210  -28.0250   22.8830 C   0  0  0  0  0  0  0  0  0  0  0  0
  -20.6730  -28.3050   23.1880 C   0  0  0  0  0  3  0  0  0  0  0  0
  -20.7920  -26.8650   22.6350 C   0  0  0  0  0  2  0  0  0  0  0  0
  -19.7060  -26.5220   21.6120 C   0  0  0  0  0  2  0  0  0  0  0  0
  -18.3130  -26.6670   22.2320 C   0  0  0  0  0  2  0  0  0  0  0  0
  -19.2280  -28.7990   23.3170 C   0  0  0  0  0  0  0  0  0  0  0  0
  -18.9930  -30.0700   23.8850 C   0  0  0  0  0  3  0  0  0  0  0  0
  -17.6810  -30.5610   24.0320 C   0  0  0  0  0  3  0  0  0  0  0  0
  -16.5880  -29.7800   23.6180 C   0  0  0  0  0  3  0  0  0  0  0  0
  -16.8090  -28.5150   23.0450 C   0  0  0  0  0  3  0  0  0  0  0  0
  -25.9630  -32.4820   23.8440 C   0  0  0  0  0  3  0  0  0  0  0  0
  -26.4670  -31.7230   25.1360 C   0  0  1  0  0  0  0  0  0  0  0  0
  -25.3600  -31.4960   26.1920 C   0  0  0  0  0  1  0  0  0  0  0  0
  -27.0580  -30.3420   24.7710 C   0  0  0  0  0  1  0  0  0  0  0  0
  -27.6070  -32.5270   25.8020 C   0  0  0  0  0  1  0  0  0  0  0  0
  -25.6450  -33.8830   24.1650 N   0  0  0  0  0  0  0  0  0  0  0  0
  -25.9820  -34.9360   23.4100 C   0  0  0  0  0  0  0  0  0  0  0  0
  -26.6650  -34.8320   22.3890 O   0  0  0  0  0  0  0  0  0  0  0  0
  -25.0450  -34.0390   24.9620 H   0  0  0  0  0  0  0  0  0  0  0  0
  -24.2570  -36.7290   23.0340 C   0  0  0  0  0  1  0  0  0  0  0  0
  -25.4870  -36.3260   23.8600 C   0  0  0  0  0  3  0  0  0  0  0  0
  -27.6130  -37.2140   24.7080 C   0  0  0  0  0  1  0  0  0  0  0  0
  -26.5210  -37.3800   23.7550 N   0  0  0  0  0  0  0  0  0  0  0  0
  -26.1140  -38.3000   23.8920 H   0  0  0  0  0  0  0  0  0  0  0  0
  1  2  2  0
  1  3  1  0
  2  5  1  0
  3  6  2  0
  5  4  2  0
  5  7  1  0
  6  4  1  0
  6 48  1  0
  8  7  2  0
  8 11  1  0
 11 10  1  1
 11  9  1  0
 12 11  1  0
 13 18  1  0
 14 15  1  0
 14 13  1  0
 16 15  1  0
 16 23  1  0
 16 17  1  0
 18 12  1  0
 18 17  1  0
 19 12  2  0
 20 21  2  0
 21 40  1  0
 22 21  1  0
 22 25  1  0
 23 24  1  0
 23 20  1  0
 24 22  2  0
 25 26  1  0
 26 27  2  0
 28 31  1  0
 28 27  1  0
 29 28  2  0
 30 29  1  0
 30 25  2  0
 31 32  1  0
 32 33  1  0
 33 34  2  0
 35 34  1  0
 35 39  1  0
 36 35  2  0
 37 32  2  0
 37 36  1  0
 38 37  1  0
 40 41  1  0
 41 44  1  0
 41 43  1  0
 42 40  2  0
 45 20  1  0
 45 46  1  0
 47 45  1  0
 49 48  1  0
 50 61  2  0
 51 49  1  0
 51 56  1  0
 52 60  1  0
 52 62  1  0
 53 59  1  0
 53 55  1  0
 54 60  1  0
 55 56  2  0
 55 54  1  0
 57 51  2  0
 58 57  1  0
 58 53  2  0
 59 52  1  0
 60 50  1  0
 62 64  2  0
 63 62  1  0
 65 63  1  0
 66 75  2  0
 66 71  1  0
 67 63  1  0
 67 71  1  0
 68 67  1  0
 69 70  1  0
 69 68  1  0
 70 66  1  0
 71 72  2  0
 72 73  1  0
 74 73  2  0
 75 74  1  0
 76 50  1  0
 76 81  1  0
 76 77  1  0
 77 80  1  1
 77 78  1  0
 79 77  1  0
 81 84  1  0
 82 86  1  0
 82 81  1  0
 83 82  2  0
 86 85  1  0
 88 86  1  0
 88 89  1  0
 88 87  1  0
M  ISO  4  11 100  12 100  48 101  49 101
M  END
>  <TORSDO>  (25) 
F 20

>  <SCORE>  (25) 
-13.717

>  <name>  (25) 
24

>  <ligand_id>  (25) 
24

>  <original_smiles>  (25) 
[H]c1c([H])c([H])c2c(c1[H])C([H])([H])C([H])([H])C([H])([H])C2([H])N([H])C(=O)C1([H])N(C(=O)C([H])(N([H])C(=O)C([H])(N([H])C([H])([H])[H])C([H])([H])[H])C(C([H])([H])[H])(C([H])([H])[H])C([H])([H])[H])C([H])([H])c2c([H])c(OC([H])([H])c3c([H])c([H])c([H])c(C([H])([H])C([H])([H])C(C(=O)N4C([H])([H])C([H])([H])C([H])([H])C([H])(n5nc(-c6c([H])c([H])c(Oc7c([H])c([H])c(F)c([H])c7F)c([H])c6[H])c(C(=O)N([H])[H])c5N([H])[H])C4([H])[H])(C([H])([H])[H])C([H])([H])[H])c3[H])c([H])c([H])c2C1([H])[H]

>  <smiles>  (25) 
[H]c1c([H])c([H])c2c(c1[H])C([H])([H])C([H])([H])C([H])([H])C2([H])N([H])C(=O)C1([H])N(C(=O)C([H])(N([H])C(=O)C([H])(N([H])C([H])([H])[H])C([H])([H])[H])C(C([H])([H])[H])(C([H])([H])[H])C([H])([H])[H])C([H])([H])c2c([H])c(OC([H])([H])c3c([H])c([H])c([H])c(C([H])([H])C([H])([H])C(C(=O)N4C([H])([H])C([H])([H])C([H])([H])C([H])(n5nc(-c6c([H])c([H])c(Oc7c([H])c([H])c(F)c([H])c7F)c([H])c6[H])c(C(=O)N([H])[H])c5N([H])[H])C4([H])[H])(C([H])([H])[H])C([H])([H])[H])c3[H])c([H])c([H])c2C1([H])[H]

$$$$
25:0:0
     RDKit          3D

 90 99  0  0  1  0  0  0  0  0999 V2000
  -28.8900  -18.2660   19.6230 C   0  0  0  0  0  3  0  0  0  0  0  0
  -29.7980  -17.3730   20.4310 C   0  0  0  0  0  3  0  0  0  0  0  0
  -28.6410  -19.7900   19.6850 C   0  0  0  0  0  0  0  0  0  0  0  0
  -29.2940  -20.7580   20.5570 C   0  0  0  0  0  0  0  0  0  0  0  0
  -30.4110  -18.3940   21.3180 C   0  0  0  0  0  0  0  0  0  0  0  0
  -30.1790  -19.8980   21.3770 C   0  0  0  0  0  0  0  0  0  0  0  0
  -27.6430  -20.5240   18.7530 C   0  0  0  0  0  3  0  0  0  0  0  0
  -29.1030  -22.5530   20.6990 C   0  0  0  0  0  3  0  0  0  0  0  0
  -26.7730  -21.6940   19.4050 C   0  0  0  0  0  3  0  0  0  0  0  0
  -27.0330  -23.2590   19.1780 C   0  0  0  0  0  3  0  0  0  0  0  0
  -28.2370  -23.9700   19.8980 C   0  0  0  0  0  0  0  0  0  0  0  0
  -31.4290  -17.8390   22.3200 C   0  0  0  0  0  1  0  0  0  0  0  0
  -30.9660  -20.6520   22.4540 C   0  0  0  0  0  1  0  0  0  0  0  0
  -30.3310  -15.6890   20.2750 C   0  0  0  0  0  0  0  0  0  0  0  0
  -30.3480  -13.1440   19.5150 C   0  0  0  0  0  2  0  0  0  0  0  0
  -29.4850  -12.7660   18.2790 C   0  0  0  0  0  2  0  0  0  0  0  0
  -28.0470  -12.4390   18.7030 C   0  0  0  0  0  2  0  0  0  0  0  0
  -27.5230  -13.4610   19.7410 C   0  0  0  0  0  3  0  0  0  0  0  0
  -28.5290  -13.7900   20.8690 C   0  0  0  0  0  2  0  0  0  0  0  0
  -29.7440  -14.3540   20.2400 N   0  0  0  0  0  0  0  0  0  0  0  0
  -31.5530  -15.5380   20.0880 O   0  0  0  0  0  0  0  0  0  0  0  0
  -25.1510  -13.9930   20.4800 C   0  0  0  0  0  0  0  0  0  0  0  0
  -24.0870  -13.2140   20.8340 C   0  0  0  0  0  0  0  0  0  0  0  0
  -24.5580  -11.8640   20.8110 C   0  0  0  0  0  0  0  0  0  0  0  0
  -26.1980  -13.1220   20.2450 N   0  0  0  0  0  0  0  0  0  0  0  0
  -25.8560  -11.8340   20.5150 N   0  0  0  0  0  0  0  0  0  0  0  0
  -23.8250  -10.6020   20.9910 C   0  0  0  0  0  0  0  0  0  0  0  0
  -24.2270   -9.6400   21.9430 C   0  0  0  0  0  3  0  0  0  0  0  0
  -23.4930   -8.4480   22.1150 C   0  0  0  0  0  3  0  0  0  0  0  0
  -22.3380   -8.2070   21.3350 C   0  0  0  0  0  0  0  0  0  0  0  0
  -21.9530   -9.1560   20.3720 C   0  0  0  0  0  3  0  0  0  0  0  0
  -22.6880  -10.3410   20.1980 C   0  0  0  0  0  3  0  0  0  0  0  0
  -21.5780   -7.0650   21.4140 O   0  0  0  0  0  0  0  0  0  0  0  0
  -21.4820   -6.3410   22.5760 C   0  0  0  0  0  0  0  0  0  0  0  0
  -20.9790   -6.9070   23.7680 C   0  0  0  0  0  3  0  0  0  0  0  0
  -20.8330   -6.1100   24.9190 C   0  0  0  0  0  3  0  0  0  0  0  0
  -21.1780   -4.7460   24.8810 C   0  0  0  0  0  0  0  0  0  0  0  0
  -21.6710   -4.1780   23.6930 C   0  0  0  0  0  3  0  0  0  0  0  0
  -21.8210   -4.9730   22.5440 C   0  0  0  0  0  0  0  0  0  0  0  0
  -22.2760   -4.4150   21.3960 F   0  0  0  0  0  0  0  0  0  0  0  0
  -21.0320   -3.9760   25.9850 F   0  0  0  0  0  0  0  0  0  0  0  0
  -22.6840  -13.6900   21.0770 C   0  0  0  0  0  0  0  0  0  0  0  0
  -21.9410  -13.0020   21.9340 N   0  0  0  0  0  0  0  0  0  0  0  0
  -22.2560  -14.7130   20.5420 O   0  0  0  0  0  0  0  0  0  0  0  0
  -22.2960  -12.1770   22.3940 H   0  0  0  0  0  0  0  0  0  0  0  0
  -20.9980  -13.3040   22.1310 H   0  0  0  0  0  0  0  0  0  0  0  0
  -25.3140  -15.3640   20.3050 N   0  0  0  0  0  0  0  0  0  0  0  0
  -24.5470  -16.0150   20.4230 H   0  0  0  0  0  0  0  0  0  0  0  0
  -26.1740  -15.8120   20.0170 H   0  0  0  0  0  0  0  0  0  0  0  0
  -28.1750  -25.7090   20.1440 O   0  0  0  0  0  0  0  0  0  0  0  0
  -24.6390  -31.8690   23.1560 C   0  0  0  0  0  0  0  0  0  0  0  0
  -27.1700  -26.8790   20.0650 C   0  0  0  0  0  0  0  0  0  0  0  0
  -23.4420  -30.4890   21.5110 C   0  0  0  0  0  3  0  0  0  0  0  0
  -24.8820  -28.8760   20.0570 C   0  0  0  0  0  0  0  0  0  0  0  0
  -26.0160  -30.6550   21.3660 C   0  0  0  0  0  2  0  0  0  0  0  0
  -26.0790  -29.2370   20.6870 C   0  0  0  0  0  0  0  0  0  0  0  0
  -27.2030  -28.2630   20.6640 C   0  0  0  0  0  3  0  0  0  0  0  0
  -25.9460  -26.7270   19.3650 C   0  0  0  0  0  3  0  0  0  0  0  0
  -24.8530  -27.6470   19.3720 C   0  0  0  0  0  3  0  0  0  0  0  0
  -23.6680  -29.8140   20.1260 C   0  0  0  0  0  2  0  0  0  0  0  0
  -24.7230  -31.0370   22.0620 N   0  0  0  0  0  0  0  0  0  0  0  0
  -23.5500  -32.1570   23.6810 O   0  0  0  0  0  0  0  0  0  0  0  0
  -22.7420  -29.4930   22.4750 C   0  0  0  0  0  0  0  0  0  0  0  0
  -21.4090  -29.3310   22.3560 N   0  0  0  0  0  0  0  0  0  0  0  0
  -23.4070  -28.8640   23.3000 O   0  0  0  0  0  0  0  0  0  0  0  0
  -20.9220  -29.8860   21.6680 H   0  0  0  0  0  0  0  0  0  0  0  0
  -18.0310  -28.1030   22.8870 C   0  0  0  0  0  0  0  0  0  0  0  0
  -20.5930  -28.3820   23.1230 C   0  0  0  0  0  3  0  0  0  0  0  0
  -20.6960  -26.9580   22.5300 C   0  0  0  0  0  2  0  0  0  0  0  0
  -19.5850  -26.6430   21.5220 C   0  0  0  0  0  2  0  0  0  0  0  0
  -18.2090  -26.7680   22.1830 C   0  0  0  0  0  2  0  0  0  0  0  0
  -19.1500  -28.8670   23.3140 C   0  0  0  0  0  0  0  0  0  0  0  0
  -18.9260  -30.1140   23.9380 C   0  0  0  0  0  3  0  0  0  0  0  0
  -17.6180  -30.5990   24.1340 C   0  0  0  0  0  3  0  0  0  0  0  0
  -16.5140  -29.8310   23.7200 C   0  0  0  0  0  3  0  0  0  0  0  0
  -16.7230  -28.5840   23.1030 C   0  0  0  0  0  3  0  0  0  0  0  0
  -25.9060  -32.5150   23.7930 C   0  0  0  0  0  3  0  0  0  0  0  0
  -25.5790  -33.9070   24.1580 N   0  0  0  0  0  0  0  0  0  0  0  0
  -25.9040  -34.9900   23.4390 C   0  0  0  0  0  0  0  0  0  0  0  0
  -26.5680  -34.9230   22.4020 O   0  0  0  0  0  0  0  0  0  0  0  0
  -24.9850  -34.0320   24.9630 H   0  0  0  0  0  0  0  0  0  0  0  0
  -24.1750  -36.8030   23.1580 C   0  0  0  0  0  1  0  0  0  0  0  0
  -25.4200  -36.3650   23.9470 C   0  0  0  0  0  3  0  0  0  0  0  0
  -27.5540  -37.2320   24.8040 C   0  0  0  0  0  1  0  0  0  0  0  0
  -26.4510  -37.4240   23.8650 N   0  0  0  0  0  0  0  0  0  0  0  0
  -26.0450  -38.3400   24.0360 H   0  0  0  0  0  0  0  0  0  0  0  0
  -26.4230  -31.7370   25.0680 C   0  0  1  0  0  0  0  0  0  0  0  0
  -25.3300  -31.4890   26.1340 C   0  0  0  0  0  1  0  0  0  0  0  0
  -27.0100  -30.3620   24.6780 C   0  0  0  0  0  1  0  0  0  0  0  0
  -27.5710  -32.5290   25.7350 C   0  0  0  0  0  1  0  0  0  0  0  0
  1  3  2  0
  1  2  1  0
  2 14  1  0
  2  5  1  0
  3  4  1  0
  4  8  2  0
  4  6  1  0
  5  6  2  0
  5 12  1  0
  6 13  1  0
  7  9  2  0
  7  3  1  0
 10  9  1  0
 10 11  2  0
 11 50  1  0
 11  8  1  0
 15 20  1  0
 16 17  1  0
 16 15  1  0
 18 17  1  0
 18 25  1  0
 18 19  1  0
 20 14  1  0
 20 19  1  0
 21 14  2  0
 22 23  2  0
 23 42  1  0
 24 23  1  0
 24 27  1  0
 25 22  1  0
 25 26  1  0
 26 24  2  0
 27 28  1  0
 28 29  2  0
 30 33  1  0
 30 29  1  0
 31 30  2  0
 32 31  1  0
 32 27  2  0
 33 34  1  0
 34 35  1  0
 35 36  2  0
 37 36  1  0
 37 41  1  0
 38 37  2  0
 39 34  2  0
 39 38  1  0
 40 39  1  0
 42 43  1  0
 43 46  1  0
 43 45  1  0
 44 42  2  0
 47 48  1  0
 47 22  1  0
 49 47  1  0
 51 62  2  0
 52 50  1  0
 52 57  1  0
 53 61  1  0
 53 63  1  0
 54 60  1  0
 54 56  1  0
 55 61  1  0
 56 55  1  0
 57 56  2  0
 58 59  1  0
 58 52  2  0
 59 54  2  0
 60 53  1  0
 61 51  1  0
 63 65  2  0
 64 63  1  0
 66 64  1  0
 67 76  2  0
 67 72  1  0
 68 64  1  0
 68 72  1  0
 69 68  1  0
 70 71  1  0
 70 69  1  0
 71 67  1  0
 72 73  2  0
 73 74  1  0
 75 74  2  0
 76 75  1  0
 77 51  1  0
 77 78  1  0
 77 87  1  0
 78 81  1  0
 79 83  1  0
 79 78  1  0
 80 79  2  0
 83 82  1  0
 85 83  1  0
 85 86  1  0
 85 84  1  0
 87 90  1  1
 87 88  1  0
 89 87  1  0
M  ISO  4   2 100  11 101  14 100  50 101
M  END
>  <TORSDO>  (26) 
F 16

>  <SCORE>  (26) 
-16.383

>  <name>  (26) 
25

>  <ligand_id>  (26) 
25

>  <original_smiles>  (26) 
[H]c1c([H])c([H])c2c(c1[H])C([H])([H])C([H])([H])C([H])([H])C2([H])N([H])C(=O)C1([H])N(C(=O)C([H])(N([H])C(=O)C([H])(N([H])C([H])([H])[H])C([H])([H])[H])C(C([H])([H])[H])(C([H])([H])[H])C([H])([H])[H])C([H])([H])c2c([H])c(OC3([H])C([H])([H])c4c(C([H])([H])[H])c(C([H])([H])[H])c(C(=O)N5C([H])([H])C([H])([H])C([H])([H])C([H])(n6nc(-c7c([H])c([H])c(Oc8c([H])c([H])c(F)c([H])c8F)c([H])c7[H])c(C(=O)N([H])[H])c6N([H])[H])C5([H])[H])c([H])c4C([H])([H])C([H])([H])C3([H])[H])c([H])c([H])c2C1([H])[H]

>  <smiles>  (26) 
[H]c1c([H])c([H])c2c(c1[H])C([H])([H])C([H])([H])C([H])([H])C2([H])N([H])C(=O)C1([H])N(C(=O)C([H])(N([H])C(=O)C([H])(N([H])C([H])([H])[H])C([H])([H])[H])C(C([H])([H])[H])(C([H])([H])[H])C([H])([H])[H])C([H])([H])c2c([H])c(OC3([H])C([H])([H])c4c(C([H])([H])[H])c(C([H])([H])[H])c(C(=O)N5C([H])([H])C([H])([H])C([H])([H])C([H])(n6nc(-c7c([H])c([H])c(Oc8c([H])c([H])c(F)c([H])c8F)c([H])c7[H])c(C(=O)N([H])[H])c6N([H])[H])C5([H])[H])c([H])c4C([H])([H])C([H])([H])C3([H])[H])c([H])c([H])c2C1([H])[H]

$$$$
26:0:0
     RDKit          3D

 99108  0  0  1  0  0  0  0  0999 V2000
  -30.6390  -19.5420   19.6750 C   0  0  0  0  0  3  0  0  0  0  0  0
  -31.1620  -18.3810   22.0060 C   0  0  0  0  0  2  0  0  0  0  0  0
  -29.9620  -16.2760   22.0970 C   0  0  0  0  0  2  0  0  0  0  0  0
  -30.4450  -18.2020   20.6710 C   0  0  0  0  0  3  0  0  0  0  0  0
  -30.3130  -17.5220   22.9310 C   0  0  0  0  0  3  0  0  0  0  0  0
  -30.1620  -16.4990   20.5470 C   0  0  2  0  0  0  0  0  0  0  0  0
  -28.8690  -16.4480   19.6910 C   0  0  0  0  0  1  0  0  0  0  0  0
  -31.0120  -15.0960   20.1050 C   0  0  0  0  0  0  0  0  0  0  0  0
  -30.7490  -12.9280   18.7770 C   0  0  0  0  0  2  0  0  0  0  0  0
  -29.6960  -13.1020   17.6490 C   0  0  0  0  0  2  0  0  0  0  0  0
  -28.2530  -12.8780   18.1570 C   0  0  0  0  0  2  0  0  0  0  0  0
  -27.9910  -13.5760   19.5100 C   0  0  0  0  0  3  0  0  0  0  0  0
  -29.1420  -13.2890   20.4890 C   0  0  0  0  0  2  0  0  0  0  0  0
  -30.3960  -13.8380   19.9080 N   0  0  0  0  0  0  0  0  0  0  0  0
  -32.1870  -15.1850   19.7360 O   0  0  0  0  0  0  0  0  0  0  0  0
  -25.6630  -14.1880   20.3930 C   0  0  0  0  0  0  0  0  0  0  0  0
  -24.6110  -13.4200   20.8030 C   0  0  0  0  0  0  0  0  0  0  0  0
  -25.0560  -12.0660   20.7030 C   0  0  0  0  0  0  0  0  0  0  0  0
  -26.6790  -13.2980   20.0710 N   0  0  0  0  0  0  0  0  0  0  0  0
  -26.3250  -12.0160   20.3210 N   0  0  0  0  0  0  0  0  0  0  0  0
  -24.3280  -10.8100   20.8920 C   0  0  0  0  0  0  0  0  0  0  0  0
  -24.7330   -9.8660   21.8600 C   0  0  0  0  0  3  0  0  0  0  0  0
  -24.0080   -8.6690   22.0340 C   0  0  0  0  0  3  0  0  0  0  0  0
  -22.8640   -8.4110   21.2430 C   0  0  0  0  0  0  0  0  0  0  0  0
  -22.4790   -9.3460   20.2640 C   0  0  0  0  0  3  0  0  0  0  0  0
  -23.2060  -10.5350   20.0880 C   0  0  0  0  0  3  0  0  0  0  0  0
  -22.1130   -7.2650   21.3270 O   0  0  0  0  0  0  0  0  0  0  0  0
  -21.9260   -6.6140   22.5190 C   0  0  0  0  0  0  0  0  0  0  0  0
  -21.3640   -7.2630   23.6410 C   0  0  0  0  0  3  0  0  0  0  0  0
  -21.1210   -6.5380   24.8240 C   0  0  0  0  0  3  0  0  0  0  0  0
  -21.4350   -5.1670   24.8880 C   0  0  0  0  0  0  0  0  0  0  0  0
  -21.9930   -4.5190   23.7720 C   0  0  0  0  0  3  0  0  0  0  0  0
  -22.2360   -5.2410   22.5890 C   0  0  0  0  0  0  0  0  0  0  0  0
  -22.7530   -4.6070   21.5090 F   0  0  0  0  0  0  0  0  0  0  0  0
  -21.1960   -4.4680   26.0230 F   0  0  0  0  0  0  0  0  0  0  0  0
  -23.2370  -13.9060   21.1670 C   0  0  0  0  0  0  0  0  0  0  0  0
  -22.5700  -13.2220   22.0870 N   0  0  0  0  0  0  0  0  0  0  0  0
  -22.7670  -14.9290   20.6690 O   0  0  0  0  0  0  0  0  0  0  0  0
  -22.9640  -12.3960   22.5150 H   0  0  0  0  0  0  0  0  0  0  0  0
  -21.6500  -13.5280   22.3710 H   0  0  0  0  0  0  0  0  0  0  0  0
  -25.8230  -15.5630   20.2430 N   0  0  0  0  0  0  0  0  0  0  0  0
  -25.0590  -16.2090   20.4060 H   0  0  0  0  0  0  0  0  0  0  0  0
  -26.6230  -15.9940   19.8020 H   0  0  0  0  0  0  0  0  0  0  0  0
  -30.9560  -17.2280   24.2290 N   0  0  0  0  0  4  0  0  0  0  0  0
  -31.8280  -16.7390   24.1210 H   0  0  0  0  0  0  0  0  0  0  0  0
  -30.3530  -16.6680   24.8070 H   0  0  0  0  0  0  0  0  0  0  0  0
  -31.1390  -18.0810   24.7290 H   0  0  0  0  0  0  0  0  0  0  0  0
  -31.2660  -23.0140   21.4540 C   0  0  0  0  0  3  0  0  0  0  0  0
  -30.3260  -23.9440   20.9650 C   0  0  0  0  0  3  0  0  0  0  0  0
  -31.2780  -21.6600   21.0480 C   0  0  0  0  0  3  0  0  0  0  0  0
  -29.3560  -22.1290   19.6660 C   0  0  0  0  0  3  0  0  0  0  0  0
  -29.3310  -23.5670   20.0450 C   0  0  0  0  0  0  0  0  0  0  0  0
  -30.3420  -21.1170   20.1350 C   0  0  0  0  0  0  0  0  0  0  0  0
  -28.2580  -24.7140   19.5850 C   0  0  0  0  0  2  0  0  0  0  0  0
  -28.4210  -26.2330   19.8190 O   0  0  0  0  0  0  0  0  0  0  0  0
  -24.6070  -31.6810   22.9370 C   0  0  0  0  0  0  0  0  0  0  0  0
  -27.3050  -27.1420   19.7720 C   0  0  0  0  0  0  0  0  0  0  0  0
  -23.4190  -30.2660   21.3040 C   0  0  0  0  0  3  0  0  0  0  0  0
  -24.8930  -28.7660   19.8250 C   0  0  0  0  0  0  0  0  0  0  0  0
  -25.9530  -30.6340   21.0840 C   0  0  0  0  0  2  0  0  0  0  0  0
  -26.0660  -29.2580   20.4120 C   0  0  0  0  0  0  0  0  0  0  0  0
  -27.2680  -28.4610   20.3720 C   0  0  0  0  0  3  0  0  0  0  0  0
  -26.1000  -26.7440   19.1450 C   0  0  0  0  0  3  0  0  0  0  0  0
  -24.9210  -27.5210   19.1780 C   0  0  0  0  0  3  0  0  0  0  0  0
  -23.6310  -29.6100   19.9130 C   0  0  0  0  0  2  0  0  0  0  0  0
  -24.6800  -30.8820   21.8300 N   0  0  0  0  0  0  0  0  0  0  0  0
  -23.5260  -31.9200   23.4950 O   0  0  0  0  0  0  0  0  0  0  0  0
  -22.7980  -29.2250   22.2680 C   0  0  0  0  0  0  0  0  0  0  0  0
  -21.4740  -29.0130   22.1700 N   0  0  0  0  0  0  0  0  0  0  0  0
  -23.5100  -28.6100   23.0670 O   0  0  0  0  0  0  0  0  0  0  0  0
  -20.9530  -29.5630   21.5010 H   0  0  0  0  0  0  0  0  0  0  0  0
  -18.1460  -27.6990   22.7340 C   0  0  0  0  0  0  0  0  0  0  0  0
  -20.7010  -28.0400   22.9470 C   0  0  0  0  0  3  0  0  0  0  0  0
  -20.8330  -26.6190   22.3500 C   0  0  0  0  0  2  0  0  0  0  0  0
  -19.7190  -26.2750   21.3560 C   0  0  0  0  0  2  0  0  0  0  0  0
  -18.3490  -26.3660   22.0330 C   0  0  0  0  0  2  0  0  0  0  0  0
  -19.2490  -28.4920   23.1490 C   0  0  0  0  0  0  0  0  0  0  0  0
  -19.0030  -29.7370   23.7670 C   0  0  0  0  0  3  0  0  0  0  0  0
  -17.6870  -30.1920   23.9730 C   0  0  0  0  0  3  0  0  0  0  0  0
  -16.5980  -29.3960   23.5730 C   0  0  0  0  0  3  0  0  0  0  0  0
  -16.8280  -28.1520   22.9600 C   0  0  0  0  0  3  0  0  0  0  0  0
  -25.8790  -32.3510   23.5440 C   0  0  0  0  0  3  0  0  0  0  0  0
  -25.5010  -33.6960   24.0040 N   0  0  0  0  0  0  0  0  0  0  0  0
  -25.7420  -34.8300   23.3310 C   0  0  0  0  0  0  0  0  0  0  0  0
  -26.3730  -34.8550   22.2720 O   0  0  0  0  0  0  0  0  0  0  0  0
  -24.9300  -33.7450   24.8350 H   0  0  0  0  0  0  0  0  0  0  0  0
  -23.9010  -36.5430   23.2030 C   0  0  0  0  0  1  0  0  0  0  0  0
  -25.1970  -36.1440   23.9270 C   0  0  0  0  0  3  0  0  0  0  0  0
  -27.3120  -37.0870   24.7480 C   0  0  0  0  0  1  0  0  0  0  0  0
  -26.1630  -37.2640   23.8630 N   0  0  0  0  0  0  0  0  0  0  0  0
  -25.7110  -38.1430   24.1020 H   0  0  0  0  0  0  0  0  0  0  0  0
  -26.5090  -31.5220   24.7310 C   0  0  1  0  0  0  0  0  0  0  0  0
  -25.4910  -31.1320   25.8270 C   0  0  0  0  0  1  0  0  0  0  0  0
  -27.1590  -30.2200   24.2100 C   0  0  0  0  0  1  0  0  0  0  0  0
  -27.6390  -32.3400   25.4000 C   0  0  0  0  0  1  0  0  0  0  0  0
  -28.9350  -19.4300   17.8270 C   0  0  0  0  0  1  0  0  0  0  0  0
  -31.2460  -20.0580   17.3160 C   0  0  0  0  0  1  0  0  0  0  0  0
  -30.3560  -19.2970   18.2290 N   0  0  1  0  0  4  0  0  0  0  0  0
  -30.6000  -18.3300   18.0800 H   0  0  0  0  0  0  0  0  0  0  0  0
  1 98  1  0
  1 53  1  0
  2  5  1  0
  3  5  1  0
  4  1  1  0
  4  2  1  0
  5 44  1  0
  6  7  1  6
  6  4  1  0
  6  3  1  0
  8  6  1  0
  9 14  1  0
 10 11  1  0
 10  9  1  0
 12 11  1  0
 12 19  1  0
 12 13  1  0
 14  8  1  0
 14 13  1  0
 15  8  2  0
 16 17  2  0
 17 36  1  0
 18 17  1  0
 18 21  1  0
 19 20  1  0
 19 16  1  0
 20 18  2  0
 21 22  1  0
 22 23  2  0
 24 27  1  0
 24 23  1  0
 25 24  2  0
 26 25  1  0
 26 21  2  0
 27 28  1  0
 28 33  2  0
 28 29  1  0
 29 30  2  0
 30 31  1  0
 31 35  1  0
 32 31  2  0
 33 32  1  0
 34 33  1  0
 36 37  1  0
 37 40  1  0
 37 39  1  0
 38 36  2  0
 41 16  1  0
 41 42  1  0
 43 41  1  0
 44 47  1  0
 44 46  1  0
 45 44  1  0
 49 48  2  0
 50 48  1  0
 51 52  2  0
 51 53  1  0
 52 49  1  0
 53 50  2  0
 54 55  1  0
 54 52  1  0
 56 67  2  0
 57 55  1  0
 57 62  1  0
 58 66  1  0
 58 68  1  0
 59 65  1  0
 59 61  1  0
 60 66  1  0
 61 60  1  0
 62 61  2  0
 63 64  1  0
 63 57  2  0
 64 59  2  0
 65 58  1  0
 66 56  1  0
 68 70  2  0
 69 68  1  0
 71 69  1  0
 72 81  2  0
 72 77  1  0
 73 69  1  0
 73 77  1  0
 74 73  1  0
 75 76  1  0
 75 74  1  0
 76 72  1  0
 77 78  2  0
 78 79  1  0
 80 79  2  0
 81 80  1  0
 82 56  1  0
 82 83  1  0
 82 92  1  0
 83 86  1  0
 84 88  1  0
 84 83  1  0
 85 84  2  0
 88 87  1  0
 90 88  1  0
 90 91  1  0
 90 89  1  0
 92 95  1  1
 92 93  1  0
 94 92  1  0
 96 98  1  0
 97 98  1  0
 98 99  1  1
M  ISO  4   6 100   8 100  54 101  55 101
M  END
>  <TORSDO>  (27) 
F 21

>  <SCORE>  (27) 
-11.602

>  <name>  (27) 
26

>  <ligand_id>  (27) 
26

>  <original_smiles>  (27) 
[H]c1c([H])c([H])c2c(c1[H])C([H])([H])C([H])([H])C([H])([H])C2([H])N([H])C(=O)C1([H])N(C(=O)C([H])(N([H])C(=O)C([H])(N([H])C([H])([H])[H])C([H])([H])[H])C(C([H])([H])[H])(C([H])([H])[H])C([H])([H])[H])C([H])([H])c2c([H])c(OC([H])([H])c3c([H])c([H])c([H])c(C([H])(C4([H])C([H])([H])C([H])([N+]([H])([H])[H])C([H])([H])C4(C(=O)N4C([H])([H])C([H])([H])C([H])([H])C([H])(n5nc(-c6c([H])c([H])c(Oc7c([H])c([H])c(F)c([H])c7F)c([H])c6[H])c(C(=O)N([H])[H])c5N([H])[H])C4([H])[H])C([H])([H])[H])[N+]([H])(C([H])([H])[H])C([H])([H])[H])c3[H])c([H])c([H])c2C1([H])[H]

>  <smiles>  (27) 
[H]c1c([H])c([H])c2c(c1[H])C([H])([H])C([H])([H])C([H])([H])C2([H])N([H])C(=O)C1([H])N(C(=O)C([H])(N([H])C(=O)C([H])(N([H])C([H])([H])[H])C([H])([H])[H])C(C([H])([H])[H])(C([H])([H])[H])C([H])([H])[H])C([H])([H])c2c([H])c(OC([H])([H])c3c([H])c([H])c([H])c(C([H])(C4([H])C([H])([H])C([H])([N+]([H])([H])[H])C([H])([H])C4(C(=O)N4C([H])([H])C([H])([H])C([H])([H])C([H])(n5nc(-c6c([H])c([H])c(Oc7c([H])c([H])c(F)c([H])c7F)c([H])c6[H])c(C(=O)N([H])[H])c5N([H])[H])C4([H])[H])C([H])([H])[H])[N+]([H])(C([H])([H])[H])C([H])([H])[H])c3[H])c([H])c([H])c2C1([H])[H]

$$$$
27:0:0
     RDKit          3D

 90 99  0  0  1  0  0  0  0  0999 V2000
  -30.6280  -18.8450   18.6140 C   0  0  0  0  0  3  0  0  0  0  0  0
  -30.2630  -17.5210   19.3130 C   0  0  0  0  0  0  0  0  0  0  0  0
  -30.0990  -20.3070   18.7650 C   0  0  0  0  0  0  0  0  0  0  0  0
  -29.0930  -20.7020   19.6920 C   0  0  0  0  0  0  0  0  0  0  0  0
  -29.2810  -18.0550   20.2880 C   0  0  0  0  0  0  0  0  0  0  0  0
  -28.7300  -19.4680   20.4270 C   0  0  0  0  0  0  0  0  0  0  0  0
  -30.5910  -21.6580   18.0470 C   0  0  0  0  0  2  0  0  0  0  0  0
  -28.4720  -22.3450   19.8700 C   0  0  0  0  0  2  0  0  0  0  0  0
  -29.7500  -23.1240   17.9810 C   0  0  0  0  0  2  0  0  0  0  0  0
  -29.0720  -23.9020   19.2510 C   0  0  2  0  0  0  0  0  0  0  0  0
  -28.8310  -17.0530   21.3470 C   0  0  0  0  0  1  0  0  0  0  0  0
  -27.6730  -19.7000   21.5050 C   0  0  0  0  0  1  0  0  0  0  0  0
  -30.2360  -24.1180   20.2390 C   0  0  0  0  0  1  0  0  0  0  0  0
  -30.9710  -15.8710   19.1820 C   0  0  0  0  0  0  0  0  0  0  0  0
  -31.0860  -13.2620   18.5670 C   0  0  0  0  0  2  0  0  0  0  0  0
  -30.0910  -12.7620   17.4790 C   0  0  0  0  0  2  0  0  0  0  0  0
  -28.7390  -12.3810   18.1030 C   0  0  0  0  0  2  0  0  0  0  0  0
  -28.3090  -13.4190   19.1640 C   0  0  0  0  0  3  0  0  0  0  0  0
  -29.4390  -13.8470   20.1280 C   0  0  0  0  0  2  0  0  0  0  0  0
  -30.5150  -14.4770   19.3230 N   0  0  0  0  0  0  0  0  0  0  0  0
  -32.1490  -15.7950   18.7770 O   0  0  0  0  0  0  0  0  0  0  0  0
  -26.1550  -13.9170   20.4080 C   0  0  0  0  0  0  0  0  0  0  0  0
  -25.1360  -13.1340   20.8660 C   0  0  0  0  0  0  0  0  0  0  0  0
  -25.5180  -11.7850   20.5910 C   0  0  0  0  0  0  0  0  0  0  0  0
  -27.0870  -13.0530   19.8680 N   0  0  0  0  0  0  0  0  0  0  0  0
  -26.7320  -11.7510   20.0430 N   0  0  0  0  0  0  0  0  0  0  0  0
  -24.7650  -10.5330   20.7650 C   0  0  0  0  0  0  0  0  0  0  0  0
  -25.2060   -9.5170   21.6420 C   0  0  0  0  0  3  0  0  0  0  0  0
  -24.4490   -8.3360   21.8090 C   0  0  0  0  0  3  0  0  0  0  0  0
  -23.2350   -8.1630   21.1000 C   0  0  0  0  0  0  0  0  0  0  0  0
  -22.8120   -9.1670   20.2130 C   0  0  0  0  0  3  0  0  0  0  0  0
  -23.5690  -10.3390   20.0430 C   0  0  0  0  0  3  0  0  0  0  0  0
  -22.4510   -7.0370   21.1780 O   0  0  0  0  0  0  0  0  0  0  0  0
  -22.2590   -6.3700   22.3620 C   0  0  0  0  0  0  0  0  0  0  0  0
  -21.6900   -7.0020   23.4890 C   0  0  0  0  0  3  0  0  0  0  0  0
  -21.4470   -6.2630   24.6640 C   0  0  0  0  0  3  0  0  0  0  0  0
  -21.7640   -4.8920   24.7110 C   0  0  0  0  0  0  0  0  0  0  0  0
  -22.3270   -4.2590   23.5890 C   0  0  0  0  0  3  0  0  0  0  0  0
  -22.5720   -4.9960   22.4170 C   0  0  0  0  0  0  0  0  0  0  0  0
  -23.0940   -4.3770   21.3310 F   0  0  0  0  0  0  0  0  0  0  0  0
  -21.5250   -4.1790   25.8370 F   0  0  0  0  0  0  0  0  0  0  0  0
  -23.8360  -13.6210   21.4360 C   0  0  0  0  0  0  0  0  0  0  0  0
  -23.2370  -12.8600   22.3420 N   0  0  0  0  0  0  0  0  0  0  0  0
  -23.3680  -14.7120   21.1100 O   0  0  0  0  0  0  0  0  0  0  0  0
  -23.6330  -11.9780   22.6310 H   0  0  0  0  0  0  0  0  0  0  0  0
  -22.3690  -13.1680   22.7560 H   0  0  0  0  0  0  0  0  0  0  0  0
  -26.3600  -15.2950   20.3780 N   0  0  0  0  0  0  0  0  0  0  0  0
  -25.6760  -15.9470   20.7430 H   0  0  0  0  0  0  0  0  0  0  0  0
  -27.1750  -15.7510   19.9880 H   0  0  0  0  0  0  0  0  0  0  0  0
  -28.7420  -25.6670   19.3020 O   0  0  0  0  0  0  0  0  0  0  0  0
  -25.0910  -31.5190   22.8450 C   0  0  0  0  0  0  0  0  0  0  0  0
  -27.6820  -26.8090   19.3370 C   0  0  0  0  0  0  0  0  0  0  0  0
  -23.9060  -30.2630   21.0930 C   0  0  0  0  0  3  0  0  0  0  0  0
  -25.3630  -28.7890   19.5010 C   0  0  0  0  0  0  0  0  0  0  0  0
  -26.4770  -30.4760   20.9480 C   0  0  0  0  0  2  0  0  0  0  0  0
  -26.5580  -29.1140   20.1520 C   0  0  0  0  0  0  0  0  0  0  0  0
  -27.6960  -28.1560   20.0350 C   0  0  0  0  0  3  0  0  0  0  0  0
  -26.4460  -26.6970   18.6480 C   0  0  0  0  0  3  0  0  0  0  0  0
  -25.3460  -27.6120   18.7280 C   0  0  0  0  0  3  0  0  0  0  0  0
  -24.1360  -29.7050   19.6560 C   0  0  0  0  0  2  0  0  0  0  0  0
  -25.1820  -30.7820   21.6840 N   0  0  0  0  0  0  0  0  0  0  0  0
  -24.0000  -31.7420   23.3990 O   0  0  0  0  0  0  0  0  0  0  0  0
  -23.2270  -29.1800   21.9750 C   0  0  0  0  0  0  0  0  0  0  0  0
  -21.8910  -29.0360   21.8830 N   0  0  0  0  0  0  0  0  0  0  0  0
  -23.9140  -28.4690   22.7120 O   0  0  0  0  0  0  0  0  0  0  0  0
  -21.3860  -29.6610   21.2700 H   0  0  0  0  0  0  0  0  0  0  0  0
  -18.5150  -27.8320   22.4740 C   0  0  0  0  0  0  0  0  0  0  0  0
  -21.0940  -28.0150   22.5740 C   0  0  0  0  0  3  0  0  0  0  0  0
  -21.1100  -26.6780   21.7930 C   0  0  0  0  0  2  0  0  0  0  0  0
  -19.9280  -26.5290   20.8300 C   0  0  0  0  0  2  0  0  0  0  0  0
  -18.6020  -26.5980   21.5920 C   0  0  0  0  0  2  0  0  0  0  0  0
  -19.6820  -28.5070   22.9210 C   0  0  0  0  0  0  0  0  0  0  0  0
  -19.5400  -29.6650   23.7150 C   0  0  0  0  0  3  0  0  0  0  0  0
  -18.2650  -30.1490   24.0610 C   0  0  0  0  0  3  0  0  0  0  0  0
  -17.1130  -29.4710   23.6250 C   0  0  0  0  0  3  0  0  0  0  0  0
  -17.2390  -28.3130   22.8380 C   0  0  0  0  0  3  0  0  0  0  0  0
  -26.3510  -32.1320   23.5310 C   0  0  0  0  0  3  0  0  0  0  0  0
  -26.0010  -33.4810   24.0200 N   0  0  0  0  0  0  0  0  0  0  0  0
  -26.2810  -34.6290   23.3870 C   0  0  0  0  0  0  0  0  0  0  0  0
  -26.9160  -34.6640   22.3310 O   0  0  0  0  0  0  0  0  0  0  0  0
  -25.4280  -33.5230   24.8510 H   0  0  0  0  0  0  0  0  0  0  0  0
  -24.4870  -36.4000   23.3240 C   0  0  0  0  0  1  0  0  0  0  0  0
  -25.7800  -35.9460   24.0220 C   0  0  0  0  0  3  0  0  0  0  0  0
  -27.9220  -36.8180   24.8520 C   0  0  0  0  0  1  0  0  0  0  0  0
  -26.7760  -37.0400   23.9750 N   0  0  0  0  0  0  0  0  0  0  0  0
  -26.3500  -37.9270   24.2280 H   0  0  0  0  0  0  0  0  0  0  0  0
  -26.8890  -31.2540   24.7310 C   0  0  1  0  0  0  0  0  0  0  0  0
  -25.8090  -30.9030   25.7820 C   0  0  0  0  0  1  0  0  0  0  0  0
  -27.4900  -29.9260   24.2210 C   0  0  0  0  0  1  0  0  0  0  0  0
  -28.0340  -32.0020   25.4550 C   0  0  0  0  0  1  0  0  0  0  0  0
  1  3  2  0
  1  2  1  0
  2  5  2  0
  3  4  1  0
  4  8  1  0
  4  6  2  0
  5  6  1  0
  5 11  1  0
  6 12  1  0
  7  3  1  0
  9  7  1  0
  9 10  1  0
 10 50  1  0
 10  8  1  0
 10 13  1  1
 14  2  1  0
 14 20  1  0
 15 20  1  0
 16 17  1  0
 16 15  1  0
 18 17  1  0
 18 25  1  0
 18 19  1  0
 20 19  1  0
 21 14  2  0
 22 23  2  0
 23 42  1  0
 24 27  1  0
 24 23  1  0
 25 26  1  0
 25 22  1  0
 26 24  2  0
 27 28  1  0
 28 29  2  0
 30 33  1  0
 30 29  1  0
 31 30  2  0
 32 31  1  0
 32 27  2  0
 33 34  1  0
 34 39  2  0
 34 35  1  0
 35 36  2  0
 36 37  1  0
 37 41  1  0
 38 37  2  0
 39 38  1  0
 40 39  1  0
 42 43  1  0
 43 45  1  0
 43 46  1  0
 44 42  2  0
 47 22  1  0
 47 48  1  0
 49 47  1  0
 50 52  1  0
 51 62  2  0
 52 57  1  0
 53 61  1  0
 53 63  1  0
 54 60  1  0
 54 56  1  0
 55 61  1  0
 56 55  1  0
 57 56  2  0
 58 59  1  0
 58 52  2  0
 59 54  2  0
 60 53  1  0
 61 51  1  0
 63 65  2  0
 64 63  1  0
 66 64  1  0
 67 76  2  0
 67 72  1  0
 68 64  1  0
 68 72  1  0
 69 68  1  0
 70 71  1  0
 70 69  1  0
 71 67  1  0
 72 73  2  0
 73 74  1  0
 75 74  2  0
 76 75  1  0
 77 51  1  0
 77 78  1  0
 77 87  1  0
 78 81  1  0
 79 78  1  0
 79 83  1  0
 80 79  2  0
 83 82  1  0
 85 83  1  0
 85 86  1  0
 85 84  1  0
 87 90  1  1
 87 88  1  0
 89 87  1  0
M  ISO  4   2 100  10 101  14 100  50 101
M  END
>  <TORSDO>  (28) 
F 16

>  <SCORE>  (28) 
-9.976

>  <name>  (28) 
27

>  <ligand_id>  (28) 
27

>  <original_smiles>  (28) 
[H]c1c([H])c([H])c2c(c1[H])C([H])([H])C([H])([H])C([H])([H])C2([H])N([H])C(=O)C1([H])N(C(=O)C([H])(N([H])C(=O)C([H])(N([H])C([H])([H])[H])C([H])([H])[H])C(C([H])([H])[H])(C([H])([H])[H])C([H])([H])[H])C([H])([H])c2c([H])c(OC3(C([H])([H])[H])C([H])([H])c4c(C([H])([H])[H])c(C([H])([H])[H])c(C(=O)N5C([H])([H])C([H])([H])C([H])([H])C([H])(n6nc(-c7c([H])c([H])c(Oc8c([H])c([H])c(F)c([H])c8F)c([H])c7[H])c(C(=O)N([H])[H])c6N([H])[H])C5([H])[H])c([H])c4C([H])([H])C3([H])[H])c([H])c([H])c2C1([H])[H]

>  <smiles>  (28) 
[H]c1c([H])c([H])c2c(c1[H])C([H])([H])C([H])([H])C([H])([H])C2([H])N([H])C(=O)C1([H])N(C(=O)C([H])(N([H])C(=O)C([H])(N([H])C([H])([H])[H])C([H])([H])[H])C(C([H])([H])[H])(C([H])([H])[H])C([H])([H])[H])C([H])([H])c2c([H])c(OC3(C([H])([H])[H])C([H])([H])c4c(C([H])([H])[H])c(C([H])([H])[H])c(C(=O)N5C([H])([H])C([H])([H])C([H])([H])C([H])(n6nc(-c7c([H])c([H])c(Oc8c([H])c([H])c(F)c([H])c8F)c([H])c7[H])c(C(=O)N([H])[H])c6N([H])[H])C5([H])[H])c([H])c4C([H])([H])C3([H])[H])c([H])c([H])c2C1([H])[H]

$$$$
28:0:0
     RDKit          3D

 90 99  0  0  1  0  0  0  0  0999 V2000
  -31.6500  -19.1860   18.0800 C   0  0  0  0  0  3  0  0  0  0  0  0
  -31.2950  -20.5320   18.1590 C   0  0  0  0  0  3  0  0  0  0  0  0
  -31.0220  -18.2210   18.8800 C   0  0  0  0  0  3  0  0  0  0  0  0
  -29.6050  -20.0110   19.8870 C   0  0  0  0  0  0  0  0  0  0  0  0
  -30.2850  -20.9410   19.0370 C   0  0  0  0  0  0  0  0  0  0  0  0
  -30.0050  -18.4700   19.8400 C   0  0  0  0  0  0  0  0  0  0  0  0
  -28.6160  -21.1660   20.5120 C   0  0  0  0  0  0  0  0  0  0  0  0
  -29.8940  -22.4530   19.0440 C   0  0  0  0  0  2  0  0  0  0  0  0
  -28.9910  -22.8150   20.2500 C   0  0  2  0  0  0  0  0  0  0  0  0
  -29.8840  -23.2060   21.4450 C   0  0  0  0  0  1  0  0  0  0  0  0
  -27.6290  -20.8790   21.1940 O   0  0  0  0  0  0  0  0  0  0  0  0
  -29.6220  -16.9170   20.5330 C   0  0  0  0  0  2  0  0  0  0  0  0
  -30.4130  -15.3380   20.3520 C   0  0  0  0  0  0  0  0  0  0  0  0
  -30.4140  -12.8700   19.5260 C   0  0  0  0  0  2  0  0  0  0  0  0
  -29.5280  -12.6720   18.2700 C   0  0  0  0  0  2  0  0  0  0  0  0
  -28.0650  -12.4100   18.6700 C   0  0  0  0  0  2  0  0  0  0  0  0
  -27.5880  -13.3860   19.7720 C   0  0  0  0  0  3  0  0  0  0  0  0
  -28.6040  -13.5410   20.9220 C   0  0  0  0  0  2  0  0  0  0  0  0
  -29.8630  -14.0210   20.3340 N   0  0  0  0  0  0  0  0  0  0  0  0
  -31.6340  -15.3020   20.1350 O   0  0  0  0  0  0  0  0  0  0  0  0
  -25.1970  -13.9500   20.4540 C   0  0  0  0  0  0  0  0  0  0  0  0
  -24.1270  -13.1780   20.8110 C   0  0  0  0  0  0  0  0  0  0  0  0
  -24.5990  -11.8290   20.8220 C   0  0  0  0  0  0  0  0  0  0  0  0
  -26.2470  -13.0740   20.2550 N   0  0  0  0  0  0  0  0  0  0  0  0
  -25.8980  -11.7930   20.5470 N   0  0  0  0  0  0  0  0  0  0  0  0
  -23.8710  -10.5690   21.0190 C   0  0  0  0  0  0  0  0  0  0  0  0
  -24.2910   -9.6110   21.9680 C   0  0  0  0  0  3  0  0  0  0  0  0
  -23.5590   -8.4180   22.1540 C   0  0  0  0  0  3  0  0  0  0  0  0
  -22.3930   -8.1730   21.3910 C   0  0  0  0  0  0  0  0  0  0  0  0
  -21.9910   -9.1200   20.4310 C   0  0  0  0  0  3  0  0  0  0  0  0
  -22.7230  -10.3050   20.2440 C   0  0  0  0  0  3  0  0  0  0  0  0
  -21.6340   -7.0310   21.4850 O   0  0  0  0  0  0  0  0  0  0  0  0
  -21.5920   -6.2880   22.6370 C   0  0  0  0  0  0  0  0  0  0  0  0
  -21.1830   -6.8440   23.8690 C   0  0  0  0  0  3  0  0  0  0  0  0
  -21.0870   -6.0270   25.0130 C   0  0  0  0  0  3  0  0  0  0  0  0
  -21.3920   -4.6560   24.9270 C   0  0  0  0  0  0  0  0  0  0  0  0
  -21.7930   -4.0990   23.7000 C   0  0  0  0  0  3  0  0  0  0  0  0
  -21.8900   -4.9130   22.5580 C   0  0  0  0  0  0  0  0  0  0  0  0
  -22.2580   -4.3660   21.3740 F   0  0  0  0  0  0  0  0  0  0  0  0
  -21.2930   -3.8690   26.0240 F   0  0  0  0  0  0  0  0  0  0  0  0
  -22.7220  -13.6570   21.0290 C   0  0  0  0  0  0  0  0  0  0  0  0
  -21.9700  -12.9820   21.8910 N   0  0  0  0  0  0  0  0  0  0  0  0
  -22.2990  -14.6660   20.4670 O   0  0  0  0  0  0  0  0  0  0  0  0
  -22.3250  -12.1670   22.3680 H   0  0  0  0  0  0  0  0  0  0  0  0
  -21.0260  -13.2860   22.0790 H   0  0  0  0  0  0  0  0  0  0  0  0
  -25.3600  -15.3180   20.2540 N   0  0  0  0  0  0  0  0  0  0  0  0
  -24.5900  -15.9730   20.3420 H   0  0  0  0  0  0  0  0  0  0  0  0
  -26.2150  -15.7550   19.9350 H   0  0  0  0  0  0  0  0  0  0  0  0
  -27.9690  -24.2880   20.0240 C   0  0  0  0  0  2  0  0  0  0  0  0
  -28.2170  -25.9180   20.1250 O   0  0  0  0  0  0  0  0  0  0  0  0
  -24.6560  -31.8560   23.1430 C   0  0  0  0  0  0  0  0  0  0  0  0
  -27.2000  -27.0060   20.0820 C   0  0  0  0  0  0  0  0  0  0  0  0
  -23.4540  -30.4710   21.5010 C   0  0  0  0  0  3  0  0  0  0  0  0
  -24.8970  -28.8780   20.0610 C   0  0  0  0  0  0  0  0  0  0  0  0
  -26.0200  -30.6870   21.3430 C   0  0  0  0  0  2  0  0  0  0  0  0
  -26.0870  -29.2820   20.6770 C   0  0  0  0  0  0  0  0  0  0  0  0
  -27.2340  -28.3690   20.6600 C   0  0  0  0  0  3  0  0  0  0  0  0
  -25.9760  -26.7490   19.4230 C   0  0  0  0  0  3  0  0  0  0  0  0
  -24.8650  -27.6320   19.4130 C   0  0  0  0  0  3  0  0  0  0  0  0
  -23.6770  -29.7960   20.1200 C   0  0  0  0  0  2  0  0  0  0  0  0
  -24.7320  -31.0310   22.0500 N   0  0  0  0  0  0  0  0  0  0  0  0
  -23.5690  -32.1420   23.6720 O   0  0  0  0  0  0  0  0  0  0  0  0
  -22.7660  -29.4680   22.4640 C   0  0  0  0  0  0  0  0  0  0  0  0
  -21.4330  -29.3160   22.3540 N   0  0  0  0  0  0  0  0  0  0  0  0
  -23.4370  -28.8290   23.2770 O   0  0  0  0  0  0  0  0  0  0  0  0
  -20.9440  -29.8830   21.6750 H   0  0  0  0  0  0  0  0  0  0  0  0
  -18.0460  -28.1320   22.8960 C   0  0  0  0  0  0  0  0  0  0  0  0
  -20.6120  -28.3750   23.1240 C   0  0  0  0  0  3  0  0  0  0  0  0
  -20.6940  -26.9510   22.5290 C   0  0  0  0  0  2  0  0  0  0  0  0
  -19.5730  -26.6500   21.5270 C   0  0  0  0  0  2  0  0  0  0  0  0
  -18.2040  -26.7930   22.1950 C   0  0  0  0  0  2  0  0  0  0  0  0
  -19.1770  -28.8820   23.3190 C   0  0  0  0  0  0  0  0  0  0  0  0
  -18.9740  -30.1330   23.9390 C   0  0  0  0  0  3  0  0  0  0  0  0
  -17.6750  -30.6370   24.1390 C   0  0  0  0  0  3  0  0  0  0  0  0
  -16.5590  -29.8840   23.7300 C   0  0  0  0  0  3  0  0  0  0  0  0
  -16.7460  -28.6340   23.1150 C   0  0  0  0  0  3  0  0  0  0  0  0
  -25.9300  -32.4950   23.7750 C   0  0  0  0  0  3  0  0  0  0  0  0
  -25.6070  -33.8860   24.1390 N   0  0  0  0  0  0  0  0  0  0  0  0
  -25.9120  -34.9630   23.4040 C   0  0  0  0  0  0  0  0  0  0  0  0
  -26.5570  -34.8920   22.3550 O   0  0  0  0  0  0  0  0  0  0  0  0
  -25.0280  -34.0140   24.9560 H   0  0  0  0  0  0  0  0  0  0  0  0
  -24.1500  -36.7470   23.1580 C   0  0  0  0  0  1  0  0  0  0  0  0
  -25.4280  -36.3380   23.9100 C   0  0  0  0  0  3  0  0  0  0  0  0
  -27.5830  -37.2380   24.6730 C   0  0  0  0  0  1  0  0  0  0  0  0
  -26.4420  -37.4070   23.7760 N   0  0  0  0  0  0  0  0  0  0  0  0
  -26.0320  -38.3200   23.9540 H   0  0  0  0  0  0  0  0  0  0  0  0
  -26.4520  -31.7100   25.0430 C   0  0  1  0  0  0  0  0  0  0  0  0
  -25.3640  -31.4590   26.1130 C   0  0  0  0  0  1  0  0  0  0  0  0
  -27.0370  -30.3370   24.6410 C   0  0  0  0  0  1  0  0  0  0  0  0
  -27.6040  -32.4990   25.7090 C   0  0  0  0  0  1  0  0  0  0  0  0
  1  2  2  0
  1  3  1  0
  2  5  1  0
  3  6  2  0
  4  7  1  0
  5  8  1  0
  5  4  2  0
  6  4  1  0
  6 12  1  0
  7 11  2  0
  8  9  1  0
  9  7  1  0
  9 10  1  1
 13 12  1  0
 14 19  1  0
 15 16  1  0
 15 14  1  0
 17 16  1  0
 17 24  1  0
 17 18  1  0
 19 13  1  0
 19 18  1  0
 20 13  2  0
 21 22  2  0
 22 23  1  0
 22 41  1  0
 23 26  1  0
 24 21  1  0
 24 25  1  0
 25 23  2  0
 26 27  1  0
 27 28  2  0
 29 32  1  0
 29 28  1  0
 30 29  2  0
 31 30  1  0
 31 26  2  0
 32 33  1  0
 33 34  1  0
 34 35  2  0
 36 35  1  0
 36 40  1  0
 37 36  2  0
 38 33  2  0
 38 37  1  0
 39 38  1  0
 41 42  1  0
 42 45  1  0
 42 44  1  0
 43 41  2  0
 46 47  1  0
 46 21  1  0
 48 46  1  0
 49 50  1  0
 49  9  1  0
 51 62  2  0
 52 50  1  0
 52 57  1  0
 53 61  1  0
 53 63  1  0
 54 60  1  0
 54 56  1  0
 55 61  1  0
 56 55  1  0
 57 56  2  0
 58 52  2  0
 59 58  1  0
 59 54  2  0
 60 53  1  0
 61 51  1  0
 63 65  2  0
 64 63  1  0
 66 64  1  0
 67 76  2  0
 67 72  1  0
 68 64  1  0
 68 72  1  0
 69 68  1  0
 70 71  1  0
 70 69  1  0
 71 67  1  0
 72 73  2  0
 73 74  1  0
 75 74  2  0
 76 75  1  0
 77 51  1  0
 77 78  1  0
 77 87  1  0
 78 81  1  0
 79 83  1  0
 79 78  1  0
 80 79  2  0
 83 82  1  0
 85 83  1  0
 85 86  1  0
 85 84  1  0
 87 90  1  1
 87 88  1  0
 89 87  1  0
M  ISO  4  12 100  13 100  49 101  50 101
M  END
>  <TORSDO>  (29) 
F 18

>  <SCORE>  (29) 
-16.399

>  <name>  (29) 
28

>  <ligand_id>  (29) 
28

>  <original_smiles>  (29) 
[H]c1c([H])c([H])c2c(c1[H])C([H])([H])C([H])([H])C([H])([H])C2([H])N([H])C(=O)C1([H])N(C(=O)C([H])(N([H])C(=O)C([H])(N([H])C([H])([H])[H])C([H])([H])[H])C(C([H])([H])[H])(C([H])([H])[H])C([H])([H])[H])C([H])([H])c2c([H])c(OC([H])([H])C3(C([H])([H])[H])C(=O)c4c(C([H])([H])C(=O)N5C([H])([H])C([H])([H])C([H])([H])C([H])(n6nc(-c7c([H])c([H])c(Oc8c([H])c([H])c(F)c([H])c8F)c([H])c7[H])c(C(=O)N([H])[H])c6N([H])[H])C5([H])[H])c([H])c([H])c([H])c4C3([H])[H])c([H])c([H])c2C1([H])[H]

>  <smiles>  (29) 
[H]c1c([H])c([H])c2c(c1[H])C([H])([H])C([H])([H])C([H])([H])C2([H])N([H])C(=O)C1([H])N(C(=O)C([H])(N([H])C(=O)C([H])(N([H])C([H])([H])[H])C([H])([H])[H])C(C([H])([H])[H])(C([H])([H])[H])C([H])([H])[H])C([H])([H])c2c([H])c(OC([H])([H])C3(C([H])([H])[H])C(=O)c4c(C([H])([H])C(=O)N5C([H])([H])C([H])([H])C([H])([H])C([H])(n6nc(-c7c([H])c([H])c(Oc8c([H])c([H])c(F)c([H])c8F)c([H])c7[H])c(C(=O)N([H])[H])c6N([H])[H])C5([H])[H])c([H])c([H])c([H])c4C3([H])[H])c([H])c([H])c2C1([H])[H]

$$$$
29:0:0
     RDKit          3D

 94103  0  0  1  0  0  0  0  0999 V2000
  -27.5380  -22.4320   21.4240 C   0  0  0  0  0  3  0  0  0  0  0  0
  -28.8830  -24.0450   20.1760 C   0  0  0  0  0  3  0  0  0  0  0  0
  -28.7010  -22.6690   20.6580 C   0  0  0  0  0  0  0  0  0  0  0  0
  -26.6660  -23.4920   21.7200 C   0  0  0  0  0  0  0  0  0  0  0  0
  -26.8780  -24.8050   21.2860 C   0  0  0  0  0  0  0  0  0  0  0  0
  -27.9750  -25.1670   20.4500 C   0  0  0  0  0  0  0  0  0  0  0  0
  -25.4420  -23.3600   22.5840 C   0  0  0  0  0  2  0  0  0  0  0  0
  -25.8230  -25.7100   21.8970 C   0  0  0  0  0  2  0  0  0  0  0  0
  -25.0300  -24.8140   22.8730 C   0  0  0  0  0  2  0  0  0  0  0  0
  -29.7340  -21.4970   20.5300 C   0  0  0  0  0  0  0  0  0  0  0  0
  -29.3470  -20.1690   20.6650 N   0  0  0  0  0  0  0  0  0  0  0  0
  -30.9200  -21.7820   20.3550 O   0  0  0  0  0  0  0  0  0  0  0  0
  -28.3440  -20.0450   20.6860 H   0  0  0  0  0  0  0  0  0  0  0  0
  -30.1390  -18.9310   21.1200 C   0  0  0  0  0  2  0  0  0  0  0  0
  -30.1130  -17.5460   20.2800 C   0  0  0  0  0  2  0  0  0  0  0  0
  -30.9010  -15.0540   20.7320 C   0  0  0  0  0  0  0  0  0  0  0  0
  -30.7860  -12.7370   19.8020 C   0  0  0  0  0  2  0  0  0  0  0  0
  -29.9350  -12.7780   18.5100 C   0  0  0  0  0  2  0  0  0  0  0  0
  -28.4370  -12.6200   18.8400 C   0  0  0  0  0  2  0  0  0  0  0  0
  -27.9820  -13.5450   20.0000 C   0  0  0  0  0  3  0  0  0  0  0  0
  -28.9580  -13.4780   21.1990 C   0  0  0  0  0  2  0  0  0  0  0  0
  -30.3000  -13.8140   20.7000 N   0  0  0  0  0  0  0  0  0  0  0  0
  -32.0790  -15.1760   20.3820 O   0  0  0  0  0  0  0  0  0  0  0  0
  -30.1010  -16.1640   20.9500 N   0  0  0  0  0  0  0  0  0  0  0  0
  -29.2060  -15.9200   21.3530 H   0  0  0  0  0  0  0  0  0  0  0  0
  -25.5550  -14.1640   20.5620 C   0  0  0  0  0  0  0  0  0  0  0  0
  -24.4620  -13.4030   20.8740 C   0  0  0  0  0  0  0  0  0  0  0  0
  -24.9150  -12.0470   20.8900 C   0  0  0  0  0  0  0  0  0  0  0  0
  -26.6050  -13.2740   20.4020 N   0  0  0  0  0  0  0  0  0  0  0  0
  -26.2210  -11.9970   20.6630 N   0  0  0  0  0  0  0  0  0  0  0  0
  -24.1680  -10.7930   21.0480 C   0  0  0  0  0  0  0  0  0  0  0  0
  -24.5380   -9.8310   22.0150 C   0  0  0  0  0  3  0  0  0  0  0  0
  -23.7920   -8.6430   22.1640 C   0  0  0  0  0  3  0  0  0  0  0  0
  -22.6630   -8.4060   21.3450 C   0  0  0  0  0  0  0  0  0  0  0  0
  -22.3110   -9.3570   20.3700 C   0  0  0  0  0  3  0  0  0  0  0  0
  -23.0580  -10.5370   20.2190 C   0  0  0  0  0  3  0  0  0  0  0  0
  -21.8940   -7.2680   21.4010 O   0  0  0  0  0  0  0  0  0  0  0  0
  -21.7680   -6.5400   22.5570 C   0  0  0  0  0  0  0  0  0  0  0  0
  -21.2650   -7.1100   23.7480 C   0  0  0  0  0  3  0  0  0  0  0  0
  -21.0880   -6.3080   24.8920 C   0  0  0  0  0  3  0  0  0  0  0  0
  -21.4040   -4.9370   24.8480 C   0  0  0  0  0  0  0  0  0  0  0  0
  -21.8980   -4.3660   23.6620 C   0  0  0  0  0  3  0  0  0  0  0  0
  -22.0780   -5.1650   22.5190 C   0  0  0  0  0  0  0  0  0  0  0  0
  -22.5360   -4.6050   21.3720 F   0  0  0  0  0  0  0  0  0  0  0  0
  -21.2260   -4.1640   25.9440 F   0  0  0  0  0  0  0  0  0  0  0  0
  -23.0530  -13.8940   21.0480 C   0  0  0  0  0  0  0  0  0  0  0  0
  -22.2680  -13.2210   21.8830 N   0  0  0  0  0  0  0  0  0  0  0  0
  -22.6540  -14.9100   20.4800 O   0  0  0  0  0  0  0  0  0  0  0  0
  -22.5990  -12.4000   22.3670 H   0  0  0  0  0  0  0  0  0  0  0  0
  -21.3190  -13.5320   22.0390 H   0  0  0  0  0  0  0  0  0  0  0  0
  -25.7410  -15.5320   20.3770 N   0  0  0  0  0  0  0  0  0  0  0  0
  -24.9740  -16.1930   20.4330 H   0  0  0  0  0  0  0  0  0  0  0  0
  -26.6120  -15.9600   20.0920 H   0  0  0  0  0  0  0  0  0  0  0  0
  -28.1800  -26.5290   20.0130 O   0  0  0  0  0  0  0  0  0  0  0  0
  -24.5710  -31.9170   23.2890 C   0  0  0  0  0  0  0  0  0  0  0  0
  -27.1340  -27.4850   19.9720 C   0  0  0  0  0  0  0  0  0  0  0  0
  -23.3630  -30.6450   21.5500 C   0  0  0  0  0  3  0  0  0  0  0  0
  -24.8080  -29.1710   20.0250 C   0  0  0  0  0  0  0  0  0  0  0  0
  -25.9070  -30.9300   21.4100 C   0  0  0  0  0  2  0  0  0  0  0  0
  -25.9760  -29.5900   20.6750 C   0  0  0  0  0  0  0  0  0  0  0  0
  -27.1420  -28.7570   20.6420 C   0  0  0  0  0  3  0  0  0  0  0  0
  -25.9610  -27.1570   19.2600 C   0  0  0  0  0  3  0  0  0  0  0  0
  -24.8090  -27.9680   19.3000 C   0  0  0  0  0  3  0  0  0  0  0  0
  -23.5800  -30.0570   20.1290 C   0  0  0  0  0  2  0  0  0  0  0  0
  -24.6310  -31.1780   22.1420 N   0  0  0  0  0  0  0  0  0  0  0  0
  -23.4870  -32.1710   23.8370 O   0  0  0  0  0  0  0  0  0  0  0  0
  -22.6760  -29.5790   22.4390 C   0  0  0  0  0  0  0  0  0  0  0  0
  -21.3480  -29.4330   22.2960 N   0  0  0  0  0  0  0  0  0  0  0  0
  -23.3400  -28.8900   23.2180 O   0  0  0  0  0  0  0  0  0  0  0  0
  -20.8720  -30.0430   21.6470 H   0  0  0  0  0  0  0  0  0  0  0  0
  -17.9450  -28.2900   22.7520 C   0  0  0  0  0  0  0  0  0  0  0  0
  -20.5130  -28.4610   23.0040 C   0  0  0  0  0  3  0  0  0  0  0  0
  -20.5670  -27.0790   22.3160 C   0  0  0  0  0  2  0  0  0  0  0  0
  -19.4470  -26.8700   21.2920 C   0  0  0  0  0  2  0  0  0  0  0  0
  -18.0760  -26.9970   21.9650 C   0  0  0  0  0  2  0  0  0  0  0  0
  -19.0890  -28.9850   23.2260 C   0  0  0  0  0  0  0  0  0  0  0  0
  -18.9120  -30.1990   23.9250 C   0  0  0  0  0  3  0  0  0  0  0  0
  -17.6230  -30.7200   24.1490 C   0  0  0  0  0  3  0  0  0  0  0  0
  -16.4940  -30.0240   23.6870 C   0  0  0  0  0  3  0  0  0  0  0  0
  -16.6540  -28.8090   22.9960 C   0  0  0  0  0  3  0  0  0  0  0  0
  -25.8560  -32.4900   23.9590 C   0  0  0  0  0  3  0  0  0  0  0  0
  -26.3420  -31.6390   25.1970 C   0  0  1  0  0  0  0  0  0  0  0  0
  -25.2330  -31.3680   26.2390 C   0  0  0  0  0  1  0  0  0  0  0  0
  -26.8960  -30.2710   24.7360 C   0  0  0  0  0  1  0  0  0  0  0  0
  -27.5030  -32.3680   25.9110 C   0  0  0  0  0  1  0  0  0  0  0  0
  -25.5680  -33.8740   24.3660 N   0  0  0  0  0  0  0  0  0  0  0  0
  -25.9270  -34.9630   23.6730 C   0  0  0  0  0  0  0  0  0  0  0  0
  -26.6060  -34.9070   22.6450 O   0  0  0  0  0  0  0  0  0  0  0  0
  -24.9670  -33.9920   25.1690 H   0  0  0  0  0  0  0  0  0  0  0  0
  -24.2340  -36.8030   23.4090 C   0  0  0  0  0  1  0  0  0  0  0  0
  -25.4620  -36.3330   24.2070 C   0  0  0  0  0  3  0  0  0  0  0  0
  -27.6030  -37.1310   25.1020 C   0  0  0  0  0  1  0  0  0  0  0  0
  -26.5140  -37.3730   24.1600 N   0  0  0  0  0  0  0  0  0  0  0  0
  -26.1250  -38.2910   24.3530 H   0  0  0  0  0  0  0  0  0  0  0  0
  1  4  1  0
  2  6  2  0
  2  3  1  0
  3  1  2  0
  4  7  1  0
  5  4  2  0
  5  8  1  0
  6  5  1  0
  7  9  1  0
  8  9  1  0
 10  3  1  0
 10 11  1  0
 11 13  1  0
 11 14  1  0
 12 10  2  0
 15 24  1  0
 15 14  1  0
 16 24  1  0
 17 22  1  0
 18 19  1  0
 18 17  1  0
 20 19  1  0
 20 29  1  0
 20 21  1  0
 22 16  1  0
 22 21  1  0
 23 16  2  0
 24 25  1  0
 26 27  2  0
 27 28  1  0
 27 46  1  0
 28 31  1  0
 29 26  1  0
 29 30  1  0
 30 28  2  0
 31 32  1  0
 32 33  2  0
 34 37  1  0
 34 33  1  0
 35 34  2  0
 36 35  1  0
 36 31  2  0
 37 38  1  0
 38 39  1  0
 39 40  2  0
 41 40  1  0
 41 45  1  0
 42 41  2  0
 43 38  2  0
 43 42  1  0
 44 43  1  0
 46 47  1  0
 47 50  1  0
 47 49  1  0
 48 46  2  0
 51 52  1  0
 51 26  1  0
 53 51  1  0
 54  6  1  0
 55 66  2  0
 56 54  1  0
 56 61  1  0
 57 65  1  0
 57 67  1  0
 58 64  1  0
 58 60  1  0
 59 65  1  0
 60 59  1  0
 61 60  2  0
 62 63  1  0
 62 56  2  0
 63 58  2  0
 64 57  1  0
 65 55  1  0
 67 69  2  0
 68 67  1  0
 70 68  1  0
 71 80  2  0
 71 76  1  0
 72 68  1  0
 72 76  1  0
 73 72  1  0
 74 75  1  0
 74 73  1  0
 75 71  1  0
 76 77  2  0
 77 78  1  0
 79 78  2  0
 80 79  1  0
 81 55  1  0
 81 86  1  0
 81 82  1  0
 82 85  1  1
 82 83  1  0
 84 82  1  0
 86 89  1  0
 87 91  1  0
 87 86  1  0
 88 87  2  0
 91 90  1  0
 93 91  1  0
 93 94  1  0
 93 92  1  0
M  ISO  4   6 101  16 100  24 100  54 101
M  END
>  <TORSDO>  (30) 
F 19

>  <SCORE>  (30) 
-13.556

>  <name>  (30) 
29

>  <ligand_id>  (30) 
29

>  <original_smiles>  (30) 
[H]c1c([H])c([H])c2c(c1[H])C([H])([H])C([H])([H])C([H])([H])C2([H])N([H])C(=O)C1([H])N(C(=O)C([H])(N([H])C(=O)C([H])(N([H])C([H])([H])[H])C([H])([H])[H])C(C([H])([H])[H])(C([H])([H])[H])C([H])([H])[H])C([H])([H])c2c([H])c(Oc3c([H])c(C(=O)N([H])C([H])([H])C([H])([H])N([H])C(=O)N4C([H])([H])C([H])([H])C([H])([H])C([H])(n5nc(-c6c([H])c([H])c(Oc7c([H])c([H])c(F)c([H])c7F)c([H])c6[H])c(C(=O)N([H])[H])c5N([H])[H])C4([H])[H])c([H])c4c3C([H])([H])C([H])([H])C4([H])[H])c([H])c([H])c2C1([H])[H]

>  <smiles>  (30) 
[H]c1c([H])c([H])c2c(c1[H])C([H])([H])C([H])([H])C([H])([H])C2([H])N([H])C(=O)C1([H])N(C(=O)C([H])(N([H])C(=O)C([H])(N([H])C([H])([H])[H])C([H])([H])[H])C(C([H])([H])[H])(C([H])([H])[H])C([H])([H])[H])C([H])([H])c2c([H])c(Oc3c([H])c(C(=O)N([H])C([H])([H])C([H])([H])N([H])C(=O)N4C([H])([H])C([H])([H])C([H])([H])C([H])(n5nc(-c6c([H])c([H])c(Oc7c([H])c([H])c(F)c([H])c7F)c([H])c6[H])c(C(=O)N([H])[H])c5N([H])[H])C4([H])[H])c([H])c4c3C([H])([H])C([H])([H])C4([H])[H])c([H])c([H])c2C1([H])[H]

$$$$
30:0:0
     RDKit          3D

 92100  0  0  1  0  0  0  0  0999 V2000
  -30.1910  -21.9950   19.1140 C   0  0  0  0  0  3  0  0  0  0  0  0
  -29.0810  -23.0940   20.9790 C   0  0  0  0  0  3  0  0  0  0  0  0
  -29.5780  -24.3610   18.9630 C   0  0  0  0  0  3  0  0  0  0  0  0
  -29.6470  -21.9230   20.4180 C   0  0  0  0  0  0  0  0  0  0  0  0
  -30.1530  -23.2060   18.3870 C   0  0  0  0  0  0  0  0  0  0  0  0
  -29.0440  -24.3160   20.2670 C   0  0  0  0  0  0  0  0  0  0  0  0
  -30.7400  -23.2770   16.9920 C   0  0  0  0  0  1  0  0  0  0  0  0
  -29.7100  -20.6520   21.2330 C   0  0  0  0  0  0  0  0  0  0  0  0
  -29.6870  -19.4840   20.5660 N   0  0  0  0  0  0  0  0  0  0  0  0
  -29.7130  -20.7080   22.4650 O   0  0  0  0  0  0  0  0  0  0  0  0
  -29.6450  -19.5370   19.5590 H   0  0  0  0  0  0  0  0  0  0  0  0
  -29.5400  -18.1620   21.1880 C   0  0  0  0  0  2  0  0  0  0  0  0
  -30.3930  -17.0660   20.5100 C   0  0  0  0  0  2  0  0  0  0  0  0
  -30.1390  -15.6650   21.1240 C   0  0  0  0  0  2  0  0  0  0  0  0
  -30.7980  -14.5030   20.3440 C   0  0  0  0  0  0  0  0  0  0  0  0
  -30.4760  -12.3990   19.0920 C   0  0  0  0  0  2  0  0  0  0  0  0
  -29.5030  -12.6530   17.9220 C   0  0  0  0  0  2  0  0  0  0  0  0
  -28.0340  -12.5230   18.3770 C   0  0  0  0  0  2  0  0  0  0  0  0
  -27.7410  -13.3110   19.6820 C   0  0  0  0  0  3  0  0  0  0  0  0
  -28.8160  -13.0030   20.7470 C   0  0  0  0  0  2  0  0  0  0  0  0
  -30.1290  -13.3320   20.1720 N   0  0  0  0  0  0  0  0  0  0  0  0
  -31.8960  -14.7130   19.8150 O   0  0  0  0  0  0  0  0  0  0  0  0
  -25.3530  -13.9350   20.4210 C   0  0  0  0  0  0  0  0  0  0  0  0
  -24.2850  -13.1680   20.8030 C   0  0  0  0  0  0  0  0  0  0  0  0
  -24.7390  -11.8140   20.7650 C   0  0  0  0  0  0  0  0  0  0  0  0
  -26.3910  -13.0470   20.1780 N   0  0  0  0  0  0  0  0  0  0  0  0
  -26.0230  -11.7670   20.4400 N   0  0  0  0  0  0  0  0  0  0  0  0
  -24.0110  -10.5540   20.9640 C   0  0  0  0  0  0  0  0  0  0  0  0
  -24.4500   -9.5890   21.8960 C   0  0  0  0  0  3  0  0  0  0  0  0
  -23.7230   -8.3930   22.0850 C   0  0  0  0  0  3  0  0  0  0  0  0
  -22.5440   -8.1550   21.3400 C   0  0  0  0  0  0  0  0  0  0  0  0
  -22.1230   -9.1090   20.3970 C   0  0  0  0  0  3  0  0  0  0  0  0
  -22.8500  -10.2970   20.2070 C   0  0  0  0  0  3  0  0  0  0  0  0
  -21.7880   -7.0120   21.4370 O   0  0  0  0  0  0  0  0  0  0  0  0
  -21.7390   -6.2760   22.5930 C   0  0  0  0  0  0  0  0  0  0  0  0
  -21.3010   -6.8360   23.8130 C   0  0  0  0  0  3  0  0  0  0  0  0
  -21.2030   -6.0260   24.9630 C   0  0  0  0  0  3  0  0  0  0  0  0
  -21.5310   -4.6590   24.8920 C   0  0  0  0  0  0  0  0  0  0  0  0
  -21.9620   -4.1000   23.6760 C   0  0  0  0  0  3  0  0  0  0  0  0
  -22.0630   -4.9060   22.5290 C   0  0  0  0  0  0  0  0  0  0  0  0
  -22.4580   -4.3580   21.3560 F   0  0  0  0  0  0  0  0  0  0  0  0
  -21.4270   -3.8790   25.9940 F   0  0  0  0  0  0  0  0  0  0  0  0
  -22.8930  -13.6500   21.0940 C   0  0  0  0  0  0  0  0  0  0  0  0
  -22.1750  -12.9570   21.9700 N   0  0  0  0  0  0  0  0  0  0  0  0
  -22.4520  -14.6780   20.5810 O   0  0  0  0  0  0  0  0  0  0  0  0
  -22.5480  -12.1270   22.4080 H   0  0  0  0  0  0  0  0  0  0  0  0
  -21.2410  -13.2590   22.2050 H   0  0  0  0  0  0  0  0  0  0  0  0
  -25.5240  -15.3040   20.2400 N   0  0  0  0  0  0  0  0  0  0  0  0
  -24.7670  -15.9670   20.3600 H   0  0  0  0  0  0  0  0  0  0  0  0
  -26.3760  -15.7340   19.9020 H   0  0  0  0  0  0  0  0  0  0  0  0
  -28.4310  -25.5490   20.9290 C   0  0  0  0  0  2  0  0  0  0  0  0
  -28.5000  -26.7560   20.1550 O   0  0  0  0  0  0  0  0  0  0  0  0
  -24.6150  -31.8850   23.2260 C   0  0  0  0  0  0  0  0  0  0  0  0
  -27.3360  -27.4890   20.1590 C   0  0  0  0  0  0  0  0  0  0  0  0
  -23.4430  -30.4830   21.5600 C   0  0  0  0  0  3  0  0  0  0  0  0
  -24.9280  -28.9640   20.1470 C   0  0  0  0  0  0  0  0  0  0  0  0
  -25.9670  -30.8660   21.3960 C   0  0  0  0  0  2  0  0  0  0  0  0
  -26.0740  -29.5000   20.7500 C   0  0  0  0  0  0  0  0  0  0  0  0
  -27.2850  -28.7710   20.7480 C   0  0  0  0  0  3  0  0  0  0  0  0
  -26.1760  -26.9620   19.5540 C   0  0  0  0  0  3  0  0  0  0  0  0
  -24.9730  -27.6930   19.5460 C   0  0  0  0  0  3  0  0  0  0  0  0
  -23.6750  -29.8100   20.1810 C   0  0  0  0  0  2  0  0  0  0  0  0
  -24.6930  -31.0930   22.1200 N   0  0  0  0  0  0  0  0  0  0  0  0
  -23.5250  -32.1470   23.7520 O   0  0  0  0  0  0  0  0  0  0  0  0
  -22.7860  -29.4520   22.5060 C   0  0  0  0  0  0  0  0  0  0  0  0
  -21.4620  -29.2750   22.3700 N   0  0  0  0  0  0  0  0  0  0  0  0
  -23.4650  -28.8170   23.3170 O   0  0  0  0  0  0  0  0  0  0  0  0
  -20.9790  -29.8370   21.6850 H   0  0  0  0  0  0  0  0  0  0  0  0
  -18.0790  -28.1000   22.8490 C   0  0  0  0  0  0  0  0  0  0  0  0
  -20.6380  -28.3300   23.1240 C   0  0  0  0  0  3  0  0  0  0  0  0
  -20.7290  -26.9090   22.5210 C   0  0  0  0  0  2  0  0  0  0  0  0
  -19.6230  -26.6150   21.5030 C   0  0  0  0  0  2  0  0  0  0  0  0
  -18.2430  -26.7600   22.1510 C   0  0  0  0  0  2  0  0  0  0  0  0
  -19.2040  -28.8440   23.2930 C   0  0  0  0  0  0  0  0  0  0  0  0
  -18.9970  -30.1000   23.9040 C   0  0  0  0  0  3  0  0  0  0  0  0
  -17.6970  -30.6100   24.0780 C   0  0  0  0  0  3  0  0  0  0  0  0
  -16.5860  -29.8620   23.6540 C   0  0  0  0  0  3  0  0  0  0  0  0
  -16.7780  -28.6080   23.0440 C   0  0  0  0  0  3  0  0  0  0  0  0
  -25.8880  -32.5200   23.8670 C   0  0  0  0  0  3  0  0  0  0  0  0
  -25.5680  -33.9140   24.1980 N   0  0  0  0  0  0  0  0  0  0  0  0
  -25.9060  -34.9720   23.4480 C   0  0  0  0  0  0  0  0  0  0  0  0
  -26.5910  -34.8750   22.4260 O   0  0  0  0  0  0  0  0  0  0  0  0
  -24.9600  -34.0640   24.9910 H   0  0  0  0  0  0  0  0  0  0  0  0
  -24.1740  -36.7550   23.0680 C   0  0  0  0  0  1  0  0  0  0  0  0
  -25.4030  -36.3550   23.9010 C   0  0  0  0  0  3  0  0  0  0  0  0
  -27.5140  -37.2480   24.7780 C   0  0  0  0  0  1  0  0  0  0  0  0
  -26.4320  -37.4140   23.8120 N   0  0  0  0  0  0  0  0  0  0  0  0
  -26.0180  -38.3320   23.9530 H   0  0  0  0  0  0  0  0  0  0  0  0
  -26.3940  -31.7450   25.1450 C   0  0  1  0  0  0  0  0  0  0  0  0
  -25.2890  -31.4920   26.1970 C   0  0  0  0  0  1  0  0  0  0  0  0
  -26.9920  -30.3750   24.7480 C   0  0  0  0  0  1  0  0  0  0  0  0
  -27.5310  -32.5430   25.8260 C   0  0  0  0  0  1  0  0  0  0  0  0
  1  4  1  0
  3  6  2  0
  4  2  2  0
  4  8  1  0
  5  3  1  0
  5  1  2  0
  6 51  1  0
  6  2  1  0
  7  5  1  0
  8 10  2  0
  9 12  1  0
  9  8  1  0
 11  9  1  0
 13 14  1  0
 13 12  1  0
 15 14  1  0
 16 21  1  0
 17 18  1  0
 17 16  1  0
 19 18  1  0
 19 26  1  0
 19 20  1  0
 21 15  1  0
 21 20  1  0
 22 15  2  0
 23 24  2  0
 24 43  1  0
 25 24  1  0
 25 28  1  0
 26 23  1  0
 26 27  1  0
 27 25  2  0
 28 29  1  0
 29 30  2  0
 31 34  1  0
 31 30  1  0
 32 31  2  0
 33 32  1  0
 33 28  2  0
 34 35  1  0
 35 36  1  0
 36 37  2  0
 38 37  1  0
 38 42  1  0
 39 38  2  0
 40 35  2  0
 40 39  1  0
 41 40  1  0
 43 44  1  0
 44 47  1  0
 44 46  1  0
 45 43  2  0
 48 49  1  0
 48 23  1  0
 50 48  1  0
 52 54  1  0
 52 51  1  0
 53 64  2  0
 54 59  1  0
 55 63  1  0
 55 65  1  0
 56 62  1  0
 56 58  1  0
 57 63  1  0
 58 57  1  0
 59 58  2  0
 60 54  2  0
 61 60  1  0
 61 56  2  0
 62 55  1  0
 63 53  1  0
 65 67  2  0
 66 65  1  0
 68 66  1  0
 69 78  2  0
 69 74  1  0
 70 66  1  0
 70 74  1  0
 71 70  1  0
 72 73  1  0
 72 71  1  0
 73 69  1  0
 74 75  2  0
 75 76  1  0
 77 76  2  0
 78 77  1  0
 79 53  1  0
 79 80  1  0
 79 89  1  0
 80 83  1  0
 81 85  1  0
 81 80  1  0
 82 81  2  0
 85 84  1  0
 87 85  1  0
 87 88  1  0
 87 86  1  0
 89 92  1  1
 89 90  1  0
 91 89  1  0
M  ISO  4  14 100  15 100  51 101  52 101
M  END
>  <TORSDO>  (31) 
F 21

>  <SCORE>  (31) 
-13.240

>  <name>  (31) 
30

>  <ligand_id>  (31) 
30

>  <original_smiles>  (31) 
[H]c1c([H])c([H])c2c(c1[H])C([H])([H])C([H])([H])C([H])([H])C2([H])N([H])C(=O)C1([H])N(C(=O)C([H])(N([H])C(=O)C([H])(N([H])C([H])([H])[H])C([H])([H])[H])C(C([H])([H])[H])(C([H])([H])[H])C([H])([H])[H])C([H])([H])c2c([H])c(OC([H])([H])c3c([H])c(C(=O)N([H])C([H])([H])C([H])([H])C([H])([H])C(=O)N4C([H])([H])C([H])([H])C([H])([H])C([H])(n5nc(-c6c([H])c([H])c(Oc7c([H])c([H])c(F)c([H])c7F)c([H])c6[H])c(C(=O)N([H])[H])c5N([H])[H])C4([H])[H])c([H])c(C([H])([H])[H])c3[H])c([H])c([H])c2C1([H])[H]

>  <smiles>  (31) 
[H]c1c([H])c([H])c2c(c1[H])C([H])([H])C([H])([H])C([H])([H])C2([H])N([H])C(=O)C1([H])N(C(=O)C([H])(N([H])C(=O)C([H])(N([H])C([H])([H])[H])C([H])([H])[H])C(C([H])([H])[H])(C([H])([H])[H])C([H])([H])[H])C([H])([H])c2c([H])c(OC([H])([H])c3c([H])c(C(=O)N([H])C([H])([H])C([H])([H])C([H])([H])C(=O)N4C([H])([H])C([H])([H])C([H])([H])C([H])(n5nc(-c6c([H])c([H])c(Oc7c([H])c([H])c(F)c([H])c7F)c([H])c6[H])c(C(=O)N([H])[H])c5N([H])[H])C4([H])[H])c([H])c(C([H])([H])[H])c3[H])c([H])c([H])c2C1([H])[H]

$$$$
31:0:0
     RDKit          3D

 90 99  0  0  1  0  0  0  0  0999 V2000
  -29.9210  -22.7520   18.7350 C   0  0  0  0  0  2  0  0  0  0  0  0
  -29.4610  -18.3450   18.7330 C   0  0  0  0  0  2  0  0  0  0  0  0
  -29.6830  -24.2220   19.2910 C   0  0  0  0  0  2  0  0  0  0  0  0
  -28.0920  -23.3240   20.9170 C   0  0  0  0  0  2  0  0  0  0  0  0
  -30.2690  -21.5270   19.6940 C   0  0  0  0  0  2  0  0  0  0  0  0
  -28.6500  -19.7000   18.8460 C   0  0  0  0  0  2  0  0  0  0  0  0
  -27.9300  -21.6980   20.5090 C   0  0  0  0  0  2  0  0  0  0  0  0
  -29.4110  -19.1890   20.9530 C   0  0  0  0  0  2  0  0  0  0  0  0
  -29.9840  -17.8660   20.1160 C   0  0  0  0  0  3  0  0  0  0  0  0
  -28.2800  -24.5980   19.8820 C   0  0  0  0  0  3  0  0  0  0  0  0
  -29.0800  -20.5740   20.0690 C   0  0  2  0  0  0  0  0  0  0  0  0
  -30.5190  -15.0970   20.2510 C   0  0  0  0  0  0  0  0  0  0  0  0
  -30.4210  -12.7180   19.3320 C   0  0  0  0  0  2  0  0  0  0  0  0
  -29.4760  -12.6420   18.1090 C   0  0  0  0  0  2  0  0  0  0  0  0
  -28.0230  -12.4090   18.5620 C   0  0  0  0  0  2  0  0  0  0  0  0
  -27.6180  -13.3340   19.7380 C   0  0  0  0  0  3  0  0  0  0  0  0
  -28.6860  -13.3780   20.8510 C   0  0  0  0  0  2  0  0  0  0  0  0
  -29.9380  -13.8200   20.2230 N   0  0  0  0  0  0  0  0  0  0  0  0
  -31.7130  -15.1500   19.9360 O   0  0  0  0  0  0  0  0  0  0  0  0
  -29.7440  -16.3010   20.4230 N   0  0  0  0  0  0  0  0  0  0  0  0
  -28.7950  -16.0960   20.6970 H   0  0  0  0  0  0  0  0  0  0  0  0
  -25.2510  -13.8940   20.5220 C   0  0  0  0  0  0  0  0  0  0  0  0
  -24.1960  -13.1110   20.9010 C   0  0  0  0  0  0  0  0  0  0  0  0
  -24.6640  -11.7620   20.8500 C   0  0  0  0  0  0  0  0  0  0  0  0
  -26.2930  -13.0210   20.2560 N   0  0  0  0  0  0  0  0  0  0  0  0
  -25.9500  -11.7340   20.5200 N   0  0  0  0  0  0  0  0  0  0  0  0
  -23.9420  -10.4970   21.0380 C   0  0  0  0  0  0  0  0  0  0  0  0
  -24.3790   -9.5270   21.9670 C   0  0  0  0  0  3  0  0  0  0  0  0
  -23.6550   -8.3280   22.1440 C   0  0  0  0  0  3  0  0  0  0  0  0
  -22.4810   -8.0880   21.3910 C   0  0  0  0  0  0  0  0  0  0  0  0
  -22.0640   -9.0470   20.4500 C   0  0  0  0  0  3  0  0  0  0  0  0
  -22.7880  -10.2370   20.2720 C   0  0  0  0  0  3  0  0  0  0  0  0
  -21.7300   -6.9410   21.4760 O   0  0  0  0  0  0  0  0  0  0  0  0
  -21.6760   -6.2020   22.6300 C   0  0  0  0  0  0  0  0  0  0  0  0
  -21.2180   -6.7510   23.8470 C   0  0  0  0  0  3  0  0  0  0  0  0
  -21.1120   -5.9360   24.9920 C   0  0  0  0  0  3  0  0  0  0  0  0
  -21.4540   -4.5730   24.9200 C   0  0  0  0  0  0  0  0  0  0  0  0
  -21.9050   -4.0230   23.7080 C   0  0  0  0  0  3  0  0  0  0  0  0
  -22.0120   -4.8350   22.5650 C   0  0  0  0  0  0  0  0  0  0  0  0
  -22.4270   -4.2940   21.3940 F   0  0  0  0  0  0  0  0  0  0  0  0
  -21.3460   -3.7880   26.0190 F   0  0  0  0  0  0  0  0  0  0  0  0
  -22.8010  -13.5830   21.1940 C   0  0  0  0  0  0  0  0  0  0  0  0
  -22.0870  -12.8790   22.0650 N   0  0  0  0  0  0  0  0  0  0  0  0
  -22.3540  -14.6100   20.6860 O   0  0  0  0  0  0  0  0  0  0  0  0
  -22.4620  -12.0490   22.4980 H   0  0  0  0  0  0  0  0  0  0  0  0
  -21.1510  -13.1770   22.3040 H   0  0  0  0  0  0  0  0  0  0  0  0
  -25.4060  -15.2670   20.3550 N   0  0  0  0  0  0  0  0  0  0  0  0
  -24.6330  -15.9110   20.4780 H   0  0  0  0  0  0  0  0  0  0  0  0
  -26.2340  -15.7110   19.9790 H   0  0  0  0  0  0  0  0  0  0  0  0
  -28.2740  -26.1440   20.2570 O   0  0  0  0  0  0  0  0  0  0  0  0
  -24.6570  -31.8790   23.2350 C   0  0  0  0  0  0  0  0  0  0  0  0
  -27.2000  -27.1220   20.1780 C   0  0  0  0  0  0  0  0  0  0  0  0
  -23.4410  -30.4830   21.6080 C   0  0  0  0  0  3  0  0  0  0  0  0
  -24.8730  -28.8990   20.1650 C   0  0  0  0  0  0  0  0  0  0  0  0
  -25.9950  -30.7360   21.4190 C   0  0  0  0  0  2  0  0  0  0  0  0
  -26.0600  -29.3390   20.7640 C   0  0  0  0  0  0  0  0  0  0  0  0
  -27.2180  -28.4670   20.7500 C   0  0  0  0  0  3  0  0  0  0  0  0
  -25.9840  -26.7940   19.5390 C   0  0  0  0  0  3  0  0  0  0  0  0
  -24.8520  -27.6430   19.5360 C   0  0  0  0  0  3  0  0  0  0  0  0
  -23.6480  -29.8020   20.2270 C   0  0  0  0  0  2  0  0  0  0  0  0
  -24.7190  -31.0560   22.1420 N   0  0  0  0  0  0  0  0  0  0  0  0
  -23.5770  -32.1630   23.7750 O   0  0  0  0  0  0  0  0  0  0  0  0
  -22.7700  -29.4790   22.5790 C   0  0  0  0  0  0  0  0  0  0  0  0
  -21.4420  -29.3010   22.4600 N   0  0  0  0  0  0  0  0  0  0  0  0
  -23.4480  -28.8620   23.4060 O   0  0  0  0  0  0  0  0  0  0  0  0
  -20.9500  -29.8510   21.7700 H   0  0  0  0  0  0  0  0  0  0  0  0
  -18.0730  -28.0680   22.9740 C   0  0  0  0  0  0  0  0  0  0  0  0
  -20.6290  -28.3610   23.2390 C   0  0  0  0  0  3  0  0  0  0  0  0
  -20.7470  -26.9260   22.6770 C   0  0  0  0  0  2  0  0  0  0  0  0
  -19.6490  -26.5820   21.6650 C   0  0  0  0  0  2  0  0  0  0  0  0
  -18.2660  -26.7160   22.3080 C   0  0  0  0  0  2  0  0  0  0  0  0
  -19.1830  -28.8470   23.3980 C   0  0  0  0  0  0  0  0  0  0  0  0
  -18.9470  -30.1090   23.9830 C   0  0  0  0  0  3  0  0  0  0  0  0
  -17.6360  -30.5940   24.1480 C   0  0  0  0  0  3  0  0  0  0  0  0
  -16.5420  -29.8130   23.7410 C   0  0  0  0  0  3  0  0  0  0  0  0
  -16.7600  -28.5510   23.1600 C   0  0  0  0  0  3  0  0  0  0  0  0
  -25.9410  -32.5160   23.8500 C   0  0  0  0  0  3  0  0  0  0  0  0
  -25.6280  -33.9130   24.1940 N   0  0  0  0  0  0  0  0  0  0  0  0
  -25.9200  -34.9740   23.4300 C   0  0  0  0  0  0  0  0  0  0  0  0
  -26.5470  -34.8810   22.3720 O   0  0  0  0  0  0  0  0  0  0  0  0
  -25.0660  -34.0590   25.0200 H   0  0  0  0  0  0  0  0  0  0  0  0
  -24.1510  -36.7480   23.1810 C   0  0  0  0  0  1  0  0  0  0  0  0
  -25.4450  -36.3590   23.9150 C   0  0  0  0  0  3  0  0  0  0  0  0
  -27.6110  -37.2790   24.6170 C   0  0  0  0  0  1  0  0  0  0  0  0
  -26.4540  -37.4250   23.7380 N   0  0  0  0  0  0  0  0  0  0  0  0
  -26.0440  -38.3410   23.9020 H   0  0  0  0  0  0  0  0  0  0  0  0
  -26.4670  -31.7450   25.1230 C   0  0  1  0  0  0  0  0  0  0  0  0
  -25.3850  -31.5140   26.2050 C   0  0  0  0  0  1  0  0  0  0  0  0
  -27.0410  -30.3640   24.7330 C   0  0  0  0  0  1  0  0  0  0  0  0
  -27.6280  -32.5360   25.7720 C   0  0  0  0  0  1  0  0  0  0  0  0
  1  3  1  0
  1  5  1  0
  2  6  1  0
  2  9  1  0
  3 10  1  0
 11  5  1  6
  7  4  1  0
  9 20  1  0
  9  8  1  0
 10 50  1  0
 10  4  1  0
 11  6  1  0
 11  7  1  0
 11  8  1  0
 12 20  1  0
 13 18  1  0
 14 15  1  0
 14 13  1  0
 16 15  1  0
 16 25  1  0
 16 17  1  0
 18 12  1  0
 18 17  1  0
 19 12  2  0
 20 21  1  0
 22 23  2  0
 23 42  1  0
 24 23  1  0
 24 27  1  0
 25 26  1  0
 25 22  1  0
 26 24  2  0
 27 28  1  0
 28 29  2  0
 30 33  1  0
 30 29  1  0
 31 30  2  0
 32 31  1  0
 32 27  2  0
 33 34  1  0
 34 35  1  0
 35 36  2  0
 37 36  1  0
 37 41  1  0
 38 37  2  0
 39 34  2  0
 39 38  1  0
 40 39  1  0
 42 43  1  0
 43 46  1  0
 43 45  1  0
 44 42  2  0
 47 48  1  0
 47 22  1  0
 49 47  1  0
 51 62  2  0
 52 50  1  0
 52 57  1  0
 53 61  1  0
 53 63  1  0
 54 60  1  0
 54 56  1  0
 55 61  1  0
 56 55  1  0
 57 56  2  0
 58 52  2  0
 59 58  1  0
 59 54  2  0
 60 53  1  0
 61 51  1  0
 63 65  2  0
 64 63  1  0
 66 64  1  0
 67 76  2  0
 67 72  1  0
 68 64  1  0
 68 72  1  0
 69 68  1  0
 70 71  1  0
 70 69  1  0
 71 67  1  0
 72 73  2  0
 73 74  1  0
 75 74  2  0
 76 75  1  0
 77 51  1  0
 77 78  1  0
 77 87  1  0
 78 81  1  0
 79 83  1  0
 79 78  1  0
 80 79  2  0
 83 82  1  0
 85 86  1  0
 85 83  1  0
 85 84  1  0
 87 90  1  1
 87 88  1  0
 89 87  1  0
M  ISO  4  10 101  12 100  20 100  50 101
M  END
>  <TORSDO>  (32) 
F 16

>  <SCORE>  (32) 
-15.382

>  <name>  (32) 
31

>  <ligand_id>  (32) 
31

>  <original_smiles>  (32) 
[H]c1c([H])c([H])c2c(c1[H])C([H])([H])C([H])([H])C([H])([H])C2([H])N([H])C(=O)C1([H])N(C(=O)C([H])(N([H])C(=O)C([H])(N([H])C([H])([H])[H])C([H])([H])[H])C(C([H])([H])[H])(C([H])([H])[H])C([H])([H])[H])C([H])([H])c2c([H])c(OC3([H])C([H])([H])C([H])([H])C([H])([H])C4(C([H])([H])C3([H])[H])C([H])([H])C([H])([H])C([H])(N([H])C(=O)N3C([H])([H])C([H])([H])C([H])([H])C([H])(n5nc(-c6c([H])c([H])c(Oc7c([H])c([H])c(F)c([H])c7F)c([H])c6[H])c(C(=O)N([H])[H])c5N([H])[H])C3([H])[H])C4([H])[H])c([H])c([H])c2C1([H])[H]

>  <smiles>  (32) 
[H]c1c([H])c([H])c2c(c1[H])C([H])([H])C([H])([H])C([H])([H])C2([H])N([H])C(=O)C1([H])N(C(=O)C([H])(N([H])C(=O)C([H])(N([H])C([H])([H])[H])C([H])([H])[H])C(C([H])([H])[H])(C([H])([H])[H])C([H])([H])[H])C([H])([H])c2c([H])c(OC3([H])C([H])([H])C([H])([H])C([H])([H])C4(C([H])([H])C3([H])[H])C([H])([H])C([H])([H])C([H])(N([H])C(=O)N3C([H])([H])C([H])([H])C([H])([H])C([H])(n5nc(-c6c([H])c([H])c(Oc7c([H])c([H])c(F)c([H])c7F)c([H])c6[H])c(C(=O)N([H])[H])c5N([H])[H])C3([H])[H])C4([H])[H])c([H])c([H])c2C1([H])[H]

$$$$
32:0:0
     RDKit          3D

 90 98  0  0  1  0  0  0  0  0999 V2000
  -28.0810  -23.1010   17.4180 C   0  0  0  0  0  2  0  0  0  0  0  0
  -28.2110  -24.1860   18.2260 C   0  0  0  0  0  3  0  0  0  0  0  0
  -28.2070  -23.9540   19.6610 C   0  0  0  0  0  3  0  0  0  0  0  0
  -28.4760  -22.3450   19.8070 C   0  0  0  0  0  3  0  0  0  0  0  0
  -28.3610  -25.5190   17.5420 C   0  0  0  0  0  1  0  0  0  0  0  0
  -28.1350  -21.6200   18.2540 S   0  0  0  0  0  0  0  0  0  0  0  0
  -31.1470  -19.9910   21.5400 C   0  0  0  0  0  2  0  0  0  0  0  0
  -30.0180  -21.0360   21.6200 C   0  0  0  0  0  2  0  0  0  0  0  0
  -31.0410  -19.2540   20.2050 C   0  0  0  0  0  2  0  0  0  0  0  0
  -28.8990  -20.6920   20.6190 C   0  0  0  0  0  2  0  0  0  0  0  0
  -29.5620  -18.9090   20.0690 C   0  0  0  0  0  2  0  0  0  0  0  0
  -30.2410  -15.7510   20.3890 C   0  0  0  0  0  0  0  0  0  0  0  0
  -30.4020  -13.1680   19.6560 C   0  0  0  0  0  2  0  0  0  0  0  0
  -29.5640  -12.7110   18.4250 C   0  0  0  0  0  2  0  0  0  0  0  0
  -28.1300  -12.3470   18.8380 C   0  0  0  0  0  2  0  0  0  0  0  0
  -27.5740  -13.3580   19.8670 C   0  0  0  0  0  3  0  0  0  0  0  0
  -28.5630  -13.7260   21.0000 C   0  0  0  0  0  2  0  0  0  0  0  0
  -29.7410  -14.3650   20.3640 N   0  0  0  0  0  0  0  0  0  0  0  0
  -31.4730  -15.6790   20.2000 O   0  0  0  0  0  0  0  0  0  0  0  0
  -29.4810  -17.1360   20.4420 N   0  0  0  0  0  0  0  0  0  0  0  0
  -28.5160  -16.9140   20.6520 H   0  0  0  0  0  0  0  0  0  0  0  0
  -25.1890  -13.8680   20.5640 C   0  0  0  0  0  0  0  0  0  0  0  0
  -24.1290  -13.0800   20.9110 C   0  0  0  0  0  0  0  0  0  0  0  0
  -24.6160  -11.7360   20.9090 C   0  0  0  0  0  0  0  0  0  0  0  0
  -26.2490  -13.0060   20.3560 N   0  0  0  0  0  0  0  0  0  0  0  0
  -25.9170  -11.7170   20.6310 N   0  0  0  0  0  0  0  0  0  0  0  0
  -23.8950  -10.4680   21.0940 C   0  0  0  0  0  0  0  0  0  0  0  0
  -24.3270   -9.5000   22.0280 C   0  0  0  0  0  3  0  0  0  0  0  0
  -23.6010   -8.3020   22.2060 C   0  0  0  0  0  3  0  0  0  0  0  0
  -22.4300   -8.0630   21.4490 C   0  0  0  0  0  0  0  0  0  0  0  0
  -22.0160   -9.0190   20.5050 C   0  0  0  0  0  3  0  0  0  0  0  0
  -22.7420  -10.2080   20.3250 C   0  0  0  0  0  3  0  0  0  0  0  0
  -21.6790   -6.9150   21.5310 O   0  0  0  0  0  0  0  0  0  0  0  0
  -21.6520   -6.1540   22.6730 C   0  0  0  0  0  0  0  0  0  0  0  0
  -21.2760   -6.6960   23.9210 C   0  0  0  0  0  3  0  0  0  0  0  0
  -21.1940   -5.8620   25.0540 C   0  0  0  0  0  3  0  0  0  0  0  0
  -21.4800   -4.4880   24.9420 C   0  0  0  0  0  0  0  0  0  0  0  0
  -21.8510   -3.9470   23.6990 C   0  0  0  0  0  3  0  0  0  0  0  0
  -21.9330   -4.7770   22.5670 C   0  0  0  0  0  0  0  0  0  0  0  0
  -22.2700   -4.2450   21.3680 F   0  0  0  0  0  0  0  0  0  0  0  0
  -21.3950   -3.6870   26.0280 F   0  0  0  0  0  0  0  0  0  0  0  0
  -22.7200  -13.5460   21.1280 C   0  0  0  0  0  0  0  0  0  0  0  0
  -21.9730  -12.8610   21.9850 N   0  0  0  0  0  0  0  0  0  0  0  0
  -22.2890  -14.5560   20.5730 O   0  0  0  0  0  0  0  0  0  0  0  0
  -22.3330  -12.0460   22.4590 H   0  0  0  0  0  0  0  0  0  0  0  0
  -21.0270  -13.1600   22.1740 H   0  0  0  0  0  0  0  0  0  0  0  0
  -25.3370  -15.2400   20.3750 N   0  0  0  0  0  0  0  0  0  0  0  0
  -24.5560  -15.8820   20.4660 H   0  0  0  0  0  0  0  0  0  0  0  0
  -26.1800  -15.6860   20.0380 H   0  0  0  0  0  0  0  0  0  0  0  0
  -28.0940  -25.3930   20.3340 O   0  0  0  0  0  0  0  0  0  0  0  0
  -24.6120  -31.8210   23.1140 C   0  0  0  0  0  0  0  0  0  0  0  0
  -27.1640  -26.6610   20.1920 C   0  0  0  0  0  0  0  0  0  0  0  0
  -23.4330  -30.3870   21.5020 C   0  0  0  0  0  3  0  0  0  0  0  0
  -24.8920  -28.7230   20.1090 C   0  0  0  0  0  0  0  0  0  0  0  0
  -26.0140  -30.5250   21.3850 C   0  0  0  0  0  2  0  0  0  0  0  0
  -26.0850  -29.0790   20.7470 C   0  0  0  0  0  0  0  0  0  0  0  0
  -27.1980  -28.0730   20.7660 C   0  0  0  0  0  3  0  0  0  0  0  0
  -25.9310  -26.5350   19.4970 C   0  0  0  0  0  3  0  0  0  0  0  0
  -24.8570  -27.4770   19.4610 C   0  0  0  0  0  3  0  0  0  0  0  0
  -23.6810  -29.6720   20.1410 C   0  0  0  0  0  2  0  0  0  0  0  0
  -24.7100  -30.9480   22.0520 N   0  0  0  0  0  0  0  0  0  0  0  0
  -23.5160  -32.1240   23.6170 O   0  0  0  0  0  0  0  0  0  0  0  0
  -22.7210  -29.4240   22.4920 C   0  0  0  0  0  0  0  0  0  0  0  0
  -21.3860  -29.2750   22.3890 N   0  0  0  0  0  0  0  0  0  0  0  0
  -23.3840  -28.8070   23.3290 O   0  0  0  0  0  0  0  0  0  0  0  0
  -20.8980  -29.8260   21.6960 H   0  0  0  0  0  0  0  0  0  0  0  0
  -18.0040  -28.0680   22.9560 C   0  0  0  0  0  0  0  0  0  0  0  0
  -20.5680  -28.3480   23.1820 C   0  0  0  0  0  3  0  0  0  0  0  0
  -20.6630  -26.9060   22.6270 C   0  0  0  0  0  2  0  0  0  0  0  0
  -19.5510  -26.5690   21.6280 C   0  0  0  0  0  2  0  0  0  0  0  0
  -18.1770  -26.7140   22.2880 C   0  0  0  0  0  2  0  0  0  0  0  0
  -19.1250  -28.8410   23.3620 C   0  0  0  0  0  0  0  0  0  0  0  0
  -18.9030  -30.1050   23.9550 C   0  0  0  0  0  3  0  0  0  0  0  0
  -17.5940  -30.5950   24.1380 C   0  0  0  0  0  3  0  0  0  0  0  0
  -16.4910  -29.8190   23.7430 C   0  0  0  0  0  3  0  0  0  0  0  0
  -16.6970  -28.5570   23.1600 C   0  0  0  0  0  3  0  0  0  0  0  0
  -25.8680  -32.4970   23.7440 C   0  0  0  0  0  3  0  0  0  0  0  0
  -25.5170  -33.8860   24.1020 N   0  0  0  0  0  0  0  0  0  0  0  0
  -25.8180  -34.9730   23.3770 C   0  0  0  0  0  0  0  0  0  0  0  0
  -26.4750  -34.9100   22.3350 O   0  0  0  0  0  0  0  0  0  0  0  0
  -24.9250  -34.0050   24.9110 H   0  0  0  0  0  0  0  0  0  0  0  0
  -24.0490  -36.7480   23.1110 C   0  0  0  0  0  1  0  0  0  0  0  0
  -25.3150  -36.3430   23.8820 C   0  0  0  0  0  3  0  0  0  0  0  0
  -27.4530  -37.2550   24.6830 C   0  0  0  0  0  1  0  0  0  0  0  0
  -26.3250  -37.4210   23.7710 N   0  0  0  0  0  0  0  0  0  0  0  0
  -25.9040  -38.3290   23.9480 H   0  0  0  0  0  0  0  0  0  0  0  0
  -26.4030  -31.7380   25.0230 C   0  0  1  0  0  0  0  0  0  0  0  0
  -25.3190  -31.4840   26.0980 C   0  0  0  0  0  1  0  0  0  0  0  0
  -27.0030  -30.3670   24.6450 C   0  0  0  0  0  1  0  0  0  0  0  0
  -27.5480  -32.5520   25.6750 C   0  0  0  0  0  1  0  0  0  0  0  0
  1  2  1  0
  1  6  1  0
  2  5  1  0
  2  3  1  0
  3  4  1  0
  3 50  1  0
  4 10  1  0
  6  4  1  0
  7  8  1  0
  9  7  1  0
 10  8  1  0
 11  9  1  0
 11 20  1  0
 12 20  1  0
 13 18  1  0
 14 15  1  0
 14 13  1  0
 16 15  1  0
 16 25  1  0
 16 17  1  0
 18 12  1  0
 18 17  1  0
 19 12  2  0
 20 21  1  0
 22 23  2  0
 23 42  1  0
 24 23  1  0
 24 27  1  0
 25 22  1  0
 25 26  1  0
 26 24  2  0
 27 28  1  0
 28 29  2  0
 30 33  1  0
 30 29  1  0
 31 30  2  0
 32 31  1  0
 32 27  2  0
 33 34  1  0
 34 35  1  0
 35 36  2  0
 37 36  1  0
 37 41  1  0
 38 37  2  0
 39 34  2  0
 39 38  1  0
 40 39  1  0
 42 43  1  0
 43 46  1  0
 43 45  1  0
 44 42  2  0
 47 48  1  0
 47 22  1  0
 49 47  1  0
 51 62  2  0
 52 50  1  0
 52 57  1  0
 53 61  1  0
 53 63  1  0
 54 60  1  0
 54 56  1  0
 55 61  1  0
 56 57  2  0
 56 55  1  0
 58 52  2  0
 59 58  1  0
 59 54  2  0
 60 53  1  0
 61 51  1  0
 63 65  2  0
 64 63  1  0
 66 64  1  0
 67 76  2  0
 67 72  1  0
 68 64  1  0
 68 72  1  0
 69 68  1  0
 70 71  1  0
 70 69  1  0
 71 67  1  0
 72 73  2  0
 73 74  1  0
 75 74  2  0
 76 75  1  0
 77 51  1  0
 77 78  1  0
 77 87  1  0
 78 81  1  0
 79 83  1  0
 79 78  1  0
 80 79  2  0
 83 82  1  0
 85 83  1  0
 85 86  1  0
 85 84  1  0
 87 90  1  1
 87 88  1  0
 89 87  1  0
M  ISO  4   3 101  12 100  20 100  50 101
M  END
>  <TORSDO>  (33) 
F 17

>  <SCORE>  (33) 
-15.815

>  <name>  (33) 
32

>  <ligand_id>  (33) 
32

>  <original_smiles>  (33) 
[H]c1sc(C2([H])C([H])([H])C([H])([H])C([H])([H])C2([H])N([H])C(=O)N2C([H])([H])C([H])([H])C([H])([H])C([H])(n3nc(-c4c([H])c([H])c(Oc5c([H])c([H])c(F)c([H])c5F)c([H])c4[H])c(C(=O)N([H])[H])c3N([H])[H])C2([H])[H])c(Oc2c([H])c([H])c3c(c2[H])C([H])([H])N(C(=O)C([H])(N([H])C(=O)C([H])(N([H])C([H])([H])[H])C([H])([H])[H])C(C([H])([H])[H])(C([H])([H])[H])C([H])([H])[H])C([H])(C(=O)N([H])C2([H])c4c([H])c([H])c([H])c([H])c4C([H])([H])C([H])([H])C2([H])[H])C3([H])[H])c1C([H])([H])[H]

>  <smiles>  (33) 
[H]c1sc(C2([H])C([H])([H])C([H])([H])C([H])([H])C2([H])N([H])C(=O)N2C([H])([H])C([H])([H])C([H])([H])C([H])(n3nc(-c4c([H])c([H])c(Oc5c([H])c([H])c(F)c([H])c5F)c([H])c4[H])c(C(=O)N([H])[H])c3N([H])[H])C2([H])[H])c(Oc2c([H])c([H])c3c(c2[H])C([H])([H])N(C(=O)C([H])(N([H])C(=O)C([H])(N([H])C([H])([H])[H])C([H])([H])[H])C(C([H])([H])[H])(C([H])([H])[H])C([H])([H])[H])C([H])(C(=O)N([H])C2([H])c4c([H])c([H])c([H])c([H])c4C([H])([H])C([H])([H])C2([H])[H])C3([H])[H])c1C([H])([H])[H]

$$$$
33:0:0
     RDKit          3D

 94102  0  0  1  0  0  0  0  0999 V2000
  -29.6180  -23.4390   17.7930 C   0  0  0  0  0  3  0  0  0  0  0  0
  -28.6970  -24.2580   19.8940 C   0  0  0  0  0  3  0  0  0  0  0  0
  -29.1640  -25.8200   18.0810 C   0  0  0  0  0  3  0  0  0  0  0  0
  -29.1700  -23.1660   19.1110 C   0  0  0  0  0  0  0  0  0  0  0  0
  -29.6110  -24.7540   17.2750 C   0  0  0  0  0  0  0  0  0  0  0  0
  -28.7050  -25.5910   19.3910 C   0  0  0  0  0  0  0  0  0  0  0  0
  -29.1500  -21.7320   19.6230 C   0  0  0  0  0  0  0  0  0  0  0  0
  -30.2580  -21.0050   19.3660 N   0  0  0  0  0  0  0  0  0  0  0  0
  -28.1630  -21.2870   20.2150 O   0  0  0  0  0  0  0  0  0  0  0  0
  -31.0070  -21.5550   18.9640 H   0  0  0  0  0  0  0  0  0  0  0  0
  -30.4820  -19.5430   19.2640 C   0  0  0  0  0  2  0  0  0  0  0  0
  -30.0450  -18.5650   20.4020 C   0  0  0  0  0  2  0  0  0  0  0  0
  -30.6120  -17.1220   20.1320 C   0  0  0  0  0  2  0  0  0  0  0  0
  -30.0430  -15.8760   20.9110 C   0  0  0  0  0  2  0  0  0  0  0  0
  -30.6960  -14.5340   20.4510 C   0  0  0  0  0  0  0  0  0  0  0  0
  -30.3540  -12.3480   19.3610 C   0  0  0  0  0  2  0  0  0  0  0  0
  -29.4280  -12.5400   18.1420 C   0  0  0  0  0  2  0  0  0  0  0  0
  -27.9490  -12.4130   18.5580 C   0  0  0  0  0  2  0  0  0  0  0  0
  -27.6020  -13.2750   19.8030 C   0  0  0  0  0  3  0  0  0  0  0  0
  -28.6590  -13.1090   20.9200 C   0  0  0  0  0  2  0  0  0  0  0  0
  -29.9890  -13.3700   20.3560 N   0  0  0  0  0  0  0  0  0  0  0  0
  -31.8520  -14.6100   20.0270 O   0  0  0  0  0  0  0  0  0  0  0  0
  -25.2090  -13.8980   20.5030 C   0  0  0  0  0  0  0  0  0  0  0  0
  -24.1320  -13.1330   20.8730 C   0  0  0  0  0  0  0  0  0  0  0  0
  -24.5850  -11.7780   20.8580 C   0  0  0  0  0  0  0  0  0  0  0  0
  -26.2490  -13.0060   20.2860 N   0  0  0  0  0  0  0  0  0  0  0  0
  -25.8760  -11.7270   20.5550 N   0  0  0  0  0  0  0  0  0  0  0  0
  -23.8510  -10.5200   21.0540 C   0  0  0  0  0  0  0  0  0  0  0  0
  -24.2820   -9.5480   21.9840 C   0  0  0  0  0  3  0  0  0  0  0  0
  -23.5450   -8.3580   22.1660 C   0  0  0  0  0  3  0  0  0  0  0  0
  -22.3650   -8.1310   21.4180 C   0  0  0  0  0  0  0  0  0  0  0  0
  -21.9560   -9.0910   20.4780 C   0  0  0  0  0  3  0  0  0  0  0  0
  -22.6920  -10.2730   20.2930 C   0  0  0  0  0  3  0  0  0  0  0  0
  -21.6040   -6.9890   21.5050 O   0  0  0  0  0  0  0  0  0  0  0  0
  -21.5690   -6.2350   22.6500 C   0  0  0  0  0  0  0  0  0  0  0  0
  -21.1820   -6.7870   23.8920 C   0  0  0  0  0  3  0  0  0  0  0  0
  -21.0920   -5.9610   25.0330 C   0  0  0  0  0  3  0  0  0  0  0  0
  -21.3770   -4.5860   24.9300 C   0  0  0  0  0  0  0  0  0  0  0  0
  -21.7570   -4.0350   23.6940 C   0  0  0  0  0  3  0  0  0  0  0  0
  -21.8470   -4.8570   22.5570 C   0  0  0  0  0  0  0  0  0  0  0  0
  -22.1920   -4.3170   21.3640 F   0  0  0  0  0  0  0  0  0  0  0  0
  -21.2860   -3.7930   26.0230 F   0  0  0  0  0  0  0  0  0  0  0  0
  -22.7350  -13.6230   21.1270 C   0  0  0  0  0  0  0  0  0  0  0  0
  -21.9920  -12.9440   21.9970 N   0  0  0  0  0  0  0  0  0  0  0  0
  -22.3060  -14.6420   20.5890 O   0  0  0  0  0  0  0  0  0  0  0  0
  -22.3440  -12.1190   22.4570 H   0  0  0  0  0  0  0  0  0  0  0  0
  -21.0550  -13.2580   22.2020 H   0  0  0  0  0  0  0  0  0  0  0  0
  -25.3890  -15.2660   20.3130 N   0  0  0  0  0  0  0  0  0  0  0  0
  -24.6420  -15.9430   20.4200 H   0  0  0  0  0  0  0  0  0  0  0  0
  -26.2580  -15.6860   20.0070 H   0  0  0  0  0  0  0  0  0  0  0  0
  -30.0920  -25.0340   15.8580 C   0  0  0  0  0  3  0  0  0  0  0  0
  -31.2400  -25.7130   15.8820 F   0  0  0  0  0  0  0  0  0  0  0  0
  -29.1820  -25.7490   15.1980 F   0  0  0  0  0  0  0  0  0  0  0  0
  -28.4150  -26.6780   20.1970 O   0  0  0  0  0  0  0  0  0  0  0  0
  -24.6250  -31.8720   23.2320 C   0  0  0  0  0  0  0  0  0  0  0  0
  -27.2430  -27.4100   20.1200 C   0  0  0  0  0  0  0  0  0  0  0  0
  -23.3990  -30.4700   21.5980 C   0  0  0  0  0  3  0  0  0  0  0  0
  -24.8390  -28.9220   20.1560 C   0  0  0  0  0  0  0  0  0  0  0  0
  -25.9240  -30.8200   21.3760 C   0  0  0  0  0  2  0  0  0  0  0  0
  -26.0010  -29.4460   20.7340 C   0  0  0  0  0  0  0  0  0  0  0  0
  -27.1980  -28.6960   20.7160 C   0  0  0  0  0  3  0  0  0  0  0  0
  -26.0610  -26.9000   19.5370 C   0  0  0  0  0  3  0  0  0  0  0  0
  -24.8650  -27.6470   19.5540 C   0  0  0  0  0  3  0  0  0  0  0  0
  -23.5940  -29.7800   20.2180 C   0  0  0  0  0  2  0  0  0  0  0  0
  -24.6680  -31.0710   22.1270 N   0  0  0  0  0  0  0  0  0  0  0  0
  -23.5490  -32.1450   23.7850 O   0  0  0  0  0  0  0  0  0  0  0  0
  -22.7540  -29.4560   22.5690 C   0  0  0  0  0  0  0  0  0  0  0  0
  -21.4280  -29.2750   22.4560 N   0  0  0  0  0  0  0  0  0  0  0  0
  -23.4430  -28.8340   23.3810 O   0  0  0  0  0  0  0  0  0  0  0  0
  -20.9310  -29.8340   21.7770 H   0  0  0  0  0  0  0  0  0  0  0  0
  -18.0620  -28.0660   22.9680 C   0  0  0  0  0  0  0  0  0  0  0  0
  -20.6190  -28.3380   23.2340 C   0  0  0  0  0  3  0  0  0  0  0  0
  -20.7260  -26.9030   22.6670 C   0  0  0  0  0  2  0  0  0  0  0  0
  -19.6230  -26.5670   21.6570 C   0  0  0  0  0  2  0  0  0  0  0  0
  -18.2430  -26.7130   22.3030 C   0  0  0  0  0  2  0  0  0  0  0  0
  -19.1790  -28.8360   23.3920 C   0  0  0  0  0  0  0  0  0  0  0  0
  -18.9560  -30.1030   23.9720 C   0  0  0  0  0  3  0  0  0  0  0  0
  -17.6510  -30.6010   24.1370 C   0  0  0  0  0  3  0  0  0  0  0  0
  -16.5490  -29.8280   23.7310 C   0  0  0  0  0  3  0  0  0  0  0  0
  -16.7550  -28.5630   23.1510 C   0  0  0  0  0  3  0  0  0  0  0  0
  -25.9180  -32.5030   23.8390 C   0  0  0  0  0  3  0  0  0  0  0  0
  -25.6140  -33.9010   24.1760 N   0  0  0  0  0  0  0  0  0  0  0  0
  -25.9420  -34.9560   23.4180 C   0  0  0  0  0  0  0  0  0  0  0  0
  -26.6030  -34.8550   22.3800 O   0  0  0  0  0  0  0  0  0  0  0  0
  -25.0290  -34.0520   24.9840 H   0  0  0  0  0  0  0  0  0  0  0  0
  -24.2120  -36.7500   23.0860 C   0  0  0  0  0  1  0  0  0  0  0  0
  -25.4620  -36.3430   23.8850 C   0  0  0  0  0  3  0  0  0  0  0  0
  -27.6050  -37.2180   24.6970 C   0  0  0  0  0  1  0  0  0  0  0  0
  -26.4940  -37.3960   23.7670 N   0  0  0  0  0  0  0  0  0  0  0  0
  -26.0910  -38.3150   23.9280 H   0  0  0  0  0  0  0  0  0  0  0  0
  -26.4530  -31.7310   25.1060 C   0  0  1  0  0  0  0  0  0  0  0  0
  -25.3770  -31.4930   26.1900 C   0  0  0  0  0  1  0  0  0  0  0  0
  -27.0300  -30.3560   24.7000 C   0  0  0  0  0  1  0  0  0  0  0  0
  -27.6140  -32.5200   25.7520 C   0  0  0  0  0  1  0  0  0  0  0  0
  1  4  1  0
  3  6  2  0
  4  7  1  0
  4  2  2  0
  5  1  2  0
  5  3  1  0
  6  2  1  0
  6 54  1  0
  7  9  2  0
  8  7  1  0
 10  8  1  0
 11  8  1  0
 11 12  1  0
 13 12  1  0
 13 14  1  0
 15 14  1  0
 16 21  1  0
 17 18  1  0
 17 16  1  0
 19 18  1  0
 19 26  1  0
 19 20  1  0
 21 15  1  0
 21 20  1  0
 22 15  2  0
 23 24  2  0
 24 43  1  0
 25 24  1  0
 25 28  1  0
 26 23  1  0
 26 27  1  0
 27 25  2  0
 28 29  1  0
 29 30  2  0
 31 34  1  0
 31 30  1  0
 32 31  2  0
 33 32  1  0
 33 28  2  0
 34 35  1  0
 35 36  1  0
 36 37  2  0
 38 37  1  0
 38 42  1  0
 39 38  2  0
 40 35  2  0
 40 39  1  0
 41 40  1  0
 43 44  1  0
 44 47  1  0
 44 46  1  0
 45 43  2  0
 48 49  1  0
 48 23  1  0
 50 48  1  0
 51 52  1  0
 51  5  1  0
 53 51  1  0
 55 66  2  0
 56 54  1  0
 56 61  1  0
 57 65  1  0
 57 67  1  0
 58 64  1  0
 58 60  1  0
 59 65  1  0
 60 59  1  0
 61 60  2  0
 62 63  1  0
 62 56  2  0
 63 58  2  0
 64 57  1  0
 65 55  1  0
 67 69  2  0
 68 67  1  0
 70 68  1  0
 71 80  2  0
 71 76  1  0
 72 68  1  0
 72 76  1  0
 73 72  1  0
 74 75  1  0
 74 73  1  0
 75 71  1  0
 76 77  2  0
 77 78  1  0
 79 78  2  0
 80 79  1  0
 81 55  1  0
 81 82  1  0
 81 91  1  0
 82 85  1  0
 83 87  1  0
 83 82  1  0
 84 83  2  0
 87 86  1  0
 89 87  1  0
 89 90  1  0
 89 88  1  0
 91 94  1  1
 91 92  1  0
 93 91  1  0
M  ISO  4   6 101  14 100  15 100  54 101
M  END
>  <TORSDO>  (34) 
F 22

>  <SCORE>  (34) 
-13.007

>  <name>  (34) 
33

>  <ligand_id>  (34) 
33

>  <original_smiles>  (34) 
[H]c1c([H])c([H])c2c(c1[H])C([H])([H])C([H])([H])C([H])([H])C2([H])N([H])C(=O)C1([H])N(C(=O)C([H])(N([H])C(=O)C([H])(N([H])C([H])([H])[H])C([H])([H])[H])C(C([H])([H])[H])(C([H])([H])[H])C([H])([H])[H])C([H])([H])c2c([H])c(Oc3c([H])c(C(=O)N([H])C([H])([H])C([H])([H])C([H])([H])C([H])([H])C(=O)N4C([H])([H])C([H])([H])C([H])([H])C([H])(n5nc(-c6c([H])c([H])c(Oc7c([H])c([H])c(F)c([H])c7F)c([H])c6[H])c(C(=O)N([H])[H])c5N([H])[H])C4([H])[H])c([H])c(C([H])(F)F)c3[H])c([H])c([H])c2C1([H])[H]

>  <smiles>  (34) 
[H]c1c([H])c([H])c2c(c1[H])C([H])([H])C([H])([H])C([H])([H])C2([H])N([H])C(=O)C1([H])N(C(=O)C([H])(N([H])C(=O)C([H])(N([H])C([H])([H])[H])C([H])([H])[H])C(C([H])([H])[H])(C([H])([H])[H])C([H])([H])[H])C([H])([H])c2c([H])c(Oc3c([H])c(C(=O)N([H])C([H])([H])C([H])([H])C([H])([H])C([H])([H])C(=O)N4C([H])([H])C([H])([H])C([H])([H])C([H])(n5nc(-c6c([H])c([H])c(Oc7c([H])c([H])c(F)c([H])c7F)c([H])c6[H])c(C(=O)N([H])[H])c5N([H])[H])C4([H])[H])c([H])c(C([H])(F)F)c3[H])c([H])c([H])c2C1([H])[H]

$$$$
34:0:0
     RDKit          3D

 91 99  0  0  1  0  0  0  0  0999 V2000
  -28.6870  -22.3460   19.9470 N   0  0  0  0  0  4  0  0  0  0  0  0
  -27.7590  -22.1570   20.2960 H   0  0  0  0  0  0  0  0  0  0  0  0
  -28.6120  -22.3430   18.9410 H   0  0  0  0  0  0  0  0  0  0  0  0
  -30.0490  -19.2720   21.8570 C   0  0  0  0  0  2  0  0  0  0  0  0
  -29.5170  -20.7300   21.7950 C   0  0  0  0  0  2  0  0  0  0  0  0
  -29.2730  -19.7380   19.6220 C   0  0  0  0  0  2  0  0  0  0  0  0
  -29.5040  -18.5110   20.6230 C   0  0  0  0  0  3  0  0  0  0  0  0
  -29.5710  -21.1430   20.3160 C   0  0  0  0  0  3  0  0  0  0  0  0
  -30.7630  -14.8050   19.9920 C   0  0  0  0  0  0  0  0  0  0  0  0
  -30.4260  -12.5740   18.9350 C   0  0  0  0  0  2  0  0  0  0  0  0
  -29.4190  -12.7160   17.7740 C   0  0  0  0  0  2  0  0  0  0  0  0
  -27.9770  -12.5520   18.2920 C   0  0  0  0  0  2  0  0  0  0  0  0
  -27.6970  -13.3990   19.5630 C   0  0  0  0  0  3  0  0  0  0  0  0
  -28.8260  -13.2650   20.6090 C   0  0  0  0  0  2  0  0  0  0  0  0
  -30.0890  -13.6050   19.9440 N   0  0  0  0  0  0  0  0  0  0  0  0
  -31.9290  -14.8410   19.5880 O   0  0  0  0  0  0  0  0  0  0  0  0
  -30.4390  -17.2910   20.1800 C   0  0  0  0  0  0  0  0  0  0  0  0
  -30.0540  -15.9600   20.3050 N   0  0  0  0  0  0  0  0  0  0  0  0
  -31.5370  -17.6150   19.7190 O   0  0  0  0  0  0  0  0  0  0  0  0
  -29.1180  -15.8120   20.6400 H   0  0  0  0  0  0  0  0  0  0  0  0
  -25.3690  -13.9840   20.4620 C   0  0  0  0  0  0  0  0  0  0  0  0
  -24.3210  -13.2080   20.8760 C   0  0  0  0  0  0  0  0  0  0  0  0
  -24.7680  -11.8530   20.7720 C   0  0  0  0  0  0  0  0  0  0  0  0
  -26.3850  -13.1050   20.1310 N   0  0  0  0  0  0  0  0  0  0  0  0
  -26.0360  -11.8160   20.3800 N   0  0  0  0  0  0  0  0  0  0  0  0
  -24.0420  -10.5920   20.9680 C   0  0  0  0  0  0  0  0  0  0  0  0
  -24.4940   -9.6120   21.8790 C   0  0  0  0  0  3  0  0  0  0  0  0
  -23.7670   -8.4150   22.0620 C   0  0  0  0  0  3  0  0  0  0  0  0
  -22.5730   -8.1910   21.3370 C   0  0  0  0  0  0  0  0  0  0  0  0
  -22.1390   -9.1610   20.4150 C   0  0  0  0  0  3  0  0  0  0  0  0
  -22.8670  -10.3480   20.2290 C   0  0  0  0  0  3  0  0  0  0  0  0
  -21.8150   -7.0490   21.4320 O   0  0  0  0  0  0  0  0  0  0  0  0
  -21.7530   -6.3220   22.5940 C   0  0  0  0  0  0  0  0  0  0  0  0
  -21.3100   -6.8920   23.8070 C   0  0  0  0  0  3  0  0  0  0  0  0
  -21.1940   -6.0910   24.9620 C   0  0  0  0  0  3  0  0  0  0  0  0
  -21.5110   -4.7200   24.9020 C   0  0  0  0  0  0  0  0  0  0  0  0
  -21.9480   -4.1510   23.6930 C   0  0  0  0  0  3  0  0  0  0  0  0
  -22.0650   -4.9490   22.5420 C   0  0  0  0  0  0  0  0  0  0  0  0
  -22.4650   -4.3890   21.3750 F   0  0  0  0  0  0  0  0  0  0  0  0
  -21.3940   -3.9500   26.0070 F   0  0  0  0  0  0  0  0  0  0  0  0
  -22.9480  -13.6870   21.2490 C   0  0  0  0  0  0  0  0  0  0  0  0
  -22.2730  -12.9760   22.1450 N   0  0  0  0  0  0  0  0  0  0  0  0
  -22.4870  -14.7270   20.7820 O   0  0  0  0  0  0  0  0  0  0  0  0
  -22.6600  -12.1330   22.5440 H   0  0  0  0  0  0  0  0  0  0  0  0
  -21.3540  -13.2780   22.4350 H   0  0  0  0  0  0  0  0  0  0  0  0
  -25.5330  -15.3580   20.3160 N   0  0  0  0  0  0  0  0  0  0  0  0
  -24.7740  -16.0090   20.4850 H   0  0  0  0  0  0  0  0  0  0  0  0
  -26.3440  -15.7990   19.9010 H   0  0  0  0  0  0  0  0  0  0  0  0
  -29.0730  -23.7850   20.3430 C   0  0  0  0  0  3  0  0  0  0  0  0
  -28.0480  -24.9580   19.9170 C   0  0  0  0  0  3  0  0  0  0  0  0
  -28.2870  -26.4200   20.1740 O   0  0  0  0  0  0  0  0  0  0  0  0
  -24.5770  -31.8710   23.1960 C   0  0  0  0  0  0  0  0  0  0  0  0
  -27.1870  -27.3070   20.1070 C   0  0  0  0  0  0  0  0  0  0  0  0
  -23.3710  -30.4670   21.5650 C   0  0  0  0  0  3  0  0  0  0  0  0
  -24.8190  -28.9340   20.1180 C   0  0  0  0  0  0  0  0  0  0  0  0
  -25.9100  -30.7950   21.3640 C   0  0  0  0  0  2  0  0  0  0  0  0
  -25.9930  -29.4180   20.7100 C   0  0  0  0  0  0  0  0  0  0  0  0
  -27.1790  -28.6170   20.6960 C   0  0  0  0  0  3  0  0  0  0  0  0
  -25.9890  -26.9000   19.4730 C   0  0  0  0  0  3  0  0  0  0  0  0
  -24.8220  -27.6830   19.4880 C   0  0  0  0  0  3  0  0  0  0  0  0
  -23.5790  -29.8020   20.1800 C   0  0  0  0  0  2  0  0  0  0  0  0
  -24.6390  -31.0630   22.0970 N   0  0  0  0  0  0  0  0  0  0  0  0
  -23.4950  -32.1390   23.7390 O   0  0  0  0  0  0  0  0  0  0  0  0
  -22.7250  -29.4410   22.5280 C   0  0  0  0  0  0  0  0  0  0  0  0
  -21.4040  -29.2320   22.3950 N   0  0  0  0  0  0  0  0  0  0  0  0
  -23.4120  -28.8370   23.3560 O   0  0  0  0  0  0  0  0  0  0  0  0
  -20.9070  -29.7740   21.7010 H   0  0  0  0  0  0  0  0  0  0  0  0
  -18.0570  -27.9350   22.8600 C   0  0  0  0  0  0  0  0  0  0  0  0
  -20.6010  -28.2830   23.1680 C   0  0  0  0  0  3  0  0  0  0  0  0
  -20.7580  -26.8450   22.6220 C   0  0  0  0  0  2  0  0  0  0  0  0
  -19.6850  -26.4680   21.5940 C   0  0  0  0  0  2  0  0  0  0  0  0
  -18.2890  -26.5810   22.2120 C   0  0  0  0  0  2  0  0  0  0  0  0
  -19.1430  -28.7410   23.2950 C   0  0  0  0  0  0  0  0  0  0  0  0
  -18.8730  -30.0070   23.8600 C   0  0  0  0  0  3  0  0  0  0  0  0
  -17.5500  -30.4670   23.9940 C   0  0  0  0  0  3  0  0  0  0  0  0
  -16.4790  -29.6600   23.5750 C   0  0  0  0  0  3  0  0  0  0  0  0
  -16.7330  -28.3960   23.0140 C   0  0  0  0  0  3  0  0  0  0  0  0
  -25.8580  -32.5140   23.8080 C   0  0  0  0  0  3  0  0  0  0  0  0
  -26.3890  -31.7500   25.0830 C   0  0  1  0  0  0  0  0  0  0  0  0
  -25.3050  -31.5080   26.1600 C   0  0  0  0  0  1  0  0  0  0  0  0
  -26.9790  -30.3750   24.6920 C   0  0  0  0  0  1  0  0  0  0  0  0
  -27.5390  -32.5550   25.7350 C   0  0  0  0  0  1  0  0  0  0  0  0
  -25.5400  -33.9100   24.1390 N   0  0  0  0  0  0  0  0  0  0  0  0
  -25.8450  -34.9650   23.3710 C   0  0  0  0  0  0  0  0  0  0  0  0
  -26.4950  -34.8650   22.3270 O   0  0  0  0  0  0  0  0  0  0  0  0
  -24.9610  -34.0620   24.9530 H   0  0  0  0  0  0  0  0  0  0  0  0
  -24.0850  -36.7350   23.0560 C   0  0  0  0  0  1  0  0  0  0  0  0
  -25.3530  -36.3510   23.8350 C   0  0  0  0  0  3  0  0  0  0  0  0
  -27.4970  -37.2670   24.6050 C   0  0  0  0  0  1  0  0  0  0  0  0
  -26.3680  -37.4150   23.6890 N   0  0  0  0  0  0  0  0  0  0  0  0
  -25.9550  -38.3320   23.8410 H   0  0  0  0  0  0  0  0  0  0  0  0
  1  2  1  0
  1 49  1  0
  3  1  1  0
  5  4  1  0
  6  8  1  0
  6  7  1  0
  7 17  1  0
  7  4  1  0
  8  1  1  0
  8  5  1  0
  9 18  1  0
 10 15  1  0
 11 12  1  0
 11 10  1  0
 13 12  1  0
 13 24  1  0
 13 14  1  0
 15  9  1  0
 15 14  1  0
 16  9  2  0
 17 18  1  0
 18 20  1  0
 19 17  2  0
 21 22  2  0
 22 41  1  0
 23 22  1  0
 23 26  1  0
 24 25  1  0
 24 21  1  0
 25 23  2  0
 26 27  1  0
 27 28  2  0
 29 32  1  0
 29 28  1  0
 30 29  2  0
 31 30  1  0
 31 26  2  0
 32 33  1  0
 33 34  1  0
 34 35  2  0
 36 35  1  0
 36 40  1  0
 37 36  2  0
 38 33  2  0
 38 37  1  0
 39 38  1  0
 41 42  1  0
 42 45  1  0
 42 44  1  0
 43 41  2  0
 46 21  1  0
 46 47  1  0
 48 46  1  0
 50 51  1  0
 50 49  2  0
 52 63  2  0
 53 51  1  0
 53 58  1  0
 54 62  1  0
 54 64  1  0
 55 61  1  0
 55 57  1  0
 56 62  1  0
 57 56  1  0
 58 57  2  0
 59 60  1  0
 59 53  2  0
 60 55  2  0
 61 54  1  0
 62 52  1  0
 64 66  2  0
 65 64  1  0
 67 65  1  0
 68 77  2  0
 68 73  1  0
 69 65  1  0
 69 73  1  0
 70 69  1  0
 71 72  1  0
 71 70  1  0
 72 68  1  0
 73 74  2  0
 74 75  1  0
 76 75  2  0
 77 76  1  0
 78 52  1  0
 78 83  1  0
 78 79  1  0
 79 82  1  1
 79 80  1  0
 81 79  1  0
 83 86  1  0
 84 88  1  0
 84 83  1  0
 85 84  2  0
 88 87  1  0
 90 88  1  0
 90 91  1  0
 90 89  1  0
M  ISO  4   9 100  18 100  50 101  51 101
M  END
>  <TORSDO>  (35) 
F 19

>  <SCORE>  (35) 
-13.490

>  <name>  (35) 
34

>  <ligand_id>  (35) 
34

>  <original_smiles>  (35) 
[H]c1c([H])c([H])c2c(c1[H])C([H])([H])C([H])([H])C([H])([H])C2([H])N([H])C(=O)C1([H])N(C(=O)C([H])(N([H])C(=O)C([H])(N([H])C([H])([H])[H])C([H])([H])[H])C(C([H])([H])[H])(C([H])([H])[H])C([H])([H])[H])C([H])([H])c2c([H])c(OC([H])([H])C([H])([H])[N+]([H])([H])C3([H])C([H])([H])C([H])([H])C([H])(C(=O)N([H])C(=O)N4C([H])([H])C([H])([H])C([H])([H])C([H])(n5nc(-c6c([H])c([H])c(Oc7c([H])c([H])c(F)c([H])c7F)c([H])c6[H])c(C(=O)N([H])[H])c5N([H])[H])C4([H])[H])C3([H])[H])c([H])c([H])c2C1([H])[H]

>  <smiles>  (35) 
[H]c1c([H])c([H])c2c(c1[H])C([H])([H])C([H])([H])C([H])([H])C2([H])N([H])C(=O)C1([H])N(C(=O)C([H])(N([H])C(=O)C([H])(N([H])C([H])([H])[H])C([H])([H])[H])C(C([H])([H])[H])(C([H])([H])[H])C([H])([H])[H])C([H])([H])c2c([H])c(OC([H])([H])C([H])([H])[N+]([H])([H])C3([H])C([H])([H])C([H])([H])C([H])(C(=O)N([H])C(=O)N4C([H])([H])C([H])([H])C([H])([H])C([H])(n5nc(-c6c([H])c([H])c(Oc7c([H])c([H])c(F)c([H])c7F)c([H])c6[H])c(C(=O)N([H])[H])c5N([H])[H])C4([H])[H])C3([H])[H])c([H])c([H])c2C1([H])[H]

$$$$
35:0:0
     RDKit          3D

 91 99  0  0  1  0  0  0  0  0999 V2000
  -29.9600  -20.1540   21.8000 C   0  0  0  0  0  3  0  0  0  0  0  0
  -28.8990  -21.1820   19.8970 C   0  0  0  0  0  3  0  0  0  0  0  0
  -29.4150  -22.6280   21.7530 C   0  0  0  0  0  3  0  0  0  0  0  0
  -29.4670  -19.8540   20.5110 C   0  0  0  0  0  0  0  0  0  0  0  0
  -29.9540  -21.4630   22.3760 C   0  0  0  0  0  0  0  0  0  0  0  0
  -28.8130  -22.6400   20.4760 C   0  0  0  0  0  0  0  0  0  0  0  0
  -30.5790  -21.6370   23.7470 C   0  0  0  0  0  1  0  0  0  0  0  0
  -30.4910  -15.5790   20.1800 C   0  0  0  0  0  0  0  0  0  0  0  0
  -30.5280  -13.0760   19.4030 C   0  0  0  0  0  2  0  0  0  0  0  0
  -29.6350  -12.8110   18.1600 C   0  0  0  0  0  2  0  0  0  0  0  0
  -28.1930  -12.5010   18.5850 C   0  0  0  0  0  2  0  0  0  0  0  0
  -27.7080  -13.4680   19.6920 C   0  0  0  0  0  3  0  0  0  0  0  0
  -28.7380  -13.6890   20.8260 C   0  0  0  0  0  2  0  0  0  0  0  0
  -29.9610  -14.2370   20.2090 N   0  0  0  0  0  0  0  0  0  0  0  0
  -31.6810  -15.5540   19.8300 O   0  0  0  0  0  0  0  0  0  0  0  0
  -29.8490  -18.2960   19.9020 C   0  0  0  0  0  0  0  0  0  0  0  0
  -29.7770  -16.8870   20.4330 N   0  0  0  0  0  0  0  0  0  0  0  0
  -30.3110  -18.3800   18.7600 O   0  0  0  0  0  0  0  0  0  0  0  0
  -29.0540  -16.7930   21.1280 H   0  0  0  0  0  0  0  0  0  0  0  0
  -25.3270  -13.9770   20.4310 C   0  0  0  0  0  0  0  0  0  0  0  0
  -24.2780  -13.1830   20.8010 C   0  0  0  0  0  0  0  0  0  0  0  0
  -24.7690  -11.8410   20.7790 C   0  0  0  0  0  0  0  0  0  0  0  0
  -26.3850  -13.1210   20.1960 N   0  0  0  0  0  0  0  0  0  0  0  0
  -26.0640  -11.8300   20.4730 N   0  0  0  0  0  0  0  0  0  0  0  0
  -24.0620  -10.5670   20.9740 C   0  0  0  0  0  0  0  0  0  0  0  0
  -24.4920   -9.6200   21.9290 C   0  0  0  0  0  3  0  0  0  0  0  0
  -23.7810   -8.4150   22.1150 C   0  0  0  0  0  3  0  0  0  0  0  0
  -22.6250   -8.1470   21.3430 C   0  0  0  0  0  0  0  0  0  0  0  0
  -22.2120   -9.0830   20.3780 C   0  0  0  0  0  3  0  0  0  0  0  0
  -22.9250  -10.2790   20.1910 C   0  0  0  0  0  3  0  0  0  0  0  0
  -21.8860   -6.9920   21.4350 O   0  0  0  0  0  0  0  0  0  0  0  0
  -21.8150   -6.2730   22.6020 C   0  0  0  0  0  0  0  0  0  0  0  0
  -21.3080   -6.8360   23.7930 C   0  0  0  0  0  3  0  0  0  0  0  0
  -21.1900   -6.0420   24.9520 C   0  0  0  0  0  3  0  0  0  0  0  0
  -21.5660   -4.6850   24.9180 C   0  0  0  0  0  0  0  0  0  0  0  0
  -22.0660   -4.1220   23.7310 C   0  0  0  0  0  3  0  0  0  0  0  0
  -22.1860   -4.9140   22.5750 C   0  0  0  0  0  0  0  0  0  0  0  0
  -22.6490   -4.3610   21.4270 F   0  0  0  0  0  0  0  0  0  0  0  0
  -21.4460   -3.9210   26.0290 F   0  0  0  0  0  0  0  0  0  0  0  0
  -22.8720  -13.6370   21.0580 C   0  0  0  0  0  0  0  0  0  0  0  0
  -22.1510  -12.9370   21.9250 N   0  0  0  0  0  0  0  0  0  0  0  0
  -22.4230  -14.6520   20.5260 O   0  0  0  0  0  0  0  0  0  0  0  0
  -22.5310  -12.1190   22.3800 H   0  0  0  0  0  0  0  0  0  0  0  0
  -21.2070  -13.2220   22.1410 H   0  0  0  0  0  0  0  0  0  0  0  0
  -25.4640  -15.3490   20.2440 N   0  0  0  0  0  0  0  0  0  0  0  0
  -24.6820  -15.9870   20.3430 H   0  0  0  0  0  0  0  0  0  0  0  0
  -26.3000  -15.7980   19.8900 H   0  0  0  0  0  0  0  0  0  0  0  0
  -27.9560  -24.1520   20.0200 C   0  0  0  0  0  3  0  0  0  0  0  0
  -26.1960  -24.1240   21.9260 C   0  0  0  0  0  1  0  0  0  0  0  0
  -26.5040  -23.8230   20.4520 C   0  0  0  0  0  2  0  0  0  0  0  0
  -28.1730  -25.8150   20.3360 O   0  0  0  0  0  0  0  0  0  0  0  0
  -24.5980  -31.9160   23.2120 C   0  0  0  0  0  0  0  0  0  0  0  0
  -27.2130  -26.9930   20.2050 C   0  0  0  0  0  0  0  0  0  0  0  0
  -23.4400  -30.5210   21.5470 C   0  0  0  0  0  3  0  0  0  0  0  0
  -24.9240  -28.9330   20.1270 C   0  0  0  0  0  0  0  0  0  0  0  0
  -26.0120  -30.7200   21.4570 C   0  0  0  0  0  2  0  0  0  0  0  0
  -26.0970  -29.3080   20.7920 C   0  0  0  0  0  0  0  0  0  0  0  0
  -27.2260  -28.3560   20.8180 C   0  0  0  0  0  3  0  0  0  0  0  0
  -26.0430  -26.8410   19.4200 C   0  0  0  0  0  3  0  0  0  0  0  0
  -24.9310  -27.7250   19.4140 C   0  0  0  0  0  3  0  0  0  0  0  0
  -23.6990  -29.8500   20.1680 C   0  0  0  0  0  2  0  0  0  0  0  0
  -24.7040  -31.0820   22.1250 N   0  0  0  0  0  0  0  0  0  0  0  0
  -23.4970  -32.1970   23.7160 O   0  0  0  0  0  0  0  0  0  0  0  0
  -22.7330  -29.5180   22.4980 C   0  0  0  0  0  0  0  0  0  0  0  0
  -21.4030  -29.3590   22.3650 N   0  0  0  0  0  0  0  0  0  0  0  0
  -23.3920  -28.8840   23.3260 O   0  0  0  0  0  0  0  0  0  0  0  0
  -20.9240  -29.9230   21.6770 H   0  0  0  0  0  0  0  0  0  0  0  0
  -18.0100  -28.1700   22.8770 C   0  0  0  0  0  0  0  0  0  0  0  0
  -20.5750  -28.4110   23.1210 C   0  0  0  0  0  3  0  0  0  0  0  0
  -20.6590  -26.9910   22.5140 C   0  0  0  0  0  2  0  0  0  0  0  0
  -19.5450  -26.7010   21.5030 C   0  0  0  0  0  2  0  0  0  0  0  0
  -18.1710  -26.8390   22.1620 C   0  0  0  0  0  2  0  0  0  0  0  0
  -19.1390  -28.9150   23.3130 C   0  0  0  0  0  0  0  0  0  0  0  0
  -18.9300  -30.1600   23.9470 C   0  0  0  0  0  3  0  0  0  0  0  0
  -17.6290  -30.6600   24.1440 C   0  0  0  0  0  3  0  0  0  0  0  0
  -16.5170  -29.9110   23.7220 C   0  0  0  0  0  3  0  0  0  0  0  0
  -16.7080  -28.6680   23.0940 C   0  0  0  0  0  3  0  0  0  0  0  0
  -25.8520  -32.5670   23.8690 C   0  0  0  0  0  3  0  0  0  0  0  0
  -25.5260  -33.9720   24.1800 N   0  0  0  0  0  0  0  0  0  0  0  0
  -25.8710  -35.0260   23.4290 C   0  0  0  0  0  0  0  0  0  0  0  0
  -26.5560  -34.9200   22.4090 O   0  0  0  0  0  0  0  0  0  0  0  0
  -24.9170  -34.1280   24.9690 H   0  0  0  0  0  0  0  0  0  0  0  0
  -24.1520  -36.8300   23.0510 C   0  0  0  0  0  1  0  0  0  0  0  0
  -25.3810  -36.4200   23.8790 C   0  0  0  0  0  3  0  0  0  0  0  0
  -27.4990  -37.3140   24.7440 C   0  0  0  0  0  1  0  0  0  0  0  0
  -26.4160  -37.4720   23.7760 N   0  0  0  0  0  0  0  0  0  0  0  0
  -26.0090  -38.3940   23.9040 H   0  0  0  0  0  0  0  0  0  0  0  0
  -26.3220  -31.8200   25.1790 C   0  0  1  0  0  0  0  0  0  0  0  0
  -25.1930  -31.6060   26.2140 C   0  0  0  0  0  1  0  0  0  0  0  0
  -26.9160  -30.4340   24.8450 C   0  0  0  0  0  1  0  0  0  0  0  0
  -27.4520  -32.6260   25.8630 C   0  0  0  0  0  1  0  0  0  0  0  0
  1  5  1  0
  2  6  2  0
  2  4  1  0
  3  5  2  0
  4  1  2  0
  5  7  1  0
  6  3  1  0
  8 14  1  0
  8 17  1  0
  9 14  1  0
 10 11  1  0
 10  9  1  0
 12 11  1  0
 12 23  1  0
 12 13  1  0
 14 13  1  0
 15  8  2  0
 16 17  1  0
 16  4  1  0
 17 19  1  0
 18 16  2  0
 20 21  2  0
 21 40  1  0
 22 21  1  0
 22 25  1  0
 23 20  1  0
 23 24  1  0
 24 22  2  0
 25 26  1  0
 26 27  2  0
 28 31  1  0
 28 27  1  0
 29 28  2  0
 30 29  1  0
 30 25  2  0
 31 32  1  0
 32 33  1  0
 33 34  2  0
 35 34  1  0
 35 39  1  0
 36 35  2  0
 37 32  2  0
 37 36  1  0
 38 37  1  0
 40 41  1  0
 41 44  1  0
 41 43  1  0
 42 40  2  0
 45 46  1  0
 45 20  1  0
 47 45  1  0
 48 51  1  0
 48 50  1  0
 48  6  1  0
 50 49  1  0
 52 63  2  0
 53 51  1  0
 53 58  1  0
 54 62  1  0
 54 64  1  0
 55 61  1  0
 55 57  1  0
 56 62  1  0
 57 58  2  0
 57 56  1  0
 59 53  2  0
 60 59  1  0
 60 55  2  0
 61 54  1  0
 62 52  1  0
 64 66  2  0
 65 64  1  0
 67 65  1  0
 68 77  2  0
 68 73  1  0
 69 65  1  0
 69 73  1  0
 70 69  1  0
 71 72  1  0
 71 70  1  0
 72 68  1  0
 73 74  2  0
 74 75  1  0
 76 75  2  0
 77 76  1  0
 78 52  1  0
 78 79  1  0
 78 88  1  0
 79 82  1  0
 80 84  1  0
 80 79  1  0
 81 80  2  0
 84 83  1  0
 86 84  1  0
 86 87  1  0
 86 85  1  0
 88 91  1  1
 88 89  1  0
 90 88  1  0
M  ISO  4   8 100  17 100  48 101  51 101
M  END
>  <TORSDO>  (36) 
F 18

>  <SCORE>  (36) 
-16.758

>  <name>  (36) 
35

>  <ligand_id>  (36) 
35

>  <original_smiles>  (36) 
[H]c1c([H])c([H])c2c(c1[H])C([H])([H])C([H])([H])C([H])([H])C2([H])N([H])C(=O)C1([H])N(C(=O)C([H])(N([H])C(=O)C([H])(N([H])C([H])([H])[H])C([H])([H])[H])C(C([H])([H])[H])(C([H])([H])[H])C([H])([H])[H])C([H])([H])c2c([H])c(OC([H])(c3c([H])c(C(=O)N([H])C(=O)N4C([H])([H])C([H])([H])C([H])([H])C([H])(n5nc(-c6c([H])c([H])c(Oc7c([H])c([H])c(F)c([H])c7F)c([H])c6[H])c(C(=O)N([H])[H])c5N([H])[H])C4([H])[H])c([H])c(C([H])([H])[H])c3[H])C([H])([H])C([H])([H])[H])c([H])c([H])c2C1([H])[H]

>  <smiles>  (36) 
[H]c1c([H])c([H])c2c(c1[H])C([H])([H])C([H])([H])C([H])([H])C2([H])N([H])C(=O)C1([H])N(C(=O)C([H])(N([H])C(=O)C([H])(N([H])C([H])([H])[H])C([H])([H])[H])C(C([H])([H])[H])(C([H])([H])[H])C([H])([H])[H])C([H])([H])c2c([H])c(OC([H])(c3c([H])c(C(=O)N([H])C(=O)N4C([H])([H])C([H])([H])C([H])([H])C([H])(n5nc(-c6c([H])c([H])c(Oc7c([H])c([H])c(F)c([H])c7F)c([H])c6[H])c(C(=O)N([H])[H])c5N([H])[H])C4([H])[H])c([H])c(C([H])([H])[H])c3[H])C([H])([H])C([H])([H])[H])c([H])c([H])c2C1([H])[H]

$$$$
36:0:0
     RDKit          3D

 94104  0  0  1  0  0  0  0  0999 V2000
  -26.7840  -23.5680   21.8990 C   0  0  0  0  0  3  0  0  0  0  0  0
  -27.1540  -24.8720   21.4620 C   0  0  0  0  0  3  0  0  0  0  0  0
  -28.9070  -23.9800   19.9500 C   0  0  0  0  0  3  0  0  0  0  0  0
  -27.4990  -22.5030   21.3480 C   0  0  0  0  0  0  0  0  0  0  0  0
  -28.5720  -22.6480   20.4180 C   0  0  0  0  0  0  0  0  0  0  0  0
  -28.1680  -25.1430   20.4760 C   0  0  0  0  0  0  0  0  0  0  0  0
  -29.3950  -17.9630   18.7340 C   0  0  0  0  0  0  0  0  0  0  0  0
  -27.5230  -20.9960   21.3270 C   0  0  0  0  0  2  0  0  0  0  0  0
  -28.1890  -18.9420   18.8260 C   0  0  0  0  0  2  0  0  0  0  0  0
  -28.4800  -20.4830   18.8750 C   0  0  0  0  0  2  0  0  0  0  0  0
  -29.9410  -18.7180   21.1010 C   0  0  0  0  0  2  0  0  0  0  0  0
  -30.0410  -20.3050   20.8010 C   0  0  0  0  0  2  0  0  0  0  0  0
  -30.2810  -17.6350   19.9740 C   0  0  0  0  0  3  0  0  0  0  0  0
  -28.7500  -21.0540   20.2840 C   0  0  1  0  0  0  0  0  0  0  0  0
  -29.6070  -17.4080   17.6520 O   0  0  0  0  0  0  0  0  0  0  0  0
  -30.9380  -15.0510   20.0990 C   0  0  0  0  0  0  0  0  0  0  0  0
  -30.7610  -12.7690   19.0890 C   0  0  0  0  0  2  0  0  0  0  0  0
  -29.7750  -12.8470   17.9010 C   0  0  0  0  0  2  0  0  0  0  0  0
  -28.3230  -12.6510   18.3830 C   0  0  0  0  0  2  0  0  0  0  0  0
  -27.9860  -13.5140   19.6290 C   0  0  0  0  0  3  0  0  0  0  0  0
  -29.0880  -13.4140   20.7060 C   0  0  0  0  0  2  0  0  0  0  0  0
  -30.3550  -13.8020   20.0720 N   0  0  0  0  0  0  0  0  0  0  0  0
  -32.0990  -15.1890   19.7010 O   0  0  0  0  0  0  0  0  0  0  0  0
  -30.1300  -16.1510   20.3660 N   0  0  0  0  0  0  0  0  0  0  0  0
  -29.2080  -15.8980   20.6830 H   0  0  0  0  0  0  0  0  0  0  0  0
  -25.6330  -14.0690   20.4900 C   0  0  0  0  0  0  0  0  0  0  0  0
  -24.5870  -13.2790   20.8830 C   0  0  0  0  0  0  0  0  0  0  0  0
  -25.0490  -11.9320   20.7760 C   0  0  0  0  0  0  0  0  0  0  0  0
  -26.6660  -13.2030   20.1700 N   0  0  0  0  0  0  0  0  0  0  0  0
  -26.3240  -11.9100   20.4050 N   0  0  0  0  0  0  0  0  0  0  0  0
  -24.3310  -10.6620   20.9490 C   0  0  0  0  0  0  0  0  0  0  0  0
  -24.7480   -9.7000   21.8960 C   0  0  0  0  0  3  0  0  0  0  0  0
  -24.0270   -8.4960   22.0580 C   0  0  0  0  0  3  0  0  0  0  0  0
  -22.8790   -8.2450   21.2710 C   0  0  0  0  0  0  0  0  0  0  0  0
  -22.4830   -9.1950   20.3150 C   0  0  0  0  0  3  0  0  0  0  0  0
  -23.2020  -10.3900   20.1500 C   0  0  0  0  0  3  0  0  0  0  0  0
  -22.1330   -7.0910   21.3410 O   0  0  0  0  0  0  0  0  0  0  0  0
  -21.9570   -6.4200   22.5240 C   0  0  0  0  0  0  0  0  0  0  0  0
  -21.3690   -7.0370   23.6500 C   0  0  0  0  0  3  0  0  0  0  0  0
  -21.1420   -6.2900   24.8230 C   0  0  0  0  0  3  0  0  0  0  0  0
  -21.4920   -4.9270   24.8690 C   0  0  0  0  0  0  0  0  0  0  0  0
  -22.0710   -4.3100   23.7470 C   0  0  0  0  0  3  0  0  0  0  0  0
  -22.3000   -5.0530   22.5760 C   0  0  0  0  0  0  0  0  0  0  0  0
  -22.8400   -4.4490   21.4900 F   0  0  0  0  0  0  0  0  0  0  0  0
  -21.2650   -4.2060   25.9920 F   0  0  0  0  0  0  0  0  0  0  0  0
  -23.2040  -13.7420   21.2360 C   0  0  0  0  0  0  0  0  0  0  0  0
  -22.5240  -13.0220   22.1210 N   0  0  0  0  0  0  0  0  0  0  0  0
  -22.7380  -14.7780   20.7630 O   0  0  0  0  0  0  0  0  0  0  0  0
  -22.9180  -12.1880   22.5290 H   0  0  0  0  0  0  0  0  0  0  0  0
  -21.5940  -13.3100   22.3940 H   0  0  0  0  0  0  0  0  0  0  0  0
  -25.7840  -15.4470   20.3520 N   0  0  0  0  0  0  0  0  0  0  0  0
  -25.0030  -16.0780   20.4960 H   0  0  0  0  0  0  0  0  0  0  0  0
  -26.5800  -15.9000   19.9260 H   0  0  0  0  0  0  0  0  0  0  0  0
  -28.3890  -26.5200   20.0990 O   0  0  0  0  0  0  0  0  0  0  0  0
  -24.7140  -31.9630   23.2610 C   0  0  0  0  0  0  0  0  0  0  0  0
  -27.3270  -27.4590   20.0800 C   0  0  0  0  0  0  0  0  0  0  0  0
  -23.5190  -30.6070   21.5840 C   0  0  0  0  0  3  0  0  0  0  0  0
  -24.9750  -29.1100   20.1030 C   0  0  0  0  0  0  0  0  0  0  0  0
  -26.0580  -30.9360   21.4080 C   0  0  0  0  0  2  0  0  0  0  0  0
  -26.1460  -29.5700   20.7240 C   0  0  0  0  0  0  0  0  0  0  0  0
  -27.3250  -28.7540   20.7050 C   0  0  0  0  0  3  0  0  0  0  0  0
  -26.1410  -27.0800   19.4160 C   0  0  0  0  0  3  0  0  0  0  0  0
  -24.9790  -27.8730   19.4400 C   0  0  0  0  0  3  0  0  0  0  0  0
  -23.7380  -29.9850   20.1820 C   0  0  0  0  0  2  0  0  0  0  0  0
  -24.7830  -31.1860   22.1410 N   0  0  0  0  0  0  0  0  0  0  0  0
  -23.6290  -32.2150   23.8060 O   0  0  0  0  0  0  0  0  0  0  0  0
  -22.8640  -29.5560   22.5160 C   0  0  0  0  0  0  0  0  0  0  0  0
  -21.5410  -29.3590   22.3770 N   0  0  0  0  0  0  0  0  0  0  0  0
  -23.5490  -28.9230   23.3250 O   0  0  0  0  0  0  0  0  0  0  0  0
  -21.0450  -29.9310   21.7050 H   0  0  0  0  0  0  0  0  0  0  0  0
  -18.1750  -28.1060   22.8500 C   0  0  0  0  0  0  0  0  0  0  0  0
  -20.7320  -28.3890   23.1200 C   0  0  0  0  0  3  0  0  0  0  0  0
  -20.8480  -26.9760   22.5040 C   0  0  0  0  0  2  0  0  0  0  0  0
  -19.7460  -26.6720   21.4830 C   0  0  0  0  0  2  0  0  0  0  0  0
  -18.3650  -26.7810   22.1340 C   0  0  0  0  0  2  0  0  0  0  0  0
  -19.2860  -28.8690   23.3010 C   0  0  0  0  0  0  0  0  0  0  0  0
  -19.0530  -30.1090   23.9330 C   0  0  0  0  0  3  0  0  0  0  0  0
  -17.7410  -30.5890   24.1140 C   0  0  0  0  0  3  0  0  0  0  0  0
  -16.6450  -29.8240   23.6770 C   0  0  0  0  0  3  0  0  0  0  0  0
  -16.8640  -28.5830   23.0520 C   0  0  0  0  0  3  0  0  0  0  0  0
  -25.9890  -32.5910   23.8970 C   0  0  0  0  0  3  0  0  0  0  0  0
  -25.6840  -33.9930   24.2180 N   0  0  0  0  0  0  0  0  0  0  0  0
  -26.0240  -35.0410   23.4550 C   0  0  0  0  0  0  0  0  0  0  0  0
  -26.6940  -34.9300   22.4240 O   0  0  0  0  0  0  0  0  0  0  0  0
  -25.0850  -34.1530   25.0130 H   0  0  0  0  0  0  0  0  0  0  0  0
  -24.2980  -36.8380   23.1020 C   0  0  0  0  0  1  0  0  0  0  0  0
  -25.5450  -36.4360   23.9050 C   0  0  0  0  0  3  0  0  0  0  0  0
  -27.6860  -37.3220   24.7180 C   0  0  0  0  0  1  0  0  0  0  0  0
  -26.5820  -37.4850   23.7780 N   0  0  0  0  0  0  0  0  0  0  0  0
  -26.1800  -38.4090   23.9200 H   0  0  0  0  0  0  0  0  0  0  0  0
  -26.4810  -31.8230   25.1870 C   0  0  1  0  0  0  0  0  0  0  0  0
  -25.3660  -31.5830   26.2320 C   0  0  0  0  0  1  0  0  0  0  0  0
  -27.0710  -30.4450   24.8090 C   0  0  0  0  0  1  0  0  0  0  0  0
  -27.6170  -32.6190   25.8710 C   0  0  0  0  0  1  0  0  0  0  0  0
  2  1  1  0
  3  5  2  0
  3  6  1  0
  4  1  2  0
  5  4  1  0
  6  2  2  0
  7  9  1  0
  7 13  1  0
  8  4  1  0
  9 10  1  0
 12 11  1  0
 13 24  1  0
 13 11  1  0
 14 10  1  6
 14  5  1  0
 14 12  1  0
 14  8  1  0
 15  7  2  0
 16 24  1  0
 17 22  1  0
 18 19  1  0
 18 17  1  0
 20 19  1  0
 20 29  1  0
 20 21  1  0
 22 16  1  0
 22 21  1  0
 23 16  2  0
 24 25  1  0
 26 27  2  0
 27 46  1  0
 28 27  1  0
 28 31  1  0
 29 30  1  0
 29 26  1  0
 30 28  2  0
 31 32  1  0
 32 33  2  0
 34 37  1  0
 34 33  1  0
 35 34  2  0
 36 35  1  0
 36 31  2  0
 37 38  1  0
 38 43  2  0
 38 39  1  0
 39 40  2  0
 40 41  1  0
 41 45  1  0
 42 41  2  0
 43 42  1  0
 44 43  1  0
 46 47  1  0
 47 50  1  0
 47 49  1  0
 48 46  2  0
 51 26  1  0
 51 52  1  0
 53 51  1  0
 54  6  1  0
 55 66  2  0
 56 54  1  0
 56 61  1  0
 57 65  1  0
 57 67  1  0
 58 64  1  0
 58 60  1  0
 59 65  1  0
 60 59  1  0
 61 60  2  0
 62 63  1  0
 62 56  2  0
 63 58  2  0
 64 57  1  0
 65 55  1  0
 67 69  2  0
 68 67  1  0
 70 68  1  0
 71 80  2  0
 71 76  1  0
 72 68  1  0
 72 76  1  0
 73 72  1  0
 74 75  1  0
 74 73  1  0
 75 71  1  0
 76 77  2  0
 77 78  1  0
 79 78  2  0
 80 79  1  0
 81 55  1  0
 81 82  1  0
 81 91  1  0
 82 85  1  0
 83 87  1  0
 83 82  1  0
 84 83  2  0
 87 86  1  0
 89 87  1  0
 89 90  1  0
 89 88  1  0
 91 94  1  1
 91 92  1  0
 93 91  1  0
M  ISO  4   6 101  16 100  24 100  54 101
M  END
>  <TORSDO>  (37) 
F 16

>  <SCORE>  (37) 
-14.051

>  <name>  (37) 
36

>  <ligand_id>  (37) 
36

>  <original_smiles>  (37) 
[H]c1c([H])c([H])c2c(c1[H])C([H])([H])C([H])([H])C([H])([H])C2([H])N([H])C(=O)C1([H])N(C(=O)C([H])(N([H])C(=O)C([H])(N([H])C([H])([H])[H])C([H])([H])[H])C(C([H])([H])[H])(C([H])([H])[H])C([H])([H])[H])C([H])([H])c2c([H])c(Oc3c([H])c([H])c4c(c3[H])C3(C4([H])[H])C([H])([H])C([H])([H])C(=O)C([H])(N([H])C(=O)N4C([H])([H])C([H])([H])C([H])([H])C([H])(n5nc(-c6c([H])c([H])c(Oc7c([H])c([H])c(F)c([H])c7F)c([H])c6[H])c(C(=O)N([H])[H])c5N([H])[H])C4([H])[H])C([H])([H])C3([H])[H])c([H])c([H])c2C1([H])[H]

>  <smiles>  (37) 
[H]c1c([H])c([H])c2c(c1[H])C([H])([H])C([H])([H])C([H])([H])C2([H])N([H])C(=O)C1([H])N(C(=O)C([H])(N([H])C(=O)C([H])(N([H])C([H])([H])[H])C([H])([H])[H])C(C([H])([H])[H])(C([H])([H])[H])C([H])([H])[H])C([H])([H])c2c([H])c(Oc3c([H])c([H])c4c(c3[H])C3(C4([H])[H])C([H])([H])C([H])([H])C(=O)C([H])(N([H])C(=O)N4C([H])([H])C([H])([H])C([H])([H])C([H])(n5nc(-c6c([H])c([H])c(Oc7c([H])c([H])c(F)c([H])c7F)c([H])c6[H])c(C(=O)N([H])[H])c5N([H])[H])C4([H])[H])C([H])([H])C3([H])[H])c([H])c([H])c2C1([H])[H]

$$$$
37:0:0
     RDKit          3D

 91 99  0  0  1  0  0  0  0  0999 V2000
  -28.6130  -22.3580   18.4800 C   0  0  0  0  0  3  0  0  0  0  0  0
  -28.1600  -24.8030   18.4150 C   0  0  0  0  0  3  0  0  0  0  0  0
  -28.8950  -23.7410   20.4560 C   0  0  0  0  0  3  0  0  0  0  0  0
  -28.2180  -23.5300   17.7870 C   0  0  0  0  0  0  0  0  0  0  0  0
  -29.0050  -22.3790   19.8380 C   0  0  0  0  0  0  0  0  0  0  0  0
  -28.4490  -24.9990   19.7840 C   0  0  0  0  0  0  0  0  0  0  0  0
  -27.8690  -23.4230   16.3120 C   0  0  0  0  0  1  0  0  0  0  0  0
  -28.6330  -20.7820   21.8220 C   0  0  0  0  0  1  0  0  0  0  0  0
  -29.4800  -20.9440   20.5490 C   0  0  0  0  0  3  0  0  0  0  0  0
  -29.5260  -19.5240   19.8240 N   0  0  0  0  0  4  0  0  0  0  0  0
  -28.5650  -19.2740   19.6640 H   0  0  0  0  0  0  0  0  0  0  0  0
  -29.9240  -19.6830   18.9130 H   0  0  0  0  0  0  0  0  0  0  0  0
  -30.2640  -18.2210   20.3930 C   0  0  0  0  0  2  0  0  0  0  0  0
  -29.8390  -16.6210   20.0200 C   0  0  0  0  0  2  0  0  0  0  0  0
  -30.7620  -15.2250   20.0490 C   0  0  0  0  0  0  0  0  0  0  0  0
  -30.6520  -12.8790   19.1000 C   0  0  0  0  0  2  0  0  0  0  0  0
  -29.6770  -12.8860   17.8990 C   0  0  0  0  0  2  0  0  0  0  0  0
  -28.2220  -12.6840   18.3680 C   0  0  0  0  0  2  0  0  0  0  0  0
  -27.8620  -13.5820   19.5800 C   0  0  0  0  0  3  0  0  0  0  0  0
  -28.9490  -13.5290   20.6690 C   0  0  0  0  0  2  0  0  0  0  0  0
  -30.2140  -13.9420   20.0470 N   0  0  0  0  0  0  0  0  0  0  0  0
  -31.9730  -15.3030   19.8080 O   0  0  0  0  0  0  0  0  0  0  0  0
  -25.5100  -14.1730   20.3980 C   0  0  0  0  0  0  0  0  0  0  0  0
  -24.4500  -13.4030   20.7940 C   0  0  0  0  0  0  0  0  0  0  0  0
  -24.9030  -12.0480   20.7330 C   0  0  0  0  0  0  0  0  0  0  0  0
  -26.5350  -13.2890   20.1140 N   0  0  0  0  0  0  0  0  0  0  0  0
  -26.1840  -12.0050   20.3830 N   0  0  0  0  0  0  0  0  0  0  0  0
  -24.1730  -10.7890   20.9280 C   0  0  0  0  0  0  0  0  0  0  0  0
  -24.5890   -9.8350   21.8800 C   0  0  0  0  0  3  0  0  0  0  0  0
  -23.8590   -8.6400   22.0640 C   0  0  0  0  0  3  0  0  0  0  0  0
  -22.6960   -8.3930   21.2960 C   0  0  0  0  0  0  0  0  0  0  0  0
  -22.2980   -9.3370   20.3340 C   0  0  0  0  0  3  0  0  0  0  0  0
  -23.0300  -10.5230   20.1480 C   0  0  0  0  0  3  0  0  0  0  0  0
  -21.9370   -7.2520   21.3890 O   0  0  0  0  0  0  0  0  0  0  0  0
  -21.8330   -6.5510   22.5650 C   0  0  0  0  0  0  0  0  0  0  0  0
  -21.2990   -7.1340   23.7360 C   0  0  0  0  0  3  0  0  0  0  0  0
  -21.1470   -6.3570   24.9010 C   0  0  0  0  0  3  0  0  0  0  0  0
  -21.5150   -4.9980   24.8980 C   0  0  0  0  0  0  0  0  0  0  0  0
  -22.0400   -4.4150   23.7310 C   0  0  0  0  0  3  0  0  0  0  0  0
  -22.1970   -5.1900   22.5690 C   0  0  0  0  0  0  0  0  0  0  0  0
  -22.6830   -4.6180   21.4410 F   0  0  0  0  0  0  0  0  0  0  0  0
  -21.3620   -4.2490   26.0150 F   0  0  0  0  0  0  0  0  0  0  0  0
  -23.0650  -13.8850   21.1120 C   0  0  0  0  0  0  0  0  0  0  0  0
  -22.3590  -13.1900   21.9970 N   0  0  0  0  0  0  0  0  0  0  0  0
  -22.6180  -14.9140   20.6080 O   0  0  0  0  0  0  0  0  0  0  0  0
  -22.7340  -12.3580   22.4280 H   0  0  0  0  0  0  0  0  0  0  0  0
  -21.4270  -13.4890   22.2460 H   0  0  0  0  0  0  0  0  0  0  0  0
  -25.6770  -15.5450   20.2330 N   0  0  0  0  0  0  0  0  0  0  0  0
  -24.9110  -16.1960   20.3590 H   0  0  0  0  0  0  0  0  0  0  0  0
  -26.5140  -15.9790   19.8660 H   0  0  0  0  0  0  0  0  0  0  0  0
  -28.4080  -26.3920   20.2790 O   0  0  0  0  0  0  0  0  0  0  0  0
  -24.6270  -31.9770   23.2860 C   0  0  0  0  0  0  0  0  0  0  0  0
  -27.3270  -27.3520   20.1910 C   0  0  0  0  0  0  0  0  0  0  0  0
  -23.4730  -30.5880   21.6070 C   0  0  0  0  0  3  0  0  0  0  0  0
  -24.9650  -29.0680   20.1690 C   0  0  0  0  0  0  0  0  0  0  0  0
  -26.0260  -30.8970   21.4830 C   0  0  0  0  0  2  0  0  0  0  0  0
  -26.1310  -29.5190   20.8040 C   0  0  0  0  0  0  0  0  0  0  0  0
  -27.3100  -28.6780   20.7960 C   0  0  0  0  0  3  0  0  0  0  0  0
  -26.1240  -26.9990   19.5390 C   0  0  0  0  0  3  0  0  0  0  0  0
  -24.9790  -27.8240   19.5240 C   0  0  0  0  0  3  0  0  0  0  0  0
  -23.7240  -29.9470   20.2190 C   0  0  0  0  0  2  0  0  0  0  0  0
  -24.7280  -31.1760   22.1830 N   0  0  0  0  0  0  0  0  0  0  0  0
  -23.5270  -32.2350   23.8020 O   0  0  0  0  0  0  0  0  0  0  0  0
  -22.7990  -29.5520   22.5430 C   0  0  0  0  0  0  0  0  0  0  0  0
  -21.4820  -29.3360   22.3700 N   0  0  0  0  0  0  0  0  0  0  0  0
  -23.4630  -28.9530   23.3910 O   0  0  0  0  0  0  0  0  0  0  0  0
  -21.0060  -29.8780   21.6650 H   0  0  0  0  0  0  0  0  0  0  0  0
  -18.1390  -27.9870   22.7300 C   0  0  0  0  0  0  0  0  0  0  0  0
  -20.6670  -28.3680   23.1100 C   0  0  0  0  0  3  0  0  0  0  0  0
  -20.8600  -26.9390   22.5540 C   0  0  0  0  0  2  0  0  0  0  0  0
  -19.8200  -26.5600   21.4940 C   0  0  0  0  0  2  0  0  0  0  0  0
  -18.4060  -26.6450   22.0710 C   0  0  0  0  0  2  0  0  0  0  0  0
  -19.2000  -28.8020   23.2030 C   0  0  0  0  0  0  0  0  0  0  0  0
  -18.8930  -30.0540   23.7800 C   0  0  0  0  0  3  0  0  0  0  0  0
  -17.5590  -30.4920   23.8840 C   0  0  0  0  0  3  0  0  0  0  0  0
  -16.5120  -29.6740   23.4270 C   0  0  0  0  0  3  0  0  0  0  0  0
  -16.8040  -28.4240   22.8550 C   0  0  0  0  0  3  0  0  0  0  0  0
  -25.8860  -32.6220   23.9460 C   0  0  0  0  0  3  0  0  0  0  0  0
  -26.3570  -31.8770   25.2560 C   0  0  1  0  0  0  0  0  0  0  0  0
  -25.2270  -31.6580   26.2870 C   0  0  0  0  0  1  0  0  0  0  0  0
  -26.9590  -30.4920   24.9200 C   0  0  0  0  0  1  0  0  0  0  0  0
  -27.4780  -32.6900   25.9490 C   0  0  0  0  0  1  0  0  0  0  0  0
  -25.5640  -34.0290   24.2410 N   0  0  0  0  0  0  0  0  0  0  0  0
  -25.9020  -35.0710   23.4700 C   0  0  0  0  0  0  0  0  0  0  0  0
  -26.5850  -34.9510   22.4500 O   0  0  0  0  0  0  0  0  0  0  0  0
  -24.9650  -34.2000   25.0350 H   0  0  0  0  0  0  0  0  0  0  0  0
  -24.1700  -36.8510   23.0710 C   0  0  0  0  0  1  0  0  0  0  0  0
  -25.4060  -36.4680   23.8980 C   0  0  0  0  0  3  0  0  0  0  0  0
  -27.5280  -37.3800   24.7370 C   0  0  0  0  0  1  0  0  0  0  0  0
  -26.4390  -37.5200   23.7740 N   0  0  0  0  0  0  0  0  0  0  0  0
  -26.0300  -38.4440   23.8970 H   0  0  0  0  0  0  0  0  0  0  0  0
  1  5  1  0
  2  6  2  0
  4  2  1  0
  4  1  2  0
  5  3  2  0
  5  9  1  0
  6 51  1  0
  6  3  1  0
  7  4  1  0
  9  8  1  0
 10 13  1  0
 10  9  1  0
 11 10  1  0
 12 10  1  0
 14 15  1  0
 14 13  1  0
 16 21  1  0
 17 18  1  0
 17 16  1  0
 19 18  1  0
 19 26  1  0
 19 20  1  0
 21 15  1  0
 21 20  1  0
 22 15  2  0
 23 24  2  0
 24 43  1  0
 25 24  1  0
 25 28  1  0
 26 27  1  0
 26 23  1  0
 27 25  2  0
 28 29  1  0
 29 30  2  0
 31 34  1  0
 31 30  1  0
 32 31  2  0
 33 32  1  0
 33 28  2  0
 34 35  1  0
 35 40  2  0
 35 36  1  0
 36 37  2  0
 38 37  1  0
 38 42  1  0
 39 38  2  0
 40 39  1  0
 41 40  1  0
 43 44  1  0
 44 47  1  0
 44 46  1  0
 45 43  2  0
 48 49  1  0
 48 23  1  0
 50 48  1  0
 52 63  2  0
 53 51  1  0
 53 58  1  0
 54 62  1  0
 54 64  1  0
 55 61  1  0
 55 57  1  0
 56 62  1  0
 57 56  1  0
 58 57  2  0
 59 53  2  0
 60 59  1  0
 60 55  2  0
 61 54  1  0
 62 52  1  0
 64 66  2  0
 65 64  1  0
 67 65  1  0
 68 77  2  0
 68 73  1  0
 69 65  1  0
 69 73  1  0
 70 69  1  0
 71 72  1  0
 71 70  1  0
 72 68  1  0
 73 74  2  0
 74 75  1  0
 76 75  2  0
 77 76  1  0
 78 52  1  0
 78 83  1  0
 78 79  1  0
 79 82  1  1
 79 80  1  0
 81 79  1  0
 83 86  1  0
 84 88  1  0
 84 83  1  0
 85 84  2  0
 88 87  1  0
 90 91  1  0
 90 88  1  0
 90 89  1  0
M  ISO  4   6 101  14 100  15 100  51 101
M  END
>  <TORSDO>  (38) 
F 20

>  <SCORE>  (38) 
-12.745

>  <name>  (38) 
37

>  <ligand_id>  (38) 
37

>  <original_smiles>  (38) 
[H]c1c([H])c([H])c2c(c1[H])C([H])([H])C([H])([H])C([H])([H])C2([H])N([H])C(=O)C1([H])N(C(=O)C([H])(N([H])C(=O)C([H])(N([H])C([H])([H])[H])C([H])([H])[H])C(C([H])([H])[H])(C([H])([H])[H])C([H])([H])[H])C([H])([H])c2c([H])c(Oc3c([H])c(C([H])([H])[H])c([H])c(C([H])(C([H])([H])[H])[N+]([H])([H])C([H])([H])C([H])([H])C(=O)N4C([H])([H])C([H])([H])C([H])([H])C([H])(n5nc(-c6c([H])c([H])c(Oc7c([H])c([H])c(F)c([H])c7F)c([H])c6[H])c(C(=O)N([H])[H])c5N([H])[H])C4([H])[H])c3[H])c([H])c([H])c2C1([H])[H]

>  <smiles>  (38) 
[H]c1c([H])c([H])c2c(c1[H])C([H])([H])C([H])([H])C([H])([H])C2([H])N([H])C(=O)C1([H])N(C(=O)C([H])(N([H])C(=O)C([H])(N([H])C([H])([H])[H])C([H])([H])[H])C(C([H])([H])[H])(C([H])([H])[H])C([H])([H])[H])C([H])([H])c2c([H])c(Oc3c([H])c(C([H])([H])[H])c([H])c(C([H])(C([H])([H])[H])[N+]([H])([H])C([H])([H])C([H])([H])C(=O)N4C([H])([H])C([H])([H])C([H])([H])C([H])(n5nc(-c6c([H])c([H])c(Oc7c([H])c([H])c(F)c([H])c7F)c([H])c6[H])c(C(=O)N([H])[H])c5N([H])[H])C4([H])[H])c3[H])c([H])c([H])c2C1([H])[H]

$$$$
38:0:0
     RDKit          3D

 95104  0  0  1  0  0  0  0  0999 V2000
  -29.9480  -23.9470   21.8460 C   0  0  0  0  0  2  0  0  0  0  0  0
  -28.4720  -24.3130   21.5350 C   0  0  0  0  0  2  0  0  0  0  0  0
  -30.4800  -23.3770   19.4060 C   0  0  0  0  0  2  0  0  0  0  0  0
  -28.9580  -23.3690   19.2200 C   0  0  0  0  0  3  0  0  0  0  0  0
  -30.9200  -24.1590   20.6600 C   0  0  0  0  0  3  0  0  0  0  0  0
  -28.2350  -24.6840   20.0610 C   0  0  0  0  0  3  0  0  0  0  0  0
  -32.3700  -23.8220   21.0390 C   0  0  0  0  0  1  0  0  0  0  0  0
  -26.0500  -20.8920   18.7610 C   0  0  0  0  0  3  0  0  0  0  0  0
  -26.4490  -19.6110   19.1230 C   0  0  0  0  0  3  0  0  0  0  0  0
  -26.9730  -21.9450   18.8330 C   0  0  0  0  0  3  0  0  0  0  0  0
  -27.7770  -19.3810   19.4940 C   0  0  0  0  0  3  0  0  0  0  0  0
  -28.3270  -21.8240   19.2590 C   0  0  0  0  0  0  0  0  0  0  0  0
  -28.7880  -20.3750   19.5310 C   0  0  0  0  0  0  0  0  0  0  0  0
  -30.1690  -19.5640   19.9340 C   0  0  0  0  0  2  0  0  0  0  0  0
  -30.0620  -17.6000   18.1780 C   0  0  0  0  0  1  0  0  0  0  0  0
  -30.5560  -17.9160   19.5980 C   0  0  0  0  0  0  0  0  0  0  0  0
  -31.1890  -15.3770   20.5650 C   0  0  0  0  0  0  0  0  0  0  0  0
  -31.1540  -12.9240   19.9520 C   0  0  0  0  0  2  0  0  0  0  0  0
  -30.3630  -12.7590   18.6280 C   0  0  0  0  0  2  0  0  0  0  0  0
  -28.8600  -12.6060   18.9140 C   0  0  0  0  0  2  0  0  0  0  0  0
  -28.3410  -13.6460   19.9420 C   0  0  0  0  0  3  0  0  0  0  0  0
  -29.2710  -13.7630   21.1680 C   0  0  0  0  0  2  0  0  0  0  0  0
  -30.6020  -14.1140   20.6600 N   0  0  0  0  0  0  0  0  0  0  0  0
  -32.4070  -15.3950   20.3680 O   0  0  0  0  0  0  0  0  0  0  0  0
  -30.3980  -16.5740   20.4590 N   0  0  0  0  0  4  0  0  0  0  0  0
  -29.4470  -16.4290   20.7650 H   0  0  0  0  0  0  0  0  0  0  0  0
  -25.9460  -14.3330   20.5180 C   0  0  0  0  0  0  0  0  0  0  0  0
  -24.8200  -13.6140   20.8090 C   0  0  0  0  0  0  0  0  0  0  0  0
  -25.2160  -12.2400   20.8040 C   0  0  0  0  0  0  0  0  0  0  0  0
  -26.9560  -13.4030   20.3400 N   0  0  0  0  0  0  0  0  0  0  0  0
  -26.5220  -12.1400   20.5860 N   0  0  0  0  0  0  0  0  0  0  0  0
  -24.4110  -11.0170   20.9290 C   0  0  0  0  0  0  0  0  0  0  0  0
  -24.7420  -10.0150   21.8640 C   0  0  0  0  0  3  0  0  0  0  0  0
  -23.9440   -8.8540   21.9820 C   0  0  0  0  0  3  0  0  0  0  0  0
  -22.8030   -8.6900   21.1600 C   0  0  0  0  0  0  0  0  0  0  0  0
  -22.4920   -9.6840   20.2160 C   0  0  0  0  0  3  0  0  0  0  0  0
  -23.2880  -10.8330   20.0970 C   0  0  0  0  0  3  0  0  0  0  0  0
  -21.9860   -7.5850   21.1850 O   0  0  0  0  0  0  0  0  0  0  0  0
  -21.8280   -6.8350   22.3240 C   0  0  0  0  0  0  0  0  0  0  0  0
  -21.3890   -7.4050   23.5370 C   0  0  0  0  0  3  0  0  0  0  0  0
  -21.1710   -6.5830   24.6640 C   0  0  0  0  0  3  0  0  0  0  0  0
  -21.3830   -5.1940   24.5750 C   0  0  0  0  0  0  0  0  0  0  0  0
  -21.8160   -4.6250   23.3640 C   0  0  0  0  0  3  0  0  0  0  0  0
  -22.0360   -5.4420   22.2420 C   0  0  0  0  0  0  0  0  0  0  0  0
  -22.4320   -4.8850   21.0720 F   0  0  0  0  0  0  0  0  0  0  0  0
  -21.1640   -4.4080   25.6530 F   0  0  0  0  0  0  0  0  0  0  0  0
  -23.4320  -14.1680   20.9700 C   0  0  0  0  0  0  0  0  0  0  0  0
  -22.6070  -13.5290   21.7910 N   0  0  0  0  0  0  0  0  0  0  0  0
  -23.0910  -15.2020   20.3950 O   0  0  0  0  0  0  0  0  0  0  0  0
  -22.8920  -12.6970   22.2880 H   0  0  0  0  0  0  0  0  0  0  0  0
  -21.6700  -13.8760   21.9230 H   0  0  0  0  0  0  0  0  0  0  0  0
  -26.1880  -15.6940   20.3630 N   0  0  0  0  0  0  0  0  0  0  0  0
  -25.4350  -16.3720   20.4130 H   0  0  0  0  0  0  0  0  0  0  0  0
  -27.0640  -16.0910   20.0540 H   0  0  0  0  0  0  0  0  0  0  0  0
  -28.4710  -26.2440   19.9940 O   0  0  0  0  0  0  0  0  0  0  0  0
  -24.5640  -31.7300   23.1530 C   0  0  0  0  0  0  0  0  0  0  0  0
  -27.3900  -27.2090   20.0130 C   0  0  0  0  0  0  0  0  0  0  0  0
  -23.4660  -30.3550   21.4320 C   0  0  0  0  0  3  0  0  0  0  0  0
  -25.0090  -28.8890   19.9890 C   0  0  0  0  0  0  0  0  0  0  0  0
  -26.0140  -30.7220   21.3410 C   0  0  0  0  0  2  0  0  0  0  0  0
  -26.1570  -29.3510   20.6460 C   0  0  0  0  0  0  0  0  0  0  0  0
  -27.3520  -28.5270   20.6370 C   0  0  0  0  0  3  0  0  0  0  0  0
  -26.2110  -26.8610   19.3220 C   0  0  0  0  0  3  0  0  0  0  0  0
  -25.0510  -27.6650   19.3120 C   0  0  0  0  0  3  0  0  0  0  0  0
  -23.7490  -29.7380   20.0380 C   0  0  0  0  0  2  0  0  0  0  0  0
  -24.7010  -30.9580   22.0320 N   0  0  0  0  0  0  0  0  0  0  0  0
  -23.4540  -31.9450   23.6660 O   0  0  0  0  0  0  0  0  0  0  0  0
  -22.8090  -29.2810   22.3370 C   0  0  0  0  0  0  0  0  0  0  0  0
  -21.4800  -29.1060   22.2170 N   0  0  0  0  0  0  0  0  0  0  0  0
  -23.4960  -28.6120   23.1110 O   0  0  0  0  0  0  0  0  0  0  0  0
  -20.9820  -29.7060   21.5760 H   0  0  0  0  0  0  0  0  0  0  0  0
  -18.1050  -27.8670   22.7210 C   0  0  0  0  0  0  0  0  0  0  0  0
  -20.6740  -28.1140   22.9360 C   0  0  0  0  0  3  0  0  0  0  0  0
  -20.7530  -26.7250   22.2600 C   0  0  0  0  0  2  0  0  0  0  0  0
  -19.6260  -26.4740   21.2530 C   0  0  0  0  0  2  0  0  0  0  0  0
  -18.2630  -26.5700   21.9440 C   0  0  0  0  0  2  0  0  0  0  0  0
  -19.2370  -28.5990   23.1740 C   0  0  0  0  0  0  0  0  0  0  0  0
  -19.0340  -29.8100   23.8680 C   0  0  0  0  0  3  0  0  0  0  0  0
  -17.7340  -30.2990   24.1040 C   0  0  0  0  0  3  0  0  0  0  0  0
  -16.6180  -29.5650   23.6620 C   0  0  0  0  0  3  0  0  0  0  0  0
  -16.8060  -28.3500   22.9820 C   0  0  0  0  0  3  0  0  0  0  0  0
  -25.7950  -32.3970   23.8360 C   0  0  0  0  0  3  0  0  0  0  0  0
  -26.2670  -31.6350   25.1370 C   0  0  1  0  0  0  0  0  0  0  0  0
  -25.1310  -31.3750   26.1540 C   0  0  0  0  0  1  0  0  0  0  0  0
  -26.8890  -30.2670   24.7710 C   0  0  0  0  0  1  0  0  0  0  0  0
  -27.3750  -32.4500   25.8470 C   0  0  0  0  0  1  0  0  0  0  0  0
  -25.4310  -33.7870   24.1600 N   0  0  0  0  0  0  0  0  0  0  0  0
  -25.7540  -34.8540   23.4190 C   0  0  0  0  0  0  0  0  0  0  0  0
  -26.4570  -34.7770   22.4090 O   0  0  0  0  0  0  0  0  0  0  0  0
  -24.8050  -33.9140   24.9410 H   0  0  0  0  0  0  0  0  0  0  0  0
  -23.9770  -36.5970   23.0400 C   0  0  0  0  0  1  0  0  0  0  0  0
  -25.2160  -36.2290   23.8710 C   0  0  0  0  0  3  0  0  0  0  0  0
  -27.3110  -37.1760   24.7340 C   0  0  0  0  0  1  0  0  0  0  0  0
  -26.2170  -37.3140   23.7770 N   0  0  0  0  0  0  0  0  0  0  0  0
  -25.7820  -38.2210   23.9210 H   0  0  0  0  0  0  0  0  0  0  0  0
  2  1  1  0
  3  5  1  0
  4 12  1  0
  4  3  1  0
  4  6  1  0
  5  7  1  0
  5  1  1  0
  6 55  1  0
  6  2  1  0
  8 10  2  0
  8  9  1  0
  9 11  2  0
 10 12  1  0
 11 13  1  0
 12 13  2  0
 13 14  1  0
 15 16  1  0
 16 14  1  0
 16 25  2  3
 17 23  1  0
 18 23  1  0
 19 20  1  0
 19 18  1  0
 21 20  1  0
 21 30  1  0
 21 22  1  0
 23 22  1  0
 24 17  2  0
 25 17  1  0
 25 26  1  0
 27 28  2  0
 28 47  1  0
 29 28  1  0
 29 32  1  0
 30 27  1  0
 30 31  1  0
 31 29  2  0
 32 33  1  0
 33 34  2  0
 35 38  1  0
 35 34  1  0
 36 35  2  0
 37 36  1  0
 37 32  2  0
 38 39  1  0
 39 40  1  0
 40 41  2  0
 42 41  1  0
 42 46  1  0
 43 42  2  0
 44 39  2  0
 44 43  1  0
 45 44  1  0
 47 48  1  0
 48 51  1  0
 48 50  1  0
 49 47  2  0
 52 53  1  0
 52 27  1  0
 54 52  1  0
 55 57  1  0
 56 67  2  0
 57 62  1  0
 58 66  1  0
 58 68  1  0
 59 65  1  0
 59 61  1  0
 60 66  1  0
 61 60  1  0
 62 61  2  0
 63 57  2  0
 64 63  1  0
 64 59  2  0
 65 58  1  0
 66 56  1  0
 68 70  2  0
 69 68  1  0
 71 69  1  0
 72 81  2  0
 72 77  1  0
 73 69  1  0
 73 77  1  0
 74 73  1  0
 75 76  1  0
 75 74  1  0
 76 72  1  0
 77 78  2  0
 78 79  1  0
 80 79  2  0
 81 80  1  0
 82 56  1  0
 82 87  1  0
 82 83  1  0
 83 86  1  1
 83 84  1  0
 85 83  1  0
 87 90  1  0
 88 92  1  0
 88 87  1  0
 89 88  2  0
 92 91  1  0
 94 92  1  0
 94 95  1  0
 94 93  1  0
M  ISO  4   6 101  17 100  25 100  55 101
M  END
>  <TORSDO>  (39) 
F 19

>  <SCORE>  (39) 
-12.842

>  <name>  (39) 
38

>  <ligand_id>  (39) 
38

>  <original_smiles>  (39) 
[H]c1c([H])c([H])c2c(c1[H])C([H])([H])C([H])([H])C([H])([H])C2([H])N([H])C(=O)C1([H])N(C(=O)C([H])(N([H])C(=O)C([H])(N([H])C([H])([H])[H])C([H])([H])[H])C(C([H])([H])[H])(C([H])([H])[H])C([H])([H])[H])C([H])([H])c2c([H])c(OC3([H])C([H])([H])C([H])([H])C([H])(C([H])([H])[H])C([H])([H])C3([H])c3c([H])c([H])c([H])c([H])c3C([H])([H])C([H])(N([H])C(=O)N3C([H])([H])C([H])([H])C([H])([H])C([H])(n4nc(-c5c([H])c([H])c(Oc6c([H])c([H])c(F)c([H])c6F)c([H])c5[H])c(C(=O)N([H])[H])c4N([H])[H])C3([H])[H])C([H])([H])[H])c([H])c([H])c2C1([H])[H]

>  <smiles>  (39) 
[H]c1c([H])c([H])c2c(c1[H])C([H])([H])C([H])([H])C([H])([H])C2([H])N([H])C(=O)C1([H])N(C(=O)C([H])(N([H])C(=O)C([H])(N([H])C([H])([H])[H])C([H])([H])[H])C(C([H])([H])[H])(C([H])([H])[H])C([H])([H])[H])C([H])([H])c2c([H])c(OC3([H])C([H])([H])C([H])([H])C([H])(C([H])([H])[H])C([H])([H])C3([H])c3c([H])c([H])c([H])c([H])c3C([H])([H])C([H])(N([H])C(=O)N3C([H])([H])C([H])([H])C([H])([H])C([H])(n4nc(-c5c([H])c([H])c(Oc6c([H])c([H])c(F)c([H])c6F)c([H])c5[H])c(C(=O)N([H])[H])c4N([H])[H])C3([H])[H])C([H])([H])[H])c([H])c([H])c2C1([H])[H]

$$$$
39:0:0
     RDKit          3D

 93101  0  0  1  0  0  0  0  0999 V2000
  -29.3630  -21.3770   18.3330 C   0  0  0  0  0  3  0  0  0  0  0  0
  -29.1140  -22.6040   17.6900 C   0  0  0  0  0  3  0  0  0  0  0  0
  -28.9340  -22.4520   20.4460 C   0  0  0  0  0  3  0  0  0  0  0  0
  -29.2950  -21.2340   19.7340 C   0  0  0  0  0  0  0  0  0  0  0  0
  -28.7740  -23.7750   18.4010 C   0  0  0  0  0  0  0  0  0  0  0  0
  -28.6650  -23.7400   19.8150 C   0  0  0  0  0  0  0  0  0  0  0  0
  -28.5220  -25.0360   17.5900 C   0  0  0  0  0  1  0  0  0  0  0  0
  -29.6420  -19.8330   20.4460 C   0  0  0  0  0  2  0  0  0  0  0  0
  -30.5610  -18.3940   18.4220 C   0  0  0  0  0  1  0  0  0  0  0  0
  -28.2390  -17.9730   19.3050 C   0  0  0  0  0  1  0  0  0  0  0  0
  -29.6810  -18.3630   19.7070 C   0  0  2  0  0  0  0  0  0  0  0  0
  -30.6360  -14.6870   20.4260 C   0  0  0  0  0  0  0  0  0  0  0  0
  -30.3810  -12.4260   19.4120 C   0  0  0  0  0  2  0  0  0  0  0  0
  -29.4530  -12.5110   18.1850 C   0  0  0  0  0  2  0  0  0  0  0  0
  -27.9770  -12.3560   18.6040 C   0  0  0  0  0  2  0  0  0  0  0  0
  -27.5990  -13.2520   19.8150 C   0  0  0  0  0  3  0  0  0  0  0  0
  -28.6560  -13.1750   20.9380 C   0  0  0  0  0  2  0  0  0  0  0  0
  -29.9570  -13.4970   20.3360 N   0  0  0  0  0  0  0  0  0  0  0  0
  -31.8520  -14.7100   20.2260 O   0  0  0  0  0  0  0  0  0  0  0  0
  -30.3280  -17.1610   20.5530 C   0  0  0  0  0  0  0  0  0  0  0  0
  -29.8930  -15.8530   20.4160 N   0  0  0  0  0  0  0  0  0  0  0  0
  -31.2900  -17.4400   21.2740 O   0  0  0  0  0  0  0  0  0  0  0  0
  -28.9390  -15.7370   20.1230 H   0  0  0  0  0  0  0  0  0  0  0  0
  -25.2070  -13.8550   20.5230 C   0  0  0  0  0  0  0  0  0  0  0  0
  -24.1370  -13.0870   20.8870 C   0  0  0  0  0  0  0  0  0  0  0  0
  -24.5970  -11.7330   20.8690 C   0  0  0  0  0  0  0  0  0  0  0  0
  -26.2520  -12.9720   20.3010 N   0  0  0  0  0  0  0  0  0  0  0  0
  -25.8910  -11.6920   20.5780 N   0  0  0  0  0  0  0  0  0  0  0  0
  -23.8650  -10.4750   21.0620 C   0  0  0  0  0  0  0  0  0  0  0  0
  -24.2970   -9.5030   21.9910 C   0  0  0  0  0  3  0  0  0  0  0  0
  -23.5650   -8.3100   22.1710 C   0  0  0  0  0  3  0  0  0  0  0  0
  -22.3860   -8.0780   21.4230 C   0  0  0  0  0  0  0  0  0  0  0  0
  -21.9730   -9.0390   20.4830 C   0  0  0  0  0  3  0  0  0  0  0  0
  -22.7050  -10.2240   20.3000 C   0  0  0  0  0  3  0  0  0  0  0  0
  -21.6260   -6.9380   21.5110 O   0  0  0  0  0  0  0  0  0  0  0  0
  -21.5960   -6.1810   22.6560 C   0  0  0  0  0  0  0  0  0  0  0  0
  -21.2100   -6.7280   23.8990 C   0  0  0  0  0  3  0  0  0  0  0  0
  -21.1250   -5.8990   25.0360 C   0  0  0  0  0  3  0  0  0  0  0  0
  -21.4120   -4.5240   24.9300 C   0  0  0  0  0  0  0  0  0  0  0  0
  -21.7880   -3.9780   23.6910 C   0  0  0  0  0  3  0  0  0  0  0  0
  -21.8770   -4.8030   22.5560 C   0  0  0  0  0  0  0  0  0  0  0  0
  -22.2170   -4.2680   21.3600 F   0  0  0  0  0  0  0  0  0  0  0  0
  -21.3220   -3.7260   26.0210 F   0  0  0  0  0  0  0  0  0  0  0  0
  -22.7360  -13.5670   21.1390 C   0  0  0  0  0  0  0  0  0  0  0  0
  -21.9980  -12.8780   22.0020 N   0  0  0  0  0  0  0  0  0  0  0  0
  -22.3050  -14.5880   20.6060 O   0  0  0  0  0  0  0  0  0  0  0  0
  -22.3620  -12.0540   22.4590 H   0  0  0  0  0  0  0  0  0  0  0  0
  -21.0570  -13.1800   22.2130 H   0  0  0  0  0  0  0  0  0  0  0  0
  -25.3760  -15.2250   20.3360 N   0  0  0  0  0  0  0  0  0  0  0  0
  -24.6110  -15.8840   20.4370 H   0  0  0  0  0  0  0  0  0  0  0  0
  -26.2200  -15.6540   19.9820 H   0  0  0  0  0  0  0  0  0  0  0  0
  -28.1620  -25.0070   20.6440 C   0  0  0  0  0  2  0  0  0  0  0  0
  -28.3290  -26.4190   20.1730 O   0  0  0  0  0  0  0  0  0  0  0  0
  -24.6370  -31.8680   23.2310 C   0  0  0  0  0  0  0  0  0  0  0  0
  -27.2130  -27.2780   20.1800 C   0  0  0  0  0  0  0  0  0  0  0  0
  -23.4160  -30.4640   21.6090 C   0  0  0  0  0  3  0  0  0  0  0  0
  -24.8500  -28.9000   20.1790 C   0  0  0  0  0  0  0  0  0  0  0  0
  -25.9540  -30.7780   21.3970 C   0  0  0  0  0  2  0  0  0  0  0  0
  -26.0290  -29.3950   20.7540 C   0  0  0  0  0  0  0  0  0  0  0  0
  -27.2170  -28.5990   20.7350 C   0  0  0  0  0  3  0  0  0  0  0  0
  -26.0090  -26.8350   19.5950 C   0  0  0  0  0  3  0  0  0  0  0  0
  -24.8440  -27.6270   19.5890 C   0  0  0  0  0  3  0  0  0  0  0  0
  -23.6130  -29.7750   20.2340 C   0  0  0  0  0  2  0  0  0  0  0  0
  -24.6880  -31.0550   22.1350 N   0  0  0  0  0  0  0  0  0  0  0  0
  -23.5570  -32.1500   23.7740 O   0  0  0  0  0  0  0  0  0  0  0  0
  -22.7580  -29.4550   22.5830 C   0  0  0  0  0  0  0  0  0  0  0  0
  -21.4330  -29.2730   22.4620 N   0  0  0  0  0  0  0  0  0  0  0  0
  -23.4420  -28.8370   23.4030 O   0  0  0  0  0  0  0  0  0  0  0  0
  -20.9430  -29.8190   21.7680 H   0  0  0  0  0  0  0  0  0  0  0  0
  -18.0630  -28.0610   22.9750 C   0  0  0  0  0  0  0  0  0  0  0  0
  -20.6180  -28.3390   23.2410 C   0  0  0  0  0  3  0  0  0  0  0  0
  -20.7310  -26.9040   22.6800 C   0  0  0  0  0  2  0  0  0  0  0  0
  -19.6310  -26.5630   21.6690 C   0  0  0  0  0  2  0  0  0  0  0  0
  -18.2480  -26.7070   22.3120 C   0  0  0  0  0  2  0  0  0  0  0  0
  -19.1760  -28.8350   23.3950 C   0  0  0  0  0  0  0  0  0  0  0  0
  -18.9500  -30.1030   23.9740 C   0  0  0  0  0  3  0  0  0  0  0  0
  -17.6430  -30.5970   24.1360 C   0  0  0  0  0  3  0  0  0  0  0  0
  -16.5420  -29.8200   23.7330 C   0  0  0  0  0  3  0  0  0  0  0  0
  -16.7530  -28.5540   23.1580 C   0  0  0  0  0  3  0  0  0  0  0  0
  -25.9240  -32.5010   23.8410 C   0  0  0  0  0  3  0  0  0  0  0  0
  -26.4530  -31.7320   25.1140 C   0  0  1  0  0  0  0  0  0  0  0  0
  -25.3720  -31.4960   26.1950 C   0  0  0  0  0  1  0  0  0  0  0  0
  -27.0330  -30.3540   24.7200 C   0  0  0  0  0  1  0  0  0  0  0  0
  -27.6110  -32.5270   25.7600 C   0  0  0  0  0  1  0  0  0  0  0  0
  -25.6170  -33.9000   24.1760 N   0  0  0  0  0  0  0  0  0  0  0  0
  -25.9380  -34.9560   23.4170 C   0  0  0  0  0  0  0  0  0  0  0  0
  -26.5940  -34.8540   22.3760 O   0  0  0  0  0  0  0  0  0  0  0  0
  -25.0350  -34.0530   24.9880 H   0  0  0  0  0  0  0  0  0  0  0  0
  -24.2000  -36.7460   23.0910 C   0  0  0  0  0  1  0  0  0  0  0  0
  -25.4530  -36.3420   23.8840 C   0  0  0  0  0  3  0  0  0  0  0  0
  -27.6000  -37.2270   24.6810 C   0  0  0  0  0  1  0  0  0  0  0  0
  -26.4820  -37.3980   23.7590 N   0  0  0  0  0  0  0  0  0  0  0  0
  -26.0770  -38.3160   23.9190 H   0  0  0  0  0  0  0  0  0  0  0  0
  1  4  1  0
  2  1  2  0
  2  5  1  0
  4  8  1  0
  4  3  2  0
  5  6  2  0
  6  3  1  0
  6 52  1  0
  7  5  1  0
 11  9  1  6
 10 11  1  0
 11  8  1  0
 11 20  1  0
 13 18  1  0
 14 15  1  0
 14 13  1  0
 16 15  1  0
 16 27  1  0
 16 17  1  0
 18 12  1  0
 18 17  1  0
 19 12  2  0
 20 22  2  0
 21 12  1  0
 21 20  1  0
 23 21  1  0
 24 25  2  0
 25 44  1  0
 26 25  1  0
 26 29  1  0
 27 24  1  0
 27 28  1  0
 28 26  2  0
 29 30  1  0
 30 31  2  0
 32 35  1  0
 32 31  1  0
 33 32  2  0
 34 33  1  0
 34 29  2  0
 35 36  1  0
 36 37  1  0
 37 38  2  0
 39 38  1  0
 39 43  1  0
 40 39  2  0
 41 36  2  0
 41 40  1  0
 42 41  1  0
 44 45  1  0
 45 48  1  0
 45 47  1  0
 46 44  2  0
 49 50  1  0
 49 24  1  0
 51 49  1  0
 53 55  1  0
 53 52  1  0
 54 65  2  0
 55 60  1  0
 56 64  1  0
 56 66  1  0
 57 63  1  0
 57 59  1  0
 58 64  1  0
 59 58  1  0
 60 59  2  0
 61 55  2  0
 62 61  1  0
 62 57  2  0
 63 56  1  0
 64 54  1  0
 66 68  2  0
 67 66  1  0
 69 67  1  0
 70 79  2  0
 70 75  1  0
 71 67  1  0
 71 75  1  0
 72 71  1  0
 73 74  1  0
 73 72  1  0
 74 70  1  0
 75 76  2  0
 76 77  1  0
 78 77  2  0
 79 78  1  0
 80 54  1  0
 80 85  1  0
 80 81  1  0
 81 84  1  1
 81 82  1  0
 83 81  1  0
 85 88  1  0
 86 90  1  0
 86 85  1  0
 87 86  2  0
 90 89  1  0
 92 90  1  0
 92 93  1  0
 92 91  1  0
M  ISO  4  12 100  21 100  52 101  53 101
M  END
>  <TORSDO>  (40) 
F 19

>  <SCORE>  (40) 
-14.368

>  <name>  (40) 
39

>  <ligand_id>  (40) 
39

>  <original_smiles>  (40) 
[H]c1c([H])c([H])c2c(c1[H])C([H])([H])C([H])([H])C([H])([H])C2([H])N([H])C(=O)C1([H])N(C(=O)C([H])(N([H])C(=O)C([H])(N([H])C([H])([H])[H])C([H])([H])[H])C(C([H])([H])[H])(C([H])([H])[H])C([H])([H])[H])C([H])([H])c2c([H])c(OC([H])([H])c3c([H])c(C([H])([H])C(C(=O)N([H])C(=O)N4C([H])([H])C([H])([H])C([H])([H])C([H])(n5nc(-c6c([H])c([H])c(Oc7c([H])c([H])c(F)c([H])c7F)c([H])c6[H])c(C(=O)N([H])[H])c5N([H])[H])C4([H])[H])(C([H])([H])[H])C([H])([H])[H])c([H])c([H])c3C([H])([H])[H])c([H])c([H])c2C1([H])[H]

>  <smiles>  (40) 
[H]c1c([H])c([H])c2c(c1[H])C([H])([H])C([H])([H])C([H])([H])C2([H])N([H])C(=O)C1([H])N(C(=O)C([H])(N([H])C(=O)C([H])(N([H])C([H])([H])[H])C([H])([H])[H])C(C([H])([H])[H])(C([H])([H])[H])C([H])([H])[H])C([H])([H])c2c([H])c(OC([H])([H])c3c([H])c(C([H])([H])C(C(=O)N([H])C(=O)N4C([H])([H])C([H])([H])C([H])([H])C([H])(n5nc(-c6c([H])c([H])c(Oc7c([H])c([H])c(F)c([H])c7F)c([H])c6[H])c(C(=O)N([H])[H])c5N([H])[H])C4([H])[H])(C([H])([H])[H])C([H])([H])[H])c([H])c([H])c3C([H])([H])[H])c([H])c([H])c2C1([H])[H]

$$$$
40:0:0
     RDKit          3D

 97106  0  0  1  0  0  0  0  0999 V2000
  -28.2620  -21.5640   18.9590 C   0  0  0  0  0  3  0  0  0  0  0  0
  -27.8940  -23.0610   18.9800 C   0  0  0  0  0  3  0  0  0  0  0  0
  -29.3530  -23.3980   20.6020 C   0  0  0  0  0  3  0  0  0  0  0  0
  -29.2400  -20.7700   19.7680 C   0  0  0  0  0  0  0  0  0  0  0  0
  -29.7330  -21.9120   20.5930 C   0  0  0  0  0  0  0  0  0  0  0  0
  -28.3790  -24.2060   19.8170 C   0  0  0  0  0  0  0  0  0  0  0  0
  -31.3120  -19.1670   20.5220 C   0  0  0  0  0  2  0  0  0  0  0  0
  -30.8620  -21.5200   21.5450 C   0  0  0  0  0  3  0  0  0  0  0  0
  -30.0340  -19.0680   19.6520 C   0  0  0  0  0  3  0  0  0  0  0  0
  -31.8790  -20.5730   20.8350 C   0  0  0  0  0  3  0  0  0  0  0  0
  -32.5280  -21.2160   19.5930 C   0  0  0  0  0  1  0  0  0  0  0  0
  -30.5230  -15.9530   19.7570 C   0  0  0  0  0  0  0  0  0  0  0  0
  -30.6490  -13.3530   19.1560 C   0  0  0  0  0  2  0  0  0  0  0  0
  -29.7400  -12.8210   18.0110 C   0  0  0  0  0  2  0  0  0  0  0  0
  -28.3360  -12.4830   18.5350 C   0  0  0  0  0  2  0  0  0  0  0  0
  -27.8280  -13.5660   19.5130 C   0  0  0  0  0  3  0  0  0  0  0  0
  -28.8770  -14.0020   20.5630 C   0  0  0  0  0  2  0  0  0  0  0  0
  -30.0150  -14.5830   19.8130 N   0  0  0  0  0  0  0  0  0  0  0  0
  -31.7560  -15.8860   19.5900 O   0  0  0  0  0  0  0  0  0  0  0  0
  -29.7590  -17.3140   19.7070 N   0  0  0  0  0  0  0  0  0  0  0  0
  -28.7680  -17.1290   19.7590 H   0  0  0  0  0  0  0  0  0  0  0  0
  -25.5320  -14.1350   20.4330 C   0  0  0  0  0  0  0  0  0  0  0  0
  -24.4720  -13.3700   20.8300 C   0  0  0  0  0  0  0  0  0  0  0  0
  -24.9020  -12.0110   20.7250 C   0  0  0  0  0  0  0  0  0  0  0  0
  -26.5350  -13.2460   20.0980 N   0  0  0  0  0  0  0  0  0  0  0  0
  -26.1750  -11.9580   20.3410 N   0  0  0  0  0  0  0  0  0  0  0  0
  -24.1500  -10.7620   20.9090 C   0  0  0  0  0  0  0  0  0  0  0  0
  -24.5670   -9.7750   21.8290 C   0  0  0  0  0  3  0  0  0  0  0  0
  -23.8110   -8.5960   22.0040 C   0  0  0  0  0  3  0  0  0  0  0  0
  -22.6260   -8.3940   21.2580 C   0  0  0  0  0  0  0  0  0  0  0  0
  -22.2280   -9.3680   20.3270 C   0  0  0  0  0  3  0  0  0  0  0  0
  -22.9830  -10.5390   20.1500 C   0  0  0  0  0  3  0  0  0  0  0  0
  -21.8440   -7.2670   21.3440 O   0  0  0  0  0  0  0  0  0  0  0  0
  -21.7060   -6.5720   22.5200 C   0  0  0  0  0  0  0  0  0  0  0  0
  -21.1820   -7.1750   23.6850 C   0  0  0  0  0  3  0  0  0  0  0  0
  -20.9930   -6.4060   24.8510 C   0  0  0  0  0  3  0  0  0  0  0  0
  -21.3180   -5.0370   24.8520 C   0  0  0  0  0  0  0  0  0  0  0  0
  -21.8360   -4.4340   23.6920 C   0  0  0  0  0  3  0  0  0  0  0  0
  -22.0260   -5.2000   22.5280 C   0  0  0  0  0  0  0  0  0  0  0  0
  -22.5050   -4.6090   21.4070 F   0  0  0  0  0  0  0  0  0  0  0  0
  -21.1310   -4.2970   25.9700 F   0  0  0  0  0  0  0  0  0  0  0  0
  -23.1050  -13.8740   21.1860 C   0  0  0  0  0  0  0  0  0  0  0  0
  -22.4180  -13.1900   22.0930 N   0  0  0  0  0  0  0  0  0  0  0  0
  -22.6590  -14.9100   20.6940 O   0  0  0  0  0  0  0  0  0  0  0  0
  -22.7940  -12.3530   22.5110 H   0  0  0  0  0  0  0  0  0  0  0  0
  -21.5010  -13.5110   22.3740 H   0  0  0  0  0  0  0  0  0  0  0  0
  -25.7190  -15.5070   20.2940 N   0  0  0  0  0  0  0  0  0  0  0  0
  -24.9730  -16.1720   20.4680 H   0  0  0  0  0  0  0  0  0  0  0  0
  -26.5500  -15.9360   19.9090 H   0  0  0  0  0  0  0  0  0  0  0  0
  -29.6650  -22.1090   23.7660 C   0  0  0  0  0  1  0  0  0  0  0  0
  -30.3100  -20.9970   22.9110 C   0  0  0  0  0  3  0  0  0  0  0  0
  -31.3780  -20.2900   23.7610 C   0  0  0  0  0  0  0  0  0  0  0  0
  -31.1060  -19.0700   24.2080 N   0  0  0  0  0  0  0  0  0  0  0  0
  -32.4440  -20.8410   24.0300 O   0  0  0  0  0  0  0  0  0  0  0  0
  -30.2190  -18.6310   24.0000 H   0  0  0  0  0  0  0  0  0  0  0  0
  -31.7760  -18.5740   24.7800 H   0  0  0  0  0  0  0  0  0  0  0  0
  -28.2510  -25.8220   19.7350 O   0  0  0  0  0  0  0  0  0  0  0  0
  -24.5230  -31.8180   22.9920 C   0  0  0  0  0  0  0  0  0  0  0  0
  -27.2000  -26.9640   19.7780 C   0  0  0  0  0  0  0  0  0  0  0  0
  -23.3840  -30.4800   21.2710 C   0  0  0  0  0  3  0  0  0  0  0  0
  -24.8820  -28.9380   19.7950 C   0  0  0  0  0  0  0  0  0  0  0  0
  -25.9580  -30.6880   21.1880 C   0  0  0  0  0  2  0  0  0  0  0  0
  -26.0600  -29.2910   20.4640 C   0  0  0  0  0  0  0  0  0  0  0  0
  -27.2010  -28.3320   20.4250 C   0  0  0  0  0  3  0  0  0  0  0  0
  -25.9870  -26.8220   19.0590 C   0  0  0  0  0  3  0  0  0  0  0  0
  -24.8830  -27.7310   19.0720 C   0  0  0  0  0  3  0  0  0  0  0  0
  -23.6550  -29.8600   19.8690 C   0  0  0  0  0  2  0  0  0  0  0  0
  -24.6450  -31.0270   21.8710 N   0  0  0  0  0  0  0  0  0  0  0  0
  -23.4180  -32.0660   23.5050 O   0  0  0  0  0  0  0  0  0  0  0  0
  -22.6820  -29.4380   22.1810 C   0  0  0  0  0  0  0  0  0  0  0  0
  -21.3430  -29.3160   22.0880 N   0  0  0  0  0  0  0  0  0  0  0  0
  -23.3520  -28.7380   22.9450 O   0  0  0  0  0  0  0  0  0  0  0  0
  -20.8530  -29.9310   21.4540 H   0  0  0  0  0  0  0  0  0  0  0  0
  -17.9450  -28.1720   22.6710 C   0  0  0  0  0  0  0  0  0  0  0  0
  -20.5240  -28.3330   22.8080 C   0  0  0  0  0  3  0  0  0  0  0  0
  -20.5390  -26.9640   22.0880 C   0  0  0  0  0  2  0  0  0  0  0  0
  -19.3730  -26.7830   21.1110 C   0  0  0  0  0  2  0  0  0  0  0  0
  -18.0350  -26.8990   21.8460 C   0  0  0  0  0  2  0  0  0  0  0  0
  -19.1120  -28.8540   23.1090 C   0  0  0  0  0  0  0  0  0  0  0  0
  -18.9680  -30.0480   23.8480 C   0  0  0  0  0  3  0  0  0  0  0  0
  -17.6920  -30.5600   24.1500 C   0  0  0  0  0  3  0  0  0  0  0  0
  -16.5410  -29.8750   23.7230 C   0  0  0  0  0  3  0  0  0  0  0  0
  -16.6690  -28.6820   22.9900 C   0  0  0  0  0  3  0  0  0  0  0  0
  -25.7650  -32.4610   23.6800 C   0  0  0  0  0  3  0  0  0  0  0  0
  -25.4170  -33.8470   24.0540 N   0  0  0  0  0  0  0  0  0  0  0  0
  -25.7320  -34.9400   23.3460 C   0  0  0  0  0  0  0  0  0  0  0  0
  -26.4010  -34.8900   22.3110 O   0  0  0  0  0  0  0  0  0  0  0  0
  -24.8190  -33.9570   24.8600 H   0  0  0  0  0  0  0  0  0  0  0  0
  -23.9700  -36.7250   23.0820 C   0  0  0  0  0  1  0  0  0  0  0  0
  -25.2260  -36.3050   23.8620 C   0  0  0  0  0  3  0  0  0  0  0  0
  -27.3470  -37.2080   24.7140 C   0  0  0  0  0  1  0  0  0  0  0  0
  -26.2400  -37.3810   23.7780 N   0  0  0  0  0  0  0  0  0  0  0  0
  -25.8170  -38.2890   23.9510 H   0  0  0  0  0  0  0  0  0  0  0  0
  -26.2420  -31.6680   24.9600 C   0  0  1  0  0  0  0  0  0  0  0  0
  -25.1190  -31.4160   25.9940 C   0  0  0  0  0  1  0  0  0  0  0  0
  -26.8350  -30.2940   24.5740 C   0  0  0  0  0  1  0  0  0  0  0  0
  -27.3750  -32.4490   25.6690 C   0  0  0  0  0  1  0  0  0  0  0  0
  1  2  2  0
  1  4  1  0
  2  6  1  0
  4  5  2  0
  5  3  1  0
  5  8  1  0
  6  3  2  0
  7 10  1  0
  8 51  1  0
  9 20  1  0
  9  4  1  0
  9  7  1  0
 10 11  1  0
 10  8  1  0
 12 18  1  0
 13 18  1  0
 14 15  1  0
 14 13  1  0
 16 15  1  0
 16 25  1  0
 16 17  1  0
 18 17  1  0
 19 12  2  0
 20 12  1  0
 20 21  1  0
 22 23  2  0
 23 42  1  0
 24 23  1  0
 24 27  1  0
 25 26  1  0
 25 22  1  0
 26 24  2  0
 27 28  1  0
 28 29  2  0
 30 33  1  0
 30 29  1  0
 31 30  2  0
 32 31  1  0
 32 27  2  0
 33 34  1  0
 34 39  2  0
 34 35  1  0
 35 36  2  0
 36 37  1  0
 37 41  1  0
 38 37  2  0
 39 38  1  0
 40 39  1  0
 42 43  1  0
 43 46  1  0
 43 45  1  0
 44 42  2  0
 47 22  1  0
 47 48  1  0
 49 47  1  0
 51 52  1  0
 51 50  1  0
 52 54  2  0
 52 53  1  0
 53 56  1  0
 55 53  1  0
 57 59  1  0
 57  6  1  0
 58 69  2  0
 59 64  1  0
 60 68  1  0
 60 70  1  0
 61 67  1  0
 61 63  1  0
 62 68  1  0
 63 62  1  0
 64 63  2  0
 65 66  1  0
 65 59  2  0
 66 61  2  0
 67 60  1  0
 68 58  1  0
 70 72  2  0
 71 70  1  0
 73 71  1  0
 74 83  2  0
 74 79  1  0
 75 71  1  0
 75 79  1  0
 76 75  1  0
 77 78  1  0
 77 76  1  0
 78 74  1  0
 79 80  2  0
 80 81  1  0
 82 81  2  0
 83 82  1  0
 84 58  1  0
 84 85  1  0
 84 94  1  0
 85 88  1  0
 86 90  1  0
 86 85  1  0
 87 86  2  0
 90 89  1  0
 92 90  1  0
 92 93  1  0
 92 91  1  0
 94 97  1  1
 94 95  1  0
 96 94  1  0
M  ISO  4   6 101  12 100  20 100  57 101
M  END
>  <TORSDO>  (41) 
F 18

>  <SCORE>  (41) 
-15.177

>  <name>  (41) 
40

>  <ligand_id>  (41) 
40

>  <original_smiles>  (41) 
[H]c1c([H])c([H])c2c(c1[H])C([H])([H])C([H])([H])C([H])([H])C2([H])N([H])C(=O)C1([H])N(C(=O)C([H])(N([H])C(=O)C([H])(N([H])C([H])([H])[H])C([H])([H])[H])C(C([H])([H])[H])(C([H])([H])[H])C([H])([H])[H])C([H])([H])c2c([H])c(Oc3c([H])c([H])c4c(c3[H])C([H])(C([H])(C(=O)N([H])[H])C([H])([H])[H])C([H])(C([H])([H])[H])C([H])([H])C4([H])N([H])C(=O)N3C([H])([H])C([H])([H])C([H])([H])C([H])(n4nc(-c5c([H])c([H])c(Oc6c([H])c([H])c(F)c([H])c6F)c([H])c5[H])c(C(=O)N([H])[H])c4N([H])[H])C3([H])[H])c([H])c([H])c2C1([H])[H]

>  <smiles>  (41) 
[H]c1c([H])c([H])c2c(c1[H])C([H])([H])C([H])([H])C([H])([H])C2([H])N([H])C(=O)C1([H])N(C(=O)C([H])(N([H])C(=O)C([H])(N([H])C([H])([H])[H])C([H])([H])[H])C(C([H])([H])[H])(C([H])([H])[H])C([H])([H])[H])C([H])([H])c2c([H])c(Oc3c([H])c([H])c4c(c3[H])C([H])(C([H])(C(=O)N([H])[H])C([H])([H])[H])C([H])(C([H])([H])[H])C([H])([H])C4([H])N([H])C(=O)N3C([H])([H])C([H])([H])C([H])([H])C([H])(n4nc(-c5c([H])c([H])c(Oc6c([H])c([H])c(F)c([H])c6F)c([H])c5[H])c(C(=O)N([H])[H])c4N([H])[H])C3([H])[H])c([H])c([H])c2C1([H])[H]

$$$$
41:0:0
     RDKit          3D

 93102  0  0  1  0  0  0  0  0999 V2000
  -27.7680  -22.6870   21.5140 C   0  0  0  0  0  3  0  0  0  0  0  0
  -27.3470  -23.7730   22.2900 C   0  0  0  0  0  3  0  0  0  0  0  0
  -28.6920  -24.2570   19.9000 C   0  0  0  0  0  3  0  0  0  0  0  0
  -28.4680  -22.8970   20.3220 C   0  0  0  0  0  0  0  0  0  0  0  0
  -27.6270  -25.1050   21.9180 C   0  0  0  0  0  0  0  0  0  0  0  0
  -28.2570  -25.3920   20.6620 C   0  0  0  0  0  0  0  0  0  0  0  0
  -27.2410  -26.1650   22.9310 C   0  0  0  0  0  1  0  0  0  0  0  0
  -28.4400  -26.7100   20.1870 O   0  0  0  0  0  0  0  0  0  0  0  0
  -24.6140  -31.9460   23.1910 C   0  0  0  0  0  0  0  0  0  0  0  0
  -27.3280  -27.5410   20.0920 C   0  0  0  0  0  0  0  0  0  0  0  0
  -23.4340  -30.5490   21.5230 C   0  0  0  0  0  3  0  0  0  0  0  0
  -24.9240  -29.0580   20.0580 C   0  0  0  0  0  0  0  0  0  0  0  0
  -25.9550  -30.9310   21.3500 C   0  0  0  0  0  2  0  0  0  0  0  0
  -26.0640  -29.5740   20.6920 C   0  0  0  0  0  0  0  0  0  0  0  0
  -27.2670  -28.8200   20.7130 C   0  0  0  0  0  3  0  0  0  0  0  0
  -26.1900  -27.0890   19.3920 C   0  0  0  0  0  3  0  0  0  0  0  0
  -24.9860  -27.8240   19.3900 C   0  0  0  0  0  3  0  0  0  0  0  0
  -23.6640  -29.8980   20.1290 C   0  0  0  0  0  2  0  0  0  0  0  0
  -24.6830  -31.1600   22.0800 N   0  0  0  0  0  0  0  0  0  0  0  0
  -23.5260  -32.1980   23.7310 O   0  0  0  0  0  0  0  0  0  0  0  0
  -22.7930  -29.5070   22.4700 C   0  0  0  0  0  0  0  0  0  0  0  0
  -21.4800  -29.2790   22.3050 N   0  0  0  0  0  0  0  0  0  0  0  0
  -23.4710  -28.9060   23.3030 O   0  0  0  0  0  0  0  0  0  0  0  0
  -20.9910  -29.8140   21.6000 H   0  0  0  0  0  0  0  0  0  0  0  0
  -18.1430  -27.9540   22.7210 C   0  0  0  0  0  0  0  0  0  0  0  0
  -20.6810  -28.3130   23.0620 C   0  0  0  0  0  3  0  0  0  0  0  0
  -20.8640  -26.8860   22.5020 C   0  0  0  0  0  2  0  0  0  0  0  0
  -19.8050  -26.4910   21.4670 C   0  0  0  0  0  2  0  0  0  0  0  0
  -18.3910  -26.6050   22.0540 C   0  0  0  0  0  2  0  0  0  0  0  0
  -19.2180  -28.7590   23.1890 C   0  0  0  0  0  0  0  0  0  0  0  0
  -18.9140  -30.0110   23.7770 C   0  0  0  0  0  3  0  0  0  0  0  0
  -17.5880  -30.4560   23.8980 C   0  0  0  0  0  3  0  0  0  0  0  0
  -16.5370  -29.6470   23.4460 C   0  0  0  0  0  3  0  0  0  0  0  0
  -16.8150  -28.4020   22.8560 C   0  0  0  0  0  3  0  0  0  0  0  0
  -25.8830  -32.5870   23.8260 C   0  0  0  0  0  3  0  0  0  0  0  0
  -25.5570  -33.9800   24.1520 N   0  0  0  0  0  0  0  0  0  0  0  0
  -25.8920  -35.0380   23.4000 C   0  0  0  0  0  0  0  0  0  0  0  0
  -26.5850  -34.9430   22.3840 O   0  0  0  0  0  0  0  0  0  0  0  0
  -24.9430  -34.1230   24.9380 H   0  0  0  0  0  0  0  0  0  0  0  0
  -24.1650  -36.8280   23.0170 C   0  0  0  0  0  1  0  0  0  0  0  0
  -25.3890  -36.4190   23.8540 C   0  0  0  0  0  3  0  0  0  0  0  0
  -27.4880  -37.3250   24.7530 C   0  0  0  0  0  1  0  0  0  0  0  0
  -26.4160  -37.4820   23.7730 N   0  0  0  0  0  0  0  0  0  0  0  0
  -25.9970  -38.3990   23.9110 H   0  0  0  0  0  0  0  0  0  0  0  0
  -26.3960  -31.8220   25.1100 C   0  0  1  0  0  0  0  0  0  0  0  0
  -25.2910  -31.5750   26.1620 C   0  0  0  0  0  1  0  0  0  0  0  0
  -27.0030  -30.4540   24.7260 C   0  0  0  0  0  1  0  0  0  0  0  0
  -27.5260  -32.6320   25.7890 C   0  0  0  0  0  1  0  0  0  0  0  0
  -28.8400  -21.6400   19.4810 C   0  0  0  0  0  2  0  0  0  0  0  0
  -30.4030  -19.6780   18.8240 C   0  0  0  0  0  2  0  0  0  0  0  0
  -29.4770  -19.6150   21.1650 C   0  0  0  0  0  2  0  0  0  0  0  0
  -29.9820  -18.1770   18.8960 C   0  0  0  0  0  2  0  0  0  0  0  0
  -30.4330  -18.3760   21.3670 C   0  0  0  0  0  2  0  0  0  0  0  0
  -29.9050  -20.5810   20.0040 C   0  0  0  0  0  3  0  0  0  0  0  0
  -30.6130  -17.4480   20.1190 C   0  0  0  0  0  3  0  0  0  0  0  0
  -30.8990  -14.8920   19.8750 C   0  0  0  0  0  0  0  0  0  0  0  0
  -30.6470  -12.6070   18.9460 C   0  0  0  0  0  2  0  0  0  0  0  0
  -29.6410  -12.6120   17.7760 C   0  0  0  0  0  2  0  0  0  0  0  0
  -28.2100  -12.4140   18.2990 C   0  0  0  0  0  2  0  0  0  0  0  0
  -27.8700  -13.3980   19.4500 C   0  0  0  0  0  3  0  0  0  0  0  0
  -28.9740  -13.3820   20.5350 C   0  0  0  0  0  2  0  0  0  0  0  0
  -30.2580  -13.6830   19.8840 N   0  0  0  0  0  0  0  0  0  0  0  0
  -32.0170  -15.0190   19.3640 O   0  0  0  0  0  0  0  0  0  0  0  0
  -30.2050  -16.0050   20.2890 N   0  0  0  0  0  0  0  0  0  0  0  0
  -29.3190  -15.8380   20.7390 H   0  0  0  0  0  0  0  0  0  0  0  0
  -25.5570  -14.0240   20.3770 C   0  0  0  0  0  0  0  0  0  0  0  0
  -24.5030  -13.2580   20.7980 C   0  0  0  0  0  0  0  0  0  0  0  0
  -24.9290  -11.9000   20.6780 C   0  0  0  0  0  0  0  0  0  0  0  0
  -26.5550  -13.1270   20.0230 N   0  0  0  0  0  0  0  0  0  0  0  0
  -26.1920  -11.8450   20.2700 N   0  0  0  0  0  0  0  0  0  0  0  0
  -24.1900  -10.6450   20.8660 C   0  0  0  0  0  0  0  0  0  0  0  0
  -24.5880   -9.6890   21.8250 C   0  0  0  0  0  3  0  0  0  0  0  0
  -23.8550   -8.4950   21.9990 C   0  0  0  0  0  3  0  0  0  0  0  0
  -22.7020   -8.2510   21.2130 C   0  0  0  0  0  0  0  0  0  0  0  0
  -22.3230   -9.1960   20.2390 C   0  0  0  0  0  3  0  0  0  0  0  0
  -23.0610  -10.3790   20.0670 C   0  0  0  0  0  3  0  0  0  0  0  0
  -21.9350   -7.1110   21.3050 O   0  0  0  0  0  0  0  0  0  0  0  0
  -21.7480   -6.4630   22.4980 C   0  0  0  0  0  0  0  0  0  0  0  0
  -21.1350   -7.0910   23.6050 C   0  0  0  0  0  3  0  0  0  0  0  0
  -20.8980   -6.3620   24.7890 C   0  0  0  0  0  3  0  0  0  0  0  0
  -21.2650   -5.0050   24.8650 C   0  0  0  0  0  0  0  0  0  0  0  0
  -21.8650   -4.3740   23.7620 C   0  0  0  0  0  3  0  0  0  0  0  0
  -22.1060   -5.1020   22.5820 C   0  0  0  0  0  0  0  0  0  0  0  0
  -22.6680   -4.4810   21.5150 F   0  0  0  0  0  0  0  0  0  0  0  0
  -21.0320   -4.3040   25.9990 F   0  0  0  0  0  0  0  0  0  0  0  0
  -23.1380  -13.7490   21.1910 C   0  0  0  0  0  0  0  0  0  0  0  0
  -22.4510  -13.0270   22.0700 N   0  0  0  0  0  0  0  0  0  0  0  0
  -22.6890  -14.8120   20.7540 O   0  0  0  0  0  0  0  0  0  0  0  0
  -22.8230  -12.1700   22.4450 H   0  0  0  0  0  0  0  0  0  0  0  0
  -21.5320  -13.3320   22.3670 H   0  0  0  0  0  0  0  0  0  0  0  0
  -25.7480  -15.3950   20.2400 N   0  0  0  0  0  0  0  0  0  0  0  0
  -25.0310  -16.0810   20.4440 H   0  0  0  0  0  0  0  0  0  0  0  0
  -26.6030  -15.8140   19.8890 H   0  0  0  0  0  0  0  0  0  0  0  0
  1  2  1  0
  3  4  1  0
  3  6  2  0
  4  1  2  0
  5  2  2  0
  5  7  1  0
  6  5  1  0
  8  6  1  0
  9 20  2  0
 10  8  1  0
 10 15  1  0
 11 19  1  0
 11 21  1  0
 12 18  1  0
 12 14  1  0
 13 19  1  0
 14 15  2  0
 14 13  1  0
 16 10  2  0
 17 16  1  0
 17 12  2  0
 18 11  1  0
 19  9  1  0
 21 23  2  0
 22 21  1  0
 24 22  1  0
 25 34  2  0
 25 30  1  0
 26 22  1  0
 26 30  1  0
 27 26  1  0
 28 29  1  0
 28 27  1  0
 29 25  1  0
 30 31  2  0
 31 32  1  0
 33 32  2  0
 34 33  1  0
 35  9  1  0
 35 36  1  0
 35 45  1  0
 36 39  1  0
 37 41  1  0
 37 36  1  0
 38 37  2  0
 41 40  1  0
 43 41  1  0
 43 44  1  0
 43 42  1  0
 45 48  1  1
 45 46  1  0
 47 45  1  0
 49  4  1  0
 50 52  1  0
 50 54  1  0
 51 53  1  0
 52 55  1  0
 54 49  1  0
 54 51  1  0
 55 64  1  0
 55 53  1  0
 56 62  1  0
 56 64  1  0
 57 62  1  0
 58 59  1  0
 58 57  1  0
 60 59  1  0
 60 69  1  0
 60 61  1  0
 62 61  1  0
 63 56  2  0
 64 65  1  0
 66 67  2  0
 67 86  1  0
 68 67  1  0
 68 71  1  0
 69 70  1  0
 69 66  1  0
 70 68  2  0
 71 72  1  0
 72 73  2  0
 74 77  1  0
 74 73  1  0
 75 74  2  0
 76 75  1  0
 76 71  2  0
 77 78  1  0
 78 83  2  0
 78 79  1  0
 79 80  2  0
 80 81  1  0
 81 85  1  0
 82 81  2  0
 83 82  1  0
 84 83  1  0
 86 87  1  0
 87 90  1  0
 87 89  1  0
 88 86  2  0
 91 66  1  0
 91 92  1  0
 93 91  1  0
M  ISO  4   6 101   8 101  56 100  64 100
M  END
>  <TORSDO>  (42) 
F 18

>  <SCORE>  (42) 
-13.965

>  <name>  (42) 
41

>  <ligand_id>  (42) 
41

>  <original_smiles>  (42) 
[H]c1c([H])c([H])c2c(c1[H])C([H])([H])C([H])([H])C([H])([H])C2([H])N([H])C(=O)C1([H])N(C(=O)C([H])(N([H])C(=O)C([H])(N([H])C([H])([H])[H])C([H])([H])[H])C(C([H])([H])[H])(C([H])([H])[H])C([H])([H])[H])C([H])([H])c2c([H])c(Oc3c([H])c(C([H])([H])C4([H])C([H])([H])C([H])([H])C([H])(N([H])C(=O)N5C([H])([H])C([H])([H])C([H])([H])C([H])(n6nc(-c7c([H])c([H])c(Oc8c([H])c([H])c(F)c([H])c8F)c([H])c7[H])c(C(=O)N([H])[H])c6N([H])[H])C5([H])[H])C([H])([H])C4([H])[H])c([H])c([H])c3C([H])([H])[H])c([H])c([H])c2C1([H])[H]

>  <smiles>  (42) 
[H]c1c([H])c([H])c2c(c1[H])C([H])([H])C([H])([H])C([H])([H])C2([H])N([H])C(=O)C1([H])N(C(=O)C([H])(N([H])C(=O)C([H])(N([H])C([H])([H])[H])C([H])([H])[H])C(C([H])([H])[H])(C([H])([H])[H])C([H])([H])[H])C([H])([H])c2c([H])c(Oc3c([H])c(C([H])([H])C4([H])C([H])([H])C([H])([H])C([H])(N([H])C(=O)N5C([H])([H])C([H])([H])C([H])([H])C([H])(n6nc(-c7c([H])c([H])c(Oc8c([H])c([H])c(F)c([H])c8F)c([H])c7[H])c(C(=O)N([H])[H])c6N([H])[H])C5([H])[H])C([H])([H])C4([H])[H])c([H])c([H])c3C([H])([H])[H])c([H])c([H])c2C1([H])[H]

$$$$
42:0:0
     RDKit          3D

 94103  0  0  1  0  0  0  0  0999 V2000
  -29.5880  -18.5840   22.0080 C   0  0  0  0  0  3  0  0  0  0  0  0
  -30.8040  -19.0520   22.5780 C   0  0  0  0  0  3  0  0  0  0  0  0
  -29.5580  -18.6100   20.6130 C   0  0  0  0  0  0  0  0  0  0  0  0
  -30.6530  -19.0590   19.8250 C   0  0  0  0  0  0  0  0  0  0  0  0
  -31.9150  -19.4970   21.7870 C   0  0  0  0  0  0  0  0  0  0  0  0
  -31.8610  -19.5050   20.3610 C   0  0  0  0  0  0  0  0  0  0  0  0
  -29.9400  -18.7710   18.5360 C   0  0  0  0  0  2  0  0  0  0  0  0
  -28.6880  -18.2570   19.4230 C   0  0  2  0  0  0  0  0  0  0  0  0
  -33.1790  -19.9520   22.4950 C   0  0  0  0  0  1  0  0  0  0  0  0
  -33.0150  -19.9440   19.4800 C   0  0  0  0  0  1  0  0  0  0  0  0
  -27.4970  -19.4070   19.3170 N   0  0  0  0  0  4  0  0  0  0  0  0
  -26.6750  -18.9770   19.7070 H   0  0  0  0  0  0  0  0  0  0  0  0
  -27.2980  -19.4900   18.3340 H   0  0  0  0  0  0  0  0  0  0  0  0
  -27.4640  -20.9500   19.9080 C   0  0  0  0  0  3  0  0  0  0  0  0
  -26.9270  -22.4680   19.1440 C   0  0  0  0  0  3  0  0  0  0  0  0
  -26.6570  -24.1060   19.7850 C   0  0  0  0  0  2  0  0  0  0  0  0
  -26.9280  -25.6270   19.2670 O   0  0  0  0  0  0  0  0  0  0  0  0
  -25.2450  -31.5000   23.6640 C   0  0  0  0  0  0  0  0  0  0  0  0
  -26.1640  -26.8440   19.6080 C   0  0  0  0  0  0  0  0  0  0  0  0
  -23.5320  -30.6760   22.0980 C   0  0  0  0  0  3  0  0  0  0  0  0
  -24.3500  -29.0870   20.2360 C   0  0  0  0  0  0  0  0  0  0  0  0
  -26.0280  -30.4080   21.5100 C   0  0  0  0  0  2  0  0  0  0  0  0
  -25.6810  -29.1500   20.6720 C   0  0  0  0  0  0  0  0  0  0  0  0
  -26.5860  -28.0560   20.3320 C   0  0  0  0  0  3  0  0  0  0  0  0
  -24.8270  -26.9210   19.1580 C   0  0  0  0  0  3  0  0  0  0  0  0
  -23.9450  -27.9890   19.4590 C   0  0  0  0  0  3  0  0  0  0  0  0
  -23.3900  -30.2080   20.6250 C   0  0  0  0  0  2  0  0  0  0  0  0
  -24.9690  -30.8730   22.4760 N   0  0  0  0  0  0  0  0  0  0  0  0
  -24.3430  -31.9050   24.4130 O   0  0  0  0  0  0  0  0  0  0  0  0
  -22.7860  -29.6850   23.0290 C   0  0  0  0  0  0  0  0  0  0  0  0
  -21.4670  -29.5130   22.8210 N   0  0  0  0  0  0  0  0  0  0  0  0
  -23.4010  -29.0720   23.9050 O   0  0  0  0  0  0  0  0  0  0  0  0
  -21.0260  -30.0590   22.0950 H   0  0  0  0  0  0  0  0  0  0  0  0
  -18.1890  -27.9630   22.8440 C   0  0  0  0  0  0  0  0  0  0  0  0
  -20.6010  -28.5790   23.5480 C   0  0  0  0  0  3  0  0  0  0  0  0
  -20.9600  -27.1120   23.2170 C   0  0  0  0  0  2  0  0  0  0  0  0
  -20.1270  -26.5330   22.0690 C   0  0  0  0  0  2  0  0  0  0  0  0
  -18.6360  -26.5760   22.4120 C   0  0  0  0  0  2  0  0  0  0  0  0
  -19.1140  -28.9090   23.3620 C   0  0  0  0  0  0  0  0  0  0  0  0
  -18.6490  -30.1930   23.7190 C   0  0  0  0  0  3  0  0  0  0  0  0
  -17.2930  -30.5370   23.5660 C   0  0  0  0  0  3  0  0  0  0  0  0
  -16.3800  -29.5930   23.0650 C   0  0  0  0  0  3  0  0  0  0  0  0
  -16.8280  -28.3080   22.7090 C   0  0  0  0  0  3  0  0  0  0  0  0
  -26.7110  -31.7520   24.1330 C   0  0  0  0  0  3  0  0  0  0  0  0
  -26.7650  -33.0940   24.7390 N   0  0  0  0  0  0  0  0  0  0  0  0
  -27.2670  -34.1850   24.1450 C   0  0  0  0  0  0  0  0  0  0  0  0
  -27.7940  -34.1530   23.0300 O   0  0  0  0  0  0  0  0  0  0  0  0
  -26.3000  -33.2040   25.6280 H   0  0  0  0  0  0  0  0  0  0  0  0
  -25.9990  -36.3510   24.3540 C   0  0  0  0  0  1  0  0  0  0  0  0
  -27.1720  -35.5240   24.9060 C   0  0  0  0  0  3  0  0  0  0  0  0
  -29.5180  -35.7400   25.6010 C   0  0  0  0  0  1  0  0  0  0  0  0
  -28.4140  -36.3260   24.8470 N   0  0  0  0  0  0  0  0  0  0  0  0
  -28.2520  -37.2660   25.2000 H   0  0  0  0  0  0  0  0  0  0  0  0
  -27.2280  -30.6700   25.1590 C   0  0  1  0  0  0  0  0  0  0  0  0
  -26.2840  -30.4520   26.3660 C   0  0  0  0  0  1  0  0  0  0  0  0
  -27.4240  -29.3020   24.4680 C   0  0  0  0  0  1  0  0  0  0  0  0
  -28.6130  -31.0880   25.7070 C   0  0  0  0  0  1  0  0  0  0  0  0
  -28.4890  -16.4950   19.4180 C   0  0  0  0  0  2  0  0  0  0  0  0
  -29.5690  -15.1360   19.5500 C   0  0  0  0  0  0  0  0  0  0  0  0
  -29.8130  -12.6470   18.9060 C   0  0  0  0  0  2  0  0  0  0  0  0
  -28.8140  -12.2600   17.7840 C   0  0  0  0  0  2  0  0  0  0  0  0
  -27.4480  -11.8670   18.3760 C   0  0  0  0  0  2  0  0  0  0  0  0
  -26.9810  -12.8620   19.4670 C   0  0  0  0  0  3  0  0  0  0  0  0
  -28.0970  -13.2080   20.4720 C   0  0  0  0  0  2  0  0  0  0  0  0
  -29.2190  -13.7720   19.7070 N   0  0  0  0  0  0  0  0  0  0  0  0
  -30.7590  -15.2880   19.2370 O   0  0  0  0  0  0  0  0  0  0  0  0
  -24.7020  -13.2210   20.5590 C   0  0  0  0  0  0  0  0  0  0  0  0
  -23.7510  -12.3550   21.0230 C   0  0  0  0  0  0  0  0  0  0  0  0
  -24.2950  -11.0440   20.8570 C   0  0  0  0  0  0  0  0  0  0  0  0
  -25.7540  -12.4340   20.1300 N   0  0  0  0  0  0  0  0  0  0  0  0
  -25.5320  -11.1160   20.3770 N   0  0  0  0  0  0  0  0  0  0  0  0
  -23.6830   -9.7260   21.0730 C   0  0  0  0  0  0  0  0  0  0  0  0
  -24.1540   -8.8450   22.0710 C   0  0  0  0  0  3  0  0  0  0  0  0
  -23.5340   -7.5930   22.2710 C   0  0  0  0  0  3  0  0  0  0  0  0
  -22.4290   -7.2110   21.4740 C   0  0  0  0  0  0  0  0  0  0  0  0
  -21.9790   -8.0820   20.4660 C   0  0  0  0  0  3  0  0  0  0  0  0
  -22.6010   -9.3260   20.2640 C   0  0  0  0  0  3  0  0  0  0  0  0
  -21.7810   -6.0050   21.5790 O   0  0  0  0  0  0  0  0  0  0  0  0
  -21.5900   -5.3930   22.7930 C   0  0  0  0  0  0  0  0  0  0  0  0
  -20.8210   -5.9900   23.8150 C   0  0  0  0  0  3  0  0  0  0  0  0
  -20.5930   -5.2970   25.0210 C   0  0  0  0  0  3  0  0  0  0  0  0
  -21.1230   -4.0070   25.2030 C   0  0  0  0  0  0  0  0  0  0  0  0
  -21.8860   -3.4080   24.1840 C   0  0  0  0  0  3  0  0  0  0  0  0
  -22.1150   -4.0990   22.9810 C   0  0  0  0  0  0  0  0  0  0  0  0
  -22.8310   -3.5090   21.9950 F   0  0  0  0  0  0  0  0  0  0  0  0
  -20.8990   -3.3380   26.3590 F   0  0  0  0  0  0  0  0  0  0  0  0
  -22.3750  -12.7190   21.4960 C   0  0  0  0  0  0  0  0  0  0  0  0
  -21.8160  -11.9390   22.4130 N   0  0  0  0  0  0  0  0  0  0  0  0
  -21.8050  -13.7310   21.0870 O   0  0  0  0  0  0  0  0  0  0  0  0
  -22.2910  -11.1200   22.7630 H   0  0  0  0  0  0  0  0  0  0  0  0
  -20.8980  -12.1620   22.7730 H   0  0  0  0  0  0  0  0  0  0  0  0
  -24.7500  -14.6060   20.4370 N   0  0  0  0  0  0  0  0  0  0  0  0
  -23.9620  -15.1950   20.6840 H   0  0  0  0  0  0  0  0  0  0  0  0
  -25.5080  -15.1190   20.0080 H   0  0  0  0  0  0  0  0  0  0  0  0
  1  2  1  0
  3  1  2  0
  4  6  2  0
  4  3  1  0
  5  9  1  0
  5  2  2  0
  6  5  1  0
  7  8  1  0
  7  4  1  0
  8 58  1  6
  8  3  1  0
 10  6  1  0
 11  8  1  0
 11 12  1  0
 11 14  1  0
 13 11  1  0
 15 16  1  0
 15 14  2  0
 17 19  1  0
 17 16  1  0
 18 29  2  0
 19 24  1  0
 20 28  1  0
 20 30  1  0
 21 27  1  0
 21 23  1  0
 22 28  1  0
 23 22  1  0
 24 23  2  0
 25 26  1  0
 25 19  2  0
 26 21  2  0
 27 20  1  0
 28 18  1  0
 30 32  2  0
 31 30  1  0
 33 31  1  0
 34 39  1  0
 35 31  1  0
 36 35  1  0
 37 38  1  0
 37 36  1  0
 38 34  1  0
 39 35  1  0
 39 40  2  0
 41 40  1  0
 42 41  2  0
 43 34  2  0
 43 42  1  0
 44 18  1  0
 44 45  1  0
 44 54  1  0
 45 48  1  0
 46 45  1  0
 46 50  1  0
 47 46  2  0
 50 49  1  0
 52 50  1  0
 52 53  1  0
 52 51  1  0
 54 57  1  1
 54 55  1  0
 56 54  1  0
 58 59  1  0
 59 65  1  0
 60 65  1  0
 61 62  1  0
 61 60  1  0
 63 62  1  0
 63 70  1  0
 63 64  1  0
 65 64  1  0
 66 59  2  0
 67 68  2  0
 68 87  1  0
 69 68  1  0
 69 72  1  0
 70 71  1  0
 70 67  1  0
 71 69  2  0
 72 73  1  0
 73 74  2  0
 75 78  1  0
 75 74  1  0
 76 75  2  0
 77 76  1  0
 77 72  2  0
 78 79  1  0
 79 84  2  0
 79 80  1  0
 80 81  2  0
 81 82  1  0
 82 86  1  0
 83 82  2  0
 84 83  1  0
 85 84  1  0
 87 88  1  0
 88 90  1  0
 88 91  1  0
 89 87  2  0
 92 67  1  0
 92 93  1  0
 94 92  1  0
M  ISO  4  16 101  17 101  58 100  59 100
M  END
>  <TORSDO>  (43) 
F 21

>  <SCORE>  (43) 
-10.446

>  <name>  (43) 
42

>  <ligand_id>  (43) 
42

>  <original_smiles>  (43) 
[H]c1c([H])c([H])c2c(c1[H])C([H])([H])C([H])([H])C([H])([H])C2([H])N([H])C(=O)C1([H])N(C(=O)C([H])(N([H])C(=O)C([H])(N([H])C([H])([H])[H])C([H])([H])[H])C(C([H])([H])[H])(C([H])([H])[H])C([H])([H])[H])C([H])([H])c2c([H])c(OC([H])([H])C([H])([H])C([H])([H])[N+]([H])([H])C3(C([H])([H])C(=O)N4C([H])([H])C([H])([H])C([H])([H])C([H])(n5nc(-c6c([H])c([H])c(Oc7c([H])c([H])c(F)c([H])c7F)c([H])c6[H])c(C(=O)N([H])[H])c5N([H])[H])C4([H])[H])c4c([H])c([H])c(C([H])([H])[H])c(C([H])([H])[H])c4C3([H])[H])c([H])c([H])c2C1([H])[H]

>  <smiles>  (43) 
[H]c1c([H])c([H])c2c(c1[H])C([H])([H])C([H])([H])C([H])([H])C2([H])N([H])C(=O)C1([H])N(C(=O)C([H])(N([H])C(=O)C([H])(N([H])C([H])([H])[H])C([H])([H])[H])C(C([H])([H])[H])(C([H])([H])[H])C([H])([H])[H])C([H])([H])c2c([H])c(OC([H])([H])C([H])([H])C([H])([H])[N+]([H])([H])C3(C([H])([H])C(=O)N4C([H])([H])C([H])([H])C([H])([H])C([H])(n5nc(-c6c([H])c([H])c(Oc7c([H])c([H])c(F)c([H])c7F)c([H])c6[H])c(C(=O)N([H])[H])c5N([H])[H])C4([H])[H])c4c([H])c([H])c(C([H])([H])[H])c(C([H])([H])[H])c4C3([H])[H])c([H])c([H])c2C1([H])[H]

$$$$
43:0:0
     RDKit          3D

 89 97  0  0  1  0  0  0  0  0999 V2000
  -27.2270  -22.8370   21.3840 C   0  0  0  0  0  3  0  0  0  0  0  0
  -27.4840  -24.2000   21.0860 C   0  0  0  0  0  3  0  0  0  0  0  0
  -29.3920  -23.3790   19.8620 C   0  0  0  0  0  3  0  0  0  0  0  0
  -28.0000  -21.7240   20.9450 C   0  0  0  0  0  0  0  0  0  0  0  0
  -29.1710  -21.8560   20.1460 C   0  0  0  0  0  0  0  0  0  0  0  0
  -28.5690  -24.6340   20.3010 C   0  0  0  0  0  0  0  0  0  0  0  0
  -27.4820  -20.3470   21.3260 C   0  0  0  0  0  1  0  0  0  0  0  0
  -28.6970  -26.1750   20.1540 O   0  0  0  0  0  0  0  0  0  0  0  0
  -24.8910  -31.9710   23.3500 C   0  0  0  0  0  0  0  0  0  0  0  0
  -27.6550  -27.2610   20.2000 C   0  0  0  0  0  0  0  0  0  0  0  0
  -23.7780  -30.6130   21.6240 C   0  0  0  0  0  3  0  0  0  0  0  0
  -25.3070  -29.1020   20.1770 C   0  0  0  0  0  0  0  0  0  0  0  0
  -26.3420  -30.8860   21.5560 C   0  0  0  0  0  2  0  0  0  0  0  0
  -26.4680  -29.5030   20.8490 C   0  0  0  0  0  0  0  0  0  0  0  0
  -27.6360  -28.6040   20.8370 C   0  0  0  0  0  3  0  0  0  0  0  0
  -26.4600  -27.0270   19.4810 C   0  0  0  0  0  3  0  0  0  0  0  0
  -25.3280  -27.8850   19.4760 C   0  0  0  0  0  3  0  0  0  0  0  0
  -24.0670  -29.9940   20.2280 C   0  0  0  0  0  2  0  0  0  0  0  0
  -25.0240  -31.1830   22.2320 N   0  0  0  0  0  0  0  0  0  0  0  0
  -23.7820  -32.2100   23.8540 O   0  0  0  0  0  0  0  0  0  0  0  0
  -23.0870  -29.5600   22.5290 C   0  0  0  0  0  0  0  0  0  0  0  0
  -21.7680  -29.3530   22.3520 N   0  0  0  0  0  0  0  0  0  0  0  0
  -23.7460  -28.9320   23.3620 O   0  0  0  0  0  0  0  0  0  0  0  0
  -21.2880  -29.9070   21.6550 H   0  0  0  0  0  0  0  0  0  0  0  0
  -18.4230  -27.9810   22.6910 C   0  0  0  0  0  0  0  0  0  0  0  0
  -20.9560  -28.3570   23.0610 C   0  0  0  0  0  3  0  0  0  0  0  0
  -21.1500  -26.9490   22.4500 C   0  0  0  0  0  2  0  0  0  0  0  0
  -20.1000  -26.6000   21.3890 C   0  0  0  0  0  2  0  0  0  0  0  0
  -18.6900  -26.6640   21.9830 C   0  0  0  0  0  2  0  0  0  0  0  0
  -19.4870  -28.7830   23.1840 C   0  0  0  0  0  0  0  0  0  0  0  0
  -19.1820  -30.0120   23.8090 C   0  0  0  0  0  3  0  0  0  0  0  0
  -17.8480  -30.4410   23.9420 C   0  0  0  0  0  3  0  0  0  0  0  0
  -16.7990  -29.6360   23.4640 C   0  0  0  0  0  3  0  0  0  0  0  0
  -17.0870  -28.4080   22.8460 C   0  0  0  0  0  3  0  0  0  0  0  0
  -26.1260  -32.6240   24.0390 C   0  0  0  0  0  3  0  0  0  0  0  0
  -25.7770  -34.0160   24.3740 N   0  0  0  0  0  0  0  0  0  0  0  0
  -26.1430  -35.0930   23.6650 C   0  0  0  0  0  0  0  0  0  0  0  0
  -26.8680  -35.0190   22.6720 O   0  0  0  0  0  0  0  0  0  0  0  0
  -25.1330  -34.1470   25.1400 H   0  0  0  0  0  0  0  0  0  0  0  0
  -24.4190  -36.8890   23.2680 C   0  0  0  0  0  1  0  0  0  0  0  0
  -25.6220  -36.4710   24.1290 C   0  0  0  0  0  3  0  0  0  0  0  0
  -27.7050  -37.3590   25.0830 C   0  0  0  0  0  1  0  0  0  0  0  0
  -26.6510  -37.5330   24.0870 N   0  0  0  0  0  0  0  0  0  0  0  0
  -26.2310  -38.4480   24.2310 H   0  0  0  0  0  0  0  0  0  0  0  0
  -26.5850  -31.8540   25.3400 C   0  0  1  0  0  0  0  0  0  0  0  0
  -25.4360  -31.5830   26.3400 C   0  0  0  0  0  1  0  0  0  0  0  0
  -27.2240  -30.4930   24.9840 C   0  0  0  0  0  1  0  0  0  0  0  0
  -27.6750  -32.6700   26.0750 C   0  0  0  0  0  1  0  0  0  0  0  0
  -29.8810  -20.3350   19.5410 C   0  0  0  0  0  2  0  0  0  0  0  0
  -31.9340  -19.0170   20.6810 C   0  0  0  0  0  1  0  0  0  0  0  0
  -30.4830  -18.7550   20.2550 C   0  0  0  0  0  0  0  0  0  0  0  0
  -31.1000  -15.8040   19.8000 C   0  0  0  0  0  0  0  0  0  0  0  0
  -31.0190  -13.3430   18.9120 C   0  0  0  0  0  2  0  0  0  0  0  0
  -30.0440  -13.0820   17.7370 C   0  0  0  0  0  2  0  0  0  0  0  0
  -28.6180  -12.8290   18.2510 C   0  0  0  0  0  2  0  0  0  0  0  0
  -28.2190  -13.8260   19.3660 C   0  0  0  0  0  3  0  0  0  0  0  0
  -29.3170  -13.9970   20.4350 C   0  0  0  0  0  2  0  0  0  0  0  0
  -30.5050  -14.5060   19.7280 N   0  0  0  0  0  0  0  0  0  0  0  0
  -32.3310  -15.7530   19.6420 O   0  0  0  0  0  0  0  0  0  0  0  0
  -30.3520  -17.1070   19.8460 N   0  0  0  0  0  4  0  0  0  0  0  0
  -29.3750  -16.8850   19.7220 H   0  0  0  0  0  0  0  0  0  0  0  0
  -25.9020  -14.4340   20.2330 C   0  0  0  0  0  0  0  0  0  0  0  0
  -24.8380  -13.6770   20.6390 C   0  0  0  0  0  0  0  0  0  0  0  0
  -25.2720  -12.3170   20.5780 C   0  0  0  0  0  0  0  0  0  0  0  0
  -26.9120  -13.5360   19.9370 N   0  0  0  0  0  0  0  0  0  0  0  0
  -26.5480  -12.2560   20.2140 N   0  0  0  0  0  0  0  0  0  0  0  0
  -24.5220  -11.0700   20.7820 C   0  0  0  0  0  0  0  0  0  0  0  0
  -24.9100  -10.1240   21.7560 C   0  0  0  0  0  3  0  0  0  0  0  0
  -24.1560   -8.9450   21.9490 C   0  0  0  0  0  3  0  0  0  0  0  0
  -23.0020   -8.7050   21.1670 C   0  0  0  0  0  0  0  0  0  0  0  0
  -22.6350   -9.6380   20.1810 C   0  0  0  0  0  3  0  0  0  0  0  0
  -23.3900  -10.8070   19.9870 C   0  0  0  0  0  3  0  0  0  0  0  0
  -22.2240   -7.5770   21.2680 O   0  0  0  0  0  0  0  0  0  0  0  0
  -22.0460   -6.9300   22.4640 C   0  0  0  0  0  0  0  0  0  0  0  0
  -21.4920   -7.5800   23.5890 C   0  0  0  0  0  3  0  0  0  0  0  0
  -21.2620   -6.8590   24.7770 C   0  0  0  0  0  3  0  0  0  0  0  0
  -21.5770   -5.4890   24.8430 C   0  0  0  0  0  0  0  0  0  0  0  0
  -22.1250   -4.8380   23.7230 C   0  0  0  0  0  3  0  0  0  0  0  0
  -22.3560   -5.5570   22.5360 C   0  0  0  0  0  0  0  0  0  0  0  0
  -22.8640   -4.9200   21.4540 F   0  0  0  0  0  0  0  0  0  0  0  0
  -21.3500   -4.7930   25.9810 F   0  0  0  0  0  0  0  0  0  0  0  0
  -23.4640  -14.1830   20.9650 C   0  0  0  0  0  0  0  0  0  0  0  0
  -22.7610  -13.5030   21.8630 N   0  0  0  0  0  0  0  0  0  0  0  0
  -23.0280  -15.2160   20.4590 O   0  0  0  0  0  0  0  0  0  0  0  0
  -23.1300  -12.6660   22.2900 H   0  0  0  0  0  0  0  0  0  0  0  0
  -21.8390  -13.8210   22.1280 H   0  0  0  0  0  0  0  0  0  0  0  0
  -26.0870  -15.8030   20.0570 N   0  0  0  0  0  0  0  0  0  0  0  0
  -25.3390  -16.4720   20.2020 H   0  0  0  0  0  0  0  0  0  0  0  0
  -26.9160  -16.2220   19.6570 H   0  0  0  0  0  0  0  0  0  0  0  0
  2  1  1  0
  3  5  2  0
  3  6  1  0
  4  7  1  0
  4  1  2  0
  5  4  1  0
  6  2  2  0
  8 10  1  0
  8  6  1  0
  9 20  2  0
 10 15  1  0
 11 19  1  0
 11 21  1  0
 12 18  1  0
 12 14  1  0
 13 19  1  0
 14 13  1  0
 15 14  2  0
 16 10  2  0
 17 16  1  0
 17 12  2  0
 18 11  1  0
 19  9  1  0
 21 23  2  0
 22 21  1  0
 24 22  1  0
 25 34  2  0
 25 30  1  0
 26 22  1  0
 26 30  1  0
 27 26  1  0
 28 29  1  0
 28 27  1  0
 29 25  1  0
 30 31  2  0
 31 32  1  0
 33 32  2  0
 34 33  1  0
 35  9  1  0
 35 36  1  0
 35 45  1  0
 36 39  1  0
 37 41  1  0
 37 36  1  0
 38 37  2  0
 41 40  1  0
 43 41  1  0
 43 44  1  0
 43 42  1  0
 45 48  1  1
 45 46  1  0
 47 45  1  0
 49  5  1  0
 49 51  1  0
 51 50  1  0
 52 60  1  0
 53 58  1  0
 54 55  1  0
 54 53  1  0
 56 55  1  0
 56 65  1  0
 56 57  1  0
 58 52  1  0
 58 57  1  0
 59 52  2  0
 60 51  2  0
 61 60  1  0
 62 63  2  0
 63 82  1  0
 64 63  1  0
 64 67  1  0
 65 66  1  0
 65 62  1  0
 66 64  2  0
 67 68  1  0
 68 69  2  0
 70 73  1  0
 70 69  1  0
 71 70  2  0
 72 71  1  0
 72 67  2  0
 73 74  1  0
 74 79  2  0
 74 75  1  0
 75 76  2  0
 76 77  1  0
 77 81  1  0
 78 77  2  0
 79 78  1  0
 80 79  1  0
 82 83  1  0
 83 86  1  0
 83 85  1  0
 84 82  2  0
 87 88  1  0
 87 62  1  0
 89 87  1  0
M  ISO  4   6 101   8 101  52 100  60 100
M  END
>  <TORSDO>  (44) 
F 18

>  <SCORE>  (44) 
-12.678

>  <name>  (44) 
43

>  <ligand_id>  (44) 
43

>  <original_smiles>  (44) 
[H]c1c([H])c([H])c2c(c1[H])C([H])([H])C([H])([H])C([H])([H])C2([H])N([H])C(=O)C1([H])N(C(=O)C([H])(N([H])C(=O)C([H])(N([H])C([H])([H])[H])C([H])([H])[H])C(C([H])([H])[H])(C([H])([H])[H])C([H])([H])[H])C([H])([H])c2c([H])c(Oc3c([H])c([H])c(C([H])([H])[H])c(C([H])([H])C([H])(N([H])C(=O)N4C([H])([H])C([H])([H])C([H])([H])C([H])(n5nc(-c6c([H])c([H])c(Oc7c([H])c([H])c(F)c([H])c7F)c([H])c6[H])c(C(=O)N([H])[H])c5N([H])[H])C4([H])[H])C([H])([H])[H])c3[H])c([H])c([H])c2C1([H])[H]

>  <smiles>  (44) 
[H]c1c([H])c([H])c2c(c1[H])C([H])([H])C([H])([H])C([H])([H])C2([H])N([H])C(=O)C1([H])N(C(=O)C([H])(N([H])C(=O)C([H])(N([H])C([H])([H])[H])C([H])([H])[H])C(C([H])([H])[H])(C([H])([H])[H])C([H])([H])[H])C([H])([H])c2c([H])c(Oc3c([H])c([H])c(C([H])([H])[H])c(C([H])([H])C([H])(N([H])C(=O)N4C([H])([H])C([H])([H])C([H])([H])C([H])(n5nc(-c6c([H])c([H])c(Oc7c([H])c([H])c(F)c([H])c7F)c([H])c6[H])c(C(=O)N([H])[H])c5N([H])[H])C4([H])[H])C([H])([H])[H])c3[H])c([H])c([H])c2C1([H])[H]

$$$$
44:0:0
     RDKit          3D

 95104  0  0  1  0  0  0  0  0999 V2000
  -27.9600  -25.2290   19.2570 C   0  0  0  0  0  3  0  0  0  0  0  0
  -28.6940  -24.3740   20.1160 C   0  0  0  0  0  0  0  0  0  0  0  0
  -31.4920  -26.1120   22.0000 C   0  0  0  0  0  3  0  0  0  0  0  0
  -30.7790  -25.4600   20.9750 C   0  0  0  0  0  3  0  0  0  0  0  0
  -30.8520  -26.4350   23.2120 C   0  0  0  0  0  3  0  0  0  0  0  0
  -28.7840  -25.4530   22.3720 C   0  0  0  0  0  3  0  0  0  0  0  0
  -29.4220  -25.1260   21.1530 C   0  0  0  0  0  0  0  0  0  0  0  0
  -29.4970  -26.1000   23.4060 C   0  0  0  0  0  0  0  0  0  0  0  0
  -28.8170  -26.4040   24.7270 C   0  0  0  0  0  1  0  0  0  0  0  0
  -29.6430  -22.1670   21.3110 C   0  0  0  0  0  3  0  0  0  0  0  0
  -28.6560  -21.7490   19.2280 C   0  0  0  0  0  3  0  0  0  0  0  0
  -30.0350  -20.7770   21.4400 C   0  0  0  0  0  3  0  0  0  0  0  0
  -29.0580  -20.3480   19.3500 C   0  0  0  0  0  3  0  0  0  0  0  0
  -28.9540  -22.7760   20.1930 C   0  0  0  0  0  0  0  0  0  0  0  0
  -29.7920  -19.7760   20.4530 C   0  0  0  0  0  0  0  0  0  0  0  0
  -30.5510  -18.3100   20.4200 C   0  0  0  0  0  2  0  0  0  0  0  0
  -30.8470  -15.6720   20.8090 C   0  0  0  0  0  0  0  0  0  0  0  0
  -30.8080  -13.2960   19.9620 C   0  0  0  0  0  2  0  0  0  0  0  0
  -30.0020  -13.2220   18.6450 C   0  0  0  0  0  2  0  0  0  0  0  0
  -28.5040  -13.0250   18.9390 C   0  0  0  0  0  2  0  0  0  0  0  0
  -27.9840  -13.9780   20.0470 C   0  0  0  0  0  3  0  0  0  0  0  0
  -28.9260  -14.0310   21.2690 C   0  0  0  0  0  2  0  0  0  0  0  0
  -30.2510  -14.4180   20.7680 N   0  0  0  0  0  0  0  0  0  0  0  0
  -32.0680  -15.7240   20.6220 O   0  0  0  0  0  0  0  0  0  0  0  0
  -30.0830  -16.8680   20.8170 N   0  0  0  0  0  0  0  0  0  0  0  0
  -29.0900  -16.7510   20.9550 H   0  0  0  0  0  0  0  0  0  0  0  0
  -25.5500  -14.5530   20.6000 C   0  0  0  0  0  0  0  0  0  0  0  0
  -24.4570  -13.7760   20.8640 C   0  0  0  0  0  0  0  0  0  0  0  0
  -24.9170  -12.4230   20.8400 C   0  0  0  0  0  0  0  0  0  0  0  0
  -26.6070  -13.6760   20.4270 N   0  0  0  0  0  0  0  0  0  0  0  0
  -26.2290  -12.3880   20.6390 N   0  0  0  0  0  0  0  0  0  0  0  0
  -24.1720  -11.1600   20.9400 C   0  0  0  0  0  0  0  0  0  0  0  0
  -24.5250  -10.1650   21.8760 C   0  0  0  0  0  3  0  0  0  0  0  0
  -23.7790   -8.9690   21.9660 C   0  0  0  0  0  3  0  0  0  0  0  0
  -22.6670   -8.7610   21.1140 C   0  0  0  0  0  0  0  0  0  0  0  0
  -22.3360   -9.7450   20.1670 C   0  0  0  0  0  3  0  0  0  0  0  0
  -23.0830  -10.9310   20.0760 C   0  0  0  0  0  3  0  0  0  0  0  0
  -21.9010   -7.6200   21.1140 O   0  0  0  0  0  0  0  0  0  0  0  0
  -21.7230   -6.8710   22.2490 C   0  0  0  0  0  0  0  0  0  0  0  0
  -21.1460   -7.4150   23.4180 C   0  0  0  0  0  3  0  0  0  0  0  0
  -20.9170   -6.5920   24.5390 C   0  0  0  0  0  3  0  0  0  0  0  0
  -21.2540   -5.2260   24.4900 C   0  0  0  0  0  0  0  0  0  0  0  0
  -21.8220   -4.6810   23.3260 C   0  0  0  0  0  3  0  0  0  0  0  0
  -22.0530   -5.5020   22.2070 C   0  0  0  0  0  0  0  0  0  0  0  0
  -22.5810   -4.9670   21.0800 F   0  0  0  0  0  0  0  0  0  0  0  0
  -21.0270   -4.4340   25.5650 F   0  0  0  0  0  0  0  0  0  0  0  0
  -23.0430  -14.2530   21.0260 C   0  0  0  0  0  0  0  0  0  0  0  0
  -22.2460  -13.5520   21.8230 N   0  0  0  0  0  0  0  0  0  0  0  0
  -22.6520  -15.2860   20.4840 O   0  0  0  0  0  0  0  0  0  0  0  0
  -22.5720  -12.7150   22.2830 H   0  0  0  0  0  0  0  0  0  0  0  0
  -21.2940  -13.8570   21.9760 H   0  0  0  0  0  0  0  0  0  0  0  0
  -25.7320  -15.9270   20.4660 N   0  0  0  0  0  0  0  0  0  0  0  0
  -24.9580  -16.5810   20.5240 H   0  0  0  0  0  0  0  0  0  0  0  0
  -26.5970  -16.3670   20.1830 H   0  0  0  0  0  0  0  0  0  0  0  0
  -27.9610  -26.6970   19.2010 O   0  0  0  0  0  0  0  0  0  0  0  0
  -24.3150  -31.8290   22.9660 C   0  0  0  0  0  0  0  0  0  0  0  0
  -26.8280  -27.5790   19.2850 C   0  0  0  0  0  0  0  0  0  0  0  0
  -23.0310  -30.4970   21.3330 C   0  0  0  0  0  3  0  0  0  0  0  0
  -24.4110  -29.1490   19.6320 C   0  0  0  0  0  0  0  0  0  0  0  0
  -25.5310  -30.9520   20.9390 C   0  0  0  0  0  2  0  0  0  0  0  0
  -25.6150  -29.6280   20.1590 C   0  0  0  0  0  0  0  0  0  0  0  0
  -26.8190  -28.8570   19.9720 C   0  0  0  0  0  3  0  0  0  0  0  0
  -25.5910  -27.1990   18.7230 C   0  0  0  0  0  3  0  0  0  0  0  0
  -24.4080  -27.9510   18.9010 C   0  0  0  0  0  3  0  0  0  0  0  0
  -23.1430  -29.9500   19.8850 C   0  0  0  0  0  2  0  0  0  0  0  0
  -24.3160  -31.1120   21.8000 N   0  0  0  0  0  0  0  0  0  0  0  0
  -23.2760  -31.9920   23.6260 O   0  0  0  0  0  0  0  0  0  0  0  0
  -22.5180  -29.3700   22.2640 C   0  0  0  0  0  0  0  0  0  0  0  0
  -21.2160  -29.0440   22.1720 N   0  0  0  0  0  0  0  0  0  0  0  0
  -23.2930  -28.7890   23.0270 O   0  0  0  0  0  0  0  0  0  0  0  0
  -20.6400  -29.5710   21.5320 H   0  0  0  0  0  0  0  0  0  0  0  0
  -18.0620  -27.3160   22.6100 C   0  0  0  0  0  0  0  0  0  0  0  0
  -20.5440  -27.9760   22.9200 C   0  0  0  0  0  3  0  0  0  0  0  0
  -20.8780  -26.5850   22.3340 C   0  0  0  0  0  2  0  0  0  0  0  0
  -19.8570  -26.1080   21.2970 C   0  0  0  0  0  2  0  0  0  0  0  0
  -18.4620  -26.0220   21.9210 C   0  0  0  0  0  2  0  0  0  0  0  0
  -19.0390  -28.2410   23.0650 C   0  0  0  0  0  0  0  0  0  0  0  0
  -18.6130  -29.4440   23.6700 C   0  0  0  0  0  3  0  0  0  0  0  0
  -17.2420  -29.7290   23.8200 C   0  0  0  0  0  3  0  0  0  0  0  0
  -16.2800  -28.8030   23.3840 C   0  0  0  0  0  3  0  0  0  0  0  0
  -16.6910  -27.5970   22.7860 C   0  0  0  0  0  3  0  0  0  0  0  0
  -25.6130  -32.4960   23.5150 C   0  0  0  0  0  3  0  0  0  0  0  0
  -26.2740  -31.6850   24.6970 C   0  0  1  0  0  0  0  0  0  0  0  0
  -25.2920  -31.3370   25.8420 C   0  0  0  0  0  1  0  0  0  0  0  0
  -26.8790  -30.3600   24.1820 C   0  0  0  0  0  1  0  0  0  0  0  0
  -27.4460  -32.4960   25.3000 C   0  0  0  0  0  1  0  0  0  0  0  0
  -25.2690  -33.8550   23.9590 N   0  0  0  0  0  0  0  0  0  0  0  0
  -25.5650  -34.9770   23.2870 C   0  0  0  0  0  0  0  0  0  0  0  0
  -26.2230  -34.9760   22.2430 O   0  0  0  0  0  0  0  0  0  0  0  0
  -24.6840  -33.9270   24.7790 H   0  0  0  0  0  0  0  0  0  0  0  0
  -23.8060  -36.7640   23.0800 C   0  0  0  0  0  1  0  0  0  0  0  0
  -25.0480  -36.3110   23.8640 C   0  0  0  0  0  3  0  0  0  0  0  0
  -27.1610  -37.1550   24.7880 C   0  0  0  0  0  1  0  0  0  0  0  0
  -26.0620  -37.3900   23.8560 N   0  0  0  0  0  0  0  0  0  0  0  0
  -25.6370  -38.2840   24.0890 H   0  0  0  0  0  0  0  0  0  0  0  0
  1  2  2  0
  2 14  1  0
  2  7  1  0
  3  5  1  0
  4  7  1  0
  4  3  2  0
  5  8  2  0
  6  8  1  0
  7  6  2  0
  8  9  1  0
 10 12  1  0
 11 13  2  0
 11 14  1  0
 13 15  1  0
 14 10  2  0
 15 12  2  0
 16 15  1  0
 16 25  1  0
 17 25  1  0
 18 23  1  0
 19 20  1  0
 19 18  1  0
 21 20  1  0
 21 30  1  0
 21 22  1  0
 23 17  1  0
 23 22  1  0
 24 17  2  0
 25 26  1  0
 27 28  2  0
 28 47  1  0
 29 28  1  0
 29 32  1  0
 30 27  1  0
 30 31  1  0
 31 29  2  0
 32 33  1  0
 33 34  2  0
 35 34  1  0
 36 35  2  0
 37 36  1  0
 37 32  2  0
 38 35  1  0
 38 39  1  0
 39 40  1  0
 40 41  2  0
 42 41  1  0
 42 46  1  0
 43 42  2  0
 44 39  2  0
 44 43  1  0
 45 44  1  0
 47 48  1  0
 48 51  1  0
 48 50  1  0
 49 47  2  0
 52 53  1  0
 52 27  1  0
 54 52  1  0
 55  1  1  0
 55 57  1  0
 56 67  2  0
 57 62  1  0
 58 66  1  0
 58 68  1  0
 59 65  1  0
 59 61  1  0
 60 66  1  0
 61 60  1  0
 62 61  2  0
 63 64  1  0
 63 57  2  0
 64 59  2  0
 65 58  1  0
 66 56  1  0
 68 70  2  0
 69 68  1  0
 71 69  1  0
 72 81  2  0
 72 77  1  0
 73 69  1  0
 73 77  1  0
 74 73  1  0
 75 76  1  0
 75 74  1  0
 76 72  1  0
 77 78  2  0
 78 79  1  0
 80 79  2  0
 81 80  1  0
 82 56  1  0
 82 87  1  0
 82 83  1  0
 83 86  1  1
 83 84  1  0
 85 83  1  0
 87 90  1  0
 88 92  1  0
 88 87  1  0
 89 88  2  0
 92 91  1  0
 94 92  1  0
 94 95  1  0
 94 93  1  0
M  ISO  4   1 101  17 100  25 100  55 101
M  END
>  <TORSDO>  (45) 
F 19

>  <SCORE>  (45) 
-11.446

>  <name>  (45) 
44

>  <ligand_id>  (45) 
44

>  <original_smiles>  (45) 
[H]C(Oc1c([H])c([H])c2c(c1[H])C([H])([H])N(C(=O)C([H])(N([H])C(=O)C([H])(N([H])C([H])([H])[H])C([H])([H])[H])C(C([H])([H])[H])(C([H])([H])[H])C([H])([H])[H])C([H])(C(=O)N([H])C1([H])c3c([H])c([H])c([H])c([H])c3C([H])([H])C([H])([H])C1([H])[H])C2([H])[H])=C(c1c([H])c([H])c(C([H])([H])N([H])C(=O)N2C([H])([H])C([H])([H])C([H])([H])C([H])(n3nc(-c4c([H])c([H])c(Oc5c([H])c([H])c(F)c([H])c5F)c([H])c4[H])c(C(=O)N([H])[H])c3N([H])[H])C2([H])[H])c([H])c1[H])c1c([H])c([H])c([H])c(C([H])([H])[H])c1[H]

>  <smiles>  (45) 
[H]C(Oc1c([H])c([H])c2c(c1[H])C([H])([H])N(C(=O)C([H])(N([H])C(=O)C([H])(N([H])C([H])([H])[H])C([H])([H])[H])C(C([H])([H])[H])(C([H])([H])[H])C([H])([H])[H])C([H])(C(=O)N([H])C1([H])c3c([H])c([H])c([H])c([H])c3C([H])([H])C([H])([H])C1([H])[H])C2([H])[H])=C(c1c([H])c([H])c(C([H])([H])N([H])C(=O)N2C([H])([H])C([H])([H])C([H])([H])C([H])(n3nc(-c4c([H])c([H])c(Oc5c([H])c([H])c(F)c([H])c5F)c([H])c4[H])c(C(=O)N([H])[H])c3N([H])[H])C2([H])[H])c([H])c1[H])c1c([H])c([H])c([H])c(C([H])([H])[H])c1[H]

$$$$
45:0:0
     RDKit          3D

 94103  0  0  1  0  0  0  0  0999 V2000
  -31.7070  -23.5280   19.8910 C   0  0  0  0  0  3  0  0  0  0  0  0
  -31.2710  -22.2610   20.3340 C   0  0  0  0  0  3  0  0  0  0  0  0
  -28.9740  -23.0490   20.3110 C   0  0  0  0  0  3  0  0  0  0  0  0
  -30.7770  -24.5490   19.6110 C   0  0  0  0  0  0  0  0  0  0  0  0
  -29.4050  -24.3260   19.8490 C   0  0  0  0  0  0  0  0  0  0  0  0
  -29.8970  -21.9910   20.5260 C   0  0  0  0  0  0  0  0  0  0  0  0
  -31.2160  -25.8660   18.9780 C   0  0  0  0  0  2  0  0  0  0  0  0
  -30.2360  -26.3950   17.8970 C   0  0  0  0  0  2  0  0  0  0  0  0
  -28.8210  -25.7690   17.9320 C   0  0  0  0  0  2  0  0  0  0  0  0
  -28.4060  -25.3820   19.3630 C   0  0  0  0  0  3  0  0  0  0  0  0
  -29.4380  -20.7000   20.8910 N   0  0  0  0  0  0  0  0  0  0  0  0
  -28.4380  -20.5460   20.9990 H   0  0  0  0  0  0  0  0  0  0  0  0
  -30.3170  -19.5200   20.8080 C   0  0  0  0  0  2  0  0  0  0  0  0
  -29.5910  -18.1430   20.9210 C   0  0  0  0  0  2  0  0  0  0  0  0
  -30.5640  -16.9550   20.6860 C   0  0  0  0  0  2  0  0  0  0  0  0
  -30.6880  -14.4890   20.4600 C   0  0  0  0  0  0  0  0  0  0  0  0
  -30.3530  -12.3240   19.3400 C   0  0  0  0  0  2  0  0  0  0  0  0
  -29.4170  -12.5430   18.1350 C   0  0  0  0  0  2  0  0  0  0  0  0
  -27.9380  -12.4400   18.5610 C   0  0  0  0  0  2  0  0  0  0  0  0
  -27.6040  -13.2580   19.8380 C   0  0  0  0  0  3  0  0  0  0  0  0
  -28.6690  -13.0480   20.9400 C   0  0  0  0  0  2  0  0  0  0  0  0
  -29.9880  -13.3260   20.3550 N   0  0  0  0  0  0  0  0  0  0  0  0
  -31.8490  -14.6010   20.0640 O   0  0  0  0  0  0  0  0  0  0  0  0
  -29.9930  -15.5930   20.8040 N   0  0  0  0  0  0  0  0  0  0  0  0
  -29.0120  -15.4870   21.0130 H   0  0  0  0  0  0  0  0  0  0  0  0
  -25.2010  -13.8480   20.5490 C   0  0  0  0  0  0  0  0  0  0  0  0
  -24.1370  -13.0710   20.9230 C   0  0  0  0  0  0  0  0  0  0  0  0
  -24.6030  -11.7210   20.8970 C   0  0  0  0  0  0  0  0  0  0  0  0
  -26.2510  -12.9710   20.3220 N   0  0  0  0  0  0  0  0  0  0  0  0
  -25.8960  -11.6860   20.5860 N   0  0  0  0  0  0  0  0  0  0  0  0
  -23.8770  -10.4570   21.0870 C   0  0  0  0  0  0  0  0  0  0  0  0
  -24.3260   -9.4760   21.9990 C   0  0  0  0  0  3  0  0  0  0  0  0
  -23.5970   -8.2790   22.1800 C   0  0  0  0  0  3  0  0  0  0  0  0
  -22.4070   -8.0560   21.4500 C   0  0  0  0  0  0  0  0  0  0  0  0
  -21.9780   -9.0250   20.5250 C   0  0  0  0  0  3  0  0  0  0  0  0
  -22.7070  -10.2110   20.3400 C   0  0  0  0  0  3  0  0  0  0  0  0
  -21.6450   -6.9130   21.5460 O   0  0  0  0  0  0  0  0  0  0  0  0
  -21.6380   -6.1430   22.6820 C   0  0  0  0  0  0  0  0  0  0  0  0
  -21.2850   -6.6770   23.9420 C   0  0  0  0  0  3  0  0  0  0  0  0
  -21.2250   -5.8350   25.0700 C   0  0  0  0  0  3  0  0  0  0  0  0
  -21.5060   -4.4620   24.9410 C   0  0  0  0  0  0  0  0  0  0  0  0
  -21.8560   -3.9280   23.6880 C   0  0  0  0  0  3  0  0  0  0  0  0
  -21.9180   -4.7670   22.5620 C   0  0  0  0  0  0  0  0  0  0  0  0
  -22.2310   -4.2430   21.3520 F   0  0  0  0  0  0  0  0  0  0  0  0
  -21.4440   -3.6510   26.0230 F   0  0  0  0  0  0  0  0  0  0  0  0
  -22.7370  -13.5430   21.1900 C   0  0  0  0  0  0  0  0  0  0  0  0
  -22.0060  -12.8530   22.0600 N   0  0  0  0  0  0  0  0  0  0  0  0
  -22.2970  -14.5660   20.6640 O   0  0  0  0  0  0  0  0  0  0  0  0
  -22.3660  -12.0240   22.5130 H   0  0  0  0  0  0  0  0  0  0  0  0
  -21.0660  -13.1560   22.2750 H   0  0  0  0  0  0  0  0  0  0  0  0
  -25.3550  -15.2180   20.3650 N   0  0  0  0  0  0  0  0  0  0  0  0
  -24.5820  -15.8690   20.4700 H   0  0  0  0  0  0  0  0  0  0  0  0
  -26.1990  -15.6660   20.0320 H   0  0  0  0  0  0  0  0  0  0  0  0
  -28.3610  -26.6160   20.1250 O   0  0  0  0  0  0  0  0  0  0  0  0
  -24.6400  -31.8860   23.2240 C   0  0  0  0  0  0  0  0  0  0  0  0
  -27.2040  -27.3910   20.0900 C   0  0  0  0  0  0  0  0  0  0  0  0
  -23.4090  -30.4940   21.6000 C   0  0  0  0  0  3  0  0  0  0  0  0
  -24.8310  -28.9580   20.1520 C   0  0  0  0  0  0  0  0  0  0  0  0
  -25.9470  -30.8190   21.3860 C   0  0  0  0  0  2  0  0  0  0  0  0
  -26.0080  -29.4520   20.7290 C   0  0  0  0  0  0  0  0  0  0  0  0
  -27.1940  -28.6740   20.7010 C   0  0  0  0  0  3  0  0  0  0  0  0
  -25.9970  -26.9370   19.4980 C   0  0  0  0  0  3  0  0  0  0  0  0
  -24.8220  -27.6990   19.5440 C   0  0  0  0  0  3  0  0  0  0  0  0
  -23.5990  -29.8280   20.2150 C   0  0  0  0  0  2  0  0  0  0  0  0
  -24.6840  -31.0820   22.1250 N   0  0  0  0  0  0  0  0  0  0  0  0
  -23.5650  -32.1640   23.7770 O   0  0  0  0  0  0  0  0  0  0  0  0
  -22.7680  -29.4680   22.5630 C   0  0  0  0  0  0  0  0  0  0  0  0
  -21.4440  -29.2810   22.4510 N   0  0  0  0  0  0  0  0  0  0  0  0
  -23.4610  -28.8430   23.3720 O   0  0  0  0  0  0  0  0  0  0  0  0
  -20.9460  -29.8340   21.7670 H   0  0  0  0  0  0  0  0  0  0  0  0
  -18.0790  -28.0650   22.9780 C   0  0  0  0  0  0  0  0  0  0  0  0
  -20.6380  -28.3440   23.2330 C   0  0  0  0  0  3  0  0  0  0  0  0
  -20.7450  -26.9070   22.6700 C   0  0  0  0  0  2  0  0  0  0  0  0
  -19.6400  -26.5680   21.6640 C   0  0  0  0  0  2  0  0  0  0  0  0
  -18.2600  -26.7120   22.3130 C   0  0  0  0  0  2  0  0  0  0  0  0
  -19.1950  -28.8380   23.3960 C   0  0  0  0  0  0  0  0  0  0  0  0
  -18.9710  -30.1060   23.9750 C   0  0  0  0  0  3  0  0  0  0  0  0
  -17.6640  -30.6010   24.1420 C   0  0  0  0  0  3  0  0  0  0  0  0
  -16.5620  -29.8250   23.7410 C   0  0  0  0  0  3  0  0  0  0  0  0
  -16.7700  -28.5590   23.1640 C   0  0  0  0  0  3  0  0  0  0  0  0
  -25.9360  -32.5150   23.8230 C   0  0  0  0  0  3  0  0  0  0  0  0
  -26.4840  -31.7330   25.0790 C   0  0  1  0  0  0  0  0  0  0  0  0
  -25.4170  -31.4770   26.1700 C   0  0  0  0  0  1  0  0  0  0  0  0
  -27.0670  -30.3620   24.6640 C   0  0  0  0  0  1  0  0  0  0  0  0
  -27.6460  -32.5270   25.7220 C   0  0  0  0  0  1  0  0  0  0  0  0
  -25.6280  -33.9060   24.1770 N   0  0  0  0  0  0  0  0  0  0  0  0
  -25.9350  -34.9690   23.4200 C   0  0  0  0  0  0  0  0  0  0  0  0
  -26.5780  -34.8800   22.3720 O   0  0  0  0  0  0  0  0  0  0  0  0
  -25.0540  -34.0490   24.9950 H   0  0  0  0  0  0  0  0  0  0  0  0
  -24.1820  -36.7460   23.1290 C   0  0  0  0  0  1  0  0  0  0  0  0
  -25.4490  -36.3490   23.9030 C   0  0  0  0  0  3  0  0  0  0  0  0
  -27.6030  -37.2370   24.6790 C   0  0  0  0  0  1  0  0  0  0  0  0
  -26.4700  -37.4110   23.7720 N   0  0  0  0  0  0  0  0  0  0  0  0
  -26.0630  -38.3260   23.9440 H   0  0  0  0  0  0  0  0  0  0  0  0
  1  2  1  0
  2  6  2  0
  3  6  1  0
  4  5  1  0
  4  1  2  0
  5  3  2  0
  6 11  1  0
  7  4  1  0
  8  9  1  0
  8  7  1  0
  9 10  1  0
 10  5  1  0
 10 54  1  0
 11 12  1  0
 13 11  1  0
 13 14  1  0
 15 24  1  0
 15 14  1  0
 16 24  1  0
 17 22  1  0
 18 19  1  0
 18 17  1  0
 20 19  1  0
 20 29  1  0
 20 21  1  0
 22 16  1  0
 22 21  1  0
 23 16  2  0
 24 25  1  0
 26 27  2  0
 27 46  1  0
 28 27  1  0
 28 31  1  0
 29 26  1  0
 29 30  1  0
 30 28  2  0
 31 32  1  0
 32 33  2  0
 34 37  1  0
 34 33  1  0
 35 34  2  0
 36 35  1  0
 36 31  2  0
 37 38  1  0
 38 39  1  0
 39 40  2  0
 41 40  1  0
 41 45  1  0
 42 41  2  0
 43 38  2  0
 43 42  1  0
 44 43  1  0
 46 47  1  0
 47 50  1  0
 47 49  1  0
 48 46  2  0
 51 52  1  0
 51 26  1  0
 53 51  1  0
 55 66  2  0
 56 54  1  0
 56 61  1  0
 57 65  1  0
 57 67  1  0
 58 64  1  0
 58 60  1  0
 59 65  1  0
 60 59  1  0
 61 60  2  0
 62 63  1  0
 62 56  2  0
 63 58  2  0
 64 57  1  0
 65 55  1  0
 67 69  2  0
 68 67  1  0
 70 68  1  0
 71 80  2  0
 71 76  1  0
 72 68  1  0
 72 76  1  0
 73 72  1  0
 74 75  1  0
 74 73  1  0
 75 71  1  0
 76 77  2  0
 77 78  1  0
 79 78  2  0
 80 79  1  0
 81 55  1  0
 81 86  1  0
 81 82  1  0
 82 85  1  1
 82 83  1  0
 84 82  1  0
 86 89  1  0
 87 91  1  0
 87 86  1  0
 88 87  2  0
 91 90  1  0
 93 91  1  0
 93 94  1  0
 93 92  1  0
M  ISO  4  10 101  16 100  24 100  54 101
M  END
>  <TORSDO>  (46) 
F 20

>  <SCORE>  (46) 
-13.785

>  <name>  (46) 
45

>  <ligand_id>  (46) 
45

>  <original_smiles>  (46) 
[H]c1c([H])c([H])c2c(c1[H])C([H])([H])C([H])([H])C([H])([H])C2([H])N([H])C(=O)C1([H])N(C(=O)C([H])(N([H])C(=O)C([H])(N([H])C([H])([H])[H])C([H])([H])[H])C(C([H])([H])[H])(C([H])([H])[H])C([H])([H])[H])C([H])([H])c2c([H])c(OC3([H])c4c([H])c(N([H])C([H])([H])C([H])([H])C([H])([H])N([H])C(=O)N5C([H])([H])C([H])([H])C([H])([H])C([H])(n6nc(-c7c([H])c([H])c(Oc8c([H])c([H])c(F)c([H])c8F)c([H])c7[H])c(C(=O)N([H])[H])c6N([H])[H])C5([H])[H])c([H])c([H])c4C([H])([H])C([H])([H])C3([H])[H])c([H])c([H])c2C1([H])[H]

>  <smiles>  (46) 
[H]c1c([H])c([H])c2c(c1[H])C([H])([H])C([H])([H])C([H])([H])C2([H])N([H])C(=O)C1([H])N(C(=O)C([H])(N([H])C(=O)C([H])(N([H])C([H])([H])[H])C([H])([H])[H])C(C([H])([H])[H])(C([H])([H])[H])C([H])([H])[H])C([H])([H])c2c([H])c(OC3([H])c4c([H])c(N([H])C([H])([H])C([H])([H])C([H])([H])N([H])C(=O)N5C([H])([H])C([H])([H])C([H])([H])C([H])(n6nc(-c7c([H])c([H])c(Oc8c([H])c([H])c(F)c([H])c8F)c([H])c7[H])c(C(=O)N([H])[H])c6N([H])[H])C5([H])[H])c([H])c([H])c4C([H])([H])C([H])([H])C3([H])[H])c([H])c([H])c2C1([H])[H]

$$$$
46:0:0
     RDKit          3D

 91100  0  0  1  0  0  0  0  0999 V2000
  -29.4010  -22.5890   21.6380 C   0  0  0  0  0  3  0  0  0  0  0  0
  -28.8460  -22.6020   19.0540 C   0  0  0  0  0  3  0  0  0  0  0  0
  -29.6820  -21.3760   20.9260 C   0  0  0  0  0  0  0  0  0  0  0  0
  -29.3220  -21.1170   19.5990 C   0  0  0  0  0  0  0  0  0  0  0  0
  -28.8600  -23.8310   21.1310 C   0  0  0  0  0  0  0  0  0  0  0  0
  -28.5520  -24.0700   19.7450 C   0  0  0  0  0  0  0  0  0  0  0  0
  -31.1160  -19.4910   20.2260 C   0  0  0  0  0  2  0  0  0  0  0  0
  -30.0060  -19.3680   19.1680 C   0  0  0  0  0  3  0  0  0  0  0  0
  -30.5830  -20.2660   21.4700 C   0  0  1  0  0  0  0  0  0  0  0  0
  -28.7030  -24.9480   22.1630 C   0  0  0  0  0  1  0  0  0  0  0  0
  -31.8320  -20.8000   22.1960 C   0  0  0  0  0  1  0  0  0  0  0  0
  -29.7600  -19.3660   22.4140 C   0  0  0  0  0  1  0  0  0  0  0  0
  -30.6430  -16.1720   19.4010 C   0  0  0  0  0  0  0  0  0  0  0  0
  -30.8540  -13.5430   18.8250 C   0  0  0  0  0  2  0  0  0  0  0  0
  -29.9160  -12.8750   17.7750 C   0  0  0  0  0  2  0  0  0  0  0  0
  -28.5510  -12.5080   18.3660 C   0  0  0  0  0  2  0  0  0  0  0  0
  -28.0560  -13.5990   19.3360 C   0  0  0  0  0  3  0  0  0  0  0  0
  -29.1380  -14.1120   20.3170 C   0  0  0  0  0  2  0  0  0  0  0  0
  -30.1890  -14.7640   19.4910 N   0  0  0  0  0  0  0  0  0  0  0  0
  -31.8760  -16.1100   19.2120 O   0  0  0  0  0  0  0  0  0  0  0  0
  -29.8420  -17.5470   19.3370 N   0  0  0  0  0  0  0  0  0  0  0  0
  -28.8630  -17.3180   19.4460 H   0  0  0  0  0  0  0  0  0  0  0  0
  -25.8050  -14.1260   20.3770 C   0  0  0  0  0  0  0  0  0  0  0  0
  -24.7730  -13.3450   20.8110 C   0  0  0  0  0  0  0  0  0  0  0  0
  -25.2070  -11.9910   20.6580 C   0  0  0  0  0  0  0  0  0  0  0  0
  -26.7990  -13.2520   19.9810 N   0  0  0  0  0  0  0  0  0  0  0  0
  -26.4610  -11.9560   20.2130 N   0  0  0  0  0  0  0  0  0  0  0  0
  -24.4730  -10.7330   20.8450 C   0  0  0  0  0  0  0  0  0  0  0  0
  -24.7900   -9.8360   21.8890 C   0  0  0  0  0  3  0  0  0  0  0  0
  -24.0480   -8.6480   22.0640 C   0  0  0  0  0  3  0  0  0  0  0  0
  -22.9760   -8.3460   21.1910 C   0  0  0  0  0  0  0  0  0  0  0  0
  -22.6770   -9.2310   20.1400 C   0  0  0  0  0  3  0  0  0  0  0  0
  -23.4190  -10.4100   19.9640 C   0  0  0  0  0  3  0  0  0  0  0  0
  -22.2160   -7.2030   21.2700 O   0  0  0  0  0  0  0  0  0  0  0  0
  -21.7420   -6.7360   22.4700 C   0  0  0  0  0  0  0  0  0  0  0  0
  -20.8840   -7.5080   23.2850 C   0  0  0  0  0  3  0  0  0  0  0  0
  -20.3630   -6.9610   24.4730 C   0  0  0  0  0  3  0  0  0  0  0  0
  -20.6910   -5.6440   24.8470 C   0  0  0  0  0  0  0  0  0  0  0  0
  -21.5400   -4.8730   24.0360 C   0  0  0  0  0  3  0  0  0  0  0  0
  -22.0600   -5.4160   22.8470 C   0  0  0  0  0  0  0  0  0  0  0  0
  -22.8600   -4.6600   22.0570 F   0  0  0  0  0  0  0  0  0  0  0  0
  -20.1840   -5.1170   25.9860 F   0  0  0  0  0  0  0  0  0  0  0  0
  -23.4220  -13.8310   21.2460 C   0  0  0  0  0  0  0  0  0  0  0  0
  -22.7880  -13.1220   22.1720 N   0  0  0  0  0  0  0  0  0  0  0  0
  -22.9440  -14.8730   20.8000 O   0  0  0  0  0  0  0  0  0  0  0  0
  -23.1930  -12.2780   22.5460 H   0  0  0  0  0  0  0  0  0  0  0  0
  -21.8900  -13.4270   22.5170 H   0  0  0  0  0  0  0  0  0  0  0  0
  -25.9770  -15.5020   20.2520 N   0  0  0  0  0  0  0  0  0  0  0  0
  -25.2310  -16.1610   20.4410 H   0  0  0  0  0  0  0  0  0  0  0  0
  -26.7760  -15.9260   19.8010 H   0  0  0  0  0  0  0  0  0  0  0  0
  -28.2840  -25.6620   19.3290 O   0  0  0  0  0  0  0  0  0  0  0  0
  -24.5730  -31.6660   22.9240 C   0  0  0  0  0  0  0  0  0  0  0  0
  -27.2390  -26.8440   19.5290 C   0  0  0  0  0  0  0  0  0  0  0  0
  -23.3890  -30.3020   21.2580 C   0  0  0  0  0  3  0  0  0  0  0  0
  -24.8630  -28.8070   19.6930 C   0  0  0  0  0  0  0  0  0  0  0  0
  -25.9550  -30.5720   21.0380 C   0  0  0  0  0  2  0  0  0  0  0  0
  -26.0670  -29.1730   20.3030 C   0  0  0  0  0  0  0  0  0  0  0  0
  -27.2380  -28.2330   20.1780 C   0  0  0  0  0  3  0  0  0  0  0  0
  -25.9800  -26.7260   18.8720 C   0  0  0  0  0  3  0  0  0  0  0  0
  -24.8630  -27.6190   18.9440 C   0  0  0  0  0  3  0  0  0  0  0  0
  -23.6090  -29.6890   19.8420 C   0  0  0  0  0  2  0  0  0  0  0  0
  -24.6630  -30.8830   21.7910 N   0  0  0  0  0  0  0  0  0  0  0  0
  -23.4880  -31.8690   23.5020 O   0  0  0  0  0  0  0  0  0  0  0  0
  -22.7700  -29.2340   22.2030 C   0  0  0  0  0  0  0  0  0  0  0  0
  -21.4450  -29.0040   22.1240 N   0  0  0  0  0  0  0  0  0  0  0  0
  -23.4960  -28.6070   22.9800 O   0  0  0  0  0  0  0  0  0  0  0  0
  -20.9040  -29.5620   21.4780 H   0  0  0  0  0  0  0  0  0  0  0  0
  -18.1720  -27.5100   22.6820 C   0  0  0  0  0  0  0  0  0  0  0  0
  -20.7120  -27.9770   22.8770 C   0  0  0  0  0  3  0  0  0  0  0  0
  -20.9020  -26.5830   22.2370 C   0  0  0  0  0  2  0  0  0  0  0  0
  -19.7950  -26.2180   21.2390 C   0  0  0  0  0  2  0  0  0  0  0  0
  -18.4310  -26.2160   21.9280 C   0  0  0  0  0  2  0  0  0  0  0  0
  -19.2390  -28.3450   23.1120 C   0  0  0  0  0  0  0  0  0  0  0  0
  -18.9340  -29.5480   23.7870 C   0  0  0  0  0  3  0  0  0  0  0  0
  -17.5990  -29.9230   24.0210 C   0  0  0  0  0  3  0  0  0  0  0  0
  -16.5490  -29.0910   23.5990 C   0  0  0  0  0  3  0  0  0  0  0  0
  -16.8360  -27.8830   22.9400 C   0  0  0  0  0  3  0  0  0  0  0  0
  -25.8230  -32.3580   23.5470 C   0  0  0  0  0  3  0  0  0  0  0  0
  -25.4380  -33.7160   23.9820 N   0  0  0  0  0  0  0  0  0  0  0  0
  -25.6910  -34.8440   23.3030 C   0  0  0  0  0  0  0  0  0  0  0  0
  -26.3290  -34.8540   22.2490 O   0  0  0  0  0  0  0  0  0  0  0  0
  -24.8640  -33.7740   24.8090 H   0  0  0  0  0  0  0  0  0  0  0  0
  -23.8530  -36.5590   23.1660 C   0  0  0  0  0  1  0  0  0  0  0  0
  -25.1590  -36.1750   23.8820 C   0  0  0  0  0  3  0  0  0  0  0  0
  -27.2790  -37.1290   24.6760 C   0  0  0  0  0  1  0  0  0  0  0  0
  -26.1270  -37.2930   23.7910 N   0  0  0  0  0  0  0  0  0  0  0  0
  -25.6820  -38.1800   24.0060 H   0  0  0  0  0  0  0  0  0  0  0  0
  -26.4140  -31.5620   24.7800 C   0  0  1  0  0  0  0  0  0  0  0  0
  -25.3560  -31.1970   25.8520 C   0  0  0  0  0  1  0  0  0  0  0  0
  -27.0820  -30.2460   24.3270 C   0  0  0  0  0  1  0  0  0  0  0  0
  -27.5240  -32.3990   25.4600 C   0  0  0  0  0  1  0  0  0  0  0  0
  2  4  2  0
  2  6  1  0
  3  9  1  0
  3  1  2  0
  4  3  1  0
  5  1  1  0
  5 10  1  0
  6  5  2  0
  7  9  1  0
  8 21  1  0
  8  4  1  0
  8  7  1  0
  9 11  1  1
  9 12  1  0
 13 19  1  0
 14 19  1  0
 15 16  1  0
 15 14  1  0
 17 16  1  0
 17 26  1  0
 17 18  1  0
 19 18  1  0
 20 13  2  0
 21 13  1  0
 21 22  1  0
 23 24  2  0
 24 43  1  0
 25 24  1  0
 25 28  1  0
 26 27  1  0
 26 23  1  0
 27 25  2  0
 28 29  1  0
 29 30  2  0
 31 34  1  0
 31 30  1  0
 32 31  2  0
 33 32  1  0
 33 28  2  0
 34 35  1  0
 35 40  2  0
 35 36  1  0
 36 37  2  0
 37 38  1  0
 38 42  1  0
 39 38  2  0
 40 39  1  0
 41 40  1  0
 43 44  1  0
 44 47  1  0
 44 46  1  0
 45 43  2  0
 48 23  1  0
 48 49  1  0
 50 48  1  0
 51 53  1  0
 51  6  1  0
 52 63  2  0
 53 58  1  0
 54 62  1  0
 54 64  1  0
 55 61  1  0
 55 57  1  0
 56 62  1  0
 57 56  1  0
 58 57  2  0
 59 60  1  0
 59 53  2  0
 60 55  2  0
 61 54  1  0
 62 52  1  0
 64 66  2  0
 65 64  1  0
 67 65  1  0
 68 77  2  0
 68 73  1  0
 69 65  1  0
 69 73  1  0
 70 69  1  0
 71 72  1  0
 71 70  1  0
 72 68  1  0
 73 74  2  0
 74 75  1  0
 76 75  2  0
 77 76  1  0
 78 52  1  0
 78 79  1  0
 78 88  1  0
 79 82  1  0
 80 84  1  0
 80 79  1  0
 81 80  2  0
 84 83  1  0
 86 84  1  0
 86 87  1  0
 86 85  1  0
 88 91  1  1
 88 89  1  0
 90 88  1  0
M  ISO  4   6 101  13 100  21 100  51 101
M  END
>  <TORSDO>  (47) 
F 16

>  <SCORE>  (47) 
-13.482

>  <name>  (47) 
46

>  <ligand_id>  (47) 
46

>  <original_smiles>  (47) 
[H]c1c([H])c([H])c2c(c1[H])C([H])([H])C([H])([H])C([H])([H])C2([H])N([H])C(=O)C1([H])N(C(=O)C([H])(N([H])C(=O)C([H])(N([H])C([H])([H])[H])C([H])([H])[H])C(C([H])([H])[H])(C([H])([H])[H])C([H])([H])[H])C([H])([H])c2c([H])c(Oc3c([H])c4c(c([H])c3C([H])([H])[H])C(C([H])([H])[H])(C([H])([H])[H])C([H])([H])C4([H])N([H])C(=O)N3C([H])([H])C([H])([H])C([H])([H])C([H])(n4nc(-c5c([H])c([H])c(Oc6c([H])c([H])c(F)c([H])c6F)c([H])c5[H])c(C(=O)N([H])[H])c4N([H])[H])C3([H])[H])c([H])c([H])c2C1([H])[H]

>  <smiles>  (47) 
[H]c1c([H])c([H])c2c(c1[H])C([H])([H])C([H])([H])C([H])([H])C2([H])N([H])C(=O)C1([H])N(C(=O)C([H])(N([H])C(=O)C([H])(N([H])C([H])([H])[H])C([H])([H])[H])C(C([H])([H])[H])(C([H])([H])[H])C([H])([H])[H])C([H])([H])c2c([H])c(Oc3c([H])c4c(c([H])c3C([H])([H])[H])C(C([H])([H])[H])(C([H])([H])[H])C([H])([H])C4([H])N([H])C(=O)N3C([H])([H])C([H])([H])C([H])([H])C([H])(n4nc(-c5c([H])c([H])c(Oc6c([H])c([H])c(F)c([H])c6F)c([H])c5[H])c(C(=O)N([H])[H])c4N([H])[H])C3([H])[H])c([H])c([H])c2C1([H])[H]

$$$$
47:0:0
     RDKit          3D

 94103  0  0  1  0  0  0  0  0999 V2000
  -26.2560  -24.8080   23.2860 C   0  0  0  0  0  2  0  0  0  0  0  0
  -27.5100  -25.6880   23.0910 C   0  0  0  0  0  2  0  0  0  0  0  0
  -26.0970  -23.7550   22.1690 C   0  0  0  0  0  2  0  0  0  0  0  0
  -28.5330  -25.0410   22.1350 C   0  0  0  0  0  2  0  0  0  0  0  0
  -26.4250  -24.3510   20.7850 C   0  0  0  0  0  2  0  0  0  0  0  0
  -27.9020  -24.9010   20.7190 C   0  0  2  0  0  0  0  0  0  0  0  0
  -28.7900  -23.4580   20.0860 N   0  0  0  0  0  4  0  0  0  0  0  0
  -29.7750  -23.6370   20.1890 H   0  0  0  0  0  0  0  0  0  0  0  0
  -28.6430  -23.4270   19.0900 H   0  0  0  0  0  0  0  0  0  0  0  0
  -28.5620  -21.9560   20.5830 C   0  0  0  0  0  2  0  0  0  0  0  0
  -29.3770  -19.9660   18.7780 C   0  0  0  0  0  2  0  0  0  0  0  0
  -29.9720  -18.4930   18.7470 C   0  0  0  0  0  2  0  0  0  0  0  0
  -29.3830  -19.1300   20.9570 C   0  0  0  0  0  2  0  0  0  0  0  0
  -29.4950  -20.5830   20.1940 C   0  0  0  0  0  3  0  0  0  0  0  0
  -30.1830  -17.9280   20.1820 C   0  0  0  0  0  3  0  0  0  0  0  0
  -30.7140  -15.2060   20.1760 C   0  0  0  0  0  0  0  0  0  0  0  0
  -30.6490  -12.8270   19.2880 C   0  0  0  0  0  2  0  0  0  0  0  0
  -29.7020  -12.7300   18.0700 C   0  0  0  0  0  2  0  0  0  0  0  0
  -28.2570  -12.4700   18.5320 C   0  0  0  0  0  2  0  0  0  0  0  0
  -27.8340  -13.4070   19.6960 C   0  0  0  0  0  3  0  0  0  0  0  0
  -28.9070  -13.4900   20.8040 C   0  0  0  0  0  2  0  0  0  0  0  0
  -30.1530  -13.9280   20.1660 N   0  0  0  0  0  0  0  0  0  0  0  0
  -31.9000  -15.3000   19.8460 O   0  0  0  0  0  0  0  0  0  0  0  0
  -29.9130  -16.3710   20.3600 N   0  0  0  0  0  0  0  0  0  0  0  0
  -28.9610  -16.1490   20.6080 H   0  0  0  0  0  0  0  0  0  0  0  0
  -25.4650  -13.9200   20.5150 C   0  0  0  0  0  0  0  0  0  0  0  0
  -24.4250  -13.1160   20.8950 C   0  0  0  0  0  0  0  0  0  0  0  0
  -24.9140  -11.7750   20.8200 C   0  0  0  0  0  0  0  0  0  0  0  0
  -26.5160  -13.0690   20.2230 N   0  0  0  0  0  0  0  0  0  0  0  0
  -26.1960  -11.7710   20.4710 N   0  0  0  0  0  0  0  0  0  0  0  0
  -24.2140  -10.4940   20.9990 C   0  0  0  0  0  0  0  0  0  0  0  0
  -24.6370   -9.5480   21.9600 C   0  0  0  0  0  3  0  0  0  0  0  0
  -23.9350   -8.3360   22.1280 C   0  0  0  0  0  3  0  0  0  0  0  0
  -22.7980   -8.0590   21.3330 C   0  0  0  0  0  0  0  0  0  0  0  0
  -22.3940   -8.9930   20.3630 C   0  0  0  0  0  3  0  0  0  0  0  0
  -23.0980  -10.1970   20.1930 C   0  0  0  0  0  3  0  0  0  0  0  0
  -22.0710   -6.8950   21.4070 O   0  0  0  0  0  0  0  0  0  0  0  0
  -21.9330   -6.2050   22.5850 C   0  0  0  0  0  0  0  0  0  0  0  0
  -21.3650   -6.7990   23.7340 C   0  0  0  0  0  3  0  0  0  0  0  0
  -21.1780   -6.0340   24.9020 C   0  0  0  0  0  3  0  0  0  0  0  0
  -21.5520   -4.6760   24.9230 C   0  0  0  0  0  0  0  0  0  0  0  0
  -22.1140   -4.0830   23.7790 C   0  0  0  0  0  3  0  0  0  0  0  0
  -22.3010   -4.8450   22.6130 C   0  0  0  0  0  0  0  0  0  0  0  0
  -22.8240   -4.2630   21.5060 F   0  0  0  0  0  0  0  0  0  0  0  0
  -21.3660   -3.9380   26.0430 F   0  0  0  0  0  0  0  0  0  0  0  0
  -23.0280  -13.5620   21.2140 C   0  0  0  0  0  0  0  0  0  0  0  0
  -22.3330  -12.8290   22.0770 N   0  0  0  0  0  0  0  0  0  0  0  0
  -22.5600  -14.5930   20.7340 O   0  0  0  0  0  0  0  0  0  0  0  0
  -22.7230  -11.9940   22.4870 H   0  0  0  0  0  0  0  0  0  0  0  0
  -21.3980  -13.1120   22.3340 H   0  0  0  0  0  0  0  0  0  0  0  0
  -25.5950  -15.2970   20.3670 N   0  0  0  0  0  0  0  0  0  0  0  0
  -24.8140  -15.9280   20.5080 H   0  0  0  0  0  0  0  0  0  0  0  0
  -26.4080  -15.7580   19.9810 H   0  0  0  0  0  0  0  0  0  0  0  0
  -28.0700  -26.2730   20.0120 O   0  0  0  0  0  0  0  0  0  0  0  0
  -24.5470  -31.9470   23.2000 C   0  0  0  0  0  0  0  0  0  0  0  0
  -27.0510  -27.3010   20.0240 C   0  0  0  0  0  0  0  0  0  0  0  0
  -23.3140  -30.5770   21.5680 C   0  0  0  0  0  3  0  0  0  0  0  0
  -24.7340  -29.0550   20.0620 C   0  0  0  0  0  0  0  0  0  0  0  0
  -25.8600  -30.8590   21.3450 C   0  0  0  0  0  2  0  0  0  0  0  0
  -25.9220  -29.4790   20.6700 C   0  0  0  0  0  0  0  0  0  0  0  0
  -27.0830  -28.6150   20.6450 C   0  0  0  0  0  3  0  0  0  0  0  0
  -25.8740  -27.0380   19.2920 C   0  0  0  0  0  3  0  0  0  0  0  0
  -24.7220  -27.8460   19.3550 C   0  0  0  0  0  3  0  0  0  0  0  0
  -23.5010  -29.9380   20.1680 C   0  0  0  0  0  2  0  0  0  0  0  0
  -24.5950  -31.1490   22.0930 N   0  0  0  0  0  0  0  0  0  0  0  0
  -23.4740  -32.2150   23.7610 O   0  0  0  0  0  0  0  0  0  0  0  0
  -22.6700  -29.5430   22.5250 C   0  0  0  0  0  0  0  0  0  0  0  0
  -21.3430  -29.3530   22.4190 N   0  0  0  0  0  0  0  0  0  0  0  0
  -23.3670  -28.9160   23.3270 O   0  0  0  0  0  0  0  0  0  0  0  0
  -20.8380  -29.9190   21.7520 H   0  0  0  0  0  0  0  0  0  0  0  0
  -17.9990  -28.0580   22.9450 C   0  0  0  0  0  0  0  0  0  0  0  0
  -20.5520  -28.3830   23.1830 C   0  0  0  0  0  3  0  0  0  0  0  0
  -20.6880  -26.9620   22.5870 C   0  0  0  0  0  2  0  0  0  0  0  0
  -19.5740  -26.6060   21.5990 C   0  0  0  0  0  2  0  0  0  0  0  0
  -18.2010  -26.7140   22.2670 C   0  0  0  0  0  2  0  0  0  0  0  0
  -19.1020  -28.8470   23.3650 C   0  0  0  0  0  0  0  0  0  0  0  0
  -18.8580  -30.0970   23.9720 C   0  0  0  0  0  3  0  0  0  0  0  0
  -17.5420  -30.5610   24.1620 C   0  0  0  0  0  3  0  0  0  0  0  0
  -16.4530  -29.7720   23.7540 C   0  0  0  0  0  3  0  0  0  0  0  0
  -16.6830  -28.5230   23.1510 C   0  0  0  0  0  3  0  0  0  0  0  0
  -25.8380  -32.5790   23.8040 C   0  0  0  0  0  3  0  0  0  0  0  0
  -26.3730  -31.8010   25.0700 C   0  0  1  0  0  0  0  0  0  0  0  0
  -25.2930  -31.5580   26.1510 C   0  0  0  0  0  1  0  0  0  0  0  0
  -26.9530  -30.4250   24.6680 C   0  0  0  0  0  1  0  0  0  0  0  0
  -27.5310  -32.5950   25.7140 C   0  0  0  0  0  1  0  0  0  0  0  0
  -25.5320  -33.9760   24.1520 N   0  0  0  0  0  0  0  0  0  0  0  0
  -25.8370  -35.0370   23.3920 C   0  0  0  0  0  0  0  0  0  0  0  0
  -26.4760  -34.9430   22.3400 O   0  0  0  0  0  0  0  0  0  0  0  0
  -24.9550  -34.1230   24.9680 H   0  0  0  0  0  0  0  0  0  0  0  0
  -24.0950  -36.8290   23.1070 C   0  0  0  0  0  1  0  0  0  0  0  0
  -25.3640  -36.4220   23.8740 C   0  0  0  0  0  3  0  0  0  0  0  0
  -27.5220  -37.3070   24.6390 C   0  0  0  0  0  1  0  0  0  0  0  0
  -26.3910  -37.4770   23.7300 N   0  0  0  0  0  0  0  0  0  0  0  0
  -25.9900  -38.3970   23.8910 H   0  0  0  0  0  0  0  0  0  0  0  0
  2  1  1  0
  3  1  1  0
  4  2  1  0
  5  3  1  0
  6  5  1  0
  6  4  1  0
  7  8  1  0
  7 10  1  0
  7  6  1  0
  9  7  1  0
 11 14  1  0
 12 11  1  0
 12 15  1  0
 14 10  1  0
 14 13  1  0
 15 24  1  0
 15 13  1  0
 16 24  1  0
 17 22  1  0
 18 19  1  0
 18 17  1  0
 20 19  1  0
 20 29  1  0
 20 21  1  0
 22 16  1  0
 22 21  1  0
 23 16  2  0
 24 25  1  0
 26 27  2  0
 27 46  1  0
 28 27  1  0
 28 31  1  0
 29 30  1  0
 29 26  1  0
 30 28  2  0
 31 32  1  0
 32 33  2  0
 34 37  1  0
 34 33  1  0
 35 34  2  0
 36 35  1  0
 36 31  2  0
 37 38  1  0
 38 43  2  0
 38 39  1  0
 39 40  2  0
 40 41  1  0
 41 45  1  0
 42 41  2  0
 43 42  1  0
 44 43  1  0
 46 47  1  0
 47 50  1  0
 47 49  1  0
 48 46  2  0
 51 52  1  0
 51 26  1  0
 53 51  1  0
 54 56  1  0
  6 54  1  6
 55 66  2  0
 56 61  1  0
 57 65  1  0
 57 67  1  0
 58 64  1  0
 58 60  1  0
 59 65  1  0
 60 59  1  0
 61 60  2  0
 62 63  1  0
 62 56  2  0
 63 58  2  0
 64 57  1  0
 65 55  1  0
 67 69  2  0
 68 67  1  0
 70 68  1  0
 71 80  2  0
 71 76  1  0
 72 68  1  0
 72 76  1  0
 73 72  1  0
 74 75  1  0
 74 73  1  0
 75 71  1  0
 76 77  2  0
 77 78  1  0
 79 78  2  0
 80 79  1  0
 81 55  1  0
 81 86  1  0
 81 82  1  0
 82 85  1  1
 82 83  1  0
 84 82  1  0
 86 89  1  0
 87 91  1  0
 87 86  1  0
 88 87  2  0
 91 90  1  0
 93 91  1  0
 93 94  1  0
 93 92  1  0
M  ISO  4   6 101  16 100  24 100  54 101
M  END
>  <TORSDO>  (48) 
F 19

>  <SCORE>  (48) 
-14.420

>  <name>  (48) 
47

>  <ligand_id>  (48) 
47

>  <original_smiles>  (48) 
[H]c1c([H])c([H])c2c(c1[H])C([H])([H])C([H])([H])C([H])([H])C2([H])N([H])C(=O)C1([H])N(C(=O)C([H])(N([H])C(=O)C([H])(N([H])C([H])([H])[H])C([H])([H])[H])C(C([H])([H])[H])(C([H])([H])[H])C([H])([H])[H])C([H])([H])c2c([H])c(OC3([N+]([H])([H])C([H])([H])C4([H])C([H])([H])C([H])([H])C([H])(N([H])C(=O)N5C([H])([H])C([H])([H])C([H])([H])C([H])(n6nc(-c7c([H])c([H])c(Oc8c([H])c([H])c(F)c([H])c8F)c([H])c7[H])c(C(=O)N([H])[H])c6N([H])[H])C5([H])[H])C4([H])[H])C([H])([H])C([H])([H])C([H])([H])C([H])([H])C3([H])[H])c([H])c([H])c2C1([H])[H]

>  <smiles>  (48) 
[H]c1c([H])c([H])c2c(c1[H])C([H])([H])C([H])([H])C([H])([H])C2([H])N([H])C(=O)C1([H])N(C(=O)C([H])(N([H])C(=O)C([H])(N([H])C([H])([H])[H])C([H])([H])[H])C(C([H])([H])[H])(C([H])([H])[H])C([H])([H])[H])C([H])([H])c2c([H])c(OC3([N+]([H])([H])C([H])([H])C4([H])C([H])([H])C([H])([H])C([H])(N([H])C(=O)N5C([H])([H])C([H])([H])C([H])([H])C([H])(n6nc(-c7c([H])c([H])c(Oc8c([H])c([H])c(F)c([H])c8F)c([H])c7[H])c(C(=O)N([H])[H])c6N([H])[H])C5([H])[H])C4([H])[H])C([H])([H])C([H])([H])C([H])([H])C([H])([H])C3([H])[H])c([H])c([H])c2C1([H])[H]

$$$$
48:0:0
     RDKit          3D

 91100  0  0  1  0  0  0  0  0999 V2000
  -30.4530  -20.1910   20.4030 C   0  0  0  0  0  3  0  0  0  0  0  0
  -30.0560  -21.6700   20.3410 C   0  0  0  0  0  3  0  0  0  0  0  0
  -27.9480  -21.0560   19.8210 C   0  0  0  0  0  3  0  0  0  0  0  0
  -28.3530  -19.5950   19.8770 C   0  0  0  0  0  0  0  0  0  0  0  0
  -29.6270  -18.9820   20.1510 C   0  0  0  0  0  0  0  0  0  0  0  0
  -28.7360  -22.2970   20.0540 C   0  0  0  0  0  0  0  0  0  0  0  0
  -27.4510  -18.4310   19.7360 C   0  0  0  0  0  0  0  0  0  0  0  0
  -28.1680  -17.0540   19.9110 C   0  0  0  0  0  2  0  0  0  0  0  0
  -29.6240  -17.1960   20.4450 C   0  0  1  0  0  0  0  0  0  0  0  0
  -26.2430  -18.5000   19.4950 O   0  0  0  0  0  0  0  0  0  0  0  0
  -30.4600  -15.5970   20.0160 C   0  0  0  0  0  0  0  0  0  0  0  0
  -30.5770  -13.0560   19.2170 C   0  0  0  0  0  2  0  0  0  0  0  0
  -29.6370  -12.6910   18.0310 C   0  0  0  0  0  2  0  0  0  0  0  0
  -28.2260  -12.3320   18.5270 C   0  0  0  0  0  2  0  0  0  0  0  0
  -27.7500  -13.3200   19.6170 C   0  0  0  0  0  3  0  0  0  0  0  0
  -28.8220  -13.6060   20.6950 C   0  0  0  0  0  2  0  0  0  0  0  0
  -29.9930  -14.2160   20.0210 N   0  0  0  0  0  0  0  0  0  0  0  0
  -31.6530  -15.5940   19.6630 O   0  0  0  0  0  0  0  0  0  0  0  0
  -25.4160  -13.8110   20.5090 C   0  0  0  0  0  0  0  0  0  0  0  0
  -24.3840  -13.0160   20.9110 C   0  0  0  0  0  0  0  0  0  0  0  0
  -24.8580  -11.6730   20.8030 C   0  0  0  0  0  0  0  0  0  0  0  0
  -26.4560  -12.9610   20.1810 N   0  0  0  0  0  0  0  0  0  0  0  0
  -26.1350  -11.6630   20.4240 N   0  0  0  0  0  0  0  0  0  0  0  0
  -24.1440  -10.4030   20.9780 C   0  0  0  0  0  0  0  0  0  0  0  0
  -24.5670   -9.4400   21.9190 C   0  0  0  0  0  3  0  0  0  0  0  0
  -23.8480   -8.2360   22.0850 C   0  0  0  0  0  3  0  0  0  0  0  0
  -22.6900   -7.9890   21.3100 C   0  0  0  0  0  0  0  0  0  0  0  0
  -22.2850   -8.9410   20.3580 C   0  0  0  0  0  3  0  0  0  0  0  0
  -23.0060  -10.1360   20.1900 C   0  0  0  0  0  3  0  0  0  0  0  0
  -21.9430   -6.8380   21.3860 O   0  0  0  0  0  0  0  0  0  0  0  0
  -21.7920   -6.1560   22.5660 C   0  0  0  0  0  0  0  0  0  0  0  0
  -21.2030   -6.7520   23.7020 C   0  0  0  0  0  3  0  0  0  0  0  0
  -21.0040   -5.9920   24.8720 C   0  0  0  0  0  3  0  0  0  0  0  0
  -21.3830   -4.6360   24.9060 C   0  0  0  0  0  0  0  0  0  0  0  0
  -21.9650   -4.0390   23.7740 C   0  0  0  0  0  3  0  0  0  0  0  0
  -22.1660   -4.7960   22.6060 C   0  0  0  0  0  0  0  0  0  0  0  0
  -22.7080   -4.2110   21.5110 F   0  0  0  0  0  0  0  0  0  0  0  0
  -21.1850   -3.9050   26.0270 F   0  0  0  0  0  0  0  0  0  0  0  0
  -23.0000  -13.4780   21.2620 C   0  0  0  0  0  0  0  0  0  0  0  0
  -22.3220  -12.7590   22.1480 N   0  0  0  0  0  0  0  0  0  0  0  0
  -22.5340  -14.5140   20.7890 O   0  0  0  0  0  0  0  0  0  0  0  0
  -22.7140  -11.9220   22.5520 H   0  0  0  0  0  0  0  0  0  0  0  0
  -21.3950  -13.0510   22.4270 H   0  0  0  0  0  0  0  0  0  0  0  0
  -25.5350  -15.1860   20.3570 N   0  0  0  0  0  0  0  0  0  0  0  0
  -24.7310  -15.7920   20.4840 H   0  0  0  0  0  0  0  0  0  0  0  0
  -26.2710  -15.6230   19.8240 H   0  0  0  0  0  0  0  0  0  0  0  0
  -28.0430  -23.9980   19.8980 C   0  0  0  0  0  2  0  0  0  0  0  0
  -28.3310  -25.6550   20.2420 O   0  0  0  0  0  0  0  0  0  0  0  0
  -24.7520  -31.7850   23.2300 C   0  0  0  0  0  0  0  0  0  0  0  0
  -27.3640  -26.8480   20.1720 C   0  0  0  0  0  0  0  0  0  0  0  0
  -23.6030  -30.4320   21.5280 C   0  0  0  0  0  3  0  0  0  0  0  0
  -25.0860  -28.8330   20.1100 C   0  0  0  0  0  0  0  0  0  0  0  0
  -26.1800  -30.5960   21.4700 C   0  0  0  0  0  2  0  0  0  0  0  0
  -26.2630  -29.1880   20.7790 C   0  0  0  0  0  0  0  0  0  0  0  0
  -27.3900  -28.2220   20.7830 C   0  0  0  0  0  3  0  0  0  0  0  0
  -26.1550  -26.6880   19.4500 C   0  0  0  0  0  3  0  0  0  0  0  0
  -25.0660  -27.6070   19.4230 C   0  0  0  0  0  3  0  0  0  0  0  0
  -23.8730  -29.7730   20.1460 C   0  0  0  0  0  2  0  0  0  0  0  0
  -24.8660  -30.9680   22.1300 N   0  0  0  0  0  0  0  0  0  0  0  0
  -23.6490  -32.0720   23.7240 O   0  0  0  0  0  0  0  0  0  0  0  0
  -22.8670  -29.4270   22.4550 C   0  0  0  0  0  0  0  0  0  0  0  0
  -21.5340  -29.2930   22.3090 N   0  0  0  0  0  0  0  0  0  0  0  0
  -23.5050  -28.7660   23.2780 O   0  0  0  0  0  0  0  0  0  0  0  0
  -21.0700  -29.8770   21.6260 H   0  0  0  0  0  0  0  0  0  0  0  0
  -18.1150  -28.1650   22.7890 C   0  0  0  0  0  0  0  0  0  0  0  0
  -20.6850  -28.3430   23.0370 C   0  0  0  0  0  3  0  0  0  0  0  0
  -20.7370  -26.9400   22.3900 C   0  0  0  0  0  2  0  0  0  0  0  0
  -19.6180  -26.7040   21.3700 C   0  0  0  0  0  2  0  0  0  0  0  0
  -18.2470  -26.8520   22.0360 C   0  0  0  0  0  2  0  0  0  0  0  0
  -19.2590  -28.8730   23.2460 C   0  0  0  0  0  0  0  0  0  0  0  0
  -19.0790  -30.1020   23.9150 C   0  0  0  0  0  3  0  0  0  0  0  0
  -17.7890  -30.6240   24.1290 C   0  0  0  0  0  3  0  0  0  0  0  0
  -16.6610  -29.9140   23.6860 C   0  0  0  0  0  3  0  0  0  0  0  0
  -16.8240  -28.6850   23.0220 C   0  0  0  0  0  3  0  0  0  0  0  0
  -26.0020  -32.4140   23.9160 C   0  0  0  0  0  3  0  0  0  0  0  0
  -26.4430  -31.6430   25.2230 C   0  0  1  0  0  0  0  0  0  0  0  0
  -25.2960  -31.4270   26.2380 C   0  0  0  0  0  1  0  0  0  0  0  0
  -27.0260  -30.2540   24.8780 C   0  0  0  0  0  1  0  0  0  0  0  0
  -27.5720  -32.4240   25.9370 C   0  0  0  0  0  1  0  0  0  0  0  0
  -25.6880  -33.8170   24.2460 N   0  0  0  0  0  0  0  0  0  0  0  0
  -26.0190  -34.8780   23.4970 C   0  0  0  0  0  0  0  0  0  0  0  0
  -26.6800  -34.7780   22.4610 O   0  0  0  0  0  0  0  0  0  0  0  0
  -25.0990  -33.9680   25.0520 H   0  0  0  0  0  0  0  0  0  0  0  0
  -24.2710  -36.6710   23.2090 C   0  0  0  0  0  1  0  0  0  0  0  0
  -25.5460  -36.2690   23.9700 C   0  0  0  0  0  3  0  0  0  0  0  0
  -27.7000  -37.1810   24.7210 C   0  0  0  0  0  1  0  0  0  0  0  0
  -26.5680  -37.3280   23.8100 N   0  0  0  0  0  0  0  0  0  0  0  0
  -26.1600  -38.2480   23.9560 H   0  0  0  0  0  0  0  0  0  0  0  0
  -29.5980  -17.1390   21.9990 C   0  0  0  0  0  2  0  0  0  0  0  0
  -30.8270  -17.5530   22.5850 O   0  0  0  0  0  0  0  0  0  0  0  0
  -31.5230  -16.9860   22.2660 H   0  0  0  0  0  0  0  0  0  0  0  0
  2  1  1  0
  3  4  2  0
  3  6  1  0
  4  5  1  0
  5  1  2  0
  5  9  1  0
  6  2  2  0
  7  4  1  0
  7  8  1  0
  8  9  1  0
  9 89  1  1
 10  7  2  0
 11 17  1  0
 11  9  1  0
 12 17  1  0
 13 14  1  0
 13 12  1  0
 15 14  1  0
 15 22  1  0
 15 16  1  0
 17 16  1  0
 18 11  2  0
 19 20  2  0
 20 39  1  0
 21 20  1  0
 21 24  1  0
 22 23  1  0
 22 19  1  0
 23 21  2  0
 24 25  1  0
 25 26  2  0
 27 30  1  0
 27 26  1  0
 28 27  2  0
 29 28  1  0
 29 24  2  0
 30 31  1  0
 31 36  2  0
 31 32  1  0
 32 33  2  0
 33 34  1  0
 34 38  1  0
 35 34  2  0
 36 35  1  0
 37 36  1  0
 39 40  1  0
 40 43  1  0
 40 42  1  0
 41 39  2  0
 44 45  1  0
 44 19  1  0
 46 44  1  0
 47  6  1  0
 47 48  1  0
 49 60  2  0
 50 48  1  0
 50 55  1  0
 51 59  1  0
 51 61  1  0
 52 58  1  0
 52 54  1  0
 53 59  1  0
 54 55  2  0
 54 53  1  0
 56 50  2  0
 57 56  1  0
 57 52  2  0
 58 51  1  0
 59 49  1  0
 61 63  2  0
 62 61  1  0
 64 62  1  0
 65 74  2  0
 65 70  1  0
 66 62  1  0
 66 70  1  0
 67 66  1  0
 68 69  1  0
 68 67  1  0
 69 65  1  0
 70 71  2  0
 71 72  1  0
 73 72  2  0
 74 73  1  0
 75 49  1  0
 75 80  1  0
 75 76  1  0
 76 79  1  1
 76 77  1  0
 78 76  1  0
 80 83  1  0
 81 85  1  0
 81 80  1  0
 82 81  2  0
 85 84  1  0
 87 88  1  0
 87 85  1  0
 87 86  1  0
 89 90  1  0
 91 90  1  0
M  ISO  4   9 100  11 100  47 101  48 101
M  END
>  <TORSDO>  (49) 
F 19

>  <SCORE>  (49) 
-15.508

>  <name>  (49) 
48

>  <ligand_id>  (49) 
48

>  <original_smiles>  (49) 
[H]OC([H])([H])C1(C(=O)N2C([H])([H])C([H])([H])C([H])([H])C([H])(n3nc(-c4c([H])c([H])c(Oc5c([H])c([H])c(F)c([H])c5F)c([H])c4[H])c(C(=O)N([H])[H])c3N([H])[H])C2([H])[H])c2c([H])c([H])c(C([H])([H])Oc3c([H])c([H])c4c(c3[H])C([H])([H])N(C(=O)C([H])(N([H])C(=O)C([H])(N([H])C([H])([H])[H])C([H])([H])[H])C(C([H])([H])[H])(C([H])([H])[H])C([H])([H])[H])C([H])(C(=O)N([H])C3([H])c5c([H])c([H])c([H])c([H])c5C([H])([H])C([H])([H])C3([H])[H])C4([H])[H])c([H])c2C(=O)C1([H])[H]

>  <smiles>  (49) 
[H]OC([H])([H])C1(C(=O)N2C([H])([H])C([H])([H])C([H])([H])C([H])(n3nc(-c4c([H])c([H])c(Oc5c([H])c([H])c(F)c([H])c5F)c([H])c4[H])c(C(=O)N([H])[H])c3N([H])[H])C2([H])[H])c2c([H])c([H])c(C([H])([H])Oc3c([H])c([H])c4c(c3[H])C([H])([H])N(C(=O)C([H])(N([H])C(=O)C([H])(N([H])C([H])([H])[H])C([H])([H])[H])C(C([H])([H])[H])(C([H])([H])[H])C([H])([H])[H])C([H])(C(=O)N([H])C3([H])c5c([H])c([H])c([H])c([H])c5C([H])([H])C([H])([H])C3([H])[H])C4([H])[H])c([H])c2C(=O)C1([H])[H]

$$$$
49:0:0
     RDKit          3D

 90 98  0  0  1  0  0  0  0  0999 V2000
  -29.1230  -23.1280   20.1930 C   0  0  0  0  0  3  0  0  0  0  0  0
  -26.9460  -23.8980   19.5460 C   0  0  0  0  0  3  0  0  0  0  0  0
  -28.8480  -21.6040   19.9630 C   0  0  0  0  0  0  0  0  0  0  0  0
  -28.2080  -24.3790   19.9730 C   0  0  0  0  0  0  0  0  0  0  0  0
  -26.6400  -22.5380   19.2780 C   0  0  0  0  0  0  0  0  0  0  0  0
  -27.5370  -21.4530   19.4640 C   0  0  0  0  0  0  0  0  0  0  0  0
  -25.3880  -22.2540   18.8450 F   0  0  0  0  0  0  0  0  0  0  0  0
  -27.0740  -20.2040   19.2210 F   0  0  0  0  0  0  0  0  0  0  0  0
  -28.3630  -25.9260   20.1530 O   0  0  0  0  0  0  0  0  0  0  0  0
  -24.6480  -31.8510   23.1770 C   0  0  0  0  0  0  0  0  0  0  0  0
  -27.3550  -27.0530   20.1010 C   0  0  0  0  0  0  0  0  0  0  0  0
  -23.5210  -30.4760   21.4750 C   0  0  0  0  0  3  0  0  0  0  0  0
  -25.0370  -28.9390   20.0410 C   0  0  0  0  0  0  0  0  0  0  0  0
  -26.0890  -30.7190   21.4100 C   0  0  0  0  0  2  0  0  0  0  0  0
  -26.1960  -29.3220   20.7230 C   0  0  0  0  0  0  0  0  0  0  0  0
  -27.3430  -28.3960   20.7450 C   0  0  0  0  0  3  0  0  0  0  0  0
  -26.1940  -26.8840   19.3090 C   0  0  0  0  0  3  0  0  0  0  0  0
  -25.0640  -27.7410   19.3120 C   0  0  0  0  0  3  0  0  0  0  0  0
  -23.7990  -29.8370   20.0860 C   0  0  0  0  0  2  0  0  0  0  0  0
  -24.7720  -31.0440   22.0740 N   0  0  0  0  0  0  0  0  0  0  0  0
  -23.5400  -32.1080   23.6770 O   0  0  0  0  0  0  0  0  0  0  0  0
  -22.8240  -29.4410   22.3980 C   0  0  0  0  0  0  0  0  0  0  0  0
  -21.4940  -29.2800   22.2630 N   0  0  0  0  0  0  0  0  0  0  0  0
  -23.4860  -28.7860   23.2060 O   0  0  0  0  0  0  0  0  0  0  0  0
  -21.0110  -29.8610   21.5910 H   0  0  0  0  0  0  0  0  0  0  0  0
  -18.1010  -28.0990   22.7780 C   0  0  0  0  0  0  0  0  0  0  0  0
  -20.6700  -28.3110   22.9940 C   0  0  0  0  0  3  0  0  0  0  0  0
  -20.7340  -26.9140   22.3310 C   0  0  0  0  0  2  0  0  0  0  0  0
  -19.6040  -26.6720   21.3260 C   0  0  0  0  0  2  0  0  0  0  0  0
  -18.2400  -26.7940   22.0120 C   0  0  0  0  0  2  0  0  0  0  0  0
  -19.2410  -28.8190   23.2250 C   0  0  0  0  0  0  0  0  0  0  0  0
  -19.0540  -30.0400   23.9080 C   0  0  0  0  0  3  0  0  0  0  0  0
  -17.7600  -30.5430   24.1440 C   0  0  0  0  0  3  0  0  0  0  0  0
  -16.6350  -29.8200   23.7090 C   0  0  0  0  0  3  0  0  0  0  0  0
  -16.8070  -28.6000   23.0330 C   0  0  0  0  0  3  0  0  0  0  0  0
  -25.8900  -32.5040   23.8550 C   0  0  0  0  0  3  0  0  0  0  0  0
  -25.5530  -33.9040   24.1700 N   0  0  0  0  0  0  0  0  0  0  0  0
  -25.8900  -34.9640   23.4230 C   0  0  0  0  0  0  0  0  0  0  0  0
  -26.5800  -34.8660   22.4050 O   0  0  0  0  0  0  0  0  0  0  0  0
  -24.9400  -34.0510   24.9580 H   0  0  0  0  0  0  0  0  0  0  0  0
  -24.1440  -36.7430   23.0570 C   0  0  0  0  0  1  0  0  0  0  0  0
  -25.3860  -36.3500   23.8730 C   0  0  0  0  0  3  0  0  0  0  0  0
  -27.4980  -37.2750   24.7230 C   0  0  0  0  0  1  0  0  0  0  0  0
  -26.4070  -37.4160   23.7620 N   0  0  0  0  0  0  0  0  0  0  0  0
  -25.9870  -38.3320   23.8900 H   0  0  0  0  0  0  0  0  0  0  0  0
  -26.3470  -31.7500   25.1660 C   0  0  1  0  0  0  0  0  0  0  0  0
  -25.2030  -31.5170   26.1810 C   0  0  0  0  0  1  0  0  0  0  0  0
  -26.9580  -30.3700   24.8300 C   0  0  0  0  0  1  0  0  0  0  0  0
  -27.4580  -32.5600   25.8740 C   0  0  0  0  0  1  0  0  0  0  0  0
  -29.6230  -20.0620   20.3910 C   0  0  0  0  0  2  0  0  0  0  0  0
  -29.0450  -18.3980   18.3450 C   0  0  0  0  0  1  0  0  0  0  0  0
  -29.9080  -18.4280   19.6130 C   0  0  0  0  0  0  0  0  0  0  0  0
  -30.6940  -15.5270   19.8960 C   0  0  0  0  0  0  0  0  0  0  0  0
  -30.6070  -13.0600   19.0530 C   0  0  0  0  0  2  0  0  0  0  0  0
  -29.6260  -12.8560   17.8670 C   0  0  0  0  0  2  0  0  0  0  0  0
  -28.2010  -12.5940   18.3790 C   0  0  0  0  0  2  0  0  0  0  0  0
  -27.8190  -13.5610   19.5260 C   0  0  0  0  0  3  0  0  0  0  0  0
  -28.9230  -13.7090   20.5980 C   0  0  0  0  0  2  0  0  0  0  0  0
  -30.1260  -14.2110   19.9130 N   0  0  0  0  0  0  0  0  0  0  0  0
  -31.8690  -15.5130   19.4990 O   0  0  0  0  0  0  0  0  0  0  0  0
  -29.9670  -16.8150   20.1420 N   0  0  0  0  0  4  0  0  0  0  0  0
  -29.1020  -16.5910   20.6130 H   0  0  0  0  0  0  0  0  0  0  0  0
  -25.5190  -14.1480   20.4520 C   0  0  0  0  0  0  0  0  0  0  0  0
  -24.4590  -13.3860   20.8540 C   0  0  0  0  0  0  0  0  0  0  0  0
  -24.8790  -12.0250   20.7330 C   0  0  0  0  0  0  0  0  0  0  0  0
  -26.5160  -13.2560   20.1030 N   0  0  0  0  0  0  0  0  0  0  0  0
  -26.1480  -11.9690   20.3380 N   0  0  0  0  0  0  0  0  0  0  0  0
  -24.1250  -10.7780   20.9150 C   0  0  0  0  0  0  0  0  0  0  0  0
  -24.5390   -9.7880   21.8330 C   0  0  0  0  0  3  0  0  0  0  0  0
  -23.7830   -8.6080   22.0040 C   0  0  0  0  0  3  0  0  0  0  0  0
  -22.5970   -8.4100   21.2580 C   0  0  0  0  0  0  0  0  0  0  0  0
  -22.2010   -9.3880   20.3290 C   0  0  0  0  0  3  0  0  0  0  0  0
  -22.9580  -10.5590   20.1550 C   0  0  0  0  0  3  0  0  0  0  0  0
  -21.8130   -7.2850   21.3390 O   0  0  0  0  0  0  0  0  0  0  0  0
  -21.7110   -6.5610   22.5000 C   0  0  0  0  0  0  0  0  0  0  0  0
  -21.2190   -7.1330   23.6940 C   0  0  0  0  0  3  0  0  0  0  0  0
  -21.0640   -6.3350   24.8450 C   0  0  0  0  0  3  0  0  0  0  0  0
  -21.3920   -4.9670   24.8040 C   0  0  0  0  0  0  0  0  0  0  0  0
  -21.8770   -4.3950   23.6150 C   0  0  0  0  0  3  0  0  0  0  0  0
  -22.0320   -5.1890   22.4660 C   0  0  0  0  0  0  0  0  0  0  0  0
  -22.4800   -4.6270   21.3170 F   0  0  0  0  0  0  0  0  0  0  0  0
  -21.2370   -4.1990   25.9080 F   0  0  0  0  0  0  0  0  0  0  0  0
  -23.0980  -13.8920   21.2310 C   0  0  0  0  0  0  0  0  0  0  0  0
  -22.4100  -13.1920   22.1250 N   0  0  0  0  0  0  0  0  0  0  0  0
  -22.6570  -14.9440   20.7680 O   0  0  0  0  0  0  0  0  0  0  0  0
  -22.7820  -12.3400   22.5200 H   0  0  0  0  0  0  0  0  0  0  0  0
  -21.4980  -13.5120   22.4200 H   0  0  0  0  0  0  0  0  0  0  0  0
  -25.7130  -15.5200   20.3230 N   0  0  0  0  0  0  0  0  0  0  0  0
  -24.9710  -16.1870   20.5090 H   0  0  0  0  0  0  0  0  0  0  0  0
  -26.5400  -15.9500   19.9300 H   0  0  0  0  0  0  0  0  0  0  0  0
  2  4  2  0
  3  1  2  0
  3 50  1  0
  4  9  1  0
  4  1  1  0
  5  6  2  0
  5  2  1  0
  6  3  1  0
  7  5  1  0
  8  6  1  0
 10 21  2  0
 11  9  1  0
 11 16  1  0
 12 20  1  0
 12 22  1  0
 13 19  1  0
 13 15  1  0
 14 20  1  0
 15 16  2  0
 15 14  1  0
 17 18  1  0
 17 11  2  0
 18 13  2  0
 19 12  1  0
 20 10  1  0
 22 24  2  0
 23 22  1  0
 25 23  1  0
 26 35  2  0
 26 31  1  0
 27 23  1  0
 27 31  1  0
 28 27  1  0
 29 30  1  0
 29 28  1  0
 30 26  1  0
 31 32  2  0
 32 33  1  0
 34 33  2  0
 35 34  1  0
 36 10  1  0
 36 37  1  0
 36 46  1  0
 37 40  1  0
 38 42  1  0
 38 37  1  0
 39 38  2  0
 42 41  1  0
 44 42  1  0
 44 45  1  0
 44 43  1  0
 46 49  1  1
 46 47  1  0
 48 46  1  0
 51 52  1  0
 52 61  2  3
 52 50  1  0
 53 59  1  0
 53 61  1  0
 54 59  1  0
 55 56  1  0
 55 54  1  0
 57 56  1  0
 57 66  1  0
 57 58  1  0
 59 58  1  0
 60 53  2  0
 61 62  1  0
 63 64  2  0
 64 83  1  0
 65 64  1  0
 65 68  1  0
 66 67  1  0
 66 63  1  0
 67 65  2  0
 68 69  1  0
 69 70  2  0
 71 74  1  0
 71 70  1  0
 72 71  2  0
 73 72  1  0
 73 68  2  0
 74 75  1  0
 75 76  1  0
 76 77  2  0
 78 77  1  0
 78 82  1  0
 79 78  2  0
 80 75  2  0
 80 79  1  0
 81 80  1  0
 83 84  1  0
 84 87  1  0
 84 86  1  0
 85 83  2  0
 88 63  1  0
 88 89  1  0
 90 88  1  0
M  ISO  4   4 101   9 101  53 100  61 100
M  END
>  <TORSDO>  (50) 
F 18

>  <SCORE>  (50) 
-15.756

>  <name>  (50) 
49

>  <ligand_id>  (50) 
49

>  <original_smiles>  (50) 
[H]c1c([H])c([H])c2c(c1[H])C([H])([H])C([H])([H])C([H])([H])C2([H])N([H])C(=O)C1([H])N(C(=O)C([H])(N([H])C(=O)C([H])(N([H])C([H])([H])[H])C([H])([H])[H])C(C([H])([H])[H])(C([H])([H])[H])C([H])([H])[H])C([H])([H])c2c([H])c(Oc3c([H])c(F)c(F)c(C([H])([H])C([H])(N([H])C(=O)N4C([H])([H])C([H])([H])C([H])([H])C([H])(n5nc(-c6c([H])c([H])c(Oc7c([H])c([H])c(F)c([H])c7F)c([H])c6[H])c(C(=O)N([H])[H])c5N([H])[H])C4([H])[H])C([H])([H])[H])c3[H])c([H])c([H])c2C1([H])[H]

>  <smiles>  (50) 
[H]c1c([H])c([H])c2c(c1[H])C([H])([H])C([H])([H])C([H])([H])C2([H])N([H])C(=O)C1([H])N(C(=O)C([H])(N([H])C(=O)C([H])(N([H])C([H])([H])[H])C([H])([H])[H])C(C([H])([H])[H])(C([H])([H])[H])C([H])([H])[H])C([H])([H])c2c([H])c(Oc3c([H])c(F)c(F)c(C([H])([H])C([H])(N([H])C(=O)N4C([H])([H])C([H])([H])C([H])([H])C([H])(n5nc(-c6c([H])c([H])c(Oc7c([H])c([H])c(F)c([H])c7F)c([H])c6[H])c(C(=O)N([H])[H])c5N([H])[H])C4([H])[H])C([H])([H])[H])c3[H])c([H])c([H])c2C1([H])[H]

$$$$
50:0:0
     RDKit          3D

 88 96  0  0  1  0  0  0  0  0999 V2000
  -27.9700  -21.7100   19.2920 C   0  0  0  0  0  3  0  0  0  0  0  0
  -28.3220  -20.2330   19.2550 C   0  0  0  0  0  0  0  0  0  0  0  0
  -29.2130  -19.6790   20.1950 C   0  0  0  0  0  0  0  0  0  0  0  0
  -28.5000  -22.6150   20.2330 C   0  0  0  0  0  0  0  0  0  0  0  0
  -27.7180  -19.3550   18.1990 C   0  0  0  0  0  1  0  0  0  0  0  0
  -29.5720  -21.3120   21.1130 S   0  0  0  0  0  0  0  0  0  0  0  0
  -30.3990  -15.4080   20.2300 C   0  0  0  0  0  0  0  0  0  0  0  0
  -30.3770  -12.9460   19.3430 C   0  0  0  0  0  2  0  0  0  0  0  0
  -29.4400  -12.6780   18.1380 C   0  0  0  0  0  2  0  0  0  0  0  0
  -28.0060  -12.3860   18.6130 C   0  0  0  0  0  2  0  0  0  0  0  0
  -27.5580  -13.3630   19.7280 C   0  0  0  0  0  3  0  0  0  0  0  0
  -28.6250  -13.5640   20.8240 C   0  0  0  0  0  2  0  0  0  0  0  0
  -29.8190  -14.1010   20.1470 N   0  0  0  0  0  0  0  0  0  0  0  0
  -31.6290  -15.3510   20.0760 O   0  0  0  0  0  0  0  0  0  0  0  0
  -30.0140  -18.1580   20.4240 C   0  0  0  0  0  0  0  0  0  0  0  0
  -29.6560  -16.7160   20.2450 N   0  0  0  0  0  0  0  0  0  0  0  0
  -31.1580  -18.3380   20.8470 O   0  0  0  0  0  0  0  0  0  0  0  0
  -28.6690  -16.5940   20.0930 H   0  0  0  0  0  0  0  0  0  0  0  0
  -25.2080  -13.9070   20.5440 C   0  0  0  0  0  0  0  0  0  0  0  0
  -24.1540  -13.1250   20.9230 C   0  0  0  0  0  0  0  0  0  0  0  0
  -24.6210  -11.7750   20.8670 C   0  0  0  0  0  0  0  0  0  0  0  0
  -26.2460  -13.0350   20.2680 N   0  0  0  0  0  0  0  0  0  0  0  0
  -25.9070  -11.7460   20.5320 N   0  0  0  0  0  0  0  0  0  0  0  0
  -23.8960  -10.5110   21.0540 C   0  0  0  0  0  0  0  0  0  0  0  0
  -24.3350   -9.5340   21.9740 C   0  0  0  0  0  3  0  0  0  0  0  0
  -23.6070   -8.3380   22.1500 C   0  0  0  0  0  3  0  0  0  0  0  0
  -22.4250   -8.1090   21.4060 C   0  0  0  0  0  0  0  0  0  0  0  0
  -22.0040   -9.0750   20.4750 C   0  0  0  0  0  3  0  0  0  0  0  0
  -22.7340  -10.2620   20.2960 C   0  0  0  0  0  3  0  0  0  0  0  0
  -21.6680   -6.9660   21.4940 O   0  0  0  0  0  0  0  0  0  0  0  0
  -21.6190   -6.2210   22.6440 C   0  0  0  0  0  0  0  0  0  0  0  0
  -21.1670   -6.7650   23.8660 C   0  0  0  0  0  3  0  0  0  0  0  0
  -21.0670   -5.9450   25.0080 C   0  0  0  0  0  3  0  0  0  0  0  0
  -21.4090   -4.5830   24.9290 C   0  0  0  0  0  0  0  0  0  0  0  0
  -21.8540   -4.0370   23.7110 C   0  0  0  0  0  3  0  0  0  0  0  0
  -21.9550   -4.8550   22.5720 C   0  0  0  0  0  0  0  0  0  0  0  0
  -22.3640   -4.3190   21.3960 F   0  0  0  0  0  0  0  0  0  0  0  0
  -21.3070   -3.7920   26.0240 F   0  0  0  0  0  0  0  0  0  0  0  0
  -22.7620  -13.6000   21.2180 C   0  0  0  0  0  0  0  0  0  0  0  0
  -22.0440  -12.8930   22.0840 N   0  0  0  0  0  0  0  0  0  0  0  0
  -22.3210  -14.6340   20.7180 O   0  0  0  0  0  0  0  0  0  0  0  0
  -22.4160  -12.0560   22.5100 H   0  0  0  0  0  0  0  0  0  0  0  0
  -21.1100  -13.1910   22.3240 H   0  0  0  0  0  0  0  0  0  0  0  0
  -25.3640  -15.2800   20.3790 N   0  0  0  0  0  0  0  0  0  0  0  0
  -24.5930  -15.9260   20.5080 H   0  0  0  0  0  0  0  0  0  0  0  0
  -26.1930  -15.7220   20.0070 H   0  0  0  0  0  0  0  0  0  0  0  0
  -27.8990  -24.2290   20.6900 C   0  0  0  0  0  2  0  0  0  0  0  0
  -28.2040  -25.8050   20.2440 O   0  0  0  0  0  0  0  0  0  0  0  0
  -24.6120  -31.8560   23.2100 C   0  0  0  0  0  0  0  0  0  0  0  0
  -27.2060  -26.9340   20.2480 C   0  0  0  0  0  0  0  0  0  0  0  0
  -23.4380  -30.4450   21.5730 C   0  0  0  0  0  3  0  0  0  0  0  0
  -24.9050  -28.8330   20.1740 C   0  0  0  0  0  0  0  0  0  0  0  0
  -26.0080  -30.6570   21.4460 C   0  0  0  0  0  2  0  0  0  0  0  0
  -26.0910  -29.2380   20.8000 C   0  0  0  0  0  0  0  0  0  0  0  0
  -27.2390  -28.3130   20.8060 C   0  0  0  0  0  3  0  0  0  0  0  0
  -25.9860  -26.6940   19.5740 C   0  0  0  0  0  3  0  0  0  0  0  0
  -24.8800  -27.5820   19.5390 C   0  0  0  0  0  3  0  0  0  0  0  0
  -23.6830  -29.7540   20.2030 C   0  0  0  0  0  2  0  0  0  0  0  0
  -24.7080  -31.0140   22.1290 N   0  0  0  0  0  0  0  0  0  0  0  0
  -23.5170  -32.1430   23.7200 O   0  0  0  0  0  0  0  0  0  0  0  0
  -22.7390  -29.4520   22.5390 C   0  0  0  0  0  0  0  0  0  0  0  0
  -21.4090  -29.2890   22.4130 N   0  0  0  0  0  0  0  0  0  0  0  0
  -23.4020  -28.8290   23.3720 O   0  0  0  0  0  0  0  0  0  0  0  0
  -20.9260  -29.8420   21.7190 H   0  0  0  0  0  0  0  0  0  0  0  0
  -18.0230  -28.0870   22.9340 C   0  0  0  0  0  0  0  0  0  0  0  0
  -20.5860  -28.3510   23.1860 C   0  0  0  0  0  3  0  0  0  0  0  0
  -20.6810  -26.9200   22.6080 C   0  0  0  0  0  2  0  0  0  0  0  0
  -19.5740  -26.6010   21.5980 C   0  0  0  0  0  2  0  0  0  0  0  0
  -18.1960  -26.7410   22.2500 C   0  0  0  0  0  2  0  0  0  0  0  0
  -19.1440  -28.8500   23.3600 C   0  0  0  0  0  0  0  0  0  0  0  0
  -18.9260  -30.1060   23.9640 C   0  0  0  0  0  3  0  0  0  0  0  0
  -17.6200  -30.6020   24.1450 C   0  0  0  0  0  3  0  0  0  0  0  0
  -16.5150  -29.8370   23.7330 C   0  0  0  0  0  3  0  0  0  0  0  0
  -16.7170  -28.5810   23.1340 C   0  0  0  0  0  3  0  0  0  0  0  0
  -25.8730  -32.5120   23.8490 C   0  0  0  0  0  3  0  0  0  0  0  0
  -25.5470  -33.9140   24.1650 N   0  0  0  0  0  0  0  0  0  0  0  0
  -25.8920  -34.9710   23.4160 C   0  0  0  0  0  0  0  0  0  0  0  0
  -26.5790  -34.8670   22.3970 O   0  0  0  0  0  0  0  0  0  0  0  0
  -24.9370  -34.0670   24.9540 H   0  0  0  0  0  0  0  0  0  0  0  0
  -24.1800  -36.7790   23.0270 C   0  0  0  0  0  1  0  0  0  0  0  0
  -25.4000  -36.3620   23.8670 C   0  0  0  0  0  3  0  0  0  0  0  0
  -27.5120  -37.2440   24.7590 C   0  0  0  0  0  1  0  0  0  0  0  0
  -26.4390  -37.4120   23.7830 N   0  0  0  0  0  0  0  0  0  0  0  0
  -26.0310  -38.3340   23.9140 H   0  0  0  0  0  0  0  0  0  0  0  0
  -26.3640  -31.7660   25.1520 C   0  0  1  0  0  0  0  0  0  0  0  0
  -25.2500  -31.5460   26.2020 C   0  0  0  0  0  1  0  0  0  0  0  0
  -26.9580  -30.3810   24.8070 C   0  0  0  0  0  1  0  0  0  0  0  0
  -27.5000  -32.5760   25.8220 C   0  0  0  0  0  1  0  0  0  0  0  0
  1  4  2  0
  2  1  1  0
  2  3  2  0
  3 15  1  0
  3  6  1  0
  4 47  1  0
  4  6  1  0
  5  2  1  0
  7 16  1  0
  8 13  1  0
  9 10  1  0
  9  8  1  0
 11 10  1  0
 11 22  1  0
 11 12  1  0
 13  7  1  0
 13 12  1  0
 14  7  2  0
 15 17  2  0
 16 15  1  0
 18 16  1  0
 19 20  2  0
 20 39  1  0
 21 20  1  0
 21 24  1  0
 22 23  1  0
 22 19  1  0
 23 21  2  0
 24 25  1  0
 25 26  2  0
 27 30  1  0
 27 26  1  0
 28 27  2  0
 29 28  1  0
 29 24  2  0
 30 31  1  0
 31 32  1  0
 32 33  2  0
 34 33  1  0
 34 38  1  0
 35 34  2  0
 36 31  2  0
 36 35  1  0
 37 36  1  0
 39 40  1  0
 40 43  1  0
 40 42  1  0
 41 39  2  0
 44 45  1  0
 44 19  1  0
 46 44  1  0
 48 50  1  0
 48 47  1  0
 49 60  2  0
 50 55  1  0
 51 59  1  0
 51 61  1  0
 52 58  1  0
 52 54  1  0
 53 59  1  0
 54 55  2  0
 54 53  1  0
 56 50  2  0
 57 56  1  0
 57 52  2  0
 58 51  1  0
 59 49  1  0
 61 63  2  0
 62 61  1  0
 64 62  1  0
 65 74  2  0
 65 70  1  0
 66 62  1  0
 66 70  1  0
 67 66  1  0
 68 69  1  0
 68 67  1  0
 69 65  1  0
 70 71  2  0
 71 72  1  0
 73 72  2  0
 74 73  1  0
 75 49  1  0
 75 76  1  0
 75 85  1  0
 76 79  1  0
 77 81  1  0
 77 76  1  0
 78 77  2  0
 81 80  1  0
 83 81  1  0
 83 84  1  0
 83 82  1  0
 85 88  1  1
 85 86  1  0
 87 85  1  0
M  ISO  4   7 100  16 100  47 101  48 101
M  END
>  <TORSDO>  (51) 
F 17

>  <SCORE>  (51) 
-16.875

>  <name>  (51) 
50

>  <ligand_id>  (51) 
50

>  <original_smiles>  (51) 
[H]c1c([H])c([H])c2c(c1[H])C([H])([H])C([H])([H])C([H])([H])C2([H])N([H])C(=O)C1([H])N(C(=O)C([H])(N([H])C(=O)C([H])(N([H])C([H])([H])[H])C([H])([H])[H])C(C([H])([H])[H])(C([H])([H])[H])C([H])([H])[H])C([H])([H])c2c([H])c(OC([H])([H])c3sc(C(=O)N([H])C(=O)N4C([H])([H])C([H])([H])C([H])([H])C([H])(n5nc(-c6c([H])c([H])c(Oc7c([H])c([H])c(F)c([H])c7F)c([H])c6[H])c(C(=O)N([H])[H])c5N([H])[H])C4([H])[H])c(C([H])([H])[H])c3[H])c([H])c([H])c2C1([H])[H]

>  <smiles>  (51) 
[H]c1c([H])c([H])c2c(c1[H])C([H])([H])C([H])([H])C([H])([H])C2([H])N([H])C(=O)C1([H])N(C(=O)C([H])(N([H])C(=O)C([H])(N([H])C([H])([H])[H])C([H])([H])[H])C(C([H])([H])[H])(C([H])([H])[H])C([H])([H])[H])C([H])([H])c2c([H])c(OC([H])([H])c3sc(C(=O)N([H])C(=O)N4C([H])([H])C([H])([H])C([H])([H])C([H])(n5nc(-c6c([H])c([H])c(Oc7c([H])c([H])c(F)c([H])c7F)c([H])c6[H])c(C(=O)N([H])[H])c5N([H])[H])C4([H])[H])c(C([H])([H])[H])c3[H])c([H])c([H])c2C1([H])[H]

$$$$
51:0:0
     RDKit          3D

 92 95  0  0  1  0  0  0  0  0999 V2000
  -27.7500  -20.0020   18.9420 C   0  0  0  0  0  3  0  0  0  0  0  0
  -28.2910  -20.0540   20.9110 C   0  0  0  0  0  3  0  0  0  0  0  0
  -27.7060  -21.6370   18.9080 C   0  0  0  0  0  3  0  0  0  0  0  0
  -28.2470  -21.6910   20.8750 C   0  0  0  0  0  3  0  0  0  0  0  0
  -28.0480  -18.8220   19.9490 C   0  0  0  0  0  3  0  0  0  0  0  0
  -27.9160  -22.8730   19.8720 C   0  0  0  0  0  0  0  0  0  0  0  0
  -28.1830  -11.9200   19.9340 C   0  0  0  0  0 15  0  0  0  0  0  0
  -28.3470  -13.1880   21.8310 C   0  0  0  0  0 15  0  0  0  0  0  0
  -27.5760  -15.3820   18.3830 C   0  0  0  0  0 15  0  0  0  0  0  0
  -28.1720  -16.6650   19.9380 C   0  0  0  0  0 15  0  0  0  0  0  0
  -27.5120  -13.2180   18.1120 C   0  0  0  0  0  1  0  0  0  0  0  0
  -28.6950  -15.3580   21.5250 C   0  0  0  0  0  1  0  0  0  0  0  0
  -26.2350  -12.8110   17.3210 C   0  0  0  0  0  1  0  0  0  0  0  0
  -31.4630  -15.0620   21.0080 C   0  0  0  0  0  0  0  0  0  0  0  0
  -32.2550  -12.9280   19.7990 C   0  0  0  0  0  2  0  0  0  0  0  0
  -31.4580  -12.7260   18.5120 C   0  0  0  0  0  2  0  0  0  0  0  0
  -29.9690  -12.9360   18.6230 C   0  0  0  0  0  2  0  0  0  0  0  0
  -29.1520  -13.8020   19.8230 C   0  0  0  0  0  2  0  0  0  0  0  0
  -30.3540  -13.1000   20.8330 C   0  0  0  0  0  2  0  0  0  0  0  0
  -31.4670  -13.7630   20.6840 N   0  0  0  0  0  0  0  0  0  0  0  0
  -32.5290  -15.6220   20.7520 O   0  0  0  0  0  0  0  0  0  0  0  0
  -30.2810  -15.6220   21.6060 N   0  0  0  0  0  0  0  0  0  0  0  0
  -30.4740  -16.5530   21.9480 H   0  0  0  0  0  0  0  0  0  0  0  0
  -25.9000  -14.3960   20.9070 C   0  0  2  0  0  0  0  0  0  0  0  0
  -24.9370  -13.4400   21.2950 C   0  0  1  0  0  0  0  0  0  0  0  0
  -25.4210  -12.1260   21.1970 C   0  0  0  0  0  3  0  0  0  0  0  0
  -26.9750  -13.8010   20.3330 N   0  0  0  0  0  2  0  0  0  0  0  0
  -26.0090  -12.6580   20.1960 N   0  0  1  0  0  4  0  0  0  0  0  0
  -24.8580  -10.6890   21.1930 C   0  0  0  0  0  0  0  0  0  0  0  0
  -25.1940   -9.7090   22.1800 C   0  0  0  0  0  3  0  0  0  0  0  0
  -24.5230   -8.4530   22.2740 C   0  0  0  0  0  3  0  0  0  0  0  0
  -23.4850   -8.1210   21.3710 C   0  0  0  0  0  0  0  0  0  0  0  0
  -23.2090   -9.0390   20.3380 C   0  0  0  0  0  3  0  0  0  0  0  0
  -23.8860  -10.2800   20.2440 C   0  0  0  0  0  3  0  0  0  0  0  0
  -22.7540   -6.9440   21.3950 O   0  0  0  0  0  0  0  0  0  0  0  0
  -22.3910   -6.3030   22.5610 C   0  0  0  0  0  0  0  0  0  0  0  0
  -21.6700   -6.9550   23.5890 C   0  0  0  0  0  3  0  0  0  0  0  0
  -21.2710   -6.2420   24.7400 C   0  0  0  0  0  3  0  0  0  0  0  0
  -21.5810   -4.8750   24.8700 C   0  0  0  0  0  0  0  0  0  0  0  0
  -22.2810   -4.2160   23.8430 C   0  0  0  0  0  3  0  0  0  0  0  0
  -22.6760   -4.9240   22.6930 C   0  0  0  0  0  0  0  0  0  0  0  0
  -23.3270   -4.2670   21.7030 F   0  0  0  0  0  0  0  0  0  0  0  0
  -21.2050   -4.1920   25.9770 F   0  0  0  0  0  0  0  0  0  0  0  0
  -23.4950  -13.7060   21.2760 C   0  0  0  0  0  0  0  0  0  0  0  0
  -22.7350  -12.9400   22.0420 N   0  0  0  0  0  0  0  0  0  0  0  0
  -23.0570  -14.5850   20.5430 O   0  0  0  0  0  0  0  0  0  0  0  0
  -23.1400  -12.2320   22.6370 H   0  0  0  0  0  0  0  0  0  0  0  0
  -21.7330  -13.0690   22.0440 H   0  0  0  0  0  0  0  0  0  0  0  0
  -25.8180  -15.7400   20.8020 N   0  0  0  0  0  0  0  0  0  0  0  0
  -24.8750  -16.0150   20.5470 H   0  0  0  0  0  0  0  0  0  0  0  0
  -26.4830  -16.1150   20.1370 H   0  0  0  0  0  0  0  0  0  0  0  0
  -28.0790  -24.6860   19.7890 O   0  0  0  0  0  0  0  0  0  0  0  0
  -24.9610  -31.6880   22.8920 C   0  0  0  0  0  0  0  0  0  0  0  0
  -27.3350  -26.2090   19.8250 C   0  0  0  0  0  0  0  0  0  0  0  0
  -23.8220  -30.2810   21.2520 C   0  0  0  0  0  3  0  0  0  0  0  0
  -25.2650  -28.6220   19.7910 C   0  0  0  0  0  0  0  0  0  0  0  0
  -26.4140  -30.3050   21.1840 C   0  0  0  0  0  2  0  0  0  0  0  0
  -26.4560  -28.8350   20.4870 C   0  0  0  0  0  0  0  0  0  0  0  0
  -27.4690  -27.6620   20.4680 C   0  0  0  0  0  3  0  0  0  0  0  0
  -26.1750  -26.3880   19.0260 C   0  0  0  0  0  3  0  0  0  0  0  0
  -25.2030  -27.4460   19.0270 C   0  0  0  0  0  3  0  0  0  0  0  0
  -24.0870  -29.6240   19.8620 C   0  0  0  0  0  2  0  0  0  0  0  0
  -25.1000  -30.8110   21.8230 N   0  0  0  0  0  0  0  0  0  0  0  0
  -23.8510  -31.9590   23.3900 O   0  0  0  0  0  0  0  0  0  0  0  0
  -23.1230  -29.2750   22.2120 C   0  0  0  0  0  0  0  0  0  0  0  0
  -21.7880  -29.1140   22.1230 N   0  0  0  0  0  0  0  0  0  0  0  0
  -23.8020  -28.6420   23.0230 O   0  0  0  0  0  0  0  0  0  0  0  0
  -21.2790  -29.6780   21.4570 H   0  0  0  0  0  0  0  0  0  0  0  0
  -18.4430  -27.7970   22.6980 C   0  0  0  0  0  0  0  0  0  0  0  0
  -21.0020  -28.1380   22.8930 C   0  0  0  0  0  3  0  0  0  0  0  0
  -21.1250  -26.7230   22.2800 C   0  0  0  0  0  2  0  0  0  0  0  0
  -20.0080  -26.3990   21.2840 C   0  0  0  0  0  2  0  0  0  0  0  0
  -18.6400  -26.4800   21.9680 C   0  0  0  0  0  2  0  0  0  0  0  0
  -19.5500  -28.5830   23.1180 C   0  0  0  0  0  0  0  0  0  0  0  0
  -19.3060  -29.8100   23.7720 C   0  0  0  0  0  3  0  0  0  0  0  0
  -17.9900  -30.2560   24.0020 C   0  0  0  0  0  3  0  0  0  0  0  0
  -16.9000  -29.4710   23.5920 C   0  0  0  0  0  3  0  0  0  0  0  0
  -17.1270  -28.2420   22.9470 C   0  0  0  0  0  3  0  0  0  0  0  0
  -26.1780  -32.4080   23.5510 C   0  0  0  0  0  3  0  0  0  0  0  0
  -25.7540  -33.7650   23.9760 N   0  0  0  0  0  0  0  0  0  0  0  0
  -26.0490  -34.9140   23.3510 C   0  0  0  0  0  0  0  0  0  0  0  0
  -26.7520  -34.9510   22.3390 O   0  0  0  0  0  0  0  0  0  0  0  0
  -25.1210  -33.8040   24.7600 H   0  0  0  0  0  0  0  0  0  0  0  0
  -24.2420  -36.6660   23.1380 C   0  0  0  0  0  1  0  0  0  0  0  0
  -25.4820  -36.2300   23.9360 C   0  0  0  0  0  3  0  0  0  0  0  0
  -27.5500  -37.1380   24.9100 C   0  0  0  0  0  1  0  0  0  0  0  0
  -26.4600  -37.3430   23.9610 N   0  0  0  0  0  0  0  0  0  0  0  0
  -26.0010  -38.2190   24.1930 H   0  0  0  0  0  0  0  0  0  0  0  0
  -26.7490  -31.6350   24.8060 C   0  0  1  0  0  0  0  0  0  0  0  0
  -25.6800  -31.3030   25.8750 C   0  0  0  0  0  1  0  0  0  0  0  0
  -27.4150  -30.3080   24.3920 C   0  0  0  0  0  1  0  0  0  0  0  0
  -27.8520  -32.4800   25.4850 C   0  0  0  0  0  1  0  0  0  0  0  0
  1  5  1  0
  3  1  2  0
  3  6  1  0
  4  2  1  0
  5  2  2  0
  6  4  2  0
 12 22  1  0
 13 11  1  0
 14 22  1  0
 15 20  1  0
 16 17  1  0
 16 15  1  0
 17 18  1  0
 18 19  1  0
 20 19  1  0
 20 14  1  0
 21 14  2  0
 22 23  1  0
 24 49  1  1
 24 25  1  0
 25 44  1  1
 26 29  1  0
 26 25  1  0
 27 24  1  0
 28 27  1  6
 28 24  1  0
 28 26  1  0
 28 25  1  0
 29 30  1  0
 30 31  2  0
 32 35  1  0
 32 31  1  0
 33 32  2  0
 34 33  1  0
 34 29  2  0
 35 36  1  0
 36 41  2  0
 36 37  1  0
 37 38  2  0
 38 39  1  0
 39 43  1  0
 40 39  2  0
 41 40  1  0
 42 41  1  0
 44 45  1  0
 45 48  1  0
 45 47  1  0
 46 44  2  0
 50 49  1  0
 51 49  1  0
 52 54  1  0
 52  6  1  0
 53 64  2  0
 54 59  1  0
 55 63  1  0
 55 65  1  0
 56 62  1  0
 56 58  1  0
 57 63  1  0
 58 57  1  0
 59 58  2  0
 60 61  1  0
 60 54  2  0
 61 56  2  0
 62 55  1  0
 63 53  1  0
 65 67  2  0
 66 65  1  0
 68 66  1  0
 69 78  2  0
 69 74  1  0
 70 66  1  0
 70 74  1  0
 71 70  1  0
 72 73  1  0
 72 71  1  0
 73 69  1  0
 74 75  2  0
 75 76  1  0
 77 76  2  0
 78 77  1  0
 79 53  1  0
 79 80  1  0
 79 89  1  0
 80 83  1  0
 81 85  1  0
 81 80  1  0
 82 81  2  0
 85 84  1  0
 85 87  1  0
 87 88  1  0
 87 86  1  0
 89 92  1  1
 89 90  1  0
 91 89  1  0
M  ISO  4   6 101  14 100  22 100  52 101
M  END
>  <TORSDO>  (52) 
F 17

>  <SCORE>  (52) 
-10.908

>  <name>  (52) 
51

>  <ligand_id>  (52) 
51

>  <original_smiles>  (52) 
[H]c1c([H])c([H])c2c(c1[H])C([H])([H])C([H])([H])C([H])([H])C2([H])N([H])C(=O)C1([H])N(C(=O)C([H])(N([H])C(=O)C([H])(N([H])C([H])([H])[H])C([H])([H])[H])C(C([H])([H])[H])(C([H])([H])[H])C([H])([H])[H])C([H])([H])c2c([H])c(Oc3c([H])c([H])c(C4([H])C([H])([H])C([H])(C([H])([H])[H])C([H])([H])C([H])([H])C4([H])N([H])C(=O)N4C([H])([H])C([H])([H])C([H])([H])C([H])(n5nc(-c6c([H])c([H])c(Oc7c([H])c([H])c(F)c([H])c7F)c([H])c6[H])c(C(=O)N([H])[H])c5N([H])[H])C4([H])[H])c([H])c3[H])c([H])c([H])c2C1([H])[H]

>  <smiles>  (52) 
[H]c1c([H])c([H])c2c(c1[H])C([H])([H])C([H])([H])C([H])([H])C2([H])N([H])C(=O)C1([H])N(C(=O)C([H])(N([H])C(=O)C([H])(N([H])C([H])([H])[H])C([H])([H])[H])C(C([H])([H])[H])(C([H])([H])[H])C([H])([H])[H])C([H])([H])c2c([H])c(Oc3c([H])c([H])c(C4([H])C([H])([H])C([H])(C([H])([H])[H])C([H])([H])C([H])([H])C4([H])N([H])C(=O)N4C([H])([H])C([H])([H])C([H])([H])C([H])(n5nc(-c6c([H])c([H])c(Oc7c([H])c([H])c(F)c([H])c7F)c([H])c6[H])c(C(=O)N([H])[H])c5N([H])[H])C4([H])[H])c([H])c3[H])c([H])c([H])c2C1([H])[H]

$$$$
52:0:0
     RDKit          3D

 90 99  0  0  1  0  0  0  0  0999 V2000
  -30.7600  -14.5550   20.4320 C   0  0  0  0  0  0  0  0  0  0  0  0
  -30.4140  -12.3710   19.3950 C   0  0  0  0  0  2  0  0  0  0  0  0
  -29.4940  -12.5650   18.1730 C   0  0  0  0  0  2  0  0  0  0  0  0
  -28.0180  -12.4480   18.5910 C   0  0  0  0  0  2  0  0  0  0  0  0
  -27.6580  -13.3290   19.8180 C   0  0  0  0  0  3  0  0  0  0  0  0
  -28.7050  -13.1830   20.9440 C   0  0  0  0  0  2  0  0  0  0  0  0
  -30.0360  -13.4090   20.3610 N   0  0  0  0  0  0  0  0  0  0  0  0
  -31.9840  -14.5620   20.2890 O   0  0  0  0  0  0  0  0  0  0  0  0
  -29.0670  -19.2630   21.2140 C   0  0  0  0  0  3  0  0  0  0  0  0
  -29.3390  -18.0590   20.4830 C   0  0  0  0  0  0  0  0  0  0  0  0
  -29.2270  -18.2640   19.1370 C   0  0  0  0  0  0  0  0  0  0  0  0
  -28.8170  -20.3610   20.4160 C   0  0  0  0  0  0  0  0  0  0  0  0
  -29.7680  -16.7120   21.0540 C   0  0  0  0  0  2  0  0  0  0  0  0
  -29.5510  -17.2340   18.1240 C   0  0  0  0  0  2  0  0  0  0  0  0
  -30.5280  -16.2160   18.7270 C   0  0  0  0  0  2  0  0  0  0  0  0
  -30.0890  -15.6720   20.0410 N   0  0  0  0  0  0  0  0  0  0  0  0
  -28.8070  -19.9070   18.7350 S   0  0  0  0  0  0  0  0  0  0  0  0
  -25.2530  -13.9540   20.4740 C   0  0  0  0  0  0  0  0  0  0  0  0
  -24.1690  -13.1940   20.8310 C   0  0  0  0  0  0  0  0  0  0  0  0
  -24.6250  -11.8390   20.8380 C   0  0  0  0  0  0  0  0  0  0  0  0
  -26.2990  -13.0650   20.2870 N   0  0  0  0  0  0  0  0  0  0  0  0
  -25.9230  -11.7880   20.5590 N   0  0  0  0  0  0  0  0  0  0  0  0
  -23.8840  -10.5840   21.0310 C   0  0  0  0  0  0  0  0  0  0  0  0
  -24.3010   -9.6170   21.9720 C   0  0  0  0  0  3  0  0  0  0  0  0
  -23.5620   -8.4270   22.1480 C   0  0  0  0  0  3  0  0  0  0  0  0
  -22.3940   -8.1980   21.3830 C   0  0  0  0  0  0  0  0  0  0  0  0
  -21.9970   -9.1530   20.4290 C   0  0  0  0  0  3  0  0  0  0  0  0
  -22.7380  -10.3320   20.2500 C   0  0  0  0  0  3  0  0  0  0  0  0
  -21.6270   -7.0610   21.4680 O   0  0  0  0  0  0  0  0  0  0  0  0
  -21.5700   -6.3170   22.6190 C   0  0  0  0  0  0  0  0  0  0  0  0
  -21.1630   -6.8770   23.8500 C   0  0  0  0  0  3  0  0  0  0  0  0
  -21.0590   -6.0620   24.9930 C   0  0  0  0  0  3  0  0  0  0  0  0
  -21.3380   -4.6840   24.9060 C   0  0  0  0  0  0  0  0  0  0  0  0
  -21.7330   -4.1230   23.6790 C   0  0  0  0  0  3  0  0  0  0  0  0
  -21.8420   -4.9370   22.5370 C   0  0  0  0  0  0  0  0  0  0  0  0
  -22.2070   -4.3860   21.3550 F   0  0  0  0  0  0  0  0  0  0  0  0
  -21.2270   -3.9010   26.0030 F   0  0  0  0  0  0  0  0  0  0  0  0
  -22.7710  -13.6850   21.0610 C   0  0  0  0  0  0  0  0  0  0  0  0
  -22.0200  -13.0040   21.9190 N   0  0  0  0  0  0  0  0  0  0  0  0
  -22.3500  -14.7070   20.5200 O   0  0  0  0  0  0  0  0  0  0  0  0
  -22.3760  -12.1800   22.3800 H   0  0  0  0  0  0  0  0  0  0  0  0
  -21.0820  -13.3180   22.1280 H   0  0  0  0  0  0  0  0  0  0  0  0
  -25.4260  -15.3170   20.2670 N   0  0  0  0  0  0  0  0  0  0  0  0
  -24.6440  -15.9640   20.2520 H   0  0  0  0  0  0  0  0  0  0  0  0
  -26.2930  -15.7360   19.9570 H   0  0  0  0  0  0  0  0  0  0  0  0
  -28.5030  -21.7740   20.8400 C   0  0  0  0  0  2  0  0  0  0  0  0
  -29.1130  -22.9300   19.9930 C   0  0  0  0  0  2  0  0  0  0  0  0
  -28.8130  -24.3250   20.6220 C   0  0  0  0  0  2  0  0  0  0  0  0
  -28.7550  -25.5020   19.6200 C   0  0  0  0  0  2  0  0  0  0  0  0
  -28.5710  -26.7800   20.2680 O   0  0  0  0  0  0  0  0  0  0  0  0
  -24.6390  -31.9380   23.2540 C   0  0  0  0  0  0  0  0  0  0  0  0
  -27.3620  -27.4570   20.2500 C   0  0  0  0  0  0  0  0  0  0  0  0
  -23.4670  -30.4990   21.6220 C   0  0  0  0  0  3  0  0  0  0  0  0
  -24.9480  -28.9560   20.2380 C   0  0  0  0  0  0  0  0  0  0  0  0
  -25.9970  -30.8740   21.4520 C   0  0  0  0  0  2  0  0  0  0  0  0
  -26.0990  -29.4940   20.8270 C   0  0  0  0  0  0  0  0  0  0  0  0
  -27.3020  -28.7510   20.8290 C   0  0  0  0  0  3  0  0  0  0  0  0
  -26.1760  -26.9280   19.6830 C   0  0  0  0  0  3  0  0  0  0  0  0
  -24.9840  -27.6730   19.6700 C   0  0  0  0  0  3  0  0  0  0  0  0
  -23.6960  -29.8020   20.2570 C   0  0  0  0  0  2  0  0  0  0  0  0
  -24.7190  -31.1220   22.1650 N   0  0  0  0  0  0  0  0  0  0  0  0
  -23.5480  -32.2070   23.7770 O   0  0  0  0  0  0  0  0  0  0  0  0
  -22.8160  -29.4860   22.5920 C   0  0  0  0  0  0  0  0  0  0  0  0
  -21.4920  -29.2970   22.4610 N   0  0  0  0  0  0  0  0  0  0  0  0
  -23.4970  -28.8710   23.4160 O   0  0  0  0  0  0  0  0  0  0  0  0
  -21.0050  -29.8470   21.7690 H   0  0  0  0  0  0  0  0  0  0  0  0
  -18.1120  -28.1070   22.9710 C   0  0  0  0  0  0  0  0  0  0  0  0
  -20.6720  -28.3610   23.2330 C   0  0  0  0  0  3  0  0  0  0  0  0
  -20.7670  -26.9300   22.6560 C   0  0  0  0  0  2  0  0  0  0  0  0
  -19.6600  -26.6100   21.6450 C   0  0  0  0  0  2  0  0  0  0  0  0
  -18.2820  -26.7570   22.2960 C   0  0  0  0  0  2  0  0  0  0  0  0
  -19.2340  -28.8680   23.3960 C   0  0  0  0  0  0  0  0  0  0  0  0
  -19.0210  -30.1340   23.9850 C   0  0  0  0  0  3  0  0  0  0  0  0
  -17.7180  -30.6420   24.1470 C   0  0  0  0  0  3  0  0  0  0  0  0
  -16.6110  -29.8780   23.7390 C   0  0  0  0  0  3  0  0  0  0  0  0
  -16.8090  -28.6120   23.1600 C   0  0  0  0  0  3  0  0  0  0  0  0
  -25.9110  -32.5910   23.8820 C   0  0  0  0  0  3  0  0  0  0  0  0
  -26.4300  -31.8330   25.1640 C   0  0  1  0  0  0  0  0  0  0  0  0
  -25.3300  -31.5860   26.2240 C   0  0  0  0  0  1  0  0  0  0  0  0
  -27.0370  -30.4640   24.7830 C   0  0  0  0  0  1  0  0  0  0  0  0
  -27.5720  -32.6440   25.8200 C   0  0  0  0  0  1  0  0  0  0  0  0
  -25.5840  -33.9870   24.2030 N   0  0  0  0  0  0  0  0  0  0  0  0
  -25.9060  -35.0400   23.4380 C   0  0  0  0  0  0  0  0  0  0  0  0
  -26.5860  -34.9350   22.4130 O   0  0  0  0  0  0  0  0  0  0  0  0
  -24.9830  -34.1400   25.0010 H   0  0  0  0  0  0  0  0  0  0  0  0
  -24.1560  -36.7960   23.0530 C   0  0  0  0  0  1  0  0  0  0  0  0
  -25.3980  -36.4260   23.8790 C   0  0  0  0  0  3  0  0  0  0  0  0
  -27.5210  -37.3380   24.7110 C   0  0  0  0  0  1  0  0  0  0  0  0
  -26.4210  -37.4890   23.7590 N   0  0  0  0  0  0  0  0  0  0  0  0
  -26.0090  -38.4090   23.8890 H   0  0  0  0  0  0  0  0  0  0  0  0
  2  7  1  0
  3  4  1  0
  3  2  1  0
  5  4  1  0
  5 21  1  0
  5  6  1  0
  7  1  1  0
  7  6  1  0
  8  1  2  0
 10 13  1  0
 10  9  1  0
 11 10  2  0
 12 46  1  0
 12  9  2  0
 14 15  1  0
 14 11  1  0
 15 16  1  0
 16  1  1  0
 16 13  1  0
 17 11  1  0
 17 12  1  0
 18 19  2  0
 19 20  1  0
 19 38  1  0
 20 23  1  0
 21 18  1  0
 21 22  1  0
 22 20  2  0
 23 24  1  0
 24 25  2  0
 26 29  1  0
 26 25  1  0
 27 26  2  0
 28 27  1  0
 28 23  2  0
 29 30  1  0
 30 31  1  0
 31 32  2  0
 33 32  1  0
 33 37  1  0
 34 33  2  0
 35 30  2  0
 35 34  1  0
 36 35  1  0
 38 39  1  0
 39 42  1  0
 39 41  1  0
 40 38  2  0
 43 18  1  0
 44 43  1  0
 45 43  1  0
 47 48  1  0
 47 46  1  0
 49 50  1  0
 49 48  1  0
 51 62  2  0
 52 50  1  0
 52 57  1  0
 53 61  1  0
 53 63  1  0
 54 60  1  0
 54 56  1  0
 55 61  1  0
 56 57  2  0
 56 55  1  0
 58 52  2  0
 59 58  1  0
 59 54  2  0
 60 53  1  0
 61 51  1  0
 63 65  2  0
 64 63  1  0
 66 64  1  0
 67 76  2  0
 67 72  1  0
 68 64  1  0
 68 72  1  0
 69 68  1  0
 70 71  1  0
 70 69  1  0
 71 67  1  0
 72 73  2  0
 73 74  1  0
 75 74  2  0
 76 75  1  0
 77 51  1  0
 77 82  1  0
 77 78  1  0
 78 81  1  1
 78 79  1  0
 80 78  1  0
 82 85  1  0
 83 87  1  0
 83 82  1  0
 84 83  2  0
 87 86  1  0
 89 87  1  0
 89 90  1  0
 89 88  1  0
M  ISO  4   1 100  16 100  49 101  50 101
M  END
>  <TORSDO>  (53) 
F 19

>  <SCORE>  (53) 
-13.652

>  <name>  (53) 
52

>  <ligand_id>  (53) 
52

>  <original_smiles>  (53) 
[H]c1c([H])c([H])c2c(c1[H])C([H])([H])C([H])([H])C([H])([H])C2([H])N([H])C(=O)C1([H])N(C(=O)C([H])(N([H])C(=O)C([H])(N([H])C([H])([H])[H])C([H])([H])[H])C(C([H])([H])[H])(C([H])([H])[H])C([H])([H])[H])C([H])([H])c2c([H])c(OC([H])([H])C([H])([H])C([H])([H])C([H])([H])c3sc4c(c3[H])C([H])([H])N(C(=O)N3C([H])([H])C([H])([H])C([H])([H])C([H])(n5nc(-c6c([H])c([H])c(Oc7c([H])c([H])c(F)c([H])c7F)c([H])c6[H])c(C(=O)N([H])[H])c5N([H])[H])C3([H])[H])C([H])([H])C4([H])[H])c([H])c([H])c2C1([H])[H]

>  <smiles>  (53) 
[H]c1c([H])c([H])c2c(c1[H])C([H])([H])C([H])([H])C([H])([H])C2([H])N([H])C(=O)C1([H])N(C(=O)C([H])(N([H])C(=O)C([H])(N([H])C([H])([H])[H])C([H])([H])[H])C(C([H])([H])[H])(C([H])([H])[H])C([H])([H])[H])C([H])([H])c2c([H])c(OC([H])([H])C([H])([H])C([H])([H])C([H])([H])c3sc4c(c3[H])C([H])([H])N(C(=O)N3C([H])([H])C([H])([H])C([H])([H])C([H])(n5nc(-c6c([H])c([H])c(Oc7c([H])c([H])c(F)c([H])c7F)c([H])c6[H])c(C(=O)N([H])[H])c5N([H])[H])C3([H])[H])C([H])([H])C4([H])[H])c([H])c([H])c2C1([H])[H]

$$$$
53:0:0
     RDKit          3D

 88 96  0  0  1  0  0  0  0  0999 V2000
  -28.5110  -21.5610   18.5960 C   0  0  0  0  0  3  0  0  0  0  0  0
  -28.2270  -22.7630   17.8960 C   0  0  0  0  0  3  0  0  0  0  0  0
  -28.5520  -22.9490   20.5680 C   0  0  0  0  0  3  0  0  0  0  0  0
  -28.7210  -21.5050   19.9870 C   0  0  0  0  0  0  0  0  0  0  0  0
  -28.1130  -24.0630   18.4700 C   0  0  0  0  0  0  0  0  0  0  0  0
  -28.2180  -24.3100   19.8710 C   0  0  0  0  0  0  0  0  0  0  0  0
  -27.9290  -25.2060   17.4850 C   0  0  0  0  0  1  0  0  0  0  0  0
  -28.1810  -25.8040   20.3140 O   0  0  0  0  0  0  0  0  0  0  0  0
  -24.6320  -31.8590   23.2040 C   0  0  0  0  0  0  0  0  0  0  0  0
  -27.1700  -26.9200   20.2110 C   0  0  0  0  0  0  0  0  0  0  0  0
  -23.4320  -30.4510   21.5840 C   0  0  0  0  0  3  0  0  0  0  0  0
  -24.8720  -28.8290   20.1700 C   0  0  0  0  0  0  0  0  0  0  0  0
  -26.0010  -30.6550   21.4180 C   0  0  0  0  0  2  0  0  0  0  0  0
  -26.0690  -29.2360   20.7690 C   0  0  0  0  0  0  0  0  0  0  0  0
  -27.2100  -28.3060   20.7590 C   0  0  0  0  0  3  0  0  0  0  0  0
  -25.9240  -26.6640   19.5990 C   0  0  0  0  0  3  0  0  0  0  0  0
  -24.8220  -27.5590   19.5720 C   0  0  0  0  0  3  0  0  0  0  0  0
  -23.6570  -29.7550   20.2150 C   0  0  0  0  0  2  0  0  0  0  0  0
  -24.7110  -31.0160   22.1220 N   0  0  0  0  0  0  0  0  0  0  0  0
  -23.5440  -32.1500   23.7270 O   0  0  0  0  0  0  0  0  0  0  0  0
  -22.7400  -29.4630   22.5600 C   0  0  0  0  0  0  0  0  0  0  0  0
  -21.4110  -29.2940   22.4410 N   0  0  0  0  0  0  0  0  0  0  0  0
  -23.4100  -28.8490   23.3960 O   0  0  0  0  0  0  0  0  0  0  0  0
  -20.9220  -29.8380   21.7440 H   0  0  0  0  0  0  0  0  0  0  0  0
  -18.0370  -28.0570   22.9620 C   0  0  0  0  0  0  0  0  0  0  0  0
  -20.5930  -28.3580   23.2230 C   0  0  0  0  0  3  0  0  0  0  0  0
  -20.7130  -26.9180   22.6680 C   0  0  0  0  0  2  0  0  0  0  0  0
  -19.6160  -26.5690   21.6570 C   0  0  0  0  0  2  0  0  0  0  0  0
  -18.2330  -26.7040   22.2970 C   0  0  0  0  0  2  0  0  0  0  0  0
  -19.1460  -28.8390   23.3810 C   0  0  0  0  0  0  0  0  0  0  0  0
  -18.9090  -30.1020   23.9650 C   0  0  0  0  0  3  0  0  0  0  0  0
  -17.5970  -30.5860   24.1310 C   0  0  0  0  0  3  0  0  0  0  0  0
  -16.5020  -29.8010   23.7250 C   0  0  0  0  0  3  0  0  0  0  0  0
  -16.7240  -28.5390   23.1470 C   0  0  0  0  0  3  0  0  0  0  0  0
  -25.9020  -32.5120   23.8270 C   0  0  0  0  0  3  0  0  0  0  0  0
  -25.5830  -33.9160   24.1470 N   0  0  0  0  0  0  0  0  0  0  0  0
  -25.9280  -34.9720   23.4010 C   0  0  0  0  0  0  0  0  0  0  0  0
  -26.6100  -34.8670   22.3780 O   0  0  0  0  0  0  0  0  0  0  0  0
  -24.9770  -34.0710   24.9400 H   0  0  0  0  0  0  0  0  0  0  0  0
  -24.2280  -36.7920   23.0200 C   0  0  0  0  0  1  0  0  0  0  0  0
  -25.4460  -36.3660   23.8560 C   0  0  0  0  0  3  0  0  0  0  0  0
  -27.5660  -37.2320   24.7440 C   0  0  0  0  0  1  0  0  0  0  0  0
  -26.4920  -37.4100   23.7710 N   0  0  0  0  0  0  0  0  0  0  0  0
  -26.0920  -38.3350   23.9050 H   0  0  0  0  0  0  0  0  0  0  0  0
  -26.4080  -31.7630   25.1220 C   0  0  1  0  0  0  0  0  0  0  0  0
  -25.3070  -31.5460   26.1880 C   0  0  0  0  0  1  0  0  0  0  0  0
  -26.9890  -30.3770   24.7660 C   0  0  0  0  0  1  0  0  0  0  0  0
  -27.5570  -32.5650   25.7760 C   0  0  0  0  0  1  0  0  0  0  0  0
  -28.9450  -19.8640   20.6310 C   0  0  0  0  0  2  0  0  0  0  0  0
  -29.7440  -18.3210   20.0380 C   0  0  0  0  0  2  0  0  0  0  0  0
  -30.3890  -15.3860   20.2660 C   0  0  0  0  0  0  0  0  0  0  0  0
  -30.4050  -12.9180   19.4030 C   0  0  0  0  0  2  0  0  0  0  0  0
  -29.4960  -12.6970   18.1650 C   0  0  0  0  0  2  0  0  0  0  0  0
  -28.0480  -12.4100   18.5970 C   0  0  0  0  0  2  0  0  0  0  0  0
  -27.5860  -13.3660   19.7230 C   0  0  0  0  0  3  0  0  0  0  0  0
  -28.6250  -13.5280   20.8540 C   0  0  0  0  0  2  0  0  0  0  0  0
  -29.8470  -14.0610   20.2300 N   0  0  0  0  0  0  0  0  0  0  0  0
  -31.6020  -15.3870   19.9990 O   0  0  0  0  0  0  0  0  0  0  0  0
  -29.6160  -16.6650   20.4040 N   0  0  0  0  0  0  0  0  0  0  0  0
  -28.6690  -16.4380   20.6740 H   0  0  0  0  0  0  0  0  0  0  0  0
  -25.2140  -13.9160   20.4650 C   0  0  0  0  0  0  0  0  0  0  0  0
  -24.1520  -13.1370   20.8290 C   0  0  0  0  0  0  0  0  0  0  0  0
  -24.6230  -11.7880   20.8010 C   0  0  0  0  0  0  0  0  0  0  0  0
  -26.2590  -13.0430   20.2270 N   0  0  0  0  0  0  0  0  0  0  0  0
  -25.9160  -11.7560   20.4970 N   0  0  0  0  0  0  0  0  0  0  0  0
  -23.9000  -10.5240   20.9890 C   0  0  0  0  0  0  0  0  0  0  0  0
  -24.3210   -9.5630   21.9340 C   0  0  0  0  0  3  0  0  0  0  0  0
  -23.5940   -8.3650   22.1100 C   0  0  0  0  0  3  0  0  0  0  0  0
  -22.4320   -8.1200   21.3410 C   0  0  0  0  0  0  0  0  0  0  0  0
  -22.0310   -9.0700   20.3850 C   0  0  0  0  0  3  0  0  0  0  0  0
  -22.7580  -10.2580   20.2070 C   0  0  0  0  0  3  0  0  0  0  0  0
  -21.6800   -6.9730   21.4230 O   0  0  0  0  0  0  0  0  0  0  0  0
  -21.6120   -6.2370   22.5800 C   0  0  0  0  0  0  0  0  0  0  0  0
  -21.1420   -6.7950   23.7900 C   0  0  0  0  0  3  0  0  0  0  0  0
  -21.0220   -5.9850   24.9360 C   0  0  0  0  0  3  0  0  0  0  0  0
  -21.3600   -4.6200   24.8760 C   0  0  0  0  0  0  0  0  0  0  0  0
  -21.8240   -4.0640   23.6710 C   0  0  0  0  0  3  0  0  0  0  0  0
  -21.9450   -4.8690   22.5260 C   0  0  0  0  0  0  0  0  0  0  0  0
  -22.3700   -4.3210   21.3620 F   0  0  0  0  0  0  0  0  0  0  0  0
  -21.2380   -3.8420   25.9770 F   0  0  0  0  0  0  0  0  0  0  0  0
  -22.7520  -13.6090   21.0860 C   0  0  0  0  0  0  0  0  0  0  0  0
  -22.0150  -12.9100   21.9430 N   0  0  0  0  0  0  0  0  0  0  0  0
  -22.3190  -14.6350   20.5630 O   0  0  0  0  0  0  0  0  0  0  0  0
  -22.3780  -12.0820   22.3890 H   0  0  0  0  0  0  0  0  0  0  0  0
  -21.0730  -13.2110   22.1520 H   0  0  0  0  0  0  0  0  0  0  0  0
  -25.3710  -15.2880   20.2840 N   0  0  0  0  0  0  0  0  0  0  0  0
  -24.5980  -15.9370   20.3840 H   0  0  0  0  0  0  0  0  0  0  0  0
  -26.2030  -15.7210   19.9040 H   0  0  0  0  0  0  0  0  0  0  0  0
  1  4  1  0
  2  5  1  0
  2  1  2  0
  4  3  2  0
  4 49  1  0
  5  6  2  0
  6  8  1  0
  6  3  1  0
  7  5  1  0
  9 20  2  0
 10  8  1  0
 10 15  1  0
 11 19  1  0
 11 21  1  0
 12 18  1  0
 12 14  1  0
 13 19  1  0
 14 13  1  0
 15 14  2  0
 16 10  2  0
 17 16  1  0
 17 12  2  0
 18 11  1  0
 19  9  1  0
 21 23  2  0
 22 21  1  0
 24 22  1  0
 25 34  2  0
 25 30  1  0
 26 22  1  0
 26 30  1  0
 27 26  1  0
 28 29  1  0
 28 27  1  0
 29 25  1  0
 30 31  2  0
 31 32  1  0
 33 32  2  0
 34 33  1  0
 35  9  1  0
 35 36  1  0
 35 45  1  0
 36 39  1  0
 37 41  1  0
 37 36  1  0
 38 37  2  0
 41 40  1  0
 43 41  1  0
 43 44  1  0
 43 42  1  0
 45 48  1  1
 45 46  1  0
 47 45  1  0
 50 59  1  0
 50 49  1  0
 51 59  1  0
 52 57  1  0
 53 54  1  0
 53 52  1  0
 55 54  1  0
 55 64  1  0
 55 56  1  0
 57 51  1  0
 57 56  1  0
 58 51  2  0
 59 60  1  0
 61 62  2  0
 62 81  1  0
 63 62  1  0
 63 66  1  0
 64 61  1  0
 64 65  1  0
 65 63  2  0
 66 67  1  0
 67 68  2  0
 69 72  1  0
 69 68  1  0
 70 69  2  0
 71 70  1  0
 71 66  2  0
 72 73  1  0
 73 74  1  0
 74 75  2  0
 76 75  1  0
 76 80  1  0
 77 76  2  0
 78 73  2  0
 78 77  1  0
 79 78  1  0
 81 82  1  0
 82 85  1  0
 82 84  1  0
 83 81  2  0
 86 87  1  0
 86 61  1  0
 88 86  1  0
M  ISO  4   6 101   8 101  51 100  59 100
M  END
>  <TORSDO>  (54) 
F 18

>  <SCORE>  (54) 
-15.707

>  <name>  (54) 
53

>  <ligand_id>  (54) 
53

>  <original_smiles>  (54) 
[H]c1c([H])c([H])c2c(c1[H])C([H])([H])C([H])([H])C([H])([H])C2([H])N([H])C(=O)C1([H])N(C(=O)C([H])(N([H])C(=O)C([H])(N([H])C([H])([H])[H])C([H])([H])[H])C(C([H])([H])[H])(C([H])([H])[H])C([H])([H])[H])C([H])([H])c2c([H])c(Oc3c([H])c(C([H])([H])C([H])([H])N([H])C(=O)N4C([H])([H])C([H])([H])C([H])([H])C([H])(n5nc(-c6c([H])c([H])c(Oc7c([H])c([H])c(F)c([H])c7F)c([H])c6[H])c(C(=O)N([H])[H])c5N([H])[H])C4([H])[H])c([H])c([H])c3C([H])([H])[H])c([H])c([H])c2C1([H])[H]

>  <smiles>  (54) 
[H]c1c([H])c([H])c2c(c1[H])C([H])([H])C([H])([H])C([H])([H])C2([H])N([H])C(=O)C1([H])N(C(=O)C([H])(N([H])C(=O)C([H])(N([H])C([H])([H])[H])C([H])([H])[H])C(C([H])([H])[H])(C([H])([H])[H])C([H])([H])[H])C([H])([H])c2c([H])c(Oc3c([H])c(C([H])([H])C([H])([H])N([H])C(=O)N4C([H])([H])C([H])([H])C([H])([H])C([H])(n5nc(-c6c([H])c([H])c(Oc7c([H])c([H])c(F)c([H])c7F)c([H])c6[H])c(C(=O)N([H])[H])c5N([H])[H])C4([H])[H])c([H])c([H])c3C([H])([H])[H])c([H])c([H])c2C1([H])[H]

$$$$
54:0:0
     RDKit          3D

 91 99  0  0  1  0  0  0  0  0999 V2000
  -27.7830  -22.7610   19.3660 C   0  0  0  0  0  3  0  0  0  0  0  0
  -28.9870  -22.8960   21.1870 C   0  0  0  0  0  3  0  0  0  0  0  0
  -28.8110  -20.2960   20.2200 C   0  0  0  0  0  0  0  0  0  0  0  0
  -28.0350  -21.2330   19.3160 C   0  0  0  0  0  0  0  0  0  0  0  0
  -29.2590  -21.3700   21.1780 C   0  0  0  0  0  0  0  0  0  0  0  0
  -28.1940  -23.8380   20.3180 C   0  0  0  0  0  0  0  0  0  0  0  0
  -27.3950  -20.5630   18.1130 C   0  0  0  0  0  1  0  0  0  0  0  0
  -30.2900  -15.7710   20.1990 C   0  0  0  0  0  0  0  0  0  0  0  0
  -30.2810  -13.2440   19.3190 C   0  0  0  0  0  2  0  0  0  0  0  0
  -29.3760  -12.7700   18.1500 C   0  0  0  0  0  2  0  0  0  0  0  0
  -27.9890  -12.3780   18.6670 C   0  0  0  0  0  2  0  0  0  0  0  0
  -27.4850  -13.3900   19.7190 C   0  0  0  0  0  3  0  0  0  0  0  0
  -28.5390  -13.7910   20.7830 C   0  0  0  0  0  2  0  0  0  0  0  0
  -29.6520  -14.4510   20.0530 N   0  0  0  0  0  0  0  0  0  0  0  0
  -31.5120  -15.5350   20.0990 O   0  0  0  0  0  0  0  0  0  0  0  0
  -28.8780  -18.4780   20.1690 C   0  0  0  0  0  0  0  0  0  0  0  0
  -29.9000  -17.3090   20.2640 N   0  0  0  0  0  0  0  0  0  0  0  0
  -27.7460  -18.0330   19.9590 O   0  0  0  0  0  0  0  0  0  0  0  0
  -30.7850  -17.7760   20.3850 H   0  0  0  0  0  0  0  0  0  0  0  0
  -25.1520  -13.8780   20.5750 C   0  0  0  0  0  0  0  0  0  0  0  0
  -24.1110  -13.0790   20.9540 C   0  0  0  0  0  0  0  0  0  0  0  0
  -24.5940  -11.7350   20.8870 C   0  0  0  0  0  0  0  0  0  0  0  0
  -26.1980  -13.0230   20.2870 N   0  0  0  0  0  0  0  0  0  0  0  0
  -25.8790  -11.7250   20.5420 N   0  0  0  0  0  0  0  0  0  0  0  0
  -23.8830  -10.4620   21.0720 C   0  0  0  0  0  0  0  0  0  0  0  0
  -24.3380   -9.4850   21.9870 C   0  0  0  0  0  3  0  0  0  0  0  0
  -23.6210   -8.2820   22.1650 C   0  0  0  0  0  3  0  0  0  0  0  0
  -22.4360   -8.0460   21.4280 C   0  0  0  0  0  0  0  0  0  0  0  0
  -22.0010   -9.0110   20.5020 C   0  0  0  0  0  3  0  0  0  0  0  0
  -22.7180  -10.2050   20.3230 C   0  0  0  0  0  3  0  0  0  0  0  0
  -21.6880   -6.8960   21.5170 O   0  0  0  0  0  0  0  0  0  0  0  0
  -21.6550   -6.1450   22.6660 C   0  0  0  0  0  0  0  0  0  0  0  0
  -21.1960   -6.6770   23.8900 C   0  0  0  0  0  3  0  0  0  0  0  0
  -21.1130   -5.8530   25.0300 C   0  0  0  0  0  3  0  0  0  0  0  0
  -21.4770   -4.4960   24.9460 C   0  0  0  0  0  0  0  0  0  0  0  0
  -21.9290   -3.9620   23.7250 C   0  0  0  0  0  3  0  0  0  0  0  0
  -22.0140   -4.7850   22.5880 C   0  0  0  0  0  0  0  0  0  0  0  0
  -22.4290   -4.2610   21.4100 F   0  0  0  0  0  0  0  0  0  0  0  0
  -21.3910   -3.7000   26.0360 F   0  0  0  0  0  0  0  0  0  0  0  0
  -22.7160  -13.5360   21.2590 C   0  0  0  0  0  0  0  0  0  0  0  0
  -22.0180  -12.8260   22.1370 N   0  0  0  0  0  0  0  0  0  0  0  0
  -22.2580  -14.5620   20.7590 O   0  0  0  0  0  0  0  0  0  0  0  0
  -22.4040  -11.9970   22.5640 H   0  0  0  0  0  0  0  0  0  0  0  0
  -21.0810  -13.1140   22.3840 H   0  0  0  0  0  0  0  0  0  0  0  0
  -25.2940  -15.2540   20.4190 N   0  0  0  0  0  0  0  0  0  0  0  0
  -24.5270  -15.9000   20.5720 H   0  0  0  0  0  0  0  0  0  0  0  0
  -26.1430  -15.7160   20.1160 H   0  0  0  0  0  0  0  0  0  0  0  0
  -30.0550  -20.9490   22.2470 N   0  0  0  0  0  0  0  0  0  0  0  0
  -30.3280  -21.5900   22.9870 H   0  0  0  0  0  0  0  0  0  0  0  0
  -30.2020  -19.9700   22.4740 H   0  0  0  0  0  0  0  0  0  0  0  0
  -28.1210  -25.4830   20.3330 O   0  0  0  0  0  0  0  0  0  0  0  0
  -24.5950  -31.8620   23.2060 C   0  0  0  0  0  0  0  0  0  0  0  0
  -27.1220  -26.6940   20.2950 C   0  0  0  0  0  0  0  0  0  0  0  0
  -23.4200  -30.4550   21.5700 C   0  0  0  0  0  3  0  0  0  0  0  0
  -24.8710  -28.7740   20.1920 C   0  0  0  0  0  0  0  0  0  0  0  0
  -26.0020  -30.5650   21.4820 C   0  0  0  0  0  2  0  0  0  0  0  0
  -26.0620  -29.1180   20.8430 C   0  0  0  0  0  0  0  0  0  0  0  0
  -27.1660  -28.1060   20.8610 C   0  0  0  0  0  3  0  0  0  0  0  0
  -25.9020  -26.5740   19.5810 C   0  0  0  0  0  3  0  0  0  0  0  0
  -24.8340  -27.5280   19.5380 C   0  0  0  0  0  3  0  0  0  0  0  0
  -23.6720  -29.7380   20.2110 C   0  0  0  0  0  2  0  0  0  0  0  0
  -24.6970  -30.9950   22.1390 N   0  0  0  0  0  0  0  0  0  0  0  0
  -23.4970  -32.1760   23.6990 O   0  0  0  0  0  0  0  0  0  0  0  0
  -22.6840  -29.4940   22.5430 C   0  0  0  0  0  0  0  0  0  0  0  0
  -21.3500  -29.3540   22.4080 N   0  0  0  0  0  0  0  0  0  0  0  0
  -23.3250  -28.8720   23.3930 O   0  0  0  0  0  0  0  0  0  0  0  0
  -20.8830  -29.9070   21.7040 H   0  0  0  0  0  0  0  0  0  0  0  0
  -17.9470  -28.1830   22.9110 C   0  0  0  0  0  0  0  0  0  0  0  0
  -20.5080  -28.4300   23.1800 C   0  0  0  0  0  3  0  0  0  0  0  0
  -20.5970  -26.9930   22.6130 C   0  0  0  0  0  2  0  0  0  0  0  0
  -19.4970  -26.6770   21.5940 C   0  0  0  0  0  2  0  0  0  0  0  0
  -18.1150  -26.8330   22.2330 C   0  0  0  0  0  2  0  0  0  0  0  0
  -19.0690  -28.9390   23.3400 C   0  0  0  0  0  0  0  0  0  0  0  0
  -18.8550  -30.2000   23.9390 C   0  0  0  0  0  3  0  0  0  0  0  0
  -17.5510  -30.7050   24.1080 C   0  0  0  0  0  3  0  0  0  0  0  0
  -16.4440  -29.9480   23.6900 C   0  0  0  0  0  3  0  0  0  0  0  0
  -16.6420  -28.6880   23.0980 C   0  0  0  0  0  3  0  0  0  0  0  0
  -25.8510  -32.5140   23.8580 C   0  0  0  0  0  3  0  0  0  0  0  0
  -25.5290  -33.9180   24.1830 N   0  0  0  0  0  0  0  0  0  0  0  0
  -25.8650  -34.9810   23.4410 C   0  0  0  0  0  0  0  0  0  0  0  0
  -26.5350  -34.8840   22.4100 O   0  0  0  0  0  0  0  0  0  0  0  0
  -24.9270  -34.0660   24.9810 H   0  0  0  0  0  0  0  0  0  0  0  0
  -24.1390  -36.7910   23.1170 C   0  0  0  0  0  1  0  0  0  0  0  0
  -25.3870  -36.3720   23.9120 C   0  0  0  0  0  3  0  0  0  0  0  0
  -27.5270  -37.2600   24.7320 C   0  0  0  0  0  1  0  0  0  0  0  0
  -26.4200  -37.4250   23.7930 N   0  0  0  0  0  0  0  0  0  0  0  0
  -26.0150  -38.3460   23.9410 H   0  0  0  0  0  0  0  0  0  0  0  0
  -26.3300  -31.7640   25.1650 C   0  0  1  0  0  0  0  0  0  0  0  0
  -25.2080  -31.5510   26.2100 C   0  0  0  0  0  1  0  0  0  0  0  0
  -26.9150  -30.3750   24.8260 C   0  0  0  0  0  1  0  0  0  0  0  0
  -27.4670  -32.5640   25.8430 C   0  0  0  0  0  1  0  0  0  0  0  0
  1  6  1  0
  3  5  2  0
  4  1  2  0
  4  3  1  0
  5  2  1  0
  5 48  1  0
  6 51  1  0
  6  2  2  0
  7  4  1  0
  8 17  1  0
  9 14  1  0
 10 11  1  0
 10  9  1  0
 12 11  1  0
 12 23  1  0
 12 13  1  0
 14  8  1  0
 14 13  1  0
 15  8  2  0
 16  3  1  0
 16 17  1  0
 17 19  1  0
 18 16  2  0
 20 21  2  0
 21 40  1  0
 22 21  1  0
 22 25  1  0
 23 24  1  0
 23 20  1  0
 24 22  2  0
 25 26  1  0
 26 27  2  0
 28 31  1  0
 28 27  1  0
 29 28  2  0
 30 29  1  0
 30 25  2  0
 31 32  1  0
 32 33  1  0
 33 34  2  0
 35 34  1  0
 35 39  1  0
 36 35  2  0
 37 32  2  0
 37 36  1  0
 38 37  1  0
 40 41  1  0
 41 44  1  0
 41 43  1  0
 42 40  2  0
 45 46  1  0
 45 20  1  0
 47 45  1  0
 48 50  1  0
 48 49  1  0
 52 63  2  0
 53 51  1  0
 53 58  1  0
 54 62  1  0
 54 64  1  0
 55 61  1  0
 55 57  1  0
 56 62  1  0
 57 58  2  0
 57 56  1  0
 59 53  2  0
 60 59  1  0
 60 55  2  0
 61 54  1  0
 62 52  1  0
 64 66  2  0
 65 64  1  0
 67 65  1  0
 68 77  2  0
 68 73  1  0
 69 65  1  0
 69 73  1  0
 70 69  1  0
 71 72  1  0
 71 70  1  0
 72 68  1  0
 73 74  2  0
 74 75  1  0
 76 75  2  0
 77 76  1  0
 78 52  1  0
 78 79  1  0
 78 88  1  0
 79 82  1  0
 80 84  1  0
 80 79  1  0
 81 80  2  0
 84 83  1  0
 86 84  1  0
 86 87  1  0
 86 85  1  0
 88 91  1  1
 88 89  1  0
 90 88  1  0
M  ISO  4   6 101   8 100  17 100  51 101
M  END
>  <TORSDO>  (55) 
F 17

>  <SCORE>  (55) 
-16.113

>  <name>  (55) 
54

>  <ligand_id>  (55) 
54

>  <original_smiles>  (55) 
[H]c1c([H])c([H])c2c(c1[H])C([H])([H])C([H])([H])C([H])([H])C2([H])N([H])C(=O)C1([H])N(C(=O)C([H])(N([H])C(=O)C([H])(N([H])C([H])([H])[H])C([H])([H])[H])C(C([H])([H])[H])(C([H])([H])[H])C([H])([H])[H])C([H])([H])c2c([H])c(Oc3c([H])c(N([H])[H])c(C(=O)N([H])C(=O)N4C([H])([H])C([H])([H])C([H])([H])C([H])(n5nc(-c6c([H])c([H])c(Oc7c([H])c([H])c(F)c([H])c7F)c([H])c6[H])c(C(=O)N([H])[H])c5N([H])[H])C4([H])[H])c(C([H])([H])[H])c3[H])c([H])c([H])c2C1([H])[H]

>  <smiles>  (55) 
[H]c1c([H])c([H])c2c(c1[H])C([H])([H])C([H])([H])C([H])([H])C2([H])N([H])C(=O)C1([H])N(C(=O)C([H])(N([H])C(=O)C([H])(N([H])C([H])([H])[H])C([H])([H])[H])C(C([H])([H])[H])(C([H])([H])[H])C([H])([H])[H])C([H])([H])c2c([H])c(Oc3c([H])c(N([H])[H])c(C(=O)N([H])C(=O)N4C([H])([H])C([H])([H])C([H])([H])C([H])(n5nc(-c6c([H])c([H])c(Oc7c([H])c([H])c(F)c([H])c7F)c([H])c6[H])c(C(=O)N([H])[H])c5N([H])[H])C4([H])[H])c(C([H])([H])[H])c3[H])c([H])c([H])c2C1([H])[H]

$$$$
55:0:0
     RDKit          3D

 90 98  0  0  1  0  0  0  0  0999 V2000
  -26.7950  -23.0520   21.7530 C   0  0  0  0  0  3  0  0  0  0  0  0
  -27.5990  -21.9680   21.3340 C   0  0  0  0  0  3  0  0  0  0  0  0
  -27.0310  -24.3880   21.3560 C   0  0  0  0  0  3  0  0  0  0  0  0
  -28.7100  -22.1380   20.4800 C   0  0  0  0  0  0  0  0  0  0  0  0
  -28.9220  -23.5790   20.0700 C   0  0  0  0  0  0  0  0  0  0  0  0
  -28.0860  -24.7540   20.4900 C   0  0  0  0  0  0  0  0  0  0  0  0
  -30.0840  -23.9060   19.1500 C   0  0  0  0  0  1  0  0  0  0  0  0
  -29.5600  -20.8100   20.0840 C   0  0  0  0  0  0  0  0  0  0  0  0
  -29.3220  -19.4640   20.5120 N   0  0  0  0  0  0  0  0  0  0  0  0
  -30.5200  -20.9770   19.3330 O   0  0  0  0  0  0  0  0  0  0  0  0
  -28.5310  -19.3600   21.1330 H   0  0  0  0  0  0  0  0  0  0  0  0
  -30.1100  -18.1040   20.1910 C   0  0  0  0  0  3  0  0  0  0  0  0
  -29.7080  -16.5170   20.6770 C   0  0  0  0  0  3  0  0  0  0  0  0
  -30.5160  -15.0900   20.3090 C   0  0  0  0  0  0  0  0  0  0  0  0
  -30.4050  -12.7340   19.3350 C   0  0  0  0  0  2  0  0  0  0  0  0
  -29.4610  -12.7170   18.1080 C   0  0  0  0  0  2  0  0  0  0  0  0
  -27.9990  -12.5010   18.5440 C   0  0  0  0  0  2  0  0  0  0  0  0
  -27.6050  -13.4070   19.7400 C   0  0  0  0  0  3  0  0  0  0  0  0
  -28.6690  -13.3950   20.8570 C   0  0  0  0  0  2  0  0  0  0  0  0
  -29.9450  -13.8120   20.2600 N   0  0  0  0  0  0  0  0  0  0  0  0
  -31.7010  -15.1540   19.9590 O   0  0  0  0  0  0  0  0  0  0  0  0
  -25.2320  -13.9830   20.5010 C   0  0  0  0  0  0  0  0  0  0  0  0
  -24.1680  -13.2080   20.8730 C   0  0  0  0  0  0  0  0  0  0  0  0
  -24.6300  -11.8550   20.8310 C   0  0  0  0  0  0  0  0  0  0  0  0
  -26.2720  -13.1040   20.2460 N   0  0  0  0  0  0  0  0  0  0  0  0
  -25.9190  -11.8190   20.5110 N   0  0  0  0  0  0  0  0  0  0  0  0
  -23.9020  -10.5940   21.0190 C   0  0  0  0  0  0  0  0  0  0  0  0
  -24.3360   -9.6200   21.9460 C   0  0  0  0  0  3  0  0  0  0  0  0
  -23.6060   -8.4250   22.1220 C   0  0  0  0  0  3  0  0  0  0  0  0
  -22.4280   -8.1940   21.3720 C   0  0  0  0  0  0  0  0  0  0  0  0
  -22.0120   -9.1560   20.4350 C   0  0  0  0  0  3  0  0  0  0  0  0
  -22.7430  -10.3430   20.2570 C   0  0  0  0  0  3  0  0  0  0  0  0
  -21.6700   -7.0510   21.4590 O   0  0  0  0  0  0  0  0  0  0  0  0
  -21.6180   -6.3070   22.6110 C   0  0  0  0  0  0  0  0  0  0  0  0
  -21.1940   -6.8620   23.8370 C   0  0  0  0  0  3  0  0  0  0  0  0
  -21.0880   -6.0450   24.9800 C   0  0  0  0  0  3  0  0  0  0  0  0
  -21.3970   -4.6740   24.8990 C   0  0  0  0  0  0  0  0  0  0  0  0
  -21.8140   -4.1180   23.6760 C   0  0  0  0  0  3  0  0  0  0  0  0
  -21.9210   -4.9330   22.5350 C   0  0  0  0  0  0  0  0  0  0  0  0
  -22.3030   -4.3890   21.3540 F   0  0  0  0  0  0  0  0  0  0  0  0
  -21.2890   -3.8870   25.9940 F   0  0  0  0  0  0  0  0  0  0  0  0
  -22.7740  -13.6860   21.1550 C   0  0  0  0  0  0  0  0  0  0  0  0
  -22.0510  -12.9890   22.0240 N   0  0  0  0  0  0  0  0  0  0  0  0
  -22.3350  -14.7130   20.6400 O   0  0  0  0  0  0  0  0  0  0  0  0
  -22.4190  -12.1570   22.4620 H   0  0  0  0  0  0  0  0  0  0  0  0
  -21.1140  -13.2910   22.2550 H   0  0  0  0  0  0  0  0  0  0  0  0
  -25.3960  -15.3550   20.3320 N   0  0  0  0  0  0  0  0  0  0  0  0
  -24.6320  -16.0090   20.4570 H   0  0  0  0  0  0  0  0  0  0  0  0
  -26.2460  -15.7950   20.0020 H   0  0  0  0  0  0  0  0  0  0  0  0
  -28.2530  -26.1970   20.1860 O   0  0  0  0  0  0  0  0  0  0  0  0
  -24.6420  -31.9210   23.2320 C   0  0  0  0  0  0  0  0  0  0  0  0
  -27.2000  -27.1950   20.1820 C   0  0  0  0  0  0  0  0  0  0  0  0
  -23.4330  -30.5280   21.5970 C   0  0  0  0  0  3  0  0  0  0  0  0
  -24.8730  -28.9530   20.1600 C   0  0  0  0  0  0  0  0  0  0  0  0
  -25.9860  -30.7880   21.4210 C   0  0  0  0  0  2  0  0  0  0  0  0
  -26.0560  -29.3920   20.7710 C   0  0  0  0  0  0  0  0  0  0  0  0
  -27.2180  -28.5280   20.7680 C   0  0  0  0  0  3  0  0  0  0  0  0
  -25.9960  -26.8670   19.5230 C   0  0  0  0  0  3  0  0  0  0  0  0
  -24.8560  -27.7020   19.5230 C   0  0  0  0  0  3  0  0  0  0  0  0
  -23.6470  -29.8520   20.2160 C   0  0  0  0  0  2  0  0  0  0  0  0
  -24.7070  -31.1030   22.1380 N   0  0  0  0  0  0  0  0  0  0  0  0
  -23.5590  -32.2050   23.7680 O   0  0  0  0  0  0  0  0  0  0  0  0
  -22.7580  -29.5210   22.5620 C   0  0  0  0  0  0  0  0  0  0  0  0
  -21.4300  -29.3480   22.4410 N   0  0  0  0  0  0  0  0  0  0  0  0
  -23.4340  -28.8960   23.3840 O   0  0  0  0  0  0  0  0  0  0  0  0
  -20.9420  -29.9030   21.7520 H   0  0  0  0  0  0  0  0  0  0  0  0
  -18.0550  -28.1320   22.9510 C   0  0  0  0  0  0  0  0  0  0  0  0
  -20.6130  -28.4090   23.2160 C   0  0  0  0  0  3  0  0  0  0  0  0
  -20.7210  -26.9760   22.6440 C   0  0  0  0  0  2  0  0  0  0  0  0
  -19.6190  -26.6450   21.6320 C   0  0  0  0  0  2  0  0  0  0  0  0
  -18.2380  -26.7830   22.2780 C   0  0  0  0  0  2  0  0  0  0  0  0
  -19.1700  -28.9030   23.3780 C   0  0  0  0  0  0  0  0  0  0  0  0
  -18.9430  -30.1640   23.9710 C   0  0  0  0  0  3  0  0  0  0  0  0
  -17.6360  -30.6560   24.1410 C   0  0  0  0  0  3  0  0  0  0  0  0
  -16.5360  -29.8840   23.7290 C   0  0  0  0  0  3  0  0  0  0  0  0
  -16.7460  -28.6240   23.1410 C   0  0  0  0  0  3  0  0  0  0  0  0
  -25.9240  -32.5560   23.8530 C   0  0  0  0  0  3  0  0  0  0  0  0
  -26.4430  -31.7830   25.1270 C   0  0  1  0  0  0  0  0  0  0  0  0
  -25.3550  -31.5470   26.2000 C   0  0  0  0  0  1  0  0  0  0  0  0
  -27.0230  -30.4040   24.7360 C   0  0  0  0  0  1  0  0  0  0  0  0
  -27.5990  -32.5740   25.7850 C   0  0  0  0  0  1  0  0  0  0  0  0
  -25.6120  -33.9540   24.1950 N   0  0  0  0  0  0  0  0  0  0  0  0
  -25.9290  -35.0150   23.4420 C   0  0  0  0  0  0  0  0  0  0  0  0
  -26.5810  -34.9220   22.3980 O   0  0  0  0  0  0  0  0  0  0  0  0
  -25.0300  -34.0990   25.0070 H   0  0  0  0  0  0  0  0  0  0  0  0
  -24.1870  -36.8070   23.1390 C   0  0  0  0  0  1  0  0  0  0  0  0
  -25.4480  -36.4010   23.9190 C   0  0  0  0  0  3  0  0  0  0  0  0
  -27.5990  -37.2890   24.7060 C   0  0  0  0  0  1  0  0  0  0  0  0
  -26.4740  -37.4570   23.7890 N   0  0  0  0  0  0  0  0  0  0  0  0
  -26.0690  -38.3760   23.9500 H   0  0  0  0  0  0  0  0  0  0  0  0
  2  1  2  0
  3  1  1  0
  4  2  1  0
  5  4  2  0
  5  6  1  0
  6  3  2  0
  7  5  1  0
  8  4  1  0
  8  9  1  0
  9 11  1  0
 10  8  2  0
 12  9  1  0
 12 13  2  0
 14 13  1  0
 15 20  1  0
 16 17  1  0
 16 15  1  0
 18 17  1  0
 18 25  1  0
 18 19  1  0
 20 14  1  0
 20 19  1  0
 21 14  2  0
 22 23  2  0
 23 42  1  0
 24 23  1  0
 24 27  1  0
 25 22  1  0
 25 26  1  0
 26 24  2  0
 27 28  1  0
 28 29  2  0
 30 33  1  0
 30 29  1  0
 31 30  2  0
 32 31  1  0
 32 27  2  0
 33 34  1  0
 34 35  1  0
 35 36  2  0
 37 36  1  0
 37 41  1  0
 38 37  2  0
 39 34  2  0
 39 38  1  0
 40 39  1  0
 42 43  1  0
 43 46  1  0
 43 45  1  0
 44 42  2  0
 47 48  1  0
 47 22  1  0
 49 47  1  0
 50  6  1  0
 51 62  2  0
 52 50  1  0
 52 57  1  0
 53 61  1  0
 53 63  1  0
 54 60  1  0
 54 56  1  0
 55 61  1  0
 56 55  1  0
 57 56  2  0
 58 59  1  0
 58 52  2  0
 59 54  2  0
 60 53  1  0
 61 51  1  0
 63 65  2  0
 64 63  1  0
 66 64  1  0
 67 76  2  0
 67 72  1  0
 68 64  1  0
 68 72  1  0
 69 68  1  0
 70 71  1  0
 70 69  1  0
 71 67  1  0
 72 73  2  0
 73 74  1  0
 75 74  2  0
 76 75  1  0
 77 51  1  0
 77 82  1  0
 77 78  1  0
 78 81  1  1
 78 79  1  0
 80 78  1  0
 82 85  1  0
 83 87  1  0
 83 82  1  0
 84 83  2  0
 87 86  1  0
 89 87  1  0
 89 90  1  0
 89 88  1  0
M  ISO  4   6 101  13 100  14 100  50 101
M  END
>  <TORSDO>  (56) 
F 19

>  <SCORE>  (56) 
-14.994

>  <name>  (56) 
55

>  <ligand_id>  (56) 
55

>  <original_smiles>  (56) 
[H]c1c([H])c(Oc2c([H])c([H])c3c(c2[H])C([H])([H])N(C(=O)C([H])(N([H])C(=O)C([H])(N([H])C([H])([H])[H])C([H])([H])[H])C(C([H])([H])[H])(C([H])([H])[H])C([H])([H])[H])C([H])(C(=O)N([H])C2([H])c4c([H])c([H])c([H])c([H])c4C([H])([H])C([H])([H])C2([H])[H])C3([H])[H])c(C([H])([H])[H])c(C(=O)N([H])C([H])([H])C([H])([H])C(=O)N2C([H])([H])C([H])([H])C([H])([H])C([H])(n3nc(-c4c([H])c([H])c(Oc5c([H])c([H])c(F)c([H])c5F)c([H])c4[H])c(C(=O)N([H])[H])c3N([H])[H])C2([H])[H])c1[H]

>  <smiles>  (56) 
[H]c1c([H])c(Oc2c([H])c([H])c3c(c2[H])C([H])([H])N(C(=O)C([H])(N([H])C(=O)C([H])(N([H])C([H])([H])[H])C([H])([H])[H])C(C([H])([H])[H])(C([H])([H])[H])C([H])([H])[H])C([H])(C(=O)N([H])C2([H])c4c([H])c([H])c([H])c([H])c4C([H])([H])C([H])([H])C2([H])[H])C3([H])[H])c(C([H])([H])[H])c(C(=O)N([H])C([H])([H])C([H])([H])C(=O)N2C([H])([H])C([H])([H])C([H])([H])C([H])(n3nc(-c4c([H])c([H])c(Oc5c([H])c([H])c(F)c([H])c5F)c([H])c4[H])c(C(=O)N([H])[H])c3N([H])[H])C2([H])[H])c1[H]

$$$$
56:0:0
     RDKit          3D

 89 98  0  0  1  0  0  0  0  0999 V2000
  -28.9410  -20.7630   18.2630 C   0  0  0  0  0  3  0  0  0  0  0  0
  -28.8550  -21.2740   20.9400 C   0  0  0  0  0  3  0  0  0  0  0  0
  -29.1660  -19.6080   19.0950 C   0  0  0  0  0  0  0  0  0  0  0  0
  -29.1480  -19.8440   20.4570 C   0  0  0  0  0  0  0  0  0  0  0  0
  -28.6750  -22.1260   18.7320 C   0  0  0  0  0  0  0  0  0  0  0  0
  -28.6000  -22.5380   20.1170 C   0  0  0  0  0  0  0  0  0  0  0  0
  -29.4410  -18.0540   18.7230 C   0  0  0  0  0  2  0  0  0  0  0  0
  -29.4570  -18.3320   21.0900 C   0  0  0  0  0  2  0  0  0  0  0  0
  -30.0810  -17.2050   19.9660 C   0  0  2  0  0  0  0  0  0  0  0  0
  -28.3930  -23.1800   17.6750 C   0  0  0  0  0  1  0  0  0  0  0  0
  -31.5430  -17.7640   19.9170 C   0  0  0  0  0  1  0  0  0  0  0  0
  -30.4760  -15.4060   19.9600 C   0  0  0  0  0  0  0  0  0  0  0  0
  -30.3170  -12.9310   19.1140 C   0  0  0  0  0  2  0  0  0  0  0  0
  -29.3570  -12.6910   17.9230 C   0  0  0  0  0  2  0  0  0  0  0  0
  -27.9400  -12.4050   18.4370 C   0  0  0  0  0  2  0  0  0  0  0  0
  -27.5300  -13.3810   19.5650 C   0  0  0  0  0  3  0  0  0  0  0  0
  -28.6260  -13.6070   20.6290 C   0  0  0  0  0  2  0  0  0  0  0  0
  -29.8180  -14.1220   19.9290 N   0  0  0  0  0  0  0  0  0  0  0  0
  -31.6800  -15.1560   19.7720 O   0  0  0  0  0  0  0  0  0  0  0  0
  -25.2180  -13.9120   20.4750 C   0  0  0  0  0  0  0  0  0  0  0  0
  -24.1730  -13.1290   20.8750 C   0  0  0  0  0  0  0  0  0  0  0  0
  -24.6300  -11.7780   20.7840 C   0  0  0  0  0  0  0  0  0  0  0  0
  -26.2390  -13.0430   20.1500 N   0  0  0  0  0  0  0  0  0  0  0  0
  -25.9050  -11.7500   20.4050 N   0  0  0  0  0  0  0  0  0  0  0  0
  -23.9030  -10.5140   20.9750 C   0  0  0  0  0  0  0  0  0  0  0  0
  -24.3430   -9.5390   21.8960 C   0  0  0  0  0  3  0  0  0  0  0  0
  -23.6140   -8.3440   22.0780 C   0  0  0  0  0  3  0  0  0  0  0  0
  -22.4280   -8.1150   21.3390 C   0  0  0  0  0  0  0  0  0  0  0  0
  -22.0080   -9.0790   20.4060 C   0  0  0  0  0  3  0  0  0  0  0  0
  -22.7390  -10.2650   20.2220 C   0  0  0  0  0  3  0  0  0  0  0  0
  -21.6700   -6.9720   21.4310 O   0  0  0  0  0  0  0  0  0  0  0  0
  -21.5950   -6.2490   22.5950 C   0  0  0  0  0  0  0  0  0  0  0  0
  -21.0910   -6.8100   23.7880 C   0  0  0  0  0  3  0  0  0  0  0  0
  -20.9670   -6.0120   24.9440 C   0  0  0  0  0  3  0  0  0  0  0  0
  -21.3350   -4.6530   24.9050 C   0  0  0  0  0  0  0  0  0  0  0  0
  -21.8320   -4.0920   23.7150 C   0  0  0  0  0  3  0  0  0  0  0  0
  -21.9580   -4.8880   22.5630 C   0  0  0  0  0  0  0  0  0  0  0  0
  -22.4160   -4.3370   21.4120 F   0  0  0  0  0  0  0  0  0  0  0  0
  -21.2100   -3.8840   26.0120 F   0  0  0  0  0  0  0  0  0  0  0  0
  -22.7930  -13.6060   21.2230 C   0  0  0  0  0  0  0  0  0  0  0  0
  -22.1020  -12.8920   22.1050 N   0  0  0  0  0  0  0  0  0  0  0  0
  -22.3400  -14.6460   20.7480 O   0  0  0  0  0  0  0  0  0  0  0  0
  -22.4810  -12.0490   22.5100 H   0  0  0  0  0  0  0  0  0  0  0  0
  -21.1780  -13.1960   22.3820 H   0  0  0  0  0  0  0  0  0  0  0  0
  -25.3830  -15.2870   20.3290 N   0  0  0  0  0  0  0  0  0  0  0  0
  -24.6350  -15.9460   20.5080 H   0  0  0  0  0  0  0  0  0  0  0  0
  -26.2260  -15.7270   19.9840 H   0  0  0  0  0  0  0  0  0  0  0  0
  -27.9890  -24.1450   20.6070 C   0  0  0  0  0  2  0  0  0  0  0  0
  -28.2900  -25.7630   20.2880 O   0  0  0  0  0  0  0  0  0  0  0  0
  -24.5600  -31.7880   23.1510 C   0  0  0  0  0  0  0  0  0  0  0  0
  -27.2860  -26.8870   20.2590 C   0  0  0  0  0  0  0  0  0  0  0  0
  -23.4540  -30.3690   21.4760 C   0  0  0  0  0  3  0  0  0  0  0  0
  -24.9780  -28.7750   20.1200 C   0  0  0  0  0  0  0  0  0  0  0  0
  -26.0260  -30.6010   21.4340 C   0  0  0  0  0  2  0  0  0  0  0  0
  -26.1410  -29.1860   20.7850 C   0  0  0  0  0  0  0  0  0  0  0  0
  -27.2930  -28.2660   20.8220 C   0  0  0  0  0  3  0  0  0  0  0  0
  -26.0910  -26.6460   19.5450 C   0  0  0  0  0  3  0  0  0  0  0  0
  -24.9810  -27.5260   19.4810 C   0  0  0  0  0  3  0  0  0  0  0  0
  -23.7490  -29.6850   20.1130 C   0  0  0  0  0  2  0  0  0  0  0  0
  -24.7000  -30.9490   22.0730 N   0  0  0  0  0  0  0  0  0  0  0  0
  -23.4460  -32.0630   23.6270 O   0  0  0  0  0  0  0  0  0  0  0  0
  -22.7360  -29.3660   22.4180 C   0  0  0  0  0  0  0  0  0  0  0  0
  -21.4070  -29.2110   22.2710 N   0  0  0  0  0  0  0  0  0  0  0  0
  -23.3840  -28.7280   23.2510 O   0  0  0  0  0  0  0  0  0  0  0  0
  -20.9350  -29.7770   21.5780 H   0  0  0  0  0  0  0  0  0  0  0  0
  -18.0000  -28.0640   22.7720 C   0  0  0  0  0  0  0  0  0  0  0  0
  -20.5680  -28.2680   23.0200 C   0  0  0  0  0  3  0  0  0  0  0  0
  -20.6340  -26.8520   22.4000 C   0  0  0  0  0  2  0  0  0  0  0  0
  -19.5170  -26.5870   21.3850 C   0  0  0  0  0  2  0  0  0  0  0  0
  -18.1430  -26.7360   22.0460 C   0  0  0  0  0  2  0  0  0  0  0  0
  -19.1380  -28.7900   23.2150 C   0  0  0  0  0  0  0  0  0  0  0  0
  -18.9470  -30.0330   23.8570 C   0  0  0  0  0  3  0  0  0  0  0  0
  -17.6530  -30.5510   24.0560 C   0  0  0  0  0  3  0  0  0  0  0  0
  -16.5320  -29.8210   23.6270 C   0  0  0  0  0  3  0  0  0  0  0  0
  -16.7050  -28.5790   22.9910 C   0  0  0  0  0  3  0  0  0  0  0  0
  -25.7930  -32.4560   23.8300 C   0  0  0  0  0  3  0  0  0  0  0  0
  -25.4370  -33.8500   24.1520 N   0  0  0  0  0  0  0  0  0  0  0  0
  -25.7600  -34.9170   23.4090 C   0  0  0  0  0  0  0  0  0  0  0  0
  -26.4510  -34.8330   22.3900 O   0  0  0  0  0  0  0  0  0  0  0  0
  -24.8240  -33.9890   24.9420 H   0  0  0  0  0  0  0  0  0  0  0  0
  -24.0010  -36.6820   23.0410 C   0  0  0  0  0  1  0  0  0  0  0  0
  -25.2380  -36.2950   23.8670 C   0  0  0  0  0  3  0  0  0  0  0  0
  -27.3320  -37.2340   24.7430 C   0  0  0  0  0  1  0  0  0  0  0  0
  -26.2500  -37.3700   23.7720 N   0  0  0  0  0  0  0  0  0  0  0  0
  -25.8180  -38.2810   23.9080 H   0  0  0  0  0  0  0  0  0  0  0  0
  -26.2630  -31.7050   25.1380 C   0  0  1  0  0  0  0  0  0  0  0  0
  -25.1240  -31.4520   26.1530 C   0  0  0  0  0  1  0  0  0  0  0  0
  -26.8890  -30.3350   24.7940 C   0  0  0  0  0  1  0  0  0  0  0  0
  -27.3660  -32.5270   25.8430 C   0  0  0  0  0  1  0  0  0  0  0  0
  1  5  2  0
  1  3  1  0
  3  4  2  0
  4  2  1  0
  4  8  1  0
  5  6  1  0
  6 48  1  0
  6  2  2  0
  7  3  1  0
  7  9  1  0
  9 11  1  6
  9  8  1  0
 10  5  1  0
 12  9  1  0
 13 18  1  0
 14 15  1  0
 14 13  1  0
 16 15  1  0
 16 23  1  0
 16 17  1  0
 18 12  1  0
 18 17  1  0
 19 12  2  0
 20 21  2  0
 21 40  1  0
 22 21  1  0
 22 25  1  0
 23 24  1  0
 23 20  1  0
 24 22  2  0
 25 26  1  0
 26 27  2  0
 28 31  1  0
 28 27  1  0
 29 28  2  0
 30 29  1  0
 30 25  2  0
 31 32  1  0
 32 33  1  0
 33 34  2  0
 35 34  1  0
 35 39  1  0
 36 35  2  0
 37 32  2  0
 37 36  1  0
 38 37  1  0
 40 41  1  0
 41 44  1  0
 41 43  1  0
 42 40  2  0
 45 20  1  0
 45 46  1  0
 47 45  1  0
 49 48  1  0
 50 61  2  0
 51 49  1  0
 51 56  1  0
 52 60  1  0
 52 62  1  0
 53 55  1  0
 54 60  1  0
 55 56  2  0
 55 54  1  0
 57 51  2  0
 58 57  1  0
 58 53  2  0
 59 53  1  0
 59 52  1  0
 60 50  1  0
 62 64  2  0
 63 62  1  0
 65 63  1  0
 66 75  2  0
 66 71  1  0
 67 63  1  0
 67 71  1  0
 68 67  1  0
 69 70  1  0
 69 68  1  0
 70 66  1  0
 71 72  2  0
 72 73  1  0
 74 73  2  0
 75 74  1  0
 76 50  1  0
 76 77  1  0
 76 86  1  0
 77 80  1  0
 78 82  1  0
 78 77  1  0
 79 78  2  0
 82 81  1  0
 84 82  1  0
 84 85  1  0
 84 83  1  0
 86 89  1  1
 86 87  1  0
 88 86  1  0
M  ISO  4   9 100  12 100  48 101  49 101
M  END
>  <TORSDO>  (57) 
F 17

>  <SCORE>  (57) 
-16.743

>  <name>  (57) 
56

>  <ligand_id>  (57) 
56

>  <original_smiles>  (57) 
[H]c1c([H])c([H])c2c(c1[H])C([H])([H])C([H])([H])C([H])([H])C2([H])N([H])C(=O)C1([H])N(C(=O)C([H])(N([H])C(=O)C([H])(N([H])C([H])([H])[H])C([H])([H])[H])C(C([H])([H])[H])(C([H])([H])[H])C([H])([H])[H])C([H])([H])c2c([H])c(OC([H])([H])c3c([H])c4c(c([H])c3C([H])([H])[H])C([H])([H])C(C(=O)N3C([H])([H])C([H])([H])C([H])([H])C([H])(n5nc(-c6c([H])c([H])c(Oc7c([H])c([H])c(F)c([H])c7F)c([H])c6[H])c(C(=O)N([H])[H])c5N([H])[H])C3([H])[H])(C([H])([H])[H])C4([H])[H])c([H])c([H])c2C1([H])[H]

>  <smiles>  (57) 
[H]c1c([H])c([H])c2c(c1[H])C([H])([H])C([H])([H])C([H])([H])C2([H])N([H])C(=O)C1([H])N(C(=O)C([H])(N([H])C(=O)C([H])(N([H])C([H])([H])[H])C([H])([H])[H])C(C([H])([H])[H])(C([H])([H])[H])C([H])([H])[H])C([H])([H])c2c([H])c(OC([H])([H])c3c([H])c4c(c([H])c3C([H])([H])[H])C([H])([H])C(C(=O)N3C([H])([H])C([H])([H])C([H])([H])C([H])(n5nc(-c6c([H])c([H])c(Oc7c([H])c([H])c(F)c([H])c7F)c([H])c6[H])c(C(=O)N([H])[H])c5N([H])[H])C3([H])[H])(C([H])([H])[H])C4([H])[H])c([H])c([H])c2C1([H])[H]

$$$$
57:0:0
     RDKit          3D

 90 98  0  0  1  0  0  0  0  0999 V2000
  -26.6480  -23.4130   21.8400 C   0  0  0  0  0  3  0  0  0  0  0  0
  -27.4880  -22.3400   21.4790 C   0  0  0  0  0  3  0  0  0  0  0  0
  -26.9270  -24.7330   21.4370 C   0  0  0  0  0  3  0  0  0  0  0  0
  -28.8890  -23.9190   20.2640 C   0  0  0  0  0  3  0  0  0  0  0  0
  -28.6470  -22.5490   20.6990 C   0  0  0  0  0  0  0  0  0  0  0  0
  -28.0330  -25.0480   20.6080 C   0  0  0  0  0  0  0  0  0  0  0  0
  -29.6420  -21.3660   20.5060 C   0  0  0  0  0  0  0  0  0  0  0  0
  -29.2160  -20.0550   20.5580 N   0  0  0  0  0  0  0  0  0  0  0  0
  -30.8370  -21.6270   20.3680 O   0  0  0  0  0  0  0  0  0  0  0  0
  -28.2110  -19.9550   20.5330 H   0  0  0  0  0  0  0  0  0  0  0  0
  -29.9560  -18.8430   21.1090 C   0  0  0  0  0  2  0  0  0  0  0  0
  -30.1620  -17.4830   20.2700 C   0  0  0  0  0  2  0  0  0  0  0  0
  -30.0660  -16.0740   21.0560 C   0  0  0  0  0  2  0  0  0  0  0  0
  -30.7330  -14.7520   20.4570 C   0  0  0  0  0  0  0  0  0  0  0  0
  -30.5030  -12.5030   19.3830 C   0  0  0  0  0  2  0  0  0  0  0  0
  -29.5900  -12.6480   18.1480 C   0  0  0  0  0  2  0  0  0  0  0  0
  -28.1080  -12.4940   18.5460 C   0  0  0  0  0  2  0  0  0  0  0  0
  -27.7350  -13.3390   19.7950 C   0  0  0  0  0  3  0  0  0  0  0  0
  -28.7790  -13.1890   20.9250 C   0  0  0  0  0  2  0  0  0  0  0  0
  -30.0910  -13.5340   20.3650 N   0  0  0  0  0  0  0  0  0  0  0  0
  -31.8750  -14.8660   20.0040 O   0  0  0  0  0  0  0  0  0  0  0  0
  -25.3220  -13.9250   20.4460 C   0  0  0  0  0  0  0  0  0  0  0  0
  -24.2510  -13.1520   20.8050 C   0  0  0  0  0  0  0  0  0  0  0  0
  -24.7200  -11.8030   20.8030 C   0  0  0  0  0  0  0  0  0  0  0  0
  -26.3780  -13.0500   20.2520 N   0  0  0  0  0  0  0  0  0  0  0  0
  -26.0200  -11.7670   20.5260 N   0  0  0  0  0  0  0  0  0  0  0  0
  -23.9930  -10.5410   20.9980 C   0  0  0  0  0  0  0  0  0  0  0  0
  -24.4140   -9.5820   21.9460 C   0  0  0  0  0  3  0  0  0  0  0  0
  -23.6860   -8.3860   22.1270 C   0  0  0  0  0  3  0  0  0  0  0  0
  -22.5230   -8.1380   21.3600 C   0  0  0  0  0  0  0  0  0  0  0  0
  -22.1220   -9.0840   20.3980 C   0  0  0  0  0  3  0  0  0  0  0  0
  -22.8520  -10.2720   20.2160 C   0  0  0  0  0  3  0  0  0  0  0  0
  -21.7670   -6.9940   21.4510 O   0  0  0  0  0  0  0  0  0  0  0  0
  -21.7090   -6.2600   22.6080 C   0  0  0  0  0  0  0  0  0  0  0  0
  -21.2750   -6.8240   23.8270 C   0  0  0  0  0  3  0  0  0  0  0  0
  -21.1650   -6.0160   24.9770 C   0  0  0  0  0  3  0  0  0  0  0  0
  -21.4780   -4.6450   24.9080 C   0  0  0  0  0  0  0  0  0  0  0  0
  -21.9040   -4.0810   23.6930 C   0  0  0  0  0  3  0  0  0  0  0  0
  -22.0180   -4.8860   22.5460 C   0  0  0  0  0  0  0  0  0  0  0  0
  -22.4090   -4.3340   21.3730 F   0  0  0  0  0  0  0  0  0  0  0  0
  -21.3650   -3.8650   26.0090 F   0  0  0  0  0  0  0  0  0  0  0  0
  -22.8470  -13.6270   21.0390 C   0  0  0  0  0  0  0  0  0  0  0  0
  -22.1060  -12.9400   21.9040 N   0  0  0  0  0  0  0  0  0  0  0  0
  -22.4160  -14.6430   20.4960 O   0  0  0  0  0  0  0  0  0  0  0  0
  -22.4700  -12.1220   22.3710 H   0  0  0  0  0  0  0  0  0  0  0  0
  -21.1590  -13.2370   22.0990 H   0  0  0  0  0  0  0  0  0  0  0  0
  -25.4770  -15.2920   20.2470 N   0  0  0  0  0  0  0  0  0  0  0  0
  -24.6920  -15.9300   20.3120 H   0  0  0  0  0  0  0  0  0  0  0  0
  -26.3260  -15.7390   19.9270 H   0  0  0  0  0  0  0  0  0  0  0  0
  -28.2550  -26.4110   20.2170 O   0  0  0  0  0  0  0  0  0  0  0  0
  -24.5800  -31.8920   23.2420 C   0  0  0  0  0  0  0  0  0  0  0  0
  -27.1840  -27.3310   20.1600 C   0  0  0  0  0  0  0  0  0  0  0  0
  -23.3800  -30.4990   21.5990 C   0  0  0  0  0  3  0  0  0  0  0  0
  -24.8310  -28.9660   20.1470 C   0  0  0  0  0  0  0  0  0  0  0  0
  -25.9220  -30.8160   21.4180 C   0  0  0  0  0  2  0  0  0  0  0  0
  -25.9990  -29.4410   20.7590 C   0  0  0  0  0  0  0  0  0  0  0  0
  -27.1800  -28.6330   20.7590 C   0  0  0  0  0  3  0  0  0  0  0  0
  -26.0060  -26.9370   19.4930 C   0  0  0  0  0  3  0  0  0  0  0  0
  -24.8380  -27.7220   19.4980 C   0  0  0  0  0  3  0  0  0  0  0  0
  -23.5920  -29.8380   20.2110 C   0  0  0  0  0  2  0  0  0  0  0  0
  -24.6470  -31.0860   22.1420 N   0  0  0  0  0  0  0  0  0  0  0  0
  -23.4950  -32.1700   23.7740 O   0  0  0  0  0  0  0  0  0  0  0  0
  -22.7260  -29.4690   22.5500 C   0  0  0  0  0  0  0  0  0  0  0  0
  -21.3990  -29.2940   22.4330 N   0  0  0  0  0  0  0  0  0  0  0  0
  -23.4130  -28.8370   23.3590 O   0  0  0  0  0  0  0  0  0  0  0  0
  -20.9020  -29.8950   21.7940 H   0  0  0  0  0  0  0  0  0  0  0  0
  -18.0240  -28.0730   22.9290 C   0  0  0  0  0  0  0  0  0  0  0  0
  -20.5850  -28.3420   23.1930 C   0  0  0  0  0  3  0  0  0  0  0  0
  -20.6870  -26.9150   22.6150 C   0  0  0  0  0  2  0  0  0  0  0  0
  -19.5840  -26.5930   21.6030 C   0  0  0  0  0  2  0  0  0  0  0  0
  -18.2100  -26.7210   22.2610 C   0  0  0  0  0  2  0  0  0  0  0  0
  -19.1440  -28.8400   23.3520 C   0  0  0  0  0  0  0  0  0  0  0  0
  -18.9220  -30.1070   23.9350 C   0  0  0  0  0  3  0  0  0  0  0  0
  -17.6150  -30.6030   24.1070 C   0  0  0  0  0  3  0  0  0  0  0  0
  -16.5110  -29.8310   23.6990 C   0  0  0  0  0  3  0  0  0  0  0  0
  -16.7170  -28.5680   23.1180 C   0  0  0  0  0  3  0  0  0  0  0  0
  -25.8620  -32.5270   23.8660 C   0  0  0  0  0  3  0  0  0  0  0  0
  -26.3740  -31.7610   25.1480 C   0  0  1  0  0  0  0  0  0  0  0  0
  -25.2750  -31.5260   26.2100 C   0  0  0  0  0  1  0  0  0  0  0  0
  -26.9600  -30.3810   24.7650 C   0  0  0  0  0  1  0  0  0  0  0  0
  -27.5210  -32.5620   25.8090 C   0  0  0  0  0  1  0  0  0  0  0  0
  -25.5500  -33.9270   24.1900 N   0  0  0  0  0  0  0  0  0  0  0  0
  -25.8820  -34.9780   23.4290 C   0  0  0  0  0  0  0  0  0  0  0  0
  -26.5560  -34.8720   22.4020 O   0  0  0  0  0  0  0  0  0  0  0  0
  -24.9500  -34.0820   24.9870 H   0  0  0  0  0  0  0  0  0  0  0  0
  -24.1550  -36.7700   23.0670 C   0  0  0  0  0  1  0  0  0  0  0  0
  -25.3930  -36.3670   23.8830 C   0  0  0  0  0  3  0  0  0  0  0  0
  -27.5220  -37.2540   24.7210 C   0  0  0  0  0  1  0  0  0  0  0  0
  -26.4260  -37.4200   23.7710 N   0  0  0  0  0  0  0  0  0  0  0  0
  -26.0190  -38.3410   23.9130 H   0  0  0  0  0  0  0  0  0  0  0  0
  2  1  1  0
  3  1  2  0
  4  6  2  0
  4  5  1  0
  5  2  2  0
  6  3  1  0
  7  8  1  0
  7  5  1  0
  8 11  1  0
  9  7  2  0
 10  8  1  0
 12 13  1  0
 12 11  1  0
 14 13  1  0
 15 20  1  0
 16 17  1  0
 16 15  1  0
 18 17  1  0
 18 25  1  0
 18 19  1  0
 20 14  1  0
 20 19  1  0
 21 14  2  0
 22 23  2  0
 23 42  1  0
 24 23  1  0
 24 27  1  0
 25 22  1  0
 25 26  1  0
 26 24  2  0
 27 28  1  0
 28 29  2  0
 30 33  1  0
 30 29  1  0
 31 30  2  0
 32 31  1  0
 32 27  2  0
 33 34  1  0
 34 35  1  0
 35 36  2  0
 37 36  1  0
 37 41  1  0
 38 37  2  0
 39 34  2  0
 39 38  1  0
 40 39  1  0
 42 43  1  0
 43 46  1  0
 43 45  1  0
 44 42  2  0
 47 48  1  0
 47 22  1  0
 49 47  1  0
 50  6  1  0
 51 62  2  0
 52 50  1  0
 52 57  1  0
 53 61  1  0
 53 63  1  0
 54 60  1  0
 54 56  1  0
 55 61  1  0
 56 57  2  0
 56 55  1  0
 58 59  1  0
 58 52  2  0
 59 54  2  0
 60 53  1  0
 61 51  1  0
 63 65  2  0
 64 63  1  0
 66 64  1  0
 67 76  2  0
 67 72  1  0
 68 64  1  0
 68 72  1  0
 69 68  1  0
 70 71  1  0
 70 69  1  0
 71 67  1  0
 72 73  2  0
 73 74  1  0
 75 74  2  0
 76 75  1  0
 77 51  1  0
 77 82  1  0
 77 78  1  0
 78 81  1  1
 78 79  1  0
 80 78  1  0
 82 85  1  0
 83 87  1  0
 83 82  1  0
 84 83  2  0
 87 86  1  0
 89 87  1  0
 89 90  1  0
 89 88  1  0
M  ISO  4   6 101  13 100  14 100  50 101
M  END
>  <TORSDO>  (58) 
F 20

>  <SCORE>  (58) 
-13.763

>  <name>  (58) 
57

>  <ligand_id>  (58) 
57

>  <original_smiles>  (58) 
[H]c1c([H])c(Oc2c([H])c([H])c3c(c2[H])C([H])([H])N(C(=O)C([H])(N([H])C(=O)C([H])(N([H])C([H])([H])[H])C([H])([H])[H])C(C([H])([H])[H])(C([H])([H])[H])C([H])([H])[H])C([H])(C(=O)N([H])C2([H])c4c([H])c([H])c([H])c([H])c4C([H])([H])C([H])([H])C2([H])[H])C3([H])[H])c([H])c(C(=O)N([H])C([H])([H])C([H])([H])C([H])([H])C(=O)N2C([H])([H])C([H])([H])C([H])([H])C([H])(n3nc(-c4c([H])c([H])c(Oc5c([H])c([H])c(F)c([H])c5F)c([H])c4[H])c(C(=O)N([H])[H])c3N([H])[H])C2([H])[H])c1[H]

>  <smiles>  (58) 
[H]c1c([H])c(Oc2c([H])c([H])c3c(c2[H])C([H])([H])N(C(=O)C([H])(N([H])C(=O)C([H])(N([H])C([H])([H])[H])C([H])([H])[H])C(C([H])([H])[H])(C([H])([H])[H])C([H])([H])[H])C([H])(C(=O)N([H])C2([H])c4c([H])c([H])c([H])c([H])c4C([H])([H])C([H])([H])C2([H])[H])C3([H])[H])c([H])c(C(=O)N([H])C([H])([H])C([H])([H])C([H])([H])C(=O)N2C([H])([H])C([H])([H])C([H])([H])C([H])(n3nc(-c4c([H])c([H])c(Oc5c([H])c([H])c(F)c([H])c5F)c([H])c4[H])c(C(=O)N([H])[H])c3N([H])[H])C2([H])[H])c1[H]

$$$$
58:0:0
     RDKit          3D

 91100  0  0  1  0  0  0  0  0999 V2000
  -30.9120  -21.5000   18.7530 C   0  0  0  0  0  3  0  0  0  0  0  0
  -30.6600  -20.1770   19.2060 C   0  0  0  0  0  3  0  0  0  0  0  0
  -28.7570  -21.1360   20.3520 C   0  0  0  0  0  3  0  0  0  0  0  0
  -30.1230  -22.6470   19.0640 C   0  0  0  0  0  0  0  0  0  0  0  0
  -28.9720  -22.6120   19.8980 C   0  0  0  0  0  0  0  0  0  0  0  0
  -29.5800  -19.8430   20.0470 C   0  0  0  0  0  0  0  0  0  0  0  0
  -30.4650  -23.9600   18.3830 C   0  0  0  0  0  2  0  0  0  0  0  0
  -29.2580  -24.5710   17.6460 C   0  0  0  0  0  2  0  0  0  0  0  0
  -27.8930  -24.2600   18.2980 C   0  0  0  0  0  2  0  0  0  0  0  0
  -27.9940  -24.1050   19.8390 C   0  0  0  0  0  3  0  0  0  0  0  0
  -30.6140  -18.2150   21.8430 C   0  0  0  0  0  1  0  0  0  0  0  0
  -29.6090  -18.1920   20.6830 C   0  0  0  0  0  0  0  0  0  0  0  0
  -30.4080  -15.3070   20.1330 C   0  0  0  0  0  0  0  0  0  0  0  0
  -30.3660  -12.8620   19.2150 C   0  0  0  0  0  2  0  0  0  0  0  0
  -29.4120  -12.6120   18.0210 C   0  0  0  0  0  2  0  0  0  0  0  0
  -27.9770  -12.3370   18.5060 C   0  0  0  0  0  2  0  0  0  0  0  0
  -27.5470  -13.3120   19.6300 C   0  0  0  0  0  3  0  0  0  0  0  0
  -28.6270  -13.4850   20.7160 C   0  0  0  0  0  2  0  0  0  0  0  0
  -29.8220  -14.0080   20.0310 N   0  0  0  0  0  0  0  0  0  0  0  0
  -31.6440  -15.2700   20.0320 O   0  0  0  0  0  0  0  0  0  0  0  0
  -29.6430  -16.5970   20.1110 N   0  0  0  0  0  4  0  0  0  0  0  0
  -28.6990  -16.3550   19.8530 H   0  0  0  0  0  0  0  0  0  0  0  0
  -25.1990  -13.8820   20.4480 C   0  0  0  0  0  0  0  0  0  0  0  0
  -24.1410  -13.1110   20.8380 C   0  0  0  0  0  0  0  0  0  0  0  0
  -24.5990  -11.7570   20.7950 C   0  0  0  0  0  0  0  0  0  0  0  0
  -26.2310  -13.0010   20.1780 N   0  0  0  0  0  0  0  0  0  0  0  0
  -25.8850  -11.7170   20.4580 N   0  0  0  0  0  0  0  0  0  0  0  0
  -23.8670  -10.4990   20.9920 C   0  0  0  0  0  0  0  0  0  0  0  0
  -24.3000   -9.5300   21.9240 C   0  0  0  0  0  3  0  0  0  0  0  0
  -23.5650   -8.3400   22.1110 C   0  0  0  0  0  3  0  0  0  0  0  0
  -22.3830   -8.1090   21.3670 C   0  0  0  0  0  0  0  0  0  0  0  0
  -21.9700   -9.0670   20.4250 C   0  0  0  0  0  3  0  0  0  0  0  0
  -22.7050  -10.2500   20.2350 C   0  0  0  0  0  3  0  0  0  0  0  0
  -21.6200   -6.9710   21.4630 O   0  0  0  0  0  0  0  0  0  0  0  0
  -21.5710   -6.2350   22.6200 C   0  0  0  0  0  0  0  0  0  0  0  0
  -21.1380   -6.7950   23.8430 C   0  0  0  0  0  3  0  0  0  0  0  0
  -21.0350   -5.9840   24.9900 C   0  0  0  0  0  3  0  0  0  0  0  0
  -21.3540   -4.6150   24.9180 C   0  0  0  0  0  0  0  0  0  0  0  0
  -21.7800   -4.0550   23.7010 C   0  0  0  0  0  3  0  0  0  0  0  0
  -21.8850   -4.8620   22.5550 C   0  0  0  0  0  0  0  0  0  0  0  0
  -22.2760   -4.3110   21.3810 F   0  0  0  0  0  0  0  0  0  0  0  0
  -21.2470   -3.8360   26.0200 F   0  0  0  0  0  0  0  0  0  0  0  0
  -22.7500  -13.5960   21.1250 C   0  0  0  0  0  0  0  0  0  0  0  0
  -22.0280  -12.9070   22.0000 N   0  0  0  0  0  0  0  0  0  0  0  0
  -22.3150  -14.6260   20.6120 O   0  0  0  0  0  0  0  0  0  0  0  0
  -22.3930  -12.0770   22.4430 H   0  0  0  0  0  0  0  0  0  0  0  0
  -21.0950  -13.2170   22.2330 H   0  0  0  0  0  0  0  0  0  0  0  0
  -25.3580  -15.2520   20.2610 N   0  0  0  0  0  0  0  0  0  0  0  0
  -24.5780  -15.8930   20.3550 H   0  0  0  0  0  0  0  0  0  0  0  0
  -26.1740  -15.6830   19.8460 H   0  0  0  0  0  0  0  0  0  0  0  0
  -28.2060  -25.7180   20.2540 O   0  0  0  0  0  0  0  0  0  0  0  0
  -24.6330  -31.7980   23.1990 C   0  0  0  0  0  0  0  0  0  0  0  0
  -27.1980  -26.8480   20.2110 C   0  0  0  0  0  0  0  0  0  0  0  0
  -23.4490  -30.3940   21.5670 C   0  0  0  0  0  3  0  0  0  0  0  0
  -24.9000  -28.7720   20.1700 C   0  0  0  0  0  0  0  0  0  0  0  0
  -26.0240  -30.5830   21.4350 C   0  0  0  0  0  2  0  0  0  0  0  0
  -26.0960  -29.1660   20.7830 C   0  0  0  0  0  0  0  0  0  0  0  0
  -27.2370  -28.2300   20.7700 C   0  0  0  0  0  3  0  0  0  0  0  0
  -25.9400  -26.6080   19.6050 C   0  0  0  0  0  3  0  0  0  0  0  0
  -24.8490  -27.5110   19.5640 C   0  0  0  0  0  3  0  0  0  0  0  0
  -23.6870  -29.7020   20.1980 C   0  0  0  0  0  2  0  0  0  0  0  0
  -24.7250  -30.9510   22.1210 N   0  0  0  0  0  0  0  0  0  0  0  0
  -23.5400  -32.0940   23.7070 O   0  0  0  0  0  0  0  0  0  0  0  0
  -22.7400  -29.4090   22.5340 C   0  0  0  0  0  0  0  0  0  0  0  0
  -21.4070  -29.2610   22.4120 N   0  0  0  0  0  0  0  0  0  0  0  0
  -23.3970  -28.7750   23.3650 O   0  0  0  0  0  0  0  0  0  0  0  0
  -20.9310  -29.8220   21.7200 H   0  0  0  0  0  0  0  0  0  0  0  0
  -18.0070  -28.0950   22.9350 C   0  0  0  0  0  0  0  0  0  0  0  0
  -20.5720  -28.3340   23.1840 C   0  0  0  0  0  3  0  0  0  0  0  0
  -20.6540  -26.9010   22.6100 C   0  0  0  0  0  2  0  0  0  0  0  0
  -19.5440  -26.5910   21.6010 C   0  0  0  0  0  2  0  0  0  0  0  0
  -18.1660  -26.7470   22.2520 C   0  0  0  0  0  2  0  0  0  0  0  0
  -19.1370  -28.8480   23.3570 C   0  0  0  0  0  0  0  0  0  0  0  0
  -18.9300  -30.1070   23.9610 C   0  0  0  0  0  3  0  0  0  0  0  0
  -17.6310  -30.6170   24.1400 C   0  0  0  0  0  3  0  0  0  0  0  0
  -16.5170  -29.8630   23.7290 C   0  0  0  0  0  3  0  0  0  0  0  0
  -16.7060  -28.6030   23.1330 C   0  0  0  0  0  3  0  0  0  0  0  0
  -25.8980  -32.4440   23.8410 C   0  0  0  0  0  3  0  0  0  0  0  0
  -25.5760  -33.8450   24.1660 N   0  0  0  0  0  0  0  0  0  0  0  0
  -25.9120  -34.9060   23.4180 C   0  0  0  0  0  0  0  0  0  0  0  0
  -26.5870  -34.8070   22.3900 O   0  0  0  0  0  0  0  0  0  0  0  0
  -24.9740  -33.9950   24.9620 H   0  0  0  0  0  0  0  0  0  0  0  0
  -24.1880  -36.7100   23.0720 C   0  0  0  0  0  1  0  0  0  0  0  0
  -25.4280  -36.2970   23.8820 C   0  0  0  0  0  3  0  0  0  0  0  0
  -27.5610  -37.1800   24.7220 C   0  0  0  0  0  1  0  0  0  0  0  0
  -26.4630  -37.3490   23.7740 N   0  0  0  0  0  0  0  0  0  0  0  0
  -26.0580  -38.2710   23.9170 H   0  0  0  0  0  0  0  0  0  0  0  0
  -26.3860  -31.6880   25.1380 C   0  0  1  0  0  0  0  0  0  0  0  0
  -25.2730  -31.4700   26.1910 C   0  0  0  0  0  1  0  0  0  0  0  0
  -26.9710  -30.3030   24.7820 C   0  0  0  0  0  1  0  0  0  0  0  0
  -27.5290  -32.4870   25.8080 C   0  0  0  0  0  1  0  0  0  0  0  0
  1  4  2  0
  1  2  1  0
  2  6  2  0
  4  5  1  0
  5  3  2  0
  6  3  1  0
  6 12  1  0
  7  4  1  0
  8  9  1  0
  8  7  1  0
  9 10  1  0
 10  5  1  0
 10 51  1  0
 12 11  1  0
 14 19  1  0
 15 16  1  0
 15 14  1  0
 17 16  1  0
 17 26  1  0
 17 18  1  0
 19 13  1  0
 19 18  1  0
 20 13  2  0
 21 13  1  0
 21 12  2  0
 22 21  1  0
 23 24  2  0
 24 43  1  0
 25 24  1  0
 25 28  1  0
 26 23  1  0
 26 27  1  0
 27 25  2  0
 28 29  1  0
 29 30  2  0
 31 34  1  0
 31 30  1  0
 32 31  2  0
 33 32  1  0
 33 28  2  0
 34 35  1  0
 35 36  1  0
 36 37  2  0
 38 37  1  0
 38 42  1  0
 39 38  2  0
 40 35  2  0
 40 39  1  0
 41 40  1  0
 43 44  1  0
 44 47  1  0
 44 46  1  0
 45 43  2  0
 48 49  1  0
 48 23  1  0
 50 48  1  0
 52 63  2  0
 53 51  1  0
 53 58  1  0
 54 62  1  0
 54 64  1  0
 55 61  1  0
 55 57  1  0
 56 62  1  0
 57 56  1  0
 58 57  2  0
 59 53  2  0
 60 59  1  0
 60 55  2  0
 61 54  1  0
 62 52  1  0
 64 66  2  0
 65 64  1  0
 67 65  1  0
 68 77  2  0
 68 73  1  0
 69 65  1  0
 69 73  1  0
 70 69  1  0
 71 72  1  0
 71 70  1  0
 72 68  1  0
 73 74  2  0
 74 75  1  0
 76 75  2  0
 77 76  1  0
 78 52  1  0
 78 79  1  0
 78 88  1  0
 79 82  1  0
 80 84  1  0
 80 79  1  0
 81 80  2  0
 84 83  1  0
 86 84  1  0
 86 87  1  0
 86 85  1  0
 88 91  1  1
 88 89  1  0
 90 88  1  0
M  ISO  4  10 101  13 100  21 100  51 101
M  END
>  <TORSDO>  (59) 
F 17

>  <SCORE>  (59) 
-16.624

>  <name>  (59) 
58

>  <ligand_id>  (59) 
58

>  <original_smiles>  (59) 
[H]c1c([H])c([H])c2c(c1[H])C([H])([H])C([H])([H])C([H])([H])C2([H])N([H])C(=O)C1([H])N(C(=O)C([H])(N([H])C(=O)C([H])(N([H])C([H])([H])[H])C([H])([H])[H])C(C([H])([H])[H])(C([H])([H])[H])C([H])([H])[H])C([H])([H])c2c([H])c(OC3([H])c4c([H])c(C([H])(N([H])C(=O)N5C([H])([H])C([H])([H])C([H])([H])C([H])(n6nc(-c7c([H])c([H])c(Oc8c([H])c([H])c(F)c([H])c8F)c([H])c7[H])c(C(=O)N([H])[H])c6N([H])[H])C5([H])[H])C([H])([H])[H])c([H])c([H])c4C([H])([H])C([H])([H])C3([H])[H])c([H])c([H])c2C1([H])[H]

>  <smiles>  (59) 
[H]c1c([H])c([H])c2c(c1[H])C([H])([H])C([H])([H])C([H])([H])C2([H])N([H])C(=O)C1([H])N(C(=O)C([H])(N([H])C(=O)C([H])(N([H])C([H])([H])[H])C([H])([H])[H])C(C([H])([H])[H])(C([H])([H])[H])C([H])([H])[H])C([H])([H])c2c([H])c(OC3([H])c4c([H])c(C([H])(N([H])C(=O)N5C([H])([H])C([H])([H])C([H])([H])C([H])(n6nc(-c7c([H])c([H])c(Oc8c([H])c([H])c(F)c([H])c8F)c([H])c7[H])c(C(=O)N([H])[H])c6N([H])[H])C5([H])[H])C([H])([H])[H])c([H])c([H])c4C([H])([H])C([H])([H])C3([H])[H])c([H])c([H])c2C1([H])[H]

$$$$
59:0:0
     RDKit          3D

 88 96  0  0  1  0  0  0  0  0999 V2000
  -27.7940  -21.2250   20.2140 C   0  0  0  0  0  3  0  0  0  0  0  0
  -29.4430  -22.9430   20.3240 C   0  0  0  0  0  3  0  0  0  0  0  0
  -27.1950  -23.7390   20.1830 C   0  0  0  0  0  3  0  0  0  0  0  0
  -29.2060  -21.3090   20.3070 C   0  0  0  0  0  0  0  0  0  0  0  0
  -26.8720  -22.3330   20.1650 C   0  0  0  0  0  0  0  0  0  0  0  0
  -28.4970  -24.2920   20.2570 C   0  0  0  0  0  0  0  0  0  0  0  0
  -25.4010  -21.9630   20.1000 C   0  0  0  0  0  1  0  0  0  0  0  0
  -29.9050  -18.0750   20.4430 C   0  0  0  0  0  3  0  0  0  0  0  0
  -30.0920  -19.6460   20.3730 C   0  0  0  0  0  0  0  0  0  0  0  0
  -30.7670  -16.5250   20.5050 C   0  0  0  0  0  0  0  0  0  0  0  0
  -31.0490  -13.8800   19.9300 C   0  0  0  0  0  2  0  0  0  0  0  0
  -30.3100  -13.2990   18.6830 C   0  0  0  0  0  2  0  0  0  0  0  0
  -28.8720  -12.8950   19.0280 C   0  0  0  0  0  2  0  0  0  0  0  0
  -28.2130  -13.9580   19.9320 C   0  0  0  0  0  3  0  0  0  0  0  0
  -29.1050  -14.4500   21.0980 C   0  0  0  0  0  2  0  0  0  0  0  0
  -30.3090  -15.1070   20.5210 N   0  0  0  0  0  0  0  0  0  0  0  0
  -32.0130  -16.4240   20.4390 O   0  0  0  0  0  0  0  0  0  0  0  0
  -25.8070  -14.4590   20.5470 C   0  0  0  0  0  0  0  0  0  0  0  0
  -24.7270  -13.6700   20.8220 C   0  0  0  0  0  0  0  0  0  0  0  0
  -25.2020  -12.3220   20.7990 C   0  0  0  0  0  0  0  0  0  0  0  0
  -26.8680  -13.5950   20.3580 N   0  0  0  0  0  0  0  0  0  0  0  0
  -26.5160  -12.3000   20.5790 N   0  0  0  0  0  0  0  0  0  0  0  0
  -24.4630  -11.0560   20.9140 C   0  0  0  0  0  0  0  0  0  0  0  0
  -24.7880  -10.0930   21.8950 C   0  0  0  0  0  3  0  0  0  0  0  0
  -24.0440   -8.8980   21.9990 C   0  0  0  0  0  3  0  0  0  0  0  0
  -22.9600   -8.6560   21.1220 C   0  0  0  0  0  0  0  0  0  0  0  0
  -22.6550   -9.6070   20.1320 C   0  0  0  0  0  3  0  0  0  0  0  0
  -23.4000  -10.7940   20.0270 C   0  0  0  0  0  3  0  0  0  0  0  0
  -22.2000   -7.5120   21.1320 O   0  0  0  0  0  0  0  0  0  0  0  0
  -21.9810   -6.8020   22.2850 C   0  0  0  0  0  0  0  0  0  0  0  0
  -21.3370   -7.3750   23.4030 C   0  0  0  0  0  3  0  0  0  0  0  0
  -21.0710   -6.5900   24.5420 C   0  0  0  0  0  3  0  0  0  0  0  0
  -21.4390   -5.2310   24.5640 C   0  0  0  0  0  0  0  0  0  0  0  0
  -22.0760   -4.6560   23.4500 C   0  0  0  0  0  3  0  0  0  0  0  0
  -22.3430   -5.4390   22.3130 C   0  0  0  0  0  0  0  0  0  0  0  0
  -22.9380   -4.8750   21.2340 F   0  0  0  0  0  0  0  0  0  0  0  0
  -21.1780   -4.4750   25.6550 F   0  0  0  0  0  0  0  0  0  0  0  0
  -23.3140  -14.1420   20.9920 C   0  0  0  0  0  0  0  0  0  0  0  0
  -22.5240  -13.4350   21.7900 N   0  0  0  0  0  0  0  0  0  0  0  0
  -22.9180  -15.1750   20.4540 O   0  0  0  0  0  0  0  0  0  0  0  0
  -22.8570  -12.5980   22.2480 H   0  0  0  0  0  0  0  0  0  0  0  0
  -21.5710  -13.7330   21.9480 H   0  0  0  0  0  0  0  0  0  0  0  0
  -25.9760  -15.8340   20.4070 N   0  0  0  0  0  0  0  0  0  0  0  0
  -25.1990  -16.4820   20.4740 H   0  0  0  0  0  0  0  0  0  0  0  0
  -26.8440  -16.2800   20.1420 H   0  0  0  0  0  0  0  0  0  0  0  0
  -31.3900  -19.9710   20.3610 O   0  0  0  0  0  0  0  0  0  0  0  0
  -31.4450  -20.9180   20.3450 H   0  0  0  0  0  0  0  0  0  0  0  0
  -28.5910  -25.9550   20.3070 O   0  0  0  0  0  0  0  0  0  0  0  0
  -24.9680  -32.1590   23.6430 C   0  0  0  0  0  0  0  0  0  0  0  0
  -27.6140  -27.2140   20.3750 C   0  0  0  0  0  0  0  0  0  0  0  0
  -23.8430  -30.8730   21.8790 C   0  0  0  0  0  3  0  0  0  0  0  0
  -25.3430  -29.3140   20.4010 C   0  0  0  0  0  0  0  0  0  0  0  0
  -26.4280  -31.0010   21.8530 C   0  0  0  0  0  2  0  0  0  0  0  0
  -26.5190  -29.6040   21.1020 C   0  0  0  0  0  0  0  0  0  0  0  0
  -27.6310  -28.5870   21.0580 C   0  0  0  0  0  3  0  0  0  0  0  0
  -26.4050  -27.1790   19.6240 C   0  0  0  0  0  3  0  0  0  0  0  0
  -25.3320  -28.1320   19.6410 C   0  0  0  0  0  3  0  0  0  0  0  0
  -24.1320  -30.2680   20.4730 C   0  0  0  0  0  2  0  0  0  0  0  0
  -25.1030  -31.3780   22.5130 N   0  0  0  0  0  0  0  0  0  0  0  0
  -23.8570  -32.4200   24.1370 O   0  0  0  0  0  0  0  0  0  0  0  0
  -23.0970  -29.8330   22.7600 C   0  0  0  0  0  0  0  0  0  0  0  0
  -21.7800  -29.6430   22.5490 N   0  0  0  0  0  0  0  0  0  0  0  0
  -23.7210  -29.1940   23.6110 O   0  0  0  0  0  0  0  0  0  0  0  0
  -21.3230  -30.2100   21.8480 H   0  0  0  0  0  0  0  0  0  0  0  0
  -18.4080  -28.3090   22.8300 C   0  0  0  0  0  0  0  0  0  0  0  0
  -20.9440  -28.6420   23.2260 C   0  0  0  0  0  3  0  0  0  0  0  0
  -21.1160  -27.2470   22.5790 C   0  0  0  0  0  2  0  0  0  0  0  0
  -20.0730  -26.9530   21.4950 C   0  0  0  0  0  2  0  0  0  0  0  0
  -18.6600  -27.0130   22.0800 C   0  0  0  0  0  2  0  0  0  0  0  0
  -19.4790  -29.0820   23.3530 C   0  0  0  0  0  0  0  0  0  0  0  0
  -19.1850  -30.2930   24.0170 C   0  0  0  0  0  3  0  0  0  0  0  0
  -17.8540  -30.7340   24.1590 C   0  0  0  0  0  3  0  0  0  0  0  0
  -16.7990  -29.9590   23.6470 C   0  0  0  0  0  3  0  0  0  0  0  0
  -17.0760  -28.7490   22.9900 C   0  0  0  0  0  3  0  0  0  0  0  0
  -26.2020  -32.7770   24.3690 C   0  0  0  0  0  3  0  0  0  0  0  0
  -25.8800  -34.1740   24.7250 N   0  0  0  0  0  0  0  0  0  0  0  0
  -26.2310  -35.2560   24.0150 C   0  0  0  0  0  0  0  0  0  0  0  0
  -26.9120  -35.1810   22.9890 O   0  0  0  0  0  0  0  0  0  0  0  0
  -25.2730  -34.3050   25.5210 H   0  0  0  0  0  0  0  0  0  0  0  0
  -24.4980  -37.0690   23.7450 C   0  0  0  0  0  1  0  0  0  0  0  0
  -25.7550  -36.6370   24.5170 C   0  0  0  0  0  3  0  0  0  0  0  0
  -27.8970  -37.5220   25.3390 C   0  0  0  0  0  1  0  0  0  0  0  0
  -26.7860  -37.6940   24.4070 N   0  0  0  0  0  0  0  0  0  0  0  0
  -26.3790  -38.6130   24.5650 H   0  0  0  0  0  0  0  0  0  0  0  0
  -26.6140  -31.9810   25.6700 C   0  0  1  0  0  0  0  0  0  0  0  0
  -25.4400  -31.7300   26.6470 C   0  0  0  0  0  1  0  0  0  0  0  0
  -27.2210  -30.6060   25.3140 C   0  0  0  0  0  1  0  0  0  0  0  0
  -27.7120  -32.7580   26.4340 C   0  0  0  0  0  1  0  0  0  0  0  0
  1  4  1  0
  3  6  2  0
  4  2  2  0
  4  9  1  0
  5  3  1  0
  5  1  2  0
  6 48  1  0
  6  2  1  0
  7  5  1  0
  8 10  1  0
  9  8  2  0
 10 16  1  0
 11 16  1  0
 12 13  1  0
 12 11  1  0
 14 13  1  0
 14 21  1  0
 14 15  1  0
 16 15  1  0
 17 10  2  0
 18 19  2  0
 19 38  1  0
 20 19  1  0
 20 23  1  0
 21 18  1  0
 21 22  1  0
 22 20  2  0
 23 24  1  0
 24 25  2  0
 26 29  1  0
 26 25  1  0
 27 26  2  0
 28 27  1  0
 28 23  2  0
 29 30  1  0
 30 35  2  0
 30 31  1  0
 31 32  2  0
 32 33  1  0
 33 37  1  0
 34 33  2  0
 35 34  1  0
 36 35  1  0
 38 39  1  0
 39 42  1  0
 39 41  1  0
 40 38  2  0
 43 44  1  0
 43 18  1  0
 45 43  1  0
 46  9  1  0
 47 46  1  0
 48 50  1  0
 49 60  2  0
 50 55  1  0
 51 59  1  0
 51 61  1  0
 52 58  1  0
 52 54  1  0
 53 59  1  0
 54 53  1  0
 55 54  2  0
 56 57  1  0
 56 50  2  0
 57 52  2  0
 58 51  1  0
 59 49  1  0
 61 63  2  0
 62 61  1  0
 64 62  1  0
 65 74  2  0
 65 70  1  0
 66 62  1  0
 66 70  1  0
 67 66  1  0
 68 69  1  0
 68 67  1  0
 69 65  1  0
 70 71  2  0
 71 72  1  0
 73 72  2  0
 74 73  1  0
 75 49  1  0
 75 76  1  0
 75 85  1  0
 76 79  1  0
 77 81  1  0
 77 76  1  0
 78 77  2  0
 81 80  1  0
 83 81  1  0
 83 84  1  0
 83 82  1  0
 85 88  1  1
 85 86  1  0
 87 85  1  0
M  ISO  4   6 101   8 100  10 100  48 101
M  END
>  <TORSDO>  (60) 
F 18

>  <SCORE>  (60) 
-13.031

>  <name>  (60) 
59

>  <ligand_id>  (60) 
59

>  <original_smiles>  (60) 
[H]OC(=C([H])C(=O)N1C([H])([H])C([H])([H])C([H])([H])C([H])(n2nc(-c3c([H])c([H])c(Oc4c([H])c([H])c(F)c([H])c4F)c([H])c3[H])c(C(=O)N([H])[H])c2N([H])[H])C1([H])[H])c1c([H])c(Oc2c([H])c([H])c3c(c2[H])C([H])([H])N(C(=O)C([H])(N([H])C(=O)C([H])(N([H])C([H])([H])[H])C([H])([H])[H])C(C([H])([H])[H])(C([H])([H])[H])C([H])([H])[H])C([H])(C(=O)N([H])C2([H])c4c([H])c([H])c([H])c([H])c4C([H])([H])C([H])([H])C2([H])[H])C3([H])[H])c([H])c(C([H])([H])[H])c1[H]

>  <smiles>  (60) 
[H]OC(=C([H])C(=O)N1C([H])([H])C([H])([H])C([H])([H])C([H])(n2nc(-c3c([H])c([H])c(Oc4c([H])c([H])c(F)c([H])c4F)c([H])c3[H])c(C(=O)N([H])[H])c2N([H])[H])C1([H])[H])c1c([H])c(Oc2c([H])c([H])c3c(c2[H])C([H])([H])N(C(=O)C([H])(N([H])C(=O)C([H])(N([H])C([H])([H])[H])C([H])([H])[H])C(C([H])([H])[H])(C([H])([H])[H])C([H])([H])[H])C([H])(C(=O)N([H])C2([H])c4c([H])c([H])c([H])c([H])c4C([H])([H])C([H])([H])C2([H])[H])C3([H])[H])c([H])c(C([H])([H])[H])c1[H]

$$$$
60:0:0
     RDKit          3D

 89 98  0  0  1  0  0  0  0  0999 V2000
  -30.5250  -15.5340   20.2230 C   0  0  0  0  0  0  0  0  0  0  0  0
  -30.5140  -13.0160   19.4800 C   0  0  0  0  0  2  0  0  0  0  0  0
  -29.6460  -12.6070   18.2670 C   0  0  0  0  0  2  0  0  0  0  0  0
  -28.2090  -12.3020   18.7140 C   0  0  0  0  0  2  0  0  0  0  0  0
  -27.6890  -13.3520   19.7240 C   0  0  0  0  0  3  0  0  0  0  0  0
  -28.7020  -13.7070   20.8360 C   0  0  0  0  0  2  0  0  0  0  0  0
  -29.8960  -14.2400   20.1470 N   0  0  0  0  0  0  0  0  0  0  0  0
  -31.7540  -15.3530   20.1530 O   0  0  0  0  0  0  0  0  0  0  0  0
  -29.0620  -19.8680   20.0700 C   0  0  0  0  0  0  0  0  0  0  0  0
  -28.4780  -21.2680   20.5200 C   0  0  0  0  0  0  0  0  0  0  0  0
  -29.5520  -20.0940   18.8300 C   0  0  0  0  0  0  0  0  0  0  0  0
  -28.5320  -22.5140   19.7050 C   0  0  0  0  0  0  0  0  0  0  0  0
  -29.2050  -18.2130   20.6180 C   0  0  0  0  0  2  0  0  0  0  0  0
  -30.1040  -18.9000   18.0580 C   0  0  0  0  0  2  0  0  0  0  0  0
  -30.8170  -17.7390   18.9030 C   0  0  0  0  0  3  0  0  0  0  0  0
  -27.7730  -21.3320   21.8400 C   0  0  0  0  0  1  0  0  0  0  0  0
  -32.0930  -18.3360   19.5520 C   0  0  0  0  0  1  0  0  0  0  0  0
  -29.9900  -16.9370   19.8970 N   0  0  0  0  0  0  0  0  0  0  0  0
  -29.3930  -21.8360   18.2800 S   0  0  0  0  0  0  0  0  0  0  0  0
  -25.3310  -13.9010   20.4980 C   0  0  0  0  0  0  0  0  0  0  0  0
  -24.2610  -13.1240   20.8400 C   0  0  0  0  0  0  0  0  0  0  0  0
  -24.7180  -11.7710   20.7810 C   0  0  0  0  0  0  0  0  0  0  0  0
  -26.3670  -13.0250   20.2380 N   0  0  0  0  0  0  0  0  0  0  0  0
  -26.0120  -11.7350   20.4780 N   0  0  0  0  0  0  0  0  0  0  0  0
  -23.9780  -10.5110   20.9350 C   0  0  0  0  0  0  0  0  0  0  0  0
  -24.3830   -9.5230   21.8590 C   0  0  0  0  0  3  0  0  0  0  0  0
  -23.6400   -8.3320   22.0050 C   0  0  0  0  0  3  0  0  0  0  0  0
  -22.4760   -8.1200   21.2280 C   0  0  0  0  0  0  0  0  0  0  0  0
  -22.0900   -9.0970   20.2940 C   0  0  0  0  0  3  0  0  0  0  0  0
  -22.8340  -10.2800   20.1450 C   0  0  0  0  0  3  0  0  0  0  0  0
  -21.7070   -6.9830   21.2840 O   0  0  0  0  0  0  0  0  0  0  0  0
  -21.6170   -6.2300   22.4280 C   0  0  0  0  0  0  0  0  0  0  0  0
  -21.1460   -6.7740   23.6420 C   0  0  0  0  0  3  0  0  0  0  0  0
  -21.0040   -5.9470   24.7760 C   0  0  0  0  0  3  0  0  0  0  0  0
  -21.3230   -4.5790   24.6940 C   0  0  0  0  0  0  0  0  0  0  0  0
  -21.7880   -4.0350   23.4840 C   0  0  0  0  0  3  0  0  0  0  0  0
  -21.9310   -4.8570   22.3530 C   0  0  0  0  0  0  0  0  0  0  0  0
  -22.3590   -4.3240   21.1840 F   0  0  0  0  0  0  0  0  0  0  0  0
  -21.1800   -3.7840   25.7800 F   0  0  0  0  0  0  0  0  0  0  0  0
  -22.8660  -13.6080   21.1060 C   0  0  0  0  0  0  0  0  0  0  0  0
  -22.1290  -12.9100   21.9600 N   0  0  0  0  0  0  0  0  0  0  0  0
  -22.4410  -14.6410   20.5910 O   0  0  0  0  0  0  0  0  0  0  0  0
  -22.4870  -12.0730   22.3980 H   0  0  0  0  0  0  0  0  0  0  0  0
  -21.1910  -13.2160   22.1820 H   0  0  0  0  0  0  0  0  0  0  0  0
  -25.5070  -15.2750   20.3530 N   0  0  0  0  0  0  0  0  0  0  0  0
  -24.7440  -15.9320   20.4790 H   0  0  0  0  0  0  0  0  0  0  0  0
  -26.3630  -15.7150   20.0400 H   0  0  0  0  0  0  0  0  0  0  0  0
  -27.6900  -24.1070   19.7490 C   0  0  0  0  0  2  0  0  0  0  0  0
  -28.0950  -25.7320   19.5490 O   0  0  0  0  0  0  0  0  0  0  0  0
  -24.7350  -31.7090   22.9650 C   0  0  0  0  0  0  0  0  0  0  0  0
  -27.1360  -26.9080   19.6140 C   0  0  0  0  0  0  0  0  0  0  0  0
  -23.4860  -30.4210   21.2850 C   0  0  0  0  0  3  0  0  0  0  0  0
  -24.8770  -28.8750   19.7370 C   0  0  0  0  0  0  0  0  0  0  0  0
  -26.0550  -30.5890   21.0890 C   0  0  0  0  0  2  0  0  0  0  0  0
  -26.0900  -29.2090   20.3510 C   0  0  0  0  0  0  0  0  0  0  0  0
  -27.2130  -28.2530   20.2620 C   0  0  0  0  0  3  0  0  0  0  0  0
  -25.8920  -26.7590   18.9570 C   0  0  0  0  0  3  0  0  0  0  0  0
  -24.8080  -27.6740   19.0180 C   0  0  0  0  0  3  0  0  0  0  0  0
  -23.6760  -29.8140   19.8670 C   0  0  0  0  0  2  0  0  0  0  0  0
  -24.7830  -30.9320   21.8330 N   0  0  0  0  0  0  0  0  0  0  0  0
  -23.6620  -31.9820   23.5280 O   0  0  0  0  0  0  0  0  0  0  0  0
  -22.8000  -29.3820   22.2120 C   0  0  0  0  0  0  0  0  0  0  0  0
  -21.4610  -29.2570   22.1330 N   0  0  0  0  0  0  0  0  0  0  0  0
  -23.4790  -28.6890   22.9730 O   0  0  0  0  0  0  0  0  0  0  0  0
  -20.9640  -29.8660   21.4980 H   0  0  0  0  0  0  0  0  0  0  0  0
  -18.0680  -28.1200   22.7460 C   0  0  0  0  0  0  0  0  0  0  0  0
  -20.6470  -28.2880   22.8750 C   0  0  0  0  0  3  0  0  0  0  0  0
  -20.6640  -26.9030   22.1870 C   0  0  0  0  0  2  0  0  0  0  0  0
  -19.4970  -26.6960   21.2170 C   0  0  0  0  0  2  0  0  0  0  0  0
  -18.1590  -26.8270   21.9520 C   0  0  0  0  0  2  0  0  0  0  0  0
  -19.2340  -28.8130   23.1660 C   0  0  0  0  0  0  0  0  0  0  0  0
  -19.0900  -30.0250   23.8770 C   0  0  0  0  0  3  0  0  0  0  0  0
  -17.8130  -30.5430   24.1660 C   0  0  0  0  0  3  0  0  0  0  0  0
  -16.6620  -29.8460   23.7580 C   0  0  0  0  0  3  0  0  0  0  0  0
  -16.7910  -28.6360   23.0540 C   0  0  0  0  0  3  0  0  0  0  0  0
  -26.0260  -32.3070   23.6010 C   0  0  0  0  0  3  0  0  0  0  0  0
  -25.7110  -33.6670   24.0780 N   0  0  0  0  0  0  0  0  0  0  0  0
  -25.9810  -34.7980   23.4120 C   0  0  0  0  0  0  0  0  0  0  0  0
  -26.5820  -34.8070   22.3350 O   0  0  0  0  0  0  0  0  0  0  0  0
  -25.1680  -33.7310   24.9260 H   0  0  0  0  0  0  0  0  0  0  0  0
  -24.2070  -36.5870   23.3720 C   0  0  0  0  0  1  0  0  0  0  0  0
  -25.5150  -36.1300   24.0380 C   0  0  0  0  0  3  0  0  0  0  0  0
  -27.6950  -36.9860   24.7800 C   0  0  0  0  0  1  0  0  0  0  0  0
  -26.5210  -37.2110   23.9430 N   0  0  0  0  0  0  0  0  0  0  0  0
  -26.1120  -38.1060   24.2020 H   0  0  0  0  0  0  0  0  0  0  0  0
  -26.5890  -31.4350   24.7910 C   0  0  1  0  0  0  0  0  0  0  0  0
  -25.5390  -31.1120   25.8800 C   0  0  0  0  0  1  0  0  0  0  0  0
  -27.1530  -30.0920   24.2760 C   0  0  0  0  0  1  0  0  0  0  0  0
  -27.7680  -32.1740   25.4690 C   0  0  0  0  0  1  0  0  0  0  0  0
  2  7  1  0
  3  4  1  0
  3  2  1  0
  5  4  1  0
  5 23  1  0
  5  6  1  0
  7  1  1  0
  7  6  1  0
  8  1  2  0
  9 10  1  0
  9 13  1  0
 10 16  1  0
 11  9  2  0
 12 48  1  0
 12 10  2  0
 14 11  1  0
 14 15  1  0
 15 17  1  0
 15 18  1  0
 18  1  1  0
 18 13  1  0
 19 11  1  0
 19 12  1  0
 20 21  2  0
 21 40  1  0
 22 21  1  0
 22 25  1  0
 23 24  1  0
 23 20  1  0
 24 22  2  0
 25 26  1  0
 26 27  2  0
 28 31  1  0
 28 27  1  0
 29 28  2  0
 30 29  1  0
 30 25  2  0
 31 32  1  0
 32 33  1  0
 33 34  2  0
 35 34  1  0
 35 39  1  0
 36 35  2  0
 37 32  2  0
 37 36  1  0
 38 37  1  0
 40 41  1  0
 41 44  1  0
 41 43  1  0
 42 40  2  0
 45 46  1  0
 45 20  1  0
 47 45  1  0
 49 51  1  0
 49 48  1  0
 50 61  2  0
 51 56  1  0
 52 60  1  0
 52 62  1  0
 53 59  1  0
 53 55  1  0
 54 60  1  0
 55 54  1  0
 56 55  2  0
 57 58  1  0
 57 51  2  0
 58 53  2  0
 59 52  1  0
 60 50  1  0
 62 64  2  0
 63 62  1  0
 65 63  1  0
 66 75  2  0
 66 71  1  0
 67 63  1  0
 67 71  1  0
 68 67  1  0
 69 70  1  0
 69 68  1  0
 70 66  1  0
 71 72  2  0
 72 73  1  0
 74 73  2  0
 75 74  1  0
 76 50  1  0
 76 77  1  0
 76 86  1  0
 77 80  1  0
 78 82  1  0
 78 77  1  0
 79 78  2  0
 82 81  1  0
 84 82  1  0
 84 85  1  0
 84 83  1  0
 86 89  1  1
 86 87  1  0
 88 86  1  0
M  ISO  4   1 100  18 100  48 101  49 101
M  END
>  <TORSDO>  (61) 
F 16

>  <SCORE>  (61) 
-15.446

>  <name>  (61) 
60

>  <ligand_id>  (61) 
60

>  <original_smiles>  (61) 
[H]c1c([H])c([H])c2c(c1[H])C([H])([H])C([H])([H])C([H])([H])C2([H])N([H])C(=O)C1([H])N(C(=O)C([H])(N([H])C(=O)C([H])(N([H])C([H])([H])[H])C([H])([H])[H])C(C([H])([H])[H])(C([H])([H])[H])C([H])([H])[H])C([H])([H])c2c([H])c(OC([H])([H])c3sc4c(c3C([H])([H])[H])C([H])([H])N(C(=O)N3C([H])([H])C([H])([H])C([H])([H])C([H])(n5nc(-c6c([H])c([H])c(Oc7c([H])c([H])c(F)c([H])c7F)c([H])c6[H])c(C(=O)N([H])[H])c5N([H])[H])C3([H])[H])C([H])(C([H])([H])[H])C4([H])[H])c([H])c([H])c2C1([H])[H]

>  <smiles>  (61) 
[H]c1c([H])c([H])c2c(c1[H])C([H])([H])C([H])([H])C([H])([H])C2([H])N([H])C(=O)C1([H])N(C(=O)C([H])(N([H])C(=O)C([H])(N([H])C([H])([H])[H])C([H])([H])[H])C(C([H])([H])[H])(C([H])([H])[H])C([H])([H])[H])C([H])([H])c2c([H])c(OC([H])([H])c3sc4c(c3C([H])([H])[H])C([H])([H])N(C(=O)N3C([H])([H])C([H])([H])C([H])([H])C([H])(n5nc(-c6c([H])c([H])c(Oc7c([H])c([H])c(F)c([H])c7F)c([H])c6[H])c(C(=O)N([H])[H])c5N([H])[H])C3([H])[H])C([H])(C([H])([H])[H])C4([H])[H])c([H])c([H])c2C1([H])[H]

$$$$
61:0:0
     RDKit          3D

 89 98  0  0  1  0  0  0  0  0999 V2000
  -28.9370  -22.1080   19.0240 C   0  0  0  0  0  3  0  0  0  0  0  0
  -29.3500  -20.6580   18.9760 C   0  0  0  0  0  0  0  0  0  0  0  0
  -29.3350  -19.8550   20.1310 C   0  0  0  0  0  0  0  0  0  0  0  0
  -28.5890  -22.7410   20.2240 C   0  0  0  0  0  0  0  0  0  0  0  0
  -29.8880  -20.0840   17.6890 C   0  0  0  0  0  2  0  0  0  0  0  0
  -30.5530  -18.6910   17.8200 C   0  0  0  0  0  2  0  0  0  0  0  0
  -31.2120  -18.4330   19.1920 C   0  0  0  0  0  2  0  0  0  0  0  0
  -30.1330  -18.2930   20.2860 C   0  0  0  0  0  3  0  0  0  0  0  0
  -28.8220  -21.2190   21.3310 S   0  0  0  0  0  0  0  0  0  0  0  0
  -30.4250  -15.3520   20.1860 C   0  0  0  0  0  0  0  0  0  0  0  0
  -30.3560  -12.9130   19.2890 C   0  0  0  0  0  2  0  0  0  0  0  0
  -29.4040  -12.6840   18.0890 C   0  0  0  0  0  2  0  0  0  0  0  0
  -27.9720  -12.4040   18.5770 C   0  0  0  0  0  2  0  0  0  0  0  0
  -27.5480  -13.3700   19.7100 C   0  0  0  0  0  3  0  0  0  0  0  0
  -28.6270  -13.5430   20.7990 C   0  0  0  0  0  2  0  0  0  0  0  0
  -29.8280  -14.0580   20.1200 N   0  0  0  0  0  0  0  0  0  0  0  0
  -31.6460  -15.2960   19.9890 O   0  0  0  0  0  0  0  0  0  0  0  0
  -29.7110  -16.6650   20.2710 N   0  0  0  0  0  0  0  0  0  0  0  0
  -28.7150  -16.5330   20.3620 H   0  0  0  0  0  0  0  0  0  0  0  0
  -25.2080  -13.9140   20.5580 C   0  0  0  0  0  0  0  0  0  0  0  0
  -24.1580  -13.1310   20.9460 C   0  0  0  0  0  0  0  0  0  0  0  0
  -24.6240  -11.7810   20.8790 C   0  0  0  0  0  0  0  0  0  0  0  0
  -26.2410  -13.0430   20.2640 N   0  0  0  0  0  0  0  0  0  0  0  0
  -25.9050  -11.7530   20.5260 N   0  0  0  0  0  0  0  0  0  0  0  0
  -23.9020  -10.5150   21.0680 C   0  0  0  0  0  0  0  0  0  0  0  0
  -24.3560   -9.5330   21.9770 C   0  0  0  0  0  3  0  0  0  0  0  0
  -23.6310   -8.3360   22.1570 C   0  0  0  0  0  3  0  0  0  0  0  0
  -22.4370   -8.1110   21.4290 C   0  0  0  0  0  0  0  0  0  0  0  0
  -22.0030   -9.0820   20.5090 C   0  0  0  0  0  3  0  0  0  0  0  0
  -22.7290  -10.2710   20.3270 C   0  0  0  0  0  3  0  0  0  0  0  0
  -21.6820   -6.9670   21.5210 O   0  0  0  0  0  0  0  0  0  0  0  0
  -21.6520   -6.2140   22.6670 C   0  0  0  0  0  0  0  0  0  0  0  0
  -21.2260   -6.7510   23.9010 C   0  0  0  0  0  3  0  0  0  0  0  0
  -21.1450   -5.9230   25.0380 C   0  0  0  0  0  3  0  0  0  0  0  0
  -21.4820   -4.5590   24.9440 C   0  0  0  0  0  0  0  0  0  0  0  0
  -21.9030   -4.0220   23.7140 C   0  0  0  0  0  3  0  0  0  0  0  0
  -21.9860   -4.8470   22.5780 C   0  0  0  0  0  0  0  0  0  0  0  0
  -22.3700   -4.3190   21.3920 F   0  0  0  0  0  0  0  0  0  0  0  0
  -21.3970   -3.7610   26.0340 F   0  0  0  0  0  0  0  0  0  0  0  0
  -22.7690  -13.6020   21.2620 C   0  0  0  0  0  0  0  0  0  0  0  0
  -22.0690  -12.8970   22.1410 N   0  0  0  0  0  0  0  0  0  0  0  0
  -22.3170  -14.6330   20.7640 O   0  0  0  0  0  0  0  0  0  0  0  0
  -22.4500  -12.0650   22.5670 H   0  0  0  0  0  0  0  0  0  0  0  0
  -21.1370  -13.1930   22.3950 H   0  0  0  0  0  0  0  0  0  0  0  0
  -25.3640  -15.2880   20.4000 N   0  0  0  0  0  0  0  0  0  0  0  0
  -24.6020  -15.9380   20.5540 H   0  0  0  0  0  0  0  0  0  0  0  0
  -26.1940  -15.7320   20.0280 H   0  0  0  0  0  0  0  0  0  0  0  0
  -27.8270  -24.2860   20.5690 C   0  0  0  0  0  2  0  0  0  0  0  0
  -28.2020  -25.8590   20.2380 O   0  0  0  0  0  0  0  0  0  0  0  0
  -24.6500  -31.8670   23.2270 C   0  0  0  0  0  0  0  0  0  0  0  0
  -27.2080  -26.9800   20.2220 C   0  0  0  0  0  0  0  0  0  0  0  0
  -23.4580  -30.4680   21.5930 C   0  0  0  0  0  3  0  0  0  0  0  0
  -24.9100  -28.8660   20.1720 C   0  0  0  0  0  0  0  0  0  0  0  0
  -26.0260  -30.6820   21.4430 C   0  0  0  0  0  2  0  0  0  0  0  0
  -26.1000  -29.2700   20.7910 C   0  0  0  0  0  0  0  0  0  0  0  0
  -27.2460  -28.3500   20.7890 C   0  0  0  0  0  3  0  0  0  0  0  0
  -25.9890  -26.7390   19.5480 C   0  0  0  0  0  3  0  0  0  0  0  0
  -24.8810  -27.6210   19.5280 C   0  0  0  0  0  3  0  0  0  0  0  0
  -23.6900  -29.7870   20.2160 C   0  0  0  0  0  2  0  0  0  0  0  0
  -24.7340  -31.0320   22.1410 N   0  0  0  0  0  0  0  0  0  0  0  0
  -23.5600  -32.1530   23.7490 O   0  0  0  0  0  0  0  0  0  0  0  0
  -22.7680  -29.4680   22.5590 C   0  0  0  0  0  0  0  0  0  0  0  0
  -21.4390  -29.2950   22.4320 N   0  0  0  0  0  0  0  0  0  0  0  0
  -23.4370  -28.8500   23.3910 O   0  0  0  0  0  0  0  0  0  0  0  0
  -20.9530  -29.8450   21.7380 H   0  0  0  0  0  0  0  0  0  0  0  0
  -18.0640  -28.0660   22.9420 C   0  0  0  0  0  0  0  0  0  0  0  0
  -20.6210  -28.3560   23.2070 C   0  0  0  0  0  3  0  0  0  0  0  0
  -20.7340  -26.9220   22.6390 C   0  0  0  0  0  2  0  0  0  0  0  0
  -19.6370  -26.5860   21.6250 C   0  0  0  0  0  2  0  0  0  0  0  0
  -18.2540  -26.7180   22.2680 C   0  0  0  0  0  2  0  0  0  0  0  0
  -19.1750  -28.8420   23.3680 C   0  0  0  0  0  0  0  0  0  0  0  0
  -18.9410  -30.1010   23.9640 C   0  0  0  0  0  3  0  0  0  0  0  0
  -17.6300  -30.5840   24.1350 C   0  0  0  0  0  3  0  0  0  0  0  0
  -16.5350  -29.8080   23.7210 C   0  0  0  0  0  3  0  0  0  0  0  0
  -16.7520  -28.5510   23.1290 C   0  0  0  0  0  3  0  0  0  0  0  0
  -25.9200  -32.5150   23.8560 C   0  0  0  0  0  3  0  0  0  0  0  0
  -25.5970  -33.9150   24.1900 N   0  0  0  0  0  0  0  0  0  0  0  0
  -25.9130  -34.9760   23.4370 C   0  0  0  0  0  0  0  0  0  0  0  0
  -26.5710  -34.8820   22.3990 O   0  0  0  0  0  0  0  0  0  0  0  0
  -25.0100  -34.0590   24.9980 H   0  0  0  0  0  0  0  0  0  0  0  0
  -24.1710  -36.7690   23.1230 C   0  0  0  0  0  1  0  0  0  0  0  0
  -25.4270  -36.3620   23.9100 C   0  0  0  0  0  3  0  0  0  0  0  0
  -27.5680  -37.2630   24.7140 C   0  0  0  0  0  1  0  0  0  0  0  0
  -26.4520  -37.4230   23.7850 N   0  0  0  0  0  0  0  0  0  0  0  0
  -26.0420  -38.3390   23.9360 H   0  0  0  0  0  0  0  0  0  0  0  0
  -26.4270  -31.7550   25.1450 C   0  0  1  0  0  0  0  0  0  0  0  0
  -25.3270  -31.5280   26.2080 C   0  0  0  0  0  1  0  0  0  0  0  0
  -27.0130  -30.3730   24.7770 C   0  0  0  0  0  1  0  0  0  0  0  0
  -27.5730  -32.5550   25.8060 C   0  0  0  0  0  1  0  0  0  0  0  0
  1  4  2  0
  2  1  1  0
  2  3  2  0
  3  8  1  0
  3  9  1  0
  4 48  1  0
  4  9  1  0
  5  6  1  0
  5  2  1  0
  6  7  1  0
  7  8  1  0
  8 18  1  0
 10 18  1  0
 11 16  1  0
 12 13  1  0
 12 11  1  0
 14 13  1  0
 14 23  1  0
 14 15  1  0
 16 10  1  0
 16 15  1  0
 17 10  2  0
 18 19  1  0
 20 21  2  0
 21 40  1  0
 22 21  1  0
 22 25  1  0
 23 24  1  0
 23 20  1  0
 24 22  2  0
 25 26  1  0
 26 27  2  0
 28 31  1  0
 28 27  1  0
 29 28  2  0
 30 29  1  0
 30 25  2  0
 31 32  1  0
 32 33  1  0
 33 34  2  0
 35 34  1  0
 35 39  1  0
 36 35  2  0
 37 32  2  0
 37 36  1  0
 38 37  1  0
 40 41  1  0
 41 44  1  0
 41 43  1  0
 42 40  2  0
 45 46  1  0
 45 20  1  0
 47 45  1  0
 49 48  1  0
 50 61  2  0
 51 49  1  0
 51 56  1  0
 52 60  1  0
 52 62  1  0
 53 59  1  0
 53 55  1  0
 54 60  1  0
 55 54  1  0
 56 55  2  0
 57 51  2  0
 58 57  1  0
 58 53  2  0
 59 52  1  0
 60 50  1  0
 62 64  2  0
 63 62  1  0
 65 63  1  0
 66 75  2  0
 66 71  1  0
 67 63  1  0
 67 71  1  0
 68 67  1  0
 69 70  1  0
 69 68  1  0
 70 66  1  0
 71 72  2  0
 72 73  1  0
 74 73  2  0
 75 74  1  0
 76 50  1  0
 76 77  1  0
 76 86  1  0
 77 80  1  0
 78 82  1  0
 78 77  1  0
 79 78  2  0
 82 81  1  0
 84 82  1  0
 84 85  1  0
 84 83  1  0
 86 89  1  1
 86 87  1  0
 88 86  1  0
M  ISO  4  10 100  18 100  48 101  49 101
M  END
>  <TORSDO>  (62) 
F 17

>  <SCORE>  (62) 
-16.763

>  <name>  (62) 
61

>  <ligand_id>  (62) 
61

>  <original_smiles>  (62) 
[H]c1c([H])c([H])c2c(c1[H])C([H])([H])C([H])([H])C([H])([H])C2([H])N([H])C(=O)C1([H])N(C(=O)C([H])(N([H])C(=O)C([H])(N([H])C([H])([H])[H])C([H])([H])[H])C(C([H])([H])[H])(C([H])([H])[H])C([H])([H])[H])C([H])([H])c2c([H])c(OC([H])([H])c3sc4c(c3[H])C([H])([H])C([H])([H])C([H])([H])C4([H])N([H])C(=O)N3C([H])([H])C([H])([H])C([H])([H])C([H])(n4nc(-c5c([H])c([H])c(Oc6c([H])c([H])c(F)c([H])c6F)c([H])c5[H])c(C(=O)N([H])[H])c4N([H])[H])C3([H])[H])c([H])c([H])c2C1([H])[H]

>  <smiles>  (62) 
[H]c1c([H])c([H])c2c(c1[H])C([H])([H])C([H])([H])C([H])([H])C2([H])N([H])C(=O)C1([H])N(C(=O)C([H])(N([H])C(=O)C([H])(N([H])C([H])([H])[H])C([H])([H])[H])C(C([H])([H])[H])(C([H])([H])[H])C([H])([H])[H])C([H])([H])c2c([H])c(OC([H])([H])c3sc4c(c3[H])C([H])([H])C([H])([H])C([H])([H])C4([H])N([H])C(=O)N3C([H])([H])C([H])([H])C([H])([H])C([H])(n4nc(-c5c([H])c([H])c(Oc6c([H])c([H])c(F)c([H])c6F)c([H])c5[H])c(C(=O)N([H])[H])c4N([H])[H])C3([H])[H])c([H])c([H])c2C1([H])[H]

$$$$
62:0:0
     RDKit          3D

 92100  0  0  1  0  0  0  0  0999 V2000
  -27.0640  -23.3320   21.7680 C   0  0  0  0  0  3  0  0  0  0  0  0
  -27.2340  -24.6440   21.2690 C   0  0  0  0  0  3  0  0  0  0  0  0
  -28.9430  -23.7570   19.8180 C   0  0  0  0  0  3  0  0  0  0  0  0
  -28.8030  -22.3400   20.3070 C   0  0  0  0  0  0  0  0  0  0  0  0
  -27.8220  -22.2170   21.3350 C   0  0  0  0  0  0  0  0  0  0  0  0
  -28.1770  -24.9630   20.2710 C   0  0  0  0  0  0  0  0  0  0  0  0
  -29.6810  -21.0610   19.8260 C   0  0  0  0  0  0  0  0  0  0  0  0
  -29.4540  -19.6800   20.1330 N   0  0  0  0  0  0  0  0  0  0  0  0
  -30.6570  -21.3230   19.1180 O   0  0  0  0  0  0  0  0  0  0  0  0
  -28.5980  -19.5440   20.6610 H   0  0  0  0  0  0  0  0  0  0  0  0
  -30.2960  -18.3480   19.8360 C   0  0  0  0  0  3  0  0  0  0  0  0
  -29.8940  -16.7380   20.2410 C   0  0  0  0  0  3  0  0  0  0  0  0
  -30.7560  -15.3330   19.9050 C   0  0  0  0  0  0  0  0  0  0  0  0
  -30.6750  -12.9600   18.9730 C   0  0  0  0  0  2  0  0  0  0  0  0
  -29.6760  -12.9070   17.7910 C   0  0  0  0  0  2  0  0  0  0  0  0
  -28.2410  -12.6620   18.2970 C   0  0  0  0  0  2  0  0  0  0  0  0
  -27.8810  -13.5650   19.5020 C   0  0  0  0  0  3  0  0  0  0  0  0
  -28.9950  -13.5930   20.5680 C   0  0  0  0  0  2  0  0  0  0  0  0
  -30.2270  -14.0360   19.9060 N   0  0  0  0  0  0  0  0  0  0  0  0
  -31.9250  -15.4290   19.5130 O   0  0  0  0  0  0  0  0  0  0  0  0
  -25.5530  -14.0950   20.4230 C   0  0  0  0  0  0  0  0  0  0  0  0
  -24.5180  -13.2980   20.8300 C   0  0  0  0  0  0  0  0  0  0  0  0
  -24.9850  -11.9540   20.7130 C   0  0  0  0  0  0  0  0  0  0  0  0
  -26.5800  -13.2360   20.0750 N   0  0  0  0  0  0  0  0  0  0  0  0
  -26.2530  -11.9390   20.3140 N   0  0  0  0  0  0  0  0  0  0  0  0
  -24.2760  -10.6800   20.9000 C   0  0  0  0  0  0  0  0  0  0  0  0
  -24.6920   -9.7330   21.8620 C   0  0  0  0  0  3  0  0  0  0  0  0
  -23.9800   -8.5270   22.0340 C   0  0  0  0  0  3  0  0  0  0  0  0
  -22.8370   -8.2580   21.2450 C   0  0  0  0  0  0  0  0  0  0  0  0
  -22.4410   -9.1920   20.2710 C   0  0  0  0  0  3  0  0  0  0  0  0
  -23.1530  -10.3910   20.0980 C   0  0  0  0  0  3  0  0  0  0  0  0
  -22.0990   -7.1020   21.3250 O   0  0  0  0  0  0  0  0  0  0  0  0
  -21.9070   -6.4510   22.5170 C   0  0  0  0  0  0  0  0  0  0  0  0
  -21.2890   -7.0820   23.6180 C   0  0  0  0  0  3  0  0  0  0  0  0
  -21.0490   -6.3560   24.8020 C   0  0  0  0  0  3  0  0  0  0  0  0
  -21.4170   -4.9990   24.8830 C   0  0  0  0  0  0  0  0  0  0  0  0
  -22.0270   -4.3680   23.7850 C   0  0  0  0  0  3  0  0  0  0  0  0
  -22.2680   -5.0910   22.6050 C   0  0  0  0  0  0  0  0  0  0  0  0
  -22.8380   -4.4720   21.5430 F   0  0  0  0  0  0  0  0  0  0  0  0
  -21.1790   -4.2990   26.0170 F   0  0  0  0  0  0  0  0  0  0  0  0
  -23.1400  -13.7560   21.2110 C   0  0  0  0  0  0  0  0  0  0  0  0
  -22.4750  -13.0250   22.1000 N   0  0  0  0  0  0  0  0  0  0  0  0
  -22.6630  -14.7960   20.7580 O   0  0  0  0  0  0  0  0  0  0  0  0
  -22.8760  -12.1840   22.4900 H   0  0  0  0  0  0  0  0  0  0  0  0
  -21.5540  -13.3100   22.3980 H   0  0  0  0  0  0  0  0  0  0  0  0
  -25.6970  -15.4730   20.2980 N   0  0  0  0  0  0  0  0  0  0  0  0
  -24.9330  -16.1120   20.4910 H   0  0  0  0  0  0  0  0  0  0  0  0
  -26.5230  -15.9380   19.9420 H   0  0  0  0  0  0  0  0  0  0  0  0
  -27.5660  -21.0130   22.0030 N   0  0  0  0  0  0  0  0  0  0  0  0
  -26.9010  -21.0720   22.7670 H   0  0  0  0  0  0  0  0  0  0  0  0
  -28.3860  -20.5050   22.3210 H   0  0  0  0  0  0  0  0  0  0  0  0
  -28.3140  -26.3940   19.9000 O   0  0  0  0  0  0  0  0  0  0  0  0
  -24.7180  -31.9770   23.2140 C   0  0  0  0  0  0  0  0  0  0  0  0
  -27.2550  -27.3840   19.9550 C   0  0  0  0  0  0  0  0  0  0  0  0
  -23.4850  -30.6240   21.5620 C   0  0  0  0  0  3  0  0  0  0  0  0
  -24.9100  -29.1130   20.0450 C   0  0  0  0  0  0  0  0  0  0  0  0
  -26.0310  -30.9200   21.3360 C   0  0  0  0  0  2  0  0  0  0  0  0
  -26.1020  -29.5480   20.6380 C   0  0  0  0  0  0  0  0  0  0  0  0
  -27.2740  -28.6990   20.5810 C   0  0  0  0  0  3  0  0  0  0  0  0
  -26.0390  -27.0610   19.3190 C   0  0  0  0  0  3  0  0  0  0  0  0
  -24.8900  -27.8810   19.3690 C   0  0  0  0  0  3  0  0  0  0  0  0
  -23.6750  -29.9960   20.1550 C   0  0  0  0  0  2  0  0  0  0  0  0
  -24.7650  -31.1960   22.0910 N   0  0  0  0  0  0  0  0  0  0  0  0
  -23.6450  -32.2310   23.7820 O   0  0  0  0  0  0  0  0  0  0  0  0
  -22.8470  -29.5770   22.5090 C   0  0  0  0  0  0  0  0  0  0  0  0
  -21.5250  -29.3620   22.3880 N   0  0  0  0  0  0  0  0  0  0  0  0
  -23.5440  -28.9590   23.3190 O   0  0  0  0  0  0  0  0  0  0  0  0
  -21.0150  -29.9150   21.7120 H   0  0  0  0  0  0  0  0  0  0  0  0
  -18.1950  -28.0150   22.8700 C   0  0  0  0  0  0  0  0  0  0  0  0
  -20.7400  -28.3830   23.1460 C   0  0  0  0  0  3  0  0  0  0  0  0
  -20.9040  -26.9630   22.5570 C   0  0  0  0  0  2  0  0  0  0  0  0
  -19.8180  -26.6040   21.5370 C   0  0  0  0  0  2  0  0  0  0  0  0
  -18.4300  -26.6830   22.1770 C   0  0  0  0  0  2  0  0  0  0  0  0
  -19.2790  -28.8210   23.3110 C   0  0  0  0  0  0  0  0  0  0  0  0
  -19.0030  -30.0630   23.9200 C   0  0  0  0  0  3  0  0  0  0  0  0
  -17.6780  -30.5050   24.0910 C   0  0  0  0  0  3  0  0  0  0  0  0
  -16.6080  -29.6980   23.6650 C   0  0  0  0  0  3  0  0  0  0  0  0
  -16.8670  -28.4540   23.0610 C   0  0  0  0  0  3  0  0  0  0  0  0
  -26.0080  -32.6080   23.8230 C   0  0  0  0  0  3  0  0  0  0  0  0
  -26.5420  -31.8260   25.0860 C   0  0  1  0  0  0  0  0  0  0  0  0
  -25.4640  -31.5790   26.1670 C   0  0  0  0  0  1  0  0  0  0  0  0
  -27.1220  -30.4510   24.6800 C   0  0  0  0  0  1  0  0  0  0  0  0
  -27.7030  -32.6140   25.7390 C   0  0  0  0  0  1  0  0  0  0  0  0
  -25.7010  -34.0030   24.1790 N   0  0  0  0  0  0  0  0  0  0  0  0
  -26.0140  -35.0690   23.4290 C   0  0  0  0  0  0  0  0  0  0  0  0
  -26.6580  -34.9810   22.3810 O   0  0  0  0  0  0  0  0  0  0  0  0
  -25.1320  -34.1460   25.0000 H   0  0  0  0  0  0  0  0  0  0  0  0
  -24.2780  -36.8670   23.1440 C   0  0  0  0  0  1  0  0  0  0  0  0
  -25.5390  -36.4500   23.9200 C   0  0  0  0  0  3  0  0  0  0  0  0
  -27.6900  -37.3290   24.7160 C   0  0  0  0  0  1  0  0  0  0  0  0
  -26.5690  -37.5060   23.7960 N   0  0  0  0  0  0  0  0  0  0  0  0
  -26.1650  -38.4240   23.9620 H   0  0  0  0  0  0  0  0  0  0  0  0
  2  1  2  0
  3  6  2  0
  3  4  1  0
  4  5  2  0
  5  1  1  0
  5 49  1  0
  6  2  1  0
  7  8  1  0
  7  4  1  0
  8 10  1  0
  9  7  2  0
 11  8  1  0
 11 12  2  0
 13 19  1  0
 13 12  1  0
 14 19  1  0
 15 16  1  0
 15 14  1  0
 17 16  1  0
 17 24  1  0
 17 18  1  0
 19 18  1  0
 20 13  2  0
 21 22  2  0
 22 41  1  0
 23 22  1  0
 23 26  1  0
 24 25  1  0
 24 21  1  0
 25 23  2  0
 26 27  1  0
 27 28  2  0
 29 32  1  0
 29 28  1  0
 30 29  2  0
 31 30  1  0
 31 26  2  0
 32 33  1  0
 33 38  2  0
 33 34  1  0
 34 35  2  0
 35 36  1  0
 36 40  1  0
 37 36  2  0
 38 37  1  0
 39 38  1  0
 41 42  1  0
 42 45  1  0
 42 44  1  0
 43 41  2  0
 46 21  1  0
 46 47  1  0
 48 46  1  0
 49 51  1  0
 49 50  1  0
 52 54  1  0
 52  6  1  0
 53 64  2  0
 54 59  1  0
 55 63  1  0
 55 65  1  0
 56 62  1  0
 56 58  1  0
 57 63  1  0
 58 57  1  0
 59 58  2  0
 60 61  1  0
 60 54  2  0
 61 56  2  0
 62 55  1  0
 63 53  1  0
 65 67  2  0
 66 65  1  0
 68 66  1  0
 69 78  2  0
 69 74  1  0
 70 66  1  0
 70 74  1  0
 71 70  1  0
 72 73  1  0
 72 71  1  0
 73 69  1  0
 74 75  2  0
 75 76  1  0
 77 76  2  0
 78 77  1  0
 79 53  1  0
 79 84  1  0
 79 80  1  0
 80 83  1  1
 80 81  1  0
 82 80  1  0
 84 87  1  0
 85 89  1  0
 85 84  1  0
 86 85  2  0
 89 88  1  0
 91 89  1  0
 91 92  1  0
 91 90  1  0
M  ISO  4   6 101  12 100  13 100  52 101
M  END
>  <TORSDO>  (63) 
F 20

>  <SCORE>  (63) 
-13.261

>  <name>  (63) 
62

>  <ligand_id>  (63) 
62

>  <original_smiles>  (63) 
[H]c1c([H])c([H])c2c(c1[H])C([H])([H])C([H])([H])C([H])([H])C2([H])N([H])C(=O)C1([H])N(C(=O)C([H])(N([H])C(=O)C([H])(N([H])C([H])([H])[H])C([H])([H])[H])C(C([H])([H])[H])(C([H])([H])[H])C([H])([H])[H])C([H])([H])c2c([H])c(Oc3c([H])c([H])c(N([H])[H])c(C(=O)N([H])C([H])([H])C([H])([H])C(=O)N4C([H])([H])C([H])([H])C([H])([H])C([H])(n5nc(-c6c([H])c([H])c(Oc7c([H])c([H])c(F)c([H])c7F)c([H])c6[H])c(C(=O)N([H])[H])c5N([H])[H])C4([H])[H])c3[H])c([H])c([H])c2C1([H])[H]

>  <smiles>  (63) 
[H]c1c([H])c([H])c2c(c1[H])C([H])([H])C([H])([H])C([H])([H])C2([H])N([H])C(=O)C1([H])N(C(=O)C([H])(N([H])C(=O)C([H])(N([H])C([H])([H])[H])C([H])([H])[H])C(C([H])([H])[H])(C([H])([H])[H])C([H])([H])[H])C([H])([H])c2c([H])c(Oc3c([H])c([H])c(N([H])[H])c(C(=O)N([H])C([H])([H])C([H])([H])C(=O)N4C([H])([H])C([H])([H])C([H])([H])C([H])(n5nc(-c6c([H])c([H])c(Oc7c([H])c([H])c(F)c([H])c7F)c([H])c6[H])c(C(=O)N([H])[H])c5N([H])[H])C4([H])[H])c3[H])c([H])c([H])c2C1([H])[H]

$$$$
63:0:0
     RDKit          3D

 88 97  0  0  1  0  0  0  0  0999 V2000
  -30.4930  -15.2980   20.3580 C   0  0  0  0  0  0  0  0  0  0  0  0
  -30.4050  -12.8540   19.5050 C   0  0  0  0  0  2  0  0  0  0  0  0
  -29.5170  -12.6060   18.2630 C   0  0  0  0  0  2  0  0  0  0  0  0
  -28.0680  -12.3310   18.6930 C   0  0  0  0  0  2  0  0  0  0  0  0
  -27.5880  -13.3230   19.7820 C   0  0  0  0  0  3  0  0  0  0  0  0
  -28.6150  -13.5410   20.9150 C   0  0  0  0  0  2  0  0  0  0  0  0
  -29.8450  -14.0320   20.2740 N   0  0  0  0  0  0  0  0  0  0  0  0
  -31.7160  -15.1840   20.1850 O   0  0  0  0  0  0  0  0  0  0  0  0
  -30.3720  -19.4970   20.6160 C   0  0  0  0  0  2  0  0  0  0  0  0
  -28.1640  -18.9010   20.0600 C   0  0  0  0  0  2  0  0  0  0  0  0
  -28.8760  -21.6010   19.2890 C   0  0  0  0  0  2  0  0  0  0  0  0
  -28.4400  -21.5530   21.2160 C   0  0  0  0  0  2  0  0  0  0  0  0
  -30.7350  -17.9670   20.0380 C   0  0  0  0  0  2  0  0  0  0  0  0
  -28.5830  -17.3700   20.6440 C   0  0  0  0  0  2  0  0  0  0  0  0
  -28.6900  -22.8930   20.2920 C   0  0  0  0  0  3  0  0  0  0  0  0
  -28.9970  -20.2960   20.2990 C   0  0  2  0  0  0  0  0  0  0  0  0
  -29.9230  -16.6860   20.3390 N   0  0  0  0  0  0  0  0  0  0  0  0
  -25.2040  -13.8620   20.4970 C   0  0  0  0  0  0  0  0  0  0  0  0
  -24.1450  -13.0780   20.8560 C   0  0  0  0  0  0  0  0  0  0  0  0
  -24.6270  -11.7330   20.8490 C   0  0  0  0  0  0  0  0  0  0  0  0
  -26.2610  -12.9970   20.2810 N   0  0  0  0  0  0  0  0  0  0  0  0
  -25.9240  -11.7090   20.5630 N   0  0  0  0  0  0  0  0  0  0  0  0
  -23.9080  -10.4660   21.0380 C   0  0  0  0  0  0  0  0  0  0  0  0
  -24.3300   -9.5110   21.9900 C   0  0  0  0  0  3  0  0  0  0  0  0
  -23.6060   -8.3110   22.1680 C   0  0  0  0  0  3  0  0  0  0  0  0
  -22.4490   -8.0570   21.3950 C   0  0  0  0  0  0  0  0  0  0  0  0
  -22.0470   -9.0000   20.4330 C   0  0  0  0  0  3  0  0  0  0  0  0
  -22.7710  -10.1910   20.2510 C   0  0  0  0  0  3  0  0  0  0  0  0
  -21.6990   -6.9080   21.4820 O   0  0  0  0  0  0  0  0  0  0  0  0
  -21.6290   -6.1810   22.6430 C   0  0  0  0  0  0  0  0  0  0  0  0
  -21.1730   -6.7520   23.8520 C   0  0  0  0  0  3  0  0  0  0  0  0
  -21.0490   -5.9520   25.0060 C   0  0  0  0  0  3  0  0  0  0  0  0
  -21.3700   -4.5820   24.9510 C   0  0  0  0  0  0  0  0  0  0  0  0
  -21.8190   -4.0110   23.7470 C   0  0  0  0  0  3  0  0  0  0  0  0
  -21.9450   -4.8090   22.5970 C   0  0  0  0  0  0  0  0  0  0  0  0
  -22.3580   -4.2500   21.4340 F   0  0  0  0  0  0  0  0  0  0  0  0
  -21.2450   -3.8110   26.0560 F   0  0  0  0  0  0  0  0  0  0  0  0
  -22.7390  -13.5440   21.0890 C   0  0  0  0  0  0  0  0  0  0  0  0
  -22.0020  -12.8590   21.9550 N   0  0  0  0  0  0  0  0  0  0  0  0
  -22.3010  -14.5540   20.5380 O   0  0  0  0  0  0  0  0  0  0  0  0
  -22.3700  -12.0450   22.4240 H   0  0  0  0  0  0  0  0  0  0  0  0
  -21.0580  -13.1560   22.1560 H   0  0  0  0  0  0  0  0  0  0  0  0
  -25.3530  -15.2320   20.3040 N   0  0  0  0  0  0  0  0  0  0  0  0
  -24.5740  -15.8750   20.3910 H   0  0  0  0  0  0  0  0  0  0  0  0
  -26.1960  -15.6720   19.9620 H   0  0  0  0  0  0  0  0  0  0  0  0
  -27.7000  -24.2600   20.1350 N   0  0  0  0  0  0  0  0  0  0  0  0
  -26.9150  -24.1990   20.7790 H   0  0  0  0  0  0  0  0  0  0  0  0
  -28.1800  -25.8810   20.1710 O   0  0  0  0  0  0  0  0  0  0  0  0
  -24.6550  -31.8520   23.1850 C   0  0  0  0  0  0  0  0  0  0  0  0
  -27.1700  -26.9760   20.1470 C   0  0  0  0  0  0  0  0  0  0  0  0
  -23.4460  -30.4650   21.5490 C   0  0  0  0  0  3  0  0  0  0  0  0
  -24.8800  -28.8590   20.1150 C   0  0  0  0  0  0  0  0  0  0  0  0
  -26.0110  -30.6660   21.3930 C   0  0  0  0  0  2  0  0  0  0  0  0
  -26.0700  -29.2570   20.7380 C   0  0  0  0  0  0  0  0  0  0  0  0
  -27.2070  -28.3320   20.7370 C   0  0  0  0  0  3  0  0  0  0  0  0
  -25.9570  -26.7360   19.4640 C   0  0  0  0  0  3  0  0  0  0  0  0
  -24.8480  -27.6180   19.4590 C   0  0  0  0  0  3  0  0  0  0  0  0
  -23.6650  -29.7850   20.1700 C   0  0  0  0  0  2  0  0  0  0  0  0
  -24.7270  -31.0220   22.0960 N   0  0  0  0  0  0  0  0  0  0  0  0
  -23.5700  -32.1450   23.7140 O   0  0  0  0  0  0  0  0  0  0  0  0
  -22.7550  -29.4690   22.5160 C   0  0  0  0  0  0  0  0  0  0  0  0
  -21.4230  -29.3120   22.4020 N   0  0  0  0  0  0  0  0  0  0  0  0
  -23.4230  -28.8370   23.3380 O   0  0  0  0  0  0  0  0  0  0  0  0
  -20.9370  -29.8720   21.7160 H   0  0  0  0  0  0  0  0  0  0  0  0
  -18.0380  -28.1200   22.9320 C   0  0  0  0  0  0  0  0  0  0  0  0
  -20.6020  -28.3760   23.1760 C   0  0  0  0  0  3  0  0  0  0  0  0
  -20.6930  -26.9440   22.5980 C   0  0  0  0  0  2  0  0  0  0  0  0
  -19.5820  -26.6290   21.5910 C   0  0  0  0  0  2  0  0  0  0  0  0
  -18.2050  -26.7740   22.2460 C   0  0  0  0  0  2  0  0  0  0  0  0
  -19.1620  -28.8790   23.3540 C   0  0  0  0  0  0  0  0  0  0  0  0
  -18.9490  -30.1360   23.9590 C   0  0  0  0  0  3  0  0  0  0  0  0
  -17.6460  -30.6360   24.1420 C   0  0  0  0  0  3  0  0  0  0  0  0
  -16.5370  -29.8750   23.7330 C   0  0  0  0  0  3  0  0  0  0  0  0
  -16.7340  -28.6190   23.1340 C   0  0  0  0  0  3  0  0  0  0  0  0
  -25.9330  -32.4880   23.8120 C   0  0  0  0  0  3  0  0  0  0  0  0
  -25.6170  -33.8830   24.1650 N   0  0  0  0  0  0  0  0  0  0  0  0
  -25.9310  -34.9530   23.4220 C   0  0  0  0  0  0  0  0  0  0  0  0
  -26.5790  -34.8700   22.3760 O   0  0  0  0  0  0  0  0  0  0  0  0
  -25.0390  -34.0210   24.9810 H   0  0  0  0  0  0  0  0  0  0  0  0
  -24.1840  -36.7490   23.1550 C   0  0  0  0  0  1  0  0  0  0  0  0
  -25.4530  -36.3350   23.9170 C   0  0  0  0  0  3  0  0  0  0  0  0
  -27.6100  -37.2230   24.6900 C   0  0  0  0  0  1  0  0  0  0  0  0
  -26.4770  -37.3950   23.7850 N   0  0  0  0  0  0  0  0  0  0  0  0
  -26.0710  -38.3110   23.9560 H   0  0  0  0  0  0  0  0  0  0  0  0
  -26.4520  -31.7100   25.0850 C   0  0  1  0  0  0  0  0  0  0  0  0
  -25.3620  -31.4730   26.1580 C   0  0  0  0  0  1  0  0  0  0  0  0
  -27.0290  -30.3300   24.6950 C   0  0  0  0  0  1  0  0  0  0  0  0
  -27.6080  -32.4980   25.7450 C   0  0  0  0  0  1  0  0  0  0  0  0
  2  7  1  0
  3  4  1  0
  3  2  1  0
  5  4  1  0
  5 21  1  0
  5  6  1  0
  7  1  1  0
  7  6  1  0
  8  1  2  0
 16 10  1  6
 10 14  1  0
 11 15  1  0
 13 17  1  0
 13  9  1  0
 15 46  1  0
 15 12  1  0
 16 11  1  0
 16  9  1  0
 16 12  1  0
 17  1  1  0
 17 14  1  0
 18 19  2  0
 19 38  1  0
 20 19  1  0
 20 23  1  0
 21 18  1  0
 21 22  1  0
 22 20  2  0
 23 24  1  0
 24 25  2  0
 26 29  1  0
 26 25  1  0
 27 26  2  0
 28 27  1  0
 28 23  2  0
 29 30  1  0
 30 31  1  0
 31 32  2  0
 33 32  1  0
 33 37  1  0
 34 33  2  0
 35 30  2  0
 35 34  1  0
 36 35  1  0
 38 39  1  0
 39 42  1  0
 39 41  1  0
 40 38  2  0
 43 44  1  0
 43 18  1  0
 45 43  1  0
 46 48  1  0
 46 47  1  0
 49 60  2  0
 50 48  1  0
 50 55  1  0
 51 59  1  0
 51 61  1  0
 52 58  1  0
 52 54  1  0
 53 59  1  0
 54 53  1  0
 55 54  2  0
 56 50  2  0
 57 56  1  0
 57 52  2  0
 58 51  1  0
 59 49  1  0
 61 63  2  0
 62 61  1  0
 64 62  1  0
 65 74  2  0
 65 70  1  0
 66 62  1  0
 66 70  1  0
 67 66  1  0
 68 69  1  0
 68 67  1  0
 69 65  1  0
 70 71  2  0
 71 72  1  0
 73 72  2  0
 74 73  1  0
 75 49  1  0
 75 76  1  0
 75 85  1  0
 76 79  1  0
 77 81  1  0
 77 76  1  0
 78 77  2  0
 81 80  1  0
 83 81  1  0
 83 84  1  0
 83 82  1  0
 85 88  1  1
 85 86  1  0
 87 85  1  0
M  ISO  4   1 100  17 100  46 101  48 101
M  END
>  <TORSDO>  (64) 
F 16

>  <SCORE>  (64) 
-16.825

>  <name>  (64) 
63

>  <ligand_id>  (64) 
63

>  <original_smiles>  (64) 
[H]c1c([H])c([H])c2c(c1[H])C([H])([H])C([H])([H])C([H])([H])C2([H])N([H])C(=O)C1([H])N(C(=O)C([H])(N([H])C(=O)C([H])(N([H])C([H])([H])[H])C([H])([H])[H])C(C([H])([H])[H])(C([H])([H])[H])C([H])([H])[H])C([H])([H])c2c([H])c(ON([H])C3([H])C([H])([H])C4(C([H])([H])C([H])([H])N(C(=O)N5C([H])([H])C([H])([H])C([H])([H])C([H])(n6nc(-c7c([H])c([H])c(Oc8c([H])c([H])c(F)c([H])c8F)c([H])c7[H])c(C(=O)N([H])[H])c6N([H])[H])C5([H])[H])C([H])([H])C4([H])[H])C3([H])[H])c([H])c([H])c2C1([H])[H]

>  <smiles>  (64) 
[H]c1c([H])c([H])c2c(c1[H])C([H])([H])C([H])([H])C([H])([H])C2([H])N([H])C(=O)C1([H])N(C(=O)C([H])(N([H])C(=O)C([H])(N([H])C([H])([H])[H])C([H])([H])[H])C(C([H])([H])[H])(C([H])([H])[H])C([H])([H])[H])C([H])([H])c2c([H])c(ON([H])C3([H])C([H])([H])C4(C([H])([H])C([H])([H])N(C(=O)N5C([H])([H])C([H])([H])C([H])([H])C([H])(n6nc(-c7c([H])c([H])c(Oc8c([H])c([H])c(F)c([H])c8F)c([H])c7[H])c(C(=O)N([H])[H])c6N([H])[H])C5([H])[H])C([H])([H])C4([H])[H])C3([H])[H])c([H])c([H])c2C1([H])[H]

$$$$
64:0:0
     RDKit          3D

 93102  0  0  1  0  0  0  0  0999 V2000
  -32.1440  -17.8630   20.3370 C   0  0  0  0  0  2  0  0  0  0  0  0
  -28.9350  -20.9870   18.7220 C   0  0  0  0  0  2  0  0  0  0  0  0
  -31.3660  -17.0040   21.3610 C   0  0  0  0  0  2  0  0  0  0  0  0
  -31.2710  -18.6300   19.3250 C   0  0  0  0  0  2  0  0  0  0  0  0
  -28.9990  -19.4400   18.5720 C   0  0  0  0  0  2  0  0  0  0  0  0
  -29.5850  -19.9770   20.8060 C   0  0  0  0  0  2  0  0  0  0  0  0
  -29.2540  -17.3120   20.0270 C   0  0  0  0  0  2  0  0  0  0  0  0
  -29.6110  -21.3750   20.0430 C   0  0  0  0  0  3  0  0  0  0  0  0
  -30.1100  -16.2170   20.8420 C   0  0  2  0  0  0  0  0  0  0  0  0
  -29.7940  -18.8050   19.7460 C   0  0  2  0  0  0  0  0  0  0  0  0
  -29.3260  -15.8580   22.1320 C   0  0  0  0  0  1  0  0  0  0  0  0
  -30.5930  -14.8660   20.0620 C   0  0  0  0  0  0  0  0  0  0  0  0
  -30.3200  -12.6370   18.9390 C   0  0  0  0  0  2  0  0  0  0  0  0
  -29.3100  -12.7580   17.7750 C   0  0  0  0  0  2  0  0  0  0  0  0
  -27.8700  -12.5320   18.2760 C   0  0  0  0  0  2  0  0  0  0  0  0
  -27.5650  -13.3570   19.5540 C   0  0  0  0  0  3  0  0  0  0  0  0
  -28.6910  -13.1960   20.5950 C   0  0  0  0  0  2  0  0  0  0  0  0
  -29.9480  -13.6400   19.9750 N   0  0  0  0  0  0  0  0  0  0  0  0
  -31.6680  -14.9590   19.4610 O   0  0  0  0  0  0  0  0  0  0  0  0
  -25.2180  -13.8840   20.4530 C   0  0  0  0  0  0  0  0  0  0  0  0
  -24.1900  -13.0790   20.8670 C   0  0  0  0  0  0  0  0  0  0  0  0
  -24.6670  -11.7380   20.7550 C   0  0  0  0  0  0  0  0  0  0  0  0
  -26.2560  -13.0290   20.1150 N   0  0  0  0  0  0  0  0  0  0  0  0
  -25.9350  -11.7320   20.3550 N   0  0  0  0  0  0  0  0  0  0  0  0
  -23.9730  -10.4580   20.9500 C   0  0  0  0  0  0  0  0  0  0  0  0
  -24.4430   -9.4950   21.8710 C   0  0  0  0  0  3  0  0  0  0  0  0
  -23.7460   -8.2820   22.0550 C   0  0  0  0  0  3  0  0  0  0  0  0
  -22.5660   -8.0220   21.3180 C   0  0  0  0  0  0  0  0  0  0  0  0
  -22.1170   -8.9730   20.3850 C   0  0  0  0  0  3  0  0  0  0  0  0
  -22.8130  -10.1790   20.2000 C   0  0  0  0  0  3  0  0  0  0  0  0
  -21.8390   -6.8610   21.4110 O   0  0  0  0  0  0  0  0  0  0  0  0
  -21.7730   -6.1410   22.5780 C   0  0  0  0  0  0  0  0  0  0  0  0
  -21.2710   -6.7070   23.7720 C   0  0  0  0  0  3  0  0  0  0  0  0
  -21.1560   -5.9140   24.9320 C   0  0  0  0  0  3  0  0  0  0  0  0
  -21.5310   -4.5570   24.8980 C   0  0  0  0  0  0  0  0  0  0  0  0
  -22.0260   -3.9920   23.7090 C   0  0  0  0  0  3  0  0  0  0  0  0
  -22.1430   -4.7820   22.5520 C   0  0  0  0  0  0  0  0  0  0  0  0
  -22.5980   -4.2270   21.4020 F   0  0  0  0  0  0  0  0  0  0  0  0
  -21.4140   -3.7930   26.0090 F   0  0  0  0  0  0  0  0  0  0  0  0
  -22.8070  -13.5240   21.2510 C   0  0  0  0  0  0  0  0  0  0  0  0
  -22.1470  -12.7820   22.1320 N   0  0  0  0  0  0  0  0  0  0  0  0
  -22.3220  -14.5620   20.8020 O   0  0  0  0  0  0  0  0  0  0  0  0
  -22.5520  -11.9430   22.5190 H   0  0  0  0  0  0  0  0  0  0  0  0
  -21.2210  -13.0590   22.4240 H   0  0  0  0  0  0  0  0  0  0  0  0
  -25.3500  -15.2620   20.3170 N   0  0  0  0  0  0  0  0  0  0  0  0
  -24.5850  -15.9010   20.5090 H   0  0  0  0  0  0  0  0  0  0  0  0
  -26.1760  -15.7290   19.9640 H   0  0  0  0  0  0  0  0  0  0  0  0
  -28.9960  -22.6150   20.7030 N   0  0  0  0  0  4  0  0  0  0  0  0
  -29.3580  -22.6590   21.6440 H   0  0  0  0  0  0  0  0  0  0  0  0
  -28.0050  -22.4550   20.7890 H   0  0  0  0  0  0  0  0  0  0  0  0
  -29.2150  -24.0020   20.0780 C   0  0  0  0  0  3  0  0  0  0  0  0
  -28.3650  -25.2260   20.6840 C   0  0  0  0  0  3  0  0  0  0  0  0
  -28.5510  -26.6310   20.2000 O   0  0  0  0  0  0  0  0  0  0  0  0
  -24.7020  -31.9540   23.2600 C   0  0  0  0  0  0  0  0  0  0  0  0
  -27.4260  -27.4750   20.1780 C   0  0  0  0  0  0  0  0  0  0  0  0
  -23.5390  -30.5480   21.5980 C   0  0  0  0  0  3  0  0  0  0  0  0
  -25.0300  -29.0410   20.1680 C   0  0  0  0  0  0  0  0  0  0  0  0
  -26.0730  -30.9200   21.4350 C   0  0  0  0  0  2  0  0  0  0  0  0
  -26.1860  -29.5500   20.7730 C   0  0  0  0  0  0  0  0  0  0  0  0
  -27.3900  -28.7810   20.7630 C   0  0  0  0  0  3  0  0  0  0  0  0
  -26.2490  -27.0260   19.5410 C   0  0  0  0  0  3  0  0  0  0  0  0
  -25.0620  -27.7850   19.5440 C   0  0  0  0  0  3  0  0  0  0  0  0
  -23.7760  -29.8900   20.2140 C   0  0  0  0  0  2  0  0  0  0  0  0
  -24.7900  -31.1600   22.1540 N   0  0  0  0  0  0  0  0  0  0  0  0
  -23.6100  -32.2010   23.7930 O   0  0  0  0  0  0  0  0  0  0  0  0
  -22.8940  -29.5080   22.5450 C   0  0  0  0  0  0  0  0  0  0  0  0
  -21.5760  -29.2930   22.4030 N   0  0  0  0  0  0  0  0  0  0  0  0
  -23.5810  -28.8950   23.3680 O   0  0  0  0  0  0  0  0  0  0  0  0
  -21.0800  -29.8370   21.7100 H   0  0  0  0  0  0  0  0  0  0  0  0
  -18.2270  -28.0040   22.8740 C   0  0  0  0  0  0  0  0  0  0  0  0
  -20.7760  -28.3300   23.1630 C   0  0  0  0  0  3  0  0  0  0  0  0
  -20.9190  -26.9060   22.5780 C   0  0  0  0  0  2  0  0  0  0  0  0
  -19.8330  -26.5610   21.5540 C   0  0  0  0  0  2  0  0  0  0  0  0
  -18.4430  -26.6650   22.1890 C   0  0  0  0  0  2  0  0  0  0  0  0
  -19.3220  -28.7920   23.3180 C   0  0  0  0  0  0  0  0  0  0  0  0
  -19.0650  -30.0430   23.9210 C   0  0  0  0  0  3  0  0  0  0  0  0
  -17.7460  -30.5060   24.0840 C   0  0  0  0  0  3  0  0  0  0  0  0
  -16.6660  -29.7160   23.6540 C   0  0  0  0  0  3  0  0  0  0  0  0
  -16.9080  -28.4670   23.0560 C   0  0  0  0  0  3  0  0  0  0  0  0
  -25.9670  -32.6110   23.8960 C   0  0  0  0  0  3  0  0  0  0  0  0
  -26.4750  -31.8590   25.1870 C   0  0  1  0  0  0  0  0  0  0  0  0
  -25.3640  -31.5950   26.2310 C   0  0  0  0  0  1  0  0  0  0  0  0
  -27.1080  -30.4970   24.8200 C   0  0  0  0  0  1  0  0  0  0  0  0
  -27.5870  -32.6890   25.8710 C   0  0  0  0  0  1  0  0  0  0  0  0
  -25.6300  -34.0070   24.2110 N   0  0  0  0  0  0  0  0  0  0  0  0
  -25.9530  -35.0600   23.4490 C   0  0  0  0  0  0  0  0  0  0  0  0
  -26.6350  -34.9600   22.4250 O   0  0  0  0  0  0  0  0  0  0  0  0
  -25.0210  -34.1560   25.0020 H   0  0  0  0  0  0  0  0  0  0  0  0
  -24.2020  -36.8260   23.0640 C   0  0  0  0  0  1  0  0  0  0  0  0
  -25.4390  -36.4430   23.8920 C   0  0  0  0  0  3  0  0  0  0  0  0
  -27.5490  -37.3650   24.7470 C   0  0  0  0  0  1  0  0  0  0  0  0
  -26.4560  -37.5120   23.7890 N   0  0  0  0  0  0  0  0  0  0  0  0
  -26.0340  -38.4260   23.9280 H   0  0  0  0  0  0  0  0  0  0  0  0
  1  3  1  0
  2  8  1  0
 10  4  1  6
  4  1  1  0
  5  2  1  0
  7  9  1  0
  8 48  1  0
  8  6  1  0
  9  3  1  0
  9 11  1  1
 10  5  1  0
 10  7  1  0
 10  6  1  0
 12  9  1  0
 13 18  1  0
 14 15  1  0
 14 13  1  0
 16 15  1  0
 16 23  1  0
 16 17  1  0
 18 12  1  0
 18 17  1  0
 19 12  2  0
 20 21  2  0
 21 40  1  0
 22 21  1  0
 22 25  1  0
 23 24  1  0
 23 20  1  0
 24 22  2  0
 25 26  1  0
 26 27  2  0
 28 31  1  0
 28 27  1  0
 29 28  2  0
 30 29  1  0
 30 25  2  0
 31 32  1  0
 32 33  1  0
 33 34  2  0
 35 34  1  0
 35 39  1  0
 36 35  2  0
 37 32  2  0
 37 36  1  0
 38 37  1  0
 40 41  1  0
 41 44  1  0
 41 43  1  0
 42 40  2  0
 45 20  1  0
 45 46  1  0
 47 45  1  0
 48 50  1  0
 48 49  1  0
 51 52  2  0
 51 48  1  0
 53 52  1  0
 54 65  2  0
 55 53  1  0
 55 60  1  0
 56 64  1  0
 56 66  1  0
 57 63  1  0
 57 59  1  0
 58 64  1  0
 59 58  1  0
 60 59  2  0
 61 62  1  0
 61 55  2  0
 62 57  2  0
 63 56  1  0
 64 54  1  0
 66 68  2  0
 67 66  1  0
 69 67  1  0
 70 79  2  0
 70 75  1  0
 71 67  1  0
 71 75  1  0
 72 71  1  0
 73 74  1  0
 73 72  1  0
 74 70  1  0
 75 76  2  0
 76 77  1  0
 78 77  2  0
 79 78  1  0
 80 54  1  0
 80 85  1  0
 80 81  1  0
 81 84  1  1
 81 82  1  0
 83 81  1  0
 85 88  1  0
 86 90  1  0
 86 85  1  0
 87 86  2  0
 90 89  1  0
 92 90  1  0
 92 93  1  0
 92 91  1  0
M  ISO  4   9 100  12 100  52 101  53 101
M  END
>  <TORSDO>  (65) 
F 19

>  <SCORE>  (65) 
-13.199

>  <name>  (65) 
64

>  <ligand_id>  (65) 
64

>  <original_smiles>  (65) 
[H]c1c([H])c([H])c2c(c1[H])C([H])([H])C([H])([H])C([H])([H])C2([H])N([H])C(=O)C1([H])N(C(=O)C([H])(N([H])C(=O)C([H])(N([H])C([H])([H])[H])C([H])([H])[H])C(C([H])([H])[H])(C([H])([H])[H])C([H])([H])[H])C([H])([H])c2c([H])c(OC([H])([H])C([H])([H])[N+]([H])([H])C3([H])C([H])([H])C([H])([H])C4(C([H])([H])C([H])([H])C([H])([H])C(C(=O)N5C([H])([H])C([H])([H])C([H])([H])C([H])(n6nc(-c7c([H])c([H])c(Oc8c([H])c([H])c(F)c([H])c8F)c([H])c7[H])c(C(=O)N([H])[H])c6N([H])[H])C5([H])[H])(C([H])([H])[H])C4([H])[H])C3([H])[H])c([H])c([H])c2C1([H])[H]

>  <smiles>  (65) 
[H]c1c([H])c([H])c2c(c1[H])C([H])([H])C([H])([H])C([H])([H])C2([H])N([H])C(=O)C1([H])N(C(=O)C([H])(N([H])C(=O)C([H])(N([H])C([H])([H])[H])C([H])([H])[H])C(C([H])([H])[H])(C([H])([H])[H])C([H])([H])[H])C([H])([H])c2c([H])c(OC([H])([H])C([H])([H])[N+]([H])([H])C3([H])C([H])([H])C([H])([H])C4(C([H])([H])C([H])([H])C([H])([H])C(C(=O)N5C([H])([H])C([H])([H])C([H])([H])C([H])(n6nc(-c7c([H])c([H])c(Oc8c([H])c([H])c(F)c([H])c8F)c([H])c7[H])c(C(=O)N([H])[H])c6N([H])[H])C5([H])[H])(C([H])([H])[H])C4([H])[H])C3([H])[H])c([H])c([H])c2C1([H])[H]

$$$$
65:0:0
     RDKit          3D

 89 97  0  0  1  0  0  0  0  0999 V2000
  -28.3490  -22.8400   21.1510 C   0  0  0  0  0  3  0  0  0  0  0  0
  -28.5290  -21.4250   21.3310 C   0  0  0  0  0  3  0  0  0  0  0  0
  -29.3200  -22.6530   18.9870 C   0  0  0  0  0  3  0  0  0  0  0  0
  -28.7060  -23.5200   19.9550 C   0  0  0  0  0  0  0  0  0  0  0  0
  -29.0770  -20.5410   20.3460 C   0  0  0  0  0  0  0  0  0  0  0  0
  -29.4910  -21.2250   19.1610 C   0  0  0  0  0  0  0  0  0  0  0  0
  -29.9990  -20.4980   18.1230 O   0  0  0  0  0  0  0  0  0  0  0  0
  -30.2100  -21.0270   17.3560 H   0  0  0  0  0  0  0  0  0  0  0  0
  -28.9780  -18.9420   20.5920 C   0  0  0  0  0  3  0  0  0  0  0  0
  -30.0170  -17.7440   20.1760 C   0  0  0  0  0  3  0  0  0  0  0  0
  -29.7520  -16.2170   20.7430 C   0  0  0  0  0  2  0  0  0  0  0  0
  -30.5970  -14.8850   20.3440 C   0  0  0  0  0  0  0  0  0  0  0  0
  -30.4870  -12.5650   19.3690 C   0  0  0  0  0  2  0  0  0  0  0  0
  -29.5580  -12.5880   18.1370 C   0  0  0  0  0  2  0  0  0  0  0  0
  -28.0850  -12.3990   18.5560 C   0  0  0  0  0  2  0  0  0  0  0  0
  -27.6850  -13.3130   19.7370 C   0  0  0  0  0  3  0  0  0  0  0  0
  -28.7280  -13.2590   20.8720 C   0  0  0  0  0  2  0  0  0  0  0  0
  -30.0310  -13.6240   20.3030 N   0  0  0  0  0  0  0  0  0  0  0  0
  -31.7700  -15.0100   19.9740 O   0  0  0  0  0  0  0  0  0  0  0  0
  -25.2920  -13.9040   20.4580 C   0  0  0  0  0  0  0  0  0  0  0  0
  -24.2280  -13.1290   20.8280 C   0  0  0  0  0  0  0  0  0  0  0  0
  -24.6980  -11.7790   20.8120 C   0  0  0  0  0  0  0  0  0  0  0  0
  -26.3380  -13.0260   20.2270 N   0  0  0  0  0  0  0  0  0  0  0  0
  -25.9890  -11.7440   20.5050 N   0  0  0  0  0  0  0  0  0  0  0  0
  -23.9790  -10.5120   20.9960 C   0  0  0  0  0  0  0  0  0  0  0  0
  -24.4050   -9.5550   21.9450 C   0  0  0  0  0  3  0  0  0  0  0  0
  -23.6820   -8.3570   22.1250 C   0  0  0  0  0  3  0  0  0  0  0  0
  -22.5180   -8.1060   21.3570 C   0  0  0  0  0  0  0  0  0  0  0  0
  -22.1120   -9.0520   20.3980 C   0  0  0  0  0  3  0  0  0  0  0  0
  -22.8390  -10.2400   20.2140 C   0  0  0  0  0  3  0  0  0  0  0  0
  -21.7690   -6.9580   21.4440 O   0  0  0  0  0  0  0  0  0  0  0  0
  -21.6970   -6.2320   22.6050 C   0  0  0  0  0  0  0  0  0  0  0  0
  -21.2350   -6.7990   23.8150 C   0  0  0  0  0  3  0  0  0  0  0  0
  -21.1080   -5.9950   24.9650 C   0  0  0  0  0  3  0  0  0  0  0  0
  -21.4400   -4.6300   24.9100 C   0  0  0  0  0  0  0  0  0  0  0  0
  -21.9000   -4.0640   23.7100 C   0  0  0  0  0  3  0  0  0  0  0  0
  -22.0250   -4.8630   22.5590 C   0  0  0  0  0  0  0  0  0  0  0  0
  -22.4470   -4.3050   21.3980 F   0  0  0  0  0  0  0  0  0  0  0  0
  -21.3100   -3.8550   26.0160 F   0  0  0  0  0  0  0  0  0  0  0  0
  -22.8250  -13.5990   21.0860 C   0  0  0  0  0  0  0  0  0  0  0  0
  -22.0950  -12.9010   21.9490 N   0  0  0  0  0  0  0  0  0  0  0  0
  -22.3860  -14.6200   20.5570 O   0  0  0  0  0  0  0  0  0  0  0  0
  -22.4550  -12.0760   22.4040 H   0  0  0  0  0  0  0  0  0  0  0  0
  -21.1560  -13.2060   22.1670 H   0  0  0  0  0  0  0  0  0  0  0  0
  -25.4500  -15.2760   20.2790 N   0  0  0  0  0  0  0  0  0  0  0  0
  -24.6840  -15.9290   20.4080 H   0  0  0  0  0  0  0  0  0  0  0  0
  -26.2960  -15.7230   19.9490 H   0  0  0  0  0  0  0  0  0  0  0  0
  -28.0910  -24.9520   19.5440 C   0  0  0  0  0  2  0  0  0  0  0  0
  -28.2740  -26.3150   20.1950 O   0  0  0  0  0  0  0  0  0  0  0  0
  -24.6180  -31.8960   23.2370 C   0  0  0  0  0  0  0  0  0  0  0  0
  -27.2080  -27.2700   20.1290 C   0  0  0  0  0  0  0  0  0  0  0  0
  -23.4110  -30.5030   21.6020 C   0  0  0  0  0  3  0  0  0  0  0  0
  -24.8600  -28.9640   20.1570 C   0  0  0  0  0  0  0  0  0  0  0  0
  -25.9640  -30.7910   21.4290 C   0  0  0  0  0  2  0  0  0  0  0  0
  -26.0380  -29.4150   20.7650 C   0  0  0  0  0  0  0  0  0  0  0  0
  -27.2090  -28.5740   20.7560 C   0  0  0  0  0  3  0  0  0  0  0  0
  -26.0030  -26.9330   19.4600 C   0  0  0  0  0  3  0  0  0  0  0  0
  -24.8500  -27.7290   19.5010 C   0  0  0  0  0  3  0  0  0  0  0  0
  -23.6280  -29.8480   20.2170 C   0  0  0  0  0  2  0  0  0  0  0  0
  -24.6820  -31.0830   22.1430 N   0  0  0  0  0  0  0  0  0  0  0  0
  -23.5360  -32.1740   23.7720 O   0  0  0  0  0  0  0  0  0  0  0  0
  -22.7490  -29.4800   22.5570 C   0  0  0  0  0  0  0  0  0  0  0  0
  -21.4210  -29.2990   22.4340 N   0  0  0  0  0  0  0  0  0  0  0  0
  -23.4290  -28.8550   23.3750 O   0  0  0  0  0  0  0  0  0  0  0  0
  -20.9280  -29.8580   21.7500 H   0  0  0  0  0  0  0  0  0  0  0  0
  -18.0460  -28.0920   22.9520 C   0  0  0  0  0  0  0  0  0  0  0  0
  -20.6060  -28.3580   23.2070 C   0  0  0  0  0  3  0  0  0  0  0  0
  -20.7080  -26.9260   22.6310 C   0  0  0  0  0  2  0  0  0  0  0  0
  -19.6030  -26.6050   21.6190 C   0  0  0  0  0  2  0  0  0  0  0  0
  -18.2230  -26.7450   22.2710 C   0  0  0  0  0  2  0  0  0  0  0  0
  -19.1650  -28.8570   23.3770 C   0  0  0  0  0  0  0  0  0  0  0  0
  -18.9470  -30.1180   23.9740 C   0  0  0  0  0  3  0  0  0  0  0  0
  -17.6420  -30.6160   24.1450 C   0  0  0  0  0  3  0  0  0  0  0  0
  -16.5380  -29.8480   23.7370 C   0  0  0  0  0  3  0  0  0  0  0  0
  -16.7400  -28.5870   23.1480 C   0  0  0  0  0  3  0  0  0  0  0  0
  -25.9000  -32.5310   23.8550 C   0  0  0  0  0  3  0  0  0  0  0  0
  -25.5870  -33.9280   24.1890 N   0  0  0  0  0  0  0  0  0  0  0  0
  -25.9100  -34.9840   23.4280 C   0  0  0  0  0  0  0  0  0  0  0  0
  -26.5740  -34.8840   22.3920 O   0  0  0  0  0  0  0  0  0  0  0  0
  -24.9970  -34.0790   24.9920 H   0  0  0  0  0  0  0  0  0  0  0  0
  -24.1790  -36.7770   23.0820 C   0  0  0  0  0  1  0  0  0  0  0  0
  -25.4230  -36.3730   23.8890 C   0  0  0  0  0  3  0  0  0  0  0  0
  -27.5580  -37.2610   24.7180 C   0  0  0  0  0  1  0  0  0  0  0  0
  -26.4550  -37.4270   23.7730 N   0  0  0  0  0  0  0  0  0  0  0  0
  -26.0500  -38.3470   23.9210 H   0  0  0  0  0  0  0  0  0  0  0  0
  -26.4210  -31.7600   25.1310 C   0  0  1  0  0  0  0  0  0  0  0  0
  -25.3310  -31.5190   26.2020 C   0  0  0  0  0  1  0  0  0  0  0  0
  -27.0060  -30.3810   24.7450 C   0  0  0  0  0  1  0  0  0  0  0  0
  -27.5730  -32.5570   25.7880 C   0  0  0  0  0  1  0  0  0  0  0  0
  1  2  1  0
  3  6  2  0
  3  4  1  0
  4  1  2  0
  5  9  1  0
  5  2  2  0
  6  5  1  0
  7  6  1  0
  8  7  1  0
 10  9  2  0
 10 11  1  0
 12 11  1  0
 13 18  1  0
 14 15  1  0
 14 13  1  0
 16 15  1  0
 16 23  1  0
 16 17  1  0
 18 12  1  0
 18 17  1  0
 19 12  2  0
 20 21  2  0
 21 40  1  0
 22 21  1  0
 22 25  1  0
 23 20  1  0
 23 24  1  0
 24 22  2  0
 25 26  1  0
 26 27  2  0
 28 31  1  0
 28 27  1  0
 29 28  2  0
 30 29  1  0
 30 25  2  0
 31 32  1  0
 32 33  1  0
 33 34  2  0
 35 34  1  0
 35 39  1  0
 36 35  2  0
 37 32  2  0
 37 36  1  0
 38 37  1  0
 40 41  1  0
 41 44  1  0
 41 43  1  0
 42 40  2  0
 45 46  1  0
 45 20  1  0
 47 45  1  0
 48  4  1  0
 48 49  1  0
 50 61  2  0
 51 49  1  0
 51 56  1  0
 52 60  1  0
 52 62  1  0
 53 59  1  0
 53 55  1  0
 54 60  1  0
 55 54  1  0
 56 55  2  0
 57 58  1  0
 57 51  2  0
 58 53  2  0
 59 52  1  0
 60 50  1  0
 62 64  2  0
 63 62  1  0
 65 63  1  0
 66 75  2  0
 66 71  1  0
 67 63  1  0
 67 71  1  0
 68 67  1  0
 69 70  1  0
 69 68  1  0
 70 66  1  0
 71 72  2  0
 72 73  1  0
 74 73  2  0
 75 74  1  0
 76 50  1  0
 76 77  1  0
 76 86  1  0
 77 80  1  0
 78 82  1  0
 78 77  1  0
 79 78  2  0
 82 81  1  0
 84 82  1  0
 84 85  1  0
 84 83  1  0
 86 89  1  1
 86 87  1  0
 88 86  1  0
M  ISO  4  11 100  12 100  48 101  49 101
M  END
>  <TORSDO>  (66) 
F 21

>  <SCORE>  (66) 
-13.659

>  <name>  (66) 
65

>  <ligand_id>  (66) 
65

>  <original_smiles>  (66) 
[H]Oc1c([H])c(C([H])([H])Oc2c([H])c([H])c3c(c2[H])C([H])([H])N(C(=O)C([H])(N([H])C(=O)C([H])(N([H])C([H])([H])[H])C([H])([H])[H])C(C([H])([H])[H])(C([H])([H])[H])C([H])([H])[H])C([H])(C(=O)N([H])C2([H])c4c([H])c([H])c([H])c([H])c4C([H])([H])C([H])([H])C2([H])[H])C3([H])[H])c([H])c([H])c1C([H])([H])C([H])([H])C([H])([H])C(=O)N1C([H])([H])C([H])([H])C([H])([H])C([H])(n2nc(-c3c([H])c([H])c(Oc4c([H])c([H])c(F)c([H])c4F)c([H])c3[H])c(C(=O)N([H])[H])c2N([H])[H])C1([H])[H]

>  <smiles>  (66) 
[H]Oc1c([H])c(C([H])([H])Oc2c([H])c([H])c3c(c2[H])C([H])([H])N(C(=O)C([H])(N([H])C(=O)C([H])(N([H])C([H])([H])[H])C([H])([H])[H])C(C([H])([H])[H])(C([H])([H])[H])C([H])([H])[H])C([H])(C(=O)N([H])C2([H])c4c([H])c([H])c([H])c([H])c4C([H])([H])C([H])([H])C2([H])[H])C3([H])[H])c([H])c([H])c1C([H])([H])C([H])([H])C([H])([H])C(=O)N1C([H])([H])C([H])([H])C([H])([H])C([H])(n2nc(-c3c([H])c([H])c(Oc4c([H])c([H])c(F)c([H])c4F)c([H])c3[H])c(C(=O)N([H])[H])c2N([H])[H])C1([H])[H]

$$$$
66:0:0
     RDKit          3D

 98107  0  0  1  0  0  0  0  0999 V2000
  -28.6800  -21.3460   19.9290 C   0  0  0  0  0  0  0  0  0  0  0  0
  -29.5880  -21.8610   20.7680 N   0  0  0  0  0  0  0  0  0  0  0  0
  -27.9680  -22.0140   19.1770 O   0  0  0  0  0  0  0  0  0  0  0  0
  -30.0770  -21.1680   21.3170 H   0  0  0  0  0  0  0  0  0  0  0  0
  -29.6130  -24.6240   23.2710 C   0  0  0  0  0  3  0  0  0  0  0  0
  -29.4970  -25.7600   22.4510 C   0  0  0  0  0  3  0  0  0  0  0  0
  -29.4670  -24.3340   20.4790 C   0  0  0  0  0  3  0  0  0  0  0  0
  -29.6510  -23.3330   22.7100 C   0  0  0  0  0  0  0  0  0  0  0  0
  -29.5660  -23.1810   21.3030 C   0  0  0  0  0  0  0  0  0  0  0  0
  -29.4200  -25.6320   21.0460 C   0  0  0  0  0  0  0  0  0  0  0  0
  -29.7660  -22.1290   23.6420 C   0  0  0  0  0  1  0  0  0  0  0  0
  -29.3200  -26.7530   20.2420 O   0  0  0  0  0  0  0  0  0  0  0  0
  -24.9150  -31.3570   23.3920 C   0  0  0  0  0  0  0  0  0  0  0  0
  -28.1010  -27.3940   20.2120 C   0  0  0  0  0  0  0  0  0  0  0  0
  -23.9130  -29.9390   21.6300 C   0  0  0  0  0  3  0  0  0  0  0  0
  -25.5670  -28.6390   20.1850 C   0  0  0  0  0  0  0  0  0  0  0  0
  -26.3940  -30.5670   21.5500 C   0  0  0  0  0  2  0  0  0  0  0  0
  -26.6420  -29.2510   20.8430 C   0  0  0  0  0  0  0  0  0  0  0  0
  -27.9160  -28.6420   20.8460 C   0  0  0  0  0  3  0  0  0  0  0  0
  -27.0160  -26.7890   19.5460 C   0  0  0  0  0  3  0  0  0  0  0  0
  -25.7490  -27.4070   19.5310 C   0  0  0  0  0  3  0  0  0  0  0  0
  -24.2370  -29.3610   20.2260 C   0  0  0  0  0  2  0  0  0  0  0  0
  -25.0870  -30.6330   22.2500 N   0  0  0  0  0  0  0  0  0  0  0  0
  -23.7930  -31.4910   23.9020 O   0  0  0  0  0  0  0  0  0  0  0  0
  -23.3380  -28.8050   22.5090 C   0  0  0  0  0  0  0  0  0  0  0  0
  -22.0800  -28.4180   22.2360 N   0  0  0  0  0  0  0  0  0  0  0  0
  -24.0240  -28.2780   23.3880 O   0  0  0  0  0  0  0  0  0  0  0  0
  -21.5820  -28.9070   21.5060 H   0  0  0  0  0  0  0  0  0  0  0  0
  -18.9540  -26.6050   22.2590 C   0  0  0  0  0  0  0  0  0  0  0  0
  -21.3450  -27.3450   22.9070 C   0  0  0  0  0  3  0  0  0  0  0  0
  -21.8020  -25.9570   22.4030 C   0  0  0  0  0  2  0  0  0  0  0  0
  -20.9520  -25.4260   21.2450 C   0  0  0  0  0  2  0  0  0  0  0  0
  -19.4830  -25.3090   21.6680 C   0  0  0  0  0  2  0  0  0  0  0  0
  -19.8300  -27.5680   22.8280 C   0  0  0  0  0  0  0  0  0  0  0  0
  -19.2910  -28.7700   23.3320 C   0  0  0  0  0  3  0  0  0  0  0  0
  -17.9060  -29.0170   23.2790 C   0  0  0  0  0  3  0  0  0  0  0  0
  -17.0420  -28.0520   22.7330 C   0  0  0  0  0  3  0  0  0  0  0  0
  -17.5650  -26.8490   22.2280 C   0  0  0  0  0  3  0  0  0  0  0  0
  -26.1110  -32.0750   24.0920 C   0  0  0  0  0  3  0  0  0  0  0  0
  -26.5700  -31.3620   25.4220 C   0  0  1  0  0  0  0  0  0  0  0  0
  -25.4130  -31.0720   26.4050 C   0  0  0  0  0  1  0  0  0  0  0  0
  -27.2700  -30.0180   25.1070 C   0  0  0  0  0  1  0  0  0  0  0  0
  -27.6110  -32.2410   26.1550 C   0  0  0  0  0  1  0  0  0  0  0  0
  -25.6990  -33.4600   24.3610 N   0  0  0  0  0  0  0  0  0  0  0  0
  -26.0370  -34.5140   23.6060 C   0  0  0  0  0  0  0  0  0  0  0  0
  -26.7970  -34.4260   22.6370 O   0  0  0  0  0  0  0  0  0  0  0  0
  -25.0260  -33.5960   25.1010 H   0  0  0  0  0  0  0  0  0  0  0  0
  -24.2610  -36.2030   23.0460 C   0  0  0  0  0  1  0  0  0  0  0  0
  -25.4350  -35.8810   23.9830 C   0  0  0  0  0  3  0  0  0  0  0  0
  -27.4280  -36.8920   25.0000 C   0  0  0  0  0  1  0  0  0  0  0  0
  -26.4180  -36.9850   23.9490 N   0  0  0  0  0  0  0  0  0  0  0  0
  -25.9530  -37.8860   24.0320 H   0  0  0  0  0  0  0  0  0  0  0  0
  -27.0530  -17.9040   20.0100 C   0  0  0  0  0  3  0  0  0  0  0  0
  -27.2370  -19.2960   19.9140 C   0  0  0  0  0  3  0  0  0  0  0  0
  -28.1660  -17.0510   20.1350 C   0  0  0  0  0  3  0  0  0  0  0  0
  -29.6490  -18.9870   20.1160 C   0  0  0  0  0  3  0  0  0  0  0  0
  -28.5320  -19.8520   19.9930 C   0  0  0  0  0  0  0  0  0  0  0  0
  -29.4810  -17.5770   20.1520 C   0  0  0  0  0  0  0  0  0  0  0  0
  -31.1470  -14.2760   20.0300 C   0  0  0  0  0  0  0  0  0  0  0  0
  -30.8990  -11.8960   19.4190 C   0  0  0  0  0  2  0  0  0  0  0  0
  -29.9700  -11.7650   18.1960 C   0  0  0  0  0  2  0  0  0  0  0  0
  -28.4880  -11.7170   18.6210 C   0  0  0  0  0  2  0  0  0  0  0  0
  -28.1190  -12.8470   19.6210 C   0  0  0  0  0  3  0  0  0  0  0  0
  -29.1510  -12.9190   20.7670 C   0  0  0  0  0  2  0  0  0  0  0  0
  -30.4880  -13.0940   20.1660 N   0  0  0  0  0  0  0  0  0  0  0  0
  -32.2850  -14.3460   19.5520 O   0  0  0  0  0  0  0  0  0  0  0  0
  -30.6820  -16.6610   20.1830 C   0  0  0  0  0  0  0  0  0  0  0  0
  -30.3850  -15.3530   20.2940 N   0  0  0  0  0  0  0  0  0  0  0  0
  -31.8200  -17.1280   20.0410 O   0  0  0  0  0  0  0  0  0  0  0  0
  -29.4280  -15.1530   20.5210 H   0  0  0  0  0  0  0  0  0  0  0  0
  -25.7960  -13.6480   20.3810 C   0  0  0  0  0  0  0  0  0  0  0  0
  -24.6740  -12.9640   20.7600 C   0  0  0  0  0  0  0  0  0  0  0  0
  -25.0230  -11.5790   20.7220 C   0  0  0  0  0  0  0  0  0  0  0  0
  -26.7590  -12.6840   20.1280 N   0  0  0  0  0  0  0  0  0  0  0  0
  -26.2980  -11.4330   20.3910 N   0  0  0  0  0  0  0  0  0  0  0  0
  -24.2030  -10.3810   20.9300 C   0  0  0  0  0  0  0  0  0  0  0  0
  -24.5470   -9.4090   21.8920 C   0  0  0  0  0  3  0  0  0  0  0  0
  -23.7320   -8.2730   22.0860 C   0  0  0  0  0  3  0  0  0  0  0  0
  -22.5560   -8.1040   21.3170 C   0  0  0  0  0  0  0  0  0  0  0  0
  -22.2290   -9.0660   20.3440 C   0  0  0  0  0  3  0  0  0  0  0  0
  -23.0460  -10.1920   20.1480 C   0  0  0  0  0  3  0  0  0  0  0  0
  -21.7220   -7.0150   21.4130 O   0  0  0  0  0  0  0  0  0  0  0  0
  -21.5610   -6.3360   22.5930 C   0  0  0  0  0  0  0  0  0  0  0  0
  -21.1010   -6.9780   23.7630 C   0  0  0  0  0  3  0  0  0  0  0  0
  -20.8820   -6.2310   24.9380 C   0  0  0  0  0  3  0  0  0  0  0  0
  -21.1160   -4.8430   24.9430 C   0  0  0  0  0  0  0  0  0  0  0  0
  -21.5660   -4.1990   23.7760 C   0  0  0  0  0  3  0  0  0  0  0  0
  -21.7850   -4.9440   22.6040 C   0  0  0  0  0  0  0  0  0  0  0  0
  -22.1980   -4.3170   21.4750 F   0  0  0  0  0  0  0  0  0  0  0  0
  -20.8990   -4.1200   26.0660 F   0  0  0  0  0  0  0  0  0  0  0  0
  -23.3270  -13.5540   21.0560 C   0  0  0  0  0  0  0  0  0  0  0  0
  -22.5710  -12.9300   21.9510 N   0  0  0  0  0  0  0  0  0  0  0  0
  -22.9580  -14.6010   20.5250 O   0  0  0  0  0  0  0  0  0  0  0  0
  -22.8840  -12.0790   22.3950 H   0  0  0  0  0  0  0  0  0  0  0  0
  -21.6690  -13.3100   22.1990 H   0  0  0  0  0  0  0  0  0  0  0  0
  -26.0750  -15.0020   20.2120 N   0  0  0  0  0  0  0  0  0  0  0  0
  -25.3890  -15.7270   20.3960 H   0  0  0  0  0  0  0  0  0  0  0  0
  -26.9790  -15.3770   19.9580 H   0  0  0  0  0  0  0  0  0  0  0  0
  1 57  1  0
  1  2  1  0
  2  9  1  0
  2  4  1  0
  3  1  2  0
  6  5  2  0
  7 10  2  0
  7  9  1  0
  8  5  1  0
  8 11  1  0
  9  8  2  0
 10  6  1  0
 12 10  1  0
 13 24  2  0
 14 12  1  0
 14 19  1  0
 15 23  1  0
 15 25  1  0
 16 22  1  0
 16 18  1  0
 17 23  1  0
 18 19  2  0
 18 17  1  0
 20 14  2  0
 21 20  1  0
 21 16  2  0
 22 15  1  0
 23 13  1  0
 25 27  2  0
 26 25  1  0
 28 26  1  0
 29 34  1  0
 30 26  1  0
 31 30  1  0
 32 33  1  0
 32 31  1  0
 33 29  1  0
 34 30  1  0
 34 35  2  0
 36 35  1  0
 37 36  2  0
 38 29  2  0
 38 37  1  0
 39 13  1  0
 39 44  1  0
 39 40  1  0
 40 43  1  1
 40 41  1  0
 42 40  1  0
 44 47  1  0
 45 49  1  0
 45 44  1  0
 46 45  2  0
 49 48  1  0
 51 49  1  0
 51 52  1  0
 51 50  1  0
 53 55  1  0
 54 57  1  0
 54 53  2  0
 55 58  2  0
 56 58  1  0
 57 56  2  0
 58 67  1  0
 59 65  1  0
 59 68  1  0
 60 65  1  0
 61 62  1  0
 61 60  1  0
 63 62  1  0
 63 74  1  0
 63 64  1  0
 65 64  1  0
 66 59  2  0
 67 68  1  0
 68 70  1  0
 69 67  2  0
 71 72  2  0
 72 91  1  0
 73 72  1  0
 73 76  1  0
 74 71  1  0
 74 75  1  0
 75 73  2  0
 76 77  1  0
 77 78  2  0
 79 82  1  0
 79 78  1  0
 80 79  2  0
 81 80  1  0
 81 76  2  0
 82 83  1  0
 83 88  2  0
 83 84  1  0
 84 85  2  0
 85 86  1  0
 86 90  1  0
 87 86  2  0
 88 87  1  0
 89 88  1  0
 91 92  1  0
 92 95  1  0
 92 94  1  0
 93 91  2  0
 96 71  1  0
 96 97  1  0
 98 96  1  0
M  ISO  4  10 101  12 101  59 100  68 100
M  END
>  <TORSDO>  (67) 
F 18

>  <SCORE>  (67) 
-13.181

>  <name>  (67) 
66

>  <ligand_id>  (67) 
66

>  <original_smiles>  (67) 
[H]c1c([H])c(C(=O)N([H])C(=O)N2C([H])([H])C([H])([H])C([H])([H])C([H])(n3nc(-c4c([H])c([H])c(Oc5c([H])c([H])c(F)c([H])c5F)c([H])c4[H])c(C(=O)N([H])[H])c3N([H])[H])C2([H])[H])c([H])c(C(=O)N([H])c2c([H])c(Oc3c([H])c([H])c4c(c3[H])C([H])([H])N(C(=O)C([H])(N([H])C(=O)C([H])(N([H])C([H])([H])[H])C([H])([H])[H])C(C([H])([H])[H])(C([H])([H])[H])C([H])([H])[H])C([H])(C(=O)N([H])C3([H])c5c([H])c([H])c([H])c([H])c5C([H])([H])C([H])([H])C3([H])[H])C4([H])[H])c([H])c([H])c2C([H])([H])[H])c1[H]

>  <smiles>  (67) 
[H]c1c([H])c(C(=O)N([H])C(=O)N2C([H])([H])C([H])([H])C([H])([H])C([H])(n3nc(-c4c([H])c([H])c(Oc5c([H])c([H])c(F)c([H])c5F)c([H])c4[H])c(C(=O)N([H])[H])c3N([H])[H])C2([H])[H])c([H])c(C(=O)N([H])c2c([H])c(Oc3c([H])c([H])c4c(c3[H])C([H])([H])N(C(=O)C([H])(N([H])C(=O)C([H])(N([H])C([H])([H])[H])C([H])([H])[H])C(C([H])([H])[H])(C([H])([H])[H])C([H])([H])[H])C([H])(C(=O)N([H])C3([H])c5c([H])c([H])c([H])c([H])c5C([H])([H])C([H])([H])C3([H])[H])C4([H])[H])c([H])c([H])c2C([H])([H])[H])c1[H]

$$$$
67:0:0
     RDKit          3D

 94103  0  0  1  0  0  0  0  0999 V2000
  -28.6740  -21.5500   21.3910 C   0  0  0  0  0  3  0  0  0  0  0  0
  -28.5840  -23.0210   19.1180 C   0  0  0  0  0  3  0  0  0  0  0  0
  -28.9870  -20.5980   20.2920 C   0  0  0  0  0  0  0  0  0  0  0  0
  -28.9070  -21.5160   19.1760 C   0  0  0  0  0  0  0  0  0  0  0  0
  -28.3480  -23.0540   21.3520 C   0  0  0  0  0  0  0  0  0  0  0  0
  -28.2430  -24.0120   20.2020 C   0  0  0  0  0  0  0  0  0  0  0  0
  -29.3060  -20.6180   18.0060 C   0  0  0  0  0  2  0  0  0  0  0  0
  -29.7380  -18.9470   20.0120 C   0  0  0  0  0  3  0  0  0  0  0  0
  -30.1050  -19.3210   18.5160 C   0  0  0  0  0  3  0  0  0  0  0  0
  -28.1490  -23.6970   22.7110 C   0  0  0  0  0  1  0  0  0  0  0  0
  -30.2700  -15.8020   20.0780 C   0  0  0  0  0  0  0  0  0  0  0  0
  -30.3650  -13.2520   19.2650 C   0  0  0  0  0  2  0  0  0  0  0  0
  -29.4450  -12.8300   18.0840 C   0  0  0  0  0  2  0  0  0  0  0  0
  -28.0410  -12.4620   18.5840 C   0  0  0  0  0  2  0  0  0  0  0  0
  -27.5530  -13.4600   19.6590 C   0  0  0  0  0  3  0  0  0  0  0  0
  -28.6130  -13.7940   20.7370 C   0  0  0  0  0  2  0  0  0  0  0  0
  -29.7530  -14.4310   20.0370 N   0  0  0  0  0  0  0  0  0  0  0  0
  -31.4920  -15.7360   19.8490 O   0  0  0  0  0  0  0  0  0  0  0  0
  -29.5230  -17.1780   20.1760 N   0  0  0  0  0  0  0  0  0  0  0  0
  -28.5480  -16.9850   20.3510 H   0  0  0  0  0  0  0  0  0  0  0  0
  -25.2250  -13.9620   20.5340 C   0  0  0  0  0  0  0  0  0  0  0  0
  -24.1840  -13.1680   20.9230 C   0  0  0  0  0  0  0  0  0  0  0  0
  -24.6570  -11.8230   20.8370 C   0  0  0  0  0  0  0  0  0  0  0  0
  -26.2600  -13.1020   20.2240 N   0  0  0  0  0  0  0  0  0  0  0  0
  -25.9360  -11.8050   20.4740 N   0  0  0  0  0  0  0  0  0  0  0  0
  -23.9410  -10.5520   21.0220 C   0  0  0  0  0  0  0  0  0  0  0  0
  -24.3850   -9.5770   21.9420 C   0  0  0  0  0  3  0  0  0  0  0  0
  -23.6630   -8.3770   22.1170 C   0  0  0  0  0  3  0  0  0  0  0  0
  -22.4830   -8.1430   21.3730 C   0  0  0  0  0  0  0  0  0  0  0  0
  -22.0570   -9.1060   20.4420 C   0  0  0  0  0  3  0  0  0  0  0  0
  -22.7800  -10.2970   20.2640 C   0  0  0  0  0  3  0  0  0  0  0  0
  -21.7320   -6.9950   21.4590 O   0  0  0  0  0  0  0  0  0  0  0  0
  -21.6660   -6.2620   22.6170 C   0  0  0  0  0  0  0  0  0  0  0  0
  -21.1750   -6.8120   23.8210 C   0  0  0  0  0  3  0  0  0  0  0  0
  -21.0600   -6.0040   24.9700 C   0  0  0  0  0  3  0  0  0  0  0  0
  -21.4250   -4.6470   24.9160 C   0  0  0  0  0  0  0  0  0  0  0  0
  -21.9100   -4.0950   23.7170 C   0  0  0  0  0  3  0  0  0  0  0  0
  -22.0260   -4.9000   22.5690 C   0  0  0  0  0  0  0  0  0  0  0  0
  -22.4730   -4.3580   21.4110 F   0  0  0  0  0  0  0  0  0  0  0  0
  -21.3090   -3.8680   26.0170 F   0  0  0  0  0  0  0  0  0  0  0  0
  -22.7960  -13.6330   21.2520 C   0  0  0  0  0  0  0  0  0  0  0  0
  -22.1040  -12.9200   22.1330 N   0  0  0  0  0  0  0  0  0  0  0  0
  -22.3370  -14.6650   20.7650 O   0  0  0  0  0  0  0  0  0  0  0  0
  -22.4900  -12.0850   22.5480 H   0  0  0  0  0  0  0  0  0  0  0  0
  -21.1750  -13.2130   22.3960 H   0  0  0  0  0  0  0  0  0  0  0  0
  -25.3720  -15.3380   20.3830 N   0  0  0  0  0  0  0  0  0  0  0  0
  -24.6010  -15.9790   20.5340 H   0  0  0  0  0  0  0  0  0  0  0  0
  -26.1910  -15.7860   19.9970 H   0  0  0  0  0  0  0  0  0  0  0  0
  -31.5500  -19.6340   18.3920 N   0  0  0  0  0  4  0  0  0  0  0  0
  -31.7930  -20.3380   19.0700 H   0  0  0  0  0  0  0  0  0  0  0  0
  -31.6830  -20.0370   17.4800 H   0  0  0  0  0  0  0  0  0  0  0  0
  -33.9080  -18.8620   18.1100 C   0  0  0  0  0  1  0  0  0  0  0  0
  -32.4730  -18.4830   18.5010 C   0  0  0  0  0  2  0  0  0  0  0  0
  -28.1730  -25.6410   20.1880 O   0  0  0  0  0  0  0  0  0  0  0  0
  -24.6740  -31.9150   23.2180 C   0  0  0  0  0  0  0  0  0  0  0  0
  -27.1570  -26.8230   20.2000 C   0  0  0  0  0  0  0  0  0  0  0  0
  -23.4640  -30.5210   21.5940 C   0  0  0  0  0  3  0  0  0  0  0  0
  -24.8900  -28.8650   20.1670 C   0  0  0  0  0  0  0  0  0  0  0  0
  -26.0400  -30.6540   21.4430 C   0  0  0  0  0  2  0  0  0  0  0  0
  -26.0920  -29.2180   20.7920 C   0  0  0  0  0  0  0  0  0  0  0  0
  -27.2060  -28.2240   20.7770 C   0  0  0  0  0  3  0  0  0  0  0  0
  -25.9230  -26.6850   19.5150 C   0  0  0  0  0  3  0  0  0  0  0  0
  -24.8440  -27.6240   19.5060 C   0  0  0  0  0  3  0  0  0  0  0  0
  -23.6870  -29.8220   20.2210 C   0  0  0  0  0  2  0  0  0  0  0  0
  -24.7500  -31.0640   22.1380 N   0  0  0  0  0  0  0  0  0  0  0  0
  -23.5880  -32.2170   23.7430 O   0  0  0  0  0  0  0  0  0  0  0  0
  -22.7590  -29.5440   22.5740 C   0  0  0  0  0  0  0  0  0  0  0  0
  -21.4280  -29.3750   22.4500 N   0  0  0  0  0  0  0  0  0  0  0  0
  -23.4200  -28.9370   23.4190 O   0  0  0  0  0  0  0  0  0  0  0  0
  -20.9430  -29.9150   21.7470 H   0  0  0  0  0  0  0  0  0  0  0  0
  -18.0560  -28.1210   22.9670 C   0  0  0  0  0  0  0  0  0  0  0  0
  -20.6120  -28.4380   23.2320 C   0  0  0  0  0  3  0  0  0  0  0  0
  -20.7360  -26.9980   22.6780 C   0  0  0  0  0  2  0  0  0  0  0  0
  -19.6440  -26.6460   21.6630 C   0  0  0  0  0  2  0  0  0  0  0  0
  -18.2580  -26.7710   22.3020 C   0  0  0  0  0  2  0  0  0  0  0  0
  -19.1600  -28.9110   23.3890 C   0  0  0  0  0  0  0  0  0  0  0  0
  -18.9130  -30.1700   23.9770 C   0  0  0  0  0  3  0  0  0  0  0  0
  -17.5980  -30.6430   24.1440 C   0  0  0  0  0  3  0  0  0  0  0  0
  -16.5090  -29.8540   23.7340 C   0  0  0  0  0  3  0  0  0  0  0  0
  -16.7400  -28.5940   23.1520 C   0  0  0  0  0  3  0  0  0  0  0  0
  -25.9460  -32.5640   23.8440 C   0  0  0  0  0  3  0  0  0  0  0  0
  -25.6280  -33.9650   24.1850 N   0  0  0  0  0  0  0  0  0  0  0  0
  -25.9300  -35.0310   23.4310 C   0  0  0  0  0  0  0  0  0  0  0  0
  -26.5620  -34.9400   22.3770 O   0  0  0  0  0  0  0  0  0  0  0  0
  -25.0580  -34.1080   25.0050 H   0  0  0  0  0  0  0  0  0  0  0  0
  -24.1740  -36.8230   23.1850 C   0  0  0  0  0  1  0  0  0  0  0  0
  -25.4620  -36.4180   23.9220 C   0  0  0  0  0  3  0  0  0  0  0  0
  -27.6270  -37.3270   24.6450 C   0  0  0  0  0  1  0  0  0  0  0  0
  -26.4800  -37.4800   23.7550 N   0  0  0  0  0  0  0  0  0  0  0  0
  -26.0740  -38.3980   23.9150 H   0  0  0  0  0  0  0  0  0  0  0  0
  -26.4560  -31.8040   25.1320 C   0  0  1  0  0  0  0  0  0  0  0  0
  -25.3610  -31.5870   26.2040 C   0  0  0  0  0  1  0  0  0  0  0  0
  -27.0300  -30.4170   24.7680 C   0  0  0  0  0  1  0  0  0  0  0  0
  -27.6130  -32.5970   25.7850 C   0  0  0  0  0  1  0  0  0  0  0  0
  2  4  2  0
  2  6  1  0
  3  1  2  0
  4  3  1  0
  5  1  1  0
  5 10  1  0
  6  5  2  0
  7  9  1  0
  7  4  1  0
  8 19  1  0
  8  3  1  0
  9 49  1  0
  9  8  1  0
 11 19  1  0
 12 17  1  0
 13 14  1  0
 13 12  1  0
 15 14  1  0
 15 24  1  0
 15 16  1  0
 17 11  1  0
 17 16  1  0
 18 11  2  0
 19 20  1  0
 21 22  2  0
 22 41  1  0
 23 22  1  0
 23 26  1  0
 24 25  1  0
 24 21  1  0
 25 23  2  0
 26 27  1  0
 27 28  2  0
 29 32  1  0
 29 28  1  0
 30 29  2  0
 31 30  1  0
 31 26  2  0
 32 33  1  0
 33 34  1  0
 34 35  2  0
 36 35  1  0
 36 40  1  0
 37 36  2  0
 38 33  2  0
 38 37  1  0
 39 38  1  0
 41 42  1  0
 42 45  1  0
 42 44  1  0
 43 41  2  0
 46 21  1  0
 46 47  1  0
 48 46  1  0
 49 53  1  0
 49 50  1  0
 51 49  1  0
 52 53  1  0
 54 56  1  0
 54  6  1  0
 55 66  2  0
 56 61  1  0
 57 65  1  0
 57 67  1  0
 58 64  1  0
 58 60  1  0
 59 65  1  0
 60 59  1  0
 61 60  2  0
 62 56  2  0
 63 62  1  0
 63 58  2  0
 64 57  1  0
 65 55  1  0
 67 69  2  0
 68 67  1  0
 70 68  1  0
 71 80  2  0
 71 76  1  0
 72 68  1  0
 72 76  1  0
 73 72  1  0
 74 75  1  0
 74 73  1  0
 75 71  1  0
 76 77  2  0
 77 78  1  0
 79 78  2  0
 80 79  1  0
 81 55  1  0
 81 82  1  0
 81 91  1  0
 82 85  1  0
 83 87  1  0
 83 82  1  0
 84 83  2  0
 87 86  1  0
 89 90  1  0
 89 87  1  0
 89 88  1  0
 91 94  1  1
 91 92  1  0
 93 91  1  0
M  ISO  4   6 101  11 100  19 100  54 101
M  END
>  <TORSDO>  (68) 
F 18

>  <SCORE>  (68) 
-14.661

>  <name>  (68) 
67

>  <ligand_id>  (68) 
67

>  <original_smiles>  (68) 
[H]c1c([H])c([H])c2c(c1[H])C([H])([H])C([H])([H])C([H])([H])C2([H])N([H])C(=O)C1([H])N(C(=O)C([H])(N([H])C(=O)C([H])(N([H])C([H])([H])[H])C([H])([H])[H])C(C([H])([H])[H])(C([H])([H])[H])C([H])([H])[H])C([H])([H])c2c([H])c(Oc3c([H])c4c(c([H])c3C([H])([H])[H])C([H])(N([H])C(=O)N3C([H])([H])C([H])([H])C([H])([H])C([H])(n5nc(-c6c([H])c([H])c(Oc7c([H])c([H])c(F)c([H])c7F)c([H])c6[H])c(C(=O)N([H])[H])c5N([H])[H])C3([H])[H])C([H])([N+]([H])([H])C([H])([H])C([H])([H])[H])C4([H])[H])c([H])c([H])c2C1([H])[H]

>  <smiles>  (68) 
[H]c1c([H])c([H])c2c(c1[H])C([H])([H])C([H])([H])C([H])([H])C2([H])N([H])C(=O)C1([H])N(C(=O)C([H])(N([H])C(=O)C([H])(N([H])C([H])([H])[H])C([H])([H])[H])C(C([H])([H])[H])(C([H])([H])[H])C([H])([H])[H])C([H])([H])c2c([H])c(Oc3c([H])c4c(c([H])c3C([H])([H])[H])C([H])(N([H])C(=O)N3C([H])([H])C([H])([H])C([H])([H])C([H])(n5nc(-c6c([H])c([H])c(Oc7c([H])c([H])c(F)c([H])c7F)c([H])c6[H])c(C(=O)N([H])[H])c5N([H])[H])C3([H])[H])C([H])([N+]([H])([H])C([H])([H])C([H])([H])[H])C4([H])[H])c([H])c([H])c2C1([H])[H]

$$$$
68:0:0
     RDKit          3D

 91 99  0  0  1  0  0  0  0  0999 V2000
  -28.7690  -23.0440   20.5770 C   0  0  0  0  0  3  0  0  0  0  0  0
  -27.9340  -24.4330   20.4690 C   0  0  0  0  0  3  0  0  0  0  0  0
  -29.3140  -23.0910   21.8410 C   0  0  0  0  0  3  0  0  0  0  0  0
  -27.1280  -24.2820   21.5830 C   0  0  0  0  0  3  0  0  0  0  0  0
  -30.4960  -22.3460   22.3940 C   0  0  0  0  0  1  0  0  0  0  0  0
  -28.1850  -23.8730   22.9150 S   0  0  0  0  0  0  0  0  0  0  0  0
  -25.8200  -24.6920   21.8730 N   0  0  0  0  0  0  0  0  0  0  0  0
  -25.3460  -24.3270   22.6990 H   0  0  0  0  0  0  0  0  0  0  0  0
  -25.1360  -24.8790   21.1440 H   0  0  0  0  0  0  0  0  0  0  0  0
  -28.1880  -25.8840   20.1380 O   0  0  0  0  0  0  0  0  0  0  0  0
  -24.6250  -31.8530   23.1500 C   0  0  0  0  0  0  0  0  0  0  0  0
  -27.2090  -27.0180   20.1140 C   0  0  0  0  0  0  0  0  0  0  0  0
  -23.4470  -30.4580   21.5040 C   0  0  0  0  0  3  0  0  0  0  0  0
  -24.9120  -28.8790   20.0730 C   0  0  0  0  0  0  0  0  0  0  0  0
  -26.0110  -30.6960   21.3560 C   0  0  0  0  0  2  0  0  0  0  0  0
  -26.0970  -29.2900   20.7020 C   0  0  0  0  0  0  0  0  0  0  0  0
  -27.2480  -28.3780   20.6900 C   0  0  0  0  0  3  0  0  0  0  0  0
  -26.0130  -26.7800   19.4040 C   0  0  0  0  0  3  0  0  0  0  0  0
  -24.8950  -27.6500   19.3990 C   0  0  0  0  0  3  0  0  0  0  0  0
  -23.6850  -29.7850   20.1260 C   0  0  0  0  0  2  0  0  0  0  0  0
  -24.7160  -31.0310   22.0560 N   0  0  0  0  0  0  0  0  0  0  0  0
  -23.5330  -32.1250   23.6760 O   0  0  0  0  0  0  0  0  0  0  0  0
  -22.7640  -29.4490   22.4620 C   0  0  0  0  0  0  0  0  0  0  0  0
  -21.4300  -29.2920   22.3510 N   0  0  0  0  0  0  0  0  0  0  0  0
  -23.4380  -28.8080   23.2720 O   0  0  0  0  0  0  0  0  0  0  0  0
  -20.9380  -29.8630   21.6790 H   0  0  0  0  0  0  0  0  0  0  0  0
  -18.0440  -28.1010   22.9100 C   0  0  0  0  0  0  0  0  0  0  0  0
  -20.6140  -28.3440   23.1210 C   0  0  0  0  0  3  0  0  0  0  0  0
  -20.6890  -26.9230   22.5140 C   0  0  0  0  0  2  0  0  0  0  0  0
  -19.5620  -26.6300   21.5190 C   0  0  0  0  0  2  0  0  0  0  0  0
  -18.1960  -26.7690   22.1950 C   0  0  0  0  0  2  0  0  0  0  0  0
  -19.1780  -28.8480   23.3300 C   0  0  0  0  0  0  0  0  0  0  0  0
  -18.9760  -30.0970   23.9560 C   0  0  0  0  0  3  0  0  0  0  0  0
  -17.6750  -30.5960   24.1670 C   0  0  0  0  0  3  0  0  0  0  0  0
  -16.5580  -29.8450   23.7580 C   0  0  0  0  0  3  0  0  0  0  0  0
  -16.7450  -28.5980   23.1340 C   0  0  0  0  0  3  0  0  0  0  0  0
  -25.8870  -32.5070   23.7880 C   0  0  0  0  0  3  0  0  0  0  0  0
  -26.4000  -31.7400   25.0680 C   0  0  1  0  0  0  0  0  0  0  0  0
  -25.3010  -31.4960   26.1270 C   0  0  0  0  0  1  0  0  0  0  0  0
  -26.9960  -30.3650   24.6910 C   0  0  0  0  0  1  0  0  0  0  0  0
  -27.5400  -32.5450   25.7380 C   0  0  0  0  0  1  0  0  0  0  0  0
  -25.5530  -33.8990   24.1390 N   0  0  0  0  0  0  0  0  0  0  0  0
  -25.8710  -34.9750   23.4050 C   0  0  0  0  0  0  0  0  0  0  0  0
  -26.5440  -34.8980   22.3750 O   0  0  0  0  0  0  0  0  0  0  0  0
  -24.9630  -34.0290   24.9490 H   0  0  0  0  0  0  0  0  0  0  0  0
  -24.1320  -36.7700   23.0810 C   0  0  0  0  0  1  0  0  0  0  0  0
  -25.3720  -36.3520   23.8910 C   0  0  0  0  0  3  0  0  0  0  0  0
  -27.4930  -37.2410   24.7520 C   0  0  0  0  0  1  0  0  0  0  0  0
  -26.3960  -37.4170   23.8050 N   0  0  0  0  0  0  0  0  0  0  0  0
  -25.9810  -38.3310   23.9640 H   0  0  0  0  0  0  0  0  0  0  0  0
  -29.1070  -21.5250   19.7780 C   0  0  0  0  0  2  0  0  0  0  0  0
  -29.0550  -19.8000   20.3330 C   0  0  0  0  0  3  0  0  0  0  0  0
  -29.8630  -18.2800   19.7780 C   0  0  0  0  0  3  0  0  0  0  0  0
  -30.4470  -15.3830   20.0420 C   0  0  0  0  0  0  0  0  0  0  0  0
  -30.4230  -12.9380   19.1930 C   0  0  0  0  0  2  0  0  0  0  0  0
  -29.4770  -12.6950   17.9880 C   0  0  0  0  0  2  0  0  0  0  0  0
  -28.0390  -12.4330   18.4620 C   0  0  0  0  0  2  0  0  0  0  0  0
  -27.6060  -13.4070   19.5860 C   0  0  0  0  0  3  0  0  0  0  0  0
  -28.6800  -13.5520   20.6890 C   0  0  0  0  0  2  0  0  0  0  0  0
  -29.8890  -14.0750   20.0310 N   0  0  0  0  0  0  0  0  0  0  0  0
  -31.6580  -15.3820   19.7740 O   0  0  0  0  0  0  0  0  0  0  0  0
  -29.6800  -16.6530   20.1450 N   0  0  0  0  0  0  0  0  0  0  0  0
  -28.7260  -16.4460   20.3970 H   0  0  0  0  0  0  0  0  0  0  0  0
  -25.2430  -13.9470   20.3830 C   0  0  0  0  0  0  0  0  0  0  0  0
  -24.1950  -13.1640   20.7790 C   0  0  0  0  0  0  0  0  0  0  0  0
  -24.6740  -11.8190   20.7480 C   0  0  0  0  0  0  0  0  0  0  0  0
  -26.2910  -13.0800   20.1260 N   0  0  0  0  0  0  0  0  0  0  0  0
  -25.9600  -11.7960   20.4190 N   0  0  0  0  0  0  0  0  0  0  0  0
  -23.9620  -10.5530   20.9580 C   0  0  0  0  0  0  0  0  0  0  0  0
  -24.3970   -9.6090   21.9130 C   0  0  0  0  0  3  0  0  0  0  0  0
  -23.6830   -8.4100   22.1140 C   0  0  0  0  0  3  0  0  0  0  0  0
  -22.5180   -8.1430   21.3570 C   0  0  0  0  0  0  0  0  0  0  0  0
  -22.1000   -9.0730   20.3920 C   0  0  0  0  0  3  0  0  0  0  0  0
  -22.8150  -10.2660   20.1890 C   0  0  0  0  0  3  0  0  0  0  0  0
  -21.7740   -6.9920   21.4670 O   0  0  0  0  0  0  0  0  0  0  0  0
  -21.7130   -6.2820   22.6380 C   0  0  0  0  0  0  0  0  0  0  0  0
  -21.2450   -6.8610   23.8360 C   0  0  0  0  0  3  0  0  0  0  0  0
  -21.1280   -6.0750   24.9990 C   0  0  0  0  0  3  0  0  0  0  0  0
  -21.4800   -4.7120   24.9670 C   0  0  0  0  0  0  0  0  0  0  0  0
  -21.9370   -4.1310   23.7710 C   0  0  0  0  0  3  0  0  0  0  0  0
  -22.0510   -4.9150   22.6100 C   0  0  0  0  0  0  0  0  0  0  0  0
  -22.4770   -4.3460   21.4570 F   0  0  0  0  0  0  0  0  0  0  0  0
  -21.3580   -3.9540   26.0820 F   0  0  0  0  0  0  0  0  0  0  0  0
  -22.7940  -13.6300   21.0540 C   0  0  0  0  0  0  0  0  0  0  0  0
  -22.0770  -12.9380   21.9300 N   0  0  0  0  0  0  0  0  0  0  0  0
  -22.3460  -14.6460   20.5260 O   0  0  0  0  0  0  0  0  0  0  0  0
  -22.4570  -12.1250   22.3940 H   0  0  0  0  0  0  0  0  0  0  0  0
  -21.1380  -13.2340   22.1520 H   0  0  0  0  0  0  0  0  0  0  0  0
  -25.3870  -15.3200   20.1940 N   0  0  0  0  0  0  0  0  0  0  0  0
  -24.6140  -15.9610   20.3350 H   0  0  0  0  0  0  0  0  0  0  0  0
  -26.1880  -15.7550   19.7590 H   0  0  0  0  0  0  0  0  0  0  0  0
  1 51  1  0
  1  3  1  0
  2 10  1  0
  2  1  1  0
  2  4  1  0
  3  5  1  0
  3  6  1  0
  4  7  1  0
  4  6  1  0
  7  8  1  0
  9  7  1  0
 11 22  2  0
 12 10  1  0
 12 17  1  0
 13 21  1  0
 13 23  1  0
 14 20  1  0
 14 16  1  0
 15 21  1  0
 16 15  1  0
 17 16  2  0
 18 12  2  0
 19 18  1  0
 19 14  2  0
 20 13  1  0
 21 11  1  0
 23 25  2  0
 24 23  1  0
 26 24  1  0
 27 36  2  0
 27 32  1  0
 28 24  1  0
 28 32  1  0
 29 28  1  0
 30 31  1  0
 30 29  1  0
 31 27  1  0
 32 33  2  0
 33 34  1  0
 35 34  2  0
 36 35  1  0
 37 11  1  0
 37 42  1  0
 37 38  1  0
 38 41  1  1
 38 39  1  0
 40 38  1  0
 42 45  1  0
 43 47  1  0
 43 42  1  0
 44 43  2  0
 47 46  1  0
 49 47  1  0
 49 50  1  0
 49 48  1  0
 51 52  1  0
 53 62  1  0
 53 52  2  0
 54 62  1  0
 55 60  1  0
 56 57  1  0
 56 55  1  0
 58 57  1  0
 58 67  1  0
 58 59  1  0
 60 54  1  0
 60 59  1  0
 61 54  2  0
 62 63  1  0
 64 65  2  0
 65 84  1  0
 66 65  1  0
 66 69  1  0
 67 64  1  0
 67 68  1  0
 68 66  2  0
 69 70  1  0
 70 71  2  0
 72 75  1  0
 72 71  1  0
 73 72  2  0
 74 73  1  0
 74 69  2  0
 75 76  1  0
 76 77  1  0
 77 78  2  0
 79 78  1  0
 79 83  1  0
 80 79  2  0
 81 76  2  0
 81 80  1  0
 82 81  1  0
 84 85  1  0
 85 88  1  0
 85 87  1  0
 86 84  2  0
 89 90  1  0
 89 64  1  0
 91 89  1  0
M  ISO  4   2 101  10 101  54 100  62 100
M  END
>  <TORSDO>  (69) 
F 20

>  <SCORE>  (69) 
-14.968

>  <name>  (69) 
68

>  <ligand_id>  (69) 
68

>  <original_smiles>  (69) 
[H]c1c([H])c([H])c2c(c1[H])C([H])([H])C([H])([H])C([H])([H])C2([H])N([H])C(=O)C1([H])N(C(=O)C([H])(N([H])C(=O)C([H])(N([H])C([H])([H])[H])C([H])([H])[H])C(C([H])([H])[H])(C([H])([H])[H])C([H])([H])[H])C([H])([H])c2c([H])c(Oc3c(N([H])[H])sc(C([H])([H])[H])c3C([H])([H])C([H])([H])C([H])([H])N([H])C(=O)N3C([H])([H])C([H])([H])C([H])([H])C([H])(n4nc(-c5c([H])c([H])c(Oc6c([H])c([H])c(F)c([H])c6F)c([H])c5[H])c(C(=O)N([H])[H])c4N([H])[H])C3([H])[H])c([H])c([H])c2C1([H])[H]

>  <smiles>  (69) 
[H]c1c([H])c([H])c2c(c1[H])C([H])([H])C([H])([H])C([H])([H])C2([H])N([H])C(=O)C1([H])N(C(=O)C([H])(N([H])C(=O)C([H])(N([H])C([H])([H])[H])C([H])([H])[H])C(C([H])([H])[H])(C([H])([H])[H])C([H])([H])[H])C([H])([H])c2c([H])c(Oc3c(N([H])[H])sc(C([H])([H])[H])c3C([H])([H])C([H])([H])C([H])([H])N([H])C(=O)N3C([H])([H])C([H])([H])C([H])([H])C([H])(n4nc(-c5c([H])c([H])c(Oc6c([H])c([H])c(F)c([H])c6F)c([H])c5[H])c(C(=O)N([H])[H])c4N([H])[H])C3([H])[H])c([H])c([H])c2C1([H])[H]

$$$$
69:0:0
     RDKit          3D

 89 98  0  0  1  0  0  0  0  0999 V2000
  -30.4470  -15.4630   20.3140 C   0  0  0  0  0  0  0  0  0  0  0  0
  -30.4500  -12.9800   19.4550 C   0  0  0  0  0  2  0  0  0  0  0  0
  -29.5660  -12.6490   18.2300 C   0  0  0  0  0  2  0  0  0  0  0  0
  -28.1160  -12.3600   18.6580 C   0  0  0  0  0  2  0  0  0  0  0  0
  -27.6180  -13.3680   19.7200 C   0  0  0  0  0  3  0  0  0  0  0  0
  -28.6420  -13.6300   20.8410 C   0  0  0  0  0  2  0  0  0  0  0  0
  -29.8460  -14.1640   20.1770 N   0  0  0  0  0  0  0  0  0  0  0  0
  -31.6840  -15.3560   20.3300 O   0  0  0  0  0  0  0  0  0  0  0  0
  -28.9250  -17.2530   19.2400 C   0  0  0  0  0  0  0  0  0  0  0  0
  -28.8240  -18.8300   18.9370 C   0  0  0  0  0  2  0  0  0  0  0  0
  -27.4260  -21.7120   20.3470 C   0  0  0  0  0  2  0  0  0  0  0  0
  -27.9060  -20.2510   20.8700 C   0  0  0  0  0  2  0  0  0  0  0  0
  -29.6830  -21.4180   20.0850 C   0  0  0  0  0  2  0  0  0  0  0  0
  -30.0950  -18.3400   20.7540 C   0  0  0  0  0  2  0  0  0  0  0  0
  -28.5540  -22.7480   19.9310 C   0  0  0  0  0  3  0  0  0  0  0  0
  -29.2110  -19.7270   20.1670 C   0  0  2  0  0  0  0  0  0  0  0  0
  -29.8000  -16.8390   20.2080 N   0  0  0  0  0  0  0  0  0  0  0  0
  -28.2660  -16.4830   18.5400 O   0  0  0  0  0  0  0  0  0  0  0  0
  -25.2450  -13.9670   20.4060 C   0  0  0  0  0  0  0  0  0  0  0  0
  -24.1670  -13.2090   20.7640 C   0  0  0  0  0  0  0  0  0  0  0  0
  -24.6250  -11.8540   20.7860 C   0  0  0  0  0  0  0  0  0  0  0  0
  -26.2850  -13.0750   20.2160 N   0  0  0  0  0  0  0  0  0  0  0  0
  -25.9240  -11.8010   20.5150 N   0  0  0  0  0  0  0  0  0  0  0  0
  -23.8840  -10.6020   20.9800 C   0  0  0  0  0  0  0  0  0  0  0  0
  -24.2920   -9.6450   21.9350 C   0  0  0  0  0  3  0  0  0  0  0  0
  -23.5500   -8.4590   22.1210 C   0  0  0  0  0  3  0  0  0  0  0  0
  -22.3880   -8.2210   21.3500 C   0  0  0  0  0  0  0  0  0  0  0  0
  -22.0010   -9.1650   20.3830 C   0  0  0  0  0  3  0  0  0  0  0  0
  -22.7430  -10.3430   20.1960 C   0  0  0  0  0  3  0  0  0  0  0  0
  -21.6190   -7.0860   21.4440 O   0  0  0  0  0  0  0  0  0  0  0  0
  -21.5610   -6.3520   22.6010 C   0  0  0  0  0  0  0  0  0  0  0  0
  -21.1600   -6.9250   23.8270 C   0  0  0  0  0  3  0  0  0  0  0  0
  -21.0460   -6.1180   24.9780 C   0  0  0  0  0  3  0  0  0  0  0  0
  -21.3210   -4.7400   24.9030 C   0  0  0  0  0  0  0  0  0  0  0  0
  -21.7150   -4.1660   23.6800 C   0  0  0  0  0  3  0  0  0  0  0  0
  -21.8300   -4.9700   22.5330 C   0  0  0  0  0  0  0  0  0  0  0  0
  -22.1880   -4.4080   21.3530 F   0  0  0  0  0  0  0  0  0  0  0  0
  -21.2060   -3.9620   26.0050 F   0  0  0  0  0  0  0  0  0  0  0  0
  -22.7630  -13.6990   20.9670 C   0  0  0  0  0  0  0  0  0  0  0  0
  -22.0010  -13.0400   21.8310 N   0  0  0  0  0  0  0  0  0  0  0  0
  -22.3510  -14.7080   20.3950 O   0  0  0  0  0  0  0  0  0  0  0  0
  -22.3450  -12.2250   22.3180 H   0  0  0  0  0  0  0  0  0  0  0  0
  -21.0560  -13.3550   22.0070 H   0  0  0  0  0  0  0  0  0  0  0  0
  -25.4260  -15.3320   20.1950 N   0  0  0  0  0  0  0  0  0  0  0  0
  -24.6600  -15.9950   20.2530 H   0  0  0  0  0  0  0  0  0  0  0  0
  -26.2700  -15.7320   19.8040 H   0  0  0  0  0  0  0  0  0  0  0  0
  -28.3400  -24.2400   20.6510 N   0  0  0  0  0  0  0  0  0  0  0  0
  -27.5000  -24.2220   21.2240 H   0  0  0  0  0  0  0  0  0  0  0  0
  -28.3810  -25.8240   19.9500 O   0  0  0  0  0  0  0  0  0  0  0  0
  -24.7230  -31.8360   23.0610 C   0  0  0  0  0  0  0  0  0  0  0  0
  -27.3380  -26.9070   20.0790 C   0  0  0  0  0  0  0  0  0  0  0  0
  -23.5540  -30.4110   21.4340 C   0  0  0  0  0  3  0  0  0  0  0  0
  -25.0220  -28.8020   20.0290 C   0  0  0  0  0  0  0  0  0  0  0  0
  -26.1220  -30.6310   21.2960 C   0  0  0  0  0  2  0  0  0  0  0  0
  -26.2080  -29.2080   20.6550 C   0  0  0  0  0  0  0  0  0  0  0  0
  -27.3570  -28.2830   20.6560 C   0  0  0  0  0  3  0  0  0  0  0  0
  -26.1170  -26.6710   19.4080 C   0  0  0  0  0  3  0  0  0  0  0  0
  -25.0030  -27.5520   19.3890 C   0  0  0  0  0  3  0  0  0  0  0  0
  -23.7990  -29.7220   20.0640 C   0  0  0  0  0  2  0  0  0  0  0  0
  -24.8220  -30.9920   21.9830 N   0  0  0  0  0  0  0  0  0  0  0  0
  -23.6270  -32.1140   23.5770 O   0  0  0  0  0  0  0  0  0  0  0  0
  -22.8700  -29.4140   22.4060 C   0  0  0  0  0  0  0  0  0  0  0  0
  -21.5370  -29.2510   22.3000 N   0  0  0  0  0  0  0  0  0  0  0  0
  -23.5440  -28.7870   23.2250 O   0  0  0  0  0  0  0  0  0  0  0  0
  -21.0460  -29.8120   21.6180 H   0  0  0  0  0  0  0  0  0  0  0  0
  -18.1560  -28.0530   22.8760 C   0  0  0  0  0  0  0  0  0  0  0  0
  -20.7240  -28.3090   23.0780 C   0  0  0  0  0  3  0  0  0  0  0  0
  -20.8050  -26.8850   22.4810 C   0  0  0  0  0  2  0  0  0  0  0  0
  -19.6770  -26.5780   21.4910 C   0  0  0  0  0  2  0  0  0  0  0  0
  -18.3120  -26.7150   22.1730 C   0  0  0  0  0  2  0  0  0  0  0  0
  -19.2880  -28.8100   23.2840 C   0  0  0  0  0  0  0  0  0  0  0  0
  -19.0850  -30.0610   23.9070 C   0  0  0  0  0  3  0  0  0  0  0  0
  -17.7840  -30.5570   24.1190 C   0  0  0  0  0  3  0  0  0  0  0  0
  -16.6690  -29.7990   23.7220 C   0  0  0  0  0  3  0  0  0  0  0  0
  -16.8550  -28.5480   23.1080 C   0  0  0  0  0  3  0  0  0  0  0  0
  -25.9790  -32.5050   23.6940 C   0  0  0  0  0  3  0  0  0  0  0  0
  -25.6200  -33.8870   24.0690 N   0  0  0  0  0  0  0  0  0  0  0  0
  -25.9110  -34.9800   23.3510 C   0  0  0  0  0  0  0  0  0  0  0  0
  -26.5690  -34.9330   22.3080 O   0  0  0  0  0  0  0  0  0  0  0  0
  -25.0300  -33.9910   24.8810 H   0  0  0  0  0  0  0  0  0  0  0  0
  -24.1250  -36.7380   23.0930 C   0  0  0  0  0  1  0  0  0  0  0  0
  -25.3930  -36.3400   23.8670 C   0  0  0  0  0  3  0  0  0  0  0  0
  -27.5170  -37.2600   24.6890 C   0  0  0  0  0  1  0  0  0  0  0  0
  -26.3920  -37.4280   23.7720 N   0  0  0  0  0  0  0  0  0  0  0  0
  -25.9660  -38.3320   23.9540 H   0  0  0  0  0  0  0  0  0  0  0  0
  -26.5220  -31.7300   24.9580 C   0  0  1  0  0  0  0  0  0  0  0  0
  -25.4430  -31.4500   26.0320 C   0  0  0  0  0  1  0  0  0  0  0  0
  -27.1370  -30.3740   24.5500 C   0  0  0  0  0  1  0  0  0  0  0  0
  -27.6600  -32.5420   25.6190 C   0  0  0  0  0  1  0  0  0  0  0  0
  1  8  2  0
  2  7  1  0
  3  4  1  0
  3  2  1  0
  5  4  1  0
  5 22  1  0
  5  6  1  0
  7  1  1  0
  7  6  1  0
  9 17  1  0
 10  9  1  0
 11 12  1  0
 16 13  1  6
 15 13  1  0
 15 11  1  0
 15 47  1  0
 16 10  1  0
 16 14  1  0
 16 12  1  0
 17  1  1  0
 17 14  1  0
 18  9  2  0
 19 20  2  0
 20 21  1  0
 20 39  1  0
 21 24  1  0
 22 19  1  0
 22 23  1  0
 23 21  2  0
 24 25  1  0
 25 26  2  0
 27 30  1  0
 27 26  1  0
 28 27  2  0
 29 28  1  0
 29 24  2  0
 30 31  1  0
 31 32  1  0
 32 33  2  0
 34 33  1  0
 34 38  1  0
 35 34  2  0
 36 31  2  0
 36 35  1  0
 37 36  1  0
 39 40  1  0
 40 43  1  0
 40 42  1  0
 41 39  2  0
 44 45  1  0
 44 19  1  0
 46 44  1  0
 47 48  1  0
 49 51  1  0
 49 47  1  0
 50 61  2  0
 51 56  1  0
 52 60  1  0
 52 62  1  0
 53 59  1  0
 53 55  1  0
 54 60  1  0
 55 56  2  0
 55 54  1  0
 57 51  2  0
 58 57  1  0
 58 53  2  0
 59 52  1  0
 60 50  1  0
 62 64  2  0
 63 62  1  0
 65 63  1  0
 66 75  2  0
 66 71  1  0
 67 63  1  0
 67 71  1  0
 68 67  1  0
 69 70  1  0
 69 68  1  0
 70 66  1  0
 71 72  2  0
 72 73  1  0
 74 73  2  0
 75 74  1  0
 76 50  1  0
 76 77  1  0
 76 86  1  0
 77 80  1  0
 78 82  1  0
 78 77  1  0
 79 78  2  0
 82 81  1  0
 84 82  1  0
 84 85  1  0
 84 83  1  0
 86 89  1  1
 86 87  1  0
 88 86  1  0
M  ISO  4   1 100  17 100  47 101  49 101
M  END
>  <TORSDO>  (70) 
F 16

>  <SCORE>  (70) 
-15.658

>  <name>  (70) 
69

>  <ligand_id>  (70) 
69

>  <original_smiles>  (70) 
[H]c1c([H])c([H])c2c(c1[H])C([H])([H])C([H])([H])C([H])([H])C2([H])N([H])C(=O)C1([H])N(C(=O)C([H])(N([H])C(=O)C([H])(N([H])C([H])([H])[H])C([H])([H])[H])C(C([H])([H])[H])(C([H])([H])[H])C([H])([H])[H])C([H])([H])c2c([H])c(ON([H])C3([H])C([H])([H])C([H])([H])C4(C([H])([H])C(=O)N(C(=O)N5C([H])([H])C([H])([H])C([H])([H])C([H])(n6nc(-c7c([H])c([H])c(Oc8c([H])c([H])c(F)c([H])c8F)c([H])c7[H])c(C(=O)N([H])[H])c6N([H])[H])C5([H])[H])C4([H])[H])C3([H])[H])c([H])c([H])c2C1([H])[H]

>  <smiles>  (70) 
[H]c1c([H])c([H])c2c(c1[H])C([H])([H])C([H])([H])C([H])([H])C2([H])N([H])C(=O)C1([H])N(C(=O)C([H])(N([H])C(=O)C([H])(N([H])C([H])([H])[H])C([H])([H])[H])C(C([H])([H])[H])(C([H])([H])[H])C([H])([H])[H])C([H])([H])c2c([H])c(ON([H])C3([H])C([H])([H])C([H])([H])C4(C([H])([H])C(=O)N(C(=O)N5C([H])([H])C([H])([H])C([H])([H])C([H])(n6nc(-c7c([H])c([H])c(Oc8c([H])c([H])c(F)c([H])c8F)c([H])c7[H])c(C(=O)N([H])[H])c6N([H])[H])C5([H])[H])C4([H])[H])C3([H])[H])c([H])c([H])c2C1([H])[H]

$$$$
70:0:0
     RDKit          3D

 88 96  0  0  1  0  0  0  0  0999 V2000
  -29.1710  -19.7320   20.5110 C   0  0  0  0  0  0  0  0  0  0  0  0
  -29.1010  -21.1320   19.9910 N   0  0  0  0  0  0  0  0  0  0  0  0
  -28.6490  -19.5640   21.6120 O   0  0  0  0  0  0  0  0  0  0  0  0
  -29.4870  -21.1780   19.0560 H   0  0  0  0  0  0  0  0  0  0  0  0
  -30.2570  -18.5120   18.3690 C   0  0  0  0  0  2  0  0  0  0  0  0
  -31.3430  -18.6760   19.3870 C   0  0  0  0  0  2  0  0  0  0  0  0
  -29.9370  -18.3110   19.8420 C   0  0  1  0  0  0  0  0  0  0  0  0
  -30.4670  -15.4130   20.0380 C   0  0  0  0  0  0  0  0  0  0  0  0
  -30.4100  -12.9680   19.1380 C   0  0  0  0  0  2  0  0  0  0  0  0
  -29.4590  -12.7740   17.9300 C   0  0  0  0  0  2  0  0  0  0  0  0
  -28.0270  -12.4860   18.4110 C   0  0  0  0  0  2  0  0  0  0  0  0
  -27.6080  -13.4320   19.5630 C   0  0  0  0  0  3  0  0  0  0  0  0
  -28.6880  -13.5780   20.6590 C   0  0  0  0  0  2  0  0  0  0  0  0
  -29.8960  -14.1020   20.0000 N   0  0  0  0  0  0  0  0  0  0  0  0
  -31.6660  -15.3900   19.7210 O   0  0  0  0  0  0  0  0  0  0  0  0
  -29.7300  -16.7030   20.2250 N   0  0  0  0  0  0  0  0  0  0  0  0
  -28.7890  -16.5350   20.5510 H   0  0  0  0  0  0  0  0  0  0  0  0
  -25.2550  -13.9680   20.3810 C   0  0  0  0  0  0  0  0  0  0  0  0
  -24.2120  -13.1820   20.7780 C   0  0  0  0  0  0  0  0  0  0  0  0
  -24.6880  -11.8360   20.7350 C   0  0  0  0  0  0  0  0  0  0  0  0
  -26.2990  -13.1010   20.1090 N   0  0  0  0  0  0  0  0  0  0  0  0
  -25.9720  -11.8120   20.3900 N   0  0  0  0  0  0  0  0  0  0  0  0
  -23.9760  -10.5670   20.9430 C   0  0  0  0  0  0  0  0  0  0  0  0
  -24.4260   -9.6100   21.8790 C   0  0  0  0  0  3  0  0  0  0  0  0
  -23.7090   -8.4100   22.0770 C   0  0  0  0  0  3  0  0  0  0  0  0
  -22.5290   -8.1590   21.3380 C   0  0  0  0  0  0  0  0  0  0  0  0
  -22.0980   -9.1040   20.3920 C   0  0  0  0  0  3  0  0  0  0  0  0
  -22.8150  -10.2960   20.1920 C   0  0  0  0  0  3  0  0  0  0  0  0
  -21.7820   -7.0100   21.4450 O   0  0  0  0  0  0  0  0  0  0  0  0
  -21.7420   -6.2830   22.6090 C   0  0  0  0  0  0  0  0  0  0  0  0
  -21.2980   -6.8470   23.8250 C   0  0  0  0  0  3  0  0  0  0  0  0
  -21.2070   -6.0450   24.9810 C   0  0  0  0  0  3  0  0  0  0  0  0
  -21.5490   -4.6810   24.9200 C   0  0  0  0  0  0  0  0  0  0  0  0
  -21.9860   -4.1160   23.7100 C   0  0  0  0  0  3  0  0  0  0  0  0
  -22.0790   -4.9150   22.5560 C   0  0  0  0  0  0  0  0  0  0  0  0
  -22.4800   -4.3620   21.3860 F   0  0  0  0  0  0  0  0  0  0  0  0
  -21.4540   -3.9090   26.0290 F   0  0  0  0  0  0  0  0  0  0  0  0
  -22.8180  -13.6480   21.0810 C   0  0  0  0  0  0  0  0  0  0  0  0
  -22.1140  -12.9470   21.9620 N   0  0  0  0  0  0  0  0  0  0  0  0
  -22.3630  -14.6710   20.5700 O   0  0  0  0  0  0  0  0  0  0  0  0
  -22.4950  -12.1200   22.3970 H   0  0  0  0  0  0  0  0  0  0  0  0
  -21.1800  -13.2440   22.2060 H   0  0  0  0  0  0  0  0  0  0  0  0
  -25.3990  -15.3390   20.1970 N   0  0  0  0  0  0  0  0  0  0  0  0
  -24.6230  -15.9810   20.3210 H   0  0  0  0  0  0  0  0  0  0  0  0
  -26.2190  -15.7840   19.8060 H   0  0  0  0  0  0  0  0  0  0  0  0
  -28.7760  -22.6850   20.5820 C   0  0  0  0  0  2  0  0  0  0  0  0
  -28.1270  -24.2510   19.8980 C   0  0  0  0  0  2  0  0  0  0  0  0
  -28.1960  -25.8710   20.3010 O   0  0  0  0  0  0  0  0  0  0  0  0
  -24.5970  -31.8610   23.2020 C   0  0  0  0  0  0  0  0  0  0  0  0
  -27.1840  -26.9750   20.1900 C   0  0  0  0  0  0  0  0  0  0  0  0
  -23.4170  -30.4620   21.5550 C   0  0  0  0  0  3  0  0  0  0  0  0
  -24.8790  -28.8630   20.1320 C   0  0  0  0  0  0  0  0  0  0  0  0
  -25.9840  -30.6760   21.4250 C   0  0  0  0  0  2  0  0  0  0  0  0
  -26.0610  -29.2660   20.7650 C   0  0  0  0  0  0  0  0  0  0  0  0
  -27.2030  -28.3420   20.7710 C   0  0  0  0  0  3  0  0  0  0  0  0
  -25.9750  -26.7340   19.4970 C   0  0  0  0  0  3  0  0  0  0  0  0
  -24.8630  -27.6200   19.4770 C   0  0  0  0  0  3  0  0  0  0  0  0
  -23.6560  -29.7810   20.1780 C   0  0  0  0  0  2  0  0  0  0  0  0
  -24.6870  -31.0290   22.1130 N   0  0  0  0  0  0  0  0  0  0  0  0
  -23.5040  -32.1460   23.7180 O   0  0  0  0  0  0  0  0  0  0  0  0
  -22.7210  -29.4640   22.5170 C   0  0  0  0  0  0  0  0  0  0  0  0
  -21.3890  -29.3070   22.3970 N   0  0  0  0  0  0  0  0  0  0  0  0
  -23.3860  -28.8330   23.3420 O   0  0  0  0  0  0  0  0  0  0  0  0
  -20.9040  -29.8670   21.7100 H   0  0  0  0  0  0  0  0  0  0  0  0
  -18.0030  -28.1090   22.9180 C   0  0  0  0  0  0  0  0  0  0  0  0
  -20.5660  -28.3650   23.1650 C   0  0  0  0  0  3  0  0  0  0  0  0
  -20.6580  -26.9380   22.5760 C   0  0  0  0  0  2  0  0  0  0  0  0
  -19.5470  -26.6280   21.5670 C   0  0  0  0  0  2  0  0  0  0  0  0
  -18.1710  -26.7680   22.2230 C   0  0  0  0  0  2  0  0  0  0  0  0
  -19.1270  -28.8660   23.3450 C   0  0  0  0  0  0  0  0  0  0  0  0
  -18.9130  -30.1190   23.9600 C   0  0  0  0  0  3  0  0  0  0  0  0
  -17.6090  -30.6170   24.1480 C   0  0  0  0  0  3  0  0  0  0  0  0
  -16.5010  -29.8570   23.7340 C   0  0  0  0  0  3  0  0  0  0  0  0
  -16.6990  -28.6060   23.1250 C   0  0  0  0  0  3  0  0  0  0  0  0
  -25.8620  -32.5090   23.8420 C   0  0  0  0  0  3  0  0  0  0  0  0
  -26.3530  -31.7560   25.1400 C   0  0  1  0  0  0  0  0  0  0  0  0
  -25.2420  -31.5380   26.1940 C   0  0  0  0  0  1  0  0  0  0  0  0
  -26.9400  -30.3700   24.7890 C   0  0  0  0  0  1  0  0  0  0  0  0
  -27.4950  -32.5570   25.8100 C   0  0  0  0  0  1  0  0  0  0  0  0
  -25.5400  -33.9110   24.1640 N   0  0  0  0  0  0  0  0  0  0  0  0
  -25.8830  -34.9700   23.4170 C   0  0  0  0  0  0  0  0  0  0  0  0
  -26.5630  -34.8680   22.3930 O   0  0  0  0  0  0  0  0  0  0  0  0
  -24.9360  -34.0630   24.9580 H   0  0  0  0  0  0  0  0  0  0  0  0
  -24.1660  -36.7780   23.0530 C   0  0  0  0  0  1  0  0  0  0  0  0
  -25.3970  -36.3600   23.8750 C   0  0  0  0  0  3  0  0  0  0  0  0
  -27.5200  -37.2430   24.7390 C   0  0  0  0  0  1  0  0  0  0  0  0
  -26.4350  -37.4110   23.7760 N   0  0  0  0  0  0  0  0  0  0  0  0
  -26.0300  -38.3330   23.9130 H   0  0  0  0  0  0  0  0  0  0  0  0
  1  3  2  0
  2  1  1  0
  2 46  1  0
  4  2  1  0
  5  6  1  0
  5  7  1  0
  6  7  1  0
  7 16  1  6
  7  1  1  0
  8 16  1  0
  9 14  1  0
 10 11  1  0
 10  9  1  0
 12 11  1  0
 12 21  1  0
 12 13  1  0
 14  8  1  0
 14 13  1  0
 15  8  2  0
 16 17  1  0
 18 19  2  0
 19 38  1  0
 20 19  1  0
 20 23  1  0
 21 18  1  0
 21 22  1  0
 22 20  2  0
 23 24  1  0
 24 25  2  0
 26 29  1  0
 26 25  1  0
 27 26  2  0
 28 27  1  0
 28 23  2  0
 29 30  1  0
 30 31  1  0
 31 32  2  0
 33 32  1  0
 33 37  1  0
 34 33  2  0
 35 30  2  0
 35 34  1  0
 36 35  1  0
 38 39  1  0
 39 42  1  0
 39 41  1  0
 40 38  2  0
 43 44  1  0
 43 18  1  0
 45 43  1  0
 47 48  1  0
 47 46  1  0
 49 60  2  0
 50 48  1  0
 50 55  1  0
 51 59  1  0
 51 61  1  0
 52 58  1  0
 52 54  1  0
 53 59  1  0
 54 55  2  0
 54 53  1  0
 56 50  2  0
 57 56  1  0
 57 52  2  0
 58 51  1  0
 59 49  1  0
 61 63  2  0
 62 61  1  0
 64 62  1  0
 65 74  2  0
 65 70  1  0
 66 62  1  0
 66 70  1  0
 67 66  1  0
 68 69  1  0
 68 67  1  0
 69 65  1  0
 70 71  2  0
 71 72  1  0
 73 72  2  0
 74 73  1  0
 75 49  1  0
 75 80  1  0
 75 76  1  0
 76 79  1  1
 76 77  1  0
 78 76  1  0
 80 83  1  0
 81 85  1  0
 81 80  1  0
 82 81  2  0
 85 84  1  0
 87 85  1  0
 87 88  1  0
 87 86  1  0
M  ISO  4   8 100  16 100  47 101  48 101
M  END
>  <TORSDO>  (71) 
F 19

>  <SCORE>  (71) 
-15.179

>  <name>  (71) 
70

>  <ligand_id>  (71) 
70

>  <original_smiles>  (71) 
[H]c1c([H])c([H])c2c(c1[H])C([H])([H])C([H])([H])C([H])([H])C2([H])N([H])C(=O)C1([H])N(C(=O)C([H])(N([H])C(=O)C([H])(N([H])C([H])([H])[H])C([H])([H])[H])C(C([H])([H])[H])(C([H])([H])[H])C([H])([H])[H])C([H])([H])c2c([H])c(OC([H])([H])C([H])([H])N([H])C(=O)C3(N([H])C(=O)N4C([H])([H])C([H])([H])C([H])([H])C([H])(n5nc(-c6c([H])c([H])c(Oc7c([H])c([H])c(F)c([H])c7F)c([H])c6[H])c(C(=O)N([H])[H])c5N([H])[H])C4([H])[H])C([H])([H])C3([H])[H])c([H])c([H])c2C1([H])[H]

>  <smiles>  (71) 
[H]c1c([H])c([H])c2c(c1[H])C([H])([H])C([H])([H])C([H])([H])C2([H])N([H])C(=O)C1([H])N(C(=O)C([H])(N([H])C(=O)C([H])(N([H])C([H])([H])[H])C([H])([H])[H])C(C([H])([H])[H])(C([H])([H])[H])C([H])([H])[H])C([H])([H])c2c([H])c(OC([H])([H])C([H])([H])N([H])C(=O)C3(N([H])C(=O)N4C([H])([H])C([H])([H])C([H])([H])C([H])(n5nc(-c6c([H])c([H])c(Oc7c([H])c([H])c(F)c([H])c7F)c([H])c6[H])c(C(=O)N([H])[H])c5N([H])[H])C4([H])[H])C([H])([H])C3([H])[H])c([H])c([H])c2C1([H])[H]

$$$$
71:0:0
     RDKit          3D

 90 99  0  0  1  0  0  0  0  0999 V2000
  -27.8840  -20.8360   18.8530 C   0  0  0  0  0  3  0  0  0  0  0  0
  -28.4330  -19.5520   19.2410 C   0  0  0  0  0  3  0  0  0  0  0  0
  -29.5940  -20.6600   21.0160 C   0  0  0  0  0  3  0  0  0  0  0  0
  -28.1710  -22.0590   19.5400 C   0  0  0  0  0  0  0  0  0  0  0  0
  -29.0140  -21.9780   20.6340 C   0  0  0  0  0  0  0  0  0  0  0  0
  -29.3380  -19.3610   20.3340 C   0  0  0  0  0  0  0  0  0  0  0  0
  -27.7420  -23.5270   19.2660 C   0  0  0  0  0  0  0  0  0  0  0  0
  -29.1610  -23.4830   21.1710 C   0  0  0  0  0  2  0  0  0  0  0  0
  -28.0670  -24.5030   20.4770 C   0  0  0  0  0  3  0  0  0  0  0  0
  -27.1930  -23.9130   18.2300 O   0  0  0  0  0  0  0  0  0  0  0  0
  -28.2390  -26.0860   20.2620 O   0  0  0  0  0  0  0  0  0  0  0  0
  -24.6450  -31.8920   23.2480 C   0  0  0  0  0  0  0  0  0  0  0  0
  -27.1790  -27.0910   20.2420 C   0  0  0  0  0  0  0  0  0  0  0  0
  -23.4350  -30.4970   21.6180 C   0  0  0  0  0  3  0  0  0  0  0  0
  -24.8690  -28.8950   20.2010 C   0  0  0  0  0  0  0  0  0  0  0  0
  -25.9950  -30.7310   21.4470 C   0  0  0  0  0  2  0  0  0  0  0  0
  -26.0580  -29.3280   20.8020 C   0  0  0  0  0  0  0  0  0  0  0  0
  -27.2140  -28.4470   20.7920 C   0  0  0  0  0  3  0  0  0  0  0  0
  -25.9570  -26.7720   19.6130 C   0  0  0  0  0  3  0  0  0  0  0  0
  -24.8360  -27.6340   19.5870 C   0  0  0  0  0  3  0  0  0  0  0  0
  -23.6510  -29.8100   20.2430 C   0  0  0  0  0  2  0  0  0  0  0  0
  -24.7130  -31.0650   22.1590 N   0  0  0  0  0  0  0  0  0  0  0  0
  -23.5600  -32.1850   23.7760 O   0  0  0  0  0  0  0  0  0  0  0  0
  -22.7490  -29.5020   22.5890 C   0  0  0  0  0  0  0  0  0  0  0  0
  -21.4200  -29.3350   22.4650 N   0  0  0  0  0  0  0  0  0  0  0  0
  -23.4180  -28.8800   23.4190 O   0  0  0  0  0  0  0  0  0  0  0  0
  -20.9360  -29.8880   21.7720 H   0  0  0  0  0  0  0  0  0  0  0  0
  -18.0380  -28.1270   22.9660 C   0  0  0  0  0  0  0  0  0  0  0  0
  -20.5960  -28.4030   23.2410 C   0  0  0  0  0  3  0  0  0  0  0  0
  -20.7050  -26.9650   22.6830 C   0  0  0  0  0  2  0  0  0  0  0  0
  -19.6090  -26.6270   21.6680 C   0  0  0  0  0  2  0  0  0  0  0  0
  -18.2240  -26.7720   22.3030 C   0  0  0  0  0  2  0  0  0  0  0  0
  -19.1520  -28.9000   23.3920 C   0  0  0  0  0  0  0  0  0  0  0  0
  -18.9250  -30.1650   23.9750 C   0  0  0  0  0  3  0  0  0  0  0  0
  -17.6160  -30.6600   24.1350 C   0  0  0  0  0  3  0  0  0  0  0  0
  -16.5170  -29.8860   23.7240 C   0  0  0  0  0  3  0  0  0  0  0  0
  -16.7290  -28.6220   23.1450 C   0  0  0  0  0  3  0  0  0  0  0  0
  -25.9250  -32.5280   23.8720 C   0  0  0  0  0  3  0  0  0  0  0  0
  -25.6180  -33.9290   24.2040 N   0  0  0  0  0  0  0  0  0  0  0  0
  -25.9400  -34.9850   23.4450 C   0  0  0  0  0  0  0  0  0  0  0  0
  -26.5930  -34.8830   22.4040 O   0  0  0  0  0  0  0  0  0  0  0  0
  -25.0400  -34.0820   25.0170 H   0  0  0  0  0  0  0  0  0  0  0  0
  -24.2060  -36.7840   23.1340 C   0  0  0  0  0  1  0  0  0  0  0  0
  -25.4650  -36.3750   23.9170 C   0  0  0  0  0  3  0  0  0  0  0  0
  -27.6150  -37.2610   24.7020 C   0  0  0  0  0  1  0  0  0  0  0  0
  -26.4940  -37.4280   23.7800 N   0  0  0  0  0  0  0  0  0  0  0  0
  -26.0910  -38.3480   23.9360 H   0  0  0  0  0  0  0  0  0  0  0  0
  -26.4340  -31.7630   25.1570 C   0  0  1  0  0  0  0  0  0  0  0  0
  -25.3370  -31.5410   26.2260 C   0  0  0  0  0  1  0  0  0  0  0  0
  -27.0130  -30.3810   24.7800 C   0  0  0  0  0  1  0  0  0  0  0  0
  -27.5880  -32.5570   25.8140 C   0  0  0  0  0  1  0  0  0  0  0  0
  -30.1140  -17.8890   20.6650 C   0  0  0  0  0  2  0  0  0  0  0  0
  -30.4730  -15.1110   20.3850 C   0  0  0  0  0  0  0  0  0  0  0  0
  -30.3990  -12.7190   19.4740 C   0  0  0  0  0  2  0  0  0  0  0  0
  -29.4760  -12.5870   18.2390 C   0  0  0  0  0  2  0  0  0  0  0  0
  -28.0170  -12.3520   18.6750 C   0  0  0  0  0  2  0  0  0  0  0  0
  -27.5830  -13.3060   19.8180 C   0  0  0  0  0  3  0  0  0  0  0  0
  -28.6300  -13.3900   20.9460 C   0  0  0  0  0  2  0  0  0  0  0  0
  -29.8820  -13.8380   20.3230 N   0  0  0  0  0  0  0  0  0  0  0  0
  -31.6910  -15.1390   20.1740 O   0  0  0  0  0  0  0  0  0  0  0  0
  -29.7100  -16.3370   20.4870 N   0  0  0  0  0  0  0  0  0  0  0  0
  -28.7180  -16.1750   20.5550 H   0  0  0  0  0  0  0  0  0  0  0  0
  -25.2040  -13.8720   20.5560 C   0  0  0  0  0  0  0  0  0  0  0  0
  -24.1410  -13.0940   20.9200 C   0  0  0  0  0  0  0  0  0  0  0  0
  -24.6100  -11.7440   20.8900 C   0  0  0  0  0  0  0  0  0  0  0  0
  -26.2490  -12.9980   20.3180 N   0  0  0  0  0  0  0  0  0  0  0  0
  -25.9030  -11.7120   20.5860 N   0  0  0  0  0  0  0  0  0  0  0  0
  -23.8850  -10.4800   21.0730 C   0  0  0  0  0  0  0  0  0  0  0  0
  -24.3160   -9.5060   22.0000 C   0  0  0  0  0  3  0  0  0  0  0  0
  -23.5880   -8.3090   22.1710 C   0  0  0  0  0  3  0  0  0  0  0  0
  -22.4150   -8.0770   21.4160 C   0  0  0  0  0  0  0  0  0  0  0  0
  -22.0010   -9.0400   20.4770 C   0  0  0  0  0  3  0  0  0  0  0  0
  -22.7300  -10.2280   20.3040 C   0  0  0  0  0  3  0  0  0  0  0  0
  -21.6570   -6.9340   21.4990 O   0  0  0  0  0  0  0  0  0  0  0  0
  -21.6090   -6.1830   22.6450 C   0  0  0  0  0  0  0  0  0  0  0  0
  -21.1750   -6.7280   23.8740 C   0  0  0  0  0  3  0  0  0  0  0  0
  -21.0750   -5.9040   25.0120 C   0  0  0  0  0  3  0  0  0  0  0  0
  -21.3980   -4.5370   24.9240 C   0  0  0  0  0  0  0  0  0  0  0  0
  -21.8250   -3.9920   23.7010 C   0  0  0  0  0  3  0  0  0  0  0  0
  -21.9270   -4.8130   22.5640 C   0  0  0  0  0  0  0  0  0  0  0  0
  -22.3180   -4.2780   21.3820 F   0  0  0  0  0  0  0  0  0  0  0  0
  -21.2950   -3.7430   26.0160 F   0  0  0  0  0  0  0  0  0  0  0  0
  -22.7410  -13.5680   21.1810 C   0  0  0  0  0  0  0  0  0  0  0  0
  -22.0080  -12.8700   22.0400 N   0  0  0  0  0  0  0  0  0  0  0  0
  -22.3070  -14.5950   20.6580 O   0  0  0  0  0  0  0  0  0  0  0  0
  -22.3720  -12.0390   22.4830 H   0  0  0  0  0  0  0  0  0  0  0  0
  -21.0690  -13.1710   22.2610 H   0  0  0  0  0  0  0  0  0  0  0  0
  -25.3630  -15.2440   20.3800 N   0  0  0  0  0  0  0  0  0  0  0  0
  -24.5900  -15.8920   20.4820 H   0  0  0  0  0  0  0  0  0  0  0  0
  -26.2020  -15.6850   20.0270 H   0  0  0  0  0  0  0  0  0  0  0  0
  1  2  2  0
  1  4  1  0
  2  6  1  0
  4  5  2  0
  5  3  1  0
  5  8  1  0
  6 52  1  0
  6  3  2  0
  7  4  1  0
  7  9  1  0
  9 11  1  0
  9  8  1  0
 10  7  2  0
 12 23  2  0
 13 11  1  0
 13 18  1  0
 14 22  1  0
 14 24  1  0
 15 21  1  0
 15 17  1  0
 16 22  1  0
 17 16  1  0
 18 17  2  0
 19 13  2  0
 20 19  1  0
 20 15  2  0
 21 14  1  0
 22 12  1  0
 24 26  2  0
 25 24  1  0
 27 25  1  0
 28 37  2  0
 28 33  1  0
 29 25  1  0
 29 33  1  0
 30 29  1  0
 31 32  1  0
 31 30  1  0
 32 28  1  0
 33 34  2  0
 34 35  1  0
 36 35  2  0
 37 36  1  0
 38 12  1  0
 38 39  1  0
 38 48  1  0
 39 42  1  0
 40 44  1  0
 40 39  1  0
 41 40  2  0
 44 43  1  0
 46 44  1  0
 46 47  1  0
 46 45  1  0
 48 51  1  1
 48 49  1  0
 50 48  1  0
 53 61  1  0
 54 59  1  0
 55 56  1  0
 55 54  1  0
 57 56  1  0
 57 66  1  0
 57 58  1  0
 59 53  1  0
 59 58  1  0
 60 53  2  0
 61 62  1  0
 61 52  1  0
 63 64  2  0
 64 83  1  0
 65 64  1  0
 65 68  1  0
 66 63  1  0
 66 67  1  0
 67 65  2  0
 68 69  1  0
 69 70  2  0
 71 74  1  0
 71 70  1  0
 72 71  2  0
 73 72  1  0
 73 68  2  0
 74 75  1  0
 75 76  1  0
 76 77  2  0
 78 77  1  0
 78 82  1  0
 79 78  2  0
 80 75  2  0
 80 79  1  0
 81 80  1  0
 83 84  1  0
 84 87  1  0
 84 86  1  0
 85 83  2  0
 88 89  1  0
 88 63  1  0
 90 88  1  0
M  ISO  4   9 101  11 101  53 100  61 100
M  END
>  <TORSDO>  (72) 
F 17

>  <SCORE>  (72) 
-15.851

>  <name>  (72) 
71

>  <ligand_id>  (72) 
71

>  <original_smiles>  (72) 
[H]c1c([H])c([H])c2c(c1[H])C([H])([H])C([H])([H])C([H])([H])C2([H])N([H])C(=O)C1([H])N(C(=O)C([H])(N([H])C(=O)C([H])(N([H])C([H])([H])[H])C([H])([H])[H])C(C([H])([H])[H])(C([H])([H])[H])C([H])([H])[H])C([H])([H])c2c([H])c(OC3([H])C(=O)c4c([H])c([H])c(C([H])([H])N([H])C(=O)N5C([H])([H])C([H])([H])C([H])([H])C([H])(n6nc(-c7c([H])c([H])c(Oc8c([H])c([H])c(F)c([H])c8F)c([H])c7[H])c(C(=O)N([H])[H])c6N([H])[H])C5([H])[H])c([H])c4C3([H])[H])c([H])c([H])c2C1([H])[H]

>  <smiles>  (72) 
[H]c1c([H])c([H])c2c(c1[H])C([H])([H])C([H])([H])C([H])([H])C2([H])N([H])C(=O)C1([H])N(C(=O)C([H])(N([H])C(=O)C([H])(N([H])C([H])([H])[H])C([H])([H])[H])C(C([H])([H])[H])(C([H])([H])[H])C([H])([H])[H])C([H])([H])c2c([H])c(OC3([H])C(=O)c4c([H])c([H])c(C([H])([H])N([H])C(=O)N5C([H])([H])C([H])([H])C([H])([H])C([H])(n6nc(-c7c([H])c([H])c(Oc8c([H])c([H])c(F)c([H])c8F)c([H])c7[H])c(C(=O)N([H])[H])c6N([H])[H])C5([H])[H])c([H])c4C3([H])[H])c([H])c([H])c2C1([H])[H]

$$$$
72:0:0
     RDKit          3D

 89 97  0  0  1  0  0  0  0  0999 V2000
  -27.6300  -21.9930   19.8120 C   0  0  0  0  0  3  0  0  0  0  0  0
  -27.4100  -23.4640   19.7790 C   0  0  0  0  0  3  0  0  0  0  0  0
  -29.4600  -23.7510   20.7660 C   0  0  0  0  0  3  0  0  0  0  0  0
  -28.7810  -21.2520   20.3260 C   0  0  0  0  0  0  0  0  0  0  0  0
  -28.3050  -24.5010   20.2700 C   0  0  0  0  0  0  0  0  0  0  0  0
  -29.6870  -22.2820   20.8110 C   0  0  0  0  0  0  0  0  0  0  0  0
  -30.8380  -21.8560   21.3820 F   0  0  0  0  0  0  0  0  0  0  0  0
  -28.2380  -26.0310   20.2280 O   0  0  0  0  0  0  0  0  0  0  0  0
  -24.6130  -31.8950   23.2380 C   0  0  0  0  0  0  0  0  0  0  0  0
  -27.1610  -27.0470   20.2170 C   0  0  0  0  0  0  0  0  0  0  0  0
  -23.4070  -30.4930   21.6090 C   0  0  0  0  0  3  0  0  0  0  0  0
  -24.8480  -28.8900   20.1820 C   0  0  0  0  0  0  0  0  0  0  0  0
  -25.9680  -30.7200   21.4410 C   0  0  0  0  0  2  0  0  0  0  0  0
  -26.0340  -29.3090   20.7950 C   0  0  0  0  0  0  0  0  0  0  0  0
  -27.1820  -28.4070   20.7920 C   0  0  0  0  0  3  0  0  0  0  0  0
  -25.9480  -26.7710   19.5490 C   0  0  0  0  0  3  0  0  0  0  0  0
  -24.8260  -27.6400   19.5420 C   0  0  0  0  0  3  0  0  0  0  0  0
  -23.6260  -29.8050   20.2340 C   0  0  0  0  0  2  0  0  0  0  0  0
  -24.6840  -31.0630   22.1490 N   0  0  0  0  0  0  0  0  0  0  0  0
  -23.5290  -32.1830   23.7690 O   0  0  0  0  0  0  0  0  0  0  0  0
  -22.7270  -29.4960   22.5830 C   0  0  0  0  0  0  0  0  0  0  0  0
  -21.4000  -29.3150   22.4580 N   0  0  0  0  0  0  0  0  0  0  0  0
  -23.4010  -28.8860   23.4180 O   0  0  0  0  0  0  0  0  0  0  0  0
  -20.9100  -29.8590   21.7620 H   0  0  0  0  0  0  0  0  0  0  0  0
  -18.0320  -28.0720   22.9690 C   0  0  0  0  0  0  0  0  0  0  0  0
  -20.5870  -28.3740   23.2360 C   0  0  0  0  0  3  0  0  0  0  0  0
  -20.7080  -26.9380   22.6750 C   0  0  0  0  0  2  0  0  0  0  0  0
  -19.6130  -26.5920   21.6620 C   0  0  0  0  0  2  0  0  0  0  0  0
  -18.2280  -26.7210   22.3020 C   0  0  0  0  0  2  0  0  0  0  0  0
  -19.1390  -28.8550   23.3930 C   0  0  0  0  0  0  0  0  0  0  0  0
  -18.8990  -30.1160   23.9800 C   0  0  0  0  0  3  0  0  0  0  0  0
  -17.5850  -30.5970   24.1450 C   0  0  0  0  0  3  0  0  0  0  0  0
  -16.4940  -29.8130   23.7340 C   0  0  0  0  0  3  0  0  0  0  0  0
  -16.7170  -28.5510   23.1540 C   0  0  0  0  0  3  0  0  0  0  0  0
  -25.8900  -32.5410   23.8580 C   0  0  0  0  0  3  0  0  0  0  0  0
  -25.5760  -33.9430   24.1810 N   0  0  0  0  0  0  0  0  0  0  0  0
  -25.9030  -34.9970   23.4220 C   0  0  0  0  0  0  0  0  0  0  0  0
  -26.5650  -34.8910   22.3850 O   0  0  0  0  0  0  0  0  0  0  0  0
  -24.9890  -34.0990   24.9860 H   0  0  0  0  0  0  0  0  0  0  0  0
  -24.1820  -36.8020   23.0780 C   0  0  0  0  0  1  0  0  0  0  0  0
  -25.4250  -36.3900   23.8820 C   0  0  0  0  0  3  0  0  0  0  0  0
  -27.5620  -37.2760   24.7100 C   0  0  0  0  0  1  0  0  0  0  0  0
  -26.4610  -37.4390   23.7640 N   0  0  0  0  0  0  0  0  0  0  0  0
  -26.0580  -38.3620   23.9040 H   0  0  0  0  0  0  0  0  0  0  0  0
  -26.3990  -31.7870   25.1500 C   0  0  1  0  0  0  0  0  0  0  0  0
  -25.3010  -31.5650   26.2170 C   0  0  0  0  0  1  0  0  0  0  0  0
  -26.9850  -30.4040   24.7870 C   0  0  0  0  0  1  0  0  0  0  0  0
  -27.5470  -32.5910   25.8060 C   0  0  0  0  0  1  0  0  0  0  0  0
  -28.8350  -19.5220   20.5360 C   0  0  0  0  0  2  0  0  0  0  0  0
  -30.4640  -18.4370   18.7380 C   0  0  0  0  0  1  0  0  0  0  0  0
  -29.9290  -18.1800   20.1530 C   0  0  0  0  0  3  0  0  0  0  0  0
  -30.4390  -15.2930   20.1430 C   0  0  0  0  0  0  0  0  0  0  0  0
  -30.3670  -12.8860   19.2090 C   0  0  0  0  0  2  0  0  0  0  0  0
  -29.4050  -12.7410   18.0040 C   0  0  0  0  0  2  0  0  0  0  0  0
  -27.9670  -12.4750   18.4850 C   0  0  0  0  0  2  0  0  0  0  0  0
  -27.5630  -13.4020   19.6580 C   0  0  0  0  0  3  0  0  0  0  0  0
  -28.6510  -13.4980   20.7500 C   0  0  0  0  0  2  0  0  0  0  0  0
  -29.8660  -13.9980   20.0920 N   0  0  0  0  0  0  0  0  0  0  0  0
  -31.6450  -15.3100   19.8570 O   0  0  0  0  0  0  0  0  0  0  0  0
  -29.6770  -16.5450   20.3070 N   0  0  0  0  0  0  0  0  0  0  0  0
  -28.7120  -16.3390   20.5250 H   0  0  0  0  0  0  0  0  0  0  0  0
  -25.2160  -13.9400   20.5010 C   0  0  0  0  0  0  0  0  0  0  0  0
  -24.1700  -13.1520   20.8890 C   0  0  0  0  0  0  0  0  0  0  0  0
  -24.6400  -11.8040   20.8150 C   0  0  0  0  0  0  0  0  0  0  0  0
  -26.2530  -13.0740   20.2040 N   0  0  0  0  0  0  0  0  0  0  0  0
  -25.9210  -11.7810   20.4600 N   0  0  0  0  0  0  0  0  0  0  0  0
  -23.9230  -10.5350   21.0010 C   0  0  0  0  0  0  0  0  0  0  0  0
  -24.3630   -9.5640   21.9270 C   0  0  0  0  0  3  0  0  0  0  0  0
  -23.6430   -8.3630   22.1030 C   0  0  0  0  0  3  0  0  0  0  0  0
  -22.4680   -8.1240   21.3520 C   0  0  0  0  0  0  0  0  0  0  0  0
  -22.0460   -9.0830   20.4140 C   0  0  0  0  0  3  0  0  0  0  0  0
  -22.7670  -10.2750   20.2370 C   0  0  0  0  0  3  0  0  0  0  0  0
  -21.7180   -6.9750   21.4370 O   0  0  0  0  0  0  0  0  0  0  0  0
  -21.6460   -6.2490   22.5990 C   0  0  0  0  0  0  0  0  0  0  0  0
  -21.1470   -6.8060   23.7960 C   0  0  0  0  0  3  0  0  0  0  0  0
  -21.0230   -6.0040   24.9480 C   0  0  0  0  0  3  0  0  0  0  0  0
  -21.3890   -4.6450   24.9040 C   0  0  0  0  0  0  0  0  0  0  0  0
  -21.8810   -4.0870   23.7100 C   0  0  0  0  0  3  0  0  0  0  0  0
  -22.0050   -4.8860   22.5610 C   0  0  0  0  0  0  0  0  0  0  0  0
  -22.4600   -4.3380   21.4080 F   0  0  0  0  0  0  0  0  0  0  0  0
  -21.2640   -3.8720   26.0080 F   0  0  0  0  0  0  0  0  0  0  0  0
  -22.7810  -13.6180   21.2110 C   0  0  0  0  0  0  0  0  0  0  0  0
  -22.0780  -12.9010   22.0810 N   0  0  0  0  0  0  0  0  0  0  0  0
  -22.3280  -14.6550   20.7280 O   0  0  0  0  0  0  0  0  0  0  0  0
  -22.4590  -12.0620   22.4940 H   0  0  0  0  0  0  0  0  0  0  0  0
  -21.1470  -13.1960   22.3380 H   0  0  0  0  0  0  0  0  0  0  0  0
  -25.3660  -15.3150   20.3460 N   0  0  0  0  0  0  0  0  0  0  0  0
  -24.5940  -15.9570   20.4920 H   0  0  0  0  0  0  0  0  0  0  0  0
  -26.1830  -15.7640   19.9530 H   0  0  0  0  0  0  0  0  0  0  0  0
  1  4  1  0
  2  1  2  0
  2  5  1  0
  3  6  1  0
  4 49  1  0
  4  6  2  0
  5  3  2  0
  6  7  1  0
  8  5  1  0
  9 20  2  0
 10  8  1  0
 10 15  1  0
 11 19  1  0
 11 21  1  0
 12 18  1  0
 12 14  1  0
 13 19  1  0
 14 13  1  0
 15 14  2  0
 16 10  2  0
 17 16  1  0
 17 12  2  0
 18 11  1  0
 19  9  1  0
 21 23  2  0
 22 21  1  0
 24 22  1  0
 25 34  2  0
 25 30  1  0
 26 22  1  0
 26 30  1  0
 27 26  1  0
 28 29  1  0
 28 27  1  0
 29 25  1  0
 30 31  2  0
 31 32  1  0
 33 32  2  0
 34 33  1  0
 35  9  1  0
 35 36  1  0
 35 45  1  0
 36 39  1  0
 37 41  1  0
 37 36  1  0
 38 37  2  0
 41 40  1  0
 43 41  1  0
 43 44  1  0
 43 42  1  0
 45 48  1  1
 45 46  1  0
 47 45  1  0
 51 50  1  0
 51 60  1  0
 51 49  1  0
 52 60  1  0
 53 58  1  0
 54 55  1  0
 54 53  1  0
 56 55  1  0
 56 65  1  0
 56 57  1  0
 58 52  1  0
 58 57  1  0
 59 52  2  0
 60 61  1  0
 62 63  2  0
 63 82  1  0
 64 63  1  0
 64 67  1  0
 65 66  1  0
 65 62  1  0
 66 64  2  0
 67 68  1  0
 68 69  2  0
 70 73  1  0
 70 69  1  0
 71 70  2  0
 72 71  1  0
 72 67  2  0
 73 74  1  0
 74 75  1  0
 75 76  2  0
 77 76  1  0
 77 81  1  0
 78 77  2  0
 79 74  2  0
 79 78  1  0
 80 79  1  0
 82 83  1  0
 83 86  1  0
 83 85  1  0
 84 82  2  0
 87 88  1  0
 87 62  1  0
 89 87  1  0
M  ISO  4   5 101   8 101  52 100  60 100
M  END
>  <TORSDO>  (73) 
F 18

>  <SCORE>  (73) 
-15.509

>  <name>  (73) 
72

>  <ligand_id>  (73) 
72

>  <original_smiles>  (73) 
[H]c1c([H])c([H])c2c(c1[H])C([H])([H])C([H])([H])C([H])([H])C2([H])N([H])C(=O)C1([H])N(C(=O)C([H])(N([H])C(=O)C([H])(N([H])C([H])([H])[H])C([H])([H])[H])C(C([H])([H])[H])(C([H])([H])[H])C([H])([H])[H])C([H])([H])c2c([H])c(Oc3c([H])c([H])c(C([H])([H])C([H])(N([H])C(=O)N4C([H])([H])C([H])([H])C([H])([H])C([H])(n5nc(-c6c([H])c([H])c(Oc7c([H])c([H])c(F)c([H])c7F)c([H])c6[H])c(C(=O)N([H])[H])c5N([H])[H])C4([H])[H])C([H])([H])[H])c(F)c3[H])c([H])c([H])c2C1([H])[H]

>  <smiles>  (73) 
[H]c1c([H])c([H])c2c(c1[H])C([H])([H])C([H])([H])C([H])([H])C2([H])N([H])C(=O)C1([H])N(C(=O)C([H])(N([H])C(=O)C([H])(N([H])C([H])([H])[H])C([H])([H])[H])C(C([H])([H])[H])(C([H])([H])[H])C([H])([H])[H])C([H])([H])c2c([H])c(Oc3c([H])c([H])c(C([H])([H])C([H])(N([H])C(=O)N4C([H])([H])C([H])([H])C([H])([H])C([H])(n5nc(-c6c([H])c([H])c(Oc7c([H])c([H])c(F)c([H])c7F)c([H])c6[H])c(C(=O)N([H])[H])c5N([H])[H])C4([H])[H])C([H])([H])[H])c(F)c3[H])c([H])c([H])c2C1([H])[H]

$$$$
73:0:0
     RDKit          3D

 91100  0  0  1  0  0  0  0  0999 V2000
  -31.0800  -21.6980   20.6620 C   0  0  0  0  0  0  0  0  0  0  0  0
  -30.6250  -23.0960   20.1420 C   0  0  0  0  0  2  0  0  0  0  0  0
  -28.8200  -18.8980   19.2230 C   0  0  0  0  0  2  0  0  0  0  0  0
  -28.8110  -20.5360   19.0400 C   0  0  0  0  0  2  0  0  0  0  0  0
  -30.1240  -19.1540   21.2340 C   0  0  0  0  0  2  0  0  0  0  0  0
  -29.9120  -20.8050   21.1310 C   0  0  0  0  0  3  0  0  0  0  0  0
  -29.0930  -23.1960   20.3510 C   0  0  0  0  0  3  0  0  0  0  0  0
  -30.0050  -18.1250   19.9910 C   0  0  0  0  0  3  0  0  0  0  0  0
  -28.7390  -21.5060   20.3290 C   0  0  1  0  0  0  0  0  0  0  0  0
  -27.3950  -21.2970   21.0440 C   0  0  0  0  0  1  0  0  0  0  0  0
  -32.2600  -21.3420   20.6940 O   0  0  0  0  0  0  0  0  0  0  0  0
  -30.6150  -15.2920   19.9890 C   0  0  0  0  0  0  0  0  0  0  0  0
  -30.4750  -12.9120   19.0430 C   0  0  0  0  0  2  0  0  0  0  0  0
  -29.4950  -12.8240   17.8480 C   0  0  0  0  0  2  0  0  0  0  0  0
  -28.0560  -12.5880   18.3430 C   0  0  0  0  0  2  0  0  0  0  0  0
  -27.6880  -13.5200   19.5250 C   0  0  0  0  0  3  0  0  0  0  0  0
  -28.7850  -13.5630   20.6100 C   0  0  0  0  0  2  0  0  0  0  0  0
  -30.0210  -14.0140   19.9540 N   0  0  0  0  0  0  0  0  0  0  0  0
  -31.8010  -15.3260   19.6420 O   0  0  0  0  0  0  0  0  0  0  0  0
  -29.8570  -16.5120   20.2160 N   0  0  0  0  0  0  0  0  0  0  0  0
  -28.9250  -16.2740   20.5250 H   0  0  0  0  0  0  0  0  0  0  0  0
  -25.3460  -14.1060   20.3640 C   0  0  0  0  0  0  0  0  0  0  0  0
  -24.2900  -13.3370   20.7700 C   0  0  0  0  0  0  0  0  0  0  0  0
  -24.7420  -11.9830   20.7130 C   0  0  0  0  0  0  0  0  0  0  0  0
  -26.3700  -13.2230   20.0750 N   0  0  0  0  0  0  0  0  0  0  0  0
  -26.0200  -11.9390   20.3510 N   0  0  0  0  0  0  0  0  0  0  0  0
  -24.0120  -10.7250   20.9220 C   0  0  0  0  0  0  0  0  0  0  0  0
  -24.4500   -9.7620   21.8590 C   0  0  0  0  0  3  0  0  0  0  0  0
  -23.7180   -8.5720   22.0560 C   0  0  0  0  0  3  0  0  0  0  0  0
  -22.5340   -8.3350   21.3190 C   0  0  0  0  0  0  0  0  0  0  0  0
  -22.1140   -9.2850   20.3720 C   0  0  0  0  0  3  0  0  0  0  0  0
  -22.8470  -10.4680   20.1720 C   0  0  0  0  0  3  0  0  0  0  0  0
  -21.7750   -7.1940   21.4240 O   0  0  0  0  0  0  0  0  0  0  0  0
  -21.7250   -6.4680   22.5880 C   0  0  0  0  0  0  0  0  0  0  0  0
  -21.2690   -7.0330   23.7980 C   0  0  0  0  0  3  0  0  0  0  0  0
  -21.1670   -6.2330   24.9540 C   0  0  0  0  0  3  0  0  0  0  0  0
  -21.5090   -4.8700   24.9000 C   0  0  0  0  0  0  0  0  0  0  0  0
  -21.9590   -4.3030   23.6950 C   0  0  0  0  0  3  0  0  0  0  0  0
  -22.0640   -5.1010   22.5410 C   0  0  0  0  0  0  0  0  0  0  0  0
  -22.4760   -4.5460   21.3770 F   0  0  0  0  0  0  0  0  0  0  0  0
  -21.4060   -4.0990   26.0080 F   0  0  0  0  0  0  0  0  0  0  0  0
  -22.9080  -13.8250   21.0950 C   0  0  0  0  0  0  0  0  0  0  0  0
  -22.2080  -13.1360   21.9900 N   0  0  0  0  0  0  0  0  0  0  0  0
  -22.4600  -14.8550   20.5920 O   0  0  0  0  0  0  0  0  0  0  0  0
  -22.5850  -12.3050   22.4210 H   0  0  0  0  0  0  0  0  0  0  0  0
  -21.2830  -13.4470   22.2470 H   0  0  0  0  0  0  0  0  0  0  0  0
  -25.5130  -15.4770   20.1900 N   0  0  0  0  0  0  0  0  0  0  0  0
  -24.7560  -16.1340   20.3380 H   0  0  0  0  0  0  0  0  0  0  0  0
  -26.3400  -15.9100   19.8020 H   0  0  0  0  0  0  0  0  0  0  0  0
  -28.2630  -24.6240   19.7680 C   0  0  0  0  0  2  0  0  0  0  0  0
  -28.4180  -26.1850   20.1110 O   0  0  0  0  0  0  0  0  0  0  0  0
  -24.6530  -31.8460   23.1690 C   0  0  0  0  0  0  0  0  0  0  0  0
  -27.3540  -27.1950   20.0420 C   0  0  0  0  0  0  0  0  0  0  0  0
  -23.4980  -30.4640   21.4880 C   0  0  0  0  0  3  0  0  0  0  0  0
  -24.9920  -28.9470   20.0290 C   0  0  0  0  0  0  0  0  0  0  0  0
  -26.0520  -30.7700   21.3510 C   0  0  0  0  0  2  0  0  0  0  0  0
  -26.1610  -29.3870   20.6630 C   0  0  0  0  0  0  0  0  0  0  0  0
  -27.3380  -28.5310   20.6500 C   0  0  0  0  0  3  0  0  0  0  0  0
  -26.1570  -26.8820   19.3600 C   0  0  0  0  0  3  0  0  0  0  0  0
  -25.0090  -27.7130   19.3600 C   0  0  0  0  0  3  0  0  0  0  0  0
  -23.7450  -29.8230   20.0950 C   0  0  0  0  0  2  0  0  0  0  0  0
  -24.7530  -31.0500   22.0580 N   0  0  0  0  0  0  0  0  0  0  0  0
  -23.5560  -32.0930   23.6960 O   0  0  0  0  0  0  0  0  0  0  0  0
  -22.8320  -29.4230   22.4240 C   0  0  0  0  0  0  0  0  0  0  0  0
  -21.5040  -29.2430   22.3050 N   0  0  0  0  0  0  0  0  0  0  0  0
  -23.5150  -28.7770   23.2230 O   0  0  0  0  0  0  0  0  0  0  0  0
  -21.0060  -29.8150   21.6370 H   0  0  0  0  0  0  0  0  0  0  0  0
  -18.1340  -28.0140   22.8320 C   0  0  0  0  0  0  0  0  0  0  0  0
  -20.6990  -28.2710   23.0510 C   0  0  0  0  0  3  0  0  0  0  0  0
  -20.7890  -26.8670   22.4090 C   0  0  0  0  0  2  0  0  0  0  0  0
  -19.6640  -26.5890   21.4070 C   0  0  0  0  0  2  0  0  0  0  0  0
  -18.2970  -26.6990   22.0880 C   0  0  0  0  0  2  0  0  0  0  0  0
  -19.2610  -28.7590   23.2700 C   0  0  0  0  0  0  0  0  0  0  0  0
  -19.0520  -29.9890   23.9310 C   0  0  0  0  0  3  0  0  0  0  0  0
  -17.7510  -30.4760   24.1540 C   0  0  0  0  0  3  0  0  0  0  0  0
  -16.6390  -29.7280   23.7300 C   0  0  0  0  0  3  0  0  0  0  0  0
  -16.8310  -28.4980   23.0750 C   0  0  0  0  0  3  0  0  0  0  0  0
  -25.9080  -32.5010   23.8210 C   0  0  0  0  0  3  0  0  0  0  0  0
  -25.5700  -33.8950   24.1550 N   0  0  0  0  0  0  0  0  0  0  0  0
  -25.8780  -34.9590   23.4020 C   0  0  0  0  0  0  0  0  0  0  0  0
  -26.5420  -34.8730   22.3670 O   0  0  0  0  0  0  0  0  0  0  0  0
  -24.9760  -34.0320   24.9590 H   0  0  0  0  0  0  0  0  0  0  0  0
  -24.1060  -36.7210   23.0890 C   0  0  0  0  0  1  0  0  0  0  0  0
  -25.3730  -36.3390   23.8720 C   0  0  0  0  0  3  0  0  0  0  0  0
  -27.4980  -37.2790   24.6660 C   0  0  0  0  0  1  0  0  0  0  0  0
  -26.3810  -37.4130   23.7360 N   0  0  0  0  0  0  0  0  0  0  0  0
  -25.9570  -38.3260   23.8790 H   0  0  0  0  0  0  0  0  0  0  0  0
  -26.4050  -31.7370   25.1120 C   0  0  1  0  0  0  0  0  0  0  0  0
  -25.2910  -31.4860   26.1550 C   0  0  0  0  0  1  0  0  0  0  0  0
  -27.0150  -30.3670   24.7400 C   0  0  0  0  0  1  0  0  0  0  0  0
  -27.5290  -32.5470   25.7990 C   0  0  0  0  0  1  0  0  0  0  0  0
  1 11  2  0
  1  6  1  0
  2  7  1  0
  2  1  1  0
  3  8  1  0
  4  3  1  0
  4  9  1  0
  6  5  1  0
  7 50  1  0
  8 20  1  0
  8  5  1  0
  9  7  1  0
  9 10  1  1
  9  6  1  0
 12 20  1  0
 13 18  1  0
 14 15  1  0
 14 13  1  0
 16 15  1  0
 16 25  1  0
 16 17  1  0
 18 12  1  0
 18 17  1  0
 19 12  2  0
 20 21  1  0
 22 23  2  0
 23 42  1  0
 24 23  1  0
 24 27  1  0
 25 26  1  0
 25 22  1  0
 26 24  2  0
 27 28  1  0
 28 29  2  0
 30 33  1  0
 30 29  1  0
 31 30  2  0
 32 31  1  0
 32 27  2  0
 33 34  1  0
 34 35  1  0
 35 36  2  0
 37 36  1  0
 37 41  1  0
 38 37  2  0
 39 34  2  0
 39 38  1  0
 40 39  1  0
 42 43  1  0
 43 46  1  0
 43 45  1  0
 44 42  2  0
 47 48  1  0
 47 22  1  0
 49 47  1  0
 50 51  1  0
 52 63  2  0
 53 51  1  0
 53 58  1  0
 54 62  1  0
 54 64  1  0
 55 61  1  0
 55 57  1  0
 56 62  1  0
 57 56  1  0
 58 57  2  0
 59 60  1  0
 59 53  2  0
 60 55  2  0
 61 54  1  0
 62 52  1  0
 64 66  2  0
 65 64  1  0
 67 65  1  0
 68 77  2  0
 68 73  1  0
 69 65  1  0
 69 73  1  0
 70 69  1  0
 71 72  1  0
 71 70  1  0
 72 68  1  0
 73 74  2  0
 74 75  1  0
 76 75  2  0
 77 76  1  0
 78 52  1  0
 78 79  1  0
 78 88  1  0
 79 82  1  0
 80 84  1  0
 80 79  1  0
 81 80  2  0
 84 83  1  0
 86 84  1  0
 86 87  1  0
 86 85  1  0
 88 91  1  1
 88 89  1  0
 90 88  1  0
M  ISO  4  12 100  20 100  50 101  51 101
M  END
>  <TORSDO>  (74) 
F 17

>  <SCORE>  (74) 
-15.096

>  <name>  (74) 
73

>  <ligand_id>  (74) 
73

>  <original_smiles>  (74) 
[H]c1c([H])c([H])c2c(c1[H])C([H])([H])C([H])([H])C([H])([H])C2([H])N([H])C(=O)C1([H])N(C(=O)C([H])(N([H])C(=O)C([H])(N([H])C([H])([H])[H])C([H])([H])[H])C(C([H])([H])[H])(C([H])([H])[H])C([H])([H])[H])C([H])([H])c2c([H])c(OC([H])([H])C3([H])C([H])([H])C(=O)C4([H])C([H])([H])C([H])(N([H])C(=O)N5C([H])([H])C([H])([H])C([H])([H])C([H])(n6nc(-c7c([H])c([H])c(Oc8c([H])c([H])c(F)c([H])c8F)c([H])c7[H])c(C(=O)N([H])[H])c6N([H])[H])C5([H])[H])C([H])([H])C([H])([H])C43C([H])([H])[H])c([H])c([H])c2C1([H])[H]

>  <smiles>  (74) 
[H]c1c([H])c([H])c2c(c1[H])C([H])([H])C([H])([H])C([H])([H])C2([H])N([H])C(=O)C1([H])N(C(=O)C([H])(N([H])C(=O)C([H])(N([H])C([H])([H])[H])C([H])([H])[H])C(C([H])([H])[H])(C([H])([H])[H])C([H])([H])[H])C([H])([H])c2c([H])c(OC([H])([H])C3([H])C([H])([H])C(=O)C4([H])C([H])([H])C([H])(N([H])C(=O)N5C([H])([H])C([H])([H])C([H])([H])C([H])(n6nc(-c7c([H])c([H])c(Oc8c([H])c([H])c(F)c([H])c8F)c([H])c7[H])c(C(=O)N([H])[H])c6N([H])[H])C5([H])[H])C([H])([H])C([H])([H])C43C([H])([H])[H])c([H])c([H])c2C1([H])[H]

$$$$
74:0:0
     RDKit          3D

 91100  0  0  1  0  0  0  0  0999 V2000
  -30.4480  -19.9910   18.5930 C   0  0  0  0  0  3  0  0  0  0  0  0
  -29.4240  -19.4120   21.0920 C   0  0  0  0  0  3  0  0  0  0  0  0
  -29.8660  -21.0660   19.3210 C   0  0  0  0  0  0  0  0  0  0  0  0
  -29.3460  -20.7910   20.5680 C   0  0  0  0  0  0  0  0  0  0  0  0
  -30.5090  -18.6350   19.0910 C   0  0  0  0  0  0  0  0  0  0  0  0
  -30.0150  -18.2520   20.3870 C   0  0  0  0  0  0  0  0  0  0  0  0
  -29.6700  -22.5660   18.9100 C   0  0  0  0  0  2  0  0  0  0  0  0
  -29.1440  -23.4220   20.1500 C   0  0  0  0  0  3  0  0  0  0  0  0
  -28.7100  -22.1470   21.1110 C   0  0  2  0  0  0  0  0  0  0  0  0
  -31.0950  -17.5910   18.1590 C   0  0  0  0  0  1  0  0  0  0  0  0
  -29.1800  -22.3970   22.5530 C   0  0  0  0  0  1  0  0  0  0  0  0
  -27.1800  -21.9730   21.1030 C   0  0  0  0  0  1  0  0  0  0  0  0
  -29.9710  -16.6870   20.9930 C   0  0  0  0  0  2  0  0  0  0  0  0
  -30.8410  -15.2860   20.6660 C   0  0  0  0  0  0  0  0  0  0  0  0
  -30.8180  -12.8960   19.7670 C   0  0  0  0  0  2  0  0  0  0  0  0
  -29.9560  -12.8280   18.4830 C   0  0  0  0  0  2  0  0  0  0  0  0
  -28.4680  -12.6230   18.8290 C   0  0  0  0  0  2  0  0  0  0  0  0
  -27.9940  -13.5690   19.9620 C   0  0  0  0  0  3  0  0  0  0  0  0
  -28.9800  -13.5940   21.1480 C   0  0  0  0  0  2  0  0  0  0  0  0
  -30.2900  -14.0010   20.6220 N   0  0  0  0  0  0  0  0  0  0  0  0
  -32.0470  -15.3550   20.3930 O   0  0  0  0  0  0  0  0  0  0  0  0
  -25.5760  -14.1680   20.5530 C   0  0  0  0  0  0  0  0  0  0  0  0
  -24.4880  -13.4040   20.8720 C   0  0  0  0  0  0  0  0  0  0  0  0
  -24.9450  -12.0510   20.8870 C   0  0  0  0  0  0  0  0  0  0  0  0
  -26.6270  -13.2820   20.3860 N   0  0  0  0  0  0  0  0  0  0  0  0
  -26.2530  -12.0040   20.6530 N   0  0  0  0  0  0  0  0  0  0  0  0
  -24.2010  -10.7950   21.0550 C   0  0  0  0  0  0  0  0  0  0  0  0
  -24.5710   -9.8390   22.0260 C   0  0  0  0  0  3  0  0  0  0  0  0
  -23.8260   -8.6490   22.1800 C   0  0  0  0  0  3  0  0  0  0  0  0
  -22.6970   -8.4070   21.3610 C   0  0  0  0  0  0  0  0  0  0  0  0
  -22.3470   -9.3510   20.3810 C   0  0  0  0  0  3  0  0  0  0  0  0
  -23.0920  -10.5320   20.2250 C   0  0  0  0  0  3  0  0  0  0  0  0
  -21.9310   -7.2690   21.4220 O   0  0  0  0  0  0  0  0  0  0  0  0
  -21.8100   -6.5430   22.5800 C   0  0  0  0  0  0  0  0  0  0  0  0
  -21.3040   -7.1140   23.7680 C   0  0  0  0  0  3  0  0  0  0  0  0
  -21.1310   -6.3150   24.9150 C   0  0  0  0  0  3  0  0  0  0  0  0
  -21.4540   -4.9450   24.8750 C   0  0  0  0  0  0  0  0  0  0  0  0
  -21.9520   -4.3730   23.6920 C   0  0  0  0  0  3  0  0  0  0  0  0
  -22.1260   -5.1690   22.5460 C   0  0  0  0  0  0  0  0  0  0  0  0
  -22.5870   -4.6090   21.4020 F   0  0  0  0  0  0  0  0  0  0  0  0
  -21.2810   -4.1750   25.9750 F   0  0  0  0  0  0  0  0  0  0  0  0
  -23.0800  -13.8920   21.0540 C   0  0  0  0  0  0  0  0  0  0  0  0
  -22.3000  -13.2170   21.8910 N   0  0  0  0  0  0  0  0  0  0  0  0
  -22.6780  -14.9080   20.4880 O   0  0  0  0  0  0  0  0  0  0  0  0
  -22.6380  -12.3960   22.3730 H   0  0  0  0  0  0  0  0  0  0  0  0
  -21.3530  -13.5260   22.0560 H   0  0  0  0  0  0  0  0  0  0  0  0
  -25.7570  -15.5360   20.3670 N   0  0  0  0  0  0  0  0  0  0  0  0
  -24.9860  -16.1930   20.4220 H   0  0  0  0  0  0  0  0  0  0  0  0
  -26.6220  -15.9680   20.0710 H   0  0  0  0  0  0  0  0  0  0  0  0
  -28.1650  -24.8060   19.8980 C   0  0  0  0  0  2  0  0  0  0  0  0
  -28.4580  -26.3500   19.9530 O   0  0  0  0  0  0  0  0  0  0  0  0
  -24.7320  -31.8590   23.2070 C   0  0  0  0  0  0  0  0  0  0  0  0
  -27.3890  -27.3330   19.9420 C   0  0  0  0  0  0  0  0  0  0  0  0
  -23.5560  -30.5250   21.5020 C   0  0  0  0  0  3  0  0  0  0  0  0
  -25.0300  -29.0510   19.9980 C   0  0  0  0  0  0  0  0  0  0  0  0
  -26.1060  -30.8410   21.3480 C   0  0  0  0  0  2  0  0  0  0  0  0
  -26.2050  -29.4840   20.6260 C   0  0  0  0  0  0  0  0  0  0  0  0
  -27.3850  -28.6440   20.5780 C   0  0  0  0  0  3  0  0  0  0  0  0
  -26.1820  -27.0110   19.2800 C   0  0  0  0  0  3  0  0  0  0  0  0
  -25.0340  -27.8300   19.3100 C   0  0  0  0  0  3  0  0  0  0  0  0
  -23.7870  -29.9220   20.0920 C   0  0  0  0  0  2  0  0  0  0  0  0
  -24.8180  -31.0950   22.0740 N   0  0  0  0  0  0  0  0  0  0  0  0
  -23.6420  -32.0960   23.7490 O   0  0  0  0  0  0  0  0  0  0  0  0
  -22.8970  -29.4580   22.4140 C   0  0  0  0  0  0  0  0  0  0  0  0
  -21.5700  -29.2790   22.2900 N   0  0  0  0  0  0  0  0  0  0  0  0
  -23.5830  -28.7970   23.1980 O   0  0  0  0  0  0  0  0  0  0  0  0
  -21.0710  -29.8660   21.6360 H   0  0  0  0  0  0  0  0  0  0  0  0
  -18.2030  -28.0300   22.7780 C   0  0  0  0  0  0  0  0  0  0  0  0
  -20.7660  -28.2920   23.0160 C   0  0  0  0  0  3  0  0  0  0  0  0
  -20.8630  -26.8980   22.3530 C   0  0  0  0  0  2  0  0  0  0  0  0
  -19.7450  -26.6310   21.3400 C   0  0  0  0  0  2  0  0  0  0  0  0
  -18.3740  -26.7270   22.0170 C   0  0  0  0  0  2  0  0  0  0  0  0
  -19.3250  -28.7720   23.2330 C   0  0  0  0  0  0  0  0  0  0  0  0
  -19.1080  -29.9930   23.9100 C   0  0  0  0  0  3  0  0  0  0  0  0
  -17.8040  -30.4720   24.1320 C   0  0  0  0  0  3  0  0  0  0  0  0
  -16.6970  -29.7260   23.6910 C   0  0  0  0  0  3  0  0  0  0  0  0
  -16.8970  -28.5060   23.0200 C   0  0  0  0  0  3  0  0  0  0  0  0
  -25.9990  -32.4880   23.8640 C   0  0  0  0  0  3  0  0  0  0  0  0
  -25.6630  -33.8670   24.2540 N   0  0  0  0  0  0  0  0  0  0  0  0
  -25.9630  -34.9590   23.5370 C   0  0  0  0  0  0  0  0  0  0  0  0
  -26.6160  -34.9110   22.4930 O   0  0  0  0  0  0  0  0  0  0  0  0
  -25.0800  -33.9740   25.0710 H   0  0  0  0  0  0  0  0  0  0  0  0
  -24.1850  -36.7270   23.3070 C   0  0  0  0  0  1  0  0  0  0  0  0
  -25.4590  -36.3180   24.0630 C   0  0  0  0  0  3  0  0  0  0  0  0
  -27.5950  -37.2250   24.8680 C   0  0  0  0  0  1  0  0  0  0  0  0
  -26.4640  -37.3990   23.9600 N   0  0  0  0  0  0  0  0  0  0  0  0
  -26.0410  -38.3030   24.1500 H   0  0  0  0  0  0  0  0  0  0  0  0
  -26.5150  -31.6750   25.1150 C   0  0  1  0  0  0  0  0  0  0  0  0
  -25.4190  -31.3830   26.1660 C   0  0  0  0  0  1  0  0  0  0  0  0
  -27.1190  -30.3200   24.6790 C   0  0  0  0  0  1  0  0  0  0  0  0
  -27.6520  -32.4570   25.8150 C   0  0  0  0  0  1  0  0  0  0  0  0
  1  5  2  0
  1  3  1  0
  3  4  2  0
  4  2  1  0
  4  9  1  0
  5  6  1  0
  6 13  1  0
  6  2  2  0
  7  3  1  0
  7  8  1  0
  8 50  1  0
  8  9  1  0
  9 11  1  1
 10  5  1  0
 12  9  1  0
 14 13  1  0
 15 20  1  0
 16 17  1  0
 16 15  1  0
 18 17  1  0
 18 25  1  0
 18 19  1  0
 20 14  1  0
 20 19  1  0
 21 14  2  0
 22 23  2  0
 23 24  1  0
 23 42  1  0
 24 27  1  0
 25 22  1  0
 25 26  1  0
 26 24  2  0
 27 28  1  0
 28 29  2  0
 30 33  1  0
 30 29  1  0
 31 30  2  0
 32 31  1  0
 32 27  2  0
 33 34  1  0
 34 35  1  0
 35 36  2  0
 37 36  1  0
 37 41  1  0
 38 37  2  0
 39 34  2  0
 39 38  1  0
 40 39  1  0
 42 43  1  0
 43 46  1  0
 43 45  1  0
 44 42  2  0
 47 48  1  0
 47 22  1  0
 49 47  1  0
 50 51  1  0
 52 63  2  0
 53 51  1  0
 53 58  1  0
 54 62  1  0
 54 64  1  0
 55 61  1  0
 55 57  1  0
 56 62  1  0
 57 56  1  0
 58 57  2  0
 59 60  1  0
 59 53  2  0
 60 55  2  0
 61 54  1  0
 62 52  1  0
 64 66  2  0
 65 64  1  0
 67 65  1  0
 68 77  2  0
 68 73  1  0
 69 65  1  0
 69 73  1  0
 70 69  1  0
 71 72  1  0
 71 70  1  0
 72 68  1  0
 73 74  2  0
 74 75  1  0
 76 75  2  0
 77 76  1  0
 78 52  1  0
 78 79  1  0
 78 88  1  0
 79 82  1  0
 80 84  1  0
 80 79  1  0
 81 80  2  0
 84 83  1  0
 86 84  1  0
 86 87  1  0
 86 85  1  0
 88 91  1  1
 88 89  1  0
 90 88  1  0
M  ISO  4  13 100  14 100  50 101  51 101
M  END
>  <TORSDO>  (75) 
F 18

>  <SCORE>  (75) 
-14.602

>  <name>  (75) 
74

>  <ligand_id>  (75) 
74

>  <original_smiles>  (75) 
[H]c1c([H])c([H])c2c(c1[H])C([H])([H])C([H])([H])C([H])([H])C2([H])N([H])C(=O)C1([H])N(C(=O)C([H])(N([H])C(=O)C([H])(N([H])C([H])([H])[H])C([H])([H])[H])C(C([H])([H])[H])(C([H])([H])[H])C([H])([H])[H])C([H])([H])c2c([H])c(OC([H])([H])C3([H])C([H])([H])c4c([H])c(C([H])([H])[H])c(C([H])([H])C(=O)N5C([H])([H])C([H])([H])C([H])([H])C([H])(n6nc(-c7c([H])c([H])c(Oc8c([H])c([H])c(F)c([H])c8F)c([H])c7[H])c(C(=O)N([H])[H])c6N([H])[H])C5([H])[H])c([H])c4C3(C([H])([H])[H])C([H])([H])[H])c([H])c([H])c2C1([H])[H]

>  <smiles>  (75) 
[H]c1c([H])c([H])c2c(c1[H])C([H])([H])C([H])([H])C([H])([H])C2([H])N([H])C(=O)C1([H])N(C(=O)C([H])(N([H])C(=O)C([H])(N([H])C([H])([H])[H])C([H])([H])[H])C(C([H])([H])[H])(C([H])([H])[H])C([H])([H])[H])C([H])([H])c2c([H])c(OC([H])([H])C3([H])C([H])([H])c4c([H])c(C([H])([H])[H])c(C([H])([H])C(=O)N5C([H])([H])C([H])([H])C([H])([H])C([H])(n6nc(-c7c([H])c([H])c(Oc8c([H])c([H])c(F)c([H])c8F)c([H])c7[H])c(C(=O)N([H])[H])c6N([H])[H])C5([H])[H])c([H])c4C3(C([H])([H])[H])C([H])([H])[H])c([H])c([H])c2C1([H])[H]

$$$$
75:0:0
     RDKit          3D

 89 98  0  0  1  0  0  0  0  0999 V2000
  -28.2360  -24.2220   21.8390 C   0  0  0  0  0  3  0  0  0  0  0  0
  -28.6380  -23.0620   19.7970 C   0  0  0  0  0  3  0  0  0  0  0  0
  -28.4480  -22.9530   22.4390 C   0  0  0  0  0  3  0  0  0  0  0  0
  -28.3160  -24.4440   20.4510 C   0  0  0  0  0  0  0  0  0  0  0  0
  -28.8540  -21.6740   20.4760 C   0  0  0  0  0  0  0  0  0  0  0  0
  -28.7330  -21.7710   21.8190 N   0  0  0  0  0  0  0  0  0  0  0  0
  -30.5040  -15.5800   20.1090 C   0  0  0  0  0  0  0  0  0  0  0  0
  -30.5190  -13.1040   19.2610 C   0  0  0  0  0  2  0  0  0  0  0  0
  -29.5780  -12.8010   18.0670 C   0  0  0  0  0  2  0  0  0  0  0  0
  -28.1510  -12.4960   18.5570 C   0  0  0  0  0  2  0  0  0  0  0  0
  -27.6960  -13.4770   19.6650 C   0  0  0  0  0  3  0  0  0  0  0  0
  -28.7690  -13.7100   20.7480 C   0  0  0  0  0  2  0  0  0  0  0  0
  -29.9440  -14.2600   20.0490 N   0  0  0  0  0  0  0  0  0  0  0  0
  -31.7430  -15.5410   20.0240 O   0  0  0  0  0  0  0  0  0  0  0  0
  -28.2510  -18.2150   18.2840 C   0  0  0  0  0  2  0  0  0  0  0  0
  -28.7450  -19.6800   18.5070 C   0  0  0  0  0  2  0  0  0  0  0  0
  -29.2540  -17.0500   18.5810 C   0  0  0  0  0  2  0  0  0  0  0  0
  -29.8990  -18.4870   20.4940 C   0  0  0  0  0  2  0  0  0  0  0  0
  -28.9520  -19.9510   19.9970 C   0  0  0  0  0  3  0  0  0  0  0  0
  -29.7520  -16.8920   19.9700 N   0  0  0  0  0  0  0  0  0  0  0  0
  -25.3570  -14.0090   20.5140 C   0  0  0  0  0  0  0  0  0  0  0  0
  -24.3070  -13.2210   20.8950 C   0  0  0  0  0  0  0  0  0  0  0  0
  -24.7770  -11.8730   20.8220 C   0  0  0  0  0  0  0  0  0  0  0  0
  -26.3920  -13.1410   20.2200 N   0  0  0  0  0  0  0  0  0  0  0  0
  -26.0600  -11.8480   20.4730 N   0  0  0  0  0  0  0  0  0  0  0  0
  -24.0580  -10.6050   21.0050 C   0  0  0  0  0  0  0  0  0  0  0  0
  -24.4830   -9.6410   21.9440 C   0  0  0  0  0  3  0  0  0  0  0  0
  -23.7600   -8.4410   22.1160 C   0  0  0  0  0  3  0  0  0  0  0  0
  -22.5980   -8.1960   21.3490 C   0  0  0  0  0  0  0  0  0  0  0  0
  -22.1910   -9.1490   20.3970 C   0  0  0  0  0  3  0  0  0  0  0  0
  -22.9150  -10.3400   20.2230 C   0  0  0  0  0  3  0  0  0  0  0  0
  -21.8480   -7.0470   21.4290 O   0  0  0  0  0  0  0  0  0  0  0  0
  -21.7460   -6.3360   22.5980 C   0  0  0  0  0  0  0  0  0  0  0  0
  -21.2030   -6.9030   23.7710 C   0  0  0  0  0  3  0  0  0  0  0  0
  -21.0530   -6.1150   24.9290 C   0  0  0  0  0  3  0  0  0  0  0  0
  -21.4340   -4.7600   24.9140 C   0  0  0  0  0  0  0  0  0  0  0  0
  -21.9690   -4.1920   23.7450 C   0  0  0  0  0  3  0  0  0  0  0  0
  -22.1210   -4.9770   22.5890 C   0  0  0  0  0  0  0  0  0  0  0  0
  -22.6180   -4.4190   21.4590 F   0  0  0  0  0  0  0  0  0  0  0  0
  -21.2830   -4.0000   26.0240 F   0  0  0  0  0  0  0  0  0  0  0  0
  -22.9180  -13.6890   21.2080 C   0  0  0  0  0  0  0  0  0  0  0  0
  -22.2080  -12.9690   22.0700 N   0  0  0  0  0  0  0  0  0  0  0  0
  -22.4700  -14.7300   20.7260 O   0  0  0  0  0  0  0  0  0  0  0  0
  -22.5840  -12.1280   22.4820 H   0  0  0  0  0  0  0  0  0  0  0  0
  -21.2760  -13.2650   22.3230 H   0  0  0  0  0  0  0  0  0  0  0  0
  -25.5140  -15.3850   20.3660 N   0  0  0  0  0  0  0  0  0  0  0  0
  -24.7550  -16.0370   20.5260 H   0  0  0  0  0  0  0  0  0  0  0  0
  -26.3670  -15.8350   20.0570 H   0  0  0  0  0  0  0  0  0  0  0  0
  -28.2470  -25.9400   20.0140 O   0  0  0  0  0  0  0  0  0  0  0  0
  -24.6310  -31.9220   23.1700 C   0  0  0  0  0  0  0  0  0  0  0  0
  -27.2100  -27.0300   20.1210 C   0  0  0  0  0  0  0  0  0  0  0  0
  -23.4400  -30.5180   21.5390 C   0  0  0  0  0  3  0  0  0  0  0  0
  -24.8930  -28.9220   20.1060 C   0  0  0  0  0  0  0  0  0  0  0  0
  -26.0060  -30.7420   21.3750 C   0  0  0  0  0  2  0  0  0  0  0  0
  -26.0850  -29.3260   20.7220 C   0  0  0  0  0  0  0  0  0  0  0  0
  -27.2360  -28.4030   20.7010 C   0  0  0  0  0  3  0  0  0  0  0  0
  -25.9820  -26.7960   19.4590 C   0  0  0  0  0  3  0  0  0  0  0  0
  -24.8680  -27.6780   19.4560 C   0  0  0  0  0  3  0  0  0  0  0  0
  -23.6680  -29.8380   20.1610 C   0  0  0  0  0  2  0  0  0  0  0  0
  -24.7150  -31.0910   22.0810 N   0  0  0  0  0  0  0  0  0  0  0  0
  -23.5430  -32.1980   23.7020 O   0  0  0  0  0  0  0  0  0  0  0  0
  -22.7630  -29.5130   22.5090 C   0  0  0  0  0  0  0  0  0  0  0  0
  -21.4380  -29.3130   22.3780 N   0  0  0  0  0  0  0  0  0  0  0  0
  -23.4390  -28.9140   23.3490 O   0  0  0  0  0  0  0  0  0  0  0  0
  -20.9430  -29.8480   21.6780 H   0  0  0  0  0  0  0  0  0  0  0  0
  -18.0890  -28.0050   22.8760 C   0  0  0  0  0  0  0  0  0  0  0  0
  -20.6370  -28.3570   23.1510 C   0  0  0  0  0  3  0  0  0  0  0  0
  -20.7870  -26.9230   22.5900 C   0  0  0  0  0  2  0  0  0  0  0  0
  -19.7030  -26.5570   21.5720 C   0  0  0  0  0  2  0  0  0  0  0  0
  -18.3130  -26.6600   22.2080 C   0  0  0  0  0  2  0  0  0  0  0  0
  -19.1790  -28.8090   23.3050 C   0  0  0  0  0  0  0  0  0  0  0  0
  -18.9110  -30.0630   23.8940 C   0  0  0  0  0  3  0  0  0  0  0  0
  -17.5890  -30.5170   24.0570 C   0  0  0  0  0  3  0  0  0  0  0  0
  -16.5140  -29.7120   23.6420 C   0  0  0  0  0  3  0  0  0  0  0  0
  -16.7650  -28.4580   23.0570 C   0  0  0  0  0  3  0  0  0  0  0  0
  -25.8980  -32.5810   23.7950 C   0  0  0  0  0  3  0  0  0  0  0  0
  -25.5690  -33.9800   24.1260 N   0  0  0  0  0  0  0  0  0  0  0  0
  -25.9000  -35.0450   23.3840 C   0  0  0  0  0  0  0  0  0  0  0  0
  -26.5760  -34.9530   22.3560 O   0  0  0  0  0  0  0  0  0  0  0  0
  -24.9690  -34.1230   24.9250 H   0  0  0  0  0  0  0  0  0  0  0  0
  -24.1880  -36.8560   23.0180 C   0  0  0  0  0  1  0  0  0  0  0  0
  -25.4080  -36.4290   23.8520 C   0  0  0  0  0  3  0  0  0  0  0  0
  -27.5150  -37.3090   24.7590 C   0  0  0  0  0  1  0  0  0  0  0  0
  -26.4460  -37.4810   23.7780 N   0  0  0  0  0  0  0  0  0  0  0  0
  -26.0390  -38.4020   23.9090 H   0  0  0  0  0  0  0  0  0  0  0  0
  -26.4140  -31.8290   25.0840 C   0  0  1  0  0  0  0  0  0  0  0  0
  -25.3180  -31.5920   26.1500 C   0  0  0  0  0  1  0  0  0  0  0  0
  -27.0140  -30.4520   24.7210 C   0  0  0  0  0  1  0  0  0  0  0  0
  -27.5540  -32.6430   25.7430 C   0  0  0  0  0  1  0  0  0  0  0  0
  1  3  1  0
  2  4  1  0
  2  5  2  0
  4  1  2  0
  5  6  1  0
  6  3  2  0
  8 13  1  0
  9 10  1  0
  9  8  1  0
 11 10  1  0
 11 24  1  0
 11 12  1  0
 13  7  1  0
 13 12  1  0
 14  7  2  0
 15 16  1  0
 15 17  1  0
 16 19  1  0
 17 20  1  0
 19  5  1  0
 19 18  1  0
 20  7  1  0
 20 18  1  0
 21 22  2  0
 22 41  1  0
 23 22  1  0
 23 26  1  0
 24 25  1  0
 24 21  1  0
 25 23  2  0
 26 27  1  0
 27 28  2  0
 29 32  1  0
 29 28  1  0
 30 29  2  0
 31 30  1  0
 31 26  2  0
 32 33  1  0
 33 34  1  0
 34 35  2  0
 36 35  1  0
 36 40  1  0
 37 36  2  0
 38 33  2  0
 38 37  1  0
 39 38  1  0
 41 42  1  0
 42 45  1  0
 42 44  1  0
 43 41  2  0
 46 21  1  0
 46 47  1  0
 48 46  1  0
 49 51  1  0
 49  4  1  0
 50 61  2  0
 51 56  1  0
 52 60  1  0
 52 62  1  0
 53 59  1  0
 53 55  1  0
 54 60  1  0
 55 54  1  0
 56 55  2  0
 57 51  2  0
 58 57  1  0
 58 53  2  0
 59 52  1  0
 60 50  1  0
 62 64  2  0
 63 62  1  0
 65 63  1  0
 66 75  2  0
 66 71  1  0
 67 63  1  0
 67 71  1  0
 68 67  1  0
 69 70  1  0
 69 68  1  0
 70 66  1  0
 71 72  2  0
 72 73  1  0
 74 73  2  0
 75 74  1  0
 76 50  1  0
 76 77  1  0
 76 86  1  0
 77 80  1  0
 78 82  1  0
 78 77  1  0
 79 78  2  0
 82 81  1  0
 84 82  1  0
 84 85  1  0
 84 83  1  0
 86 89  1  1
 86 87  1  0
 88 86  1  0
M  ISO  4   4 101   7 100  20 100  49 101
M  END
>  <TORSDO>  (76) 
F 16

>  <SCORE>  (76) 
-15.803

>  <name>  (76) 
75

>  <ligand_id>  (76) 
75

>  <original_smiles>  (76) 
[H]c1nc(C2([H])C([H])([H])N(C(=O)N3C([H])([H])C([H])([H])C([H])([H])C([H])(n4nc(-c5c([H])c([H])c(Oc6c([H])c([H])c(F)c([H])c6F)c([H])c5[H])c(C(=O)N([H])[H])c4N([H])[H])C3([H])[H])C([H])([H])C([H])([H])C2([H])[H])c([H])c(Oc2c([H])c([H])c3c(c2[H])C([H])([H])N(C(=O)C([H])(N([H])C(=O)C([H])(N([H])C([H])([H])[H])C([H])([H])[H])C(C([H])([H])[H])(C([H])([H])[H])C([H])([H])[H])C([H])(C(=O)N([H])C2([H])c4c([H])c([H])c([H])c([H])c4C([H])([H])C([H])([H])C2([H])[H])C3([H])[H])c1[H]

>  <smiles>  (76) 
[H]c1nc(C2([H])C([H])([H])N(C(=O)N3C([H])([H])C([H])([H])C([H])([H])C([H])(n4nc(-c5c([H])c([H])c(Oc6c([H])c([H])c(F)c([H])c6F)c([H])c5[H])c(C(=O)N([H])[H])c4N([H])[H])C3([H])[H])C([H])([H])C([H])([H])C2([H])[H])c([H])c(Oc2c([H])c([H])c3c(c2[H])C([H])([H])N(C(=O)C([H])(N([H])C(=O)C([H])(N([H])C([H])([H])[H])C([H])([H])[H])C(C([H])([H])[H])(C([H])([H])[H])C([H])([H])[H])C([H])(C(=O)N([H])C2([H])c4c([H])c([H])c([H])c([H])c4C([H])([H])C([H])([H])C2([H])[H])C3([H])[H])c1[H]

$$$$
76:0:0
     RDKit          3D

 95103  0  0  1  0  0  0  0  0999 V2000
  -27.6240  -21.9480   20.8500 C   0  0  0  0  0  3  0  0  0  0  0  0
  -26.6610  -22.3770   21.7590 C   0  0  0  0  0  3  0  0  0  0  0  0
  -27.0030  -24.6410   21.0320 C   0  0  0  0  0  3  0  0  0  0  0  0
  -28.3990  -22.7430   19.9650 C   0  0  0  0  0  0  0  0  0  0  0  0
  -27.9320  -24.3870   19.9820 C   0  0  0  0  0  0  0  0  0  0  0  0
  -26.3820  -23.7230   21.8740 C   0  0  0  0  0  0  0  0  0  0  0  0
  -25.4820  -24.1510   22.7920 F   0  0  0  0  0  0  0  0  0  0  0  0
  -28.0280  -25.9210   19.4310 O   0  0  0  0  0  0  0  0  0  0  0  0
  -24.7030  -32.0190   23.1330 C   0  0  0  0  0  0  0  0  0  0  0  0
  -27.0940  -27.1850   19.6020 C   0  0  0  0  0  0  0  0  0  0  0  0
  -23.4370  -30.7290   21.4690 C   0  0  0  0  0  3  0  0  0  0  0  0
  -24.8130  -29.2150   19.8460 C   0  0  0  0  0  0  0  0  0  0  0  0
  -26.0020  -30.9070   21.2070 C   0  0  0  0  0  2  0  0  0  0  0  0
  -26.0420  -29.5240   20.4410 C   0  0  0  0  0  0  0  0  0  0  0  0
  -27.1630  -28.5380   20.2970 C   0  0  0  0  0  3  0  0  0  0  0  0
  -25.8290  -27.1170   18.9620 C   0  0  0  0  0  3  0  0  0  0  0  0
  -24.7450  -28.0400   19.0820 C   0  0  0  0  0  3  0  0  0  0  0  0
  -23.6010  -30.1450   20.0370 C   0  0  0  0  0  2  0  0  0  0  0  0
  -24.7420  -31.2490   21.9910 N   0  0  0  0  0  0  0  0  0  0  0  0
  -23.6380  -32.2630   23.7260 O   0  0  0  0  0  0  0  0  0  0  0  0
  -22.7880  -29.6700   22.4040 C   0  0  0  0  0  0  0  0  0  0  0  0
  -21.4620  -29.4590   22.3010 N   0  0  0  0  0  0  0  0  0  0  0  0
  -23.4920  -29.0410   23.1960 O   0  0  0  0  0  0  0  0  0  0  0  0
  -20.9380  -30.0190   21.6450 H   0  0  0  0  0  0  0  0  0  0  0  0
  -18.1530  -28.0380   22.8080 C   0  0  0  0  0  0  0  0  0  0  0  0
  -20.7000  -28.4420   23.0410 C   0  0  0  0  0  3  0  0  0  0  0  0
  -20.8740  -27.0450   22.4010 C   0  0  0  0  0  2  0  0  0  0  0  0
  -19.7730  -26.7060   21.3910 C   0  0  0  0  0  2  0  0  0  0  0  0
  -18.3970  -26.7370   22.0620 C   0  0  0  0  0  2  0  0  0  0  0  0
  -19.2330  -28.8470   23.2530 C   0  0  0  0  0  0  0  0  0  0  0  0
  -18.9460  -30.0610   23.9160 C   0  0  0  0  0  3  0  0  0  0  0  0
  -17.6150  -30.4650   24.1360 C   0  0  0  0  0  3  0  0  0  0  0  0
  -16.5520  -29.6540   23.7050 C   0  0  0  0  0  3  0  0  0  0  0  0
  -16.8230  -28.4410   23.0470 C   0  0  0  0  0  3  0  0  0  0  0  0
  -25.9920  -32.6430   23.7470 C   0  0  0  0  0  3  0  0  0  0  0  0
  -26.5440  -31.8260   24.9790 C   0  0  1  0  0  0  0  0  0  0  0  0
  -25.4830  -31.5580   26.0740 C   0  0  0  0  0  1  0  0  0  0  0  0
  -27.1060  -30.4590   24.5320 C   0  0  0  0  0  1  0  0  0  0  0  0
  -27.7220  -32.5910   25.6280 C   0  0  0  0  0  1  0  0  0  0  0  0
  -25.6860  -34.0260   24.1660 N   0  0  0  0  0  0  0  0  0  0  0  0
  -26.0130  -35.1330   23.4830 C   0  0  0  0  0  0  0  0  0  0  0  0
  -26.6630  -35.0970   22.4370 O   0  0  0  0  0  0  0  0  0  0  0  0
  -25.1170  -34.1270   24.9940 H   0  0  0  0  0  0  0  0  0  0  0  0
  -24.3020  -36.9720   23.2900 C   0  0  0  0  0  1  0  0  0  0  0  0
  -25.5520  -36.4950   24.0480 C   0  0  0  0  0  3  0  0  0  0  0  0
  -27.7050  -37.3040   24.9100 C   0  0  0  0  0  1  0  0  0  0  0  0
  -26.5950  -37.5430   23.9910 N   0  0  0  0  0  0  0  0  0  0  0  0
  -26.2010  -38.4560   24.2030 H   0  0  0  0  0  0  0  0  0  0  0  0
  -29.3650  -21.2750   19.2930 C   0  0  0  0  0  1  0  0  0  0  0  0
  -31.7350  -19.8350   19.9650 C   0  0  0  0  0  2  0  0  0  0  0  0
  -30.3730  -19.6690   21.5350 C   0  0  0  0  0  2  0  0  0  0  0  0
  -31.6420  -20.4980   21.3410 C   0  0  0  0  0  3  0  0  0  0  0  0
  -30.1980  -19.6010   19.9910 C   0  0  0  0  0  3  0  0  0  0  0  0
  -30.8440  -16.4310   19.8770 C   0  0  0  0  0  0  0  0  0  0  0  0
  -31.0150  -13.8160   19.2800 C   0  0  0  0  0  2  0  0  0  0  0  0
  -30.1540  -13.2190   18.1310 C   0  0  0  0  0  2  0  0  0  0  0  0
  -28.7440  -12.8640   18.6250 C   0  0  0  0  0  2  0  0  0  0  0  0
  -28.1820  -13.9670   19.5480 C   0  0  0  0  0  3  0  0  0  0  0  0
  -29.1910  -14.4520   20.6170 C   0  0  0  0  0  2  0  0  0  0  0  0
  -30.3330  -15.0530   19.8840 N   0  0  0  0  0  0  0  0  0  0  0  0
  -32.0880  -16.3460   19.8440 O   0  0  0  0  0  0  0  0  0  0  0  0
  -30.0910  -17.8150   19.7300 N   0  0  0  0  0  0  0  0  0  0  0  0
  -29.1240  -17.5880   19.5390 H   0  0  0  0  0  0  0  0  0  0  0  0
  -25.8600  -14.5420   20.4000 C   0  0  0  0  0  0  0  0  0  0  0  0
  -24.7840  -13.7830   20.7540 C   0  0  0  0  0  0  0  0  0  0  0  0
  -25.2090  -12.4210   20.6560 C   0  0  0  0  0  0  0  0  0  0  0  0
  -26.8700  -13.6500   20.0930 N   0  0  0  0  0  0  0  0  0  0  0  0
  -26.4940  -12.3620   20.3160 N   0  0  0  0  0  0  0  0  0  0  0  0
  -24.4430  -11.1750   20.8050 C   0  0  0  0  0  0  0  0  0  0  0  0
  -24.8180  -10.1850   21.7400 C   0  0  0  0  0  3  0  0  0  0  0  0
  -24.0520   -9.0070   21.8820 C   0  0  0  0  0  3  0  0  0  0  0  0
  -22.8970   -8.8120   21.0890 C   0  0  0  0  0  0  0  0  0  0  0  0
  -22.5410   -9.7900   20.1430 C   0  0  0  0  0  3  0  0  0  0  0  0
  -23.3080  -10.9580   19.9990 C   0  0  0  0  0  3  0  0  0  0  0  0
  -22.1090   -7.6880   21.1390 O   0  0  0  0  0  0  0  0  0  0  0  0
  -21.9210   -6.9910   22.3060 C   0  0  0  0  0  0  0  0  0  0  0  0
  -21.3550   -7.5950   23.4490 C   0  0  0  0  0  3  0  0  0  0  0  0
  -21.1150   -6.8250   24.6060 C   0  0  0  0  0  3  0  0  0  0  0  0
  -21.4320   -5.4530   24.6170 C   0  0  0  0  0  0  0  0  0  0  0  0
  -21.9890   -4.8490   23.4770 C   0  0  0  0  0  3  0  0  0  0  0  0
  -22.2290   -5.6160   22.3230 C   0  0  0  0  0  0  0  0  0  0  0  0
  -22.7470   -5.0250   21.2200 F   0  0  0  0  0  0  0  0  0  0  0  0
  -21.1930   -4.7120   25.7250 F   0  0  0  0  0  0  0  0  0  0  0  0
  -23.4050  -14.2910   21.0610 C   0  0  0  0  0  0  0  0  0  0  0  0
  -22.6740  -13.5970   21.9260 N   0  0  0  0  0  0  0  0  0  0  0  0
  -22.9890  -15.3400   20.5720 O   0  0  0  0  0  0  0  0  0  0  0  0
  -23.0260  -12.7500   22.3460 H   0  0  0  0  0  0  0  0  0  0  0  0
  -21.7490  -13.9200   22.1710 H   0  0  0  0  0  0  0  0  0  0  0  0
  -26.0600  -15.9140   20.2790 N   0  0  0  0  0  0  0  0  0  0  0  0
  -25.3130  -16.5820   20.4360 H   0  0  0  0  0  0  0  0  0  0  0  0
  -26.9120  -16.3410   19.9420 H   0  0  0  0  0  0  0  0  0  0  0  0
  -32.7490  -20.1710   22.2710 N   0  0  0  0  0  4  0  0  0  0  0  0
  -32.9400  -19.1840   22.2990 H   0  0  0  0  0  0  0  0  0  0  0  0
  -32.5330  -20.4660   23.2070 H   0  0  0  0  0  0  0  0  0  0  0  0
  -33.5950  -20.6400   22.0020 H   0  0  0  0  0  0  0  0  0  0  0  0
  1  2  1  0
  2  6  2  0
  3  6  1  0
  4  5  1  0
  4  1  2  0
  5  3  2  0
  6  7  1  0
  8 10  1  0
  8  5  1  0
  9 20  2  0
 10 15  1  0
 11 19  1  0
 11 21  1  0
 12 18  1  0
 12 14  1  0
 13 19  1  0
 14 13  1  0
 15 14  2  0
 16 17  1  0
 16 10  2  0
 17 12  2  0
 18 11  1  0
 19  9  1  0
 21 23  2  0
 22 21  1  0
 24 22  1  0
 25 34  2  0
 25 30  1  0
 26 22  1  0
 26 30  1  0
 27 26  1  0
 28 29  1  0
 28 27  1  0
 29 25  1  0
 30 31  2  0
 31 32  1  0
 33 32  2  0
 34 33  1  0
 35  9  1  0
 35 40  1  0
 35 36  1  0
 36 39  1  1
 36 37  1  0
 38 36  1  0
 40 43  1  0
 41 45  1  0
 41 40  1  0
 42 41  2  0
 45 44  1  0
 47 45  1  0
 47 48  1  0
 47 46  1  0
 49  4  1  0
 50 53  1  0
 50 52  1  0
 52 51  1  0
 52 92  1  0
 53 62  1  0
 53 51  1  0
 54 60  1  0
 55 60  1  0
 56 57  1  0
 56 55  1  0
 58 57  1  0
 58 67  1  0
 58 59  1  0
 60 59  1  0
 61 54  2  0
 62 54  1  0
 63 62  1  0
 64 65  2  0
 65 84  1  0
 66 65  1  0
 66 69  1  0
 67 68  1  0
 67 64  1  0
 68 66  2  0
 69 70  1  0
 70 71  2  0
 72 75  1  0
 72 71  1  0
 73 72  2  0
 74 73  1  0
 74 69  2  0
 75 76  1  0
 76 81  2  0
 76 77  1  0
 77 78  2  0
 78 79  1  0
 79 83  1  0
 80 79  2  0
 81 80  1  0
 82 81  1  0
 84 85  1  0
 85 88  1  0
 85 87  1  0
 86 84  2  0
 89 64  1  0
 89 90  1  0
 91 89  1  0
 92 93  1  0
 92 94  1  0
 95 92  1  0
M  ISO  4   5 101   8 101  54 100  62 100
M  END
>  <TORSDO>  (77) 
F 19

>  <SCORE>  (77) 
-13.493

>  <name>  (77) 
76

>  <ligand_id>  (77) 
76

>  <original_smiles>  (77) 
[H]c1c([H])c([H])c2c(c1[H])C([H])([H])C([H])([H])C([H])([H])C2([H])N([H])C(=O)C1([H])N(C(=O)C([H])(N([H])C(=O)C([H])(N([H])C([H])([H])[H])C([H])([H])[H])C(C([H])([H])[H])(C([H])([H])[H])C([H])([H])[H])C([H])([H])c2c([H])c(Oc3c([H])c(F)c([H])c([H])c3C([H])([H])C3(N([H])C(=O)N4C([H])([H])C([H])([H])C([H])([H])C([H])(n5nc(-c6c([H])c([H])c(Oc7c([H])c([H])c(F)c([H])c7F)c([H])c6[H])c(C(=O)N([H])[H])c5N([H])[H])C4([H])[H])C([H])([H])C([H])([N+]([H])([H])[H])C3([H])[H])c([H])c([H])c2C1([H])[H]

>  <smiles>  (77) 
[H]c1c([H])c([H])c2c(c1[H])C([H])([H])C([H])([H])C([H])([H])C2([H])N([H])C(=O)C1([H])N(C(=O)C([H])(N([H])C(=O)C([H])(N([H])C([H])([H])[H])C([H])([H])[H])C(C([H])([H])[H])(C([H])([H])[H])C([H])([H])[H])C([H])([H])c2c([H])c(Oc3c([H])c(F)c([H])c([H])c3C([H])([H])C3(N([H])C(=O)N4C([H])([H])C([H])([H])C([H])([H])C([H])(n5nc(-c6c([H])c([H])c(Oc7c([H])c([H])c(F)c([H])c7F)c([H])c6[H])c(C(=O)N([H])[H])c5N([H])[H])C4([H])[H])C([H])([H])C([H])([N+]([H])([H])[H])C3([H])[H])c([H])c([H])c2C1([H])[H]

$$$$
77:0:0
     RDKit          3D

 89 98  0  0  1  0  0  0  0  0999 V2000
  -30.0470  -23.8780   19.4120 C   0  0  0  0  0  2  0  0  0  0  0  0
  -30.4430  -22.3810   19.8780 C   0  0  0  0  0  2  0  0  0  0  0  0
  -28.2760  -22.7250   20.4160 C   0  0  0  0  0  2  0  0  0  0  0  0
  -28.5520  -24.3050   19.7690 C   0  0  0  0  0  3  0  0  0  0  0  0
  -29.2220  -21.5260   19.8620 N   0  0  2  0  0  4  0  0  0  0  0  0
  -28.9990  -21.4750   18.8790 H   0  0  0  0  0  0  0  0  0  0  0  0
  -30.4600  -15.4600   19.8050 C   0  0  0  0  0  0  0  0  0  0  0  0
  -30.4370  -12.9780   18.9570 C   0  0  0  0  0  2  0  0  0  0  0  0
  -29.4550  -12.6720   17.7950 C   0  0  0  0  0  2  0  0  0  0  0  0
  -28.0590  -12.3390   18.3500 C   0  0  0  0  0  2  0  0  0  0  0  0
  -27.6290  -13.3540   19.4450 C   0  0  0  0  0  3  0  0  0  0  0  0
  -28.7400  -13.5510   20.5070 C   0  0  0  0  0  2  0  0  0  0  0  0
  -29.9000  -14.1360   19.7810 N   0  0  0  0  0  0  0  0  0  0  0  0
  -31.6790  -15.4140   19.5430 O   0  0  0  0  0  0  0  0  0  0  0  0
  -27.4910  -17.9720   20.5560 C   0  0  0  0  0  2  0  0  0  0  0  0
  -27.7740  -19.4030   20.0410 C   0  0  0  0  0  2  0  0  0  0  0  0
  -28.2480  -16.7890   19.8630 C   0  0  0  0  0  2  0  0  0  0  0  0
  -30.1160  -18.4290   19.7090 C   0  0  0  0  0  2  0  0  0  0  0  0
  -29.2070  -19.8810   20.2760 C   0  0  0  0  0  3  0  0  0  0  0  0
  -29.7340  -16.7980   19.9030 N   0  0  0  0  0  0  0  0  0  0  0  0
  -25.3090  -13.9070   20.3850 C   0  0  0  0  0  0  0  0  0  0  0  0
  -24.2720  -13.1260   20.8070 C   0  0  0  0  0  0  0  0  0  0  0  0
  -24.7290  -11.7790   20.6960 C   0  0  0  0  0  0  0  0  0  0  0  0
  -26.3350  -13.0380   20.0410 N   0  0  0  0  0  0  0  0  0  0  0  0
  -25.9960  -11.7480   20.2930 N   0  0  0  0  0  0  0  0  0  0  0  0
  -24.0120  -10.5160   20.8930 C   0  0  0  0  0  0  0  0  0  0  0  0
  -24.4490   -9.5600   21.8370 C   0  0  0  0  0  3  0  0  0  0  0  0
  -23.7280   -8.3640   22.0270 C   0  0  0  0  0  3  0  0  0  0  0  0
  -22.5530   -8.1200   21.2760 C   0  0  0  0  0  0  0  0  0  0  0  0
  -22.1280   -9.0700   20.3280 C   0  0  0  0  0  3  0  0  0  0  0  0
  -22.8520  -10.2570   20.1360 C   0  0  0  0  0  3  0  0  0  0  0  0
  -21.8030   -6.9750   21.3730 O   0  0  0  0  0  0  0  0  0  0  0  0
  -21.6930   -6.2860   22.5520 C   0  0  0  0  0  0  0  0  0  0  0  0
  -21.1330   -6.8710   23.7100 C   0  0  0  0  0  3  0  0  0  0  0  0
  -20.9640   -6.1010   24.8770 C   0  0  0  0  0  3  0  0  0  0  0  0
  -21.3590   -4.7490   24.8930 C   0  0  0  0  0  0  0  0  0  0  0  0
  -21.9240   -4.1660   23.7440 C   0  0  0  0  0  3  0  0  0  0  0  0
  -22.0820   -4.9300   22.5740 C   0  0  0  0  0  0  0  0  0  0  0  0
  -22.5980   -4.3570   21.4610 F   0  0  0  0  0  0  0  0  0  0  0  0
  -21.1950   -4.0100   26.0140 F   0  0  0  0  0  0  0  0  0  0  0  0
  -22.9040  -13.6100   21.1880 C   0  0  0  0  0  0  0  0  0  0  0  0
  -22.2210  -12.8960   22.0770 N   0  0  0  0  0  0  0  0  0  0  0  0
  -22.4480  -14.6610   20.7400 O   0  0  0  0  0  0  0  0  0  0  0  0
  -22.5980  -12.0550   22.4840 H   0  0  0  0  0  0  0  0  0  0  0  0
  -21.3050  -13.2110   22.3680 H   0  0  0  0  0  0  0  0  0  0  0  0
  -25.4350  -15.2800   20.2370 N   0  0  0  0  0  0  0  0  0  0  0  0
  -24.7060  -15.9250   20.5210 H   0  0  0  0  0  0  0  0  0  0  0  0
  -26.2640  -15.7370   19.8890 H   0  0  0  0  0  0  0  0  0  0  0  0
  -28.3510  -25.9090   20.2220 O   0  0  0  0  0  0  0  0  0  0  0  0
  -24.5930  -31.8110   23.0880 C   0  0  0  0  0  0  0  0  0  0  0  0
  -27.2810  -26.9590   20.0980 C   0  0  0  0  0  0  0  0  0  0  0  0
  -23.4380  -30.4060   21.4230 C   0  0  0  0  0  3  0  0  0  0  0  0
  -24.9310  -28.8080   20.0250 C   0  0  0  0  0  0  0  0  0  0  0  0
  -26.0020  -30.6460   21.3140 C   0  0  0  0  0  2  0  0  0  0  0  0
  -26.1030  -29.2330   20.6610 C   0  0  0  0  0  0  0  0  0  0  0  0
  -27.2620  -28.3290   20.6750 C   0  0  0  0  0  3  0  0  0  0  0  0
  -26.0710  -26.6860   19.4130 C   0  0  0  0  0  3  0  0  0  0  0  0
  -24.9430  -27.5560   19.3830 C   0  0  0  0  0  3  0  0  0  0  0  0
  -23.6960  -29.7120   20.0550 C   0  0  0  0  0  2  0  0  0  0  0  0
  -24.6980  -30.9810   21.9970 N   0  0  0  0  0  0  0  0  0  0  0  0
  -23.4960  -32.0900   23.5940 O   0  0  0  0  0  0  0  0  0  0  0  0
  -22.7360  -29.4080   22.3830 C   0  0  0  0  0  0  0  0  0  0  0  0
  -21.3990  -29.2720   22.2730 N   0  0  0  0  0  0  0  0  0  0  0  0
  -23.4000  -28.7530   23.1910 O   0  0  0  0  0  0  0  0  0  0  0  0
  -20.9130  -29.8530   21.6020 H   0  0  0  0  0  0  0  0  0  0  0  0
  -17.9990  -28.1450   22.8480 C   0  0  0  0  0  0  0  0  0  0  0  0
  -20.5730  -28.3300   23.0380 C   0  0  0  0  0  3  0  0  0  0  0  0
  -20.6140  -26.9160   22.4120 C   0  0  0  0  0  2  0  0  0  0  0  0
  -19.4750  -26.6630   21.4200 C   0  0  0  0  0  2  0  0  0  0  0  0
  -18.1180  -26.8190   22.1120 C   0  0  0  0  0  2  0  0  0  0  0  0
  -19.1510  -28.8610   23.2680 C   0  0  0  0  0  0  0  0  0  0  0  0
  -18.9850  -30.1030   23.9180 C   0  0  0  0  0  3  0  0  0  0  0  0
  -17.6990  -30.6270   24.1500 C   0  0  0  0  0  3  0  0  0  0  0  0
  -16.5630  -29.9080   23.7430 C   0  0  0  0  0  3  0  0  0  0  0  0
  -16.7120  -28.6690   23.0970 C   0  0  0  0  0  3  0  0  0  0  0  0
  -25.8520  -32.4620   23.7400 C   0  0  0  0  0  3  0  0  0  0  0  0
  -25.5130  -33.8540   24.0890 N   0  0  0  0  0  0  0  0  0  0  0  0
  -25.8370  -34.9310   23.3630 C   0  0  0  0  0  0  0  0  0  0  0  0
  -26.5140  -34.8610   22.3340 O   0  0  0  0  0  0  0  0  0  0  0  0
  -24.9060  -33.9860   24.8870 H   0  0  0  0  0  0  0  0  0  0  0  0
  -24.1040  -36.7300   23.0380 C   0  0  0  0  0  1  0  0  0  0  0  0
  -25.3370  -36.3080   23.8500 C   0  0  0  0  0  3  0  0  0  0  0  0
  -27.4440  -37.2040   24.7400 C   0  0  0  0  0  1  0  0  0  0  0  0
  -26.3640  -37.3730   23.7720 N   0  0  0  0  0  0  0  0  0  0  0  0
  -25.9450  -38.2870   23.9220 H   0  0  0  0  0  0  0  0  0  0  0  0
  -26.3600  -31.6900   25.0210 C   0  0  1  0  0  0  0  0  0  0  0  0
  -25.2540  -31.4340   26.0700 C   0  0  0  0  0  1  0  0  0  0  0  0
  -26.9670  -30.3230   24.6390 C   0  0  0  0  0  1  0  0  0  0  0  0
  -27.4850  -32.4970   25.7080 C   0  0  0  0  0  1  0  0  0  0  0  0
  1  4  1  0
  1  2  1  0
  4 49  1  0
  4  3  1  0
  5  6  1  6
  5  2  1  0
  5 19  1  0
  5  3  1  0
  7 20  1  0
  8 13  1  0
  9 10  1  0
  9  8  1  0
 11 10  1  0
 11 24  1  0
 11 12  1  0
 13  7  1  0
 13 12  1  0
 14  7  2  0
 16 19  1  0
 16 15  1  0
 17 20  1  0
 17 15  1  0
 18 20  1  0
 19 18  1  0
 21 22  2  0
 22 41  1  0
 23 22  1  0
 23 26  1  0
 24 25  1  0
 24 21  1  0
 25 23  2  0
 26 27  1  0
 27 28  2  0
 29 32  1  0
 29 28  1  0
 30 29  2  0
 31 30  1  0
 31 26  2  0
 32 33  1  0
 33 38  2  0
 33 34  1  0
 34 35  2  0
 35 36  1  0
 36 40  1  0
 37 36  2  0
 38 37  1  0
 39 38  1  0
 41 42  1  0
 42 45  1  0
 42 44  1  0
 43 41  2  0
 46 21  1  0
 46 47  1  0
 48 46  1  0
 50 61  2  0
 51 49  1  0
 51 56  1  0
 52 60  1  0
 52 62  1  0
 53 59  1  0
 53 55  1  0
 54 60  1  0
 55 56  2  0
 55 54  1  0
 57 51  2  0
 58 57  1  0
 58 53  2  0
 59 52  1  0
 60 50  1  0
 62 64  2  0
 63 62  1  0
 65 63  1  0
 66 75  2  0
 66 71  1  0
 67 63  1  0
 67 71  1  0
 68 67  1  0
 69 70  1  0
 69 68  1  0
 70 66  1  0
 71 72  2  0
 72 73  1  0
 74 73  2  0
 75 74  1  0
 76 50  1  0
 76 77  1  0
 76 86  1  0
 77 80  1  0
 78 82  1  0
 78 77  1  0
 79 78  2  0
 82 81  1  0
 84 82  1  0
 84 85  1  0
 84 83  1  0
 86 89  1  1
 86 87  1  0
 88 86  1  0
M  ISO  4   4 101   7 100  20 100  49 101
M  END
>  <TORSDO>  (78) 
F 16

>  <SCORE>  (78) 
-16.413

>  <name>  (78) 
77

>  <ligand_id>  (78) 
77

>  <original_smiles>  (78) 
[H]c1c([H])c([H])c2c(c1[H])C([H])([H])C([H])([H])C([H])([H])C2([H])N([H])C(=O)C1([H])N(C(=O)C([H])(N([H])C(=O)C([H])(N([H])C([H])([H])[H])C([H])([H])[H])C(C([H])([H])[H])(C([H])([H])[H])C([H])([H])[H])C([H])([H])c2c([H])c(OC3([H])C([H])([H])C([H])([H])[N+]([H])(C4([H])C([H])([H])N(C(=O)N5C([H])([H])C([H])([H])C([H])([H])C([H])(n6nc(-c7c([H])c([H])c(Oc8c([H])c([H])c(F)c([H])c8F)c([H])c7[H])c(C(=O)N([H])[H])c6N([H])[H])C5([H])[H])C([H])([H])C([H])([H])C4([H])[H])C3([H])[H])c([H])c([H])c2C1([H])[H]

>  <smiles>  (78) 
[H]c1c([H])c([H])c2c(c1[H])C([H])([H])C([H])([H])C([H])([H])C2([H])N([H])C(=O)C1([H])N(C(=O)C([H])(N([H])C(=O)C([H])(N([H])C([H])([H])[H])C([H])([H])[H])C(C([H])([H])[H])(C([H])([H])[H])C([H])([H])[H])C([H])([H])c2c([H])c(OC3([H])C([H])([H])C([H])([H])[N+]([H])(C4([H])C([H])([H])N(C(=O)N5C([H])([H])C([H])([H])C([H])([H])C([H])(n6nc(-c7c([H])c([H])c(Oc8c([H])c([H])c(F)c([H])c8F)c([H])c7[H])c(C(=O)N([H])[H])c6N([H])[H])C5([H])[H])C([H])([H])C([H])([H])C4([H])[H])C3([H])[H])c([H])c([H])c2C1([H])[H]

$$$$
78:0:0
     RDKit          3D

 86 95  0  0  1  0  0  0  0  0999 V2000
  -30.3720  -16.0680   20.0450 C   0  0  0  0  0  0  0  0  0  0  0  0
  -30.5400  -13.4150   19.3680 C   0  0  0  0  0  2  0  0  0  0  0  0
  -29.7050  -12.8110   18.1940 C   0  0  0  0  0  2  0  0  0  0  0  0
  -28.3020  -12.4060   18.6620 C   0  0  0  0  0  2  0  0  0  0  0  0
  -27.7330  -13.4630   19.6300 C   0  0  0  0  0  3  0  0  0  0  0  0
  -28.7280  -13.9660   20.7150 C   0  0  0  0  0  2  0  0  0  0  0  0
  -29.8550  -14.6560   20.0180 N   0  0  0  0  0  0  0  0  0  0  0  0
  -31.6050  -15.9130   19.8770 O   0  0  0  0  0  0  0  0  0  0  0  0
  -29.3790  -22.5210   19.3630 C   0  0  0  0  0  3  0  0  0  0  0  0
  -29.2950  -20.8970   19.7390 C   0  0  0  0  0  0  0  0  0  0  0  0
  -28.1750  -20.8540   20.4840 C   0  0  0  0  0  0  0  0  0  0  0  0
  -28.4490  -23.7070   19.7240 C   0  0  0  0  0  0  0  0  0  0  0  0
  -30.1230  -19.2300   19.6250 C   0  0  0  0  0  2  0  0  0  0  0  0
  -27.8880  -19.4460   21.1480 C   0  0  0  0  0  3  0  0  0  0  0  0
  -28.2960  -17.9560   20.4990 C   0  0  0  0  0  3  0  0  0  0  0  0
  -29.7020  -17.5630   20.0280 N   0  0  0  0  0  0  0  0  0  0  0  0
  -27.3330  -22.5630   20.6590 S   0  0  0  0  0  0  0  0  0  0  0  0
  -25.3650  -13.9710   20.3630 C   0  0  0  0  0  0  0  0  0  0  0  0
  -24.3150  -13.1900   20.7500 C   0  0  0  0  0  0  0  0  0  0  0  0
  -24.8060  -11.8470   20.7760 C   0  0  0  0  0  0  0  0  0  0  0  0
  -26.4250  -13.1100   20.1630 N   0  0  0  0  0  0  0  0  0  0  0  0
  -26.1040  -11.8250   20.4760 N   0  0  0  0  0  0  0  0  0  0  0  0
  -24.0920  -10.5830   21.0100 C   0  0  0  0  0  0  0  0  0  0  0  0
  -24.5150   -9.6640   21.9960 C   0  0  0  0  0  3  0  0  0  0  0  0
  -23.7930   -8.4700   22.2200 C   0  0  0  0  0  3  0  0  0  0  0  0
  -22.6350   -8.1870   21.4560 C   0  0  0  0  0  0  0  0  0  0  0  0
  -22.2310   -9.0950   20.4620 C   0  0  0  0  0  3  0  0  0  0  0  0
  -22.9530  -10.2800   20.2380 C   0  0  0  0  0  3  0  0  0  0  0  0
  -21.8870   -7.0410   21.5860 O   0  0  0  0  0  0  0  0  0  0  0  0
  -21.8100   -6.3590   22.7750 C   0  0  0  0  0  0  0  0  0  0  0  0
  -21.3240   -6.9700   23.9530 C   0  0  0  0  0  3  0  0  0  0  0  0
  -21.1970   -6.2150   25.1350 C   0  0  0  0  0  3  0  0  0  0  0  0
  -21.5450   -4.8500   25.1410 C   0  0  0  0  0  0  0  0  0  0  0  0
  -22.0220   -4.2400   23.9680 C   0  0  0  0  0  3  0  0  0  0  0  0
  -22.1520   -4.9920   22.7880 C   0  0  0  0  0  0  0  0  0  0  0  0
  -22.5930   -4.3940   21.6550 F   0  0  0  0  0  0  0  0  0  0  0  0
  -21.4150   -4.1230   26.2750 F   0  0  0  0  0  0  0  0  0  0  0  0
  -22.9090  -13.6560   20.9770 C   0  0  0  0  0  0  0  0  0  0  0  0
  -22.1850  -13.0030   21.8780 N   0  0  0  0  0  0  0  0  0  0  0  0
  -22.4610  -14.6420   20.3920 O   0  0  0  0  0  0  0  0  0  0  0  0
  -22.5580  -12.2070   22.3740 H   0  0  0  0  0  0  0  0  0  0  0  0
  -21.2420  -13.3040   22.0760 H   0  0  0  0  0  0  0  0  0  0  0  0
  -25.5050  -15.3360   20.1280 N   0  0  0  0  0  0  0  0  0  0  0  0
  -24.7240  -15.9790   20.1980 H   0  0  0  0  0  0  0  0  0  0  0  0
  -26.3450  -15.7700   19.7700 H   0  0  0  0  0  0  0  0  0  0  0  0
  -28.3360  -25.3540   19.6290 O   0  0  0  0  0  0  0  0  0  0  0  0
  -24.9930  -31.7390   23.0610 C   0  0  0  0  0  0  0  0  0  0  0  0
  -27.3610  -26.6330   19.7470 C   0  0  0  0  0  0  0  0  0  0  0  0
  -23.7540  -30.4500   21.3760 C   0  0  0  0  0  3  0  0  0  0  0  0
  -25.1440  -28.8230   19.8520 C   0  0  0  0  0  0  0  0  0  0  0  0
  -26.3400  -30.5020   21.2250 C   0  0  0  0  0  2  0  0  0  0  0  0
  -26.3620  -29.0850   20.4910 C   0  0  0  0  0  0  0  0  0  0  0  0
  -27.4410  -28.0280   20.4050 C   0  0  0  0  0  3  0  0  0  0  0  0
  -26.1120  -26.6380   19.0590 C   0  0  0  0  0  3  0  0  0  0  0  0
  -25.0680  -27.6270   19.1140 C   0  0  0  0  0  3  0  0  0  0  0  0
  -23.9620  -29.8110   19.9700 C   0  0  0  0  0  2  0  0  0  0  0  0
  -25.0570  -30.9320   21.9410 N   0  0  0  0  0  0  0  0  0  0  0  0
  -23.9130  -32.0350   23.6020 O   0  0  0  0  0  0  0  0  0  0  0  0
  -23.0260  -29.4470   22.3130 C   0  0  0  0  0  0  0  0  0  0  0  0
  -21.6870  -29.3310   22.2100 N   0  0  0  0  0  0  0  0  0  0  0  0
  -23.6820  -28.7680   23.1060 O   0  0  0  0  0  0  0  0  0  0  0  0
  -21.2050  -29.9270   21.5510 H   0  0  0  0  0  0  0  0  0  0  0  0
  -18.2830  -28.1740   22.7680 C   0  0  0  0  0  0  0  0  0  0  0  0
  -20.8580  -28.3670   22.9470 C   0  0  0  0  0  3  0  0  0  0  0  0
  -20.9000  -26.9730   22.2760 C   0  0  0  0  0  2  0  0  0  0  0  0
  -19.7550  -26.7490   21.2830 C   0  0  0  0  0  2  0  0  0  0  0  0
  -18.4020  -26.8760   21.9880 C   0  0  0  0  0  2  0  0  0  0  0  0
  -19.4350  -28.8830   23.2040 C   0  0  0  0  0  0  0  0  0  0  0  0
  -19.2650  -30.0980   23.9020 C   0  0  0  0  0  3  0  0  0  0  0  0
  -17.9780  -30.6040   24.1630 C   0  0  0  0  0  3  0  0  0  0  0  0
  -16.8420  -29.8940   23.7380 C   0  0  0  0  0  3  0  0  0  0  0  0
  -16.9960  -28.6790   23.0470 C   0  0  0  0  0  3  0  0  0  0  0  0
  -26.2740  -32.3400   23.7180 C   0  0  0  0  0  3  0  0  0  0  0  0
  -25.9370  -33.6730   24.2620 N   0  0  0  0  0  0  0  0  0  0  0  0
  -26.2100  -34.8450   23.6740 C   0  0  0  0  0  0  0  0  0  0  0  0
  -26.8250  -34.9200   22.6080 O   0  0  0  0  0  0  0  0  0  0  0  0
  -25.3820  -33.6830   25.1050 H   0  0  0  0  0  0  0  0  0  0  0  0
  -24.4370  -36.6360   23.7200 C   0  0  0  0  0  1  0  0  0  0  0  0
  -25.7370  -36.1390   24.3720 C   0  0  0  0  0  3  0  0  0  0  0  0
  -27.8950  -36.9630   25.2080 C   0  0  0  0  0  1  0  0  0  0  0  0
  -26.7450  -37.2220   24.3470 N   0  0  0  0  0  0  0  0  0  0  0  0
  -26.3330  -38.1100   24.6220 H   0  0  0  0  0  0  0  0  0  0  0  0
  -26.8600  -31.4320   24.8700 C   0  0  1  0  0  0  0  0  0  0  0  0
  -25.8230  -31.0490   25.9530 C   0  0  0  0  0  1  0  0  0  0  0  0
  -27.4440  -30.1190   24.3040 C   0  0  0  0  0  1  0  0  0  0  0  0
  -28.0320  -32.1620   25.5670 C   0  0  0  0  0  1  0  0  0  0  0  0
  2  7  1  0
  3  4  1  0
  3  2  1  0
  5  4  1  0
  5 21  1  0
  5  6  1  0
  7  1  1  0
  7  6  1  0
  8  1  2  0
  9 12  2  0
  9 10  1  0
 10 11  2  0
 11 17  1  0
 11 14  1  0
 12 17  1  0
 13 10  1  0
 13 16  1  0
 15 14  2  0
 16  1  1  0
 16 15  1  0
 18 19  2  0
 19 20  1  0
 19 38  1  0
 20 23  1  0
 21 18  1  0
 21 22  1  0
 22 20  2  0
 23 24  1  0
 24 25  2  0
 26 29  1  0
 26 25  1  0
 27 26  2  0
 28 27  1  0
 28 23  2  0
 29 30  1  0
 30 35  2  0
 30 31  1  0
 31 32  2  0
 32 33  1  0
 33 37  1  0
 34 33  2  0
 35 34  1  0
 36 35  1  0
 38 39  1  0
 39 42  1  0
 39 41  1  0
 40 38  2  0
 43 44  1  0
 43 18  1  0
 45 43  1  0
 46 12  1  0
 46 48  1  0
 47 58  2  0
 48 53  1  0
 49 57  1  0
 49 59  1  0
 50 56  1  0
 50 52  1  0
 51 57  1  0
 52 51  1  0
 53 52  2  0
 54 55  1  0
 54 48  2  0
 55 50  2  0
 56 49  1  0
 57 47  1  0
 59 61  2  0
 60 59  1  0
 62 60  1  0
 63 72  2  0
 63 68  1  0
 64 60  1  0
 64 68  1  0
 65 64  1  0
 66 67  1  0
 66 65  1  0
 67 63  1  0
 68 69  2  0
 69 70  1  0
 71 70  2  0
 72 71  1  0
 73 47  1  0
 73 74  1  0
 73 83  1  0
 74 77  1  0
 75 74  1  0
 75 79  1  0
 76 75  2  0
 79 78  1  0
 81 79  1  0
 81 82  1  0
 81 80  1  0
 83 86  1  1
 83 84  1  0
 85 83  1  0
M  ISO  4   1 100  12 101  16 100  46 101
M  END
>  <TORSDO>  (79) 
F 15

>  <SCORE>  (79) 
-14.329

>  <name>  (79) 
78

>  <ligand_id>  (79) 
78

>  <original_smiles>  (79) 
[H]c1c([H])c([H])c2c(c1[H])C([H])([H])C([H])([H])C([H])([H])C2([H])N([H])C(=O)C1([H])N(C(=O)C([H])(N([H])C(=O)C([H])(N([H])C([H])([H])[H])C([H])([H])[H])C(C([H])([H])[H])(C([H])([H])[H])C([H])([H])[H])C([H])([H])c2c([H])c(Oc3sc4c(c3[H])C([H])([H])N(C(=O)N3C([H])([H])C([H])([H])C([H])([H])C([H])(n5nc(-c6c([H])c([H])c(Oc7c([H])c([H])c(F)c([H])c7F)c([H])c6[H])c(C(=O)N([H])[H])c5N([H])[H])C3([H])[H])C([H])([H])C4([H])[H])c([H])c([H])c2C1([H])[H]

>  <smiles>  (79) 
[H]c1c([H])c([H])c2c(c1[H])C([H])([H])C([H])([H])C([H])([H])C2([H])N([H])C(=O)C1([H])N(C(=O)C([H])(N([H])C(=O)C([H])(N([H])C([H])([H])[H])C([H])([H])[H])C(C([H])([H])[H])(C([H])([H])[H])C([H])([H])[H])C([H])([H])c2c([H])c(Oc3sc4c(c3[H])C([H])([H])N(C(=O)N3C([H])([H])C([H])([H])C([H])([H])C([H])(n5nc(-c6c([H])c([H])c(Oc7c([H])c([H])c(F)c([H])c7F)c([H])c6[H])c(C(=O)N([H])[H])c5N([H])[H])C3([H])[H])C([H])([H])C4([H])[H])c([H])c([H])c2C1([H])[H]

$$$$
79:0:0
     RDKit          3D

 90 99  0  0  1  0  0  0  0  0999 V2000
  -29.9920  -21.6830   22.4260 C   0  0  0  0  0  3  0  0  0  0  0  0
  -29.3530  -22.7940   21.8110 C   0  0  0  0  0  3  0  0  0  0  0  0
  -28.8670  -21.2720   19.9790 C   0  0  0  0  0  3  0  0  0  0  0  0
  -30.0870  -20.3910   21.8390 C   0  0  0  0  0  0  0  0  0  0  0  0
  -29.5030  -20.0060   20.6250 C   0  0  0  0  0  0  0  0  0  0  0  0
  -28.7630  -22.7350   20.5300 C   0  0  0  0  0  0  0  0  0  0  0  0
  -31.0340  -19.3490   22.3660 C   0  0  0  0  0  2  0  0  0  0  0  0
  -30.1340  -18.3870   20.2220 C   0  0  0  0  0  3  0  0  0  0  0  0
  -31.3830  -18.4450   21.1640 C   0  0  0  0  0  3  0  0  0  0  0  0
  -32.6420  -18.9290   20.4240 C   0  0  0  0  0  1  0  0  0  0  0  0
  -30.4320  -15.4310   20.2080 C   0  0  0  0  0  0  0  0  0  0  0  0
  -30.3900  -12.9780   19.3220 C   0  0  0  0  0  2  0  0  0  0  0  0
  -29.4590  -12.7470   18.1040 C   0  0  0  0  0  2  0  0  0  0  0  0
  -28.0240  -12.4550   18.5680 C   0  0  0  0  0  2  0  0  0  0  0  0
  -27.5780  -13.4160   19.6990 C   0  0  0  0  0  3  0  0  0  0  0  0
  -28.6390  -13.5980   20.8060 C   0  0  0  0  0  2  0  0  0  0  0  0
  -29.8480  -14.1250   20.1520 N   0  0  0  0  0  0  0  0  0  0  0  0
  -31.6440  -15.3890   19.9480 O   0  0  0  0  0  0  0  0  0  0  0  0
  -29.7240  -16.7500   20.3590 N   0  0  0  0  0  0  0  0  0  0  0  0
  -28.7380  -16.6210   20.5320 H   0  0  0  0  0  0  0  0  0  0  0  0
  -25.2190  -13.9450   20.4960 C   0  0  0  0  0  0  0  0  0  0  0  0
  -24.1680  -13.1580   20.8760 C   0  0  0  0  0  0  0  0  0  0  0  0
  -24.6450  -11.8110   20.8260 C   0  0  0  0  0  0  0  0  0  0  0  0
  -26.2630  -13.0800   20.2290 N   0  0  0  0  0  0  0  0  0  0  0  0
  -25.9330  -11.7890   20.4960 N   0  0  0  0  0  0  0  0  0  0  0  0
  -23.9280  -10.5420   21.0160 C   0  0  0  0  0  0  0  0  0  0  0  0
  -24.3640   -9.5760   21.9500 C   0  0  0  0  0  3  0  0  0  0  0  0
  -23.6430   -8.3770   22.1300 C   0  0  0  0  0  3  0  0  0  0  0  0
  -22.4710   -8.1330   21.3750 C   0  0  0  0  0  0  0  0  0  0  0  0
  -22.0530   -9.0860   20.4310 C   0  0  0  0  0  3  0  0  0  0  0  0
  -22.7760  -10.2780   20.2490 C   0  0  0  0  0  3  0  0  0  0  0  0
  -21.7230   -6.9840   21.4640 O   0  0  0  0  0  0  0  0  0  0  0  0
  -21.6640   -6.2500   22.6220 C   0  0  0  0  0  0  0  0  0  0  0  0
  -21.2120   -6.8100   23.8370 C   0  0  0  0  0  3  0  0  0  0  0  0
  -21.1020   -6.0020   24.9860 C   0  0  0  0  0  3  0  0  0  0  0  0
  -21.4340   -4.6350   24.9210 C   0  0  0  0  0  0  0  0  0  0  0  0
  -21.8790   -4.0740   23.7110 C   0  0  0  0  0  3  0  0  0  0  0  0
  -21.9910   -4.8800   22.5640 C   0  0  0  0  0  0  0  0  0  0  0  0
  -22.4000   -4.3300   21.3950 F   0  0  0  0  0  0  0  0  0  0  0  0
  -21.3210   -3.8570   26.0230 F   0  0  0  0  0  0  0  0  0  0  0  0
  -22.7720  -13.6230   21.1650 C   0  0  0  0  0  0  0  0  0  0  0  0
  -22.0580  -12.9190   22.0340 N   0  0  0  0  0  0  0  0  0  0  0  0
  -22.3240  -14.6500   20.6550 O   0  0  0  0  0  0  0  0  0  0  0  0
  -22.4340  -12.0890   22.4680 H   0  0  0  0  0  0  0  0  0  0  0  0
  -21.1220  -13.2140   22.2720 H   0  0  0  0  0  0  0  0  0  0  0  0
  -25.3650  -15.3190   20.3280 N   0  0  0  0  0  0  0  0  0  0  0  0
  -24.5900  -15.9600   20.4510 H   0  0  0  0  0  0  0  0  0  0  0  0
  -26.1940  -15.7670   19.9600 H   0  0  0  0  0  0  0  0  0  0  0  0
  -28.0180  -24.2410   19.9710 C   0  0  0  0  0  2  0  0  0  0  0  0
  -28.2010  -25.8540   20.3690 O   0  0  0  0  0  0  0  0  0  0  0  0
  -24.6640  -31.9070   23.2520 C   0  0  0  0  0  0  0  0  0  0  0  0
  -27.2130  -26.9830   20.2580 C   0  0  0  0  0  0  0  0  0  0  0  0
  -23.4700  -30.5100   21.6160 C   0  0  0  0  0  3  0  0  0  0  0  0
  -24.9200  -28.8950   20.1950 C   0  0  0  0  0  0  0  0  0  0  0  0
  -26.0390  -30.7050   21.4760 C   0  0  0  0  0  2  0  0  0  0  0  0
  -26.1070  -29.2900   20.8230 C   0  0  0  0  0  0  0  0  0  0  0  0
  -27.2440  -28.3560   20.8310 C   0  0  0  0  0  3  0  0  0  0  0  0
  -25.9990  -26.7560   19.5680 C   0  0  0  0  0  3  0  0  0  0  0  0
  -24.8930  -27.6490   19.5460 C   0  0  0  0  0  3  0  0  0  0  0  0
  -23.7030  -29.8210   20.2410 C   0  0  0  0  0  2  0  0  0  0  0  0
  -24.7470  -31.0690   22.1690 N   0  0  0  0  0  0  0  0  0  0  0  0
  -23.5730  -32.2010   23.7710 O   0  0  0  0  0  0  0  0  0  0  0  0
  -22.7700  -29.5200   22.5850 C   0  0  0  0  0  0  0  0  0  0  0  0
  -21.4410  -29.3570   22.4590 N   0  0  0  0  0  0  0  0  0  0  0  0
  -23.4330  -28.8970   23.4190 O   0  0  0  0  0  0  0  0  0  0  0  0
  -20.9580  -29.9120   21.7660 H   0  0  0  0  0  0  0  0  0  0  0  0
  -18.0590  -28.1390   22.9610 C   0  0  0  0  0  0  0  0  0  0  0  0
  -20.6160  -28.4220   23.2330 C   0  0  0  0  0  3  0  0  0  0  0  0
  -20.7270  -26.9850   22.6700 C   0  0  0  0  0  2  0  0  0  0  0  0
  -19.6310  -26.6510   21.6520 C   0  0  0  0  0  2  0  0  0  0  0  0
  -18.2450  -26.7890   22.2890 C   0  0  0  0  0  2  0  0  0  0  0  0
  -19.1710  -28.9120   23.3900 C   0  0  0  0  0  0  0  0  0  0  0  0
  -18.9400  -30.1730   23.9810 C   0  0  0  0  0  3  0  0  0  0  0  0
  -17.6300  -30.6620   24.1470 C   0  0  0  0  0  3  0  0  0  0  0  0
  -16.5330  -29.8870   23.7320 C   0  0  0  0  0  3  0  0  0  0  0  0
  -16.7480  -28.6280   23.1450 C   0  0  0  0  0  3  0  0  0  0  0  0
  -25.9330  -32.5520   23.8870 C   0  0  0  0  0  3  0  0  0  0  0  0
  -25.6150  -33.9550   24.2150 N   0  0  0  0  0  0  0  0  0  0  0  0
  -25.9340  -35.0130   23.4570 C   0  0  0  0  0  0  0  0  0  0  0  0
  -26.5860  -34.9110   22.4150 O   0  0  0  0  0  0  0  0  0  0  0  0
  -25.0330  -34.1070   25.0250 H   0  0  0  0  0  0  0  0  0  0  0  0
  -24.1840  -36.8020   23.1640 C   0  0  0  0  0  1  0  0  0  0  0  0
  -25.4580  -36.4040   23.9270 C   0  0  0  0  0  3  0  0  0  0  0  0
  -27.6150  -37.3120   24.6770 C   0  0  0  0  0  1  0  0  0  0  0  0
  -26.4800  -37.4620   23.7690 N   0  0  0  0  0  0  0  0  0  0  0  0
  -26.0740  -38.3820   23.9180 H   0  0  0  0  0  0  0  0  0  0  0  0
  -26.4320  -31.7950   25.1800 C   0  0  1  0  0  0  0  0  0  0  0  0
  -25.3250  -31.5740   26.2380 C   0  0  0  0  0  1  0  0  0  0  0  0
  -27.0150  -30.4100   24.8200 C   0  0  0  0  0  1  0  0  0  0  0  0
  -27.5770  -32.5940   25.8440 C   0  0  0  0  0  1  0  0  0  0  0  0
  2  1  2  0
  3  6  2  0
  3  5  1  0
  4  7  1  0
  4  1  1  0
  5  4  2  0
  6  2  1  0
  8 19  1  0
  8  5  1  0
  8  9  1  0
  9 10  1  0
  9  7  1  0
 11 19  1  0
 12 17  1  0
 13 14  1  0
 13 12  1  0
 15 14  1  0
 15 24  1  0
 15 16  1  0
 17 11  1  0
 17 16  1  0
 18 11  2  0
 19 20  1  0
 21 22  2  0
 22 41  1  0
 23 22  1  0
 23 26  1  0
 24 21  1  0
 24 25  1  0
 25 23  2  0
 26 27  1  0
 27 28  2  0
 29 32  1  0
 29 28  1  0
 30 29  2  0
 31 30  1  0
 31 26  2  0
 32 33  1  0
 33 34  1  0
 34 35  2  0
 36 35  1  0
 36 40  1  0
 37 36  2  0
 38 33  2  0
 38 37  1  0
 39 38  1  0
 41 42  1  0
 42 45  1  0
 42 44  1  0
 43 41  2  0
 46 47  1  0
 46 21  1  0
 48 46  1  0
 49 50  1  0
 49  6  1  0
 51 62  2  0
 52 50  1  0
 52 57  1  0
 53 61  1  0
 53 63  1  0
 54 60  1  0
 54 56  1  0
 55 61  1  0
 56 57  2  0
 56 55  1  0
 58 52  2  0
 59 58  1  0
 59 54  2  0
 60 53  1  0
 61 51  1  0
 63 65  2  0
 64 63  1  0
 66 64  1  0
 67 76  2  0
 67 72  1  0
 68 64  1  0
 68 72  1  0
 69 68  1  0
 70 71  1  0
 70 69  1  0
 71 67  1  0
 72 73  2  0
 73 74  1  0
 75 74  2  0
 76 75  1  0
 77 51  1  0
 77 78  1  0
 77 87  1  0
 78 81  1  0
 79 83  1  0
 79 78  1  0
 80 79  2  0
 83 82  1  0
 85 86  1  0
 85 83  1  0
 85 84  1  0
 87 90  1  1
 87 88  1  0
 89 87  1  0
M  ISO  4  11 100  19 100  49 101  50 101
M  END
>  <TORSDO>  (80) 
F 17

>  <SCORE>  (80) 
-17.025

>  <name>  (80) 
79

>  <ligand_id>  (80) 
79

>  <original_smiles>  (80) 
[H]c1c([H])c([H])c2c(c1[H])C([H])([H])C([H])([H])C([H])([H])C2([H])N([H])C(=O)C1([H])N(C(=O)C([H])(N([H])C(=O)C([H])(N([H])C([H])([H])[H])C([H])([H])[H])C(C([H])([H])[H])(C([H])([H])[H])C([H])([H])[H])C([H])([H])c2c([H])c(OC([H])([H])c3c([H])c([H])c4c(c3[H])C([H])(N([H])C(=O)N3C([H])([H])C([H])([H])C([H])([H])C([H])(n5nc(-c6c([H])c([H])c(Oc7c([H])c([H])c(F)c([H])c7F)c([H])c6[H])c(C(=O)N([H])[H])c5N([H])[H])C3([H])[H])C([H])(C([H])([H])[H])C4([H])[H])c([H])c([H])c2C1([H])[H]

>  <smiles>  (80) 
[H]c1c([H])c([H])c2c(c1[H])C([H])([H])C([H])([H])C([H])([H])C2([H])N([H])C(=O)C1([H])N(C(=O)C([H])(N([H])C(=O)C([H])(N([H])C([H])([H])[H])C([H])([H])[H])C(C([H])([H])[H])(C([H])([H])[H])C([H])([H])[H])C([H])([H])c2c([H])c(OC([H])([H])c3c([H])c([H])c4c(c3[H])C([H])(N([H])C(=O)N3C([H])([H])C([H])([H])C([H])([H])C([H])(n5nc(-c6c([H])c([H])c(Oc7c([H])c([H])c(F)c([H])c7F)c([H])c6[H])c(C(=O)N([H])[H])c5N([H])[H])C3([H])[H])C([H])(C([H])([H])[H])C4([H])[H])c([H])c([H])c2C1([H])[H]

$$$$
80:0:0
     RDKit          3D

 88 97  0  0  1  0  0  0  0  0999 V2000
  -30.1970  -21.2270   18.3130 C   0  0  0  0  0  3  0  0  0  0  0  0
  -29.8690  -20.0820   19.0930 C   0  0  0  0  0  0  0  0  0  0  0  0
  -29.0860  -20.5880   20.0920 C   0  0  0  0  0  0  0  0  0  0  0  0
  -29.6210  -22.3960   18.7890 C   0  0  0  0  0  0  0  0  0  0  0  0
  -30.2680  -18.5120   18.9600 C   0  0  0  0  0  2  0  0  0  0  0  0
  -28.9610  -18.9940   20.8110 C   0  0  0  0  0  2  0  0  0  0  0  0
  -29.4570  -17.4680   19.9030 C   0  0  1  0  0  0  0  0  0  0  0  0
  -29.7730  -23.7520   18.1720 C   0  0  0  0  0  1  0  0  0  0  0  0
  -28.1620  -17.1110   19.1580 C   0  0  0  0  0  1  0  0  0  0  0  0
  -28.8230  -22.2210   19.9370 N   0  0  0  0  0  0  0  0  0  0  0  0
  -30.2140  -15.7170   20.1240 C   0  0  0  0  0  0  0  0  0  0  0  0
  -30.3210  -13.1370   19.3470 C   0  0  0  0  0  2  0  0  0  0  0  0
  -29.4230  -12.7030   18.1500 C   0  0  0  0  0  2  0  0  0  0  0  0
  -28.0050  -12.3420   18.6170 C   0  0  0  0  0  2  0  0  0  0  0  0
  -27.4930  -13.3550   19.6640 C   0  0  0  0  0  3  0  0  0  0  0  0
  -28.5300  -13.7090   20.7550 C   0  0  0  0  0  2  0  0  0  0  0  0
  -29.7020  -14.3330   20.0900 N   0  0  0  0  0  0  0  0  0  0  0  0
  -31.4520  -15.5980   20.0180 O   0  0  0  0  0  0  0  0  0  0  0  0
  -25.1410  -13.8780   20.4640 C   0  0  0  0  0  0  0  0  0  0  0  0
  -24.0890  -13.0990   20.8470 C   0  0  0  0  0  0  0  0  0  0  0  0
  -24.5620  -11.7510   20.8140 C   0  0  0  0  0  0  0  0  0  0  0  0
  -26.1860  -13.0110   20.2070 N   0  0  0  0  0  0  0  0  0  0  0  0
  -25.8520  -11.7220   20.4870 N   0  0  0  0  0  0  0  0  0  0  0  0
  -23.8360  -10.4890   21.0130 C   0  0  0  0  0  0  0  0  0  0  0  0
  -24.2780   -9.5190   21.9390 C   0  0  0  0  0  3  0  0  0  0  0  0
  -23.5460   -8.3260   22.1290 C   0  0  0  0  0  3  0  0  0  0  0  0
  -22.3590   -8.0970   21.3960 C   0  0  0  0  0  0  0  0  0  0  0  0
  -21.9340   -9.0560   20.4600 C   0  0  0  0  0  3  0  0  0  0  0  0
  -22.6660  -10.2400   20.2660 C   0  0  0  0  0  3  0  0  0  0  0  0
  -21.5980   -6.9560   21.4970 O   0  0  0  0  0  0  0  0  0  0  0  0
  -21.5760   -6.2050   22.6450 C   0  0  0  0  0  0  0  0  0  0  0  0
  -21.1930   -6.7550   23.8870 C   0  0  0  0  0  3  0  0  0  0  0  0
  -21.1160   -5.9310   25.0280 C   0  0  0  0  0  3  0  0  0  0  0  0
  -21.4140   -4.5590   24.9280 C   0  0  0  0  0  0  0  0  0  0  0  0
  -21.7900   -4.0090   23.6890 C   0  0  0  0  0  3  0  0  0  0  0  0
  -21.8670   -4.8300   22.5510 C   0  0  0  0  0  0  0  0  0  0  0  0
  -22.2100   -4.2900   21.3560 F   0  0  0  0  0  0  0  0  0  0  0  0
  -21.3330   -3.7650   26.0220 F   0  0  0  0  0  0  0  0  0  0  0  0
  -22.6930  -13.5770   21.1210 C   0  0  0  0  0  0  0  0  0  0  0  0
  -21.9720  -12.8900   21.9980 N   0  0  0  0  0  0  0  0  0  0  0  0
  -22.2540  -14.5980   20.5920 O   0  0  0  0  0  0  0  0  0  0  0  0
  -22.3410  -12.0650   22.4470 H   0  0  0  0  0  0  0  0  0  0  0  0
  -21.0360  -13.1940   22.2250 H   0  0  0  0  0  0  0  0  0  0  0  0
  -25.2840  -15.2460   20.2780 N   0  0  0  0  0  0  0  0  0  0  0  0
  -24.5070  -15.8880   20.3900 H   0  0  0  0  0  0  0  0  0  0  0  0
  -26.1140  -15.6870   19.9060 H   0  0  0  0  0  0  0  0  0  0  0  0
  -27.9620  -23.7200   20.4860 C   0  0  0  0  0  2  0  0  0  0  0  0
  -28.1940  -25.4380   20.2200 O   0  0  0  0  0  0  0  0  0  0  0  0
  -24.6530  -31.8010   23.1360 C   0  0  0  0  0  0  0  0  0  0  0  0
  -27.1990  -26.6520   20.2280 C   0  0  0  0  0  0  0  0  0  0  0  0
  -23.4740  -30.3780   21.5160 C   0  0  0  0  0  3  0  0  0  0  0  0
  -24.9270  -28.7050   20.1370 C   0  0  0  0  0  0  0  0  0  0  0  0
  -26.0540  -30.5150   21.4010 C   0  0  0  0  0  2  0  0  0  0  0  0
  -26.1230  -29.0670   20.7670 C   0  0  0  0  0  0  0  0  0  0  0  0
  -27.2440  -28.0720   20.7710 C   0  0  0  0  0  3  0  0  0  0  0  0
  -25.9620  -26.5100   19.5450 C   0  0  0  0  0  3  0  0  0  0  0  0
  -24.8880  -27.4520   19.5000 C   0  0  0  0  0  3  0  0  0  0  0  0
  -23.7200  -29.6610   20.1580 C   0  0  0  0  0  2  0  0  0  0  0  0
  -24.7520  -30.9330   22.0690 N   0  0  0  0  0  0  0  0  0  0  0  0
  -23.5570  -32.1060   23.6390 O   0  0  0  0  0  0  0  0  0  0  0  0
  -22.7540  -29.4160   22.5000 C   0  0  0  0  0  0  0  0  0  0  0  0
  -21.4180  -29.2750   22.3880 N   0  0  0  0  0  0  0  0  0  0  0  0
  -23.4100  -28.7910   23.3370 O   0  0  0  0  0  0  0  0  0  0  0  0
  -20.9380  -29.8280   21.6920 H   0  0  0  0  0  0  0  0  0  0  0  0
  -18.0240  -28.0960   22.9430 C   0  0  0  0  0  0  0  0  0  0  0  0
  -20.5900  -28.3490   23.1720 C   0  0  0  0  0  3  0  0  0  0  0  0
  -20.6730  -26.9120   22.6040 C   0  0  0  0  0  2  0  0  0  0  0  0
  -19.5570  -26.5950   21.6040 C   0  0  0  0  0  2  0  0  0  0  0  0
  -18.1840  -26.7470   22.2640 C   0  0  0  0  0  2  0  0  0  0  0  0
  -19.1530  -28.8560   23.3560 C   0  0  0  0  0  0  0  0  0  0  0  0
  -18.9440  -30.1150   23.9580 C   0  0  0  0  0  3  0  0  0  0  0  0
  -17.6430  -30.6170   24.1490 C   0  0  0  0  0  3  0  0  0  0  0  0
  -16.5300  -29.8570   23.7480 C   0  0  0  0  0  3  0  0  0  0  0  0
  -16.7220  -28.5990   23.1530 C   0  0  0  0  0  3  0  0  0  0  0  0
  -25.9110  -32.4660   23.7740 C   0  0  0  0  0  3  0  0  0  0  0  0
  -25.5720  -33.8620   24.1170 N   0  0  0  0  0  0  0  0  0  0  0  0
  -25.8890  -34.9380   23.3840 C   0  0  0  0  0  0  0  0  0  0  0  0
  -26.5530  -34.8610   22.3480 O   0  0  0  0  0  0  0  0  0  0  0  0
  -24.9780  -33.9920   24.9230 H   0  0  0  0  0  0  0  0  0  0  0  0
  -24.1390  -36.7280   23.0920 C   0  0  0  0  0  1  0  0  0  0  0  0
  -25.3970  -36.3170   23.8750 C   0  0  0  0  0  3  0  0  0  0  0  0
  -27.5350  -37.2180   24.6840 C   0  0  0  0  0  1  0  0  0  0  0  0
  -26.4160  -37.3840   23.7610 N   0  0  0  0  0  0  0  0  0  0  0  0
  -26.0020  -38.2970   23.9260 H   0  0  0  0  0  0  0  0  0  0  0  0
  -26.4210  -31.7090   25.0630 C   0  0  1  0  0  0  0  0  0  0  0  0
  -25.3230  -31.4760   26.1270 C   0  0  0  0  0  1  0  0  0  0  0  0
  -27.0150  -30.3300   24.7000 C   0  0  0  0  0  1  0  0  0  0  0  0
  -27.5640  -32.5160   25.7250 C   0  0  0  0  0  1  0  0  0  0  0  0
  1  4  2  0
  1  2  1  0
  2  3  2  0
  3  6  1  0
  4 10  1  0
  5  2  1  0
  5  7  1  0
  7  9  1  6
  7 11  1  0
  7  6  1  0
  8  4  1  0
 10  3  1  0
 10 47  1  0
 12 17  1  0
 13 14  1  0
 13 12  1  0
 15 14  1  0
 15 22  1  0
 15 16  1  0
 17 11  1  0
 17 16  1  0
 18 11  2  0
 19 20  2  0
 20 39  1  0
 21 20  1  0
 21 24  1  0
 22 19  1  0
 22 23  1  0
 23 21  2  0
 24 25  1  0
 25 26  2  0
 27 30  1  0
 27 26  1  0
 28 27  2  0
 29 28  1  0
 29 24  2  0
 30 31  1  0
 31 32  1  0
 32 33  2  0
 34 33  1  0
 34 38  1  0
 35 34  2  0
 36 31  2  0
 36 35  1  0
 37 36  1  0
 39 40  1  0
 40 43  1  0
 40 42  1  0
 41 39  2  0
 44 45  1  0
 44 19  1  0
 46 44  1  0
 48 50  1  0
 48 47  1  0
 49 60  2  0
 50 55  1  0
 51 59  1  0
 51 61  1  0
 52 58  1  0
 52 54  1  0
 53 59  1  0
 54 55  2  0
 54 53  1  0
 56 50  2  0
 57 56  1  0
 57 52  2  0
 58 51  1  0
 59 49  1  0
 61 63  2  0
 62 61  1  0
 64 62  1  0
 65 74  2  0
 65 70  1  0
 66 62  1  0
 66 70  1  0
 67 66  1  0
 68 69  1  0
 68 67  1  0
 69 65  1  0
 70 71  2  0
 71 72  1  0
 73 72  2  0
 74 73  1  0
 75 49  1  0
 75 76  1  0
 75 85  1  0
 76 79  1  0
 77 81  1  0
 77 76  1  0
 78 77  2  0
 81 80  1  0
 83 81  1  0
 83 84  1  0
 83 82  1  0
 85 88  1  1
 85 86  1  0
 87 85  1  0
M  ISO  4   7 100  11 100  47 101  48 101
M  END
>  <TORSDO>  (81) 
F 17

>  <SCORE>  (81) 
-16.512

>  <name>  (81) 
80

>  <ligand_id>  (81) 
80

>  <original_smiles>  (81) 
[H]c1c([H])c([H])c2c(c1[H])C([H])([H])C([H])([H])C([H])([H])C2([H])N([H])C(=O)C1([H])N(C(=O)C([H])(N([H])C(=O)C([H])(N([H])C([H])([H])[H])C([H])([H])[H])C(C([H])([H])[H])(C([H])([H])[H])C([H])([H])[H])C([H])([H])c2c([H])c(OC([H])([H])n3c(C([H])([H])[H])c([H])c4c3C([H])([H])C(C(=O)N3C([H])([H])C([H])([H])C([H])([H])C([H])(n5nc(-c6c([H])c([H])c(Oc7c([H])c([H])c(F)c([H])c7F)c([H])c6[H])c(C(=O)N([H])[H])c5N([H])[H])C3([H])[H])(C([H])([H])[H])C4([H])[H])c([H])c([H])c2C1([H])[H]

>  <smiles>  (81) 
[H]c1c([H])c([H])c2c(c1[H])C([H])([H])C([H])([H])C([H])([H])C2([H])N([H])C(=O)C1([H])N(C(=O)C([H])(N([H])C(=O)C([H])(N([H])C([H])([H])[H])C([H])([H])[H])C(C([H])([H])[H])(C([H])([H])[H])C([H])([H])[H])C([H])([H])c2c([H])c(OC([H])([H])n3c(C([H])([H])[H])c([H])c4c3C([H])([H])C(C(=O)N3C([H])([H])C([H])([H])C([H])([H])C([H])(n5nc(-c6c([H])c([H])c(Oc7c([H])c([H])c(F)c([H])c7F)c([H])c6[H])c(C(=O)N([H])[H])c5N([H])[H])C3([H])[H])(C([H])([H])[H])C4([H])[H])c([H])c([H])c2C1([H])[H]

$$$$
81:0:0
     RDKit          3D

 89 97  0  0  1  0  0  0  0  0999 V2000
  -29.9560  -20.7250   21.1190 C   0  0  0  0  0  3  0  0  0  0  0  0
  -29.5310  -22.1540   21.0770 C   0  0  0  0  0  3  0  0  0  0  0  0
  -27.9930  -21.5840   19.4790 C   0  0  0  0  0  3  0  0  0  0  0  0
  -29.4420  -19.5700   20.3710 C   0  0  0  0  0  0  0  0  0  0  0  0
  -28.4980  -22.7370   20.2350 C   0  0  0  0  0  0  0  0  0  0  0  0
  -28.4140  -20.1470   19.5090 C   0  0  0  0  0  0  0  0  0  0  0  0
  -27.7360  -19.2120   18.5240 C   0  0  0  0  0  1  0  0  0  0  0  0
  -30.4280  -15.3360   20.2690 C   0  0  0  0  0  0  0  0  0  0  0  0
  -30.3740  -12.9000   19.3790 C   0  0  0  0  0  2  0  0  0  0  0  0
  -29.4560  -12.6770   18.1520 C   0  0  0  0  0  2  0  0  0  0  0  0
  -28.0140  -12.3900   18.6020 C   0  0  0  0  0  2  0  0  0  0  0  0
  -27.5510  -13.3600   19.7170 C   0  0  0  0  0  3  0  0  0  0  0  0
  -28.6020  -13.5400   20.8360 C   0  0  0  0  0  2  0  0  0  0  0  0
  -29.8260  -14.0470   20.1920 N   0  0  0  0  0  0  0  0  0  0  0  0
  -31.6520  -15.2760   20.0840 O   0  0  0  0  0  0  0  0  0  0  0  0
  -30.1670  -18.0430   20.3780 C   0  0  0  0  0  0  0  0  0  0  0  0
  -29.7120  -16.6390   20.3380 N   0  0  0  0  0  0  0  0  0  0  0  0
  -31.3910  -18.1760   20.4760 O   0  0  0  0  0  0  0  0  0  0  0  0
  -28.7100  -16.5540   20.3540 H   0  0  0  0  0  0  0  0  0  0  0  0
  -25.1750  -13.8940   20.4740 C   0  0  0  0  0  0  0  0  0  0  0  0
  -24.1220  -13.1040   20.8410 C   0  0  0  0  0  0  0  0  0  0  0  0
  -24.6060  -11.7590   20.8160 C   0  0  0  0  0  0  0  0  0  0  0  0
  -26.2290  -13.0300   20.2330 N   0  0  0  0  0  0  0  0  0  0  0  0
  -25.9000  -11.7410   20.5080 N   0  0  0  0  0  0  0  0  0  0  0  0
  -23.8950  -10.4880   21.0040 C   0  0  0  0  0  0  0  0  0  0  0  0
  -24.3240   -9.5310   21.9500 C   0  0  0  0  0  3  0  0  0  0  0  0
  -23.6080   -8.3280   22.1270 C   0  0  0  0  0  3  0  0  0  0  0  0
  -22.4460   -8.0730   21.3600 C   0  0  0  0  0  0  0  0  0  0  0  0
  -22.0350   -9.0180   20.4040 C   0  0  0  0  0  3  0  0  0  0  0  0
  -22.7540  -10.2130   20.2250 C   0  0  0  0  0  3  0  0  0  0  0  0
  -21.7020   -6.9200   21.4480 O   0  0  0  0  0  0  0  0  0  0  0  0
  -21.6360   -6.1920   22.6090 C   0  0  0  0  0  0  0  0  0  0  0  0
  -21.1530   -6.7510   23.8140 C   0  0  0  0  0  3  0  0  0  0  0  0
  -21.0370   -5.9470   24.9660 C   0  0  0  0  0  3  0  0  0  0  0  0
  -21.3930   -4.5860   24.9140 C   0  0  0  0  0  0  0  0  0  0  0  0
  -21.8680   -4.0270   23.7150 C   0  0  0  0  0  3  0  0  0  0  0  0
  -21.9860   -4.8270   22.5660 C   0  0  0  0  0  0  0  0  0  0  0  0
  -22.4240   -4.2790   21.4060 F   0  0  0  0  0  0  0  0  0  0  0  0
  -21.2750   -3.8110   26.0170 F   0  0  0  0  0  0  0  0  0  0  0  0
  -22.7170  -13.5640   21.1000 C   0  0  0  0  0  0  0  0  0  0  0  0
  -21.9960  -12.8670   21.9700 N   0  0  0  0  0  0  0  0  0  0  0  0
  -22.2680  -14.5780   20.5670 O   0  0  0  0  0  0  0  0  0  0  0  0
  -22.3750  -12.0530   22.4300 H   0  0  0  0  0  0  0  0  0  0  0  0
  -21.0510  -13.1540   22.1840 H   0  0  0  0  0  0  0  0  0  0  0  0
  -25.3200  -15.2660   20.2940 N   0  0  0  0  0  0  0  0  0  0  0  0
  -24.5430  -15.9080   20.4020 H   0  0  0  0  0  0  0  0  0  0  0  0
  -26.1570  -15.7120   19.9440 H   0  0  0  0  0  0  0  0  0  0  0  0
  -27.7430  -24.3230   20.1760 C   0  0  0  0  0  2  0  0  0  0  0  0
  -28.1450  -25.9030   20.3510 O   0  0  0  0  0  0  0  0  0  0  0  0
  -24.6420  -31.9360   23.2720 C   0  0  0  0  0  0  0  0  0  0  0  0
  -27.1600  -27.0250   20.2810 C   0  0  0  0  0  0  0  0  0  0  0  0
  -23.4370  -30.5430   21.6420 C   0  0  0  0  0  3  0  0  0  0  0  0
  -24.8740  -28.9210   20.2290 C   0  0  0  0  0  0  0  0  0  0  0  0
  -26.0040  -30.7320   21.4930 C   0  0  0  0  0  2  0  0  0  0  0  0
  -26.0660  -29.3180   20.8470 C   0  0  0  0  0  0  0  0  0  0  0  0
  -27.2050  -28.3920   20.8500 C   0  0  0  0  0  3  0  0  0  0  0  0
  -25.9380  -26.7840   19.6120 C   0  0  0  0  0  3  0  0  0  0  0  0
  -24.8350  -27.6740   19.5910 C   0  0  0  0  0  3  0  0  0  0  0  0
  -23.6620  -29.8520   20.2700 C   0  0  0  0  0  2  0  0  0  0  0  0
  -24.7160  -31.0960   22.1910 N   0  0  0  0  0  0  0  0  0  0  0  0
  -23.5550  -32.2390   23.7910 O   0  0  0  0  0  0  0  0  0  0  0  0
  -22.7310  -29.5570   22.6100 C   0  0  0  0  0  0  0  0  0  0  0  0
  -21.4020  -29.3990   22.4770 N   0  0  0  0  0  0  0  0  0  0  0  0
  -23.3880  -28.9360   23.4480 O   0  0  0  0  0  0  0  0  0  0  0  0
  -20.9220  -29.9530   21.7810 H   0  0  0  0  0  0  0  0  0  0  0  0
  -18.0110  -28.2070   22.9780 C   0  0  0  0  0  0  0  0  0  0  0  0
  -20.5690  -28.4720   23.2530 C   0  0  0  0  0  3  0  0  0  0  0  0
  -20.6710  -27.0320   22.6980 C   0  0  0  0  0  2  0  0  0  0  0  0
  -19.5750  -26.6990   21.6800 C   0  0  0  0  0  2  0  0  0  0  0  0
  -18.1900  -26.8510   22.3140 C   0  0  0  0  0  2  0  0  0  0  0  0
  -19.1280  -28.9750   23.4050 C   0  0  0  0  0  0  0  0  0  0  0  0
  -18.9040  -30.2410   23.9890 C   0  0  0  0  0  3  0  0  0  0  0  0
  -17.5980  -30.7400   24.1460 C   0  0  0  0  0  3  0  0  0  0  0  0
  -16.4960  -29.9720   23.7310 C   0  0  0  0  0  3  0  0  0  0  0  0
  -16.7030  -28.7060   23.1530 C   0  0  0  0  0  3  0  0  0  0  0  0
  -25.9180  -32.5710   23.9010 C   0  0  0  0  0  3  0  0  0  0  0  0
  -25.6120  -33.9740   24.2310 N   0  0  0  0  0  0  0  0  0  0  0  0
  -25.9280  -35.0280   23.4650 C   0  0  0  0  0  0  0  0  0  0  0  0
  -26.5690  -34.9200   22.4160 O   0  0  0  0  0  0  0  0  0  0  0  0
  -25.0410  -34.1310   25.0480 H   0  0  0  0  0  0  0  0  0  0  0  0
  -24.1830  -36.8210   23.1720 C   0  0  0  0  0  1  0  0  0  0  0  0
  -25.4590  -36.4200   23.9320 C   0  0  0  0  0  3  0  0  0  0  0  0
  -27.6230  -37.3200   24.6680 C   0  0  0  0  0  1  0  0  0  0  0  0
  -26.4840  -37.4740   23.7670 N   0  0  0  0  0  0  0  0  0  0  0  0
  -26.0830  -38.3960   23.9210 H   0  0  0  0  0  0  0  0  0  0  0  0
  -26.4150  -31.8080   25.1910 C   0  0  1  0  0  0  0  0  0  0  0  0
  -25.3110  -31.5970   26.2550 C   0  0  0  0  0  1  0  0  0  0  0  0
  -26.9860  -30.4190   24.8270 C   0  0  0  0  0  1  0  0  0  0  0  0
  -27.5680  -32.5970   25.8560 C   0  0  0  0  0  1  0  0  0  0  0  0
  2  1  1  0
  3  6  2  0
  3  5  1  0
  4 16  1  0
  4  1  2  0
  5  2  2  0
  6  4  1  0
  7  6  1  0
  8 17  1  0
  9 14  1  0
 10 11  1  0
 10  9  1  0
 12 11  1  0
 12 23  1  0
 12 13  1  0
 14  8  1  0
 14 13  1  0
 15  8  2  0
 16 18  2  0
 17 19  1  0
 17 16  1  0
 20 21  2  0
 21 40  1  0
 22 21  1  0
 22 25  1  0
 23 20  1  0
 23 24  1  0
 24 22  2  0
 25 26  1  0
 26 27  2  0
 28 31  1  0
 28 27  1  0
 29 28  2  0
 30 29  1  0
 30 25  2  0
 31 32  1  0
 32 33  1  0
 33 34  2  0
 35 34  1  0
 35 39  1  0
 36 35  2  0
 37 32  2  0
 37 36  1  0
 38 37  1  0
 40 41  1  0
 41 44  1  0
 41 43  1  0
 42 40  2  0
 45 46  1  0
 45 20  1  0
 47 45  1  0
 48  5  1  0
 48 49  1  0
 50 61  2  0
 51 49  1  0
 51 56  1  0
 52 60  1  0
 52 62  1  0
 53 59  1  0
 53 55  1  0
 54 60  1  0
 55 56  2  0
 55 54  1  0
 57 51  2  0
 58 57  1  0
 58 53  2  0
 59 52  1  0
 60 50  1  0
 62 64  2  0
 63 62  1  0
 65 63  1  0
 66 75  2  0
 66 71  1  0
 67 63  1  0
 67 71  1  0
 68 67  1  0
 69 70  1  0
 69 68  1  0
 70 66  1  0
 71 72  2  0
 72 73  1  0
 74 73  2  0
 75 74  1  0
 76 50  1  0
 76 77  1  0
 76 86  1  0
 77 80  1  0
 78 82  1  0
 78 77  1  0
 79 78  2  0
 82 81  1  0
 84 85  1  0
 84 82  1  0
 84 83  1  0
 86 89  1  1
 86 87  1  0
 88 86  1  0
M  ISO  4   8 100  17 100  48 101  49 101
M  END
>  <TORSDO>  (82) 
F 17

>  <SCORE>  (82) 
-15.844

>  <name>  (82) 
81

>  <ligand_id>  (82) 
81

>  <original_smiles>  (82) 
[H]c1c([H])c([H])c2c(c1[H])C([H])([H])C([H])([H])C([H])([H])C2([H])N([H])C(=O)C1([H])N(C(=O)C([H])(N([H])C(=O)C([H])(N([H])C([H])([H])[H])C([H])([H])[H])C(C([H])([H])[H])(C([H])([H])[H])C([H])([H])[H])C([H])([H])c2c([H])c(OC([H])([H])c3c([H])c([H])c(C(=O)N([H])C(=O)N4C([H])([H])C([H])([H])C([H])([H])C([H])(n5nc(-c6c([H])c([H])c(Oc7c([H])c([H])c(F)c([H])c7F)c([H])c6[H])c(C(=O)N([H])[H])c5N([H])[H])C4([H])[H])c(C([H])([H])[H])c3[H])c([H])c([H])c2C1([H])[H]

>  <smiles>  (82) 
[H]c1c([H])c([H])c2c(c1[H])C([H])([H])C([H])([H])C([H])([H])C2([H])N([H])C(=O)C1([H])N(C(=O)C([H])(N([H])C(=O)C([H])(N([H])C([H])([H])[H])C([H])([H])[H])C(C([H])([H])[H])(C([H])([H])[H])C([H])([H])[H])C([H])([H])c2c([H])c(OC([H])([H])c3c([H])c([H])c(C(=O)N([H])C(=O)N4C([H])([H])C([H])([H])C([H])([H])C([H])(n5nc(-c6c([H])c([H])c(Oc7c([H])c([H])c(F)c([H])c7F)c([H])c6[H])c(C(=O)N([H])[H])c5N([H])[H])C4([H])[H])c(C([H])([H])[H])c3[H])c([H])c([H])c2C1([H])[H]

$$$$
82:0:0
     RDKit          3D

 91100  0  0  1  0  0  0  0  0999 V2000
  -28.3550  -19.5840   20.3610 C   0  0  0  0  0  3  0  0  0  0  0  0
  -28.0750  -21.0050   20.5200 C   0  0  0  0  0  3  0  0  0  0  0  0
  -30.3920  -21.4450   20.5450 C   0  0  0  0  0  3  0  0  0  0  0  0
  -29.6730  -19.0200   20.2780 C   0  0  0  0  0  0  0  0  0  0  0  0
  -30.6840  -20.0410   20.3920 C   0  0  0  0  0  0  0  0  0  0  0  0
  -29.0870  -22.0200   20.5970 C   0  0  0  0  0  0  0  0  0  0  0  0
  -32.1620  -19.6840   20.2640 C   0  0  0  0  0  2  0  0  0  0  0  0
  -32.4430  -18.2110   19.9300 C   0  0  0  0  0  2  0  0  0  0  0  0
  -31.3790  -17.6410   18.9890 C   0  0  0  0  0  2  0  0  0  0  0  0
  -30.0440  -17.5090   19.7460 C   0  0  0  0  0  3  0  0  0  0  0  0
  -30.6370  -14.9080   20.3360 C   0  0  0  0  0  0  0  0  0  0  0  0
  -30.4440  -12.5960   19.3680 C   0  0  0  0  0  2  0  0  0  0  0  0
  -29.5170  -12.6280   18.1310 C   0  0  0  0  0  2  0  0  0  0  0  0
  -28.0480  -12.4440   18.5560 C   0  0  0  0  0  2  0  0  0  0  0  0
  -27.6610  -13.3400   19.7620 C   0  0  0  0  0  3  0  0  0  0  0  0
  -28.7150  -13.3000   20.8890 C   0  0  0  0  0  2  0  0  0  0  0  0
  -30.0000  -13.6760   20.2920 N   0  0  0  0  0  0  0  0  0  0  0  0
  -31.8390  -14.9190   20.0560 O   0  0  0  0  0  0  0  0  0  0  0  0
  -29.8920  -16.1070   20.4460 N   0  0  0  0  0  0  0  0  0  0  0  0
  -28.9530  -15.9440   20.7780 H   0  0  0  0  0  0  0  0  0  0  0  0
  -25.2780  -13.9200   20.4930 C   0  0  0  0  0  0  0  0  0  0  0  0
  -24.2140  -13.1460   20.8620 C   0  0  0  0  0  0  0  0  0  0  0  0
  -24.6800  -11.7950   20.8360 C   0  0  0  0  0  0  0  0  0  0  0  0
  -26.3220  -13.0430   20.2560 N   0  0  0  0  0  0  0  0  0  0  0  0
  -25.9720  -11.7590   20.5290 N   0  0  0  0  0  0  0  0  0  0  0  0
  -23.9540  -10.5320   21.0290 C   0  0  0  0  0  0  0  0  0  0  0  0
  -24.3850   -9.5670   21.9650 C   0  0  0  0  0  3  0  0  0  0  0  0
  -23.6580   -8.3700   22.1450 C   0  0  0  0  0  3  0  0  0  0  0  0
  -22.4860   -8.1300   21.3890 C   0  0  0  0  0  0  0  0  0  0  0  0
  -22.0740   -9.0840   20.4420 C   0  0  0  0  0  3  0  0  0  0  0  0
  -22.8010  -10.2720   20.2610 C   0  0  0  0  0  3  0  0  0  0  0  0
  -21.7320   -6.9860   21.4790 O   0  0  0  0  0  0  0  0  0  0  0  0
  -21.6790   -6.2470   22.6330 C   0  0  0  0  0  0  0  0  0  0  0  0
  -21.2360   -6.8030   23.8530 C   0  0  0  0  0  3  0  0  0  0  0  0
  -21.1310   -5.9900   25.0000 C   0  0  0  0  0  3  0  0  0  0  0  0
  -21.4580   -4.6220   24.9260 C   0  0  0  0  0  0  0  0  0  0  0  0
  -21.8930   -4.0660   23.7100 C   0  0  0  0  0  3  0  0  0  0  0  0
  -22.0000   -4.8770   22.5660 C   0  0  0  0  0  0  0  0  0  0  0  0
  -22.3990   -4.3320   21.3920 F   0  0  0  0  0  0  0  0  0  0  0  0
  -21.3500   -3.8390   26.0240 F   0  0  0  0  0  0  0  0  0  0  0  0
  -22.8160  -13.6220   21.1270 C   0  0  0  0  0  0  0  0  0  0  0  0
  -22.0840  -12.9250   21.9880 N   0  0  0  0  0  0  0  0  0  0  0  0
  -22.3800  -14.6470   20.6050 O   0  0  0  0  0  0  0  0  0  0  0  0
  -22.4510  -12.0960   22.4320 H   0  0  0  0  0  0  0  0  0  0  0  0
  -21.1460  -13.2250   22.2100 H   0  0  0  0  0  0  0  0  0  0  0  0
  -25.4400  -15.2920   20.3120 N   0  0  0  0  0  0  0  0  0  0  0  0
  -24.6680  -15.9410   20.4160 H   0  0  0  0  0  0  0  0  0  0  0  0
  -26.2770  -15.7270   19.9480 H   0  0  0  0  0  0  0  0  0  0  0  0
  -28.8930  -23.6120   20.9320 C   0  0  0  0  0  3  0  0  0  0  0  0
  -28.1380  -24.7880   20.0590 C   0  0  0  0  0  3  0  0  0  0  0  0
  -28.2740  -26.2870   20.3810 O   0  0  0  0  0  0  0  0  0  0  0  0
  -24.5990  -31.9120   23.2470 C   0  0  0  0  0  0  0  0  0  0  0  0
  -27.1990  -27.2240   20.2620 C   0  0  0  0  0  0  0  0  0  0  0  0
  -23.4070  -30.5080   21.6060 C   0  0  0  0  0  3  0  0  0  0  0  0
  -24.8660  -28.9330   20.1990 C   0  0  0  0  0  0  0  0  0  0  0  0
  -25.9590  -30.7850   21.4550 C   0  0  0  0  0  2  0  0  0  0  0  0
  -26.0360  -29.3940   20.8150 C   0  0  0  0  0  0  0  0  0  0  0  0
  -27.2020  -28.5510   20.8360 C   0  0  0  0  0  3  0  0  0  0  0  0
  -26.0120  -26.8590   19.5900 C   0  0  0  0  0  3  0  0  0  0  0  0
  -24.8640  -27.6780   19.5730 C   0  0  0  0  0  3  0  0  0  0  0  0
  -23.6340  -29.8220   20.2330 C   0  0  0  0  0  2  0  0  0  0  0  0
  -24.6740  -31.0880   22.1590 N   0  0  0  0  0  0  0  0  0  0  0  0
  -23.5100  -32.1990   23.7660 O   0  0  0  0  0  0  0  0  0  0  0  0
  -22.7280  -29.5020   22.5680 C   0  0  0  0  0  0  0  0  0  0  0  0
  -21.4000  -29.3340   22.4380 N   0  0  0  0  0  0  0  0  0  0  0  0
  -23.3960  -28.8760   23.3950 O   0  0  0  0  0  0  0  0  0  0  0  0
  -20.9200  -29.8910   21.7440 H   0  0  0  0  0  0  0  0  0  0  0  0
  -18.0110  -28.1710   22.9490 C   0  0  0  0  0  0  0  0  0  0  0  0
  -20.5720  -28.4050   23.2110 C   0  0  0  0  0  3  0  0  0  0  0  0
  -20.6570  -26.9720   22.6340 C   0  0  0  0  0  2  0  0  0  0  0  0
  -19.5490  -26.6620   21.6220 C   0  0  0  0  0  2  0  0  0  0  0  0
  -18.1700  -26.8210   22.2700 C   0  0  0  0  0  2  0  0  0  0  0  0
  -19.1380  -28.9220   23.3750 C   0  0  0  0  0  0  0  0  0  0  0  0
  -18.9330  -30.1850   23.9710 C   0  0  0  0  0  3  0  0  0  0  0  0
  -17.6340  -30.6970   24.1440 C   0  0  0  0  0  3  0  0  0  0  0  0
  -16.5210  -29.9460   23.7310 C   0  0  0  0  0  3  0  0  0  0  0  0
  -16.7100  -28.6840   23.1400 C   0  0  0  0  0  3  0  0  0  0  0  0
  -25.8740  -32.5500   23.8770 C   0  0  0  0  0  3  0  0  0  0  0  0
  -25.5620  -33.9520   24.1920 N   0  0  0  0  0  0  0  0  0  0  0  0
  -25.9010  -35.0010   23.4320 C   0  0  0  0  0  0  0  0  0  0  0  0
  -26.5760  -34.8900   22.4050 O   0  0  0  0  0  0  0  0  0  0  0  0
  -24.9630  -34.1120   24.9890 H   0  0  0  0  0  0  0  0  0  0  0  0
  -24.1840  -36.8020   23.0520 C   0  0  0  0  0  1  0  0  0  0  0  0
  -25.4140  -36.3950   23.8790 C   0  0  0  0  0  3  0  0  0  0  0  0
  -27.5400  -37.2780   24.7340 C   0  0  0  0  0  1  0  0  0  0  0  0
  -26.4530  -37.4420   23.7730 N   0  0  0  0  0  0  0  0  0  0  0  0
  -26.0490  -38.3660   23.9060 H   0  0  0  0  0  0  0  0  0  0  0  0
  -26.3730  -31.7920   25.1680 C   0  0  1  0  0  0  0  0  0  0  0  0
  -25.2650  -31.5670   26.2230 C   0  0  0  0  0  1  0  0  0  0  0  0
  -26.9630  -30.4110   24.8020 C   0  0  0  0  0  1  0  0  0  0  0  0
  -27.5140  -32.5950   25.8380 C   0  0  0  0  0  1  0  0  0  0  0  0
  1  2  1  0
  2  6  2  0
  3  6  1  0
  4  1  2  0
  4  5  1  0
  5  3  2  0
  6 49  1  0
  7  5  1  0
  8  7  1  0
  9 10  1  0
  9  8  1  0
 10  4  1  0
 10 19  1  0
 11 19  1  0
 12 17  1  0
 13 14  1  0
 13 12  1  0
 15 14  1  0
 15 24  1  0
 15 16  1  0
 17 11  1  0
 17 16  1  0
 18 11  2  0
 19 20  1  0
 21 22  2  0
 22 41  1  0
 23 22  1  0
 23 26  1  0
 24 21  1  0
 24 25  1  0
 25 23  2  0
 26 27  1  0
 27 28  2  0
 29 32  1  0
 29 28  1  0
 30 29  2  0
 31 30  1  0
 31 26  2  0
 32 33  1  0
 33 34  1  0
 34 35  2  0
 36 35  1  0
 36 40  1  0
 37 36  2  0
 38 33  2  0
 38 37  1  0
 39 38  1  0
 41 42  1  0
 42 45  1  0
 42 44  1  0
 43 41  2  0
 46 47  1  0
 46 21  1  0
 48 46  1  0
 50 51  1  0
 50 49  2  0
 52 63  2  0
 53 51  1  0
 53 58  1  0
 54 62  1  0
 54 64  1  0
 55 61  1  0
 55 57  1  0
 56 62  1  0
 57 58  2  0
 57 56  1  0
 59 53  2  0
 60 59  1  0
 60 55  2  0
 61 54  1  0
 62 52  1  0
 64 66  2  0
 65 64  1  0
 67 65  1  0
 68 77  2  0
 68 73  1  0
 69 65  1  0
 69 73  1  0
 70 69  1  0
 71 72  1  0
 71 70  1  0
 72 68  1  0
 73 74  2  0
 74 75  1  0
 76 75  2  0
 77 76  1  0
 78 52  1  0
 78 79  1  0
 78 88  1  0
 79 82  1  0
 80 84  1  0
 80 79  1  0
 81 80  2  0
 84 83  1  0
 86 84  1  0
 86 87  1  0
 86 85  1  0
 88 91  1  1
 88 89  1  0
 90 88  1  0
M  ISO  4  11 100  19 100  50 101  51 101
M  END
>  <TORSDO>  (83) 
F 18

>  <SCORE>  (83) 
-14.869

>  <name>  (83) 
82

>  <ligand_id>  (83) 
82

>  <original_smiles>  (83) 
[H]c1c([H])c([H])c2c(c1[H])C([H])([H])C([H])([H])C([H])([H])C2([H])N([H])C(=O)C1([H])N(C(=O)C([H])(N([H])C(=O)C([H])(N([H])C([H])([H])[H])C([H])([H])[H])C(C([H])([H])[H])(C([H])([H])[H])C([H])([H])[H])C([H])([H])c2c([H])c(OC([H])([H])C([H])([H])c3c([H])c([H])c4c(c3[H])C([H])([H])C([H])([H])C([H])([H])C4([H])N([H])C(=O)N3C([H])([H])C([H])([H])C([H])([H])C([H])(n4nc(-c5c([H])c([H])c(Oc6c([H])c([H])c(F)c([H])c6F)c([H])c5[H])c(C(=O)N([H])[H])c4N([H])[H])C3([H])[H])c([H])c([H])c2C1([H])[H]

>  <smiles>  (83) 
[H]c1c([H])c([H])c2c(c1[H])C([H])([H])C([H])([H])C([H])([H])C2([H])N([H])C(=O)C1([H])N(C(=O)C([H])(N([H])C(=O)C([H])(N([H])C([H])([H])[H])C([H])([H])[H])C(C([H])([H])[H])(C([H])([H])[H])C([H])([H])[H])C([H])([H])c2c([H])c(OC([H])([H])C([H])([H])c3c([H])c([H])c4c(c3[H])C([H])([H])C([H])([H])C([H])([H])C4([H])N([H])C(=O)N3C([H])([H])C([H])([H])C([H])([H])C([H])(n4nc(-c5c([H])c([H])c(Oc6c([H])c([H])c(F)c([H])c6F)c([H])c5[H])c(C(=O)N([H])[H])c4N([H])[H])C3([H])[H])c([H])c([H])c2C1([H])[H]

$$$$
83:0:0
     RDKit          3D

 94103  0  0  1  0  0  0  0  0999 V2000
  -29.7480  -19.8140   19.8880 C   0  0  0  0  0  3  0  0  0  0  0  0
  -30.5330  -21.7140   20.9880 C   0  0  0  0  0  3  0  0  0  0  0  0
  -29.7960  -21.2510   19.9250 C   0  0  0  0  0  0  0  0  0  0  0  0
  -30.5010  -19.2230   20.8820 C   0  0  0  0  0  0  0  0  0  0  0  0
  -31.2430  -20.4250   21.9020 S   0  0  0  0  0  0  0  0  0  0  0  0
  -31.4740  -14.5070   19.4250 C   0  0  0  0  0  0  0  0  0  0  0  0
  -30.8640  -12.4370   18.2210 C   0  0  0  0  0  2  0  0  0  0  0  0
  -29.7190  -12.6880   17.2190 C   0  0  0  0  0  2  0  0  0  0  0  0
  -28.3480  -12.5730   17.9060 C   0  0  0  0  0  2  0  0  0  0  0  0
  -28.2690  -13.3780   19.2270 C   0  0  0  0  0  3  0  0  0  0  0  0
  -29.4920  -13.0760   20.1160 C   0  0  0  0  0  2  0  0  0  0  0  0
  -30.7170  -13.3740   19.3470 N   0  0  0  0  0  0  0  0  0  0  0  0
  -32.3570  -14.7670   18.5980 O   0  0  0  0  0  0  0  0  0  0  0  0
  -30.1950  -15.7840   22.6410 C   0  0  0  0  0  2  0  0  0  0  0  0
  -29.6870  -17.1190   22.0590 C   0  0  0  0  0  2  0  0  0  0  0  0
  -31.3180  -15.1500   21.7840 C   0  0  0  0  0  2  0  0  0  0  0  0
  -31.1220  -16.8660   19.9980 C   0  0  0  0  0  2  0  0  0  0  0  0
  -30.7770  -17.7800   21.2000 C   0  0  0  0  0  3  0  0  0  0  0  0
  -31.1130  -15.4250   20.3510 N   0  0  0  0  0  0  0  0  0  0  0  0
  -26.1150  -14.0250   20.4790 C   0  0  0  0  0  0  0  0  0  0  0  0
  -25.0740  -13.2720   20.9570 C   0  0  0  0  0  0  0  0  0  0  0  0
  -25.3990  -11.9140   20.6630 C   0  0  0  0  0  0  0  0  0  0  0  0
  -27.0140  -13.1220   19.9310 N   0  0  0  0  0  0  0  0  0  0  0  0
  -26.5950  -11.8400   20.0920 N   0  0  0  0  0  0  0  0  0  0  0  0
  -24.6160  -10.6830   20.8330 C   0  0  0  0  0  0  0  0  0  0  0  0
  -25.0330   -9.6580   21.7110 C   0  0  0  0  0  3  0  0  0  0  0  0
  -24.2510   -8.4930   21.8750 C   0  0  0  0  0  3  0  0  0  0  0  0
  -23.0410   -8.3460   21.1570 C   0  0  0  0  0  0  0  0  0  0  0  0
  -22.6410   -9.3600   20.2680 C   0  0  0  0  0  3  0  0  0  0  0  0
  -23.4220  -10.5150   20.1040 C   0  0  0  0  0  3  0  0  0  0  0  0
  -22.2310   -7.2380   21.2320 O   0  0  0  0  0  0  0  0  0  0  0  0
  -22.0460   -6.5610   22.4120 C   0  0  0  0  0  0  0  0  0  0  0  0
  -21.5500   -7.2030   23.5680 C   0  0  0  0  0  3  0  0  0  0  0  0
  -21.3050   -6.4560   24.7370 C   0  0  0  0  0  3  0  0  0  0  0  0
  -21.5460   -5.0690   24.7520 C   0  0  0  0  0  0  0  0  0  0  0  0
  -22.0320   -4.4270   23.6000 C   0  0  0  0  0  3  0  0  0  0  0  0
  -22.2760   -5.1700   22.4320 C   0  0  0  0  0  0  0  0  0  0  0  0
  -22.7240   -4.5430   21.3180 F   0  0  0  0  0  0  0  0  0  0  0  0
  -21.3040   -4.3500   25.8740 F   0  0  0  0  0  0  0  0  0  0  0  0
  -23.8050  -13.7910   21.5710 C   0  0  0  0  0  0  0  0  0  0  0  0
  -23.2410  -13.0550   22.5230 N   0  0  0  0  0  0  0  0  0  0  0  0
  -23.3290  -14.8770   21.2440 O   0  0  0  0  0  0  0  0  0  0  0  0
  -23.6420  -12.1740   22.8060 H   0  0  0  0  0  0  0  0  0  0  0  0
  -22.3960  -13.3760   22.9720 H   0  0  0  0  0  0  0  0  0  0  0  0
  -26.3610  -15.3920   20.4500 N   0  0  0  0  0  0  0  0  0  0  0  0
  -25.6920  -16.0700   20.7970 H   0  0  0  0  0  0  0  0  0  0  0  0
  -27.1770  -15.8170   20.0260 H   0  0  0  0  0  0  0  0  0  0  0  0
  -29.1070  -22.2000   19.0000 C   0  0  0  0  0  0  0  0  0  0  0  0
  -29.7690  -23.3570   18.8680 N   0  0  0  0  0  0  0  0  0  0  0  0
  -28.0360  -21.9530   18.4420 O   0  0  0  0  0  0  0  0  0  0  0  0
  -30.6840  -23.3750   19.3000 H   0  0  0  0  0  0  0  0  0  0  0  0
  -29.2390  -24.6500   18.4530 C   0  0  0  0  0  2  0  0  0  0  0  0
  -28.8570  -25.4410   19.7240 C   0  0  0  0  0  2  0  0  0  0  0  0
  -28.7850  -26.8460   19.4950 O   0  0  0  0  0  0  0  0  0  0  0  0
  -24.6880  -31.6170   22.8230 C   0  0  0  0  0  0  0  0  0  0  0  0
  -27.5500  -27.4420   19.5780 C   0  0  0  0  0  0  0  0  0  0  0  0
  -23.5440  -30.2080   21.1360 C   0  0  0  0  0  3  0  0  0  0  0  0
  -25.0650  -28.7860   19.6690 C   0  0  0  0  0  0  0  0  0  0  0  0
  -26.0410  -30.7070   20.9360 C   0  0  0  0  0  2  0  0  0  0  0  0
  -26.1950  -29.3580   20.2690 C   0  0  0  0  0  0  0  0  0  0  0  0
  -27.4370  -28.6940   20.2200 C   0  0  0  0  0  3  0  0  0  0  0  0
  -26.4030  -26.8710   18.9810 C   0  0  0  0  0  3  0  0  0  0  0  0
  -25.1640  -27.5390   19.0260 C   0  0  0  0  0  3  0  0  0  0  0  0
  -23.7800  -29.5790   19.7370 C   0  0  0  0  0  2  0  0  0  0  0  0
  -24.7750  -30.8640   21.6890 N   0  0  0  0  0  0  0  0  0  0  0  0
  -23.5970  -31.8090   23.3790 O   0  0  0  0  0  0  0  0  0  0  0  0
  -22.9520  -29.1260   22.0690 C   0  0  0  0  0  0  0  0  0  0  0  0
  -21.6250  -28.9240   21.9880 N   0  0  0  0  0  0  0  0  0  0  0  0
  -23.6830  -28.4720   22.8160 O   0  0  0  0  0  0  0  0  0  0  0  0
  -21.0890  -29.4980   21.3490 H   0  0  0  0  0  0  0  0  0  0  0  0
  -18.2940  -27.6920   22.6320 C   0  0  0  0  0  0  0  0  0  0  0  0
  -20.8650  -27.9310   22.7460 C   0  0  0  0  0  3  0  0  0  0  0  0
  -20.9200  -26.5470   22.0620 C   0  0  0  0  0  2  0  0  0  0  0  0
  -19.7530  -26.3030   21.0990 C   0  0  0  0  0  2  0  0  0  0  0  0
  -18.4170  -26.3980   21.8460 C   0  0  0  0  0  2  0  0  0  0  0  0
  -19.4440  -28.4170   23.0480 C   0  0  0  0  0  0  0  0  0  0  0  0
  -19.2710  -29.6310   23.7490 C   0  0  0  0  0  3  0  0  0  0  0  0
  -17.9830  -30.1120   24.0480 C   0  0  0  0  0  3  0  0  0  0  0  0
  -16.8500  -29.3850   23.6410 C   0  0  0  0  0  3  0  0  0  0  0  0
  -17.0080  -28.1790   22.9350 C   0  0  0  0  0  3  0  0  0  0  0  0
  -25.9460  -32.2910   23.4590 C   0  0  0  0  0  3  0  0  0  0  0  0
  -26.5950  -31.4390   24.6180 C   0  0  1  0  0  0  0  0  0  0  0  0
  -25.5780  -30.9550   25.6780 C   0  0  0  0  0  1  0  0  0  0  0  0
  -27.3180  -30.1980   24.0450 C   0  0  0  0  0  1  0  0  0  0  0  0
  -27.6760  -32.2760   25.3410 C   0  0  0  0  0  1  0  0  0  0  0  0
  -25.5390  -33.6140   23.9490 N   0  0  0  0  0  0  0  0  0  0  0  0
  -25.7450  -34.7640   23.2930 C   0  0  0  0  0  0  0  0  0  0  0  0
  -26.3710  -34.8270   22.2320 O   0  0  0  0  0  0  0  0  0  0  0  0
  -24.9940  -33.6370   24.7980 H   0  0  0  0  0  0  0  0  0  0  0  0
  -23.8660  -36.4330   23.1790 C   0  0  0  0  0  1  0  0  0  0  0  0
  -25.1620  -36.0510   23.9110 C   0  0  0  0  0  3  0  0  0  0  0  0
  -27.2450  -37.0150   24.7850 C   0  0  0  0  0  1  0  0  0  0  0  0
  -26.1030  -37.1920   23.8890 N   0  0  0  0  0  0  0  0  0  0  0  0
  -25.6300  -38.0550   24.1470 H   0  0  0  0  0  0  0  0  0  0  0  0
  1  3  1  0
  1  4  2  0
  2  5  1  0
  3  2  2  0
  4  5  1  0
  6 19  1  0
  7 12  1  0
  8  9  1  0
  8  7  1  0
 10  9  1  0
 10 23  1  0
 10 11  1  0
 12  6  1  0
 12 11  1  0
 13  6  2  0
 15 14  1  0
 16 14  1  0
 17 19  1  0
 17 18  1  0
 18  4  1  0
 18 15  1  0
 19 16  1  0
 20 21  2  0
 21 40  1  0
 22 25  1  0
 22 21  1  0
 23 24  1  0
 23 20  1  0
 24 22  2  0
 25 26  1  0
 26 27  2  0
 28 31  1  0
 28 27  1  0
 29 28  2  0
 30 29  1  0
 30 25  2  0
 31 32  1  0
 32 37  2  0
 32 33  1  0
 33 34  2  0
 34 35  1  0
 35 39  1  0
 36 35  2  0
 37 36  1  0
 38 37  1  0
 40 41  1  0
 41 43  1  0
 41 44  1  0
 42 40  2  0
 45 20  1  0
 45 46  1  0
 47 45  1  0
 48  3  1  0
 49 48  1  0
 49 51  1  0
 50 48  2  0
 52 49  1  0
 52 53  1  0
 54 56  1  0
 54 53  1  0
 55 66  2  0
 56 61  1  0
 57 65  1  0
 57 67  1  0
 58 64  1  0
 58 60  1  0
 59 65  1  0
 60 59  1  0
 61 60  2  0
 62 63  1  0
 62 56  2  0
 63 58  2  0
 64 57  1  0
 65 55  1  0
 67 69  2  0
 68 67  1  0
 70 68  1  0
 71 80  2  0
 71 76  1  0
 72 68  1  0
 72 76  1  0
 73 72  1  0
 74 75  1  0
 74 73  1  0
 75 71  1  0
 76 77  2  0
 77 78  1  0
 79 78  2  0
 80 79  1  0
 81 55  1  0
 81 86  1  0
 81 82  1  0
 82 85  1  1
 82 83  1  0
 84 82  1  0
 86 89  1  0
 87 91  1  0
 87 86  1  0
 88 87  2  0
 91 90  1  0
 93 91  1  0
 93 94  1  0
 93 92  1  0
M  ISO  4   6 100  19 100  53 101  54 101
M  END
>  <TORSDO>  (84) 
F 19

>  <SCORE>  (84) 
-9.568

>  <name>  (84) 
83

>  <ligand_id>  (84) 
83

>  <original_smiles>  (84) 
[H]c1sc(C2([H])C([H])([H])N(C(=O)N3C([H])([H])C([H])([H])C([H])([H])C([H])(n4nc(-c5c([H])c([H])c(Oc6c([H])c([H])c(F)c([H])c6F)c([H])c5[H])c(C(=O)N([H])[H])c4N([H])[H])C3([H])[H])C([H])([H])C([H])([H])C2([H])[H])c([H])c1C(=O)N([H])C([H])([H])C([H])([H])Oc1c([H])c([H])c2c(c1[H])C([H])([H])N(C(=O)C([H])(N([H])C(=O)C([H])(N([H])C([H])([H])[H])C([H])([H])[H])C(C([H])([H])[H])(C([H])([H])[H])C([H])([H])[H])C([H])(C(=O)N([H])C1([H])c3c([H])c([H])c([H])c([H])c3C([H])([H])C([H])([H])C1([H])[H])C2([H])[H]

>  <smiles>  (84) 
[H]c1sc(C2([H])C([H])([H])N(C(=O)N3C([H])([H])C([H])([H])C([H])([H])C([H])(n4nc(-c5c([H])c([H])c(Oc6c([H])c([H])c(F)c([H])c6F)c([H])c5[H])c(C(=O)N([H])[H])c4N([H])[H])C3([H])[H])C([H])([H])C([H])([H])C2([H])[H])c([H])c1C(=O)N([H])C([H])([H])C([H])([H])Oc1c([H])c([H])c2c(c1[H])C([H])([H])N(C(=O)C([H])(N([H])C(=O)C([H])(N([H])C([H])([H])[H])C([H])([H])[H])C(C([H])([H])[H])(C([H])([H])[H])C([H])([H])[H])C([H])(C(=O)N([H])C1([H])c3c([H])c([H])c([H])c([H])c3C([H])([H])C([H])([H])C1([H])[H])C2([H])[H]

$$$$
84:0:0
     RDKit          3D

 92101  0  0  1  0  0  0  0  0999 V2000
  -28.6140  -20.6850   19.6860 C   0  0  0  0  0  3  0  0  0  0  0  0
  -29.9200  -20.5360   21.7100 C   0  0  0  0  0  3  0  0  0  0  0  0
  -28.6400  -22.1150   19.7510 C   0  0  0  0  0  0  0  0  0  0  0  0
  -29.2720  -22.7680   20.8430 C   0  0  0  0  0  0  0  0  0  0  0  0
  -29.2300  -19.8670   20.6750 C   0  0  0  0  0  0  0  0  0  0  0  0
  -29.9470  -21.9540   21.7980 C   0  0  0  0  0  0  0  0  0  0  0  0
  -27.9770  -22.9380   18.6850 C   0  0  0  0  0  0  0  0  0  0  0  0
  -29.2280  -24.3200   20.9920 C   0  0  0  0  0  2  0  0  0  0  0  0
  -28.2200  -24.4610   18.7010 C   0  0  0  0  0  2  0  0  0  0  0  0
  -28.1580  -25.0600   20.1240 C   0  0  0  0  0  3  0  0  0  0  0  0
  -30.7030  -22.5900   22.9510 C   0  0  0  0  0  1  0  0  0  0  0  0
  -27.2870  -22.4490   17.7860 O   0  0  0  0  0  0  0  0  0  0  0  0
  -28.2920  -26.5300   20.1580 O   0  0  0  0  0  0  0  0  0  0  0  0
  -24.5420  -31.8650   23.2010 C   0  0  0  0  0  0  0  0  0  0  0  0
  -27.1440  -27.3300   20.1290 C   0  0  0  0  0  0  0  0  0  0  0  0
  -23.3260  -30.4610   21.5740 C   0  0  0  0  0  3  0  0  0  0  0  0
  -24.7670  -28.9140   20.1410 C   0  0  0  0  0  0  0  0  0  0  0  0
  -25.8620  -30.7920   21.3670 C   0  0  0  0  0  2  0  0  0  0  0  0
  -25.9390  -29.4150   20.7220 C   0  0  0  0  0  0  0  0  0  0  0  0
  -27.1300  -28.6360   20.7030 C   0  0  0  0  0  3  0  0  0  0  0  0
  -25.9440  -26.8700   19.5410 C   0  0  0  0  0  3  0  0  0  0  0  0
  -24.7710  -27.6460   19.5420 C   0  0  0  0  0  3  0  0  0  0  0  0
  -23.5280  -29.7820   20.1950 C   0  0  0  0  0  2  0  0  0  0  0  0
  -24.5970  -31.0560   22.1040 N   0  0  0  0  0  0  0  0  0  0  0  0
  -23.4640  -32.1420   23.7430 O   0  0  0  0  0  0  0  0  0  0  0  0
  -22.6750  -29.4450   22.5410 C   0  0  0  0  0  0  0  0  0  0  0  0
  -21.3480  -29.2660   22.4240 N   0  0  0  0  0  0  0  0  0  0  0  0
  -23.3610  -28.8190   23.3530 O   0  0  0  0  0  0  0  0  0  0  0  0
  -20.8530  -29.8230   21.7410 H   0  0  0  0  0  0  0  0  0  0  0  0
  -17.9740  -28.0760   22.9500 C   0  0  0  0  0  0  0  0  0  0  0  0
  -20.5330  -28.3310   23.2030 C   0  0  0  0  0  3  0  0  0  0  0  0
  -20.6300  -26.8980   22.6300 C   0  0  0  0  0  2  0  0  0  0  0  0
  -19.5210  -26.5750   21.6240 C   0  0  0  0  0  2  0  0  0  0  0  0
  -18.1440  -26.7240   22.2760 C   0  0  0  0  0  2  0  0  0  0  0  0
  -19.0960  -28.8380   23.3700 C   0  0  0  0  0  0  0  0  0  0  0  0
  -18.8840  -30.1030   23.9580 C   0  0  0  0  0  3  0  0  0  0  0  0
  -17.5810  -30.6080   24.1300 C   0  0  0  0  0  3  0  0  0  0  0  0
  -16.4730  -29.8420   23.7270 C   0  0  0  0  0  3  0  0  0  0  0  0
  -16.6700  -28.5790   23.1430 C   0  0  0  0  0  3  0  0  0  0  0  0
  -25.8300  -32.4990   23.8120 C   0  0  0  0  0  3  0  0  0  0  0  0
  -26.3670  -31.7190   25.0740 C   0  0  1  0  0  0  0  0  0  0  0  0
  -25.2890  -31.4610   26.1520 C   0  0  0  0  0  1  0  0  0  0  0  0
  -26.9550  -30.3490   24.6620 C   0  0  0  0  0  1  0  0  0  0  0  0
  -27.5220  -32.5130   25.7310 C   0  0  0  0  0  1  0  0  0  0  0  0
  -25.5180  -33.8920   24.1580 N   0  0  0  0  0  0  0  0  0  0  0  0
  -25.8350  -34.9530   23.4040 C   0  0  0  0  0  0  0  0  0  0  0  0
  -26.4900  -34.8630   22.3630 O   0  0  0  0  0  0  0  0  0  0  0  0
  -24.9330  -34.0370   24.9690 H   0  0  0  0  0  0  0  0  0  0  0  0
  -24.0910  -36.7380   23.0870 C   0  0  0  0  0  1  0  0  0  0  0  0
  -25.3440  -36.3350   23.8810 C   0  0  0  0  0  3  0  0  0  0  0  0
  -27.4850  -37.2200   24.6930 C   0  0  0  0  0  1  0  0  0  0  0  0
  -26.3680  -37.3960   23.7690 N   0  0  0  0  0  0  0  0  0  0  0  0
  -25.9570  -38.3090   23.9420 H   0  0  0  0  0  0  0  0  0  0  0  0
  -28.9990  -18.3240   20.7300 C   0  0  0  0  0  2  0  0  0  0  0  0
  -30.1930  -17.2980   20.6080 C   0  0  0  0  0  2  0  0  0  0  0  0
  -29.8310  -15.8290   21.0920 C   0  0  0  0  0  2  0  0  0  0  0  0
  -30.6030  -14.5920   20.4960 C   0  0  0  0  0  0  0  0  0  0  0  0
  -30.3850  -12.3890   19.3580 C   0  0  0  0  0  2  0  0  0  0  0  0
  -29.4570  -12.5690   18.1360 C   0  0  0  0  0  2  0  0  0  0  0  0
  -27.9740  -12.4220   18.5360 C   0  0  0  0  0  2  0  0  0  0  0  0
  -27.6130  -13.2550   19.7960 C   0  0  0  0  0  3  0  0  0  0  0  0
  -28.6560  -13.0500   20.9180 C   0  0  0  0  0  2  0  0  0  0  0  0
  -29.9790  -13.3810   20.3710 N   0  0  0  0  0  0  0  0  0  0  0  0
  -31.7440  -14.7660   20.0550 O   0  0  0  0  0  0  0  0  0  0  0  0
  -25.2070  -13.8730   20.4580 C   0  0  0  0  0  0  0  0  0  0  0  0
  -24.1310  -13.1070   20.8160 C   0  0  0  0  0  0  0  0  0  0  0  0
  -24.5900  -11.7540   20.8090 C   0  0  0  0  0  0  0  0  0  0  0  0
  -26.2540  -12.9860   20.2550 N   0  0  0  0  0  0  0  0  0  0  0  0
  -25.8850  -11.7080   20.5250 N   0  0  0  0  0  0  0  0  0  0  0  0
  -23.8570  -10.4960   21.0020 C   0  0  0  0  0  0  0  0  0  0  0  0
  -24.2750   -9.5360   21.9480 C   0  0  0  0  0  3  0  0  0  0  0  0
  -23.5430   -8.3430   22.1290 C   0  0  0  0  0  3  0  0  0  0  0  0
  -22.3780   -8.1020   21.3600 C   0  0  0  0  0  0  0  0  0  0  0  0
  -21.9790   -9.0520   20.4030 C   0  0  0  0  0  3  0  0  0  0  0  0
  -22.7120  -10.2360   20.2220 C   0  0  0  0  0  3  0  0  0  0  0  0
  -21.6200   -6.9600   21.4490 O   0  0  0  0  0  0  0  0  0  0  0  0
  -21.5580   -6.2240   22.6050 C   0  0  0  0  0  0  0  0  0  0  0  0
  -21.1290   -6.7870   23.8260 C   0  0  0  0  0  3  0  0  0  0  0  0
  -21.0150   -5.9780   24.9740 C   0  0  0  0  0  3  0  0  0  0  0  0
  -21.3190   -4.6050   24.9010 C   0  0  0  0  0  0  0  0  0  0  0  0
  -21.7420   -4.0410   23.6840 C   0  0  0  0  0  3  0  0  0  0  0  0
  -21.8580   -4.8480   22.5380 C   0  0  0  0  0  0  0  0  0  0  0  0
  -22.2450   -4.2960   21.3640 F   0  0  0  0  0  0  0  0  0  0  0  0
  -21.2030   -3.8250   26.0010 F   0  0  0  0  0  0  0  0  0  0  0  0
  -22.7310  -13.5910   21.0580 C   0  0  0  0  0  0  0  0  0  0  0  0
  -21.9850  -12.9060   21.9180 N   0  0  0  0  0  0  0  0  0  0  0  0
  -22.3040  -14.6120   20.5200 O   0  0  0  0  0  0  0  0  0  0  0  0
  -22.3420  -12.0790   22.3740 H   0  0  0  0  0  0  0  0  0  0  0  0
  -21.0450  -13.2130   22.1250 H   0  0  0  0  0  0  0  0  0  0  0  0
  -25.3770  -15.2420   20.2680 N   0  0  0  0  0  0  0  0  0  0  0  0
  -24.6080  -15.8970   20.3520 H   0  0  0  0  0  0  0  0  0  0  0  0
  -26.2350  -15.6760   19.9510 H   0  0  0  0  0  0  0  0  0  0  0  0
  1  3  2  0
  1  5  1  0
  2  6  1  0
  3  4  1  0
  4  8  1  0
  4  6  2  0
  5 54  1  0
  5  2  2  0
  6 11  1  0
  7  9  1  0
  7  3  1  0
  9 10  1  0
 10 13  1  0
 10  8  1  0
 12  7  2  0
 14 25  2  0
 15 13  1  0
 15 20  1  0
 16 24  1  0
 16 26  1  0
 17 23  1  0
 17 19  1  0
 18 24  1  0
 19 18  1  0
 20 19  2  0
 21 22  1  0
 21 15  2  0
 22 17  2  0
 23 16  1  0
 24 14  1  0
 26 28  2  0
 27 26  1  0
 29 27  1  0
 30 39  2  0
 30 35  1  0
 31 27  1  0
 31 35  1  0
 32 31  1  0
 33 34  1  0
 33 32  1  0
 34 30  1  0
 35 36  2  0
 36 37  1  0
 38 37  2  0
 39 38  1  0
 40 14  1  0
 40 45  1  0
 40 41  1  0
 41 44  1  1
 41 42  1  0
 43 41  1  0
 45 48  1  0
 46 50  1  0
 46 45  1  0
 47 46  2  0
 50 49  1  0
 52 50  1  0
 52 53  1  0
 52 51  1  0
 55 54  1  0
 55 56  1  0
 57 56  1  0
 58 63  1  0
 59 60  1  0
 59 58  1  0
 61 60  1  0
 61 68  1  0
 61 62  1  0
 63 57  1  0
 63 62  1  0
 64 57  2  0
 65 66  2  0
 66 85  1  0
 67 66  1  0
 67 70  1  0
 68 65  1  0
 68 69  1  0
 69 67  2  0
 70 71  1  0
 71 72  2  0
 73 76  1  0
 73 72  1  0
 74 73  2  0
 75 74  1  0
 75 70  2  0
 76 77  1  0
 77 78  1  0
 78 79  2  0
 80 79  1  0
 80 84  1  0
 81 80  2  0
 82 77  2  0
 82 81  1  0
 83 82  1  0
 85 86  1  0
 86 89  1  0
 86 88  1  0
 87 85  2  0
 90 91  1  0
 90 65  1  0
 92 90  1  0
M  ISO  4  10 101  13 101  56 100  57 100
M  END
>  <TORSDO>  (85) 
F 19

>  <SCORE>  (85) 
-14.281

>  <name>  (85) 
84

>  <ligand_id>  (85) 
84

>  <original_smiles>  (85) 
[H]c1c([H])c([H])c2c(c1[H])C([H])([H])C([H])([H])C([H])([H])C2([H])N([H])C(=O)C1([H])N(C(=O)C([H])(N([H])C(=O)C([H])(N([H])C([H])([H])[H])C([H])([H])[H])C(C([H])([H])[H])(C([H])([H])[H])C([H])([H])[H])C([H])([H])c2c([H])c(OC3([H])C([H])([H])C(=O)c4c([H])c(C([H])([H])C([H])([H])C([H])([H])C(=O)N5C([H])([H])C([H])([H])C([H])([H])C([H])(n6nc(-c7c([H])c([H])c(Oc8c([H])c([H])c(F)c([H])c8F)c([H])c7[H])c(C(=O)N([H])[H])c6N([H])[H])C5([H])[H])c([H])c(C([H])([H])[H])c4C3([H])[H])c([H])c([H])c2C1([H])[H]

>  <smiles>  (85) 
[H]c1c([H])c([H])c2c(c1[H])C([H])([H])C([H])([H])C([H])([H])C2([H])N([H])C(=O)C1([H])N(C(=O)C([H])(N([H])C(=O)C([H])(N([H])C([H])([H])[H])C([H])([H])[H])C(C([H])([H])[H])(C([H])([H])[H])C([H])([H])[H])C([H])([H])c2c([H])c(OC3([H])C([H])([H])C(=O)c4c([H])c(C([H])([H])C([H])([H])C([H])([H])C(=O)N5C([H])([H])C([H])([H])C([H])([H])C([H])(n6nc(-c7c([H])c([H])c(Oc8c([H])c([H])c(F)c([H])c8F)c([H])c7[H])c(C(=O)N([H])[H])c6N([H])[H])C5([H])[H])c([H])c(C([H])([H])[H])c4C3([H])[H])c([H])c([H])c2C1([H])[H]

$$$$
85:0:0
     RDKit          3D

 90 98  0  0  1  0  0  0  0  0999 V2000
  -28.8770  -23.4470   17.7590 C   0  0  0  0  0  3  0  0  0  0  0  0
  -28.9550  -22.2220   18.4590 C   0  0  0  0  0  3  0  0  0  0  0  0
  -28.5870  -24.6770   18.3910 C   0  0  0  0  0  3  0  0  0  0  0  0
  -28.4440  -23.4560   20.4820 C   0  0  0  0  0  3  0  0  0  0  0  0
  -28.7370  -22.1250   19.8500 C   0  0  0  0  0  0  0  0  0  0  0  0
  -28.3610  -24.7810   19.7780 C   0  0  0  0  0  0  0  0  0  0  0  0
  -28.2640  -26.1620   20.2910 O   0  0  0  0  0  0  0  0  0  0  0  0
  -24.6420  -31.8680   23.2040 C   0  0  0  0  0  0  0  0  0  0  0  0
  -27.2020  -27.1360   20.1590 C   0  0  0  0  0  0  0  0  0  0  0  0
  -23.4290  -30.4620   21.5800 C   0  0  0  0  0  3  0  0  0  0  0  0
  -24.8670  -28.8810   20.1400 C   0  0  0  0  0  0  0  0  0  0  0  0
  -25.9800  -30.7280   21.3930 C   0  0  0  0  0  2  0  0  0  0  0  0
  -26.0490  -29.3330   20.7400 C   0  0  0  0  0  0  0  0  0  0  0  0
  -27.2110  -28.4740   20.7370 C   0  0  0  0  0  3  0  0  0  0  0  0
  -25.9960  -26.7860   19.5170 C   0  0  0  0  0  3  0  0  0  0  0  0
  -24.8550  -27.6220   19.5130 C   0  0  0  0  0  3  0  0  0  0  0  0
  -23.6370  -29.7770   20.2010 C   0  0  0  0  0  2  0  0  0  0  0  0
  -24.7050  -31.0430   22.1130 N   0  0  0  0  0  0  0  0  0  0  0  0
  -23.5600  -32.1530   23.7410 O   0  0  0  0  0  0  0  0  0  0  0  0
  -22.7610  -29.4610   22.5540 C   0  0  0  0  0  0  0  0  0  0  0  0
  -21.4310  -29.2900   22.4440 N   0  0  0  0  0  0  0  0  0  0  0  0
  -23.4420  -28.8400   23.3760 O   0  0  0  0  0  0  0  0  0  0  0  0
  -20.9380  -29.8420   21.7560 H   0  0  0  0  0  0  0  0  0  0  0  0
  -18.0600  -28.0750   22.9750 C   0  0  0  0  0  0  0  0  0  0  0  0
  -20.6180  -28.3550   23.2270 C   0  0  0  0  0  3  0  0  0  0  0  0
  -20.7260  -26.9180   22.6640 C   0  0  0  0  0  2  0  0  0  0  0  0
  -19.6200  -26.5810   21.6570 C   0  0  0  0  0  2  0  0  0  0  0  0
  -18.2410  -26.7220   22.3060 C   0  0  0  0  0  2  0  0  0  0  0  0
  -19.1760  -28.8490   23.3910 C   0  0  0  0  0  0  0  0  0  0  0  0
  -18.9510  -30.1120   23.9780 C   0  0  0  0  0  3  0  0  0  0  0  0
  -17.6430  -30.6050   24.1500 C   0  0  0  0  0  3  0  0  0  0  0  0
  -16.5410  -29.8290   23.7470 C   0  0  0  0  0  3  0  0  0  0  0  0
  -16.7510  -28.5650   23.1660 C   0  0  0  0  0  3  0  0  0  0  0  0
  -25.9250  -32.5080   23.8170 C   0  0  0  0  0  3  0  0  0  0  0  0
  -26.4610  -31.7350   25.0850 C   0  0  1  0  0  0  0  0  0  0  0  0
  -25.3830  -31.4900   26.1680 C   0  0  0  0  0  1  0  0  0  0  0  0
  -27.0450  -30.3600   24.6870 C   0  0  0  0  0  1  0  0  0  0  0  0
  -27.6170  -32.5320   25.7350 C   0  0  0  0  0  1  0  0  0  0  0  0
  -25.6070  -33.9030   24.1670 N   0  0  0  0  0  0  0  0  0  0  0  0
  -25.9230  -34.9700   23.4210 C   0  0  0  0  0  0  0  0  0  0  0  0
  -26.5780  -34.8850   22.3800 O   0  0  0  0  0  0  0  0  0  0  0  0
  -25.0230  -34.0420   24.9790 H   0  0  0  0  0  0  0  0  0  0  0  0
  -24.1780  -36.7600   23.1260 C   0  0  0  0  0  1  0  0  0  0  0  0
  -25.4370  -36.3510   23.9070 C   0  0  0  0  0  3  0  0  0  0  0  0
  -27.5820  -37.2370   24.7110 C   0  0  0  0  0  1  0  0  0  0  0  0
  -26.4610  -37.4120   23.7890 N   0  0  0  0  0  0  0  0  0  0  0  0
  -26.0530  -38.3270   23.9580 H   0  0  0  0  0  0  0  0  0  0  0  0
  -28.6250  -20.5620   20.4330 C   0  0  0  0  0  2  0  0  0  0  0  0
  -31.0670  -19.7590   19.7940 C   0  0  0  0  0  1  0  0  0  0  0  0
  -29.7790  -19.3000   20.4920 C   0  0  0  0  0  3  0  0  0  0  0  0
  -29.4980  -17.7670   20.1070 N   0  0  0  0  0  4  0  0  0  0  0  0
  -28.5150  -17.6990   19.9040 H   0  0  0  0  0  0  0  0  0  0  0  0
  -29.9520  -17.6320   19.2180 H   0  0  0  0  0  0  0  0  0  0  0  0
  -29.8530  -16.4610   20.9590 C   0  0  0  0  0  2  0  0  0  0  0  0
  -30.5000  -15.0210   20.3920 C   0  0  0  0  0  0  0  0  0  0  0  0
  -30.4030  -12.6430   19.4760 C   0  0  0  0  0  2  0  0  0  0  0  0
  -29.4910  -12.5960   18.2260 C   0  0  0  0  0  2  0  0  0  0  0  0
  -28.0200  -12.3860   18.6330 C   0  0  0  0  0  2  0  0  0  0  0  0
  -27.6000  -13.3070   19.8070 C   0  0  0  0  0  3  0  0  0  0  0  0
  -28.6390  -13.3230   20.9470 C   0  0  0  0  0  2  0  0  0  0  0  0
  -29.9210  -13.7440   20.3690 N   0  0  0  0  0  0  0  0  0  0  0  0
  -31.6610  -15.0690   19.9700 O   0  0  0  0  0  0  0  0  0  0  0  0
  -25.2080  -13.8820   20.5120 C   0  0  0  0  0  0  0  0  0  0  0  0
  -24.1420  -13.1060   20.8780 C   0  0  0  0  0  0  0  0  0  0  0  0
  -24.6110  -11.7570   20.8640 C   0  0  0  0  0  0  0  0  0  0  0  0
  -26.2560  -13.0050   20.2900 N   0  0  0  0  0  0  0  0  0  0  0  0
  -25.9070  -11.7220   20.5660 N   0  0  0  0  0  0  0  0  0  0  0  0
  -23.8860  -10.4950   21.0550 C   0  0  0  0  0  0  0  0  0  0  0  0
  -24.3210   -9.5250   21.9850 C   0  0  0  0  0  3  0  0  0  0  0  0
  -23.5930   -8.3290   22.1650 C   0  0  0  0  0  3  0  0  0  0  0  0
  -22.4160   -8.0930   21.4150 C   0  0  0  0  0  0  0  0  0  0  0  0
  -22.0000   -9.0510   20.4740 C   0  0  0  0  0  3  0  0  0  0  0  0
  -22.7290  -10.2390   20.2920 C   0  0  0  0  0  3  0  0  0  0  0  0
  -21.6600   -6.9490   21.5050 O   0  0  0  0  0  0  0  0  0  0  0  0
  -21.6290   -6.1960   22.6510 C   0  0  0  0  0  0  0  0  0  0  0  0
  -21.2380   -6.7430   23.8930 C   0  0  0  0  0  3  0  0  0  0  0  0
  -21.1510   -5.9170   25.0310 C   0  0  0  0  0  3  0  0  0  0  0  0
  -21.4460   -4.5440   24.9280 C   0  0  0  0  0  0  0  0  0  0  0  0
  -21.8310   -3.9960   23.6920 C   0  0  0  0  0  3  0  0  0  0  0  0
  -21.9180   -4.8200   22.5560 C   0  0  0  0  0  0  0  0  0  0  0  0
  -22.2680   -4.2820   21.3630 F   0  0  0  0  0  0  0  0  0  0  0  0
  -21.3570   -3.7490   26.0190 F   0  0  0  0  0  0  0  0  0  0  0  0
  -22.7410  -13.5820   21.1280 C   0  0  0  0  0  0  0  0  0  0  0  0
  -22.0040  -12.8950   21.9920 N   0  0  0  0  0  0  0  0  0  0  0  0
  -22.3100  -14.6010   20.5900 O   0  0  0  0  0  0  0  0  0  0  0  0
  -22.3650  -12.0710   22.4480 H   0  0  0  0  0  0  0  0  0  0  0  0
  -21.0620  -13.1980   22.1990 H   0  0  0  0  0  0  0  0  0  0  0  0
  -25.3690  -15.2500   20.3240 N   0  0  0  0  0  0  0  0  0  0  0  0
  -24.5930  -15.8990   20.4090 H   0  0  0  0  0  0  0  0  0  0  0  0
  -26.2020  -15.6780   19.9430 H   0  0  0  0  0  0  0  0  0  0  0  0
  1  3  2  0
  1  2  1  0
  2  5  2  0
  3  6  1  0
  5 48  1  0
  5  4  1  0
  6  7  1  0
  6  4  2  0
  8 19  2  0
  9  7  1  0
  9 14  1  0
 10 18  1  0
 10 20  1  0
 11 17  1  0
 11 13  1  0
 12 18  1  0
 13 12  1  0
 14 13  2  0
 15  9  2  0
 16 15  1  0
 16 11  2  0
 17 10  1  0
 18  8  1  0
 20 22  2  0
 21 20  1  0
 23 21  1  0
 24 33  2  0
 24 29  1  0
 25 21  1  0
 25 29  1  0
 26 25  1  0
 27 28  1  0
 27 26  1  0
 28 24  1  0
 29 30  2  0
 30 31  1  0
 32 31  2  0
 33 32  1  0
 34  8  1  0
 34 39  1  0
 34 35  1  0
 35 38  1  1
 35 36  1  0
 37 35  1  0
 39 42  1  0
 40 44  1  0
 40 39  1  0
 41 40  2  0
 44 43  1  0
 46 44  1  0
 46 47  1  0
 46 45  1  0
 48 50  1  0
 50 49  1  0
 51 50  1  0
 51 54  1  0
 52 51  1  0
 53 51  1  0
 55 54  1  0
 56 61  1  0
 57 58  1  0
 57 56  1  0
 59 58  1  0
 59 66  1  0
 59 60  1  0
 61 55  1  0
 61 60  1  0
 62 55  2  0
 63 64  2  0
 64 83  1  0
 65 64  1  0
 65 68  1  0
 66 63  1  0
 66 67  1  0
 67 65  2  0
 68 69  1  0
 69 70  2  0
 71 74  1  0
 71 70  1  0
 72 71  2  0
 73 72  1  0
 73 68  2  0
 74 75  1  0
 75 76  1  0
 76 77  2  0
 78 77  1  0
 78 82  1  0
 79 78  2  0
 80 75  2  0
 80 79  1  0
 81 80  1  0
 83 84  1  0
 84 87  1  0
 84 86  1  0
 85 83  2  0
 88 89  1  0
 88 63  1  0
 90 88  1  0
M  ISO  4   6 101   7 101  54 100  55 100
M  END
>  <TORSDO>  (86) 
F 20

>  <SCORE>  (86) 
-14.344

>  <name>  (86) 
85

>  <ligand_id>  (86) 
85

>  <original_smiles>  (86) 
[H]c1c([H])c([H])c2c(c1[H])C([H])([H])C([H])([H])C([H])([H])C2([H])N([H])C(=O)C1([H])N(C(=O)C([H])(N([H])C(=O)C([H])(N([H])C([H])([H])[H])C([H])([H])[H])C(C([H])([H])[H])(C([H])([H])[H])C([H])([H])[H])C([H])([H])c2c([H])c(Oc3c([H])c([H])c([H])c(C([H])([H])C([H])(C([H])([H])[H])[N+]([H])([H])C([H])([H])C(=O)N4C([H])([H])C([H])([H])C([H])([H])C([H])(n5nc(-c6c([H])c([H])c(Oc7c([H])c([H])c(F)c([H])c7F)c([H])c6[H])c(C(=O)N([H])[H])c5N([H])[H])C4([H])[H])c3[H])c([H])c([H])c2C1([H])[H]

>  <smiles>  (86) 
[H]c1c([H])c([H])c2c(c1[H])C([H])([H])C([H])([H])C([H])([H])C2([H])N([H])C(=O)C1([H])N(C(=O)C([H])(N([H])C(=O)C([H])(N([H])C([H])([H])[H])C([H])([H])[H])C(C([H])([H])[H])(C([H])([H])[H])C([H])([H])[H])C([H])([H])c2c([H])c(Oc3c([H])c([H])c([H])c(C([H])([H])C([H])(C([H])([H])[H])[N+]([H])([H])C([H])([H])C(=O)N4C([H])([H])C([H])([H])C([H])([H])C([H])(n5nc(-c6c([H])c([H])c(Oc7c([H])c([H])c(F)c([H])c7F)c([H])c6[H])c(C(=O)N([H])[H])c5N([H])[H])C4([H])[H])c3[H])c([H])c([H])c2C1([H])[H]

$$$$
86:0:0
     RDKit          3D

 90 99  0  0  1  0  0  0  0  0999 V2000
  -28.8240  -21.7950   21.6750 C   0  0  0  0  0  3  0  0  0  0  0  0
  -28.4830  -22.8340   19.2320 C   0  0  0  0  0  3  0  0  0  0  0  0
  -29.0190  -20.7040   20.7050 C   0  0  0  0  0  0  0  0  0  0  0  0
  -28.8100  -21.3090   19.4370 C   0  0  0  0  0  0  0  0  0  0  0  0
  -28.4950  -23.2540   21.4710 C   0  0  0  0  0  0  0  0  0  0  0  0
  -28.2730  -24.0050   20.2220 C   0  0  0  0  0  0  0  0  0  0  0  0
  -29.6710  -18.6190   18.6330 C   0  0  0  0  0  0  0  0  0  0  0  0
  -28.9380  -20.0970   18.3760 C   0  0  0  0  0  2  0  0  0  0  0  0
  -29.4830  -19.0250   20.9560 C   0  0  0  0  0  2  0  0  0  0  0  0
  -29.4060  -17.6040   19.8800 C   0  0  1  0  0  0  0  0  0  0  0  0
  -28.4170  -24.0950   22.7320 C   0  0  0  0  0  1  0  0  0  0  0  0
  -27.9100  -17.2650   19.8340 C   0  0  0  0  0  1  0  0  0  0  0  0
  -30.4740  -18.2570   17.7690 O   0  0  0  0  0  0  0  0  0  0  0  0
  -30.2320  -15.8740   19.8650 C   0  0  0  0  0  0  0  0  0  0  0  0
  -30.3470  -13.3090   19.0520 C   0  0  0  0  0  2  0  0  0  0  0  0
  -29.3940  -12.8840   17.8930 C   0  0  0  0  0  2  0  0  0  0  0  0
  -28.0040  -12.4980   18.4230 C   0  0  0  0  0  2  0  0  0  0  0  0
  -27.5350  -13.4890   19.5110 C   0  0  0  0  0  3  0  0  0  0  0  0
  -28.6220  -13.8260   20.5580 C   0  0  0  0  0  2  0  0  0  0  0  0
  -29.7500  -14.4800   19.8480 N   0  0  0  0  0  0  0  0  0  0  0  0
  -31.4630  -15.7840   19.6670 O   0  0  0  0  0  0  0  0  0  0  0  0
  -25.2280  -13.9810   20.4540 C   0  0  0  0  0  0  0  0  0  0  0  0
  -24.1970  -13.1870   20.8640 C   0  0  0  0  0  0  0  0  0  0  0  0
  -24.6670  -11.8430   20.7540 C   0  0  0  0  0  0  0  0  0  0  0  0
  -26.2580  -13.1260   20.1100 N   0  0  0  0  0  0  0  0  0  0  0  0
  -25.9390  -11.8280   20.3580 N   0  0  0  0  0  0  0  0  0  0  0  0
  -23.9530  -10.5730   20.9440 C   0  0  0  0  0  0  0  0  0  0  0  0
  -24.3910   -9.6110   21.8780 C   0  0  0  0  0  3  0  0  0  0  0  0
  -23.6710   -8.4110   22.0620 C   0  0  0  0  0  3  0  0  0  0  0  0
  -22.4980   -8.1640   21.3080 C   0  0  0  0  0  0  0  0  0  0  0  0
  -22.0790   -9.1160   20.3610 C   0  0  0  0  0  3  0  0  0  0  0  0
  -22.8000  -10.3070   20.1760 C   0  0  0  0  0  3  0  0  0  0  0  0
  -21.7500   -7.0160   21.4000 O   0  0  0  0  0  0  0  0  0  0  0  0
  -21.6470   -6.3150   22.5740 C   0  0  0  0  0  0  0  0  0  0  0  0
  -21.1060   -6.8950   23.7430 C   0  0  0  0  0  3  0  0  0  0  0  0
  -20.9540   -6.1170   24.9080 C   0  0  0  0  0  3  0  0  0  0  0  0
  -21.3330   -4.7610   24.9050 C   0  0  0  0  0  0  0  0  0  0  0  0
  -21.8690   -4.1810   23.7420 C   0  0  0  0  0  3  0  0  0  0  0  0
  -22.0220   -4.9560   22.5780 C   0  0  0  0  0  0  0  0  0  0  0  0
  -22.5190   -4.3870   21.4540 F   0  0  0  0  0  0  0  0  0  0  0  0
  -21.1790   -4.0110   26.0220 F   0  0  0  0  0  0  0  0  0  0  0  0
  -22.8200  -13.6510   21.2310 C   0  0  0  0  0  0  0  0  0  0  0  0
  -22.1440  -12.9290   22.1170 N   0  0  0  0  0  0  0  0  0  0  0  0
  -22.3550  -14.6950   20.7710 O   0  0  0  0  0  0  0  0  0  0  0  0
  -22.5350  -12.0850   22.5100 H   0  0  0  0  0  0  0  0  0  0  0  0
  -21.2230  -13.2250   22.4070 H   0  0  0  0  0  0  0  0  0  0  0  0
  -25.3560  -15.3570   20.3110 N   0  0  0  0  0  0  0  0  0  0  0  0
  -24.5840  -15.9870   20.4970 H   0  0  0  0  0  0  0  0  0  0  0  0
  -26.1690  -15.8290   19.9410 H   0  0  0  0  0  0  0  0  0  0  0  0
  -28.1870  -25.6350   20.0990 O   0  0  0  0  0  0  0  0  0  0  0  0
  -24.6790  -31.9180   23.1880 C   0  0  0  0  0  0  0  0  0  0  0  0
  -27.1690  -26.8210   20.1600 C   0  0  0  0  0  0  0  0  0  0  0  0
  -23.4700  -30.5210   21.5700 C   0  0  0  0  0  3  0  0  0  0  0  0
  -24.8970  -28.8680   20.1390 C   0  0  0  0  0  0  0  0  0  0  0  0
  -26.0470  -30.6590   21.4110 C   0  0  0  0  0  2  0  0  0  0  0  0
  -26.1030  -29.2220   20.7570 C   0  0  0  0  0  0  0  0  0  0  0  0
  -27.2190  -28.2260   20.7360 C   0  0  0  0  0  3  0  0  0  0  0  0
  -25.9290  -26.6880   19.4830 C   0  0  0  0  0  3  0  0  0  0  0  0
  -24.8500  -27.6270   19.4780 C   0  0  0  0  0  3  0  0  0  0  0  0
  -23.6910  -29.8220   20.1970 C   0  0  0  0  0  2  0  0  0  0  0  0
  -24.7580  -31.0670   22.1070 N   0  0  0  0  0  0  0  0  0  0  0  0
  -23.5940  -32.2170   23.7140 O   0  0  0  0  0  0  0  0  0  0  0  0
  -22.7680  -29.5430   22.5510 C   0  0  0  0  0  0  0  0  0  0  0  0
  -21.4380  -29.3700   22.4310 N   0  0  0  0  0  0  0  0  0  0  0  0
  -23.4350  -28.9360   23.3930 O   0  0  0  0  0  0  0  0  0  0  0  0
  -20.9490  -29.9090   21.7290 H   0  0  0  0  0  0  0  0  0  0  0  0
  -18.0720  -28.1030   22.9600 C   0  0  0  0  0  0  0  0  0  0  0  0
  -20.6280  -28.4270   23.2130 C   0  0  0  0  0  3  0  0  0  0  0  0
  -20.7570  -26.9900   22.6540 C   0  0  0  0  0  2  0  0  0  0  0  0
  -19.6600  -26.6350   21.6450 C   0  0  0  0  0  2  0  0  0  0  0  0
  -18.2760  -26.7550   22.2900 C   0  0  0  0  0  2  0  0  0  0  0  0
  -19.1760  -28.8960   23.3790 C   0  0  0  0  0  0  0  0  0  0  0  0
  -18.9280  -30.1530   23.9730 C   0  0  0  0  0  3  0  0  0  0  0  0
  -17.6110  -30.6210   24.1440 C   0  0  0  0  0  3  0  0  0  0  0  0
  -16.5240  -29.8290   23.7370 C   0  0  0  0  0  3  0  0  0  0  0  0
  -16.7560  -28.5710   23.1520 C   0  0  0  0  0  3  0  0  0  0  0  0
  -25.9500  -32.5720   23.8120 C   0  0  0  0  0  3  0  0  0  0  0  0
  -25.6250  -33.9720   24.1570 N   0  0  0  0  0  0  0  0  0  0  0  0
  -25.9260  -35.0420   23.4090 C   0  0  0  0  0  0  0  0  0  0  0  0
  -26.5610  -34.9560   22.3550 O   0  0  0  0  0  0  0  0  0  0  0  0
  -25.0510  -34.1090   24.9750 H   0  0  0  0  0  0  0  0  0  0  0  0
  -24.1690  -36.8330   23.1620 C   0  0  0  0  0  1  0  0  0  0  0  0
  -25.4530  -36.4260   23.9050 C   0  0  0  0  0  3  0  0  0  0  0  0
  -27.6100  -37.3370   24.6490 C   0  0  0  0  0  1  0  0  0  0  0  0
  -26.4690  -37.4900   23.7490 N   0  0  0  0  0  0  0  0  0  0  0  0
  -26.0600  -38.4060   23.9090 H   0  0  0  0  0  0  0  0  0  0  0  0
  -26.4660  -31.8140   25.0980 C   0  0  1  0  0  0  0  0  0  0  0  0
  -25.3700  -31.5740   26.1640 C   0  0  0  0  0  1  0  0  0  0  0  0
  -27.0610  -30.4370   24.7290 C   0  0  0  0  0  1  0  0  0  0  0  0
  -27.6090  -32.6210   25.7580 C   0  0  0  0  0  1  0  0  0  0  0  0
  2  4  2  0
  2  6  1  0
  3  9  1  0
  3  1  2  0
  4  3  1  0
  5  1  1  0
  5 11  1  0
  6  5  2  0
  7 10  1  0
  8  7  1  0
  8  4  1  0
 10 12  1  6
 10  9  1  0
 13  7  2  0
 14 10  1  0
 15 20  1  0
 16 17  1  0
 16 15  1  0
 18 17  1  0
 18 25  1  0
 18 19  1  0
 20 14  1  0
 20 19  1  0
 21 14  2  0
 22 23  2  0
 23 42  1  0
 24 23  1  0
 24 27  1  0
 25 26  1  0
 25 22  1  0
 26 24  2  0
 27 28  1  0
 28 29  2  0
 30 33  1  0
 30 29  1  0
 31 30  2  0
 32 31  1  0
 32 27  2  0
 33 34  1  0
 34 39  2  0
 34 35  1  0
 35 36  2  0
 37 36  1  0
 37 41  1  0
 38 37  2  0
 39 38  1  0
 40 39  1  0
 42 43  1  0
 43 46  1  0
 43 45  1  0
 44 42  2  0
 47 22  1  0
 47 48  1  0
 49 47  1  0
 50 52  1  0
 50  6  1  0
 51 62  2  0
 52 57  1  0
 53 61  1  0
 53 63  1  0
 54 60  1  0
 54 56  1  0
 55 61  1  0
 56 55  1  0
 57 56  2  0
 58 52  2  0
 59 58  1  0
 59 54  2  0
 60 53  1  0
 61 51  1  0
 63 65  2  0
 64 63  1  0
 66 64  1  0
 67 76  2  0
 67 72  1  0
 68 64  1  0
 68 72  1  0
 69 68  1  0
 70 71  1  0
 70 69  1  0
 71 67  1  0
 72 73  2  0
 73 74  1  0
 75 74  2  0
 76 75  1  0
 77 51  1  0
 77 78  1  0
 77 87  1  0
 78 81  1  0
 79 83  1  0
 79 78  1  0
 80 79  2  0
 83 82  1  0
 85 83  1  0
 85 86  1  0
 85 84  1  0
 87 90  1  1
 87 88  1  0
 89 87  1  0
M  ISO  4   6 101  10 100  14 100  50 101
M  END
>  <TORSDO>  (87) 
F 16

>  <SCORE>  (87) 
-15.904

>  <name>  (87) 
86

>  <ligand_id>  (87) 
86

>  <original_smiles>  (87) 
[H]c1c([H])c([H])c2c(c1[H])C([H])([H])C([H])([H])C([H])([H])C2([H])N([H])C(=O)C1([H])N(C(=O)C([H])(N([H])C(=O)C([H])(N([H])C([H])([H])[H])C([H])([H])[H])C(C([H])([H])[H])(C([H])([H])[H])C([H])([H])[H])C([H])([H])c2c([H])c(Oc3c([H])c4c(c([H])c3C([H])([H])[H])C([H])([H])C(C(=O)N3C([H])([H])C([H])([H])C([H])([H])C([H])(n5nc(-c6c([H])c([H])c(Oc7c([H])c([H])c(F)c([H])c7F)c([H])c6[H])c(C(=O)N([H])[H])c5N([H])[H])C3([H])[H])(C([H])([H])[H])C(=O)C4([H])[H])c([H])c([H])c2C1([H])[H]

>  <smiles>  (87) 
[H]c1c([H])c([H])c2c(c1[H])C([H])([H])C([H])([H])C([H])([H])C2([H])N([H])C(=O)C1([H])N(C(=O)C([H])(N([H])C(=O)C([H])(N([H])C([H])([H])[H])C([H])([H])[H])C(C([H])([H])[H])(C([H])([H])[H])C([H])([H])[H])C([H])([H])c2c([H])c(Oc3c([H])c4c(c([H])c3C([H])([H])[H])C([H])([H])C(C(=O)N3C([H])([H])C([H])([H])C([H])([H])C([H])(n5nc(-c6c([H])c([H])c(Oc7c([H])c([H])c(F)c([H])c7F)c([H])c6[H])c(C(=O)N([H])[H])c5N([H])[H])C3([H])[H])(C([H])([H])[H])C(=O)C4([H])[H])c([H])c([H])c2C1([H])[H]

$$$$
87:0:0
     RDKit          3D

 91100  0  0  1  0  0  0  0  0999 V2000
  -26.4540  -23.0260   21.1410 C   0  0  0  0  0  3  0  0  0  0  0  0
  -27.3500  -21.9680   20.8840 C   0  0  0  0  0  3  0  0  0  0  0  0
  -26.7900  -24.3840   20.9380 C   0  0  0  0  0  3  0  0  0  0  0  0
  -28.9590  -23.6520   20.1840 C   0  0  0  0  0  3  0  0  0  0  0  0
  -28.6600  -22.2020   20.4240 C   0  0  0  0  0  0  0  0  0  0  0  0
  -28.0340  -24.8090   20.4050 C   0  0  0  0  0  0  0  0  0  0  0  0
  -30.3940  -20.9190   21.7240 C   0  0  0  0  0  2  0  0  0  0  0  0
  -30.7690  -19.4770   21.5260 C   0  0  0  0  0  2  0  0  0  0  0  0
  -29.6630  -20.8780   20.3950 C   0  0  0  0  0  3  0  0  0  0  0  0
  -29.5280  -19.1480   20.6230 C   0  0  0  0  0  3  0  0  0  0  0  0
  -30.6810  -15.1700   20.1390 C   0  0  0  0  0  0  0  0  0  0  0  0
  -30.5230  -12.8020   19.2460 C   0  0  0  0  0  2  0  0  0  0  0  0
  -29.5670  -12.7570   18.0310 C   0  0  0  0  0  2  0  0  0  0  0  0
  -28.1160  -12.5390   18.4990 C   0  0  0  0  0  2  0  0  0  0  0  0
  -27.7360  -13.4630   19.6860 C   0  0  0  0  0  3  0  0  0  0  0  0
  -28.8190  -13.4980   20.7860 C   0  0  0  0  0  2  0  0  0  0  0  0
  -30.0750  -13.9090   20.1480 N   0  0  0  0  0  0  0  0  0  0  0  0
  -31.8630  -15.1850   19.7750 O   0  0  0  0  0  0  0  0  0  0  0  0
  -30.2410  -17.7410   20.0250 C   0  0  0  0  0  0  0  0  0  0  0  0
  -29.9560  -16.3820   20.3810 N   0  0  0  0  0  0  0  0  0  0  0  0
  -31.1190  -17.9310   19.1720 O   0  0  0  0  0  0  0  0  0  0  0  0
  -29.0890  -16.2600   20.8800 H   0  0  0  0  0  0  0  0  0  0  0  0
  -25.3860  -14.0230   20.5230 C   0  0  0  0  0  0  0  0  0  0  0  0
  -24.3320  -13.2400   20.9060 C   0  0  0  0  0  0  0  0  0  0  0  0
  -24.7890  -11.8890   20.8170 C   0  0  0  0  0  0  0  0  0  0  0  0
  -26.4160  -13.1500   20.2200 N   0  0  0  0  0  0  0  0  0  0  0  0
  -26.0680  -11.8590   20.4630 N   0  0  0  0  0  0  0  0  0  0  0  0
  -24.0620  -10.6240   20.9930 C   0  0  0  0  0  0  0  0  0  0  0  0
  -24.4980   -9.6400   21.9080 C   0  0  0  0  0  3  0  0  0  0  0  0
  -23.7690   -8.4430   22.0740 C   0  0  0  0  0  3  0  0  0  0  0  0
  -22.5900   -8.2200   21.3230 C   0  0  0  0  0  0  0  0  0  0  0  0
  -22.1730   -9.1920   20.3980 C   0  0  0  0  0  3  0  0  0  0  0  0
  -22.9030  -10.3810   20.2300 C   0  0  0  0  0  3  0  0  0  0  0  0
  -21.8330   -7.0750   21.4000 O   0  0  0  0  0  0  0  0  0  0  0  0
  -21.7630   -6.3340   22.5520 C   0  0  0  0  0  0  0  0  0  0  0  0
  -21.3030   -6.8850   23.7670 C   0  0  0  0  0  3  0  0  0  0  0  0
  -21.1810   -6.0690   24.9090 C   0  0  0  0  0  3  0  0  0  0  0  0
  -21.5090   -4.7020   24.8380 C   0  0  0  0  0  0  0  0  0  0  0  0
  -21.9620   -4.1500   23.6270 C   0  0  0  0  0  3  0  0  0  0  0  0
  -22.0850   -4.9630   22.4860 C   0  0  0  0  0  0  0  0  0  0  0  0
  -22.5020   -4.4210   21.3160 F   0  0  0  0  0  0  0  0  0  0  0  0
  -21.3860   -3.9160   25.9320 F   0  0  0  0  0  0  0  0  0  0  0  0
  -22.9470  -13.7140   21.2380 C   0  0  0  0  0  0  0  0  0  0  0  0
  -22.2440  -12.9950   22.1050 N   0  0  0  0  0  0  0  0  0  0  0  0
  -22.5000  -14.7580   20.7630 O   0  0  0  0  0  0  0  0  0  0  0  0
  -22.6200  -12.1510   22.5100 H   0  0  0  0  0  0  0  0  0  0  0  0
  -21.3170  -13.2940   22.3690 H   0  0  0  0  0  0  0  0  0  0  0  0
  -25.5490  -15.3980   20.3830 N   0  0  0  0  0  0  0  0  0  0  0  0
  -24.7850  -16.0470   20.5320 H   0  0  0  0  0  0  0  0  0  0  0  0
  -26.3770  -15.8410   20.0060 H   0  0  0  0  0  0  0  0  0  0  0  0
  -28.2600  -26.2650   20.2040 O   0  0  0  0  0  0  0  0  0  0  0  0
  -24.6180  -31.9550   23.2360 C   0  0  0  0  0  0  0  0  0  0  0  0
  -27.2220  -27.2790   20.1560 C   0  0  0  0  0  0  0  0  0  0  0  0
  -23.4270  -30.5630   21.5870 C   0  0  0  0  0  3  0  0  0  0  0  0
  -24.8880  -29.0210   20.1330 C   0  0  0  0  0  0  0  0  0  0  0  0
  -25.9790  -30.8480   21.4230 C   0  0  0  0  0  2  0  0  0  0  0  0
  -26.0610  -29.4600   20.7590 C   0  0  0  0  0  0  0  0  0  0  0  0
  -27.2260  -28.6000   20.7660 C   0  0  0  0  0  3  0  0  0  0  0  0
  -26.0420  -26.9770   19.4420 C   0  0  0  0  0  3  0  0  0  0  0  0
  -24.8910  -27.7930   19.4570 C   0  0  0  0  0  3  0  0  0  0  0  0
  -23.6510  -29.9050   20.1990 C   0  0  0  0  0  2  0  0  0  0  0  0
  -24.6940  -31.1440   22.1350 N   0  0  0  0  0  0  0  0  0  0  0  0
  -23.5310  -32.2230   23.7700 O   0  0  0  0  0  0  0  0  0  0  0  0
  -22.7630  -29.5370   22.5410 C   0  0  0  0  0  0  0  0  0  0  0  0
  -21.4350  -29.3610   22.4240 N   0  0  0  0  0  0  0  0  0  0  0  0
  -23.4460  -28.9060   23.3520 O   0  0  0  0  0  0  0  0  0  0  0  0
  -20.9390  -29.9220   21.7460 H   0  0  0  0  0  0  0  0  0  0  0  0
  -18.0690  -28.1220   22.9350 C   0  0  0  0  0  0  0  0  0  0  0  0
  -20.6260  -28.4080   23.1920 C   0  0  0  0  0  3  0  0  0  0  0  0
  -20.7390  -26.9820   22.6060 C   0  0  0  0  0  2  0  0  0  0  0  0
  -19.6360  -26.6560   21.5940 C   0  0  0  0  0  2  0  0  0  0  0  0
  -18.2570  -26.7800   22.2450 C   0  0  0  0  0  2  0  0  0  0  0  0
  -19.1800  -28.8930   23.3650 C   0  0  0  0  0  0  0  0  0  0  0  0
  -18.9500  -30.1460   23.9720 C   0  0  0  0  0  3  0  0  0  0  0  0
  -17.6400  -30.6300   24.1510 C   0  0  0  0  0  3  0  0  0  0  0  0
  -16.5430  -29.8560   23.7350 C   0  0  0  0  0  3  0  0  0  0  0  0
  -16.7570  -28.6030   23.1330 C   0  0  0  0  0  3  0  0  0  0  0  0
  -25.8930  -32.5980   23.8620 C   0  0  0  0  0  3  0  0  0  0  0  0
  -26.4050  -31.8360   25.1460 C   0  0  1  0  0  0  0  0  0  0  0  0
  -25.3060  -31.6000   26.2100 C   0  0  0  0  0  1  0  0  0  0  0  0
  -26.9950  -30.4560   24.7710 C   0  0  0  0  0  1  0  0  0  0  0  0
  -27.5490  -32.6370   25.8090 C   0  0  0  0  0  1  0  0  0  0  0  0
  -25.5730  -33.9960   24.1910 N   0  0  0  0  0  0  0  0  0  0  0  0
  -25.9070  -35.0540   23.4390 C   0  0  0  0  0  0  0  0  0  0  0  0
  -26.5820  -34.9560   22.4110 O   0  0  0  0  0  0  0  0  0  0  0  0
  -24.9730  -34.1460   24.9890 H   0  0  0  0  0  0  0  0  0  0  0  0
  -24.1810  -36.8510   23.0800 C   0  0  0  0  0  1  0  0  0  0  0  0
  -25.4140  -36.4410   23.9000 C   0  0  0  0  0  3  0  0  0  0  0  0
  -27.5400  -37.3250   24.7570 C   0  0  0  0  0  1  0  0  0  0  0  0
  -26.4490  -37.4950   23.8030 N   0  0  0  0  0  0  0  0  0  0  0  0
  -26.0400  -38.4150   23.9480 H   0  0  0  0  0  0  0  0  0  0  0  0
  2  1  2  0
  3  1  1  0
  4  6  1  0
  4  5  2  0
  5  2  1  0
  6  3  2  0
  8  7  1  0
  9  5  1  0
  9 10  1  0
  9  7  1  0
 10 19  1  0
 10  8  1  0
 11 17  1  0
 11 20  1  0
 12 17  1  0
 13 14  1  0
 13 12  1  0
 15 14  1  0
 15 26  1  0
 15 16  1  0
 17 16  1  0
 18 11  2  0
 19 20  1  0
 20 22  1  0
 21 19  2  0
 23 24  2  0
 24 43  1  0
 25 24  1  0
 25 28  1  0
 26 27  1  0
 26 23  1  0
 27 25  2  0
 28 29  1  0
 29 30  2  0
 31 34  1  0
 31 30  1  0
 32 31  2  0
 33 32  1  0
 33 28  2  0
 34 35  1  0
 35 36  1  0
 36 37  2  0
 38 37  1  0
 38 42  1  0
 39 38  2  0
 40 35  2  0
 40 39  1  0
 41 40  1  0
 43 44  1  0
 44 47  1  0
 44 46  1  0
 45 43  2  0
 48 23  1  0
 48 49  1  0
 50 48  1  0
 51  6  1  0
 52 63  2  0
 53 51  1  0
 53 58  1  0
 54 62  1  0
 54 64  1  0
 55 61  1  0
 55 57  1  0
 56 62  1  0
 57 58  2  0
 57 56  1  0
 59 60  1  0
 59 53  2  0
 60 55  2  0
 61 54  1  0
 62 52  1  0
 64 66  2  0
 65 64  1  0
 67 65  1  0
 68 77  2  0
 68 73  1  0
 69 65  1  0
 69 73  1  0
 70 69  1  0
 71 72  1  0
 71 70  1  0
 72 68  1  0
 73 74  2  0
 74 75  1  0
 76 75  2  0
 77 76  1  0
 78 52  1  0
 78 83  1  0
 78 79  1  0
 79 82  1  1
 79 80  1  0
 81 79  1  0
 83 86  1  0
 84 88  1  0
 84 83  1  0
 85 84  2  0
 88 87  1  0
 90 88  1  0
 90 91  1  0
 90 89  1  0
M  ISO  4   6 101  11 100  20 100  51 101
M  END
>  <TORSDO>  (88) 
F 17

>  <SCORE>  (88) 
-14.999

>  <name>  (88) 
87

>  <ligand_id>  (88) 
87

>  <original_smiles>  (88) 
[H]c1c([H])c([H])c2c(c1[H])C([H])([H])C([H])([H])C([H])([H])C2([H])N([H])C(=O)C1([H])N(C(=O)C([H])(N([H])C(=O)C([H])(N([H])C([H])([H])[H])C([H])([H])[H])C(C([H])([H])[H])(C([H])([H])[H])C([H])([H])[H])C([H])([H])c2c([H])c(Oc3c([H])c([H])c([H])c(C4([H])C([H])([H])C([H])([H])C4([H])C(=O)N([H])C(=O)N4C([H])([H])C([H])([H])C([H])([H])C([H])(n5nc(-c6c([H])c([H])c(Oc7c([H])c([H])c(F)c([H])c7F)c([H])c6[H])c(C(=O)N([H])[H])c5N([H])[H])C4([H])[H])c3[H])c([H])c([H])c2C1([H])[H]

>  <smiles>  (88) 
[H]c1c([H])c([H])c2c(c1[H])C([H])([H])C([H])([H])C([H])([H])C2([H])N([H])C(=O)C1([H])N(C(=O)C([H])(N([H])C(=O)C([H])(N([H])C([H])([H])[H])C([H])([H])[H])C(C([H])([H])[H])(C([H])([H])[H])C([H])([H])[H])C([H])([H])c2c([H])c(Oc3c([H])c([H])c([H])c(C4([H])C([H])([H])C([H])([H])C4([H])C(=O)N([H])C(=O)N4C([H])([H])C([H])([H])C([H])([H])C([H])(n5nc(-c6c([H])c([H])c(Oc7c([H])c([H])c(F)c([H])c7F)c([H])c6[H])c(C(=O)N([H])[H])c5N([H])[H])C4([H])[H])c3[H])c([H])c([H])c2C1([H])[H]

$$$$
88:0:0
     RDKit          3D

 89 97  0  0  1  0  0  0  0  0999 V2000
  -28.1630  -22.7370   21.4950 C   0  0  0  0  0  3  0  0  0  0  0  0
  -29.3210  -22.6960   19.4360 C   0  0  0  0  0  3  0  0  0  0  0  0
  -27.8910  -24.1550   21.3420 C   0  0  0  0  0  3  0  0  0  0  0  0
  -29.0570  -24.1210   19.2910 C   0  0  0  0  0  3  0  0  0  0  0  0
  -28.9070  -21.9220   20.5690 C   0  0  0  0  0  0  0  0  0  0  0  0
  -28.3500  -24.9390   20.2370 C   0  0  0  0  0  0  0  0  0  0  0  0
  -29.4090  -20.4520   20.9580 C   0  0  0  0  0  0  0  0  0  0  0  0
  -29.4210  -19.2780   20.1860 N   0  0  0  0  0  0  0  0  0  0  0  0
  -29.8430  -20.3550   22.1070 O   0  0  0  0  0  0  0  0  0  0  0  0
  -28.9960  -19.3700   19.2730 H   0  0  0  0  0  0  0  0  0  0  0  0
  -30.2180  -17.9360   20.4330 C   0  0  0  0  0  3  0  0  0  0  0  0
  -29.6170  -16.3860   20.3270 C   0  0  0  0  0  3  0  0  0  0  0  0
  -30.5240  -15.0060   20.2150 C   0  0  0  0  0  0  0  0  0  0  0  0
  -30.4230  -12.6640   19.2790 C   0  0  0  0  0  2  0  0  0  0  0  0
  -29.4680  -12.6670   18.0610 C   0  0  0  0  0  2  0  0  0  0  0  0
  -28.0020  -12.4780   18.5070 C   0  0  0  0  0  2  0  0  0  0  0  0
  -27.6270  -13.3770   19.7140 C   0  0  0  0  0  3  0  0  0  0  0  0
  -28.6990  -13.3380   20.8190 C   0  0  0  0  0  2  0  0  0  0  0  0
  -29.9750  -13.7310   20.2120 N   0  0  0  0  0  0  0  0  0  0  0  0
  -31.7230  -15.1010   19.9200 O   0  0  0  0  0  0  0  0  0  0  0  0
  -25.2660  -13.9660   20.5140 C   0  0  0  0  0  0  0  0  0  0  0  0
  -24.2020  -13.1930   20.8930 C   0  0  0  0  0  0  0  0  0  0  0  0
  -24.6530  -11.8390   20.8250 C   0  0  0  0  0  0  0  0  0  0  0  0
  -26.2960  -13.0820   20.2320 N   0  0  0  0  0  0  0  0  0  0  0  0
  -25.9360  -11.7960   20.4850 N   0  0  0  0  0  0  0  0  0  0  0  0
  -23.9190  -10.5790   21.0070 C   0  0  0  0  0  0  0  0  0  0  0  0
  -24.3420   -9.6040   21.9370 C   0  0  0  0  0  3  0  0  0  0  0  0
  -23.6080   -8.4100   22.1060 C   0  0  0  0  0  3  0  0  0  0  0  0
  -22.4360   -8.1840   21.3460 C   0  0  0  0  0  0  0  0  0  0  0  0
  -22.0310   -9.1490   20.4040 C   0  0  0  0  0  3  0  0  0  0  0  0
  -22.7660  -10.3320   20.2330 C   0  0  0  0  0  3  0  0  0  0  0  0
  -21.6730   -7.0440   21.4260 O   0  0  0  0  0  0  0  0  0  0  0  0
  -21.5920   -6.3110   22.5820 C   0  0  0  0  0  0  0  0  0  0  0  0
  -21.1170   -6.8720   23.7880 C   0  0  0  0  0  3  0  0  0  0  0  0
  -20.9850   -6.0640   24.9360 C   0  0  0  0  0  3  0  0  0  0  0  0
  -21.3170   -4.6980   24.8780 C   0  0  0  0  0  0  0  0  0  0  0  0
  -21.7840   -4.1370   23.6780 C   0  0  0  0  0  3  0  0  0  0  0  0
  -21.9180   -4.9400   22.5320 C   0  0  0  0  0  0  0  0  0  0  0  0
  -22.3500   -4.3900   21.3710 F   0  0  0  0  0  0  0  0  0  0  0  0
  -21.1830   -3.9190   25.9790 F   0  0  0  0  0  0  0  0  0  0  0  0
  -22.8150  -13.6770   21.2020 C   0  0  0  0  0  0  0  0  0  0  0  0
  -22.0960  -12.9680   22.0630 N   0  0  0  0  0  0  0  0  0  0  0  0
  -22.3800  -14.7200   20.7150 O   0  0  0  0  0  0  0  0  0  0  0  0
  -22.4640  -12.1240   22.4800 H   0  0  0  0  0  0  0  0  0  0  0  0
  -21.1630  -13.2680   22.3060 H   0  0  0  0  0  0  0  0  0  0  0  0
  -25.4420  -15.3370   20.3610 N   0  0  0  0  0  0  0  0  0  0  0  0
  -24.6870  -16.0010   20.5090 H   0  0  0  0  0  0  0  0  0  0  0  0
  -26.2910  -15.7720   20.0220 H   0  0  0  0  0  0  0  0  0  0  0  0
  -28.3240  -26.3970   20.1550 O   0  0  0  0  0  0  0  0  0  0  0  0
  -24.5780  -31.9300   23.1830 C   0  0  0  0  0  0  0  0  0  0  0  0
  -27.1960  -27.2720   20.1660 C   0  0  0  0  0  0  0  0  0  0  0  0
  -23.3790  -30.5110   21.5560 C   0  0  0  0  0  3  0  0  0  0  0  0
  -24.8350  -28.9440   20.1330 C   0  0  0  0  0  0  0  0  0  0  0  0
  -25.9190  -30.8220   21.3640 C   0  0  0  0  0  2  0  0  0  0  0  0
  -26.0060  -29.4250   20.7340 C   0  0  0  0  0  0  0  0  0  0  0  0
  -27.1840  -28.6010   20.7380 C   0  0  0  0  0  3  0  0  0  0  0  0
  -26.0050  -26.8740   19.5290 C   0  0  0  0  0  3  0  0  0  0  0  0
  -24.8440  -27.6790   19.5170 C   0  0  0  0  0  3  0  0  0  0  0  0
  -23.5950  -29.8190   20.1790 C   0  0  0  0  0  2  0  0  0  0  0  0
  -24.6440  -31.1120   22.0890 N   0  0  0  0  0  0  0  0  0  0  0  0
  -23.4950  -32.2000   23.7220 O   0  0  0  0  0  0  0  0  0  0  0  0
  -22.7270  -29.5010   22.5300 C   0  0  0  0  0  0  0  0  0  0  0  0
  -21.4000  -29.3130   22.4170 N   0  0  0  0  0  0  0  0  0  0  0  0
  -23.4140  -28.8880   23.3510 O   0  0  0  0  0  0  0  0  0  0  0  0
  -20.8990  -29.8590   21.7300 H   0  0  0  0  0  0  0  0  0  0  0  0
  -18.0400  -28.0820   22.9570 C   0  0  0  0  0  0  0  0  0  0  0  0
  -20.5990  -28.3680   23.1990 C   0  0  0  0  0  3  0  0  0  0  0  0
  -20.7070  -26.9350   22.6250 C   0  0  0  0  0  2  0  0  0  0  0  0
  -19.5980  -26.6020   21.6220 C   0  0  0  0  0  2  0  0  0  0  0  0
  -18.2220  -26.7350   22.2810 C   0  0  0  0  0  2  0  0  0  0  0  0
  -19.1560  -28.8560   23.3770 C   0  0  0  0  0  0  0  0  0  0  0  0
  -18.9300  -30.1170   23.9700 C   0  0  0  0  0  3  0  0  0  0  0  0
  -17.6210  -30.6050   24.1470 C   0  0  0  0  0  3  0  0  0  0  0  0
  -16.5200  -29.8300   23.7440 C   0  0  0  0  0  3  0  0  0  0  0  0
  -16.7320  -28.5710   23.1570 C   0  0  0  0  0  3  0  0  0  0  0  0
  -25.8560  -32.5790   23.7960 C   0  0  0  0  0  3  0  0  0  0  0  0
  -26.3900  -31.8140   25.0690 C   0  0  1  0  0  0  0  0  0  0  0  0
  -25.3060  -31.5630   26.1430 C   0  0  0  0  0  1  0  0  0  0  0  0
  -26.9870  -30.4430   24.6740 C   0  0  0  0  0  1  0  0  0  0  0  0
  -27.5330  -32.6230   25.7280 C   0  0  0  0  0  1  0  0  0  0  0  0
  -25.5310  -33.9740   24.1330 N   0  0  0  0  0  0  0  0  0  0  0  0
  -25.8610  -35.0380   23.3880 C   0  0  0  0  0  0  0  0  0  0  0  0
  -26.5400  -34.9480   22.3610 O   0  0  0  0  0  0  0  0  0  0  0  0
  -24.9260  -34.1170   24.9280 H   0  0  0  0  0  0  0  0  0  0  0  0
  -24.1360  -36.8330   23.0220 C   0  0  0  0  0  1  0  0  0  0  0  0
  -25.3600  -36.4190   23.8550 C   0  0  0  0  0  3  0  0  0  0  0  0
  -27.4720  -37.3000   24.7500 C   0  0  0  0  0  1  0  0  0  0  0  0
  -26.3930  -37.4760   23.7820 N   0  0  0  0  0  0  0  0  0  0  0  0
  -25.9800  -38.3940   23.9280 H   0  0  0  0  0  0  0  0  0  0  0  0
  2  5  1  0
  3  1  1  0
  4  2  2  0
  4  6  1  0
  5  7  1  0
  5  1  2  0
  6  3  2  0
  7  9  2  0
  8 11  1  0
  8  7  1  0
 10  8  1  0
 12 11  2  0
 13 12  1  0
 14 19  1  0
 15 16  1  0
 15 14  1  0
 17 16  1  0
 17 24  1  0
 17 18  1  0
 19 13  1  0
 19 18  1  0
 20 13  2  0
 21 22  2  0
 22 41  1  0
 23 22  1  0
 23 26  1  0
 24 25  1  0
 24 21  1  0
 25 23  2  0
 26 27  1  0
 27 28  2  0
 29 32  1  0
 29 28  1  0
 30 29  2  0
 31 30  1  0
 31 26  2  0
 32 33  1  0
 33 34  1  0
 34 35  2  0
 36 35  1  0
 36 40  1  0
 37 36  2  0
 38 33  2  0
 38 37  1  0
 39 38  1  0
 41 42  1  0
 42 45  1  0
 42 44  1  0
 43 41  2  0
 46 47  1  0
 46 21  1  0
 48 46  1  0
 49 51  1  0
 49  6  1  0
 50 61  2  0
 51 56  1  0
 52 60  1  0
 52 62  1  0
 53 59  1  0
 53 55  1  0
 54 60  1  0
 55 56  2  0
 55 54  1  0
 57 51  2  0
 58 57  1  0
 58 53  2  0
 59 52  1  0
 60 50  1  0
 62 64  2  0
 63 62  1  0
 65 63  1  0
 66 75  2  0
 66 71  1  0
 67 63  1  0
 67 71  1  0
 68 67  1  0
 69 70  1  0
 69 68  1  0
 70 66  1  0
 71 72  2  0
 72 73  1  0
 74 73  2  0
 75 74  1  0
 76 50  1  0
 76 81  1  0
 76 77  1  0
 77 80  1  1
 77 78  1  0
 79 77  1  0
 81 84  1  0
 82 86  1  0
 82 81  1  0
 83 82  2  0
 86 85  1  0
 88 86  1  0
 88 89  1  0
 88 87  1  0
M  ISO  4   6 101  12 100  13 100  49 101
M  END
>  <TORSDO>  (89) 
F 19

>  <SCORE>  (89) 
-14.095

>  <name>  (89) 
88

>  <ligand_id>  (89) 
88

>  <original_smiles>  (89) 
[H]c1c([H])c([H])c2c(c1[H])C([H])([H])C([H])([H])C([H])([H])C2([H])N([H])C(=O)C1([H])N(C(=O)C([H])(N([H])C(=O)C([H])(N([H])C([H])([H])[H])C([H])([H])[H])C(C([H])([H])[H])(C([H])([H])[H])C([H])([H])[H])C([H])([H])c2c([H])c(Oc3c([H])c([H])c(C(=O)N([H])C([H])([H])C([H])([H])C(=O)N4C([H])([H])C([H])([H])C([H])([H])C([H])(n5nc(-c6c([H])c([H])c(Oc7c([H])c([H])c(F)c([H])c7F)c([H])c6[H])c(C(=O)N([H])[H])c5N([H])[H])C4([H])[H])c([H])c3[H])c([H])c([H])c2C1([H])[H]

>  <smiles>  (89) 
[H]c1c([H])c([H])c2c(c1[H])C([H])([H])C([H])([H])C([H])([H])C2([H])N([H])C(=O)C1([H])N(C(=O)C([H])(N([H])C(=O)C([H])(N([H])C([H])([H])[H])C([H])([H])[H])C(C([H])([H])[H])(C([H])([H])[H])C([H])([H])[H])C([H])([H])c2c([H])c(Oc3c([H])c([H])c(C(=O)N([H])C([H])([H])C([H])([H])C(=O)N4C([H])([H])C([H])([H])C([H])([H])C([H])(n5nc(-c6c([H])c([H])c(Oc7c([H])c([H])c(F)c([H])c7F)c([H])c6[H])c(C(=O)N([H])[H])c5N([H])[H])C4([H])[H])c([H])c3[H])c([H])c([H])c2C1([H])[H]

$$$$
89:0:0
     RDKit          3D

 88 94  0  0  1  0  0  0  0  0999 V2000
  -28.2500  -21.5370   19.2220 C   0  0  0  0  0  2  0  0  0  0  0  0
  -28.3490  -19.6570   19.3930 C   0  0  0  0  0  2  0  0  0  0  0  0
  -29.5750  -19.8930   21.1170 C   0  0  0  0  0  2  0  0  0  0  0  0
  -29.3980  -21.7720   21.0070 C   0  0  0  0  0  3  0  0  0  0  0  0
  -28.2340  -22.9970   20.3130 C   0  0  0  0  0  2  0  0  0  0  0  0
  -29.5930  -18.4740   19.9860 C   0  0  0  0  0  3  0  0  0  0  0  0
  -30.7500  -18.8500   19.0320 C   0  0  0  0  0  1  0  0  0  0  0  0
  -30.1030  -16.4030   20.0390 C   0  0  0  0  0  2  0  0  0  0  0  0
  -30.3600  -13.6940   19.2840 C   0  0  0  0  0  2  0  0  0  0  0  0
  -29.5300  -12.9850   18.1520 C   0  0  0  0  0  2  0  0  0  0  0  0
  -28.1800  -12.4790   18.6660 C   0  0  0  0  0  2  0  0  0  0  0  0
  -27.5880  -13.5050   19.6470 C   0  0  0  0  0  3  0  0  0  0  0  0
  -28.5880  -14.1070   20.6850 C   0  0  0  0  0  2  0  0  0  0  0  0
  -29.6370  -14.9270   19.9680 N   0  0  0  0  0  0  0  0  0  0  0  0
  -31.3380  -16.1410   19.9610 O   0  0  0  0  0  1  0  0  0  0  0  0
  -25.2610  -13.9370   20.5220 C   0  0  0  0  0  0  0  0  0  0  0  0
  -24.2270  -13.1330   20.8980 C   0  0  0  0  0  0  0  0  0  0  0  0
  -24.7150  -11.7900   20.8170 C   0  0  0  0  0  0  0  0  0  0  0  0
  -26.3120  -13.0960   20.2230 N   0  0  0  0  0  0  0  0  0  0  0  0
  -26.0010  -11.7900   20.4590 N   0  0  0  0  0  0  0  0  0  0  0  0
  -24.0020  -10.5140   21.0000 C   0  0  0  0  0  0  0  0  0  0  0  0
  -24.4380   -9.5460   21.9320 C   0  0  0  0  0  3  0  0  0  0  0  0
  -23.7170   -8.3450   22.1100 C   0  0  0  0  0  3  0  0  0  0  0  0
  -22.5440   -8.1000   21.3550 C   0  0  0  0  0  0  0  0  0  0  0  0
  -22.1270   -9.0570   20.4130 C   0  0  0  0  0  3  0  0  0  0  0  0
  -22.8480  -10.2490   20.2350 C   0  0  0  0  0  3  0  0  0  0  0  0
  -21.7960   -6.9500   21.4400 O   0  0  0  0  0  0  0  0  0  0  0  0
  -21.7140   -6.2270   22.6040 C   0  0  0  0  0  0  0  0  0  0  0  0
  -21.2070   -6.7890   23.7950 C   0  0  0  0  0  3  0  0  0  0  0  0
  -21.0740   -5.9910   24.9500 C   0  0  0  0  0  3  0  0  0  0  0  0
  -21.4400   -4.6330   24.9130 C   0  0  0  0  0  0  0  0  0  0  0  0
  -21.9390   -4.0690   23.7260 C   0  0  0  0  0  3  0  0  0  0  0  0
  -22.0730   -4.8650   22.5740 C   0  0  0  0  0  0  0  0  0  0  0  0
  -22.5340   -4.3100   21.4260 F   0  0  0  0  0  0  0  0  0  0  0  0
  -21.3070   -3.8650   26.0200 F   0  0  0  0  0  0  0  0  0  0  0  0
  -22.8320  -13.5860   21.2100 C   0  0  0  0  0  0  0  0  0  0  0  0
  -22.1370  -12.8730   22.0870 N   0  0  0  0  0  0  0  0  0  0  0  0
  -22.3700  -14.6130   20.7120 O   0  0  0  0  0  0  0  0  0  0  0  0
  -22.5250  -12.0440   22.5110 H   0  0  0  0  0  0  0  0  0  0  0  0
  -21.2020  -13.1610   22.3420 H   0  0  0  0  0  0  0  0  0  0  0  0
  -25.3960  -15.3160   20.3690 N   0  0  0  0  0  0  0  0  0  0  0  0
  -24.6260  -15.9560   20.5190 H   0  0  0  0  0  0  0  0  0  0  0  0
  -26.2320  -15.7740   20.0300 H   0  0  0  0  0  0  0  0  0  0  0  0
  -30.7550  -22.2910   20.7320 N   0  0  0  0  0  4  0  0  0  0  0  0
  -30.8310  -23.2430   21.0490 H   0  0  0  0  0  0  0  0  0  0  0  0
  -30.9690  -22.2730   19.7510 H   0  0  0  0  0  0  0  0  0  0  0  0
  -31.4460  -21.7500   21.2200 H   0  0  0  0  0  0  0  0  0  0  0  0
  -28.1730  -24.9900   20.2660 O   0  0  0  0  0  1  0  0  0  0  0  0
  -24.7120  -31.8280   23.1600 C   0  0  0  0  0  0  0  0  0  0  0  0
  -27.2290  -26.3800   20.2460 C   0  0  0  0  0  0  0  0  0  0  0  0
  -23.5480  -30.4150   21.5270 C   0  0  0  0  0  3  0  0  0  0  0  0
  -25.0030  -28.6770   20.1560 C   0  0  0  0  0  0  0  0  0  0  0  0
  -26.1420  -30.4380   21.4640 C   0  0  0  0  0  2  0  0  0  0  0  0
  -26.2040  -28.9570   20.8150 C   0  0  0  0  0  0  0  0  0  0  0  0
  -27.2800  -27.8530   20.8120 C   0  0  0  0  0  3  0  0  0  0  0  0
  -25.9860  -26.4200   19.5250 C   0  0  0  0  0  3  0  0  0  0  0  0
  -24.9580  -27.4400   19.4830 C   0  0  0  0  0  3  0  0  0  0  0  0
  -23.8130  -29.6780   20.1750 C   0  0  0  0  0  2  0  0  0  0  0  0
  -24.8300  -30.9370   22.1020 N   0  0  0  0  0  0  0  0  0  0  0  0
  -23.6090  -32.1470   23.6410 O   0  0  0  0  0  0  0  0  0  0  0  0
  -22.7870  -29.4790   22.5080 C   0  0  0  0  0  0  0  0  0  0  0  0
  -21.4520  -29.3460   22.3780 N   0  0  0  0  0  0  0  0  0  0  0  0
  -23.4210  -28.8610   23.3660 O   0  0  0  0  0  0  0  0  0  0  0  0
  -20.9850  -29.8920   21.6670 H   0  0  0  0  0  0  0  0  0  0  0  0
  -18.0440  -28.1700   22.9210 C   0  0  0  0  0  0  0  0  0  0  0  0
  -20.6120  -28.4180   23.1520 C   0  0  0  0  0  3  0  0  0  0  0  0
  -20.6900  -26.9870   22.5720 C   0  0  0  0  0  2  0  0  0  0  0  0
  -19.5770  -26.6830   21.5640 C   0  0  0  0  0  2  0  0  0  0  0  0
  -18.2030  -26.8310   22.2220 C   0  0  0  0  0  2  0  0  0  0  0  0
  -19.1740  -28.9240   23.3410 C   0  0  0  0  0  0  0  0  0  0  0  0
  -18.9660  -30.1740   23.9620 C   0  0  0  0  0  3  0  0  0  0  0  0
  -17.6640  -30.6740   24.1600 C   0  0  0  0  0  3  0  0  0  0  0  0
  -16.5510  -29.9210   23.7480 C   0  0  0  0  0  3  0  0  0  0  0  0
  -16.7420  -28.6690   23.1350 C   0  0  0  0  0  3  0  0  0  0  0  0
  -25.9530  -32.5020   23.8220 C   0  0  0  0  0  3  0  0  0  0  0  0
  -26.4260  -31.7630   25.1360 C   0  0  1  0  0  0  0  0  0  0  0  0
  -25.3000  -31.5490   26.1770 C   0  0  0  0  0  1  0  0  0  0  0  0
  -27.0200  -30.3760   24.8120 C   0  0  0  0  0  1  0  0  0  0  0  0
  -27.5560  -32.5720   25.8160 C   0  0  0  0  0  1  0  0  0  0  0  0
  -25.6140  -33.9070   24.1510 N   0  0  0  0  0  0  0  0  0  0  0  0
  -25.9400  -34.9810   23.4150 C   0  0  0  0  0  0  0  0  0  0  0  0
  -26.6010  -34.8940   22.3790 O   0  0  0  0  0  0  0  0  0  0  0  0
  -25.0210  -34.0460   24.9550 H   0  0  0  0  0  0  0  0  0  0  0  0
  -24.1950  -36.7830   23.1270 C   0  0  0  0  0  1  0  0  0  0  0  0
  -25.4580  -36.3690   23.8990 C   0  0  0  0  0  3  0  0  0  0  0  0
  -27.6060  -37.2690   24.6860 C   0  0  0  0  0  1  0  0  0  0  0  0
  -26.4800  -37.4330   23.7720 N   0  0  0  0  0  0  0  0  0  0  0  0
  -26.0680  -38.3480   23.9410 H   0  0  0  0  0  0  0  0  0  0  0  0
  1  2  1  0
  1  5  1  0
  2  6  1  0
  4 44  1  0
  4  3  1  0
  5  4  1  0
  6  7  1  0
  6  3  1  0
  9 14  1  0
 10 11  1  0
 10  9  1  0
 12 11  1  0
 12 19  1  0
 12 13  1  0
 14  8  1  0
 14 13  1  0
 15  8  1  0
 16 17  2  0
 17 36  1  0
 18 17  1  0
 18 21  1  0
 19 20  1  0
 19 16  1  0
 20 18  2  0
 21 22  1  0
 22 23  2  0
 24 27  1  0
 24 23  1  0
 25 24  2  0
 26 25  1  0
 26 21  2  0
 27 28  1  0
 28 29  1  0
 29 30  2  0
 31 30  1  0
 31 35  1  0
 32 31  2  0
 33 28  2  0
 33 32  1  0
 34 33  1  0
 36 37  1  0
 37 40  1  0
 37 39  1  0
 38 36  2  0
 41 42  1  0
 41 16  1  0
 43 41  1  0
 44 45  1  0
 44 47  1  0
 46 44  1  0
 49 60  2  0
 50 48  1  0
 50 55  1  0
 51 59  1  0
 51 61  1  0
 52 58  1  0
 52 54  1  0
 53 59  1  0
 54 53  1  0
 55 54  2  0
 56 50  2  0
 57 56  1  0
 57 52  2  0
 58 51  1  0
 59 49  1  0
 61 63  2  0
 62 61  1  0
 64 62  1  0
 65 74  2  0
 65 70  1  0
 66 62  1  0
 66 70  1  0
 67 66  1  0
 68 69  1  0
 68 67  1  0
 69 65  1  0
 70 71  2  0
 71 72  1  0
 73 72  2  0
 74 73  1  0
 75 49  1  0
 75 80  1  0
 75 76  1  0
 76 79  1  1
 76 77  1  0
 78 76  1  0
 80 83  1  0
 81 85  1  0
 81 80  1  0
 82 81  2  0
 85 84  1  0
 87 85  1  0
 87 88  1  0
 87 86  1  0
M  ISO  4   5 101   6 100   8 100  48 101
M  END
>  <TORSDO>  (90) 
F 17

>  <SCORE>  (90) 
-16.657

>  <name>  (90) 
89

>  <ligand_id>  (90) 
89

>  <original_smiles>  (90) 
[H]c1c([H])c([H])c2c(c1[H])C([H])([H])C([H])([H])C([H])([H])C2([H])N([H])C(=O)C1([H])N(C(=O)C([H])(N([H])C(=O)C([H])(N([H])C([H])([H])[H])C([H])([H])[H])C(C([H])([H])[H])(C([H])([H])[H])C([H])([H])[H])C([H])([H])c2c([H])c(OC3([H])C([H])([H])C([H])([H])C(C(=O)N4C([H])([H])C([H])([H])C([H])([H])C([H])(n5nc(-c6c([H])c([H])c(Oc7c([H])c([H])c(F)c([H])c7F)c([H])c6[H])c(C(=O)N([H])[H])c5N([H])[H])C4([H])[H])(C([H])([H])[H])C([H])([H])C3([H])[N+]([H])([H])[H])c([H])c([H])c2C1([H])[H]

>  <smiles>  (90) 
[H]c1c([H])c([H])c2c(c1[H])C([H])([H])C([H])([H])C([H])([H])C2([H])N([H])C(=O)C1([H])N(C(=O)C([H])(N([H])C(=O)C([H])(N([H])C([H])([H])[H])C([H])([H])[H])C(C([H])([H])[H])(C([H])([H])[H])C([H])([H])[H])C([H])([H])c2c([H])c(OC3([H])C([H])([H])C([H])([H])C(C(=O)N4C([H])([H])C([H])([H])C([H])([H])C([H])(n5nc(-c6c([H])c([H])c(Oc7c([H])c([H])c(F)c([H])c7F)c([H])c6[H])c(C(=O)N([H])[H])c5N([H])[H])C4([H])[H])(C([H])([H])[H])C([H])([H])C3([H])[N+]([H])([H])[H])c([H])c([H])c2C1([H])[H]

$$$$
90:0:0
     RDKit          3D

 96104  0  0  1  0  0  0  0  0999 V2000
  -30.7980  -22.0840   21.8020 C   0  0  0  0  0  3  0  0  0  0  0  0
  -29.9590  -20.3430   20.3150 C   0  0  0  0  0  3  0  0  0  0  0  0
  -30.3220  -21.6950   20.5370 C   0  0  0  0  0  0  0  0  0  0  0  0
  -30.9160  -21.1420   22.8410 C   0  0  0  0  0  0  0  0  0  0  0  0
  -30.0860  -19.3820   21.3480 C   0  0  0  0  0  0  0  0  0  0  0  0
  -30.5710  -19.7910   22.6130 C   0  0  0  0  0  0  0  0  0  0  0  0
  -31.4000  -21.6130   24.2020 C   0  0  0  0  0  1  0  0  0  0  0  0
  -30.7020  -18.8840   23.6250 O   0  0  0  0  0  0  0  0  0  0  0  0
  -31.1240  -19.2590   24.3890 H   0  0  0  0  0  0  0  0  0  0  0  0
  -29.6650  -17.9280   21.1050 C   0  0  0  0  0  2  0  0  0  0  0  0
  -30.8390  -16.9270   21.0100 C   0  0  0  0  0  2  0  0  0  0  0  0
  -31.0060  -14.5370   20.2960 C   0  0  0  0  0  0  0  0  0  0  0  0
  -30.6500  -12.3970   19.1310 C   0  0  0  0  0  2  0  0  0  0  0  0
  -29.6700  -12.6110   17.9620 C   0  0  0  0  0  2  0  0  0  0  0  0
  -28.2100  -12.4780   18.4360 C   0  0  0  0  0  2  0  0  0  0  0  0
  -27.9160  -13.3060   19.7160 C   0  0  0  0  0  3  0  0  0  0  0  0
  -29.0070  -13.0680   20.7870 C   0  0  0  0  0  2  0  0  0  0  0  0
  -30.3150  -13.3710   20.1800 N   0  0  0  0  0  0  0  0  0  0  0  0
  -32.0940  -14.7320   19.7490 O   0  0  0  0  0  0  0  0  0  0  0  0
  -30.3730  -15.5330   20.9380 N   0  0  0  0  0  0  0  0  0  0  0  0
  -29.4830  -15.3150   21.3600 H   0  0  0  0  0  0  0  0  0  0  0  0
  -25.5510  -13.9160   20.5340 C   0  0  0  0  0  0  0  0  0  0  0  0
  -24.4880  -13.1450   20.9190 C   0  0  0  0  0  0  0  0  0  0  0  0
  -24.9300  -11.7890   20.8240 C   0  0  0  0  0  0  0  0  0  0  0  0
  -26.5760  -13.0320   20.2350 N   0  0  0  0  0  0  0  0  0  0  0  0
  -26.2070  -11.7460   20.4660 N   0  0  0  0  0  0  0  0  0  0  0  0
  -24.1950  -10.5300   21.0070 C   0  0  0  0  0  0  0  0  0  0  0  0
  -24.6170   -9.5590   21.9390 C   0  0  0  0  0  3  0  0  0  0  0  0
  -23.8880   -8.3610   22.1080 C   0  0  0  0  0  3  0  0  0  0  0  0
  -22.7200   -8.1280   21.3440 C   0  0  0  0  0  0  0  0  0  0  0  0
  -22.3160   -9.0890   20.4000 C   0  0  0  0  0  3  0  0  0  0  0  0
  -23.0450  -10.2780   20.2300 C   0  0  0  0  0  3  0  0  0  0  0  0
  -21.9640   -6.9840   21.4190 O   0  0  0  0  0  0  0  0  0  0  0  0
  -21.8430   -6.2780   22.5890 C   0  0  0  0  0  0  0  0  0  0  0  0
  -21.3100   -6.8600   23.7600 C   0  0  0  0  0  3  0  0  0  0  0  0
  -21.1400   -6.0780   24.9200 C   0  0  0  0  0  3  0  0  0  0  0  0
  -21.4930   -4.7150   24.9090 C   0  0  0  0  0  0  0  0  0  0  0  0
  -22.0170   -4.1330   23.7410 C   0  0  0  0  0  3  0  0  0  0  0  0
  -22.1910   -4.9120   22.5840 C   0  0  0  0  0  0  0  0  0  0  0  0
  -22.6790   -4.3420   21.4570 F   0  0  0  0  0  0  0  0  0  0  0  0
  -21.3190   -3.9610   26.0200 F   0  0  0  0  0  0  0  0  0  0  0  0
  -23.1070  -13.6300   21.2580 C   0  0  0  0  0  0  0  0  0  0  0  0
  -22.4040  -12.9210   22.1330 N   0  0  0  0  0  0  0  0  0  0  0  0
  -22.6600  -14.6720   20.7800 O   0  0  0  0  0  0  0  0  0  0  0  0
  -22.7810  -12.0840   22.5520 H   0  0  0  0  0  0  0  0  0  0  0  0
  -21.4750  -13.2230   22.3910 H   0  0  0  0  0  0  0  0  0  0  0  0
  -25.7260  -15.2890   20.3960 N   0  0  0  0  0  0  0  0  0  0  0  0
  -24.9730  -15.9470   20.5630 H   0  0  0  0  0  0  0  0  0  0  0  0
  -26.5680  -15.7290   20.0450 H   0  0  0  0  0  0  0  0  0  0  0  0
  -30.2680  -22.7300   19.4170 C   0  0  0  0  0  2  0  0  0  0  0  0
  -27.9290  -23.4880   19.4140 C   0  0  0  0  0  1  0  0  0  0  0  0
  -29.3370  -23.8610   19.6940 N   0  0  2  0  0  4  0  0  0  0  0  0
  -29.3810  -24.0270   20.6890 H   0  0  0  0  0  0  0  0  0  0  0  0
  -29.8080  -25.1260   19.0450 C   0  0  0  0  0  2  0  0  0  0  0  0
  -28.7730  -26.2680   18.9080 C   0  0  0  0  0  2  0  0  0  0  0  0
  -28.4120  -26.8380   20.1740 O   0  0  0  0  0  0  0  0  0  0  0  0
  -24.6120  -31.9780   23.3500 C   0  0  0  0  0  0  0  0  0  0  0  0
  -27.2360  -27.5600   20.2070 C   0  0  0  0  0  0  0  0  0  0  0  0
  -23.3930  -30.5840   21.7130 C   0  0  0  0  0  3  0  0  0  0  0  0
  -24.8360  -29.0560   20.2740 C   0  0  0  0  0  0  0  0  0  0  0  0
  -25.9190  -30.9430   21.5000 C   0  0  0  0  0  2  0  0  0  0  0  0
  -26.0000  -29.5730   20.8580 C   0  0  0  0  0  0  0  0  0  0  0  0
  -27.1990  -28.8260   20.8360 C   0  0  0  0  0  3  0  0  0  0  0  0
  -26.0430  -27.0450   19.6510 C   0  0  0  0  0  3  0  0  0  0  0  0
  -24.8490  -27.7870   19.6760 C   0  0  0  0  0  3  0  0  0  0  0  0
  -23.5950  -29.9150   20.3280 C   0  0  0  0  0  2  0  0  0  0  0  0
  -24.6600  -31.1830   22.2460 N   0  0  0  0  0  0  0  0  0  0  0  0
  -23.5350  -32.2490   23.8990 O   0  0  0  0  0  0  0  0  0  0  0  0
  -22.7510  -29.5550   22.6720 C   0  0  0  0  0  0  0  0  0  0  0  0
  -21.4380  -29.3270   22.5100 N   0  0  0  0  0  0  0  0  0  0  0  0
  -23.4310  -28.9660   23.5150 O   0  0  0  0  0  0  0  0  0  0  0  0
  -20.9480  -29.8570   21.8030 H   0  0  0  0  0  0  0  0  0  0  0  0
  -18.1030  -27.9880   22.8850 C   0  0  0  0  0  0  0  0  0  0  0  0
  -20.6280  -28.3770   23.2730 C   0  0  0  0  0  3  0  0  0  0  0  0
  -20.8270  -26.9340   22.7540 C   0  0  0  0  0  2  0  0  0  0  0  0
  -19.7940  -26.5250   21.6990 C   0  0  0  0  0  2  0  0  0  0  0  0
  -18.3760  -26.6250   22.2700 C   0  0  0  0  0  2  0  0  0  0  0  0
  -19.1620  -28.8160   23.3420 C   0  0  0  0  0  0  0  0  0  0  0  0
  -18.8560  -30.0880   23.8720 C   0  0  0  0  0  3  0  0  0  0  0  0
  -17.5230  -30.5330   23.9540 C   0  0  0  0  0  3  0  0  0  0  0  0
  -16.4780  -29.7020   23.5150 C   0  0  0  0  0  3  0  0  0  0  0  0
  -16.7680  -28.4320   22.9860 C   0  0  0  0  0  3  0  0  0  0  0  0
  -25.9030  -32.6060   23.9620 C   0  0  0  0  0  3  0  0  0  0  0  0
  -25.6120  -34.0160   24.2550 N   0  0  0  0  0  0  0  0  0  0  0  0
  -25.9730  -35.0430   23.4760 C   0  0  0  0  0  0  0  0  0  0  0  0
  -26.6580  -34.9050   22.4590 O   0  0  0  0  0  0  0  0  0  0  0  0
  -25.0030  -34.1980   25.0400 H   0  0  0  0  0  0  0  0  0  0  0  0
  -24.2830  -36.8550   23.0460 C   0  0  0  0  0  1  0  0  0  0  0  0
  -25.4990  -36.4490   23.8930 C   0  0  0  0  0  3  0  0  0  0  0  0
  -27.6270  -37.3180   24.7560 C   0  0  0  0  0  1  0  0  0  0  0  0
  -26.5510  -37.4820   23.7810 N   0  0  0  0  0  0  0  0  0  0  0  0
  -26.1560  -38.4120   23.8970 H   0  0  0  0  0  0  0  0  0  0  0  0
  -26.4050  -31.8570   25.2570 C   0  0  1  0  0  0  0  0  0  0  0  0
  -25.2990  -31.6390   26.3160 C   0  0  0  0  0  1  0  0  0  0  0  0
  -26.9910  -30.4720   24.8940 C   0  0  0  0  0  1  0  0  0  0  0  0
  -27.5490  -32.6610   25.9190 C   0  0  0  0  0  1  0  0  0  0  0  0
  1  4  1  0
  2  3  1  0
  2  5  2  0
  3  1  2  0
  4  7  1  0
  5  6  1  0
  6  4  2  0
  6  8  1  0
  8  9  1  0
 10  5  1  0
 11 10  1  0
 12 20  1  0
 13 18  1  0
 14 15  1  0
 14 13  1  0
 16 15  1  0
 16 25  1  0
 16 17  1  0
 18 12  1  0
 18 17  1  0
 19 12  2  0
 20 11  1  0
 20 21  1  0
 22 23  2  0
 23 42  1  0
 24 23  1  0
 24 27  1  0
 25 26  1  0
 25 22  1  0
 26 24  2  0
 27 28  1  0
 28 29  2  0
 30 33  1  0
 30 29  1  0
 31 30  2  0
 32 31  1  0
 32 27  2  0
 33 34  1  0
 34 35  1  0
 35 36  2  0
 37 36  1  0
 37 41  1  0
 38 37  2  0
 39 34  2  0
 39 38  1  0
 40 39  1  0
 42 43  1  0
 43 46  1  0
 43 45  1  0
 44 42  2  0
 47 22  1  0
 47 48  1  0
 49 47  1  0
 50 52  1  0
 50  3  1  0
 51 52  1  0
 52 53  1  1
 54 52  1  0
 55 54  1  0
 55 56  1  0
 56 58  1  0
 57 68  2  0
 58 63  1  0
 59 67  1  0
 59 69  1  0
 60 66  1  0
 60 62  1  0
 61 67  1  0
 62 61  1  0
 63 62  2  0
 64 65  1  0
 64 58  2  0
 65 60  2  0
 66 59  1  0
 67 57  1  0
 69 71  2  0
 70 69  1  0
 72 70  1  0
 73 82  2  0
 73 78  1  0
 74 70  1  0
 74 78  1  0
 75 74  1  0
 76 77  1  0
 76 75  1  0
 77 73  1  0
 78 79  2  0
 79 80  1  0
 81 80  2  0
 82 81  1  0
 83 57  1  0
 83 84  1  0
 83 93  1  0
 84 87  1  0
 85 89  1  0
 85 84  1  0
 86 85  2  0
 89 88  1  0
 91 89  1  0
 91 92  1  0
 91 90  1  0
 93 96  1  1
 93 94  1  0
 95 93  1  0
M  ISO  4  12 100  20 100  55 101  56 101
M  END
>  <TORSDO>  (91) 
F 23

>  <SCORE>  (91) 
-12.795

>  <name>  (91) 
90

>  <ligand_id>  (91) 
90

>  <original_smiles>  (91) 
[H]Oc1c(C([H])([H])[H])c([H])c(C([H])([H])[N+]([H])(C([H])([H])[H])C([H])([H])C([H])([H])Oc2c([H])c([H])c3c(c2[H])C([H])([H])N(C(=O)C([H])(N([H])C(=O)C([H])(N([H])C([H])([H])[H])C([H])([H])[H])C(C([H])([H])[H])(C([H])([H])[H])C([H])([H])[H])C([H])(C(=O)N([H])C2([H])c4c([H])c([H])c([H])c([H])c4C([H])([H])C([H])([H])C2([H])[H])C3([H])[H])c([H])c1C([H])([H])C([H])([H])N([H])C(=O)N1C([H])([H])C([H])([H])C([H])([H])C([H])(n2nc(-c3c([H])c([H])c(Oc4c([H])c([H])c(F)c([H])c4F)c([H])c3[H])c(C(=O)N([H])[H])c2N([H])[H])C1([H])[H]

>  <smiles>  (91) 
[H]Oc1c(C([H])([H])[H])c([H])c(C([H])([H])[N+]([H])(C([H])([H])[H])C([H])([H])C([H])([H])Oc2c([H])c([H])c3c(c2[H])C([H])([H])N(C(=O)C([H])(N([H])C(=O)C([H])(N([H])C([H])([H])[H])C([H])([H])[H])C(C([H])([H])[H])(C([H])([H])[H])C([H])([H])[H])C([H])(C(=O)N([H])C2([H])c4c([H])c([H])c([H])c([H])c4C([H])([H])C([H])([H])C2([H])[H])C3([H])[H])c([H])c1C([H])([H])C([H])([H])N([H])C(=O)N1C([H])([H])C([H])([H])C([H])([H])C([H])(n2nc(-c3c([H])c([H])c(Oc4c([H])c([H])c(F)c([H])c4F)c([H])c3[H])c(C(=O)N([H])[H])c2N([H])[H])C1([H])[H]

$$$$
91:0:0
     RDKit          3D

 95103  0  0  1  0  0  0  0  0999 V2000
  -29.4840  -21.4940   22.2940 C   0  0  0  0  0  3  0  0  0  0  0  0
  -30.0740  -20.3430   22.8410 C   0  0  0  0  0  3  0  0  0  0  0  0
  -30.2840  -20.8500   20.0840 C   0  0  0  0  0  3  0  0  0  0  0  0
  -29.5810  -21.7530   20.9090 C   0  0  0  0  0  0  0  0  0  0  0  0
  -30.7320  -19.4140   22.0110 C   0  0  0  0  0  0  0  0  0  0  0  0
  -30.8460  -19.6690   20.6180 C   0  0  0  0  0  0  0  0  0  0  0  0
  -28.8500  -22.9150   20.3090 C   0  0  0  0  0  0  0  0  0  0  0  0
  -29.0210  -24.0760   20.9480 N   0  0  0  0  0  0  0  0  0  0  0  0
  -28.1480  -22.7830   19.3060 O   0  0  0  0  0  0  0  0  0  0  0  0
  -29.6700  -24.0690   21.7210 H   0  0  0  0  0  0  0  0  0  0  0  0
  -28.2260  -25.2820   20.7610 C   0  0  0  0  0  2  0  0  0  0  0  0
  -28.4280  -25.9440   19.3840 C   0  0  0  0  0  2  0  0  0  0  0  0
  -28.3590  -27.3600   19.5050 O   0  0  0  0  0  0  0  0  0  0  0  0
  -24.4830  -31.9090   23.3070 C   0  0  0  0  0  0  0  0  0  0  0  0
  -27.1250  -27.9510   19.6460 C   0  0  0  0  0  0  0  0  0  0  0  0
  -23.2320  -30.6070   21.6140 C   0  0  0  0  0  3  0  0  0  0  0  0
  -24.6560  -29.2860   19.9630 C   0  0  0  0  0  0  0  0  0  0  0  0
  -25.7150  -31.1240   21.2900 C   0  0  0  0  0  2  0  0  0  0  0  0
  -25.8210  -29.8270   20.5180 C   0  0  0  0  0  0  0  0  0  0  0  0
  -27.0540  -29.1660   20.3570 C   0  0  0  0  0  3  0  0  0  0  0  0
  -25.9390  -27.4100   19.0950 C   0  0  0  0  0  3  0  0  0  0  0  0
  -24.7070  -28.0740   19.2520 C   0  0  0  0  0  3  0  0  0  0  0  0
  -23.3770  -30.0660   20.1650 C   0  0  0  0  0  2  0  0  0  0  0  0
  -24.4980  -31.2240   22.1290 N   0  0  0  0  0  0  0  0  0  0  0  0
  -23.4290  -32.0700   23.9390 O   0  0  0  0  0  0  0  0  0  0  0  0
  -22.6950  -29.4700   22.5100 C   0  0  0  0  0  0  0  0  0  0  0  0
  -21.4000  -29.1490   22.3570 N   0  0  0  0  0  0  0  0  0  0  0  0
  -23.4400  -28.8760   23.2940 O   0  0  0  0  0  0  0  0  0  0  0  0
  -20.8550  -29.6870   21.6980 H   0  0  0  0  0  0  0  0  0  0  0  0
  -18.2170  -27.4650   22.6250 C   0  0  0  0  0  0  0  0  0  0  0  0
  -20.6880  -28.0860   23.0630 C   0  0  0  0  0  3  0  0  0  0  0  0
  -21.0340  -26.6990   22.4740 C   0  0  0  0  0  2  0  0  0  0  0  0
  -20.0550  -26.2420   21.3900 C   0  0  0  0  0  2  0  0  0  0  0  0
  -18.6300  -26.1700   21.9470 C   0  0  0  0  0  2  0  0  0  0  0  0
  -19.1840  -28.3720   23.1360 C   0  0  0  0  0  0  0  0  0  0  0  0
  -18.7470  -29.5780   23.7240 C   0  0  0  0  0  3  0  0  0  0  0  0
  -17.3760  -29.8810   23.8130 C   0  0  0  0  0  3  0  0  0  0  0  0
  -16.4220  -28.9720   23.3240 C   0  0  0  0  0  3  0  0  0  0  0  0
  -16.8430  -27.7670   22.7330 C   0  0  0  0  0  3  0  0  0  0  0  0
  -25.7800  -32.5420   23.9040 C   0  0  0  0  0  3  0  0  0  0  0  0
  -25.4770  -33.9420   24.2330 N   0  0  0  0  0  0  0  0  0  0  0  0
  -25.8040  -34.9910   23.4660 C   0  0  0  0  0  0  0  0  0  0  0  0
  -26.4680  -34.8800   22.4310 O   0  0  0  0  0  0  0  0  0  0  0  0
  -24.8940  -34.1000   25.0420 H   0  0  0  0  0  0  0  0  0  0  0  0
  -24.0770  -36.7830   23.1110 C   0  0  0  0  0  1  0  0  0  0  0  0
  -25.3200  -36.3820   23.9200 C   0  0  0  0  0  3  0  0  0  0  0  0
  -27.4640  -37.2610   24.7290 C   0  0  0  0  0  1  0  0  0  0  0  0
  -26.3520  -37.4330   23.7990 N   0  0  0  0  0  0  0  0  0  0  0  0
  -25.9500  -38.3540   23.9500 H   0  0  0  0  0  0  0  0  0  0  0  0
  -26.3180  -31.7750   25.1720 C   0  0  1  0  0  0  0  0  0  0  0  0
  -25.2370  -31.5020   26.2440 C   0  0  0  0  0  1  0  0  0  0  0  0
  -26.9340  -30.4160   24.7670 C   0  0  0  0  0  1  0  0  0  0  0  0
  -27.4510  -32.5900   25.8370 C   0  0  0  0  0  1  0  0  0  0  0  0
  -30.1500  -17.0250   22.5970 C   0  0  0  0  0  1  0  0  0  0  0  0
  -31.2220  -18.1200   22.6450 C   0  0  0  0  0  2  0  0  0  0  0  0
  -31.4380  -18.6420   19.6600 C   0  0  0  0  0  2  0  0  0  0  0  0
  -32.7440  -17.9590   20.1270 C   0  0  0  0  0  2  0  0  0  0  0  0
  -33.1180  -15.4700   19.9600 C   0  0  0  0  0  0  0  0  0  0  0  0
  -32.7260  -13.1570   19.2090 C   0  0  0  0  0  2  0  0  0  0  0  0
  -31.8280  -13.1850   17.9550 C   0  0  0  0  0  2  0  0  0  0  0  0
  -30.3350  -13.2290   18.3390 C   0  0  0  0  0  2  0  0  0  0  0  0
  -30.0230  -14.3090   19.4090 C   0  0  0  0  0  3  0  0  0  0  0  0
  -31.0240  -14.2140   20.5840 C   0  0  0  0  0  2  0  0  0  0  0  0
  -32.3880  -14.3260   20.0290 N   0  0  0  0  0  0  0  0  0  0  0  0
  -34.2330  -15.5460   19.4400 O   0  0  0  0  0  0  0  0  0  0  0  0
  -32.4590  -16.5520   20.3870 N   0  0  0  0  0  0  0  0  0  0  0  0
  -31.5620  -16.3560   20.8050 H   0  0  0  0  0  0  0  0  0  0  0  0
  -27.7210  -15.2400   20.0960 C   0  0  0  0  0  0  0  0  0  0  0  0
  -26.5510  -14.6190   20.4480 C   0  0  0  0  0  0  0  0  0  0  0  0
  -26.8200  -13.2170   20.3950 C   0  0  0  0  0  0  0  0  0  0  0  0
  -28.6360  -14.2240   19.8660 N   0  0  0  0  0  0  0  0  0  0  0  0
  -28.0950  -13.0010   20.1000 N   0  0  0  0  0  0  0  0  0  0  0  0
  -25.9240  -12.0640   20.5570 C   0  0  0  0  0  0  0  0  0  0  0  0
  -26.1370  -11.0980   21.5660 C   0  0  0  0  0  3  0  0  0  0  0  0
  -25.2520  -10.0080   21.7110 C   0  0  0  0  0  3  0  0  0  0  0  0
  -24.1400   -9.8760   20.8470 C   0  0  0  0  0  0  0  0  0  0  0  0
  -23.9470  -10.8250   19.8280 C   0  0  0  0  0  3  0  0  0  0  0  0
  -24.8310  -11.9080   19.6810 C   0  0  0  0  0  3  0  0  0  0  0  0
  -23.2420   -8.8380   20.8980 O   0  0  0  0  0  0  0  0  0  0  0  0
  -22.8140   -8.3150   22.0920 C   0  0  0  0  0  0  0  0  0  0  0  0
  -22.1690   -9.1080   23.0660 C   0  0  0  0  0  3  0  0  0  0  0  0
  -21.6830   -8.5170   24.2480 C   0  0  0  0  0  3  0  0  0  0  0  0
  -21.8330   -7.1320   24.4570 C   0  0  0  0  0  0  0  0  0  0  0  0
  -22.4690   -6.3400   23.4840 C   0  0  0  0  0  3  0  0  0  0  0  0
  -22.9560   -6.9300   22.3060 C   0  0  0  0  0  0  0  0  0  0  0  0
  -23.5490   -6.1570   21.3630 F   0  0  0  0  0  0  0  0  0  0  0  0
  -21.3600   -6.5610   25.5890 F   0  0  0  0  0  0  0  0  0  0  0  0
  -25.2290  -15.2800   20.7170 C   0  0  0  0  0  0  0  0  0  0  0  0
  -24.4010  -14.6730   21.5620 N   0  0  0  0  0  0  0  0  0  0  0  0
  -24.9410  -16.3650   20.2160 O   0  0  0  0  0  0  0  0  0  0  0  0
  -24.6320  -13.7850   21.9810 H   0  0  0  0  0  0  0  0  0  0  0  0
  -23.5130  -15.1000   21.7830 H   0  0  0  0  0  0  0  0  0  0  0  0
  -28.0800  -16.5740   19.9300 N   0  0  0  0  0  0  0  0  0  0  0  0
  -27.4070  -17.3290   20.0100 H   0  0  0  0  0  0  0  0  0  0  0  0
  -28.9710  -16.8740   19.5530 H   0  0  0  0  0  0  0  0  0  0  0  0
  1  2  1  0
  3  6  2  0
  3  4  1  0
  4  1  2  0
  5 55  1  0
  5  2  2  0
  6  5  1  0
  7  4  1  0
  7  8  1  0
  8 10  1  0
  9  7  2  0
 11  8  1  0
 12 13  1  0
 12 11  1  0
 13 15  1  0
 14 25  2  0
 15 20  1  0
 16 24  1  0
 16 26  1  0
 17 23  1  0
 17 19  1  0
 18 24  1  0
 19 18  1  0
 20 19  2  0
 21 22  1  0
 21 15  2  0
 22 17  2  0
 23 16  1  0
 24 14  1  0
 26 28  2  0
 27 26  1  0
 29 27  1  0
 30 39  2  0
 30 35  1  0
 31 27  1  0
 31 35  1  0
 32 31  1  0
 33 34  1  0
 33 32  1  0
 34 30  1  0
 35 36  2  0
 36 37  1  0
 38 37  2  0
 39 38  1  0
 40 14  1  0
 40 41  1  0
 40 50  1  0
 41 44  1  0
 42 46  1  0
 42 41  1  0
 43 42  2  0
 46 45  1  0
 48 46  1  0
 48 49  1  0
 48 47  1  0
 50 53  1  1
 50 51  1  0
 52 50  1  0
 54 55  1  0
 56 57  1  0
 56  6  1  0
 57 66  1  0
 58 64  1  0
 58 66  1  0
 59 64  1  0
 60 61  1  0
 60 59  1  0
 62 61  1  0
 62 71  1  0
 62 63  1  0
 64 63  1  0
 65 58  2  0
 66 67  1  0
 68 69  2  0
 69 88  1  0
 70 69  1  0
 70 73  1  0
 71 68  1  0
 71 72  1  0
 72 70  2  0
 73 74  1  0
 74 75  2  0
 76 79  1  0
 76 75  1  0
 77 76  2  0
 78 77  1  0
 78 73  2  0
 79 80  1  0
 80 85  2  0
 80 81  1  0
 81 82  2  0
 82 83  1  0
 83 87  1  0
 84 83  2  0
 85 84  1  0
 86 85  1  0
 88 89  1  0
 89 92  1  0
 89 91  1  0
 90 88  2  0
 93 94  1  0
 93 68  1  0
 95 93  1  0
M  ISO  4  12 101  13 101  58 100  66 100
M  END
>  <TORSDO>  (92) 
F 22

>  <SCORE>  (92) 
-8.141

>  <name>  (92) 
91

>  <ligand_id>  (92) 
91

>  <original_smiles>  (92) 
[H]c1c([H])c([H])c2c(c1[H])C([H])([H])C([H])([H])C([H])([H])C2([H])N([H])C(=O)C1([H])N(C(=O)C([H])(N([H])C(=O)C([H])(N([H])C([H])([H])[H])C([H])([H])[H])C(C([H])([H])[H])(C([H])([H])[H])C([H])([H])[H])C([H])([H])c2c([H])c(OC([H])([H])C([H])([H])N([H])C(=O)c3c([H])c([H])c(C([H])([H])C([H])([H])[H])c(C([H])([H])C([H])([H])N([H])C(=O)N4C([H])([H])C([H])([H])C([H])([H])C([H])(n5nc(-c6c([H])c([H])c(Oc7c([H])c([H])c(F)c([H])c7F)c([H])c6[H])c(C(=O)N([H])[H])c5N([H])[H])C4([H])[H])c3[H])c([H])c([H])c2C1([H])[H]

>  <smiles>  (92) 
[H]c1c([H])c([H])c2c(c1[H])C([H])([H])C([H])([H])C([H])([H])C2([H])N([H])C(=O)C1([H])N(C(=O)C([H])(N([H])C(=O)C([H])(N([H])C([H])([H])[H])C([H])([H])[H])C(C([H])([H])[H])(C([H])([H])[H])C([H])([H])[H])C([H])([H])c2c([H])c(OC([H])([H])C([H])([H])N([H])C(=O)c3c([H])c([H])c(C([H])([H])C([H])([H])[H])c(C([H])([H])C([H])([H])N([H])C(=O)N4C([H])([H])C([H])([H])C([H])([H])C([H])(n5nc(-c6c([H])c([H])c(Oc7c([H])c([H])c(F)c([H])c7F)c([H])c6[H])c(C(=O)N([H])[H])c5N([H])[H])C4([H])[H])c3[H])c([H])c([H])c2C1([H])[H]

$$$$
92:0:0
     RDKit          3D

 89 97  0  0  1  0  0  0  0  0999 V2000
  -28.7300  -21.7000   18.6700 C   0  0  0  0  0  3  0  0  0  0  0  0
  -28.2480  -24.1700   18.6470 C   0  0  0  0  0  3  0  0  0  0  0  0
  -28.6050  -22.9670   20.7140 C   0  0  0  0  0  3  0  0  0  0  0  0
  -28.4780  -22.9240   17.9940 C   0  0  0  0  0  0  0  0  0  0  0  0
  -28.8310  -21.5620   20.0730 C   0  0  0  0  0  0  0  0  0  0  0  0
  -28.2880  -24.3460   20.0500 C   0  0  0  0  0  0  0  0  0  0  0  0
  -28.5060  -22.8790   16.4740 C   0  0  0  0  0  1  0  0  0  0  0  0
  -28.2050  -25.8220   20.5200 O   0  0  0  0  0  0  0  0  0  0  0  0
  -24.6050  -31.8660   23.3030 C   0  0  0  0  0  0  0  0  0  0  0  0
  -27.2000  -26.9320   20.3620 C   0  0  0  0  0  0  0  0  0  0  0  0
  -23.4350  -30.4590   21.6560 C   0  0  0  0  0  3  0  0  0  0  0  0
  -24.9000  -28.8380   20.2590 C   0  0  0  0  0  0  0  0  0  0  0  0
  -26.0040  -30.6520   21.5540 C   0  0  0  0  0  2  0  0  0  0  0  0
  -26.0790  -29.2380   20.9050 C   0  0  0  0  0  0  0  0  0  0  0  0
  -27.2120  -28.3040   20.9320 C   0  0  0  0  0  3  0  0  0  0  0  0
  -25.9920  -26.6890   19.6630 C   0  0  0  0  0  3  0  0  0  0  0  0
  -24.8850  -27.5850   19.6210 C   0  0  0  0  0  3  0  0  0  0  0  0
  -23.6820  -29.7640   20.2870 C   0  0  0  0  0  2  0  0  0  0  0  0
  -24.7020  -31.0240   22.2240 N   0  0  0  0  0  0  0  0  0  0  0  0
  -23.5080  -32.1620   23.8050 O   0  0  0  0  0  0  0  0  0  0  0  0
  -22.7260  -29.4730   22.6210 C   0  0  0  0  0  0  0  0  0  0  0  0
  -21.3990  -29.2980   22.4730 N   0  0  0  0  0  0  0  0  0  0  0  0
  -23.3770  -28.8620   23.4710 O   0  0  0  0  0  0  0  0  0  0  0  0
  -20.9220  -29.8380   21.7640 H   0  0  0  0  0  0  0  0  0  0  0  0
  -18.0150  -28.0810   22.9440 C   0  0  0  0  0  0  0  0  0  0  0  0
  -20.5710  -28.3650   23.2450 C   0  0  0  0  0  3  0  0  0  0  0  0
  -20.6880  -26.9270   22.6890 C   0  0  0  0  0  2  0  0  0  0  0  0
  -19.6070  -26.5860   21.6600 C   0  0  0  0  0  2  0  0  0  0  0  0
  -18.2130  -26.7290   22.2800 C   0  0  0  0  0  2  0  0  0  0  0  0
  -19.1210  -28.8550   23.3840 C   0  0  0  0  0  0  0  0  0  0  0  0
  -18.8840  -30.1190   23.9660 C   0  0  0  0  0  3  0  0  0  0  0  0
  -17.5720  -30.6100   24.1090 C   0  0  0  0  0  3  0  0  0  0  0  0
  -16.4810  -29.8310   23.6870 C   0  0  0  0  0  3  0  0  0  0  0  0
  -16.7020  -28.5680   23.1100 C   0  0  0  0  0  3  0  0  0  0  0  0
  -25.8670  -32.5160   23.9500 C   0  0  0  0  0  3  0  0  0  0  0  0
  -25.5580  -33.9260   24.2380 N   0  0  0  0  0  0  0  0  0  0  0  0
  -25.9090  -34.9650   23.4670 C   0  0  0  0  0  0  0  0  0  0  0  0
  -26.5940  -34.8340   22.4480 O   0  0  0  0  0  0  0  0  0  0  0  0
  -24.9600  -34.1050   25.0310 H   0  0  0  0  0  0  0  0  0  0  0  0
  -24.2020  -36.7690   23.0530 C   0  0  0  0  0  1  0  0  0  0  0  0
  -25.4270  -36.3680   23.8910 C   0  0  0  0  0  3  0  0  0  0  0  0
  -27.5510  -37.2560   24.7430 C   0  0  0  0  0  1  0  0  0  0  0  0
  -26.4700  -37.4110   23.7740 N   0  0  0  0  0  0  0  0  0  0  0  0
  -26.0670  -38.3360   23.8920 H   0  0  0  0  0  0  0  0  0  0  0  0
  -26.3270  -31.7900   25.2740 C   0  0  1  0  0  0  0  0  0  0  0  0
  -25.1930  -31.6030   26.3100 C   0  0  0  0  0  1  0  0  0  0  0  0
  -26.9110  -30.3920   24.9680 C   0  0  0  0  0  1  0  0  0  0  0  0
  -27.4630  -32.6000   25.9470 C   0  0  0  0  0  1  0  0  0  0  0  0
  -29.1060  -19.8880   20.6220 C   0  0  0  0  0  2  0  0  0  0  0  0
  -30.5740  -18.4100   18.7960 C   0  0  0  0  0  1  0  0  0  0  0  0
  -30.0040  -18.3190   20.2270 C   0  0  0  0  0  0  0  0  0  0  0  0
  -30.4650  -15.3770   20.3090 C   0  0  0  0  0  0  0  0  0  0  0  0
  -30.4380  -12.9560   19.3610 C   0  0  0  0  0  2  0  0  0  0  0  0
  -29.5100  -12.7650   18.1330 C   0  0  0  0  0  2  0  0  0  0  0  0
  -28.0580  -12.4850   18.5630 C   0  0  0  0  0  2  0  0  0  0  0  0
  -27.6240  -13.3840   19.7440 C   0  0  0  0  0  3  0  0  0  0  0  0
  -28.6850  -13.5180   20.8610 C   0  0  0  0  0  2  0  0  0  0  0  0
  -29.8950  -14.0700   20.2280 N   0  0  0  0  0  0  0  0  0  0  0  0
  -31.6800  -15.3650   20.0540 O   0  0  0  0  0  0  0  0  0  0  0  0
  -29.7220  -16.6690   20.4600 N   0  0  0  0  0  4  0  0  0  0  0  0
  -28.7480  -16.4890   20.6600 H   0  0  0  0  0  0  0  0  0  0  0  0
  -25.2620  -13.9040   20.5380 C   0  0  0  0  0  0  0  0  0  0  0  0
  -24.2120  -13.1130   20.9080 C   0  0  0  0  0  0  0  0  0  0  0  0
  -24.6880  -11.7680   20.8530 C   0  0  0  0  0  0  0  0  0  0  0  0
  -26.3080  -13.0400   20.2650 N   0  0  0  0  0  0  0  0  0  0  0  0
  -25.9760  -11.7480   20.5210 N   0  0  0  0  0  0  0  0  0  0  0  0
  -23.9700  -10.4980   21.0350 C   0  0  0  0  0  0  0  0  0  0  0  0
  -24.4000   -9.5340   21.9720 C   0  0  0  0  0  3  0  0  0  0  0  0
  -23.6860   -8.3300   22.1430 C   0  0  0  0  0  3  0  0  0  0  0  0
  -22.5240   -8.0810   21.3770 C   0  0  0  0  0  0  0  0  0  0  0  0
  -22.1130   -9.0310   20.4260 C   0  0  0  0  0  3  0  0  0  0  0  0
  -22.8290  -10.2270   20.2550 C   0  0  0  0  0  3  0  0  0  0  0  0
  -21.7790   -6.9310   21.4560 O   0  0  0  0  0  0  0  0  0  0  0  0
  -21.6980   -6.2050   22.6160 C   0  0  0  0  0  0  0  0  0  0  0  0
  -21.1880   -6.7620   23.8100 C   0  0  0  0  0  3  0  0  0  0  0  0
  -21.0600   -5.9590   24.9620 C   0  0  0  0  0  3  0  0  0  0  0  0
  -21.4280   -4.6020   24.9190 C   0  0  0  0  0  0  0  0  0  0  0  0
  -21.9270   -4.0440   23.7290 C   0  0  0  0  0  3  0  0  0  0  0  0
  -22.0590   -4.8440   22.5810 C   0  0  0  0  0  0  0  0  0  0  0  0
  -22.5220   -4.2960   21.4320 F   0  0  0  0  0  0  0  0  0  0  0  0
  -21.2980   -3.8290   26.0220 F   0  0  0  0  0  0  0  0  0  0  0  0
  -22.8140  -13.5770   21.2010 C   0  0  0  0  0  0  0  0  0  0  0  0
  -22.0980  -12.8630   22.0610 N   0  0  0  0  0  0  0  0  0  0  0  0
  -22.3660  -14.6090   20.7010 O   0  0  0  0  0  0  0  0  0  0  0  0
  -22.4750  -12.0330   22.4920 H   0  0  0  0  0  0  0  0  0  0  0  0
  -21.1600  -13.1570   22.2980 H   0  0  0  0  0  0  0  0  0  0  0  0
  -25.4100  -15.2800   20.3820 N   0  0  0  0  0  0  0  0  0  0  0  0
  -24.6290  -15.9190   20.4780 H   0  0  0  0  0  0  0  0  0  0  0  0
  -26.2500  -15.7280   20.0400 H   0  0  0  0  0  0  0  0  0  0  0  0
  1  5  1  0
  2  6  2  0
  4  2  1  0
  4  1  2  0
  5 49  1  0
  5  3  2  0
  6  8  1  0
  6  3  1  0
  7  4  1  0
  9 20  2  0
 10  8  1  0
 10 15  1  0
 11 19  1  0
 11 21  1  0
 12 18  1  0
 12 14  1  0
 13 19  1  0
 14 15  2  0
 14 13  1  0
 16 10  2  0
 17 16  1  0
 17 12  2  0
 18 11  1  0
 19  9  1  0
 21 23  2  0
 22 21  1  0
 24 22  1  0
 25 34  2  0
 25 30  1  0
 26 22  1  0
 26 30  1  0
 27 26  1  0
 28 29  1  0
 28 27  1  0
 29 25  1  0
 30 31  2  0
 31 32  1  0
 33 32  2  0
 34 33  1  0
 35  9  1  0
 35 36  1  0
 35 45  1  0
 36 39  1  0
 37 41  1  0
 37 36  1  0
 38 37  2  0
 41 40  1  0
 43 41  1  0
 43 44  1  0
 43 42  1  0
 45 48  1  1
 45 46  1  0
 47 45  1  0
 50 51  1  0
 51 60  2  0
 51 49  1  0
 52 60  1  0
 53 58  1  0
 54 55  1  0
 54 53  1  0
 56 55  1  0
 56 65  1  0
 56 57  1  0
 58 52  1  0
 58 57  1  0
 59 52  2  0
 60 61  1  0
 62 63  2  0
 63 82  1  0
 64 63  1  0
 64 67  1  0
 65 66  1  0
 65 62  1  0
 66 64  2  0
 67 68  1  0
 68 69  2  0
 70 73  1  0
 70 69  1  0
 71 70  2  0
 72 71  1  0
 72 67  2  0
 73 74  1  0
 74 75  1  0
 75 76  2  0
 77 76  1  0
 77 81  1  0
 78 77  2  0
 79 74  2  0
 79 78  1  0
 80 79  1  0
 82 83  1  0
 83 86  1  0
 83 85  1  0
 84 82  2  0
 87 88  1  0
 87 62  1  0
 89 87  1  0
M  ISO  4   6 101   8 101  52 100  60 100
M  END
>  <TORSDO>  (93) 
F 18

>  <SCORE>  (93) 
-15.184

>  <name>  (93) 
92

>  <ligand_id>  (93) 
92

>  <original_smiles>  (93) 
[H]c1c([H])c([H])c2c(c1[H])C([H])([H])C([H])([H])C([H])([H])C2([H])N([H])C(=O)C1([H])N(C(=O)C([H])(N([H])C(=O)C([H])(N([H])C([H])([H])[H])C([H])([H])[H])C(C([H])([H])[H])(C([H])([H])[H])C([H])([H])[H])C([H])([H])c2c([H])c(Oc3c([H])c(C([H])([H])[H])c([H])c(C([H])([H])C([H])(N([H])C(=O)N4C([H])([H])C([H])([H])C([H])([H])C([H])(n5nc(-c6c([H])c([H])c(Oc7c([H])c([H])c(F)c([H])c7F)c([H])c6[H])c(C(=O)N([H])[H])c5N([H])[H])C4([H])[H])C([H])([H])[H])c3[H])c([H])c([H])c2C1([H])[H]

>  <smiles>  (93) 
[H]c1c([H])c([H])c2c(c1[H])C([H])([H])C([H])([H])C([H])([H])C2([H])N([H])C(=O)C1([H])N(C(=O)C([H])(N([H])C(=O)C([H])(N([H])C([H])([H])[H])C([H])([H])[H])C(C([H])([H])[H])(C([H])([H])[H])C([H])([H])[H])C([H])([H])c2c([H])c(Oc3c([H])c(C([H])([H])[H])c([H])c(C([H])([H])C([H])(N([H])C(=O)N4C([H])([H])C([H])([H])C([H])([H])C([H])(n5nc(-c6c([H])c([H])c(Oc7c([H])c([H])c(F)c([H])c7F)c([H])c6[H])c(C(=O)N([H])[H])c5N([H])[H])C4([H])[H])C([H])([H])[H])c3[H])c([H])c([H])c2C1([H])[H]

$$$$
93:0:0
     RDKit          3D

 90 98  0  0  1  0  0  0  0  0999 V2000
  -26.6480  -23.4130   21.8400 C   0  0  0  0  0  3  0  0  0  0  0  0
  -27.4880  -22.3400   21.4790 C   0  0  0  0  0  3  0  0  0  0  0  0
  -26.9270  -24.7330   21.4370 C   0  0  0  0  0  3  0  0  0  0  0  0
  -28.8890  -23.9190   20.2640 C   0  0  0  0  0  3  0  0  0  0  0  0
  -28.6470  -22.5490   20.6990 C   0  0  0  0  0  0  0  0  0  0  0  0
  -28.0330  -25.0480   20.6080 C   0  0  0  0  0  0  0  0  0  0  0  0
  -29.6420  -21.3660   20.5060 C   0  0  0  0  0  0  0  0  0  0  0  0
  -29.2160  -20.0550   20.5580 N   0  0  0  0  0  0  0  0  0  0  0  0
  -30.8370  -21.6270   20.3680 O   0  0  0  0  0  0  0  0  0  0  0  0
  -28.2110  -19.9550   20.5330 H   0  0  0  0  0  0  0  0  0  0  0  0
  -29.9560  -18.8430   21.1090 C   0  0  0  0  0  2  0  0  0  0  0  0
  -30.1620  -17.4830   20.2700 C   0  0  0  0  0  2  0  0  0  0  0  0
  -30.0660  -16.0740   21.0560 C   0  0  0  0  0  2  0  0  0  0  0  0
  -30.7330  -14.7520   20.4570 C   0  0  0  0  0  0  0  0  0  0  0  0
  -30.5030  -12.5030   19.3830 C   0  0  0  0  0  2  0  0  0  0  0  0
  -29.5900  -12.6480   18.1480 C   0  0  0  0  0  2  0  0  0  0  0  0
  -28.1080  -12.4940   18.5460 C   0  0  0  0  0  2  0  0  0  0  0  0
  -27.7350  -13.3390   19.7950 C   0  0  0  0  0  3  0  0  0  0  0  0
  -28.7790  -13.1890   20.9250 C   0  0  0  0  0  2  0  0  0  0  0  0
  -30.0910  -13.5340   20.3650 N   0  0  0  0  0  0  0  0  0  0  0  0
  -31.8750  -14.8660   20.0040 O   0  0  0  0  0  0  0  0  0  0  0  0
  -25.3220  -13.9250   20.4460 C   0  0  0  0  0  0  0  0  0  0  0  0
  -24.2510  -13.1520   20.8050 C   0  0  0  0  0  0  0  0  0  0  0  0
  -24.7200  -11.8030   20.8030 C   0  0  0  0  0  0  0  0  0  0  0  0
  -26.3780  -13.0500   20.2520 N   0  0  0  0  0  0  0  0  0  0  0  0
  -26.0200  -11.7670   20.5260 N   0  0  0  0  0  0  0  0  0  0  0  0
  -23.9930  -10.5410   20.9980 C   0  0  0  0  0  0  0  0  0  0  0  0
  -24.4140   -9.5820   21.9460 C   0  0  0  0  0  3  0  0  0  0  0  0
  -23.6860   -8.3860   22.1270 C   0  0  0  0  0  3  0  0  0  0  0  0
  -22.5230   -8.1380   21.3600 C   0  0  0  0  0  0  0  0  0  0  0  0
  -22.1220   -9.0840   20.3980 C   0  0  0  0  0  3  0  0  0  0  0  0
  -22.8520  -10.2720   20.2160 C   0  0  0  0  0  3  0  0  0  0  0  0
  -21.7670   -6.9940   21.4510 O   0  0  0  0  0  0  0  0  0  0  0  0
  -21.7090   -6.2600   22.6080 C   0  0  0  0  0  0  0  0  0  0  0  0
  -21.2750   -6.8240   23.8270 C   0  0  0  0  0  3  0  0  0  0  0  0
  -21.1650   -6.0160   24.9770 C   0  0  0  0  0  3  0  0  0  0  0  0
  -21.4780   -4.6450   24.9080 C   0  0  0  0  0  0  0  0  0  0  0  0
  -21.9040   -4.0810   23.6930 C   0  0  0  0  0  3  0  0  0  0  0  0
  -22.0180   -4.8860   22.5460 C   0  0  0  0  0  0  0  0  0  0  0  0
  -22.4090   -4.3340   21.3730 F   0  0  0  0  0  0  0  0  0  0  0  0
  -21.3650   -3.8650   26.0090 F   0  0  0  0  0  0  0  0  0  0  0  0
  -22.8470  -13.6270   21.0390 C   0  0  0  0  0  0  0  0  0  0  0  0
  -22.1060  -12.9400   21.9040 N   0  0  0  0  0  0  0  0  0  0  0  0
  -22.4160  -14.6430   20.4960 O   0  0  0  0  0  0  0  0  0  0  0  0
  -22.4700  -12.1220   22.3710 H   0  0  0  0  0  0  0  0  0  0  0  0
  -21.1590  -13.2370   22.0990 H   0  0  0  0  0  0  0  0  0  0  0  0
  -25.4770  -15.2920   20.2470 N   0  0  0  0  0  0  0  0  0  0  0  0
  -24.6920  -15.9300   20.3120 H   0  0  0  0  0  0  0  0  0  0  0  0
  -26.3260  -15.7390   19.9270 H   0  0  0  0  0  0  0  0  0  0  0  0
  -28.2550  -26.4110   20.2170 O   0  0  0  0  0  0  0  0  0  0  0  0
  -24.5800  -31.8920   23.2420 C   0  0  0  0  0  0  0  0  0  0  0  0
  -27.1840  -27.3310   20.1600 C   0  0  0  0  0  0  0  0  0  0  0  0
  -23.3800  -30.4990   21.5990 C   0  0  0  0  0  3  0  0  0  0  0  0
  -24.8310  -28.9660   20.1470 C   0  0  0  0  0  0  0  0  0  0  0  0
  -25.9220  -30.8160   21.4180 C   0  0  0  0  0  2  0  0  0  0  0  0
  -25.9990  -29.4410   20.7590 C   0  0  0  0  0  0  0  0  0  0  0  0
  -27.1800  -28.6330   20.7590 C   0  0  0  0  0  3  0  0  0  0  0  0
  -26.0060  -26.9370   19.4930 C   0  0  0  0  0  3  0  0  0  0  0  0
  -24.8380  -27.7220   19.4980 C   0  0  0  0  0  3  0  0  0  0  0  0
  -23.5920  -29.8380   20.2110 C   0  0  0  0  0  2  0  0  0  0  0  0
  -24.6470  -31.0860   22.1420 N   0  0  0  0  0  0  0  0  0  0  0  0
  -23.4950  -32.1700   23.7740 O   0  0  0  0  0  0  0  0  0  0  0  0
  -22.7260  -29.4690   22.5500 C   0  0  0  0  0  0  0  0  0  0  0  0
  -21.3990  -29.2940   22.4330 N   0  0  0  0  0  0  0  0  0  0  0  0
  -23.4130  -28.8370   23.3590 O   0  0  0  0  0  0  0  0  0  0  0  0
  -20.9020  -29.8950   21.7940 H   0  0  0  0  0  0  0  0  0  0  0  0
  -18.0240  -28.0730   22.9290 C   0  0  0  0  0  0  0  0  0  0  0  0
  -20.5850  -28.3420   23.1930 C   0  0  0  0  0  3  0  0  0  0  0  0
  -20.6870  -26.9150   22.6150 C   0  0  0  0  0  2  0  0  0  0  0  0
  -19.5840  -26.5930   21.6030 C   0  0  0  0  0  2  0  0  0  0  0  0
  -18.2100  -26.7210   22.2610 C   0  0  0  0  0  2  0  0  0  0  0  0
  -19.1440  -28.8400   23.3520 C   0  0  0  0  0  0  0  0  0  0  0  0
  -18.9220  -30.1070   23.9350 C   0  0  0  0  0  3  0  0  0  0  0  0
  -17.6150  -30.6030   24.1070 C   0  0  0  0  0  3  0  0  0  0  0  0
  -16.5110  -29.8310   23.6990 C   0  0  0  0  0  3  0  0  0  0  0  0
  -16.7170  -28.5680   23.1180 C   0  0  0  0  0  3  0  0  0  0  0  0
  -25.8620  -32.5270   23.8660 C   0  0  0  0  0  3  0  0  0  0  0  0
  -26.3740  -31.7610   25.1480 C   0  0  1  0  0  0  0  0  0  0  0  0
  -25.2750  -31.5260   26.2100 C   0  0  0  0  0  1  0  0  0  0  0  0
  -26.9600  -30.3810   24.7650 C   0  0  0  0  0  1  0  0  0  0  0  0
  -27.5210  -32.5620   25.8090 C   0  0  0  0  0  1  0  0  0  0  0  0
  -25.5500  -33.9270   24.1900 N   0  0  0  0  0  0  0  0  0  0  0  0
  -25.8820  -34.9780   23.4290 C   0  0  0  0  0  0  0  0  0  0  0  0
  -26.5560  -34.8720   22.4020 O   0  0  0  0  0  0  0  0  0  0  0  0
  -24.9500  -34.0820   24.9870 H   0  0  0  0  0  0  0  0  0  0  0  0
  -24.1550  -36.7700   23.0670 C   0  0  0  0  0  1  0  0  0  0  0  0
  -25.3930  -36.3670   23.8830 C   0  0  0  0  0  3  0  0  0  0  0  0
  -27.5220  -37.2540   24.7210 C   0  0  0  0  0  1  0  0  0  0  0  0
  -26.4260  -37.4200   23.7710 N   0  0  0  0  0  0  0  0  0  0  0  0
  -26.0190  -38.3410   23.9130 H   0  0  0  0  0  0  0  0  0  0  0  0
  2  1  1  0
  3  1  2  0
  4  6  2  0
  4  5  1  0
  5  2  2  0
  6  3  1  0
  7  8  1  0
  7  5  1  0
  8 11  1  0
  9  7  2  0
 10  8  1  0
 12 13  1  0
 12 11  1  0
 14 13  1  0
 15 20  1  0
 16 17  1  0
 16 15  1  0
 18 17  1  0
 18 25  1  0
 18 19  1  0
 20 14  1  0
 20 19  1  0
 21 14  2  0
 22 23  2  0
 23 42  1  0
 24 23  1  0
 24 27  1  0
 25 22  1  0
 25 26  1  0
 26 24  2  0
 27 28  1  0
 28 29  2  0
 30 33  1  0
 30 29  1  0
 31 30  2  0
 32 31  1  0
 32 27  2  0
 33 34  1  0
 34 35  1  0
 35 36  2  0
 37 36  1  0
 37 41  1  0
 38 37  2  0
 39 34  2  0
 39 38  1  0
 40 39  1  0
 42 43  1  0
 43 46  1  0
 43 45  1  0
 44 42  2  0
 47 48  1  0
 47 22  1  0
 49 47  1  0
 50  6  1  0
 51 62  2  0
 52 50  1  0
 52 57  1  0
 53 61  1  0
 53 63  1  0
 54 60  1  0
 54 56  1  0
 55 61  1  0
 56 57  2  0
 56 55  1  0
 58 59  1  0
 58 52  2  0
 59 54  2  0
 60 53  1  0
 61 51  1  0
 63 65  2  0
 64 63  1  0
 66 64  1  0
 67 76  2  0
 67 72  1  0
 68 64  1  0
 68 72  1  0
 69 68  1  0
 70 71  1  0
 70 69  1  0
 71 67  1  0
 72 73  2  0
 73 74  1  0
 75 74  2  0
 76 75  1  0
 77 51  1  0
 77 82  1  0
 77 78  1  0
 78 81  1  1
 78 79  1  0
 80 78  1  0
 82 85  1  0
 83 87  1  0
 83 82  1  0
 84 83  2  0
 87 86  1  0
 89 87  1  0
 89 90  1  0
 89 88  1  0
M  ISO  4   6 101  13 100  14 100  50 101
M  END
>  <TORSDO>  (94) 
F 20

>  <SCORE>  (94) 
-13.763

>  <name>  (94) 
93

>  <ligand_id>  (94) 
93

>  <original_smiles>  (94) 
[H]c1c([H])c(Oc2c([H])c([H])c3c(c2[H])C([H])([H])N(C(=O)C([H])(N([H])C(=O)C([H])(N([H])C([H])([H])[H])C([H])([H])[H])C(C([H])([H])[H])(C([H])([H])[H])C([H])([H])[H])C([H])(C(=O)N([H])C2([H])c4c([H])c([H])c([H])c([H])c4C([H])([H])C([H])([H])C2([H])[H])C3([H])[H])c([H])c(C(=O)N([H])C([H])([H])C([H])([H])C([H])([H])C(=O)N2C([H])([H])C([H])([H])C([H])([H])C([H])(n3nc(-c4c([H])c([H])c(Oc5c([H])c([H])c(F)c([H])c5F)c([H])c4[H])c(C(=O)N([H])[H])c3N([H])[H])C2([H])[H])c1[H]

>  <smiles>  (94) 
[H]c1c([H])c(Oc2c([H])c([H])c3c(c2[H])C([H])([H])N(C(=O)C([H])(N([H])C(=O)C([H])(N([H])C([H])([H])[H])C([H])([H])[H])C(C([H])([H])[H])(C([H])([H])[H])C([H])([H])[H])C([H])(C(=O)N([H])C2([H])c4c([H])c([H])c([H])c([H])c4C([H])([H])C([H])([H])C2([H])[H])C3([H])[H])c([H])c(C(=O)N([H])C([H])([H])C([H])([H])C([H])([H])C(=O)N2C([H])([H])C([H])([H])C([H])([H])C([H])(n3nc(-c4c([H])c([H])c(Oc5c([H])c([H])c(F)c([H])c5F)c([H])c4[H])c(C(=O)N([H])[H])c3N([H])[H])C2([H])[H])c1[H]

$$$$
94:0:0
     RDKit          3D

 90100  0  0  1  0  0  0  0  0999 V2000
  -27.8940  -22.3600   21.4670 C   0  0  0  0  0  3  0  0  0  0  0  0
  -28.7510  -22.1120   20.4070 C   0  0  0  0  0  0  0  0  0  0  0  0
  -28.2920  -24.6630   20.3660 C   0  0  0  0  0  0  0  0  0  0  0  0
  -28.9600  -23.5040   19.8290 N   0  0  0  0  0  0  0  0  0  0  0  0
  -27.3430  -24.0530   21.7170 S   0  0  0  0  0  0  0  0  0  0  0  0
  -28.3960  -19.1960   20.5270 C   0  0  0  0  0  2  0  0  0  0  0  0
  -30.7440  -18.0360   17.9610 C   0  0  0  0  0  2  0  0  0  0  0  0
  -29.0120  -17.6570   20.7880 C   0  0  0  0  0  2  0  0  0  0  0  0
  -29.5940  -17.0820   18.2830 C   0  0  0  0  0  2  0  0  0  0  0  0
  -30.6710  -19.8570   19.9780 C   0  0  0  0  0  2  0  0  0  0  0  0
  -29.1970  -20.5010   19.9370 C   0  0  0  0  0  3  0  0  0  0  0  0
  -30.9450  -18.3060   19.4540 C   0  0  0  0  0  3  0  0  0  0  0  0
  -30.0330  -16.9880   19.7600 C   0  0  1  0  0  0  0  0  0  0  0  0
  -30.7660  -15.4040   19.9350 C   0  0  0  0  0  0  0  0  0  0  0  0
  -30.6690  -12.9580   19.1340 C   0  0  0  0  0  2  0  0  0  0  0  0
  -29.6990  -12.7670   17.9410 C   0  0  0  0  0  2  0  0  0  0  0  0
  -28.2650  -12.5220   18.4440 C   0  0  0  0  0  2  0  0  0  0  0  0
  -27.8650  -13.5070   19.5710 C   0  0  0  0  0  3  0  0  0  0  0  0
  -28.9580  -13.6670   20.6450 C   0  0  0  0  0  2  0  0  0  0  0  0
  -30.1800  -14.1150   19.9640 N   0  0  0  0  0  0  0  0  0  0  0  0
  -31.9870  -15.3500   19.7410 O   0  0  0  0  0  0  0  0  0  0  0  0
  -25.5550  -14.0790   20.4880 C   0  0  0  0  0  0  0  0  0  0  0  0
  -24.5000  -13.3080   20.8860 C   0  0  0  0  0  0  0  0  0  0  0  0
  -24.9380  -11.9500   20.7800 C   0  0  0  0  0  0  0  0  0  0  0  0
  -26.5630  -13.1960   20.1480 N   0  0  0  0  0  0  0  0  0  0  0  0
  -26.2090  -11.9070   20.3940 N   0  0  0  0  0  0  0  0  0  0  0  0
  -24.1980  -10.6940   20.9620 C   0  0  0  0  0  0  0  0  0  0  0  0
  -24.6150   -9.7190   21.8950 C   0  0  0  0  0  3  0  0  0  0  0  0
  -23.8730   -8.5310   22.0670 C   0  0  0  0  0  3  0  0  0  0  0  0
  -22.7010   -8.3060   21.3060 C   0  0  0  0  0  0  0  0  0  0  0  0
  -22.3040   -9.2710   20.3620 C   0  0  0  0  0  3  0  0  0  0  0  0
  -23.0460  -10.4510   20.1880 C   0  0  0  0  0  3  0  0  0  0  0  0
  -21.9330   -7.1700   21.3870 O   0  0  0  0  0  0  0  0  0  0  0  0
  -21.8110   -6.4670   22.5570 C   0  0  0  0  0  0  0  0  0  0  0  0
  -21.2730   -7.0500   23.7260 C   0  0  0  0  0  3  0  0  0  0  0  0
  -21.1010   -6.2710   24.8870 C   0  0  0  0  0  3  0  0  0  0  0  0
  -21.4550   -4.9080   24.8810 C   0  0  0  0  0  0  0  0  0  0  0  0
  -21.9850   -4.3230   23.7170 C   0  0  0  0  0  3  0  0  0  0  0  0
  -22.1600   -5.1000   22.5590 C   0  0  0  0  0  0  0  0  0  0  0  0
  -22.6510   -4.5270   21.4330 F   0  0  0  0  0  0  0  0  0  0  0  0
  -21.2830   -4.1580   25.9930 F   0  0  0  0  0  0  0  0  0  0  0  0
  -23.1290  -13.7970   21.2490 C   0  0  0  0  0  0  0  0  0  0  0  0
  -22.4350  -13.0840   22.1270 N   0  0  0  0  0  0  0  0  0  0  0  0
  -22.6840  -14.8490   20.7860 O   0  0  0  0  0  0  0  0  0  0  0  0
  -22.8100  -12.2350   22.5230 H   0  0  0  0  0  0  0  0  0  0  0  0
  -21.5160  -13.3930   22.4120 H   0  0  0  0  0  0  0  0  0  0  0  0
  -25.7360  -15.4530   20.3540 N   0  0  0  0  0  0  0  0  0  0  0  0
  -24.9920  -16.1170   20.5380 H   0  0  0  0  0  0  0  0  0  0  0  0
  -26.5760  -15.8850   19.9940 H   0  0  0  0  0  0  0  0  0  0  0  0
  -28.3610  -26.1260   20.1720 O   0  0  0  0  0  0  0  0  0  0  0  0
  -24.6420  -31.9340   23.2220 C   0  0  0  0  0  0  0  0  0  0  0  0
  -27.2950  -27.1450   20.2220 C   0  0  0  0  0  0  0  0  0  0  0  0
  -23.4740  -30.5120   21.5860 C   0  0  0  0  0  3  0  0  0  0  0  0
  -24.9520  -28.9360   20.1740 C   0  0  0  0  0  0  0  0  0  0  0  0
  -26.0310  -30.7860   21.4360 C   0  0  0  0  0  2  0  0  0  0  0  0
  -26.1280  -29.3790   20.7930 C   0  0  0  0  0  0  0  0  0  0  0  0
  -27.2980  -28.5020   20.7950 C   0  0  0  0  0  3  0  0  0  0  0  0
  -26.0880  -26.8380   19.5590 C   0  0  0  0  0  3  0  0  0  0  0  0
  -24.9510  -27.6830   19.5410 C   0  0  0  0  0  3  0  0  0  0  0  0
  -23.7150  -29.8290   20.2130 C   0  0  0  0  0  2  0  0  0  0  0  0
  -24.7360  -31.1040   22.1350 N   0  0  0  0  0  0  0  0  0  0  0  0
  -23.5480  -32.2020   23.7450 O   0  0  0  0  0  0  0  0  0  0  0  0
  -22.8020  -29.5020   22.5540 C   0  0  0  0  0  0  0  0  0  0  0  0
  -21.4760  -29.3100   22.4250 N   0  0  0  0  0  0  0  0  0  0  0  0
  -23.4790  -28.8930   23.3840 O   0  0  0  0  0  0  0  0  0  0  0  0
  -20.9810  -29.8520   21.7290 H   0  0  0  0  0  0  0  0  0  0  0  0
  -18.1160  -28.0460   22.9460 C   0  0  0  0  0  0  0  0  0  0  0  0
  -20.6720  -28.3550   23.1940 C   0  0  0  0  0  3  0  0  0  0  0  0
  -20.7970  -26.9290   22.6080 C   0  0  0  0  0  2  0  0  0  0  0  0
  -19.6880  -26.5850   21.6080 C   0  0  0  0  0  2  0  0  0  0  0  0
  -18.3150  -26.6980   22.2730 C   0  0  0  0  0  2  0  0  0  0  0  0
  -19.2230  -28.8280   23.3680 C   0  0  0  0  0  0  0  0  0  0  0  0
  -18.9840  -30.0830   23.9680 C   0  0  0  0  0  3  0  0  0  0  0  0
  -17.6700  -30.5580   24.1470 C   0  0  0  0  0  3  0  0  0  0  0  0
  -16.5780  -29.7740   23.7390 C   0  0  0  0  0  3  0  0  0  0  0  0
  -16.8020  -28.5190   23.1440 C   0  0  0  0  0  3  0  0  0  0  0  0
  -25.9030  -32.5980   23.8540 C   0  0  0  0  0  3  0  0  0  0  0  0
  -25.5670  -33.9970   24.1690 N   0  0  0  0  0  0  0  0  0  0  0  0
  -25.9080  -35.0550   23.4210 C   0  0  0  0  0  0  0  0  0  0  0  0
  -26.6040  -34.9570   22.4070 O   0  0  0  0  0  0  0  0  0  0  0  0
  -24.9510  -34.1460   24.9550 H   0  0  0  0  0  0  0  0  0  0  0  0
  -24.1920  -36.8520   23.0120 C   0  0  0  0  0  1  0  0  0  0  0  0
  -25.4010  -36.4430   23.8680 C   0  0  0  0  0  3  0  0  0  0  0  0
  -27.4940  -37.3370   24.7920 C   0  0  0  0  0  1  0  0  0  0  0  0
  -26.4360  -37.4980   23.7990 N   0  0  0  0  0  0  0  0  0  0  0  0
  -26.0220  -38.4170   23.9240 H   0  0  0  0  0  0  0  0  0  0  0  0
  -26.4120  -31.8550   25.1510 C   0  0  1  0  0  0  0  0  0  0  0  0
  -25.3060  -31.6140   26.2050 C   0  0  0  0  0  1  0  0  0  0  0  0
  -27.0270  -30.4820   24.7960 C   0  0  0  0  0  1  0  0  0  0  0  0
  -27.5370  -32.6790   25.8180 C   0  0  0  0  0  1  0  0  0  0  0  0
  1  5  1  0
  2  1  2  0
  3  5  1  0
  4  3  2  0
  4  2  1  0
  6  8  1  0
  7  9  1  0
  9 13  1  0
 11 10  1  0
 11  2  1  0
 11  6  1  0
 12  7  1  0
 12 13  1  0
 12 10  1  0
 13 14  1  1
 13  8  1  0
 14 20  1  0
 15 20  1  0
 16 17  1  0
 16 15  1  0
 18 17  1  0
 18 25  1  0
 18 19  1  0
 20 19  1  0
 21 14  2  0
 22 23  2  0
 23 42  1  0
 24 23  1  0
 24 27  1  0
 25 26  1  0
 25 22  1  0
 26 24  2  0
 27 28  1  0
 28 29  2  0
 30 33  1  0
 30 29  1  0
 31 30  2  0
 32 31  1  0
 32 27  2  0
 33 34  1  0
 34 39  2  0
 34 35  1  0
 35 36  2  0
 37 36  1  0
 37 41  1  0
 38 37  2  0
 39 38  1  0
 40 39  1  0
 42 43  1  0
 43 46  1  0
 43 45  1  0
 44 42  2  0
 47 22  1  0
 47 48  1  0
 49 47  1  0
 50 52  1  0
 50  3  1  0
 51 62  2  0
 52 57  1  0
 53 61  1  0
 53 63  1  0
 54 60  1  0
 54 56  1  0
 55 61  1  0
 56 57  2  0
 56 55  1  0
 58 52  2  0
 59 58  1  0
 59 54  2  0
 60 53  1  0
 61 51  1  0
 63 65  2  0
 64 63  1  0
 66 64  1  0
 67 76  2  0
 67 72  1  0
 68 64  1  0
 68 72  1  0
 69 68  1  0
 70 71  1  0
 70 69  1  0
 71 67  1  0
 72 73  2  0
 73 74  1  0
 75 74  2  0
 76 75  1  0
 77 51  1  0
 77 78  1  0
 77 87  1  0
 78 81  1  0
 79 83  1  0
 79 78  1  0
 80 79  2  0
 83 82  1  0
 85 83  1  0
 85 86  1  0
 85 84  1  0
 87 90  1  1
 87 88  1  0
 89 87  1  0
M  ISO  4   3 101  13 100  14 100  50 101
M  END
>  <TORSDO>  (95) 
F 17

>  <SCORE>  (95) 
-15.544

>  <name>  (95) 
94

>  <ligand_id>  (95) 
94

>  <original_smiles>  (95) 
[H]c1sc(Oc2c([H])c([H])c3c(c2[H])C([H])([H])N(C(=O)C([H])(N([H])C(=O)C([H])(N([H])C([H])([H])[H])C([H])([H])[H])C(C([H])([H])[H])(C([H])([H])[H])C([H])([H])[H])C([H])(C(=O)N([H])C2([H])c4c([H])c([H])c([H])c([H])c4C([H])([H])C([H])([H])C2([H])[H])C3([H])[H])nc1C1([H])C([H])([H])C([H])([H])C2(C(=O)N3C([H])([H])C([H])([H])C([H])([H])C([H])(n4nc(-c5c([H])c([H])c(Oc6c([H])c([H])c(F)c([H])c6F)c([H])c5[H])c(C(=O)N([H])[H])c4N([H])[H])C3([H])[H])C([H])([H])C([H])([H])C2([H])C1([H])[H]

>  <smiles>  (95) 
[H]c1sc(Oc2c([H])c([H])c3c(c2[H])C([H])([H])N(C(=O)C([H])(N([H])C(=O)C([H])(N([H])C([H])([H])[H])C([H])([H])[H])C(C([H])([H])[H])(C([H])([H])[H])C([H])([H])[H])C([H])(C(=O)N([H])C2([H])c4c([H])c([H])c([H])c([H])c4C([H])([H])C([H])([H])C2([H])[H])C3([H])[H])nc1C1([H])C([H])([H])C([H])([H])C2(C(=O)N3C([H])([H])C([H])([H])C([H])([H])C([H])(n4nc(-c5c([H])c([H])c(Oc6c([H])c([H])c(F)c([H])c6F)c([H])c5[H])c(C(=O)N([H])[H])c4N([H])[H])C3([H])[H])C([H])([H])C([H])([H])C2([H])C1([H])[H]

$$$$
