0:0:0
     RDKit          3D

 91100  0  0  1  0  0  0  0  0999 V2000
  -28.8910  -20.4500   19.2060 C   0  0  0  0  0  3  0  0  0  0  0  0
  -28.4950  -21.8830   19.1570 C   0  0  0  0  0  3  0  0  0  0  0  0
  -29.7520  -20.7600   21.3050 C   0  0  0  0  0  3  0  0  0  0  0  0
  -29.5520  -19.7310   20.2890 C   0  0  0  0  0  0  0  0  0  0  0  0
  -28.6960  -22.9030   20.1830 C   0  0  0  0  0  0  0  0  0  0  0  0
  -29.3360  -22.1930   21.2850 C   0  0  0  0  0  0  0  0  0  0  0  0
  -29.5230  -22.9630   22.5910 C   0  0  0  0  0  2  0  0  0  0  0  0
  -28.9790  -24.4100   22.6070 C   0  0  0  0  0  2  0  0  0  0  0  0
  -27.6650  -24.5890   21.8230 C   0  0  0  0  0  2  0  0  0  0  0  0
  -27.9260  -24.4580   20.3140 C   0  0  0  0  0  3  0  0  0  0  0  0
  -29.8460  -16.7710   20.3870 C   0  0  0  0  0  3  0  0  0  0  0  0
  -30.2230  -18.1800   20.2580 C   0  0  0  0  0  0  0  0  0  0  0  0
  -30.6710  -15.3810   20.2550 C   0  0  0  0  0  0  0  0  0  0  0  0
  -30.6300  -12.9520   19.3730 C   0  0  0  0  0  2  0  0  0  0  0  0
  -29.7130  -12.7930   18.1350 C   0  0  0  0  0  2  0  0  0  0  0  0
  -28.2630  -12.5150   18.5700 C   0  0  0  0  0  2  0  0  0  0  0  0
  -27.8090  -13.4640   19.7080 C   0  0  0  0  0  3  0  0  0  0  0  0
  -28.8560  -13.5960   20.8360 C   0  0  0  0  0  2  0  0  0  0  0  0
  -30.1020  -14.0800   20.2220 N   0  0  0  0  0  0  0  0  0  0  0  0
  -31.8870  -15.3520   20.0110 O   0  0  0  0  0  0  0  0  0  0  0  0
  -25.4320  -13.9990   20.4710 C   0  0  0  0  0  0  0  0  0  0  0  0
  -24.3760  -13.2150   20.8400 C   0  0  0  0  0  0  0  0  0  0  0  0
  -24.8520  -11.8690   20.8020 C   0  0  0  0  0  0  0  0  0  0  0  0
  -26.4830  -13.1350   20.2170 N   0  0  0  0  0  0  0  0  0  0  0  0
  -26.1420  -11.8470   20.4840 N   0  0  0  0  0  0  0  0  0  0  0  0
  -24.1370  -10.6000   20.9900 C   0  0  0  0  0  0  0  0  0  0  0  0
  -24.5590   -9.6460   21.9420 C   0  0  0  0  0  3  0  0  0  0  0  0
  -23.8380   -8.4440   22.1180 C   0  0  0  0  0  3  0  0  0  0  0  0
  -22.6830   -8.1860   21.3430 C   0  0  0  0  0  0  0  0  0  0  0  0
  -22.2840   -9.1300   20.3800 C   0  0  0  0  0  3  0  0  0  0  0  0
  -23.0050  -10.3210   20.2010 C   0  0  0  0  0  3  0  0  0  0  0  0
  -21.9400   -7.0340   21.4230 O   0  0  0  0  0  0  0  0  0  0  0  0
  -21.8390   -6.3220   22.5910 C   0  0  0  0  0  0  0  0  0  0  0  0
  -21.3230   -6.9000   23.7720 C   0  0  0  0  0  3  0  0  0  0  0  0
  -21.1710   -6.1140   24.9320 C   0  0  0  0  0  3  0  0  0  0  0  0
  -21.5230   -4.7510   24.9120 C   0  0  0  0  0  0  0  0  0  0  0  0
  -22.0350   -4.1740   23.7380 C   0  0  0  0  0  3  0  0  0  0  0  0
  -22.1870   -4.9560   22.5800 C   0  0  0  0  0  0  0  0  0  0  0  0
  -22.6580   -4.3890   21.4420 F   0  0  0  0  0  0  0  0  0  0  0  0
  -21.3720   -3.9950   26.0240 F   0  0  0  0  0  0  0  0  0  0  0  0
  -22.9750  -13.6790   21.1120 C   0  0  0  0  0  0  0  0  0  0  0  0
  -22.2550  -12.9820   21.9840 N   0  0  0  0  0  0  0  0  0  0  0  0
  -22.5300  -14.6980   20.5870 O   0  0  0  0  0  0  0  0  0  0  0  0
  -22.6300  -12.1630   22.4390 H   0  0  0  0  0  0  0  0  0  0  0  0
  -21.3160  -13.2820   22.2060 H   0  0  0  0  0  0  0  0  0  0  0  0
  -25.5810  -15.3730   20.3030 N   0  0  0  0  0  0  0  0  0  0  0  0
  -24.8090  -16.0180   20.4400 H   0  0  0  0  0  0  0  0  0  0  0  0
  -26.4130  -15.8270   19.9520 H   0  0  0  0  0  0  0  0  0  0  0  0
  -31.5290  -18.3710   20.0270 O   0  0  0  0  0  0  0  0  0  0  0  0
  -31.6720  -19.3090   19.9720 H   0  0  0  0  0  0  0  0  0  0  0  0
  -28.2920  -26.0010   19.9220 O   0  0  0  0  0  0  0  0  0  0  0  0
  -24.7590  -31.8850   23.0590 C   0  0  0  0  0  0  0  0  0  0  0  0
  -27.2880  -27.0980   19.9130 C   0  0  0  0  0  0  0  0  0  0  0  0
  -23.5400  -30.4940   21.4350 C   0  0  0  0  0  3  0  0  0  0  0  0
  -24.9710  -28.9360   19.9540 C   0  0  0  0  0  0  0  0  0  0  0  0
  -26.0990  -30.7460   21.2230 C   0  0  0  0  0  2  0  0  0  0  0  0
  -26.1710  -29.3490   20.5470 C   0  0  0  0  0  0  0  0  0  0  0  0
  -27.3280  -28.4510   20.5020 C   0  0  0  0  0  3  0  0  0  0  0  0
  -26.0600  -26.8380   19.2660 C   0  0  0  0  0  3  0  0  0  0  0  0
  -24.9390  -27.7010   19.2900 C   0  0  0  0  0  3  0  0  0  0  0  0
  -23.7420  -29.8360   20.0450 C   0  0  0  0  0  2  0  0  0  0  0  0
  -24.8220  -31.0670   21.9600 N   0  0  0  0  0  0  0  0  0  0  0  0
  -23.6790  -32.1570   23.6090 O   0  0  0  0  0  0  0  0  0  0  0  0
  -22.8830  -29.4750   22.4030 C   0  0  0  0  0  0  0  0  0  0  0  0
  -21.5510  -29.3030   22.3120 N   0  0  0  0  0  0  0  0  0  0  0  0
  -23.5780  -28.8460   23.2050 O   0  0  0  0  0  0  0  0  0  0  0  0
  -21.0450  -29.8630   21.6410 H   0  0  0  0  0  0  0  0  0  0  0  0
  -18.1910  -28.0690   22.9040 C   0  0  0  0  0  0  0  0  0  0  0  0
  -20.7560  -28.3480   23.0930 C   0  0  0  0  0  3  0  0  0  0  0  0
  -20.8470  -26.9260   22.4930 C   0  0  0  0  0  2  0  0  0  0  0  0
  -19.7140  -26.6110   21.5090 C   0  0  0  0  0  2  0  0  0  0  0  0
  -18.3530  -26.7330   22.1980 C   0  0  0  0  0  2  0  0  0  0  0  0
  -19.3170  -28.8330   23.3100 C   0  0  0  0  0  0  0  0  0  0  0  0
  -19.1070  -30.0800   23.9400 C   0  0  0  0  0  3  0  0  0  0  0  0
  -17.8050  -30.5660   24.1600 C   0  0  0  0  0  3  0  0  0  0  0  0
  -16.6930  -29.8000   23.7670 C   0  0  0  0  0  3  0  0  0  0  0  0
  -16.8870  -28.5520   23.1470 C   0  0  0  0  0  3  0  0  0  0  0  0
  -26.0380  -32.5330   23.6670 C   0  0  0  0  0  3  0  0  0  0  0  0
  -25.7000  -33.9100   24.0720 N   0  0  0  0  0  0  0  0  0  0  0  0
  -25.9610  -35.0060   23.3480 C   0  0  0  0  0  0  0  0  0  0  0  0
  -26.5750  -34.9680   22.2800 O   0  0  0  0  0  0  0  0  0  0  0  0
  -25.1430  -34.0100   24.9060 H   0  0  0  0  0  0  0  0  0  0  0  0
  -24.1660  -36.7640   23.1810 C   0  0  0  0  0  1  0  0  0  0  0  0
  -25.4650  -36.3620   23.8950 C   0  0  0  0  0  3  0  0  0  0  0  0
  -27.6200  -37.2810   24.6340 C   0  0  0  0  0  1  0  0  0  0  0  0
  -26.4590  -37.4500   23.7640 N   0  0  0  0  0  0  0  0  0  0  0  0
  -26.0360  -38.3510   23.9690 H   0  0  0  0  0  0  0  0  0  0  0  0
  -26.6090  -31.7290   24.9020 C   0  0  1  0  0  0  0  0  0  0  0  0
  -25.5570  -31.4350   25.9970 C   0  0  0  0  0  1  0  0  0  0  0  0
  -27.2040  -30.3760   24.4510 C   0  0  0  0  0  1  0  0  0  0  0  0
  -27.7680  -32.5220   25.5510 C   0  0  0  0  0  1  0  0  0  0  0  0
  1  4  1  0
  2  1  2  0
  2  5  1  0
  4  3  2  0
  5 10  1  0
  5  6  2  0
  6  3  1  0
  6  7  1  0
  7  8  1  0
  9  8  1  0
 10 51  1  0
 10  9  1  0
 12  4  1  0
 12 11  2  0
 13 11  1  0
 14 19  1  0
 15 16  1  0
 15 14  1  0
 17 16  1  0
 17 24  1  0
 17 18  1  0
 19 13  1  0
 19 18  1  0
 20 13  2  0
 21 22  2  0
 22 41  1  0
 23 22  1  0
 23 26  1  0
 24 21  1  0
 24 25  1  0
 25 23  2  0
 26 27  1  0
 27 28  2  0
 29 32  1  0
 29 28  1  0
 30 29  2  0
 31 30  1  0
 31 26  2  0
 32 33  1  0
 33 34  1  0
 34 35  2  0
 36 35  1  0
 36 40  1  0
 37 36  2  0
 38 33  2  0
 38 37  1  0
 39 38  1  0
 41 42  1  0
 42 45  1  0
 42 44  1  0
 43 41  2  0
 46 47  1  0
 46 21  1  0
 48 46  1  0
 49 12  1  0
 50 49  1  0
 52 63  2  0
 53 51  1  0
 53 58  1  0
 54 62  1  0
 54 64  1  0
 55 61  1  0
 55 57  1  0
 56 62  1  0
 57 56  1  0
 58 57  2  0
 59 60  1  0
 59 53  2  0
 60 55  2  0
 61 54  1  0
 62 52  1  0
 64 66  2  0
 65 64  1  0
 67 65  1  0
 68 77  2  0
 68 73  1  0
 69 65  1  0
 69 73  1  0
 70 69  1  0
 71 72  1  0
 71 70  1  0
 72 68  1  0
 73 74  2  0
 74 75  1  0
 76 75  2  0
 77 76  1  0
 78 52  1  0
 78 79  1  0
 78 88  1  0
 79 82  1  0
 80 84  1  0
 80 79  1  0
 81 80  2  0
 84 83  1  0
 86 84  1  0
 86 87  1  0
 86 85  1  0
 88 91  1  1
 88 89  1  0
 90 88  1  0
M  ISO  4  10 101  11 100  13 100  51 101
M  END
>  <TORSDO>  (1) 
F 18

>  <SCORE>  (1) 
-14.741

>  <name>  (1) 
0

>  <ligand_id>  (1) 
0

>  <original_smiles>  (1) 
[H]OC(=C([H])C(=O)N1C([H])([H])C([H])([H])C([H])([H])C([H])(n2nc(-c3c([H])c([H])c(Oc4c([H])c([H])c(F)c([H])c4F)c([H])c3[H])c(C(=O)N([H])[H])c2N([H])[H])C1([H])[H])c1c([H])c([H])c2c(c1[H])C([H])([H])C([H])([H])C([H])([H])C2([H])Oc1c([H])c([H])c2c(c1[H])C([H])([H])N(C(=O)C([H])(N([H])C(=O)C([H])(N([H])C([H])([H])[H])C([H])([H])[H])C(C([H])([H])[H])(C([H])([H])[H])C([H])([H])[H])C([H])(C(=O)N([H])C1([H])c3c([H])c([H])c([H])c([H])c3C([H])([H])C([H])([H])C1([H])[H])C2([H])[H]

>  <smiles>  (1) 
[H]OC(=C([H])C(=O)N1C([H])([H])C([H])([H])C([H])([H])C([H])(n2nc(-c3c([H])c([H])c(Oc4c([H])c([H])c(F)c([H])c4F)c([H])c3[H])c(C(=O)N([H])[H])c2N([H])[H])C1([H])[H])c1c([H])c([H])c2c(c1[H])C([H])([H])C([H])([H])C([H])([H])C2([H])Oc1c([H])c([H])c2c(c1[H])C([H])([H])N(C(=O)C([H])(N([H])C(=O)C([H])(N([H])C([H])([H])[H])C([H])([H])[H])C(C([H])([H])[H])(C([H])([H])[H])C([H])([H])[H])C([H])(C(=O)N([H])C1([H])c3c([H])c([H])c([H])c([H])c3C([H])([H])C([H])([H])C1([H])[H])C2([H])[H]

$$$$
1:0:0
     RDKit          3D

 93102  0  0  1  0  0  0  0  0999 V2000
  -27.9540  -21.1170   19.2950 C   0  0  0  0  0  3  0  0  0  0  0  0
  -28.3350  -19.6360   19.3620 C   0  0  0  0  0  3  0  0  0  0  0  0
  -29.6120  -20.0030   21.1650 C   0  0  0  0  0  3  0  0  0  0  0  0
  -28.3560  -22.2320   20.1830 C   0  0  0  0  0  0  0  0  0  0  0  0
  -29.2210  -21.4950   21.0920 C   0  0  0  0  0  0  0  0  0  0  0  0
  -29.1990  -18.8450   20.2990 C   0  0  0  0  0  0  0  0  0  0  0  0
  -29.6420  -22.5660   22.0830 C   0  0  0  0  0  2  0  0  0  0  0  0
  -27.9150  -23.9560   20.6130 C   0  0  0  0  0  3  0  0  0  0  0  0
  -29.1350  -24.0170   21.6250 C   0  0  0  0  0  3  0  0  0  0  0  0
  -30.2300  -15.8270   20.4740 C   0  0  0  0  0  0  0  0  0  0  0  0
  -30.4860  -13.2730   19.7190 C   0  0  0  0  0  2  0  0  0  0  0  0
  -29.6450  -12.7570   18.5160 C   0  0  0  0  0  2  0  0  0  0  0  0
  -28.2330  -12.3440   18.9580 C   0  0  0  0  0  2  0  0  0  0  0  0
  -27.6350  -13.3690   19.9460 C   0  0  0  0  0  3  0  0  0  0  0  0
  -28.6200  -13.7700   21.0660 C   0  0  0  0  0  2  0  0  0  0  0  0
  -29.7740  -14.4350   20.4130 N   0  0  0  0  0  0  0  0  0  0  0  0
  -31.4730  -15.8270   20.4120 O   0  0  0  0  0  0  0  0  0  0  0  0
  -29.3640  -17.1190   20.3510 N   0  0  0  0  0  0  0  0  0  0  0  0
  -28.4540  -16.7380   20.1420 H   0  0  0  0  0  0  0  0  0  0  0  0
  -25.2390  -13.8100   20.6720 C   0  0  0  0  0  0  0  0  0  0  0  0
  -24.2010  -12.9880   21.0060 C   0  0  0  0  0  0  0  0  0  0  0  0
  -24.7200  -11.6570   20.9630 C   0  0  0  0  0  0  0  0  0  0  0  0
  -26.3210  -12.9800   20.4410 N   0  0  0  0  0  0  0  0  0  0  0  0
  -26.0210  -11.6780   20.6820 N   0  0  0  0  0  0  0  0  0  0  0  0
  -24.0330  -10.3650   21.1080 C   0  0  0  0  0  0  0  0  0  0  0  0
  -24.4370   -9.4140   22.0690 C   0  0  0  0  0  3  0  0  0  0  0  0
  -23.7430   -8.1920   22.2040 C   0  0  0  0  0  3  0  0  0  0  0  0
  -22.6300   -7.9130   21.3780 C   0  0  0  0  0  0  0  0  0  0  0  0
  -22.2450   -8.8530   20.4060 C   0  0  0  0  0  3  0  0  0  0  0  0
  -22.9410  -10.0660   20.2690 C   0  0  0  0  0  3  0  0  0  0  0  0
  -21.9110   -6.7430   21.4210 O   0  0  0  0  0  0  0  0  0  0  0  0
  -21.7570   -6.0390   22.5890 C   0  0  0  0  0  0  0  0  0  0  0  0
  -21.1360   -6.6050   23.7240 C   0  0  0  0  0  3  0  0  0  0  0  0
  -20.9320   -5.8230   24.8780 C   0  0  0  0  0  3  0  0  0  0  0  0
  -21.3400   -4.4770   24.8990 C   0  0  0  0  0  0  0  0  0  0  0  0
  -21.9530   -3.9100   23.7680 C   0  0  0  0  0  3  0  0  0  0  0  0
  -22.1580   -4.6880   22.6160 C   0  0  0  0  0  0  0  0  0  0  0  0
  -22.7290   -4.1310   21.5220 F   0  0  0  0  0  0  0  0  0  0  0  0
  -21.1380   -3.7230   26.0050 F   0  0  0  0  0  0  0  0  0  0  0  0
  -22.7800  -13.4100   21.2440 C   0  0  0  0  0  0  0  0  0  0  0  0
  -22.0580  -12.6820   22.0890 N   0  0  0  0  0  0  0  0  0  0  0  0
  -22.3220  -14.4250   20.7200 O   0  0  0  0  0  0  0  0  0  0  0  0
  -22.4410  -11.8590   22.5310 H   0  0  0  0  0  0  0  0  0  0  0  0
  -21.1050  -12.9450   22.2920 H   0  0  0  0  0  0  0  0  0  0  0  0
  -25.3510  -15.1870   20.5050 N   0  0  0  0  0  0  0  0  0  0  0  0
  -24.5410  -15.7960   20.5410 H   0  0  0  0  0  0  0  0  0  0  0  0
  -26.1700  -15.6370   20.1170 H   0  0  0  0  0  0  0  0  0  0  0  0
  -27.7970  -25.6090   20.0130 O   0  0  0  0  0  0  0  0  0  0  0  0
  -24.4920  -31.9760   23.1750 C   0  0  0  0  0  0  0  0  0  0  0  0
  -26.8180  -26.8120   20.1560 C   0  0  0  0  0  0  0  0  0  0  0  0
  -23.2140  -30.5950   21.5930 C   0  0  0  0  0  3  0  0  0  0  0  0
  -24.5750  -28.8850   20.1700 C   0  0  0  0  0  0  0  0  0  0  0  0
  -25.7910  -30.6780   21.3740 C   0  0  0  0  0  2  0  0  0  0  0  0
  -25.8050  -29.2300   20.7460 C   0  0  0  0  0  0  0  0  0  0  0  0
  -26.9140  -28.2300   20.6940 C   0  0  0  0  0  3  0  0  0  0  0  0
  -25.5440  -26.6790   19.5420 C   0  0  0  0  0  3  0  0  0  0  0  0
  -24.4810  -27.6320   19.5460 C   0  0  0  0  0  3  0  0  0  0  0  0
  -23.3950  -29.8700   20.2270 C   0  0  0  0  0  2  0  0  0  0  0  0
  -24.5270  -31.1160   22.0980 N   0  0  0  0  0  0  0  0  0  0  0  0
  -23.4260  -32.3080   23.7190 O   0  0  0  0  0  0  0  0  0  0  0  0
  -22.5010  -29.6490   22.5980 C   0  0  0  0  0  0  0  0  0  0  0  0
  -21.1720  -29.4770   22.4780 N   0  0  0  0  0  0  0  0  0  0  0  0
  -23.1610  -29.0600   23.4570 O   0  0  0  0  0  0  0  0  0  0  0  0
  -20.6880  -30.0080   21.7660 H   0  0  0  0  0  0  0  0  0  0  0  0
  -17.8010  -28.2240   22.9980 C   0  0  0  0  0  0  0  0  0  0  0  0
  -20.3510  -28.5650   23.2850 C   0  0  0  0  0  3  0  0  0  0  0  0
  -20.4910  -27.1090   22.7840 C   0  0  0  0  0  2  0  0  0  0  0  0
  -19.4140  -26.7160   21.7690 C   0  0  0  0  0  2  0  0  0  0  0  0
  -18.0190  -26.8520   22.3850 C   0  0  0  0  0  2  0  0  0  0  0  0
  -18.8950  -29.0340   23.4060 C   0  0  0  0  0  0  0  0  0  0  0  0
  -18.6300  -30.3130   23.9440 C   0  0  0  0  0  3  0  0  0  0  0  0
  -17.3090  -30.7780   24.0770 C   0  0  0  0  0  3  0  0  0  0  0  0
  -16.2330  -29.9680   23.6800 C   0  0  0  0  0  3  0  0  0  0  0  0
  -16.4810  -28.6930   23.1460 C   0  0  0  0  0  3  0  0  0  0  0  0
  -25.7910  -32.5970   23.7730 C   0  0  0  0  0  3  0  0  0  0  0  0
  -26.3180  -31.8170   25.0400 C   0  0  1  0  0  0  0  0  0  0  0  0
  -25.2450  -31.6100   26.1370 C   0  0  0  0  0  1  0  0  0  0  0  0
  -26.8640  -30.4280   24.6460 C   0  0  0  0  0  1  0  0  0  0  0  0
  -27.5050  -32.5840   25.6720 C   0  0  0  0  0  1  0  0  0  0  0  0
  -25.5110  -33.9990   24.1390 N   0  0  0  0  0  0  0  0  0  0  0  0
  -25.8690  -35.0670   23.4140 C   0  0  0  0  0  0  0  0  0  0  0  0
  -26.5310  -34.9740   22.3770 O   0  0  0  0  0  0  0  0  0  0  0  0
  -24.9260  -34.1460   24.9490 H   0  0  0  0  0  0  0  0  0  0  0  0
  -24.2140  -36.9420   23.1010 C   0  0  0  0  0  1  0  0  0  0  0  0
  -25.4260  -36.4590   23.9140 C   0  0  0  0  0  3  0  0  0  0  0  0
  -27.5810  -37.2380   24.8050 C   0  0  0  0  0  1  0  0  0  0  0  0
  -26.4980  -37.4810   23.8540 N   0  0  0  0  0  0  0  0  0  0  0  0
  -26.1200  -38.4090   24.0340 H   0  0  0  0  0  0  0  0  0  0  0  0
  -28.9450  -24.9670   22.8350 C   0  0  0  0  0  2  0  0  0  0  0  0
  -30.2280  -25.4280   23.4180 N   0  0  0  0  0  4  0  0  0  0  0  0
  -30.7760  -24.6670   23.7770 H   0  0  0  0  0  0  0  0  0  0  0  0
  -30.0580  -26.0550   24.1870 H   0  0  0  0  0  0  0  0  0  0  0  0
  -30.7790  -25.9360   22.7480 H   0  0  0  0  0  0  0  0  0  0  0  0
  1  2  2  0
  1  4  1  0
  2  6  1  0
  4  8  1  0
  4  5  2  0
  5  3  1  0
  5  7  1  0
  6 18  1  0
  6  3  2  0
  8 48  1  0
  8  9  1  0
  9  7  1  0
  9 89  1  0
 11 16  1  0
 12 13  1  0
 12 11  1  0
 14 13  1  0
 14 23  1  0
 14 15  1  0
 16 10  1  0
 16 15  1  0
 17 10  2  0
 18 10  1  0
 19 18  1  0
 20 21  2  0
 21 40  1  0
 22 21  1  0
 22 25  1  0
 23 20  1  0
 23 24  1  0
 24 22  2  0
 25 26  1  0
 26 27  2  0
 28 31  1  0
 28 27  1  0
 29 28  2  0
 30 29  1  0
 30 25  2  0
 31 32  1  0
 32 37  2  0
 32 33  1  0
 33 34  2  0
 34 35  1  0
 35 39  1  0
 36 35  2  0
 37 36  1  0
 38 37  1  0
 40 41  1  0
 41 44  1  0
 41 43  1  0
 42 40  2  0
 45 46  1  0
 45 20  1  0
 47 45  1  0
 48 50  1  0
 49 60  2  0
 50 55  1  0
 51 59  1  0
 51 61  1  0
 52 58  1  0
 52 54  1  0
 53 59  1  0
 54 53  1  0
 55 54  2  0
 56 57  1  0
 56 50  2  0
 57 52  2  0
 58 51  1  0
 59 49  1  0
 61 63  2  0
 62 61  1  0
 64 62  1  0
 65 74  2  0
 65 70  1  0
 66 62  1  0
 66 70  1  0
 67 66  1  0
 68 69  1  0
 68 67  1  0
 69 65  1  0
 70 71  2  0
 71 72  1  0
 73 72  2  0
 74 73  1  0
 75 49  1  0
 75 80  1  0
 75 76  1  0
 76 79  1  1
 76 77  1  0
 78 76  1  0
 80 83  1  0
 81 85  1  0
 81 80  1  0
 82 81  2  0
 85 84  1  0
 87 85  1  0
 87 88  1  0
 87 86  1  0
 89 90  1  0
 90 91  1  0
 90 92  1  0
 93 90  1  0
M  ISO  4   8 101  10 100  18 100  48 101
M  END
>  <TORSDO>  (2) 
F 18

>  <SCORE>  (2) 
-15.341

>  <name>  (2) 
1

>  <ligand_id>  (2) 
1

>  <original_smiles>  (2) 
[H]c1c([H])c([H])c2c(c1[H])C([H])([H])C([H])([H])C([H])([H])C2([H])N([H])C(=O)C1([H])N(C(=O)C([H])(N([H])C(=O)C([H])(N([H])C([H])([H])[H])C([H])([H])[H])C(C([H])([H])[H])(C([H])([H])[H])C([H])([H])[H])C([H])([H])c2c([H])c(OC3([H])c4c([H])c([H])c(N([H])C(=O)N5C([H])([H])C([H])([H])C([H])([H])C([H])(n6nc(-c7c([H])c([H])c(Oc8c([H])c([H])c(F)c([H])c8F)c([H])c7[H])c(C(=O)N([H])[H])c6N([H])[H])C5([H])[H])c([H])c4C([H])([H])C3([H])C([H])([H])[N+]([H])([H])[H])c([H])c([H])c2C1([H])[H]

>  <smiles>  (2) 
[H]c1c([H])c([H])c2c(c1[H])C([H])([H])C([H])([H])C([H])([H])C2([H])N([H])C(=O)C1([H])N(C(=O)C([H])(N([H])C(=O)C([H])(N([H])C([H])([H])[H])C([H])([H])[H])C(C([H])([H])[H])(C([H])([H])[H])C([H])([H])[H])C([H])([H])c2c([H])c(OC3([H])c4c([H])c([H])c(N([H])C(=O)N5C([H])([H])C([H])([H])C([H])([H])C([H])(n6nc(-c7c([H])c([H])c(Oc8c([H])c([H])c(F)c([H])c8F)c([H])c7[H])c(C(=O)N([H])[H])c6N([H])[H])C5([H])[H])c([H])c4C([H])([H])C3([H])C([H])([H])[N+]([H])([H])[H])c([H])c([H])c2C1([H])[H]

$$$$
2:0:0
     RDKit          3D

 95101  0  0  1  0  0  0  0  0999 V2000
  -29.9220  -22.0340   19.0080 C   0  0  0  0  0  0  0  0  0  0  0  0
  -32.6050  -19.5910   16.6620 C   0  0  0  0  0  2  0  0  0  0  0  0
  -32.4570  -21.0970   16.7020 C   0  0  0  0  0  2  0  0  0  0  0  0
  -30.6610  -22.9150   16.7590 C   0  0  0  0  0  2  0  0  0  0  0  0
  -30.9000  -23.4850   18.1820 C   0  0  0  0  0  2  0  0  0  0  0  0
  -30.2220  -20.1040   17.1880 C   0  0  0  0  0  3  0  0  0  0  0  0
  -31.3670  -19.0610   17.3930 C   0  0  0  0  0  3  0  0  0  0  0  0
  -29.3300  -20.2510   18.5100 C   0  0  0  0  0  3  0  0  0  0  0  0
  -30.9580  -21.3710   16.4610 C   0  0  2  0  0  0  0  0  0  0  0  0
  -27.9030  -20.6160   18.0530 C   0  0  0  0  0  1  0  0  0  0  0  0
  -30.6830  -21.2560   14.9370 C   0  0  0  0  0  1  0  0  0  0  0  0
  -29.5750  -22.3100   20.1600 O   0  0  0  0  0  0  0  0  0  0  0  0
  -31.0250  -17.7050   16.8970 N   0  0  0  0  0  4  0  0  0  0  0  0
  -31.1320  -17.6930   15.8950 H   0  0  0  0  0  0  0  0  0  0  0  0
  -30.0590  -17.5010   17.0900 H   0  0  0  0  0  0  0  0  0  0  0  0
  -32.1720  -15.5490   16.4070 C   0  0  0  0  0  1  0  0  0  0  0  0
  -31.8630  -16.6200   17.4590 C   0  0  0  0  0  2  0  0  0  0  0  0
  -31.0270  -25.3700   18.1160 O   0  0  0  0  0  1  0  0  0  0  0  0
  -35.6220  -31.7170   16.3130 C   0  0  0  0  0  0  0  0  0  0  0  0
  -32.0830  -26.5850   18.3360 C   0  0  0  0  0  0  0  0  0  0  0  0
  -36.2890  -30.1400   18.0720 C   0  0  0  0  0  3  0  0  0  0  0  0
  -34.4330  -28.5410   19.0170 C   0  0  0  0  0  0  0  0  0  0  0  0
  -33.7590  -30.4660   17.6180 C   0  0  0  0  0  2  0  0  0  0  0  0
  -33.4300  -28.9930   18.1490 C   0  0  0  0  0  0  0  0  0  0  0  0
  -32.2720  -28.0490   17.8610 C   0  0  0  0  0  3  0  0  0  0  0  0
  -33.1350  -26.3990   19.2850 C   0  0  0  0  0  3  0  0  0  0  0  0
  -34.2280  -27.2780   19.6030 C   0  0  0  0  0  3  0  0  0  0  0  0
  -35.6850  -29.3990   19.3020 C   0  0  0  0  0  2  0  0  0  0  0  0
  -35.2110  -30.8190   17.2810 N   0  0  0  0  0  0  0  0  0  0  0  0
  -36.8240  -31.9340   16.0770 O   0  0  0  0  0  0  0  0  0  0  0  0
  -37.1380  -29.1550   17.2210 C   0  0  0  0  0  0  0  0  0  0  0  0
  -38.4070  -28.8990   17.6030 N   0  0  0  0  0  0  0  0  0  0  0  0
  -36.6330  -28.6150   16.2350 O   0  0  0  0  0  0  0  0  0  0  0  0
  -38.7720  -29.3980   18.4010 H   0  0  0  0  0  0  0  0  0  0  0  0
  -41.7520  -27.4630   17.6780 C   0  0  0  0  0  0  0  0  0  0  0  0
  -39.3030  -27.9190   16.9710 C   0  0  0  0  0  3  0  0  0  0  0  0
  -39.0070  -26.4870   17.4710 C   0  0  0  0  0  2  0  0  0  0  0  0
  -39.8800  -26.0720   18.6610 C   0  0  0  0  0  2  0  0  0  0  0  0
  -41.3620  -26.1230   18.2800 C   0  0  0  0  0  2  0  0  0  0  0  0
  -40.7850  -28.3130   17.0780 C   0  0  0  0  0  0  0  0  0  0  0  0
  -41.1990  -29.5580   16.5570 C   0  0  0  0  0  3  0  0  0  0  0  0
  -42.5470  -29.9560   16.6290 C   0  0  0  0  0  3  0  0  0  0  0  0
  -43.5020  -29.1070   17.2150 C   0  0  0  0  0  3  0  0  0  0  0  0
  -43.1040  -27.8620   17.7330 C   0  0  0  0  0  3  0  0  0  0  0  0
  -34.6050  -32.5240   15.4490 C   0  0  0  0  0  3  0  0  0  0  0  0
  -34.5790  -32.0650   13.9370 C   0  0  1  0  0  0  0  0  0  0  0  0
  -35.9730  -32.0490   13.2660 C   0  0  0  0  0  1  0  0  0  0  0  0
  -33.9840  -30.6460   13.7970 C   0  0  0  0  0  1  0  0  0  0  0  0
  -33.6590  -33.0070   13.1250 C   0  0  0  0  0  1  0  0  0  0  0  0
  -34.9600  -33.9580   15.5230 N   0  0  0  0  0  0  0  0  0  0  0  0
  -34.4630  -34.8370   16.4040 C   0  0  0  0  0  0  0  0  0  0  0  0
  -33.6040  -34.5260   17.2320 O   0  0  0  0  0  0  0  0  0  0  0  0
  -35.6990  -34.2680   14.9090 H   0  0  0  0  0  0  0  0  0  0  0  0
  -36.0930  -36.4770   17.4120 C   0  0  0  0  0  1  0  0  0  0  0  0
  -34.9930  -36.2870   16.3570 C   0  0  0  0  0  3  0  0  0  0  0  0
  -33.0040  -37.4120   15.4480 C   0  0  0  0  0  1  0  0  0  0  0  0
  -33.9410  -37.3090   16.5620 N   0  0  0  0  0  0  0  0  0  0  0  0
  -34.3550  -38.2250   16.7130 H   0  0  0  0  0  0  0  0  0  0  0  0
  -28.8760  -18.3610   19.3200 C   0  0  0  0  0 15  0  0  0  0  0  0
  -27.8190  -16.6560   19.3040 C   0  0  0  0  0  2  0  0  0  0  0  0
  -27.1080  -14.1820   20.3050 C   0  0  0  0  0  2  0  0  0  0  0  0
  -27.6480  -13.7130   21.6990 C   0  0  0  0  0  2  0  0  0  0  0  0
  -29.0450  -13.0890   21.5880 C   0  0  0  0  0  2  0  0  0  0  0  0
  -29.9100  -13.8970   20.6020 C   0  0  0  0  0  3  0  0  0  0  0  0
  -29.1940  -14.2800   19.2820 C   0  0  0  0  0  2  0  0  0  0  0  0
  -28.0590  -15.1980   19.6030 N   0  0  0  0  0  0  0  0  0  0  0  0
  -26.5700  -16.6890   19.1910 O   0  0  0  0  0  1  0  0  0  0  0  0
  -32.3970  -14.0410   20.1600 C   0  0  0  0  0  0  0  0  0  0  0  0
  -33.4060  -13.1200   20.1500 C   0  0  0  0  0  0  0  0  0  0  0  0
  -32.7870  -11.8510   20.3750 C   0  0  0  0  0  0  0  0  0  0  0  0
  -31.2360  -13.3330   20.3950 N   0  0  0  0  0  0  0  0  0  0  0  0
  -31.4630  -11.9920   20.4600 N   0  0  0  0  0  0  0  0  0  0  0  0
  -33.3900  -10.5240   20.5760 C   0  0  0  0  0  0  0  0  0  0  0  0
  -33.1380   -9.4520   19.6920 C   0  0  0  0  0  3  0  0  0  0  0  0
  -33.7550   -8.1970   19.8910 C   0  0  0  0  0  3  0  0  0  0  0  0
  -34.6380   -8.0040   20.9810 C   0  0  0  0  0  0  0  0  0  0  0  0
  -34.8690   -9.0680   21.8700 C   0  0  0  0  0  3  0  0  0  0  0  0
  -34.2510  -10.3150   21.6730 C   0  0  0  0  0  3  0  0  0  0  0  0
  -35.2570   -6.8120   21.2690 O   0  0  0  0  0  0  0  0  0  0  0  0
  -35.6740   -5.9580   20.2780 C   0  0  0  0  0  0  0  0  0  0  0  0
  -36.6090   -6.3550   19.2970 C   0  0  0  0  0  3  0  0  0  0  0  0
  -37.0630   -5.4270   18.3400 C   0  0  0  0  0  3  0  0  0  0  0  0
  -36.5930   -4.1000   18.3670 C   0  0  0  0  0  0  0  0  0  0  0  0
  -35.6650   -3.7010   19.3440 C   0  0  0  0  0  3  0  0  0  0  0  0
  -35.2100   -4.6270   20.3010 C   0  0  0  0  0  0  0  0  0  0  0  0
  -34.3340   -4.2320   21.2570 F   0  0  0  0  0  0  0  0  0  0  0  0
  -37.0330   -3.2050   17.4510 F   0  0  0  0  0  0  0  0  0  0  0  0
  -34.8710  -13.4210   20.0450 C   0  0  0  0  0  0  0  0  0  0  0  0
  -35.6520  -12.4920   19.5070 N   0  0  0  0  0  0  0  0  0  0  0  0
  -35.3250  -14.5090   20.3970 O   0  0  0  0  0  0  0  0  0  0  0  0
  -35.2720  -11.6080   19.2020 H   0  0  0  0  0  0  0  0  0  0  0  0
  -36.6410  -12.6680   19.4020 H   0  0  0  0  0  0  0  0  0  0  0  0
  -32.3710  -15.4270   20.0230 N   0  0  0  0  0  0  0  0  0  0  0  0
  -33.2270  -15.9670   19.9710 H   0  0  0  0  0  0  0  0  0  0  0  0
  -31.5540  -15.9950   20.2110 H   0  0  0  0  0  0  0  0  0  0  0  0
  1 12  2  0
  2  3  1  0
  2  7  1  0
  4  5  1  0
  5  1  1  0
  6  7  1  0
  6  8  1  0
  8  1  1  0
  9  3  1  0
  9  4  1  0
  9  6  1  0
 10  8  1  0
  9 11  1  6
 13 15  1  0
 13  7  1  0
 13 17  1  0
 14 13  1  0
 16 17  1  0
 18 20  1  0
 19 29  1  0
 20 26  1  0
 21 28  1  0
 22 28  1  0
 22 27  1  0
 23 24  1  0
 24 22  2  0
 25 24  1  0
 25 20  2  0
 26 27  2  0
 29 23  1  0
 29 21  1  0
 30 19  2  0
 31 32  1  0
 31 21  1  0
 32 34  1  0
 33 31  2  0
 35 44  1  0
 35 39  1  0
 36 40  1  0
 36 37  1  0
 36 32  1  0
 37 38  1  0
 39 38  1  0
 40 35  2  0
 41 42  2  0
 41 40  1  0
 42 43  1  0
 43 44  2  0
 45 50  1  0
 45 19  1  0
 46 45  1  0
 46 47  1  6
 48 46  1  0
 49 46  1  0
 50 51  1  0
 51 52  2  0
 53 50  1  0
 55 51  1  0
 55 57  1  0
 55 54  1  0
 56 57  1  0
 57 58  1  0
 60 66  1  0
 61 62  1  0
 63 62  1  0
 64 63  1  0
 65 66  1  0
 65 64  1  0
 66 61  1  0
 67 60  1  0
 68 71  1  0
 69 68  2  0
 69 70  1  0
 70 72  2  0
 70 73  1  0
 71 72  1  0
 71 64  1  0
 73 78  1  0
 74 75  1  0
 74 73  2  0
 75 76  2  0
 76 79  1  0
 76 77  1  0
 78 77  2  0
 80 85  1  0
 80 79  1  0
 81 80  2  0
 82 83  2  0
 82 81  1  0
 83 84  1  0
 84 85  2  0
 85 86  1  0
 87 83  1  0
 88 69  1  0
 88 90  2  0
 89 88  1  0
 91 89  1  0
 92 89  1  0
 93 68  1  0
 93 95  1  0
 94 93  1  0
M  ISO  4   5 101  18 101  59 100  60 100
M  END
>  <TORSDO>  (3) 
F 19

>  <SCORE>  (3) 
-4.625

>  <name>  (3) 
2

>  <ligand_id>  (3) 
2

>  <original_smiles>  (3) 
[H]c1c([H])c([H])c2c(c1[H])C([H])([H])C([H])([H])C([H])([H])C2([H])N([H])C(=O)C1([H])N(C(=O)C([H])(N([H])C(=O)C([H])(N([H])C([H])([H])[H])C([H])([H])[H])C(C([H])([H])[H])(C([H])([H])[H])C([H])([H])[H])C([H])([H])c2c([H])c(OC3([H])C(=O)C(C([H])([H])[H])(C([H])([H])C(=O)N4C([H])([H])C([H])([H])C([H])([H])C([H])(n5nc(-c6c([H])c([H])c(Oc7c([H])c([H])c(F)c([H])c7F)c([H])c6[H])c(C(=O)N([H])[H])c5N([H])[H])C4([H])[H])C4([H])C(C([H])([H])[H])(C3([H])[H])C([H])([H])C([H])([H])C4([H])[N+]([H])([H])C([H])([H])C([H])([H])[H])c([H])c([H])c2C1([H])[H]

>  <smiles>  (3) 
[H]c1c([H])c([H])c2c(c1[H])C([H])([H])C([H])([H])C([H])([H])C2([H])N([H])C(=O)C1([H])N(C(=O)C([H])(N([H])C(=O)C([H])(N([H])C([H])([H])[H])C([H])([H])[H])C(C([H])([H])[H])(C([H])([H])[H])C([H])([H])[H])C([H])([H])c2c([H])c(OC3([H])C(=O)C(C([H])([H])[H])(C([H])([H])C(=O)N4C([H])([H])C([H])([H])C([H])([H])C([H])(n5nc(-c6c([H])c([H])c(Oc7c([H])c([H])c(F)c([H])c7F)c([H])c6[H])c(C(=O)N([H])[H])c5N([H])[H])C4([H])[H])C4([H])C(C([H])([H])[H])(C3([H])[H])C([H])([H])C([H])([H])C4([H])[N+]([H])([H])C([H])([H])C([H])([H])[H])c([H])c([H])c2C1([H])[H]

$$$$
3:0:0
     RDKit          3D

 88 97  0  0  1  0  0  0  0  0999 V2000
  -28.6790  -19.8780   19.7600 C   0  0  0  0  0  3  0  0  0  0  0  0
  -30.3420  -19.3890   21.3630 C   0  0  0  0  0  3  0  0  0  0  0  0
  -28.7020  -21.3810   20.0770 C   0  0  0  0  0  0  0  0  0  0  0  0
  -29.5490  -21.8250   21.0690 C   0  0  0  0  0  0  0  0  0  0  0  0
  -29.5050  -18.7460   20.3830 C   0  0  0  0  0  3  0  0  0  0  0  0
  -30.3730  -20.8160   21.6920 C   0  0  0  0  0  0  0  0  0  0  0  0
  -27.9820  -22.7940   19.5670 C   0  0  0  0  0  3  0  0  0  0  0  0
  -29.4480  -23.4190   21.3150 C   0  0  0  0  0  3  0  0  0  0  0  0
  -28.2230  -24.1830   20.5430 C   0  0  0  0  0  0  0  0  0  0  0  0
  -31.3260  -21.2720   22.7800 C   0  0  0  0  0  1  0  0  0  0  0  0
  -28.2750  -25.8570   20.3120 O   0  0  0  0  0  0  0  0  0  0  0  0
  -24.6580  -31.8880   23.2620 C   0  0  0  0  0  0  0  0  0  0  0  0
  -27.2340  -26.9470   20.3010 C   0  0  0  0  0  0  0  0  0  0  0  0
  -23.4790  -30.4830   21.6210 C   0  0  0  0  0  3  0  0  0  0  0  0
  -24.9370  -28.8580   20.2240 C   0  0  0  0  0  0  0  0  0  0  0  0
  -26.0490  -30.6820   21.4950 C   0  0  0  0  0  2  0  0  0  0  0  0
  -26.1230  -29.2610   20.8480 C   0  0  0  0  0  0  0  0  0  0  0  0
  -27.2650  -28.3310   20.8520 C   0  0  0  0  0  3  0  0  0  0  0  0
  -26.0120  -26.7030   19.6350 C   0  0  0  0  0  3  0  0  0  0  0  0
  -24.9090  -27.6010   19.5950 C   0  0  0  0  0  3  0  0  0  0  0  0
  -23.7210  -29.7870   20.2520 C   0  0  0  0  0  2  0  0  0  0  0  0
  -24.7510  -31.0470   22.1800 N   0  0  0  0  0  0  0  0  0  0  0  0
  -23.5630  -32.1810   23.7720 O   0  0  0  0  0  0  0  0  0  0  0  0
  -22.7740  -29.4960   22.5890 C   0  0  0  0  0  0  0  0  0  0  0  0
  -21.4450  -29.3250   22.4490 N   0  0  0  0  0  0  0  0  0  0  0  0
  -23.4300  -28.8820   23.4330 O   0  0  0  0  0  0  0  0  0  0  0  0
  -20.9670  -29.8710   21.7460 H   0  0  0  0  0  0  0  0  0  0  0  0
  -18.0640  -28.0990   22.9310 C   0  0  0  0  0  0  0  0  0  0  0  0
  -20.6180  -28.3870   23.2180 C   0  0  0  0  0  3  0  0  0  0  0  0
  -20.7360  -26.9520   22.6550 C   0  0  0  0  0  2  0  0  0  0  0  0
  -19.6470  -26.6140   21.6320 C   0  0  0  0  0  2  0  0  0  0  0  0
  -18.2580  -26.7490   22.2610 C   0  0  0  0  0  2  0  0  0  0  0  0
  -19.1710  -28.8740   23.3670 C   0  0  0  0  0  0  0  0  0  0  0  0
  -18.9330  -30.1340   23.9570 C   0  0  0  0  0  3  0  0  0  0  0  0
  -17.6210  -30.6210   24.1130 C   0  0  0  0  0  3  0  0  0  0  0  0
  -16.5280  -29.8430   23.6920 C   0  0  0  0  0  3  0  0  0  0  0  0
  -16.7500  -28.5830   23.1080 C   0  0  0  0  0  3  0  0  0  0  0  0
  -25.9210  -32.5380   23.9050 C   0  0  0  0  0  3  0  0  0  0  0  0
  -25.6010  -33.9430   24.2210 N   0  0  0  0  0  0  0  0  0  0  0  0
  -25.9250  -34.9960   23.4600 C   0  0  0  0  0  0  0  0  0  0  0  0
  -26.5850  -34.8880   22.4230 O   0  0  0  0  0  0  0  0  0  0  0  0
  -25.0110  -34.0980   25.0260 H   0  0  0  0  0  0  0  0  0  0  0  0
  -24.1830  -36.7870   23.1290 C   0  0  0  0  0  1  0  0  0  0  0  0
  -25.4430  -36.3890   23.9160 C   0  0  0  0  0  3  0  0  0  0  0  0
  -27.5860  -37.2980   24.7020 C   0  0  0  0  0  1  0  0  0  0  0  0
  -26.4700  -37.4460   23.7730 N   0  0  0  0  0  0  0  0  0  0  0  0
  -26.0620  -38.3660   23.9110 H   0  0  0  0  0  0  0  0  0  0  0  0
  -26.4070  -31.7880   25.2060 C   0  0  1  0  0  0  0  0  0  0  0  0
  -25.2910  -31.5720   26.2560 C   0  0  0  0  0  1  0  0  0  0  0  0
  -26.9950  -30.4020   24.8600 C   0  0  0  0  0  1  0  0  0  0  0  0
  -27.5470  -32.5920   25.8780 C   0  0  0  0  0  1  0  0  0  0  0  0
  -29.3560  -16.9640   20.2420 C   0  0  0  0  0  2  0  0  0  0  0  0
  -30.3240  -15.4540   20.1470 C   0  0  0  0  0  0  0  0  0  0  0  0
  -30.3980  -12.9770   19.2790 C   0  0  0  0  0  2  0  0  0  0  0  0
  -29.4560  -12.7450   18.0640 C   0  0  0  0  0  2  0  0  0  0  0  0
  -28.0180  -12.4430   18.5230 C   0  0  0  0  0  2  0  0  0  0  0  0
  -27.5700  -13.3930   19.6590 C   0  0  0  0  0  3  0  0  0  0  0  0
  -28.6340  -13.5520   20.7630 C   0  0  0  0  0  2  0  0  0  0  0  0
  -29.8470  -14.0990   20.1320 N   0  0  0  0  0  0  0  0  0  0  0  0
  -31.5430  -15.4880   19.9000 O   0  0  0  0  0  0  0  0  0  0  0  0
  -25.2160  -13.9260   20.4760 C   0  0  0  0  0  0  0  0  0  0  0  0
  -24.1660  -13.1400   20.8600 C   0  0  0  0  0  0  0  0  0  0  0  0
  -24.6390  -11.7920   20.8030 C   0  0  0  0  0  0  0  0  0  0  0  0
  -26.2560  -13.0600   20.1940 N   0  0  0  0  0  0  0  0  0  0  0  0
  -25.9240  -11.7690   20.4620 N   0  0  0  0  0  0  0  0  0  0  0  0
  -23.9220  -10.5250   20.9950 C   0  0  0  0  0  0  0  0  0  0  0  0
  -24.3610   -9.5570   21.9260 C   0  0  0  0  0  3  0  0  0  0  0  0
  -23.6390   -8.3580   22.1080 C   0  0  0  0  0  3  0  0  0  0  0  0
  -22.4640   -8.1150   21.3580 C   0  0  0  0  0  0  0  0  0  0  0  0
  -22.0430   -9.0700   20.4160 C   0  0  0  0  0  3  0  0  0  0  0  0
  -22.7660  -10.2620   20.2320 C   0  0  0  0  0  3  0  0  0  0  0  0
  -21.7140   -6.9670   21.4470 O   0  0  0  0  0  0  0  0  0  0  0  0
  -21.6510   -6.2380   22.6070 C   0  0  0  0  0  0  0  0  0  0  0  0
  -21.1640   -6.7940   23.8110 C   0  0  0  0  0  3  0  0  0  0  0  0
  -21.0500   -5.9890   24.9620 C   0  0  0  0  0  3  0  0  0  0  0  0
  -21.4130   -4.6290   24.9110 C   0  0  0  0  0  0  0  0  0  0  0  0
  -21.8930   -4.0740   23.7120 C   0  0  0  0  0  3  0  0  0  0  0  0
  -22.0070   -4.8750   22.5630 C   0  0  0  0  0  0  0  0  0  0  0  0
  -22.4500   -4.3290   21.4050 F   0  0  0  0  0  0  0  0  0  0  0  0
  -21.2980   -3.8540   26.0140 F   0  0  0  0  0  0  0  0  0  0  0  0
  -22.7730  -13.6070   21.1610 C   0  0  0  0  0  0  0  0  0  0  0  0
  -22.0660  -12.9050   22.0400 N   0  0  0  0  0  0  0  0  0  0  0  0
  -22.3200  -14.6330   20.6530 O   0  0  0  0  0  0  0  0  0  0  0  0
  -22.4460  -12.0780   22.4760 H   0  0  0  0  0  0  0  0  0  0  0  0
  -21.1320  -13.2020   22.2810 H   0  0  0  0  0  0  0  0  0  0  0  0
  -25.3680  -15.3010   20.3140 N   0  0  0  0  0  0  0  0  0  0  0  0
  -24.6020  -15.9490   20.4580 H   0  0  0  0  0  0  0  0  0  0  0  0
  -26.2060  -15.7510   19.9720 H   0  0  0  0  0  0  0  0  0  0  0  0
  1  3  2  0
  1  5  1  0
  2  6  2  0
  3  4  1  0
  4  8  2  0
  4  6  1  0
  5 52  1  0
  5  2  1  0
  6 10  1  0
  7  3  1  0
  7  9  2  0
  9  8  1  0
 11  9  1  0
 12 23  2  0
 13 11  1  0
 13 18  1  0
 14 22  1  0
 14 24  1  0
 15 21  1  0
 15 17  1  0
 16 22  1  0
 17 18  2  0
 17 16  1  0
 19 13  2  0
 20 19  1  0
 20 15  2  0
 21 14  1  0
 22 12  1  0
 24 26  2  0
 25 24  1  0
 27 25  1  0
 28 37  2  0
 28 33  1  0
 29 25  1  0
 29 33  1  0
 30 29  1  0
 31 32  1  0
 31 30  1  0
 32 28  1  0
 33 34  2  0
 34 35  1  0
 36 35  2  0
 37 36  1  0
 38 12  1  0
 38 39  1  0
 38 48  1  0
 39 42  1  0
 40 44  1  0
 40 39  1  0
 41 40  2  0
 44 43  1  0
 46 47  1  0
 46 44  1  0
 46 45  1  0
 48 51  1  1
 48 49  1  0
 50 48  1  0
 53 52  1  0
 54 59  1  0
 55 56  1  0
 55 54  1  0
 57 56  1  0
 57 64  1  0
 57 58  1  0
 59 53  1  0
 59 58  1  0
 60 53  2  0
 61 62  2  0
 62 81  1  0
 63 62  1  0
 63 66  1  0
 64 65  1  0
 64 61  1  0
 65 63  2  0
 66 67  1  0
 67 68  2  0
 69 72  1  0
 69 68  1  0
 70 69  2  0
 71 70  1  0
 71 66  2  0
 72 73  1  0
 73 74  1  0
 74 75  2  0
 76 75  1  0
 76 80  1  0
 77 76  2  0
 78 73  2  0
 78 77  1  0
 79 78  1  0
 81 82  1  0
 82 85  1  0
 82 84  1  0
 83 81  2  0
 86 87  1  0
 86 61  1  0
 88 86  1  0
M  ISO  4   9 101  11 101  52 100  53 100
M  END
>  <TORSDO>  (4) 
F 17

>  <SCORE>  (4) 
-16.960

>  <name>  (4) 
3

>  <ligand_id>  (4) 
3

>  <original_smiles>  (4) 
[H]c1c([H])c([H])c2c(c1[H])C([H])([H])C([H])([H])C([H])([H])C2([H])N([H])C(=O)C1([H])N(C(=O)C([H])(N([H])C(=O)C([H])(N([H])C([H])([H])[H])C([H])([H])[H])C(C([H])([H])[H])(C([H])([H])[H])C([H])([H])[H])C([H])([H])c2c([H])c(OC3([H])C([H])([H])c4c([H])c(C([H])([H])C(=O)N5C([H])([H])C([H])([H])C([H])([H])C([H])(n6nc(-c7c([H])c([H])c(Oc8c([H])c([H])c(F)c([H])c8F)c([H])c7[H])c(C(=O)N([H])[H])c6N([H])[H])C5([H])[H])c([H])c(C([H])([H])[H])c4C3([H])[H])c([H])c([H])c2C1([H])[H]

>  <smiles>  (4) 
[H]c1c([H])c([H])c2c(c1[H])C([H])([H])C([H])([H])C([H])([H])C2([H])N([H])C(=O)C1([H])N(C(=O)C([H])(N([H])C(=O)C([H])(N([H])C([H])([H])[H])C([H])([H])[H])C(C([H])([H])[H])(C([H])([H])[H])C([H])([H])[H])C([H])([H])c2c([H])c(OC3([H])C([H])([H])c4c([H])c(C([H])([H])C(=O)N5C([H])([H])C([H])([H])C([H])([H])C([H])(n6nc(-c7c([H])c([H])c(Oc8c([H])c([H])c(F)c([H])c8F)c([H])c7[H])c(C(=O)N([H])[H])c6N([H])[H])C5([H])[H])c([H])c(C([H])([H])[H])c4C3([H])[H])c([H])c([H])c2C1([H])[H]

$$$$
4:0:0
     RDKit          3D

 93103  0  0  1  0  0  0  0  0999 V2000
  -29.7400  -22.9480   21.2100 C   0  0  0  0  0  3  0  0  0  0  0  0
  -29.1490  -24.1510   20.7010 C   0  0  0  0  0  3  0  0  0  0  0  0
  -28.5520  -22.7340   18.8790 C   0  0  0  0  0  3  0  0  0  0  0  0
  -29.7880  -21.6180   20.6390 C   0  0  0  0  0  0  0  0  0  0  0  0
  -29.1110  -21.2740   19.4170 C   0  0  0  0  0  0  0  0  0  0  0  0
  -28.5180  -24.2820   19.4490 C   0  0  0  0  0  0  0  0  0  0  0  0
  -31.9030  -19.3930   19.2190 C   0  0  0  0  0  2  0  0  0  0  0  0
  -31.3580  -19.4870   23.0480 C   0  0  0  0  0  2  0  0  0  0  0  0
  -30.7850  -19.5920   18.1720 C   0  0  0  0  0  2  0  0  0  0  0  0
  -31.9910  -20.4900   20.3030 C   0  0  0  0  0  2  0  0  0  0  0  0
  -30.2690  -19.3400   21.9870 C   0  0  0  0  0  2  0  0  0  0  0  0
  -31.2650  -20.9740   22.7410 C   0  0  0  0  0  2  0  0  0  0  0  0
  -29.3740  -19.4760   18.7720 C   0  0  0  0  0  3  0  0  0  0  0  0
  -30.7960  -20.6300   21.2920 C   0  0  2  0  0  0  0  0  0  0  0  0
  -30.2790  -16.4050   19.4930 C   0  0  0  0  0  0  0  0  0  0  0  0
  -30.7530  -13.7450   19.3090 C   0  0  0  0  0  2  0  0  0  0  0  0
  -29.9960  -12.8980   18.2420 C   0  0  0  0  0  2  0  0  0  0  0  0
  -28.6140  -12.4640   18.7500 C   0  0  0  0  0  2  0  0  0  0  0  0
  -27.9240  -13.6090   19.5220 C   0  0  0  0  0  3  0  0  0  0  0  0
  -28.8460  -14.3490   20.5260 C   0  0  0  0  0  2  0  0  0  0  0  0
  -29.9360  -14.9860   19.7420 N   0  0  0  0  0  0  0  0  0  0  0  0
  -31.5200  -16.4250   19.3580 O   0  0  0  0  0  0  0  0  0  0  0  0
  -29.3780  -17.7000   19.2390 N   0  0  0  0  0  0  0  0  0  0  0  0
  -28.4180  -17.4220   19.3900 H   0  0  0  0  0  0  0  0  0  0  0  0
  -25.6110  -14.0780   20.4500 C   0  0  0  0  0  0  0  0  0  0  0  0
  -24.5740  -13.2740   20.8240 C   0  0  0  0  0  0  0  0  0  0  0  0
  -25.0420  -11.9290   20.6870 C   0  0  0  0  0  0  0  0  0  0  0  0
  -26.6400  -13.2280   20.0910 N   0  0  0  0  0  0  0  0  0  0  0  0
  -26.3160  -11.9230   20.3010 N   0  0  0  0  0  0  0  0  0  0  0  0
  -24.3230  -10.6570   20.8400 C   0  0  0  0  0  0  0  0  0  0  0  0
  -24.7330   -9.6810   21.7740 C   0  0  0  0  0  3  0  0  0  0  0  0
  -24.0070   -8.4790   21.9220 C   0  0  0  0  0  3  0  0  0  0  0  0
  -22.8560   -8.2440   21.1330 C   0  0  0  0  0  0  0  0  0  0  0  0
  -22.4620   -9.2100   20.1890 C   0  0  0  0  0  3  0  0  0  0  0  0
  -23.1900  -10.4020   20.0410 C   0  0  0  0  0  3  0  0  0  0  0  0
  -22.1090   -7.0930   21.1850 O   0  0  0  0  0  0  0  0  0  0  0  0
  -21.8610   -6.4470   22.3720 C   0  0  0  0  0  0  0  0  0  0  0  0
  -21.2070   -7.0880   23.4460 C   0  0  0  0  0  3  0  0  0  0  0  0
  -20.9100   -6.3690   24.6190 C   0  0  0  0  0  3  0  0  0  0  0  0
  -21.2580   -5.0080   24.7190 C   0  0  0  0  0  0  0  0  0  0  0  0
  -21.9020   -4.3650   23.6470 C   0  0  0  0  0  3  0  0  0  0  0  0
  -22.1990   -5.0820   22.4750 C   0  0  0  0  0  0  0  0  0  0  0  0
  -22.8030   -4.4530   21.4380 F   0  0  0  0  0  0  0  0  0  0  0  0
  -20.9630   -4.3130   25.8430 F   0  0  0  0  0  0  0  0  0  0  0  0
  -23.1940  -13.7330   21.1880 C   0  0  0  0  0  0  0  0  0  0  0  0
  -22.5220  -13.0180   22.0840 N   0  0  0  0  0  0  0  0  0  0  0  0
  -22.7200  -14.7670   20.7180 O   0  0  0  0  0  0  0  0  0  0  0  0
  -22.9140  -12.1830   22.4920 H   0  0  0  0  0  0  0  0  0  0  0  0
  -21.5980  -13.3160   22.3650 H   0  0  0  0  0  0  0  0  0  0  0  0
  -25.7600  -15.4590   20.3470 N   0  0  0  0  0  0  0  0  0  0  0  0
  -24.9980  -16.0970   20.5430 H   0  0  0  0  0  0  0  0  0  0  0  0
  -26.5760  -15.9220   19.9720 H   0  0  0  0  0  0  0  0  0  0  0  0
  -28.1680  -25.8440   19.0070 O   0  0  0  0  0  0  0  0  0  0  0  0
  -24.5960  -31.5690   23.1600 C   0  0  0  0  0  0  0  0  0  0  0  0
  -27.1170  -26.9930   19.3290 C   0  0  0  0  0  0  0  0  0  0  0  0
  -23.3280  -30.2530   21.5210 C   0  0  0  0  0  3  0  0  0  0  0  0
  -24.7140  -28.8860   19.7720 C   0  0  0  0  0  0  0  0  0  0  0  0
  -25.8610  -30.6130   21.1230 C   0  0  0  0  0  2  0  0  0  0  0  0
  -25.9540  -29.2540   20.3030 C   0  0  0  0  0  0  0  0  0  0  0  0
  -27.1280  -28.3440   20.0540 C   0  0  0  0  0  3  0  0  0  0  0  0
  -25.8170  -26.8770   18.7610 C   0  0  0  0  0  3  0  0  0  0  0  0
  -24.6860  -27.7300   18.9700 C   0  0  0  0  0  3  0  0  0  0  0  0
  -23.4540  -29.7240   20.0600 C   0  0  0  0  0  2  0  0  0  0  0  0
  -24.6250  -30.8430   21.9860 N   0  0  0  0  0  0  0  0  0  0  0  0
  -23.5550  -31.7110   23.8250 O   0  0  0  0  0  0  0  0  0  0  0  0
  -22.8090  -29.1220   22.4500 C   0  0  0  0  0  0  0  0  0  0  0  0
  -21.5460  -28.6810   22.2780 N   0  0  0  0  0  0  0  0  0  0  0  0
  -23.5580  -28.6390   23.3030 O   0  0  0  0  0  0  0  0  0  0  0  0
  -20.9820  -29.1230   21.5660 H   0  0  0  0  0  0  0  0  0  0  0  0
  -18.6860  -26.4340   22.3640 C   0  0  0  0  0  0  0  0  0  0  0  0
  -20.9250  -27.5640   23.0050 C   0  0  0  0  0  3  0  0  0  0  0  0
  -21.5890  -26.2200   22.6230 C   0  0  0  0  0  2  0  0  0  0  0  0
  -20.8640  -25.4920   21.4860 C   0  0  0  0  0  2  0  0  0  0  0  0
  -19.4130  -25.1930   21.8760 C   0  0  0  0  0  2  0  0  0  0  0  0
  -19.3940  -27.5530   22.8780 C   0  0  0  0  0  0  0  0  0  0  0  0
  -18.6680  -28.6890   23.2930 C   0  0  0  0  0  3  0  0  0  0  0  0
  -17.2620  -28.7200   23.1970 C   0  0  0  0  0  3  0  0  0  0  0  0
  -16.5660  -27.6050   22.6970 C   0  0  0  0  0  3  0  0  0  0  0  0
  -17.2770  -26.4640   22.2870 C   0  0  0  0  0  3  0  0  0  0  0  0
  -25.8720  -32.2640   23.7240 C   0  0  0  0  0  3  0  0  0  0  0  0
  -25.5220  -33.6500   24.0920 N   0  0  0  0  0  0  0  0  0  0  0  0
  -25.8690  -34.7450   23.4030 C   0  0  0  0  0  0  0  0  0  0  0  0
  -26.5700  -34.6960   22.3890 O   0  0  0  0  0  0  0  0  0  0  0  0
  -24.8900  -33.7600   24.8730 H   0  0  0  0  0  0  0  0  0  0  0  0
  -24.1420  -36.5560   23.0890 C   0  0  0  0  0  1  0  0  0  0  0  0
  -25.3620  -36.1130   23.9120 C   0  0  0  0  0  3  0  0  0  0  0  0
  -27.4570  -36.9830   24.8530 C   0  0  0  0  0  1  0  0  0  0  0  0
  -26.3900  -37.1770   23.8780 N   0  0  0  0  0  0  0  0  0  0  0  0
  -25.9700  -38.0890   24.0430 H   0  0  0  0  0  0  0  0  0  0  0  0
  -26.4740  -31.5170   24.9800 C   0  0  1  0  0  0  0  0  0  0  0  0
  -25.4400  -31.2400   26.0990 C   0  0  0  0  0  1  0  0  0  0  0  0
  -27.0910  -30.1620   24.5770 C   0  0  0  0  0  1  0  0  0  0  0  0
  -27.6240  -32.3570   25.5860 C   0  0  0  0  0  1  0  0  0  0  0  0
  2  1  1  0
  3  5  2  0
  3  6  1  0
  4  1  2  0
  4 14  1  0
  5  4  1  0
  6  2  2  0
  7 10  1  0
  9 13  1  0
  9  7  1  0
 14 10  1  6
 11  8  1  0
 12  8  1  0
 13 23  1  0
 13  5  1  0
 14 11  1  0
 14 12  1  0
 15 21  1  0
 16 21  1  0
 17 18  1  0
 17 16  1  0
 19 18  1  0
 19 28  1  0
 19 20  1  0
 21 20  1  0
 22 15  2  0
 23 24  1  0
 23 15  1  0
 25 26  2  0
 26 45  1  0
 27 26  1  0
 27 30  1  0
 28 29  1  0
 28 25  1  0
 29 27  2  0
 30 31  1  0
 31 32  2  0
 33 36  1  0
 33 32  1  0
 34 33  2  0
 35 34  1  0
 35 30  2  0
 36 37  1  0
 37 42  2  0
 37 38  1  0
 38 39  2  0
 39 40  1  0
 40 44  1  0
 41 40  2  0
 42 41  1  0
 43 42  1  0
 45 46  1  0
 46 49  1  0
 46 48  1  0
 47 45  2  0
 50 25  1  0
 50 51  1  0
 52 50  1  0
 53 55  1  0
 53  6  1  0
 54 65  2  0
 55 60  1  0
 56 64  1  0
 56 66  1  0
 57 63  1  0
 57 59  1  0
 58 64  1  0
 59 58  1  0
 60 59  2  0
 61 62  1  0
 61 55  2  0
 62 57  2  0
 63 56  1  0
 64 54  1  0
 66 68  2  0
 67 66  1  0
 69 67  1  0
 70 75  1  0
 71 67  1  0
 72 71  1  0
 73 74  1  0
 73 72  1  0
 74 70  1  0
 75 71  1  0
 75 76  2  0
 77 76  1  0
 78 77  2  0
 79 70  2  0
 79 78  1  0
 80 54  1  0
 80 81  1  0
 80 90  1  0
 81 84  1  0
 82 86  1  0
 82 81  1  0
 83 82  2  0
 86 85  1  0
 88 86  1  0
 88 89  1  0
 88 87  1  0
 90 93  1  1
 90 91  1  0
 92 90  1  0
M  ISO  4   6 101  15 100  23 100  53 101
M  END
>  <TORSDO>  (5) 
F 16

>  <SCORE>  (5) 
-15.157

>  <name>  (5) 
4

>  <ligand_id>  (5) 
4

>  <original_smiles>  (5) 
[H]c1c([H])c([H])c2c(c1[H])C([H])([H])C([H])([H])C([H])([H])C2([H])N([H])C(=O)C1([H])N(C(=O)C([H])(N([H])C(=O)C([H])(N([H])C([H])([H])[H])C([H])([H])[H])C(C([H])([H])[H])(C([H])([H])[H])C([H])([H])[H])C([H])([H])c2c([H])c(Oc3c([H])c([H])c4c(c3[H])C([H])(N([H])C(=O)N3C([H])([H])C([H])([H])C([H])([H])C([H])(n5nc(-c6c([H])c([H])c(Oc7c([H])c([H])c(F)c([H])c7F)c([H])c6[H])c(C(=O)N([H])[H])c5N([H])[H])C3([H])[H])C([H])([H])C([H])([H])C([H])([H])C43C([H])([H])C([H])([H])C3([H])[H])c([H])c([H])c2C1([H])[H]

>  <smiles>  (5) 
[H]c1c([H])c([H])c2c(c1[H])C([H])([H])C([H])([H])C([H])([H])C2([H])N([H])C(=O)C1([H])N(C(=O)C([H])(N([H])C(=O)C([H])(N([H])C([H])([H])[H])C([H])([H])[H])C(C([H])([H])[H])(C([H])([H])[H])C([H])([H])[H])C([H])([H])c2c([H])c(Oc3c([H])c([H])c4c(c3[H])C([H])(N([H])C(=O)N3C([H])([H])C([H])([H])C([H])([H])C([H])(n5nc(-c6c([H])c([H])c(Oc7c([H])c([H])c(F)c([H])c7F)c([H])c6[H])c(C(=O)N([H])[H])c5N([H])[H])C3([H])[H])C([H])([H])C([H])([H])C([H])([H])C43C([H])([H])C([H])([H])C3([H])[H])c([H])c([H])c2C1([H])[H]

$$$$
5:0:0
     RDKit          3D

 88 97  0  0  1  0  0  0  0  0999 V2000
  -27.8710  -21.3560   20.9050 C   0  0  0  0  0  3  0  0  0  0  0  0
  -27.5840  -22.8700   20.8740 C   0  0  0  0  0  3  0  0  0  0  0  0
  -29.4200  -23.1840   19.6400 C   0  0  0  0  0  3  0  0  0  0  0  0
  -28.9870  -20.5800   20.2900 C   0  0  0  0  0  0  0  0  0  0  0  0
  -29.6990  -21.6760   19.6600 C   0  0  0  0  0  0  0  0  0  0  0  0
  -28.3180  -24.0150   20.2390 C   0  0  0  0  0  0  0  0  0  0  0  0
  -30.9090  -20.9910   19.0240 C   0  0  0  0  0  2  0  0  0  0  0  0
  -30.7980  -19.4010   19.1320 C   0  0  0  0  0  2  0  0  0  0  0  0
  -29.7940  -18.9330   20.2350 C   0  0  0  0  0  3  0  0  0  0  0  0
  -30.3100  -15.7860   20.1250 C   0  0  0  0  0  0  0  0  0  0  0  0
  -30.3960  -13.2470   19.2800 C   0  0  0  0  0  2  0  0  0  0  0  0
  -29.4760  -12.8510   18.0900 C   0  0  0  0  0  2  0  0  0  0  0  0
  -28.0710  -12.4750   18.5860 C   0  0  0  0  0  2  0  0  0  0  0  0
  -27.5840  -13.4540   19.6770 C   0  0  0  0  0  3  0  0  0  0  0  0
  -28.6440  -13.7800   20.7560 C   0  0  0  0  0  2  0  0  0  0  0  0
  -29.7860  -14.4180   20.0600 N   0  0  0  0  0  0  0  0  0  0  0  0
  -31.5390  -15.7180   19.9320 O   0  0  0  0  0  0  0  0  0  0  0  0
  -29.5610  -17.1600   20.2110 N   0  0  0  0  0  0  0  0  0  0  0  0
  -28.5750  -16.9650   20.3030 H   0  0  0  0  0  0  0  0  0  0  0  0
  -25.2490  -13.9430   20.5430 C   0  0  0  0  0  0  0  0  0  0  0  0
  -24.2100  -13.1440   20.9280 C   0  0  0  0  0  0  0  0  0  0  0  0
  -24.6900  -11.8000   20.8450 C   0  0  0  0  0  0  0  0  0  0  0  0
  -26.2910  -13.0890   20.2390 N   0  0  0  0  0  0  0  0  0  0  0  0
  -25.9730  -11.7900   20.4880 N   0  0  0  0  0  0  0  0  0  0  0  0
  -23.9800  -10.5280   21.0290 C   0  0  0  0  0  0  0  0  0  0  0  0
  -24.4270   -9.5550   21.9500 C   0  0  0  0  0  3  0  0  0  0  0  0
  -23.7110   -8.3520   22.1250 C   0  0  0  0  0  3  0  0  0  0  0  0
  -22.5330   -8.1090   21.3790 C   0  0  0  0  0  0  0  0  0  0  0  0
  -22.1040   -9.0710   20.4470 C   0  0  0  0  0  3  0  0  0  0  0  0
  -22.8220  -10.2670   20.2690 C   0  0  0  0  0  3  0  0  0  0  0  0
  -21.7880   -6.9580   21.4640 O   0  0  0  0  0  0  0  0  0  0  0  0
  -21.7250   -6.2260   22.6220 C   0  0  0  0  0  0  0  0  0  0  0  0
  -21.2340   -6.7760   23.8270 C   0  0  0  0  0  3  0  0  0  0  0  0
  -21.1180   -5.9680   24.9750 C   0  0  0  0  0  3  0  0  0  0  0  0
  -21.4860   -4.6100   24.9210 C   0  0  0  0  0  0  0  0  0  0  0  0
  -21.9720   -4.0590   23.7220 C   0  0  0  0  0  3  0  0  0  0  0  0
  -22.0880   -4.8640   22.5760 C   0  0  0  0  0  0  0  0  0  0  0  0
  -22.5370   -4.3230   21.4180 F   0  0  0  0  0  0  0  0  0  0  0  0
  -21.3690   -3.8310   26.0220 F   0  0  0  0  0  0  0  0  0  0  0  0
  -22.8190  -13.6010   21.2470 C   0  0  0  0  0  0  0  0  0  0  0  0
  -22.1250  -12.8850   22.1240 N   0  0  0  0  0  0  0  0  0  0  0  0
  -22.3570  -14.6310   20.7570 O   0  0  0  0  0  0  0  0  0  0  0  0
  -22.5150  -12.0540   22.5440 H   0  0  0  0  0  0  0  0  0  0  0  0
  -21.1910  -13.1720   22.3800 H   0  0  0  0  0  0  0  0  0  0  0  0
  -25.3880  -15.3200   20.3950 N   0  0  0  0  0  0  0  0  0  0  0  0
  -24.6110  -15.9550   20.5440 H   0  0  0  0  0  0  0  0  0  0  0  0
  -26.2120  -15.7770   20.0310 H   0  0  0  0  0  0  0  0  0  0  0  0
  -28.2150  -25.6390   20.2900 O   0  0  0  0  0  0  0  0  0  0  0  0
  -24.6800  -31.9210   23.2510 C   0  0  0  0  0  0  0  0  0  0  0  0
  -27.1930  -26.8140   20.2840 C   0  0  0  0  0  0  0  0  0  0  0  0
  -23.4870  -30.5190   21.6220 C   0  0  0  0  0  3  0  0  0  0  0  0
  -24.9270  -28.8550   20.2190 C   0  0  0  0  0  0  0  0  0  0  0  0
  -26.0650  -30.6510   21.4990 C   0  0  0  0  0  2  0  0  0  0  0  0
  -26.1220  -29.2110   20.8530 C   0  0  0  0  0  0  0  0  0  0  0  0
  -27.2360  -28.2180   20.8540 C   0  0  0  0  0  3  0  0  0  0  0  0
  -25.9670  -26.6720   19.5880 C   0  0  0  0  0  3  0  0  0  0  0  0
  -24.8880  -27.6100   19.5650 C   0  0  0  0  0  3  0  0  0  0  0  0
  -23.7230  -29.8100   20.2560 C   0  0  0  0  0  2  0  0  0  0  0  0
  -24.7680  -31.0650   22.1750 N   0  0  0  0  0  0  0  0  0  0  0  0
  -23.5890  -32.2260   23.7630 O   0  0  0  0  0  0  0  0  0  0  0  0
  -22.7700  -29.5480   22.5990 C   0  0  0  0  0  0  0  0  0  0  0  0
  -21.4400  -29.3850   22.4660 N   0  0  0  0  0  0  0  0  0  0  0  0
  -23.4230  -28.9370   23.4480 O   0  0  0  0  0  0  0  0  0  0  0  0
  -20.9600  -29.9300   21.7630 H   0  0  0  0  0  0  0  0  0  0  0  0
  -18.0550  -28.1580   22.9630 C   0  0  0  0  0  0  0  0  0  0  0  0
  -20.6110  -28.4530   23.2420 C   0  0  0  0  0  3  0  0  0  0  0  0
  -20.7270  -27.0130   22.6870 C   0  0  0  0  0  2  0  0  0  0  0  0
  -19.6380  -26.6700   21.6670 C   0  0  0  0  0  2  0  0  0  0  0  0
  -18.2500  -26.8060   22.3000 C   0  0  0  0  0  2  0  0  0  0  0  0
  -19.1620  -28.9390   23.3910 C   0  0  0  0  0  0  0  0  0  0  0  0
  -18.9220  -30.2000   23.9780 C   0  0  0  0  0  3  0  0  0  0  0  0
  -17.6090  -30.6830   24.1390 C   0  0  0  0  0  3  0  0  0  0  0  0
  -16.5170  -29.9010   23.7240 C   0  0  0  0  0  3  0  0  0  0  0  0
  -16.7410  -28.6410   23.1420 C   0  0  0  0  0  3  0  0  0  0  0  0
  -25.9460  -32.5710   23.8890 C   0  0  0  0  0  3  0  0  0  0  0  0
  -25.6270  -33.9750   24.2180 N   0  0  0  0  0  0  0  0  0  0  0  0
  -25.9360  -35.0370   23.4600 C   0  0  0  0  0  0  0  0  0  0  0  0
  -26.5750  -34.9370   22.4110 O   0  0  0  0  0  0  0  0  0  0  0  0
  -25.0530  -34.1250   25.0340 H   0  0  0  0  0  0  0  0  0  0  0  0
  -24.1820  -36.8280   23.1890 C   0  0  0  0  0  1  0  0  0  0  0  0
  -25.4630  -36.4260   23.9380 C   0  0  0  0  0  3  0  0  0  0  0  0
  -27.6250  -37.3380   24.6700 C   0  0  0  0  0  1  0  0  0  0  0  0
  -26.4810  -37.4880   23.7750 N   0  0  0  0  0  0  0  0  0  0  0  0
  -26.0740  -38.4060   23.9330 H   0  0  0  0  0  0  0  0  0  0  0  0
  -26.4390  -31.8190   25.1880 C   0  0  1  0  0  0  0  0  0  0  0  0
  -25.3290  -31.6040   26.2450 C   0  0  0  0  0  1  0  0  0  0  0  0
  -27.0220  -30.4330   24.8390 C   0  0  0  0  0  1  0  0  0  0  0  0
  -27.5830  -32.6200   25.8550 C   0  0  0  0  0  1  0  0  0  0  0  0
  2  1  1  0
  3  5  2  0
  3  6  1  0
  4  1  2  0
  5  4  1  0
  6 48  1  0
  6  2  2  0
  7  8  1  0
  7  5  1  0
  8  9  1  0
  9 18  1  0
  9  4  1  0
 10 18  1  0
 11 16  1  0
 12 13  1  0
 12 11  1  0
 14 13  1  0
 14 23  1  0
 14 15  1  0
 16 10  1  0
 16 15  1  0
 17 10  2  0
 18 19  1  0
 20 21  2  0
 21 40  1  0
 22 21  1  0
 22 25  1  0
 23 24  1  0
 23 20  1  0
 24 22  2  0
 25 26  1  0
 26 27  2  0
 28 31  1  0
 28 27  1  0
 29 28  2  0
 30 29  1  0
 30 25  2  0
 31 32  1  0
 32 33  1  0
 33 34  2  0
 35 34  1  0
 35 39  1  0
 36 35  2  0
 37 32  2  0
 37 36  1  0
 38 37  1  0
 40 41  1  0
 41 44  1  0
 41 43  1  0
 42 40  2  0
 45 20  1  0
 45 46  1  0
 47 45  1  0
 49 60  2  0
 50 48  1  0
 50 55  1  0
 51 59  1  0
 51 61  1  0
 52 58  1  0
 52 54  1  0
 53 59  1  0
 54 55  2  0
 54 53  1  0
 56 50  2  0
 57 56  1  0
 57 52  2  0
 58 51  1  0
 59 49  1  0
 61 63  2  0
 62 61  1  0
 64 62  1  0
 65 74  2  0
 65 70  1  0
 66 62  1  0
 66 70  1  0
 67 66  1  0
 68 69  1  0
 68 67  1  0
 69 65  1  0
 70 71  2  0
 71 72  1  0
 73 72  2  0
 74 73  1  0
 75 49  1  0
 75 76  1  0
 75 85  1  0
 76 79  1  0
 77 81  1  0
 77 76  1  0
 78 77  2  0
 81 80  1  0
 83 84  1  0
 83 81  1  0
 83 82  1  0
 85 88  1  1
 85 86  1  0
 87 85  1  0
M  ISO  4   6 101  10 100  18 100  48 101
M  END
>  <TORSDO>  (6) 
F 16

>  <SCORE>  (6) 
-15.798

>  <name>  (6) 
5

>  <ligand_id>  (6) 
5

>  <original_smiles>  (6) 
[H]c1c([H])c([H])c2c(c1[H])C([H])([H])C([H])([H])C([H])([H])C2([H])N([H])C(=O)C1([H])N(C(=O)C([H])(N([H])C(=O)C([H])(N([H])C([H])([H])[H])C([H])([H])[H])C(C([H])([H])[H])(C([H])([H])[H])C([H])([H])[H])C([H])([H])c2c([H])c(Oc3c([H])c([H])c4c(c3[H])C([H])([H])C([H])([H])C4([H])N([H])C(=O)N3C([H])([H])C([H])([H])C([H])([H])C([H])(n4nc(-c5c([H])c([H])c(Oc6c([H])c([H])c(F)c([H])c6F)c([H])c5[H])c(C(=O)N([H])[H])c4N([H])[H])C3([H])[H])c([H])c([H])c2C1([H])[H]

>  <smiles>  (6) 
[H]c1c([H])c([H])c2c(c1[H])C([H])([H])C([H])([H])C([H])([H])C2([H])N([H])C(=O)C1([H])N(C(=O)C([H])(N([H])C(=O)C([H])(N([H])C([H])([H])[H])C([H])([H])[H])C(C([H])([H])[H])(C([H])([H])[H])C([H])([H])[H])C([H])([H])c2c([H])c(Oc3c([H])c([H])c4c(c3[H])C([H])([H])C([H])([H])C4([H])N([H])C(=O)N3C([H])([H])C([H])([H])C([H])([H])C([H])(n4nc(-c5c([H])c([H])c(Oc6c([H])c([H])c(F)c([H])c6F)c([H])c5[H])c(C(=O)N([H])[H])c4N([H])[H])C3([H])[H])c([H])c([H])c2C1([H])[H]

$$$$
6:0:0
     RDKit          3D

 94103  0  0  1  0  0  0  0  0999 V2000
  -27.9220  -21.1080   20.3480 C   0  0  0  0  0  3  0  0  0  0  0  0
  -30.4430  -20.2470   19.8230 C   0  0  0  0  0  3  0  0  0  0  0  0
  -28.3230  -19.6450   20.2930 C   0  0  0  0  0  0  0  0  0  0  0  0
  -29.6120  -19.0410   20.0530 C   0  0  0  0  0  0  0  0  0  0  0  0
  -30.0480  -21.7270   19.8450 C   0  0  0  0  0  0  0  0  0  0  0  0
  -28.7210  -22.3430   20.1200 C   0  0  0  0  0  0  0  0  0  0  0  0
  -28.1280  -17.1120   20.1630 C   0  0  0  0  0  2  0  0  0  0  0  0
  -27.3360  -18.4830   20.3330 C   0  0  0  0  0  3  0  0  0  0  0  0
  -29.6190  -17.2660   19.7320 C   0  0  1  0  0  0  0  0  0  0  0  0
  -29.6940  -17.2850   18.1870 C   0  0  0  0  0  1  0  0  0  0  0  0
  -30.5100  -15.6590   20.0170 C   0  0  0  0  0  0  0  0  0  0  0  0
  -30.6150  -13.1060   19.2900 C   0  0  0  0  0  2  0  0  0  0  0  0
  -29.6890  -12.7270   18.0960 C   0  0  0  0  0  2  0  0  0  0  0  0
  -28.2610  -12.4050   18.5710 C   0  0  0  0  0  2  0  0  0  0  0  0
  -27.7750  -13.4110   19.6370 C   0  0  0  0  0  3  0  0  0  0  0  0
  -28.8350  -13.6960   20.7230 C   0  0  0  0  0  2  0  0  0  0  0  0
  -30.0210  -14.2830   20.0520 N   0  0  0  0  0  0  0  0  0  0  0  0
  -31.7460  -15.6170   19.8850 O   0  0  0  0  0  0  0  0  0  0  0  0
  -25.4270  -13.9380   20.4780 C   0  0  0  0  0  0  0  0  0  0  0  0
  -24.3750  -13.1590   20.8520 C   0  0  0  0  0  0  0  0  0  0  0  0
  -24.8430  -11.8110   20.7900 C   0  0  0  0  0  0  0  0  0  0  0  0
  -26.4670  -13.0740   20.1880 N   0  0  0  0  0  0  0  0  0  0  0  0
  -26.1270  -11.7830   20.4440 N   0  0  0  0  0  0  0  0  0  0  0  0
  -24.1150  -10.5530   20.9790 C   0  0  0  0  0  0  0  0  0  0  0  0
  -24.5360   -9.5880   21.9200 C   0  0  0  0  0  3  0  0  0  0  0  0
  -23.7990   -8.3970   22.0970 C   0  0  0  0  0  3  0  0  0  0  0  0
  -22.6290   -8.1650   21.3350 C   0  0  0  0  0  0  0  0  0  0  0  0
  -22.2270   -9.1200   20.3860 C   0  0  0  0  0  3  0  0  0  0  0  0
  -22.9630  -10.3020   20.2060 C   0  0  0  0  0  3  0  0  0  0  0  0
  -21.8640   -7.0270   21.4250 O   0  0  0  0  0  0  0  0  0  0  0  0
  -21.7710   -6.3110   22.5920 C   0  0  0  0  0  0  0  0  0  0  0  0
  -21.2840   -6.8910   23.7830 C   0  0  0  0  0  3  0  0  0  0  0  0
  -21.1390   -6.1030   24.9430 C   0  0  0  0  0  3  0  0  0  0  0  0
  -21.4710   -4.7360   24.9120 C   0  0  0  0  0  0  0  0  0  0  0  0
  -21.9540   -4.1560   23.7260 C   0  0  0  0  0  3  0  0  0  0  0  0
  -22.1020   -4.9410   22.5690 C   0  0  0  0  0  0  0  0  0  0  0  0
  -22.5480   -4.3730   21.4230 F   0  0  0  0  0  0  0  0  0  0  0  0
  -21.3260   -3.9780   26.0220 F   0  0  0  0  0  0  0  0  0  0  0  0
  -22.9900  -13.6420   21.1620 C   0  0  0  0  0  0  0  0  0  0  0  0
  -22.2760  -12.9490   22.0410 N   0  0  0  0  0  0  0  0  0  0  0  0
  -22.5520  -14.6790   20.6640 O   0  0  0  0  0  0  0  0  0  0  0  0
  -22.6440  -12.1110   22.4680 H   0  0  0  0  0  0  0  0  0  0  0  0
  -21.3510  -13.2630   22.2950 H   0  0  0  0  0  0  0  0  0  0  0  0
  -25.5650  -15.3130   20.3470 N   0  0  0  0  0  0  0  0  0  0  0  0
  -24.8410  -15.8950   20.7520 H   0  0  0  0  0  0  0  0  0  0  0  0
  -26.4850  -15.7190   20.3670 H   0  0  0  0  0  0  0  0  0  0  0  0
  -26.3220  -18.6560   19.2740 N   0  0  0  0  0  4  0  0  0  0  0  0
  -26.7510  -18.7280   18.3680 H   0  0  0  0  0  0  0  0  0  0  0  0
  -25.7980  -19.4960   19.4290 H   0  0  0  0  0  0  0  0  0  0  0  0
  -25.6640  -17.8950   19.2610 H   0  0  0  0  0  0  0  0  0  0  0  0
  -31.9610  -23.1870   20.6620 C   0  0  0  0  0  1  0  0  0  0  0  0
  -31.1470  -22.7010   19.4550 C   0  0  0  0  0  2  0  0  0  0  0  0
  -28.0340  -24.0290   19.8660 C   0  0  0  0  0  2  0  0  0  0  0  0
  -28.2410  -25.6720   20.3030 O   0  0  0  0  0  0  0  0  0  0  0  0
  -24.6490  -31.8250   23.1920 C   0  0  0  0  0  0  0  0  0  0  0  0
  -27.2640  -26.8500   20.2040 C   0  0  0  0  0  0  0  0  0  0  0  0
  -23.4880  -30.4220   21.5370 C   0  0  0  0  0  3  0  0  0  0  0  0
  -24.9680  -28.8100   20.1270 C   0  0  0  0  0  0  0  0  0  0  0  0
  -26.0620  -30.6070   21.4420 C   0  0  0  0  0  2  0  0  0  0  0  0
  -26.1480  -29.1890   20.7780 C   0  0  0  0  0  0  0  0  0  0  0  0
  -27.2800  -28.2300   20.7960 C   0  0  0  0  0  3  0  0  0  0  0  0
  -26.0490  -26.6610   19.4950 C   0  0  0  0  0  3  0  0  0  0  0  0
  -24.9520  -27.5690   19.4650 C   0  0  0  0  0  3  0  0  0  0  0  0
  -23.7470  -29.7390   20.1640 C   0  0  0  0  0  2  0  0  0  0  0  0
  -24.7550  -30.9820   22.1090 N   0  0  0  0  0  0  0  0  0  0  0  0
  -23.5480  -32.1150   23.6900 O   0  0  0  0  0  0  0  0  0  0  0  0
  -22.7770  -29.4290   22.4940 C   0  0  0  0  0  0  0  0  0  0  0  0
  -21.4500  -29.2460   22.3380 N   0  0  0  0  0  0  0  0  0  0  0  0
  -23.4280  -28.8230   23.3490 O   0  0  0  0  0  0  0  0  0  0  0  0
  -20.9770  -29.7890   21.6290 H   0  0  0  0  0  0  0  0  0  0  0  0
  -18.0790  -27.9650   22.7690 C   0  0  0  0  0  0  0  0  0  0  0  0
  -20.6230  -28.3000   23.0980 C   0  0  0  0  0  3  0  0  0  0  0  0
  -20.7760  -26.8620   22.5480 C   0  0  0  0  0  2  0  0  0  0  0  0
  -19.7130  -26.5010   21.5060 C   0  0  0  0  0  2  0  0  0  0  0  0
  -18.3090  -26.6160   22.1070 C   0  0  0  0  0  2  0  0  0  0  0  0
  -19.1660  -28.7630   23.2170 C   0  0  0  0  0  0  0  0  0  0  0  0
  -18.8950  -30.0210   23.7970 C   0  0  0  0  0  3  0  0  0  0  0  0
  -17.5720  -30.4840   23.9310 C   0  0  0  0  0  3  0  0  0  0  0  0
  -16.5000  -29.6870   23.4950 C   0  0  0  0  0  3  0  0  0  0  0  0
  -16.7540  -28.4280   22.9200 C   0  0  0  0  0  3  0  0  0  0  0  0
  -25.9030  -32.4790   23.8460 C   0  0  0  0  0  3  0  0  0  0  0  0
  -26.3820  -31.7320   25.1520 C   0  0  1  0  0  0  0  0  0  0  0  0
  -25.2560  -31.5150   26.1910 C   0  0  0  0  0  1  0  0  0  0  0  0
  -26.9770  -30.3460   24.8140 C   0  0  0  0  0  1  0  0  0  0  0  0
  -27.5140  -32.5390   25.8300 C   0  0  0  0  0  1  0  0  0  0  0  0
  -25.5760  -33.8840   24.1610 N   0  0  0  0  0  0  0  0  0  0  0  0
  -25.9090  -34.9410   23.4080 C   0  0  0  0  0  0  0  0  0  0  0  0
  -26.5860  -34.8390   22.3830 O   0  0  0  0  0  0  0  0  0  0  0  0
  -24.9740  -34.0370   24.9560 H   0  0  0  0  0  0  0  0  0  0  0  0
  -24.1730  -36.7340   23.0620 C   0  0  0  0  0  1  0  0  0  0  0  0
  -25.4210  -36.3310   23.8640 C   0  0  0  0  0  3  0  0  0  0  0  0
  -27.5520  -37.2370   24.6850 C   0  0  0  0  0  1  0  0  0  0  0  0
  -26.4480  -37.3880   23.7410 N   0  0  0  0  0  0  0  0  0  0  0  0
  -26.0380  -38.3080   23.8810 H   0  0  0  0  0  0  0  0  0  0  0  0
  2  5  2  0
  2  4  1  0
  3  8  1  0
  3  1  1  0
  4  3  2  0
  5  6  1  0
  6  1  2  0
  7  8  1  0
  8 47  1  0
  9 10  1  6
  9 11  1  0
  9  4  1  0
  9  7  1  0
 11 17  1  0
 12 17  1  0
 13 14  1  0
 13 12  1  0
 15 14  1  0
 15 22  1  0
 15 16  1  0
 17 16  1  0
 18 11  2  0
 19 20  2  0
 20 39  1  0
 21 20  1  0
 21 24  1  0
 22 23  1  0
 22 19  1  0
 23 21  2  0
 24 25  1  0
 25 26  2  0
 27 30  1  0
 27 26  1  0
 28 27  2  0
 29 28  1  0
 29 24  2  0
 30 31  1  0
 31 32  1  0
 32 33  2  0
 34 33  1  0
 34 38  1  0
 35 34  2  0
 36 31  2  0
 36 35  1  0
 37 36  1  0
 39 40  1  0
 40 43  1  0
 40 42  1  0
 41 39  2  0
 44 46  1  0
 44 19  1  0
 44 45  1  0
 47 49  1  0
 48 47  1  0
 50 47  1  0
 52  5  1  0
 52 51  1  0
 53  6  1  0
 53 54  1  0
 55 66  2  0
 56 54  1  0
 56 61  1  0
 57 65  1  0
 57 67  1  0
 58 64  1  0
 58 60  1  0
 59 65  1  0
 60 61  2  0
 60 59  1  0
 62 56  2  0
 63 62  1  0
 63 58  2  0
 64 57  1  0
 65 55  1  0
 67 69  2  0
 68 67  1  0
 70 68  1  0
 71 80  2  0
 71 76  1  0
 72 68  1  0
 72 76  1  0
 73 72  1  0
 74 75  1  0
 74 73  1  0
 75 71  1  0
 76 77  2  0
 77 78  1  0
 79 78  2  0
 80 79  1  0
 81 55  1  0
 81 86  1  0
 81 82  1  0
 82 85  1  1
 82 83  1  0
 84 82  1  0
 86 89  1  0
 87 91  1  0
 87 86  1  0
 88 87  2  0
 91 90  1  0
 93 91  1  0
 93 94  1  0
 93 92  1  0
M  ISO  4   9 100  11 100  53 101  54 101
M  END
>  <TORSDO>  (7) 
F 19

>  <SCORE>  (7) 
-15.595

>  <name>  (7) 
6

>  <ligand_id>  (7) 
6

>  <original_smiles>  (7) 
[H]c1c([H])c([H])c2c(c1[H])C([H])([H])C([H])([H])C([H])([H])C2([H])N([H])C(=O)C1([H])N(C(=O)C([H])(N([H])C(=O)C([H])(N([H])C([H])([H])[H])C([H])([H])[H])C(C([H])([H])[H])(C([H])([H])[H])C([H])([H])[H])C([H])([H])c2c([H])c(OC([H])([H])c3c([H])c4c(c([H])c3C([H])([H])C([H])([H])[H])C(C(=O)N3C([H])([H])C([H])([H])C([H])([H])C([H])(n5nc(-c6c([H])c([H])c(Oc7c([H])c([H])c(F)c([H])c7F)c([H])c6[H])c(C(=O)N([H])[H])c5N([H])[H])C3([H])[H])(C([H])([H])[H])C([H])([H])C4([H])[N+]([H])([H])[H])c([H])c([H])c2C1([H])[H]

>  <smiles>  (7) 
[H]c1c([H])c([H])c2c(c1[H])C([H])([H])C([H])([H])C([H])([H])C2([H])N([H])C(=O)C1([H])N(C(=O)C([H])(N([H])C(=O)C([H])(N([H])C([H])([H])[H])C([H])([H])[H])C(C([H])([H])[H])(C([H])([H])[H])C([H])([H])[H])C([H])([H])c2c([H])c(OC([H])([H])c3c([H])c4c(c([H])c3C([H])([H])C([H])([H])[H])C(C(=O)N3C([H])([H])C([H])([H])C([H])([H])C([H])(n5nc(-c6c([H])c([H])c(Oc7c([H])c([H])c(F)c([H])c7F)c([H])c6[H])c(C(=O)N([H])[H])c5N([H])[H])C3([H])[H])(C([H])([H])[H])C([H])([H])C4([H])[N+]([H])([H])[H])c([H])c([H])c2C1([H])[H]

$$$$
7:0:0
     RDKit          3D

 89 98  0  0  1  0  0  0  0  0999 V2000
  -27.0360  -24.3060   22.6860 C   0  0  0  0  0  3  0  0  0  0  0  0
  -27.4460  -22.9920   22.4680 C   0  0  0  0  0  3  0  0  0  0  0  0
  -27.3880  -25.3110   21.7850 C   0  0  0  0  0  3  0  0  0  0  0  0
  -28.6680  -21.2200   21.1350 C   0  0  0  0  0  3  0  0  0  0  0  0
  -28.2230  -22.6110   21.3630 C   0  0  0  0  0  0  0  0  0  0  0  0
  -28.1280  -25.0840   20.5950 C   0  0  0  0  0  0  0  0  0  0  0  0
  -28.5850  -23.6470   20.3920 C   0  0  0  0  0  0  0  0  0  0  0  0
  -29.3760  -20.9820   19.9850 C   0  0  0  0  0  0  0  0  0  0  0  0
  -29.5530  -22.6270   19.1800 S   0  0  0  0  0  0  0  0  0  0  0  0
  -28.2910  -26.3500   19.8670 O   0  0  0  0  0  0  0  0  0  0  0  0
  -24.6040  -31.8540   23.1570 C   0  0  0  0  0  0  0  0  0  0  0  0
  -27.2610  -27.3630   19.8670 C   0  0  0  0  0  0  0  0  0  0  0  0
  -23.4220  -30.5220   21.4500 C   0  0  0  0  0  3  0  0  0  0  0  0
  -24.9000  -29.0500   19.9390 C   0  0  0  0  0  0  0  0  0  0  0  0
  -25.9730  -30.8370   21.3000 C   0  0  0  0  0  2  0  0  0  0  0  0
  -26.0730  -29.4870   20.5740 C   0  0  0  0  0  0  0  0  0  0  0  0
  -27.2530  -28.6580   20.5270 C   0  0  0  0  0  3  0  0  0  0  0  0
  -26.0650  -27.0300   19.1960 C   0  0  0  0  0  3  0  0  0  0  0  0
  -24.9060  -27.8350   19.2360 C   0  0  0  0  0  3  0  0  0  0  0  0
  -23.6550  -29.9200   20.0370 C   0  0  0  0  0  2  0  0  0  0  0  0
  -24.6840  -31.0920   22.0250 N   0  0  0  0  0  0  0  0  0  0  0  0
  -23.5130  -32.0950   23.6990 O   0  0  0  0  0  0  0  0  0  0  0  0
  -22.7540  -29.4600   22.3610 C   0  0  0  0  0  0  0  0  0  0  0  0
  -21.4320  -29.2620   22.2070 N   0  0  0  0  0  0  0  0  0  0  0  0
  -23.4310  -28.8210   23.1720 O   0  0  0  0  0  0  0  0  0  0  0  0
  -20.9540  -29.7940   21.4930 H   0  0  0  0  0  0  0  0  0  0  0  0
  -18.0680  -28.0030   22.6890 C   0  0  0  0  0  0  0  0  0  0  0  0
  -20.6220  -28.2940   22.9550 C   0  0  0  0  0  3  0  0  0  0  0  0
  -20.7300  -26.8760   22.3530 C   0  0  0  0  0  2  0  0  0  0  0  0
  -19.6470  -26.5690   21.3160 C   0  0  0  0  0  2  0  0  0  0  0  0
  -18.2590  -26.6910   21.9490 C   0  0  0  0  0  2  0  0  0  0  0  0
  -19.1770  -28.7610   23.1490 C   0  0  0  0  0  0  0  0  0  0  0  0
  -18.9410  -29.9920   23.8000 C   0  0  0  0  0  3  0  0  0  0  0  0
  -17.6250  -30.4580   24.0020 C   0  0  0  0  0  3  0  0  0  0  0  0
  -16.5350  -29.6970   23.5500 C   0  0  0  0  0  3  0  0  0  0  0  0
  -16.7560  -28.4710   22.9000 C   0  0  0  0  0  3  0  0  0  0  0  0
  -25.8700  -32.4800   23.8130 C   0  0  0  0  0  3  0  0  0  0  0  0
  -26.3650  -31.6930   25.0870 C   0  0  1  0  0  0  0  0  0  0  0  0
  -25.2480  -31.4150   26.1190 C   0  0  0  0  0  1  0  0  0  0  0  0
  -26.9830  -30.3340   24.6900 C   0  0  0  0  0  1  0  0  0  0  0  0
  -27.4850  -32.4930   25.7940 C   0  0  0  0  0  1  0  0  0  0  0  0
  -25.5540  -33.8750   24.1650 N   0  0  0  0  0  0  0  0  0  0  0  0
  -25.9110  -34.9460   23.4440 C   0  0  0  0  0  0  0  0  0  0  0  0
  -26.6070  -34.8650   22.4280 O   0  0  0  0  0  0  0  0  0  0  0  0
  -24.9340  -34.0130   24.9480 H   0  0  0  0  0  0  0  0  0  0  0  0
  -24.2070  -36.7630   23.0910 C   0  0  0  0  0  1  0  0  0  0  0  0
  -25.4220  -36.3260   23.9240 C   0  0  0  0  0  3  0  0  0  0  0  0
  -27.5380  -37.1760   24.8400 C   0  0  0  0  0  1  0  0  0  0  0  0
  -26.4660  -37.3750   23.8680 N   0  0  0  0  0  0  0  0  0  0  0  0
  -26.0630  -38.2940   24.0230 H   0  0  0  0  0  0  0  0  0  0  0  0
  -29.7500  -19.5010   19.4060 C   0  0  0  0  0  2  0  0  0  0  0  0
  -30.4720  -18.1940   20.1760 C   0  0  0  0  0  2  0  0  0  0  0  0
  -30.0100  -16.5950   19.9400 C   0  0  0  0  0  2  0  0  0  0  0  0
  -30.9090  -15.2090   19.9990 C   0  0  0  0  0  0  0  0  0  0  0  0
  -30.7980  -12.8270   19.1760 C   0  0  0  0  0  2  0  0  0  0  0  0
  -29.8280  -12.7600   17.9730 C   0  0  0  0  0  2  0  0  0  0  0  0
  -28.3670  -12.5820   18.4370 C   0  0  0  0  0  2  0  0  0  0  0  0
  -27.9880  -13.5390   19.5960 C   0  0  0  0  0  3  0  0  0  0  0  0
  -29.0740  -13.5590   20.6930 C   0  0  0  0  0  2  0  0  0  0  0  0
  -30.3480  -13.9360   20.0600 N   0  0  0  0  0  0  0  0  0  0  0  0
  -32.1130  -15.2780   19.7400 O   0  0  0  0  0  0  0  0  0  0  0  0
  -25.6380  -14.1570   20.4070 C   0  0  0  0  0  0  0  0  0  0  0  0
  -24.5640  -13.4020   20.7910 C   0  0  0  0  0  0  0  0  0  0  0  0
  -24.9970  -12.0400   20.7250 C   0  0  0  0  0  0  0  0  0  0  0  0
  -26.6540  -13.2620   20.1240 N   0  0  0  0  0  0  0  0  0  0  0  0
  -26.2810  -11.9800   20.3840 N   0  0  0  0  0  0  0  0  0  0  0  0
  -24.2420  -10.7920   20.9110 C   0  0  0  0  0  0  0  0  0  0  0  0
  -24.6290   -9.8350   21.8760 C   0  0  0  0  0  3  0  0  0  0  0  0
  -23.8810   -8.6510   22.0490 C   0  0  0  0  0  3  0  0  0  0  0  0
  -22.7290   -8.4160   21.2600 C   0  0  0  0  0  0  0  0  0  0  0  0
  -22.3570   -9.3650   20.2890 C   0  0  0  0  0  3  0  0  0  0  0  0
  -23.1070  -10.5410   20.1150 C   0  0  0  0  0  3  0  0  0  0  0  0
  -21.9550   -7.2850   21.3410 O   0  0  0  0  0  0  0  0  0  0  0  0
  -21.7980   -6.6040   22.5220 C   0  0  0  0  0  0  0  0  0  0  0  0
  -21.2590   -7.2220   23.6730 C   0  0  0  0  0  3  0  0  0  0  0  0
  -21.0490   -6.4670   24.8430 C   0  0  0  0  0  3  0  0  0  0  0  0
  -21.3660   -5.0960   24.8670 C   0  0  0  0  0  0  0  0  0  0  0  0
  -21.9010   -4.4790   23.7210 C   0  0  0  0  0  3  0  0  0  0  0  0
  -22.1110   -5.2310   22.5520 C   0  0  0  0  0  0  0  0  0  0  0  0
  -22.6040   -4.6250   21.4440 F   0  0  0  0  0  0  0  0  0  0  0  0
  -21.1610   -4.3690   25.9900 F   0  0  0  0  0  0  0  0  0  0  0  0
  -23.1840  -13.9060   21.1050 C   0  0  0  0  0  0  0  0  0  0  0  0
  -22.4640  -13.2240   21.9880 N   0  0  0  0  0  0  0  0  0  0  0  0
  -22.7520  -14.9410   20.5990 O   0  0  0  0  0  0  0  0  0  0  0  0
  -22.8270  -12.3870   22.4160 H   0  0  0  0  0  0  0  0  0  0  0  0
  -21.5410  -13.5470   22.2380 H   0  0  0  0  0  0  0  0  0  0  0  0
  -25.8270  -15.5290   20.2530 N   0  0  0  0  0  0  0  0  0  0  0  0
  -25.0780  -16.1970   20.4040 H   0  0  0  0  0  0  0  0  0  0  0  0
  -26.6810  -15.9520   19.9150 H   0  0  0  0  0  0  0  0  0  0  0  0
  2  1  1  0
  3  1  2  0
  4  5  1  0
  5  2  2  0
  6  3  1  0
  7  6  2  0
  7  5  1  0
  8  4  2  0
  9  8  1  0
  9  7  1  0
 10 12  1  0
 10  6  1  0
 11 22  2  0
 12 17  1  0
 13 21  1  0
 13 23  1  0
 14 20  1  0
 14 16  1  0
 15 21  1  0
 16 15  1  0
 17 16  2  0
 18 19  1  0
 18 12  2  0
 19 14  2  0
 20 13  1  0
 21 11  1  0
 23 25  2  0
 24 23  1  0
 26 24  1  0
 27 36  2  0
 27 32  1  0
 28 24  1  0
 28 32  1  0
 29 28  1  0
 30 31  1  0
 30 29  1  0
 31 27  1  0
 32 33  2  0
 33 34  1  0
 35 34  2  0
 36 35  1  0
 37 11  1  0
 37 42  1  0
 37 38  1  0
 38 41  1  1
 38 39  1  0
 40 38  1  0
 42 45  1  0
 43 47  1  0
 43 42  1  0
 44 43  2  0
 47 46  1  0
 49 47  1  0
 49 50  1  0
 49 48  1  0
 51  8  1  0
 51 52  1  0
 53 54  1  0
 53 52  1  0
 54 60  1  0
 55 60  1  0
 56 57  1  0
 56 55  1  0
 58 57  1  0
 58 65  1  0
 58 59  1  0
 60 59  1  0
 61 54  2  0
 62 63  2  0
 63 82  1  0
 64 63  1  0
 64 67  1  0
 65 66  1  0
 65 62  1  0
 66 64  2  0
 67 68  1  0
 68 69  2  0
 70 73  1  0
 70 69  1  0
 71 70  2  0
 72 71  1  0
 72 67  2  0
 73 74  1  0
 74 79  2  0
 74 75  1  0
 75 76  2  0
 76 77  1  0
 77 81  1  0
 78 77  2  0
 79 78  1  0
 80 79  1  0
 82 83  1  0
 83 86  1  0
 83 85  1  0
 84 82  2  0
 87 88  1  0
 87 62  1  0
 89 87  1  0
M  ISO  4   6 101  10 101  53 100  54 100
M  END
>  <TORSDO>  (8) 
F 19

>  <SCORE>  (8) 
-12.686

>  <name>  (8) 
7

>  <ligand_id>  (8) 
7

>  <original_smiles>  (8) 
[H]c1c([H])c([H])c2c(c1[H])C([H])([H])C([H])([H])C([H])([H])C2([H])N([H])C(=O)C1([H])N(C(=O)C([H])(N([H])C(=O)C([H])(N([H])C([H])([H])[H])C([H])([H])[H])C(C([H])([H])[H])(C([H])([H])[H])C([H])([H])[H])C([H])([H])c2c([H])c(Oc3c([H])c([H])c([H])c4c([H])c(C([H])([H])C([H])([H])C([H])([H])C(=O)N5C([H])([H])C([H])([H])C([H])([H])C([H])(n6nc(-c7c([H])c([H])c(Oc8c([H])c([H])c(F)c([H])c8F)c([H])c7[H])c(C(=O)N([H])[H])c6N([H])[H])C5([H])[H])sc34)c([H])c([H])c2C1([H])[H]

>  <smiles>  (8) 
[H]c1c([H])c([H])c2c(c1[H])C([H])([H])C([H])([H])C([H])([H])C2([H])N([H])C(=O)C1([H])N(C(=O)C([H])(N([H])C(=O)C([H])(N([H])C([H])([H])[H])C([H])([H])[H])C(C([H])([H])[H])(C([H])([H])[H])C([H])([H])[H])C([H])([H])c2c([H])c(Oc3c([H])c([H])c([H])c4c([H])c(C([H])([H])C([H])([H])C([H])([H])C(=O)N5C([H])([H])C([H])([H])C([H])([H])C([H])(n6nc(-c7c([H])c([H])c(Oc8c([H])c([H])c(F)c([H])c8F)c([H])c7[H])c(C(=O)N([H])[H])c6N([H])[H])C5([H])[H])sc34)c([H])c([H])c2C1([H])[H]

$$$$
8:0:0
     RDKit          3D

 88 97  0  0  1  0  0  0  0  0999 V2000
  -27.2940  -22.1680   21.1130 C   0  0  0  0  0  3  0  0  0  0  0  0
  -27.3060  -23.4990   20.5690 C   0  0  0  0  0  3  0  0  0  0  0  0
  -28.9500  -22.5850   19.0740 C   0  0  0  0  0  3  0  0  0  0  0  0
  -28.0770  -21.0500   20.6710 C   0  0  0  0  0  0  0  0  0  0  0  0
  -28.9380  -21.0240   19.5690 C   0  0  0  0  0  0  0  0  0  0  0  0
  -28.1500  -23.9480   19.5210 C   0  0  0  0  0  0  0  0  0  0  0  0
  -28.2550  -19.7960   21.4750 C   0  0  0  0  0  2  0  0  0  0  0  0
  -29.6410  -19.2410   21.0540 C   0  0  0  0  0  2  0  0  0  0  0  0
  -29.8000  -19.2990   19.4980 C   0  0  0  0  0  3  0  0  0  0  0  0
  -30.5790  -16.0850   19.4330 C   0  0  0  0  0  0  0  0  0  0  0  0
  -30.7480  -13.4640   18.7790 C   0  0  0  0  0  2  0  0  0  0  0  0
  -29.7970  -12.8630   17.7010 C   0  0  0  0  0  2  0  0  0  0  0  0
  -28.4420  -12.4730   18.3070 C   0  0  0  0  0  2  0  0  0  0  0  0
  -27.9540  -13.5460   19.3050 C   0  0  0  0  0  3  0  0  0  0  0  0
  -29.0460  -14.0340   20.2880 C   0  0  0  0  0  2  0  0  0  0  0  0
  -30.1050  -14.6850   19.4710 N   0  0  0  0  0  0  0  0  0  0  0  0
  -31.8140  -16.0190   19.2530 O   0  0  0  0  0  0  0  0  0  0  0  0
  -29.7790  -17.4630   19.4070 N   0  0  0  0  0  0  0  0  0  0  0  0
  -28.8060  -17.1900   19.3930 H   0  0  0  0  0  0  0  0  0  0  0  0
  -25.7180  -14.0680   20.3790 C   0  0  0  0  0  0  0  0  0  0  0  0
  -24.6850  -13.2890   20.8130 C   0  0  0  0  0  0  0  0  0  0  0  0
  -25.1100  -11.9350   20.6400 C   0  0  0  0  0  0  0  0  0  0  0  0
  -26.7020  -13.1950   19.9590 N   0  0  0  0  0  0  0  0  0  0  0  0
  -26.3590  -11.8980   20.1800 N   0  0  0  0  0  0  0  0  0  0  0  0
  -24.3700  -10.6790   20.8280 C   0  0  0  0  0  0  0  0  0  0  0  0
  -24.7480   -9.7370   21.8080 C   0  0  0  0  0  3  0  0  0  0  0  0
  -24.0030   -8.5500   21.9860 C   0  0  0  0  0  3  0  0  0  0  0  0
  -22.8670   -8.2970   21.1820 C   0  0  0  0  0  0  0  0  0  0  0  0
  -22.5080   -9.2280   20.1910 C   0  0  0  0  0  3  0  0  0  0  0  0
  -23.2530  -10.4060   20.0120 C   0  0  0  0  0  3  0  0  0  0  0  0
  -22.0990   -7.1590   21.2650 O   0  0  0  0  0  0  0  0  0  0  0  0
  -21.8160   -6.5690   22.4710 C   0  0  0  0  0  0  0  0  0  0  0  0
  -21.1390   -7.2610   23.4980 C   0  0  0  0  0  3  0  0  0  0  0  0
  -20.8060   -6.5960   24.6950 C   0  0  0  0  0  3  0  0  0  0  0  0
  -21.1390   -5.2390   24.8630 C   0  0  0  0  0  0  0  0  0  0  0  0
  -21.8090   -4.5460   23.8380 C   0  0  0  0  0  3  0  0  0  0  0  0
  -22.1420   -5.2090   22.6440 C   0  0  0  0  0  0  0  0  0  0  0  0
  -22.7680   -4.5320   21.6520 F   0  0  0  0  0  0  0  0  0  0  0  0
  -20.8140   -4.5970   26.0090 F   0  0  0  0  0  0  0  0  0  0  0  0
  -23.3400  -13.7780   21.2620 C   0  0  0  0  0  0  0  0  0  0  0  0
  -22.6950  -13.0520   22.1670 N   0  0  0  0  0  0  0  0  0  0  0  0
  -22.8760  -14.8390   20.8460 O   0  0  0  0  0  0  0  0  0  0  0  0
  -23.0880  -12.1930   22.5240 H   0  0  0  0  0  0  0  0  0  0  0  0
  -21.7970  -13.3610   22.5100 H   0  0  0  0  0  0  0  0  0  0  0  0
  -25.8930  -15.4460   20.2700 N   0  0  0  0  0  0  0  0  0  0  0  0
  -25.1540  -16.1010   20.5000 H   0  0  0  0  0  0  0  0  0  0  0  0
  -26.6960  -15.8860   19.8430 H   0  0  0  0  0  0  0  0  0  0  0  0
  -28.1140  -25.5730   19.2260 O   0  0  0  0  0  0  0  0  0  0  0  0
  -24.6520  -31.6960   22.8180 C   0  0  0  0  0  0  0  0  0  0  0  0
  -27.1100  -26.7850   19.3980 C   0  0  0  0  0  0  0  0  0  0  0  0
  -23.3990  -30.3490   21.1910 C   0  0  0  0  0  3  0  0  0  0  0  0
  -24.7940  -28.8060   19.6040 C   0  0  0  0  0  0  0  0  0  0  0  0
  -25.9630  -30.5510   20.9150 C   0  0  0  0  0  2  0  0  0  0  0  0
  -26.0220  -29.1460   20.1830 C   0  0  0  0  0  0  0  0  0  0  0  0
  -27.1570  -28.1670   20.0500 C   0  0  0  0  0  3  0  0  0  0  0  0
  -25.8350  -26.6870   18.7730 C   0  0  0  0  0  3  0  0  0  0  0  0
  -24.7420  -27.6050   18.8750 C   0  0  0  0  0  3  0  0  0  0  0  0
  -23.5700  -29.7270   19.7730 C   0  0  0  0  0  2  0  0  0  0  0  0
  -24.6990  -30.8990   21.6930 N   0  0  0  0  0  0  0  0  0  0  0  0
  -23.5850  -31.9370   23.4120 O   0  0  0  0  0  0  0  0  0  0  0  0
  -22.7700  -29.3050   22.1540 C   0  0  0  0  0  0  0  0  0  0  0  0
  -21.4370  -29.1140   22.1040 N   0  0  0  0  0  0  0  0  0  0  0  0
  -23.4930  -28.6650   22.9210 O   0  0  0  0  0  0  0  0  0  0  0  0
  -20.8970  -29.6830   21.4670 H   0  0  0  0  0  0  0  0  0  0  0  0
  -18.1360  -27.7170   22.7200 C   0  0  0  0  0  0  0  0  0  0  0  0
  -20.6890  -28.1120   22.8770 C   0  0  0  0  0  3  0  0  0  0  0  0
  -20.8350  -26.7060   22.2490 C   0  0  0  0  0  2  0  0  0  0  0  0
  -19.7070  -26.3610   21.2720 C   0  0  0  0  0  2  0  0  0  0  0  0
  -18.3500  -26.4070   21.9810 C   0  0  0  0  0  2  0  0  0  0  0  0
  -19.2320  -28.5250   23.1270 C   0  0  0  0  0  0  0  0  0  0  0  0
  -18.9720  -29.7460   23.7870 C   0  0  0  0  0  3  0  0  0  0  0  0
  -17.6510  -30.1620   24.0390 C   0  0  0  0  0  3  0  0  0  0  0  0
  -16.5720  -29.3530   23.6450 C   0  0  0  0  0  3  0  0  0  0  0  0
  -16.8150  -28.1310   22.9920 C   0  0  0  0  0  3  0  0  0  0  0  0
  -25.9320  -32.3550   23.4130 C   0  0  0  0  0  3  0  0  0  0  0  0
  -25.5640  -33.6790   23.9560 N   0  0  0  0  0  0  0  0  0  0  0  0
  -25.7890  -34.8540   23.3520 C   0  0  0  0  0  0  0  0  0  0  0  0
  -26.3840  -34.9410   22.2750 O   0  0  0  0  0  0  0  0  0  0  0  0
  -25.0210  -33.6780   24.8060 H   0  0  0  0  0  0  0  0  0  0  0  0
  -23.9640  -36.5930   23.3970 C   0  0  0  0  0  1  0  0  0  0  0  0
  -25.2800  -36.1350   24.0470 C   0  0  0  0  0  3  0  0  0  0  0  0
  -27.4220  -37.0180   24.8670 C   0  0  0  0  0  1  0  0  0  0  0  0
  -26.2550  -37.2490   24.0210 N   0  0  0  0  0  0  0  0  0  0  0  0
  -25.8170  -38.1180   24.3140 H   0  0  0  0  0  0  0  0  0  0  0  0
  -26.6030  -31.4850   24.5480 C   0  0  1  0  0  0  0  0  0  0  0  0
  -25.6280  -31.0660   25.6740 C   0  0  0  0  0  1  0  0  0  0  0  0
  -27.2220  -30.1940   23.9670 C   0  0  0  0  0  1  0  0  0  0  0  0
  -27.7680  -32.2740   25.1930 C   0  0  0  0  0  1  0  0  0  0  0  0
  2  1  2  0
  3  6  2  0
  3  5  1  0
  4  1  1  0
  4  7  1  0
  5  4  2  0
  6  2  1  0
  8  7  1  0
  9 18  1  0
  9  5  1  0
  9  8  1  0
 10 16  1  0
 11 16  1  0
 12 13  1  0
 12 11  1  0
 14 13  1  0
 14 23  1  0
 14 15  1  0
 16 15  1  0
 17 10  2  0
 18 10  1  0
 19 18  1  0
 20 21  2  0
 21 40  1  0
 22 21  1  0
 22 25  1  0
 23 24  1  0
 23 20  1  0
 24 22  2  0
 25 26  1  0
 26 27  2  0
 28 31  1  0
 28 27  1  0
 29 28  2  0
 30 29  1  0
 30 25  2  0
 31 32  1  0
 32 37  2  0
 32 33  1  0
 33 34  2  0
 34 35  1  0
 35 39  1  0
 36 35  2  0
 37 36  1  0
 38 37  1  0
 40 41  1  0
 41 44  1  0
 41 43  1  0
 42 40  2  0
 45 20  1  0
 45 46  1  0
 47 45  1  0
 48 50  1  0
 48  6  1  0
 49 60  2  0
 50 55  1  0
 51 59  1  0
 51 61  1  0
 52 58  1  0
 52 54  1  0
 53 59  1  0
 54 53  1  0
 55 54  2  0
 56 57  1  0
 56 50  2  0
 57 52  2  0
 58 51  1  0
 59 49  1  0
 61 63  2  0
 62 61  1  0
 64 62  1  0
 65 74  2  0
 65 70  1  0
 66 62  1  0
 66 70  1  0
 67 66  1  0
 68 69  1  0
 68 67  1  0
 69 65  1  0
 70 71  2  0
 71 72  1  0
 73 72  2  0
 74 73  1  0
 75 49  1  0
 75 76  1  0
 75 85  1  0
 76 79  1  0
 77 76  1  0
 77 81  1  0
 78 77  2  0
 81 80  1  0
 83 81  1  0
 83 84  1  0
 83 82  1  0
 85 88  1  1
 85 86  1  0
 87 85  1  0
M  ISO  4   6 101  10 100  18 100  48 101
M  END
>  <TORSDO>  (9) 
F 16

>  <SCORE>  (9) 
-13.326

>  <name>  (9) 
8

>  <ligand_id>  (9) 
8

>  <original_smiles>  (9) 
[H]c1c([H])c([H])c2c(c1[H])C([H])([H])C([H])([H])C([H])([H])C2([H])N([H])C(=O)C1([H])N(C(=O)C([H])(N([H])C(=O)C([H])(N([H])C([H])([H])[H])C([H])([H])[H])C(C([H])([H])[H])(C([H])([H])[H])C([H])([H])[H])C([H])([H])c2c([H])c(Oc3c([H])c([H])c4c(c3[H])C([H])(N([H])C(=O)N3C([H])([H])C([H])([H])C([H])([H])C([H])(n5nc(-c6c([H])c([H])c(Oc7c([H])c([H])c(F)c([H])c7F)c([H])c6[H])c(C(=O)N([H])[H])c5N([H])[H])C3([H])[H])C([H])([H])C4([H])[H])c([H])c([H])c2C1([H])[H]

>  <smiles>  (9) 
[H]c1c([H])c([H])c2c(c1[H])C([H])([H])C([H])([H])C([H])([H])C2([H])N([H])C(=O)C1([H])N(C(=O)C([H])(N([H])C(=O)C([H])(N([H])C([H])([H])[H])C([H])([H])[H])C(C([H])([H])[H])(C([H])([H])[H])C([H])([H])[H])C([H])([H])c2c([H])c(Oc3c([H])c([H])c4c(c3[H])C([H])(N([H])C(=O)N3C([H])([H])C([H])([H])C([H])([H])C([H])(n5nc(-c6c([H])c([H])c(Oc7c([H])c([H])c(F)c([H])c7F)c([H])c6[H])c(C(=O)N([H])[H])c5N([H])[H])C3([H])[H])C([H])([H])C4([H])[H])c([H])c([H])c2C1([H])[H]

$$$$
9:0:0
     RDKit          3D

 94102  0  0  1  0  0  0  0  0999 V2000
  -28.7830  -22.3990   18.2030 C   0  0  0  0  0  3  0  0  0  0  0  0
  -28.7060  -23.0660   16.9800 C   0  0  0  0  0  3  0  0  0  0  0  0
  -28.3810  -25.1290   18.1560 C   0  0  0  0  0  3  0  0  0  0  0  0
  -28.6780  -22.9780   19.4990 C   0  0  0  0  0  0  0  0  0  0  0  0
  -28.5290  -24.4370   16.9540 C   0  0  0  0  0  0  0  0  0  0  0  0
  -28.3800  -24.5640   19.4660 C   0  0  0  0  0  0  0  0  0  0  0  0
  -28.5100  -25.0990   15.7590 O   0  0  0  0  0  0  0  0  0  0  0  0
  -28.6880  -24.5230   15.0180 H   0  0  0  0  0  0  0  0  0  0  0  0
  -28.1880  -25.8160   20.3220 O   0  0  0  0  0  0  0  0  0  0  0  0
  -24.6270  -31.8630   23.1910 C   0  0  0  0  0  0  0  0  0  0  0  0
  -27.2120  -26.9600   20.1940 C   0  0  0  0  0  0  0  0  0  0  0  0
  -23.4420  -30.4450   21.5640 C   0  0  0  0  0  3  0  0  0  0  0  0
  -24.9020  -28.8370   20.1550 C   0  0  0  0  0  0  0  0  0  0  0  0
  -26.0080  -30.6620   21.4230 C   0  0  0  0  0  2  0  0  0  0  0  0
  -26.0880  -29.2460   20.7770 C   0  0  0  0  0  0  0  0  0  0  0  0
  -27.2310  -28.3200   20.7860 C   0  0  0  0  0  3  0  0  0  0  0  0
  -25.9910  -26.7140   19.5210 C   0  0  0  0  0  3  0  0  0  0  0  0
  -24.8770  -27.5910   19.5100 C   0  0  0  0  0  3  0  0  0  0  0  0
  -23.6800  -29.7540   20.1930 C   0  0  0  0  0  2  0  0  0  0  0  0
  -24.7140  -31.0170   22.1150 N   0  0  0  0  0  0  0  0  0  0  0  0
  -23.5380  -32.1540   23.7100 O   0  0  0  0  0  0  0  0  0  0  0  0
  -22.7540  -29.4550   22.5390 C   0  0  0  0  0  0  0  0  0  0  0  0
  -21.4240  -29.2850   22.4190 N   0  0  0  0  0  0  0  0  0  0  0  0
  -23.4230  -28.8380   23.3720 O   0  0  0  0  0  0  0  0  0  0  0  0
  -20.9360  -29.8260   21.7180 H   0  0  0  0  0  0  0  0  0  0  0  0
  -18.0530  -28.0630   22.9500 C   0  0  0  0  0  0  0  0  0  0  0  0
  -20.6110  -28.3510   23.2030 C   0  0  0  0  0  3  0  0  0  0  0  0
  -20.7230  -26.9150   22.6430 C   0  0  0  0  0  2  0  0  0  0  0  0
  -19.6220  -26.5750   21.6350 C   0  0  0  0  0  2  0  0  0  0  0  0
  -18.2400  -26.7110   22.2810 C   0  0  0  0  0  2  0  0  0  0  0  0
  -19.1660  -28.8390   23.3700 C   0  0  0  0  0  0  0  0  0  0  0  0
  -18.9350  -30.1010   23.9600 C   0  0  0  0  0  3  0  0  0  0  0  0
  -17.6250  -30.5880   24.1260 C   0  0  0  0  0  3  0  0  0  0  0  0
  -16.5280  -29.8090   23.7210 C   0  0  0  0  0  3  0  0  0  0  0  0
  -16.7420  -28.5470   23.1390 C   0  0  0  0  0  3  0  0  0  0  0  0
  -25.8950  -32.5180   23.8180 C   0  0  0  0  0  3  0  0  0  0  0  0
  -25.5680  -33.9180   24.1480 N   0  0  0  0  0  0  0  0  0  0  0  0
  -25.9000  -34.9770   23.3980 C   0  0  0  0  0  0  0  0  0  0  0  0
  -26.5690  -34.8800   22.3670 O   0  0  0  0  0  0  0  0  0  0  0  0
  -24.9820  -34.0710   24.9560 H   0  0  0  0  0  0  0  0  0  0  0  0
  -24.1670  -36.7700   23.0510 C   0  0  0  0  0  1  0  0  0  0  0  0
  -25.4060  -36.3630   23.8640 C   0  0  0  0  0  3  0  0  0  0  0  0
  -27.5340  -37.2530   24.7120 C   0  0  0  0  0  1  0  0  0  0  0  0
  -26.4350  -37.4200   23.7640 N   0  0  0  0  0  0  0  0  0  0  0  0
  -26.0230  -38.3370   23.9170 H   0  0  0  0  0  0  0  0  0  0  0  0
  -26.4130  -31.7660   25.1070 C   0  0  1  0  0  0  0  0  0  0  0  0
  -25.3150  -31.5340   26.1710 C   0  0  0  0  0  1  0  0  0  0  0  0
  -27.0060  -30.3870   24.7430 C   0  0  0  0  0  1  0  0  0  0  0  0
  -27.5620  -32.5710   25.7630 C   0  0  0  0  0  1  0  0  0  0  0  0
  -28.9790  -21.5870   20.5310 C   0  0  0  0  0  3  0  0  0  0  0  0
  -27.9550  -21.6680   21.5840 N   0  0  0  0  0  4  0  0  0  0  0  0
  -28.1160  -22.4810   22.1490 H   0  0  0  0  0  0  0  0  0  0  0  0
  -27.9870  -20.8660   22.1810 H   0  0  0  0  0  0  0  0  0  0  0  0
  -27.0380  -21.7370   21.1810 H   0  0  0  0  0  0  0  0  0  0  0  0
  -29.1700  -19.8010   20.0630 C   0  0  0  0  0  3  0  0  0  0  0  0
  -29.9040  -18.2840   20.7550 C   0  0  0  0  0  3  0  0  0  0  0  0
  -30.4800  -15.3590   20.3880 C   0  0  0  0  0  0  0  0  0  0  0  0
  -30.4970  -12.9010   19.5100 C   0  0  0  0  0  2  0  0  0  0  0  0
  -29.6090  -12.6800   18.2600 C   0  0  0  0  0  2  0  0  0  0  0  0
  -28.1600  -12.3780   18.6850 C   0  0  0  0  0  2  0  0  0  0  0  0
  -27.6700  -13.3460   19.7910 C   0  0  0  0  0  3  0  0  0  0  0  0
  -28.6940  -13.5230   20.9350 C   0  0  0  0  0  2  0  0  0  0  0  0
  -29.9220  -14.0470   20.3110 N   0  0  0  0  0  0  0  0  0  0  0  0
  -31.7060  -15.3600   20.2090 O   0  0  0  0  0  0  0  0  0  0  0  0
  -29.7030  -16.6310   20.4740 N   0  0  0  0  0  0  0  0  0  0  0  0
  -28.7210  -16.3960   20.5210 H   0  0  0  0  0  0  0  0  0  0  0  0
  -25.2740  -13.8660   20.4860 C   0  0  0  0  0  0  0  0  0  0  0  0
  -24.2190  -13.0780   20.8410 C   0  0  0  0  0  0  0  0  0  0  0  0
  -24.7080  -11.7350   20.8330 C   0  0  0  0  0  0  0  0  0  0  0  0
  -26.3370  -13.0100   20.2750 N   0  0  0  0  0  0  0  0  0  0  0  0
  -26.0080  -11.7200   20.5540 N   0  0  0  0  0  0  0  0  0  0  0  0
  -23.9990  -10.4600   21.0200 C   0  0  0  0  0  0  0  0  0  0  0  0
  -24.4160   -9.5080   21.9760 C   0  0  0  0  0  3  0  0  0  0  0  0
  -23.6970   -8.3040   22.1480 C   0  0  0  0  0  3  0  0  0  0  0  0
  -22.5470   -8.0430   21.3660 C   0  0  0  0  0  0  0  0  0  0  0  0
  -22.1500   -8.9860   20.4000 C   0  0  0  0  0  3  0  0  0  0  0  0
  -22.8690  -10.1800   20.2240 C   0  0  0  0  0  3  0  0  0  0  0  0
  -21.8040   -6.8910   21.4520 O   0  0  0  0  0  0  0  0  0  0  0  0
  -21.7310   -6.1630   22.6140 C   0  0  0  0  0  0  0  0  0  0  0  0
  -21.2560   -6.7250   23.8190 C   0  0  0  0  0  3  0  0  0  0  0  0
  -21.1300   -5.9210   24.9710 C   0  0  0  0  0  3  0  0  0  0  0  0
  -21.4750   -4.5580   24.9200 C   0  0  0  0  0  0  0  0  0  0  0  0
  -21.9450   -3.9950   23.7200 C   0  0  0  0  0  3  0  0  0  0  0  0
  -22.0710   -4.7950   22.5710 C   0  0  0  0  0  0  0  0  0  0  0  0
  -22.5030   -4.2400   21.4120 F   0  0  0  0  0  0  0  0  0  0  0  0
  -21.3500   -3.7870   26.0240 F   0  0  0  0  0  0  0  0  0  0  0  0
  -22.8070  -13.5370   21.0690 C   0  0  0  0  0  0  0  0  0  0  0  0
  -22.0610  -12.8340   21.9130 N   0  0  0  0  0  0  0  0  0  0  0  0
  -22.3690  -14.5490   20.5240 O   0  0  0  0  0  0  0  0  0  0  0  0
  -22.4190  -12.0090   22.3720 H   0  0  0  0  0  0  0  0  0  0  0  0
  -21.1140  -13.1270   22.1100 H   0  0  0  0  0  0  0  0  0  0  0  0
  -25.4180  -15.2370   20.2930 N   0  0  0  0  0  0  0  0  0  0  0  0
  -24.6400  -15.8820   20.3880 H   0  0  0  0  0  0  0  0  0  0  0  0
  -26.2600  -15.6780   19.9500 H   0  0  0  0  0  0  0  0  0  0  0  0
  1  4  1  0
  2  1  2  0
  3  6  1  0
  4 50  1  0
  5  2  1  0
  5  3  2  0
  6  4  2  0
  6  9  1  0
  7  5  1  0
  8  7  1  0
 10 21  2  0
 11  9  1  0
 11 16  1  0
 12 20  1  0
 12 22  1  0
 13 19  1  0
 13 15  1  0
 14 20  1  0
 15 16  2  0
 15 14  1  0
 17 11  2  0
 18 17  1  0
 18 13  2  0
 19 12  1  0
 20 10  1  0
 22 24  2  0
 23 22  1  0
 25 23  1  0
 26 35  2  0
 26 31  1  0
 27 23  1  0
 27 31  1  0
 28 27  1  0
 29 30  1  0
 29 28  1  0
 30 26  1  0
 31 32  2  0
 32 33  1  0
 34 33  2  0
 35 34  1  0
 36 10  1  0
 36 37  1  0
 36 46  1  0
 37 40  1  0
 38 42  1  0
 38 37  1  0
 39 38  2  0
 42 41  1  0
 44 42  1  0
 44 45  1  0
 44 43  1  0
 46 49  1  1
 46 47  1  0
 48 46  1  0
 50 55  1  0
 50 51  1  0
 51 52  1  0
 51 53  1  0
 54 51  1  0
 55 56  2  0
 57 65  1  0
 58 63  1  0
 59 60  1  0
 59 58  1  0
 61 60  1  0
 61 70  1  0
 61 62  1  0
 63 57  1  0
 63 62  1  0
 64 57  2  0
 65 66  1  0
 65 56  1  0
 67 68  2  0
 68 87  1  0
 69 68  1  0
 69 72  1  0
 70 67  1  0
 70 71  1  0
 71 69  2  0
 72 73  1  0
 73 74  2  0
 75 78  1  0
 75 74  1  0
 76 75  2  0
 77 76  1  0
 77 72  2  0
 78 79  1  0
 79 80  1  0
 80 81  2  0
 82 81  1  0
 82 86  1  0
 83 82  2  0
 84 79  2  0
 84 83  1  0
 85 84  1  0
 87 88  1  0
 88 91  1  0
 88 90  1  0
 89 87  2  0
 92 93  1  0
 92 67  1  0
 94 92  1  0
M  ISO  4   6 101   9 101  57 100  65 100
M  END
>  <TORSDO>  (10) 
F 21

>  <SCORE>  (10) 
-15.491

>  <name>  (10) 
9

>  <ligand_id>  (10) 
9

>  <original_smiles>  (10) 
[H]Oc1c([H])c([H])c(C([H])(C([H])([H])C([H])([H])N([H])C(=O)N2C([H])([H])C([H])([H])C([H])([H])C([H])(n3nc(-c4c([H])c([H])c(Oc5c([H])c([H])c(F)c([H])c5F)c([H])c4[H])c(C(=O)N([H])[H])c3N([H])[H])C2([H])[H])[N+]([H])([H])[H])c(Oc2c([H])c([H])c3c(c2[H])C([H])([H])N(C(=O)C([H])(N([H])C(=O)C([H])(N([H])C([H])([H])[H])C([H])([H])[H])C(C([H])([H])[H])(C([H])([H])[H])C([H])([H])[H])C([H])(C(=O)N([H])C2([H])c4c([H])c([H])c([H])c([H])c4C([H])([H])C([H])([H])C2([H])[H])C3([H])[H])c1[H]

>  <smiles>  (10) 
[H]Oc1c([H])c([H])c(C([H])(C([H])([H])C([H])([H])N([H])C(=O)N2C([H])([H])C([H])([H])C([H])([H])C([H])(n3nc(-c4c([H])c([H])c(Oc5c([H])c([H])c(F)c([H])c5F)c([H])c4[H])c(C(=O)N([H])[H])c3N([H])[H])C2([H])[H])[N+]([H])([H])[H])c(Oc2c([H])c([H])c3c(c2[H])C([H])([H])N(C(=O)C([H])(N([H])C(=O)C([H])(N([H])C([H])([H])[H])C([H])([H])[H])C(C([H])([H])[H])(C([H])([H])[H])C([H])([H])[H])C([H])(C(=O)N([H])C2([H])c4c([H])c([H])c([H])c([H])c4C([H])([H])C([H])([H])C2([H])[H])C3([H])[H])c1[H]

$$$$
10:0:0
     RDKit          3D

 90 99  0  0  1  0  0  0  0  0999 V2000
  -29.1200  -23.1680   21.2290 C   0  0  0  0  0  3  0  0  0  0  0  0
  -28.2200  -21.3800   19.4340 C   0  0  0  0  0  3  0  0  0  0  0  0
  -29.4880  -21.6800   21.2380 C   0  0  0  0  0  0  0  0  0  0  0  0
  -29.0760  -20.5550   20.3490 C   0  0  0  0  0  0  0  0  0  0  0  0
  -28.2760  -24.0020   20.3350 C   0  0  0  0  0  0  0  0  0  0  0  0
  -27.8730  -22.8870   19.4130 C   0  0  0  0  0  0  0  0  0  0  0  0
  -30.5120  -21.2920   22.2930 C   0  0  0  0  0  2  0  0  0  0  0  0
  -31.4990  -20.2210   21.7990 C   0  0  0  0  0  2  0  0  0  0  0  0
  -30.8250  -18.8650   21.5390 C   0  0  0  0  0  2  0  0  0  0  0  0
  -29.8290  -18.8270   20.3580 C   0  0  0  0  0  3  0  0  0  0  0  0
  -27.1150  -23.2730   18.3590 F   0  0  0  0  0  0  0  0  0  0  0  0
  -30.2670  -15.7110   20.1800 C   0  0  0  0  0  0  0  0  0  0  0  0
  -30.3580  -13.1770   19.3340 C   0  0  0  0  0  2  0  0  0  0  0  0
  -29.4420  -12.7900   18.1380 C   0  0  0  0  0  2  0  0  0  0  0  0
  -28.0230  -12.4380   18.6140 C   0  0  0  0  0  2  0  0  0  0  0  0
  -27.5390  -13.4170   19.7080 C   0  0  0  0  0  3  0  0  0  0  0  0
  -28.5950  -13.7090   20.7980 C   0  0  0  0  0  2  0  0  0  0  0  0
  -29.7430  -14.3470   20.1130 N   0  0  0  0  0  0  0  0  0  0  0  0
  -31.4970  -15.6470   19.9920 O   0  0  0  0  0  0  0  0  0  0  0  0
  -29.5220  -17.0810   20.2660 N   0  0  0  0  0  0  0  0  0  0  0  0
  -28.5280  -16.9040   20.3250 H   0  0  0  0  0  0  0  0  0  0  0  0
  -25.1990  -13.9210   20.5510 C   0  0  0  0  0  0  0  0  0  0  0  0
  -24.1530  -13.1280   20.9290 C   0  0  0  0  0  0  0  0  0  0  0  0
  -24.6290  -11.7810   20.8550 C   0  0  0  0  0  0  0  0  0  0  0  0
  -26.2380  -13.0610   20.2550 N   0  0  0  0  0  0  0  0  0  0  0  0
  -25.9130  -11.7650   20.5090 N   0  0  0  0  0  0  0  0  0  0  0  0
  -23.9130  -10.5120   21.0330 C   0  0  0  0  0  0  0  0  0  0  0  0
  -24.3450   -9.5410   21.9630 C   0  0  0  0  0  3  0  0  0  0  0  0
  -23.6210   -8.3410   22.1340 C   0  0  0  0  0  3  0  0  0  0  0  0
  -22.4520   -8.1000   21.3730 C   0  0  0  0  0  0  0  0  0  0  0  0
  -22.0400   -9.0600   20.4320 C   0  0  0  0  0  3  0  0  0  0  0  0
  -22.7640  -10.2520   20.2600 C   0  0  0  0  0  3  0  0  0  0  0  0
  -21.7010   -6.9530   21.4530 O   0  0  0  0  0  0  0  0  0  0  0  0
  -21.6180   -6.2250   22.6130 C   0  0  0  0  0  0  0  0  0  0  0  0
  -21.1160   -6.7840   23.8100 C   0  0  0  0  0  3  0  0  0  0  0  0
  -20.9830   -5.9820   24.9590 C   0  0  0  0  0  3  0  0  0  0  0  0
  -21.3440   -4.6220   24.9160 C   0  0  0  0  0  0  0  0  0  0  0  0
  -21.8390   -4.0620   23.7250 C   0  0  0  0  0  3  0  0  0  0  0  0
  -21.9730   -4.8620   22.5760 C   0  0  0  0  0  0  0  0  0  0  0  0
  -22.4310   -4.3120   21.4250 F   0  0  0  0  0  0  0  0  0  0  0  0
  -21.2090   -3.8480   26.0190 F   0  0  0  0  0  0  0  0  0  0  0  0
  -22.7610  -13.5910   21.2370 C   0  0  0  0  0  0  0  0  0  0  0  0
  -22.0550  -12.8780   22.1070 N   0  0  0  0  0  0  0  0  0  0  0  0
  -22.3080  -14.6230   20.7410 O   0  0  0  0  0  0  0  0  0  0  0  0
  -22.4350  -12.0460   22.5320 H   0  0  0  0  0  0  0  0  0  0  0  0
  -21.1190  -13.1700   22.3520 H   0  0  0  0  0  0  0  0  0  0  0  0
  -25.3460  -15.2970   20.3990 N   0  0  0  0  0  0  0  0  0  0  0  0
  -24.5770  -15.9420   20.5450 H   0  0  0  0  0  0  0  0  0  0  0  0
  -26.1730  -15.7470   20.0290 H   0  0  0  0  0  0  0  0  0  0  0  0
  -28.1820  -25.6270   20.3010 O   0  0  0  0  0  0  0  0  0  0  0  0
  -24.6380  -31.9080   23.2120 C   0  0  0  0  0  0  0  0  0  0  0  0
  -27.1610  -26.7950   20.2800 C   0  0  0  0  0  0  0  0  0  0  0  0
  -23.4500  -30.4940   21.5900 C   0  0  0  0  0  3  0  0  0  0  0  0
  -24.8910  -28.8260   20.1970 C   0  0  0  0  0  0  0  0  0  0  0  0
  -26.0270  -30.6300   21.4720 C   0  0  0  0  0  2  0  0  0  0  0  0
  -26.0850  -29.1900   20.8310 C   0  0  0  0  0  0  0  0  0  0  0  0
  -27.2010  -28.2010   20.8420 C   0  0  0  0  0  3  0  0  0  0  0  0
  -25.9360  -26.6420   19.5800 C   0  0  0  0  0  3  0  0  0  0  0  0
  -24.8540  -27.5780   19.5480 C   0  0  0  0  0  3  0  0  0  0  0  0
  -23.6870  -29.7800   20.2280 C   0  0  0  0  0  2  0  0  0  0  0  0
  -24.7290  -31.0450   22.1440 N   0  0  0  0  0  0  0  0  0  0  0  0
  -23.5450  -32.2170   23.7190 O   0  0  0  0  0  0  0  0  0  0  0  0
  -22.7290  -29.5310   22.5700 C   0  0  0  0  0  0  0  0  0  0  0  0
  -21.3970  -29.3780   22.4430 N   0  0  0  0  0  0  0  0  0  0  0  0
  -23.3820  -28.9150   23.4160 O   0  0  0  0  0  0  0  0  0  0  0  0
  -20.9220  -29.9210   21.7360 H   0  0  0  0  0  0  0  0  0  0  0  0
  -18.0040  -28.1820   22.9660 C   0  0  0  0  0  0  0  0  0  0  0  0
  -20.5660  -28.4530   23.2240 C   0  0  0  0  0  3  0  0  0  0  0  0
  -20.6640  -27.0120   22.6670 C   0  0  0  0  0  2  0  0  0  0  0  0
  -19.5630  -26.6800   21.6570 C   0  0  0  0  0  2  0  0  0  0  0  0
  -18.1800  -26.8300   22.2990 C   0  0  0  0  0  2  0  0  0  0  0  0
  -19.1230  -28.9520   23.3850 C   0  0  0  0  0  0  0  0  0  0  0  0
  -18.9010  -30.2140   23.9770 C   0  0  0  0  0  3  0  0  0  0  0  0
  -17.5950  -30.7090   24.1510 C   0  0  0  0  0  3  0  0  0  0  0  0
  -16.4910  -29.9390   23.7430 C   0  0  0  0  0  3  0  0  0  0  0  0
  -16.6960  -28.6770   23.1560 C   0  0  0  0  0  3  0  0  0  0  0  0
  -25.9010  -32.5630   23.8480 C   0  0  0  0  0  3  0  0  0  0  0  0
  -25.5750  -33.9630   24.1820 N   0  0  0  0  0  0  0  0  0  0  0  0
  -25.8730  -35.0280   23.4260 C   0  0  0  0  0  0  0  0  0  0  0  0
  -26.5090  -34.9360   22.3730 O   0  0  0  0  0  0  0  0  0  0  0  0
  -25.0030  -34.1090   25.0020 H   0  0  0  0  0  0  0  0  0  0  0  0
  -24.1090  -36.8110   23.1710 C   0  0  0  0  0  1  0  0  0  0  0  0
  -25.3980  -36.4150   23.9110 C   0  0  0  0  0  3  0  0  0  0  0  0
  -27.5550  -37.3450   24.6330 C   0  0  0  0  0  1  0  0  0  0  0  0
  -26.4120  -37.4780   23.7340 N   0  0  0  0  0  0  0  0  0  0  0  0
  -26.0000  -38.3980   23.8740 H   0  0  0  0  0  0  0  0  0  0  0  0
  -26.4040  -31.8070   25.1420 C   0  0  1  0  0  0  0  0  0  0  0  0
  -25.3020  -31.5830   26.2030 C   0  0  0  0  0  1  0  0  0  0  0  0
  -26.9920  -30.4240   24.7860 C   0  0  0  0  0  1  0  0  0  0  0  0
  -27.5470  -32.6110   25.8080 C   0  0  0  0  0  1  0  0  0  0  0  0
  1  3  1  0
  2  4  1  0
  3  7  1  0
  4 10  1  0
  4  3  2  0
  5  1  2  0
  6  2  2  0
  6  5  1  0
  8  7  1  0
  9  8  1  0
 10 20  1  0
 10  9  1  0
 11  6  1  0
 12 20  1  0
 13 18  1  0
 14 15  1  0
 14 13  1  0
 16 15  1  0
 16 25  1  0
 16 17  1  0
 18 12  1  0
 18 17  1  0
 19 12  2  0
 20 21  1  0
 22 23  2  0
 23 42  1  0
 24 23  1  0
 24 27  1  0
 25 26  1  0
 25 22  1  0
 26 24  2  0
 27 28  1  0
 28 29  2  0
 30 33  1  0
 30 29  1  0
 31 30  2  0
 32 31  1  0
 32 27  2  0
 33 34  1  0
 34 35  1  0
 35 36  2  0
 37 36  1  0
 37 41  1  0
 38 37  2  0
 39 34  2  0
 39 38  1  0
 40 39  1  0
 42 43  1  0
 43 46  1  0
 43 45  1  0
 44 42  2  0
 47 48  1  0
 47 22  1  0
 49 47  1  0
 50  5  1  0
 51 62  2  0
 52 50  1  0
 52 57  1  0
 53 61  1  0
 53 63  1  0
 54 60  1  0
 54 56  1  0
 55 61  1  0
 56 57  2  0
 56 55  1  0
 58 52  2  0
 59 58  1  0
 59 54  2  0
 60 53  1  0
 61 51  1  0
 63 65  2  0
 64 63  1  0
 66 64  1  0
 67 76  2  0
 67 72  1  0
 68 64  1  0
 68 72  1  0
 69 68  1  0
 70 71  1  0
 70 69  1  0
 71 67  1  0
 72 73  2  0
 73 74  1  0
 75 74  2  0
 76 75  1  0
 77 51  1  0
 77 78  1  0
 77 87  1  0
 78 81  1  0
 79 83  1  0
 79 78  1  0
 80 79  2  0
 83 82  1  0
 85 86  1  0
 85 83  1  0
 85 84  1  0
 87 90  1  1
 87 88  1  0
 89 87  1  0
M  ISO  4   5 101  12 100  20 100  50 101
M  END
>  <TORSDO>  (11) 
F 16

>  <SCORE>  (11) 
-16.222

>  <name>  (11) 
10

>  <ligand_id>  (11) 
10

>  <original_smiles>  (11) 
[H]c1c([H])c([H])c2c(c1[H])C([H])([H])C([H])([H])C([H])([H])C2([H])N([H])C(=O)C1([H])N(C(=O)C([H])(N([H])C(=O)C([H])(N([H])C([H])([H])[H])C([H])([H])[H])C(C([H])([H])[H])(C([H])([H])[H])C([H])([H])[H])C([H])([H])c2c([H])c(Oc3c([H])c4c(c([H])c3F)C([H])(N([H])C(=O)N3C([H])([H])C([H])([H])C([H])([H])C([H])(n5nc(-c6c([H])c([H])c(Oc7c([H])c([H])c(F)c([H])c7F)c([H])c6[H])c(C(=O)N([H])[H])c5N([H])[H])C3([H])[H])C([H])([H])C([H])([H])C4([H])[H])c([H])c([H])c2C1([H])[H]

>  <smiles>  (11) 
[H]c1c([H])c([H])c2c(c1[H])C([H])([H])C([H])([H])C([H])([H])C2([H])N([H])C(=O)C1([H])N(C(=O)C([H])(N([H])C(=O)C([H])(N([H])C([H])([H])[H])C([H])([H])[H])C(C([H])([H])[H])(C([H])([H])[H])C([H])([H])[H])C([H])([H])c2c([H])c(Oc3c([H])c4c(c([H])c3F)C([H])(N([H])C(=O)N3C([H])([H])C([H])([H])C([H])([H])C([H])(n5nc(-c6c([H])c([H])c(Oc7c([H])c([H])c(F)c([H])c7F)c([H])c6[H])c(C(=O)N([H])[H])c5N([H])[H])C3([H])[H])C([H])([H])C([H])([H])C4([H])[H])c([H])c([H])c2C1([H])[H]

$$$$
11:0:0
     RDKit          3D

 91 99  0  0  1  0  0  0  0  0999 V2000
  -28.9180  -23.6690   20.0430 C   0  0  0  0  0  3  0  0  0  0  0  0
  -27.4830  -22.0740   21.1740 C   0  0  0  0  0  3  0  0  0  0  0  0
  -26.9430  -24.5010   21.1540 C   0  0  0  0  0  3  0  0  0  0  0  0
  -28.6640  -22.2330   20.4210 C   0  0  0  0  0  0  0  0  0  0  0  0
  -28.0690  -24.8650   20.3790 C   0  0  0  0  0  0  0  0  0  0  0  0
  -26.6560  -23.1660   21.5260 C   0  0  0  0  0  0  0  0  0  0  0  0
  -25.5460  -22.9250   22.2650 F   0  0  0  0  0  0  0  0  0  0  0  0
  -28.2690  -26.3130   20.0910 O   0  0  0  0  0  0  0  0  0  0  0  0
  -24.6460  -31.9960   23.2270 C   0  0  0  0  0  0  0  0  0  0  0  0
  -27.2300  -27.3310   20.0890 C   0  0  0  0  0  0  0  0  0  0  0  0
  -23.4510  -30.6360   21.5560 C   0  0  0  0  0  3  0  0  0  0  0  0
  -24.9050  -29.0970   20.0910 C   0  0  0  0  0  0  0  0  0  0  0  0
  -26.0060  -30.9020   21.4010 C   0  0  0  0  0  2  0  0  0  0  0  0
  -26.0830  -29.5210   20.7210 C   0  0  0  0  0  0  0  0  0  0  0  0
  -27.2440  -28.6520   20.7090 C   0  0  0  0  0  3  0  0  0  0  0  0
  -26.0340  -27.0310   19.4030 C   0  0  0  0  0  3  0  0  0  0  0  0
  -24.8950  -27.8660   19.4170 C   0  0  0  0  0  3  0  0  0  0  0  0
  -23.6760  -29.9920   20.1610 C   0  0  0  0  0  2  0  0  0  0  0  0
  -24.7210  -31.2000   22.1160 N   0  0  0  0  0  0  0  0  0  0  0  0
  -23.5580  -32.2640   23.7610 O   0  0  0  0  0  0  0  0  0  0  0  0
  -22.7750  -29.6030   22.4950 C   0  0  0  0  0  0  0  0  0  0  0  0
  -21.4470  -29.4320   22.3670 N   0  0  0  0  0  0  0  0  0  0  0  0
  -23.4490  -28.9600   23.3020 O   0  0  0  0  0  0  0  0  0  0  0  0
  -20.9580  -30.0040   21.6920 H   0  0  0  0  0  0  0  0  0  0  0  0
  -18.0650  -28.2360   22.8800 C   0  0  0  0  0  0  0  0  0  0  0  0
  -20.6300  -28.4750   23.1170 C   0  0  0  0  0  3  0  0  0  0  0  0
  -20.7130  -27.0620   22.4930 C   0  0  0  0  0  2  0  0  0  0  0  0
  -19.5940  -26.7820   21.4840 C   0  0  0  0  0  2  0  0  0  0  0  0
  -18.2240  -26.9120   22.1530 C   0  0  0  0  0  2  0  0  0  0  0  0
  -19.1940  -28.9790   23.3180 C   0  0  0  0  0  0  0  0  0  0  0  0
  -18.9890  -30.2190   23.9610 C   0  0  0  0  0  3  0  0  0  0  0  0
  -17.6900  -30.7170   24.1660 C   0  0  0  0  0  3  0  0  0  0  0  0
  -16.5750  -29.9740   23.7410 C   0  0  0  0  0  3  0  0  0  0  0  0
  -16.7650  -28.7340   23.1040 C   0  0  0  0  0  3  0  0  0  0  0  0
  -25.9210  -32.6230   23.8680 C   0  0  0  0  0  3  0  0  0  0  0  0
  -25.6080  -34.0200   24.2140 N   0  0  0  0  0  0  0  0  0  0  0  0
  -25.9130  -35.0820   23.4560 C   0  0  0  0  0  0  0  0  0  0  0  0
  -26.5500  -34.9900   22.4040 O   0  0  0  0  0  0  0  0  0  0  0  0
  -25.0400  -34.1650   25.0350 H   0  0  0  0  0  0  0  0  0  0  0  0
  -24.1500  -36.8590   23.1930 C   0  0  0  0  0  1  0  0  0  0  0  0
  -25.4350  -36.4660   23.9400 C   0  0  0  0  0  3  0  0  0  0  0  0
  -27.5940  -37.3810   24.6690 C   0  0  0  0  0  1  0  0  0  0  0  0
  -26.4480  -37.5310   23.7760 N   0  0  0  0  0  0  0  0  0  0  0  0
  -26.0380  -38.4470   23.9360 H   0  0  0  0  0  0  0  0  0  0  0  0
  -26.4200  -31.8410   25.1470 C   0  0  1  0  0  0  0  0  0  0  0  0
  -25.3140  -31.5990   26.2000 C   0  0  0  0  0  1  0  0  0  0  0  0
  -27.0050  -30.4640   24.7560 C   0  0  0  0  0  1  0  0  0  0  0  0
  -27.5650  -32.6270   25.8270 C   0  0  0  0  0  1  0  0  0  0  0  0
  -29.5860  -20.8600   20.1460 C   0  0  0  0  0  2  0  0  0  0  0  0
  -27.9120  -18.9090   19.4950 C   0  0  0  0  0  1  0  0  0  0  0  0
  -29.1550  -19.2050   20.3530 C   0  0  0  0  0  3  0  0  0  0  0  0
  -30.6690  -15.2930   20.1670 C   0  0  0  0  0  0  0  0  0  0  0  0
  -30.5660  -12.9220   19.2450 C   0  0  0  0  0  2  0  0  0  0  0  0
  -29.6190  -12.8360   18.0260 C   0  0  0  0  0  2  0  0  0  0  0  0
  -28.1670  -12.5980   18.4800 C   0  0  0  0  0  2  0  0  0  0  0  0
  -27.7590  -13.5240   19.6560 C   0  0  0  0  0  3  0  0  0  0  0  0
  -28.8300  -13.5810   20.7660 C   0  0  0  0  0  2  0  0  0  0  0  0
  -30.0780  -14.0220   20.1310 N   0  0  0  0  0  0  0  0  0  0  0  0
  -31.8720  -15.3190   19.8880 O   0  0  0  0  0  0  0  0  0  0  0  0
  -30.2050  -17.8970   20.2060 C   0  0  0  0  0  0  0  0  0  0  0  0
  -29.8890  -16.4960   20.3140 N   0  0  0  0  0  0  0  0  0  0  0  0
  -31.3720  -18.2270   19.9820 O   0  0  0  0  0  0  0  0  0  0  0  0
  -28.9160  -16.3210   20.5040 H   0  0  0  0  0  0  0  0  0  0  0  0
  -25.3900  -14.0630   20.4480 C   0  0  0  0  0  0  0  0  0  0  0  0
  -24.3410  -13.2720   20.8260 C   0  0  0  0  0  0  0  0  0  0  0  0
  -24.8180  -11.9260   20.7690 C   0  0  0  0  0  0  0  0  0  0  0  0
  -26.4360  -13.1990   20.1770 N   0  0  0  0  0  0  0  0  0  0  0  0
  -26.1050  -11.9070   20.4360 N   0  0  0  0  0  0  0  0  0  0  0  0
  -24.1060  -10.6550   20.9520 C   0  0  0  0  0  0  0  0  0  0  0  0
  -24.5340   -9.6970   21.8970 C   0  0  0  0  0  3  0  0  0  0  0  0
  -23.8200   -8.4910   22.0680 C   0  0  0  0  0  3  0  0  0  0  0  0
  -22.6630   -8.2350   21.2940 C   0  0  0  0  0  0  0  0  0  0  0  0
  -22.2550   -9.1820   20.3370 C   0  0  0  0  0  3  0  0  0  0  0  0
  -22.9700  -10.3790   20.1650 C   0  0  0  0  0  3  0  0  0  0  0  0
  -21.9210   -7.0810   21.3750 O   0  0  0  0  0  0  0  0  0  0  0  0
  -21.8330   -6.3620   22.5400 C   0  0  0  0  0  0  0  0  0  0  0  0
  -21.3160   -6.9250   23.7260 C   0  0  0  0  0  3  0  0  0  0  0  0
  -21.1800   -6.1290   24.8820 C   0  0  0  0  0  3  0  0  0  0  0  0
  -21.5510   -4.7720   24.8500 C   0  0  0  0  0  0  0  0  0  0  0  0
  -22.0610   -4.2080   23.6680 C   0  0  0  0  0  3  0  0  0  0  0  0
  -22.1990   -5.0010   22.5150 C   0  0  0  0  0  0  0  0  0  0  0  0
  -22.6720   -4.4480   21.3720 F   0  0  0  0  0  0  0  0  0  0  0  0
  -21.4130   -4.0050   25.9570 F   0  0  0  0  0  0  0  0  0  0  0  0
  -22.9440  -13.7330   21.1220 C   0  0  0  0  0  0  0  0  0  0  0  0
  -22.2370  -13.0230   21.9950 N   0  0  0  0  0  0  0  0  0  0  0  0
  -22.4880  -14.7570   20.6150 O   0  0  0  0  0  0  0  0  0  0  0  0
  -22.6190  -12.1940   22.4250 H   0  0  0  0  0  0  0  0  0  0  0  0
  -21.3000  -13.3130   22.2360 H   0  0  0  0  0  0  0  0  0  0  0  0
  -25.5340  -15.4380   20.2840 N   0  0  0  0  0  0  0  0  0  0  0  0
  -24.7530  -16.0740   20.4070 H   0  0  0  0  0  0  0  0  0  0  0  0
  -26.3450  -15.8820   19.8770 H   0  0  0  0  0  0  0  0  0  0  0  0
  1  5  2  0
  1  4  1  0
  2  6  1  0
  3  6  2  0
  4  2  2  0
  5  3  1  0
  6  7  1  0
  8  5  1  0
  9 20  2  0
 10  8  1  0
 10 15  1  0
 11 19  1  0
 11 21  1  0
 12 18  1  0
 12 14  1  0
 13 19  1  0
 14 13  1  0
 15 14  2  0
 16 17  1  0
 16 10  2  0
 17 12  2  0
 18 11  1  0
 19  9  1  0
 21 23  2  0
 22 21  1  0
 24 22  1  0
 25 34  2  0
 25 30  1  0
 26 22  1  0
 26 30  1  0
 27 26  1  0
 28 29  1  0
 28 27  1  0
 29 25  1  0
 30 31  2  0
 31 32  1  0
 33 32  2  0
 34 33  1  0
 35  9  1  0
 35 36  1  0
 35 45  1  0
 36 39  1  0
 37 41  1  0
 37 36  1  0
 38 37  2  0
 41 40  1  0
 43 44  1  0
 43 41  1  0
 43 42  1  0
 45 48  1  1
 45 46  1  0
 47 45  1  0
 49 51  1  0
 49  4  1  0
 51 50  1  0
 52 61  1  0
 53 58  1  0
 54 55  1  0
 54 53  1  0
 56 55  1  0
 56 67  1  0
 56 57  1  0
 58 52  1  0
 58 57  1  0
 59 52  2  0
 60 61  1  0
 60 51  1  0
 61 63  1  0
 62 60  2  0
 64 65  2  0
 65 84  1  0
 66 65  1  0
 66 69  1  0
 67 68  1  0
 67 64  1  0
 68 66  2  0
 69 70  1  0
 70 71  2  0
 72 75  1  0
 72 71  1  0
 73 72  2  0
 74 73  1  0
 74 69  2  0
 75 76  1  0
 76 77  1  0
 77 78  2  0
 79 78  1  0
 79 83  1  0
 80 79  2  0
 81 76  2  0
 81 80  1  0
 82 81  1  0
 84 85  1  0
 85 88  1  0
 85 87  1  0
 86 84  2  0
 89 90  1  0
 89 64  1  0
 91 89  1  0
M  ISO  4   5 101   8 101  52 100  61 100
M  END
>  <TORSDO>  (12) 
F 18

>  <SCORE>  (12) 
-15.318

>  <name>  (12) 
11

>  <ligand_id>  (12) 
11

>  <original_smiles>  (12) 
[H]c1c([H])c([H])c2c(c1[H])C([H])([H])C([H])([H])C([H])([H])C2([H])N([H])C(=O)C1([H])N(C(=O)C([H])(N([H])C(=O)C([H])(N([H])C([H])([H])[H])C([H])([H])[H])C(C([H])([H])[H])(C([H])([H])[H])C([H])([H])[H])C([H])([H])c2c([H])c(Oc3c([H])c(F)c([H])c(C([H])([H])C([H])(C(=O)N([H])C(=O)N4C([H])([H])C([H])([H])C([H])([H])C([H])(n5nc(-c6c([H])c([H])c(Oc7c([H])c([H])c(F)c([H])c7F)c([H])c6[H])c(C(=O)N([H])[H])c5N([H])[H])C4([H])[H])C([H])([H])[H])c3[H])c([H])c([H])c2C1([H])[H]

>  <smiles>  (12) 
[H]c1c([H])c([H])c2c(c1[H])C([H])([H])C([H])([H])C([H])([H])C2([H])N([H])C(=O)C1([H])N(C(=O)C([H])(N([H])C(=O)C([H])(N([H])C([H])([H])[H])C([H])([H])[H])C(C([H])([H])[H])(C([H])([H])[H])C([H])([H])[H])C([H])([H])c2c([H])c(Oc3c([H])c(F)c([H])c(C([H])([H])C([H])(C(=O)N([H])C(=O)N4C([H])([H])C([H])([H])C([H])([H])C([H])(n5nc(-c6c([H])c([H])c(Oc7c([H])c([H])c(F)c([H])c7F)c([H])c6[H])c(C(=O)N([H])[H])c5N([H])[H])C4([H])[H])C([H])([H])[H])c3[H])c([H])c([H])c2C1([H])[H]

$$$$
12:0:0
     RDKit          3D

 96101  0  0  1  0  0  0  0  0999 V2000
  -22.8060  -12.0990   20.5660 C   0  0  0  0  0  3  0  0  0  0  0  0
  -23.2990  -12.5940   22.1910 C   0  0  0  0  0  3  0  0  0  0  0  0
  -23.7620  -11.9290   19.1010 C   0  0  0  0  0  3  0  0  0  0  0  0
  -24.8220  -13.2530   22.7480 C   0  0  0  0  0  3  0  0  0  0  0  0
  -25.4610  -12.2560   19.0380 C   0  0  0  0  0  1  0  0  0  0  0  0
  -26.2410  -13.3630   21.7350 C   0  0  0  0  0  3  0  0  0  0  0  0
  -26.9710  -13.1150   17.9540 C   0  0  0  0  0 15  0  0  0  0  0  0
  -27.8750  -14.6650   21.0270 C   0  0  0  0  0  3  0  0  0  0  0  0
  -28.4610  -14.2400   19.0410 C   0  0  0  0  0  2  0  0  0  0  0  0
  -28.8180  -14.5050   22.2850 C   0  0  0  0  0  1  0  0  0  0  0  0
  -29.2380  -15.6060   18.3720 C   0  0  0  0  0  1  0  0  0  0  0  0
  -30.0130  -13.5740   18.5680 C   0  0  0  0  0  2  0  0  0  0  0  0
  -31.3010  -13.2150   19.4930 C   0  0  0  0  0  0  0  0  0  0  0  0
  -31.4970  -10.7990   20.0450 C   0  0  0  0  0  2  0  0  0  0  0  0
  -30.3790  -10.1610   19.1480 C   0  0  0  0  0  2  0  0  0  0  0  0
  -29.0020  -10.2350   19.8670 C   0  0  0  0  0  2  0  0  0  0  0  0
  -28.8810  -11.6950   20.3220 C   0  0  0  0  0  3  0  0  0  0  0  0
  -29.9740  -12.2600   21.1400 C   0  0  0  0  0  2  0  0  0  0  0  0
  -31.1360  -12.1930   20.3670 N   0  0  0  0  0  0  0  0  0  0  0  0
  -32.4310  -13.5500   19.1430 O   0  0  0  0  0  0  0  0  0  0  0  0
  -26.2240  -14.1200   20.3030 C   0  0  1  0  0  0  0  0  0  0  0  0
  -24.8090  -13.4410   20.6950 C   0  0  0  0  0  3  0  0  0  0  0  0
  -25.4360  -11.2150   21.1480 C   0  0  0  0  0  2  0  0  0  0  0  0
  -27.6880  -12.3290   20.6090 N   0  0  0  0  0  2  0  0  0  0  0  0
  -26.9200  -10.9830   21.0670 N   0  0  0  0  0  2  0  0  0  0  0  0
  -24.7080   -9.7960   21.2740 C   0  0  0  0  0  0  0  0  0  0  0  0
  -24.6580   -9.1240   22.4960 C   0  0  0  0  0  3  0  0  0  0  0  0
  -23.6830   -8.1210   22.7520 C   0  0  0  0  0  3  0  0  0  0  0  0
  -22.6440   -7.8490   21.8250 C   0  0  0  0  0  0  0  0  0  0  0  0
  -22.6820   -8.4790   20.5900 C   0  0  0  0  0  3  0  0  0  0  0  0
  -23.8130   -9.2480   20.2750 C   0  0  0  0  0  3  0  0  0  0  0  0
  -21.6100   -6.9480   22.0020 O   0  0  0  0  0  0  0  0  0  0  0  0
  -21.5770   -6.1300   23.0790 C   0  0  0  0  0  0  0  0  0  0  0  0
  -21.2900   -6.6220   24.3770 C   0  0  0  0  0  3  0  0  0  0  0  0
  -21.2130   -5.7440   25.4630 C   0  0  0  0  0  3  0  0  0  0  0  0
  -21.3710   -4.3590   25.2630 C   0  0  0  0  0  0  0  0  0  0  0  0
  -21.6330   -3.8590   23.9680 C   0  0  0  0  0  3  0  0  0  0  0  0
  -21.7350   -4.7380   22.8920 C   0  0  0  0  0  0  0  0  0  0  0  0
  -21.9540   -4.2450   21.6480 F   0  0  0  0  0  0  0  0  0  0  0  0
  -21.2660   -3.5130   26.3130 F   0  0  0  0  0  0  0  0  0  0  0  0
  -23.5230  -14.2810   20.5930 C   0  0  0  0  0  0  0  0  0  0  0  0
  -22.5100  -14.1940   21.4710 N   0  0  0  0  0  0  0  0  0  0  0  0
  -23.3770  -14.9170   19.5870 O   0  0  0  0  0  0  0  0  0  0  0  0
  -22.5740  -13.5330   22.2230 H   0  0  0  0  0  0  0  0  0  0  0  0
  -21.6090  -14.5970   21.2690 H   0  0  0  0  0  0  0  0  0  0  0  0
  -26.2670  -15.3220   19.6840 N   0  0  0  0  0  0  0  0  0  0  0  0
  -25.3080  -15.4070   19.3560 H   0  0  0  0  0  0  0  0  0  0  0  0
  -26.9270  -15.2270   18.9300 H   0  0  0  0  0  0  0  0  0  0  0  0
  -27.7990  -16.5900   20.7750 C   0  0  0  0  0  2  0  0  0  0  0  0
  -27.8740  -18.0270   19.4360 C   0  0  0  0  0  2  0  0  0  0  0  0
  -29.0570  -18.9090   18.4890 N   0  0  0  0  0  4  0  0  0  0  0  0
  -29.9320  -18.3990   18.4160 H   0  0  0  0  0  0  0  0  0  0  0  0
  -28.6490  -18.6420   17.6060 H   0  0  0  0  0  0  0  0  0  0  0  0
  -29.3570  -20.5860   18.0900 C   0  0  0  0  0  2  0  0  0  0  0  0
  -30.1820  -21.5600   16.6550 C   0  0  0  0  0  2  0  0  0  0  0  0
  -31.2080  -22.9020   16.1620 O   0  0  0  0  0  0  0  0  0  0  0  0
  -34.8090  -29.1590   18.4160 C   0  0  0  0  0  0  0  0  0  0  0  0
  -31.2450  -24.4280   16.2230 C   0  0  0  0  0  0  0  0  0  0  0  0
  -32.3580  -28.9850   18.6210 C   0  0  0  0  0  3  0  0  0  0  0  0
  -31.1510  -27.2680   17.0890 C   0  0  0  0  0  0  0  0  0  0  0  0
  -33.5310  -27.8360   16.6370 C   0  0  0  0  0  2  0  0  0  0  0  0
  -32.3550  -26.8030   16.5560 C   0  0  0  0  0  0  0  0  0  0  0  0
  -32.3830  -25.3960   16.0810 C   0  0  0  0  0  3  0  0  0  0  0  0
  -30.0650  -25.1020   16.5760 C   0  0  0  0  0  3  0  0  0  0  0  0
  -30.0130  -26.4450   17.0400 C   0  0  0  0  0  3  0  0  0  0  0  0
  -31.1220  -28.6490   17.7350 C   0  0  0  0  0  2  0  0  0  0  0  0
  -33.6340  -28.6630   17.8990 N   0  0  0  0  0  0  0  0  0  0  0  0
  -34.8310  -29.8330   19.4570 O   0  0  0  0  0  0  0  0  0  0  0  0
  -32.2690  -28.2760   19.9960 C   0  0  0  0  0  0  0  0  0  0  0  0
  -31.3550  -28.7130   20.8860 N   0  0  0  0  0  0  0  0  0  0  0  0
  -33.0180  -27.3260   20.2430 O   0  0  0  0  0  0  0  0  0  0  0  0
  -30.7970  -29.5190   20.6460 H   0  0  0  0  0  0  0  0  0  0  0  0
  -29.1610  -28.8280   23.7850 C   0  0  0  0  0  0  0  0  0  0  0  0
  -31.0860  -28.1150   22.2010 C   0  0  0  0  0  3  0  0  0  0  0  0
  -30.3260  -26.7750   22.0670 C   0  0  0  0  0  2  0  0  0  0  0  0
  -28.8020  -26.9210   22.1490 C   0  0  0  0  0  2  0  0  0  0  0  0
  -28.4020  -27.5400   23.4910 C   0  0  0  0  0  2  0  0  0  0  0  0
  -30.4130  -29.0990   23.1660 C   0  0  0  0  0  0  0  0  0  0  0  0
  -31.0650  -30.3180   23.4450 C   0  0  0  0  0  3  0  0  0  0  0  0
  -30.4900  -31.2620   24.3150 C   0  0  0  0  0  3  0  0  0  0  0  0
  -29.2600  -30.9850   24.9360 C   0  0  0  0  0  3  0  0  0  0  0  0
  -28.6000  -29.7700   24.6760 C   0  0  0  0  0  3  0  0  0  0  0  0
  -36.1700  -28.9170   17.6950 C   0  0  0  0  0  3  0  0  0  0  0  0
  -36.9750  -30.1460   17.8150 N   0  0  0  0  0  0  0  0  0  0  0  0
  -37.0920  -31.0900   16.8730 C   0  0  0  0  0  0  0  0  0  0  0  0
  -36.5740  -30.9830   15.7570 O   0  0  0  0  0  0  0  0  0  0  0  0
  -37.3840  -30.3290   18.7210 H   0  0  0  0  0  0  0  0  0  0  0  0
  -36.9700  -33.5060   17.5740 C   0  0  0  0  0  1  0  0  0  0  0  0
  -37.9130  -32.3500   17.2070 C   0  0  0  0  0  3  0  0  0  0  0  0
  -39.9240  -31.8490   15.8940 C   0  0  0  0  0  1  0  0  0  0  0  0
  -38.8210  -32.7760   16.1190 N   0  0  0  0  0  0  0  0  0  0  0  0
  -39.2210  -33.6840   16.3330 H   0  0  0  0  0  0  0  0  0  0  0  0
  -36.9820  -27.6990   18.2910 C   0  0  1  0  0  0  0  0  0  0  0  0
  -37.1600  -27.7580   19.8240 C   0  0  0  0  0  1  0  0  0  0  0  0
  -36.3260  -26.3450   17.9410 C   0  0  0  0  0  1  0  0  0  0  0  0
  -38.4070  -27.6690   17.6930 C   0  0  0  0  0  1  0  0  0  0  0  0
  1  2  1  0
  2  4  2  0
  3  1  2  0
  5  3  1  0
  6  4  1  0
  8 10  1  0
 11  9  1  0
 12  9  1  0
 12 13  1  0
 13 19  1  0
 14 19  1  0
 15 16  1  0
 15 14  1  0
 16 17  1  0
 17 24  1  0
 17 18  1  0
 19 18  1  0
 20 13  2  0
 21 46  1  0
 21 22  1  0
 21  8  1  1
 21  6  1  0
 22 41  1  0
 22  6  1  0
 23 26  1  0
 24 25  1  0
 25 23  1  0
 26 27  1  0
 27 28  2  0
 29 32  1  0
 29 28  1  0
 30 29  2  0
 31 30  1  0
 31 26  2  0
 32 33  1  0
 33 34  1  0
 34 35  2  0
 36 35  1  0
 36 40  1  0
 37 36  2  0
 38 33  2  0
 38 37  1  0
 39 38  1  0
 41 42  1  0
 42 44  1  0
 43 41  2  0
 45 42  1  0
 47 46  1  0
 48 46  1  0
 49  8  1  0
 50 49  1  0
 51 50  1  0
 52 51  1  0
 53 51  1  0
 54 51  1  0
 55 54  1  0
 56 58  1  0
 56 55  1  0
 57 68  2  0
 58 64  1  0
 59 69  1  0
 60 66  1  0
 61 67  1  0
 62 61  1  0
 62 60  2  0
 63 58  2  0
 63 62  1  0
 64 65  2  0
 65 60  1  0
 66 59  1  0
 67 57  1  0
 67 59  1  0
 69 71  2  0
 69 70  1  0
 72 70  1  0
 73 82  1  0
 74 70  1  0
 74 78  1  0
 75 76  1  0
 75 74  1  0
 76 77  1  0
 77 73  1  0
 78 79  1  0
 78 73  2  0
 79 80  2  0
 80 81  1  0
 82 81  2  0
 83 84  1  0
 83 93  1  0
 83 57  1  0
 84 87  1  0
 85 89  1  0
 85 84  1  0
 86 85  2  0
 89 88  1  0
 90 91  1  0
 91 92  1  0
 91 89  1  0
 93 94  1  1
 95 93  1  0
 96 93  1  0
M  ISO  4  12 100  13 100  55 101  56 101
M  END
>  <TORSDO>  (13) 
F 22

>  <SCORE>  (13) 
-0.029

>  <name>  (13) 
12

>  <ligand_id>  (13) 
12

>  <original_smiles>  (13) 
[H]c1c([H])c([H])c2c(c1[H])C([H])([H])C([H])([H])C([H])([H])C2([H])N([H])C(=O)C1([H])N(C(=O)C([H])(N([H])C(=O)C([H])(N([H])C([H])([H])[H])C([H])([H])[H])C(C([H])([H])[H])(C([H])([H])[H])C([H])([H])[H])C([H])([H])c2c([H])c(OC([H])([H])C([H])([H])[N+]([H])([H])C([H])([H])C([H])([H])C3(C([H])([H])[H])c4c([H])c([H])c([H])c([H])c4C([H])([H])C3(C([H])([H])[H])C([H])([H])C(=O)N3C([H])([H])C([H])([H])C([H])([H])C([H])(n4nc(-c5c([H])c([H])c(Oc6c([H])c([H])c(F)c([H])c6F)c([H])c5[H])c(C(=O)N([H])[H])c4N([H])[H])C3([H])[H])c([H])c([H])c2C1([H])[H]

>  <smiles>  (13) 
[H]c1c([H])c([H])c2c(c1[H])C([H])([H])C([H])([H])C([H])([H])C2([H])N([H])C(=O)C1([H])N(C(=O)C([H])(N([H])C(=O)C([H])(N([H])C([H])([H])[H])C([H])([H])[H])C(C([H])([H])[H])(C([H])([H])[H])C([H])([H])[H])C([H])([H])c2c([H])c(OC([H])([H])C([H])([H])[N+]([H])([H])C([H])([H])C([H])([H])C3(C([H])([H])[H])c4c([H])c([H])c([H])c([H])c4C([H])([H])C3(C([H])([H])[H])C([H])([H])C(=O)N3C([H])([H])C([H])([H])C([H])([H])C([H])(n4nc(-c5c([H])c([H])c(Oc6c([H])c([H])c(F)c([H])c6F)c([H])c5[H])c(C(=O)N([H])[H])c4N([H])[H])C3([H])[H])c([H])c([H])c2C1([H])[H]

$$$$
13:0:0
     RDKit          3D

 91 99  0  0  1  0  0  0  0  0999 V2000
  -28.5420  -21.6680   21.3030 C   0  0  0  0  0  3  0  0  0  0  0  0
  -28.7690  -23.2760   19.1550 C   0  0  0  0  0  3  0  0  0  0  0  0
  -29.0450  -20.7850   20.2170 C   0  0  0  0  0  0  0  0  0  0  0  0
  -28.2720  -24.1620   20.2360 C   0  0  0  0  0  0  0  0  0  0  0  0
  -28.2060  -23.1530   21.3230 C   0  0  0  0  0  0  0  0  0  0  0  0
  -29.1100  -21.7950   19.1340 C   0  0  0  0  0  0  0  0  0  0  0  0
  -27.8360  -23.6390   22.5330 F   0  0  0  0  0  0  0  0  0  0  0  0
  -29.6000  -21.3350   17.9600 F   0  0  0  0  0  0  0  0  0  0  0  0
  -28.2050  -25.7580   20.2740 O   0  0  0  0  0  0  0  0  0  0  0  0
  -24.6590  -31.9110   23.2480 C   0  0  0  0  0  0  0  0  0  0  0  0
  -27.1690  -26.8840   20.2630 C   0  0  0  0  0  0  0  0  0  0  0  0
  -23.4550  -30.5130   21.6200 C   0  0  0  0  0  3  0  0  0  0  0  0
  -24.8900  -28.8650   20.2060 C   0  0  0  0  0  0  0  0  0  0  0  0
  -26.0280  -30.6690   21.4800 C   0  0  0  0  0  2  0  0  0  0  0  0
  -26.0840  -29.2400   20.8340 C   0  0  0  0  0  0  0  0  0  0  0  0
  -27.2080  -28.2730   20.8330 C   0  0  0  0  0  3  0  0  0  0  0  0
  -25.9440  -26.6980   19.5780 C   0  0  0  0  0  3  0  0  0  0  0  0
  -24.8530  -27.6180   19.5570 C   0  0  0  0  0  3  0  0  0  0  0  0
  -23.6840  -29.8110   20.2490 C   0  0  0  0  0  2  0  0  0  0  0  0
  -24.7380  -31.0620   22.1680 N   0  0  0  0  0  0  0  0  0  0  0  0
  -23.5710  -32.2130   23.7670 O   0  0  0  0  0  0  0  0  0  0  0  0
  -22.7480  -29.5360   22.5960 C   0  0  0  0  0  0  0  0  0  0  0  0
  -21.4170  -29.3750   22.4690 N   0  0  0  0  0  0  0  0  0  0  0  0
  -23.4060  -28.9200   23.4380 O   0  0  0  0  0  0  0  0  0  0  0  0
  -20.9370  -29.9210   21.7680 H   0  0  0  0  0  0  0  0  0  0  0  0
  -18.0350  -28.1500   22.9710 C   0  0  0  0  0  0  0  0  0  0  0  0
  -20.5920  -28.4430   23.2470 C   0  0  0  0  0  3  0  0  0  0  0  0
  -20.7080  -27.0040   22.6930 C   0  0  0  0  0  2  0  0  0  0  0  0
  -19.6150  -26.6590   21.6750 C   0  0  0  0  0  2  0  0  0  0  0  0
  -18.2280  -26.7970   22.3080 C   0  0  0  0  0  2  0  0  0  0  0  0
  -19.1430  -28.9300   23.3970 C   0  0  0  0  0  0  0  0  0  0  0  0
  -18.9060  -30.1930   23.9820 C   0  0  0  0  0  3  0  0  0  0  0  0
  -17.5940  -30.6780   24.1420 C   0  0  0  0  0  3  0  0  0  0  0  0
  -16.5000  -29.8960   23.7290 C   0  0  0  0  0  3  0  0  0  0  0  0
  -16.7220  -28.6340   23.1490 C   0  0  0  0  0  3  0  0  0  0  0  0
  -25.9300  -32.5540   23.8790 C   0  0  0  0  0  3  0  0  0  0  0  0
  -26.4310  -31.7970   25.1720 C   0  0  1  0  0  0  0  0  0  0  0  0
  -25.3280  -31.5800   26.2350 C   0  0  0  0  0  1  0  0  0  0  0  0
  -27.0080  -30.4100   24.8130 C   0  0  0  0  0  1  0  0  0  0  0  0
  -27.5820  -32.5930   25.8330 C   0  0  0  0  0  1  0  0  0  0  0  0
  -25.6170  -33.9580   24.2120 N   0  0  0  0  0  0  0  0  0  0  0  0
  -25.9310  -35.0170   23.4540 C   0  0  0  0  0  0  0  0  0  0  0  0
  -26.5730  -34.9180   22.4060 O   0  0  0  0  0  0  0  0  0  0  0  0
  -25.0410  -34.1080   25.0260 H   0  0  0  0  0  0  0  0  0  0  0  0
  -24.1860  -36.8150   23.1750 C   0  0  0  0  0  1  0  0  0  0  0  0
  -25.4610  -36.4090   23.9320 C   0  0  0  0  0  3  0  0  0  0  0  0
  -27.6240  -37.3090   24.6750 C   0  0  0  0  0  1  0  0  0  0  0  0
  -26.4860  -37.4650   23.7730 N   0  0  0  0  0  0  0  0  0  0  0  0
  -26.0820  -38.3850   23.9280 H   0  0  0  0  0  0  0  0  0  0  0  0
  -29.7510  -19.0850   20.2710 C   0  0  0  0  0  2  0  0  0  0  0  0
  -29.3790  -17.2420   20.0650 C   0  0  0  0  0  3  0  0  0  0  0  0
  -30.2800  -15.6290   20.0480 C   0  0  0  0  0  0  0  0  0  0  0  0
  -30.3790  -13.0900   19.2770 C   0  0  0  0  0  2  0  0  0  0  0  0
  -29.4500  -12.7550   18.0740 C   0  0  0  0  0  2  0  0  0  0  0  0
  -28.0230  -12.4220   18.5480 C   0  0  0  0  0  2  0  0  0  0  0  0
  -27.5470  -13.4060   19.6400 C   0  0  0  0  0  3  0  0  0  0  0  0
  -28.6080  -13.6770   20.7260 C   0  0  0  0  0  2  0  0  0  0  0  0
  -29.8000  -14.2570   20.0710 N   0  0  0  0  0  0  0  0  0  0  0  0
  -31.5010  -15.6040   19.8080 O   0  0  0  0  0  0  0  0  0  0  0  0
  -25.2100  -13.9240   20.5050 C   0  0  0  0  0  0  0  0  0  0  0  0
  -24.1670  -13.1340   20.8930 C   0  0  0  0  0  0  0  0  0  0  0  0
  -24.6400  -11.7890   20.8200 C   0  0  0  0  0  0  0  0  0  0  0  0
  -26.2470  -13.0620   20.2010 N   0  0  0  0  0  0  0  0  0  0  0  0
  -25.9210  -11.7690   20.4610 N   0  0  0  0  0  0  0  0  0  0  0  0
  -23.9240  -10.5210   21.0130 C   0  0  0  0  0  0  0  0  0  0  0  0
  -24.3770   -9.5470   21.9320 C   0  0  0  0  0  3  0  0  0  0  0  0
  -23.6560   -8.3480   22.1150 C   0  0  0  0  0  3  0  0  0  0  0  0
  -22.4690   -8.1130   21.3810 C   0  0  0  0  0  0  0  0  0  0  0  0
  -22.0360   -9.0750   20.4510 C   0  0  0  0  0  3  0  0  0  0  0  0
  -22.7570  -10.2660   20.2660 C   0  0  0  0  0  3  0  0  0  0  0  0
  -21.7180   -6.9650   21.4730 O   0  0  0  0  0  0  0  0  0  0  0  0
  -21.6760   -6.2250   22.6270 C   0  0  0  0  0  0  0  0  0  0  0  0
  -21.2230   -6.7720   23.8480 C   0  0  0  0  0  3  0  0  0  0  0  0
  -21.1290   -5.9570   24.9930 C   0  0  0  0  0  3  0  0  0  0  0  0
  -21.4780   -4.5940   24.9200 C   0  0  0  0  0  0  0  0  0  0  0  0
  -21.9240   -4.0470   23.7040 C   0  0  0  0  0  3  0  0  0  0  0  0
  -22.0200   -4.8590   22.5600 C   0  0  0  0  0  0  0  0  0  0  0  0
  -22.4300   -4.3220   21.3870 F   0  0  0  0  0  0  0  0  0  0  0  0
  -21.3810   -3.8100   26.0180 F   0  0  0  0  0  0  0  0  0  0  0  0
  -22.7790  -13.6030   21.2170 C   0  0  0  0  0  0  0  0  0  0  0  0
  -22.0840  -12.8960   22.1010 N   0  0  0  0  0  0  0  0  0  0  0  0
  -22.3210  -14.6320   20.7220 O   0  0  0  0  0  0  0  0  0  0  0  0
  -22.4690  -12.0640   22.5220 H   0  0  0  0  0  0  0  0  0  0  0  0
  -21.1540  -13.1920   22.3600 H   0  0  0  0  0  0  0  0  0  0  0  0
  -25.3550  -15.3010   20.3620 N   0  0  0  0  0  0  0  0  0  0  0  0
  -24.5850  -15.9340   20.5540 H   0  0  0  0  0  0  0  0  0  0  0  0
  -26.2080  -15.7820   20.1280 H   0  0  0  0  0  0  0  0  0  0  0  0
  -28.6170  -17.2060   18.8060 N   0  0  0  0  0  4  0  0  0  0  0  0
  -27.8650  -17.8700   18.8260 H   0  0  0  0  0  0  0  0  0  0  0  0
  -28.2510  -16.2900   18.6330 H   0  0  0  0  0  0  0  0  0  0  0  0
  -29.2280  -17.4380   18.0420 H   0  0  0  0  0  0  0  0  0  0  0  0
  1  5  1  0
  2  4  1  0
  3 50  1  0
  3  1  2  0
  4  9  1  0
  4  5  2  0
  5  7  1  0
  6  2  2  0
  6  3  1  0
  8  6  1  0
 10 21  2  0
 11  9  1  0
 11 16  1  0
 12 20  1  0
 12 22  1  0
 13 19  1  0
 13 15  1  0
 14 20  1  0
 15 14  1  0
 16 15  2  0
 17 11  2  0
 18 17  1  0
 18 13  2  0
 19 12  1  0
 20 10  1  0
 22 24  2  0
 23 22  1  0
 25 23  1  0
 26 35  2  0
 26 31  1  0
 27 23  1  0
 27 31  1  0
 28 27  1  0
 29 30  1  0
 29 28  1  0
 30 26  1  0
 31 32  2  0
 32 33  1  0
 34 33  2  0
 35 34  1  0
 36 10  1  0
 36 41  1  0
 36 37  1  0
 37 40  1  1
 37 38  1  0
 39 37  1  0
 41 44  1  0
 42 46  1  0
 42 41  1  0
 43 42  2  0
 46 45  1  0
 48 49  1  0
 48 46  1  0
 48 47  1  0
 51 50  1  0
 52 51  1  0
 52 58  1  0
 53 58  1  0
 54 55  1  0
 54 53  1  0
 56 55  1  0
 56 63  1  0
 56 57  1  0
 58 57  1  0
 59 52  2  0
 60 61  2  0
 61 80  1  0
 62 61  1  0
 62 65  1  0
 63 64  1  0
 63 60  1  0
 64 62  2  0
 65 66  1  0
 66 67  2  0
 68 71  1  0
 68 67  1  0
 69 68  2  0
 70 69  1  0
 70 65  2  0
 71 72  1  0
 72 73  1  0
 73 74  2  0
 75 74  1  0
 75 79  1  0
 76 75  2  0
 77 72  2  0
 77 76  1  0
 78 77  1  0
 80 81  1  0
 81 84  1  0
 81 83  1  0
 82 80  2  0
 85 60  1  0
 85 86  1  0
 87 85  1  0
 88 89  1  0
 88 51  1  0
 90 88  1  0
 91 88  1  0
M  ISO  4   4 101   9 101  51 100  52 100
M  END
>  <TORSDO>  (14) 
F 19

>  <SCORE>  (14) 
-16.020

>  <name>  (14) 
13

>  <ligand_id>  (14) 
13

>  <original_smiles>  (14) 
[H]c1c([H])c([H])c2c(c1[H])C([H])([H])C([H])([H])C([H])([H])C2([H])N([H])C(=O)C1([H])N(C(=O)C([H])(N([H])C(=O)C([H])(N([H])C([H])([H])[H])C([H])([H])[H])C(C([H])([H])[H])(C([H])([H])[H])C([H])([H])[H])C([H])([H])c2c([H])c(Oc3c([H])c(F)c(C([H])([H])C([H])(C(=O)N4C([H])([H])C([H])([H])C([H])([H])C([H])(n5nc(-c6c([H])c([H])c(Oc7c([H])c([H])c(F)c([H])c7F)c([H])c6[H])c(C(=O)N([H])[H])c5N([H])[H])C4([H])[H])[N+]([H])([H])[H])c([H])c3F)c([H])c([H])c2C1([H])[H]

>  <smiles>  (14) 
[H]c1c([H])c([H])c2c(c1[H])C([H])([H])C([H])([H])C([H])([H])C2([H])N([H])C(=O)C1([H])N(C(=O)C([H])(N([H])C(=O)C([H])(N([H])C([H])([H])[H])C([H])([H])[H])C(C([H])([H])[H])(C([H])([H])[H])C([H])([H])[H])C([H])([H])c2c([H])c(Oc3c([H])c(F)c(C([H])([H])C([H])(C(=O)N4C([H])([H])C([H])([H])C([H])([H])C([H])(n5nc(-c6c([H])c([H])c(Oc7c([H])c([H])c(F)c([H])c7F)c([H])c6[H])c(C(=O)N([H])[H])c5N([H])[H])C4([H])[H])[N+]([H])([H])[H])c([H])c3F)c([H])c([H])c2C1([H])[H]

$$$$
14:0:0
     RDKit          3D

 89 98  0  0  1  0  0  0  0  0999 V2000
  -27.9020  -21.0340   19.8690 C   0  0  0  0  0  3  0  0  0  0  0  0
  -30.4620  -20.2320   20.2160 C   0  0  0  0  0  3  0  0  0  0  0  0
  -28.3360  -19.5840   19.8930 C   0  0  0  0  0  0  0  0  0  0  0  0
  -29.6430  -19.0030   20.0440 C   0  0  0  0  0  0  0  0  0  0  0  0
  -28.6850  -22.2920   20.0160 C   0  0  0  0  0  0  0  0  0  0  0  0
  -30.0420  -21.7040   20.1870 C   0  0  0  0  0  0  0  0  0  0  0  0
  -27.3840  -18.4050   19.8810 C   0  0  0  0  0  2  0  0  0  0  0  0
  -28.1950  -17.0530   20.0210 C   0  0  0  0  0  2  0  0  0  0  0  0
  -29.7050  -17.2260   20.3600 C   0  0  2  0  0  0  0  0  0  0  0  0
  -29.9000  -17.2040   21.8900 C   0  0  0  0  0  1  0  0  0  0  0  0
  -31.0430  -22.5960   20.3750 F   0  0  0  0  0  0  0  0  0  0  0  0
  -30.5100  -15.6270   19.8740 C   0  0  0  0  0  0  0  0  0  0  0  0
  -30.5340  -13.1190   18.9660 C   0  0  0  0  0  2  0  0  0  0  0  0
  -29.5450  -12.8350   17.7990 C   0  0  0  0  0  2  0  0  0  0  0  0
  -28.1420  -12.4870   18.3260 C   0  0  0  0  0  2  0  0  0  0  0  0
  -27.7260  -13.4340   19.4750 C   0  0  0  0  0  3  0  0  0  0  0  0
  -28.8440  -13.6490   20.5250 C   0  0  0  0  0  2  0  0  0  0  0  0
  -30.0080  -14.2570   19.8390 N   0  0  0  0  0  0  0  0  0  0  0  0
  -31.6940  -15.6130   19.4920 O   0  0  0  0  0  0  0  0  0  0  0  0
  -25.4110  -13.9300   20.4190 C   0  0  0  0  0  0  0  0  0  0  0  0
  -24.3870  -13.1380   20.8450 C   0  0  0  0  0  0  0  0  0  0  0  0
  -24.8560  -11.7950   20.7270 C   0  0  0  0  0  0  0  0  0  0  0  0
  -26.4440  -13.0780   20.0720 N   0  0  0  0  0  0  0  0  0  0  0  0
  -26.1250  -11.7800   20.3190 N   0  0  0  0  0  0  0  0  0  0  0  0
  -24.1410  -10.5270   20.9160 C   0  0  0  0  0  0  0  0  0  0  0  0
  -24.5760   -9.5640   21.8530 C   0  0  0  0  0  3  0  0  0  0  0  0
  -23.8530   -8.3640   22.0320 C   0  0  0  0  0  3  0  0  0  0  0  0
  -22.6820   -8.1200   21.2760 C   0  0  0  0  0  0  0  0  0  0  0  0
  -22.2670   -9.0720   20.3280 C   0  0  0  0  0  3  0  0  0  0  0  0
  -22.9900  -10.2620   20.1460 C   0  0  0  0  0  3  0  0  0  0  0  0
  -21.9310   -6.9730   21.3650 O   0  0  0  0  0  0  0  0  0  0  0  0
  -21.7950   -6.2930   22.5490 C   0  0  0  0  0  0  0  0  0  0  0  0
  -21.2470   -6.9010   23.6990 C   0  0  0  0  0  3  0  0  0  0  0  0
  -21.0620   -6.1460   24.8740 C   0  0  0  0  0  3  0  0  0  0  0  0
  -21.4140   -4.7830   24.8990 C   0  0  0  0  0  0  0  0  0  0  0  0
  -21.9550   -4.1750   23.7530 C   0  0  0  0  0  3  0  0  0  0  0  0
  -22.1420   -4.9270   22.5810 C   0  0  0  0  0  0  0  0  0  0  0  0
  -22.6440   -4.3310   21.4720 F   0  0  0  0  0  0  0  0  0  0  0  0
  -21.2290   -4.0550   26.0250 F   0  0  0  0  0  0  0  0  0  0  0  0
  -23.0160  -13.6050   21.2330 C   0  0  0  0  0  0  0  0  0  0  0  0
  -22.3570  -12.8890   22.1360 N   0  0  0  0  0  0  0  0  0  0  0  0
  -22.5420  -14.6450   20.7740 O   0  0  0  0  0  0  0  0  0  0  0  0
  -22.7550  -12.0500   22.5300 H   0  0  0  0  0  0  0  0  0  0  0  0
  -21.4390  -13.1850   22.4360 H   0  0  0  0  0  0  0  0  0  0  0  0
  -25.5210  -15.3030   20.2640 N   0  0  0  0  0  0  0  0  0  0  0  0
  -24.7370  -15.9220   20.4380 H   0  0  0  0  0  0  0  0  0  0  0  0
  -26.3060  -15.7680   19.8280 H   0  0  0  0  0  0  0  0  0  0  0  0
  -27.9230  -23.9710   19.9840 C   0  0  0  0  0  2  0  0  0  0  0  0
  -28.2340  -25.6520   20.1720 O   0  0  0  0  0  0  0  0  0  0  0  0
  -24.6720  -31.7990   23.1580 C   0  0  0  0  0  0  0  0  0  0  0  0
  -27.2550  -26.8360   20.1150 C   0  0  0  0  0  0  0  0  0  0  0  0
  -23.4990  -30.4180   21.4960 C   0  0  0  0  0  3  0  0  0  0  0  0
  -24.9630  -28.8090   20.0700 C   0  0  0  0  0  0  0  0  0  0  0  0
  -26.0740  -30.5960   21.3850 C   0  0  0  0  0  2  0  0  0  0  0  0
  -26.1510  -29.1790   20.7120 C   0  0  0  0  0  0  0  0  0  0  0  0
  -27.2850  -28.2190   20.7030 C   0  0  0  0  0  3  0  0  0  0  0  0
  -26.0310  -26.6580   19.4230 C   0  0  0  0  0  3  0  0  0  0  0  0
  -24.9370  -27.5720   19.4030 C   0  0  0  0  0  3  0  0  0  0  0  0
  -23.7470  -29.7440   20.1170 C   0  0  0  0  0  2  0  0  0  0  0  0
  -24.7710  -30.9680   22.0660 N   0  0  0  0  0  0  0  0  0  0  0  0
  -23.5750  -32.0860   23.6680 O   0  0  0  0  0  0  0  0  0  0  0  0
  -22.7840  -29.4210   22.4470 C   0  0  0  0  0  0  0  0  0  0  0  0
  -21.4570  -29.2500   22.2980 N   0  0  0  0  0  0  0  0  0  0  0  0
  -23.4350  -28.8010   23.2900 O   0  0  0  0  0  0  0  0  0  0  0  0
  -20.9820  -29.8020   21.5960 H   0  0  0  0  0  0  0  0  0  0  0  0
  -18.0790  -27.9840   22.7340 C   0  0  0  0  0  0  0  0  0  0  0  0
  -20.6280  -28.3000   23.0510 C   0  0  0  0  0  3  0  0  0  0  0  0
  -20.7670  -26.8690   22.4820 C   0  0  0  0  0  2  0  0  0  0  0  0
  -19.6950  -26.5260   21.4430 C   0  0  0  0  0  2  0  0  0  0  0  0
  -18.2970  -26.6410   22.0550 C   0  0  0  0  0  2  0  0  0  0  0  0
  -19.1730  -28.7700   23.1860 C   0  0  0  0  0  0  0  0  0  0  0  0
  -18.9130  -30.0220   23.7830 C   0  0  0  0  0  3  0  0  0  0  0  0
  -17.5930  -30.4910   23.9290 C   0  0  0  0  0  3  0  0  0  0  0  0
  -16.5150  -29.7030   23.4910 C   0  0  0  0  0  3  0  0  0  0  0  0
  -16.7580  -28.4510   22.8980 C   0  0  0  0  0  3  0  0  0  0  0  0
  -25.9300  -32.4430   23.8150 C   0  0  0  0  0  3  0  0  0  0  0  0
  -25.6040  -33.8400   24.1630 N   0  0  0  0  0  0  0  0  0  0  0  0
  -25.9170  -34.9120   23.4220 C   0  0  0  0  0  0  0  0  0  0  0  0
  -26.5690  -34.8290   22.3790 O   0  0  0  0  0  0  0  0  0  0  0  0
  -25.0230  -33.9750   24.9760 H   0  0  0  0  0  0  0  0  0  0  0  0
  -24.1560  -36.6940   23.1560 C   0  0  0  0  0  1  0  0  0  0  0  0
  -25.4320  -36.2920   23.9130 C   0  0  0  0  0  3  0  0  0  0  0  0
  -27.5820  -37.2030   24.6770 C   0  0  0  0  0  1  0  0  0  0  0  0
  -26.4460  -37.3600   23.7720 N   0  0  0  0  0  0  0  0  0  0  0  0
  -26.0330  -38.2730   23.9380 H   0  0  0  0  0  0  0  0  0  0  0  0
  -26.4190  -31.6710   25.1030 C   0  0  1  0  0  0  0  0  0  0  0  0
  -25.3040  -31.4360   26.1500 C   0  0  0  0  0  1  0  0  0  0  0  0
  -27.0080  -30.2910   24.7320 C   0  0  0  0  0  1  0  0  0  0  0  0
  -27.5590  -32.4620   25.7880 C   0  0  0  0  0  1  0  0  0  0  0  0
  1  3  2  0
  1  5  1  0
  3  4  1  0
  4  2  2  0
  4  9  1  0
  5  6  2  0
  6  2  1  0
  6 11  1  0
  7  3  1  0
  7  8  1  0
  8  9  1  0
  9 10  1  1
 12  9  1  0
 13 18  1  0
 14 15  1  0
 14 13  1  0
 16 15  1  0
 16 23  1  0
 16 17  1  0
 18 12  1  0
 18 17  1  0
 19 12  2  0
 20 21  2  0
 21 40  1  0
 22 21  1  0
 22 25  1  0
 23 24  1  0
 23 20  1  0
 24 22  2  0
 25 26  1  0
 26 27  2  0
 28 31  1  0
 28 27  1  0
 29 28  2  0
 30 29  1  0
 30 25  2  0
 31 32  1  0
 32 37  2  0
 32 33  1  0
 33 34  2  0
 34 35  1  0
 35 39  1  0
 36 35  2  0
 37 36  1  0
 38 37  1  0
 40 41  1  0
 41 44  1  0
 41 43  1  0
 42 40  2  0
 45 20  1  0
 45 46  1  0
 47 45  1  0
 48  5  1  0
 48 49  1  0
 50 61  2  0
 51 49  1  0
 51 56  1  0
 52 60  1  0
 52 62  1  0
 53 59  1  0
 53 55  1  0
 54 60  1  0
 55 54  1  0
 56 55  2  0
 57 51  2  0
 58 57  1  0
 58 53  2  0
 59 52  1  0
 60 50  1  0
 62 64  2  0
 63 62  1  0
 65 63  1  0
 66 75  2  0
 66 71  1  0
 67 63  1  0
 67 71  1  0
 68 67  1  0
 69 70  1  0
 69 68  1  0
 70 66  1  0
 71 72  2  0
 72 73  1  0
 74 73  2  0
 75 74  1  0
 76 50  1  0
 76 77  1  0
 76 86  1  0
 77 80  1  0
 78 82  1  0
 78 77  1  0
 79 78  2  0
 82 81  1  0
 84 82  1  0
 84 85  1  0
 84 83  1  0
 86 89  1  1
 86 87  1  0
 88 86  1  0
M  ISO  4   9 100  12 100  48 101  49 101
M  END
>  <TORSDO>  (15) 
F 17

>  <SCORE>  (15) 
-16.639

>  <name>  (15) 
14

>  <ligand_id>  (15) 
14

>  <original_smiles>  (15) 
[H]c1c([H])c([H])c2c(c1[H])C([H])([H])C([H])([H])C([H])([H])C2([H])N([H])C(=O)C1([H])N(C(=O)C([H])(N([H])C(=O)C([H])(N([H])C([H])([H])[H])C([H])([H])[H])C(C([H])([H])[H])(C([H])([H])[H])C([H])([H])[H])C([H])([H])c2c([H])c(OC([H])([H])c3c([H])c4c(c([H])c3F)C(C(=O)N3C([H])([H])C([H])([H])C([H])([H])C([H])(n5nc(-c6c([H])c([H])c(Oc7c([H])c([H])c(F)c([H])c7F)c([H])c6[H])c(C(=O)N([H])[H])c5N([H])[H])C3([H])[H])(C([H])([H])[H])C([H])([H])C4([H])[H])c([H])c([H])c2C1([H])[H]

>  <smiles>  (15) 
[H]c1c([H])c([H])c2c(c1[H])C([H])([H])C([H])([H])C([H])([H])C2([H])N([H])C(=O)C1([H])N(C(=O)C([H])(N([H])C(=O)C([H])(N([H])C([H])([H])[H])C([H])([H])[H])C(C([H])([H])[H])(C([H])([H])[H])C([H])([H])[H])C([H])([H])c2c([H])c(OC([H])([H])c3c([H])c4c(c([H])c3F)C(C(=O)N3C([H])([H])C([H])([H])C([H])([H])C([H])(n5nc(-c6c([H])c([H])c(Oc7c([H])c([H])c(F)c([H])c7F)c([H])c6[H])c(C(=O)N([H])[H])c5N([H])[H])C3([H])[H])(C([H])([H])[H])C([H])([H])C4([H])[H])c([H])c([H])c2C1([H])[H]

$$$$
15:0:0
     RDKit          3D

 94103  0  0  1  0  0  0  0  0999 V2000
  -29.5900  -23.3900   17.5690 C   0  0  0  0  0  3  0  0  0  0  0  0
  -30.2550  -22.1930   17.9000 C   0  0  0  0  0  3  0  0  0  0  0  0
  -31.4470  -23.3520   19.6760 C   0  0  0  0  0  3  0  0  0  0  0  0
  -29.8350  -24.5710   18.3020 C   0  0  0  0  0  0  0  0  0  0  0  0
  -30.7830  -24.5530   19.3530 C   0  0  0  0  0  0  0  0  0  0  0  0
  -31.1780  -22.1650   18.9680 C   0  0  0  0  0  0  0  0  0  0  0  0
  -29.0840  -25.8440   17.9280 C   0  0  0  0  0  2  0  0  0  0  0  0
  -31.0810  -25.7970   20.1740 C   0  0  0  0  0  2  0  0  0  0  0  0
  -30.6480  -27.0990   19.4860 C   0  0  0  0  0  2  0  0  0  0  0  0
  -29.2180  -26.9900   18.9520 C   0  0  0  0  0  3  0  0  0  0  0  0
  -31.8300  -20.9890   19.3570 N   0  0  0  0  0  0  0  0  0  0  0  0
  -32.4530  -21.0880   20.1540 H   0  0  0  0  0  0  0  0  0  0  0  0
  -31.0480  -19.7590   19.3360 C   0  0  0  0  0  2  0  0  0  0  0  0
  -31.4640  -18.8210   20.4750 C   0  0  0  0  0  2  0  0  0  0  0  0
  -30.5790  -17.5720   20.5560 C   0  0  0  0  0  2  0  0  0  0  0  0
  -31.0320  -16.6060   21.6680 C   0  0  0  0  0  2  0  0  0  0  0  0
  -30.2890  -15.2520   21.6450 C   0  0  0  0  0  2  0  0  0  0  0  0
  -30.6910  -14.3250   20.4840 C   0  0  0  0  0  0  0  0  0  0  0  0
  -30.2820  -12.2950   19.1350 C   0  0  0  0  0  2  0  0  0  0  0  0
  -29.3180  -12.5760   17.9690 C   0  0  0  0  0  2  0  0  0  0  0  0
  -27.8540  -12.4420   18.4280 C   0  0  0  0  0  2  0  0  0  0  0  0
  -27.5620  -13.2300   19.7310 C   0  0  0  0  0  3  0  0  0  0  0  0
  -28.6310  -12.9170   20.8060 C   0  0  0  0  0  2  0  0  0  0  0  0
  -29.9530  -13.2130   20.2320 N   0  0  0  0  0  0  0  0  0  0  0  0
  -31.7000  -14.6040   19.8250 O   0  0  0  0  0  0  0  0  0  0  0  0
  -25.1650  -13.8490   20.4440 C   0  0  0  0  0  0  0  0  0  0  0  0
  -24.0980  -13.0810   20.8240 C   0  0  0  0  0  0  0  0  0  0  0  0
  -24.5560  -11.7280   20.7970 C   0  0  0  0  0  0  0  0  0  0  0  0
  -26.2090  -12.9660   20.2180 N   0  0  0  0  0  0  0  0  0  0  0  0
  -25.8440  -11.6850   20.4820 N   0  0  0  0  0  0  0  0  0  0  0  0
  -23.8310  -10.4670   21.0020 C   0  0  0  0  0  0  0  0  0  0  0  0
  -24.2780   -9.5030   21.9330 C   0  0  0  0  0  3  0  0  0  0  0  0
  -23.5550   -8.3050   22.1240 C   0  0  0  0  0  3  0  0  0  0  0  0
  -22.3700   -8.0670   21.3880 C   0  0  0  0  0  0  0  0  0  0  0  0
  -21.9430   -9.0200   20.4470 C   0  0  0  0  0  3  0  0  0  0  0  0
  -22.6670  -10.2080   20.2530 C   0  0  0  0  0  3  0  0  0  0  0  0
  -21.6180   -6.9210   21.4890 O   0  0  0  0  0  0  0  0  0  0  0  0
  -21.5950   -6.1750   22.6400 C   0  0  0  0  0  0  0  0  0  0  0  0
  -21.2040   -6.7280   23.8780 C   0  0  0  0  0  3  0  0  0  0  0  0
  -21.1270   -5.9080   25.0220 C   0  0  0  0  0  3  0  0  0  0  0  0
  -21.4310   -4.5370   24.9270 C   0  0  0  0  0  0  0  0  0  0  0  0
  -21.8150   -3.9830   23.6940 C   0  0  0  0  0  3  0  0  0  0  0  0
  -21.8920   -4.8000   22.5520 C   0  0  0  0  0  0  0  0  0  0  0  0
  -22.2430   -4.2580   21.3610 F   0  0  0  0  0  0  0  0  0  0  0  0
  -21.3500   -3.7460   26.0230 F   0  0  0  0  0  0  0  0  0  0  0  0
  -22.7020  -13.5590   21.1080 C   0  0  0  0  0  0  0  0  0  0  0  0
  -21.9830  -12.8680   21.9860 N   0  0  0  0  0  0  0  0  0  0  0  0
  -22.2600  -14.5830   20.5900 O   0  0  0  0  0  0  0  0  0  0  0  0
  -22.3510  -12.0360   22.4240 H   0  0  0  0  0  0  0  0  0  0  0  0
  -21.0500  -13.1740   22.2230 H   0  0  0  0  0  0  0  0  0  0  0  0
  -25.3300  -15.2190   20.2540 N   0  0  0  0  0  0  0  0  0  0  0  0
  -24.5670  -15.8790   20.3620 H   0  0  0  0  0  0  0  0  0  0  0  0
  -26.1890  -15.6550   19.9430 H   0  0  0  0  0  0  0  0  0  0  0  0
  -28.3920  -26.7450   20.0880 O   0  0  0  0  0  0  0  0  0  0  0  0
  -24.6210  -31.8830   23.2410 C   0  0  0  0  0  0  0  0  0  0  0  0
  -27.2350  -27.4720   20.1230 C   0  0  0  0  0  0  0  0  0  0  0  0
  -23.4010  -30.4800   21.6080 C   0  0  0  0  0  3  0  0  0  0  0  0
  -24.8410  -28.9450   20.1720 C   0  0  0  0  0  0  0  0  0  0  0  0
  -25.9190  -30.8510   21.3840 C   0  0  0  0  0  2  0  0  0  0  0  0
  -26.0010  -29.4800   20.7460 C   0  0  0  0  0  0  0  0  0  0  0  0
  -27.2050  -28.7460   20.7280 C   0  0  0  0  0  3  0  0  0  0  0  0
  -26.0620  -26.9310   19.5630 C   0  0  0  0  0  3  0  0  0  0  0  0
  -24.8630  -27.6680   19.5830 C   0  0  0  0  0  3  0  0  0  0  0  0
  -23.5950  -29.7990   20.2270 C   0  0  0  0  0  2  0  0  0  0  0  0
  -24.6660  -31.0860   22.1360 N   0  0  0  0  0  0  0  0  0  0  0  0
  -23.5450  -32.1560   23.7910 O   0  0  0  0  0  0  0  0  0  0  0  0
  -22.7620  -29.4580   22.5760 C   0  0  0  0  0  0  0  0  0  0  0  0
  -21.4380  -29.2710   22.4560 N   0  0  0  0  0  0  0  0  0  0  0  0
  -23.4550  -28.8350   23.3860 O   0  0  0  0  0  0  0  0  0  0  0  0
  -20.9420  -29.8280   21.7730 H   0  0  0  0  0  0  0  0  0  0  0  0
  -18.0700  -28.0650   22.9650 C   0  0  0  0  0  0  0  0  0  0  0  0
  -20.6270  -28.3340   23.2320 C   0  0  0  0  0  3  0  0  0  0  0  0
  -20.7340  -26.9020   22.6610 C   0  0  0  0  0  2  0  0  0  0  0  0
  -19.6300  -26.5690   21.6510 C   0  0  0  0  0  2  0  0  0  0  0  0
  -18.2490  -26.7130   22.2960 C   0  0  0  0  0  2  0  0  0  0  0  0
  -19.1860  -28.8330   23.3890 C   0  0  0  0  0  0  0  0  0  0  0  0
  -18.9650  -30.0980   23.9760 C   0  0  0  0  0  3  0  0  0  0  0  0
  -17.6580  -30.5970   24.1370 C   0  0  0  0  0  3  0  0  0  0  0  0
  -16.5560  -29.8280   23.7270 C   0  0  0  0  0  3  0  0  0  0  0  0
  -16.7630  -28.5620   23.1500 C   0  0  0  0  0  3  0  0  0  0  0  0
  -25.9140  -32.5120   23.8490 C   0  0  0  0  0  3  0  0  0  0  0  0
  -25.6110  -33.9090   24.1830 N   0  0  0  0  0  0  0  0  0  0  0  0
  -25.9410  -34.9620   23.4220 C   0  0  0  0  0  0  0  0  0  0  0  0
  -26.6070  -34.8590   22.3880 O   0  0  0  0  0  0  0  0  0  0  0  0
  -25.0090  -34.0630   24.9810 H   0  0  0  0  0  0  0  0  0  0  0  0
  -24.2110  -36.7520   23.0750 C   0  0  0  0  0  1  0  0  0  0  0  0
  -25.4560  -36.3500   23.8830 C   0  0  0  0  0  3  0  0  0  0  0  0
  -27.5960  -37.2270   24.7060 C   0  0  0  0  0  1  0  0  0  0  0  0
  -26.4880  -37.4030   23.7680 N   0  0  0  0  0  0  0  0  0  0  0  0
  -26.0860  -38.3230   23.9230 H   0  0  0  0  0  0  0  0  0  0  0  0
  -26.4500  -31.7340   25.1130 C   0  0  1  0  0  0  0  0  0  0  0  0
  -25.3720  -31.4900   26.1950 C   0  0  0  0  0  1  0  0  0  0  0  0
  -27.0240  -30.3570   24.7040 C   0  0  0  0  0  1  0  0  0  0  0  0
  -27.6100  -32.5250   25.7640 C   0  0  0  0  0  1  0  0  0  0  0  0
  1  2  2  0
  1  4  1  0
  2  6  1  0
  4  5  2  0
  5  3  1  0
  5  8  1  0
  6 11  1  0
  6  3  2  0
  7  4  1  0
  7 10  1  0
  9  8  1  0
 10  9  1  0
 10 54  1  0
 11 12  1  0
 13 11  1  0
 13 14  1  0
 14 15  1  0
 15 16  1  0
 17 16  1  0
 18 17  1  0
 19 24  1  0
 20 21  1  0
 20 19  1  0
 22 21  1  0
 22 29  1  0
 22 23  1  0
 24 18  1  0
 24 23  1  0
 25 18  2  0
 26 27  2  0
 27 46  1  0
 28 27  1  0
 28 31  1  0
 29 26  1  0
 29 30  1  0
 30 28  2  0
 31 32  1  0
 32 33  2  0
 34 37  1  0
 34 33  1  0
 35 34  2  0
 36 35  1  0
 36 31  2  0
 37 38  1  0
 38 39  1  0
 39 40  2  0
 41 40  1  0
 41 45  1  0
 42 41  2  0
 43 38  2  0
 43 42  1  0
 44 43  1  0
 46 47  1  0
 47 50  1  0
 47 49  1  0
 48 46  2  0
 51 52  1  0
 51 26  1  0
 53 51  1  0
 54 56  1  0
 55 66  2  0
 56 61  1  0
 57 65  1  0
 57 67  1  0
 58 64  1  0
 58 60  1  0
 59 65  1  0
 60 59  1  0
 61 60  2  0
 62 63  1  0
 62 56  2  0
 63 58  2  0
 64 57  1  0
 65 55  1  0
 67 69  2  0
 68 67  1  0
 70 68  1  0
 71 80  2  0
 71 76  1  0
 72 68  1  0
 72 76  1  0
 73 72  1  0
 74 75  1  0
 74 73  1  0
 75 71  1  0
 76 77  2  0
 77 78  1  0
 79 78  2  0
 80 79  1  0
 81 55  1  0
 81 82  1  0
 81 91  1  0
 82 85  1  0
 83 87  1  0
 83 82  1  0
 84 83  2  0
 87 86  1  0
 89 87  1  0
 89 90  1  0
 89 88  1  0
 91 94  1  1
 91 92  1  0
 93 91  1  0
M  ISO  4  10 101  17 100  18 100  54 101
M  END
>  <TORSDO>  (16) 
F 22

>  <SCORE>  (16) 
-12.938

>  <name>  (16) 
15

>  <ligand_id>  (16) 
15

>  <original_smiles>  (16) 
[H]c1c([H])c([H])c2c(c1[H])C([H])([H])C([H])([H])C([H])([H])C2([H])N([H])C(=O)C1([H])N(C(=O)C([H])(N([H])C(=O)C([H])(N([H])C([H])([H])[H])C([H])([H])[H])C(C([H])([H])[H])(C([H])([H])[H])C([H])([H])[H])C([H])([H])c2c([H])c(OC3([H])C([H])([H])c4c([H])c([H])c(N([H])C([H])([H])C([H])([H])C([H])([H])C([H])([H])C([H])([H])C(=O)N5C([H])([H])C([H])([H])C([H])([H])C([H])(n6nc(-c7c([H])c([H])c(Oc8c([H])c([H])c(F)c([H])c8F)c([H])c7[H])c(C(=O)N([H])[H])c6N([H])[H])C5([H])[H])c([H])c4C([H])([H])C3([H])[H])c([H])c([H])c2C1([H])[H]

>  <smiles>  (16) 
[H]c1c([H])c([H])c2c(c1[H])C([H])([H])C([H])([H])C([H])([H])C2([H])N([H])C(=O)C1([H])N(C(=O)C([H])(N([H])C(=O)C([H])(N([H])C([H])([H])[H])C([H])([H])[H])C(C([H])([H])[H])(C([H])([H])[H])C([H])([H])[H])C([H])([H])c2c([H])c(OC3([H])C([H])([H])c4c([H])c([H])c(N([H])C([H])([H])C([H])([H])C([H])([H])C([H])([H])C([H])([H])C(=O)N5C([H])([H])C([H])([H])C([H])([H])C([H])(n6nc(-c7c([H])c([H])c(Oc8c([H])c([H])c(F)c([H])c8F)c([H])c7[H])c(C(=O)N([H])[H])c6N([H])[H])C5([H])[H])c([H])c4C([H])([H])C3([H])[H])c([H])c([H])c2C1([H])[H]

$$$$
16:0:0
     RDKit          3D

 92101  0  0  1  0  0  0  0  0999 V2000
  -30.0650  -16.5790   21.4980 C   0  0  0  0  0  3  0  0  0  0  0  0
  -29.7180  -17.8700   21.9430 C   0  0  0  0  0  3  0  0  0  0  0  0
  -30.5180  -17.5420   19.3190 C   0  0  0  0  0  3  0  0  0  0  0  0
  -30.4980  -16.3110   20.1790 C   0  0  0  0  0  0  0  0  0  0  0  0
  -29.8120  -19.0130   21.1170 C   0  0  0  0  0  0  0  0  0  0  0  0
  -30.1420  -18.9300   19.7430 C   0  0  0  0  0  0  0  0  0  0  0  0
  -29.7470  -20.3880   21.7580 C   0  0  0  0  0  2  0  0  0  0  0  0
  -30.9940  -21.2320   21.3870 C   0  0  0  0  0  2  0  0  0  0  0  0
  -31.4770  -21.0480   19.9220 C   0  0  0  0  0  2  0  0  0  0  0  0
  -30.3920  -20.4150   19.0220 C   0  0  0  0  0  3  0  0  0  0  0  0
  -31.0830  -14.8370   19.8710 C   0  0  0  0  0  0  0  0  0  0  0  0
  -30.8230  -12.3850   19.2400 C   0  0  0  0  0  2  0  0  0  0  0  0
  -29.8840  -12.2310   18.0190 C   0  0  0  0  0  2  0  0  0  0  0  0
  -28.4100  -12.1430   18.4630 C   0  0  0  0  0  2  0  0  0  0  0  0
  -28.0580  -13.2200   19.5180 C   0  0  0  0  0  3  0  0  0  0  0  0
  -29.1170  -13.3080   20.6340 C   0  0  0  0  0  2  0  0  0  0  0  0
  -30.4140  -13.6070   20.0030 N   0  0  0  0  0  0  0  0  0  0  0  0
  -32.2340  -14.7760   19.4210 O   0  0  0  0  0  0  0  0  0  0  0  0
  -25.7800  -14.0290   20.3670 C   0  0  0  0  0  0  0  0  0  0  0  0
  -24.6520  -13.3630   20.7570 C   0  0  0  0  0  0  0  0  0  0  0  0
  -24.9660  -11.9720   20.6770 C   0  0  0  0  0  0  0  0  0  0  0  0
  -26.7130  -13.0510   20.0600 N   0  0  0  0  0  0  0  0  0  0  0  0
  -26.2320  -11.8050   20.3120 N   0  0  0  0  0  0  0  0  0  0  0  0
  -24.1110  -10.7900   20.8670 C   0  0  0  0  0  0  0  0  0  0  0  0
  -24.4880   -9.7360   21.7280 C   0  0  0  0  0  3  0  0  0  0  0  0
  -23.6410   -8.6220   21.9090 C   0  0  0  0  0  3  0  0  0  0  0  0
  -22.4000   -8.5560   21.2310 C   0  0  0  0  0  0  0  0  0  0  0  0
  -22.0410   -9.5970   20.3550 C   0  0  0  0  0  3  0  0  0  0  0  0
  -22.8880  -10.7020   20.1710 C   0  0  0  0  0  3  0  0  0  0  0  0
  -21.5250   -7.5010   21.3250 O   0  0  0  0  0  0  0  0  0  0  0  0
  -21.5160   -6.6660   22.4140 C   0  0  0  0  0  0  0  0  0  0  0  0
  -21.2860   -7.1480   23.7220 C   0  0  0  0  0  3  0  0  0  0  0  0
  -21.2180   -6.2470   24.8020 C   0  0  0  0  0  3  0  0  0  0  0  0
  -21.3690   -4.8650   24.5800 C   0  0  0  0  0  0  0  0  0  0  0  0
  -21.5910   -4.3830   23.2770 C   0  0  0  0  0  3  0  0  0  0  0  0
  -21.6610   -5.2810   22.1980 C   0  0  0  0  0  0  0  0  0  0  0  0
  -21.8560   -4.8070   20.9420 F   0  0  0  0  0  0  0  0  0  0  0  0
  -21.2930   -4.0000   25.6160 F   0  0  0  0  0  0  0  0  0  0  0  0
  -23.3260  -13.9820   21.0900 C   0  0  0  0  0  0  0  0  0  0  0  0
  -22.5580  -13.3530   21.9720 N   0  0  0  0  0  0  0  0  0  0  0  0
  -22.9830  -15.0590   20.6030 O   0  0  0  0  0  0  0  0  0  0  0  0
  -22.8470  -12.4820   22.3930 H   0  0  0  0  0  0  0  0  0  0  0  0
  -21.6660  -13.7500   22.2320 H   0  0  0  0  0  0  0  0  0  0  0  0
  -26.0860  -15.3800   20.2210 N   0  0  0  0  0  0  0  0  0  0  0  0
  -25.4030  -16.1080   20.3980 H   0  0  0  0  0  0  0  0  0  0  0  0
  -26.9850  -15.7410   19.9260 H   0  0  0  0  0  0  0  0  0  0  0  0
  -29.2900  -21.5430   18.7480 N   0  0  0  0  0  4  0  0  0  0  0  0
  -28.5100  -21.3320   19.3480 H   0  0  0  0  0  0  0  0  0  0  0  0
  -28.9650  -21.3630   17.8100 H   0  0  0  0  0  0  0  0  0  0  0  0
  -29.5620  -23.1240   18.8500 C   0  0  0  0  0  3  0  0  0  0  0  0
  -28.3940  -24.3430   18.6680 C   0  0  0  0  0  3  0  0  0  0  0  0
  -28.5570  -25.8810   18.9240 O   0  0  0  0  0  0  0  0  0  0  0  0
  -24.6460  -30.8420   22.7190 C   0  0  0  0  0  0  0  0  0  0  0  0
  -27.4350  -26.7910   19.0020 C   0  0  0  0  0  0  0  0  0  0  0  0
  -23.4960  -29.6320   20.9050 C   0  0  0  0  0  3  0  0  0  0  0  0
  -25.0030  -28.3750   19.2460 C   0  0  0  0  0  0  0  0  0  0  0  0
  -26.0220  -30.0790   20.7460 C   0  0  0  0  0  2  0  0  0  0  0  0
  -26.1650  -28.8030   19.8980 C   0  0  0  0  0  0  0  0  0  0  0  0
  -27.3810  -28.0310   19.7580 C   0  0  0  0  0  3  0  0  0  0  0  0
  -26.2380  -26.4670   18.3240 C   0  0  0  0  0  3  0  0  0  0  0  0
  -25.0500  -27.2240   18.4460 C   0  0  0  0  0  3  0  0  0  0  0  0
  -23.7260  -29.1790   19.4400 C   0  0  0  0  0  2  0  0  0  0  0  0
  -24.7420  -30.1980   21.5160 N   0  0  0  0  0  0  0  0  0  0  0  0
  -23.5550  -30.9780   23.2960 O   0  0  0  0  0  0  0  0  0  0  0  0
  -22.8990  -28.4540   21.7170 C   0  0  0  0  0  0  0  0  0  0  0  0
  -21.5860  -28.2060   21.5660 N   0  0  0  0  0  0  0  0  0  0  0  0
  -23.6200  -27.7710   22.4480 O   0  0  0  0  0  0  0  0  0  0  0  0
  -21.0560  -28.8150   20.9580 H   0  0  0  0  0  0  0  0  0  0  0  0
  -18.3150  -26.6780   21.8590 C   0  0  0  0  0  0  0  0  0  0  0  0
  -20.8410  -27.1140   22.1990 C   0  0  0  0  0  3  0  0  0  0  0  0
  -21.0650  -25.7780   21.4520 C   0  0  0  0  0  2  0  0  0  0  0  0
  -20.0000  -25.4980   20.3870 C   0  0  0  0  0  2  0  0  0  0  0  0
  -18.6070  -25.4470   21.0200 C   0  0  0  0  0  2  0  0  0  0  0  0
  -19.3630  -27.4710   22.4000 C   0  0  0  0  0  0  0  0  0  0  0  0
  -19.0330  -28.6220   23.1470 C   0  0  0  0  0  3  0  0  0  0  0  0
  -17.6890  -28.9870   23.3520 C   0  0  0  0  0  3  0  0  0  0  0  0
  -16.6560  -28.1930   22.8230 C   0  0  0  0  0  3  0  0  0  0  0  0
  -16.9700  -27.0390   22.0850 C   0  0  0  0  0  3  0  0  0  0  0  0
  -25.8970  -31.4550   23.4180 C   0  0  0  0  0  3  0  0  0  0  0  0
  -26.4560  -30.5580   24.5930 C   0  0  1  0  0  0  0  0  0  0  0  0
  -25.3820  -30.1500   25.6280 C   0  0  0  0  0  1  0  0  0  0  0  0
  -27.0910  -29.2620   24.0390 C   0  0  0  0  0  1  0  0  0  0  0  0
  -27.5770  -31.3150   25.3400 C   0  0  0  0  0  1  0  0  0  0  0  0
  -25.5190  -32.7830   23.9230 N   0  0  0  0  0  0  0  0  0  0  0  0
  -25.7940  -33.9410   23.3080 C   0  0  0  0  0  0  0  0  0  0  0  0
  -26.4580  -34.0050   22.2710 O   0  0  0  0  0  0  0  0  0  0  0  0
  -24.9220  -32.8030   24.7360 H   0  0  0  0  0  0  0  0  0  0  0  0
  -23.9730  -35.6770   23.2080 C   0  0  0  0  0  1  0  0  0  0  0  0
  -25.2490  -35.2360   23.9440 C   0  0  0  0  0  3  0  0  0  0  0  0
  -27.3500  -36.1240   24.8560 C   0  0  0  0  0  1  0  0  0  0  0  0
  -26.2250  -36.3470   23.9500 N   0  0  0  0  0  0  0  0  0  0  0  0
  -25.7770  -37.2200   24.2130 H   0  0  0  0  0  0  0  0  0  0  0  0
  1  2  1  0
  3  6  2  0
  3  4  1  0
  4  1  2  0
  5  7  1  0
  5  2  2  0
  6  5  1  0
  8  7  1  0
  9  8  1  0
 10 47  1  0
 10  6  1  0
 10  9  1  0
 11 17  1  0
 11  4  1  0
 12 17  1  0
 13 14  1  0
 13 12  1  0
 15 14  1  0
 15 22  1  0
 15 16  1  0
 17 16  1  0
 18 11  2  0
 19 20  2  0
 20 39  1  0
 21 20  1  0
 21 24  1  0
 22 23  1  0
 22 19  1  0
 23 21  2  0
 24 25  1  0
 25 26  2  0
 27 30  1  0
 27 26  1  0
 28 27  2  0
 29 28  1  0
 29 24  2  0
 30 31  1  0
 31 32  1  0
 32 33  2  0
 34 33  1  0
 34 38  1  0
 35 34  2  0
 36 31  2  0
 36 35  1  0
 37 36  1  0
 39 40  1  0
 40 43  1  0
 40 42  1  0
 41 39  2  0
 44 19  1  0
 44 45  1  0
 46 44  1  0
 47 50  1  0
 47 48  1  0
 49 47  1  0
 51 50  2  0
 51 52  1  0
 52 54  1  0
 53 64  2  0
 54 59  1  0
 55 63  1  0
 55 65  1  0
 56 62  1  0
 56 58  1  0
 57 63  1  0
 58 57  1  0
 59 58  2  0
 60 61  1  0
 60 54  2  0
 61 56  2  0
 62 55  1  0
 63 53  1  0
 65 67  2  0
 66 65  1  0
 68 66  1  0
 69 78  2  0
 69 74  1  0
 70 66  1  0
 70 74  1  0
 71 70  1  0
 72 73  1  0
 72 71  1  0
 73 69  1  0
 74 75  2  0
 75 76  1  0
 77 76  2  0
 78 77  1  0
 79 53  1  0
 79 84  1  0
 79 80  1  0
 80 83  1  1
 80 81  1  0
 82 80  1  0
 84 87  1  0
 85 84  1  0
 85 89  1  0
 86 85  2  0
 89 88  1  0
 89 91  1  0
 91 92  1  0
 91 90  1  0
M  ISO  4   4 100  11 100  51 101  52 101
M  END
>  <TORSDO>  (17) 
F 19

>  <SCORE>  (17) 
-11.473

>  <name>  (17) 
16

>  <ligand_id>  (17) 
16

>  <original_smiles>  (17) 
[H]c1c([H])c([H])c2c(c1[H])C([H])([H])C([H])([H])C([H])([H])C2([H])N([H])C(=O)C1([H])N(C(=O)C([H])(N([H])C(=O)C([H])(N([H])C([H])([H])[H])C([H])([H])[H])C(C([H])([H])[H])(C([H])([H])[H])C([H])([H])[H])C([H])([H])c2c([H])c(OC([H])([H])C([H])([H])[N+]([H])([H])C3([H])c4c([H])c(C(=O)N5C([H])([H])C([H])([H])C([H])([H])C([H])(n6nc(-c7c([H])c([H])c(Oc8c([H])c([H])c(F)c([H])c8F)c([H])c7[H])c(C(=O)N([H])[H])c6N([H])[H])C5([H])[H])c([H])c([H])c4C([H])([H])C([H])([H])C3([H])[H])c([H])c([H])c2C1([H])[H]

>  <smiles>  (17) 
[H]c1c([H])c([H])c2c(c1[H])C([H])([H])C([H])([H])C([H])([H])C2([H])N([H])C(=O)C1([H])N(C(=O)C([H])(N([H])C(=O)C([H])(N([H])C([H])([H])[H])C([H])([H])[H])C(C([H])([H])[H])(C([H])([H])[H])C([H])([H])[H])C([H])([H])c2c([H])c(OC([H])([H])C([H])([H])[N+]([H])([H])C3([H])c4c([H])c(C(=O)N5C([H])([H])C([H])([H])C([H])([H])C([H])(n6nc(-c7c([H])c([H])c(Oc8c([H])c([H])c(F)c([H])c8F)c([H])c7[H])c(C(=O)N([H])[H])c6N([H])[H])C5([H])[H])c([H])c([H])c4C([H])([H])C([H])([H])C3([H])[H])c([H])c([H])c2C1([H])[H]

$$$$
17:0:0
     RDKit          3D

 98107  0  0  1  0  0  0  0  0999 V2000
  -28.1410  -18.4620   20.4020 C   0  0  0  0  0  3  0  0  0  0  0  0
  -27.1900  -19.4930   20.3930 C   0  0  0  0  0  3  0  0  0  0  0  0
  -29.8430  -20.1120   19.9230 C   0  0  0  0  0  3  0  0  0  0  0  0
  -29.5040  -18.7050   20.1330 C   0  0  0  0  0  0  0  0  0  0  0  0
  -28.8930  -21.2230   19.9280 C   0  0  0  0  0  0  0  0  0  0  0  0
  -27.5310  -20.8350   20.1290 C   0  0  0  0  0  0  0  0  0  0  0  0
  -31.4320  -24.0370   20.1340 C   0  0  0  0  0  0  0  0  0  0  0  0
  -30.7220  -25.0540   21.0430 C   0  0  0  0  0  2  0  0  0  0  0  0
  -28.5320  -24.0130   20.2720 C   0  0  0  0  0  2  0  0  0  0  0  0
  -29.3180  -22.7540   19.6270 C   0  0  0  0  0  3  0  0  0  0  0  0
  -29.2660  -25.3830   20.6610 C   0  0  0  0  0  3  0  0  0  0  0  0
  -30.7660  -22.9760   19.6500 N   0  0  0  0  0  0  0  0  0  0  0  0
  -32.6350  -24.1700   19.9050 O   0  0  0  0  0  0  0  0  0  0  0  0
  -31.3140  -22.3270   19.1040 H   0  0  0  0  0  0  0  0  0  0  0  0
  -29.2120  -26.6570   19.8890 O   0  0  0  0  0  0  0  0  0  0  0  0
  -24.8900  -31.5000   23.1530 C   0  0  0  0  0  0  0  0  0  0  0  0
  -28.0440  -27.4350   19.9120 C   0  0  0  0  0  0  0  0  0  0  0  0
  -23.9260  -30.2180   21.2740 C   0  0  0  0  0  3  0  0  0  0  0  0
  -25.5930  -28.9070   19.8420 C   0  0  0  0  0  0  0  0  0  0  0  0
  -26.4440  -30.6950   21.3590 C   0  0  0  0  0  2  0  0  0  0  0  0
  -26.6710  -29.3950   20.5910 C   0  0  0  0  0  0  0  0  0  0  0  0
  -27.9040  -28.6740   20.6160 C   0  0  0  0  0  3  0  0  0  0  0  0
  -26.9450  -26.9970   19.1500 C   0  0  0  0  0  3  0  0  0  0  0  0
  -25.7320  -27.7130   19.1130 C   0  0  0  0  0  3  0  0  0  0  0  0
  -24.3020  -29.7040   19.8590 C   0  0  0  0  0  2  0  0  0  0  0  0
  -25.0990  -30.8180   21.9880 N   0  0  0  0  0  0  0  0  0  0  0  0
  -23.7490  -31.6580   23.6120 O   0  0  0  0  0  0  0  0  0  0  0  0
  -23.2510  -29.0700   22.0630 C   0  0  0  0  0  0  0  0  0  0  0  0
  -21.9370  -28.8840   21.8560 N   0  0  0  0  0  0  0  0  0  0  0  0
  -23.9130  -28.3560   22.8210 O   0  0  0  0  0  0  0  0  0  0  0  0
  -21.4630  -29.5160   21.2250 H   0  0  0  0  0  0  0  0  0  0  0  0
  -18.5490  -27.6570   22.1730 C   0  0  0  0  0  0  0  0  0  0  0  0
  -21.1120  -27.8350   22.4580 C   0  0  0  0  0  3  0  0  0  0  0  0
  -21.1900  -26.5270   21.6370 C   0  0  0  0  0  2  0  0  0  0  0  0
  -20.0750  -26.4010   20.5940 C   0  0  0  0  0  2  0  0  0  0  0  0
  -18.7010  -26.4460   21.2690 C   0  0  0  0  0  2  0  0  0  0  0  0
  -19.6810  -28.3190   22.7190 C   0  0  0  0  0  0  0  0  0  0  0  0
  -19.4830  -29.4600   23.5260 C   0  0  0  0  0  3  0  0  0  0  0  0
  -18.1860  -29.9380   23.7930 C   0  0  0  0  0  3  0  0  0  0  0  0
  -17.0680  -29.2710   23.2630 C   0  0  0  0  0  3  0  0  0  0  0  0
  -17.2510  -28.1310   22.4590 C   0  0  0  0  0  3  0  0  0  0  0  0
  -26.0700  -32.1340   23.9510 C   0  0  0  0  0  3  0  0  0  0  0  0
  -26.4610  -31.3120   25.2400 C   0  0  1  0  0  0  0  0  0  0  0  0
  -25.2620  -30.9950   26.1640 C   0  0  0  0  0  1  0  0  0  0  0  0
  -27.1240  -29.9690   24.8530 C   0  0  0  0  0  1  0  0  0  0  0  0
  -27.5090  -32.0970   26.0640 C   0  0  0  0  0  1  0  0  0  0  0  0
  -25.6790  -33.5040   24.3120 N   0  0  0  0  0  0  0  0  0  0  0  0
  -26.0210  -34.6010   23.6220 C   0  0  0  0  0  0  0  0  0  0  0  0
  -26.7660  -34.5670   22.6390 O   0  0  0  0  0  0  0  0  0  0  0  0
  -25.0240  -33.6020   25.0730 H   0  0  0  0  0  0  0  0  0  0  0  0
  -24.2370  -36.3290   23.2260 C   0  0  0  0  0  1  0  0  0  0  0  0
  -25.4450  -35.9490   24.0980 C   0  0  0  0  0  3  0  0  0  0  0  0
  -27.4760  -36.8990   25.0960 C   0  0  0  0  0  1  0  0  0  0  0  0
  -26.4330  -37.0490   24.0850 N   0  0  0  0  0  0  0  0  0  0  0  0
  -25.9760  -37.9450   24.2320 H   0  0  0  0  0  0  0  0  0  0  0  0
  -26.4500  -21.7120   20.0580 N   0  0  0  0  0  0  0  0  0  0  0  0
  -25.5000  -21.3510   20.0450 H   0  0  0  0  0  0  0  0  0  0  0  0
  -26.5460  -22.6290   19.6410 H   0  0  0  0  0  0  0  0  0  0  0  0
  -30.1980  -16.1490   20.3740 C   0  0  0  0  0  3  0  0  0  0  0  0
  -30.4610  -17.4820   20.0510 C   0  0  0  0  0  0  0  0  0  0  0  0
  -31.0980  -14.9360   20.2280 C   0  0  0  0  0  0  0  0  0  0  0  0
  -30.9860  -12.5640   19.4500 C   0  0  0  0  0  2  0  0  0  0  0  0
  -30.0750  -12.5270   18.2020 C   0  0  0  0  0  2  0  0  0  0  0  0
  -28.5930  -12.3740   18.6020 C   0  0  0  0  0  2  0  0  0  0  0  0
  -28.1830  -13.3500   19.7380 C   0  0  0  0  0  3  0  0  0  0  0  0
  -29.2160  -13.3400   20.8850 C   0  0  0  0  0  2  0  0  0  0  0  0
  -30.5210  -13.6830   20.3040 N   0  0  0  0  0  0  0  0  0  0  0  0
  -32.2880  -15.0080   19.8950 O   0  0  0  0  0  0  0  0  0  0  0  0
  -25.8170  -13.9980   20.4840 C   0  0  0  0  0  0  0  0  0  0  0  0
  -24.7300  -13.2480   20.8420 C   0  0  0  0  0  0  0  0  0  0  0  0
  -25.1500  -11.8850   20.7710 C   0  0  0  0  0  0  0  0  0  0  0  0
  -26.8310  -13.0930   20.2190 N   0  0  0  0  0  0  0  0  0  0  0  0
  -26.4370  -11.8150   20.4540 N   0  0  0  0  0  0  0  0  0  0  0  0
  -24.3870  -10.6420   20.9340 C   0  0  0  0  0  0  0  0  0  0  0  0
  -24.7680   -9.6590   21.8720 C   0  0  0  0  0  3  0  0  0  0  0  0
  -24.0090   -8.4780   22.0230 C   0  0  0  0  0  3  0  0  0  0  0  0
  -22.8510   -8.2740   21.2360 C   0  0  0  0  0  0  0  0  0  0  0  0
  -22.4870   -9.2460   20.2870 C   0  0  0  0  0  3  0  0  0  0  0  0
  -23.2480  -10.4180   20.1350 C   0  0  0  0  0  3  0  0  0  0  0  0
  -22.0660   -7.1470   21.2970 O   0  0  0  0  0  0  0  0  0  0  0  0
  -21.9250   -6.4300   22.4580 C   0  0  0  0  0  0  0  0  0  0  0  0
  -21.3980   -7.0110   23.6330 C   0  0  0  0  0  3  0  0  0  0  0  0
  -21.2010   -6.2190   24.7810 C   0  0  0  0  0  3  0  0  0  0  0  0
  -21.5240   -4.8490   24.7570 C   0  0  0  0  0  0  0  0  0  0  0  0
  -22.0460   -4.2700   23.5870 C   0  0  0  0  0  3  0  0  0  0  0  0
  -22.2420   -5.0570   22.4400 C   0  0  0  0  0  0  0  0  0  0  0  0
  -22.7250   -4.4890   21.3090 F   0  0  0  0  0  0  0  0  0  0  0  0
  -21.3280   -4.0860   25.8580 F   0  0  0  0  0  0  0  0  0  0  0  0
  -23.3490  -13.7610   21.1310 C   0  0  0  0  0  0  0  0  0  0  0  0
  -22.6060  -13.0720   21.9900 N   0  0  0  0  0  0  0  0  0  0  0  0
  -22.9380  -14.8080   20.6310 O   0  0  0  0  0  0  0  0  0  0  0  0
  -22.9520  -12.2260   22.4160 H   0  0  0  0  0  0  0  0  0  0  0  0
  -21.6790  -13.3970   22.2230 H   0  0  0  0  0  0  0  0  0  0  0  0
  -26.0180  -15.3660   20.3350 N   0  0  0  0  0  0  0  0  0  0  0  0
  -25.2570  -16.0280   20.4520 H   0  0  0  0  0  0  0  0  0  0  0  0
  -26.8460  -15.7850   19.9320 H   0  0  0  0  0  0  0  0  0  0  0  0
  -31.6590  -17.8290   19.5610 O   0  0  0  0  0  0  0  0  0  0  0  0
  -31.6250  -18.7550   19.3610 H   0  0  0  0  0  0  0  0  0  0  0  0
  2  1  1  0
  3  5  2  0
  3  4  1  0
  4  1  2  0
  5  6  1  0
  6  2  2  0
  7  8  1  0
  9 11  1  0
 10 12  1  0
 10  5  1  0
 10  9  1  0
 11 15  1  0
 11  8  1  0
 12  7  1  0
 13  7  2  0
 14 12  1  0
 15 17  1  0
 16 27  2  0
 17 22  1  0
 18 26  1  0
 18 28  1  0
 19 25  1  0
 19 21  1  0
 20 26  1  0
 21 22  2  0
 21 20  1  0
 23 17  2  0
 24 23  1  0
 24 19  2  0
 25 18  1  0
 26 16  1  0
 28 30  2  0
 29 28  1  0
 31 29  1  0
 32 41  2  0
 32 37  1  0
 33 29  1  0
 33 37  1  0
 34 33  1  0
 35 36  1  0
 35 34  1  0
 36 32  1  0
 37 38  2  0
 38 39  1  0
 40 39  2  0
 41 40  1  0
 42 16  1  0
 42 47  1  0
 42 43  1  0
 43 46  1  1
 43 44  1  0
 45 43  1  0
 47 50  1  0
 48 52  1  0
 48 47  1  0
 49 48  2  0
 52 51  1  0
 54 52  1  0
 54 55  1  0
 54 53  1  0
 56  6  1  0
 57 56  1  0
 58 56  1  0
 60  4  1  0
 60 59  2  0
 61 67  1  0
 61 59  1  0
 62 67  1  0
 63 64  1  0
 63 62  1  0
 65 64  1  0
 65 72  1  0
 65 66  1  0
 67 66  1  0
 68 61  2  0
 69 70  2  0
 70 89  1  0
 71 70  1  0
 71 74  1  0
 72 73  1  0
 72 69  1  0
 73 71  2  0
 74 75  1  0
 75 76  2  0
 77 80  1  0
 77 76  1  0
 78 77  2  0
 79 78  1  0
 79 74  2  0
 80 81  1  0
 81 82  1  0
 82 83  2  0
 84 83  1  0
 84 88  1  0
 85 84  2  0
 86 81  2  0
 86 85  1  0
 87 86  1  0
 89 90  1  0
 90 93  1  0
 90 92  1  0
 91 89  2  0
 94 95  1  0
 94 69  1  0
 96 94  1  0
 97 60  1  0
 98 97  1  0
M  ISO  4  11 101  15 101  59 100  61 100
M  END
>  <TORSDO>  (18) 
F 20

>  <SCORE>  (18) 
-11.754

>  <name>  (18) 
17

>  <ligand_id>  (18) 
17

>  <original_smiles>  (18) 
[H]OC(=C([H])C(=O)N1C([H])([H])C([H])([H])C([H])([H])C([H])(n2nc(-c3c([H])c([H])c(Oc4c([H])c([H])c(F)c([H])c4F)c([H])c3[H])c(C(=O)N([H])[H])c2N([H])[H])C1([H])[H])c1c([H])c([H])c(N([H])[H])c(C2([H])N([H])C(=O)C([H])([H])C([H])(Oc3c([H])c([H])c4c(c3[H])C([H])([H])N(C(=O)C([H])(N([H])C(=O)C([H])(N([H])C([H])([H])[H])C([H])([H])[H])C(C([H])([H])[H])(C([H])([H])[H])C([H])([H])[H])C([H])(C(=O)N([H])C3([H])c5c([H])c([H])c([H])c([H])c5C([H])([H])C([H])([H])C3([H])[H])C4([H])[H])C2([H])[H])c1[H]

>  <smiles>  (18) 
[H]OC(=C([H])C(=O)N1C([H])([H])C([H])([H])C([H])([H])C([H])(n2nc(-c3c([H])c([H])c(Oc4c([H])c([H])c(F)c([H])c4F)c([H])c3[H])c(C(=O)N([H])[H])c2N([H])[H])C1([H])[H])c1c([H])c([H])c(N([H])[H])c(C2([H])N([H])C(=O)C([H])([H])C([H])(Oc3c([H])c([H])c4c(c3[H])C([H])([H])N(C(=O)C([H])(N([H])C(=O)C([H])(N([H])C([H])([H])[H])C([H])([H])[H])C(C([H])([H])[H])(C([H])([H])[H])C([H])([H])[H])C([H])(C(=O)N([H])C3([H])c5c([H])c([H])c([H])c([H])c5C([H])([H])C([H])([H])C3([H])[H])C4([H])[H])C2([H])[H])c1[H]

$$$$
18:0:0
     RDKit          3D

 95104  0  0  1  0  0  0  0  0999 V2000
  -31.9190  -20.6110   19.3570 C   0  0  0  0  0  3  0  0  0  0  0  0
  -31.4880  -19.2830   19.5960 C   0  0  0  0  0  3  0  0  0  0  0  0
  -31.1100  -21.7880   19.3610 C   0  0  0  0  0  0  0  0  0  0  0  0
  -29.7010  -21.7060   19.6270 C   0  0  0  0  0  0  0  0  0  0  0  0
  -30.1490  -18.9460   19.8420 C   0  0  0  0  0  0  0  0  0  0  0  0
  -29.2740  -20.2270   19.8350 C   0  0  0  0  0  0  0  0  0  0  0  0
  -31.8820  -23.0490   19.0200 C   0  0  0  0  0  0  0  0  0  0  0  0
  -28.8010  -23.1940   19.8050 C   0  0  0  0  0  2  0  0  0  0  0  0
  -31.3210  -24.4470   19.2810 C   0  0  0  0  0  2  0  0  0  0  0  0
  -30.1940  -24.8440   18.3130 C   0  0  0  0  0  2  0  0  0  0  0  0
  -28.8460  -24.8080   19.0320 C   0  0  0  0  0  3  0  0  0  0  0  0
  -33.0120  -23.0100   18.5260 O   0  0  0  0  0  0  0  0  0  0  0  0
  -28.6990  -26.3620   19.5410 O   0  0  0  0  0  0  0  0  0  0  0  0
  -24.6350  -31.5460   23.1430 C   0  0  0  0  0  0  0  0  0  0  0  0
  -27.5750  -27.3320   19.5470 C   0  0  0  0  0  0  0  0  0  0  0  0
  -23.5380  -30.2240   21.3770 C   0  0  0  0  0  3  0  0  0  0  0  0
  -25.0970  -28.9420   19.7540 C   0  0  0  0  0  0  0  0  0  0  0  0
  -26.0620  -30.7070   21.2160 C   0  0  0  0  0  2  0  0  0  0  0  0
  -26.2490  -29.3940   20.4050 C   0  0  0  0  0  0  0  0  0  0  0  0
  -27.4760  -28.6050   20.2890 C   0  0  0  0  0  3  0  0  0  0  0  0
  -26.3810  -27.0300   18.8540 C   0  0  0  0  0  3  0  0  0  0  0  0
  -25.1840  -27.7850   18.9620 C   0  0  0  0  0  3  0  0  0  0  0  0
  -23.7930  -29.7210   19.9290 C   0  0  0  0  0  2  0  0  0  0  0  0
  -24.7650  -30.8500   21.9680 N   0  0  0  0  0  0  0  0  0  0  0  0
  -23.5370  -31.6680   23.7110 O   0  0  0  0  0  0  0  0  0  0  0  0
  -22.9720  -29.0660   22.2370 C   0  0  0  0  0  0  0  0  0  0  0  0
  -21.6830  -28.7270   22.0510 N   0  0  0  0  0  0  0  0  0  0  0  0
  -23.6980  -28.4750   23.0400 O   0  0  0  0  0  0  0  0  0  0  0  0
  -21.1450  -29.2580   21.3800 H   0  0  0  0  0  0  0  0  0  0  0  0
  -18.5340  -26.9370   22.2420 C   0  0  0  0  0  0  0  0  0  0  0  0
  -20.9830  -27.6240   22.7170 C   0  0  0  0  0  3  0  0  0  0  0  0
  -21.3750  -26.2630   22.0950 C   0  0  0  0  0  2  0  0  0  0  0  0
  -20.4210  -25.8110   20.9850 C   0  0  0  0  0  2  0  0  0  0  0  0
  -18.9930  -25.6800   21.5230 C   0  0  0  0  0  2  0  0  0  0  0  0
  -19.4690  -27.8580   22.7870 C   0  0  0  0  0  0  0  0  0  0  0  0
  -18.9870  -29.0280   23.4160 C   0  0  0  0  0  3  0  0  0  0  0  0
  -17.6050  -29.2810   23.5060 C   0  0  0  0  0  3  0  0  0  0  0  0
  -16.6860  -28.3590   22.9780 C   0  0  0  0  0  3  0  0  0  0  0  0
  -17.1510  -27.1880   22.3500 C   0  0  0  0  0  3  0  0  0  0  0  0
  -25.8570  -32.2380   23.8240 C   0  0  0  0  0  3  0  0  0  0  0  0
  -25.4750  -33.6260   24.1410 N   0  0  0  0  0  0  0  0  0  0  0  0
  -25.8590  -34.7060   23.4480 C   0  0  0  0  0  0  0  0  0  0  0  0
  -26.6410  -34.6420   22.4970 O   0  0  0  0  0  0  0  0  0  0  0  0
  -24.7970  -33.7490   24.8790 H   0  0  0  0  0  0  0  0  0  0  0  0
  -24.1250  -36.4670   22.9660 C   0  0  0  0  0  1  0  0  0  0  0  0
  -25.2960  -36.0760   23.8810 C   0  0  0  0  0  3  0  0  0  0  0  0
  -27.3200  -37.0020   24.9230 C   0  0  0  0  0  1  0  0  0  0  0  0
  -26.3060  -37.1580   23.8830 N   0  0  0  0  0  0  0  0  0  0  0  0
  -25.8620  -38.0650   24.0060 H   0  0  0  0  0  0  0  0  0  0  0  0
  -26.3380  -31.4970   25.1330 C   0  0  1  0  0  0  0  0  0  0  0  0
  -25.2060  -31.2470   26.1580 C   0  0  0  0  0  1  0  0  0  0  0  0
  -26.9720  -30.1290   24.7920 C   0  0  0  0  0  1  0  0  0  0  0  0
  -27.4420  -32.3250   25.8320 C   0  0  0  0  0  1  0  0  0  0  0  0
  -29.8090  -17.2460   20.0830 C   0  0  0  0  0  2  0  0  0  0  0  0
  -30.7400  -15.7460   20.0500 C   0  0  0  0  0  0  0  0  0  0  0  0
  -30.8360  -13.2240   19.4090 C   0  0  0  0  0  2  0  0  0  0  0  0
  -29.9720  -12.9390   18.1540 C   0  0  0  0  0  2  0  0  0  0  0  0
  -28.5040  -12.6810   18.5410 C   0  0  0  0  0  2  0  0  0  0  0  0
  -27.9960  -13.7120   19.5780 C   0  0  0  0  0  3  0  0  0  0  0  0
  -28.9910  -13.9490   20.7320 C   0  0  0  0  0  2  0  0  0  0  0  0
  -30.2510  -14.4090   20.1330 N   0  0  0  0  0  0  0  0  0  0  0  0
  -31.9610  -15.7690   19.8280 O   0  0  0  0  0  0  0  0  0  0  0  0
  -25.6380  -14.3270   20.3290 C   0  0  0  0  0  0  0  0  0  0  0  0
  -24.5470  -13.5760   20.6630 C   0  0  0  0  0  0  0  0  0  0  0  0
  -24.9680  -12.2140   20.5970 C   0  0  0  0  0  0  0  0  0  0  0  0
  -26.6520  -13.4220   20.0630 N   0  0  0  0  0  0  0  0  0  0  0  0
  -26.2610  -12.1410   20.2940 N   0  0  0  0  0  0  0  0  0  0  0  0
  -24.1950  -10.9710   20.7440 C   0  0  0  0  0  0  0  0  0  0  0  0
  -24.6330   -9.9200   21.5790 C   0  0  0  0  0  3  0  0  0  0  0  0
  -23.8570   -8.7490   21.7200 C   0  0  0  0  0  3  0  0  0  0  0  0
  -22.6300   -8.6200   21.0280 C   0  0  0  0  0  0  0  0  0  0  0  0
  -22.2110   -9.6590   20.1800 C   0  0  0  0  0  3  0  0  0  0  0  0
  -22.9860  -10.8240   20.0350 C   0  0  0  0  0  3  0  0  0  0  0  0
  -21.8230   -7.5080   21.0780 O   0  0  0  0  0  0  0  0  0  0  0  0
  -21.8780   -6.6300   22.1320 C   0  0  0  0  0  0  0  0  0  0  0  0
  -21.6750   -7.0520   23.4650 C   0  0  0  0  0  3  0  0  0  0  0  0
  -21.6680   -6.1050   24.5100 C   0  0  0  0  0  3  0  0  0  0  0  0
  -21.8570   -4.7390   24.2260 C   0  0  0  0  0  0  0  0  0  0  0  0
  -22.0530   -4.3180   22.8990 C   0  0  0  0  0  3  0  0  0  0  0  0
  -22.0610   -5.2610   21.8550 C   0  0  0  0  0  0  0  0  0  0  0  0
  -22.2270   -4.8450   20.5760 F   0  0  0  0  0  0  0  0  0  0  0  0
  -21.8470   -3.8300   25.2280 F   0  0  0  0  0  0  0  0  0  0  0  0
  -23.1640  -14.0950   20.9260 C   0  0  0  0  0  0  0  0  0  0  0  0
  -22.4200  -13.4270   21.7990 N   0  0  0  0  0  0  0  0  0  0  0  0
  -22.7490  -15.1230   20.3910 O   0  0  0  0  0  0  0  0  0  0  0  0
  -22.7690  -12.5980   22.2590 H   0  0  0  0  0  0  0  0  0  0  0  0
  -21.4850  -13.7460   22.0110 H   0  0  0  0  0  0  0  0  0  0  0  0
  -25.8480  -15.6960   20.1990 N   0  0  0  0  0  0  0  0  0  0  0  0
  -25.1050  -16.3710   20.3310 H   0  0  0  0  0  0  0  0  0  0  0  0
  -26.7110  -16.1190   19.8830 H   0  0  0  0  0  0  0  0  0  0  0  0
  -27.7690  -19.9980   19.9700 C   0  0  0  0  0  2  0  0  0  0  0  0
  -26.9170  -21.2790   20.0840 C   0  0  0  0  0  2  0  0  0  0  0  0
  -26.0460  -21.5350   18.8380 C   0  0  0  0  0  2  0  0  0  0  0  0
  -25.0800  -23.3740   17.3430 C   0  0  0  0  0  1  0  0  0  0  0  0
  -25.5780  -22.9940   18.7410 C   0  0  0  0  0  2  0  0  0  0  0  0
  1  3  2  0
  1  2  1  0
  2  5  2  0
  3  4  1  0
  4  8  1  0
  4  6  2  0
  5 54  1  0
  6  5  1  0
  6 91  1  0
  7  9  1  0
  7  3  1  0
 10 11  1  0
 10  9  1  0
 11 13  1  0
 11  8  1  0
 12  7  2  0
 13 15  1  0
 14 25  2  0
 15 20  1  0
 16 24  1  0
 16 26  1  0
 17 23  1  0
 17 19  1  0
 18 24  1  0
 19 18  1  0
 20 19  2  0
 21 22  1  0
 21 15  2  0
 22 17  2  0
 23 16  1  0
 24 14  1  0
 26 28  2  0
 27 26  1  0
 29 27  1  0
 30 39  2  0
 30 35  1  0
 31 27  1  0
 31 35  1  0
 32 31  1  0
 33 34  1  0
 33 32  1  0
 34 30  1  0
 35 36  2  0
 36 37  1  0
 38 37  2  0
 39 38  1  0
 40 14  1  0
 40 41  1  0
 40 50  1  0
 41 44  1  0
 42 46  1  0
 42 41  1  0
 43 42  2  0
 46 45  1  0
 46 48  1  0
 48 49  1  0
 48 47  1  0
 50 53  1  1
 50 51  1  0
 52 50  1  0
 55 54  1  0
 55 61  1  0
 56 61  1  0
 57 58  1  0
 57 56  1  0
 59 58  1  0
 59 66  1  0
 59 60  1  0
 61 60  1  0
 62 55  2  0
 63 64  2  0
 64 83  1  0
 65 64  1  0
 65 68  1  0
 66 67  1  0
 66 63  1  0
 67 65  2  0
 68 69  1  0
 69 70  2  0
 71 74  1  0
 71 70  1  0
 72 71  2  0
 73 72  1  0
 73 68  2  0
 74 75  1  0
 75 76  1  0
 76 77  2  0
 78 77  1  0
 78 82  1  0
 79 78  2  0
 80 75  2  0
 80 79  1  0
 81 80  1  0
 83 84  1  0
 84 87  1  0
 84 86  1  0
 85 83  2  0
 88 63  1  0
 88 89  1  0
 90 88  1  0
 91 92  1  0
 93 92  1  0
 94 95  1  0
 95 93  1  0
M  ISO  4  11 101  13 101  54 100  55 100
M  END
>  <TORSDO>  (19) 
F 21

>  <SCORE>  (19) 
-12.021

>  <name>  (19) 
18

>  <ligand_id>  (19) 
18

>  <original_smiles>  (19) 
[H]c1c([H])c([H])c2c(c1[H])C([H])([H])C([H])([H])C([H])([H])C2([H])N([H])C(=O)C1([H])N(C(=O)C([H])(N([H])C(=O)C([H])(N([H])C([H])([H])[H])C([H])([H])[H])C(C([H])([H])[H])(C([H])([H])[H])C([H])([H])[H])C([H])([H])c2c([H])c(OC3([H])C([H])([H])c4c(c([H])c([H])c(C([H])([H])C(=O)N5C([H])([H])C([H])([H])C([H])([H])C([H])(n6nc(-c7c([H])c([H])c(Oc8c([H])c([H])c(F)c([H])c8F)c([H])c7[H])c(C(=O)N([H])[H])c6N([H])[H])C5([H])[H])c4C([H])([H])C([H])([H])C([H])([H])C([H])([H])C([H])([H])[H])C(=O)C([H])([H])C3([H])[H])c([H])c([H])c2C1([H])[H]

>  <smiles>  (19) 
[H]c1c([H])c([H])c2c(c1[H])C([H])([H])C([H])([H])C([H])([H])C2([H])N([H])C(=O)C1([H])N(C(=O)C([H])(N([H])C(=O)C([H])(N([H])C([H])([H])[H])C([H])([H])[H])C(C([H])([H])[H])(C([H])([H])[H])C([H])([H])[H])C([H])([H])c2c([H])c(OC3([H])C([H])([H])c4c(c([H])c([H])c(C([H])([H])C(=O)N5C([H])([H])C([H])([H])C([H])([H])C([H])(n6nc(-c7c([H])c([H])c(Oc8c([H])c([H])c(F)c([H])c8F)c([H])c7[H])c(C(=O)N([H])[H])c6N([H])[H])C5([H])[H])c4C([H])([H])C([H])([H])C([H])([H])C([H])([H])C([H])([H])[H])C(=O)C([H])([H])C3([H])[H])c([H])c([H])c2C1([H])[H]

$$$$
19:0:0
     RDKit          3D

 90 98  0  0  1  0  0  0  0  0999 V2000
  -28.7600  -22.3570   18.1440 C   0  0  0  0  0  3  0  0  0  0  0  0
  -28.4930  -23.5860   17.5100 C   0  0  0  0  0  3  0  0  0  0  0  0
  -28.5980  -23.5170   20.2590 C   0  0  0  0  0  3  0  0  0  0  0  0
  -28.8390  -22.2290   19.5460 C   0  0  0  0  0  0  0  0  0  0  0  0
  -28.3100  -24.7990   18.2120 C   0  0  0  0  0  0  0  0  0  0  0  0
  -28.3050  -24.8410   19.6350 C   0  0  0  0  0  0  0  0  0  0  0  0
  -28.1810  -26.0580   17.3650 C   0  0  0  0  0  1  0  0  0  0  0  0
  -28.2060  -26.1560   20.2840 O   0  0  0  0  0  0  0  0  0  0  0  0
  -24.5680  -31.8370   23.2400 C   0  0  0  0  0  0  0  0  0  0  0  0
  -27.1260  -27.1120   20.2200 C   0  0  0  0  0  0  0  0  0  0  0  0
  -23.3620  -30.4460   21.6020 C   0  0  0  0  0  3  0  0  0  0  0  0
  -24.8010  -28.8580   20.1870 C   0  0  0  0  0  0  0  0  0  0  0  0
  -25.9180  -30.6990   21.4380 C   0  0  0  0  0  2  0  0  0  0  0  0
  -25.9840  -29.3060   20.7890 C   0  0  0  0  0  0  0  0  0  0  0  0
  -27.1470  -28.4500   20.7830 C   0  0  0  0  0  3  0  0  0  0  0  0
  -25.9010  -26.7450   19.6230 C   0  0  0  0  0  3  0  0  0  0  0  0
  -24.7720  -27.5890   19.5890 C   0  0  0  0  0  3  0  0  0  0  0  0
  -23.5790  -29.7610   20.2270 C   0  0  0  0  0  2  0  0  0  0  0  0
  -24.6360  -31.0140   22.1490 N   0  0  0  0  0  0  0  0  0  0  0  0
  -23.4830  -32.1310   23.7640 O   0  0  0  0  0  0  0  0  0  0  0  0
  -22.6740  -29.4480   22.5640 C   0  0  0  0  0  0  0  0  0  0  0  0
  -21.3530  -29.2570   22.4060 N   0  0  0  0  0  0  0  0  0  0  0  0
  -23.3300  -28.8450   23.4170 O   0  0  0  0  0  0  0  0  0  0  0  0
  -20.8800  -29.7860   21.6880 H   0  0  0  0  0  0  0  0  0  0  0  0
  -17.9860  -27.9860   22.8050 C   0  0  0  0  0  0  0  0  0  0  0  0
  -20.5220  -28.3260   23.1740 C   0  0  0  0  0  3  0  0  0  0  0  0
  -20.6860  -26.8790   22.6540 C   0  0  0  0  0  2  0  0  0  0  0  0
  -19.6380  -26.4920   21.6050 C   0  0  0  0  0  2  0  0  0  0  0  0
  -18.2260  -26.6210   22.1830 C   0  0  0  0  0  2  0  0  0  0  0  0
  -19.0640  -28.7930   23.2560 C   0  0  0  0  0  0  0  0  0  0  0  0
  -18.7840  -30.0660   23.7990 C   0  0  0  0  0  3  0  0  0  0  0  0
  -17.4610  -30.5350   23.8940 C   0  0  0  0  0  3  0  0  0  0  0  0
  -16.3960  -29.7270   23.4570 C   0  0  0  0  0  3  0  0  0  0  0  0
  -16.6590  -28.4540   22.9200 C   0  0  0  0  0  3  0  0  0  0  0  0
  -25.8490  -32.4640   23.8700 C   0  0  0  0  0  3  0  0  0  0  0  0
  -26.3320  -31.7090   25.1700 C   0  0  1  0  0  0  0  0  0  0  0  0
  -25.2170  -31.5050   26.2230 C   0  0  0  0  0  1  0  0  0  0  0  0
  -26.9010  -30.3160   24.8150 C   0  0  0  0  0  1  0  0  0  0  0  0
  -27.4820  -32.5000   25.8350 C   0  0  0  0  0  1  0  0  0  0  0  0
  -25.5540  -33.8740   24.1750 N   0  0  0  0  0  0  0  0  0  0  0  0
  -25.8880  -34.9100   23.3930 C   0  0  0  0  0  0  0  0  0  0  0  0
  -26.5400  -34.7790   22.3550 O   0  0  0  0  0  0  0  0  0  0  0  0
  -24.9740  -34.0490   24.9820 H   0  0  0  0  0  0  0  0  0  0  0  0
  -24.1630  -36.7080   23.0490 C   0  0  0  0  0  1  0  0  0  0  0  0
  -25.4240  -36.3120   23.8330 C   0  0  0  0  0  3  0  0  0  0  0  0
  -27.5810  -37.2070   24.5920 C   0  0  0  0  0  1  0  0  0  0  0  0
  -26.4600  -37.3550   23.6670 N   0  0  0  0  0  0  0  0  0  0  0  0
  -26.0630  -38.2820   23.7950 H   0  0  0  0  0  0  0  0  0  0  0  0
  -29.3620  -20.7790   20.1610 C   0  0  0  0  0  2  0  0  0  0  0  0
  -28.9690  -19.1440   18.1010 C   0  0  0  0  0  1  0  0  0  0  0  0
  -27.6780  -18.8370   20.1970 C   0  0  0  0  0  1  0  0  0  0  0  0
  -29.0680  -19.1870   19.6350 C   0  0  2  0  0  0  0  0  0  0  0  0
  -30.0540  -17.8760   20.0410 C   0  0  0  0  0  2  0  0  0  0  0  0
  -29.5630  -16.2650   20.0760 C   0  0  0  0  0  2  0  0  0  0  0  0
  -30.4850  -14.8920   19.9480 C   0  0  0  0  0  0  0  0  0  0  0  0
  -30.3770  -12.5130   19.0980 C   0  0  0  0  0  2  0  0  0  0  0  0
  -29.3900  -12.4720   17.9050 C   0  0  0  0  0  2  0  0  0  0  0  0
  -27.9380  -12.2820   18.3900 C   0  0  0  0  0  2  0  0  0  0  0  0
  -27.5840  -13.2260   19.5700 C   0  0  0  0  0  3  0  0  0  0  0  0
  -28.6820  -13.2350   20.6540 C   0  0  0  0  0  2  0  0  0  0  0  0
  -29.9440  -13.6120   20.0030 N   0  0  0  0  0  0  0  0  0  0  0  0
  -31.6720  -14.9870   19.6160 O   0  0  0  0  0  0  0  0  0  0  0  0
  -25.2620  -13.8400   20.4510 C   0  0  0  0  0  0  0  0  0  0  0  0
  -24.2000  -13.0830   20.8580 C   0  0  0  0  0  0  0  0  0  0  0  0
  -24.6310  -11.7220   20.7720 C   0  0  0  0  0  0  0  0  0  0  0  0
  -26.2680  -12.9460   20.1320 N   0  0  0  0  0  0  0  0  0  0  0  0
  -25.9020  -11.6640   20.3920 N   0  0  0  0  0  0  0  0  0  0  0  0
  -23.8870  -10.4720   20.9750 C   0  0  0  0  0  0  0  0  0  0  0  0
  -24.3250   -9.4880   21.8890 C   0  0  0  0  0  3  0  0  0  0  0  0
  -23.5810   -8.3020   22.0730 C   0  0  0  0  0  3  0  0  0  0  0  0
  -22.3860   -8.0910   21.3460 C   0  0  0  0  0  0  0  0  0  0  0  0
  -21.9680   -9.0640   20.4200 C   0  0  0  0  0  3  0  0  0  0  0  0
  -22.7130  -10.2420   20.2330 C   0  0  0  0  0  3  0  0  0  0  0  0
  -21.6090   -6.9640   21.4440 O   0  0  0  0  0  0  0  0  0  0  0  0
  -21.5520   -6.2280   22.6010 C   0  0  0  0  0  0  0  0  0  0  0  0
  -21.0950   -6.7830   23.8160 C   0  0  0  0  0  3  0  0  0  0  0  0
  -20.9880   -5.9730   24.9640 C   0  0  0  0  0  3  0  0  0  0  0  0
  -21.3280   -4.6090   24.8970 C   0  0  0  0  0  0  0  0  0  0  0  0
  -21.7800   -4.0530   23.6870 C   0  0  0  0  0  3  0  0  0  0  0  0
  -21.8880   -4.8600   22.5420 C   0  0  0  0  0  0  0  0  0  0  0  0
  -22.3040   -4.3150   21.3740 F   0  0  0  0  0  0  0  0  0  0  0  0
  -21.2170   -3.8290   25.9980 F   0  0  0  0  0  0  0  0  0  0  0  0
  -22.8300  -13.5820   21.2150 C   0  0  0  0  0  0  0  0  0  0  0  0
  -22.1360  -12.8870   22.1090 N   0  0  0  0  0  0  0  0  0  0  0  0
  -22.3860  -14.6220   20.7330 O   0  0  0  0  0  0  0  0  0  0  0  0
  -22.5080  -12.0420   22.5190 H   0  0  0  0  0  0  0  0  0  0  0  0
  -21.2210  -13.2060   22.3940 H   0  0  0  0  0  0  0  0  0  0  0  0
  -25.4480  -15.2120   20.3000 N   0  0  0  0  0  0  0  0  0  0  0  0
  -24.7020  -15.8790   20.4590 H   0  0  0  0  0  0  0  0  0  0  0  0
  -26.2940  -15.6370   19.9440 H   0  0  0  0  0  0  0  0  0  0  0  0
  1  4  1  0
  2  1  2  0
  2  5  1  0
  4 49  1  0
  4  3  2  0
  5  6  2  0
  6  3  1  0
  6  8  1  0
  7  5  1  0
  9 20  2  0
 10  8  1  0
 10 15  1  0
 11 19  1  0
 11 21  1  0
 12 18  1  0
 12 14  1  0
 13 19  1  0
 14 13  1  0
 15 14  2  0
 16 10  2  0
 17 16  1  0
 17 12  2  0
 18 11  1  0
 19  9  1  0
 21 23  2  0
 22 21  1  0
 24 22  1  0
 25 34  2  0
 25 30  1  0
 26 22  1  0
 26 30  1  0
 27 26  1  0
 28 29  1  0
 28 27  1  0
 29 25  1  0
 30 31  2  0
 31 32  1  0
 33 32  2  0
 34 33  1  0
 35  9  1  0
 35 40  1  0
 35 36  1  0
 36 39  1  1
 36 37  1  0
 38 36  1  0
 40 43  1  0
 41 45  1  0
 41 40  1  0
 42 41  2  0
 45 44  1  0
 47 48  1  0
 47 45  1  0
 47 46  1  0
 52 50  1  6
 52 53  1  0
 52 49  1  0
 52 51  1  0
 53 54  1  0
 55 61  1  0
 55 54  1  0
 56 61  1  0
 57 58  1  0
 57 56  1  0
 59 58  1  0
 59 66  1  0
 59 60  1  0
 61 60  1  0
 62 55  2  0
 63 64  2  0
 64 83  1  0
 65 64  1  0
 65 68  1  0
 66 67  1  0
 66 63  1  0
 67 65  2  0
 68 69  1  0
 69 70  2  0
 71 74  1  0
 71 70  1  0
 72 71  2  0
 73 72  1  0
 73 68  2  0
 74 75  1  0
 75 76  1  0
 76 77  2  0
 78 77  1  0
 78 82  1  0
 79 78  2  0
 80 75  2  0
 80 79  1  0
 81 80  1  0
 83 84  1  0
 84 87  1  0
 84 86  1  0
 85 83  2  0
 88 63  1  0
 88 89  1  0
 90 88  1  0
M  ISO  4   6 101   8 101  54 100  55 100
M  END
>  <TORSDO>  (20) 
F 20

>  <SCORE>  (20) 
-14.241

>  <name>  (20) 
19

>  <ligand_id>  (20) 
19

>  <original_smiles>  (20) 
[H]c1c([H])c([H])c2c(c1[H])C([H])([H])C([H])([H])C([H])([H])C2([H])N([H])C(=O)C1([H])N(C(=O)C([H])(N([H])C(=O)C([H])(N([H])C([H])([H])[H])C([H])([H])[H])C(C([H])([H])[H])(C([H])([H])[H])C([H])([H])[H])C([H])([H])c2c([H])c(Oc3c([H])c(C([H])([H])C(C([H])([H])[H])(C([H])([H])[H])C([H])([H])C([H])([H])C(=O)N4C([H])([H])C([H])([H])C([H])([H])C([H])(n5nc(-c6c([H])c([H])c(Oc7c([H])c([H])c(F)c([H])c7F)c([H])c6[H])c(C(=O)N([H])[H])c5N([H])[H])C4([H])[H])c([H])c([H])c3C([H])([H])[H])c([H])c([H])c2C1([H])[H]

>  <smiles>  (20) 
[H]c1c([H])c([H])c2c(c1[H])C([H])([H])C([H])([H])C([H])([H])C2([H])N([H])C(=O)C1([H])N(C(=O)C([H])(N([H])C(=O)C([H])(N([H])C([H])([H])[H])C([H])([H])[H])C(C([H])([H])[H])(C([H])([H])[H])C([H])([H])[H])C([H])([H])c2c([H])c(Oc3c([H])c(C([H])([H])C(C([H])([H])[H])(C([H])([H])[H])C([H])([H])C([H])([H])C(=O)N4C([H])([H])C([H])([H])C([H])([H])C([H])(n5nc(-c6c([H])c([H])c(Oc7c([H])c([H])c(F)c([H])c7F)c([H])c6[H])c(C(=O)N([H])[H])c5N([H])[H])C4([H])[H])c([H])c([H])c3C([H])([H])[H])c([H])c([H])c2C1([H])[H]

$$$$
20:0:0
     RDKit          3D

 89 98  0  0  1  0  0  0  0  0999 V2000
  -27.8390  -21.3870   20.8500 C   0  0  0  0  0  3  0  0  0  0  0  0
  -29.4680  -23.2100   19.6930 C   0  0  0  0  0  3  0  0  0  0  0  0
  -28.9890  -20.6090   20.3020 C   0  0  0  0  0  0  0  0  0  0  0  0
  -29.7460  -21.7040   19.7330 C   0  0  0  0  0  0  0  0  0  0  0  0
  -27.5450  -22.9040   20.8170 C   0  0  0  0  0  0  0  0  0  0  0  0
  -28.3290  -24.0370   20.2190 C   0  0  0  0  0  0  0  0  0  0  0  0
  -31.0120  -21.0270   19.2100 C   0  0  0  0  0  2  0  0  0  0  0  0
  -30.8770  -19.4380   19.2680 C   0  0  0  0  0  2  0  0  0  0  0  0
  -29.7990  -18.9590   20.2900 C   0  0  0  0  0  3  0  0  0  0  0  0
  -26.2800  -23.3390   21.5330 C   0  0  0  0  0  1  0  0  0  0  0  0
  -30.3410  -15.8150   20.1550 C   0  0  0  0  0  0  0  0  0  0  0  0
  -30.4530  -13.2750   19.3140 C   0  0  0  0  0  2  0  0  0  0  0  0
  -29.5380  -12.8460   18.1310 C   0  0  0  0  0  2  0  0  0  0  0  0
  -28.1340  -12.4680   18.6260 C   0  0  0  0  0  2  0  0  0  0  0  0
  -27.6350  -13.4620   19.6980 C   0  0  0  0  0  3  0  0  0  0  0  0
  -28.6890  -13.7960   20.7800 C   0  0  0  0  0  2  0  0  0  0  0  0
  -29.8270  -14.4450   20.0850 N   0  0  0  0  0  0  0  0  0  0  0  0
  -31.5730  -15.7560   19.9740 O   0  0  0  0  0  0  0  0  0  0  0  0
  -29.5810  -17.1840   20.2350 N   0  0  0  0  0  0  0  0  0  0  0  0
  -28.5950  -16.9800   20.2960 H   0  0  0  0  0  0  0  0  0  0  0  0
  -25.2940  -13.9540   20.5470 C   0  0  0  0  0  0  0  0  0  0  0  0
  -24.2550  -13.1550   20.9280 C   0  0  0  0  0  0  0  0  0  0  0  0
  -24.7360  -11.8110   20.8530 C   0  0  0  0  0  0  0  0  0  0  0  0
  -26.3400  -13.1000   20.2520 N   0  0  0  0  0  0  0  0  0  0  0  0
  -26.0210  -11.8020   20.5040 N   0  0  0  0  0  0  0  0  0  0  0  0
  -24.0270  -10.5380   21.0360 C   0  0  0  0  0  0  0  0  0  0  0  0
  -24.4700   -9.5680   21.9610 C   0  0  0  0  0  3  0  0  0  0  0  0
  -23.7540   -8.3630   22.1330 C   0  0  0  0  0  3  0  0  0  0  0  0
  -22.5810   -8.1200   21.3810 C   0  0  0  0  0  0  0  0  0  0  0  0
  -22.1550   -9.0790   20.4450 C   0  0  0  0  0  3  0  0  0  0  0  0
  -22.8720  -10.2750   20.2700 C   0  0  0  0  0  3  0  0  0  0  0  0
  -21.8370   -6.9680   21.4630 O   0  0  0  0  0  0  0  0  0  0  0  0
  -21.7680   -6.2370   22.6220 C   0  0  0  0  0  0  0  0  0  0  0  0
  -21.2640   -6.7870   23.8210 C   0  0  0  0  0  3  0  0  0  0  0  0
  -21.1450   -5.9810   24.9700 C   0  0  0  0  0  3  0  0  0  0  0  0
  -21.5210   -4.6250   24.9220 C   0  0  0  0  0  0  0  0  0  0  0  0
  -22.0170   -4.0730   23.7280 C   0  0  0  0  0  3  0  0  0  0  0  0
  -22.1370   -4.8770   22.5810 C   0  0  0  0  0  0  0  0  0  0  0  0
  -22.5970   -4.3360   21.4260 F   0  0  0  0  0  0  0  0  0  0  0  0
  -21.3990   -3.8470   26.0230 F   0  0  0  0  0  0  0  0  0  0  0  0
  -22.8600  -13.6130   21.2420 C   0  0  0  0  0  0  0  0  0  0  0  0
  -22.1670  -12.9020   22.1240 N   0  0  0  0  0  0  0  0  0  0  0  0
  -22.3980  -14.6380   20.7420 O   0  0  0  0  0  0  0  0  0  0  0  0
  -22.5550  -12.0740   22.5500 H   0  0  0  0  0  0  0  0  0  0  0  0
  -21.2330  -13.1940   22.3790 H   0  0  0  0  0  0  0  0  0  0  0  0
  -25.4330  -15.3300   20.3910 N   0  0  0  0  0  0  0  0  0  0  0  0
  -24.6520  -15.9650   20.5200 H   0  0  0  0  0  0  0  0  0  0  0  0
  -26.2500  -15.7820   20.0020 H   0  0  0  0  0  0  0  0  0  0  0  0
  -28.2210  -25.6630   20.2390 O   0  0  0  0  0  0  0  0  0  0  0  0
  -24.6900  -31.9300   23.2100 C   0  0  0  0  0  0  0  0  0  0  0  0
  -27.1950  -26.8330   20.2330 C   0  0  0  0  0  0  0  0  0  0  0  0
  -23.4870  -30.5220   21.5900 C   0  0  0  0  0  3  0  0  0  0  0  0
  -24.9220  -28.8640   20.1760 C   0  0  0  0  0  0  0  0  0  0  0  0
  -26.0630  -30.6660   21.4440 C   0  0  0  0  0  2  0  0  0  0  0  0
  -26.1200  -29.2260   20.8010 C   0  0  0  0  0  0  0  0  0  0  0  0
  -27.2370  -28.2380   20.7970 C   0  0  0  0  0  3  0  0  0  0  0  0
  -25.9630  -26.6810   19.5460 C   0  0  0  0  0  3  0  0  0  0  0  0
  -24.8820  -27.6180   19.5250 C   0  0  0  0  0  3  0  0  0  0  0  0
  -23.7170  -29.8190   20.2210 C   0  0  0  0  0  2  0  0  0  0  0  0
  -24.7720  -31.0730   22.1340 N   0  0  0  0  0  0  0  0  0  0  0  0
  -23.6020  -32.2310   23.7300 O   0  0  0  0  0  0  0  0  0  0  0  0
  -22.7830  -29.5490   22.5740 C   0  0  0  0  0  0  0  0  0  0  0  0
  -21.4540  -29.3730   22.4450 N   0  0  0  0  0  0  0  0  0  0  0  0
  -23.4430  -28.9500   23.4240 O   0  0  0  0  0  0  0  0  0  0  0  0
  -20.9680  -29.9070   21.7370 H   0  0  0  0  0  0  0  0  0  0  0  0
  -18.0860  -28.1040   22.9500 C   0  0  0  0  0  0  0  0  0  0  0  0
  -20.6380  -28.4350   23.2280 C   0  0  0  0  0  3  0  0  0  0  0  0
  -20.7750  -26.9930   22.6850 C   0  0  0  0  0  2  0  0  0  0  0  0
  -19.6900  -26.6260   21.6670 C   0  0  0  0  0  2  0  0  0  0  0  0
  -18.3000  -26.7480   22.2970 C   0  0  0  0  0  2  0  0  0  0  0  0
  -19.1820  -28.9020   23.3730 C   0  0  0  0  0  0  0  0  0  0  0  0
  -18.9260  -30.1650   23.9490 C   0  0  0  0  0  3  0  0  0  0  0  0
  -17.6070  -30.6320   24.1020 C   0  0  0  0  0  3  0  0  0  0  0  0
  -16.5250  -29.8340   23.6910 C   0  0  0  0  0  3  0  0  0  0  0  0
  -16.7660  -28.5710   23.1220 C   0  0  0  0  0  3  0  0  0  0  0  0
  -25.9600  -32.5840   23.8350 C   0  0  0  0  0  3  0  0  0  0  0  0
  -25.6340  -33.9830   24.1800 N   0  0  0  0  0  0  0  0  0  0  0  0
  -25.9380  -35.0530   23.4340 C   0  0  0  0  0  0  0  0  0  0  0  0
  -26.5790  -34.9690   22.3840 O   0  0  0  0  0  0  0  0  0  0  0  0
  -25.0580  -34.1210   24.9980 H   0  0  0  0  0  0  0  0  0  0  0  0
  -24.1850  -36.8450   23.1720 C   0  0  0  0  0  1  0  0  0  0  0  0
  -25.4590  -36.4360   23.9280 C   0  0  0  0  0  3  0  0  0  0  0  0
  -27.6140  -37.3410   24.6890 C   0  0  0  0  0  1  0  0  0  0  0  0
  -26.4760  -37.5020   23.7880 N   0  0  0  0  0  0  0  0  0  0  0  0
  -26.0660  -38.4150   23.9580 H   0  0  0  0  0  0  0  0  0  0  0  0
  -26.4770  -31.8240   25.1210 C   0  0  1  0  0  0  0  0  0  0  0  0
  -25.3860  -31.5980   26.1940 C   0  0  0  0  0  1  0  0  0  0  0  0
  -27.0590  -30.4420   24.7510 C   0  0  0  0  0  1  0  0  0  0  0  0
  -27.6290  -32.6240   25.7750 C   0  0  0  0  0  1  0  0  0  0  0  0
  2  4  2  0
  2  6  1  0
  3  1  2  0
  4  3  1  0
  5  1  1  0
  5 10  1  0
  6 49  1  0
  6  5  2  0
  7  8  1  0
  7  4  1  0
  8  9  1  0
  9 19  1  0
  9  3  1  0
 11 19  1  0
 12 17  1  0
 13 14  1  0
 13 12  1  0
 15 14  1  0
 15 24  1  0
 15 16  1  0
 17 11  1  0
 17 16  1  0
 18 11  2  0
 19 20  1  0
 21 22  2  0
 22 41  1  0
 23 22  1  0
 23 26  1  0
 24 25  1  0
 24 21  1  0
 25 23  2  0
 26 27  1  0
 27 28  2  0
 29 32  1  0
 29 28  1  0
 30 29  2  0
 31 30  1  0
 31 26  2  0
 32 33  1  0
 33 34  1  0
 34 35  2  0
 36 35  1  0
 36 40  1  0
 37 36  2  0
 38 33  2  0
 38 37  1  0
 39 38  1  0
 41 42  1  0
 42 45  1  0
 42 44  1  0
 43 41  2  0
 46 47  1  0
 46 21  1  0
 48 46  1  0
 50 61  2  0
 51 49  1  0
 51 56  1  0
 52 60  1  0
 52 62  1  0
 53 59  1  0
 53 55  1  0
 54 60  1  0
 55 54  1  0
 56 55  2  0
 57 51  2  0
 58 57  1  0
 58 53  2  0
 59 52  1  0
 60 50  1  0
 62 64  2  0
 63 62  1  0
 65 63  1  0
 66 75  2  0
 66 71  1  0
 67 63  1  0
 67 71  1  0
 68 67  1  0
 69 70  1  0
 69 68  1  0
 70 66  1  0
 71 72  2  0
 72 73  1  0
 74 73  2  0
 75 74  1  0
 76 50  1  0
 76 77  1  0
 76 86  1  0
 77 80  1  0
 78 82  1  0
 78 77  1  0
 79 78  2  0
 82 81  1  0
 84 82  1  0
 84 85  1  0
 84 83  1  0
 86 89  1  1
 86 87  1  0
 88 86  1  0
M  ISO  4   6 101  11 100  19 100  49 101
M  END
>  <TORSDO>  (21) 
F 16

>  <SCORE>  (21) 
-15.935

>  <name>  (21) 
20

>  <ligand_id>  (21) 
20

>  <original_smiles>  (21) 
[H]c1c([H])c([H])c2c(c1[H])C([H])([H])C([H])([H])C([H])([H])C2([H])N([H])C(=O)C1([H])N(C(=O)C([H])(N([H])C(=O)C([H])(N([H])C([H])([H])[H])C([H])([H])[H])C(C([H])([H])[H])(C([H])([H])[H])C([H])([H])[H])C([H])([H])c2c([H])c(Oc3c([H])c4c(c([H])c3C([H])([H])[H])C([H])(N([H])C(=O)N3C([H])([H])C([H])([H])C([H])([H])C([H])(n5nc(-c6c([H])c([H])c(Oc7c([H])c([H])c(F)c([H])c7F)c([H])c6[H])c(C(=O)N([H])[H])c5N([H])[H])C3([H])[H])C([H])([H])C4([H])[H])c([H])c([H])c2C1([H])[H]

>  <smiles>  (21) 
[H]c1c([H])c([H])c2c(c1[H])C([H])([H])C([H])([H])C([H])([H])C2([H])N([H])C(=O)C1([H])N(C(=O)C([H])(N([H])C(=O)C([H])(N([H])C([H])([H])[H])C([H])([H])[H])C(C([H])([H])[H])(C([H])([H])[H])C([H])([H])[H])C([H])([H])c2c([H])c(Oc3c([H])c4c(c([H])c3C([H])([H])[H])C([H])(N([H])C(=O)N3C([H])([H])C([H])([H])C([H])([H])C([H])(n5nc(-c6c([H])c([H])c(Oc7c([H])c([H])c(F)c([H])c7F)c([H])c6[H])c(C(=O)N([H])[H])c5N([H])[H])C3([H])[H])C([H])([H])C4([H])[H])c([H])c([H])c2C1([H])[H]

$$$$
21:0:0
     RDKit          3D

 91 99  0  0  1  0  0  0  0  0999 V2000
  -27.8220  -22.2570   20.8570 C   0  0  0  0  0  3  0  0  0  0  0  0
  -27.0700  -24.9110   20.9770 C   0  0  0  0  0  3  0  0  0  0  0  0
  -28.6540  -23.0950   20.0730 C   0  0  0  0  0  0  0  0  0  0  0  0
  -26.7110  -22.6090   21.6160 C   0  0  0  0  0  0  0  0  0  0  0  0
  -28.1570  -24.7230   20.0720 C   0  0  0  0  0  0  0  0  0  0  0  0
  -26.3620  -23.9540   21.7050 C   0  0  0  0  0  0  0  0  0  0  0  0
  -25.9140  -21.5040   22.2880 C   0  0  0  0  0  1  0  0  0  0  0  0
  -29.3200  -20.4730   18.7860 C   0  0  0  0  0  2  0  0  0  0  0  0
  -29.7970  -21.6530   19.6320 C   0  0  0  0  0  2  0  0  0  0  0  0
  -30.3600  -19.7600   19.6140 C   0  0  0  0  0  2  0  0  0  0  0  0
  -30.9890  -16.6870   19.8340 C   0  0  0  0  0  0  0  0  0  0  0  0
  -31.2590  -14.0960   19.2020 C   0  0  0  0  0  2  0  0  0  0  0  0
  -30.4110  -13.5140   18.0330 C   0  0  0  0  0  2  0  0  0  0  0  0
  -29.0290  -13.0710   18.5350 C   0  0  0  0  0  2  0  0  0  0  0  0
  -28.4300  -14.1380   19.4790 C   0  0  0  0  0  3  0  0  0  0  0  0
  -29.4180  -14.6310   20.5610 C   0  0  0  0  0  2  0  0  0  0  0  0
  -30.5440  -15.2890   19.8500 N   0  0  0  0  0  0  0  0  0  0  0  0
  -32.2310  -16.6850   19.7120 O   0  0  0  0  0  0  0  0  0  0  0  0
  -30.1550  -18.0110   19.7520 N   0  0  0  0  0  0  0  0  0  0  0  0
  -29.1800  -17.7530   19.6840 H   0  0  0  0  0  0  0  0  0  0  0  0
  -26.0790  -14.6020   20.3260 C   0  0  0  0  0  0  0  0  0  0  0  0
  -25.0470  -13.7930   20.7000 C   0  0  0  0  0  0  0  0  0  0  0  0
  -25.5480  -12.4550   20.6250 C   0  0  0  0  0  0  0  0  0  0  0  0
  -27.1350  -13.7590   20.0290 N   0  0  0  0  0  0  0  0  0  0  0  0
  -26.8310  -12.4570   20.2770 N   0  0  0  0  0  0  0  0  0  0  0  0
  -24.8570  -11.1690   20.8010 C   0  0  0  0  0  0  0  0  0  0  0  0
  -25.1970  -10.2800   21.8450 C   0  0  0  0  0  3  0  0  0  0  0  0
  -24.4970   -9.0650   22.0040 C   0  0  0  0  0  3  0  0  0  0  0  0
  -23.4480   -8.7270   21.1170 C   0  0  0  0  0  0  0  0  0  0  0  0
  -23.1290   -9.6050   20.0640 C   0  0  0  0  0  3  0  0  0  0  0  0
  -23.8300  -10.8130   19.9040 C   0  0  0  0  0  3  0  0  0  0  0  0
  -22.7370   -7.5540   21.1780 O   0  0  0  0  0  0  0  0  0  0  0  0
  -22.3290   -7.0190   22.3730 C   0  0  0  0  0  0  0  0  0  0  0  0
  -21.4790   -7.7270   23.2510 C   0  0  0  0  0  3  0  0  0  0  0  0
  -21.0250   -7.1160   24.4360 C   0  0  0  0  0  3  0  0  0  0  0  0
  -21.4110   -5.7970   24.7420 C   0  0  0  0  0  0  0  0  0  0  0  0
  -22.2560   -5.0910   23.8690 C   0  0  0  0  0  3  0  0  0  0  0  0
  -22.7090   -5.6980   22.6850 C   0  0  0  0  0  0  0  0  0  0  0  0
  -23.5040   -5.0040   21.8350 F   0  0  0  0  0  0  0  0  0  0  0  0
  -20.9710   -5.2080   25.8780 F   0  0  0  0  0  0  0  0  0  0  0  0
  -23.6450  -14.2330   21.0060 C   0  0  0  0  0  0  0  0  0  0  0  0
  -22.9530  -13.5180   21.8860 N   0  0  0  0  0  0  0  0  0  0  0  0
  -23.1680  -15.2470   20.4970 O   0  0  0  0  0  0  0  0  0  0  0  0
  -23.3470  -12.6990   22.3200 H   0  0  0  0  0  0  0  0  0  0  0  0
  -22.0160  -13.8050   22.1310 H   0  0  0  0  0  0  0  0  0  0  0  0
  -26.1970  -15.9780   20.1770 N   0  0  0  0  0  0  0  0  0  0  0  0
  -25.4070  -16.6020   20.2940 H   0  0  0  0  0  0  0  0  0  0  0  0
  -27.0150  -16.4470   19.8100 H   0  0  0  0  0  0  0  0  0  0  0  0
  -25.3240  -24.3690   22.4930 O   0  0  0  0  0  0  0  0  0  0  0  0
  -25.2600  -25.3270   22.5130 H   0  0  0  0  0  0  0  0  0  0  0  0
  -28.3270  -26.2780   19.5820 O   0  0  0  0  0  0  0  0  0  0  0  0
  -25.0550  -32.1980   23.5390 C   0  0  0  0  0  0  0  0  0  0  0  0
  -27.4210  -27.5570   19.7600 C   0  0  0  0  0  0  0  0  0  0  0  0
  -23.7880  -31.0530   21.7750 C   0  0  0  0  0  3  0  0  0  0  0  0
  -25.1750  -29.6150   20.0830 C   0  0  0  0  0  0  0  0  0  0  0  0
  -26.3660  -31.1950   21.5690 C   0  0  0  0  0  2  0  0  0  0  0  0
  -26.3960  -29.8630   20.7140 C   0  0  0  0  0  0  0  0  0  0  0  0
  -27.5040  -28.8660   20.5290 C   0  0  0  0  0  3  0  0  0  0  0  0
  -26.1690  -27.5580   19.0770 C   0  0  0  0  0  3  0  0  0  0  0  0
  -25.1020  -28.4950   19.2380 C   0  0  0  0  0  3  0  0  0  0  0  0
  -23.9760  -30.5560   20.3100 C   0  0  0  0  0  2  0  0  0  0  0  0
  -25.0950  -31.5050   22.3500 N   0  0  0  0  0  0  0  0  0  0  0  0
  -23.9890  -32.4200   24.1390 O   0  0  0  0  0  0  0  0  0  0  0  0
  -23.1050  -29.9500   22.6340 C   0  0  0  0  0  0  0  0  0  0  0  0
  -21.7800  -29.7530   22.4830 N   0  0  0  0  0  0  0  0  0  0  0  0
  -23.7760  -29.2710   23.4160 O   0  0  0  0  0  0  0  0  0  0  0  0
  -21.2770  -30.3680   21.8520 H   0  0  0  0  0  0  0  0  0  0  0  0
  -18.4400  -28.3870   22.8210 C   0  0  0  0  0  0  0  0  0  0  0  0
  -20.9840  -28.7190   23.1570 C   0  0  0  0  0  3  0  0  0  0  0  0
  -21.1200  -27.3470   22.4600 C   0  0  0  0  0  2  0  0  0  0  0  0
  -20.0820  -27.1550   21.3540 C   0  0  0  0  0  2  0  0  0  0  0  0
  -18.6820  -27.1470   21.9710 C   0  0  0  0  0  2  0  0  0  0  0  0
  -19.5200  -29.1440   23.3530 C   0  0  0  0  0  0  0  0  0  0  0  0
  -19.2470  -30.3230   24.0820 C   0  0  0  0  0  3  0  0  0  0  0  0
  -17.9240  -30.7440   24.2910 C   0  0  0  0  0  3  0  0  0  0  0  0
  -16.8540  -29.9800   23.7980 C   0  0  0  0  0  3  0  0  0  0  0  0
  -17.1130  -28.8080   23.0650 C   0  0  0  0  0  3  0  0  0  0  0  0
  -26.3480  -32.7490   24.2170 C   0  0  0  0  0  3  0  0  0  0  0  0
  -26.0770  -34.1210   24.6860 N   0  0  0  0  0  0  0  0  0  0  0  0
  -26.3980  -35.2400   24.0220 C   0  0  0  0  0  0  0  0  0  0  0  0
  -27.0110  -35.2160   22.9510 O   0  0  0  0  0  0  0  0  0  0  0  0
  -25.5400  -34.2100   25.5350 H   0  0  0  0  0  0  0  0  0  0  0  0
  -24.6980  -37.0950   23.9780 C   0  0  0  0  0  1  0  0  0  0  0  0
  -25.9870  -36.5910   24.6470 C   0  0  0  0  0  3  0  0  0  0  0  0
  -28.1940  -37.3800   25.3890 C   0  0  0  0  0  1  0  0  0  0  0  0
  -27.0320  -37.6380   24.5400 N   0  0  0  0  0  0  0  0  0  0  0  0
  -26.6580  -38.5580   24.7700 H   0  0  0  0  0  0  0  0  0  0  0  0
  -26.8350  -31.8570   25.4300 C   0  0  1  0  0  0  0  0  0  0  0  0
  -25.7380  -31.5580   26.4830 C   0  0  0  0  0  1  0  0  0  0  0  0
  -27.3740  -30.4950   24.9350 C   0  0  0  0  0  1  0  0  0  0  0  0
  -28.0140  -32.5550   26.1520 C   0  0  0  0  0  1  0  0  0  0  0  0
  1  4  1  0
  2  6  1  0
  3  1  2  0
  4  6  2  0
  4  7  1  0
  5  3  1  0
  5  2  2  0
  6 49  1  0
  8 10  1  0
  8  9  1  0
  9  3  1  0
 10 19  1  0
 11 17  1  0
 12 17  1  0
 13 14  1  0
 13 12  1  0
 15 14  1  0
 15 24  1  0
 15 16  1  0
 17 16  1  0
 18 11  2  0
 19 11  1  0
 20 19  1  0
 21 22  2  0
 22 41  1  0
 23 22  1  0
 23 26  1  0
 24 25  1  0
 24 21  1  0
 25 23  2  0
 26 27  1  0
 27 28  2  0
 29 32  1  0
 29 28  1  0
 30 29  2  0
 31 30  1  0
 31 26  2  0
 32 33  1  0
 33 38  2  0
 33 34  1  0
 34 35  2  0
 35 36  1  0
 36 40  1  0
 37 36  2  0
 38 37  1  0
 39 38  1  0
 41 42  1  0
 42 45  1  0
 42 44  1  0
 43 41  2  0
 46 47  1  0
 46 21  1  0
 48 46  1  0
 49 50  1  0
 51 53  1  0
 51  5  1  0
 52 63  2  0
 53 58  1  0
 54 62  1  0
 54 64  1  0
 55 61  1  0
 55 57  1  0
 56 62  1  0
 57 56  1  0
 58 57  2  0
 59 60  1  0
 59 53  2  0
 60 55  2  0
 61 54  1  0
 62 52  1  0
 64 66  2  0
 65 64  1  0
 67 65  1  0
 68 77  2  0
 68 73  1  0
 69 65  1  0
 69 73  1  0
 70 69  1  0
 71 72  1  0
 71 70  1  0
 72 68  1  0
 73 74  2  0
 74 75  1  0
 76 75  2  0
 77 76  1  0
 78 52  1  0
 78 79  1  0
 78 88  1  0
 79 82  1  0
 80 84  1  0
 80 79  1  0
 81 80  2  0
 84 83  1  0
 86 84  1  0
 86 87  1  0
 86 85  1  0
 88 91  1  1
 88 89  1  0
 90 88  1  0
M  ISO  4   5 101  11 100  19 100  51 101
M  END
>  <TORSDO>  (22) 
F 18

>  <SCORE>  (22) 
-6.561

>  <name>  (22) 
21

>  <ligand_id>  (22) 
21

>  <original_smiles>  (22) 
[H]Oc1c([H])c(Oc2c([H])c([H])c3c(c2[H])C([H])([H])N(C(=O)C([H])(N([H])C(=O)C([H])(N([H])C([H])([H])[H])C([H])([H])[H])C(C([H])([H])[H])(C([H])([H])[H])C([H])([H])[H])C([H])(C(=O)N([H])C2([H])c4c([H])c([H])c([H])c([H])c4C([H])([H])C([H])([H])C2([H])[H])C3([H])[H])c(C2([H])C([H])([H])C2([H])N([H])C(=O)N2C([H])([H])C([H])([H])C([H])([H])C([H])(n3nc(-c4c([H])c([H])c(Oc5c([H])c([H])c(F)c([H])c5F)c([H])c4[H])c(C(=O)N([H])[H])c3N([H])[H])C2([H])[H])c([H])c1C([H])([H])[H]

>  <smiles>  (22) 
[H]Oc1c([H])c(Oc2c([H])c([H])c3c(c2[H])C([H])([H])N(C(=O)C([H])(N([H])C(=O)C([H])(N([H])C([H])([H])[H])C([H])([H])[H])C(C([H])([H])[H])(C([H])([H])[H])C([H])([H])[H])C([H])(C(=O)N([H])C2([H])c4c([H])c([H])c([H])c([H])c4C([H])([H])C([H])([H])C2([H])[H])C3([H])[H])c(C2([H])C([H])([H])C2([H])N([H])C(=O)N2C([H])([H])C([H])([H])C([H])([H])C([H])(n3nc(-c4c([H])c([H])c(Oc5c([H])c([H])c(F)c([H])c5F)c([H])c4[H])c(C(=O)N([H])[H])c3N([H])[H])C2([H])[H])c([H])c1C([H])([H])[H]

$$$$
22:0:0
     RDKit          3D

 94103  0  0  1  0  0  0  0  0999 V2000
  -28.7300  -23.7090   22.9120 C   0  0  0  0  0  3  0  0  0  0  0  0
  -29.5010  -23.2030   21.8470 C   0  0  0  0  0  3  0  0  0  0  0  0
  -27.3940  -24.0670   22.6510 C   0  0  0  0  0  3  0  0  0  0  0  0
  -28.9150  -23.1170   20.5570 C   0  0  0  0  0  3  0  0  0  0  0  0
  -26.9650  -24.2580   21.3190 C   0  0  0  0  0  0  0  0  0  0  0  0
  -27.9600  -24.3380   20.2970 C   0  0  0  0  0  3  0  0  0  0  0  0
  -25.6040  -24.4910   21.0970 N   0  0  0  0  0  0  0  0  0  0  0  0
  -24.9110  -24.3810   21.8330 H   0  0  0  0  0  0  0  0  0  0  0  0
  -25.2150  -24.5530   20.1630 H   0  0  0  0  0  0  0  0  0  0  0  0
  -28.2190  -25.8470   20.0690 O   0  0  0  0  0  0  0  0  0  0  0  0
  -24.6120  -31.7790   23.0860 C   0  0  0  0  0  0  0  0  0  0  0  0
  -27.2420  -26.9810   20.0120 C   0  0  0  0  0  0  0  0  0  0  0  0
  -23.4520  -30.3950   21.4160 C   0  0  0  0  0  3  0  0  0  0  0  0
  -24.9390  -28.8530   19.9580 C   0  0  0  0  0  0  0  0  0  0  0  0
  -26.0190  -30.6400   21.3030 C   0  0  0  0  0  2  0  0  0  0  0  0
  -26.1110  -29.2470   20.6150 C   0  0  0  0  0  0  0  0  0  0  0  0
  -27.2590  -28.3300   20.6270 C   0  0  0  0  0  3  0  0  0  0  0  0
  -26.0720  -26.7790   19.2470 C   0  0  0  0  0  3  0  0  0  0  0  0
  -24.9490  -27.6430   19.2500 C   0  0  0  0  0  3  0  0  0  0  0  0
  -23.7010  -29.7430   20.0280 C   0  0  0  0  0  2  0  0  0  0  0  0
  -24.7140  -30.9650   21.9880 N   0  0  0  0  0  0  0  0  0  0  0  0
  -23.5160  -32.0470   23.6030 O   0  0  0  0  0  0  0  0  0  0  0  0
  -22.7650  -29.3710   22.3560 C   0  0  0  0  0  0  0  0  0  0  0  0
  -21.4360  -29.1990   22.2230 N   0  0  0  0  0  0  0  0  0  0  0  0
  -23.4310  -28.7340   23.1750 O   0  0  0  0  0  0  0  0  0  0  0  0
  -20.9570  -29.7490   21.5240 H   0  0  0  0  0  0  0  0  0  0  0  0
  -18.0510  -28.0010   22.7340 C   0  0  0  0  0  0  0  0  0  0  0  0
  -20.6150  -28.2420   22.9710 C   0  0  0  0  0  3  0  0  0  0  0  0
  -20.7000  -26.8330   22.3420 C   0  0  0  0  0  2  0  0  0  0  0  0
  -19.5840  -26.5550   21.3310 C   0  0  0  0  0  2  0  0  0  0  0  0
  -18.2110  -26.6810   22.0010 C   0  0  0  0  0  2  0  0  0  0  0  0
  -19.1800  -28.7430   23.1740 C   0  0  0  0  0  0  0  0  0  0  0  0
  -18.9760  -29.9800   23.8230 C   0  0  0  0  0  3  0  0  0  0  0  0
  -17.6750  -30.4790   24.0290 C   0  0  0  0  0  3  0  0  0  0  0  0
  -16.5610  -29.7340   23.6050 C   0  0  0  0  0  3  0  0  0  0  0  0
  -16.7480  -28.4940   22.9640 C   0  0  0  0  0  3  0  0  0  0  0  0
  -25.8700  -32.4240   23.7430 C   0  0  0  0  0  3  0  0  0  0  0  0
  -26.3700  -31.6420   25.0210 C   0  0  1  0  0  0  0  0  0  0  0  0
  -25.2580  -31.3790   26.0640 C   0  0  0  0  0  1  0  0  0  0  0  0
  -26.9710  -30.2720   24.6320 C   0  0  0  0  0  1  0  0  0  0  0  0
  -27.5030  -32.4340   25.7130 C   0  0  0  0  0  1  0  0  0  0  0  0
  -25.5360  -33.8130   24.0940 N   0  0  0  0  0  0  0  0  0  0  0  0
  -25.8690  -34.8890   23.3680 C   0  0  0  0  0  0  0  0  0  0  0  0
  -26.5490  -34.8170   22.3430 O   0  0  0  0  0  0  0  0  0  0  0  0
  -24.9210  -33.9400   24.8850 H   0  0  0  0  0  0  0  0  0  0  0  0
  -24.1310  -36.6750   23.0330 C   0  0  0  0  0  1  0  0  0  0  0  0
  -25.3650  -36.2620   23.8500 C   0  0  0  0  0  3  0  0  0  0  0  0
  -27.4750  -37.1510   24.7350 C   0  0  0  0  0  1  0  0  0  0  0  0
  -26.3900  -37.3250   23.7750 N   0  0  0  0  0  0  0  0  0  0  0  0
  -25.9780  -38.2410   23.9300 H   0  0  0  0  0  0  0  0  0  0  0  0
  -29.1640  -21.5010   19.9040 C   0  0  0  0  0  2  0  0  0  0  0  0
  -28.4960  -18.7490   18.0740 C   0  0  0  0  0  2  0  0  0  0  0  0
  -27.8750  -19.2810   19.3790 C   0  0  0  0  0  2  0  0  0  0  0  0
  -29.9200  -18.2650   18.3960 C   0  0  0  0  0  2  0  0  0  0  0  0
  -29.0540  -19.7100   20.2670 C   0  0  0  0  0  3  0  0  0  0  0  0
  -30.0390  -18.2350   19.9240 C   0  0  0  0  0  3  0  0  0  0  0  0
  -30.5890  -15.3440   20.2050 C   0  0  0  0  0  0  0  0  0  0  0  0
  -30.5700  -12.8930   19.3590 C   0  0  0  0  0  2  0  0  0  0  0  0
  -29.6590  -12.7020   18.1200 C   0  0  0  0  0  2  0  0  0  0  0  0
  -28.2030  -12.4390   18.5460 C   0  0  0  0  0  2  0  0  0  0  0  0
  -27.7540  -13.3930   19.6800 C   0  0  0  0  0  3  0  0  0  0  0  0
  -28.7990  -13.5320   20.8100 C   0  0  0  0  0  2  0  0  0  0  0  0
  -30.0270  -14.0350   20.1800 N   0  0  0  0  0  0  0  0  0  0  0  0
  -31.8030  -15.3460   19.9580 O   0  0  0  0  0  0  0  0  0  0  0  0
  -29.8230  -16.6150   20.2980 N   0  0  0  0  0  0  0  0  0  0  0  0
  -28.8550  -16.4210   20.5190 H   0  0  0  0  0  0  0  0  0  0  0  0
  -25.3750  -13.9510   20.4140 C   0  0  0  0  0  0  0  0  0  0  0  0
  -24.3150  -13.1760   20.7790 C   0  0  0  0  0  0  0  0  0  0  0  0
  -24.7820  -11.8250   20.7560 C   0  0  0  0  0  0  0  0  0  0  0  0
  -26.4220  -13.0770   20.1800 N   0  0  0  0  0  0  0  0  0  0  0  0
  -26.0750  -11.7920   20.4510 N   0  0  0  0  0  0  0  0  0  0  0  0
  -24.0540  -10.5620   20.9410 C   0  0  0  0  0  0  0  0  0  0  0  0
  -24.4390   -9.6220   21.9200 C   0  0  0  0  0  3  0  0  0  0  0  0
  -23.7090   -8.4250   22.0930 C   0  0  0  0  0  3  0  0  0  0  0  0
  -22.5790   -8.1600   21.2830 C   0  0  0  0  0  0  0  0  0  0  0  0
  -22.2120   -9.0870   20.2900 C   0  0  0  0  0  3  0  0  0  0  0  0
  -22.9440  -10.2750   20.1180 C   0  0  0  0  0  3  0  0  0  0  0  0
  -21.8230   -7.0150   21.3660 O   0  0  0  0  0  0  0  0  0  0  0  0
  -21.6730   -6.3320   22.5470 C   0  0  0  0  0  0  0  0  0  0  0  0
  -21.0980   -6.9320   23.6880 C   0  0  0  0  0  3  0  0  0  0  0  0
  -20.9030   -6.1730   24.8600 C   0  0  0  0  0  3  0  0  0  0  0  0
  -21.2720   -4.8140   24.8870 C   0  0  0  0  0  0  0  0  0  0  0  0
  -21.8400   -4.2130   23.7510 C   0  0  0  0  0  3  0  0  0  0  0  0
  -22.0380   -4.9700   22.5830 C   0  0  0  0  0  0  0  0  0  0  0  0
  -22.5700   -4.3830   21.4820 F   0  0  0  0  0  0  0  0  0  0  0  0
  -21.0730   -4.0800   26.0070 F   0  0  0  0  0  0  0  0  0  0  0  0
  -22.9150  -13.6520   21.0370 C   0  0  0  0  0  0  0  0  0  0  0  0
  -22.1820  -12.9550   21.8960 N   0  0  0  0  0  0  0  0  0  0  0  0
  -22.4830  -14.6810   20.5150 O   0  0  0  0  0  0  0  0  0  0  0  0
  -22.5460  -12.1300   22.3490 H   0  0  0  0  0  0  0  0  0  0  0  0
  -21.2440  -13.2560   22.1190 H   0  0  0  0  0  0  0  0  0  0  0  0
  -25.5330  -15.3230   20.2300 N   0  0  0  0  0  0  0  0  0  0  0  0
  -24.7490  -15.9630   20.3010 H   0  0  0  0  0  0  0  0  0  0  0  0
  -26.3620  -15.7560   19.8450 H   0  0  0  0  0  0  0  0  0  0  0  0
  2  1  2  0
  3  1  1  0
  4 51  1  0
  4  2  1  0
  5  3  2  0
  6 10  1  0
  6  4  1  0
  6  5  1  0
  7  5  1  0
  7  8  1  0
  9  7  1  0
 11 22  2  0
 12 10  1  0
 12 17  1  0
 13 21  1  0
 13 23  1  0
 14 20  1  0
 14 16  1  0
 15 21  1  0
 16 17  2  0
 16 15  1  0
 18 19  1  0
 18 12  2  0
 19 14  2  0
 20 13  1  0
 21 11  1  0
 23 25  2  0
 24 23  1  0
 26 24  1  0
 27 36  2  0
 27 32  1  0
 28 24  1  0
 28 32  1  0
 29 28  1  0
 30 31  1  0
 30 29  1  0
 31 27  1  0
 32 33  2  0
 33 34  1  0
 35 34  2  0
 36 35  1  0
 37 11  1  0
 37 42  1  0
 37 38  1  0
 38 41  1  1
 38 39  1  0
 40 38  1  0
 42 45  1  0
 43 47  1  0
 43 42  1  0
 44 43  2  0
 47 46  1  0
 49 47  1  0
 49 50  1  0
 49 48  1  0
 52 54  1  0
 52 53  1  0
 53 55  1  0
 54 56  1  0
 55 51  1  0
 56 55  1  0
 56 65  1  0
 57 65  1  0
 58 63  1  0
 59 60  1  0
 59 58  1  0
 61 60  1  0
 61 70  1  0
 61 62  1  0
 63 57  1  0
 63 62  1  0
 64 57  2  0
 65 66  1  0
 67 68  2  0
 68 87  1  0
 69 68  1  0
 69 72  1  0
 70 67  1  0
 70 71  1  0
 71 69  2  0
 72 73  1  0
 73 74  2  0
 75 78  1  0
 75 74  1  0
 76 75  2  0
 77 76  1  0
 77 72  2  0
 78 79  1  0
 79 84  2  0
 79 80  1  0
 80 81  2  0
 81 82  1  0
 82 86  1  0
 83 82  2  0
 84 83  1  0
 85 84  1  0
 87 88  1  0
 88 91  1  0
 88 90  1  0
 89 87  2  0
 92 93  1  0
 92 67  1  0
 94 92  1  0
M  ISO  4   6 101  10 101  57 100  65 100
M  END
>  <TORSDO>  (23) 
F 19

>  <SCORE>  (23) 
-14.891

>  <name>  (23) 
22

>  <ligand_id>  (23) 
22

>  <original_smiles>  (23) 
[H]c1c([H])c([H])c2c(c1[H])C([H])([H])C([H])([H])C([H])([H])C2([H])N([H])C(=O)C1([H])N(C(=O)C([H])(N([H])C(=O)C([H])(N([H])C([H])([H])[H])C([H])([H])[H])C(C([H])([H])[H])(C([H])([H])[H])C([H])([H])[H])C([H])([H])c2c([H])c(Oc3c(N([H])[H])c([H])c([H])c([H])c3C([H])([H])C3([H])C([H])([H])C([H])([H])C([H])([H])C3([H])N([H])C(=O)N3C([H])([H])C([H])([H])C([H])([H])C([H])(n4nc(-c5c([H])c([H])c(Oc6c([H])c([H])c(F)c([H])c6F)c([H])c5[H])c(C(=O)N([H])[H])c4N([H])[H])C3([H])[H])c([H])c([H])c2C1([H])[H]

>  <smiles>  (23) 
[H]c1c([H])c([H])c2c(c1[H])C([H])([H])C([H])([H])C([H])([H])C2([H])N([H])C(=O)C1([H])N(C(=O)C([H])(N([H])C(=O)C([H])(N([H])C([H])([H])[H])C([H])([H])[H])C(C([H])([H])[H])(C([H])([H])[H])C([H])([H])[H])C([H])([H])c2c([H])c(Oc3c(N([H])[H])c([H])c([H])c([H])c3C([H])([H])C3([H])C([H])([H])C([H])([H])C([H])([H])C3([H])N([H])C(=O)N3C([H])([H])C([H])([H])C([H])([H])C([H])(n4nc(-c5c([H])c([H])c(Oc6c([H])c([H])c(F)c([H])c6F)c([H])c5[H])c(C(=O)N([H])[H])c4N([H])[H])C3([H])[H])c([H])c([H])c2C1([H])[H]

$$$$
23:0:0
     RDKit          3D

 91 99  0  0  1  0  0  0  0  0999 V2000
  -28.6270  -23.3330   18.9640 C   0  0  0  0  0  3  0  0  0  0  0  0
  -29.3030  -23.7680   21.2640 C   0  0  0  0  0  3  0  0  0  0  0  0
  -28.7640  -24.6980   18.6620 C   0  0  0  0  0  3  0  0  0  0  0  0
  -29.4290  -25.1380   20.9630 C   0  0  0  0  0  3  0  0  0  0  0  0
  -28.8510  -22.8550   20.2770 C   0  0  0  0  0  0  0  0  0  0  0  0
  -29.1100  -25.6100   19.6760 C   0  0  0  0  0  0  0  0  0  0  0  0
  -28.5130  -21.4280   20.5740 C   0  0  0  0  0  0  0  0  0  0  0  0
  -27.7060  -20.7910   19.8920 O   0  0  0  0  0  0  0  0  0  0  0  0
  -29.1700  -20.7150   21.7660 C   0  0  0  0  0  2  0  0  0  0  0  0
  -30.4730  -19.9710   21.4070 C   0  0  0  0  0  2  0  0  0  0  0  0
  -30.2280  -18.6420   20.6730 C   0  0  0  0  0  2  0  0  0  0  0  0
  -31.2670  -17.5570   20.9660 C   0  0  0  0  0  2  0  0  0  0  0  0
  -30.8790  -16.2540   20.2570 C   0  0  0  0  0  2  0  0  0  0  0  0
  -31.5330  -15.0040   20.8560 C   0  0  0  0  0  2  0  0  0  0  0  0
  -31.6990  -13.9130   19.7920 C   0  0  0  0  0  0  0  0  0  0  0  0
  -31.0490  -11.7470   18.8010 C   0  0  0  0  0  2  0  0  0  0  0  0
  -30.0350  -11.8920   17.6530 C   0  0  0  0  0  2  0  0  0  0  0  0
  -28.5980  -11.9360   18.2060 C   0  0  0  0  0  2  0  0  0  0  0  0
  -28.4320  -12.9500   19.3670 C   0  0  0  0  0  3  0  0  0  0  0  0
  -29.5460  -12.7740   20.4240 C   0  0  0  0  0  2  0  0  0  0  0  0
  -30.8520  -12.8530   19.7490 N   0  0  0  0  0  0  0  0  0  0  0  0
  -32.6490  -14.0340   19.0130 O   0  0  0  0  0  0  0  0  0  0  0  0
  -26.2320  -13.8800   20.3360 C   0  0  0  0  0  0  0  0  0  0  0  0
  -25.0910  -13.2610   20.7740 C   0  0  0  0  0  0  0  0  0  0  0  0
  -25.3260  -11.8600   20.6370 C   0  0  0  0  0  0  0  0  0  0  0  0
  -27.0980  -12.8630   19.9640 N   0  0  0  0  0  0  0  0  0  0  0  0
  -26.5600  -11.6400   20.2010 N   0  0  0  0  0  0  0  0  0  0  0  0
  -24.4310  -10.7150   20.8440 C   0  0  0  0  0  0  0  0  0  0  0  0
  -24.7680   -9.6680   21.7310 C   0  0  0  0  0  3  0  0  0  0  0  0
  -23.8860   -8.5830   21.9260 C   0  0  0  0  0  3  0  0  0  0  0  0
  -22.6490   -8.5430   21.2380 C   0  0  0  0  0  0  0  0  0  0  0  0
  -22.3300   -9.5770   20.3400 C   0  0  0  0  0  3  0  0  0  0  0  0
  -23.2110  -10.6540   20.1440 C   0  0  0  0  0  3  0  0  0  0  0  0
  -21.7410   -7.5180   21.3450 O   0  0  0  0  0  0  0  0  0  0  0  0
  -21.5700   -6.8280   22.5180 C   0  0  0  0  0  0  0  0  0  0  0  0
  -21.2030   -7.4740   23.7190 C   0  0  0  0  0  3  0  0  0  0  0  0
  -20.9720   -6.7150   24.8840 C   0  0  0  0  0  3  0  0  0  0  0  0
  -21.0960   -5.3140   24.8480 C   0  0  0  0  0  0  0  0  0  0  0  0
  -21.4550   -4.6680   23.6520 C   0  0  0  0  0  3  0  0  0  0  0  0
  -21.6890   -5.4240   22.4900 C   0  0  0  0  0  0  0  0  0  0  0  0
  -22.0140   -4.7950   21.3360 F   0  0  0  0  0  0  0  0  0  0  0  0
  -20.8660   -4.5830   25.9660 F   0  0  0  0  0  0  0  0  0  0  0  0
  -23.8180  -13.9320   21.2050 C   0  0  0  0  0  0  0  0  0  0  0  0
  -23.1000  -13.3430   22.1550 N   0  0  0  0  0  0  0  0  0  0  0  0
  -23.4750  -15.0140   20.7310 O   0  0  0  0  0  0  0  0  0  0  0  0
  -23.3920  -12.4690   22.5690 H   0  0  0  0  0  0  0  0  0  0  0  0
  -22.2470  -13.7800   22.4750 H   0  0  0  0  0  0  0  0  0  0  0  0
  -26.5960  -15.2170   20.2060 N   0  0  0  0  0  0  0  0  0  0  0  0
  -25.9580  -15.9760   20.4220 H   0  0  0  0  0  0  0  0  0  0  0  0
  -27.4830  -15.5350   19.8310 H   0  0  0  0  0  0  0  0  0  0  0  0
  -29.0470  -26.9550   19.4250 O   0  0  0  0  0  0  0  0  0  0  0  0
  -24.7100  -31.2360   23.0810 C   0  0  0  0  0  0  0  0  0  0  0  0
  -27.8010  -27.5320   19.5140 C   0  0  0  0  0  0  0  0  0  0  0  0
  -23.6500  -29.9280   21.2670 C   0  0  0  0  0  3  0  0  0  0  0  0
  -25.2560  -28.7400   19.6860 C   0  0  0  0  0  0  0  0  0  0  0  0
  -26.1210  -30.5770   21.1430 C   0  0  0  0  0  2  0  0  0  0  0  0
  -26.3510  -29.3120   20.3470 C   0  0  0  0  0  0  0  0  0  0  0  0
  -27.6250  -28.7120   20.2670 C   0  0  0  0  0  3  0  0  0  0  0  0
  -26.6880  -26.9670   18.8500 C   0  0  0  0  0  3  0  0  0  0  0  0
  -25.4160  -27.5620   18.9390 C   0  0  0  0  0  3  0  0  0  0  0  0
  -23.9280  -29.4460   19.8180 C   0  0  0  0  0  2  0  0  0  0  0  0
  -24.8420  -30.5890   21.8910 N   0  0  0  0  0  0  0  0  0  0  0  0
  -23.6080  -31.3280   23.6400 O   0  0  0  0  0  0  0  0  0  0  0  0
  -23.1120  -28.7350   22.0900 C   0  0  0  0  0  0  0  0  0  0  0  0
  -21.8370  -28.3810   21.8660 N   0  0  0  0  0  0  0  0  0  0  0  0
  -23.8410  -28.1350   22.8840 O   0  0  0  0  0  0  0  0  0  0  0  0
  -21.3060  -28.9240   21.2000 H   0  0  0  0  0  0  0  0  0  0  0  0
  -18.7090  -26.5740   21.9030 C   0  0  0  0  0  0  0  0  0  0  0  0
  -21.1270  -27.2680   22.4950 C   0  0  0  0  0  3  0  0  0  0  0  0
  -21.5590  -25.9160   21.8840 C   0  0  0  0  0  2  0  0  0  0  0  0
  -20.6580  -25.4590   20.7330 C   0  0  0  0  0  2  0  0  0  0  0  0
  -19.2080  -25.3180   21.2080 C   0  0  0  0  0  2  0  0  0  0  0  0
  -19.6120  -27.4970   22.4940 C   0  0  0  0  0  0  0  0  0  0  0  0
  -19.0980  -28.6640   23.0990 C   0  0  0  0  0  3  0  0  0  0  0  0
  -17.7140  -28.9160   23.1200 C   0  0  0  0  0  3  0  0  0  0  0  0
  -16.8240  -27.9900   22.5500 C   0  0  0  0  0  3  0  0  0  0  0  0
  -17.3200  -26.8220   21.9460 C   0  0  0  0  0  3  0  0  0  0  0  0
  -25.9270  -31.9160   23.7850 C   0  0  0  0  0  3  0  0  0  0  0  0
  -25.5090  -33.2620   24.1940 N   0  0  0  0  0  0  0  0  0  0  0  0
  -25.8800  -34.3920   23.5760 C   0  0  0  0  0  0  0  0  0  0  0  0
  -26.6790  -34.4110   22.6340 O   0  0  0  0  0  0  0  0  0  0  0  0
  -24.8160  -33.3190   24.9240 H   0  0  0  0  0  0  0  0  0  0  0  0
  -24.1320  -36.1460   23.1400 C   0  0  0  0  0  1  0  0  0  0  0  0
  -25.2660  -35.7110   24.0820 C   0  0  0  0  0  3  0  0  0  0  0  0
  -27.2240  -36.5810   25.2810 C   0  0  0  0  0  1  0  0  0  0  0  0
  -26.2520  -36.8060   24.2150 N   0  0  0  0  0  0  0  0  0  0  0  0
  -25.7840  -37.6910   24.3940 H   0  0  0  0  0  0  0  0  0  0  0  0
  -26.4680  -31.0970   25.0220 C   0  0  1  0  0  0  0  0  0  0  0  0
  -25.3680  -30.7120   26.0390 C   0  0  0  0  0  1  0  0  0  0  0  0
  -27.1550  -29.7920   24.5560 C   0  0  0  0  0  1  0  0  0  0  0  0
  -27.5420  -31.9220   25.7690 C   0  0  0  0  0  1  0  0  0  0  0  0
  1  5  1  0
  3  1  2  0
  3  6  1  0
  4  2  1  0
  5  7  1  0
  5  2  2  0
  6  4  2  0
  7  9  1  0
  8  7  2  0
 10  9  1  0
 11 12  1  0
 11 10  1  0
 13 14  1  0
 13 12  1  0
 15 14  1  0
 16 21  1  0
 17 18  1  0
 17 16  1  0
 19 18  1  0
 19 26  1  0
 19 20  1  0
 21 15  1  0
 21 20  1  0
 22 15  2  0
 23 24  2  0
 24 43  1  0
 25 24  1  0
 25 28  1  0
 26 27  1  0
 26 23  1  0
 27 25  2  0
 28 29  1  0
 29 30  2  0
 31 34  1  0
 31 30  1  0
 32 31  2  0
 33 32  1  0
 33 28  2  0
 34 35  1  0
 35 36  1  0
 36 37  2  0
 38 37  1  0
 38 42  1  0
 39 38  2  0
 40 35  2  0
 40 39  1  0
 41 40  1  0
 43 44  1  0
 44 47  1  0
 44 46  1  0
 45 43  2  0
 48 23  1  0
 48 49  1  0
 50 48  1  0
 51 53  1  0
 51  6  1  0
 52 63  2  0
 53 58  1  0
 54 62  1  0
 54 64  1  0
 55 61  1  0
 55 57  1  0
 56 62  1  0
 57 56  1  0
 58 57  2  0
 59 60  1  0
 59 53  2  0
 60 55  2  0
 61 54  1  0
 62 52  1  0
 64 66  2  0
 65 64  1  0
 67 65  1  0
 68 77  2  0
 68 73  1  0
 69 65  1  0
 70 69  1  0
 71 72  1  0
 71 70  1  0
 72 68  1  0
 73 69  1  0
 73 74  2  0
 74 75  1  0
 76 75  2  0
 77 76  1  0
 78 52  1  0
 78 79  1  0
 78 88  1  0
 79 82  1  0
 80 84  1  0
 80 79  1  0
 81 80  2  0
 84 83  1  0
 84 86  1  0
 86 87  1  0
 86 85  1  0
 88 91  1  1
 88 89  1  0
 90 88  1  0
M  ISO  4   6 101  14 100  15 100  51 101
M  END
>  <TORSDO>  (24) 
F 23

>  <SCORE>  (24) 
-10.052

>  <name>  (24) 
23

>  <ligand_id>  (24) 
23

>  <original_smiles>  (24) 
[H]c1c([H])c([H])c2c(c1[H])C([H])([H])C([H])([H])C([H])([H])C2([H])N([H])C(=O)C1([H])N(C(=O)C([H])(N([H])C(=O)C([H])(N([H])C([H])([H])[H])C([H])([H])[H])C(C([H])([H])[H])(C([H])([H])[H])C([H])([H])[H])C([H])([H])c2c([H])c(Oc3c([H])c([H])c(C(=O)C([H])([H])C([H])([H])C([H])([H])C([H])([H])C([H])([H])C([H])([H])C(=O)N4C([H])([H])C([H])([H])C([H])([H])C([H])(n5nc(-c6c([H])c([H])c(Oc7c([H])c([H])c(F)c([H])c7F)c([H])c6[H])c(C(=O)N([H])[H])c5N([H])[H])C4([H])[H])c([H])c3[H])c([H])c([H])c2C1([H])[H]

>  <smiles>  (24) 
[H]c1c([H])c([H])c2c(c1[H])C([H])([H])C([H])([H])C([H])([H])C2([H])N([H])C(=O)C1([H])N(C(=O)C([H])(N([H])C(=O)C([H])(N([H])C([H])([H])[H])C([H])([H])[H])C(C([H])([H])[H])(C([H])([H])[H])C([H])([H])[H])C([H])([H])c2c([H])c(Oc3c([H])c([H])c(C(=O)C([H])([H])C([H])([H])C([H])([H])C([H])([H])C([H])([H])C([H])([H])C(=O)N4C([H])([H])C([H])([H])C([H])([H])C([H])(n5nc(-c6c([H])c([H])c(Oc7c([H])c([H])c(F)c([H])c7F)c([H])c6[H])c(C(=O)N([H])[H])c5N([H])[H])C4([H])[H])c([H])c3[H])c([H])c([H])c2C1([H])[H]

$$$$
24:0:0
     RDKit          3D

 88 96  0  0  1  0  0  0  0  0999 V2000
  -27.7060  -22.6290   18.0430 C   0  0  0  0  0  3  0  0  0  0  0  0
  -28.2140  -21.4650   18.6830 C   0  0  0  0  0  3  0  0  0  0  0  0
  -27.7090  -23.9410   18.6000 C   0  0  0  0  0  3  0  0  0  0  0  0
  -28.7340  -22.9390   20.5260 C   0  0  0  0  0  3  0  0  0  0  0  0
  -28.7760  -21.4720   19.9750 C   0  0  0  0  0  0  0  0  0  0  0  0
  -28.1920  -24.2620   19.8920 C   0  0  0  0  0  0  0  0  0  0  0  0
  -28.1980  -25.7760   20.2760 O   0  0  0  0  0  0  0  0  0  0  0  0
  -24.6440  -31.8450   23.1820 C   0  0  0  0  0  0  0  0  0  0  0  0
  -27.1860  -26.8940   20.1810 C   0  0  0  0  0  0  0  0  0  0  0  0
  -23.4460  -30.4370   21.5630 C   0  0  0  0  0  3  0  0  0  0  0  0
  -24.8870  -28.8150   20.1420 C   0  0  0  0  0  0  0  0  0  0  0  0
  -26.0190  -30.6270   21.4110 C   0  0  0  0  0  2  0  0  0  0  0  0
  -26.0830  -29.2100   20.7550 C   0  0  0  0  0  0  0  0  0  0  0  0
  -27.2190  -28.2730   20.7480 C   0  0  0  0  0  3  0  0  0  0  0  0
  -25.9460  -26.6610   19.5360 C   0  0  0  0  0  3  0  0  0  0  0  0
  -24.8490  -27.5620   19.5110 C   0  0  0  0  0  3  0  0  0  0  0  0
  -23.6720  -29.7460   20.1890 C   0  0  0  0  0  2  0  0  0  0  0  0
  -24.7260  -30.9980   22.1040 N   0  0  0  0  0  0  0  0  0  0  0  0
  -23.5550  -32.1390   23.7030 O   0  0  0  0  0  0  0  0  0  0  0  0
  -22.7520  -29.4490   22.5370 C   0  0  0  0  0  0  0  0  0  0  0  0
  -21.4200  -29.2890   22.4210 N   0  0  0  0  0  0  0  0  0  0  0  0
  -23.4210  -28.8240   23.3640 O   0  0  0  0  0  0  0  0  0  0  0  0
  -20.9350  -29.8400   21.7270 H   0  0  0  0  0  0  0  0  0  0  0  0
  -18.0360  -28.0870   22.9550 C   0  0  0  0  0  0  0  0  0  0  0  0
  -20.5980  -28.3600   23.2040 C   0  0  0  0  0  3  0  0  0  0  0  0
  -20.6980  -26.9230   22.6400 C   0  0  0  0  0  2  0  0  0  0  0  0
  -19.5920  -26.5900   21.6340 C   0  0  0  0  0  2  0  0  0  0  0  0
  -18.2130  -26.7340   22.2840 C   0  0  0  0  0  2  0  0  0  0  0  0
  -19.1550  -28.8550   23.3730 C   0  0  0  0  0  0  0  0  0  0  0  0
  -18.9330  -30.1190   23.9630 C   0  0  0  0  0  3  0  0  0  0  0  0
  -17.6260  -30.6110   24.1390 C   0  0  0  0  0  3  0  0  0  0  0  0
  -16.5220  -29.8400   23.7370 C   0  0  0  0  0  3  0  0  0  0  0  0
  -16.7290  -28.5800   23.1490 C   0  0  0  0  0  3  0  0  0  0  0  0
  -25.9140  -32.4950   23.8080 C   0  0  0  0  0  3  0  0  0  0  0  0
  -25.5920  -33.8940   24.1430 N   0  0  0  0  0  0  0  0  0  0  0  0
  -25.9190  -34.9590   23.3970 C   0  0  0  0  0  0  0  0  0  0  0  0
  -26.5840  -34.8670   22.3630 O   0  0  0  0  0  0  0  0  0  0  0  0
  -25.0030  -34.0400   24.9490 H   0  0  0  0  0  0  0  0  0  0  0  0
  -24.1870  -36.7580   23.0700 C   0  0  0  0  0  1  0  0  0  0  0  0
  -25.4320  -36.3440   23.8710 C   0  0  0  0  0  3  0  0  0  0  0  0
  -27.5670  -37.2290   24.7030 C   0  0  0  0  0  1  0  0  0  0  0  0
  -26.4620  -37.4010   23.7630 N   0  0  0  0  0  0  0  0  0  0  0  0
  -26.0550  -38.3190   23.9160 H   0  0  0  0  0  0  0  0  0  0  0  0
  -26.4260  -31.7390   25.0960 C   0  0  1  0  0  0  0  0  0  0  0  0
  -25.3280  -31.5160   26.1620 C   0  0  0  0  0  1  0  0  0  0  0  0
  -27.0110  -30.3560   24.7310 C   0  0  0  0  0  1  0  0  0  0  0  0
  -27.5740  -32.5410   25.7520 C   0  0  0  0  0  1  0  0  0  0  0  0
  -29.2400  -19.8780   20.6080 C   0  0  0  0  0  2  0  0  0  0  0  0
  -31.0590  -18.4470   19.1390 C   0  0  0  0  0  1  0  0  0  0  0  0
  -29.7160  -18.2670   19.8720 C   0  0  0  0  0  0  0  0  0  0  0  0
  -30.4030  -15.3550   20.2980 C   0  0  0  0  0  0  0  0  0  0  0  0
  -30.3950  -12.8700   19.5050 C   0  0  0  0  0  2  0  0  0  0  0  0
  -29.5120  -12.6430   18.2510 C   0  0  0  0  0  2  0  0  0  0  0  0
  -28.0560  -12.3640   18.6600 C   0  0  0  0  0  2  0  0  0  0  0  0
  -27.5730  -13.3500   19.7500 C   0  0  0  0  0  3  0  0  0  0  0  0
  -28.5910  -13.5430   20.8970 C   0  0  0  0  0  2  0  0  0  0  0  0
  -29.8390  -14.0410   20.2890 N   0  0  0  0  0  0  0  0  0  0  0  0
  -31.6160  -15.3320   20.0420 O   0  0  0  0  0  0  0  0  0  0  0  0
  -29.6530  -16.6480   20.3930 N   0  0  0  0  0  4  0  0  0  0  0  0
  -28.7150  -16.4410   20.7060 H   0  0  0  0  0  0  0  0  0  0  0  0
  -25.1910  -13.9120   20.4510 C   0  0  0  0  0  0  0  0  0  0  0  0
  -24.1230  -13.1390   20.8100 C   0  0  0  0  0  0  0  0  0  0  0  0
  -24.5910  -11.7880   20.8050 C   0  0  0  0  0  0  0  0  0  0  0  0
  -26.2380  -13.0340   20.2390 N   0  0  0  0  0  0  0  0  0  0  0  0
  -25.8870  -11.7520   20.5170 N   0  0  0  0  0  0  0  0  0  0  0  0
  -23.8610  -10.5280   20.9950 C   0  0  0  0  0  0  0  0  0  0  0  0
  -24.2740   -9.5680   21.9450 C   0  0  0  0  0  3  0  0  0  0  0  0
  -23.5420   -8.3740   22.1200 C   0  0  0  0  0  3  0  0  0  0  0  0
  -22.3790   -8.1320   21.3510 C   0  0  0  0  0  0  0  0  0  0  0  0
  -21.9850   -9.0820   20.3910 C   0  0  0  0  0  3  0  0  0  0  0  0
  -22.7180  -10.2680   20.2140 C   0  0  0  0  0  3  0  0  0  0  0  0
  -21.6180   -6.9900   21.4370 O   0  0  0  0  0  0  0  0  0  0  0  0
  -21.5510   -6.2570   22.5940 C   0  0  0  0  0  0  0  0  0  0  0  0
  -21.1170   -6.8230   23.8130 C   0  0  0  0  0  3  0  0  0  0  0  0
  -20.9960   -6.0150   24.9610 C   0  0  0  0  0  3  0  0  0  0  0  0
  -21.3020   -4.6430   24.8920 C   0  0  0  0  0  0  0  0  0  0  0  0
  -21.7290   -4.0750   23.6780 C   0  0  0  0  0  3  0  0  0  0  0  0
  -21.8520   -4.8810   22.5320 C   0  0  0  0  0  0  0  0  0  0  0  0
  -22.2430   -4.3260   21.3600 F   0  0  0  0  0  0  0  0  0  0  0  0
  -21.1790   -3.8640   25.9930 F   0  0  0  0  0  0  0  0  0  0  0  0
  -22.7210  -13.6150   21.0420 C   0  0  0  0  0  0  0  0  0  0  0  0
  -21.9730  -12.9330   21.9030 N   0  0  0  0  0  0  0  0  0  0  0  0
  -22.2990  -14.6370   20.4990 O   0  0  0  0  0  0  0  0  0  0  0  0
  -22.3230  -12.1080   22.3670 H   0  0  0  0  0  0  0  0  0  0  0  0
  -21.0300  -13.2420   22.1010 H   0  0  0  0  0  0  0  0  0  0  0  0
  -25.3600  -15.2800   20.2600 N   0  0  0  0  0  0  0  0  0  0  0  0
  -24.5920  -15.9390   20.3380 H   0  0  0  0  0  0  0  0  0  0  0  0
  -26.2140  -15.7080   19.9310 H   0  0  0  0  0  0  0  0  0  0  0  0
  1  3  2  0
  1  2  1  0
  2  5  2  0
  3  6  1  0
  5  4  1  0
  5 48  1  0
  6  7  1  0
  6  4  2  0
  8 19  2  0
  9  7  1  0
  9 14  1  0
 10 18  1  0
 10 20  1  0
 11 17  1  0
 11 13  1  0
 12 18  1  0
 13 12  1  0
 14 13  2  0
 15  9  2  0
 16 15  1  0
 16 11  2  0
 17 10  1  0
 18  8  1  0
 20 22  2  0
 21 20  1  0
 23 21  1  0
 24 33  2  0
 24 29  1  0
 25 21  1  0
 25 29  1  0
 26 25  1  0
 27 28  1  0
 27 26  1  0
 28 24  1  0
 29 30  2  0
 30 31  1  0
 32 31  2  0
 33 32  1  0
 34  8  1  0
 34 35  1  0
 34 44  1  0
 35 38  1  0
 36 40  1  0
 36 35  1  0
 37 36  2  0
 40 39  1  0
 42 40  1  0
 42 43  1  0
 42 41  1  0
 44 47  1  1
 44 45  1  0
 46 44  1  0
 49 50  1  0
 50 59  2  0
 50 48  1  0
 51 59  1  0
 52 57  1  0
 53 54  1  0
 53 52  1  0
 55 54  1  0
 55 64  1  0
 55 56  1  0
 57 51  1  0
 57 56  1  0
 58 51  2  0
 59 60  1  0
 61 62  2  0
 62 81  1  0
 63 62  1  0
 63 66  1  0
 64 61  1  0
 64 65  1  0
 65 63  2  0
 66 67  1  0
 67 68  2  0
 69 72  1  0
 69 68  1  0
 70 69  2  0
 71 70  1  0
 71 66  2  0
 72 73  1  0
 73 74  1  0
 74 75  2  0
 76 75  1  0
 76 80  1  0
 77 76  2  0
 78 73  2  0
 78 77  1  0
 79 78  1  0
 81 82  1  0
 82 85  1  0
 82 84  1  0
 83 81  2  0
 86 87  1  0
 86 61  1  0
 88 86  1  0
M  ISO  4   6 101   7 101  51 100  59 100
M  END
>  <TORSDO>  (25) 
F 18

>  <SCORE>  (25) 
-15.686

>  <name>  (25) 
24

>  <ligand_id>  (25) 
24

>  <original_smiles>  (25) 
[H]c1c([H])c([H])c2c(c1[H])C([H])([H])C([H])([H])C([H])([H])C2([H])N([H])C(=O)C1([H])N(C(=O)C([H])(N([H])C(=O)C([H])(N([H])C([H])([H])[H])C([H])([H])[H])C(C([H])([H])[H])(C([H])([H])[H])C([H])([H])[H])C([H])([H])c2c([H])c(Oc3c([H])c([H])c([H])c(C([H])([H])C([H])(N([H])C(=O)N4C([H])([H])C([H])([H])C([H])([H])C([H])(n5nc(-c6c([H])c([H])c(Oc7c([H])c([H])c(F)c([H])c7F)c([H])c6[H])c(C(=O)N([H])[H])c5N([H])[H])C4([H])[H])C([H])([H])[H])c3[H])c([H])c([H])c2C1([H])[H]

>  <smiles>  (25) 
[H]c1c([H])c([H])c2c(c1[H])C([H])([H])C([H])([H])C([H])([H])C2([H])N([H])C(=O)C1([H])N(C(=O)C([H])(N([H])C(=O)C([H])(N([H])C([H])([H])[H])C([H])([H])[H])C(C([H])([H])[H])(C([H])([H])[H])C([H])([H])[H])C([H])([H])c2c([H])c(Oc3c([H])c([H])c([H])c(C([H])([H])C([H])(N([H])C(=O)N4C([H])([H])C([H])([H])C([H])([H])C([H])(n5nc(-c6c([H])c([H])c(Oc7c([H])c([H])c(F)c([H])c7F)c([H])c6[H])c(C(=O)N([H])[H])c5N([H])[H])C4([H])[H])C([H])([H])[H])c3[H])c([H])c([H])c2C1([H])[H]

$$$$
25:0:0
     RDKit          3D

 96105  0  0  1  0  0  0  0  0999 V2000
  -28.2120  -21.0160   19.7970 C   0  0  0  0  0  3  0  0  0  0  0  0
  -28.3550  -19.7550   20.4030 C   0  0  0  0  0  3  0  0  0  0  0  0
  -30.4470  -21.6180   20.5420 C   0  0  0  0  0  3  0  0  0  0  0  0
  -29.2720  -21.9450   19.8260 C   0  0  0  0  0  0  0  0  0  0  0  0
  -29.5670  -19.3890   21.0320 C   0  0  0  0  0  0  0  0  0  0  0  0
  -30.6060  -20.3470   21.1360 C   0  0  0  0  0  0  0  0  0  0  0  0
  -31.9150  -20.0230   21.8370 C   0  0  0  0  0  1  0  0  0  0  0  0
  -30.2620  -24.8460   17.3840 C   0  0  0  0  0  2  0  0  0  0  0  0
  -30.4190  -23.5590   18.2070 C   0  0  0  0  0  2  0  0  0  0  0  0
  -29.8930  -26.0300   18.2910 C   0  0  0  0  0  2  0  0  0  0  0  0
  -28.7570  -24.4520   19.9200 C   0  0  0  0  0  2  0  0  0  0  0  0
  -29.1510  -23.2500   19.0380 C   0  0  0  0  0  3  0  0  0  0  0  0
  -28.6060  -25.7380   19.0770 C   0  0  0  0  0  3  0  0  0  0  0  0
  -28.3820  -26.8530   19.9390 O   0  0  0  0  0  0  0  0  0  0  0  0
  -24.5770  -31.8970   23.1540 C   0  0  0  0  0  0  0  0  0  0  0  0
  -27.1640  -27.5030   19.9620 C   0  0  0  0  0  0  0  0  0  0  0  0
  -23.3340  -30.5120   21.5230 C   0  0  0  0  0  3  0  0  0  0  0  0
  -24.7540  -28.9850   20.0570 C   0  0  0  0  0  0  0  0  0  0  0  0
  -25.8530  -30.8750   21.2740 C   0  0  0  0  0  2  0  0  0  0  0  0
  -25.9220  -29.5100   20.6230 C   0  0  0  0  0  0  0  0  0  0  0  0
  -27.1230  -28.7720   20.5790 C   0  0  0  0  0  3  0  0  0  0  0  0
  -25.9670  -26.9730   19.4210 C   0  0  0  0  0  3  0  0  0  0  0  0
  -24.7700  -27.7130   19.4600 C   0  0  0  0  0  3  0  0  0  0  0  0
  -23.5120  -29.8430   20.1340 C   0  0  0  0  0  2  0  0  0  0  0  0
  -24.6080  -31.1090   22.0430 N   0  0  0  0  0  0  0  0  0  0  0  0
  -23.5080  -32.1650   23.7200 O   0  0  0  0  0  0  0  0  0  0  0  0
  -22.7040  -29.4820   22.4880 C   0  0  0  0  0  0  0  0  0  0  0  0
  -21.3790  -29.2930   22.3760 N   0  0  0  0  0  0  0  0  0  0  0  0
  -23.4020  -28.8550   23.2890 O   0  0  0  0  0  0  0  0  0  0  0  0
  -20.8760  -29.8500   21.6990 H   0  0  0  0  0  0  0  0  0  0  0  0
  -18.0220  -28.0620   22.8890 C   0  0  0  0  0  0  0  0  0  0  0  0
  -20.5770  -28.3470   23.1520 C   0  0  0  0  0  3  0  0  0  0  0  0
  -20.6940  -26.9170   22.5770 C   0  0  0  0  0  2  0  0  0  0  0  0
  -19.5920  -26.5810   21.5680 C   0  0  0  0  0  2  0  0  0  0  0  0
  -18.2100  -26.7130   22.2160 C   0  0  0  0  0  2  0  0  0  0  0  0
  -19.1330  -28.8360   23.3140 C   0  0  0  0  0  0  0  0  0  0  0  0
  -18.9050  -30.0990   23.9020 C   0  0  0  0  0  3  0  0  0  0  0  0
  -17.5960  -30.5890   24.0700 C   0  0  0  0  0  3  0  0  0  0  0  0
  -16.4980  -29.8110   23.6620 C   0  0  0  0  0  3  0  0  0  0  0  0
  -16.7120  -28.5500   23.0780 C   0  0  0  0  0  3  0  0  0  0  0  0
  -25.8770  -32.5190   23.7520 C   0  0  0  0  0  3  0  0  0  0  0  0
  -26.4350  -31.7200   24.9940 C   0  0  1  0  0  0  0  0  0  0  0  0
  -25.3740  -31.4500   26.0860 C   0  0  0  0  0  1  0  0  0  0  0  0
  -27.0140  -30.3570   24.5500 C   0  0  0  0  0  1  0  0  0  0  0  0
  -27.6000  -32.5050   25.6420 C   0  0  0  0  0  1  0  0  0  0  0  0
  -25.5740  -33.9080   24.1200 N   0  0  0  0  0  0  0  0  0  0  0  0
  -25.8950  -34.9780   23.3810 C   0  0  0  0  0  0  0  0  0  0  0  0
  -26.5520  -34.8990   22.3380 O   0  0  0  0  0  0  0  0  0  0  0  0
  -24.9890  -34.0440   24.9320 H   0  0  0  0  0  0  0  0  0  0  0  0
  -24.1750  -36.7860   23.0730 C   0  0  0  0  0  1  0  0  0  0  0  0
  -25.4120  -36.3540   23.8760 C   0  0  0  0  0  3  0  0  0  0  0  0
  -27.5460  -37.2070   24.7410 C   0  0  0  0  0  1  0  0  0  0  0  0
  -26.4490  -37.4060   23.7970 N   0  0  0  0  0  0  0  0  0  0  0  0
  -26.0460  -38.3230   23.9700 H   0  0  0  0  0  0  0  0  0  0  0  0
  -29.7420  -17.9380   21.4870 C   0  0  0  0  0  2  0  0  0  0  0  0
  -30.5190  -17.0490   20.4720 C   0  0  0  0  0  3  0  0  0  0  0  0
  -31.0120  -14.5840   20.4050 C   0  0  0  0  0  0  0  0  0  0  0  0
  -30.6800  -12.4640   19.2140 C   0  0  0  0  0  2  0  0  0  0  0  0
  -29.7340  -12.7170   18.0210 C   0  0  0  0  0  2  0  0  0  0  0  0
  -28.2590  -12.6170   18.4510 C   0  0  0  0  0  2  0  0  0  0  0  0
  -27.9450  -13.4250   19.7390 C   0  0  0  0  0  3  0  0  0  0  0  0
  -28.9980  -13.1400   20.8350 C   0  0  0  0  0  2  0  0  0  0  0  0
  -30.3280  -13.4200   20.2720 N   0  0  0  0  0  0  0  0  0  0  0  0
  -32.1730  -14.7410   20.0200 O   0  0  0  0  0  0  0  0  0  0  0  0
  -30.2410  -15.6310   20.7400 N   0  0  0  0  0  0  0  0  0  0  0  0
  -29.3040  -15.4010   21.0320 H   0  0  0  0  0  0  0  0  0  0  0  0
  -25.5490  -14.0600   20.4380 C   0  0  0  0  0  0  0  0  0  0  0  0
  -24.4710  -13.2980   20.8020 C   0  0  0  0  0  0  0  0  0  0  0  0
  -24.9190  -11.9420   20.7730 C   0  0  0  0  0  0  0  0  0  0  0  0
  -26.5860  -13.1680   20.2130 N   0  0  0  0  0  0  0  0  0  0  0  0
  -26.2100  -11.8900   20.4720 N   0  0  0  0  0  0  0  0  0  0  0  0
  -24.1820  -10.6860   20.9560 C   0  0  0  0  0  0  0  0  0  0  0  0
  -24.5730   -9.7350   21.9250 C   0  0  0  0  0  3  0  0  0  0  0  0
  -23.8360   -8.5430   22.0960 C   0  0  0  0  0  3  0  0  0  0  0  0
  -22.6950   -8.2940   21.2960 C   0  0  0  0  0  0  0  0  0  0  0  0
  -22.3240   -9.2320   20.3190 C   0  0  0  0  0  3  0  0  0  0  0  0
  -23.0610  -10.4170   20.1470 C   0  0  0  0  0  3  0  0  0  0  0  0
  -21.9340   -7.1530   21.3750 O   0  0  0  0  0  0  0  0  0  0  0  0
  -21.7860   -6.4650   22.5530 C   0  0  0  0  0  0  0  0  0  0  0  0
  -21.2370   -7.0710   23.7050 C   0  0  0  0  0  3  0  0  0  0  0  0
  -21.0380   -6.3090   24.8730 C   0  0  0  0  0  3  0  0  0  0  0  0
  -21.3780   -4.9440   24.8910 C   0  0  0  0  0  0  0  0  0  0  0  0
  -21.9190   -4.3380   23.7440 C   0  0  0  0  0  3  0  0  0  0  0  0
  -22.1200   -5.0960   22.5770 C   0  0  0  0  0  0  0  0  0  0  0  0
  -22.6230   -4.5030   21.4680 F   0  0  0  0  0  0  0  0  0  0  0  0
  -21.1800   -4.2090   26.0110 F   0  0  0  0  0  0  0  0  0  0  0  0
  -23.0770  -13.7880   21.0680 C   0  0  0  0  0  0  0  0  0  0  0  0
  -22.3440  -13.1050   21.9420 N   0  0  0  0  0  0  0  0  0  0  0  0
  -22.6450  -14.8100   20.5380 O   0  0  0  0  0  0  0  0  0  0  0  0
  -22.7070  -12.2790   22.3940 H   0  0  0  0  0  0  0  0  0  0  0  0
  -21.4090  -13.4150   22.1630 H   0  0  0  0  0  0  0  0  0  0  0  0
  -25.7270  -15.4290   20.2590 N   0  0  0  0  0  0  0  0  0  0  0  0
  -24.9590  -16.0860   20.3540 H   0  0  0  0  0  0  0  0  0  0  0  0
  -26.5710  -15.8580   19.9050 H   0  0  0  0  0  0  0  0  0  0  0  0
  -31.1730  -16.8540   17.9390 C   0  0  0  0  0  1  0  0  0  0  0  0
  -30.2050  -17.4130   18.9900 C   0  0  0  0  0  2  0  0  0  0  0  0
  1  4  2  0
  1  2  1  0
  2  5  2  0
  3  6  2  0
  4  3  1  0
  5  6  1  0
  5 55  1  0
  6  7  1  0
  8  9  1  0
  8 10  1  0
  9 12  1  0
 10 13  1  0
 12  4  1  0
 12 11  1  0
 13 11  1  0
 13 14  1  0
 14 16  1  0
 15 26  2  0
 16 21  1  0
 17 25  1  0
 17 27  1  0
 18 24  1  0
 18 20  1  0
 19 25  1  0
 20 19  1  0
 21 20  2  0
 22 23  1  0
 22 16  2  0
 23 18  2  0
 24 17  1  0
 25 15  1  0
 27 29  2  0
 28 27  1  0
 30 28  1  0
 31 40  2  0
 31 36  1  0
 32 28  1  0
 32 36  1  0
 33 32  1  0
 34 35  1  0
 34 33  1  0
 35 31  1  0
 36 37  2  0
 37 38  1  0
 39 38  2  0
 40 39  1  0
 41 15  1  0
 41 46  1  0
 41 42  1  0
 42 45  1  1
 42 43  1  0
 44 42  1  0
 46 49  1  0
 47 51  1  0
 47 46  1  0
 48 47  2  0
 51 50  1  0
 53 51  1  0
 53 54  1  0
 53 52  1  0
 56 96  1  0
 56 65  1  0
 56 55  1  0
 57 65  1  0
 58 63  1  0
 59 60  1  0
 59 58  1  0
 61 60  1  0
 61 70  1  0
 61 62  1  0
 63 57  1  0
 63 62  1  0
 64 57  2  0
 65 66  1  0
 67 68  2  0
 68 87  1  0
 69 68  1  0
 69 72  1  0
 70 67  1  0
 70 71  1  0
 71 69  2  0
 72 73  1  0
 73 74  2  0
 75 78  1  0
 75 74  1  0
 76 75  2  0
 77 76  1  0
 77 72  2  0
 78 79  1  0
 79 84  2  0
 79 80  1  0
 80 81  2  0
 81 82  1  0
 82 86  1  0
 83 82  2  0
 84 83  1  0
 85 84  1  0
 87 88  1  0
 88 91  1  0
 88 90  1  0
 89 87  2  0
 92 93  1  0
 92 67  1  0
 94 92  1  0
 95 96  1  0
M  ISO  4  13 101  14 101  57 100  65 100
M  END
>  <TORSDO>  (26) 
F 20

>  <SCORE>  (26) 
-13.636

>  <name>  (26) 
25

>  <ligand_id>  (26) 
25

>  <original_smiles>  (26) 
[H]c1c([H])c([H])c2c(c1[H])C([H])([H])C([H])([H])C([H])([H])C2([H])N([H])C(=O)C1([H])N(C(=O)C([H])(N([H])C(=O)C([H])(N([H])C([H])([H])[H])C([H])([H])[H])C(C([H])([H])[H])(C([H])([H])[H])C([H])([H])[H])C([H])([H])c2c([H])c(OC3([H])C([H])([H])C([H])([H])C([H])([H])C([H])(c4c([H])c([H])c(C([H])([H])C([H])(N([H])C(=O)N5C([H])([H])C([H])([H])C([H])([H])C([H])(n6nc(-c7c([H])c([H])c(Oc8c([H])c([H])c(F)c([H])c8F)c([H])c7[H])c(C(=O)N([H])[H])c6N([H])[H])C5([H])[H])C([H])([H])C([H])([H])[H])c(C([H])([H])[H])c4[H])C3([H])[H])c([H])c([H])c2C1([H])[H]

>  <smiles>  (26) 
[H]c1c([H])c([H])c2c(c1[H])C([H])([H])C([H])([H])C([H])([H])C2([H])N([H])C(=O)C1([H])N(C(=O)C([H])(N([H])C(=O)C([H])(N([H])C([H])([H])[H])C([H])([H])[H])C(C([H])([H])[H])(C([H])([H])[H])C([H])([H])[H])C([H])([H])c2c([H])c(OC3([H])C([H])([H])C([H])([H])C([H])([H])C([H])(c4c([H])c([H])c(C([H])([H])C([H])(N([H])C(=O)N5C([H])([H])C([H])([H])C([H])([H])C([H])(n6nc(-c7c([H])c([H])c(Oc8c([H])c([H])c(F)c([H])c8F)c([H])c7[H])c(C(=O)N([H])[H])c6N([H])[H])C5([H])[H])C([H])([H])C([H])([H])[H])c(C([H])([H])[H])c4[H])C3([H])[H])c([H])c([H])c2C1([H])[H]

$$$$
26:0:0
     RDKit          3D

 87 94  0  0  1  0  0  0  0  0999 V2000
  -32.2470  -18.6880   20.0410 C   0  0  0  0  0  2  0  0  0  0  0  0
  -31.7830  -18.9650   21.4750 C   0  0  0  0  0  2  0  0  0  0  0  0
  -30.9540  -18.3880   19.2340 C   0  0  0  0  0  2  0  0  0  0  0  0
  -30.0830  -20.8900   20.9940 C   0  0  0  0  0  2  0  0  0  0  0  0
  -28.5800  -19.5770   19.9530 C   0  0  0  0  0  2  0  0  0  0  0  0
  -30.2860  -19.2270   21.3310 C   0  0  0  0  0  3  0  0  0  0  0  0
  -28.6630  -21.4630   20.4690 C   0  0  0  0  0  3  0  0  0  0  0  0
  -29.7960  -18.0970   20.2420 C   0  0  0  0  0  3  0  0  0  0  0  0
  -30.1800  -16.0740   20.3230 C   0  0  0  0  0  2  0  0  0  0  0  0
  -30.3380  -13.3990   19.6030 C   0  0  0  0  0  2  0  0  0  0  0  0
  -29.5440  -12.8140   18.3890 C   0  0  0  0  0  2  0  0  0  0  0  0
  -28.1110  -12.4180   18.7780 C   0  0  0  0  0  2  0  0  0  0  0  0
  -27.5300  -13.4370   19.7860 C   0  0  0  0  0  3  0  0  0  0  0  0
  -28.5020  -13.9170   20.9000 C   0  0  0  0  0  2  0  0  0  0  0  0
  -29.6430  -14.6500   20.2550 N   0  0  0  0  0  0  0  0  0  0  0  0
  -31.4020  -15.7770   20.2880 O   0  0  0  0  0  1  0  0  0  0  0  0
  -25.1560  -13.9260   20.5010 C   0  0  0  0  0  0  0  0  0  0  0  0
  -24.0960  -13.1390   20.8540 C   0  0  0  0  0  0  0  0  0  0  0  0
  -24.5790  -11.7940   20.8500 C   0  0  0  0  0  0  0  0  0  0  0  0
  -26.2150  -13.0630   20.2910 N   0  0  0  0  0  0  0  0  0  0  0  0
  -25.8820  -11.7720   20.5680 N   0  0  0  0  0  0  0  0  0  0  0  0
  -23.8490  -10.5290   21.0410 C   0  0  0  0  0  0  0  0  0  0  0  0
  -24.2720   -9.5620   21.9800 C   0  0  0  0  0  3  0  0  0  0  0  0
  -23.5360   -8.3730   22.1630 C   0  0  0  0  0  3  0  0  0  0  0  0
  -22.3630   -8.1370   21.4060 C   0  0  0  0  0  0  0  0  0  0  0  0
  -21.9590   -9.0920   20.4580 C   0  0  0  0  0  3  0  0  0  0  0  0
  -22.6960  -10.2730   20.2720 C   0  0  0  0  0  3  0  0  0  0  0  0
  -21.6010   -6.9960   21.4980 O   0  0  0  0  0  0  0  0  0  0  0  0
  -21.5590   -6.2440   22.6450 C   0  0  0  0  0  0  0  0  0  0  0  0
  -21.1740   -6.8000   23.8850 C   0  0  0  0  0  3  0  0  0  0  0  0
  -21.0800   -5.9780   25.0250 C   0  0  0  0  0  3  0  0  0  0  0  0
  -21.3600   -4.6040   24.9280 C   0  0  0  0  0  0  0  0  0  0  0  0
  -21.7350   -4.0440   23.6920 C   0  0  0  0  0  3  0  0  0  0  0  0
  -21.8340   -4.8650   22.5540 C   0  0  0  0  0  0  0  0  0  0  0  0
  -22.1770   -4.3190   21.3630 F   0  0  0  0  0  0  0  0  0  0  0  0
  -21.2590   -3.8110   26.0210 F   0  0  0  0  0  0  0  0  0  0  0  0
  -22.6910  -13.6110   21.0700 C   0  0  0  0  0  0  0  0  0  0  0  0
  -21.9410  -12.9350   21.9350 N   0  0  0  0  0  0  0  0  0  0  0  0
  -22.2650  -14.6220   20.5110 O   0  0  0  0  0  0  0  0  0  0  0  0
  -22.3000  -12.1220   22.4110 H   0  0  0  0  0  0  0  0  0  0  0  0
  -20.9930  -13.2360   22.1190 H   0  0  0  0  0  0  0  0  0  0  0  0
  -25.3030  -15.2950   20.3100 N   0  0  0  0  0  0  0  0  0  0  0  0
  -24.5250  -15.9350   20.4140 H   0  0  0  0  0  0  0  0  0  0  0  0
  -26.1560  -15.7470   20.0080 H   0  0  0  0  0  0  0  0  0  0  0  0
  -28.2280  -23.1630   19.8320 N   0  0  0  0  0  2  0  0  0  0  0  0
  -28.7630  -23.1890   18.9670 H   0  0  0  0  0  0  0  0  0  0  0  0
  -28.2010  -25.0960   20.3730 O   0  0  0  0  0  1  0  0  0  0  0  0
  -24.6620  -31.7730   23.0790 C   0  0  0  0  0  0  0  0  0  0  0  0
  -27.2440  -26.4240   20.2050 C   0  0  0  0  0  0  0  0  0  0  0  0
  -23.5090  -30.3330   21.4550 C   0  0  0  0  0  3  0  0  0  0  0  0
  -24.9850  -28.6200   20.0900 C   0  0  0  0  0  0  0  0  0  0  0  0
  -26.0970  -30.4100   21.3950 C   0  0  0  0  0  2  0  0  0  0  0  0
  -26.1720  -28.9400   20.7530 C   0  0  0  0  0  0  0  0  0  0  0  0
  -27.2640  -27.8750   20.7750 C   0  0  0  0  0  3  0  0  0  0  0  0
  -26.0250  -26.3960   19.4540 C   0  0  0  0  0  3  0  0  0  0  0  0
  -24.9670  -27.3800   19.4180 C   0  0  0  0  0  3  0  0  0  0  0  0
  -23.7830  -29.5940   20.1060 C   0  0  0  0  0  2  0  0  0  0  0  0
  -24.7820  -30.8840   22.0250 N   0  0  0  0  0  0  0  0  0  0  0  0
  -23.5590  -32.0850   23.5610 O   0  0  0  0  0  0  0  0  0  0  0  0
  -22.7640  -29.3940   22.4430 C   0  0  0  0  0  0  0  0  0  0  0  0
  -21.4240  -29.2700   22.3440 N   0  0  0  0  0  0  0  0  0  0  0  0
  -23.4080  -28.7690   23.2900 O   0  0  0  0  0  0  0  0  0  0  0  0
  -20.9440  -29.8220   21.6460 H   0  0  0  0  0  0  0  0  0  0  0  0
  -18.0260  -28.0900   22.9180 C   0  0  0  0  0  0  0  0  0  0  0  0
  -20.5960  -28.3450   23.1300 C   0  0  0  0  0  3  0  0  0  0  0  0
  -20.6710  -26.9080   22.5570 C   0  0  0  0  0  2  0  0  0  0  0  0
  -19.5510  -26.5980   21.5600 C   0  0  0  0  0  2  0  0  0  0  0  0
  -18.1820  -26.7450   22.2300 C   0  0  0  0  0  2  0  0  0  0  0  0
  -19.1580  -28.8490   23.3260 C   0  0  0  0  0  0  0  0  0  0  0  0
  -18.9510  -30.1030   23.9410 C   0  0  0  0  0  3  0  0  0  0  0  0
  -17.6500  -30.6020   24.1460 C   0  0  0  0  0  3  0  0  0  0  0  0
  -16.5360  -29.8430   23.7460 C   0  0  0  0  0  3  0  0  0  0  0  0
  -16.7250  -28.5890   23.1410 C   0  0  0  0  0  3  0  0  0  0  0  0
  -25.9050  -32.4600   23.7260 C   0  0  0  0  0  3  0  0  0  0  0  0
  -25.5430  -33.8520   24.0800 N   0  0  0  0  0  0  0  0  0  0  0  0
  -25.8520  -34.9440   23.3670 C   0  0  0  0  0  0  0  0  0  0  0  0
  -26.5110  -34.8910   22.3260 O   0  0  0  0  0  0  0  0  0  0  0  0
  -24.9510  -33.9660   24.8900 H   0  0  0  0  0  0  0  0  0  0  0  0
  -24.0720  -36.7180   23.1170 C   0  0  0  0  0  1  0  0  0  0  0  0
  -25.3450  -36.3140   23.8790 C   0  0  0  0  0  3  0  0  0  0  0  0
  -27.4880  -37.2290   24.6610 C   0  0  0  0  0  1  0  0  0  0  0  0
  -26.3440  -37.4020   23.7720 N   0  0  0  0  0  0  0  0  0  0  0  0
  -25.9160  -38.2980   23.9840 H   0  0  0  0  0  0  0  0  0  0  0  0
  -26.4210  -31.7090   25.0160 C   0  0  1  0  0  0  0  0  0  0  0  0
  -25.3220  -31.4670   26.0780 C   0  0  0  0  0  1  0  0  0  0  0  0
  -27.0310  -30.3330   24.6710 C   0  0  0  0  0  1  0  0  0  0  0  0
  -27.5540  -32.5270   25.6800 C   0  0  0  0  0  1  0  0  0  0  0  0
  1  2  1  0
  3  1  1  0
  5  8  1  0
  5  7  1  0
  6  4  1  0
  6  2  1  0
  7 45  1  0
  7  4  1  0
  8  3  1  0
  8  6  1  0
 10 15  1  0
 11 12  1  0
 11 10  1  0
 13 12  1  0
 13 20  1  0
 13 14  1  0
 15  9  1  0
 15 14  1  0
 16  9  1  0
 17 18  2  0
 18 37  1  0
 19 18  1  0
 19 22  1  0
 20 17  1  0
 20 21  1  0
 21 19  2  0
 22 23  1  0
 23 24  2  0
 25 28  1  0
 25 24  1  0
 26 25  2  0
 27 26  1  0
 27 22  2  0
 28 29  1  0
 29 30  1  0
 30 31  2  0
 32 31  1  0
 32 36  1  0
 33 32  2  0
 34 29  2  0
 34 33  1  0
 35 34  1  0
 37 38  1  0
 38 41  1  0
 38 40  1  0
 39 37  2  0
 42 43  1  0
 42 17  1  0
 44 42  1  0
 46 45  1  0
 48 59  2  0
 49 47  1  0
 49 54  1  0
 50 58  1  0
 50 60  1  0
 51 57  1  0
 51 53  1  0
 52 58  1  0
 53 54  2  0
 53 52  1  0
 55 49  2  0
 56 55  1  0
 56 51  2  0
 57 50  1  0
 58 48  1  0
 60 62  2  0
 61 60  1  0
 63 61  1  0
 64 73  2  0
 64 69  1  0
 65 61  1  0
 65 69  1  0
 66 65  1  0
 67 68  1  0
 67 66  1  0
 68 64  1  0
 69 70  2  0
 70 71  1  0
 72 71  2  0
 73 72  1  0
 74 48  1  0
 74 75  1  0
 74 84  1  0
 75 78  1  0
 76 80  1  0
 76 75  1  0
 77 76  2  0
 80 79  1  0
 82 80  1  0
 82 83  1  0
 82 81  1  0
 84 87  1  1
 84 85  1  0
 86 84  1  0
M  ISO  4   8 100   9 100  45 101  47 101
M  END
>  <TORSDO>  (27) 
F 17

>  <SCORE>  (27) 
-16.457

>  <name>  (27) 
26

>  <ligand_id>  (27) 
26

>  <original_smiles>  (27) 
[H]c1c([H])c([H])c2c(c1[H])C([H])([H])C([H])([H])C([H])([H])C2([H])N([H])C(=O)C1([H])N(C(=O)C([H])(N([H])C(=O)C([H])(N([H])C([H])([H])[H])C([H])([H])[H])C(C([H])([H])[H])(C([H])([H])[H])C([H])([H])[H])C([H])([H])c2c([H])c(ON([H])C3([H])C([H])([H])C4([H])C([H])([H])C([H])([H])C([H])([H])C4(C(=O)N4C([H])([H])C([H])([H])C([H])([H])C([H])(n5nc(-c6c([H])c([H])c(Oc7c([H])c([H])c(F)c([H])c7F)c([H])c6[H])c(C(=O)N([H])[H])c5N([H])[H])C4([H])[H])C3([H])[H])c([H])c([H])c2C1([H])[H]

>  <smiles>  (27) 
[H]c1c([H])c([H])c2c(c1[H])C([H])([H])C([H])([H])C([H])([H])C2([H])N([H])C(=O)C1([H])N(C(=O)C([H])(N([H])C(=O)C([H])(N([H])C([H])([H])[H])C([H])([H])[H])C(C([H])([H])[H])(C([H])([H])[H])C([H])([H])[H])C([H])([H])c2c([H])c(ON([H])C3([H])C([H])([H])C4([H])C([H])([H])C([H])([H])C([H])([H])C4(C(=O)N4C([H])([H])C([H])([H])C([H])([H])C([H])(n5nc(-c6c([H])c([H])c(Oc7c([H])c([H])c(F)c([H])c7F)c([H])c6[H])c(C(=O)N([H])[H])c5N([H])[H])C4([H])[H])C3([H])[H])c([H])c([H])c2C1([H])[H]

$$$$
27:0:0
     RDKit          3D

 94103  0  0  1  0  0  0  0  0999 V2000
  -28.0090  -24.0960   22.5320 C   0  0  0  0  0  3  0  0  0  0  0  0
  -27.9720  -25.2120   21.6830 C   0  0  0  0  0  3  0  0  0  0  0  0
  -28.6450  -23.7400   19.8530 C   0  0  0  0  0  3  0  0  0  0  0  0
  -28.6970  -22.5290   20.7190 C   0  0  0  0  0  0  0  0  0  0  0  0
  -28.3590  -22.8080   22.0810 C   0  0  0  0  0  0  0  0  0  0  0  0
  -28.2820  -25.1130   20.3160 C   0  0  0  0  0  0  0  0  0  0  0  0
  -30.3560  -20.2740   20.9640 C   0  0  0  0  0  2  0  0  0  0  0  0
  -28.8040  -20.1420   19.0740 C   0  0  0  0  0  2  0  0  0  0  0  0
  -30.3900  -18.6740   21.1180 C   0  0  0  0  0  2  0  0  0  0  0  0
  -28.8360  -18.5270   19.2110 C   0  0  0  0  0  2  0  0  0  0  0  0
  -29.0220  -20.9260   20.4180 C   0  0  0  0  0  3  0  0  0  0  0  0
  -30.1100  -17.7910   19.8370 C   0  0  0  0  0  3  0  0  0  0  0  0
  -30.8090  -15.1210   19.7940 C   0  0  0  0  0  0  0  0  0  0  0  0
  -30.6990  -12.7600   18.8940 C   0  0  0  0  0  2  0  0  0  0  0  0
  -29.6850  -12.6930   17.7280 C   0  0  0  0  0  2  0  0  0  0  0  0
  -28.2540  -12.4690   18.2580 C   0  0  0  0  0  2  0  0  0  0  0  0
  -27.9120  -13.3950   19.4540 C   0  0  0  0  0  3  0  0  0  0  0  0
  -29.0390  -13.4220   20.5080 C   0  0  0  0  0  2  0  0  0  0  0  0
  -30.2650  -13.8440   19.8190 N   0  0  0  0  0  0  0  0  0  0  0  0
  -31.9590  -15.2540   19.3640 O   0  0  0  0  0  0  0  0  0  0  0  0
  -29.9880  -16.2390   20.0620 N   0  0  0  0  0  0  0  0  0  0  0  0
  -29.0850  -15.9560   20.4130 H   0  0  0  0  0  0  0  0  0  0  0  0
  -25.6000  -13.9340   20.4160 C   0  0  0  0  0  0  0  0  0  0  0  0
  -24.5700  -13.1400   20.8380 C   0  0  0  0  0  0  0  0  0  0  0  0
  -25.0260  -11.7920   20.6960 C   0  0  0  0  0  0  0  0  0  0  0  0
  -26.6160  -13.0720   20.0430 N   0  0  0  0  0  0  0  0  0  0  0  0
  -26.2850  -11.7750   20.2750 N   0  0  0  0  0  0  0  0  0  0  0  0
  -24.3150  -10.5200   20.8820 C   0  0  0  0  0  0  0  0  0  0  0  0
  -24.7000   -9.5950   21.8770 C   0  0  0  0  0  3  0  0  0  0  0  0
  -23.9860   -8.3900   22.0500 C   0  0  0  0  0  3  0  0  0  0  0  0
  -22.8740   -8.1000   21.2250 C   0  0  0  0  0  0  0  0  0  0  0  0
  -22.5080   -9.0140   20.2210 C   0  0  0  0  0  3  0  0  0  0  0  0
  -23.2220  -10.2110   20.0470 C   0  0  0  0  0  3  0  0  0  0  0  0
  -22.1370   -6.9420   21.3030 O   0  0  0  0  0  0  0  0  0  0  0  0
  -21.8530   -6.3500   22.5070 C   0  0  0  0  0  0  0  0  0  0  0  0
  -21.1390   -7.0270   23.5200 C   0  0  0  0  0  3  0  0  0  0  0  0
  -20.8070   -6.3570   24.7140 C   0  0  0  0  0  3  0  0  0  0  0  0
  -21.1780   -5.0120   24.8950 C   0  0  0  0  0  0  0  0  0  0  0  0
  -21.8840   -4.3340   23.8850 C   0  0  0  0  0  3  0  0  0  0  0  0
  -22.2170   -5.0010   22.6930 C   0  0  0  0  0  0  0  0  0  0  0  0
  -22.8790   -4.3370   21.7140 F   0  0  0  0  0  0  0  0  0  0  0  0
  -20.8520   -4.3650   26.0390 F   0  0  0  0  0  0  0  0  0  0  0  0
  -23.2020  -13.6000   21.2510 C   0  0  0  0  0  0  0  0  0  0  0  0
  -22.5510  -12.8620   22.1430 N   0  0  0  0  0  0  0  0  0  0  0  0
  -22.7230  -14.6470   20.8190 O   0  0  0  0  0  0  0  0  0  0  0  0
  -22.9550  -12.0150   22.5140 H   0  0  0  0  0  0  0  0  0  0  0  0
  -21.6370  -13.1490   22.4610 H   0  0  0  0  0  0  0  0  0  0  0  0
  -25.7460  -15.3130   20.2920 N   0  0  0  0  0  0  0  0  0  0  0  0
  -24.9790  -15.9470   20.4880 H   0  0  0  0  0  0  0  0  0  0  0  0
  -26.5330  -15.7720   19.8490 H   0  0  0  0  0  0  0  0  0  0  0  0
  -28.3540  -21.8170   23.0620 N   0  0  0  0  0  0  0  0  0  0  0  0
  -28.3520  -22.0820   24.0410 H   0  0  0  0  0  0  0  0  0  0  0  0
  -28.8180  -20.9340   22.8760 H   0  0  0  0  0  0  0  0  0  0  0  0
  -28.2750  -26.3880   19.6090 O   0  0  0  0  0  0  0  0  0  0  0  0
  -24.6510  -31.7730   23.0860 C   0  0  0  0  0  0  0  0  0  0  0  0
  -27.2040  -27.3340   19.7070 C   0  0  0  0  0  0  0  0  0  0  0  0
  -23.4130  -30.4490   21.4110 C   0  0  0  0  0  3  0  0  0  0  0  0
  -24.8410  -28.9940   19.8450 C   0  0  0  0  0  0  0  0  0  0  0  0
  -25.9500  -30.7920   21.1670 C   0  0  0  0  0  2  0  0  0  0  0  0
  -26.0290  -29.4410   20.4400 C   0  0  0  0  0  0  0  0  0  0  0  0
  -27.2160  -28.6260   20.3570 C   0  0  0  0  0  3  0  0  0  0  0  0
  -25.9920  -26.9760   19.0830 C   0  0  0  0  0  3  0  0  0  0  0  0
  -24.8310  -27.7750   19.1520 C   0  0  0  0  0  3  0  0  0  0  0  0
  -23.5950  -29.8550   19.9900 C   0  0  0  0  0  2  0  0  0  0  0  0
  -24.6910  -31.0230   21.9430 N   0  0  0  0  0  0  0  0  0  0  0  0
  -23.5830  -32.0010   23.6740 O   0  0  0  0  0  0  0  0  0  0  0  0
  -22.7970  -29.3720   22.3370 C   0  0  0  0  0  0  0  0  0  0  0  0
  -21.4750  -29.1540   22.2250 N   0  0  0  0  0  0  0  0  0  0  0  0
  -23.5090  -28.7380   23.1200 O   0  0  0  0  0  0  0  0  0  0  0  0
  -20.9570  -29.7180   21.5650 H   0  0  0  0  0  0  0  0  0  0  0  0
  -18.1590  -27.7730   22.6950 C   0  0  0  0  0  0  0  0  0  0  0  0
  -20.7010  -28.1530   22.9640 C   0  0  0  0  0  3  0  0  0  0  0  0
  -20.8730  -26.7480   22.3420 C   0  0  0  0  0  2  0  0  0  0  0  0
  -19.7850  -26.4040   21.3200 C   0  0  0  0  0  2  0  0  0  0  0  0
  -18.4000  -26.4580   21.9720 C   0  0  0  0  0  2  0  0  0  0  0  0
  -19.2400  -28.5750   23.1470 C   0  0  0  0  0  0  0  0  0  0  0  0
  -18.9610  -29.8020   23.7870 C   0  0  0  0  0  3  0  0  0  0  0  0
  -17.6340  -30.2320   23.9740 C   0  0  0  0  0  3  0  0  0  0  0  0
  -16.5670  -29.4280   23.5380 C   0  0  0  0  0  3  0  0  0  0  0  0
  -16.8300  -28.1980   22.9060 C   0  0  0  0  0  3  0  0  0  0  0  0
  -25.9430  -32.3970   23.6990 C   0  0  0  0  0  3  0  0  0  0  0  0
  -25.6220  -33.7710   24.1150 N   0  0  0  0  0  0  0  0  0  0  0  0
  -25.9310  -34.8740   23.4150 C   0  0  0  0  0  0  0  0  0  0  0  0
  -26.5840  -34.8390   22.3700 O   0  0  0  0  0  0  0  0  0  0  0  0
  -25.0360  -33.8680   24.9310 H   0  0  0  0  0  0  0  0  0  0  0  0
  -24.1790  -36.6650   23.1970 C   0  0  0  0  0  1  0  0  0  0  0  0
  -25.4380  -36.2290   23.9620 C   0  0  0  0  0  3  0  0  0  0  0  0
  -27.5740  -37.0870   24.8170 C   0  0  0  0  0  1  0  0  0  0  0  0
  -26.4610  -37.2970   23.8960 N   0  0  0  0  0  0  0  0  0  0  0  0
  -26.0490  -38.2030   24.1000 H   0  0  0  0  0  0  0  0  0  0  0  0
  -26.5090  -31.5720   24.9200 C   0  0  1  0  0  0  0  0  0  0  0  0
  -25.4520  -31.2580   26.0060 C   0  0  0  0  0  1  0  0  0  0  0  0
  -27.1070  -30.2270   24.4470 C   0  0  0  0  0  1  0  0  0  0  0  0
  -27.6660  -32.3530   25.5890 C   0  0  0  0  0  1  0  0  0  0  0  0
  2  1  2  0
  3  6  2  0
  3  4  1  0
  4  5  2  0
  5  1  1  0
  5 51  1  0
  6  2  1  0
  7  9  1  0
  8 10  1  0
  8 11  1  0
 10 12  1  0
 11  4  1  0
 11  7  1  0
 12 21  1  0
 12  9  1  0
 13 19  1  0
 13 21  1  0
 14 19  1  0
 15 16  1  0
 15 14  1  0
 17 16  1  0
 17 26  1  0
 17 18  1  0
 19 18  1  0
 20 13  2  0
 21 22  1  0
 23 24  2  0
 24 43  1  0
 25 24  1  0
 25 28  1  0
 26 27  1  0
 26 23  1  0
 27 25  2  0
 28 29  1  0
 29 30  2  0
 31 34  1  0
 31 30  1  0
 32 31  2  0
 33 32  1  0
 33 28  2  0
 34 35  1  0
 35 40  2  0
 35 36  1  0
 36 37  2  0
 37 38  1  0
 38 42  1  0
 39 38  2  0
 40 39  1  0
 41 40  1  0
 43 44  1  0
 44 47  1  0
 44 46  1  0
 45 43  2  0
 48 23  1  0
 48 49  1  0
 50 48  1  0
 51 52  1  0
 53 51  1  0
 54 56  1  0
 54  6  1  0
 55 66  2  0
 56 61  1  0
 57 65  1  0
 57 67  1  0
 58 64  1  0
 58 60  1  0
 59 65  1  0
 60 59  1  0
 61 60  2  0
 62 63  1  0
 62 56  2  0
 63 58  2  0
 64 57  1  0
 65 55  1  0
 67 69  2  0
 68 67  1  0
 70 68  1  0
 71 80  2  0
 71 76  1  0
 72 68  1  0
 72 76  1  0
 73 72  1  0
 74 75  1  0
 74 73  1  0
 75 71  1  0
 76 77  2  0
 77 78  1  0
 79 78  2  0
 80 79  1  0
 81 55  1  0
 81 82  1  0
 81 91  1  0
 82 85  1  0
 83 87  1  0
 83 82  1  0
 84 83  2  0
 87 86  1  0
 89 87  1  0
 89 90  1  0
 89 88  1  0
 91 94  1  1
 91 92  1  0
 93 91  1  0
M  ISO  4   6 101  13 100  21 100  54 101
M  END
>  <TORSDO>  (28) 
F 18

>  <SCORE>  (28) 
-12.876

>  <name>  (28) 
27

>  <ligand_id>  (28) 
27

>  <original_smiles>  (28) 
[H]c1c([H])c([H])c2c(c1[H])C([H])([H])C([H])([H])C([H])([H])C2([H])N([H])C(=O)C1([H])N(C(=O)C([H])(N([H])C(=O)C([H])(N([H])C([H])([H])[H])C([H])([H])[H])C(C([H])([H])[H])(C([H])([H])[H])C([H])([H])[H])C([H])([H])c2c([H])c(Oc3c([H])c([H])c(N([H])[H])c(C4([H])C([H])([H])C([H])([H])C([H])(N([H])C(=O)N5C([H])([H])C([H])([H])C([H])([H])C([H])(n6nc(-c7c([H])c([H])c(Oc8c([H])c([H])c(F)c([H])c8F)c([H])c7[H])c(C(=O)N([H])[H])c6N([H])[H])C5([H])[H])C([H])([H])C4([H])[H])c3[H])c([H])c([H])c2C1([H])[H]

>  <smiles>  (28) 
[H]c1c([H])c([H])c2c(c1[H])C([H])([H])C([H])([H])C([H])([H])C2([H])N([H])C(=O)C1([H])N(C(=O)C([H])(N([H])C(=O)C([H])(N([H])C([H])([H])[H])C([H])([H])[H])C(C([H])([H])[H])(C([H])([H])[H])C([H])([H])[H])C([H])([H])c2c([H])c(Oc3c([H])c([H])c(N([H])[H])c(C4([H])C([H])([H])C([H])([H])C([H])(N([H])C(=O)N5C([H])([H])C([H])([H])C([H])([H])C([H])(n6nc(-c7c([H])c([H])c(Oc8c([H])c([H])c(F)c([H])c8F)c([H])c7[H])c(C(=O)N([H])[H])c6N([H])[H])C5([H])[H])C([H])([H])C4([H])[H])c3[H])c([H])c([H])c2C1([H])[H]

$$$$
28:0:0
     RDKit          3D

 94103  0  0  1  0  0  0  0  0999 V2000
  -27.5910  -20.3910   19.2180 C   0  0  0  0  0  3  0  0  0  0  0  0
  -26.7770  -21.4620   18.8070 C   0  0  0  0  0  3  0  0  0  0  0  0
  -28.8550  -21.9830   20.5170 C   0  0  0  0  0  3  0  0  0  0  0  0
  -28.6710  -20.5530   20.1010 C   0  0  0  0  0  0  0  0  0  0  0  0
  -28.0290  -23.1680   20.1010 C   0  0  0  0  0  0  0  0  0  0  0  0
  -26.9450  -22.8000   19.2510 C   0  0  0  0  0  0  0  0  0  0  0  0
  -24.7470  -23.3620   18.3960 C   0  0  0  0  0  1  0  0  0  0  0  0
  -26.0110  -23.7590   18.9320 O   0  0  0  0  0  0  0  0  0  0  0  0
  -29.3560  -19.1450   20.6850 C   0  0  0  0  0  2  0  0  0  0  0  0
  -31.5140  -19.0720   18.3630 C   0  0  0  0  0  2  0  0  0  0  0  0
  -30.2770  -18.7060   17.5470 C   0  0  0  0  0  2  0  0  0  0  0  0
  -31.4910  -18.1690   19.6000 C   0  0  0  0  0  2  0  0  0  0  0  0
  -29.5060  -17.6940   18.4010 C   0  0  0  0  0  2  0  0  0  0  0  0
  -30.0080  -17.7850   19.8650 C   0  0  2  0  0  0  0  0  0  0  0  0
  -30.6300  -15.0580   20.2930 C   0  0  0  0  0  0  0  0  0  0  0  0
  -30.4730  -12.6960   19.3880 C   0  0  0  0  0  2  0  0  0  0  0  0
  -29.5580  -12.6790   18.1440 C   0  0  0  0  0  2  0  0  0  0  0  0
  -28.0960  -12.4550   18.5670 C   0  0  0  0  0  2  0  0  0  0  0  0
  -27.6820  -13.3740   19.7460 C   0  0  0  0  0  3  0  0  0  0  0  0
  -28.7310  -13.4070   20.8780 C   0  0  0  0  0  2  0  0  0  0  0  0
  -30.0070  -13.8070   20.2730 N   0  0  0  0  0  0  0  0  0  0  0  0
  -31.8280  -15.0580   19.9970 O   0  0  0  0  0  0  0  0  0  0  0  0
  -29.8900  -16.2810   20.4240 N   0  0  0  0  0  0  0  0  0  0  0  0
  -28.9660  -16.0990   20.7880 H   0  0  0  0  0  0  0  0  0  0  0  0
  -25.2970  -13.9370   20.4680 C   0  0  0  0  0  0  0  0  0  0  0  0
  -24.2360  -13.1570   20.8380 C   0  0  0  0  0  0  0  0  0  0  0  0
  -24.7100  -11.8080   20.8170 C   0  0  0  0  0  0  0  0  0  0  0  0
  -26.3460  -13.0640   20.2390 N   0  0  0  0  0  0  0  0  0  0  0  0
  -26.0030  -11.7790   20.5190 N   0  0  0  0  0  0  0  0  0  0  0  0
  -23.9860  -10.5420   21.0080 C   0  0  0  0  0  0  0  0  0  0  0  0
  -24.4160   -9.5830   21.9520 C   0  0  0  0  0  3  0  0  0  0  0  0
  -23.6960   -8.3830   22.1320 C   0  0  0  0  0  3  0  0  0  0  0  0
  -22.5310   -8.1330   21.3680 C   0  0  0  0  0  0  0  0  0  0  0  0
  -22.1210   -9.0800   20.4140 C   0  0  0  0  0  3  0  0  0  0  0  0
  -22.8420  -10.2720   20.2310 C   0  0  0  0  0  3  0  0  0  0  0  0
  -21.7850   -6.9820   21.4560 O   0  0  0  0  0  0  0  0  0  0  0  0
  -21.7280   -6.2480   22.6130 C   0  0  0  0  0  0  0  0  0  0  0  0
  -21.2750   -6.8060   23.8290 C   0  0  0  0  0  3  0  0  0  0  0  0
  -21.1640   -5.9970   24.9770 C   0  0  0  0  0  3  0  0  0  0  0  0
  -21.4970   -4.6310   24.9110 C   0  0  0  0  0  0  0  0  0  0  0  0
  -21.9450   -4.0730   23.7010 C   0  0  0  0  0  3  0  0  0  0  0  0
  -22.0560   -4.8790   22.5540 C   0  0  0  0  0  0  0  0  0  0  0  0
  -22.4680   -4.3310   21.3860 F   0  0  0  0  0  0  0  0  0  0  0  0
  -21.3830   -3.8510   26.0120 F   0  0  0  0  0  0  0  0  0  0  0  0
  -22.8360  -13.6270   21.0960 C   0  0  0  0  0  0  0  0  0  0  0  0
  -22.1000  -12.9340   21.9580 N   0  0  0  0  0  0  0  0  0  0  0  0
  -22.3990  -14.6500   20.5700 O   0  0  0  0  0  0  0  0  0  0  0  0
  -22.4620  -12.1090   22.4100 H   0  0  0  0  0  0  0  0  0  0  0  0
  -21.1620  -13.2420   22.1750 H   0  0  0  0  0  0  0  0  0  0  0  0
  -25.4560  -15.3060   20.2810 N   0  0  0  0  0  0  0  0  0  0  0  0
  -24.6820  -15.9560   20.3640 H   0  0  0  0  0  0  0  0  0  0  0  0
  -26.2950  -15.7330   19.9140 H   0  0  0  0  0  0  0  0  0  0  0  0
  -28.0360  -24.7130   20.7600 C   0  0  0  0  0  2  0  0  0  0  0  0
  -28.1420  -26.1420   20.1080 O   0  0  0  0  0  0  0  0  0  0  0  0
  -24.5810  -31.8990   23.2180 C   0  0  0  0  0  0  0  0  0  0  0  0
  -27.1080  -27.1520   20.1720 C   0  0  0  0  0  0  0  0  0  0  0  0
  -23.3700  -30.5050   21.5930 C   0  0  0  0  0  3  0  0  0  0  0  0
  -24.8040  -28.9340   20.1610 C   0  0  0  0  0  0  0  0  0  0  0  0
  -25.9270  -30.7540   21.4190 C   0  0  0  0  0  2  0  0  0  0  0  0
  -25.9910  -29.3590   20.7720 C   0  0  0  0  0  0  0  0  0  0  0  0
  -27.1470  -28.4840   20.7660 C   0  0  0  0  0  3  0  0  0  0  0  0
  -25.9090  -26.8620   19.5010 C   0  0  0  0  0  3  0  0  0  0  0  0
  -24.7740  -27.6960   19.5090 C   0  0  0  0  0  3  0  0  0  0  0  0
  -23.5830  -29.8370   20.2110 C   0  0  0  0  0  2  0  0  0  0  0  0
  -24.6460  -31.0770   22.1290 N   0  0  0  0  0  0  0  0  0  0  0  0
  -23.4980  -32.1840   23.7540 O   0  0  0  0  0  0  0  0  0  0  0  0
  -22.7000  -29.4920   22.5570 C   0  0  0  0  0  0  0  0  0  0  0  0
  -21.3740  -29.3100   22.4330 N   0  0  0  0  0  0  0  0  0  0  0  0
  -23.3790  -28.8720   23.3800 O   0  0  0  0  0  0  0  0  0  0  0  0
  -20.8800  -29.8590   21.7430 H   0  0  0  0  0  0  0  0  0  0  0  0
  -18.0010  -28.0920   22.9490 C   0  0  0  0  0  0  0  0  0  0  0  0
  -20.5590  -28.3720   23.2120 C   0  0  0  0  0  3  0  0  0  0  0  0
  -20.6710  -26.9380   22.6460 C   0  0  0  0  0  2  0  0  0  0  0  0
  -19.5700  -26.6030   21.6350 C   0  0  0  0  0  2  0  0  0  0  0  0
  -18.1880  -26.7400   22.2800 C   0  0  0  0  0  2  0  0  0  0  0  0
  -19.1150  -28.8650   23.3730 C   0  0  0  0  0  0  0  0  0  0  0  0
  -18.8870  -30.1270   23.9610 C   0  0  0  0  0  3  0  0  0  0  0  0
  -17.5790  -30.6200   24.1280 C   0  0  0  0  0  3  0  0  0  0  0  0
  -16.4800  -29.8430   23.7210 C   0  0  0  0  0  3  0  0  0  0  0  0
  -16.6920  -28.5810   23.1370 C   0  0  0  0  0  3  0  0  0  0  0  0
  -25.8630  -32.5370   23.8310 C   0  0  0  0  0  3  0  0  0  0  0  0
  -26.3770  -31.7810   25.1190 C   0  0  1  0  0  0  0  0  0  0  0  0
  -25.2810  -31.5630   26.1880 C   0  0  0  0  0  1  0  0  0  0  0  0
  -26.9540  -30.3940   24.7540 C   0  0  0  0  0  1  0  0  0  0  0  0
  -27.5310  -32.5770   25.7700 C   0  0  0  0  0  1  0  0  0  0  0  0
  -25.5550  -33.9400   24.1520 N   0  0  0  0  0  0  0  0  0  0  0  0
  -25.8910  -34.9910   23.3910 C   0  0  0  0  0  0  0  0  0  0  0  0
  -26.5590  -34.8810   22.3590 O   0  0  0  0  0  0  0  0  0  0  0  0
  -24.9620  -34.0970   24.9540 H   0  0  0  0  0  0  0  0  0  0  0  0
  -24.1790  -36.7970   23.0250 C   0  0  0  0  0  1  0  0  0  0  0  0
  -25.4110  -36.3840   23.8450 C   0  0  0  0  0  3  0  0  0  0  0  0
  -27.5440  -37.2560   24.6950 C   0  0  0  0  0  1  0  0  0  0  0  0
  -26.4530  -37.4290   23.7390 N   0  0  0  0  0  0  0  0  0  0  0  0
  -26.0520  -38.3530   23.8800 H   0  0  0  0  0  0  0  0  0  0  0  0
  1  4  1  0
  2  1  2  0
  2  6  1  0
  4  3  2  0
  4  9  1  0
  5  3  1  0
  5 53  1  0
  6  5  2  0
  7  8  1  0
  8  6  1  0
 10 12  1  0
 11 10  1  0
 11 13  1  0
 12 14  1  0
 13 14  1  0
 14 23  1  0
 14  9  1  1
 15 23  1  0
 16 21  1  0
 17 18  1  0
 17 16  1  0
 19 18  1  0
 19 28  1  0
 19 20  1  0
 21 15  1  0
 21 20  1  0
 22 15  2  0
 23 24  1  0
 25 26  2  0
 26 45  1  0
 27 26  1  0
 27 30  1  0
 28 25  1  0
 28 29  1  0
 29 27  2  0
 30 31  1  0
 31 32  2  0
 33 36  1  0
 33 32  1  0
 34 33  2  0
 35 34  1  0
 35 30  2  0
 36 37  1  0
 37 38  1  0
 38 39  2  0
 40 39  1  0
 40 44  1  0
 41 40  2  0
 42 37  2  0
 42 41  1  0
 43 42  1  0
 45 46  1  0
 46 49  1  0
 46 48  1  0
 47 45  2  0
 50 51  1  0
 50 25  1  0
 52 50  1  0
 54 56  1  0
 54 53  1  0
 55 66  2  0
 56 61  1  0
 57 65  1  0
 57 67  1  0
 58 64  1  0
 58 60  1  0
 59 65  1  0
 60 59  1  0
 61 60  2  0
 62 63  1  0
 62 56  2  0
 63 58  2  0
 64 57  1  0
 65 55  1  0
 67 69  2  0
 68 67  1  0
 70 68  1  0
 71 80  2  0
 71 76  1  0
 72 68  1  0
 72 76  1  0
 73 72  1  0
 74 75  1  0
 74 73  1  0
 75 71  1  0
 76 77  2  0
 77 78  1  0
 79 78  2  0
 80 79  1  0
 81 55  1  0
 81 86  1  0
 81 82  1  0
 82 85  1  1
 82 83  1  0
 84 82  1  0
 86 89  1  0
 87 91  1  0
 87 86  1  0
 88 87  2  0
 91 90  1  0
 93 91  1  0
 93 94  1  0
 93 92  1  0
M  ISO  4  15 100  23 100  53 101  54 101
M  END
>  <TORSDO>  (29) 
F 20

>  <SCORE>  (29) 
-14.640

>  <name>  (29) 
28

>  <ligand_id>  (29) 
28

>  <original_smiles>  (29) 
[H]c1c([H])c([H])c2c(c1[H])C([H])([H])C([H])([H])C([H])([H])C2([H])N([H])C(=O)C1([H])N(C(=O)C([H])(N([H])C(=O)C([H])(N([H])C([H])([H])[H])C([H])([H])[H])C(C([H])([H])[H])(C([H])([H])[H])C([H])([H])[H])C([H])([H])c2c([H])c(OC([H])([H])c3c([H])c(C([H])([H])C4(N([H])C(=O)N5C([H])([H])C([H])([H])C([H])([H])C([H])(n6nc(-c7c([H])c([H])c(Oc8c([H])c([H])c(F)c([H])c8F)c([H])c7[H])c(C(=O)N([H])[H])c6N([H])[H])C5([H])[H])C([H])([H])C([H])([H])C([H])([H])C4([H])[H])c([H])c([H])c3OC([H])([H])[H])c([H])c([H])c2C1([H])[H]

>  <smiles>  (29) 
[H]c1c([H])c([H])c2c(c1[H])C([H])([H])C([H])([H])C([H])([H])C2([H])N([H])C(=O)C1([H])N(C(=O)C([H])(N([H])C(=O)C([H])(N([H])C([H])([H])[H])C([H])([H])[H])C(C([H])([H])[H])(C([H])([H])[H])C([H])([H])[H])C([H])([H])c2c([H])c(OC([H])([H])c3c([H])c(C([H])([H])C4(N([H])C(=O)N5C([H])([H])C([H])([H])C([H])([H])C([H])(n6nc(-c7c([H])c([H])c(Oc8c([H])c([H])c(F)c([H])c8F)c([H])c7[H])c(C(=O)N([H])[H])c6N([H])[H])C5([H])[H])C([H])([H])C([H])([H])C([H])([H])C4([H])[H])c([H])c([H])c3OC([H])([H])[H])c([H])c([H])c2C1([H])[H]

$$$$
29:0:0
     RDKit          3D

 93102  0  0  1  0  0  0  0  0999 V2000
  -31.1920  -21.9390   20.4770 C   0  0  0  0  0  3  0  0  0  0  0  0
  -28.5620  -21.3140   20.2540 C   0  0  0  0  0  3  0  0  0  0  0  0
  -30.2570  -22.9880   20.6510 C   0  0  0  0  0  0  0  0  0  0  0  0
  -28.8800  -22.8230   20.4020 C   0  0  0  0  0  0  0  0  0  0  0  0
  -30.8640  -20.5890   20.1770 C   0  0  0  0  0  0  0  0  0  0  0  0
  -29.5270  -20.1020   20.1890 C   0  0  0  0  0  0  0  0  0  0  0  0
  -30.7160  -24.3220   21.2160 C   0  0  0  0  0  2  0  0  0  0  0  0
  -29.7930  -24.7830   22.3820 C   0  0  0  0  0  2  0  0  0  0  0  0
  -28.2730  -24.5090   22.1570 C   0  0  0  0  0  2  0  0  0  0  0  0
  -27.9610  -24.2960   20.6610 C   0  0  0  0  0  3  0  0  0  0  0  0
  -28.1940  -25.8770   20.2310 O   0  0  0  0  0  0  0  0  0  0  0  0
  -24.6370  -31.8790   23.1850 C   0  0  0  0  0  0  0  0  0  0  0  0
  -27.1860  -26.9780   20.2270 C   0  0  0  0  0  0  0  0  0  0  0  0
  -23.4470  -30.4850   21.5380 C   0  0  0  0  0  3  0  0  0  0  0  0
  -24.8990  -28.8690   20.1410 C   0  0  0  0  0  0  0  0  0  0  0  0
  -26.0190  -30.6870   21.4150 C   0  0  0  0  0  2  0  0  0  0  0  0
  -26.0850  -29.2750   20.7660 C   0  0  0  0  0  0  0  0  0  0  0  0
  -27.2280  -28.3520   20.7790 C   0  0  0  0  0  3  0  0  0  0  0  0
  -25.9710  -26.7240   19.5550 C   0  0  0  0  0  3  0  0  0  0  0  0
  -24.8680  -27.6130   19.5110 C   0  0  0  0  0  3  0  0  0  0  0  0
  -23.6900  -29.8020   20.1650 C   0  0  0  0  0  2  0  0  0  0  0  0
  -24.7210  -31.0460   22.0980 N   0  0  0  0  0  0  0  0  0  0  0  0
  -23.5450  -32.1760   23.6960 O   0  0  0  0  0  0  0  0  0  0  0  0
  -22.7390  -29.4940   22.4990 C   0  0  0  0  0  0  0  0  0  0  0  0
  -21.4070  -29.3400   22.3680 N   0  0  0  0  0  0  0  0  0  0  0  0
  -23.3940  -28.8650   23.3330 O   0  0  0  0  0  0  0  0  0  0  0  0
  -20.9310  -29.9020   21.6740 H   0  0  0  0  0  0  0  0  0  0  0  0
  -18.0120  -28.1600   22.8710 C   0  0  0  0  0  0  0  0  0  0  0  0
  -20.5730  -28.4090   23.1390 C   0  0  0  0  0  3  0  0  0  0  0  0
  -20.6640  -26.9740   22.5670 C   0  0  0  0  0  2  0  0  0  0  0  0
  -19.5620  -26.6600   21.5510 C   0  0  0  0  0  2  0  0  0  0  0  0
  -18.1800  -26.8130   22.1910 C   0  0  0  0  0  2  0  0  0  0  0  0
  -19.1340  -28.9160   23.3030 C   0  0  0  0  0  0  0  0  0  0  0  0
  -18.9200  -30.1760   23.9030 C   0  0  0  0  0  3  0  0  0  0  0  0
  -17.6170  -30.6800   24.0750 C   0  0  0  0  0  3  0  0  0  0  0  0
  -16.5090  -29.9220   23.6560 C   0  0  0  0  0  3  0  0  0  0  0  0
  -16.7070  -28.6630   23.0640 C   0  0  0  0  0  3  0  0  0  0  0  0
  -25.9070  -32.5150   23.8260 C   0  0  0  0  0  3  0  0  0  0  0  0
  -25.5920  -33.9150   24.1660 N   0  0  0  0  0  0  0  0  0  0  0  0
  -25.9290  -34.9780   23.4250 C   0  0  0  0  0  0  0  0  0  0  0  0
  -26.6010  -34.8860   22.3940 O   0  0  0  0  0  0  0  0  0  0  0  0
  -24.9970  -34.0610   24.9690 H   0  0  0  0  0  0  0  0  0  0  0  0
  -24.2130  -36.7900   23.0930 C   0  0  0  0  0  1  0  0  0  0  0  0
  -25.4500  -36.3650   23.9010 C   0  0  0  0  0  3  0  0  0  0  0  0
  -27.5820  -37.2320   24.7530 C   0  0  0  0  0  1  0  0  0  0  0  0
  -26.4870  -37.4150   23.8060 N   0  0  0  0  0  0  0  0  0  0  0  0
  -26.0830  -38.3350   23.9630 H   0  0  0  0  0  0  0  0  0  0  0  0
  -26.4080  -31.7430   25.1090 C   0  0  1  0  0  0  0  0  0  0  0  0
  -25.3040  -31.5110   26.1670 C   0  0  0  0  0  1  0  0  0  0  0  0
  -26.9930  -30.3610   24.7380 C   0  0  0  0  0  1  0  0  0  0  0  0
  -27.5550  -32.5340   25.7820 C   0  0  0  0  0  1  0  0  0  0  0  0
  -29.3550  -18.3840   19.8630 C   0  0  0  0  0  2  0  0  0  0  0  0
  -29.8320  -16.8650   20.6980 C   0  0  0  0  0  2  0  0  0  0  0  0
  -30.4170  -15.2810   20.2140 C   0  0  0  0  0  0  0  0  0  0  0  0
  -30.3350  -12.8330   19.3540 C   0  0  0  0  0  2  0  0  0  0  0  0
  -29.4100  -12.6930   18.1170 C   0  0  0  0  0  2  0  0  0  0  0  0
  -27.9580  -12.4440   18.5480 C   0  0  0  0  0  2  0  0  0  0  0  0
  -27.5310  -13.3750   19.7090 C   0  0  0  0  0  3  0  0  0  0  0  0
  -28.5890  -13.5000   20.8300 C   0  0  0  0  0  2  0  0  0  0  0  0
  -29.8370  -13.9770   20.2090 N   0  0  0  0  0  0  0  0  0  0  0  0
  -31.5950  -15.2350   19.8310 O   0  0  0  0  0  0  0  0  0  0  0  0
  -25.1660  -13.9330   20.4660 C   0  0  0  0  0  0  0  0  0  0  0  0
  -24.1050  -13.1600   20.8360 C   0  0  0  0  0  0  0  0  0  0  0  0
  -24.5710  -11.8060   20.8110 C   0  0  0  0  0  0  0  0  0  0  0  0
  -26.2060  -13.0560   20.2230 N   0  0  0  0  0  0  0  0  0  0  0  0
  -25.8590  -11.7690   20.4960 N   0  0  0  0  0  0  0  0  0  0  0  0
  -23.8420  -10.5470   21.0080 C   0  0  0  0  0  0  0  0  0  0  0  0
  -24.2720   -9.5780   21.9440 C   0  0  0  0  0  3  0  0  0  0  0  0
  -23.5390   -8.3870   22.1290 C   0  0  0  0  0  3  0  0  0  0  0  0
  -22.3630   -8.1540   21.3770 C   0  0  0  0  0  0  0  0  0  0  0  0
  -21.9530   -9.1090   20.4330 C   0  0  0  0  0  3  0  0  0  0  0  0
  -22.6850  -10.2920   20.2450 C   0  0  0  0  0  3  0  0  0  0  0  0
  -21.6030   -7.0120   21.4710 O   0  0  0  0  0  0  0  0  0  0  0  0
  -21.5530   -6.2700   22.6260 C   0  0  0  0  0  0  0  0  0  0  0  0
  -21.1170   -6.8270   23.8450 C   0  0  0  0  0  3  0  0  0  0  0  0
  -21.0150   -6.0150   24.9930 C   0  0  0  0  0  3  0  0  0  0  0  0
  -21.3330   -4.6470   24.9200 C   0  0  0  0  0  0  0  0  0  0  0  0
  -21.7560   -4.0870   23.7020 C   0  0  0  0  0  3  0  0  0  0  0  0
  -21.8620   -4.8960   22.5560 C   0  0  0  0  0  0  0  0  0  0  0  0
  -22.2530   -4.3470   21.3800 F   0  0  0  0  0  0  0  0  0  0  0  0
  -21.2270   -3.8660   26.0200 F   0  0  0  0  0  0  0  0  0  0  0  0
  -22.7110  -13.6390   21.1070 C   0  0  0  0  0  0  0  0  0  0  0  0
  -21.9810  -12.9450   21.9740 N   0  0  0  0  0  0  0  0  0  0  0  0
  -22.2770  -14.6660   20.5860 O   0  0  0  0  0  0  0  0  0  0  0  0
  -22.3510  -12.1130   22.4150 H   0  0  0  0  0  0  0  0  0  0  0  0
  -21.0480  -13.2510   22.2030 H   0  0  0  0  0  0  0  0  0  0  0  0
  -25.3330  -15.3060   20.2820 N   0  0  0  0  0  0  0  0  0  0  0  0
  -24.5750  -15.9680   20.3980 H   0  0  0  0  0  0  0  0  0  0  0  0
  -26.1900  -15.7390   19.9650 H   0  0  0  0  0  0  0  0  0  0  0  0
  -32.0190  -19.7390   19.6440 C   0  0  0  0  0  2  0  0  0  0  0  0
  -32.1930  -20.0500   18.1370 C   0  0  0  0  0  2  0  0  0  0  0  0
  -33.1510  -19.3280   15.8920 C   0  0  0  0  0  1  0  0  0  0  0  0
  -33.3060  -19.2760   17.4210 C   0  0  0  0  0  2  0  0  0  0  0  0
  1  3  1  0
  2  4  1  0
  3  7  1  0
  4  3  2  0
  4 10  1  0
  5  6  1  0
  5  1  2  0
  6  2  2  0
  7  8  1  0
  9  8  1  0
 10 11  1  0
 10  9  1  0
 12 23  2  0
 13 11  1  0
 13 18  1  0
 14 22  1  0
 14 24  1  0
 15 21  1  0
 15 17  1  0
 16 22  1  0
 17 18  2  0
 17 16  1  0
 19 13  2  0
 20 19  1  0
 20 15  2  0
 21 14  1  0
 22 12  1  0
 24 26  2  0
 25 24  1  0
 27 25  1  0
 28 37  2  0
 28 33  1  0
 29 25  1  0
 29 33  1  0
 30 29  1  0
 31 32  1  0
 31 30  1  0
 32 28  1  0
 33 34  2  0
 34 35  1  0
 36 35  2  0
 37 36  1  0
 38 12  1  0
 38 39  1  0
 38 48  1  0
 39 42  1  0
 40 44  1  0
 40 39  1  0
 41 40  2  0
 44 43  1  0
 46 44  1  0
 46 47  1  0
 46 45  1  0
 48 51  1  1
 48 49  1  0
 50 48  1  0
 52  6  1  0
 52 53  1  0
 54 53  1  0
 55 60  1  0
 56 57  1  0
 56 55  1  0
 58 57  1  0
 58 65  1  0
 58 59  1  0
 60 54  1  0
 60 59  1  0
 61 54  2  0
 62 63  2  0
 63 82  1  0
 64 63  1  0
 64 67  1  0
 65 62  1  0
 65 66  1  0
 66 64  2  0
 67 68  1  0
 68 69  2  0
 70 73  1  0
 70 69  1  0
 71 70  2  0
 72 71  1  0
 72 67  2  0
 73 74  1  0
 74 75  1  0
 75 76  2  0
 77 76  1  0
 77 81  1  0
 78 77  2  0
 79 74  2  0
 79 78  1  0
 80 79  1  0
 82 83  1  0
 83 86  1  0
 83 85  1  0
 84 82  2  0
 87 88  1  0
 87 62  1  0
 89 87  1  0
 90  5  1  0
 91 90  1  0
 92 93  1  0
 93 91  1  0
M  ISO  4  10 101  11 101  53 100  54 100
M  END
>  <TORSDO>  (30) 
F 21

>  <SCORE>  (30) 
-15.466

>  <name>  (30) 
29

>  <ligand_id>  (30) 
29

>  <original_smiles>  (30) 
[H]c1c([H])c([H])c2c(c1[H])C([H])([H])C([H])([H])C([H])([H])C2([H])N([H])C(=O)C1([H])N(C(=O)C([H])(N([H])C(=O)C([H])(N([H])C([H])([H])[H])C([H])([H])[H])C(C([H])([H])[H])(C([H])([H])[H])C([H])([H])[H])C([H])([H])c2c([H])c(OC3([H])c4c([H])c(C([H])([H])C([H])([H])C(=O)N5C([H])([H])C([H])([H])C([H])([H])C([H])(n6nc(-c7c([H])c([H])c(Oc8c([H])c([H])c(F)c([H])c8F)c([H])c7[H])c(C(=O)N([H])[H])c6N([H])[H])C5([H])[H])c(C([H])([H])C([H])([H])C([H])([H])C([H])([H])[H])c([H])c4C([H])([H])C([H])([H])C3([H])[H])c([H])c([H])c2C1([H])[H]

>  <smiles>  (30) 
[H]c1c([H])c([H])c2c(c1[H])C([H])([H])C([H])([H])C([H])([H])C2([H])N([H])C(=O)C1([H])N(C(=O)C([H])(N([H])C(=O)C([H])(N([H])C([H])([H])[H])C([H])([H])[H])C(C([H])([H])[H])(C([H])([H])[H])C([H])([H])[H])C([H])([H])c2c([H])c(OC3([H])c4c([H])c(C([H])([H])C([H])([H])C(=O)N5C([H])([H])C([H])([H])C([H])([H])C([H])(n6nc(-c7c([H])c([H])c(Oc8c([H])c([H])c(F)c([H])c8F)c([H])c7[H])c(C(=O)N([H])[H])c6N([H])[H])C5([H])[H])c(C([H])([H])C([H])([H])C([H])([H])C([H])([H])[H])c([H])c4C([H])([H])C([H])([H])C3([H])[H])c([H])c([H])c2C1([H])[H]

$$$$
30:0:0
     RDKit          3D

 92100  0  0  1  0  0  0  0  0999 V2000
  -27.4970  -17.4840   18.1560 C   0  0  0  0  0  3  0  0  0  0  0  0
  -26.1500  -17.6390   18.5440 C   0  0  0  0  0  3  0  0  0  0  0  0
  -26.8500  -18.4250   20.7590 C   0  0  0  0  0  3  0  0  0  0  0  0
  -28.5040  -17.8500   19.0660 C   0  0  0  0  0  0  0  0  0  0  0  0
  -25.8240  -18.0760   19.8510 C   0  0  0  0  0  0  0  0  0  0  0  0
  -28.1890  -18.3800   20.3230 C   0  0  0  0  0  0  0  0  0  0  0  0
  -29.0800  -21.1730   17.5060 C   0  0  0  0  0  2  0  0  0  0  0  0
  -29.9390  -19.5070   17.5980 C   0  0  0  0  0  2  0  0  0  0  0  0
  -29.2950  -21.3540   19.6380 C   0  0  0  0  0  2  0  0  0  0  0  0
  -29.9730  -19.5750   19.7540 C   0  0  0  0  0  3  0  0  0  0  0  0
  -29.0990  -22.7160   18.4500 C   0  0  0  0  0  2  0  0  0  0  0  0
  -29.9450  -18.0850   18.7180 C   0  0  0  0  0  3  0  0  0  0  0  0
  -24.3730  -18.2090   20.2700 C   0  0  0  0  0  1  0  0  0  0  0  0
  -29.0630  -19.7620   22.1690 C   0  0  0  0  0  1  0  0  0  0  0  0
  -29.2810  -19.0190   20.9290 N   0  0  0  0  0  0  0  0  0  0  0  0
  -30.8250  -16.1440   18.7550 C   0  0  0  0  0  2  0  0  0  0  0  0
  -31.1580  -13.3640   18.2880 C   0  0  0  0  0  2  0  0  0  0  0  0
  -30.1960  -12.5090   17.3780 C   0  0  0  0  0  2  0  0  0  0  0  0
  -28.9630  -12.0190   18.1450 C   0  0  0  0  0  2  0  0  0  0  0  0
  -28.4770  -13.1320   19.0890 C   0  0  0  0  0  3  0  0  0  0  0  0
  -29.5920  -13.8720   19.8920 C   0  0  0  0  0  2  0  0  0  0  0  0
  -30.4920  -14.6410   18.9500 N   0  0  0  0  0  0  0  0  0  0  0  0
  -32.0320  -15.9850   18.4160 O   0  0  0  0  0  1  0  0  0  0  0  0
  -26.5690  -13.6060   20.6650 C   0  0  0  0  0  0  0  0  0  0  0  0
  -25.5150  -12.8840   21.1340 C   0  0  0  0  0  0  0  0  0  0  0  0
  -25.6950  -11.5610   20.6260 C   0  0  0  0  0  0  0  0  0  0  0  0
  -27.3240  -12.7510   19.8970 N   0  0  0  0  0  0  0  0  0  0  0  0
  -26.8270  -11.4830   19.9220 N   0  0  0  0  0  0  0  0  0  0  0  0
  -24.8110  -10.3920   20.7280 C   0  0  0  0  0  0  0  0  0  0  0  0
  -25.1660   -9.2590   21.4920 C   0  0  0  0  0  3  0  0  0  0  0  0
  -24.2840   -8.1620   21.5990 C   0  0  0  0  0  3  0  0  0  0  0  0
  -23.0330   -8.1900   20.9400 C   0  0  0  0  0  0  0  0  0  0  0  0
  -22.6910   -9.3130   20.1650 C   0  0  0  0  0  3  0  0  0  0  0  0
  -23.5720  -10.4010   20.0560 C   0  0  0  0  0  3  0  0  0  0  0  0
  -22.1250   -7.1590   20.9640 O   0  0  0  0  0  0  0  0  0  0  0  0
  -21.8530   -6.4660   22.1160 C   0  0  0  0  0  0  0  0  0  0  0  0
  -21.3660   -7.1100   23.2750 C   0  0  0  0  0  3  0  0  0  0  0  0
  -21.0320   -6.3510   24.4140 C   0  0  0  0  0  3  0  0  0  0  0  0
  -21.1760   -4.9500   24.3950 C   0  0  0  0  0  0  0  0  0  0  0  0
  -21.6570   -4.3080   23.2410 C   0  0  0  0  0  3  0  0  0  0  0  0
  -21.9910   -5.0640   22.1040 C   0  0  0  0  0  0  0  0  0  0  0  0
  -22.4320   -4.4370   20.9870 F   0  0  0  0  0  0  0  0  0  0  0  0
  -20.8490   -4.2200   25.4860 F   0  0  0  0  0  0  0  0  0  0  0  0
  -24.3610  -13.4280   21.9250 C   0  0  0  0  0  0  0  0  0  0  0  0
  -23.7860  -12.6170   22.8030 N   0  0  0  0  0  0  0  0  0  0  0  0
  -24.0010  -14.5990   21.8040 O   0  0  0  0  0  0  0  0  0  0  0  0
  -24.0990  -11.6640   22.9160 H   0  0  0  0  0  0  0  0  0  0  0  0
  -23.0210  -12.9540   23.3690 H   0  0  0  0  0  0  0  0  0  0  0  0
  -26.9340  -14.9310   20.7990 N   0  0  0  0  0  0  0  0  0  0  0  0
  -26.3870  -15.5970   21.3320 H   0  0  0  0  0  0  0  0  0  0  0  0
  -27.7500  -15.3600   20.3830 H   0  0  0  0  0  0  0  0  0  0  0  0
  -28.6960  -24.6760   18.3730 O   0  0  0  0  0  1  0  0  0  0  0  0
  -25.1140  -31.0040   22.1150 C   0  0  0  0  0  0  0  0  0  0  0  0
  -27.6880  -26.0120   18.5110 C   0  0  0  0  0  0  0  0  0  0  0  0
  -23.9390  -29.7680   20.3490 C   0  0  0  0  0  3  0  0  0  0  0  0
  -25.3970  -28.2380   18.7480 C   0  0  0  0  0  0  0  0  0  0  0  0
  -26.5300  -29.8600   20.2340 C   0  0  0  0  0  2  0  0  0  0  0  0
  -26.6070  -28.4700   19.4090 C   0  0  0  0  0  0  0  0  0  0  0  0
  -27.7090  -27.4070   19.2500 C   0  0  0  0  0  3  0  0  0  0  0  0
  -26.4260  -26.0960   17.8270 C   0  0  0  0  0  3  0  0  0  0  0  0
  -25.3680  -27.0850   17.9350 C   0  0  0  0  0  3  0  0  0  0  0  0
  -24.1890  -29.2030   18.9130 C   0  0  0  0  0  2  0  0  0  0  0  0
  -25.2230  -30.2480   20.9550 N   0  0  0  0  0  0  0  0  0  0  0  0
  -24.0160  -31.2370   22.6550 O   0  0  0  0  0  0  0  0  0  0  0  0
  -23.2170  -28.7070   21.2300 C   0  0  0  0  0  0  0  0  0  0  0  0
  -21.8710  -28.6330   21.1900 N   0  0  0  0  0  0  0  0  0  0  0  0
  -23.8900  -27.9420   21.9240 O   0  0  0  0  0  0  0  0  0  0  0  0
  -21.3720  -29.3030   20.6200 H   0  0  0  0  0  0  0  0  0  0  0  0
  -18.4730  -27.5570   21.9410 C   0  0  0  0  0  0  0  0  0  0  0  0
  -21.0600  -27.6120   21.8700 C   0  0  0  0  0  3  0  0  0  0  0  0
  -20.9530  -26.3280   21.0130 C   0  0  0  0  0  2  0  0  0  0  0  0
  -19.7070  -26.3010   20.1240 C   0  0  0  0  0  2  0  0  0  0  0  0
  -18.4380  -26.3820   20.9760 C   0  0  0  0  0  2  0  0  0  0  0  0
  -19.7010  -28.1440   22.3470 C   0  0  0  0  0  0  0  0  0  0  0  0
  -19.6700  -29.2470   23.2260 C   0  0  0  0  0  3  0  0  0  0  0  0
  -18.4470  -29.7640   23.6940 C   0  0  0  0  0  3  0  0  0  0  0  0
  -17.2360  -29.1750   23.2940 C   0  0  0  0  0  3  0  0  0  0  0  0
  -17.2500  -28.0710   22.4220 C   0  0  0  0  0  3  0  0  0  0  0  0
  -26.3570  -31.6200   22.8280 C   0  0  0  0  0  3  0  0  0  0  0  0
  -25.9380  -32.8550   23.5300 N   0  0  0  0  0  0  0  0  0  0  0  0
  -26.1680  -34.1080   23.1120 C   0  0  0  0  0  0  0  0  0  0  0  0
  -26.7980  -34.3540   22.0820 O   0  0  0  0  0  0  0  0  0  0  0  0
  -25.3640  -32.7300   24.3510 H   0  0  0  0  0  0  0  0  0  0  0  0
  -24.3210  -35.8150   23.3380 C   0  0  0  0  0  1  0  0  0  0  0  0
  -25.6170  -35.2750   23.9650 C   0  0  0  0  0  3  0  0  0  0  0  0
  -27.7180  -36.0480   24.9790 C   0  0  0  0  0  1  0  0  0  0  0  0
  -26.5770  -36.3900   24.1370 N   0  0  0  0  0  0  0  0  0  0  0  0
  -26.1170  -37.2020   24.5410 H   0  0  0  0  0  0  0  0  0  0  0  0
  -27.0240  -30.6320   23.8660 C   0  0  1  0  0  0  0  0  0  0  0  0
  -26.0340  -30.0530   24.9050 C   0  0  0  0  0  1  0  0  0  0  0  0
  -27.6910  -29.4380   23.1530 C   0  0  0  0  0  1  0  0  0  0  0  0
  -28.1500  -31.3630   24.6350 C   0  0  0  0  0  1  0  0  0  0  0  0
  1  2  2  0
  1  4  1  0
  2  5  1  0
  4  6  2  0
  5 13  1  0
  5  3  2  0
  6  3  1  0
  6 15  1  0
  7  8  1  0
  7 11  1  0
 10  9  1  0
 10 15  1  0
 11  9  1  0
 12  8  1  0
 12  4  1  0
 12 10  1  0
 15 14  1  0
 16 22  1  0
 17 22  1  0
 18 19  1  0
 18 17  1  0
 20 19  1  0
 20 21  1  0
 20 27  1  0
 22 21  1  0
 23 16  1  0
 24 49  1  0
 24 25  2  0
 25 44  1  0
 26 29  1  0
 26 25  1  0
 27 28  1  0
 27 24  1  0
 28 26  2  0
 29 30  1  0
 30 31  2  0
 32 35  1  0
 32 31  1  0
 33 32  2  0
 34 33  1  0
 34 29  2  0
 35 36  1  0
 36 37  1  0
 37 38  2  0
 39 38  1  0
 39 43  1  0
 40 39  2  0
 41 36  2  0
 41 40  1  0
 42 41  1  0
 44 45  1  0
 45 47  1  0
 45 48  1  0
 46 44  2  0
 49 50  1  0
 51 49  1  0
 52 54  1  0
 53 64  2  0
 54 59  1  0
 55 63  1  0
 55 65  1  0
 56 62  1  0
 56 58  1  0
 57 63  1  0
 58 57  1  0
 59 58  2  0
 60 61  1  0
 60 54  2  0
 61 56  2  0
 62 55  1  0
 63 53  1  0
 65 67  2  0
 66 65  1  0
 68 66  1  0
 69 74  2  0
 69 78  1  0
 70 66  1  0
 70 74  1  0
 71 70  1  0
 72 73  1  0
 72 71  1  0
 73 69  1  0
 74 75  1  0
 75 76  2  0
 77 76  1  0
 78 77  2  0
 79 53  1  0
 79 80  1  0
 79 89  1  0
 80 83  1  0
 81 80  1  0
 81 85  1  0
 82 81  2  0
 85 84  1  0
 85 87  1  0
 87 88  1  0
 87 86  1  0
 89 92  1  1
 89 90  1  0
 91 89  1  0
M  ISO  4  11 101  12 100  16 100  52 101
M  END
>  <TORSDO>  (31) 
F 16

>  <SCORE>  (31) 
-2.481

>  <name>  (31) 
30

>  <ligand_id>  (31) 
30

>  <original_smiles>  (31) 
[H]c1c([H])c([H])c2c(c1[H])C([H])([H])C([H])([H])C([H])([H])C2([H])N([H])C(=O)C1([H])N(C(=O)C([H])(N([H])C(=O)C([H])(N([H])C([H])([H])[H])C([H])([H])[H])C(C([H])([H])[H])(C([H])([H])[H])C([H])([H])[H])C([H])([H])c2c([H])c(OC3([H])C([H])([H])C([H])([H])C4(C(=O)N5C([H])([H])C([H])([H])C([H])([H])C([H])(n6nc(-c7c([H])c([H])c(Oc8c([H])c([H])c(F)c([H])c8F)c([H])c7[H])c(C(=O)N([H])[H])c6N([H])[H])C5([H])[H])c5c([H])c([H])c(C([H])([H])[H])c([H])c5N(C([H])([H])[H])C4([H])C3([H])[H])c([H])c([H])c2C1([H])[H]

>  <smiles>  (31) 
[H]c1c([H])c([H])c2c(c1[H])C([H])([H])C([H])([H])C([H])([H])C2([H])N([H])C(=O)C1([H])N(C(=O)C([H])(N([H])C(=O)C([H])(N([H])C([H])([H])[H])C([H])([H])[H])C(C([H])([H])[H])(C([H])([H])[H])C([H])([H])[H])C([H])([H])c2c([H])c(OC3([H])C([H])([H])C([H])([H])C4(C(=O)N5C([H])([H])C([H])([H])C([H])([H])C([H])(n6nc(-c7c([H])c([H])c(Oc8c([H])c([H])c(F)c([H])c8F)c([H])c7[H])c(C(=O)N([H])[H])c6N([H])[H])C5([H])[H])c5c([H])c([H])c(C([H])([H])[H])c([H])c5N(C([H])([H])[H])C4([H])C3([H])[H])c([H])c([H])c2C1([H])[H]

$$$$
31:0:0
     RDKit          3D

 85 90  0  0  1  0  0  0  0  0999 V2000
  -30.2880  -19.1970   21.1210 C   0  0  0  0  0  0  0  0  0  0  0  0
  -28.6180  -19.5290   19.7500 C   0  0  0  0  0  2  0  0  0  0  0  0
  -29.3650  -17.9790   20.5180 C   0  0  0  0  0  2  0  0  0  0  0  0
  -28.6800  -21.2760   20.4520 C   0  0  0  0  0  2  0  0  0  0  0  0
  -29.9480  -20.6050   21.0380 N   0  0  0  0  0  0  0  0  0  0  0  0
  -31.3410  -18.8950   21.6830 O   0  0  0  0  0  0  0  0  0  0  0  0
  -30.6180  -21.2450   21.4470 H   0  0  0  0  0  0  0  0  0  0  0  0
  -30.0970  -16.1070   20.2350 C   0  0  0  0  0  2  0  0  0  0  0  0
  -30.3330  -13.4380   19.5070 C   0  0  0  0  0  2  0  0  0  0  0  0
  -29.5030  -12.8710   18.3040 C   0  0  0  0  0  2  0  0  0  0  0  0
  -28.1030  -12.4320   18.7470 C   0  0  0  0  0  2  0  0  0  0  0  0
  -27.5230  -13.4550   19.7430 C   0  0  0  0  0  3  0  0  0  0  0  0
  -28.5060  -13.9260   20.8510 C   0  0  0  0  0  2  0  0  0  0  0  0
  -29.6490  -14.6560   20.2170 N   0  0  0  0  0  0  0  0  0  0  0  0
  -31.3220  -15.9550   20.0050 O   0  0  0  0  0  1  0  0  0  0  0  0
  -25.1550  -13.9400   20.4900 C   0  0  0  0  0  0  0  0  0  0  0  0
  -24.1000  -13.1510   20.8450 C   0  0  0  0  0  0  0  0  0  0  0  0
  -24.5820  -11.8050   20.8180 C   0  0  0  0  0  0  0  0  0  0  0  0
  -26.2110  -13.0820   20.2570 N   0  0  0  0  0  0  0  0  0  0  0  0
  -25.8810  -11.7870   20.5180 N   0  0  0  0  0  0  0  0  0  0  0  0
  -23.8570  -10.5380   21.0010 C   0  0  0  0  0  0  0  0  0  0  0  0
  -24.2760   -9.5720   21.9420 C   0  0  0  0  0  3  0  0  0  0  0  0
  -23.5450   -8.3770   22.1180 C   0  0  0  0  0  3  0  0  0  0  0  0
  -22.3780   -8.1370   21.3520 C   0  0  0  0  0  0  0  0  0  0  0  0
  -21.9780   -9.0920   20.4000 C   0  0  0  0  0  3  0  0  0  0  0  0
  -22.7090  -10.2780   20.2230 C   0  0  0  0  0  3  0  0  0  0  0  0
  -21.6200   -6.9940   21.4350 O   0  0  0  0  0  0  0  0  0  0  0  0
  -21.5580   -6.2530   22.5880 C   0  0  0  0  0  0  0  0  0  0  0  0
  -21.1050   -6.8060   23.8050 C   0  0  0  0  0  3  0  0  0  0  0  0
  -20.9890   -5.9910   24.9500 C   0  0  0  0  0  3  0  0  0  0  0  0
  -21.3180   -4.6250   24.8770 C   0  0  0  0  0  0  0  0  0  0  0  0
  -21.7650   -4.0700   23.6650 C   0  0  0  0  0  3  0  0  0  0  0  0
  -21.8810   -4.8820   22.5230 C   0  0  0  0  0  0  0  0  0  0  0  0
  -22.2910   -4.3380   21.3520 F   0  0  0  0  0  0  0  0  0  0  0  0
  -21.2020   -3.8400   25.9740 F   0  0  0  0  0  0  0  0  0  0  0  0
  -22.6970  -13.6190   21.0900 C   0  0  0  0  0  0  0  0  0  0  0  0
  -21.9610  -12.9280   21.9520 N   0  0  0  0  0  0  0  0  0  0  0  0
  -22.2620  -14.6390   20.5540 O   0  0  0  0  0  0  0  0  0  0  0  0
  -22.3260  -12.1050   22.4070 H   0  0  0  0  0  0  0  0  0  0  0  0
  -21.0190  -13.2260   22.1600 H   0  0  0  0  0  0  0  0  0  0  0  0
  -25.3050  -15.3130   20.3140 N   0  0  0  0  0  0  0  0  0  0  0  0
  -24.5280  -15.9580   20.4170 H   0  0  0  0  0  0  0  0  0  0  0  0
  -26.1540  -15.7630   19.9960 H   0  0  0  0  0  0  0  0  0  0  0  0
  -28.2460  -23.3100   20.0000 C   0  0  0  0  0 15  0  0  0  0  0  0
  -28.1440  -25.1680   20.4130 O   0  0  0  0  0  1  0  0  0  0  0  0
  -24.6680  -31.8300   23.1940 C   0  0  0  0  0  0  0  0  0  0  0  0
  -27.2120  -26.5050   20.2870 C   0  0  0  0  0  0  0  0  0  0  0  0
  -23.5030  -30.4100   21.5640 C   0  0  0  0  0  3  0  0  0  0  0  0
  -24.9650  -28.7020   20.1870 C   0  0  0  0  0  0  0  0  0  0  0  0
  -26.0920  -30.4790   21.4910 C   0  0  0  0  0  2  0  0  0  0  0  0
  -26.1590  -29.0130   20.8470 C   0  0  0  0  0  0  0  0  0  0  0  0
  -27.2480  -27.9490   20.8610 C   0  0  0  0  0  3  0  0  0  0  0  0
  -25.9850  -26.4770   19.5520 C   0  0  0  0  0  3  0  0  0  0  0  0
  -24.9340  -27.4630   19.5140 C   0  0  0  0  0  3  0  0  0  0  0  0
  -23.7660  -29.6800   20.2090 C   0  0  0  0  0  2  0  0  0  0  0  0
  -24.7810  -30.9470   22.1340 N   0  0  0  0  0  0  0  0  0  0  0  0
  -23.5670  -32.1440   23.6810 O   0  0  0  0  0  0  0  0  0  0  0  0
  -22.7570  -29.4640   22.5460 C   0  0  0  0  0  0  0  0  0  0  0  0
  -21.4220  -29.3260   22.4210 N   0  0  0  0  0  0  0  0  0  0  0  0
  -23.3980  -28.8480   23.4010 O   0  0  0  0  0  0  0  0  0  0  0  0
  -20.9510  -29.8730   21.7140 H   0  0  0  0  0  0  0  0  0  0  0  0
  -18.0240  -28.1300   22.9450 C   0  0  0  0  0  0  0  0  0  0  0  0
  -20.5860  -28.4000   23.1990 C   0  0  0  0  0  3  0  0  0  0  0  0
  -20.6820  -26.9620   22.6370 C   0  0  0  0  0  2  0  0  0  0  0  0
  -19.5810  -26.6360   21.6240 C   0  0  0  0  0  2  0  0  0  0  0  0
  -18.1990  -26.7810   22.2680 C   0  0  0  0  0  2  0  0  0  0  0  0
  -19.1430  -28.8970   23.3670 C   0  0  0  0  0  0  0  0  0  0  0  0
  -18.9190  -30.1550   23.9690 C   0  0  0  0  0  3  0  0  0  0  0  0
  -17.6120  -30.6470   24.1460 C   0  0  0  0  0  3  0  0  0  0  0  0
  -16.5080  -29.8790   23.7350 C   0  0  0  0  0  3  0  0  0  0  0  0
  -16.7150  -28.6210   23.1400 C   0  0  0  0  0  3  0  0  0  0  0  0
  -25.9150  -32.5010   23.8480 C   0  0  0  0  0  3  0  0  0  0  0  0
  -25.5800  -33.9080   24.1660 N   0  0  0  0  0  0  0  0  0  0  0  0
  -25.9140  -34.9740   23.4260 C   0  0  0  0  0  0  0  0  0  0  0  0
  -26.5890  -34.8790   22.3980 O   0  0  0  0  0  0  0  0  0  0  0  0
  -24.9780  -34.0530   24.9630 H   0  0  0  0  0  0  0  0  0  0  0  0
  -24.1810  -36.7790   23.1050 C   0  0  0  0  0  1  0  0  0  0  0  0
  -25.4330  -36.3650   23.8970 C   0  0  0  0  0  3  0  0  0  0  0  0
  -27.5710  -37.2660   24.7080 C   0  0  0  0  0  1  0  0  0  0  0  0
  -26.4610  -37.4230   23.7730 N   0  0  0  0  0  0  0  0  0  0  0  0
  -26.0520  -38.3430   23.9180 H   0  0  0  0  0  0  0  0  0  0  0  0
  -26.3920  -31.7670   25.1630 C   0  0  1  0  0  0  0  0  0  0  0  0
  -25.2690  -31.5600   26.2070 C   0  0  0  0  0  1  0  0  0  0  0  0
  -26.9850  -30.3780   24.8420 C   0  0  0  0  0  1  0  0  0  0  0  0
  -27.5260  -32.5780   25.8350 C   0  0  0  0  0  1  0  0  0  0  0  0
  1  6  2  0
  2  4  1  0
  2  3  1  0
  3  1  1  0
  4  5  1  0
  5  1  1  0
  5  7  1  0
  9 14  1  0
 10 11  1  0
 10  9  1  0
 12 11  1  0
 12 19  1  0
 12 13  1  0
 14  8  1  0
 14 13  1  0
 15  8  1  0
 16 17  2  0
 17 36  1  0
 18 17  1  0
 18 21  1  0
 19 16  1  0
 19 20  1  0
 20 18  2  0
 21 22  1  0
 22 23  2  0
 24 27  1  0
 24 23  1  0
 25 24  2  0
 26 25  1  0
 26 21  2  0
 27 28  1  0
 28 29  1  0
 29 30  2  0
 31 30  1  0
 31 35  1  0
 32 31  2  0
 33 28  2  0
 33 32  1  0
 34 33  1  0
 36 37  1  0
 37 40  1  0
 37 39  1  0
 38 36  2  0
 41 42  1  0
 41 16  1  0
 43 41  1  0
 46 57  2  0
 47 45  1  0
 47 52  1  0
 48 56  1  0
 48 58  1  0
 49 55  1  0
 49 51  1  0
 50 56  1  0
 51 52  2  0
 51 50  1  0
 53 47  2  0
 54 53  1  0
 54 49  2  0
 55 48  1  0
 56 46  1  0
 58 60  2  0
 59 58  1  0
 61 59  1  0
 62 71  2  0
 62 67  1  0
 63 59  1  0
 63 67  1  0
 64 63  1  0
 65 66  1  0
 65 64  1  0
 66 62  1  0
 67 68  2  0
 68 69  1  0
 70 69  2  0
 71 70  1  0
 72 46  1  0
 72 73  1  0
 72 82  1  0
 73 76  1  0
 74 78  1  0
 74 73  1  0
 75 74  2  0
 78 77  1  0
 80 78  1  0
 80 81  1  0
 80 79  1  0
 82 85  1  1
 82 83  1  0
 84 82  1  0
M  ISO  4   3 100   8 100  44 101  45 101
M  END
>  <TORSDO>  (32) 
F 17

>  <SCORE>  (32) 
-16.428

>  <name>  (32) 
31

>  <ligand_id>  (32) 
31

>  <original_smiles>  (32) 
[H]c1c([H])c([H])c2c(c1[H])C([H])([H])C([H])([H])C([H])([H])C2([H])N([H])C(=O)C1([H])N(C(=O)C([H])(N([H])C(=O)C([H])(N([H])C([H])([H])[H])C([H])([H])[H])C(C([H])([H])[H])(C([H])([H])[H])C([H])([H])[H])C([H])([H])c2c([H])c(OC([H])([H])C3([H])N([H])C(=O)C([H])(C(=O)N4C([H])([H])C([H])([H])C([H])([H])C([H])(n5nc(-c6c([H])c([H])c(Oc7c([H])c([H])c(F)c([H])c7F)c([H])c6[H])c(C(=O)N([H])[H])c5N([H])[H])C4([H])[H])C3([H])[H])c([H])c([H])c2C1([H])[H]

>  <smiles>  (32) 
[H]c1c([H])c([H])c2c(c1[H])C([H])([H])C([H])([H])C([H])([H])C2([H])N([H])C(=O)C1([H])N(C(=O)C([H])(N([H])C(=O)C([H])(N([H])C([H])([H])[H])C([H])([H])[H])C(C([H])([H])[H])(C([H])([H])[H])C([H])([H])[H])C([H])([H])c2c([H])c(OC([H])([H])C3([H])N([H])C(=O)C([H])(C(=O)N4C([H])([H])C([H])([H])C([H])([H])C([H])(n5nc(-c6c([H])c([H])c(Oc7c([H])c([H])c(F)c([H])c7F)c([H])c6[H])c(C(=O)N([H])[H])c5N([H])[H])C4([H])[H])C3([H])[H])c([H])c([H])c2C1([H])[H]

$$$$
32:0:0
     RDKit          3D

 95103  0  0  1  0  0  0  0  0999 V2000
  -30.5940  -20.8030   20.7380 C   0  0  0  0  0  1  0  0  0  0  0  0
  -29.1240  -21.1410   20.4530 C   0  0  0  0  0  3  0  0  0  0  0  0
  -26.7300  -18.2110   18.0660 C   0  0  0  0  0  3  0  0  0  0  0  0
  -26.4520  -19.5690   18.1160 C   0  0  0  0  0  3  0  0  0  0  0  0
  -27.6790  -17.6920   18.9420 C   0  0  0  0  0  3  0  0  0  0  0  0
  -27.1620  -20.4140   18.9860 C   0  0  0  0  0  0  0  0  0  0  0  0
  -28.4890  -18.4720   19.8000 C   0  0  0  0  0  0  0  0  0  0  0  0
  -28.2990  -19.9550   19.7540 C   0  0  0  0  0  0  0  0  0  0  0  0
  -26.5460  -21.8110   19.0740 C   0  0  0  0  0  1  0  0  0  0  0  0
  -29.3040  -17.4890   20.7690 C   0  0  0  0  0  2  0  0  0  0  0  0
  -31.6770  -17.4040   20.1590 C   0  0  0  0  0  1  0  0  0  0  0  0
  -30.3210  -16.0760   18.7020 C   0  0  0  0  0  1  0  0  0  0  0  0
  -30.4440  -16.4480   20.2050 C   0  0  2  0  0  0  0  0  0  0  0  0
  -30.9090  -15.0880   21.0110 C   0  0  0  0  0  0  0  0  0  0  0  0
  -30.8170  -12.6740   20.4230 C   0  0  0  0  0  2  0  0  0  0  0  0
  -30.0740  -12.4700   19.0900 C   0  0  0  0  0  2  0  0  0  0  0  0
  -28.5590  -12.3270   19.3340 C   0  0  0  0  0  2  0  0  0  0  0  0
  -27.9850  -13.3730   20.3300 C   0  0  0  0  0  3  0  0  0  0  0  0
  -28.8900  -13.5930   21.5540 C   0  0  0  0  0  2  0  0  0  0  0  0
  -30.2430  -13.8810   21.0610 N   0  0  0  0  0  0  0  0  0  0  0  0
  -32.1200  -15.0330   21.2320 O   0  0  0  0  0  0  0  0  0  0  0  0
  -25.5330  -13.9570   20.7920 C   0  0  0  0  0  0  0  0  0  0  0  0
  -24.4350  -13.1830   21.0350 C   0  0  0  0  0  0  0  0  0  0  0  0
  -24.9080  -11.8380   21.0920 C   0  0  0  0  0  0  0  0  0  0  0  0
  -26.6030  -13.0830   20.6920 N   0  0  0  0  0  0  0  0  0  0  0  0
  -26.2270  -11.8040   20.9470 N   0  0  0  0  0  0  0  0  0  0  0  0
  -24.1700  -10.5770   21.2200 C   0  0  0  0  0  0  0  0  0  0  0  0
  -24.5220   -9.6120   22.1880 C   0  0  0  0  0  3  0  0  0  0  0  0
  -23.7810   -8.4180   22.3070 C   0  0  0  0  0  3  0  0  0  0  0  0
  -22.6750   -8.1810   21.4570 C   0  0  0  0  0  0  0  0  0  0  0  0
  -22.3430   -9.1370   20.4800 C   0  0  0  0  0  3  0  0  0  0  0  0
  -23.0850  -10.3220   20.3590 C   0  0  0  0  0  3  0  0  0  0  0  0
  -21.9130   -7.0380   21.4820 O   0  0  0  0  0  0  0  0  0  0  0  0
  -21.8070   -6.2690   22.6130 C   0  0  0  0  0  0  0  0  0  0  0  0
  -21.3190   -6.7950   23.8280 C   0  0  0  0  0  3  0  0  0  0  0  0
  -21.1640   -5.9550   24.9480 C   0  0  0  0  0  3  0  0  0  0  0  0
  -21.4840   -4.5870   24.8520 C   0  0  0  0  0  0  0  0  0  0  0  0
  -21.9630   -4.0590   23.6400 C   0  0  0  0  0  3  0  0  0  0  0  0
  -22.1220   -4.8980   22.5230 C   0  0  0  0  0  0  0  0  0  0  0  0
  -22.5670   -4.3800   21.3520 F   0  0  0  0  0  0  0  0  0  0  0  0
  -21.3250   -3.7760   25.9240 F   0  0  0  0  0  0  0  0  0  0  0  0
  -23.0150  -13.6600   21.1190 C   0  0  0  0  0  0  0  0  0  0  0  0
  -22.1920  -12.9910   21.9170 N   0  0  0  0  0  0  0  0  0  0  0  0
  -22.6410  -14.6660   20.5170 O   0  0  0  0  0  0  0  0  0  0  0  0
  -22.5120  -12.1850   22.4330 H   0  0  0  0  0  0  0  0  0  0  0  0
  -21.2340  -13.2930   22.0190 H   0  0  0  0  0  0  0  0  0  0  0  0
  -25.6920  -15.3240   20.6290 N   0  0  0  0  0  0  0  0  0  0  0  0
  -24.8990  -15.9540   20.6610 H   0  0  0  0  0  0  0  0  0  0  0  0
  -26.5690  -15.8060   20.4930 H   0  0  0  0  0  0  0  0  0  0  0  0
  -29.0460  -22.4880   19.7110 N   0  0  0  0  0  4  0  0  0  0  0  0
  -29.6200  -22.4270   18.8850 H   0  0  0  0  0  0  0  0  0  0  0  0
  -28.0930  -22.4840   19.3810 H   0  0  0  0  0  0  0  0  0  0  0  0
  -29.2610  -23.8600   20.3850 C   0  0  0  0  0  3  0  0  0  0  0  0
  -28.3690  -25.0910   19.8290 C   0  0  0  0  0  3  0  0  0  0  0  0
  -28.5870  -26.5390   20.1890 O   0  0  0  0  0  0  0  0  0  0  0  0
  -24.6950  -31.8390   23.2780 C   0  0  0  0  0  0  0  0  0  0  0  0
  -27.4910  -27.4350   20.1070 C   0  0  0  0  0  0  0  0  0  0  0  0
  -23.5860  -30.5140   21.5180 C   0  0  0  0  0  3  0  0  0  0  0  0
  -25.1200  -29.0600   20.0740 C   0  0  0  0  0  0  0  0  0  0  0  0
  -26.1300  -30.8600   21.4670 C   0  0  0  0  0  2  0  0  0  0  0  0
  -26.2600  -29.5130   20.7520 C   0  0  0  0  0  0  0  0  0  0  0  0
  -27.4470  -28.7130   20.7630 C   0  0  0  0  0  3  0  0  0  0  0  0
  -26.3330  -27.0640   19.3840 C   0  0  0  0  0  3  0  0  0  0  0  0
  -25.1630  -27.8440   19.3810 C   0  0  0  0  0  3  0  0  0  0  0  0
  -23.8710  -29.9180   20.1150 C   0  0  0  0  0  2  0  0  0  0  0  0
  -24.8200  -31.0840   22.1460 N   0  0  0  0  0  0  0  0  0  0  0  0
  -23.5840  -32.0780   23.7740 O   0  0  0  0  0  0  0  0  0  0  0  0
  -22.8950  -29.4400   22.3920 C   0  0  0  0  0  0  0  0  0  0  0  0
  -21.5700  -29.2840   22.2250 N   0  0  0  0  0  0  0  0  0  0  0  0
  -23.5500  -28.7540   23.1800 O   0  0  0  0  0  0  0  0  0  0  0  0
  -21.1000  -29.8890   21.5670 H   0  0  0  0  0  0  0  0  0  0  0  0
  -18.1660  -28.1190   22.6110 C   0  0  0  0  0  0  0  0  0  0  0  0
  -20.7260  -28.3050   22.9160 C   0  0  0  0  0  3  0  0  0  0  0  0
  -20.8050  -26.9220   22.2290 C   0  0  0  0  0  2  0  0  0  0  0  0
  -19.7050  -26.7020   21.1860 C   0  0  0  0  0  2  0  0  0  0  0  0
  -18.3210  -26.8240   21.8310 C   0  0  0  0  0  2  0  0  0  0  0  0
  -19.2970  -28.8220   23.1070 C   0  0  0  0  0  0  0  0  0  0  0  0
  -19.0980  -30.0380   23.7980 C   0  0  0  0  0  3  0  0  0  0  0  0
  -17.8030  -30.5510   23.9950 C   0  0  0  0  0  3  0  0  0  0  0  0
  -16.6860  -29.8430   23.5180 C   0  0  0  0  0  3  0  0  0  0  0  0
  -16.8680  -28.6290   22.8310 C   0  0  0  0  0  3  0  0  0  0  0  0
  -25.9390  -32.4550   23.9870 C   0  0  0  0  0  3  0  0  0  0  0  0
  -25.5950  -33.8330   24.3690 N   0  0  0  0  0  0  0  0  0  0  0  0
  -25.9600  -34.9260   23.6860 C   0  0  0  0  0  0  0  0  0  0  0  0
  -26.6890  -34.8810   22.6920 O   0  0  0  0  0  0  0  0  0  0  0  0
  -24.9540  -33.9420   25.1400 H   0  0  0  0  0  0  0  0  0  0  0  0
  -24.2450  -36.7300   23.3170 C   0  0  0  0  0  1  0  0  0  0  0  0
  -25.4330  -36.2860   24.1850 C   0  0  0  0  0  3  0  0  0  0  0  0
  -27.4990  -37.1360   25.2050 C   0  0  0  0  0  1  0  0  0  0  0  0
  -26.4620  -37.3480   24.1990 N   0  0  0  0  0  0  0  0  0  0  0  0
  -26.0400  -38.2580   24.3650 H   0  0  0  0  0  0  0  0  0  0  0  0
  -26.4030  -31.6300   25.2500 C   0  0  1  0  0  0  0  0  0  0  0  0
  -25.2630  -31.3330   26.2520 C   0  0  0  0  0  1  0  0  0  0  0  0
  -27.0180  -30.2770   24.8220 C   0  0  0  0  0  1  0  0  0  0  0  0
  -27.5130  -32.4010   26.0010 C   0  0  0  0  0  1  0  0  0  0  0  0
  2  1  1  0
  3  4  2  0
  3  5  1  0
  4  6  1  0
  5  7  2  0
  6  9  1  0
  6  8  2  0
  7 10  1  0
  8  7  1  0
  8  2  1  0
 13 11  1  6
 12 13  1  0
 13 10  1  0
 13 14  1  0
 14 20  1  0
 14 21  2  0
 15 20  1  0
 16 17  1  0
 16 15  1  0
 18 17  1  0
 18 25  1  0
 18 19  1  0
 20 19  1  0
 22 23  2  0
 23 24  1  0
 23 42  1  0
 24 27  1  0
 25 22  1  0
 25 26  1  0
 26 24  2  0
 27 28  1  0
 28 29  2  0
 30 33  1  0
 30 29  1  0
 31 30  2  0
 32 31  1  0
 32 27  2  0
 33 34  1  0
 34 35  1  0
 35 36  2  0
 37 36  1  0
 37 41  1  0
 38 37  2  0
 39 34  2  0
 39 38  1  0
 40 39  1  0
 42 43  1  0
 43 46  1  0
 43 45  1  0
 44 42  2  0
 47 48  1  0
 47 22  1  0
 49 47  1  0
 50 53  1  0
 50  2  1  0
 51 50  1  0
 52 50  1  0
 54 55  1  0
 54 53  2  0
 56 67  2  0
 57 55  1  0
 57 62  1  0
 58 66  1  0
 58 68  1  0
 59 65  1  0
 59 61  1  0
 60 66  1  0
 61 62  2  0
 61 60  1  0
 63 57  2  0
 64 63  1  0
 64 59  2  0
 65 58  1  0
 66 56  1  0
 68 70  2  0
 69 68  1  0
 71 69  1  0
 72 81  2  0
 72 77  1  0
 73 69  1  0
 73 77  1  0
 74 73  1  0
 75 76  1  0
 75 74  1  0
 76 72  1  0
 77 78  2  0
 78 79  1  0
 80 79  2  0
 81 80  1  0
 82 56  1  0
 82 83  1  0
 82 92  1  0
 83 86  1  0
 84 88  1  0
 84 83  1  0
 85 84  2  0
 88 87  1  0
 88 90  1  0
 90 91  1  0
 90 89  1  0
 92 95  1  1
 92 93  1  0
 94 92  1  0
M  ISO  4  13 100  14 100  54 101  55 101
M  END
>  <TORSDO>  (33) 
F 22

>  <SCORE>  (33) 
-11.690

>  <name>  (33) 
32

>  <ligand_id>  (33) 
32

>  <original_smiles>  (33) 
[H]c1c([H])c([H])c2c(c1[H])C([H])([H])C([H])([H])C([H])([H])C2([H])N([H])C(=O)C1([H])N(C(=O)C([H])(N([H])C(=O)C([H])(N([H])C([H])([H])[H])C([H])([H])[H])C(C([H])([H])[H])(C([H])([H])[H])C([H])([H])[H])C([H])([H])c2c([H])c(OC([H])([H])C([H])([H])[N+]([H])([H])C([H])(c3c(C([H])([H])[H])c([H])c([H])c([H])c3C([H])([H])C(C(=O)N3C([H])([H])C([H])([H])C([H])([H])C([H])(n4nc(-c5c([H])c([H])c(Oc6c([H])c([H])c(F)c([H])c6F)c([H])c5[H])c(C(=O)N([H])[H])c4N([H])[H])C3([H])[H])(C([H])([H])[H])C([H])([H])[H])C([H])([H])[H])c([H])c([H])c2C1([H])[H]

>  <smiles>  (33) 
[H]c1c([H])c([H])c2c(c1[H])C([H])([H])C([H])([H])C([H])([H])C2([H])N([H])C(=O)C1([H])N(C(=O)C([H])(N([H])C(=O)C([H])(N([H])C([H])([H])[H])C([H])([H])[H])C(C([H])([H])[H])(C([H])([H])[H])C([H])([H])[H])C([H])([H])c2c([H])c(OC([H])([H])C([H])([H])[N+]([H])([H])C([H])(c3c(C([H])([H])[H])c([H])c([H])c([H])c3C([H])([H])C(C(=O)N3C([H])([H])C([H])([H])C([H])([H])C([H])(n4nc(-c5c([H])c([H])c(Oc6c([H])c([H])c(F)c([H])c6F)c([H])c5[H])c(C(=O)N([H])[H])c4N([H])[H])C3([H])[H])(C([H])([H])[H])C([H])([H])[H])C([H])([H])[H])c([H])c([H])c2C1([H])[H]

$$$$
33:0:0
     RDKit          3D

 96105  0  0  1  0  0  0  0  0999 V2000
  -29.4880  -22.4930   22.6580 N   0  0  0  0  0  4  0  0  0  0  0  0
  -28.7350  -21.8280   22.7320 H   0  0  0  0  0  0  0  0  0  0  0  0
  -29.5790  -22.9210   23.5660 H   0  0  0  0  0  0  0  0  0  0  0  0
  -27.6250  -23.9540   21.8640 C   0  0  0  0  0  2  0  0  0  0  0  0
  -30.0040  -24.7580   21.6530 C   0  0  0  0  0  2  0  0  0  0  0  0
  -27.1780  -24.9570   20.7870 C   0  0  0  0  0  2  0  0  0  0  0  0
  -29.5500  -25.8160   20.6180 C   0  0  0  0  0  2  0  0  0  0  0  0
  -29.0880  -23.5100   21.6490 C   0  0  0  0  0  3  0  0  0  0  0  0
  -28.0660  -26.2210   20.7590 C   0  0  0  0  0  3  0  0  0  0  0  0
  -27.7400  -27.0640   19.6460 O   0  0  0  0  0  0  0  0  0  0  0  0
  -24.4490  -32.1450   23.3940 C   0  0  0  0  0  0  0  0  0  0  0  0
  -26.6260  -27.8520   19.8100 C   0  0  0  0  0  0  0  0  0  0  0  0
  -23.0450  -30.9190   21.7590 C   0  0  0  0  0  3  0  0  0  0  0  0
  -24.3080  -29.4360   20.1110 C   0  0  0  0  0  0  0  0  0  0  0  0
  -25.5580  -31.1920   21.3800 C   0  0  0  0  0  2  0  0  0  0  0  0
  -25.5280  -29.8680   20.6460 C   0  0  0  0  0  0  0  0  0  0  0  0
  -26.6920  -29.0790   20.5020 C   0  0  0  0  0  3  0  0  0  0  0  0
  -25.3990  -27.4400   19.2490 C   0  0  0  0  0  3  0  0  0  0  0  0
  -24.2370  -28.2180   19.4080 C   0  0  0  0  0  3  0  0  0  0  0  0
  -23.1100  -30.3340   20.3230 C   0  0  0  0  0  2  0  0  0  0  0  0
  -24.3730  -31.4270   22.2360 N   0  0  0  0  0  0  0  0  0  0  0  0
  -23.4310  -32.4220   24.0430 O   0  0  0  0  0  0  0  0  0  0  0  0
  -22.4300  -29.8570   22.6990 C   0  0  0  0  0  0  0  0  0  0  0  0
  -21.1080  -29.6500   22.5800 N   0  0  0  0  0  0  0  0  0  0  0  0
  -23.1370  -29.2240   23.4880 O   0  0  0  0  0  0  0  0  0  0  0  0
  -20.6020  -30.2150   21.9140 H   0  0  0  0  0  0  0  0  0  0  0  0
  -17.7940  -28.2620   22.9640 C   0  0  0  0  0  0  0  0  0  0  0  0
  -20.3190  -28.6720   23.3290 C   0  0  0  0  0  3  0  0  0  0  0  0
  -20.5290  -27.2450   22.7730 C   0  0  0  0  0  2  0  0  0  0  0  0
  -19.4860  -26.8490   21.7230 C   0  0  0  0  0  2  0  0  0  0  0  0
  -18.0740  -26.9190   22.3100 C   0  0  0  0  0  2  0  0  0  0  0  0
  -18.8480  -29.0920   23.4270 C   0  0  0  0  0  0  0  0  0  0  0  0
  -18.5330  -30.3480   23.9910 C   0  0  0  0  0  3  0  0  0  0  0  0
  -17.1970  -30.7730   24.1020 C   0  0  0  0  0  3  0  0  0  0  0  0
  -16.1560  -29.9400   23.6570 C   0  0  0  0  0  3  0  0  0  0  0  0
  -16.4540  -28.6860   23.0920 C   0  0  0  0  0  3  0  0  0  0  0  0
  -25.8120  -32.6720   23.9420 C   0  0  0  0  0  3  0  0  0  0  0  0
  -26.3580  -31.8340   25.1640 C   0  0  1  0  0  0  0  0  0  0  0  0
  -25.3170  -31.6260   26.2880 C   0  0  0  0  0  1  0  0  0  0  0  0
  -26.8370  -30.4370   24.7010 C   0  0  0  0  0  1  0  0  0  0  0  0
  -27.5900  -32.5440   25.7760 C   0  0  0  0  0  1  0  0  0  0  0  0
  -25.6270  -34.0800   24.3190 N   0  0  0  0  0  0  0  0  0  0  0  0
  -26.0140  -35.1230   23.5720 C   0  0  0  0  0  0  0  0  0  0  0  0
  -26.6450  -34.9970   22.5190 O   0  0  0  0  0  0  0  0  0  0  0  0
  -25.0820  -34.2600   25.1500 H   0  0  0  0  0  0  0  0  0  0  0  0
  -24.4530  -37.0710   23.2660 C   0  0  0  0  0  1  0  0  0  0  0  0
  -25.6460  -36.5330   24.0720 C   0  0  0  0  0  3  0  0  0  0  0  0
  -27.8380  -37.2010   24.9530 C   0  0  0  0  0  1  0  0  0  0  0  0
  -26.7680  -37.4960   24.0040 N   0  0  0  0  0  0  0  0  0  0  0  0
  -26.4400  -38.4420   24.1840 H   0  0  0  0  0  0  0  0  0  0  0  0
  -30.7240  -21.7240   22.3630 C   0  0  0  0  0  2  0  0  0  0  0  0
  -30.5030  -20.1940   22.4990 C   0  0  0  0  0  2  0  0  0  0  0  0
  -32.1910  -18.8870   20.9890 C   0  0  0  0  0  2  0  0  0  0  0  0
  -31.7270  -18.0840   23.3400 C   0  0  0  0  0  2  0  0  0  0  0  0
  -31.3500  -17.7200   20.4260 C   0  0  0  0  0  2  0  0  0  0  0  0
  -30.8900  -16.9220   22.7660 C   0  0  0  0  0  2  0  0  0  0  0  0
  -31.7870  -19.3240   22.4150 C   0  0  0  0  0  3  0  0  0  0  0  0
  -31.3660  -16.4900   21.3670 C   0  0  0  0  0  3  0  0  0  0  0  0
  -30.7760  -14.5950   19.8190 C   0  0  0  0  0  0  0  0  0  0  0  0
  -30.3250  -12.4340   18.7090 C   0  0  0  0  0  2  0  0  0  0  0  0
  -29.2700  -12.5460   17.5930 C   0  0  0  0  0  2  0  0  0  0  0  0
  -27.8570  -12.3640   18.1740 C   0  0  0  0  0  2  0  0  0  0  0  0
  -27.6050  -13.2720   19.4060 C   0  0  0  0  0  3  0  0  0  0  0  0
  -28.7670  -13.1750   20.4260 C   0  0  0  0  0  2  0  0  0  0  0  0
  -30.0400  -13.4530   19.7320 N   0  0  0  0  0  0  0  0  0  0  0  0
  -31.6790  -14.8700   19.0250 O   0  0  0  0  0  0  0  0  0  0  0  0
  -30.5410  -15.3700   20.8900 N   0  0  0  0  0  0  0  0  0  0  0  0
  -29.8070  -15.0530   21.5050 H   0  0  0  0  0  0  0  0  0  0  0  0
  -25.3150  -13.8500   20.4290 C   0  0  0  0  0  0  0  0  0  0  0  0
  -24.2810  -13.0630   20.8660 C   0  0  0  0  0  0  0  0  0  0  0  0
  -24.7090  -11.7120   20.6840 C   0  0  0  0  0  0  0  0  0  0  0  0
  -26.3110  -12.9770   20.0200 N   0  0  0  0  0  0  0  0  0  0  0  0
  -25.9540  -11.6820   20.2240 N   0  0  0  0  0  0  0  0  0  0  0  0
  -23.9850  -10.4480   20.8670 C   0  0  0  0  0  0  0  0  0  0  0  0
  -24.3970   -9.4940   21.8230 C   0  0  0  0  0  3  0  0  0  0  0  0
  -23.6750   -8.2940   21.9960 C   0  0  0  0  0  3  0  0  0  0  0  0
  -22.5260   -8.0380   21.2100 C   0  0  0  0  0  0  0  0  0  0  0  0
  -22.1330   -8.9800   20.2440 C   0  0  0  0  0  3  0  0  0  0  0  0
  -22.8560  -10.1710   20.0700 C   0  0  0  0  0  3  0  0  0  0  0  0
  -21.7780   -6.8870   21.2910 O   0  0  0  0  0  0  0  0  0  0  0  0
  -21.5920   -6.2280   22.4790 C   0  0  0  0  0  0  0  0  0  0  0  0
  -20.9840   -6.8540   23.5890 C   0  0  0  0  0  3  0  0  0  0  0  0
  -20.7510   -6.1200   24.7700 C   0  0  0  0  0  3  0  0  0  0  0  0
  -21.1140   -4.7610   24.8390 C   0  0  0  0  0  0  0  0  0  0  0  0
  -21.7150   -4.1360   23.7320 C   0  0  0  0  0  3  0  0  0  0  0  0
  -21.9520   -4.8680   22.5540 C   0  0  0  0  0  0  0  0  0  0  0  0
  -22.5110   -4.2550   21.4840 F   0  0  0  0  0  0  0  0  0  0  0  0
  -20.8830   -4.0530   25.9680 F   0  0  0  0  0  0  0  0  0  0  0  0
  -22.9350  -13.5350   21.3360 C   0  0  0  0  0  0  0  0  0  0  0  0
  -22.3270  -12.8140   22.2730 N   0  0  0  0  0  0  0  0  0  0  0  0
  -22.4350  -14.5750   20.9110 O   0  0  0  0  0  0  0  0  0  0  0  0
  -22.7440  -11.9710   22.6370 H   0  0  0  0  0  0  0  0  0  0  0  0
  -21.4300  -13.1120   22.6310 H   0  0  0  0  0  0  0  0  0  0  0  0
  -25.4840  -15.2270   20.3340 N   0  0  0  0  0  0  0  0  0  0  0  0
  -24.7530  -15.8860   20.5800 H   0  0  0  0  0  0  0  0  0  0  0  0
  -26.3140  -15.6740   19.9610 H   0  0  0  0  0  0  0  0  0  0  0  0
  1  2  1  0
  1  3  1  0
  6  4  1  0
  7  9  1  0
  7  5  1  0
  8  5  1  0
  8  4  1  0
  8  1  1  0
  9 10  1  0
  9  6  1  0
 10 12  1  0
 11 22  2  0
 12 17  1  0
 13 21  1  0
 13 23  1  0
 14 20  1  0
 14 16  1  0
 15 21  1  0
 16 15  1  0
 17 16  2  0
 18 19  1  0
 18 12  2  0
 19 14  2  0
 20 13  1  0
 21 11  1  0
 23 25  2  0
 24 23  1  0
 26 24  1  0
 27 36  2  0
 27 32  1  0
 28 24  1  0
 28 32  1  0
 29 28  1  0
 30 31  1  0
 30 29  1  0
 31 27  1  0
 32 33  2  0
 33 34  1  0
 35 34  2  0
 36 35  1  0
 37 11  1  0
 37 42  1  0
 37 38  1  0
 38 41  1  1
 38 39  1  0
 40 38  1  0
 42 45  1  0
 43 47  1  0
 43 42  1  0
 44 43  2  0
 47 46  1  0
 49 47  1  0
 49 50  1  0
 49 48  1  0
 51 52  1  0
 51  1  1  0
 53 57  1  0
 55 53  1  0
 55 58  1  0
 56 54  1  0
 57 52  1  0
 57 54  1  0
 58 67  1  0
 58 56  1  0
 59 67  1  0
 60 65  1  0
 61 62  1  0
 61 60  1  0
 63 62  1  0
 63 72  1  0
 63 64  1  0
 65 59  1  0
 65 64  1  0
 66 59  2  0
 67 68  1  0
 69 70  2  0
 70 89  1  0
 71 70  1  0
 71 74  1  0
 72 73  1  0
 72 69  1  0
 73 71  2  0
 74 75  1  0
 75 76  2  0
 77 80  1  0
 77 76  1  0
 78 77  2  0
 79 78  1  0
 79 74  2  0
 80 81  1  0
 81 86  2  0
 81 82  1  0
 82 83  2  0
 83 84  1  0
 84 88  1  0
 85 84  2  0
 86 85  1  0
 87 86  1  0
 89 90  1  0
 90 93  1  0
 90 92  1  0
 91 89  2  0
 94 69  1  0
 94 95  1  0
 96 94  1  0
M  ISO  4   9 101  10 101  59 100  67 100
M  END
>  <TORSDO>  (34) 
F 20

>  <SCORE>  (34) 
-11.524

>  <name>  (34) 
33

>  <ligand_id>  (34) 
33

>  <original_smiles>  (34) 
[H]c1c([H])c([H])c2c(c1[H])C([H])([H])C([H])([H])C([H])([H])C2([H])N([H])C(=O)C1([H])N(C(=O)C([H])(N([H])C(=O)C([H])(N([H])C([H])([H])[H])C([H])([H])[H])C(C([H])([H])[H])(C([H])([H])[H])C([H])([H])[H])C([H])([H])c2c([H])c(OC3([H])C([H])([H])C([H])([H])C([H])([N+]([H])([H])C([H])([H])C([H])([H])C4([H])C([H])([H])C([H])([H])C([H])(N([H])C(=O)N5C([H])([H])C([H])([H])C([H])([H])C([H])(n6nc(-c7c([H])c([H])c(Oc8c([H])c([H])c(F)c([H])c8F)c([H])c7[H])c(C(=O)N([H])[H])c6N([H])[H])C5([H])[H])C([H])([H])C4([H])[H])C([H])([H])C3([H])[H])c([H])c([H])c2C1([H])[H]

>  <smiles>  (34) 
[H]c1c([H])c([H])c2c(c1[H])C([H])([H])C([H])([H])C([H])([H])C2([H])N([H])C(=O)C1([H])N(C(=O)C([H])(N([H])C(=O)C([H])(N([H])C([H])([H])[H])C([H])([H])[H])C(C([H])([H])[H])(C([H])([H])[H])C([H])([H])[H])C([H])([H])c2c([H])c(OC3([H])C([H])([H])C([H])([H])C([H])([N+]([H])([H])C([H])([H])C([H])([H])C4([H])C([H])([H])C([H])([H])C([H])(N([H])C(=O)N5C([H])([H])C([H])([H])C([H])([H])C([H])(n6nc(-c7c([H])c([H])c(Oc8c([H])c([H])c(F)c([H])c8F)c([H])c7[H])c(C(=O)N([H])[H])c6N([H])[H])C5([H])[H])C([H])([H])C4([H])[H])C([H])([H])C3([H])[H])c([H])c([H])c2C1([H])[H]

$$$$
34:0:0
     RDKit          3D

 97107  0  0  1  0  0  0  0  0999 V2000
  -30.5210  -20.8640   21.1200 C   0  0  0  0  0  3  0  0  0  0  0  0
  -30.9360  -19.5840   21.0200 C   0  0  0  0  0  3  0  0  0  0  0  0
  -27.2920  -17.5010   19.0550 C   0  0  0  0  0  3  0  0  0  0  0  0
  -27.7040  -16.1880   18.7390 C   0  0  0  0  0  3  0  0  0  0  0  0
  -28.0540  -18.2960   19.9390 C   0  0  0  0  0  3  0  0  0  0  0  0
  -28.8980  -15.6670   19.2810 C   0  0  0  0  0  3  0  0  0  0  0  0
  -29.2400  -17.7610   20.4770 C   0  0  0  0  0  0  0  0  0  0  0  0
  -29.6670  -16.4840   20.1310 C   0  0  0  0  0  0  0  0  0  0  0  0
  -31.0400  -17.1810   21.9570 C   0  0  0  0  0  2  0  0  0  0  0  0
  -30.1420  -18.3810   21.5210 C   0  0  0  0  0  3  0  0  0  0  0  0
  -30.9620  -16.1350   20.8210 C   0  0  0  0  0  3  0  0  0  0  0  0
  -31.5390  -13.7540   20.4990 C   0  0  0  0  0  0  0  0  0  0  0  0
  -31.1380  -11.4830   19.6170 C   0  0  0  0  0  2  0  0  0  0  0  0
  -30.2120  -11.5650   18.3860 C   0  0  0  0  0  2  0  0  0  0  0  0
  -28.7260  -11.5900   18.8000 C   0  0  0  0  0  2  0  0  0  0  0  0
  -28.4330  -12.6250   19.9190 C   0  0  0  0  0  3  0  0  0  0  0  0
  -29.4530  -12.4610   21.0690 C   0  0  0  0  0  2  0  0  0  0  0  0
  -30.8170  -12.6040   20.5130 N   0  0  0  0  0  0  0  0  0  0  0  0
  -32.5680  -13.9090   19.8320 O   0  0  0  0  0  0  0  0  0  0  0  0
  -30.9970  -14.7370   21.2210 N   0  0  0  0  0  0  0  0  0  0  0  0
  -30.2380  -14.4530   21.8220 H   0  0  0  0  0  0  0  0  0  0  0  0
  -26.1380  -13.5190   20.6900 C   0  0  0  0  0  0  0  0  0  0  0  0
  -24.9810  -12.8810   21.0450 C   0  0  0  0  0  0  0  0  0  0  0  0
  -25.2540  -11.4840   20.9320 C   0  0  0  0  0  0  0  0  0  0  0  0
  -27.0550  -12.5190   20.3990 N   0  0  0  0  0  0  0  0  0  0  0  0
  -26.5210  -11.2860   20.5920 N   0  0  0  0  0  0  0  0  0  0  0  0
  -24.3650  -10.3230   21.0700 C   0  0  0  0  0  0  0  0  0  0  0  0
  -24.6530   -9.2770   21.9740 C   0  0  0  0  0  3  0  0  0  0  0  0
  -23.7750   -8.1800   22.1030 C   0  0  0  0  0  3  0  0  0  0  0  0
  -22.5930   -8.1210   21.3260 C   0  0  0  0  0  0  0  0  0  0  0  0
  -22.3220   -9.1540   20.4110 C   0  0  0  0  0  3  0  0  0  0  0  0
  -23.2000  -10.2430   20.2800 C   0  0  0  0  0  3  0  0  0  0  0  0
  -21.6950   -7.0830   21.3680 O   0  0  0  0  0  0  0  0  0  0  0  0
  -21.4470   -6.3900   22.5230 C   0  0  0  0  0  0  0  0  0  0  0  0
  -21.0410   -7.0390   23.7100 C   0  0  0  0  0  3  0  0  0  0  0  0
  -20.7300   -6.2810   24.8560 C   0  0  0  0  0  3  0  0  0  0  0  0
  -20.8150   -4.8770   24.8170 C   0  0  0  0  0  0  0  0  0  0  0  0
  -21.2140   -4.2280   23.6360 C   0  0  0  0  0  3  0  0  0  0  0  0
  -21.5270   -4.9830   22.4910 C   0  0  0  0  0  0  0  0  0  0  0  0
  -21.8900   -4.3510   21.3480 F   0  0  0  0  0  0  0  0  0  0  0  0
  -20.5080   -4.1480   25.9150 F   0  0  0  0  0  0  0  0  0  0  0  0
  -23.6660  -13.5260   21.3740 C   0  0  0  0  0  0  0  0  0  0  0  0
  -22.8780  -12.9030   22.2450 N   0  0  0  0  0  0  0  0  0  0  0  0
  -23.3490  -14.6150   20.8960 O   0  0  0  0  0  0  0  0  0  0  0  0
  -23.1470  -12.0210   22.6540 H   0  0  0  0  0  0  0  0  0  0  0  0
  -21.9930  -13.3130   22.5070 H   0  0  0  0  0  0  0  0  0  0  0  0
  -26.4750  -14.8640   20.5780 N   0  0  0  0  0  0  0  0  0  0  0  0
  -25.8200  -15.6030   20.8100 H   0  0  0  0  0  0  0  0  0  0  0  0
  -27.3900  -15.2150   20.3230 H   0  0  0  0  0  0  0  0  0  0  0  0
  -33.3720  -23.2700   20.3780 C   0  0  0  0  0  3  0  0  0  0  0  0
  -32.6840  -22.1000   20.7560 C   0  0  0  0  0  3  0  0  0  0  0  0
  -32.6640  -24.3950   19.9010 C   0  0  0  0  0  3  0  0  0  0  0  0
  -30.5730  -23.1900   20.2340 C   0  0  0  0  0  3  0  0  0  0  0  0
  -31.2740  -22.0630   20.7160 C   0  0  0  0  0  0  0  0  0  0  0  0
  -31.2580  -24.3500   19.8010 C   0  0  0  0  0  0  0  0  0  0  0  0
  -30.4830  -25.4700   19.1090 C   0  0  0  0  0  2  0  0  0  0  0  0
  -30.3670  -26.7000   19.8390 O   0  0  0  0  0  0  0  0  0  0  0  0
  -25.8310  -30.3470   23.9290 C   0  0  0  0  0  0  0  0  0  0  0  0
  -29.0940  -27.2400   19.9380 C   0  0  0  0  0  0  0  0  0  0  0  0
  -24.8390  -29.2630   21.9400 C   0  0  0  0  0  3  0  0  0  0  0  0
  -26.4970  -28.3480   20.2370 C   0  0  0  0  0  0  0  0  0  0  0  0
  -27.2880  -30.0020   21.9350 C   0  0  0  0  0  2  0  0  0  0  0  0
  -27.5720  -28.8620   20.9770 C   0  0  0  0  0  0  0  0  0  0  0  0
  -28.8660  -28.3180   20.8260 C   0  0  0  0  0  3  0  0  0  0  0  0
  -27.9930  -26.7460   19.1890 C   0  0  0  0  0  3  0  0  0  0  0  0
  -26.7050  -27.2870   19.3400 C   0  0  0  0  0  3  0  0  0  0  0  0
  -25.1470  -28.9920   20.4450 C   0  0  0  0  0  2  0  0  0  0  0  0
  -26.0020  -29.8710   22.6620 N   0  0  0  0  0  0  0  0  0  0  0  0
  -24.7220  -30.3250   24.4770 O   0  0  0  0  0  0  0  0  0  0  0  0
  -24.3320  -27.9520   22.5870 C   0  0  0  0  0  0  0  0  0  0  0  0
  -23.1070  -27.5400   22.2220 N   0  0  0  0  0  0  0  0  0  0  0  0
  -25.0410  -27.3230   23.3770 O   0  0  0  0  0  0  0  0  0  0  0  0
  -22.5880  -28.1150   21.5720 H   0  0  0  0  0  0  0  0  0  0  0  0
  -20.1250  -25.5380   21.8450 C   0  0  0  0  0  0  0  0  0  0  0  0
  -22.4430  -26.3170   22.6760 C   0  0  0  0  0  3  0  0  0  0  0  0
  -23.0090  -25.0760   21.9490 C   0  0  0  0  0  2  0  0  0  0  0  0
  -22.2150  -24.7010   20.6940 C   0  0  0  0  0  2  0  0  0  0  0  0
  -20.7530  -24.4110   21.0470 C   0  0  0  0  0  2  0  0  0  0  0  0
  -20.9190  -26.4420   22.5980 C   0  0  0  0  0  0  0  0  0  0  0  0
  -20.2850  -27.4950   23.2940 C   0  0  0  0  0  3  0  0  0  0  0  0
  -18.8880  -27.6490   23.2490 C   0  0  0  0  0  3  0  0  0  0  0  0
  -18.1040  -26.7420   22.5150 C   0  0  0  0  0  3  0  0  0  0  0  0
  -18.7220  -25.6880   21.8190 C   0  0  0  0  0  3  0  0  0  0  0  0
  -27.0140  -30.9660   24.7360 C   0  0  0  0  0  3  0  0  0  0  0  0
  -27.3270  -30.1890   26.0730 C   0  0  1  0  0  0  0  0  0  0  0  0
  -26.0880  -29.9540   26.9650 C   0  0  0  0  0  1  0  0  0  0  0  0
  -27.9530  -28.8090   25.7650 C   0  0  0  0  0  1  0  0  0  0  0  0
  -28.3700  -30.9750   26.9020 C   0  0  0  0  0  1  0  0  0  0  0  0
  -26.6730  -32.3680   25.0150 N   0  0  0  0  0  0  0  0  0  0  0  0
  -27.1720  -33.4180   24.3530 C   0  0  0  0  0  0  0  0  0  0  0  0
  -28.0360  -33.3090   23.4780 O   0  0  0  0  0  0  0  0  0  0  0  0
  -25.9320  -32.5270   25.6830 H   0  0  0  0  0  0  0  0  0  0  0  0
  -25.6460  -35.2810   23.6320 C   0  0  0  0  0  1  0  0  0  0  0  0
  -26.6300  -34.8130   24.7170 C   0  0  0  0  0  3  0  0  0  0  0  0
  -28.5220  -35.5820   26.0780 C   0  0  0  0  0  1  0  0  0  0  0  0
  -27.6880  -35.8290   24.9030 N   0  0  0  0  0  0  0  0  0  0  0  0
  -27.2860  -36.7590   24.9900 H   0  0  0  0  0  0  0  0  0  0  0  0
  2  1  2  0
  3  5  1  0
  4  3  2  0
  4  6  1  0
  5  7  2  0
  6  8  2  0
  7 10  1  0
  8  7  1  0
  8 11  1  0
 10  2  1  0
 10  9  1  0
 11 20  1  0
 11  9  1  0
 12 18  1  0
 12 20  1  0
 13 18  1  0
 14 15  1  0
 14 13  1  0
 16 15  1  0
 16 25  1  0
 16 17  1  0
 18 17  1  0
 19 12  2  0
 20 21  1  0
 22 23  2  0
 23 42  1  0
 24 23  1  0
 24 27  1  0
 25 26  1  0
 25 22  1  0
 26 24  2  0
 27 28  1  0
 28 29  2  0
 30 33  1  0
 30 29  1  0
 31 30  2  0
 32 31  1  0
 32 27  2  0
 33 34  1  0
 34 35  1  0
 35 36  2  0
 37 36  1  0
 37 41  1  0
 38 37  2  0
 39 34  2  0
 39 38  1  0
 40 39  1  0
 42 43  1  0
 43 46  1  0
 43 45  1  0
 44 42  2  0
 47 22  1  0
 47 48  1  0
 49 47  1  0
 50 51  1  0
 52 50  2  0
 53 54  1  0
 54 51  2  0
 54  1  1  0
 55 52  1  0
 55 53  2  0
 56 55  1  0
 56 57  1  0
 57 59  1  0
 58 69  2  0
 59 64  1  0
 60 70  1  0
 60 68  1  0
 61 67  1  0
 61 63  1  0
 62 68  1  0
 63 62  1  0
 64 63  2  0
 65 66  1  0
 65 59  2  0
 66 61  2  0
 67 60  1  0
 68 58  1  0
 70 72  2  0
 71 70  1  0
 73 71  1  0
 74 79  1  0
 75 71  1  0
 76 75  1  0
 77 78  1  0
 77 76  1  0
 78 74  1  0
 79 75  1  0
 79 80  2  0
 81 80  1  0
 82 81  2  0
 83 74  2  0
 83 82  1  0
 84 58  1  0
 84 89  1  0
 84 85  1  0
 85 88  1  1
 85 86  1  0
 87 85  1  0
 89 92  1  0
 90 94  1  0
 90 89  1  0
 91 90  2  0
 94 93  1  0
 94 96  1  0
 96 97  1  0
 96 95  1  0
M  ISO  4  12 100  20 100  56 101  57 101
M  END
>  <TORSDO>  (35) 
F 19

>  <SCORE>  (35) 
-10.508

>  <name>  (35) 
34

>  <ligand_id>  (35) 
34

>  <original_smiles>  (35) 
[H]C(=C([H])C1([H])c2c([H])c([H])c([H])c([H])c2C([H])(N([H])C(=O)N2C([H])([H])C([H])([H])C([H])([H])C([H])(n3nc(-c4c([H])c([H])c(Oc5c([H])c([H])c(F)c([H])c5F)c([H])c4[H])c(C(=O)N([H])[H])c3N([H])[H])C2([H])[H])C1([H])[H])c1c([H])c([H])c([H])c(C([H])([H])Oc2c([H])c([H])c3c(c2[H])C([H])([H])N(C(=O)C([H])(N([H])C(=O)C([H])(N([H])C([H])([H])[H])C([H])([H])[H])C(C([H])([H])[H])(C([H])([H])[H])C([H])([H])[H])C([H])(C(=O)N([H])C2([H])c4c([H])c([H])c([H])c([H])c4C([H])([H])C([H])([H])C2([H])[H])C3([H])[H])c1[H]

>  <smiles>  (35) 
[H]C(=C([H])C1([H])c2c([H])c([H])c([H])c([H])c2C([H])(N([H])C(=O)N2C([H])([H])C([H])([H])C([H])([H])C([H])(n3nc(-c4c([H])c([H])c(Oc5c([H])c([H])c(F)c([H])c5F)c([H])c4[H])c(C(=O)N([H])[H])c3N([H])[H])C2([H])[H])C1([H])[H])c1c([H])c([H])c([H])c(C([H])([H])Oc2c([H])c([H])c3c(c2[H])C([H])([H])N(C(=O)C([H])(N([H])C(=O)C([H])(N([H])C([H])([H])[H])C([H])([H])[H])C(C([H])([H])[H])(C([H])([H])[H])C([H])([H])[H])C([H])(C(=O)N([H])C2([H])c4c([H])c([H])c([H])c([H])c4C([H])([H])C([H])([H])C2([H])[H])C3([H])[H])c1[H]

$$$$
35:0:0
     RDKit          3D

 94104  0  0  1  0  0  0  0  0999 V2000
  -30.3390  -24.1090   21.5670 C   0  0  0  0  0  2  0  0  0  0  0  0
  -29.3690  -23.3550   19.4300 C   0  0  0  0  0  2  0  0  0  0  0  0
  -29.1310  -25.0110   21.8860 C   0  0  0  0  0  2  0  0  0  0  0  0
  -28.1180  -24.2340   19.6160 C   0  0  0  0  0  2  0  0  0  0  0  0
  -29.9160  -22.8510   20.7770 C   0  0  0  0  0  3  0  0  0  0  0  0
  -28.2230  -25.3630   20.6820 C   0  0  0  0  0  3  0  0  0  0  0  0
  -28.4960  -26.6820   20.1440 O   0  0  0  0  0  0  0  0  0  0  0  0
  -24.7480  -31.8480   23.3090 C   0  0  0  0  0  0  0  0  0  0  0  0
  -27.3740  -27.4900   20.0920 C   0  0  0  0  0  0  0  0  0  0  0  0
  -23.5400  -30.4980   21.6270 C   0  0  0  0  0  3  0  0  0  0  0  0
  -24.9900  -29.0150   20.1460 C   0  0  0  0  0  0  0  0  0  0  0  0
  -26.0680  -30.8590   21.4390 C   0  0  0  0  0  2  0  0  0  0  0  0
  -26.1530  -29.5120   20.7500 C   0  0  0  0  0  0  0  0  0  0  0  0
  -27.3520  -28.7580   20.7170 C   0  0  0  0  0  3  0  0  0  0  0  0
  -26.1960  -27.0230   19.4660 C   0  0  0  0  0  3  0  0  0  0  0  0
  -25.0080  -27.7710   19.4980 C   0  0  0  0  0  3  0  0  0  0  0  0
  -23.7460  -29.8690   20.2250 C   0  0  0  0  0  2  0  0  0  0  0  0
  -24.8040  -31.0800   22.1830 N   0  0  0  0  0  0  0  0  0  0  0  0
  -23.6680  -32.1040   23.8570 O   0  0  0  0  0  0  0  0  0  0  0  0
  -22.8880  -29.4470   22.5540 C   0  0  0  0  0  0  0  0  0  0  0  0
  -21.5630  -29.2730   22.4250 N   0  0  0  0  0  0  0  0  0  0  0  0
  -23.5720  -28.7920   23.3450 O   0  0  0  0  0  0  0  0  0  0  0  0
  -21.0730  -29.8540   21.7590 H   0  0  0  0  0  0  0  0  0  0  0  0
  -18.1860  -28.0690   22.8880 C   0  0  0  0  0  0  0  0  0  0  0  0
  -20.7450  -28.3140   23.1680 C   0  0  0  0  0  3  0  0  0  0  0  0
  -20.8450  -26.9010   22.5490 C   0  0  0  0  0  2  0  0  0  0  0  0
  -19.7420  -26.6100   21.5260 C   0  0  0  0  0  2  0  0  0  0  0  0
  -18.3600  -26.7390   22.1740 C   0  0  0  0  0  2  0  0  0  0  0  0
  -19.3060  -28.8160   23.3410 C   0  0  0  0  0  0  0  0  0  0  0  0
  -19.0900  -30.0620   23.9670 C   0  0  0  0  0  3  0  0  0  0  0  0
  -17.7860  -30.5620   24.1450 C   0  0  0  0  0  3  0  0  0  0  0  0
  -16.6810  -29.8110   23.7100 C   0  0  0  0  0  3  0  0  0  0  0  0
  -16.8810  -28.5660   23.0880 C   0  0  0  0  0  3  0  0  0  0  0  0
  -26.0360  -32.4570   23.9450 C   0  0  0  0  0  3  0  0  0  0  0  0
  -25.7290  -33.8440   24.3200 N   0  0  0  0  0  0  0  0  0  0  0  0
  -26.0670  -34.9200   23.5950 C   0  0  0  0  0  0  0  0  0  0  0  0
  -26.7430  -34.8460   22.5640 O   0  0  0  0  0  0  0  0  0  0  0  0
  -25.1310  -33.9760   25.1220 H   0  0  0  0  0  0  0  0  0  0  0  0
  -24.3470  -36.7260   23.2800 C   0  0  0  0  0  1  0  0  0  0  0  0
  -25.5790  -36.2930   24.0910 C   0  0  0  0  0  3  0  0  0  0  0  0
  -27.7070  -37.1430   24.9720 C   0  0  0  0  0  1  0  0  0  0  0  0
  -26.6160  -37.3460   24.0240 N   0  0  0  0  0  0  0  0  0  0  0  0
  -26.2110  -38.2630   24.1980 H   0  0  0  0  0  0  0  0  0  0  0  0
  -26.5560  -31.6440   25.1940 C   0  0  1  0  0  0  0  0  0  0  0  0
  -25.4670  -31.3700   26.2560 C   0  0  0  0  0  1  0  0  0  0  0  0
  -27.1400  -30.2820   24.7530 C   0  0  0  0  0  1  0  0  0  0  0  0
  -27.7090  -32.4180   25.8780 C   0  0  0  0  0  1  0  0  0  0  0  0
  -31.0710  -21.8220   20.6130 C   0  0  0  0  0  2  0  0  0  0  0  0
  -30.8850  -14.5920   20.0560 C   0  0  0  0  0  0  0  0  0  0  0  0
  -30.4870  -12.4750   18.8590 C   0  0  0  0  0  2  0  0  0  0  0  0
  -29.4690  -12.7290   17.7290 C   0  0  0  0  0  2  0  0  0  0  0  0
  -28.0270  -12.5800   18.2530 C   0  0  0  0  0  2  0  0  0  0  0  0
  -27.7780  -13.3690   19.5670 C   0  0  0  0  0  3  0  0  0  0  0  0
  -28.9070  -13.1160   20.5920 C   0  0  0  0  0  2  0  0  0  0  0  0
  -30.1880  -13.4280   19.9390 N   0  0  0  0  0  0  0  0  0  0  0  0
  -32.0030  -14.7430   19.5500 O   0  0  0  0  0  0  0  0  0  0  0  0
  -30.6180  -18.6000   22.7460 C   0  0  0  0  0  3  0  0  0  0  0  0
  -30.4910  -19.4060   20.0280 C   0  0  0  0  0  3  0  0  0  0  0  0
  -30.3930  -17.6640   21.7230 C   0  0  0  0  0  0  0  0  0  0  0  0
  -30.3220  -18.0580   20.4050 C   0  0  0  0  0  0  0  0  0  0  0  0
  -30.8040  -19.9630   22.3990 C   0  0  0  0  0  0  0  0  0  0  0  0
  -30.7550  -20.3760   21.0330 C   0  0  0  0  0  0  0  0  0  0  0  0
  -30.2340  -16.1640   21.8300 C   0  0  0  0  0  3  0  0  0  0  0  0
  -30.0950  -16.8520   19.5320 C   0  0  0  0  0  3  0  0  0  0  0  0
  -31.0810  -20.9600   23.5130 C   0  0  0  0  0  1  0  0  0  0  0  0
  -30.1600  -15.6720   20.4350 N   0  0  0  0  0  0  0  0  0  0  0  0
  -25.4340  -13.9460   20.4560 C   0  0  0  0  0  0  0  0  0  0  0  0
  -24.3910  -13.1610   20.8650 C   0  0  0  0  0  0  0  0  0  0  0  0
  -24.8480  -11.8110   20.7540 C   0  0  0  0  0  0  0  0  0  0  0  0
  -26.4610  -13.0760   20.1260 N   0  0  0  0  0  0  0  0  0  0  0  0
  -26.1150  -11.7840   20.3630 N   0  0  0  0  0  0  0  0  0  0  0  0
  -24.1340  -10.5420   20.9460 C   0  0  0  0  0  0  0  0  0  0  0  0
  -24.5810   -9.5760   21.8750 C   0  0  0  0  0  3  0  0  0  0  0  0
  -23.8680   -8.3710   22.0540 C   0  0  0  0  0  3  0  0  0  0  0  0
  -22.6920   -8.1240   21.3050 C   0  0  0  0  0  0  0  0  0  0  0  0
  -22.2640   -9.0790   20.3660 C   0  0  0  0  0  3  0  0  0  0  0  0
  -22.9780  -10.2750   20.1850 C   0  0  0  0  0  3  0  0  0  0  0  0
  -21.9490   -6.9720   21.3950 O   0  0  0  0  0  0  0  0  0  0  0  0
  -21.8460   -6.2710   22.5700 C   0  0  0  0  0  0  0  0  0  0  0  0
  -21.3570   -6.8660   23.7530 C   0  0  0  0  0  3  0  0  0  0  0  0
  -21.2030   -6.0900   24.9190 C   0  0  0  0  0  3  0  0  0  0  0  0
  -21.5280   -4.7200   24.9030 C   0  0  0  0  0  0  0  0  0  0  0  0
  -22.0100   -4.1240   23.7240 C   0  0  0  0  0  3  0  0  0  0  0  0
  -22.1660   -4.8970   22.5600 C   0  0  0  0  0  0  0  0  0  0  0  0
  -22.6110   -4.3140   21.4220 F   0  0  0  0  0  0  0  0  0  0  0  0
  -21.3720   -3.9740   26.0210 F   0  0  0  0  0  0  0  0  0  0  0  0
  -23.0160  -13.6260   21.2460 C   0  0  0  0  0  0  0  0  0  0  0  0
  -22.3540  -12.9080   22.1480 N   0  0  0  0  0  0  0  0  0  0  0  0
  -22.5390  -14.6600   20.7810 O   0  0  0  0  0  0  0  0  0  0  0  0
  -22.7540  -12.0720   22.5440 H   0  0  0  0  0  0  0  0  0  0  0  0
  -21.4340  -13.2010   22.4460 H   0  0  0  0  0  0  0  0  0  0  0  0
  -25.5900  -15.3230   20.3180 N   0  0  0  0  0  0  0  0  0  0  0  0
  -24.8390  -15.9760   20.5080 H   0  0  0  0  0  0  0  0  0  0  0  0
  -26.4310  -15.7740   19.9780 H   0  0  0  0  0  0  0  0  0  0  0  0
  1  3  1  0
  2  4  1  0
  2  5  1  0
  4  6  1  0
  5 48  1  0
  5  1  1  0
  6  7  1  0
  6  3  1  0
  8 19  2  0
  9  7  1  0
  9 14  1  0
 10 18  1  0
 10 20  1  0
 11 17  1  0
 11 13  1  0
 12 18  1  0
 13 12  1  0
 14 13  2  0
 15 16  1  0
 15  9  2  0
 16 11  2  0
 17 10  1  0
 18  8  1  0
 20 22  2  0
 21 20  1  0
 23 21  1  0
 24 33  2  0
 24 29  1  0
 25 21  1  0
 25 29  1  0
 26 25  1  0
 27 28  1  0
 27 26  1  0
 28 24  1  0
 29 30  2  0
 30 31  1  0
 32 31  2  0
 33 32  1  0
 34  8  1  0
 34 35  1  0
 34 44  1  0
 35 38  1  0
 36 40  1  0
 36 35  1  0
 37 36  2  0
 40 39  1  0
 42 40  1  0
 42 43  1  0
 42 41  1  0
 44 47  1  1
 44 45  1  0
 46 44  1  0
 48 62  1  0
 49 66  1  0
 50 55  1  0
 51 52  1  0
 51 50  1  0
 53 52  1  0
 53 70  1  0
 53 54  1  0
 55 49  1  0
 55 54  1  0
 56 49  2  0
 58 60  1  0
 58 62  2  0
 59 63  2  0
 59 57  1  0
 60 59  1  0
 61 57  2  0
 61 65  1  0
 62 61  1  0
 64 60  2  0
 64 66  1  0
 66 63  1  0
 67 68  2  0
 68 87  1  0
 69 68  1  0
 69 72  1  0
 70 71  1  0
 70 67  1  0
 71 69  2  0
 72 73  1  0
 73 74  2  0
 75 78  1  0
 75 74  1  0
 76 75  2  0
 77 76  1  0
 77 72  2  0
 78 79  1  0
 79 80  1  0
 80 81  2  0
 82 81  1  0
 82 86  1  0
 83 82  2  0
 84 79  2  0
 84 83  1  0
 85 84  1  0
 87 88  1  0
 88 91  1  0
 88 90  1  0
 89 87  2  0
 92 67  1  0
 92 93  1  0
 94 92  1  0
M  ISO  4   6 101   7 101  49 100  66 100
M  END
>  <TORSDO>  (36) 
F 17

>  <SCORE>  (36) 
-14.741

>  <name>  (36) 
35

>  <ligand_id>  (36) 
35

>  <original_smiles>  (36) 
[H]c1c([H])c([H])c2c(c1[H])C([H])([H])C([H])([H])C([H])([H])C2([H])N([H])C(=O)C1([H])N(C(=O)C([H])(N([H])C(=O)C([H])(N([H])C([H])([H])[H])C([H])([H])[H])C(C([H])([H])[H])(C([H])([H])[H])C([H])([H])[H])C([H])([H])c2c([H])c(OC3([H])C([H])([H])C([H])([H])C([H])(C([H])([H])c4c([H])c5c(c([H])c4C([H])([H])[H])C([H])([H])N(C(=O)N4C([H])([H])C([H])([H])C([H])([H])C([H])(n6nc(-c7c([H])c([H])c(Oc8c([H])c([H])c(F)c([H])c8F)c([H])c7[H])c(C(=O)N([H])[H])c6N([H])[H])C4([H])[H])C5([H])[H])C([H])([H])C3([H])[H])c([H])c([H])c2C1([H])[H]

>  <smiles>  (36) 
[H]c1c([H])c([H])c2c(c1[H])C([H])([H])C([H])([H])C([H])([H])C2([H])N([H])C(=O)C1([H])N(C(=O)C([H])(N([H])C(=O)C([H])(N([H])C([H])([H])[H])C([H])([H])[H])C(C([H])([H])[H])(C([H])([H])[H])C([H])([H])[H])C([H])([H])c2c([H])c(OC3([H])C([H])([H])C([H])([H])C([H])(C([H])([H])c4c([H])c5c(c([H])c4C([H])([H])[H])C([H])([H])N(C(=O)N4C([H])([H])C([H])([H])C([H])([H])C([H])(n6nc(-c7c([H])c([H])c(Oc8c([H])c([H])c(F)c([H])c8F)c([H])c7[H])c(C(=O)N([H])[H])c6N([H])[H])C4([H])[H])C5([H])[H])C([H])([H])C3([H])[H])c([H])c([H])c2C1([H])[H]

$$$$
36:0:0
     RDKit          3D

 86 91  0  0  1  0  0  0  0  0999 V2000
  -28.6990  -21.5090   20.7140 C   0  0  0  0  0  2  0  0  0  0  0  0
  -29.3590  -21.6130   18.0740 C   0  0  0  0  0  2  0  0  0  0  0  0
  -29.0240  -20.0890   18.4710 C   0  0  0  0  0  2  0  0  0  0  0  0
  -28.4420  -22.8860   18.4670 C   0  0  0  0  0  2  0  0  0  0  0  0
  -29.2970  -19.6690   19.9590 C   0  0  0  0  0  1  0  0  0  0  0  0
  -28.1480  -23.2500   19.9760 C   0  0  0  0  0  2  0  0  0  0  0  0
  -28.6850  -21.5290   21.9480 O   0  0  0  0  0  1  0  0  0  0  0  0
  -30.1040  -16.2510   20.1200 C   0  0  0  0  0  0  0  0  0  0  0  0
  -30.3340  -13.5880   19.3470 C   0  0  0  0  0  2  0  0  0  0  0  0
  -29.4830  -12.9650   18.1870 C   0  0  0  0  0  2  0  0  0  0  0  0
  -28.1090  -12.4990   18.6810 C   0  0  0  0  0  2  0  0  0  0  0  0
  -27.5440  -13.5180   19.6870 C   0  0  0  0  0  3  0  0  0  0  0  0
  -28.5550  -14.0240   20.7590 C   0  0  0  0  0  2  0  0  0  0  0  0
  -29.6380  -14.8000   20.0650 N   0  0  0  0  0  0  0  0  0  0  0  0
  -31.3360  -16.1140   19.9110 O   0  0  0  0  0  0  0  0  0  0  0  0
  -29.3570  -17.7410   20.2270 N   0  0  0  0  0  2  0  0  0  0  0  0
  -28.4090  -17.4940   20.4780 H   0  0  0  0  0  0  0  0  0  0  0  0
  -25.2000  -13.9810   20.5110 C   0  0  0  0  0  0  0  0  0  0  0  0
  -24.1590  -13.1840   20.8870 C   0  0  0  0  0  0  0  0  0  0  0  0
  -24.6450  -11.8410   20.8290 C   0  0  0  0  0  0  0  0  0  0  0  0
  -26.2520  -13.1310   20.2390 N   0  0  0  0  0  0  0  0  0  0  0  0
  -25.9350  -11.8320   20.4920 N   0  0  0  0  0  0  0  0  0  0  0  0
  -23.9300  -10.5690   21.0170 C   0  0  0  0  0  0  0  0  0  0  0  0
  -24.3700   -9.6010   21.9470 C   0  0  0  0  0  3  0  0  0  0  0  0
  -23.6470   -8.4010   22.1290 C   0  0  0  0  0  3  0  0  0  0  0  0
  -22.4700   -8.1600   21.3820 C   0  0  0  0  0  0  0  0  0  0  0  0
  -22.0490   -9.1170   20.4420 C   0  0  0  0  0  3  0  0  0  0  0  0
  -22.7710  -10.3070   20.2590 C   0  0  0  0  0  3  0  0  0  0  0  0
  -21.7190   -7.0120   21.4730 O   0  0  0  0  0  0  0  0  0  0  0  0
  -21.6660   -6.2750   22.6280 C   0  0  0  0  0  0  0  0  0  0  0  0
  -21.1990   -6.8260   23.8420 C   0  0  0  0  0  3  0  0  0  0  0  0
  -21.0930   -6.0150   24.9890 C   0  0  0  0  0  3  0  0  0  0  0  0
  -21.4460   -4.6540   24.9250 C   0  0  0  0  0  0  0  0  0  0  0  0
  -21.9070   -4.1020   23.7160 C   0  0  0  0  0  3  0  0  0  0  0  0
  -22.0130   -4.9100   22.5710 C   0  0  0  0  0  0  0  0  0  0  0  0
  -22.4370   -4.3680   21.4040 F   0  0  0  0  0  0  0  0  0  0  0  0
  -21.3390   -3.8720   26.0250 F   0  0  0  0  0  0  0  0  0  0  0  0
  -22.7620  -13.6440   21.1780 C   0  0  0  0  0  0  0  0  0  0  0  0
  -22.0560  -12.9410   22.0550 N   0  0  0  0  0  0  0  0  0  0  0  0
  -22.3080  -14.6670   20.6650 O   0  0  0  0  0  0  0  0  0  0  0  0
  -22.4390  -12.1150   22.4910 H   0  0  0  0  0  0  0  0  0  0  0  0
  -21.1180  -13.2320   22.2940 H   0  0  0  0  0  0  0  0  0  0  0  0
  -25.3370  -15.3560   20.3430 N   0  0  0  0  0  0  0  0  0  0  0  0
  -24.5580  -15.9940   20.4650 H   0  0  0  0  0  0  0  0  0  0  0  0
  -26.1650  -15.8080   19.9780 H   0  0  0  0  0  0  0  0  0  0  0  0
  -28.1160  -25.1450   20.3570 O   0  0  0  0  0  1  0  0  0  0  0  0
  -24.6950  -31.8740   23.2140 C   0  0  0  0  0  0  0  0  0  0  0  0
  -27.1950  -26.5120   20.2600 C   0  0  0  0  0  0  0  0  0  0  0  0
  -23.5140  -30.4640   21.5880 C   0  0  0  0  0  3  0  0  0  0  0  0
  -24.9590  -28.7490   20.1920 C   0  0  0  0  0  0  0  0  0  0  0  0
  -26.1050  -30.5100   21.4980 C   0  0  0  0  0  2  0  0  0  0  0  0
  -26.1610  -29.0430   20.8440 C   0  0  0  0  0  0  0  0  0  0  0  0
  -27.2430  -27.9620   20.8420 C   0  0  0  0  0  3  0  0  0  0  0  0
  -25.9600  -26.5150   19.5360 C   0  0  0  0  0  3  0  0  0  0  0  0
  -24.9180  -27.5140   19.5110 C   0  0  0  0  0  3  0  0  0  0  0  0
  -23.7660  -29.7370   20.2290 C   0  0  0  0  0  2  0  0  0  0  0  0
  -24.8000  -30.9910   22.1510 N   0  0  0  0  0  0  0  0  0  0  0  0
  -23.5970  -32.1910   23.7090 O   0  0  0  0  0  0  0  0  0  0  0  0
  -22.7690  -29.5200   22.5730 C   0  0  0  0  0  0  0  0  0  0  0  0
  -21.4340  -29.3750   22.4460 N   0  0  0  0  0  0  0  0  0  0  0  0
  -23.4100  -28.9110   23.4310 O   0  0  0  0  0  0  0  0  0  0  0  0
  -20.9610  -29.9160   21.7350 H   0  0  0  0  0  0  0  0  0  0  0  0
  -18.0460  -28.1400   22.9550 C   0  0  0  0  0  0  0  0  0  0  0  0
  -20.6030  -28.4450   23.2250 C   0  0  0  0  0  3  0  0  0  0  0  0
  -20.7200  -27.0040   22.6750 C   0  0  0  0  0  2  0  0  0  0  0  0
  -19.6310  -26.6560   21.6560 C   0  0  0  0  0  2  0  0  0  0  0  0
  -18.2430  -26.7890   22.2890 C   0  0  0  0  0  2  0  0  0  0  0  0
  -19.1520  -28.9250   23.3790 C   0  0  0  0  0  0  0  0  0  0  0  0
  -18.9080  -30.1840   23.9700 C   0  0  0  0  0  3  0  0  0  0  0  0
  -17.5940  -30.6610   24.1350 C   0  0  0  0  0  3  0  0  0  0  0  0
  -16.5040  -29.8760   23.7220 C   0  0  0  0  0  3  0  0  0  0  0  0
  -16.7300  -28.6170   23.1380 C   0  0  0  0  0  3  0  0  0  0  0  0
  -25.9470  -32.5420   23.8630 C   0  0  0  0  0  3  0  0  0  0  0  0
  -25.6170  -33.9470   24.1900 N   0  0  0  0  0  0  0  0  0  0  0  0
  -25.9340  -35.0160   23.4460 C   0  0  0  0  0  0  0  0  0  0  0  0
  -26.5830  -34.9240   22.4030 O   0  0  0  0  0  0  0  0  0  0  0  0
  -25.0320  -34.0900   25.0020 H   0  0  0  0  0  0  0  0  0  0  0  0
  -24.1850  -36.8160   23.1780 C   0  0  0  0  0  1  0  0  0  0  0  0
  -25.4620  -36.4070   23.9310 C   0  0  0  0  0  3  0  0  0  0  0  0
  -27.6210  -37.3160   24.6780 C   0  0  0  0  0  1  0  0  0  0  0  0
  -26.4840  -37.4680   23.7740 N   0  0  0  0  0  0  0  0  0  0  0  0
  -26.0750  -38.3860   23.9280 H   0  0  0  0  0  0  0  0  0  0  0  0
  -26.4310  -31.8010   25.1720 C   0  0  1  0  0  0  0  0  0  0  0  0
  -25.3140  -31.5920   26.2230 C   0  0  0  0  0  1  0  0  0  0  0  0
  -27.0180  -30.4120   24.8430 C   0  0  0  0  0  1  0  0  0  0  0  0
  -27.5700  -32.6060   25.8400 C   0  0  0  0  0  1  0  0  0  0  0  0
  1  7  1  0
  2  4  1  0
  2  3  1  0
  3  5  1  0
  4  6  1  0
  6  1  1  0
  8 16  1  0
  9 14  1  0
 10 11  1  0
 10  9  1  0
 12 11  1  0
 12 21  1  0
 12 13  1  0
 14  8  1  0
 14 13  1  0
 15  8  2  0
 16 17  1  0
 18 19  2  0
 19 38  1  0
 20 19  1  0
 20 23  1  0
 21 22  1  0
 21 18  1  0
 22 20  2  0
 23 24  1  0
 24 25  2  0
 26 29  1  0
 26 25  1  0
 27 26  2  0
 28 27  1  0
 28 23  2  0
 29 30  1  0
 30 31  1  0
 31 32  2  0
 33 32  1  0
 33 37  1  0
 34 33  2  0
 35 30  2  0
 35 34  1  0
 36 35  1  0
 38 39  1  0
 39 42  1  0
 39 41  1  0
 40 38  2  0
 43 44  1  0
 43 18  1  0
 45 43  1  0
 47 58  2  0
 48 46  1  0
 48 53  1  0
 49 57  1  0
 49 59  1  0
 50 56  1  0
 50 52  1  0
 51 57  1  0
 52 51  1  0
 53 52  2  0
 54 48  2  0
 55 54  1  0
 55 50  2  0
 56 49  1  0
 57 47  1  0
 59 61  2  0
 60 59  1  0
 62 60  1  0
 63 72  2  0
 63 68  1  0
 64 60  1  0
 64 68  1  0
 65 64  1  0
 66 67  1  0
 66 65  1  0
 67 63  1  0
 68 69  2  0
 69 70  1  0
 71 70  2  0
 72 71  1  0
 73 47  1  0
 73 74  1  0
 73 83  1  0
 74 77  1  0
 75 79  1  0
 75 74  1  0
 76 75  2  0
 79 78  1  0
 81 82  1  0
 81 79  1  0
 81 80  1  0
 83 86  1  1
 83 84  1  0
 85 83  1  0
M  ISO  4   6 101   8 100  16 100  46 101
M  END
>  <TORSDO>  (37) 
F 16

>  <SCORE>  (37) 
-16.791

>  <name>  (37) 
36

>  <ligand_id>  (37) 
36

>  <original_smiles>  (37) 
[H]c1c([H])c([H])c2c(c1[H])C([H])([H])C([H])([H])C([H])([H])C2([H])N([H])C(=O)C1([H])N(C(=O)C([H])(N([H])C(=O)C([H])(N([H])C([H])([H])[H])C([H])([H])[H])C(C([H])([H])[H])(C([H])([H])[H])C([H])([H])[H])C([H])([H])c2c([H])c(OC3([H])C(=O)C([H])(N([H])C(=O)N4C([H])([H])C([H])([H])C([H])([H])C([H])(n5nc(-c6c([H])c([H])c(Oc7c([H])c([H])c(F)c([H])c7F)c([H])c6[H])c(C(=O)N([H])[H])c5N([H])[H])C4([H])[H])C([H])([H])C([H])([H])C3([H])[H])c([H])c([H])c2C1([H])[H]

>  <smiles>  (37) 
[H]c1c([H])c([H])c2c(c1[H])C([H])([H])C([H])([H])C([H])([H])C2([H])N([H])C(=O)C1([H])N(C(=O)C([H])(N([H])C(=O)C([H])(N([H])C([H])([H])[H])C([H])([H])[H])C(C([H])([H])[H])(C([H])([H])[H])C([H])([H])[H])C([H])([H])c2c([H])c(OC3([H])C(=O)C([H])(N([H])C(=O)N4C([H])([H])C([H])([H])C([H])([H])C([H])(n5nc(-c6c([H])c([H])c(Oc7c([H])c([H])c(F)c([H])c7F)c([H])c6[H])c(C(=O)N([H])[H])c5N([H])[H])C4([H])[H])C([H])([H])C([H])([H])C3([H])[H])c([H])c([H])c2C1([H])[H]

$$$$
37:0:0
     RDKit          3D

 90 99  0  0  1  0  0  0  0  0999 V2000
  -28.2270  -17.6400   19.7580 C   0  0  0  0  0  3  0  0  0  0  0  0
  -27.8150  -20.2310   19.7430 C   0  0  0  0  0  0  0  0  0  0  0  0
  -29.5650  -17.5410   20.2450 C   0  0  0  0  0  0  0  0  0  0  0  0
  -29.1350  -20.4760   20.1800 C   0  0  0  0  0  0  0  0  0  0  0  0
  -27.4270  -18.8390   19.5170 C   0  0  0  0  0  0  0  0  0  0  0  0
  -29.9540  -19.0970   20.4130 C   0  0  0  0  0  0  0  0  0  0  0  0
  -26.9090  -21.4770   19.4160 C   0  0  0  0  0  0  0  0  0  0  0  0
  -29.4100  -22.2730   20.2910 C   0  0  0  0  0  2  0  0  0  0  0  0
  -27.0200  -22.9100   20.1260 C   0  0  0  0  0  2  0  0  0  0  0  0
  -28.3220  -23.7610   19.8790 C   0  0  0  0  0  3  0  0  0  0  0  0
  -26.0420  -18.5560   18.9430 C   0  0  0  0  0  1  0  0  0  0  0  0
  -31.3810  -19.3220   20.8680 C   0  0  0  0  0  1  0  0  0  0  0  0
  -26.0210  -21.4060   18.5630 O   0  0  0  0  0  0  0  0  0  0  0  0
  -30.3470  -15.9060   20.3570 C   0  0  0  0  0  0  0  0  0  0  0  0
  -30.5310  -13.2900   19.7140 C   0  0  0  0  0  2  0  0  0  0  0  0
  -29.7160  -12.7850   18.4860 C   0  0  0  0  0  2  0  0  0  0  0  0
  -28.2790  -12.4180   18.8860 C   0  0  0  0  0  2  0  0  0  0  0  0
  -27.6910  -13.4670   19.8540 C   0  0  0  0  0  3  0  0  0  0  0  0
  -28.6540  -13.8910   20.9880 C   0  0  0  0  0  2  0  0  0  0  0  0
  -29.8540  -14.5110   20.3670 N   0  0  0  0  0  0  0  0  0  0  0  0
  -31.5900  -15.8110   20.2860 O   0  0  0  0  0  0  0  0  0  0  0  0
  -25.3080  -13.9920   20.5460 C   0  0  0  0  0  0  0  0  0  0  0  0
  -24.2330  -13.2180   20.8650 C   0  0  0  0  0  0  0  0  0  0  0  0
  -24.7030  -11.8690   20.8570 C   0  0  0  0  0  0  0  0  0  0  0  0
  -26.3610  -13.1230   20.3350 N   0  0  0  0  0  0  0  0  0  0  0  0
  -26.0090  -11.8350   20.5940 N   0  0  0  0  0  0  0  0  0  0  0  0
  -23.9660  -10.6110   21.0260 C   0  0  0  0  0  0  0  0  0  0  0  0
  -24.3360   -9.6590   22.0000 C   0  0  0  0  0  3  0  0  0  0  0  0
  -23.5920   -8.4700   22.1590 C   0  0  0  0  0  3  0  0  0  0  0  0
  -22.4640   -8.2240   21.3410 C   0  0  0  0  0  0  0  0  0  0  0  0
  -22.1110   -9.1650   20.3580 C   0  0  0  0  0  3  0  0  0  0  0  0
  -22.8550  -10.3450   20.1980 C   0  0  0  0  0  3  0  0  0  0  0  0
  -21.6980   -7.0850   21.4050 O   0  0  0  0  0  0  0  0  0  0  0  0
  -21.5580   -6.3780   22.5720 C   0  0  0  0  0  0  0  0  0  0  0  0
  -20.9810   -6.9500   23.7270 C   0  0  0  0  0  3  0  0  0  0  0  0
  -20.7930   -6.1660   24.8830 C   0  0  0  0  0  3  0  0  0  0  0  0
  -21.1710   -4.8110   24.8840 C   0  0  0  0  0  0  0  0  0  0  0  0
  -21.7400   -4.2370   23.7340 C   0  0  0  0  0  3  0  0  0  0  0  0
  -21.9300   -5.0170   22.5800 C   0  0  0  0  0  0  0  0  0  0  0  0
  -22.4590   -4.4550   21.4670 F   0  0  0  0  0  0  0  0  0  0  0  0
  -20.9820   -4.0550   25.9910 F   0  0  0  0  0  0  0  0  0  0  0  0
  -22.8280  -13.7030   21.0690 C   0  0  0  0  0  0  0  0  0  0  0  0
  -22.0650  -13.0290   21.9210 N   0  0  0  0  0  0  0  0  0  0  0  0
  -22.4160  -14.7180   20.5070 O   0  0  0  0  0  0  0  0  0  0  0  0
  -22.4130  -12.2090   22.3970 H   0  0  0  0  0  0  0  0  0  0  0  0
  -21.1200  -13.3360   22.1010 H   0  0  0  0  0  0  0  0  0  0  0  0
  -25.4740  -15.3610   20.3930 N   0  0  0  0  0  0  0  0  0  0  0  0
  -24.7050  -16.0090   20.5240 H   0  0  0  0  0  0  0  0  0  0  0  0
  -26.3550  -15.8170   20.2100 H   0  0  0  0  0  0  0  0  0  0  0  0
  -28.2920  -25.5520   20.1230 O   0  0  0  0  0  0  0  0  0  0  0  0
  -24.6640  -31.7900   23.1360 C   0  0  0  0  0  0  0  0  0  0  0  0
  -27.2930  -26.7680   20.0480 C   0  0  0  0  0  0  0  0  0  0  0  0
  -23.5050  -30.4000   21.4720 C   0  0  0  0  0  3  0  0  0  0  0  0
  -24.9860  -28.7940   20.0280 C   0  0  0  0  0  0  0  0  0  0  0  0
  -26.0830  -30.5750   21.3600 C   0  0  0  0  0  2  0  0  0  0  0  0
  -26.1750  -29.1510   20.6750 C   0  0  0  0  0  0  0  0  0  0  0  0
  -27.3050  -28.1670   20.6530 C   0  0  0  0  0  3  0  0  0  0  0  0
  -26.0660  -26.6380   19.3430 C   0  0  0  0  0  3  0  0  0  0  0  0
  -24.9740  -27.5670   19.3380 C   0  0  0  0  0  3  0  0  0  0  0  0
  -23.7620  -29.7280   20.0890 C   0  0  0  0  0  2  0  0  0  0  0  0
  -24.7740  -30.9560   22.0420 N   0  0  0  0  0  0  0  0  0  0  0  0
  -23.5640  -32.0610   23.6490 O   0  0  0  0  0  0  0  0  0  0  0  0
  -22.8010  -29.3970   22.4260 C   0  0  0  0  0  0  0  0  0  0  0  0
  -21.4710  -29.2230   22.2970 N   0  0  0  0  0  0  0  0  0  0  0  0
  -23.4660  -28.7720   23.2560 O   0  0  0  0  0  0  0  0  0  0  0  0
  -20.9830  -29.7780   21.6090 H   0  0  0  0  0  0  0  0  0  0  0  0
  -18.0980  -27.9740   22.8270 C   0  0  0  0  0  0  0  0  0  0  0  0
  -20.6610  -28.2570   23.0520 C   0  0  0  0  0  3  0  0  0  0  0  0
  -20.7610  -26.8440   22.4320 C   0  0  0  0  0  2  0  0  0  0  0  0
  -19.6450  -26.5450   21.4250 C   0  0  0  0  0  2  0  0  0  0  0  0
  -18.2750  -26.6530   22.0970 C   0  0  0  0  0  2  0  0  0  0  0  0
  -19.2170  -28.7340   23.2610 C   0  0  0  0  0  0  0  0  0  0  0  0
  -18.9940  -29.9670   23.9100 C   0  0  0  0  0  3  0  0  0  0  0  0
  -17.6860  -30.4420   24.1260 C   0  0  0  0  0  3  0  0  0  0  0  0
  -16.5830  -29.6810   23.7040 C   0  0  0  0  0  3  0  0  0  0  0  0
  -16.7890  -28.4480   23.0600 C   0  0  0  0  0  3  0  0  0  0  0  0
  -25.9120  -32.4540   23.7930 C   0  0  0  0  0  3  0  0  0  0  0  0
  -25.5680  -33.8510   24.1300 N   0  0  0  0  0  0  0  0  0  0  0  0
  -25.8900  -34.9260   23.3960 C   0  0  0  0  0  0  0  0  0  0  0  0
  -26.5620  -34.8460   22.3650 O   0  0  0  0  0  0  0  0  0  0  0  0
  -24.9690  -33.9840   24.9300 H   0  0  0  0  0  0  0  0  0  0  0  0
  -24.1440  -36.7170   23.0830 C   0  0  0  0  0  1  0  0  0  0  0  0
  -25.3940  -36.3070   23.8790 C   0  0  0  0  0  3  0  0  0  0  0  0
  -27.5140  -37.2170   24.7230 C   0  0  0  0  0  1  0  0  0  0  0  0
  -26.4150  -37.3730   23.7750 N   0  0  0  0  0  0  0  0  0  0  0  0
  -25.9960  -38.2880   23.9220 H   0  0  0  0  0  0  0  0  0  0  0  0
  -26.4000  -31.7000   25.0930 C   0  0  1  0  0  0  0  0  0  0  0  0
  -25.2830  -31.4630   26.1360 C   0  0  0  0  0  1  0  0  0  0  0  0
  -27.0060  -30.3230   24.7430 C   0  0  0  0  0  1  0  0  0  0  0  0
  -27.5270  -32.5100   25.7760 C   0  0  0  0  0  1  0  0  0  0  0  0
  1  3  1  0
  2  4  2  0
  3 14  1  0
  3  6  2  0
  4  8  1  0
  4  6  1  0
  5  2  1  0
  5  1  2  0
  6 12  1  0
  7  2  1  0
  7  9  1  0
 10 50  1  0
 10  9  1  0
 10  8  1  0
 11  5  1  0
 13  7  2  0
 14 20  1  0
 15 20  1  0
 16 17  1  0
 16 15  1  0
 18 17  1  0
 18 25  1  0
 18 19  1  0
 20 19  1  0
 21 14  2  0
 22 23  2  0
 23 42  1  0
 24 23  1  0
 24 27  1  0
 25 22  1  0
 25 26  1  0
 26 24  2  0
 27 28  1  0
 28 29  2  0
 30 33  1  0
 30 29  1  0
 31 30  2  0
 32 31  1  0
 32 27  2  0
 33 34  1  0
 34 39  2  0
 34 35  1  0
 35 36  2  0
 36 37  1  0
 37 41  1  0
 38 37  2  0
 39 38  1  0
 40 39  1  0
 42 43  1  0
 43 46  1  0
 43 45  1  0
 44 42  2  0
 47 48  1  0
 47 22  1  0
 49 47  1  0
 51 62  2  0
 52 50  1  0
 52 57  1  0
 53 61  1  0
 53 63  1  0
 54 60  1  0
 54 56  1  0
 55 61  1  0
 56 55  1  0
 57 56  2  0
 58 52  2  0
 59 58  1  0
 59 54  2  0
 60 53  1  0
 61 51  1  0
 63 65  2  0
 64 63  1  0
 66 64  1  0
 67 76  2  0
 67 72  1  0
 68 64  1  0
 68 72  1  0
 69 68  1  0
 70 71  1  0
 70 69  1  0
 71 67  1  0
 72 73  2  0
 73 74  1  0
 75 74  2  0
 76 75  1  0
 77 51  1  0
 77 78  1  0
 77 87  1  0
 78 81  1  0
 79 83  1  0
 79 78  1  0
 80 79  2  0
 83 82  1  0
 85 83  1  0
 85 86  1  0
 85 84  1  0
 87 90  1  1
 87 88  1  0
 89 87  1  0
M  ISO  4   3 100  10 101  14 100  50 101
M  END
>  <TORSDO>  (38) 
F 16

>  <SCORE>  (38) 
-16.049

>  <name>  (38) 
37

>  <ligand_id>  (38) 
37

>  <original_smiles>  (38) 
[H]c1c([H])c([H])c2c(c1[H])C([H])([H])C([H])([H])C([H])([H])C2([H])N([H])C(=O)C1([H])N(C(=O)C([H])(N([H])C(=O)C([H])(N([H])C([H])([H])[H])C([H])([H])[H])C(C([H])([H])[H])(C([H])([H])[H])C([H])([H])[H])C([H])([H])c2c([H])c(OC3([H])C([H])([H])C(=O)c4c(C([H])([H])[H])c([H])c(C(=O)N5C([H])([H])C([H])([H])C([H])([H])C([H])(n6nc(-c7c([H])c([H])c(Oc8c([H])c([H])c(F)c([H])c8F)c([H])c7[H])c(C(=O)N([H])[H])c6N([H])[H])C5([H])[H])c(C([H])([H])[H])c4C3([H])[H])c([H])c([H])c2C1([H])[H]

>  <smiles>  (38) 
[H]c1c([H])c([H])c2c(c1[H])C([H])([H])C([H])([H])C([H])([H])C2([H])N([H])C(=O)C1([H])N(C(=O)C([H])(N([H])C(=O)C([H])(N([H])C([H])([H])[H])C([H])([H])[H])C(C([H])([H])[H])(C([H])([H])[H])C([H])([H])[H])C([H])([H])c2c([H])c(OC3([H])C([H])([H])C(=O)c4c(C([H])([H])[H])c([H])c(C(=O)N5C([H])([H])C([H])([H])C([H])([H])C([H])(n6nc(-c7c([H])c([H])c(Oc8c([H])c([H])c(F)c([H])c8F)c([H])c7[H])c(C(=O)N([H])[H])c6N([H])[H])C5([H])[H])c(C([H])([H])[H])c4C3([H])[H])c([H])c([H])c2C1([H])[H]

$$$$
38:0:0
     RDKit          3D

 88 97  0  0  1  0  0  0  0  0999 V2000
  -30.3930  -21.8610   21.1620 C   0  0  0  0  0  3  0  0  0  0  0  0
  -29.7480  -23.1960   21.0060 C   0  0  0  0  0  3  0  0  0  0  0  0
  -28.0060  -22.0970   20.0070 C   0  0  0  0  0  3  0  0  0  0  0  0
  -29.9070  -20.5440   20.7610 C   0  0  0  0  0  0  0  0  0  0  0  0
  -28.6630  -20.5930   20.1740 C   0  0  0  0  0  0  0  0  0  0  0  0
  -28.4720  -23.6060   20.4150 C   0  0  0  0  0  0  0  0  0  0  0  0
  -28.5630  -18.8510   19.9160 C   0  0  0  0  0  0  0  0  0  0  0  0
  -30.5080  -19.0300   20.8350 C   0  0  0  0  0  0  0  0  0  0  0  0
  -29.6550  -17.7960   20.2990 C   0  0  0  0  0  3  0  0  0  0  0  0
  -27.4830  -18.6150   19.3280 O   0  0  0  0  0  0  0  0  0  0  0  0
  -31.6310  -18.8450   21.3080 O   0  0  0  0  0  0  0  0  0  0  0  0
  -30.1920  -16.0570   20.1940 C   0  0  0  0  0  0  0  0  0  0  0  0
  -30.3190  -13.4320   19.3900 C   0  0  0  0  0  2  0  0  0  0  0  0
  -29.4740  -12.8700   18.2020 C   0  0  0  0  0  2  0  0  0  0  0  0
  -28.0830  -12.4350   18.6740 C   0  0  0  0  0  2  0  0  0  0  0  0
  -27.5180  -13.4600   19.6790 C   0  0  0  0  0  3  0  0  0  0  0  0
  -28.5180  -13.9400   20.7650 C   0  0  0  0  0  2  0  0  0  0  0  0
  -29.6430  -14.6570   20.0880 N   0  0  0  0  0  0  0  0  0  0  0  0
  -31.4180  -15.8130   20.1010 O   0  0  0  0  0  0  0  0  0  0  0  0
  -25.1590  -13.9280   20.4600 C   0  0  0  0  0  0  0  0  0  0  0  0
  -24.1140  -13.1290   20.8220 C   0  0  0  0  0  0  0  0  0  0  0  0
  -24.6090  -11.7880   20.7970 C   0  0  0  0  0  0  0  0  0  0  0  0
  -26.2200  -13.0800   20.2180 N   0  0  0  0  0  0  0  0  0  0  0  0
  -25.9050  -11.7820   20.4860 N   0  0  0  0  0  0  0  0  0  0  0  0
  -23.8980  -10.5160   20.9890 C   0  0  0  0  0  0  0  0  0  0  0  0
  -24.3280   -9.5620   21.9380 C   0  0  0  0  0  3  0  0  0  0  0  0
  -23.6110   -8.3590   22.1220 C   0  0  0  0  0  3  0  0  0  0  0  0
  -22.4470   -8.1010   21.3580 C   0  0  0  0  0  0  0  0  0  0  0  0
  -22.0350   -9.0440   20.3990 C   0  0  0  0  0  3  0  0  0  0  0  0
  -22.7550  -10.2370   20.2140 C   0  0  0  0  0  3  0  0  0  0  0  0
  -21.7020   -6.9500   21.4510 O   0  0  0  0  0  0  0  0  0  0  0  0
  -21.6430   -6.2210   22.6120 C   0  0  0  0  0  0  0  0  0  0  0  0
  -21.1800   -6.7830   23.8220 C   0  0  0  0  0  3  0  0  0  0  0  0
  -21.0690   -5.9800   24.9740 C   0  0  0  0  0  3  0  0  0  0  0  0
  -21.4100   -4.6160   24.9180 C   0  0  0  0  0  0  0  0  0  0  0  0
  -21.8660   -4.0530   23.7130 C   0  0  0  0  0  3  0  0  0  0  0  0
  -21.9790   -4.8530   22.5630 C   0  0  0  0  0  0  0  0  0  0  0  0
  -22.3980   -4.3010   21.3980 F   0  0  0  0  0  0  0  0  0  0  0  0
  -21.2970   -3.8430   26.0230 F   0  0  0  0  0  0  0  0  0  0  0  0
  -22.7080  -13.5840   21.0780 C   0  0  0  0  0  0  0  0  0  0  0  0
  -21.9860  -12.8870   21.9460 N   0  0  0  0  0  0  0  0  0  0  0  0
  -22.2610  -14.5980   20.5410 O   0  0  0  0  0  0  0  0  0  0  0  0
  -22.3640  -12.0680   22.4010 H   0  0  0  0  0  0  0  0  0  0  0  0
  -21.0440  -13.1760   22.1610 H   0  0  0  0  0  0  0  0  0  0  0  0
  -25.2910  -15.3010   20.2790 N   0  0  0  0  0  0  0  0  0  0  0  0
  -24.5110  -15.9370   20.3960 H   0  0  0  0  0  0  0  0  0  0  0  0
  -26.1340  -15.7720   19.9680 H   0  0  0  0  0  0  0  0  0  0  0  0
  -28.2070  -25.2900   20.2960 O   0  0  0  0  0  0  0  0  0  0  0  0
  -24.7110  -31.8820   23.2170 C   0  0  0  0  0  0  0  0  0  0  0  0
  -27.2050  -26.5600   20.3330 C   0  0  0  0  0  0  0  0  0  0  0  0
  -23.5290  -30.4640   21.5970 C   0  0  0  0  0  3  0  0  0  0  0  0
  -24.9720  -28.7440   20.2310 C   0  0  0  0  0  0  0  0  0  0  0  0
  -26.1170  -30.5280   21.5100 C   0  0  0  0  0  2  0  0  0  0  0  0
  -26.1700  -29.0600   20.8800 C   0  0  0  0  0  0  0  0  0  0  0  0
  -27.2590  -28.0030   20.8910 C   0  0  0  0  0  3  0  0  0  0  0  0
  -25.9730  -26.5150   19.6130 C   0  0  0  0  0  3  0  0  0  0  0  0
  -24.9240  -27.5010   19.5730 C   0  0  0  0  0  3  0  0  0  0  0  0
  -23.7830  -29.7320   20.2450 C   0  0  0  0  0  2  0  0  0  0  0  0
  -24.8120  -30.9980   22.1590 N   0  0  0  0  0  0  0  0  0  0  0  0
  -23.6120  -32.2040   23.7080 O   0  0  0  0  0  0  0  0  0  0  0  0
  -22.7870  -29.5210   22.5850 C   0  0  0  0  0  0  0  0  0  0  0  0
  -21.4520  -29.3800   22.4580 N   0  0  0  0  0  0  0  0  0  0  0  0
  -23.4290  -28.9090   23.4420 O   0  0  0  0  0  0  0  0  0  0  0  0
  -20.9810  -29.9220   21.7470 H   0  0  0  0  0  0  0  0  0  0  0  0
  -18.0560  -28.1750   22.9740 C   0  0  0  0  0  0  0  0  0  0  0  0
  -20.6160  -28.4590   23.2420 C   0  0  0  0  0  3  0  0  0  0  0  0
  -20.7220  -27.0150   22.6980 C   0  0  0  0  0  2  0  0  0  0  0  0
  -19.6290  -26.6710   21.6820 C   0  0  0  0  0  2  0  0  0  0  0  0
  -18.2430  -26.8200   22.3150 C   0  0  0  0  0  2  0  0  0  0  0  0
  -19.1700  -28.9530   23.3940 C   0  0  0  0  0  0  0  0  0  0  0  0
  -18.9380  -30.2170   23.9780 C   0  0  0  0  0  3  0  0  0  0  0  0
  -17.6280  -30.7070   24.1400 C   0  0  0  0  0  3  0  0  0  0  0  0
  -16.5310  -29.9290   23.7300 C   0  0  0  0  0  3  0  0  0  0  0  0
  -16.7460  -28.6650   23.1540 C   0  0  0  0  0  3  0  0  0  0  0  0
  -25.9650  -32.5480   23.8600 C   0  0  0  0  0  3  0  0  0  0  0  0
  -25.6330  -33.9520   24.1930 N   0  0  0  0  0  0  0  0  0  0  0  0
  -25.9420  -35.0220   23.4470 C   0  0  0  0  0  0  0  0  0  0  0  0
  -26.5880  -34.9330   22.4010 O   0  0  0  0  0  0  0  0  0  0  0  0
  -25.0510  -34.0930   25.0050 H   0  0  0  0  0  0  0  0  0  0  0  0
  -24.1830  -36.8120   23.1880 C   0  0  0  0  0  1  0  0  0  0  0  0
  -25.4660  -36.4090   23.9330 C   0  0  0  0  0  3  0  0  0  0  0  0
  -27.6250  -37.3280   24.6670 C   0  0  0  0  0  1  0  0  0  0  0  0
  -26.4830  -37.4740   23.7690 N   0  0  0  0  0  0  0  0  0  0  0  0
  -26.0730  -38.3920   23.9220 H   0  0  0  0  0  0  0  0  0  0  0  0
  -26.4570  -31.8030   25.1630 C   0  0  1  0  0  0  0  0  0  0  0  0
  -25.3450  -31.5850   26.2160 C   0  0  0  0  0  1  0  0  0  0  0  0
  -27.0470  -30.4170   24.8220 C   0  0  0  0  0  1  0  0  0  0  0  0
  -27.5980  -32.6090   25.8290 C   0  0  0  0  0  1  0  0  0  0  0  0
  2  1  1  0
  3  5  2  0
  3  6  1  0
  4  8  1  0
  4  1  2  0
  5  4  1  0
  6  2  2  0
  7  5  1  0
  7  9  1  0
  8 11  2  0
  9 12  1  0
  9  8  1  0
 10  7  2  0
 13 18  1  0
 14 15  1  0
 14 13  1  0
 16 15  1  0
 16 23  1  0
 16 17  1  0
 18 12  1  0
 18 17  1  0
 19 12  2  0
 20 21  2  0
 21 40  1  0
 22 21  1  0
 22 25  1  0
 23 20  1  0
 23 24  1  0
 24 22  2  0
 25 26  1  0
 26 27  2  0
 28 31  1  0
 28 27  1  0
 29 28  2  0
 30 29  1  0
 30 25  2  0
 31 32  1  0
 32 33  1  0
 33 34  2  0
 35 34  1  0
 35 39  1  0
 36 35  2  0
 37 32  2  0
 37 36  1  0
 38 37  1  0
 40 41  1  0
 41 44  1  0
 41 43  1  0
 42 40  2  0
 45 46  1  0
 45 20  1  0
 47 45  1  0
 48 50  1  0
 48  6  1  0
 49 60  2  0
 50 55  1  0
 51 59  1  0
 51 61  1  0
 52 58  1  0
 52 54  1  0
 53 59  1  0
 54 55  2  0
 54 53  1  0
 56 50  2  0
 57 56  1  0
 57 52  2  0
 58 51  1  0
 59 49  1  0
 61 63  2  0
 62 61  1  0
 64 62  1  0
 65 74  2  0
 65 70  1  0
 66 62  1  0
 66 70  1  0
 67 66  1  0
 68 69  1  0
 68 67  1  0
 69 65  1  0
 70 71  2  0
 71 72  1  0
 73 72  2  0
 74 73  1  0
 75 49  1  0
 75 76  1  0
 75 85  1  0
 76 79  1  0
 77 81  1  0
 77 76  1  0
 78 77  2  0
 81 80  1  0
 83 84  1  0
 83 81  1  0
 83 82  1  0
 85 88  1  1
 85 86  1  0
 87 85  1  0
M  ISO  4   6 101   9 100  12 100  48 101
M  END
>  <TORSDO>  (39) 
F 16

>  <SCORE>  (39) 
-16.902

>  <name>  (39) 
38

>  <ligand_id>  (39) 
38

>  <original_smiles>  (39) 
[H]c1c([H])c([H])c2c(c1[H])C([H])([H])C([H])([H])C([H])([H])C2([H])N([H])C(=O)C1([H])N(C(=O)C([H])(N([H])C(=O)C([H])(N([H])C([H])([H])[H])C([H])([H])[H])C(C([H])([H])[H])(C([H])([H])[H])C([H])([H])[H])C([H])([H])c2c([H])c(Oc3c([H])c([H])c4c(c3[H])C([O-])=C(C(=O)N3C([H])([H])C([H])([H])C([H])([H])C([H])(n5nc(-c6c([H])c([H])c(Oc7c([H])c([H])c(F)c([H])c7F)c([H])c6[H])c(C(=O)N([H])[H])c5N([H])[H])C3([H])[H])C4=O)c([H])c([H])c2C1([H])[H]

>  <smiles>  (39) 
[H]c1c([H])c([H])c2c(c1[H])C([H])([H])C([H])([H])C([H])([H])C2([H])N([H])C(=O)C1([H])N(C(=O)C([H])(N([H])C(=O)C([H])(N([H])C([H])([H])[H])C([H])([H])[H])C(C([H])([H])[H])(C([H])([H])[H])C([H])([H])[H])C([H])([H])c2c([H])c(Oc3c([H])c([H])c4c(c3[H])C([O-])=C(C(=O)N3C([H])([H])C([H])([H])C([H])([H])C([H])(n5nc(-c6c([H])c([H])c(Oc7c([H])c([H])c(F)c([H])c7F)c([H])c6[H])c(C(=O)N([H])[H])c5N([H])[H])C3([H])[H])C4=O)c([H])c([H])c2C1([H])[H]

$$$$
39:0:0
     RDKit          3D

 95103  0  0  1  0  0  0  0  0999 V2000
  -28.8070  -22.3360   19.9790 C   0  0  0  0  0  3  0  0  0  0  0  0
  -29.1140  -23.7220   21.9540 C   0  0  0  0  0  3  0  0  0  0  0  0
  -29.8250  -21.3680   21.9530 C   0  0  0  0  0  3  0  0  0  0  0  0
  -28.6830  -23.6240   20.6190 C   0  0  0  0  0  0  0  0  0  0  0  0
  -29.4080  -21.1830   20.6160 C   0  0  0  0  0  0  0  0  0  0  0  0
  -29.6770  -22.6130   22.6210 C   0  0  0  0  0  0  0  0  0  0  0  0
  -31.0760  -21.8680   24.5000 C   0  0  0  0  0  1  0  0  0  0  0  0
  -30.0870  -22.7900   23.9500 N   0  0  0  0  0  0  0  0  0  0  0  0
  -30.1400  -23.7510   24.2830 H   0  0  0  0  0  0  0  0  0  0  0  0
  -28.0070  -24.8570   19.9190 C   0  0  0  0  0  2  0  0  0  0  0  0
  -28.2330  -26.2540   20.3910 O   0  0  0  0  0  0  0  0  0  0  0  0
  -24.5920  -31.7800   23.2990 C   0  0  0  0  0  0  0  0  0  0  0  0
  -27.1540  -27.1560   20.2860 C   0  0  0  0  0  0  0  0  0  0  0  0
  -23.3870  -30.4030   21.6450 C   0  0  0  0  0  3  0  0  0  0  0  0
  -24.8270  -28.8280   20.2380 C   0  0  0  0  0  0  0  0  0  0  0  0
  -25.9350  -30.6670   21.5010 C   0  0  0  0  0  2  0  0  0  0  0  0
  -25.9970  -29.2860   20.8570 C   0  0  0  0  0  0  0  0  0  0  0  0
  -27.1640  -28.4610   20.8750 C   0  0  0  0  0  3  0  0  0  0  0  0
  -25.9650  -26.7720   19.6180 C   0  0  0  0  0  3  0  0  0  0  0  0
  -24.8140  -27.5780   19.6080 C   0  0  0  0  0  3  0  0  0  0  0  0
  -23.6080  -29.7280   20.2680 C   0  0  0  0  0  2  0  0  0  0  0  0
  -24.6570  -30.9670   22.2040 N   0  0  0  0  0  0  0  0  0  0  0  0
  -23.5060  -32.0770   23.8170 O   0  0  0  0  0  0  0  0  0  0  0  0
  -22.6920  -29.3980   22.5950 C   0  0  0  0  0  0  0  0  0  0  0  0
  -21.3620  -29.2520   22.4540 N   0  0  0  0  0  0  0  0  0  0  0  0
  -23.3470  -28.7540   23.4180 O   0  0  0  0  0  0  0  0  0  0  0  0
  -20.8930  -29.8210   21.7640 H   0  0  0  0  0  0  0  0  0  0  0  0
  -17.9470  -28.1650   22.9560 C   0  0  0  0  0  0  0  0  0  0  0  0
  -20.5140  -28.3330   23.2170 C   0  0  0  0  0  3  0  0  0  0  0  0
  -20.5640  -26.9060   22.6240 C   0  0  0  0  0  2  0  0  0  0  0  0
  -19.4470  -26.6340   21.6110 C   0  0  0  0  0  2  0  0  0  0  0  0
  -18.0730  -26.8190   22.2620 C   0  0  0  0  0  2  0  0  0  0  0  0
  -19.0930  -28.8830   23.3900 C   0  0  0  0  0  0  0  0  0  0  0  0
  -18.9210  -30.1440   23.9990 C   0  0  0  0  0  3  0  0  0  0  0  0
  -17.6340  -30.6880   24.1770 C   0  0  0  0  0  3  0  0  0  0  0  0
  -16.5030  -29.9680   23.7580 C   0  0  0  0  0  3  0  0  0  0  0  0
  -16.6600  -28.7080   23.1530 C   0  0  0  0  0  3  0  0  0  0  0  0
  -25.8760  -32.3910   23.9370 C   0  0  0  0  0  3  0  0  0  0  0  0
  -25.5970  -33.8040   24.2350 N   0  0  0  0  0  0  0  0  0  0  0  0
  -25.9520  -34.8330   23.4540 C   0  0  0  0  0  0  0  0  0  0  0  0
  -26.6210  -34.6900   22.4260 O   0  0  0  0  0  0  0  0  0  0  0  0
  -25.0100  -33.9890   25.0360 H   0  0  0  0  0  0  0  0  0  0  0  0
  -24.2570  -36.6470   23.0630 C   0  0  0  0  0  1  0  0  0  0  0  0
  -25.4960  -36.2420   23.8780 C   0  0  0  0  0  3  0  0  0  0  0  0
  -27.6520  -37.1050   24.6730 C   0  0  0  0  0  1  0  0  0  0  0  0
  -26.5480  -37.2710   23.7300 N   0  0  0  0  0  0  0  0  0  0  0  0
  -26.1630  -38.2040   23.8530 H   0  0  0  0  0  0  0  0  0  0  0  0
  -26.3420  -31.6300   25.2390 C   0  0  1  0  0  0  0  0  0  0  0  0
  -25.2150  -31.4330   26.2800 C   0  0  0  0  0  1  0  0  0  0  0  0
  -26.9050  -30.2350   24.8850 C   0  0  0  0  0  1  0  0  0  0  0  0
  -27.4930  -32.4090   25.9160 C   0  0  0  0  0  1  0  0  0  0  0  0
  -29.7980  -19.8180   19.9000 C   0  0  0  0  0  3  0  0  0  0  0  0
  -29.3270  -18.4900   20.4940 N   0  0  0  0  0  4  0  0  0  0  0  0
  -29.3230  -18.5990   21.4940 H   0  0  0  0  0  0  0  0  0  0  0  0
  -28.3670  -18.3590   20.2180 H   0  0  0  0  0  0  0  0  0  0  0  0
  -30.1450  -17.2280   20.1720 C   0  0  0  0  0  3  0  0  0  0  0  0
  -29.6790  -15.8010   20.7550 C   0  0  0  0  0  3  0  0  0  0  0  0
  -30.4280  -14.4900   20.2350 C   0  0  0  0  0  0  0  0  0  0  0  0
  -30.1840  -12.2580   19.1430 C   0  0  0  0  0  2  0  0  0  0  0  0
  -29.1860  -12.3950   17.9720 C   0  0  0  0  0  2  0  0  0  0  0  0
  -27.7400  -12.1920   18.4670 C   0  0  0  0  0  2  0  0  0  0  0  0
  -27.4240  -13.0260   19.7350 C   0  0  0  0  0  3  0  0  0  0  0  0
  -28.5380  -12.9040   20.7970 C   0  0  0  0  0  2  0  0  0  0  0  0
  -29.8120  -13.2610   20.1620 N   0  0  0  0  0  0  0  0  0  0  0  0
  -31.5640  -14.6270   19.7740 O   0  0  0  0  0  0  0  0  0  0  0  0
  -25.0800  -13.5710   20.6280 C   0  0  0  0  0  0  0  0  0  0  0  0
  -24.0380  -12.7760   21.0200 C   0  0  0  0  0  0  0  0  0  0  0  0
  -24.5010  -11.4290   20.8950 C   0  0  0  0  0  0  0  0  0  0  0  0
  -26.1100  -12.7100   20.2860 N   0  0  0  0  0  0  0  0  0  0  0  0
  -25.7720  -11.4140   20.5060 N   0  0  0  0  0  0  0  0  0  0  0  0
  -23.7900  -10.1560   21.0630 C   0  0  0  0  0  0  0  0  0  0  0  0
  -24.2650   -9.1550   21.9370 C   0  0  0  0  0  3  0  0  0  0  0  0
  -23.5510   -7.9470   22.0950 C   0  0  0  0  0  3  0  0  0  0  0  0
  -22.3470   -7.7340   21.3830 C   0  0  0  0  0  0  0  0  0  0  0  0
  -21.8930   -8.7250   20.4960 C   0  0  0  0  0  3  0  0  0  0  0  0
  -22.6060   -9.9250   20.3350 C   0  0  0  0  0  3  0  0  0  0  0  0
  -21.6030   -6.5810   21.4530 O   0  0  0  0  0  0  0  0  0  0  0  0
  -21.6010   -5.7950   22.5780 C   0  0  0  0  0  0  0  0  0  0  0  0
  -21.2020   -6.2950   23.8360 C   0  0  0  0  0  3  0  0  0  0  0  0
  -21.1470   -5.4350   24.9510 C   0  0  0  0  0  3  0  0  0  0  0  0
  -21.4800   -4.0750   24.8080 C   0  0  0  0  0  0  0  0  0  0  0  0
  -21.8710   -3.5740   23.5540 C   0  0  0  0  0  3  0  0  0  0  0  0
  -21.9280   -4.4310   22.4420 C   0  0  0  0  0  0  0  0  0  0  0  0
  -22.2850   -3.9380   21.2310 F   0  0  0  0  0  0  0  0  0  0  0  0
  -21.4200   -3.2470   25.8770 F   0  0  0  0  0  0  0  0  0  0  0  0
  -22.6590  -13.2330   21.3950 C   0  0  0  0  0  0  0  0  0  0  0  0
  -21.9830  -12.4900   22.2620 N   0  0  0  0  0  0  0  0  0  0  0  0
  -22.1910  -14.2810   20.9520 O   0  0  0  0  0  0  0  0  0  0  0  0
  -22.3750  -11.6380   22.6400 H   0  0  0  0  0  0  0  0  0  0  0  0
  -21.0590  -12.7750   22.5540 H   0  0  0  0  0  0  0  0  0  0  0  0
  -25.2310  -14.9490   20.5090 N   0  0  0  0  0  0  0  0  0  0  0  0
  -24.4660  -15.5940   20.6780 H   0  0  0  0  0  0  0  0  0  0  0  0
  -26.0530  -15.4070   20.1370 H   0  0  0  0  0  0  0  0  0  0  0  0
  -30.5250  -20.8360   17.6230 C   0  0  0  0  0  1  0  0  0  0  0  0
  -29.5780  -19.8690   18.3620 C   0  0  0  0  0  2  0  0  0  0  0  0
  1  5  2  0
  1  4  1  0
  2  6  1  0
  3  6  2  0
  4  2  2  0
  5  3  1  0
  6  8  1  0
  8  9  1  0
  8  7  1  0
 10 11  1  0
 10  4  1  0
 12 23  2  0
 13 11  1  0
 13 18  1  0
 14 22  1  0
 14 24  1  0
 15 21  1  0
 15 17  1  0
 16 22  1  0
 17 18  2  0
 17 16  1  0
 19 13  2  0
 20 19  1  0
 20 15  2  0
 21 14  1  0
 22 12  1  0
 24 26  2  0
 25 24  1  0
 27 25  1  0
 28 37  2  0
 28 33  1  0
 29 25  1  0
 29 33  1  0
 30 29  1  0
 31 32  1  0
 31 30  1  0
 32 28  1  0
 33 34  2  0
 34 35  1  0
 36 35  2  0
 37 36  1  0
 38 12  1  0
 38 39  1  0
 38 48  1  0
 39 42  1  0
 40 44  1  0
 40 39  1  0
 41 40  2  0
 44 43  1  0
 46 47  1  0
 46 44  1  0
 46 45  1  0
 48 51  1  1
 48 49  1  0
 50 48  1  0
 52 95  1  0
 52 53  1  0
 52  5  1  0
 53 54  1  0
 55 53  1  0
 56 53  1  0
 56 57  2  0
 58 57  1  0
 59 64  1  0
 60 61  1  0
 60 59  1  0
 62 61  1  0
 62 69  1  0
 62 63  1  0
 64 58  1  0
 64 63  1  0
 65 58  2  0
 66 67  2  0
 67 86  1  0
 68 67  1  0
 68 71  1  0
 69 70  1  0
 69 66  1  0
 70 68  2  0
 71 72  1  0
 72 73  2  0
 74 77  1  0
 74 73  1  0
 75 74  2  0
 76 75  1  0
 76 71  2  0
 77 78  1  0
 78 79  1  0
 79 80  2  0
 81 80  1  0
 81 85  1  0
 82 81  2  0
 83 78  2  0
 83 82  1  0
 84 83  1  0
 86 87  1  0
 87 90  1  0
 87 89  1  0
 88 86  2  0
 91 66  1  0
 91 92  1  0
 93 91  1  0
 94 95  1  0
M  ISO  4  10 101  11 101  57 100  58 100
M  END
>  <TORSDO>  (40) 
F 23

>  <SCORE>  (40) 
-12.952

>  <name>  (40) 
39

>  <ligand_id>  (40) 
39

>  <original_smiles>  (40) 
[H]c1c([H])c([H])c2c(c1[H])C([H])([H])C([H])([H])C([H])([H])C2([H])N([H])C(=O)C1([H])N(C(=O)C([H])(N([H])C(=O)C([H])(N([H])C([H])([H])[H])C([H])([H])[H])C(C([H])([H])[H])(C([H])([H])[H])C([H])([H])[H])C([H])([H])c2c([H])c(OC([H])([H])c3c([H])c(N([H])C([H])([H])[H])c([H])c(C([H])(C([H])([H])C([H])([H])[H])[N+]([H])([H])C([H])([H])C([H])([H])C(=O)N4C([H])([H])C([H])([H])C([H])([H])C([H])(n5nc(-c6c([H])c([H])c(Oc7c([H])c([H])c(F)c([H])c7F)c([H])c6[H])c(C(=O)N([H])[H])c5N([H])[H])C4([H])[H])c3[H])c([H])c([H])c2C1([H])[H]

>  <smiles>  (40) 
[H]c1c([H])c([H])c2c(c1[H])C([H])([H])C([H])([H])C([H])([H])C2([H])N([H])C(=O)C1([H])N(C(=O)C([H])(N([H])C(=O)C([H])(N([H])C([H])([H])[H])C([H])([H])[H])C(C([H])([H])[H])(C([H])([H])[H])C([H])([H])[H])C([H])([H])c2c([H])c(OC([H])([H])c3c([H])c(N([H])C([H])([H])[H])c([H])c(C([H])(C([H])([H])C([H])([H])[H])[N+]([H])([H])C([H])([H])C([H])([H])C(=O)N4C([H])([H])C([H])([H])C([H])([H])C([H])(n5nc(-c6c([H])c([H])c(Oc7c([H])c([H])c(F)c([H])c7F)c([H])c6[H])c(C(=O)N([H])[H])c5N([H])[H])C4([H])[H])c3[H])c([H])c([H])c2C1([H])[H]

$$$$
40:0:0
     RDKit          3D

 93101  0  0  1  0  0  0  0  0999 V2000
  -28.9530  -23.6410   20.1230 C   0  0  0  0  0  3  0  0  0  0  0  0
  -29.0040  -25.2050   21.9590 C   0  0  0  0  0  3  0  0  0  0  0  0
  -29.3430  -22.4420   20.9420 C   0  0  0  0  0  0  0  0  0  0  0  0
  -29.3930  -24.1370   22.7990 C   0  0  0  0  0  0  0  0  0  0  0  0
  -29.5090  -22.7770   22.3380 C   0  0  0  0  0  0  0  0  0  0  0  0
  -28.7170  -25.0430   20.5960 C   0  0  0  0  0  0  0  0  0  0  0  0
  -29.7270  -24.5420   24.2400 C   0  0  0  0  0  1  0  0  0  0  0  0
  -29.6010  -20.9410   20.3350 C   0  0  0  0  0  0  0  0  0  0  0  0
  -29.8990  -19.6940   20.9920 N   0  0  0  0  0  0  0  0  0  0  0  0
  -29.5420  -20.8810   19.1050 O   0  0  0  0  0  0  0  0  0  0  0  0
  -30.0220  -19.8030   21.9930 H   0  0  0  0  0  0  0  0  0  0  0  0
  -30.3210  -18.2330   20.4370 C   0  0  0  0  0  3  0  0  0  0  0  0
  -30.0140  -16.6700   21.1000 C   0  0  0  0  0  3  0  0  0  0  0  0
  -30.7930  -15.1940   20.7800 C   0  0  0  0  0  0  0  0  0  0  0  0
  -30.7720  -12.7730   19.9280 C   0  0  0  0  0  2  0  0  0  0  0  0
  -29.9410  -12.6540   18.6240 C   0  0  0  0  0  2  0  0  0  0  0  0
  -28.4540  -12.4290   18.9500 C   0  0  0  0  0  2  0  0  0  0  0  0
  -27.9420  -13.4170   20.0300 C   0  0  0  0  0  3  0  0  0  0  0  0
  -28.8990  -13.5130   21.2370 C   0  0  0  0  0  2  0  0  0  0  0  0
  -30.2210  -13.9110   20.7330 N   0  0  0  0  0  0  0  0  0  0  0  0
  -31.9980  -15.2270   20.4910 O   0  0  0  0  0  0  0  0  0  0  0  0
  -25.5130  -14.0100   20.5750 C   0  0  0  0  0  0  0  0  0  0  0  0
  -24.4180  -13.2470   20.8890 C   0  0  0  0  0  0  0  0  0  0  0  0
  -24.8800  -11.8970   20.9240 C   0  0  0  0  0  0  0  0  0  0  0  0
  -26.5690  -13.1270   20.4320 N   0  0  0  0  0  0  0  0  0  0  0  0
  -26.1920  -11.8490   20.7070 N   0  0  0  0  0  0  0  0  0  0  0  0
  -24.1340  -10.6400   21.0970 C   0  0  0  0  0  0  0  0  0  0  0  0
  -24.5090   -9.6740   22.0570 C   0  0  0  0  0  3  0  0  0  0  0  0
  -23.7580   -8.4900   22.2100 C   0  0  0  0  0  3  0  0  0  0  0  0
  -22.6180   -8.2620   21.4050 C   0  0  0  0  0  0  0  0  0  0  0  0
  -22.2660   -9.2130   20.4280 C   0  0  0  0  0  3  0  0  0  0  0  0
  -23.0200  -10.3900   20.2740 C   0  0  0  0  0  3  0  0  0  0  0  0
  -21.8430   -7.1300   21.4680 O   0  0  0  0  0  0  0  0  0  0  0  0
  -21.7460   -6.3810   22.6130 C   0  0  0  0  0  0  0  0  0  0  0  0
  -21.2990   -6.9400   23.8300 C   0  0  0  0  0  3  0  0  0  0  0  0
  -21.1520   -6.1220   24.9690 C   0  0  0  0  0  3  0  0  0  0  0  0
  -21.4480   -4.7480   24.8910 C   0  0  0  0  0  0  0  0  0  0  0  0
  -21.8950   -4.1890   23.6810 C   0  0  0  0  0  3  0  0  0  0  0  0
  -22.0420   -5.0040   22.5430 C   0  0  0  0  0  0  0  0  0  0  0  0
  -22.4510   -4.4580   21.3720 F   0  0  0  0  0  0  0  0  0  0  0  0
  -21.3020   -3.9600   25.9810 F   0  0  0  0  0  0  0  0  0  0  0  0
  -23.0060  -13.7380   21.0490 C   0  0  0  0  0  0  0  0  0  0  0  0
  -22.2180  -13.0620   21.8820 N   0  0  0  0  0  0  0  0  0  0  0  0
  -22.6070  -14.7480   20.4720 O   0  0  0  0  0  0  0  0  0  0  0  0
  -22.5530  -12.2450   22.3710 H   0  0  0  0  0  0  0  0  0  0  0  0
  -21.2680  -13.3620   22.0420 H   0  0  0  0  0  0  0  0  0  0  0  0
  -25.6890  -15.3760   20.3730 N   0  0  0  0  0  0  0  0  0  0  0  0
  -24.9120  -16.0300   20.4110 H   0  0  0  0  0  0  0  0  0  0  0  0
  -26.5570  -15.8120   20.0850 H   0  0  0  0  0  0  0  0  0  0  0  0
  -28.4510  -26.2890   19.8570 O   0  0  0  0  0  0  0  0  0  0  0  0
  -24.6070  -31.7350   23.0910 C   0  0  0  0  0  0  0  0  0  0  0  0
  -27.3130  -27.1760   19.9610 C   0  0  0  0  0  0  0  0  0  0  0  0
  -23.4180  -30.3180   21.4570 C   0  0  0  0  0  3  0  0  0  0  0  0
  -24.8960  -28.8160   19.9770 C   0  0  0  0  0  0  0  0  0  0  0  0
  -25.9460  -30.7030   21.2210 C   0  0  0  0  0  2  0  0  0  0  0  0
  -26.0680  -29.3130   20.5650 C   0  0  0  0  0  0  0  0  0  0  0  0
  -27.2720  -28.5120   20.5330 C   0  0  0  0  0  3  0  0  0  0  0  0
  -26.1050  -26.7750   19.3400 C   0  0  0  0  0  3  0  0  0  0  0  0
  -24.9250  -27.5620   19.3440 C   0  0  0  0  0  3  0  0  0  0  0  0
  -23.6340  -29.6680   20.0630 C   0  0  0  0  0  2  0  0  0  0  0  0
  -24.6770  -30.9370   21.9820 N   0  0  0  0  0  0  0  0  0  0  0  0
  -23.5260  -31.9760   23.6480 O   0  0  0  0  0  0  0  0  0  0  0  0
  -22.7980  -29.2760   22.4210 C   0  0  0  0  0  0  0  0  0  0  0  0
  -21.4780  -29.0430   22.3020 N   0  0  0  0  0  0  0  0  0  0  0  0
  -23.5030  -28.6780   23.2380 O   0  0  0  0  0  0  0  0  0  0  0  0
  -20.9590  -29.5790   21.6190 H   0  0  0  0  0  0  0  0  0  0  0  0
  -18.1750  -27.6410   22.7850 C   0  0  0  0  0  0  0  0  0  0  0  0
  -20.7080  -28.0670   23.0780 C   0  0  0  0  0  3  0  0  0  0  0  0
  -20.9090  -26.6400   22.5160 C   0  0  0  0  0  2  0  0  0  0  0  0
  -19.8400  -26.2410   21.4920 C   0  0  0  0  0  2  0  0  0  0  0  0
  -18.4460  -26.3000   22.1230 C   0  0  0  0  0  2  0  0  0  0  0  0
  -19.2380  -28.4770   23.2190 C   0  0  0  0  0  0  0  0  0  0  0  0
  -18.9310  -29.7240   23.8010 C   0  0  0  0  0  3  0  0  0  0  0  0
  -17.5970  -30.1400   23.9550 C   0  0  0  0  0  3  0  0  0  0  0  0
  -16.5480  -29.3030   23.5360 C   0  0  0  0  0  3  0  0  0  0  0  0
  -16.8380  -28.0560   22.9540 C   0  0  0  0  0  3  0  0  0  0  0  0
  -25.8810  -32.4010   23.6960 C   0  0  0  0  0  3  0  0  0  0  0  0
  -25.5300  -33.7820   24.0620 N   0  0  0  0  0  0  0  0  0  0  0  0
  -25.8240  -34.8620   23.3310 C   0  0  0  0  0  0  0  0  0  0  0  0
  -26.4920  -34.8030   22.2930 O   0  0  0  0  0  0  0  0  0  0  0  0
  -24.9410  -33.9040   24.8720 H   0  0  0  0  0  0  0  0  0  0  0  0
  -24.0460  -36.6200   23.0290 C   0  0  0  0  0  1  0  0  0  0  0  0
  -25.2980  -36.2250   23.8280 C   0  0  0  0  0  3  0  0  0  0  0  0
  -27.4100  -37.1450   24.6800 C   0  0  0  0  0  1  0  0  0  0  0  0
  -26.3000  -37.3120   23.7450 N   0  0  0  0  0  0  0  0  0  0  0  0
  -25.8700  -38.2160   23.9220 H   0  0  0  0  0  0  0  0  0  0  0  0
  -26.4530  -31.6240   24.9470 C   0  0  1  0  0  0  0  0  0  0  0  0
  -25.3960  -31.3410   26.0390 C   0  0  0  0  0  1  0  0  0  0  0  0
  -27.0690  -30.2720   24.5120 C   0  0  0  0  0  1  0  0  0  0  0  0
  -27.5960  -32.4380   25.6000 C   0  0  0  0  0  1  0  0  0  0  0  0
  -29.7970  -21.7000   23.3900 C   0  0  0  0  0  2  0  0  0  0  0  0
  -31.1600  -21.3330   23.4650 O   0  0  0  0  0  0  0  0  0  0  0  0
  -31.6010  -21.9600   24.0350 H   0  0  0  0  0  0  0  0  0  0  0  0
  1  6  2  0
  1  3  1  0
  2  4  2  0
  3  5  2  0
  4  7  1  0
  5  4  1  0
  5 91  1  0
  6  2  1  0
  8  3  1  0
  8  9  1  0
  9 11  1  0
 10  8  2  0
 12  9  1  0
 12 13  2  0
 14 13  1  0
 15 20  1  0
 16 17  1  0
 16 15  1  0
 18 17  1  0
 18 25  1  0
 18 19  1  0
 20 14  1  0
 20 19  1  0
 21 14  2  0
 22 23  2  0
 23 24  1  0
 23 42  1  0
 24 27  1  0
 25 22  1  0
 25 26  1  0
 26 24  2  0
 27 28  1  0
 28 29  2  0
 30 33  1  0
 30 29  1  0
 31 30  2  0
 32 31  1  0
 32 27  2  0
 33 34  1  0
 34 35  1  0
 35 36  2  0
 37 36  1  0
 37 41  1  0
 38 37  2  0
 39 34  2  0
 39 38  1  0
 40 39  1  0
 42 43  1  0
 43 46  1  0
 43 45  1  0
 44 42  2  0
 47 48  1  0
 47 22  1  0
 49 47  1  0
 50 52  1  0
 50  6  1  0
 51 62  2  0
 52 57  1  0
 53 61  1  0
 53 63  1  0
 54 60  1  0
 54 56  1  0
 55 61  1  0
 56 55  1  0
 57 56  2  0
 58 59  1  0
 58 52  2  0
 59 54  2  0
 60 53  1  0
 61 51  1  0
 63 65  2  0
 64 63  1  0
 66 64  1  0
 67 76  2  0
 67 72  1  0
 68 64  1  0
 68 72  1  0
 69 68  1  0
 70 71  1  0
 70 69  1  0
 71 67  1  0
 72 73  2  0
 73 74  1  0
 75 74  2  0
 76 75  1  0
 77 51  1  0
 77 78  1  0
 77 87  1  0
 78 81  1  0
 79 83  1  0
 79 78  1  0
 80 79  2  0
 83 82  1  0
 85 83  1  0
 85 86  1  0
 85 84  1  0
 87 90  1  1
 87 88  1  0
 89 87  1  0
 91 92  1  0
 92 93  1  0
M  ISO  4   6 101  13 100  14 100  50 101
M  END
>  <TORSDO>  (41) 
F 21

>  <SCORE>  (41) 
-13.818

>  <name>  (41) 
40

>  <ligand_id>  (41) 
40

>  <original_smiles>  (41) 
[H]OC([H])([H])c1c(C(=O)N([H])C([H])([H])C([H])([H])C(=O)N2C([H])([H])C([H])([H])C([H])([H])C([H])(n3nc(-c4c([H])c([H])c(Oc5c([H])c([H])c(F)c([H])c5F)c([H])c4[H])c(C(=O)N([H])[H])c3N([H])[H])C2([H])[H])c([H])c(Oc2c([H])c([H])c3c(c2[H])C([H])([H])N(C(=O)C([H])(N([H])C(=O)C([H])(N([H])C([H])([H])[H])C([H])([H])[H])C(C([H])([H])[H])(C([H])([H])[H])C([H])([H])[H])C([H])(C(=O)N([H])C2([H])c4c([H])c([H])c([H])c([H])c4C([H])([H])C([H])([H])C2([H])[H])C3([H])[H])c([H])c1C([H])([H])[H]

>  <smiles>  (41) 
[H]OC([H])([H])c1c(C(=O)N([H])C([H])([H])C([H])([H])C(=O)N2C([H])([H])C([H])([H])C([H])([H])C([H])(n3nc(-c4c([H])c([H])c(Oc5c([H])c([H])c(F)c([H])c5F)c([H])c4[H])c(C(=O)N([H])[H])c3N([H])[H])C2([H])[H])c([H])c(Oc2c([H])c([H])c3c(c2[H])C([H])([H])N(C(=O)C([H])(N([H])C(=O)C([H])(N([H])C([H])([H])[H])C([H])([H])[H])C(C([H])([H])[H])(C([H])([H])[H])C([H])([H])[H])C([H])(C(=O)N([H])C2([H])c4c([H])c([H])c([H])c([H])c4C([H])([H])C([H])([H])C2([H])[H])C3([H])[H])c([H])c1C([H])([H])[H]

$$$$
41:0:0
     RDKit          3D

 89 97  0  0  1  0  0  0  0  0999 V2000
  -27.5780  -20.8320   19.6300 C   0  0  0  0  0  3  0  0  0  0  0  0
  -26.9390  -23.3200   19.6520 C   0  0  0  0  0  3  0  0  0  0  0  0
  -28.8620  -20.9350   20.1980 C   0  0  0  0  0  0  0  0  0  0  0  0
  -28.1330  -23.8840   20.1630 C   0  0  0  0  0  0  0  0  0  0  0  0
  -26.6970  -21.9320   19.3820 C   0  0  0  0  0  0  0  0  0  0  0  0
  -29.0620  -22.5540   20.4280 C   0  0  0  0  0  0  0  0  0  0  0  0
  -25.5100  -21.6210   18.8140 F   0  0  0  0  0  0  0  0  0  0  0  0
  -30.2700  -22.8630   20.9540 F   0  0  0  0  0  0  0  0  0  0  0  0
  -30.9770  -19.5070   19.3740 C   0  0  0  0  0  1  0  0  0  0  0  0
  -29.8200  -19.2760   20.3460 C   0  0  0  0  0  0  0  0  0  0  0  0
  -30.3430  -16.0290   20.2250 C   0  0  0  0  0  0  0  0  0  0  0  0
  -30.4660  -13.4600   19.3820 C   0  0  0  0  0  2  0  0  0  0  0  0
  -29.5800  -12.9990   18.1900 C   0  0  0  0  0  2  0  0  0  0  0  0
  -28.1810  -12.5840   18.6640 C   0  0  0  0  0  2  0  0  0  0  0  0
  -27.6500  -13.5720   19.7260 C   0  0  0  0  0  3  0  0  0  0  0  0
  -28.6830  -13.9630   20.8150 C   0  0  0  0  0  2  0  0  0  0  0  0
  -29.8220  -14.6430   20.1370 N   0  0  0  0  0  0  0  0  0  0  0  0
  -31.5750  -15.9280   20.0570 O   0  0  0  0  0  0  0  0  0  0  0  0
  -29.6110  -17.4490   20.3140 N   0  0  0  0  0  4  0  0  0  0  0  0
  -28.6250  -17.2500   20.3800 H   0  0  0  0  0  0  0  0  0  0  0  0
  -25.3030  -14.0360   20.5630 C   0  0  0  0  0  0  0  0  0  0  0  0
  -24.2650  -13.2320   20.9350 C   0  0  0  0  0  0  0  0  0  0  0  0
  -24.7560  -11.8910   20.8610 C   0  0  0  0  0  0  0  0  0  0  0  0
  -26.3540  -13.1900   20.2730 N   0  0  0  0  0  0  0  0  0  0  0  0
  -26.0430  -11.8880   20.5150 N   0  0  0  0  0  0  0  0  0  0  0  0
  -24.0480  -10.6130   21.0320 C   0  0  0  0  0  0  0  0  0  0  0  0
  -24.4720   -9.6480   21.9730 C   0  0  0  0  0  3  0  0  0  0  0  0
  -23.7570   -8.4430   22.1390 C   0  0  0  0  0  3  0  0  0  0  0  0
  -22.6020   -8.1910   21.3610 C   0  0  0  0  0  0  0  0  0  0  0  0
  -22.1960   -9.1420   20.4080 C   0  0  0  0  0  3  0  0  0  0  0  0
  -22.9130  -10.3390   20.2410 C   0  0  0  0  0  3  0  0  0  0  0  0
  -21.8620   -7.0340   21.4320 O   0  0  0  0  0  0  0  0  0  0  0  0
  -21.7480   -6.3220   22.5990 C   0  0  0  0  0  0  0  0  0  0  0  0
  -21.1370   -6.8690   23.7480 C   0  0  0  0  0  3  0  0  0  0  0  0
  -20.9770   -6.0800   24.9060 C   0  0  0  0  0  3  0  0  0  0  0  0
  -21.4180   -4.7440   24.9130 C   0  0  0  0  0  0  0  0  0  0  0  0
  -22.0220   -4.1950   23.7670 C   0  0  0  0  0  3  0  0  0  0  0  0
  -22.1840   -4.9820   22.6130 C   0  0  0  0  0  0  0  0  0  0  0  0
  -22.7460   -4.4430   21.5050 F   0  0  0  0  0  0  0  0  0  0  0  0
  -21.2600   -3.9820   26.0210 F   0  0  0  0  0  0  0  0  0  0  0  0
  -22.8650  -13.6810   21.2390 C   0  0  0  0  0  0  0  0  0  0  0  0
  -22.1640  -12.9610   22.1050 N   0  0  0  0  0  0  0  0  0  0  0  0
  -22.4020  -14.7090   20.7440 O   0  0  0  0  0  0  0  0  0  0  0  0
  -22.5510  -12.1310   22.5290 H   0  0  0  0  0  0  0  0  0  0  0  0
  -21.2240  -13.2440   22.3450 H   0  0  0  0  0  0  0  0  0  0  0  0
  -25.4350  -15.4150   20.4100 N   0  0  0  0  0  0  0  0  0  0  0  0
  -24.6510  -16.0490   20.5170 H   0  0  0  0  0  0  0  0  0  0  0  0
  -26.2660  -15.8710   20.0540 H   0  0  0  0  0  0  0  0  0  0  0  0
  -28.1950  -25.5430   20.2750 O   0  0  0  0  0  0  0  0  0  0  0  0
  -24.6250  -31.9190   23.2500 C   0  0  0  0  0  0  0  0  0  0  0  0
  -27.2130  -26.7980   20.2320 C   0  0  0  0  0  0  0  0  0  0  0  0
  -23.4640  -30.5320   21.5890 C   0  0  0  0  0  3  0  0  0  0  0  0
  -24.9350  -28.8930   20.1670 C   0  0  0  0  0  0  0  0  0  0  0  0
  -26.0440  -30.6530   21.5100 C   0  0  0  0  0  2  0  0  0  0  0  0
  -26.1180  -29.2150   20.8430 C   0  0  0  0  0  0  0  0  0  0  0  0
  -27.2260  -28.1980   20.8500 C   0  0  0  0  0  3  0  0  0  0  0  0
  -26.0140  -26.7430   19.4620 C   0  0  0  0  0  3  0  0  0  0  0  0
  -24.9320  -27.6860   19.4470 C   0  0  0  0  0  3  0  0  0  0  0  0
  -23.7170  -29.8380   20.2150 C   0  0  0  0  0  2  0  0  0  0  0  0
  -24.7350  -31.0720   22.1690 N   0  0  0  0  0  0  0  0  0  0  0  0
  -23.5240  -32.2140   23.7470 O   0  0  0  0  0  0  0  0  0  0  0  0
  -22.7360  -29.5480   22.5460 C   0  0  0  0  0  0  0  0  0  0  0  0
  -21.4070  -29.3780   22.3920 N   0  0  0  0  0  0  0  0  0  0  0  0
  -23.3780  -28.9320   23.3980 O   0  0  0  0  0  0  0  0  0  0  0  0
  -20.9370  -29.9210   21.6810 H   0  0  0  0  0  0  0  0  0  0  0  0
  -18.0170  -28.1600   22.8840 C   0  0  0  0  0  0  0  0  0  0  0  0
  -20.5780  -28.4260   23.1410 C   0  0  0  0  0  3  0  0  0  0  0  0
  -20.6760  -27.0080   22.5310 C   0  0  0  0  0  2  0  0  0  0  0  0
  -19.5710  -26.7120   21.5110 C   0  0  0  0  0  2  0  0  0  0  0  0
  -18.1910  -26.8330   22.1660 C   0  0  0  0  0  2  0  0  0  0  0  0
  -19.1350  -28.9180   23.3250 C   0  0  0  0  0  0  0  0  0  0  0  0
  -18.9120  -30.1580   23.9610 C   0  0  0  0  0  3  0  0  0  0  0  0
  -17.6040  -30.6450   24.1550 C   0  0  0  0  0  3  0  0  0  0  0  0
  -16.5010  -29.8850   23.7260 C   0  0  0  0  0  3  0  0  0  0  0  0
  -16.7090  -28.6450   23.0990 C   0  0  0  0  0  3  0  0  0  0  0  0
  -25.8720  -32.5770   23.9150 C   0  0  0  0  0  3  0  0  0  0  0  0
  -25.5550  -33.9920   24.2050 N   0  0  0  0  0  0  0  0  0  0  0  0
  -25.9130  -35.0380   23.4430 C   0  0  0  0  0  0  0  0  0  0  0  0
  -26.5960  -34.9110   22.4240 O   0  0  0  0  0  0  0  0  0  0  0  0
  -24.9500  -34.1630   24.9940 H   0  0  0  0  0  0  0  0  0  0  0  0
  -24.2160  -36.8610   23.0400 C   0  0  0  0  0  1  0  0  0  0  0  0
  -25.4400  -36.4460   23.8740 C   0  0  0  0  0  3  0  0  0  0  0  0
  -27.5680  -37.3250   24.7360 C   0  0  0  0  0  1  0  0  0  0  0  0
  -26.4900  -37.4850   23.7640 N   0  0  0  0  0  0  0  0  0  0  0  0
  -26.0920  -38.4120   23.8810 H   0  0  0  0  0  0  0  0  0  0  0  0
  -26.3100  -31.8530   25.2490 C   0  0  1  0  0  0  0  0  0  0  0  0
  -25.1600  -31.6560   26.2660 C   0  0  0  0  0  1  0  0  0  0  0  0
  -26.9050  -30.4590   24.9540 C   0  0  0  0  0  1  0  0  0  0  0  0
  -27.4290  -32.6670   25.9430 C   0  0  0  0  0  1  0  0  0  0  0  0
  1  3  1  0
  2  4  2  0
  3 10  1  0
  3  6  2  0
  4 49  1  0
  4  6  1  0
  5  1  2  0
  5  2  1  0
  6  8  1  0
  7  5  1  0
  9 10  1  0
 11 19  1  0
 12 17  1  0
 13 14  1  0
 13 12  1  0
 15 14  1  0
 15 24  1  0
 15 16  1  0
 17 11  1  0
 17 16  1  0
 18 11  2  0
 19 10  2  0
 19 20  1  0
 21 22  2  0
 22 41  1  0
 23 22  1  0
 23 26  1  0
 24 25  1  0
 24 21  1  0
 25 23  2  0
 26 27  1  0
 27 28  2  0
 29 32  1  0
 29 28  1  0
 30 29  2  0
 31 30  1  0
 31 26  2  0
 32 33  1  0
 33 38  2  0
 33 34  1  0
 34 35  2  0
 35 36  1  0
 36 40  1  0
 37 36  2  0
 38 37  1  0
 39 38  1  0
 41 42  1  0
 42 45  1  0
 42 44  1  0
 43 41  2  0
 46 47  1  0
 46 21  1  0
 48 46  1  0
 50 61  2  0
 51 49  1  0
 51 56  1  0
 52 60  1  0
 52 62  1  0
 53 59  1  0
 53 55  1  0
 54 60  1  0
 55 56  2  0
 55 54  1  0
 57 51  2  0
 58 57  1  0
 58 53  2  0
 59 52  1  0
 60 50  1  0
 62 64  2  0
 63 62  1  0
 65 63  1  0
 66 75  2  0
 66 71  1  0
 67 63  1  0
 67 71  1  0
 68 67  1  0
 69 70  1  0
 69 68  1  0
 70 66  1  0
 71 72  2  0
 72 73  1  0
 74 73  2  0
 75 74  1  0
 76 50  1  0
 76 77  1  0
 76 86  1  0
 77 80  1  0
 78 82  1  0
 78 77  1  0
 79 78  2  0
 82 81  1  0
 84 82  1  0
 84 85  1  0
 84 83  1  0
 86 89  1  1
 86 87  1  0
 88 86  1  0
M  ISO  4   4 101  11 100  19 100  49 101
M  END
>  <TORSDO>  (42) 
F 17

>  <SCORE>  (42) 
-16.399

>  <name>  (42) 
41

>  <ligand_id>  (42) 
41

>  <original_smiles>  (42) 
[H]c1c([H])c([H])c2c(c1[H])C([H])([H])C([H])([H])C([H])([H])C2([H])N([H])C(=O)C1([H])N(C(=O)C([H])(N([H])C(=O)C([H])(N([H])C([H])([H])[H])C([H])([H])[H])C(C([H])([H])[H])(C([H])([H])[H])C([H])([H])[H])C([H])([H])c2c([H])c(Oc3c([H])c(F)c([H])c(C([H])(N([H])C(=O)N4C([H])([H])C([H])([H])C([H])([H])C([H])(n5nc(-c6c([H])c([H])c(Oc7c([H])c([H])c(F)c([H])c7F)c([H])c6[H])c(C(=O)N([H])[H])c5N([H])[H])C4([H])[H])C([H])([H])[H])c3F)c([H])c([H])c2C1([H])[H]

>  <smiles>  (42) 
[H]c1c([H])c([H])c2c(c1[H])C([H])([H])C([H])([H])C([H])([H])C2([H])N([H])C(=O)C1([H])N(C(=O)C([H])(N([H])C(=O)C([H])(N([H])C([H])([H])[H])C([H])([H])[H])C(C([H])([H])[H])(C([H])([H])[H])C([H])([H])[H])C([H])([H])c2c([H])c(Oc3c([H])c(F)c([H])c(C([H])(N([H])C(=O)N4C([H])([H])C([H])([H])C([H])([H])C([H])(n5nc(-c6c([H])c([H])c(Oc7c([H])c([H])c(F)c([H])c7F)c([H])c6[H])c(C(=O)N([H])[H])c5N([H])[H])C4([H])[H])C([H])([H])[H])c3F)c([H])c([H])c2C1([H])[H]

$$$$
42:0:0
     RDKit          3D

 93101  0  0  1  0  0  0  0  0999 V2000
  -28.7870  -24.2240   19.5910 C   0  0  0  0  0  3  0  0  0  0  0  0
  -27.2650  -25.1430   21.2440 C   0  0  0  0  0  3  0  0  0  0  0  0
  -28.6690  -22.8830   20.1430 C   0  0  0  0  0  0  0  0  0  0  0  0
  -28.0890  -25.3810   20.1240 C   0  0  0  0  0  0  0  0  0  0  0  0
  -27.1220  -23.8530   21.7920 C   0  0  0  0  0  0  0  0  0  0  0  0
  -27.8080  -22.7430   21.2580 C   0  0  0  0  0  0  0  0  0  0  0  0
  -27.5960  -21.5340   21.8380 F   0  0  0  0  0  0  0  0  0  0  0  0
  -29.3170  -21.6260   19.5000 C   0  0  0  0  0  0  0  0  0  0  0  0
  -29.4520  -20.4360   20.1880 N   0  0  0  0  0  0  0  0  0  0  0  0
  -29.6910  -21.7030   18.3270 O   0  0  0  0  0  0  0  0  0  0  0  0
  -29.1390  -20.4830   21.1510 H   0  0  0  0  0  0  0  0  0  0  0  0
  -29.5720  -19.0340   19.6130 C   0  0  0  0  0  2  0  0  0  0  0  0
  -30.4830  -17.8990   20.3070 C   0  0  0  0  0  2  0  0  0  0  0  0
  -29.9330  -16.3830   20.2680 C   0  0  0  0  0  2  0  0  0  0  0  0
  -30.8460  -15.0890   20.0220 C   0  0  0  0  0  0  0  0  0  0  0  0
  -30.6870  -12.7990   19.0360 C   0  0  0  0  0  2  0  0  0  0  0  0
  -29.7170  -12.8760   17.8330 C   0  0  0  0  0  2  0  0  0  0  0  0
  -28.2540  -12.6990   18.2910 C   0  0  0  0  0  2  0  0  0  0  0  0
  -27.9040  -13.5940   19.5070 C   0  0  0  0  0  3  0  0  0  0  0  0
  -28.9830  -13.4880   20.6070 C   0  0  0  0  0  2  0  0  0  0  0  0
  -30.2770  -13.8380   20.0070 N   0  0  0  0  0  0  0  0  0  0  0  0
  -32.0150  -15.2400   19.6530 O   0  0  0  0  0  0  0  0  0  0  0  0
  -25.5400  -14.2110   20.3020 C   0  0  0  0  0  0  0  0  0  0  0  0
  -24.4760  -13.4450   20.6900 C   0  0  0  0  0  0  0  0  0  0  0  0
  -24.9230  -12.0900   20.6310 C   0  0  0  0  0  0  0  0  0  0  0  0
  -26.5680  -13.3210   20.0260 N   0  0  0  0  0  0  0  0  0  0  0  0
  -26.2040  -12.0400   20.2870 N   0  0  0  0  0  0  0  0  0  0  0  0
  -24.1900  -10.8320   20.8270 C   0  0  0  0  0  0  0  0  0  0  0  0
  -24.6070   -9.8760   21.7780 C   0  0  0  0  0  3  0  0  0  0  0  0
  -23.8770   -8.6810   21.9590 C   0  0  0  0  0  3  0  0  0  0  0  0
  -22.7150   -8.4370   21.1890 C   0  0  0  0  0  0  0  0  0  0  0  0
  -22.3170   -9.3830   20.2280 C   0  0  0  0  0  3  0  0  0  0  0  0
  -23.0470  -10.5690   20.0450 C   0  0  0  0  0  3  0  0  0  0  0  0
  -21.9570   -7.2950   21.2790 O   0  0  0  0  0  0  0  0  0  0  0  0
  -21.8500   -6.5930   22.4520 C   0  0  0  0  0  0  0  0  0  0  0  0
  -21.3140   -7.1750   23.6220 C   0  0  0  0  0  3  0  0  0  0  0  0
  -21.1550   -6.3960   24.7870 C   0  0  0  0  0  3  0  0  0  0  0  0
  -21.5250   -5.0370   24.7820 C   0  0  0  0  0  0  0  0  0  0  0  0
  -22.0530   -4.4550   23.6160 C   0  0  0  0  0  3  0  0  0  0  0  0
  -22.2120   -5.2300   22.4530 C   0  0  0  0  0  0  0  0  0  0  0  0
  -22.7020   -4.6590   21.3270 F   0  0  0  0  0  0  0  0  0  0  0  0
  -21.3660   -4.2870   25.8970 F   0  0  0  0  0  0  0  0  0  0  0  0
  -23.0900  -13.9320   21.0040 C   0  0  0  0  0  0  0  0  0  0  0  0
  -22.3800  -13.2340   21.8820 N   0  0  0  0  0  0  0  0  0  0  0  0
  -22.6470  -14.9670   20.5070 O   0  0  0  0  0  0  0  0  0  0  0  0
  -22.7520  -12.3950   22.3050 H   0  0  0  0  0  0  0  0  0  0  0  0
  -21.4510  -13.5400   22.1370 H   0  0  0  0  0  0  0  0  0  0  0  0
  -25.7170  -15.5820   20.1380 N   0  0  0  0  0  0  0  0  0  0  0  0
  -24.9680  -16.2490   20.2850 H   0  0  0  0  0  0  0  0  0  0  0  0
  -26.5710  -16.0150   19.8090 H   0  0  0  0  0  0  0  0  0  0  0  0
  -26.2930  -23.6570   22.8580 O   0  0  0  0  0  0  0  0  0  0  0  0
  -26.2870  -22.7330   23.0930 H   0  0  0  0  0  0  0  0  0  0  0  0
  -28.2000  -26.7120   19.6360 O   0  0  0  0  0  0  0  0  0  0  0  0
  -24.6110  -31.8870   23.2360 C   0  0  0  0  0  0  0  0  0  0  0  0
  -27.1130  -27.5970   19.7280 C   0  0  0  0  0  0  0  0  0  0  0  0
  -23.3640  -30.6650   21.4880 C   0  0  0  0  0  3  0  0  0  0  0  0
  -24.7720  -29.2330   19.9020 C   0  0  0  0  0  0  0  0  0  0  0  0
  -25.9050  -30.9630   21.2980 C   0  0  0  0  0  2  0  0  0  0  0  0
  -25.9560  -29.6480   20.5280 C   0  0  0  0  0  0  0  0  0  0  0  0
  -27.1300  -28.8410   20.4360 C   0  0  0  0  0  3  0  0  0  0  0  0
  -25.9120  -27.2380   19.0830 C   0  0  0  0  0  3  0  0  0  0  0  0
  -24.7520  -28.0330   19.1710 C   0  0  0  0  0  3  0  0  0  0  0  0
  -23.5490  -30.1170   20.0490 C   0  0  0  0  0  2  0  0  0  0  0  0
  -24.6470  -31.1850   22.0650 N   0  0  0  0  0  0  0  0  0  0  0  0
  -23.5390  -32.1250   23.8130 O   0  0  0  0  0  0  0  0  0  0  0  0
  -22.7000  -29.5730   22.3610 C   0  0  0  0  0  0  0  0  0  0  0  0
  -21.3700  -29.4220   22.2370 N   0  0  0  0  0  0  0  0  0  0  0  0
  -23.3810  -28.8680   23.1110 O   0  0  0  0  0  0  0  0  0  0  0  0
  -20.8800  -30.0440   21.6100 H   0  0  0  0  0  0  0  0  0  0  0  0
  -17.9750  -28.2850   22.7500 C   0  0  0  0  0  0  0  0  0  0  0  0
  -20.5510  -28.4260   22.9280 C   0  0  0  0  0  3  0  0  0  0  0  0
  -20.5730  -27.0710   22.1830 C   0  0  0  0  0  2  0  0  0  0  0  0
  -19.4170  -26.9090   21.1900 C   0  0  0  0  0  2  0  0  0  0  0  0
  -18.0710  -27.0210   21.9100 C   0  0  0  0  0  2  0  0  0  0  0  0
  -19.1390  -28.9530   23.2130 C   0  0  0  0  0  0  0  0  0  0  0  0
  -18.9930  -30.1430   23.9590 C   0  0  0  0  0  3  0  0  0  0  0  0
  -17.7160  -30.6620   24.2440 C   0  0  0  0  0  3  0  0  0  0  0  0
  -16.5670  -29.9890   23.7930 C   0  0  0  0  0  3  0  0  0  0  0  0
  -16.6990  -28.8010   23.0520 C   0  0  0  0  0  3  0  0  0  0  0  0
  -25.9120  -32.4410   23.8940 C   0  0  0  0  0  3  0  0  0  0  0  0
  -25.6490  -33.8300   24.2980 N   0  0  0  0  0  0  0  0  0  0  0  0
  -26.0220  -34.9120   23.6010 C   0  0  0  0  0  0  0  0  0  0  0  0
  -26.6930  -34.8410   22.5670 O   0  0  0  0  0  0  0  0  0  0  0  0
  -25.0560  -33.9610   25.1050 H   0  0  0  0  0  0  0  0  0  0  0  0
  -24.3600  -36.7820   23.3370 C   0  0  0  0  0  1  0  0  0  0  0  0
  -25.5800  -36.2900   24.1320 C   0  0  0  0  0  3  0  0  0  0  0  0
  -27.7340  -37.0580   25.0280 C   0  0  0  0  0  1  0  0  0  0  0  0
  -26.6500  -37.3100   24.0820 N   0  0  0  0  0  0  0  0  0  0  0  0
  -26.2740  -38.2370   24.2660 H   0  0  0  0  0  0  0  0  0  0  0  0
  -26.3940  -31.5860   25.1300 C   0  0  1  0  0  0  0  0  0  0  0  0
  -25.2890  -31.3300   26.1800 C   0  0  0  0  0  1  0  0  0  0  0  0
  -26.9330  -30.2120   24.6680 C   0  0  0  0  0  1  0  0  0  0  0  0
  -27.5680  -32.3040   25.8380 C   0  0  0  0  0  1  0  0  0  0  0  0
  1  4  2  0
  1  3  1  0
  2  5  2  0
  3  6  2  0
  4  2  1  0
  5 51  1  0
  6  5  1  0
  6  7  1  0
  8  3  1  0
  8  9  1  0
  9 11  1  0
 10  8  2  0
 12  9  1  0
 12 13  1  0
 14 13  1  0
 15 14  1  0
 16 21  1  0
 17 18  1  0
 17 16  1  0
 19 18  1  0
 19 26  1  0
 19 20  1  0
 21 15  1  0
 21 20  1  0
 22 15  2  0
 23 24  2  0
 24 43  1  0
 25 24  1  0
 25 28  1  0
 26 27  1  0
 26 23  1  0
 27 25  2  0
 28 29  1  0
 29 30  2  0
 31 34  1  0
 31 30  1  0
 32 31  2  0
 33 32  1  0
 33 28  2  0
 34 35  1  0
 35 40  2  0
 35 36  1  0
 36 37  2  0
 38 37  1  0
 38 42  1  0
 39 38  2  0
 40 39  1  0
 41 40  1  0
 43 44  1  0
 44 47  1  0
 44 46  1  0
 45 43  2  0
 48 49  1  0
 48 23  1  0
 50 48  1  0
 51 52  1  0
 53 55  1  0
 53  4  1  0
 54 65  2  0
 55 60  1  0
 56 64  1  0
 56 66  1  0
 57 63  1  0
 57 59  1  0
 58 64  1  0
 59 58  1  0
 60 59  2  0
 61 62  1  0
 61 55  2  0
 62 57  2  0
 63 56  1  0
 64 54  1  0
 66 68  2  0
 67 66  1  0
 69 67  1  0
 70 79  2  0
 70 75  1  0
 71 67  1  0
 71 75  1  0
 72 71  1  0
 73 74  1  0
 73 72  1  0
 74 70  1  0
 75 76  2  0
 76 77  1  0
 78 77  2  0
 79 78  1  0
 80 54  1  0
 80 81  1  0
 80 90  1  0
 81 84  1  0
 82 86  1  0
 82 81  1  0
 83 82  2  0
 86 85  1  0
 88 86  1  0
 88 89  1  0
 88 87  1  0
 90 93  1  1
 90 91  1  0
 92 90  1  0
M  ISO  4   4 101  14 100  15 100  53 101
M  END
>  <TORSDO>  (43) 
F 21

>  <SCORE>  (43) 
-12.562

>  <name>  (43) 
42

>  <ligand_id>  (43) 
42

>  <original_smiles>  (43) 
[H]Oc1c([H])c(Oc2c([H])c([H])c3c(c2[H])C([H])([H])N(C(=O)C([H])(N([H])C(=O)C([H])(N([H])C([H])([H])[H])C([H])([H])[H])C(C([H])([H])[H])(C([H])([H])[H])C([H])([H])[H])C([H])(C(=O)N([H])C2([H])c4c([H])c([H])c([H])c([H])c4C([H])([H])C([H])([H])C2([H])[H])C3([H])[H])c([H])c(C(=O)N([H])C([H])([H])C([H])([H])C([H])([H])C(=O)N2C([H])([H])C([H])([H])C([H])([H])C([H])(n3nc(-c4c([H])c([H])c(Oc5c([H])c([H])c(F)c([H])c5F)c([H])c4[H])c(C(=O)N([H])[H])c3N([H])[H])C2([H])[H])c1F

>  <smiles>  (43) 
[H]Oc1c([H])c(Oc2c([H])c([H])c3c(c2[H])C([H])([H])N(C(=O)C([H])(N([H])C(=O)C([H])(N([H])C([H])([H])[H])C([H])([H])[H])C(C([H])([H])[H])(C([H])([H])[H])C([H])([H])[H])C([H])(C(=O)N([H])C2([H])c4c([H])c([H])c([H])c([H])c4C([H])([H])C([H])([H])C2([H])[H])C3([H])[H])c([H])c(C(=O)N([H])C([H])([H])C([H])([H])C([H])([H])C(=O)N2C([H])([H])C([H])([H])C([H])([H])C([H])(n3nc(-c4c([H])c([H])c(Oc5c([H])c([H])c(F)c([H])c5F)c([H])c4[H])c(C(=O)N([H])[H])c3N([H])[H])C2([H])[H])c1F

$$$$
43:0:0
     RDKit          3D

 93102  0  0  1  0  0  0  0  0999 V2000
  -27.7910  -22.0290   21.2330 C   0  0  0  0  0  3  0  0  0  0  0  0
  -27.1130  -23.1100   21.8320 C   0  0  0  0  0  3  0  0  0  0  0  0
  -28.9470  -23.6610   19.8640 C   0  0  0  0  0  3  0  0  0  0  0  0
  -28.7760  -22.2200   20.2480 C   0  0  0  0  0  0  0  0  0  0  0  0
  -27.3330  -24.4640   21.4800 C   0  0  0  0  0  0  0  0  0  0  0  0
  -28.2240  -24.8440   20.4340 C   0  0  0  0  0  0  0  0  0  0  0  0
  -26.6680  -25.4010   22.2180 O   0  0  0  0  0  0  0  0  0  0  0  0
  -26.1080  -25.0220   22.8860 H   0  0  0  0  0  0  0  0  0  0  0  0
  -28.3940  -26.2860   20.1200 O   0  0  0  0  0  0  0  0  0  0  0  0
  -24.6440  -31.9040   23.1500 C   0  0  0  0  0  0  0  0  0  0  0  0
  -27.3400  -27.2800   20.0770 C   0  0  0  0  0  0  0  0  0  0  0  0
  -23.4890  -30.5170   21.4690 C   0  0  0  0  0  3  0  0  0  0  0  0
  -24.9860  -28.9930   20.0330 C   0  0  0  0  0  0  0  0  0  0  0  0
  -26.0410  -30.8250   21.3470 C   0  0  0  0  0  2  0  0  0  0  0  0
  -26.1470  -29.4460   20.6730 C   0  0  0  0  0  0  0  0  0  0  0  0
  -27.3240  -28.6030   20.6840 C   0  0  0  0  0  3  0  0  0  0  0  0
  -26.1600  -26.9410   19.3820 C   0  0  0  0  0  3  0  0  0  0  0  0
  -25.0050  -27.7550   19.3720 C   0  0  0  0  0  3  0  0  0  0  0  0
  -23.7420  -29.8680   20.0820 C   0  0  0  0  0  2  0  0  0  0  0  0
  -24.7430  -31.1040   22.0440 N   0  0  0  0  0  0  0  0  0  0  0  0
  -23.5460  -32.1600   23.6690 O   0  0  0  0  0  0  0  0  0  0  0  0
  -22.8150  -29.4820   22.4060 C   0  0  0  0  0  0  0  0  0  0  0  0
  -21.4920  -29.2920   22.2590 N   0  0  0  0  0  0  0  0  0  0  0  0
  -23.4850  -28.8540   23.2290 O   0  0  0  0  0  0  0  0  0  0  0  0
  -21.0060  -29.8510   21.5710 H   0  0  0  0  0  0  0  0  0  0  0  0
  -18.1260  -28.0280   22.7000 C   0  0  0  0  0  0  0  0  0  0  0  0
  -20.6760  -28.3290   23.0040 C   0  0  0  0  0  3  0  0  0  0  0  0
  -20.8090  -26.9090   22.4050 C   0  0  0  0  0  2  0  0  0  0  0  0
  -19.7250  -26.5850   21.3710 C   0  0  0  0  0  2  0  0  0  0  0  0
  -18.3340  -26.6950   22.0000 C   0  0  0  0  0  2  0  0  0  0  0  0
  -19.2260  -28.8020   23.1560 C   0  0  0  0  0  0  0  0  0  0  0  0
  -18.9760  -30.0480   23.7720 C   0  0  0  0  0  3  0  0  0  0  0  0
  -17.6610  -30.5220   23.9340 C   0  0  0  0  0  3  0  0  0  0  0  0
  -16.5750  -29.7450   23.4920 C   0  0  0  0  0  3  0  0  0  0  0  0
  -16.8080  -28.5000   22.8820 C   0  0  0  0  0  3  0  0  0  0  0  0
  -25.9020  -32.5500   23.8050 C   0  0  0  0  0  3  0  0  0  0  0  0
  -26.3890  -31.7870   25.0980 C   0  0  1  0  0  0  0  0  0  0  0  0
  -25.2680  -31.5410   26.1360 C   0  0  0  0  0  1  0  0  0  0  0  0
  -26.9970  -30.4130   24.7310 C   0  0  0  0  0  1  0  0  0  0  0  0
  -27.5120  -32.5930   25.7910 C   0  0  0  0  0  1  0  0  0  0  0  0
  -25.5710  -33.9470   24.1310 N   0  0  0  0  0  0  0  0  0  0  0  0
  -25.9100  -35.0070   23.3860 C   0  0  0  0  0  0  0  0  0  0  0  0
  -26.6020  -34.9130   22.3680 O   0  0  0  0  0  0  0  0  0  0  0  0
  -24.9600  -34.0930   24.9210 H   0  0  0  0  0  0  0  0  0  0  0  0
  -24.1760  -36.7910   23.0090 C   0  0  0  0  0  1  0  0  0  0  0  0
  -25.4050  -36.3910   23.8410 C   0  0  0  0  0  3  0  0  0  0  0  0
  -27.5160  -37.2940   24.7170 C   0  0  0  0  0  1  0  0  0  0  0  0
  -26.4330  -37.4530   23.7490 N   0  0  0  0  0  0  0  0  0  0  0  0
  -26.0160  -38.3700   23.8860 H   0  0  0  0  0  0  0  0  0  0  0  0
  -29.5550  -20.8620   19.6800 C   0  0  0  0  0  2  0  0  0  0  0  0
  -31.5430  -18.7840   21.5700 C   0  0  0  0  0  2  0  0  0  0  0  0
  -30.0880  -19.2610   21.7070 C   0  0  0  0  0  2  0  0  0  0  0  0
  -31.7080  -18.2370   20.1470 C   0  0  0  0  0  2  0  0  0  0  0  0
  -29.4810  -19.2640   20.2930 C   0  0  0  0  0  3  0  0  0  0  0  0
  -30.2920  -17.9140   19.6540 C   0  0  0  0  0  3  0  0  0  0  0  0
  -30.7300  -15.1690   19.7710 C   0  0  0  0  0  0  0  0  0  0  0  0
  -30.5790  -12.7800   18.9270 C   0  0  0  0  0  2  0  0  0  0  0  0
  -29.5740  -12.6750   17.7570 C   0  0  0  0  0  2  0  0  0  0  0  0
  -28.1480  -12.4470   18.2920 C   0  0  0  0  0  2  0  0  0  0  0  0
  -27.7970  -13.4010   19.4630 C   0  0  0  0  0  3  0  0  0  0  0  0
  -28.9230  -13.4880   20.5170 C   0  0  0  0  0  2  0  0  0  0  0  0
  -30.1420  -13.9020   19.8110 N   0  0  0  0  0  0  0  0  0  0  0  0
  -31.9000  -15.2140   19.3770 O   0  0  0  0  0  0  0  0  0  0  0  0
  -29.9810  -16.3770   19.9620 N   0  0  0  0  0  0  0  0  0  0  0  0
  -29.0360  -16.2060   20.2720 H   0  0  0  0  0  0  0  0  0  0  0  0
  -25.4940  -13.9570   20.4240 C   0  0  0  0  0  0  0  0  0  0  0  0
  -24.4560  -13.1720   20.8460 C   0  0  0  0  0  0  0  0  0  0  0  0
  -24.9030  -11.8220   20.7160 C   0  0  0  0  0  0  0  0  0  0  0  0
  -26.5040  -13.0850   20.0580 N   0  0  0  0  0  0  0  0  0  0  0  0
  -26.1640  -11.7910   20.2990 N   0  0  0  0  0  0  0  0  0  0  0  0
  -24.1800  -10.5570   20.9070 C   0  0  0  0  0  0  0  0  0  0  0  0
  -24.6130   -9.5920   21.8430 C   0  0  0  0  0  3  0  0  0  0  0  0
  -23.8890   -8.3950   22.0240 C   0  0  0  0  0  3  0  0  0  0  0  0
  -22.7170   -8.1510   21.2670 C   0  0  0  0  0  0  0  0  0  0  0  0
  -22.3040   -9.1050   20.3200 C   0  0  0  0  0  3  0  0  0  0  0  0
  -23.0290  -10.2940   20.1370 C   0  0  0  0  0  3  0  0  0  0  0  0
  -21.9640   -7.0050   21.3580 O   0  0  0  0  0  0  0  0  0  0  0  0
  -21.8370   -6.3190   22.5390 C   0  0  0  0  0  0  0  0  0  0  0  0
  -21.2810   -6.9160   23.6910 C   0  0  0  0  0  3  0  0  0  0  0  0
  -21.1030   -6.1540   24.8620 C   0  0  0  0  0  3  0  0  0  0  0  0
  -21.4710   -4.7960   24.8820 C   0  0  0  0  0  0  0  0  0  0  0  0
  -22.0210   -4.1980   23.7340 C   0  0  0  0  0  3  0  0  0  0  0  0
  -22.1990   -4.9580   22.5650 C   0  0  0  0  0  0  0  0  0  0  0  0
  -22.7090   -4.3710   21.4550 F   0  0  0  0  0  0  0  0  0  0  0  0
  -21.2950   -4.0610   26.0060 F   0  0  0  0  0  0  0  0  0  0  0  0
  -23.0910  -13.6470   21.2510 C   0  0  0  0  0  0  0  0  0  0  0  0
  -22.4300  -12.9200   22.1440 N   0  0  0  0  0  0  0  0  0  0  0  0
  -22.6230  -14.6960   20.8100 O   0  0  0  0  0  0  0  0  0  0  0  0
  -22.8230  -12.0710   22.5210 H   0  0  0  0  0  0  0  0  0  0  0  0
  -21.5170  -13.2180   22.4580 H   0  0  0  0  0  0  0  0  0  0  0  0
  -25.6550  -15.3340   20.2950 N   0  0  0  0  0  0  0  0  0  0  0  0
  -24.9010  -15.9820   20.4930 H   0  0  0  0  0  0  0  0  0  0  0  0
  -26.4640  -15.7820   19.8860 H   0  0  0  0  0  0  0  0  0  0  0  0
  1  2  1  0
  3  4  1  0
  3  6  2  0
  4  1  2  0
  5  2  2  0
  5  7  1  0
  6  5  1  0
  7  8  1  0
  9  6  1  0
 10 21  2  0
 11  9  1  0
 11 16  1  0
 12 20  1  0
 12 22  1  0
 13 19  1  0
 13 15  1  0
 14 20  1  0
 15 16  2  0
 15 14  1  0
 17 11  2  0
 18 17  1  0
 18 13  2  0
 19 12  1  0
 20 10  1  0
 22 24  2  0
 23 22  1  0
 25 23  1  0
 26 35  2  0
 26 31  1  0
 27 23  1  0
 27 31  1  0
 28 27  1  0
 29 30  1  0
 29 28  1  0
 30 26  1  0
 31 32  2  0
 32 33  1  0
 34 33  2  0
 35 34  1  0
 36 10  1  0
 36 41  1  0
 36 37  1  0
 37 40  1  1
 37 38  1  0
 39 37  1  0
 41 44  1  0
 42 46  1  0
 42 41  1  0
 43 42  2  0
 46 45  1  0
 48 46  1  0
 48 49  1  0
 48 47  1  0
 50  4  1  0
 51 52  1  0
 53 51  1  0
 54 50  1  0
 54 52  1  0
 55 64  1  0
 55 53  1  0
 55 54  1  0
 56 62  1  0
 56 64  1  0
 57 62  1  0
 58 59  1  0
 58 57  1  0
 60 59  1  0
 60 69  1  0
 60 61  1  0
 62 61  1  0
 63 56  2  0
 64 65  1  0
 66 67  2  0
 67 86  1  0
 68 67  1  0
 68 71  1  0
 69 70  1  0
 69 66  1  0
 70 68  2  0
 71 72  1  0
 72 73  2  0
 74 77  1  0
 74 73  1  0
 75 74  2  0
 76 75  1  0
 76 71  2  0
 77 78  1  0
 78 83  2  0
 78 79  1  0
 79 80  2  0
 80 81  1  0
 81 85  1  0
 82 81  2  0
 83 82  1  0
 84 83  1  0
 86 87  1  0
 87 90  1  0
 87 89  1  0
 88 86  2  0
 91 66  1  0
 91 92  1  0
 93 91  1  0
M  ISO  4   6 101   9 101  56 100  64 100
M  END
>  <TORSDO>  (44) 
F 19

>  <SCORE>  (44) 
-14.661

>  <name>  (44) 
43

>  <ligand_id>  (44) 
43

>  <original_smiles>  (44) 
[H]Oc1c([H])c([H])c(C([H])([H])C2([H])C([H])([H])C([H])([H])C([H])([H])C2([H])N([H])C(=O)N2C([H])([H])C([H])([H])C([H])([H])C([H])(n3nc(-c4c([H])c([H])c(Oc5c([H])c([H])c(F)c([H])c5F)c([H])c4[H])c(C(=O)N([H])[H])c3N([H])[H])C2([H])[H])c([H])c1Oc1c([H])c([H])c2c(c1[H])C([H])([H])N(C(=O)C([H])(N([H])C(=O)C([H])(N([H])C([H])([H])[H])C([H])([H])[H])C(C([H])([H])[H])(C([H])([H])[H])C([H])([H])[H])C([H])(C(=O)N([H])C1([H])c3c([H])c([H])c([H])c([H])c3C([H])([H])C([H])([H])C1([H])[H])C2([H])[H]

>  <smiles>  (44) 
[H]Oc1c([H])c([H])c(C([H])([H])C2([H])C([H])([H])C([H])([H])C([H])([H])C2([H])N([H])C(=O)N2C([H])([H])C([H])([H])C([H])([H])C([H])(n3nc(-c4c([H])c([H])c(Oc5c([H])c([H])c(F)c([H])c5F)c([H])c4[H])c(C(=O)N([H])[H])c3N([H])[H])C2([H])[H])c([H])c1Oc1c([H])c([H])c2c(c1[H])C([H])([H])N(C(=O)C([H])(N([H])C(=O)C([H])(N([H])C([H])([H])[H])C([H])([H])[H])C(C([H])([H])[H])(C([H])([H])[H])C([H])([H])[H])C([H])(C(=O)N([H])C1([H])c3c([H])c([H])c([H])c([H])c3C([H])([H])C([H])([H])C1([H])[H])C2([H])[H]

$$$$
44:0:0
     RDKit          3D

 95104  0  0  1  0  0  0  0  0999 V2000
  -27.3560  -21.7380   20.2150 C   0  0  0  0  0  1  0  0  0  0  0  0
  -28.8310  -22.0880   20.0080 C   0  0  0  0  0  3  0  0  0  0  0  0
  -32.0320  -20.1440   19.4380 C   0  0  0  0  0  3  0  0  0  0  0  0
  -31.0650  -21.1500   19.4860 C   0  0  0  0  0  3  0  0  0  0  0  0
  -29.4780  -19.5710   20.4700 C   0  0  0  0  0  3  0  0  0  0  0  0
  -31.7410  -18.8510   19.9100 C   0  0  0  0  0  0  0  0  0  0  0  0
  -30.4720  -18.5410   20.4330 C   0  0  0  0  0  0  0  0  0  0  0  0
  -29.7840  -20.8870   20.0050 C   0  0  0  0  0  0  0  0  0  0  0  0
  -32.8270  -17.8100   19.8300 C   0  0  0  0  0  2  0  0  0  0  0  0
  -30.2510  -17.0980   20.9350 C   0  0  0  0  0  2  0  0  0  0  0  0
  -32.3320  -16.3980   19.5070 C   0  0  0  0  0  2  0  0  0  0  0  0
  -30.8610  -15.9930   19.9940 C   0  0  2  0  0  0  0  0  0  0  0  0
  -30.0630  -15.9380   18.6730 C   0  0  0  0  0  1  0  0  0  0  0  0
  -30.9440  -14.5810   20.7190 C   0  0  0  0  0  0  0  0  0  0  0  0
  -30.5150  -12.3950   19.7300 C   0  0  0  0  0  2  0  0  0  0  0  0
  -29.6380  -12.4190   18.4730 C   0  0  0  0  0  2  0  0  0  0  0  0
  -28.1410  -12.3900   18.8340 C   0  0  0  0  0  2  0  0  0  0  0  0
  -27.7420  -13.3140   20.0210 C   0  0  0  0  0  3  0  0  0  0  0  0
  -28.7710  -13.2940   21.1650 C   0  0  0  0  0  2  0  0  0  0  0  0
  -30.0930  -13.5240   20.5620 N   0  0  0  0  0  0  0  0  0  0  0  0
  -32.0590  -14.3360   21.1360 O   0  0  0  0  0  0  0  0  0  0  0  0
  -25.3130  -13.9290   20.5980 C   0  0  0  0  0  0  0  0  0  0  0  0
  -24.2190  -13.1630   20.9080 C   0  0  0  0  0  0  0  0  0  0  0  0
  -24.6870  -11.8150   20.9510 C   0  0  0  0  0  0  0  0  0  0  0  0
  -26.3710  -13.0440   20.4610 N   0  0  0  0  0  0  0  0  0  0  0  0
  -25.9950  -11.7680   20.7340 N   0  0  0  0  0  0  0  0  0  0  0  0
  -23.9500  -10.5510   21.1130 C   0  0  0  0  0  0  0  0  0  0  0  0
  -24.3330   -9.5920   22.0800 C   0  0  0  0  0  3  0  0  0  0  0  0
  -23.5930   -8.4010   22.2350 C   0  0  0  0  0  3  0  0  0  0  0  0
  -22.4570   -8.1590   21.4280 C   0  0  0  0  0  0  0  0  0  0  0  0
  -22.0910   -9.1050   20.4560 C   0  0  0  0  0  3  0  0  0  0  0  0
  -22.8310  -10.2910   20.2970 C   0  0  0  0  0  3  0  0  0  0  0  0
  -21.7010   -7.0150   21.4910 O   0  0  0  0  0  0  0  0  0  0  0  0
  -21.6050   -6.2720   22.6400 C   0  0  0  0  0  0  0  0  0  0  0  0
  -21.1500   -6.8310   23.8550 C   0  0  0  0  0  3  0  0  0  0  0  0
  -21.0100   -6.0190   24.9960 C   0  0  0  0  0  3  0  0  0  0  0  0
  -21.3110   -4.6440   24.9220 C   0  0  0  0  0  0  0  0  0  0  0  0
  -21.7650   -4.0850   23.7150 C   0  0  0  0  0  3  0  0  0  0  0  0
  -21.9060   -4.8960   22.5770 C   0  0  0  0  0  0  0  0  0  0  0  0
  -22.3220   -4.3470   21.4110 F   0  0  0  0  0  0  0  0  0  0  0  0
  -21.1670   -3.8650   26.0170 F   0  0  0  0  0  0  0  0  0  0  0  0
  -22.8120  -13.6450   21.0660 C   0  0  0  0  0  0  0  0  0  0  0  0
  -22.0210  -12.9730   21.8950 N   0  0  0  0  0  0  0  0  0  0  0  0
  -22.4150  -14.6490   20.4820 O   0  0  0  0  0  0  0  0  0  0  0  0
  -22.3550  -12.1600   22.3930 H   0  0  0  0  0  0  0  0  0  0  0  0
  -21.0710  -13.2800   22.0380 H   0  0  0  0  0  0  0  0  0  0  0  0
  -25.4920  -15.2950   20.3960 N   0  0  0  0  0  0  0  0  0  0  0  0
  -24.7200  -15.9510   20.4370 H   0  0  0  0  0  0  0  0  0  0  0  0
  -26.3670  -15.7290   20.1260 H   0  0  0  0  0  0  0  0  0  0  0  0
  -29.2870  -23.0620   21.0370 N   0  0  0  0  0  4  0  0  0  0  0  0
  -28.6790  -23.0100   21.8410 H   0  0  0  0  0  0  0  0  0  0  0  0
  -30.1790  -22.7000   21.3520 H   0  0  0  0  0  0  0  0  0  0  0  0
  -29.5110  -24.4830   20.6220 C   0  0  0  0  0  2  0  0  0  0  0  0
  -28.2370  -25.2570   20.1800 C   0  0  0  0  0  2  0  0  0  0  0  0
  -28.3730  -26.7000   20.2610 O   0  0  0  0  0  0  0  0  0  0  0  0
  -24.5610  -31.9570   23.2590 C   0  0  0  0  0  0  0  0  0  0  0  0
  -27.2100  -27.4570   20.2260 C   0  0  0  0  0  0  0  0  0  0  0  0
  -23.3600  -30.5420   21.6270 C   0  0  0  0  0  3  0  0  0  0  0  0
  -24.8150  -28.9890   20.2220 C   0  0  0  0  0  0  0  0  0  0  0  0
  -25.8920  -30.8870   21.4430 C   0  0  0  0  0  2  0  0  0  0  0  0
  -25.9760  -29.5150   20.8040 C   0  0  0  0  0  0  0  0  0  0  0  0
  -27.1780  -28.7600   20.7930 C   0  0  0  0  0  3  0  0  0  0  0  0
  -26.0170  -26.9560   19.6460 C   0  0  0  0  0  3  0  0  0  0  0  0
  -24.8330  -27.7080   19.6480 C   0  0  0  0  0  3  0  0  0  0  0  0
  -23.5730  -29.8500   20.2560 C   0  0  0  0  0  2  0  0  0  0  0  0
  -24.6200  -31.1430   22.1670 N   0  0  0  0  0  0  0  0  0  0  0  0
  -23.4780  -32.2370   23.7910 O   0  0  0  0  0  0  0  0  0  0  0  0
  -22.7000  -29.5330   22.5940 C   0  0  0  0  0  0  0  0  0  0  0  0
  -21.3740  -29.3570   22.4650 N   0  0  0  0  0  0  0  0  0  0  0  0
  -23.3780  -28.9090   23.4150 O   0  0  0  0  0  0  0  0  0  0  0  0
  -20.8900  -29.9100   21.7700 H   0  0  0  0  0  0  0  0  0  0  0  0
  -17.9920  -28.1900   22.9680 C   0  0  0  0  0  0  0  0  0  0  0  0
  -20.5500  -28.4290   23.2390 C   0  0  0  0  0  3  0  0  0  0  0  0
  -20.6440  -26.9960   22.6670 C   0  0  0  0  0  2  0  0  0  0  0  0
  -19.5380  -26.6770   21.6560 C   0  0  0  0  0  2  0  0  0  0  0  0
  -18.1560  -26.8370   22.3000 C   0  0  0  0  0  2  0  0  0  0  0  0
  -19.1160  -28.9440   23.3960 C   0  0  0  0  0  0  0  0  0  0  0  0
  -18.9070  -30.2130   23.9790 C   0  0  0  0  0  3  0  0  0  0  0  0
  -17.6070  -30.7260   24.1440 C   0  0  0  0  0  3  0  0  0  0  0  0
  -16.4970  -29.9650   23.7380 C   0  0  0  0  0  3  0  0  0  0  0  0
  -16.6910  -28.7000   23.1530 C   0  0  0  0  0  3  0  0  0  0  0  0
  -25.8430  -32.5930   23.8800 C   0  0  0  0  0  3  0  0  0  0  0  0
  -26.3530  -31.8340   25.1660 C   0  0  1  0  0  0  0  0  0  0  0  0
  -25.2560  -31.6110   26.2320 C   0  0  0  0  0  1  0  0  0  0  0  0
  -26.9390  -30.4520   24.7960 C   0  0  0  0  0  1  0  0  0  0  0  0
  -27.4990  -32.6360   25.8290 C   0  0  0  0  0  1  0  0  0  0  0  0
  -25.5370  -33.9930   24.1930 N   0  0  0  0  0  0  0  0  0  0  0  0
  -25.8820  -35.0380   23.4290 C   0  0  0  0  0  0  0  0  0  0  0  0
  -26.5610  -34.9220   22.4040 O   0  0  0  0  0  0  0  0  0  0  0  0
  -24.9360  -34.1560   24.9870 H   0  0  0  0  0  0  0  0  0  0  0  0
  -24.1660  -36.8360   23.0380 C   0  0  0  0  0  1  0  0  0  0  0  0
  -25.3930  -36.4310   23.8700 C   0  0  0  0  0  3  0  0  0  0  0  0
  -27.5210  -37.3100   24.7250 C   0  0  0  0  0  1  0  0  0  0  0  0
  -26.4320  -37.4780   23.7660 N   0  0  0  0  0  0  0  0  0  0  0  0
  -26.0290  -38.4000   23.9020 H   0  0  0  0  0  0  0  0  0  0  0  0
  2  1  1  0
  2 50  1  0
  3  4  2  0
  3  6  1  0
  4  8  1  0
  6  7  2  0
  7  5  1  0
  7 10  1  0
  8  2  1  0
  8  5  2  0
  9  6  1  0
 11  9  1  0
 11 12  1  0
 12 13  1  6
 12 14  1  0
 12 10  1  0
 14 21  2  0
 15 20  1  0
 16 17  1  0
 16 15  1  0
 18 17  1  0
 18 25  1  0
 18 19  1  0
 20 14  1  0
 20 19  1  0
 22 23  2  0
 23 24  1  0
 23 42  1  0
 24 27  1  0
 25 22  1  0
 25 26  1  0
 26 24  2  0
 27 28  1  0
 28 29  2  0
 30 33  1  0
 30 29  1  0
 31 30  2  0
 32 31  1  0
 32 27  2  0
 33 34  1  0
 34 35  1  0
 35 36  2  0
 37 36  1  0
 37 41  1  0
 38 37  2  0
 39 34  2  0
 39 38  1  0
 40 39  1  0
 42 43  1  0
 43 46  1  0
 43 45  1  0
 44 42  2  0
 47 48  1  0
 47 22  1  0
 49 47  1  0
 50 52  1  0
 50 51  1  0
 53 50  1  0
 54 55  1  0
 54 53  1  0
 56 67  2  0
 57 55  1  0
 57 62  1  0
 58 66  1  0
 58 68  1  0
 59 65  1  0
 59 61  1  0
 60 66  1  0
 61 60  1  0
 62 61  2  0
 63 64  1  0
 63 57  2  0
 64 59  2  0
 65 58  1  0
 66 56  1  0
 68 70  2  0
 69 68  1  0
 71 69  1  0
 72 81  2  0
 72 77  1  0
 73 69  1  0
 73 77  1  0
 74 73  1  0
 75 76  1  0
 75 74  1  0
 76 72  1  0
 77 78  2  0
 78 79  1  0
 80 79  2  0
 81 80  1  0
 82 56  1  0
 82 87  1  0
 82 83  1  0
 83 86  1  1
 83 84  1  0
 85 83  1  0
 87 90  1  0
 88 92  1  0
 88 87  1  0
 89 88  2  0
 92 91  1  0
 94 92  1  0
 94 95  1  0
 94 93  1  0
M  ISO  4  12 100  14 100  54 101  55 101
M  END
>  <TORSDO>  (45) 
F 20

>  <SCORE>  (45) 
-13.643

>  <name>  (45) 
44

>  <ligand_id>  (45) 
44

>  <original_smiles>  (45) 
[H]c1c([H])c([H])c2c(c1[H])C([H])([H])C([H])([H])C([H])([H])C2([H])N([H])C(=O)C1([H])N(C(=O)C([H])(N([H])C(=O)C([H])(N([H])C([H])([H])[H])C([H])([H])[H])C(C([H])([H])[H])(C([H])([H])[H])C([H])([H])[H])C([H])([H])c2c([H])c(OC([H])([H])C([H])([H])[N+]([H])([H])C([H])(c3c([H])c([H])c4c(c3[H])C([H])([H])C(C(=O)N3C([H])([H])C([H])([H])C([H])([H])C([H])(n5nc(-c6c([H])c([H])c(Oc7c([H])c([H])c(F)c([H])c7F)c([H])c6[H])c(C(=O)N([H])[H])c5N([H])[H])C3([H])[H])(C([H])([H])[H])C([H])([H])C4([H])[H])C([H])([H])[H])c([H])c([H])c2C1([H])[H]

>  <smiles>  (45) 
[H]c1c([H])c([H])c2c(c1[H])C([H])([H])C([H])([H])C([H])([H])C2([H])N([H])C(=O)C1([H])N(C(=O)C([H])(N([H])C(=O)C([H])(N([H])C([H])([H])[H])C([H])([H])[H])C(C([H])([H])[H])(C([H])([H])[H])C([H])([H])[H])C([H])([H])c2c([H])c(OC([H])([H])C([H])([H])[N+]([H])([H])C([H])(c3c([H])c([H])c4c(c3[H])C([H])([H])C(C(=O)N3C([H])([H])C([H])([H])C([H])([H])C([H])(n5nc(-c6c([H])c([H])c(Oc7c([H])c([H])c(F)c([H])c7F)c([H])c6[H])c(C(=O)N([H])[H])c5N([H])[H])C3([H])[H])(C([H])([H])[H])C([H])([H])C4([H])[H])C([H])([H])[H])c([H])c([H])c2C1([H])[H]

$$$$
45:0:0
     RDKit          3D

 91100  0  0  1  0  0  0  0  0999 V2000
  -27.4720  -22.1500   21.1560 C   0  0  0  0  0  3  0  0  0  0  0  0
  -27.4070  -23.4710   20.5840 C   0  0  0  0  0  3  0  0  0  0  0  0
  -28.9830  -22.5820   19.0120 C   0  0  0  0  0  3  0  0  0  0  0  0
  -28.2750  -21.0500   20.6960 C   0  0  0  0  0  0  0  0  0  0  0  0
  -29.0260  -21.0230   19.5190 C   0  0  0  0  0  0  0  0  0  0  0  0
  -28.1870  -23.9380   19.4860 C   0  0  0  0  0  0  0  0  0  0  0  0
  -28.6640  -19.8710   21.5620 C   0  0  0  0  0  2  0  0  0  0  0  0
  -29.9810  -19.3540   19.4960 C   0  0  0  0  0  3  0  0  0  0  0  0
  -30.0690  -19.3890   21.0580 C   0  0  0  0  0  3  0  0  0  0  0  0
  -30.6390  -16.1240   19.4580 C   0  0  0  0  0  0  0  0  0  0  0  0
  -30.8030  -13.4760   18.8890 C   0  0  0  0  0  2  0  0  0  0  0  0
  -29.8880  -12.8540   17.7920 C   0  0  0  0  0  2  0  0  0  0  0  0
  -28.5070  -12.4930   18.3620 C   0  0  0  0  0  2  0  0  0  0  0  0
  -27.9960  -13.5940   19.3180 C   0  0  0  0  0  3  0  0  0  0  0  0
  -29.0590  -14.1030   20.3230 C   0  0  0  0  0  2  0  0  0  0  0  0
  -30.1480  -14.7260   19.5190 N   0  0  0  0  0  0  0  0  0  0  0  0
  -31.8770  -16.0300   19.3190 O   0  0  0  0  0  0  0  0  0  0  0  0
  -29.8690  -17.5220   19.3690 N   0  0  0  0  0  0  0  0  0  0  0  0
  -28.8850  -17.2880   19.3350 H   0  0  0  0  0  0  0  0  0  0  0  0
  -25.7420  -14.1750   20.3270 C   0  0  0  0  0  0  0  0  0  0  0  0
  -24.6800  -13.4240   20.7430 C   0  0  0  0  0  0  0  0  0  0  0  0
  -25.0760  -12.0590   20.5900 C   0  0  0  0  0  0  0  0  0  0  0  0
  -26.7170  -13.2760   19.9390 N   0  0  0  0  0  0  0  0  0  0  0  0
  -26.3380  -11.9890   20.1650 N   0  0  0  0  0  0  0  0  0  0  0  0
  -24.2980  -10.8240   20.7720 C   0  0  0  0  0  0  0  0  0  0  0  0
  -24.6970   -9.8330   21.6970 C   0  0  0  0  0  3  0  0  0  0  0  0
  -23.9240   -8.6640   21.8720 C   0  0  0  0  0  3  0  0  0  0  0  0
  -22.7370   -8.4770   21.1240 C   0  0  0  0  0  0  0  0  0  0  0  0
  -22.3550   -9.4570   20.1930 C   0  0  0  0  0  3  0  0  0  0  0  0
  -23.1270  -10.6190   20.0150 C   0  0  0  0  0  3  0  0  0  0  0  0
  -21.9370   -7.3630   21.2090 O   0  0  0  0  0  0  0  0  0  0  0  0
  -21.7840   -6.6760   22.3860 C   0  0  0  0  0  0  0  0  0  0  0  0
  -21.2840   -7.2970   23.5520 C   0  0  0  0  0  3  0  0  0  0  0  0
  -21.0760   -6.5380   24.7210 C   0  0  0  0  0  3  0  0  0  0  0  0
  -21.3570   -5.1580   24.7230 C   0  0  0  0  0  0  0  0  0  0  0  0
  -21.8480   -4.5360   23.5610 C   0  0  0  0  0  3  0  0  0  0  0  0
  -22.0590   -5.2930   22.3960 C   0  0  0  0  0  0  0  0  0  0  0  0
  -22.5140   -4.6860   21.2740 F   0  0  0  0  0  0  0  0  0  0  0  0
  -21.1500   -4.4270   25.8440 F   0  0  0  0  0  0  0  0  0  0  0  0
  -23.3360  -13.9500   21.1500 C   0  0  0  0  0  0  0  0  0  0  0  0
  -22.6500  -13.2570   22.0490 N   0  0  0  0  0  0  0  0  0  0  0  0
  -22.9070  -15.0120   20.7010 O   0  0  0  0  0  0  0  0  0  0  0  0
  -23.0100  -12.4000   22.4410 H   0  0  0  0  0  0  0  0  0  0  0  0
  -21.7480  -13.5960   22.3540 H   0  0  0  0  0  0  0  0  0  0  0  0
  -25.9480  -15.5450   20.2110 N   0  0  0  0  0  0  0  0  0  0  0  0
  -25.2070  -16.2090   20.4130 H   0  0  0  0  0  0  0  0  0  0  0  0
  -26.7550  -15.9700   19.7750 H   0  0  0  0  0  0  0  0  0  0  0  0
  -28.1120  -25.5660   19.1770 O   0  0  0  0  0  0  0  0  0  0  0  0
  -24.5720  -31.6090   22.8520 C   0  0  0  0  0  0  0  0  0  0  0  0
  -27.0970  -26.7750   19.3590 C   0  0  0  0  0  0  0  0  0  0  0  0
  -23.3450  -30.2900   21.1820 C   0  0  0  0  0  3  0  0  0  0  0  0
  -24.7680  -28.7900   19.5750 C   0  0  0  0  0  0  0  0  0  0  0  0
  -25.9130  -30.5030   20.9440 C   0  0  0  0  0  2  0  0  0  0  0  0
  -25.9850  -29.1160   20.1810 C   0  0  0  0  0  0  0  0  0  0  0  0
  -27.1220  -28.1400   20.0490 C   0  0  0  0  0  3  0  0  0  0  0  0
  -25.8320  -26.6920   18.7120 C   0  0  0  0  0  3  0  0  0  0  0  0
  -24.7340  -27.6070   18.8150 C   0  0  0  0  0  3  0  0  0  0  0  0
  -23.5370  -29.7010   19.7530 C   0  0  0  0  0  2  0  0  0  0  0  0
  -24.6370  -30.8340   21.7130 N   0  0  0  0  0  0  0  0  0  0  0  0
  -23.4980  -31.8320   23.4380 O   0  0  0  0  0  0  0  0  0  0  0  0
  -22.7130  -29.2190   22.1120 C   0  0  0  0  0  0  0  0  0  0  0  0
  -21.3870  -29.0060   22.0270 N   0  0  0  0  0  0  0  0  0  0  0  0
  -23.4310  -28.5830   22.8870 O   0  0  0  0  0  0  0  0  0  0  0  0
  -20.8490  -29.5710   21.3820 H   0  0  0  0  0  0  0  0  0  0  0  0
  -18.1160  -27.4920   22.4940 C   0  0  0  0  0  0  0  0  0  0  0  0
  -20.6420  -27.9800   22.7690 C   0  0  0  0  0  3  0  0  0  0  0  0
  -20.8700  -26.5780   22.1580 C   0  0  0  0  0  2  0  0  0  0  0  0
  -19.8020  -26.1880   21.1300 C   0  0  0  0  0  2  0  0  0  0  0  0
  -18.4130  -26.1890   21.7710 C   0  0  0  0  0  2  0  0  0  0  0  0
  -19.1620  -28.3410   22.9470 C   0  0  0  0  0  0  0  0  0  0  0  0
  -18.8260  -29.5530   23.5890 C   0  0  0  0  0  3  0  0  0  0  0  0
  -17.4800  -29.9200   23.7800 C   0  0  0  0  0  3  0  0  0  0  0  0
  -16.4510  -29.0700   23.3400 C   0  0  0  0  0  3  0  0  0  0  0  0
  -16.7680  -27.8570   22.7020 C   0  0  0  0  0  3  0  0  0  0  0  0
  -25.8420  -32.2680   23.4720 C   0  0  0  0  0  3  0  0  0  0  0  0
  -25.4780  -33.6110   23.9670 N   0  0  0  0  0  0  0  0  0  0  0  0
  -25.7520  -34.7670   23.3450 C   0  0  0  0  0  0  0  0  0  0  0  0
  -26.3950  -34.8170   22.2950 O   0  0  0  0  0  0  0  0  0  0  0  0
  -24.9060  -33.6430   24.7970 H   0  0  0  0  0  0  0  0  0  0  0  0
  -23.9410  -36.5210   23.2800 C   0  0  0  0  0  1  0  0  0  0  0  0
  -25.2310  -36.0730   23.9870 C   0  0  0  0  0  3  0  0  0  0  0  0
  -27.3630  -36.9480   24.8420 C   0  0  0  0  0  1  0  0  0  0  0  0
  -26.2160  -37.1770   23.9660 N   0  0  0  0  0  0  0  0  0  0  0  0
  -25.7800  -38.0540   24.2400 H   0  0  0  0  0  0  0  0  0  0  0  0
  -26.4650  -31.4200   24.6500 C   0  0  1  0  0  0  0  0  0  0  0  0
  -25.4490  -31.0440   25.7550 C   0  0  0  0  0  1  0  0  0  0  0  0
  -27.0810  -30.1050   24.1240 C   0  0  0  0  0  1  0  0  0  0  0  0
  -27.6220  -32.2100   25.3090 C   0  0  0  0  0  1  0  0  0  0  0  0
  -31.2120  -20.3050   21.5710 C   0  0  0  0  0  2  0  0  0  0  0  0
  -31.4780  -20.0420   22.9430 O   0  0  0  0  0  0  0  0  0  0  0  0
  -32.1820  -20.6190   23.2330 H   0  0  0  0  0  0  0  0  0  0  0  0
  2  1  2  0
  3  6  2  0
  3  5  1  0
  4  1  1  0
  4  7  1  0
  5  4  2  0
  6  2  1  0
  8 18  1  0
  8  5  1  0
  8  9  1  0
  9  7  1  0
  9 89  1  0
 10 16  1  0
 11 16  1  0
 12 13  1  0
 12 11  1  0
 14 13  1  0
 14 23  1  0
 14 15  1  0
 16 15  1  0
 17 10  2  0
 18 10  1  0
 19 18  1  0
 20 21  2  0
 21 40  1  0
 22 21  1  0
 22 25  1  0
 23 24  1  0
 23 20  1  0
 24 22  2  0
 25 26  1  0
 26 27  2  0
 28 31  1  0
 28 27  1  0
 29 28  2  0
 30 29  1  0
 30 25  2  0
 31 32  1  0
 32 37  2  0
 32 33  1  0
 33 34  2  0
 34 35  1  0
 35 39  1  0
 36 35  2  0
 37 36  1  0
 38 37  1  0
 40 41  1  0
 41 44  1  0
 41 43  1  0
 42 40  2  0
 45 20  1  0
 45 46  1  0
 47 45  1  0
 48 50  1  0
 48  6  1  0
 49 60  2  0
 50 55  1  0
 51 59  1  0
 51 61  1  0
 52 58  1  0
 52 54  1  0
 53 59  1  0
 54 53  1  0
 55 54  2  0
 56 57  1  0
 56 50  2  0
 57 52  2  0
 58 51  1  0
 59 49  1  0
 61 63  2  0
 62 61  1  0
 64 62  1  0
 65 74  2  0
 65 70  1  0
 66 62  1  0
 66 70  1  0
 67 66  1  0
 68 69  1  0
 68 67  1  0
 69 65  1  0
 70 71  2  0
 71 72  1  0
 73 72  2  0
 74 73  1  0
 75 49  1  0
 75 76  1  0
 75 85  1  0
 76 79  1  0
 77 76  1  0
 77 81  1  0
 78 77  2  0
 81 80  1  0
 83 81  1  0
 83 84  1  0
 83 82  1  0
 85 88  1  1
 85 86  1  0
 87 85  1  0
 89 90  1  0
 90 91  1  0
M  ISO  4   6 101  10 100  18 100  48 101
M  END
>  <TORSDO>  (46) 
F 18

>  <SCORE>  (46) 
-13.829

>  <name>  (46) 
45

>  <ligand_id>  (46) 
45

>  <original_smiles>  (46) 
[H]OC([H])([H])C1([H])C([H])([H])c2c([H])c([H])c(Oc3c([H])c([H])c4c(c3[H])C([H])([H])N(C(=O)C([H])(N([H])C(=O)C([H])(N([H])C([H])([H])[H])C([H])([H])[H])C(C([H])([H])[H])(C([H])([H])[H])C([H])([H])[H])C([H])(C(=O)N([H])C3([H])c5c([H])c([H])c([H])c([H])c5C([H])([H])C([H])([H])C3([H])[H])C4([H])[H])c([H])c2C1([H])N([H])C(=O)N1C([H])([H])C([H])([H])C([H])([H])C([H])(n2nc(-c3c([H])c([H])c(Oc4c([H])c([H])c(F)c([H])c4F)c([H])c3[H])c(C(=O)N([H])[H])c2N([H])[H])C1([H])[H]

>  <smiles>  (46) 
[H]OC([H])([H])C1([H])C([H])([H])c2c([H])c([H])c(Oc3c([H])c([H])c4c(c3[H])C([H])([H])N(C(=O)C([H])(N([H])C(=O)C([H])(N([H])C([H])([H])[H])C([H])([H])[H])C(C([H])([H])[H])(C([H])([H])[H])C([H])([H])[H])C([H])(C(=O)N([H])C3([H])c5c([H])c([H])c([H])c([H])c5C([H])([H])C([H])([H])C3([H])[H])C4([H])[H])c([H])c2C1([H])N([H])C(=O)N1C([H])([H])C([H])([H])C([H])([H])C([H])(n2nc(-c3c([H])c([H])c(Oc4c([H])c([H])c(F)c([H])c4F)c([H])c3[H])c(C(=O)N([H])[H])c2N([H])[H])C1([H])[H]

$$$$
46:0:0
     RDKit          3D

 87 96  0  0  1  0  0  0  0  0999 V2000
  -30.3630  -19.1080   19.8770 C   0  0  0  0  0  3  0  0  0  0  0  0
  -29.8430  -17.6960   19.9030 C   0  0  0  0  0  0  0  0  0  0  0  0
  -28.2910  -17.9980   19.8490 C   0  0  0  0  0  2  0  0  0  0  0  0
  -27.7240  -19.4920   19.3520 C   0  0  0  0  0  2  0  0  0  0  0  0
  -29.9240  -22.4940   19.5050 C   0  0  0  0  0  2  0  0  0  0  0  0
  -27.6210  -22.4830   19.5900 C   0  0  0  0  0  2  0  0  0  0  0  0
  -29.6530  -20.7860   20.0190 C   0  0  0  0  0  3  0  0  0  0  0  0
  -28.6690  -23.7790   19.3460 C   0  0  0  0  0  3  0  0  0  0  0  0
  -28.1290  -20.8980   20.0710 C   0  0  2  0  0  0  0  0  0  0  0  0
  -27.6420  -20.7710   21.5290 C   0  0  0  0  0  1  0  0  0  0  0  0
  -30.5740  -16.0780   19.9570 C   0  0  0  0  0  0  0  0  0  0  0  0
  -30.7160  -13.4200   19.4290 C   0  0  0  0  0  2  0  0  0  0  0  0
  -29.8850  -12.8570   18.2380 C   0  0  0  0  0  2  0  0  0  0  0  0
  -28.4560  -12.5110   18.6730 C   0  0  0  0  0  2  0  0  0  0  0  0
  -27.8960  -13.5910   19.6220 C   0  0  0  0  0  3  0  0  0  0  0  0
  -28.8810  -14.0760   20.7120 C   0  0  0  0  0  2  0  0  0  0  0  0
  -30.0570  -14.6840   20.0340 N   0  0  0  0  0  0  0  0  0  0  0  0
  -31.8070  -15.9150   19.8220 O   0  0  0  0  0  0  0  0  0  0  0  0
  -25.5580  -14.1630   20.4060 C   0  0  0  0  0  0  0  0  0  0  0  0
  -24.4820  -13.4100   20.7780 C   0  0  0  0  0  0  0  0  0  0  0  0
  -24.9180  -12.0500   20.7380 C   0  0  0  0  0  0  0  0  0  0  0  0
  -26.5790  -13.2700   20.1520 N   0  0  0  0  0  0  0  0  0  0  0  0
  -26.2100  -11.9880   20.4190 N   0  0  0  0  0  0  0  0  0  0  0  0
  -24.1530  -10.8080   20.9260 C   0  0  0  0  0  0  0  0  0  0  0  0
  -24.5400   -9.8360   21.8750 C   0  0  0  0  0  3  0  0  0  0  0  0
  -23.7730   -8.6630   22.0520 C   0  0  0  0  0  3  0  0  0  0  0  0
  -22.6030   -8.4550   21.2800 C   0  0  0  0  0  0  0  0  0  0  0  0
  -22.2360   -9.4140   20.3210 C   0  0  0  0  0  3  0  0  0  0  0  0
  -23.0020  -10.5800   20.1430 C   0  0  0  0  0  3  0  0  0  0  0  0
  -21.8110   -7.3350   21.3650 O   0  0  0  0  0  0  0  0  0  0  0  0
  -21.7070   -6.6140   22.5280 C   0  0  0  0  0  0  0  0  0  0  0  0
  -21.2350   -7.1930   23.7260 C   0  0  0  0  0  3  0  0  0  0  0  0
  -21.0800   -6.3990   24.8790 C   0  0  0  0  0  3  0  0  0  0  0  0
  -21.3840   -5.0240   24.8340 C   0  0  0  0  0  0  0  0  0  0  0  0
  -21.8500   -4.4450   23.6400 C   0  0  0  0  0  3  0  0  0  0  0  0
  -22.0080   -5.2370   22.4900 C   0  0  0  0  0  0  0  0  0  0  0  0
  -22.4350   -4.6690   21.3360 F   0  0  0  0  0  0  0  0  0  0  0  0
  -21.2260   -4.2590   25.9390 F   0  0  0  0  0  0  0  0  0  0  0  0
  -23.0990  -13.9260   21.0430 C   0  0  0  0  0  0  0  0  0  0  0  0
  -22.3490  -13.2550   21.9090 N   0  0  0  0  0  0  0  0  0  0  0  0
  -22.6940  -14.9630   20.5190 O   0  0  0  0  0  0  0  0  0  0  0  0
  -22.6910  -12.4230   22.3650 H   0  0  0  0  0  0  0  0  0  0  0  0
  -21.4180  -13.5840   22.1260 H   0  0  0  0  0  0  0  0  0  0  0  0
  -25.7480  -15.5300   20.2280 N   0  0  0  0  0  0  0  0  0  0  0  0
  -24.9860  -16.1920   20.3240 H   0  0  0  0  0  0  0  0  0  0  0  0
  -26.5910  -15.9420   19.8550 H   0  0  0  0  0  0  0  0  0  0  0  0
  -28.5830  -25.5950   19.5770 O   0  0  0  0  0  0  0  0  0  0  0  0
  -24.8770  -31.6110   23.0250 C   0  0  0  0  0  0  0  0  0  0  0  0
  -27.5750  -26.8190   19.5900 C   0  0  0  0  0  0  0  0  0  0  0  0
  -23.7430  -30.3230   21.2660 C   0  0  0  0  0  3  0  0  0  0  0  0
  -25.2480  -28.8410   19.7130 C   0  0  0  0  0  0  0  0  0  0  0  0
  -26.3200  -30.5310   21.1760 C   0  0  0  0  0  2  0  0  0  0  0  0
  -26.4320  -29.1580   20.3880 C   0  0  0  0  0  0  0  0  0  0  0  0
  -27.5690  -28.1780   20.2970 C   0  0  0  0  0  3  0  0  0  0  0  0
  -26.3500  -26.7470   18.8720 C   0  0  0  0  0  3  0  0  0  0  0  0
  -25.2520  -27.6680   18.9330 C   0  0  0  0  0  3  0  0  0  0  0  0
  -24.0120  -29.7530   19.8410 C   0  0  0  0  0  2  0  0  0  0  0  0
  -25.0040  -30.8540   21.8780 N   0  0  0  0  0  0  0  0  0  0  0  0
  -23.7710  -31.8300   23.5510 O   0  0  0  0  0  0  0  0  0  0  0  0
  -23.0530  -29.2450   22.1460 C   0  0  0  0  0  0  0  0  0  0  0  0
  -21.7220  -29.0780   22.0260 N   0  0  0  0  0  0  0  0  0  0  0  0
  -23.7290  -28.5600   22.9180 O   0  0  0  0  0  0  0  0  0  0  0  0
  -21.2220  -29.6860   21.3910 H   0  0  0  0  0  0  0  0  0  0  0  0
  -18.3550  -27.8000   22.5340 C   0  0  0  0  0  0  0  0  0  0  0  0
  -20.9250  -28.0510   22.7090 C   0  0  0  0  0  3  0  0  0  0  0  0
  -20.9970  -26.7000   21.9580 C   0  0  0  0  0  2  0  0  0  0  0  0
  -19.8510  -26.5010   20.9620 C   0  0  0  0  0  2  0  0  0  0  0  0
  -18.4990  -26.5530   21.6790 C   0  0  0  0  0  2  0  0  0  0  0  0
  -19.4900  -28.5130   23.0040 C   0  0  0  0  0  0  0  0  0  0  0  0
  -19.2930  -29.6810   23.7710 C   0  0  0  0  0  3  0  0  0  0  0  0
  -17.9950  -30.1380   24.0680 C   0  0  0  0  0  3  0  0  0  0  0  0
  -16.8760  -29.4230   23.6080 C   0  0  0  0  0  3  0  0  0  0  0  0
  -17.0570  -28.2540   22.8480 C   0  0  0  0  0  3  0  0  0  0  0  0
  -26.1100  -32.2510   23.7330 C   0  0  0  0  0  3  0  0  0  0  0  0
  -25.7180  -33.5840   24.2370 N   0  0  0  0  0  0  0  0  0  0  0  0
  -25.9780  -34.7490   23.6290 C   0  0  0  0  0  0  0  0  0  0  0  0
  -26.6260  -34.8190   22.5830 O   0  0  0  0  0  0  0  0  0  0  0  0
  -25.1370  -33.5970   25.0620 H   0  0  0  0  0  0  0  0  0  0  0  0
  -24.1440  -36.4780   23.5710 C   0  0  0  0  0  1  0  0  0  0  0  0
  -25.4370  -36.0430   24.2790 C   0  0  0  0  0  3  0  0  0  0  0  0
  -27.5460  -36.9520   25.1530 C   0  0  0  0  0  1  0  0  0  0  0  0
  -26.4060  -37.1620   24.2650 N   0  0  0  0  0  0  0  0  0  0  0  0
  -25.9540  -38.0340   24.5280 H   0  0  0  0  0  0  0  0  0  0  0  0
  -26.6590  -31.3750   24.9280 C   0  0  1  0  0  0  0  0  0  0  0  0
  -25.5780  -30.9830   25.9650 C   0  0  0  0  0  1  0  0  0  0  0  0
  -27.3010  -30.0690   24.4120 C   0  0  0  0  0  1  0  0  0  0  0  0
  -27.7760  -32.1450   25.6710 C   0  0  0  0  0  1  0  0  0  0  0  0
  1  2  2  0
  1  7  1  0
  2 11  1  0
  3  2  1  0
  4  3  1  0
  4  9  1  0
  6  9  1  0
  7  5  1  0
  7  9  1  0
  8  5  1  0
  8 47  1  0
  8  6  1  0
  9 10  1  1
 11 17  1  0
 12 17  1  0
 13 14  1  0
 13 12  1  0
 15 14  1  0
 15 22  1  0
 15 16  1  0
 17 16  1  0
 18 11  2  0
 19 20  2  0
 20 39  1  0
 21 20  1  0
 21 24  1  0
 22 19  1  0
 22 23  1  0
 23 21  2  0
 24 25  1  0
 25 26  2  0
 27 30  1  0
 27 26  1  0
 28 27  2  0
 29 28  1  0
 29 24  2  0
 30 31  1  0
 31 32  1  0
 32 33  2  0
 34 33  1  0
 34 38  1  0
 35 34  2  0
 36 31  2  0
 36 35  1  0
 37 36  1  0
 39 40  1  0
 40 43  1  0
 40 42  1  0
 41 39  2  0
 44 45  1  0
 44 19  1  0
 46 44  1  0
 47 49  1  0
 48 59  2  0
 49 54  1  0
 50 58  1  0
 50 60  1  0
 51 57  1  0
 51 53  1  0
 52 58  1  0
 53 52  1  0
 54 53  2  0
 55 56  1  0
 55 49  2  0
 56 51  2  0
 57 50  1  0
 58 48  1  0
 60 62  2  0
 61 60  1  0
 63 61  1  0
 64 73  2  0
 64 69  1  0
 65 61  1  0
 65 69  1  0
 66 65  1  0
 67 68  1  0
 67 66  1  0
 68 64  1  0
 69 70  2  0
 70 71  1  0
 72 71  2  0
 73 72  1  0
 74 48  1  0
 74 75  1  0
 74 84  1  0
 75 78  1  0
 76 75  1  0
 76 80  1  0
 77 76  2  0
 80 79  1  0
 82 80  1  0
 82 83  1  0
 82 81  1  0
 84 87  1  1
 84 85  1  0
 86 84  1  0
M  ISO  4   2 100   8 101  11 100  47 101
M  END
>  <TORSDO>  (47) 
F 16

>  <SCORE>  (47) 
-13.994

>  <name>  (47) 
46

>  <ligand_id>  (47) 
46

>  <original_smiles>  (47) 
[H]C1=C(C(=O)N2C([H])([H])C([H])([H])C([H])([H])C([H])(n3nc(-c4c([H])c([H])c(Oc5c([H])c([H])c(F)c([H])c5F)c([H])c4[H])c(C(=O)N([H])[H])c3N([H])[H])C2([H])[H])C([H])([H])C([H])([H])C2(C([H])([H])[H])C([H])([H])C([H])(Oc3c([H])c([H])c4c(c3[H])C([H])([H])N(C(=O)C([H])(N([H])C(=O)C([H])(N([H])C([H])([H])[H])C([H])([H])[H])C(C([H])([H])[H])(C([H])([H])[H])C([H])([H])[H])C([H])(C(=O)N([H])C3([H])c5c([H])c([H])c([H])c([H])c5C([H])([H])C([H])([H])C3([H])[H])C4([H])[H])C([H])([H])C12[H]

>  <smiles>  (47) 
[H]C1=C(C(=O)N2C([H])([H])C([H])([H])C([H])([H])C([H])(n3nc(-c4c([H])c([H])c(Oc5c([H])c([H])c(F)c([H])c5F)c([H])c4[H])c(C(=O)N([H])[H])c3N([H])[H])C2([H])[H])C([H])([H])C([H])([H])C2(C([H])([H])[H])C([H])([H])C([H])(Oc3c([H])c([H])c4c(c3[H])C([H])([H])N(C(=O)C([H])(N([H])C(=O)C([H])(N([H])C([H])([H])[H])C([H])([H])[H])C(C([H])([H])[H])(C([H])([H])[H])C([H])([H])[H])C([H])(C(=O)N([H])C3([H])c5c([H])c([H])c([H])c([H])c5C([H])([H])C([H])([H])C3([H])[H])C4([H])[H])C([H])([H])C12[H]

$$$$
47:0:0
     RDKit          3D

 91100  0  0  1  0  0  0  0  0999 V2000
  -29.5320  -19.8040   21.6580 C   0  0  0  0  0  3  0  0  0  0  0  0
  -29.2870  -21.1580   22.1130 C   0  0  0  0  0  3  0  0  0  0  0  0
  -29.2150  -20.5750   19.4150 C   0  0  0  0  0  3  0  0  0  0  0  0
  -29.5420  -19.4000   20.2840 C   0  0  0  0  0  0  0  0  0  0  0  0
  -29.0050  -22.2490   21.2310 C   0  0  0  0  0  0  0  0  0  0  0  0
  -28.9240  -21.9660   19.8840 C   0  0  0  0  0  0  0  0  0  0  0  0
  -28.7710  -23.7880   21.5320 C   0  0  0  0  0  2  0  0  0  0  0  0
  -28.5390  -23.3780   19.1980 C   0  0  0  0  0  2  0  0  0  0  0  0
  -28.0420  -24.5280   20.2980 C   0  0  1  0  0  0  0  0  0  0  0  0
  -26.5480  -24.2200   20.5690 C   0  0  0  0  0  1  0  0  0  0  0  0
  -30.5620  -15.3260   20.0000 C   0  0  0  0  0  0  0  0  0  0  0  0
  -30.4270  -12.9200   19.1330 C   0  0  0  0  0  2  0  0  0  0  0  0
  -29.4590  -12.8160   17.9290 C   0  0  0  0  0  2  0  0  0  0  0  0
  -28.0220  -12.5740   18.4160 C   0  0  0  0  0  2  0  0  0  0  0  0
  -27.6390  -13.5080   19.5940 C   0  0  0  0  0  3  0  0  0  0  0  0
  -28.7340  -13.5960   20.6800 C   0  0  0  0  0  2  0  0  0  0  0  0
  -29.9680  -14.0460   20.0190 N   0  0  0  0  0  0  0  0  0  0  0  0
  -31.7420  -15.3140   19.6280 O   0  0  0  0  0  0  0  0  0  0  0  0
  -30.1260  -17.9370   19.7990 C   0  0  0  0  0  0  0  0  0  0  0  0
  -29.8570  -16.5810   20.2420 N   0  0  0  0  0  0  0  0  0  0  0  0
  -30.9340  -18.0630   18.8730 O   0  0  0  0  0  0  0  0  0  0  0  0
  -29.0140  -16.4910   20.7840 H   0  0  0  0  0  0  0  0  0  0  0  0
  -25.3090  -14.0570   20.4780 C   0  0  0  0  0  0  0  0  0  0  0  0
  -24.2590  -13.2750   20.8700 C   0  0  0  0  0  0  0  0  0  0  0  0
  -24.7130  -11.9230   20.7630 C   0  0  0  0  0  0  0  0  0  0  0  0
  -26.3310  -13.1860   20.1500 N   0  0  0  0  0  0  0  0  0  0  0  0
  -25.9870  -11.8930   20.3870 N   0  0  0  0  0  0  0  0  0  0  0  0
  -23.9840  -10.6590   20.9400 C   0  0  0  0  0  0  0  0  0  0  0  0
  -24.4340   -9.6650   21.8380 C   0  0  0  0  0  3  0  0  0  0  0  0
  -23.7040   -8.4690   22.0060 C   0  0  0  0  0  3  0  0  0  0  0  0
  -22.5100   -8.2580   21.2760 C   0  0  0  0  0  0  0  0  0  0  0  0
  -22.0790   -9.2400   20.3670 C   0  0  0  0  0  3  0  0  0  0  0  0
  -22.8090  -10.4280   20.1970 C   0  0  0  0  0  3  0  0  0  0  0  0
  -21.7490   -7.1150   21.3560 O   0  0  0  0  0  0  0  0  0  0  0  0
  -21.7080   -6.3550   22.4980 C   0  0  0  0  0  0  0  0  0  0  0  0
  -21.2530   -6.8800   23.7260 C   0  0  0  0  0  3  0  0  0  0  0  0
  -21.1620   -6.0450   24.8580 C   0  0  0  0  0  3  0  0  0  0  0  0
  -21.5170   -4.6870   24.7610 C   0  0  0  0  0  0  0  0  0  0  0  0
  -21.9640   -4.1610   23.5370 C   0  0  0  0  0  3  0  0  0  0  0  0
  -22.0580   -4.9930   22.4080 C   0  0  0  0  0  0  0  0  0  0  0  0
  -22.4690   -4.4760   21.2250 F   0  0  0  0  0  0  0  0  0  0  0  0
  -21.4220   -3.8820   25.8460 F   0  0  0  0  0  0  0  0  0  0  0  0
  -22.8820  -13.7500   21.2250 C   0  0  0  0  0  0  0  0  0  0  0  0
  -22.1930  -13.0290   22.1030 N   0  0  0  0  0  0  0  0  0  0  0  0
  -22.4280  -14.7950   20.7610 O   0  0  0  0  0  0  0  0  0  0  0  0
  -22.5760  -12.1840   22.4990 H   0  0  0  0  0  0  0  0  0  0  0  0
  -21.2690  -13.3290   22.3830 H   0  0  0  0  0  0  0  0  0  0  0  0
  -25.4740  -15.4340   20.3450 N   0  0  0  0  0  0  0  0  0  0  0  0
  -24.7150  -16.0860   20.5140 H   0  0  0  0  0  0  0  0  0  0  0  0
  -26.2980  -15.8790   19.9630 H   0  0  0  0  0  0  0  0  0  0  0  0
  -28.2130  -26.1470   20.1410 O   0  0  0  0  0  0  0  0  0  0  0  0
  -24.6230  -31.9450   23.2250 C   0  0  0  0  0  0  0  0  0  0  0  0
  -27.1830  -27.2050   20.0980 C   0  0  0  0  0  0  0  0  0  0  0  0
  -23.4220  -30.5730   21.5710 C   0  0  0  0  0  3  0  0  0  0  0  0
  -24.8700  -29.0290   20.1000 C   0  0  0  0  0  0  0  0  0  0  0  0
  -25.9810  -30.8220   21.4070 C   0  0  0  0  0  2  0  0  0  0  0  0
  -26.0530  -29.4330   20.7310 C   0  0  0  0  0  0  0  0  0  0  0  0
  -27.2030  -28.5370   20.7190 C   0  0  0  0  0  3  0  0  0  0  0  0
  -26.0010  -26.9820   19.3580 C   0  0  0  0  0  3  0  0  0  0  0  0
  -24.8650  -27.8200   19.3910 C   0  0  0  0  0  3  0  0  0  0  0  0
  -23.6410  -29.9270   20.1770 C   0  0  0  0  0  2  0  0  0  0  0  0
  -24.6960  -31.1380   22.1210 N   0  0  0  0  0  0  0  0  0  0  0  0
  -23.5380  -32.2150   23.7630 O   0  0  0  0  0  0  0  0  0  0  0  0
  -22.7530  -29.5450   22.5200 C   0  0  0  0  0  0  0  0  0  0  0  0
  -21.4280  -29.3510   22.3860 N   0  0  0  0  0  0  0  0  0  0  0  0
  -23.4310  -28.9250   23.3440 O   0  0  0  0  0  0  0  0  0  0  0  0
  -20.9350  -29.9030   21.7000 H   0  0  0  0  0  0  0  0  0  0  0  0
  -18.0710  -28.0650   22.8610 C   0  0  0  0  0  0  0  0  0  0  0  0
  -20.6220  -28.3900   23.1450 C   0  0  0  0  0  3  0  0  0  0  0  0
  -20.7610  -26.9630   22.5640 C   0  0  0  0  0  2  0  0  0  0  0  0
  -19.6750  -26.6210   21.5400 C   0  0  0  0  0  2  0  0  0  0  0  0
  -18.2850  -26.7270   22.1750 C   0  0  0  0  0  2  0  0  0  0  0  0
  -19.1680  -28.8530   23.3030 C   0  0  0  0  0  0  0  0  0  0  0  0
  -18.9130  -30.1030   23.9070 C   0  0  0  0  0  3  0  0  0  0  0  0
  -17.5940  -30.5670   24.0730 C   0  0  0  0  0  3  0  0  0  0  0  0
  -16.5120  -29.7790   23.6450 C   0  0  0  0  0  3  0  0  0  0  0  0
  -16.7520  -28.5290   23.0460 C   0  0  0  0  0  3  0  0  0  0  0  0
  -25.8990  -32.5830   23.8540 C   0  0  0  0  0  3  0  0  0  0  0  0
  -25.5880  -33.9850   24.1790 N   0  0  0  0  0  0  0  0  0  0  0  0
  -25.9130  -35.0390   23.4190 C   0  0  0  0  0  0  0  0  0  0  0  0
  -26.5720  -34.9350   22.3820 O   0  0  0  0  0  0  0  0  0  0  0  0
  -25.0000  -34.1400   24.9850 H   0  0  0  0  0  0  0  0  0  0  0  0
  -24.1840  -36.8400   23.0860 C   0  0  0  0  0  1  0  0  0  0  0  0
  -25.4340  -36.4310   23.8830 C   0  0  0  0  0  3  0  0  0  0  0  0
  -27.5720  -37.3230   24.6980 C   0  0  0  0  0  1  0  0  0  0  0  0
  -26.4670  -37.4820   23.7570 N   0  0  0  0  0  0  0  0  0  0  0  0
  -26.0610  -38.4040   23.8960 H   0  0  0  0  0  0  0  0  0  0  0  0
  -26.4000  -31.8220   25.1430 C   0  0  1  0  0  0  0  0  0  0  0  0
  -25.2950  -31.5900   26.1990 C   0  0  0  0  0  1  0  0  0  0  0  0
  -26.9920  -30.4410   24.7760 C   0  0  0  0  0  1  0  0  0  0  0  0
  -27.5410  -32.6230   25.8130 C   0  0  0  0  0  1  0  0  0  0  0  0
  1  2  1  0
  3  6  2  0
  3  4  1  0
  4  1  2  0
  5  7  1  0
  5  2  2  0
  6  5  1  0
  8  6  1  0
  8  9  1  0
  9 10  1  1
  9  7  1  0
 11 17  1  0
 11 20  1  0
 12 17  1  0
 13 14  1  0
 13 12  1  0
 15 14  1  0
 15 26  1  0
 15 16  1  0
 17 16  1  0
 18 11  2  0
 19 20  1  0
 19  4  1  0
 20 22  1  0
 21 19  2  0
 23 24  2  0
 24 43  1  0
 25 24  1  0
 25 28  1  0
 26 27  1  0
 26 23  1  0
 27 25  2  0
 28 29  1  0
 29 30  2  0
 31 34  1  0
 31 30  1  0
 32 31  2  0
 33 32  1  0
 33 28  2  0
 34 35  1  0
 35 36  1  0
 36 37  2  0
 38 37  1  0
 38 42  1  0
 39 38  2  0
 40 35  2  0
 40 39  1  0
 41 40  1  0
 43 44  1  0
 44 47  1  0
 44 46  1  0
 45 43  2  0
 48 23  1  0
 48 49  1  0
 50 48  1  0
 51  9  1  0
 52 63  2  0
 53 51  1  0
 53 58  1  0
 54 62  1  0
 54 64  1  0
 55 61  1  0
 55 57  1  0
 56 62  1  0
 57 56  1  0
 58 57  2  0
 59 60  1  0
 59 53  2  0
 60 55  2  0
 61 54  1  0
 62 52  1  0
 64 66  2  0
 65 64  1  0
 67 65  1  0
 68 77  2  0
 68 73  1  0
 69 65  1  0
 69 73  1  0
 70 69  1  0
 71 72  1  0
 71 70  1  0
 72 68  1  0
 73 74  2  0
 74 75  1  0
 76 75  2  0
 77 76  1  0
 78 52  1  0
 78 79  1  0
 78 88  1  0
 79 82  1  0
 80 84  1  0
 80 79  1  0
 81 80  2  0
 84 83  1  0
 86 84  1  0
 86 87  1  0
 86 85  1  0
 88 91  1  1
 88 89  1  0
 90 88  1  0
M  ISO  4   9 101  11 100  20 100  51 101
M  END
>  <TORSDO>  (48) 
F 16

>  <SCORE>  (48) 
-14.968

>  <name>  (48) 
47

>  <ligand_id>  (48) 
47

>  <original_smiles>  (48) 
[H]c1c([H])c([H])c2c(c1[H])C([H])([H])C([H])([H])C([H])([H])C2([H])N([H])C(=O)C1([H])N(C(=O)C([H])(N([H])C(=O)C([H])(N([H])C([H])([H])[H])C([H])([H])[H])C(C([H])([H])[H])(C([H])([H])[H])C([H])([H])[H])C([H])([H])c2c([H])c(OC3(C([H])([H])[H])C([H])([H])c4c([H])c([H])c(C(=O)N([H])C(=O)N5C([H])([H])C([H])([H])C([H])([H])C([H])(n6nc(-c7c([H])c([H])c(Oc8c([H])c([H])c(F)c([H])c8F)c([H])c7[H])c(C(=O)N([H])[H])c6N([H])[H])C5([H])[H])c([H])c4C3([H])[H])c([H])c([H])c2C1([H])[H]

>  <smiles>  (48) 
[H]c1c([H])c([H])c2c(c1[H])C([H])([H])C([H])([H])C([H])([H])C2([H])N([H])C(=O)C1([H])N(C(=O)C([H])(N([H])C(=O)C([H])(N([H])C([H])([H])[H])C([H])([H])[H])C(C([H])([H])[H])(C([H])([H])[H])C([H])([H])[H])C([H])([H])c2c([H])c(OC3(C([H])([H])[H])C([H])([H])c4c([H])c([H])c(C(=O)N([H])C(=O)N5C([H])([H])C([H])([H])C([H])([H])C([H])(n6nc(-c7c([H])c([H])c(Oc8c([H])c([H])c(F)c([H])c8F)c([H])c7[H])c(C(=O)N([H])[H])c6N([H])[H])C5([H])[H])c([H])c4C3([H])[H])c([H])c([H])c2C1([H])[H]

$$$$
48:0:0
     RDKit          3D

 94102  0  0  1  0  0  0  0  0999 V2000
  -31.0920  -24.3320   20.8980 C   0  0  0  0  0  3  0  0  0  0  0  0
  -30.5560  -23.0420   20.9750 C   0  0  0  0  0  3  0  0  0  0  0  0
  -30.2820  -25.4260   20.5900 C   0  0  0  0  0  3  0  0  0  0  0  0
  -29.1970  -22.7690   20.6920 C   0  0  0  0  0  0  0  0  0  0  0  0
  -28.3540  -23.9380   20.3880 C   0  0  0  0  0  0  0  0  0  0  0  0
  -28.9020  -25.3010   20.3460 C   0  0  0  0  0  0  0  0  0  0  0  0
  -26.8730  -23.7450   20.1090 C   0  0  0  0  0  1  0  0  0  0  0  0
  -28.3890  -26.5610   19.9160 O   0  0  0  0  0  0  0  0  0  0  0  0
  -24.6250  -31.8840   23.2140 C   0  0  0  0  0  0  0  0  0  0  0  0
  -27.2070  -27.2800   20.1570 C   0  0  0  0  0  0  0  0  0  0  0  0
  -23.4060  -30.4840   21.5850 C   0  0  0  0  0  3  0  0  0  0  0  0
  -24.8410  -28.9120   20.1680 C   0  0  0  0  0  0  0  0  0  0  0  0
  -25.9470  -30.7790   21.3970 C   0  0  0  0  0  2  0  0  0  0  0  0
  -26.0150  -29.3910   20.7710 C   0  0  0  0  0  0  0  0  0  0  0  0
  -27.1960  -28.5820   20.7630 C   0  0  0  0  0  3  0  0  0  0  0  0
  -26.0220  -26.8750   19.5180 C   0  0  0  0  0  3  0  0  0  0  0  0
  -24.8490  -27.6570   19.5380 C   0  0  0  0  0  3  0  0  0  0  0  0
  -23.6130  -29.8020   20.2090 C   0  0  0  0  0  2  0  0  0  0  0  0
  -24.6800  -31.0700   22.1200 N   0  0  0  0  0  0  0  0  0  0  0  0
  -23.5490  -32.1680   23.7560 O   0  0  0  0  0  0  0  0  0  0  0  0
  -22.7520  -29.4730   22.5530 C   0  0  0  0  0  0  0  0  0  0  0  0
  -21.4230  -29.2970   22.4390 N   0  0  0  0  0  0  0  0  0  0  0  0
  -23.4320  -28.8460   23.3670 O   0  0  0  0  0  0  0  0  0  0  0  0
  -20.9290  -29.8560   21.7550 H   0  0  0  0  0  0  0  0  0  0  0  0
  -18.0500  -28.1010   22.9640 C   0  0  0  0  0  0  0  0  0  0  0  0
  -20.6090  -28.3620   23.2170 C   0  0  0  0  0  3  0  0  0  0  0  0
  -20.7070  -26.9280   22.6480 C   0  0  0  0  0  2  0  0  0  0  0  0
  -19.6010  -26.6010   21.6410 C   0  0  0  0  0  2  0  0  0  0  0  0
  -18.2230  -26.7490   22.2920 C   0  0  0  0  0  2  0  0  0  0  0  0
  -19.1720  -28.8660   23.3840 C   0  0  0  0  0  0  0  0  0  0  0  0
  -18.9560  -30.1310   23.9720 C   0  0  0  0  0  3  0  0  0  0  0  0
  -17.6540  -30.6330   24.1440 C   0  0  0  0  0  3  0  0  0  0  0  0
  -16.5460  -29.8670   23.7410 C   0  0  0  0  0  3  0  0  0  0  0  0
  -16.7460  -28.6020   23.1570 C   0  0  0  0  0  3  0  0  0  0  0  0
  -25.9160  -32.5180   23.8230 C   0  0  0  0  0  3  0  0  0  0  0  0
  -25.6030  -33.9100   24.1680 N   0  0  0  0  0  0  0  0  0  0  0  0
  -25.9160  -34.9730   23.4150 C   0  0  0  0  0  0  0  0  0  0  0  0
  -26.5680  -34.8830   22.3700 O   0  0  0  0  0  0  0  0  0  0  0  0
  -25.0210  -34.0550   24.9800 H   0  0  0  0  0  0  0  0  0  0  0  0
  -24.1690  -36.7580   23.1150 C   0  0  0  0  0  1  0  0  0  0  0  0
  -25.4300  -36.3530   23.8940 C   0  0  0  0  0  3  0  0  0  0  0  0
  -27.5790  -37.2440   24.6820 C   0  0  0  0  0  1  0  0  0  0  0  0
  -26.4530  -37.4150   23.7680 N   0  0  0  0  0  0  0  0  0  0  0  0
  -26.0430  -38.3300   23.9360 H   0  0  0  0  0  0  0  0  0  0  0  0
  -26.4550  -31.7400   25.0870 C   0  0  1  0  0  0  0  0  0  0  0  0
  -25.3780  -31.4920   26.1710 C   0  0  0  0  0  1  0  0  0  0  0  0
  -27.0440  -30.3680   24.6850 C   0  0  0  0  0  1  0  0  0  0  0  0
  -27.6110  -32.5370   25.7370 C   0  0  0  0  0  1  0  0  0  0  0  0
  -28.7440  -21.2390   20.9040 C   0  0  0  0  0  2  0  0  0  0  0  0
  -29.4350  -19.9720   20.1550 C   0  0  0  0  0  3  0  0  0  0  0  0
  -30.8720  -20.1920   19.9510 N   0  0  0  0  0  4  0  0  0  0  0  0
  -31.4100  -19.8510   20.7270 H   0  0  0  0  0  0  0  0  0  0  0  0
  -31.0400  -21.1770   19.8440 H   0  0  0  0  0  0  0  0  0  0  0  0
  -31.1790  -19.7390   19.1080 H   0  0  0  0  0  0  0  0  0  0  0  0
  -29.2180  -18.4780   20.7490 C   0  0  0  0  0  3  0  0  0  0  0  0
  -30.0830  -17.2520   20.1580 C   0  0  0  0  0  3  0  0  0  0  0  0
  -30.5730  -14.7030   20.2810 C   0  0  0  0  0  0  0  0  0  0  0  0
  -30.3630  -12.4410   19.2600 C   0  0  0  0  0  2  0  0  0  0  0  0
  -29.4130  -12.5600   18.0490 C   0  0  0  0  0  2  0  0  0  0  0  0
  -27.9440  -12.3960   18.4870 C   0  0  0  0  0  2  0  0  0  0  0  0
  -27.5920  -13.2580   19.7290 C   0  0  0  0  0  3  0  0  0  0  0  0
  -28.6630  -13.1180   20.8360 C   0  0  0  0  0  2  0  0  0  0  0  0
  -29.9580  -13.4730   20.2410 N   0  0  0  0  0  0  0  0  0  0  0  0
  -31.7230  -14.8270   19.8530 O   0  0  0  0  0  0  0  0  0  0  0  0
  -29.8080  -15.8190   20.5770 N   0  0  0  0  0  0  0  0  0  0  0  0
  -28.8890  -15.6370   20.9550 H   0  0  0  0  0  0  0  0  0  0  0  0
  -25.2100  -13.8420   20.4810 C   0  0  0  0  0  0  0  0  0  0  0  0
  -24.1520  -13.0670   20.8660 C   0  0  0  0  0  0  0  0  0  0  0  0
  -24.6200  -11.7150   20.8300 C   0  0  0  0  0  0  0  0  0  0  0  0
  -26.2540  -12.9670   20.2310 N   0  0  0  0  0  0  0  0  0  0  0  0
  -25.9060  -11.6830   20.5050 N   0  0  0  0  0  0  0  0  0  0  0  0
  -23.8990  -10.4520   21.0320 C   0  0  0  0  0  0  0  0  0  0  0  0
  -24.3560   -9.4810   21.9500 C   0  0  0  0  0  3  0  0  0  0  0  0
  -23.6360   -8.2820   22.1400 C   0  0  0  0  0  3  0  0  0  0  0  0
  -22.4460   -8.0440   21.4130 C   0  0  0  0  0  0  0  0  0  0  0  0
  -22.0080   -9.0040   20.4850 C   0  0  0  0  0  3  0  0  0  0  0  0
  -22.7270  -10.1950   20.2920 C   0  0  0  0  0  3  0  0  0  0  0  0
  -21.6970   -6.8980   21.5130 O   0  0  0  0  0  0  0  0  0  0  0  0
  -21.6900   -6.1400   22.6580 C   0  0  0  0  0  0  0  0  0  0  0  0
  -21.3240   -6.6840   23.9080 C   0  0  0  0  0  3  0  0  0  0  0  0
  -21.2590   -5.8530   25.0450 C   0  0  0  0  0  3  0  0  0  0  0  0
  -21.5550   -4.4810   24.9330 C   0  0  0  0  0  0  0  0  0  0  0  0
  -21.9170   -3.9390   23.6870 C   0  0  0  0  0  3  0  0  0  0  0  0
  -21.9810   -4.7660   22.5530 C   0  0  0  0  0  0  0  0  0  0  0  0
  -22.3090   -4.2330   21.3500 F   0  0  0  0  0  0  0  0  0  0  0  0
  -21.4860   -3.6820   26.0230 F   0  0  0  0  0  0  0  0  0  0  0  0
  -22.7570  -13.5390   21.1540 C   0  0  0  0  0  0  0  0  0  0  0  0
  -22.0430  -12.8460   22.0330 N   0  0  0  0  0  0  0  0  0  0  0  0
  -22.3070  -14.5610   20.6340 O   0  0  0  0  0  0  0  0  0  0  0  0
  -22.4200  -12.0240   22.4800 H   0  0  0  0  0  0  0  0  0  0  0  0
  -21.1070  -13.1440   22.2670 H   0  0  0  0  0  0  0  0  0  0  0  0
  -25.3660  -15.2130   20.2980 N   0  0  0  0  0  0  0  0  0  0  0  0
  -24.5910  -15.8580   20.4070 H   0  0  0  0  0  0  0  0  0  0  0  0
  -26.2000  -15.6520   19.9290 H   0  0  0  0  0  0  0  0  0  0  0  0
  1  2  1  0
  3  1  2  0
  4 49  1  0
  4  2  2  0
  5  4  1  0
  6  5  2  0
  6  3  1  0
  7  5  1  0
  8 10  1  0
  8  6  1  0
  9 20  2  0
 10 15  1  0
 11 19  1  0
 11 21  1  0
 12 18  1  0
 12 14  1  0
 13 19  1  0
 14 13  1  0
 15 14  2  0
 16 17  1  0
 16 10  2  0
 17 12  2  0
 18 11  1  0
 19  9  1  0
 21 23  2  0
 22 21  1  0
 24 22  1  0
 25 34  2  0
 25 30  1  0
 26 22  1  0
 26 30  1  0
 27 26  1  0
 28 29  1  0
 28 27  1  0
 29 25  1  0
 30 31  2  0
 31 32  1  0
 33 32  2  0
 34 33  1  0
 35  9  1  0
 35 36  1  0
 35 45  1  0
 36 39  1  0
 37 41  1  0
 37 36  1  0
 38 37  2  0
 41 40  1  0
 43 41  1  0
 43 44  1  0
 43 42  1  0
 45 48  1  1
 45 46  1  0
 47 45  1  0
 50 55  1  0
 50 49  1  0
 51 50  1  0
 51 52  1  0
 53 51  1  0
 54 51  1  0
 56 65  1  0
 56 55  2  0
 57 65  1  0
 58 63  1  0
 59 60  1  0
 59 58  1  0
 61 60  1  0
 61 70  1  0
 61 62  1  0
 63 57  1  0
 63 62  1  0
 64 57  2  0
 65 66  1  0
 67 68  2  0
 68 87  1  0
 69 68  1  0
 69 72  1  0
 70 67  1  0
 70 71  1  0
 71 69  2  0
 72 73  1  0
 73 74  2  0
 75 78  1  0
 75 74  1  0
 76 75  2  0
 77 76  1  0
 77 72  2  0
 78 79  1  0
 79 80  1  0
 80 81  2  0
 82 81  1  0
 82 86  1  0
 83 82  2  0
 84 79  2  0
 84 83  1  0
 85 84  1  0
 87 88  1  0
 88 91  1  0
 88 90  1  0
 89 87  2  0
 92 93  1  0
 92 67  1  0
 94 92  1  0
M  ISO  4   6 101   8 101  57 100  65 100
M  END
>  <TORSDO>  (49) 
F 21

>  <SCORE>  (49) 
-13.680

>  <name>  (49) 
48

>  <ligand_id>  (49) 
48

>  <original_smiles>  (49) 
[H]c1c([H])c([H])c2c(c1[H])C([H])([H])C([H])([H])C([H])([H])C2([H])N([H])C(=O)C1([H])N(C(=O)C([H])(N([H])C(=O)C([H])(N([H])C([H])([H])[H])C([H])([H])[H])C(C([H])([H])[H])(C([H])([H])[H])C([H])([H])[H])C([H])([H])c2c([H])c(Oc3c([H])c([H])c([H])c(C([H])([H])C([H])(C([H])([H])C([H])([H])N([H])C(=O)N4C([H])([H])C([H])([H])C([H])([H])C([H])(n5nc(-c6c([H])c([H])c(Oc7c([H])c([H])c(F)c([H])c7F)c([H])c6[H])c(C(=O)N([H])[H])c5N([H])[H])C4([H])[H])[N+]([H])([H])[H])c3C([H])([H])[H])c([H])c([H])c2C1([H])[H]

>  <smiles>  (49) 
[H]c1c([H])c([H])c2c(c1[H])C([H])([H])C([H])([H])C([H])([H])C2([H])N([H])C(=O)C1([H])N(C(=O)C([H])(N([H])C(=O)C([H])(N([H])C([H])([H])[H])C([H])([H])[H])C(C([H])([H])[H])(C([H])([H])[H])C([H])([H])[H])C([H])([H])c2c([H])c(Oc3c([H])c([H])c([H])c(C([H])([H])C([H])(C([H])([H])C([H])([H])N([H])C(=O)N4C([H])([H])C([H])([H])C([H])([H])C([H])(n5nc(-c6c([H])c([H])c(Oc7c([H])c([H])c(F)c([H])c7F)c([H])c6[H])c(C(=O)N([H])[H])c5N([H])[H])C4([H])[H])[N+]([H])([H])[H])c3C([H])([H])[H])c([H])c([H])c2C1([H])[H]

$$$$
49:0:0
     RDKit          3D

 89 96  0  0  1  0  0  0  0  0999 V2000
  -27.1640  -22.3970   17.6630 C   0  0  0  0  0  3  0  0  0  0  0  0
  -27.5290  -21.0560   17.8130 C   0  0  0  0  0  3  0  0  0  0  0  0
  -27.5200  -23.4240   18.5530 C   0  0  0  0  0  3  0  0  0  0  0  0
  -28.3180  -20.5880   18.8760 C   0  0  0  0  0  0  0  0  0  0  0  0
  -28.7290  -21.5970   19.8660 C   0  0  0  0  0  0  0  0  0  0  0  0
  -28.2540  -23.3260   19.7560 C   0  0  0  0  0  0  0  0  0  0  0  0
  -29.6040  -20.1120   20.5860 C   0  0  0  0  0  1  0  0  0  0  0  0
  -28.7890  -18.9670   18.8090 C   0  0  1  0  0  0  0  0  0  0  0  0
  -29.4010  -18.1950   20.1360 C   0  0  0  0  0  2  0  0  0  0  0  0
  -27.6320  -18.0860   18.2730 C   0  0  0  0  0  1  0  0  0  0  0  0
  -29.9110  -18.9100   17.7520 C   0  0  0  0  0  1  0  0  0  0  0  0
  -28.2690  -17.8480   21.1220 C   0  0  0  0  0  1  0  0  0  0  0  0
  -30.2720  -16.3040   20.0220 C   0  0  0  0  0  2  0  0  0  0  0  0
  -30.5860  -13.6110   19.2860 C   0  0  0  0  0  2  0  0  0  0  0  0
  -29.7350  -12.9540   18.1380 C   0  0  0  0  0  2  0  0  0  0  0  0
  -28.3720  -12.4620   18.6400 C   0  0  0  0  0  2  0  0  0  0  0  0
  -27.7930  -13.4790   19.6410 C   0  0  0  0  0  3  0  0  0  0  0  0
  -28.8050  -14.0170   20.6960 C   0  0  0  0  0  2  0  0  0  0  0  0
  -29.8760  -14.8190   20.0050 N   0  0  0  0  0  0  0  0  0  0  0  0
  -31.5090  -16.1740   19.8250 O   0  0  0  0  0  1  0  0  0  0  0  0
  -25.4670  -13.9100   20.5310 C   0  0  0  0  0  0  0  0  0  0  0  0
  -24.4360  -13.1030   20.9140 C   0  0  0  0  0  0  0  0  0  0  0  0
  -24.9220  -11.7620   20.8140 C   0  0  0  0  0  0  0  0  0  0  0  0
  -26.5140  -13.0710   20.2120 N   0  0  0  0  0  0  0  0  0  0  0  0
  -26.2040  -11.7640   20.4430 N   0  0  0  0  0  0  0  0  0  0  0  0
  -24.2110  -10.4850   20.9890 C   0  0  0  0  0  0  0  0  0  0  0  0
  -24.6410   -9.5160   21.9210 C   0  0  0  0  0  3  0  0  0  0  0  0
  -23.9200   -8.3140   22.0890 C   0  0  0  0  0  3  0  0  0  0  0  0
  -22.7540   -8.0700   21.3260 C   0  0  0  0  0  0  0  0  0  0  0  0
  -22.3410   -9.0290   20.3840 C   0  0  0  0  0  3  0  0  0  0  0  0
  -23.0620  -10.2220   20.2140 C   0  0  0  0  0  3  0  0  0  0  0  0
  -22.0060   -6.9180   21.4040 O   0  0  0  0  0  0  0  0  0  0  0  0
  -21.8940   -6.2090   22.5730 C   0  0  0  0  0  0  0  0  0  0  0  0
  -21.3720   -6.7880   23.7500 C   0  0  0  0  0  3  0  0  0  0  0  0
  -21.2090   -6.0040   24.9080 C   0  0  0  0  0  3  0  0  0  0  0  0
  -21.5590   -4.6400   24.8920 C   0  0  0  0  0  0  0  0  0  0  0  0
  -22.0740   -4.0600   23.7200 C   0  0  0  0  0  3  0  0  0  0  0  0
  -22.2380   -4.8410   22.5630 C   0  0  0  0  0  0  0  0  0  0  0  0
  -22.7140   -4.2710   21.4300 F   0  0  0  0  0  0  0  0  0  0  0  0
  -21.3970   -3.8850   26.0040 F   0  0  0  0  0  0  0  0  0  0  0  0
  -23.0460  -13.5550   21.2510 C   0  0  0  0  0  0  0  0  0  0  0  0
  -22.3630  -12.8330   22.1300 N   0  0  0  0  0  0  0  0  0  0  0  0
  -22.5800  -14.5880   20.7710 O   0  0  0  0  0  0  0  0  0  0  0  0
  -22.7590  -11.9990   22.5400 H   0  0  0  0  0  0  0  0  0  0  0  0
  -21.4320  -13.1170   22.3990 H   0  0  0  0  0  0  0  0  0  0  0  0
  -25.5940  -15.2880   20.3890 N   0  0  0  0  0  0  0  0  0  0  0  0
  -24.8150  -15.9180   20.5480 H   0  0  0  0  0  0  0  0  0  0  0  0
  -26.4100  -15.7510   20.0140 H   0  0  0  0  0  0  0  0  0  0  0  0
  -28.2470  -25.0140   20.2230 O   0  0  0  0  0  0  0  0  0  0  0  0
  -24.8120  -31.7940   23.1410 C   0  0  0  0  0  0  0  0  0  0  0  0
  -27.3370  -26.4180   20.1410 C   0  0  0  0  0  0  0  0  0  0  0  0
  -23.6420  -30.3940   21.5020 C   0  0  0  0  0  3  0  0  0  0  0  0
  -25.0980  -28.6920   20.0980 C   0  0  0  0  0  0  0  0  0  0  0  0
  -26.2370  -30.4330   21.4260 C   0  0  0  0  0  2  0  0  0  0  0  0
  -26.3000  -28.9670   20.7570 C   0  0  0  0  0  0  0  0  0  0  0  0
  -27.3790  -27.8710   20.7430 C   0  0  0  0  0  3  0  0  0  0  0  0
  -26.0850  -26.4580   19.4340 C   0  0  0  0  0  3  0  0  0  0  0  0
  -25.0510  -27.4660   19.4130 C   0  0  0  0  0  3  0  0  0  0  0  0
  -23.9020  -29.6810   20.1390 C   0  0  0  0  0  2  0  0  0  0  0  0
  -24.9250  -30.9160   22.0750 N   0  0  0  0  0  0  0  0  0  0  0  0
  -23.7090  -32.1050   23.6310 O   0  0  0  0  0  0  0  0  0  0  0  0
  -22.8930  -29.4400   22.4770 C   0  0  0  0  0  0  0  0  0  0  0  0
  -21.5560  -29.3040   22.3520 N   0  0  0  0  0  0  0  0  0  0  0  0
  -23.5320  -28.8160   23.3250 O   0  0  0  0  0  0  0  0  0  0  0  0
  -21.0830  -29.8570   21.6500 H   0  0  0  0  0  0  0  0  0  0  0  0
  -18.1610  -28.0840   22.8670 C   0  0  0  0  0  0  0  0  0  0  0  0
  -20.7230  -28.3670   23.1220 C   0  0  0  0  0  3  0  0  0  0  0  0
  -20.8260  -26.9340   22.5460 C   0  0  0  0  0  2  0  0  0  0  0  0
  -19.7250  -26.6120   21.5300 C   0  0  0  0  0  2  0  0  0  0  0  0
  -18.3440  -26.7420   22.1760 C   0  0  0  0  0  2  0  0  0  0  0  0
  -19.2770  -28.8540   23.2960 C   0  0  0  0  0  0  0  0  0  0  0  0
  -19.0450  -30.1030   23.9100 C   0  0  0  0  0  3  0  0  0  0  0  0
  -17.7360  -30.5860   24.0950 C   0  0  0  0  0  3  0  0  0  0  0  0
  -16.6360  -29.8150   23.6770 C   0  0  0  0  0  3  0  0  0  0  0  0
  -16.8510  -28.5640   23.0710 C   0  0  0  0  0  3  0  0  0  0  0  0
  -26.0550  -32.4640   23.8010 C   0  0  0  0  0  3  0  0  0  0  0  0
  -25.7140  -33.8640   24.1410 N   0  0  0  0  0  0  0  0  0  0  0  0
  -26.0210  -34.9430   23.4060 C   0  0  0  0  0  0  0  0  0  0  0  0
  -26.6670  -34.8650   22.3590 O   0  0  0  0  0  0  0  0  0  0  0  0
  -25.1320  -33.9950   24.9540 H   0  0  0  0  0  0  0  0  0  0  0  0
  -24.2500  -36.7260   23.1730 C   0  0  0  0  0  1  0  0  0  0  0  0
  -25.5420  -36.3260   23.9040 C   0  0  0  0  0  3  0  0  0  0  0  0
  -27.7010  -37.2550   24.6240 C   0  0  0  0  0  1  0  0  0  0  0  0
  -26.5500  -37.3980   23.7380 N   0  0  0  0  0  0  0  0  0  0  0  0
  -26.1360  -38.3110   23.9030 H   0  0  0  0  0  0  0  0  0  0  0  0
  -26.5370  -31.7140   25.1060 C   0  0  1  0  0  0  0  0  0  0  0  0
  -25.4170  -31.4950   26.1520 C   0  0  0  0  0  1  0  0  0  0  0  0
  -27.1300  -30.3300   24.7690 C   0  0  0  0  0  1  0  0  0  0  0  0
  -27.6720  -32.5180   25.7850 C   0  0  0  0  0  1  0  0  0  0  0  0
  1  2  2  0
  1  3  1  0
  2  4  1  0
  3  6  2  0
  4  5  2  0
  5  7  1  0
  6  5  1  0
  6 49  1  0
  8  4  1  0
  8  9  1  0
  9 12  1  0
  8 10  1  6
 11  8  1  0
 14 19  1  0
 15 16  1  0
 15 14  1  0
 17 16  1  0
 17 24  1  0
 17 18  1  0
 19 13  1  0
 19 18  1  0
 20 13  1  0
 21 22  2  0
 22 41  1  0
 23 22  1  0
 23 26  1  0
 24 25  1  0
 24 21  1  0
 25 23  2  0
 26 27  1  0
 27 28  2  0
 29 32  1  0
 29 28  1  0
 30 29  2  0
 31 30  1  0
 31 26  2  0
 32 33  1  0
 33 34  1  0
 34 35  2  0
 36 35  1  0
 36 40  1  0
 37 36  2  0
 38 33  2  0
 38 37  1  0
 39 38  1  0
 41 42  1  0
 42 45  1  0
 42 44  1  0
 43 41  2  0
 46 21  1  0
 46 47  1  0
 48 46  1  0
 50 61  2  0
 51 49  1  0
 51 56  1  0
 52 60  1  0
 52 62  1  0
 53 59  1  0
 53 55  1  0
 54 60  1  0
 55 54  1  0
 56 55  2  0
 57 51  2  0
 58 57  1  0
 58 53  2  0
 59 52  1  0
 60 50  1  0
 62 64  2  0
 63 62  1  0
 65 63  1  0
 66 75  2  0
 66 71  1  0
 67 63  1  0
 67 71  1  0
 68 67  1  0
 69 70  1  0
 69 68  1  0
 70 66  1  0
 71 72  2  0
 72 73  1  0
 74 73  2  0
 75 74  1  0
 76 50  1  0
 76 77  1  0
 76 86  1  0
 77 80  1  0
 78 82  1  0
 78 77  1  0
 79 78  2  0
 82 81  1  0
 84 85  1  0
 84 82  1  0
 84 83  1  0
 86 89  1  1
 86 87  1  0
 88 86  1  0
M  ISO  4   6 101   9 100  13 100  49 101
M  END
>  <TORSDO>  (50) 
F 16

>  <SCORE>  (50) 
-15.655

>  <name>  (50) 
49

>  <ligand_id>  (50) 
49

>  <original_smiles>  (50) 
[H]c1c([H])c([H])c2c(c1[H])C([H])([H])C([H])([H])C([H])([H])C2([H])N([H])C(=O)C1([H])N(C(=O)C([H])(N([H])C(=O)C([H])(N([H])C([H])([H])[H])C([H])([H])[H])C(C([H])([H])[H])(C([H])([H])[H])C([H])([H])[H])C([H])([H])c2c([H])c(Oc3c([H])c([H])c([H])c4c3C([H])([H])C(C(=O)N3C([H])([H])C([H])([H])C([H])([H])C([H])(n5nc(-c6c([H])c([H])c(Oc7c([H])c([H])c(F)c([H])c7F)c([H])c6[H])c(C(=O)N([H])[H])c5N([H])[H])C3([H])[H])(C([H])([H])[H])C4(C([H])([H])[H])C([H])([H])[H])c([H])c([H])c2C1([H])[H]

>  <smiles>  (50) 
[H]c1c([H])c([H])c2c(c1[H])C([H])([H])C([H])([H])C([H])([H])C2([H])N([H])C(=O)C1([H])N(C(=O)C([H])(N([H])C(=O)C([H])(N([H])C([H])([H])[H])C([H])([H])[H])C(C([H])([H])[H])(C([H])([H])[H])C([H])([H])[H])C([H])([H])c2c([H])c(Oc3c([H])c([H])c([H])c4c3C([H])([H])C(C(=O)N3C([H])([H])C([H])([H])C([H])([H])C([H])(n5nc(-c6c([H])c([H])c(Oc7c([H])c([H])c(F)c([H])c7F)c([H])c6[H])c(C(=O)N([H])[H])c5N([H])[H])C3([H])[H])(C([H])([H])[H])C4(C([H])([H])[H])C([H])([H])[H])c([H])c([H])c2C1([H])[H]

$$$$
50:0:0
     RDKit          3D

 88 97  0  0  1  0  0  0  0  0999 V2000
  -28.2230  -21.6040   21.4160 C   0  0  0  0  0  3  0  0  0  0  0  0
  -28.8750  -23.0160   19.1190 C   0  0  0  0  0  3  0  0  0  0  0  0
  -28.8090  -20.6530   20.4510 C   0  0  0  0  0  0  0  0  0  0  0  0
  -29.1170  -21.4970   19.3040 C   0  0  0  0  0  0  0  0  0  0  0  0
  -27.9480  -23.1050   21.2230 C   0  0  0  0  0  0  0  0  0  0  0  0
  -28.2190  -24.0300   20.0700 C   0  0  0  0  0  0  0  0  0  0  0  0
  -29.7940  -20.1470   18.7340 C   0  0  0  0  0  2  0  0  0  0  0  0
  -29.6680  -19.1410   20.0880 C   0  0  0  0  0  3  0  0  0  0  0  0
  -27.3610  -23.8030   22.4350 C   0  0  0  0  0  1  0  0  0  0  0  0
  -30.2800  -15.9620   19.9530 C   0  0  0  0  0  0  0  0  0  0  0  0
  -30.4060  -13.3980   19.1400 C   0  0  0  0  0  2  0  0  0  0  0  0
  -29.4810  -12.9310   17.9780 C   0  0  0  0  0  2  0  0  0  0  0  0
  -28.0900  -12.5420   18.4970 C   0  0  0  0  0  2  0  0  0  0  0  0
  -27.5950  -13.5460   19.5610 C   0  0  0  0  0  3  0  0  0  0  0  0
  -28.6600  -13.9170   20.6210 C   0  0  0  0  0  2  0  0  0  0  0  0
  -29.7770  -14.5780   19.9010 N   0  0  0  0  0  0  0  0  0  0  0  0
  -31.5120  -15.8940   19.7660 O   0  0  0  0  0  0  0  0  0  0  0  0
  -29.5120  -17.3400   20.0250 N   0  0  0  0  0  0  0  0  0  0  0  0
  -28.5300  -17.1150   20.0930 H   0  0  0  0  0  0  0  0  0  0  0  0
  -25.2710  -14.0350   20.4530 C   0  0  0  0  0  0  0  0  0  0  0  0
  -24.2390  -13.2370   20.8530 C   0  0  0  0  0  0  0  0  0  0  0  0
  -24.7210  -11.8940   20.7730 C   0  0  0  0  0  0  0  0  0  0  0  0
  -26.3110  -13.1810   20.1400 N   0  0  0  0  0  0  0  0  0  0  0  0
  -25.9980  -11.8830   20.3990 N   0  0  0  0  0  0  0  0  0  0  0  0
  -24.0130  -10.6200   20.9690 C   0  0  0  0  0  0  0  0  0  0  0  0
  -24.4610   -9.6620   21.9050 C   0  0  0  0  0  3  0  0  0  0  0  0
  -23.7470   -8.4580   22.0920 C   0  0  0  0  0  3  0  0  0  0  0  0
  -22.5740   -8.2030   21.3440 C   0  0  0  0  0  0  0  0  0  0  0  0
  -22.1450   -9.1500   20.3970 C   0  0  0  0  0  3  0  0  0  0  0  0
  -22.8590  -10.3450   20.2080 C   0  0  0  0  0  3  0  0  0  0  0  0
  -21.8320   -7.0500   21.4410 O   0  0  0  0  0  0  0  0  0  0  0  0
  -21.7490   -6.3430   22.6140 C   0  0  0  0  0  0  0  0  0  0  0  0
  -21.2130   -6.9120   23.7900 C   0  0  0  0  0  3  0  0  0  0  0  0
  -21.0820   -6.1290   24.9540 C   0  0  0  0  0  3  0  0  0  0  0  0
  -21.4780   -4.7780   24.9430 C   0  0  0  0  0  0  0  0  0  0  0  0
  -22.0060   -4.2080   23.7710 C   0  0  0  0  0  3  0  0  0  0  0  0
  -22.1390   -4.9890   22.6100 C   0  0  0  0  0  0  0  0  0  0  0  0
  -22.6290   -4.4290   21.4770 F   0  0  0  0  0  0  0  0  0  0  0  0
  -21.3450   -4.0230   26.0580 F   0  0  0  0  0  0  0  0  0  0  0  0
  -22.8500  -13.6950   21.1880 C   0  0  0  0  0  0  0  0  0  0  0  0
  -22.1700  -12.9850   22.0810 N   0  0  0  0  0  0  0  0  0  0  0  0
  -22.3780  -14.7180   20.6930 O   0  0  0  0  0  0  0  0  0  0  0  0
  -22.5670  -12.1590   22.5030 H   0  0  0  0  0  0  0  0  0  0  0  0
  -21.2400  -13.2750   22.3480 H   0  0  0  0  0  0  0  0  0  0  0  0
  -25.4060  -15.4110   20.2920 N   0  0  0  0  0  0  0  0  0  0  0  0
  -24.6330  -16.0500   20.4470 H   0  0  0  0  0  0  0  0  0  0  0  0
  -26.2210  -15.8640   19.8990 H   0  0  0  0  0  0  0  0  0  0  0  0
  -28.1400  -25.6720   20.0200 O   0  0  0  0  0  0  0  0  0  0  0  0
  -24.6450  -31.9340   23.1880 C   0  0  0  0  0  0  0  0  0  0  0  0
  -27.1260  -26.8670   20.0770 C   0  0  0  0  0  0  0  0  0  0  0  0
  -23.4290  -30.5560   21.5550 C   0  0  0  0  0  3  0  0  0  0  0  0
  -24.8520  -28.9220   20.0950 C   0  0  0  0  0  0  0  0  0  0  0  0
  -26.0060  -30.6950   21.3890 C   0  0  0  0  0  2  0  0  0  0  0  0
  -26.0580  -29.2650   20.7150 C   0  0  0  0  0  0  0  0  0  0  0  0
  -27.1740  -28.2660   20.6750 C   0  0  0  0  0  3  0  0  0  0  0  0
  -25.8830  -26.7510   19.4000 C   0  0  0  0  0  3  0  0  0  0  0  0
  -24.8040  -27.6910   19.4150 C   0  0  0  0  0  3  0  0  0  0  0  0
  -23.6450  -29.8760   20.1720 C   0  0  0  0  0  2  0  0  0  0  0  0
  -24.7180  -31.0960   22.0960 N   0  0  0  0  0  0  0  0  0  0  0  0
  -23.5600  -32.2240   23.7230 O   0  0  0  0  0  0  0  0  0  0  0  0
  -22.7330  -29.5650   22.5280 C   0  0  0  0  0  0  0  0  0  0  0  0
  -21.4030  -29.3860   22.4070 N   0  0  0  0  0  0  0  0  0  0  0  0
  -23.4020  -28.9540   23.3640 O   0  0  0  0  0  0  0  0  0  0  0  0
  -20.9110  -29.9290   21.7130 H   0  0  0  0  0  0  0  0  0  0  0  0
  -18.0430  -28.0990   22.9280 C   0  0  0  0  0  0  0  0  0  0  0  0
  -20.5980  -28.4300   23.1800 C   0  0  0  0  0  3  0  0  0  0  0  0
  -20.7300  -27.0010   22.6060 C   0  0  0  0  0  2  0  0  0  0  0  0
  -19.6340  -26.6530   21.5940 C   0  0  0  0  0  2  0  0  0  0  0  0
  -18.2510  -26.7590   22.2430 C   0  0  0  0  0  2  0  0  0  0  0  0
  -19.1440  -28.8910   23.3540 C   0  0  0  0  0  0  0  0  0  0  0  0
  -18.8910  -30.1400   23.9610 C   0  0  0  0  0  3  0  0  0  0  0  0
  -17.5730  -30.6000   24.1430 C   0  0  0  0  0  3  0  0  0  0  0  0
  -16.4880  -29.8080   23.7290 C   0  0  0  0  0  3  0  0  0  0  0  0
  -16.7250  -28.5590   23.1290 C   0  0  0  0  0  3  0  0  0  0  0  0
  -25.9160  -32.5830   23.8140 C   0  0  0  0  0  3  0  0  0  0  0  0
  -25.5980  -33.9820   24.1630 N   0  0  0  0  0  0  0  0  0  0  0  0
  -25.9040  -35.0540   23.4180 C   0  0  0  0  0  0  0  0  0  0  0  0
  -26.5400  -34.9690   22.3640 O   0  0  0  0  0  0  0  0  0  0  0  0
  -25.0260  -34.1210   24.9820 H   0  0  0  0  0  0  0  0  0  0  0  0
  -24.1610  -36.8580   23.1660 C   0  0  0  0  0  1  0  0  0  0  0  0
  -25.4360  -36.4390   23.9160 C   0  0  0  0  0  3  0  0  0  0  0  0
  -27.5950  -37.3330   24.6770 C   0  0  0  0  0  1  0  0  0  0  0  0
  -26.4610  -37.4970   23.7720 N   0  0  0  0  0  0  0  0  0  0  0  0
  -26.0560  -38.4160   23.9350 H   0  0  0  0  0  0  0  0  0  0  0  0
  -26.4290  -31.8190   25.0990 C   0  0  1  0  0  0  0  0  0  0  0  0
  -25.3350  -31.5890   26.1680 C   0  0  0  0  0  1  0  0  0  0  0  0
  -27.0130  -30.4380   24.7290 C   0  0  0  0  0  1  0  0  0  0  0  0
  -27.5790  -32.6170   25.7570 C   0  0  0  0  0  1  0  0  0  0  0  0
  2  4  2  0
  2  6  1  0
  3  1  2  0
  4  3  1  0
  5  1  1  0
  5  9  1  0
  6  5  2  0
  7  4  1  0
  7  8  1  0
  8 18  1  0
  8  3  1  0
 10 18  1  0
 11 16  1  0
 12 13  1  0
 12 11  1  0
 14 13  1  0
 14 23  1  0
 14 15  1  0
 16 10  1  0
 16 15  1  0
 17 10  2  0
 18 19  1  0
 20 21  2  0
 21 40  1  0
 22 21  1  0
 22 25  1  0
 23 24  1  0
 23 20  1  0
 24 22  2  0
 25 26  1  0
 26 27  2  0
 28 31  1  0
 28 27  1  0
 29 28  2  0
 30 29  1  0
 30 25  2  0
 31 32  1  0
 32 33  1  0
 33 34  2  0
 35 34  1  0
 35 39  1  0
 36 35  2  0
 37 32  2  0
 37 36  1  0
 38 37  1  0
 40 41  1  0
 41 44  1  0
 41 43  1  0
 42 40  2  0
 45 46  1  0
 45 20  1  0
 47 45  1  0
 48  6  1  0
 48 50  1  0
 49 60  2  0
 50 55  1  0
 51 59  1  0
 51 61  1  0
 52 58  1  0
 52 54  1  0
 53 59  1  0
 54 53  1  0
 55 54  2  0
 56 57  1  0
 56 50  2  0
 57 52  2  0
 58 51  1  0
 59 49  1  0
 61 63  2  0
 62 61  1  0
 64 62  1  0
 65 74  2  0
 65 70  1  0
 66 62  1  0
 66 70  1  0
 67 66  1  0
 68 69  1  0
 68 67  1  0
 69 65  1  0
 70 71  2  0
 71 72  1  0
 73 72  2  0
 74 73  1  0
 75 49  1  0
 75 76  1  0
 75 85  1  0
 76 79  1  0
 77 81  1  0
 77 76  1  0
 78 77  2  0
 81 80  1  0
 83 81  1  0
 83 84  1  0
 83 82  1  0
 85 88  1  1
 85 86  1  0
 87 85  1  0
M  ISO  4   6 101  10 100  18 100  48 101
M  END
>  <TORSDO>  (51) 
F 16

>  <SCORE>  (51) 
-15.460

>  <name>  (51) 
50

>  <ligand_id>  (51) 
50

>  <original_smiles>  (51) 
[H]c1c([H])c([H])c2c(c1[H])C([H])([H])C([H])([H])C([H])([H])C2([H])N([H])C(=O)C1([H])N(C(=O)C([H])(N([H])C(=O)C([H])(N([H])C([H])([H])[H])C([H])([H])[H])C(C([H])([H])[H])(C([H])([H])[H])C([H])([H])[H])C([H])([H])c2c([H])c(Oc3c([H])c4c(c([H])c3C([H])([H])[H])C([H])(N([H])C(=O)N3C([H])([H])C([H])([H])C([H])([H])C([H])(n5nc(-c6c([H])c([H])c(Oc7c([H])c([H])c(F)c([H])c7F)c([H])c6[H])c(C(=O)N([H])[H])c5N([H])[H])C3([H])[H])C4([H])[H])c([H])c([H])c2C1([H])[H]

>  <smiles>  (51) 
[H]c1c([H])c([H])c2c(c1[H])C([H])([H])C([H])([H])C([H])([H])C2([H])N([H])C(=O)C1([H])N(C(=O)C([H])(N([H])C(=O)C([H])(N([H])C([H])([H])[H])C([H])([H])[H])C(C([H])([H])[H])(C([H])([H])[H])C([H])([H])[H])C([H])([H])c2c([H])c(Oc3c([H])c4c(c([H])c3C([H])([H])[H])C([H])(N([H])C(=O)N3C([H])([H])C([H])([H])C([H])([H])C([H])(n5nc(-c6c([H])c([H])c(Oc7c([H])c([H])c(F)c([H])c7F)c([H])c6[H])c(C(=O)N([H])[H])c5N([H])[H])C3([H])[H])C4([H])[H])c([H])c([H])c2C1([H])[H]

$$$$
51:0:0
     RDKit          3D

 92101  0  0  1  0  0  0  0  0999 V2000
  -26.9420  -22.0520   21.3410 C   0  0  0  0  0  3  0  0  0  0  0  0
  -27.7210  -20.9070   20.9650 C   0  0  0  0  0  3  0  0  0  0  0  0
  -27.1470  -23.4280   20.9730 C   0  0  0  0  0  3  0  0  0  0  0  0
  -28.8550  -20.9510   20.1220 C   0  0  0  0  0  0  0  0  0  0  0  0
  -29.0090  -22.5390   19.7510 C   0  0  0  0  0  3  0  0  0  0  0  0
  -28.1860  -23.9190   20.1420 C   0  0  0  0  0  0  0  0  0  0  0  0
  -29.6640  -20.5440   17.4240 C   0  0  0  0  0  0  0  0  0  0  0  0
  -30.2340  -22.6990   18.8590 C   0  0  0  0  0  3  0  0  0  0  0  0
  -30.1670  -21.9930   17.4750 C   0  0  0  0  0  3  0  0  0  0  0  0
  -30.3680  -19.5130   18.3110 C   0  0  0  0  0  3  0  0  0  0  0  0
  -29.7610  -19.3030   19.7300 C   0  0  0  0  0  0  0  0  0  0  0  0
  -28.7330  -20.2010   16.6390 N   0  0  0  0  0  2  0  0  0  0  0  0
  -28.3930  -20.9840   16.0880 H   0  0  0  0  0  0  0  0  0  0  0  0
  -30.4240  -16.0810   19.7760 C   0  0  0  0  0  0  0  0  0  0  0  0
  -30.5540  -13.5010   18.9570 C   0  0  0  0  0  2  0  0  0  0  0  0
  -29.6140  -13.0250   17.8070 C   0  0  0  0  0  2  0  0  0  0  0  0
  -28.2350  -12.6250   18.3480 C   0  0  0  0  0  2  0  0  0  0  0  0
  -27.7590  -13.6170   19.4330 C   0  0  0  0  0  3  0  0  0  0  0  0
  -28.8450  -13.9850   20.4760 C   0  0  0  0  0  2  0  0  0  0  0  0
  -29.9380  -14.6780   19.7470 N   0  0  0  0  0  0  0  0  0  0  0  0
  -31.6370  -16.0140   19.4940 O   0  0  0  0  0  0  0  0  0  0  0  0
  -29.6610  -17.4750   19.9270 N   0  0  0  0  0  0  0  0  0  0  0  0
  -28.7190  -17.2420   20.2040 H   0  0  0  0  0  0  0  0  0  0  0  0
  -25.4650  -14.0820   20.4030 C   0  0  0  0  0  0  0  0  0  0  0  0
  -24.4420  -13.2760   20.8160 C   0  0  0  0  0  0  0  0  0  0  0  0
  -24.9160  -11.9350   20.6870 C   0  0  0  0  0  0  0  0  0  0  0  0
  -26.4910  -13.2330   20.0370 N   0  0  0  0  0  0  0  0  0  0  0  0
  -26.1810  -11.9290   20.2700 N   0  0  0  0  0  0  0  0  0  0  0  0
  -24.2110  -10.6580   20.8710 C   0  0  0  0  0  0  0  0  0  0  0  0
  -24.6390   -9.7040   21.8190 C   0  0  0  0  0  3  0  0  0  0  0  0
  -23.9270   -8.4970   21.9940 C   0  0  0  0  0  3  0  0  0  0  0  0
  -22.7710   -8.2360   21.2210 C   0  0  0  0  0  0  0  0  0  0  0  0
  -22.3590   -9.1790   20.2630 C   0  0  0  0  0  3  0  0  0  0  0  0
  -23.0730  -10.3770   20.0870 C   0  0  0  0  0  3  0  0  0  0  0  0
  -22.0270   -7.0830   21.3080 O   0  0  0  0  0  0  0  0  0  0  0  0
  -21.8610   -6.4200   22.5000 C   0  0  0  0  0  0  0  0  0  0  0  0
  -21.2610   -7.0380   23.6180 C   0  0  0  0  0  3  0  0  0  0  0  0
  -21.0480   -6.3000   24.7990 C   0  0  0  0  0  3  0  0  0  0  0  0
  -21.4240   -4.9440   24.8620 C   0  0  0  0  0  0  0  0  0  0  0  0
  -22.0160   -4.3270   23.7470 C   0  0  0  0  0  3  0  0  0  0  0  0
  -22.2320   -5.0620   22.5690 C   0  0  0  0  0  0  0  0  0  0  0  0
  -22.7840   -4.4560   21.4900 F   0  0  0  0  0  0  0  0  0  0  0  0
  -21.2120   -4.2340   25.9940 F   0  0  0  0  0  0  0  0  0  0  0  0
  -23.0690  -13.7290   21.2110 C   0  0  0  0  0  0  0  0  0  0  0  0
  -22.4130  -12.9920   22.1020 N   0  0  0  0  0  0  0  0  0  0  0  0
  -22.5900  -14.7700   20.7650 O   0  0  0  0  0  0  0  0  0  0  0  0
  -22.8190  -12.1510   22.4810 H   0  0  0  0  0  0  0  0  0  0  0  0
  -21.4920  -13.2750   22.4110 H   0  0  0  0  0  0  0  0  0  0  0  0
  -25.6040  -15.4610   20.2760 N   0  0  0  0  0  0  0  0  0  0  0  0
  -24.8410  -16.1040   20.4600 H   0  0  0  0  0  0  0  0  0  0  0  0
  -26.4130  -15.9160   19.8710 H   0  0  0  0  0  0  0  0  0  0  0  0
  -28.2380  -25.5770   19.9630 O   0  0  0  0  0  0  0  0  0  0  0  0
  -24.7400  -31.9440   23.1570 C   0  0  0  0  0  0  0  0  0  0  0  0
  -27.2590  -26.8330   20.0350 C   0  0  0  0  0  0  0  0  0  0  0  0
  -23.5410  -30.5670   21.5110 C   0  0  0  0  0  3  0  0  0  0  0  0
  -24.9770  -28.9310   20.0530 C   0  0  0  0  0  0  0  0  0  0  0  0
  -26.1210  -30.6960   21.3610 C   0  0  0  0  0  2  0  0  0  0  0  0
  -26.1850  -29.2580   20.6860 C   0  0  0  0  0  0  0  0  0  0  0  0
  -27.3000  -28.2420   20.6460 C   0  0  0  0  0  3  0  0  0  0  0  0
  -26.0150  -26.7630   19.3430 C   0  0  0  0  0  3  0  0  0  0  0  0
  -24.9390  -27.7100   19.3560 C   0  0  0  0  0  3  0  0  0  0  0  0
  -23.7750  -29.8960   20.1240 C   0  0  0  0  0  2  0  0  0  0  0  0
  -24.8280  -31.1070   22.0610 N   0  0  0  0  0  0  0  0  0  0  0  0
  -23.6520  -32.2280   23.6870 O   0  0  0  0  0  0  0  0  0  0  0  0
  -22.8400  -29.5700   22.4730 C   0  0  0  0  0  0  0  0  0  0  0  0
  -21.5110  -29.3930   22.3570 N   0  0  0  0  0  0  0  0  0  0  0  0
  -23.5110  -28.9480   23.3010 O   0  0  0  0  0  0  0  0  0  0  0  0
  -21.0120  -29.9480   21.6750 H   0  0  0  0  0  0  0  0  0  0  0  0
  -18.1550  -28.1060   22.8950 C   0  0  0  0  0  0  0  0  0  0  0  0
  -20.7140  -28.4300   23.1310 C   0  0  0  0  0  3  0  0  0  0  0  0
  -20.8340  -27.0060   22.5360 C   0  0  0  0  0  2  0  0  0  0  0  0
  -19.7290  -26.6770   21.5270 C   0  0  0  0  0  2  0  0  0  0  0  0
  -18.3530  -26.7780   22.1880 C   0  0  0  0  0  2  0  0  0  0  0  0
  -19.2610  -28.8900   23.3240 C   0  0  0  0  0  0  0  0  0  0  0  0
  -19.0130  -30.1330   23.9480 C   0  0  0  0  0  3  0  0  0  0  0  0
  -17.6970  -30.5890   24.1470 C   0  0  0  0  0  3  0  0  0  0  0  0
  -16.6090  -29.8060   23.7260 C   0  0  0  0  0  3  0  0  0  0  0  0
  -16.8390  -28.5670   23.1070 C   0  0  0  0  0  3  0  0  0  0  0  0
  -26.0030  -32.5960   23.7950 C   0  0  0  0  0  3  0  0  0  0  0  0
  -25.6750  -33.9890   24.1590 N   0  0  0  0  0  0  0  0  0  0  0  0
  -25.9610  -35.0690   23.4160 C   0  0  0  0  0  0  0  0  0  0  0  0
  -26.5840  -34.9940   22.3540 O   0  0  0  0  0  0  0  0  0  0  0  0
  -25.1080  -34.1170   24.9850 H   0  0  0  0  0  0  0  0  0  0  0  0
  -24.1830  -36.8430   23.2060 C   0  0  0  0  0  1  0  0  0  0  0  0
  -25.4830  -36.4450   23.9250 C   0  0  0  0  0  3  0  0  0  0  0  0
  -27.6490  -37.3700   24.6300 C   0  0  0  0  0  1  0  0  0  0  0  0
  -26.4870  -37.5210   23.7570 N   0  0  0  0  0  0  0  0  0  0  0  0
  -26.0710  -38.4320   23.9350 H   0  0  0  0  0  0  0  0  0  0  0  0
  -26.5120  -31.8250   25.0770 C   0  0  1  0  0  0  0  0  0  0  0  0
  -25.4130  -31.5840   26.1400 C   0  0  0  0  0  1  0  0  0  0  0  0
  -27.1100  -30.4510   24.7000 C   0  0  0  0  0  1  0  0  0  0  0  0
  -27.6540  -32.6220   25.7490 C   0  0  0  0  0  1  0  0  0  0  0  0
  2  1  2  0
  3  1  1  0
  4  2  1  0
  5  8  1  0
  5  4  1  0
  5  6  1  0
  6  3  2  0
  7  9  1  0
  7 10  2  3
  9  8  2  0
 10 11  1  0
 11 22  1  0
 11  4  2  0
 12  7  1  0
 13 12  1  0
 14 22  1  0
 15 20  1  0
 16 17  1  0
 16 15  1  0
 18 17  1  0
 18 27  1  0
 18 19  1  0
 20 14  1  0
 20 19  1  0
 21 14  2  0
 22 23  1  0
 24 25  2  0
 25 44  1  0
 26 25  1  0
 26 29  1  0
 27 28  1  0
 27 24  1  0
 28 26  2  0
 29 30  1  0
 30 31  2  0
 32 35  1  0
 32 31  1  0
 33 32  2  0
 34 33  1  0
 34 29  2  0
 35 36  1  0
 36 41  2  0
 36 37  1  0
 37 38  2  0
 38 39  1  0
 39 43  1  0
 40 39  2  0
 41 40  1  0
 42 41  1  0
 44 45  1  0
 45 48  1  0
 45 47  1  0
 46 44  2  0
 49 24  1  0
 49 50  1  0
 51 49  1  0
 52 54  1  0
 52  6  1  0
 53 64  2  0
 54 59  1  0
 55 63  1  0
 55 65  1  0
 56 62  1  0
 56 58  1  0
 57 63  1  0
 58 57  1  0
 59 58  2  0
 60 61  1  0
 60 54  2  0
 61 56  2  0
 62 55  1  0
 63 53  1  0
 65 67  2  0
 66 65  1  0
 68 66  1  0
 69 78  2  0
 69 74  1  0
 70 66  1  0
 70 74  1  0
 71 70  1  0
 72 73  1  0
 72 71  1  0
 73 69  1  0
 74 75  2  0
 75 76  1  0
 77 76  2  0
 78 77  1  0
 79 53  1  0
 79 80  1  0
 79 89  1  0
 80 83  1  0
 81 85  1  0
 81 80  1  0
 82 81  2  0
 85 84  1  0
 87 85  1  0
 87 88  1  0
 87 86  1  0
 89 92  1  1
 89 90  1  0
 91 89  1  0
M  ISO  4   6 101  14 100  22 100  52 101
M  END
>  <TORSDO>  (52) 
F 16

>  <SCORE>  (52) 
-15.405

>  <name>  (52) 
51

>  <ligand_id>  (52) 
51

>  <original_smiles>  (52) 
[H]N=C1C([H])([H])C([H])([H])c2c(Oc3c([H])c([H])c4c(c3[H])C([H])([H])N(C(=O)C([H])(N([H])C(=O)C([H])(N([H])C([H])([H])[H])C([H])([H])[H])C(C([H])([H])[H])(C([H])([H])[H])C([H])([H])[H])C([H])(C(=O)N([H])C3([H])c5c([H])c([H])c([H])c([H])c5C([H])([H])C([H])([H])C3([H])[H])C4([H])[H])c([H])c([H])c([H])c2C([H])(N([H])C(=O)N2C([H])([H])C([H])([H])C([H])([H])C([H])(n3nc(-c4c([H])c([H])c(Oc5c([H])c([H])c(F)c([H])c5F)c([H])c4[H])c(C(=O)N([H])[H])c3N([H])[H])C2([H])[H])C1([H])[H]

>  <smiles>  (52) 
[H]N=C1C([H])([H])C([H])([H])c2c(Oc3c([H])c([H])c4c(c3[H])C([H])([H])N(C(=O)C([H])(N([H])C(=O)C([H])(N([H])C([H])([H])[H])C([H])([H])[H])C(C([H])([H])[H])(C([H])([H])[H])C([H])([H])[H])C([H])(C(=O)N([H])C3([H])c5c([H])c([H])c([H])c([H])c5C([H])([H])C([H])([H])C3([H])[H])C4([H])[H])c([H])c([H])c([H])c2C([H])(N([H])C(=O)N2C([H])([H])C([H])([H])C([H])([H])C([H])(n3nc(-c4c([H])c([H])c(Oc5c([H])c([H])c(F)c([H])c5F)c([H])c4[H])c(C(=O)N([H])[H])c3N([H])[H])C2([H])[H])C1([H])[H]

$$$$
52:0:0
     RDKit          3D

 87 96  0  0  1  0  0  0  0  0999 V2000
  -29.7300  -18.1370   18.6940 C   0  0  0  0  0  3  0  0  0  0  0  0
  -28.4170  -17.8910   20.6900 C   0  0  0  0  0  3  0  0  0  0  0  0
  -30.7550  -18.3860   20.8150 C   0  0  0  0  0  3  0  0  0  0  0  0
  -29.5320  -19.7960   18.6690 C   0  0  0  0  0  3  0  0  0  0  0  0
  -28.0470  -19.5260   20.5620 C   0  0  0  0  0  3  0  0  0  0  0  0
  -30.3490  -19.9880   20.8830 C   0  0  0  0  0  3  0  0  0  0  0  0
  -29.7990  -17.3270   20.0870 C   0  0  2  0  0  0  0  0  0  0  0  0
  -29.1380  -20.5880   20.0130 C   0  0  1  0  0  0  0  0  0  0  0  0
  -30.3980  -15.5790   20.0990 C   0  0  0  0  0  0  0  0  0  0  0  0
  -30.4210  -13.0310   19.4190 C   0  0  0  0  0  2  0  0  0  0  0  0
  -29.5360  -12.6680   18.1970 C   0  0  0  0  0  2  0  0  0  0  0  0
  -28.0990  -12.3600   18.6420 C   0  0  0  0  0  2  0  0  0  0  0  0
  -27.5960  -13.3980   19.6730 C   0  0  0  0  0  3  0  0  0  0  0  0
  -28.6170  -13.7190   20.7860 C   0  0  0  0  0  2  0  0  0  0  0  0
  -29.8370  -14.2430   20.1410 N   0  0  0  0  0  0  0  0  0  0  0  0
  -31.6220  -15.4520   19.9170 O   0  0  0  0  0  0  0  0  0  0  0  0
  -25.2410  -13.9550   20.4510 C   0  0  0  0  0  0  0  0  0  0  0  0
  -24.1760  -13.1840   20.8190 C   0  0  0  0  0  0  0  0  0  0  0  0
  -24.6360  -11.8300   20.7880 C   0  0  0  0  0  0  0  0  0  0  0  0
  -26.2760  -13.0740   20.1990 N   0  0  0  0  0  0  0  0  0  0  0  0
  -25.9280  -11.7890   20.4740 N   0  0  0  0  0  0  0  0  0  0  0  0
  -23.8990  -10.5730   20.9780 C   0  0  0  0  0  0  0  0  0  0  0  0
  -24.3130   -9.6060   21.9220 C   0  0  0  0  0  3  0  0  0  0  0  0
  -23.5720   -8.4180   22.1010 C   0  0  0  0  0  3  0  0  0  0  0  0
  -22.4030   -8.1860   21.3380 C   0  0  0  0  0  0  0  0  0  0  0  0
  -22.0080   -9.1410   20.3840 C   0  0  0  0  0  3  0  0  0  0  0  0
  -22.7490  -10.3210   20.2030 C   0  0  0  0  0  3  0  0  0  0  0  0
  -21.6350   -7.0500   21.4270 O   0  0  0  0  0  0  0  0  0  0  0  0
  -21.5590   -6.3220   22.5870 C   0  0  0  0  0  0  0  0  0  0  0  0
  -21.0840   -6.8850   23.7930 C   0  0  0  0  0  3  0  0  0  0  0  0
  -20.9560   -6.0820   24.9420 C   0  0  0  0  0  3  0  0  0  0  0  0
  -21.2950   -4.7160   24.8900 C   0  0  0  0  0  0  0  0  0  0  0  0
  -21.7610   -4.1520   23.6900 C   0  0  0  0  0  3  0  0  0  0  0  0
  -21.8900   -4.9520   22.5410 C   0  0  0  0  0  0  0  0  0  0  0  0
  -22.3200   -4.3990   21.3820 F   0  0  0  0  0  0  0  0  0  0  0  0
  -21.1660   -3.9420   25.9930 F   0  0  0  0  0  0  0  0  0  0  0  0
  -22.7820  -13.6710   21.0840 C   0  0  0  0  0  0  0  0  0  0  0  0
  -22.0520  -12.9890   21.9590 N   0  0  0  0  0  0  0  0  0  0  0  0
  -22.3500  -14.6920   20.5510 O   0  0  0  0  0  0  0  0  0  0  0  0
  -22.4140  -12.1630   22.4130 H   0  0  0  0  0  0  0  0  0  0  0  0
  -21.1140  -13.2960   22.1790 H   0  0  0  0  0  0  0  0  0  0  0  0
  -25.4160  -15.3240   20.2770 N   0  0  0  0  0  0  0  0  0  0  0  0
  -24.6660  -15.9920   20.4080 H   0  0  0  0  0  0  0  0  0  0  0  0
  -26.2820  -15.7520   19.9780 H   0  0  0  0  0  0  0  0  0  0  0  0
  -29.0140  -22.4880   20.1270 C   0  0  0  0  0  3  0  0  0  0  0  0
  -28.0260  -24.0450   19.7410 C   0  0  0  0  0  3  0  0  0  0  0  0
  -28.1740  -25.7370   19.9830 O   0  0  0  0  0  0  0  0  0  0  0  0
  -24.5240  -31.7240   23.0820 C   0  0  0  0  0  0  0  0  0  0  0  0
  -27.1630  -26.8810   19.9390 C   0  0  0  0  0  0  0  0  0  0  0  0
  -23.3640  -30.3570   21.3960 C   0  0  0  0  0  3  0  0  0  0  0  0
  -24.8460  -28.8020   19.9350 C   0  0  0  0  0  0  0  0  0  0  0  0
  -25.9340  -30.5860   21.2750 C   0  0  0  0  0  2  0  0  0  0  0  0
  -26.0300  -29.1850   20.5780 C   0  0  0  0  0  0  0  0  0  0  0  0
  -27.1760  -28.2490   20.5530 C   0  0  0  0  0  3  0  0  0  0  0  0
  -25.9460  -26.6790   19.2500 C   0  0  0  0  0  3  0  0  0  0  0  0
  -24.8370  -27.5750   19.2480 C   0  0  0  0  0  3  0  0  0  0  0  0
  -23.6170  -29.7130   20.0040 C   0  0  0  0  0  2  0  0  0  0  0  0
  -24.6300  -30.9170   21.9730 N   0  0  0  0  0  0  0  0  0  0  0  0
  -23.4250  -31.9830   23.6010 O   0  0  0  0  0  0  0  0  0  0  0  0
  -22.6720  -29.3290   22.3310 C   0  0  0  0  0  0  0  0  0  0  0  0
  -21.3400  -29.1750   22.2190 N   0  0  0  0  0  0  0  0  0  0  0  0
  -23.3440  -28.6710   23.1310 O   0  0  0  0  0  0  0  0  0  0  0  0
  -20.8480  -29.7580   21.5550 H   0  0  0  0  0  0  0  0  0  0  0  0
  -17.9560  -27.9710   22.7540 C   0  0  0  0  0  0  0  0  0  0  0  0
  -20.5250  -28.2040   22.9600 C   0  0  0  0  0  3  0  0  0  0  0  0
  -20.5960  -26.8050   22.3040 C   0  0  0  0  0  2  0  0  0  0  0  0
  -19.4630  -26.5480   21.3050 C   0  0  0  0  0  2  0  0  0  0  0  0
  -18.1000  -26.6630   21.9950 C   0  0  0  0  0  2  0  0  0  0  0  0
  -19.0920  -28.7020   23.1940 C   0  0  0  0  0  0  0  0  0  0  0  0
  -18.8970  -29.9260   23.8710 C   0  0  0  0  0  3  0  0  0  0  0  0
  -17.6000  -30.4190   24.1090 C   0  0  0  0  0  3  0  0  0  0  0  0
  -16.4800  -29.6850   23.6830 C   0  0  0  0  0  3  0  0  0  0  0  0
  -16.6580  -28.4630   23.0110 C   0  0  0  0  0  3  0  0  0  0  0  0
  -25.7760  -32.3720   23.7470 C   0  0  0  0  0  3  0  0  0  0  0  0
  -25.4360  -33.7620   24.1090 N   0  0  0  0  0  0  0  0  0  0  0  0
  -25.7620  -34.8450   23.3900 C   0  0  0  0  0  0  0  0  0  0  0  0
  -26.4410  -34.7800   22.3620 O   0  0  0  0  0  0  0  0  0  0  0  0
  -24.8360  -33.8840   24.9100 H   0  0  0  0  0  0  0  0  0  0  0  0
  -24.0230  -36.6410   23.0800 C   0  0  0  0  0  1  0  0  0  0  0  0
  -25.2600  -36.2170   23.8880 C   0  0  0  0  0  3  0  0  0  0  0  0
  -27.3680  -37.1110   24.7760 C   0  0  0  0  0  1  0  0  0  0  0  0
  -26.2870  -37.2800   23.8090 N   0  0  0  0  0  0  0  0  0  0  0  0
  -25.8710  -38.1970   23.9520 H   0  0  0  0  0  0  0  0  0  0  0  0
  -26.2690  -31.5900   25.0270 C   0  0  1  0  0  0  0  0  0  0  0  0
  -25.1580  -31.3340   26.0720 C   0  0  0  0  0  1  0  0  0  0  0  0
  -26.8700  -30.2200   24.6370 C   0  0  0  0  0  1  0  0  0  0  0  0
  -27.4040  -32.3820   25.7190 C   0  0  0  0  0  1  0  0  0  0  0  0
  1  7  1  0
  3  6  2  0
  4  1  2  0
  4  8  1  0
  5  2  2  0
  7  9  1  6
  7  2  1  0
  7  3  1  0
  8 45  1  6
  8  5  1  0
  8  6  1  0
  9 15  1  0
 10 15  1  0
 11 12  1  0
 11 10  1  0
 13 12  1  0
 13 20  1  0
 13 14  1  0
 15 14  1  0
 16  9  2  0
 17 18  2  0
 18 37  1  0
 19 18  1  0
 19 22  1  0
 20 17  1  0
 20 21  1  0
 21 19  2  0
 22 23  1  0
 23 24  2  0
 25 28  1  0
 25 24  1  0
 26 25  2  0
 27 26  1  0
 27 22  2  0
 28 29  1  0
 29 30  1  0
 30 31  2  0
 32 31  1  0
 32 36  1  0
 33 32  2  0
 34 29  2  0
 34 33  1  0
 35 34  1  0
 37 38  1  0
 38 41  1  0
 38 40  1  0
 39 37  2  0
 42 43  1  0
 42 17  1  0
 44 42  1  0
 46 47  1  0
 46 45  2  0
 48 59  2  0
 49 47  1  0
 49 54  1  0
 50 58  1  0
 50 60  1  0
 51 57  1  0
 51 53  1  0
 52 58  1  0
 53 52  1  0
 54 53  2  0
 55 49  2  0
 56 55  1  0
 56 51  2  0
 57 50  1  0
 58 48  1  0
 60 62  2  0
 61 60  1  0
 63 61  1  0
 64 73  2  0
 64 69  1  0
 65 61  1  0
 65 69  1  0
 66 65  1  0
 67 68  1  0
 67 66  1  0
 68 64  1  0
 69 70  2  0
 70 71  1  0
 72 71  2  0
 73 72  1  0
 74 48  1  0
 74 75  1  0
 74 84  1  0
 75 78  1  0
 76 80  1  0
 76 75  1  0
 77 76  2  0
 80 79  1  0
 82 80  1  0
 82 83  1  0
 82 81  1  0
 84 87  1  1
 84 85  1  0
 86 84  1  0
M  ISO  4   7 100   9 100  46 101  47 101
M  END
>  <TORSDO>  (53) 
F 18

>  <SCORE>  (53) 
-16.352

>  <name>  (53) 
52

>  <ligand_id>  (53) 
52

>  <original_smiles>  (53) 
[H]c1c([H])c([H])c2c(c1[H])C([H])([H])C([H])([H])C([H])([H])C2([H])N([H])C(=O)C1([H])N(C(=O)C([H])(N([H])C(=O)C([H])(N([H])C([H])([H])[H])C([H])([H])[H])C(C([H])([H])[H])(C([H])([H])[H])C([H])([H])[H])C([H])([H])c2c([H])c(OC([H])([H])C([H])([H])C34C([H])([H])C([H])([H])C(C(=O)N5C([H])([H])C([H])([H])C([H])([H])C([H])(n6nc(-c7c([H])c([H])c(Oc8c([H])c([H])c(F)c([H])c8F)c([H])c7[H])c(C(=O)N([H])[H])c6N([H])[H])C5([H])[H])(C([H])([H])C3([H])[H])C([H])([H])C4([H])[H])c([H])c([H])c2C1([H])[H]

>  <smiles>  (53) 
[H]c1c([H])c([H])c2c(c1[H])C([H])([H])C([H])([H])C([H])([H])C2([H])N([H])C(=O)C1([H])N(C(=O)C([H])(N([H])C(=O)C([H])(N([H])C([H])([H])[H])C([H])([H])[H])C(C([H])([H])[H])(C([H])([H])[H])C([H])([H])[H])C([H])([H])c2c([H])c(OC([H])([H])C([H])([H])C34C([H])([H])C([H])([H])C(C(=O)N5C([H])([H])C([H])([H])C([H])([H])C([H])(n6nc(-c7c([H])c([H])c(Oc8c([H])c([H])c(F)c([H])c8F)c([H])c7[H])c(C(=O)N([H])[H])c6N([H])[H])C5([H])[H])(C([H])([H])C3([H])[H])C([H])([H])C4([H])[H])c([H])c([H])c2C1([H])[H]

$$$$
53:0:0
     RDKit          3D

 91100  0  0  1  0  0  0  0  0999 V2000
  -27.6920  -20.0540   19.0760 C   0  0  0  0  0  3  0  0  0  0  0  0
  -28.6030  -21.7580   20.6160 C   0  0  0  0  0  3  0  0  0  0  0  0
  -26.8540  -21.0670   18.5920 C   0  0  0  0  0  0  0  0  0  0  0  0
  -26.9060  -22.4160   19.0180 C   0  0  0  0  0  0  0  0  0  0  0  0
  -28.5790  -20.3200   20.1330 C   0  0  0  0  0  0  0  0  0  0  0  0
  -27.8220  -22.9130   20.0480 C   0  0  0  0  0  0  0  0  0  0  0  0
  -25.6960  -20.7320   17.6720 C   0  0  0  0  0  2  0  0  0  0  0  0
  -25.7570  -23.1320   18.2770 C   0  0  0  0  0  2  0  0  0  0  0  0
  -24.8600  -22.0080   17.6830 C   0  0  0  0  0  2  0  0  0  0  0  0
  -29.2820  -18.9700   20.7690 C   0  0  0  0  0  2  0  0  0  0  0  0
  -29.7600  -17.6300   19.8760 C   0  0  0  0  0  2  0  0  0  0  0  0
  -30.5570  -14.9880   20.1090 C   0  0  0  0  0  0  0  0  0  0  0  0
  -30.4360  -12.6650   19.1460 C   0  0  0  0  0  2  0  0  0  0  0  0
  -29.4780  -12.6470   17.9280 C   0  0  0  0  0  2  0  0  0  0  0  0
  -27.9980  -12.5050   18.3490 C   0  0  0  0  0  2  0  0  0  0  0  0
  -27.6530  -13.3580   19.5970 C   0  0  0  0  0  3  0  0  0  0  0  0
  -28.7270  -13.3130   20.7010 C   0  0  0  0  0  2  0  0  0  0  0  0
  -29.9870  -13.7230   20.0810 N   0  0  0  0  0  0  0  0  0  0  0  0
  -31.7250  -15.0920   19.7150 O   0  0  0  0  0  0  0  0  0  0  0  0
  -29.7510  -16.1190   20.3690 N   0  0  0  0  0  0  0  0  0  0  0  0
  -28.8560  -15.8490   20.7530 H   0  0  0  0  0  0  0  0  0  0  0  0
  -25.2850  -13.9100   20.3920 C   0  0  0  0  0  0  0  0  0  0  0  0
  -24.2300  -13.1280   20.7910 C   0  0  0  0  0  0  0  0  0  0  0  0
  -24.7030  -11.7850   20.7440 C   0  0  0  0  0  0  0  0  0  0  0  0
  -26.3230  -13.0430   20.1190 N   0  0  0  0  0  0  0  0  0  0  0  0
  -25.9870  -11.7530   20.3980 N   0  0  0  0  0  0  0  0  0  0  0  0
  -23.9860  -10.5140   20.9510 C   0  0  0  0  0  0  0  0  0  0  0  0
  -24.4260   -9.5540   21.8790 C   0  0  0  0  0  3  0  0  0  0  0  0
  -23.6920   -8.3620   22.0810 C   0  0  0  0  0  3  0  0  0  0  0  0
  -22.5040   -8.1280   21.3460 C   0  0  0  0  0  0  0  0  0  0  0  0
  -22.0840   -9.0800   20.3960 C   0  0  0  0  0  3  0  0  0  0  0  0
  -22.8190  -10.2640   20.1980 C   0  0  0  0  0  3  0  0  0  0  0  0
  -21.7440   -6.9900   21.4460 O   0  0  0  0  0  0  0  0  0  0  0  0
  -21.6990   -6.2540   22.6110 C   0  0  0  0  0  0  0  0  0  0  0  0
  -21.2780   -6.8200   23.8320 C   0  0  0  0  0  3  0  0  0  0  0  0
  -21.1800   -6.0170   24.9830 C   0  0  0  0  0  3  0  0  0  0  0  0
  -21.4960   -4.6430   24.9090 C   0  0  0  0  0  0  0  0  0  0  0  0
  -21.9090   -4.0830   23.6880 C   0  0  0  0  0  3  0  0  0  0  0  0
  -22.0070   -4.8850   22.5410 C   0  0  0  0  0  0  0  0  0  0  0  0
  -22.3820   -4.3280   21.3620 F   0  0  0  0  0  0  0  0  0  0  0  0
  -21.3990   -3.8630   26.0110 F   0  0  0  0  0  0  0  0  0  0  0  0
  -22.8430  -13.6070   21.0990 C   0  0  0  0  0  0  0  0  0  0  0  0
  -22.1520  -12.8950   21.9850 N   0  0  0  0  0  0  0  0  0  0  0  0
  -22.3830  -14.6230   20.5900 O   0  0  0  0  0  0  0  0  0  0  0  0
  -22.5490  -12.0660   22.3970 H   0  0  0  0  0  0  0  0  0  0  0  0
  -21.2130  -13.1680   22.2300 H   0  0  0  0  0  0  0  0  0  0  0  0
  -25.4230  -15.2830   20.2200 N   0  0  0  0  0  0  0  0  0  0  0  0
  -24.6390  -15.8980   20.3860 H   0  0  0  0  0  0  0  0  0  0  0  0
  -26.2480  -15.7620   19.8940 H   0  0  0  0  0  0  0  0  0  0  0  0
  -27.5990  -24.4930   20.6710 C   0  0  0  0  0  2  0  0  0  0  0  0
  -28.1160  -25.9450   20.2420 O   0  0  0  0  0  0  0  0  0  0  0  0
  -24.6800  -31.8660   23.1940 C   0  0  0  0  0  0  0  0  0  0  0  0
  -27.1670  -27.0620   20.1900 C   0  0  0  0  0  0  0  0  0  0  0  0
  -23.4860  -30.4820   21.5520 C   0  0  0  0  0  3  0  0  0  0  0  0
  -24.9140  -28.9090   20.1420 C   0  0  0  0  0  0  0  0  0  0  0  0
  -26.0490  -30.7030   21.4160 C   0  0  0  0  0  2  0  0  0  0  0  0
  -26.1040  -29.3070   20.7700 C   0  0  0  0  0  0  0  0  0  0  0  0
  -27.2420  -28.3940   20.7900 C   0  0  0  0  0  3  0  0  0  0  0  0
  -25.9600  -26.8140   19.5140 C   0  0  0  0  0  3  0  0  0  0  0  0
  -24.8510  -27.6780   19.5110 C   0  0  0  0  0  3  0  0  0  0  0  0
  -23.7140  -29.8370   20.1650 C   0  0  0  0  0  2  0  0  0  0  0  0
  -24.7580  -31.0440   22.1040 N   0  0  0  0  0  0  0  0  0  0  0  0
  -23.5900  -32.1480   23.7150 O   0  0  0  0  0  0  0  0  0  0  0  0
  -22.8080  -29.4600   22.5040 C   0  0  0  0  0  0  0  0  0  0  0  0
  -21.4770  -29.2940   22.3890 N   0  0  0  0  0  0  0  0  0  0  0  0
  -23.4830  -28.8250   23.3190 O   0  0  0  0  0  0  0  0  0  0  0  0
  -20.9840  -29.8760   21.7280 H   0  0  0  0  0  0  0  0  0  0  0  0
  -18.0930  -28.1070   22.9260 C   0  0  0  0  0  0  0  0  0  0  0  0
  -20.6590  -28.3560   23.1630 C   0  0  0  0  0  3  0  0  0  0  0  0
  -20.7390  -26.9240   22.5810 C   0  0  0  0  0  2  0  0  0  0  0  0
  -19.6240  -26.6110   21.5790 C   0  0  0  0  0  2  0  0  0  0  0  0
  -18.2530  -26.7590   22.2420 C   0  0  0  0  0  2  0  0  0  0  0  0
  -19.2210  -28.8610   23.3470 C   0  0  0  0  0  0  0  0  0  0  0  0
  -19.0150  -30.1190   23.9520 C   0  0  0  0  0  3  0  0  0  0  0  0
  -17.7140  -30.6220   24.1430 C   0  0  0  0  0  3  0  0  0  0  0  0
  -16.6030  -29.8670   23.7320 C   0  0  0  0  0  3  0  0  0  0  0  0
  -16.7920  -28.6110   23.1300 C   0  0  0  0  0  3  0  0  0  0  0  0
  -25.9540  -32.5050   23.8200 C   0  0  0  0  0  3  0  0  0  0  0  0
  -26.4690  -31.7430   25.1010 C   0  0  1  0  0  0  0  0  0  0  0  0
  -25.3820  -31.5080   26.1750 C   0  0  0  0  0  1  0  0  0  0  0  0
  -27.0690  -30.3680   24.7310 C   0  0  0  0  0  1  0  0  0  0  0  0
  -27.6070  -32.5490   25.7750 C   0  0  0  0  0  1  0  0  0  0  0  0
  -25.6280  -33.8990   24.1630 N   0  0  0  0  0  0  0  0  0  0  0  0
  -25.9310  -34.9680   23.4120 C   0  0  0  0  0  0  0  0  0  0  0  0
  -26.5870  -34.8850   22.3710 O   0  0  0  0  0  0  0  0  0  0  0  0
  -25.0390  -34.0360   24.9720 H   0  0  0  0  0  0  0  0  0  0  0  0
  -24.1780  -36.7550   23.1010 C   0  0  0  0  0  1  0  0  0  0  0  0
  -25.4320  -36.3470   23.8930 C   0  0  0  0  0  3  0  0  0  0  0  0
  -27.5650  -37.2530   24.7120 C   0  0  0  0  0  1  0  0  0  0  0  0
  -26.4500  -37.4120   23.7810 N   0  0  0  0  0  0  0  0  0  0  0  0
  -26.0330  -38.3260   23.9340 H   0  0  0  0  0  0  0  0  0  0  0  0
  1  5  1  0
  3  4  1  0
  3  1  2  0
  4  6  2  0
  5  2  2  0
  5 10  1  0
  6  2  1  0
  6 50  1  0
  7  9  1  0
  7  3  1  0
  8  4  1  0
  9  8  1  0
 11 20  1  0
 11 10  1  0
 12 20  1  0
 13 18  1  0
 14 15  1  0
 14 13  1  0
 16 15  1  0
 16 25  1  0
 16 17  1  0
 18 12  1  0
 18 17  1  0
 19 12  2  0
 20 21  1  0
 22 23  2  0
 23 42  1  0
 24 23  1  0
 24 27  1  0
 25 22  1  0
 25 26  1  0
 26 24  2  0
 27 28  1  0
 28 29  2  0
 30 33  1  0
 30 29  1  0
 31 30  2  0
 32 31  1  0
 32 27  2  0
 33 34  1  0
 34 35  1  0
 35 36  2  0
 37 36  1  0
 37 41  1  0
 38 37  2  0
 39 34  2  0
 39 38  1  0
 40 39  1  0
 42 43  1  0
 43 46  1  0
 43 45  1  0
 44 42  2  0
 47 48  1  0
 47 22  1  0
 49 47  1  0
 51 50  1  0
 52 63  2  0
 53 51  1  0
 53 58  1  0
 54 62  1  0
 54 64  1  0
 55 61  1  0
 55 57  1  0
 56 62  1  0
 57 58  2  0
 57 56  1  0
 59 53  2  0
 60 59  1  0
 60 55  2  0
 61 54  1  0
 62 52  1  0
 64 66  2  0
 65 64  1  0
 67 65  1  0
 68 77  2  0
 68 73  1  0
 69 65  1  0
 69 73  1  0
 70 69  1  0
 71 72  1  0
 71 70  1  0
 72 68  1  0
 73 74  2  0
 74 75  1  0
 76 75  2  0
 77 76  1  0
 78 52  1  0
 78 83  1  0
 78 79  1  0
 79 82  1  1
 79 80  1  0
 81 79  1  0
 83 86  1  0
 84 88  1  0
 84 83  1  0
 85 84  2  0
 88 87  1  0
 90 88  1  0
 90 91  1  0
 90 89  1  0
M  ISO  4  12 100  20 100  50 101  51 101
M  END
>  <TORSDO>  (54) 
F 19

>  <SCORE>  (54) 
-15.205

>  <name>  (54) 
53

>  <ligand_id>  (54) 
53

>  <original_smiles>  (54) 
[H]c1c([H])c([H])c2c(c1[H])C([H])([H])C([H])([H])C([H])([H])C2([H])N([H])C(=O)C1([H])N(C(=O)C([H])(N([H])C(=O)C([H])(N([H])C([H])([H])[H])C([H])([H])[H])C(C([H])([H])[H])(C([H])([H])[H])C([H])([H])[H])C([H])([H])c2c([H])c(OC([H])([H])c3c([H])c(C([H])([H])C([H])([H])N([H])C(=O)N4C([H])([H])C([H])([H])C([H])([H])C([H])(n5nc(-c6c([H])c([H])c(Oc7c([H])c([H])c(F)c([H])c7F)c([H])c6[H])c(C(=O)N([H])[H])c5N([H])[H])C4([H])[H])c([H])c4c3C([H])([H])C([H])([H])C4([H])[H])c([H])c([H])c2C1([H])[H]

>  <smiles>  (54) 
[H]c1c([H])c([H])c2c(c1[H])C([H])([H])C([H])([H])C([H])([H])C2([H])N([H])C(=O)C1([H])N(C(=O)C([H])(N([H])C(=O)C([H])(N([H])C([H])([H])[H])C([H])([H])[H])C(C([H])([H])[H])(C([H])([H])[H])C([H])([H])[H])C([H])([H])c2c([H])c(OC([H])([H])c3c([H])c(C([H])([H])C([H])([H])N([H])C(=O)N4C([H])([H])C([H])([H])C([H])([H])C([H])(n5nc(-c6c([H])c([H])c(Oc7c([H])c([H])c(F)c([H])c7F)c([H])c6[H])c(C(=O)N([H])[H])c5N([H])[H])C4([H])[H])c([H])c4c3C([H])([H])C([H])([H])C4([H])[H])c([H])c([H])c2C1([H])[H]

$$$$
54:0:0
     RDKit          3D

 88 96  0  0  1  0  0  0  0  0999 V2000
  -32.0660  -22.1500   20.4740 C   0  0  0  0  0  3  0  0  0  0  0  0
  -31.7520  -23.4980   20.4660 C   0  0  0  0  0  3  0  0  0  0  0  0
  -31.0460  -21.2000   20.4120 C   0  0  0  0  0  3  0  0  0  0  0  0
  -30.4180  -23.8910   20.3860 C   0  0  0  0  0  3  0  0  0  0  0  0
  -29.6470  -21.4570   20.3390 C   0  0  0  0  0  0  0  0  0  0  0  0
  -29.2880  -23.0290   20.3140 C   0  0  0  0  0  0  0  0  0  0  0  0
  -29.0090  -19.8250   20.3200 C   0  0  0  0  0  3  0  0  0  0  0  0
  -29.9520  -18.2480   20.3320 C   0  0  0  0  0  3  0  0  0  0  0  0
  -30.3660  -15.3210   20.2610 C   0  0  0  0  0  0  0  0  0  0  0  0
  -30.3540  -12.8760   19.3750 C   0  0  0  0  0  2  0  0  0  0  0  0
  -29.4350  -12.6570   18.1480 C   0  0  0  0  0  2  0  0  0  0  0  0
  -27.9910  -12.3710   18.5930 C   0  0  0  0  0  2  0  0  0  0  0  0
  -27.5340  -13.3300   19.7210 C   0  0  0  0  0  3  0  0  0  0  0  0
  -28.5830  -13.4920   20.8420 C   0  0  0  0  0  2  0  0  0  0  0  0
  -29.8020  -14.0130   20.2020 N   0  0  0  0  0  0  0  0  0  0  0  0
  -31.5870  -15.3180   20.0460 O   0  0  0  0  0  0  0  0  0  0  0  0
  -29.6100  -16.6030   20.3630 N   0  0  0  0  0  0  0  0  0  0  0  0
  -28.6240  -16.4250   20.4830 H   0  0  0  0  0  0  0  0  0  0  0  0
  -25.1580  -13.8620   20.4760 C   0  0  0  0  0  0  0  0  0  0  0  0
  -24.1070  -13.0750   20.8480 C   0  0  0  0  0  0  0  0  0  0  0  0
  -24.5900  -11.7300   20.8250 C   0  0  0  0  0  0  0  0  0  0  0  0
  -26.2120  -12.9990   20.2350 N   0  0  0  0  0  0  0  0  0  0  0  0
  -25.8820  -11.7100   20.5150 N   0  0  0  0  0  0  0  0  0  0  0  0
  -23.8770  -10.4590   21.0190 C   0  0  0  0  0  0  0  0  0  0  0  0
  -24.3210   -9.4990   21.9550 C   0  0  0  0  0  3  0  0  0  0  0  0
  -23.6040   -8.2960   22.1400 C   0  0  0  0  0  3  0  0  0  0  0  0
  -22.4310   -8.0460   21.3890 C   0  0  0  0  0  0  0  0  0  0  0  0
  -22.0070   -8.9960   20.4430 C   0  0  0  0  0  3  0  0  0  0  0  0
  -22.7240  -10.1890   20.2560 C   0  0  0  0  0  3  0  0  0  0  0  0
  -21.6860   -6.8950   21.4830 O   0  0  0  0  0  0  0  0  0  0  0  0
  -21.6520   -6.1520   22.6350 C   0  0  0  0  0  0  0  0  0  0  0  0
  -21.2340   -6.7030   23.8660 C   0  0  0  0  0  3  0  0  0  0  0  0
  -21.1470   -5.8850   25.0100 C   0  0  0  0  0  3  0  0  0  0  0  0
  -21.4680   -4.5180   24.9250 C   0  0  0  0  0  0  0  0  0  0  0  0
  -21.8800   -3.9660   23.6990 C   0  0  0  0  0  3  0  0  0  0  0  0
  -21.9680   -4.7800   22.5570 C   0  0  0  0  0  0  0  0  0  0  0  0
  -22.3440   -4.2380   21.3730 F   0  0  0  0  0  0  0  0  0  0  0  0
  -21.3790   -3.7300   26.0230 F   0  0  0  0  0  0  0  0  0  0  0  0
  -22.7040  -13.5360   21.1100 C   0  0  0  0  0  0  0  0  0  0  0  0
  -21.9820  -12.8420   21.9820 N   0  0  0  0  0  0  0  0  0  0  0  0
  -22.2560  -14.5500   20.5750 O   0  0  0  0  0  0  0  0  0  0  0  0
  -22.3580  -12.0230   22.4360 H   0  0  0  0  0  0  0  0  0  0  0  0
  -21.0390  -13.1340   22.2000 H   0  0  0  0  0  0  0  0  0  0  0  0
  -25.3020  -15.2340   20.2890 N   0  0  0  0  0  0  0  0  0  0  0  0
  -24.5220  -15.8740   20.3910 H   0  0  0  0  0  0  0  0  0  0  0  0
  -26.1310  -15.6790   19.9180 H   0  0  0  0  0  0  0  0  0  0  0  0
  -28.0150  -24.2110   20.2160 C   0  0  0  0  0  2  0  0  0  0  0  0
  -28.1940  -25.8680   20.2810 O   0  0  0  0  0  0  0  0  0  0  0  0
  -24.6700  -31.8840   23.2140 C   0  0  0  0  0  0  0  0  0  0  0  0
  -27.1770  -26.9600   20.2230 C   0  0  0  0  0  0  0  0  0  0  0  0
  -23.4600  -30.4910   21.5840 C   0  0  0  0  0  3  0  0  0  0  0  0
  -24.8920  -28.8620   20.1680 C   0  0  0  0  0  0  0  0  0  0  0  0
  -26.0280  -30.6780   21.4310 C   0  0  0  0  0  2  0  0  0  0  0  0
  -26.0840  -29.2620   20.7820 C   0  0  0  0  0  0  0  0  0  0  0  0
  -27.2210  -28.3340   20.7810 C   0  0  0  0  0  3  0  0  0  0  0  0
  -25.9530  -26.7100   19.5630 C   0  0  0  0  0  3  0  0  0  0  0  0
  -24.8510  -27.6080   19.5370 C   0  0  0  0  0  3  0  0  0  0  0  0
  -23.6810  -29.7960   20.2120 C   0  0  0  0  0  2  0  0  0  0  0  0
  -24.7420  -31.0440   22.1300 N   0  0  0  0  0  0  0  0  0  0  0  0
  -23.5830  -32.1850   23.7360 O   0  0  0  0  0  0  0  0  0  0  0  0
  -22.7580  -29.5070   22.5570 C   0  0  0  0  0  0  0  0  0  0  0  0
  -21.4260  -29.3580   22.4380 N   0  0  0  0  0  0  0  0  0  0  0  0
  -23.4190  -28.8780   23.3860 O   0  0  0  0  0  0  0  0  0  0  0  0
  -20.9460  -29.9150   21.7450 H   0  0  0  0  0  0  0  0  0  0  0  0
  -18.0330  -28.1800   22.9570 C   0  0  0  0  0  0  0  0  0  0  0  0
  -20.5950  -28.4310   23.2160 C   0  0  0  0  0  3  0  0  0  0  0  0
  -20.6860  -26.9940   22.6490 C   0  0  0  0  0  2  0  0  0  0  0  0
  -19.5800  -26.6730   21.6380 C   0  0  0  0  0  2  0  0  0  0  0  0
  -18.2000  -26.8280   22.2840 C   0  0  0  0  0  2  0  0  0  0  0  0
  -19.1560  -28.9390   23.3790 C   0  0  0  0  0  0  0  0  0  0  0  0
  -18.9430  -30.2030   23.9720 C   0  0  0  0  0  3  0  0  0  0  0  0
  -17.6400  -30.7080   24.1430 C   0  0  0  0  0  3  0  0  0  0  0  0
  -16.5320  -29.9460   23.7340 C   0  0  0  0  0  3  0  0  0  0  0  0
  -16.7290  -28.6830   23.1470 C   0  0  0  0  0  3  0  0  0  0  0  0
  -25.9460  -32.5190   23.8440 C   0  0  0  0  0  3  0  0  0  0  0  0
  -26.4570  -31.7440   25.1210 C   0  0  1  0  0  0  0  0  0  0  0  0
  -25.3630  -31.5140   26.1900 C   0  0  0  0  0  1  0  0  0  0  0  0
  -27.0310  -30.3620   24.7380 C   0  0  0  0  0  1  0  0  0  0  0  0
  -27.6140  -32.5300   25.7830 C   0  0  0  0  0  1  0  0  0  0  0  0
  -25.6340  -33.9160   24.1910 N   0  0  0  0  0  0  0  0  0  0  0  0
  -25.9440  -34.9820   23.4400 C   0  0  0  0  0  0  0  0  0  0  0  0
  -26.5840  -34.8920   22.3890 O   0  0  0  0  0  0  0  0  0  0  0  0
  -25.0610  -34.0590   25.0090 H   0  0  0  0  0  0  0  0  0  0  0  0
  -24.1910  -36.7740   23.1840 C   0  0  0  0  0  1  0  0  0  0  0  0
  -25.4730  -36.3670   23.9300 C   0  0  0  0  0  3  0  0  0  0  0  0
  -27.6390  -37.2650   24.6630 C   0  0  0  0  0  1  0  0  0  0  0  0
  -26.4920  -37.4280   23.7730 N   0  0  0  0  0  0  0  0  0  0  0  0
  -26.0880  -38.3450   23.9420 H   0  0  0  0  0  0  0  0  0  0  0  0
  2  1  1  0
  3  1  2  0
  4  2  2  0
  5  3  1  0
  6  5  2  0
  6  4  1  0
  7  8  2  0
  7  5  1  0
  8 17  1  0
  9 17  1  0
 10 15  1  0
 11 12  1  0
 11 10  1  0
 13 12  1  0
 13 22  1  0
 13 14  1  0
 15  9  1  0
 15 14  1  0
 16  9  2  0
 17 18  1  0
 19 20  2  0
 20 39  1  0
 21 20  1  0
 21 24  1  0
 22 19  1  0
 22 23  1  0
 23 21  2  0
 24 25  1  0
 25 26  2  0
 27 30  1  0
 27 26  1  0
 28 27  2  0
 29 28  1  0
 29 24  2  0
 30 31  1  0
 31 32  1  0
 32 33  2  0
 34 33  1  0
 34 38  1  0
 35 34  2  0
 36 31  2  0
 36 35  1  0
 37 36  1  0
 39 40  1  0
 40 43  1  0
 40 42  1  0
 41 39  2  0
 44 45  1  0
 44 19  1  0
 46 44  1  0
 47 48  1  0
 47  6  1  0
 49 60  2  0
 50 48  1  0
 50 55  1  0
 51 59  1  0
 51 61  1  0
 52 58  1  0
 52 54  1  0
 53 59  1  0
 54 53  1  0
 55 54  2  0
 56 50  2  0
 57 56  1  0
 57 52  2  0
 58 51  1  0
 59 49  1  0
 61 63  2  0
 62 61  1  0
 64 62  1  0
 65 74  2  0
 65 70  1  0
 66 62  1  0
 66 70  1  0
 67 66  1  0
 68 69  1  0
 68 67  1  0
 69 65  1  0
 70 71  2  0
 71 72  1  0
 73 72  2  0
 74 73  1  0
 75 49  1  0
 75 80  1  0
 75 76  1  0
 76 79  1  1
 76 77  1  0
 78 76  1  0
 80 83  1  0
 81 85  1  0
 81 80  1  0
 82 81  2  0
 85 84  1  0
 87 85  1  0
 87 88  1  0
 87 86  1  0
M  ISO  4   9 100  17 100  47 101  48 101
M  END
>  <TORSDO>  (55) 
F 19

>  <SCORE>  (55) 
-16.513

>  <name>  (55) 
54

>  <ligand_id>  (55) 
54

>  <original_smiles>  (55) 
[H]c1c([H])c([H])c(C([H])([H])C([H])([H])N([H])C(=O)N2C([H])([H])C([H])([H])C([H])([H])C([H])(n3nc(-c4c([H])c([H])c(Oc5c([H])c([H])c(F)c([H])c5F)c([H])c4[H])c(C(=O)N([H])[H])c3N([H])[H])C2([H])[H])c(C([H])([H])Oc2c([H])c([H])c3c(c2[H])C([H])([H])N(C(=O)C([H])(N([H])C(=O)C([H])(N([H])C([H])([H])[H])C([H])([H])[H])C(C([H])([H])[H])(C([H])([H])[H])C([H])([H])[H])C([H])(C(=O)N([H])C2([H])c4c([H])c([H])c([H])c([H])c4C([H])([H])C([H])([H])C2([H])[H])C3([H])[H])c1[H]

>  <smiles>  (55) 
[H]c1c([H])c([H])c(C([H])([H])C([H])([H])N([H])C(=O)N2C([H])([H])C([H])([H])C([H])([H])C([H])(n3nc(-c4c([H])c([H])c(Oc5c([H])c([H])c(F)c([H])c5F)c([H])c4[H])c(C(=O)N([H])[H])c3N([H])[H])C2([H])[H])c(C([H])([H])Oc2c([H])c([H])c3c(c2[H])C([H])([H])N(C(=O)C([H])(N([H])C(=O)C([H])(N([H])C([H])([H])[H])C([H])([H])[H])C(C([H])([H])[H])(C([H])([H])[H])C([H])([H])[H])C([H])(C(=O)N([H])C2([H])c4c([H])c([H])c([H])c([H])c4C([H])([H])C([H])([H])C2([H])[H])C3([H])[H])c1[H]

$$$$
55:0:0
     RDKit          3D

 90 99  0  0  1  0  0  0  0  0999 V2000
  -29.6680  -17.5600   20.2450 C   0  0  0  0  0  0  0  0  0  0  0  0
  -29.5240  -20.3190   20.8850 C   0  0  0  0  0  0  0  0  0  0  0  0
  -28.6540  -20.7850   19.8620 C   0  0  0  0  0  0  0  0  0  0  0  0
  -30.0060  -18.8350   21.0490 C   0  0  0  0  0  0  0  0  0  0  0  0
  -28.7500  -18.1450   19.2430 C   0  0  0  0  0  0  0  0  0  0  0  0
  -28.3140  -19.5900   19.0620 C   0  0  0  0  0  0  0  0  0  0  0  0
  -29.8010  -21.6110   21.8010 C   0  0  0  0  0  2  0  0  0  0  0  0
  -28.1630  -22.4670   19.6270 C   0  0  0  0  0  2  0  0  0  0  0  0
  -29.6310  -23.2240   21.3300 C   0  0  0  0  0  2  0  0  0  0  0  0
  -28.3310  -23.9370   20.6260 C   0  0  0  0  0  3  0  0  0  0  0  0
  -30.9590  -18.6110   22.2100 C   0  0  0  0  0  1  0  0  0  0  0  0
  -28.2040  -17.1320   18.2380 C   0  0  0  0  0  1  0  0  0  0  0  0
  -27.4030  -19.9020   17.8780 C   0  0  0  0  0  1  0  0  0  0  0  0
  -30.3420  -15.8880   20.2160 C   0  0  0  0  0  0  0  0  0  0  0  0
  -30.4120  -13.3710   19.3020 C   0  0  0  0  0  2  0  0  0  0  0  0
  -29.4870  -12.9850   18.1100 C   0  0  0  0  0  2  0  0  0  0  0  0
  -28.0840  -12.5980   18.5990 C   0  0  0  0  0  2  0  0  0  0  0  0
  -27.5940  -13.5670   19.6970 C   0  0  0  0  0  3  0  0  0  0  0  0
  -28.6510  -13.8780   20.7790 C   0  0  0  0  0  2  0  0  0  0  0  0
  -29.8030  -14.5260   20.1090 N   0  0  0  0  0  0  0  0  0  0  0  0
  -31.5760  -15.7730   20.0710 O   0  0  0  0  0  0  0  0  0  0  0  0
  -25.2590  -14.0520   20.5540 C   0  0  0  0  0  0  0  0  0  0  0  0
  -24.2180  -13.2500   20.9270 C   0  0  0  0  0  0  0  0  0  0  0  0
  -24.7030  -11.9080   20.8460 C   0  0  0  0  0  0  0  0  0  0  0  0
  -26.3030  -13.1980   20.2540 N   0  0  0  0  0  0  0  0  0  0  0  0
  -25.9850  -11.9000   20.4980 N   0  0  0  0  0  0  0  0  0  0  0  0
  -23.9930  -10.6310   21.0200 C   0  0  0  0  0  0  0  0  0  0  0  0
  -24.4170   -9.6710   21.9640 C   0  0  0  0  0  3  0  0  0  0  0  0
  -23.7040   -8.4640   22.1260 C   0  0  0  0  0  3  0  0  0  0  0  0
  -22.5520   -8.2090   21.3450 C   0  0  0  0  0  0  0  0  0  0  0  0
  -22.1470   -9.1590   20.3910 C   0  0  0  0  0  3  0  0  0  0  0  0
  -22.8610  -10.3570   20.2250 C   0  0  0  0  0  3  0  0  0  0  0  0
  -21.8110   -7.0530   21.4180 O   0  0  0  0  0  0  0  0  0  0  0  0
  -21.6880   -6.3490   22.5890 C   0  0  0  0  0  0  0  0  0  0  0  0
  -21.1050   -6.9170   23.7420 C   0  0  0  0  0  3  0  0  0  0  0  0
  -20.9360   -6.1350   24.9020 C   0  0  0  0  0  3  0  0  0  0  0  0
  -21.3400   -4.7860   24.9090 C   0  0  0  0  0  0  0  0  0  0  0  0
  -21.9160   -4.2190   23.7590 C   0  0  0  0  0  3  0  0  0  0  0  0
  -22.0870   -4.9980   22.6020 C   0  0  0  0  0  0  0  0  0  0  0  0
  -22.6230   -4.4380   21.4900 F   0  0  0  0  0  0  0  0  0  0  0  0
  -21.1710   -4.0340   26.0220 F   0  0  0  0  0  0  0  0  0  0  0  0
  -22.8230  -13.7040   21.2400 C   0  0  0  0  0  0  0  0  0  0  0  0
  -22.1260  -12.9860   22.1140 N   0  0  0  0  0  0  0  0  0  0  0  0
  -22.3610  -14.7320   20.7470 O   0  0  0  0  0  0  0  0  0  0  0  0
  -22.5120  -12.1530   22.5330 H   0  0  0  0  0  0  0  0  0  0  0  0
  -21.1910  -13.2730   22.3670 H   0  0  0  0  0  0  0  0  0  0  0  0
  -25.4020  -15.4290   20.4130 N   0  0  0  0  0  0  0  0  0  0  0  0
  -24.6360  -16.0740   20.5740 H   0  0  0  0  0  0  0  0  0  0  0  0
  -26.2490  -15.8910   20.1060 H   0  0  0  0  0  0  0  0  0  0  0  0
  -28.3260  -25.7080   20.3980 O   0  0  0  0  0  0  0  0  0  0  0  0
  -24.7200  -31.9880   23.3100 C   0  0  0  0  0  0  0  0  0  0  0  0
  -27.3130  -26.8940   20.3830 C   0  0  0  0  0  0  0  0  0  0  0  0
  -23.5560  -30.5670   21.6790 C   0  0  0  0  0  3  0  0  0  0  0  0
  -25.0270  -28.9160   20.2910 C   0  0  0  0  0  0  0  0  0  0  0  0
  -26.1340  -30.7290   21.5680 C   0  0  0  0  0  2  0  0  0  0  0  0
  -26.2160  -29.2890   20.9270 C   0  0  0  0  0  0  0  0  0  0  0  0
  -27.3450  -28.3080   20.9310 C   0  0  0  0  0  3  0  0  0  0  0  0
  -26.0810  -26.7310   19.6970 C   0  0  0  0  0  3  0  0  0  0  0  0
  -24.9980  -27.6640   19.6520 C   0  0  0  0  0  3  0  0  0  0  0  0
  -23.8110  -29.8590   20.3150 C   0  0  0  0  0  2  0  0  0  0  0  0
  -24.8280  -31.1290   22.2390 N   0  0  0  0  0  0  0  0  0  0  0  0
  -23.6200  -32.2830   23.8100 O   0  0  0  0  0  0  0  0  0  0  0  0
  -22.8420  -29.5910   22.6530 C   0  0  0  0  0  0  0  0  0  0  0  0
  -21.5180  -29.3980   22.5000 N   0  0  0  0  0  0  0  0  0  0  0  0
  -23.4940  -29.0020   23.5180 O   0  0  0  0  0  0  0  0  0  0  0  0
  -21.0420  -29.9240   21.7800 H   0  0  0  0  0  0  0  0  0  0  0  0
  -18.1530  -28.1040   22.9590 C   0  0  0  0  0  0  0  0  0  0  0  0
  -20.6990  -28.4560   23.2710 C   0  0  0  0  0  3  0  0  0  0  0  0
  -20.8530  -27.0140   22.7310 C   0  0  0  0  0  2  0  0  0  0  0  0
  -19.7850  -26.6390   21.6980 C   0  0  0  0  0  2  0  0  0  0  0  0
  -18.3860  -26.7510   22.3080 C   0  0  0  0  0  2  0  0  0  0  0  0
  -19.2380  -28.9110   23.3960 C   0  0  0  0  0  0  0  0  0  0  0  0
  -18.9640  -30.1720   23.9700 C   0  0  0  0  0  3  0  0  0  0  0  0
  -17.6390  -30.6290   24.1050 C   0  0  0  0  0  3  0  0  0  0  0  0
  -16.5700  -29.8220   23.6820 C   0  0  0  0  0  3  0  0  0  0  0  0
  -16.8270  -28.5600   23.1140 C   0  0  0  0  0  3  0  0  0  0  0  0
  -25.9720  -32.6560   23.9570 C   0  0  0  0  0  3  0  0  0  0  0  0
  -25.6390  -34.0610   24.2650 N   0  0  0  0  0  0  0  0  0  0  0  0
  -25.9430  -35.1140   23.4940 C   0  0  0  0  0  0  0  0  0  0  0  0
  -26.5910  -35.0070   22.4510 O   0  0  0  0  0  0  0  0  0  0  0  0
  -25.0640  -34.2170   25.0800 H   0  0  0  0  0  0  0  0  0  0  0  0
  -24.1730  -36.8820   23.1870 C   0  0  0  0  0  1  0  0  0  0  0  0
  -25.4540  -36.5080   23.9490 C   0  0  0  0  0  3  0  0  0  0  0  0
  -27.5990  -37.4550   24.6820 C   0  0  0  0  0  1  0  0  0  0  0  0
  -26.4630  -37.5750   23.7710 N   0  0  0  0  0  0  0  0  0  0  0  0
  -26.0460  -38.4910   23.9070 H   0  0  0  0  0  0  0  0  0  0  0  0
  -26.4540  -31.9230   25.2710 C   0  0  1  0  0  0  0  0  0  0  0  0
  -25.3290  -31.6980   26.3100 C   0  0  0  0  0  1  0  0  0  0  0  0
  -27.0650  -30.5430   24.9440 C   0  0  0  0  0  1  0  0  0  0  0  0
  -27.5740  -32.7470   25.9490 C   0  0  0  0  0  1  0  0  0  0  0  0
  1  4  1  0
  2  4  2  0
  2  7  1  0
  3  2  1  0
  4 11  1  0
  5  1  2  0
  6  5  1  0
  6  3  2  0
  8  3  1  0
  8 10  1  0
  9  7  1  0
 10 50  1  0
 10  9  1  0
 12  5  1  0
 13  6  1  0
 14  1  1  0
 15 20  1  0
 16 17  1  0
 16 15  1  0
 18 17  1  0
 18 25  1  0
 18 19  1  0
 20 14  1  0
 20 19  1  0
 21 14  2  0
 22 23  2  0
 23 42  1  0
 24 23  1  0
 24 27  1  0
 25 26  1  0
 25 22  1  0
 26 24  2  0
 27 28  1  0
 28 29  2  0
 30 33  1  0
 30 29  1  0
 31 30  2  0
 32 31  1  0
 32 27  2  0
 33 34  1  0
 34 39  2  0
 34 35  1  0
 35 36  2  0
 36 37  1  0
 37 41  1  0
 38 37  2  0
 39 38  1  0
 40 39  1  0
 42 43  1  0
 43 46  1  0
 43 45  1  0
 44 42  2  0
 47 22  1  0
 47 48  1  0
 49 47  1  0
 51 62  2  0
 52 50  1  0
 52 57  1  0
 53 61  1  0
 53 63  1  0
 54 60  1  0
 54 56  1  0
 55 61  1  0
 56 57  2  0
 56 55  1  0
 58 52  2  0
 59 58  1  0
 59 54  2  0
 60 53  1  0
 61 51  1  0
 63 65  2  0
 64 63  1  0
 66 64  1  0
 67 76  2  0
 67 72  1  0
 68 64  1  0
 68 72  1  0
 69 68  1  0
 70 71  1  0
 70 69  1  0
 71 67  1  0
 72 73  2  0
 73 74  1  0
 75 74  2  0
 76 75  1  0
 77 51  1  0
 77 78  1  0
 77 87  1  0
 78 81  1  0
 79 83  1  0
 79 78  1  0
 80 79  2  0
 83 82  1  0
 85 86  1  0
 85 83  1  0
 85 84  1  0
 87 90  1  1
 87 88  1  0
 89 87  1  0
M  ISO  4   1 100  10 101  14 100  50 101
M  END
>  <TORSDO>  (56) 
F 16

>  <SCORE>  (56) 
-16.737

>  <name>  (56) 
55

>  <ligand_id>  (56) 
55

>  <original_smiles>  (56) 
[H]c1c([H])c([H])c2c(c1[H])C([H])([H])C([H])([H])C([H])([H])C2([H])N([H])C(=O)C1([H])N(C(=O)C([H])(N([H])C(=O)C([H])(N([H])C([H])([H])[H])C([H])([H])[H])C(C([H])([H])[H])(C([H])([H])[H])C([H])([H])[H])C([H])([H])c2c([H])c(OC3([H])C([H])([H])c4c(C([H])([H])[H])c(C([H])([H])[H])c(C(=O)N5C([H])([H])C([H])([H])C([H])([H])C([H])(n6nc(-c7c([H])c([H])c(Oc8c([H])c([H])c(F)c([H])c8F)c([H])c7[H])c(C(=O)N([H])[H])c6N([H])[H])C5([H])[H])c(C([H])([H])[H])c4C([H])([H])C3([H])[H])c([H])c([H])c2C1([H])[H]

>  <smiles>  (56) 
[H]c1c([H])c([H])c2c(c1[H])C([H])([H])C([H])([H])C([H])([H])C2([H])N([H])C(=O)C1([H])N(C(=O)C([H])(N([H])C(=O)C([H])(N([H])C([H])([H])[H])C([H])([H])[H])C(C([H])([H])[H])(C([H])([H])[H])C([H])([H])[H])C([H])([H])c2c([H])c(OC3([H])C([H])([H])c4c(C([H])([H])[H])c(C([H])([H])[H])c(C(=O)N5C([H])([H])C([H])([H])C([H])([H])C([H])(n6nc(-c7c([H])c([H])c(Oc8c([H])c([H])c(F)c([H])c8F)c([H])c7[H])c(C(=O)N([H])[H])c6N([H])[H])C5([H])[H])c(C([H])([H])[H])c4C([H])([H])C3([H])[H])c([H])c([H])c2C1([H])[H]

$$$$
56:0:0
     RDKit          3D

 90 98  0  0  1  0  0  0  0  0999 V2000
  -29.6990  -21.4830   20.8900 C   0  0  0  0  0  3  0  0  0  0  0  0
  -30.4950  -19.1990   21.3080 C   0  0  0  0  0  3  0  0  0  0  0  0
  -29.8930  -19.8880   19.0610 C   0  0  0  0  0  3  0  0  0  0  0  0
  -30.1600  -20.4880   21.7740 C   0  0  0  0  0  0  0  0  0  0  0  0
  -29.5340  -21.2160   19.5160 C   0  0  0  0  0  0  0  0  0  0  0  0
  -30.3770  -18.8410   19.9390 C   0  0  0  0  0  0  0  0  0  0  0  0
  -30.2480  -20.7870   23.2590 C   0  0  0  0  0  1  0  0  0  0  0  0
  -28.8250  -22.3050   18.6150 C   0  0  0  0  0  2  0  0  0  0  0  0
  -29.0550  -23.8890   18.8130 C   0  0  0  0  0  3  0  0  0  0  0  0
  -27.9800  -24.8660   18.1420 C   0  0  0  0  0  3  0  0  0  0  0  0
  -28.0740  -26.3530   18.2550 O   0  0  0  0  0  0  0  0  0  0  0  0
  -24.9380  -30.9120   22.8910 C   0  0  0  0  0  0  0  0  0  0  0  0
  -26.9450  -27.1410   18.5580 C   0  0  0  0  0  0  0  0  0  0  0  0
  -23.4440  -29.7730   21.2870 C   0  0  0  0  0  3  0  0  0  0  0  0
  -24.5970  -28.6020   19.3300 C   0  0  0  0  0  0  0  0  0  0  0  0
  -25.8830  -30.2650   20.6630 C   0  0  0  0  0  2  0  0  0  0  0  0
  -25.8540  -29.0300   19.7690 C   0  0  0  0  0  0  0  0  0  0  0  0
  -27.0250  -28.3040   19.3910 C   0  0  0  0  0  3  0  0  0  0  0  0
  -25.6570  -26.8010   18.0770 C   0  0  0  0  0  3  0  0  0  0  0  0
  -24.4990  -27.4930   18.4800 C   0  0  0  0  0  3  0  0  0  0  0  0
  -23.3810  -29.3810   19.7870 C   0  0  0  0  0  2  0  0  0  0  0  0
  -24.7850  -30.3240   21.6690 N   0  0  0  0  0  0  0  0  0  0  0  0
  -23.9850  -31.0210   23.6760 O   0  0  0  0  0  0  0  0  0  0  0  0
  -23.0190  -28.5610   22.1470 C   0  0  0  0  0  0  0  0  0  0  0  0
  -21.7640  -28.1090   21.9790 N   0  0  0  0  0  0  0  0  0  0  0  0
  -23.8170  -28.0320   22.9250 O   0  0  0  0  0  0  0  0  0  0  0  0
  -21.1550  -28.6180   21.3510 H   0  0  0  0  0  0  0  0  0  0  0  0
  -18.9070  -25.8940   21.9940 C   0  0  0  0  0  0  0  0  0  0  0  0
  -21.1750  -26.9480   22.6470 C   0  0  0  0  0  3  0  0  0  0  0  0
  -21.8140  -25.6330   22.1490 C   0  0  0  0  0  2  0  0  0  0  0  0
  -21.0450  -24.9820   20.9950 C   0  0  0  0  0  2  0  0  0  0  0  0
  -19.6020  -24.6770   21.4110 C   0  0  0  0  0  2  0  0  0  0  0  0
  -19.6440  -26.9630   22.5670 C   0  0  0  0  0  0  0  0  0  0  0  0
  -18.9470  -28.0780   23.0810 C   0  0  0  0  0  3  0  0  0  0  0  0
  -17.5420  -28.1410   23.0200 C   0  0  0  0  0  3  0  0  0  0  0  0
  -16.8180  -27.0770   22.4550 C   0  0  0  0  0  3  0  0  0  0  0  0
  -17.4980  -25.9550   21.9490 C   0  0  0  0  0  3  0  0  0  0  0  0
  -26.3090  -31.4950   23.3500 C   0  0  0  0  0  3  0  0  0  0  0  0
  -27.1130  -30.5180   24.2940 C   0  0  1  0  0  0  0  0  0  0  0  0
  -26.2730  -29.9510   25.4620 C   0  0  0  0  0  1  0  0  0  0  0  0
  -27.6740  -29.3230   23.4900 C   0  0  0  0  0  1  0  0  0  0  0  0
  -28.3300  -31.2560   24.8990 C   0  0  0  0  0  1  0  0  0  0  0  0
  -26.0440  -32.7700   24.0330 N   0  0  0  0  0  0  0  0  0  0  0  0
  -26.2480  -33.9800   23.4900 C   0  0  0  0  0  0  0  0  0  0  0  0
  -26.7560  -34.1360   22.3760 O   0  0  0  0  0  0  0  0  0  0  0  0
  -25.5790  -32.7170   24.9280 H   0  0  0  0  0  0  0  0  0  0  0  0
  -24.4910  -35.7570   23.7890 C   0  0  0  0  0  1  0  0  0  0  0  0
  -25.8260  -35.2090   24.3190 C   0  0  0  0  0  3  0  0  0  0  0  0
  -28.0460  -35.9490   25.0660 C   0  0  0  0  0  1  0  0  0  0  0  0
  -26.8350  -36.2910   24.3240 N   0  0  0  0  0  0  0  0  0  0  0  0
  -26.4500  -37.1430   24.7250 H   0  0  0  0  0  0  0  0  0  0  0  0
  -30.7090  -17.3640   19.4250 C   0  0  0  0  0  2  0  0  0  0  0  0
  -31.4110  -14.9010   19.6240 C   0  0  0  0  0  0  0  0  0  0  0  0
  -31.1350  -12.5530   18.7970 C   0  0  0  0  0  2  0  0  0  0  0  0
  -30.0980  -12.4970   17.6540 C   0  0  0  0  0  2  0  0  0  0  0  0
  -28.6720  -12.3460   18.2130 C   0  0  0  0  0  2  0  0  0  0  0  0
  -28.3820  -13.3420   19.3640 C   0  0  0  0  0  3  0  0  0  0  0  0
  -29.5260  -13.3490   20.4020 C   0  0  0  0  0  2  0  0  0  0  0  0
  -30.7780  -13.6750   19.6990 N   0  0  0  0  0  0  0  0  0  0  0  0
  -32.4350  -15.0200   18.9440 O   0  0  0  0  0  0  0  0  0  0  0  0
  -30.8150  -16.0830   21.6520 C   0  0  0  0  0  1  0  0  0  0  0  0
  -30.8090  -16.0240   20.1730 N   0  0  0  0  0  0  0  0  0  0  0  0
  -26.1220  -13.9980   20.3990 C   0  0  0  0  0  0  0  0  0  0  0  0
  -25.0630  -13.2520   20.8390 C   0  0  0  0  0  0  0  0  0  0  0  0
  -25.4420  -11.8850   20.6610 C   0  0  0  0  0  0  0  0  0  0  0  0
  -27.0820  -13.0890   19.9830 N   0  0  0  0  0  0  0  0  0  0  0  0
  -26.6840  -11.8090   20.1990 N   0  0  0  0  0  0  0  0  0  0  0  0
  -24.6730  -10.6490   20.8520 C   0  0  0  0  0  0  0  0  0  0  0  0
  -24.9880   -9.7320   21.8800 C   0  0  0  0  0  3  0  0  0  0  0  0
  -24.2210   -8.5590   22.0530 C   0  0  0  0  0  3  0  0  0  0  0  0
  -23.1250   -8.2950   21.1980 C   0  0  0  0  0  0  0  0  0  0  0  0
  -22.8290   -9.1990   20.1630 C   0  0  0  0  0  3  0  0  0  0  0  0
  -23.5970  -10.3630   19.9880 C   0  0  0  0  0  3  0  0  0  0  0  0
  -22.3380   -7.1710   21.2770 O   0  0  0  0  0  0  0  0  0  0  0  0
  -21.9350   -6.6600   22.4840 C   0  0  0  0  0  0  0  0  0  0  0  0
  -21.1700   -7.4180   23.3960 C   0  0  0  0  0  3  0  0  0  0  0  0
  -20.7150   -6.8310   24.5940 C   0  0  0  0  0  3  0  0  0  0  0  0
  -21.0150   -5.4850   24.8770 C   0  0  0  0  0  0  0  0  0  0  0  0
  -21.7710   -4.7250   23.9670 C   0  0  0  0  0  3  0  0  0  0  0  0
  -22.2260   -5.3100   22.7720 C   0  0  0  0  0  0  0  0  0  0  0  0
  -22.9370   -4.5680   21.8880 F   0  0  0  0  0  0  0  0  0  0  0  0
  -20.5720   -4.9160   26.0230 F   0  0  0  0  0  0  0  0  0  0  0  0
  -23.7360  -13.7720   21.3080 C   0  0  0  0  0  0  0  0  0  0  0  0
  -23.1190  -13.1000   22.2740 N   0  0  0  0  0  0  0  0  0  0  0  0
  -23.2600  -14.8130   20.8530 O   0  0  0  0  0  0  0  0  0  0  0  0
  -23.5180  -12.2570   22.6620 H   0  0  0  0  0  0  0  0  0  0  0  0
  -22.2360  -13.4330   22.6330 H   0  0  0  0  0  0  0  0  0  0  0  0
  -26.3410  -15.3700   20.2950 N   0  0  0  0  0  0  0  0  0  0  0  0
  -25.6320  -16.0530   20.5410 H   0  0  0  0  0  0  0  0  0  0  0  0
  -27.1740  -15.7880   19.9020 H   0  0  0  0  0  0  0  0  0  0  0  0
  1  4  1  0
  2  4  2  0
  3  5  1  0
  3  6  2  0
  4  7  1  0
  5  1  2  0
  6  2  1  0
  8  9  1  0
  8  5  1  0
 10 11  1  0
 10  9  2  0
 11 13  1  0
 12 23  2  0
 13 18  1  0
 14 22  1  0
 14 24  1  0
 15 17  1  0
 15 21  1  0
 16 22  1  0
 17 16  1  0
 18 17  2  0
 19 20  1  0
 19 13  2  0
 20 15  2  0
 21 14  1  0
 22 12  1  0
 24 26  2  0
 25 24  1  0
 27 25  1  0
 28 33  1  0
 29 25  1  0
 30 29  1  0
 31 32  1  0
 31 30  1  0
 32 28  1  0
 33 29  1  0
 33 34  2  0
 35 34  1  0
 36 35  2  0
 37 28  2  0
 37 36  1  0
 38 12  1  0
 38 43  1  0
 38 39  1  0
 39 42  1  1
 39 40  1  0
 41 39  1  0
 43 46  1  0
 44 43  1  0
 44 48  1  0
 45 44  2  0
 48 47  1  0
 48 50  1  0
 50 51  1  0
 50 49  1  0
 52  6  1  0
 52 62  1  0
 53 59  1  0
 53 62  1  0
 54 59  1  0
 55 56  1  0
 55 54  1  0
 57 56  1  0
 57 66  1  0
 57 58  1  0
 59 58  1  0
 60 53  2  0
 62 61  1  0
 63 64  2  0
 64 83  1  0
 65 64  1  0
 65 68  1  0
 66 67  1  0
 66 63  1  0
 67 65  2  0
 68 69  1  0
 69 70  2  0
 71 74  1  0
 71 70  1  0
 72 71  2  0
 73 72  1  0
 73 68  2  0
 74 75  1  0
 75 80  2  0
 75 76  1  0
 76 77  2  0
 77 78  1  0
 78 82  1  0
 79 78  2  0
 80 79  1  0
 81 80  1  0
 83 84  1  0
 84 87  1  0
 84 86  1  0
 85 83  2  0
 88 63  1  0
 88 89  1  0
 90 88  1  0
M  ISO  4  10 101  11 101  53 100  62 100
M  END
>  <TORSDO>  (57) 
F 20

>  <SCORE>  (57) 
-9.978

>  <name>  (57) 
56

>  <ligand_id>  (57) 
56

>  <original_smiles>  (57) 
[H]c1c([H])c([H])c2c(c1[H])C([H])([H])C([H])([H])C([H])([H])C2([H])N([H])C(=O)C1([H])N(C(=O)C([H])(N([H])C(=O)C([H])(N([H])C([H])([H])[H])C([H])([H])[H])C(C([H])([H])[H])(C([H])([H])[H])C([H])([H])[H])C([H])([H])c2c([H])c(OC([H])([H])C([H])([H])C([H])([H])c3c([H])c(C([H])([H])[H])c([H])c(C([H])([H])N(C(=O)N4C([H])([H])C([H])([H])C([H])([H])C([H])(n5nc(-c6c([H])c([H])c(Oc7c([H])c([H])c(F)c([H])c7F)c([H])c6[H])c(C(=O)N([H])[H])c5N([H])[H])C4([H])[H])C([H])([H])[H])c3[H])c([H])c([H])c2C1([H])[H]

>  <smiles>  (57) 
[H]c1c([H])c([H])c2c(c1[H])C([H])([H])C([H])([H])C([H])([H])C2([H])N([H])C(=O)C1([H])N(C(=O)C([H])(N([H])C(=O)C([H])(N([H])C([H])([H])[H])C([H])([H])[H])C(C([H])([H])[H])(C([H])([H])[H])C([H])([H])[H])C([H])([H])c2c([H])c(OC([H])([H])C([H])([H])C([H])([H])c3c([H])c(C([H])([H])[H])c([H])c(C([H])([H])N(C(=O)N4C([H])([H])C([H])([H])C([H])([H])C([H])(n5nc(-c6c([H])c([H])c(Oc7c([H])c([H])c(F)c([H])c7F)c([H])c6[H])c(C(=O)N([H])[H])c5N([H])[H])C4([H])[H])C([H])([H])[H])c3[H])c([H])c([H])c2C1([H])[H]

$$$$
57:0:0
     RDKit          3D

 92101  0  0  1  0  0  0  0  0999 V2000
  -28.9850  -23.5880   19.9800 C   0  0  0  0  0  3  0  0  0  0  0  0
  -28.8610  -25.0970   21.8840 C   0  0  0  0  0  3  0  0  0  0  0  0
  -29.3080  -22.3600   20.7930 C   0  0  0  0  0  0  0  0  0  0  0  0
  -29.2120  -23.9870   22.6790 C   0  0  0  0  0  0  0  0  0  0  0  0
  -29.4110  -22.6830   22.1790 C   0  0  0  0  0  0  0  0  0  0  0  0
  -28.7260  -24.9780   20.4870 C   0  0  0  0  0  0  0  0  0  0  0  0
  -29.5030  -24.0970   24.1540 C   0  0  0  0  0  2  0  0  0  0  0  0
  -29.7810  -21.7600   23.3230 C   0  0  0  0  0  2  0  0  0  0  0  0
  -30.0180  -22.6980   24.5340 C   0  0  0  0  0  2  0  0  0  0  0  0
  -29.6760  -20.8820   20.2110 C   0  0  0  0  0  0  0  0  0  0  0  0
  -29.7220  -19.6080   20.8880 N   0  0  0  0  0  0  0  0  0  0  0  0
  -29.9720  -20.8730   19.0160 O   0  0  0  0  0  0  0  0  0  0  0  0
  -29.4120  -19.6370   21.8530 H   0  0  0  0  0  0  0  0  0  0  0  0
  -30.3110  -18.1800   20.4190 C   0  0  0  0  0  3  0  0  0  0  0  0
  -29.9630  -16.6050   21.0200 C   0  0  0  0  0  3  0  0  0  0  0  0
  -30.7910  -15.1510   20.7410 C   0  0  0  0  0  0  0  0  0  0  0  0
  -30.7710  -12.7310   19.8920 C   0  0  0  0  0  2  0  0  0  0  0  0
  -29.9300  -12.6260   18.5920 C   0  0  0  0  0  2  0  0  0  0  0  0
  -28.4400  -12.4190   18.9170 C   0  0  0  0  0  2  0  0  0  0  0  0
  -27.9490  -13.3880   20.0170 C   0  0  0  0  0  3  0  0  0  0  0  0
  -28.9150  -13.4570   21.2210 C   0  0  0  0  0  2  0  0  0  0  0  0
  -30.2320  -13.8620   20.7120 N   0  0  0  0  0  0  0  0  0  0  0  0
  -31.9930  -15.2040   20.4550 O   0  0  0  0  0  0  0  0  0  0  0  0
  -25.5330  -14.0060   20.5820 C   0  0  0  0  0  0  0  0  0  0  0  0
  -24.4360  -13.2510   20.8950 C   0  0  0  0  0  0  0  0  0  0  0  0
  -24.8810  -11.8940   20.9230 C   0  0  0  0  0  0  0  0  0  0  0  0
  -26.5790  -13.1100   20.4290 N   0  0  0  0  0  0  0  0  0  0  0  0
  -26.1920  -11.8350   20.7000 N   0  0  0  0  0  0  0  0  0  0  0  0
  -24.1210  -10.6470   21.0930 C   0  0  0  0  0  0  0  0  0  0  0  0
  -24.5010   -9.6700   22.0380 C   0  0  0  0  0  3  0  0  0  0  0  0
  -23.7430   -8.4880   22.1910 C   0  0  0  0  0  3  0  0  0  0  0  0
  -22.5890   -8.2800   21.3980 C   0  0  0  0  0  0  0  0  0  0  0  0
  -22.2330   -9.2410   20.4360 C   0  0  0  0  0  3  0  0  0  0  0  0
  -22.9930  -10.4130   20.2830 C   0  0  0  0  0  3  0  0  0  0  0  0
  -21.8040   -7.1550   21.4600 O   0  0  0  0  0  0  0  0  0  0  0  0
  -21.7260   -6.3890   22.5960 C   0  0  0  0  0  0  0  0  0  0  0  0
  -21.3240   -6.9380   23.8350 C   0  0  0  0  0  3  0  0  0  0  0  0
  -21.1950   -6.1050   24.9640 C   0  0  0  0  0  3  0  0  0  0  0  0
  -21.4570   -4.7260   24.8560 C   0  0  0  0  0  0  0  0  0  0  0  0
  -21.8570   -4.1770   23.6230 C   0  0  0  0  0  3  0  0  0  0  0  0
  -21.9880   -5.0070   22.4970 C   0  0  0  0  0  0  0  0  0  0  0  0
  -22.3510   -4.4710   21.3060 F   0  0  0  0  0  0  0  0  0  0  0  0
  -21.3240   -3.9260   25.9380 F   0  0  0  0  0  0  0  0  0  0  0  0
  -23.0290  -13.7500   21.0660 C   0  0  0  0  0  0  0  0  0  0  0  0
  -22.2420  -13.0860   21.9060 N   0  0  0  0  0  0  0  0  0  0  0  0
  -22.6350  -14.7640   20.4930 O   0  0  0  0  0  0  0  0  0  0  0  0
  -22.5700  -12.2670   22.3940 H   0  0  0  0  0  0  0  0  0  0  0  0
  -21.2930  -13.4000   22.0670 H   0  0  0  0  0  0  0  0  0  0  0  0
  -25.7270  -15.3710   20.3920 N   0  0  0  0  0  0  0  0  0  0  0  0
  -24.9600  -16.0360   20.4230 H   0  0  0  0  0  0  0  0  0  0  0  0
  -26.6050  -15.7950   20.1230 H   0  0  0  0  0  0  0  0  0  0  0  0
  -28.5420  -26.2490   19.7650 O   0  0  0  0  0  0  0  0  0  0  0  0
  -24.7310  -31.6710   23.0940 C   0  0  0  0  0  0  0  0  0  0  0  0
  -27.4230  -27.1570   19.8730 C   0  0  0  0  0  0  0  0  0  0  0  0
  -23.5400  -30.2670   21.4540 C   0  0  0  0  0  3  0  0  0  0  0  0
  -25.0120  -28.7850   19.9550 C   0  0  0  0  0  0  0  0  0  0  0  0
  -26.0680  -30.6580   21.2080 C   0  0  0  0  0  2  0  0  0  0  0  0
  -26.1890  -29.2800   20.5290 C   0  0  0  0  0  0  0  0  0  0  0  0
  -27.3970  -28.4830   20.4700 C   0  0  0  0  0  3  0  0  0  0  0  0
  -26.2100  -26.7530   19.2740 C   0  0  0  0  0  3  0  0  0  0  0  0
  -25.0320  -27.5330   19.3190 C   0  0  0  0  0  3  0  0  0  0  0  0
  -23.7460  -29.6280   20.0570 C   0  0  0  0  0  2  0  0  0  0  0  0
  -24.8040  -30.8820   21.9770 N   0  0  0  0  0  0  0  0  0  0  0  0
  -23.6510  -31.8970   23.6620 O   0  0  0  0  0  0  0  0  0  0  0  0
  -22.9310  -29.2110   22.4090 C   0  0  0  0  0  0  0  0  0  0  0  0
  -21.6170  -28.9500   22.2780 N   0  0  0  0  0  0  0  0  0  0  0  0
  -23.6420  -28.6260   23.2290 O   0  0  0  0  0  0  0  0  0  0  0  0
  -21.0970  -29.4680   21.5850 H   0  0  0  0  0  0  0  0  0  0  0  0
  -18.3550  -27.4290   22.6810 C   0  0  0  0  0  0  0  0  0  0  0  0
  -20.8610  -27.9510   23.0380 C   0  0  0  0  0  3  0  0  0  0  0  0
  -21.1300  -26.5260   22.5000 C   0  0  0  0  0  2  0  0  0  0  0  0
  -20.1060  -26.0740   21.4540 C   0  0  0  0  0  2  0  0  0  0  0  0
  -18.6920  -26.0930   22.0420 C   0  0  0  0  0  2  0  0  0  0  0  0
  -19.3740  -28.3080   23.1340 C   0  0  0  0  0  0  0  0  0  0  0  0
  -19.0090  -29.5500   23.6930 C   0  0  0  0  0  3  0  0  0  0  0  0
  -17.6550  -29.9220   23.7980 C   0  0  0  0  0  3  0  0  0  0  0  0
  -16.6500  -29.0420   23.3630 C   0  0  0  0  0  3  0  0  0  0  0  0
  -16.9990  -27.7960   22.8120 C   0  0  0  0  0  3  0  0  0  0  0  0
  -26.0010  -32.3430   23.6990 C   0  0  0  0  0  3  0  0  0  0  0  0
  -26.5810  -31.5640   24.9440 C   0  0  1  0  0  0  0  0  0  0  0  0
  -25.5250  -31.2690   26.0370 C   0  0  0  0  0  1  0  0  0  0  0  0
  -27.1900  -30.2130   24.5020 C   0  0  0  0  0  1  0  0  0  0  0  0
  -27.7300  -32.3750   25.5860 C   0  0  0  0  0  1  0  0  0  0  0  0
  -25.6510  -33.7210   24.0770 N   0  0  0  0  0  0  0  0  0  0  0  0
  -25.9400  -34.8060   23.3500 C   0  0  0  0  0  0  0  0  0  0  0  0
  -26.6010  -34.7550   22.3100 O   0  0  0  0  0  0  0  0  0  0  0  0
  -25.0710  -33.8390   24.8980 H   0  0  0  0  0  0  0  0  0  0  0  0
  -24.1510  -36.5450   23.0620 C   0  0  0  0  0  1  0  0  0  0  0  0
  -25.4130  -36.1640   23.8510 C   0  0  0  0  0  3  0  0  0  0  0  0
  -27.5280  -37.0860   24.6810 C   0  0  0  0  0  1  0  0  0  0  0  0
  -26.4080  -37.2520   23.7600 N   0  0  0  0  0  0  0  0  0  0  0  0
  -25.9790  -38.1540   23.9490 H   0  0  0  0  0  0  0  0  0  0  0  0
  1  6  2  0
  1  3  1  0
  2  4  2  0
  3  5  2  0
  4  7  1  0
  5  4  1  0
  5  8  1  0
  6  2  1  0
  7  9  1  0
  8  9  1  0
 10  3  1  0
 10 11  1  0
 11 13  1  0
 12 10  2  0
 14 11  1  0
 14 15  2  0
 16 15  1  0
 17 22  1  0
 18 19  1  0
 18 17  1  0
 20 19  1  0
 20 27  1  0
 20 21  1  0
 22 16  1  0
 22 21  1  0
 23 16  2  0
 24 25  2  0
 25 26  1  0
 25 44  1  0
 26 29  1  0
 27 24  1  0
 27 28  1  0
 28 26  2  0
 29 30  1  0
 30 31  2  0
 32 35  1  0
 32 31  1  0
 33 32  2  0
 34 33  1  0
 34 29  2  0
 35 36  1  0
 36 37  1  0
 37 38  2  0
 39 38  1  0
 39 43  1  0
 40 39  2  0
 41 36  2  0
 41 40  1  0
 42 41  1  0
 44 45  1  0
 45 48  1  0
 45 47  1  0
 46 44  2  0
 49 50  1  0
 49 24  1  0
 51 49  1  0
 52 54  1  0
 52  6  1  0
 53 64  2  0
 54 59  1  0
 55 63  1  0
 55 65  1  0
 56 62  1  0
 56 58  1  0
 57 63  1  0
 58 57  1  0
 59 58  2  0
 60 61  1  0
 60 54  2  0
 61 56  2  0
 62 55  1  0
 63 53  1  0
 65 67  2  0
 66 65  1  0
 68 66  1  0
 69 78  2  0
 69 74  1  0
 70 66  1  0
 70 74  1  0
 71 70  1  0
 72 73  1  0
 72 71  1  0
 73 69  1  0
 74 75  2  0
 75 76  1  0
 77 76  2  0
 78 77  1  0
 79 53  1  0
 79 84  1  0
 79 80  1  0
 80 83  1  1
 80 81  1  0
 82 80  1  0
 84 87  1  0
 85 89  1  0
 85 84  1  0
 86 85  2  0
 89 88  1  0
 91 89  1  0
 91 92  1  0
 91 90  1  0
M  ISO  4   6 101  15 100  16 100  52 101
M  END
>  <TORSDO>  (58) 
F 19

>  <SCORE>  (58) 
-14.183

>  <name>  (58) 
57

>  <ligand_id>  (58) 
57

>  <original_smiles>  (58) 
[H]c1c([H])c([H])c2c(c1[H])C([H])([H])C([H])([H])C([H])([H])C2([H])N([H])C(=O)C1([H])N(C(=O)C([H])(N([H])C(=O)C([H])(N([H])C([H])([H])[H])C([H])([H])[H])C(C([H])([H])[H])(C([H])([H])[H])C([H])([H])[H])C([H])([H])c2c([H])c(Oc3c([H])c(C(=O)N([H])C([H])([H])C([H])([H])C(=O)N4C([H])([H])C([H])([H])C([H])([H])C([H])(n5nc(-c6c([H])c([H])c(Oc7c([H])c([H])c(F)c([H])c7F)c([H])c6[H])c(C(=O)N([H])[H])c5N([H])[H])C4([H])[H])c4c(c3[H])C([H])([H])C([H])([H])C4([H])[H])c([H])c([H])c2C1([H])[H]

>  <smiles>  (58) 
[H]c1c([H])c([H])c2c(c1[H])C([H])([H])C([H])([H])C([H])([H])C2([H])N([H])C(=O)C1([H])N(C(=O)C([H])(N([H])C(=O)C([H])(N([H])C([H])([H])[H])C([H])([H])[H])C(C([H])([H])[H])(C([H])([H])[H])C([H])([H])[H])C([H])([H])c2c([H])c(Oc3c([H])c(C(=O)N([H])C([H])([H])C([H])([H])C(=O)N4C([H])([H])C([H])([H])C([H])([H])C([H])(n5nc(-c6c([H])c([H])c(Oc7c([H])c([H])c(F)c([H])c7F)c([H])c6[H])c(C(=O)N([H])[H])c5N([H])[H])C4([H])[H])c4c(c3[H])C([H])([H])C([H])([H])C4([H])[H])c([H])c([H])c2C1([H])[H]

$$$$
58:0:0
     RDKit          3D

 89 97  0  0  1  0  0  0  0  0999 V2000
  -30.4190  -23.2430   20.1900 C   0  0  0  0  0  1  0  0  0  0  0  0
  -28.8120  -22.6810   22.0010 C   0  0  0  0  0  1  0  0  0  0  0  0
  -28.9850  -22.7670   20.4790 C   0  0  2  0  0  0  0  0  0  0  0  0
  -28.8890  -19.6240   17.9230 C   0  0  0  0  0  3  0  0  0  0  0  0
  -29.2710  -18.4200   18.5810 C   0  0  0  0  0  3  0  0  0  0  0  0
  -28.7460  -20.8910   18.5530 C   0  0  0  0  0  3  0  0  0  0  0  0
  -29.3870  -19.7630   20.5810 C   0  0  0  0  0  3  0  0  0  0  0  0
  -29.5420  -18.3540   19.9640 C   0  0  0  0  0  0  0  0  0  0  0  0
  -28.9940  -21.1060   19.9240 C   0  0  0  0  0  0  0  0  0  0  0  0
  -30.3660  -16.9880   22.0650 C   0  0  0  0  0  1  0  0  0  0  0  0
  -29.8000  -16.7680   20.6520 C   0  0  0  0  0  3  0  0  0  0  0  0
  -30.5030  -15.2540   20.0940 C   0  0  0  0  0  0  0  0  0  0  0  0
  -30.4290  -12.8280   19.1530 C   0  0  0  0  0  2  0  0  0  0  0  0
  -29.4610  -12.6880   17.9500 C   0  0  0  0  0  2  0  0  0  0  0  0
  -28.0230  -12.4310   18.4340 C   0  0  0  0  0  2  0  0  0  0  0  0
  -27.6320  -13.3650   19.6050 C   0  0  0  0  0  3  0  0  0  0  0  0
  -28.7210  -13.4470   20.6970 C   0  0  0  0  0  2  0  0  0  0  0  0
  -29.9480  -13.9430   20.0500 N   0  0  0  0  0  0  0  0  0  0  0  0
  -31.6770  -15.2600   19.6900 O   0  0  0  0  0  0  0  0  0  0  0  0
  -25.2900  -13.9330   20.4360 C   0  0  0  0  0  0  0  0  0  0  0  0
  -24.2350  -13.1580   20.8300 C   0  0  0  0  0  0  0  0  0  0  0  0
  -24.6900  -11.8050   20.7710 C   0  0  0  0  0  0  0  0  0  0  0  0
  -26.3180  -13.0520   20.1500 N   0  0  0  0  0  0  0  0  0  0  0  0
  -25.9720  -11.7660   20.4190 N   0  0  0  0  0  0  0  0  0  0  0  0
  -23.9590  -10.5460   20.9720 C   0  0  0  0  0  0  0  0  0  0  0  0
  -24.4040   -9.5700   21.8910 C   0  0  0  0  0  3  0  0  0  0  0  0
  -23.6690   -8.3800   22.0800 C   0  0  0  0  0  3  0  0  0  0  0  0
  -22.4780   -8.1560   21.3520 C   0  0  0  0  0  0  0  0  0  0  0  0
  -22.0510   -9.1210   20.4220 C   0  0  0  0  0  3  0  0  0  0  0  0
  -22.7850  -10.3040   20.2300 C   0  0  0  0  0  3  0  0  0  0  0  0
  -21.7150   -7.0180   21.4510 O   0  0  0  0  0  0  0  0  0  0  0  0
  -21.6740   -6.2770   22.6050 C   0  0  0  0  0  0  0  0  0  0  0  0
  -21.2760   -6.8390   23.8370 C   0  0  0  0  0  3  0  0  0  0  0  0
  -21.1840   -6.0260   24.9850 C   0  0  0  0  0  3  0  0  0  0  0  0
  -21.4750   -4.6510   24.9010 C   0  0  0  0  0  0  0  0  0  0  0  0
  -21.8650   -4.0880   23.6730 C   0  0  0  0  0  3  0  0  0  0  0  0
  -21.9600   -4.8980   22.5280 C   0  0  0  0  0  0  0  0  0  0  0  0
  -22.3170   -4.3470   21.3430 F   0  0  0  0  0  0  0  0  0  0  0  0
  -21.3790   -3.8680   26.0010 F   0  0  0  0  0  0  0  0  0  0  0  0
  -22.8510  -13.6450   21.1480 C   0  0  0  0  0  0  0  0  0  0  0  0
  -22.1460  -12.9500   22.0310 N   0  0  0  0  0  0  0  0  0  0  0  0
  -22.4070  -14.6770   20.6480 O   0  0  0  0  0  0  0  0  0  0  0  0
  -22.5220  -12.1140   22.4560 H   0  0  0  0  0  0  0  0  0  0  0  0
  -21.2190  -13.2580   22.2880 H   0  0  0  0  0  0  0  0  0  0  0  0
  -25.4530  -15.3040   20.2670 N   0  0  0  0  0  0  0  0  0  0  0  0
  -24.6850  -15.9510   20.4020 H   0  0  0  0  0  0  0  0  0  0  0  0
  -26.2800  -15.7450   19.8900 H   0  0  0  0  0  0  0  0  0  0  0  0
  -28.0390  -24.2220   19.9820 C   0  0  0  0  0  2  0  0  0  0  0  0
  -28.2130  -25.8400   20.2700 O   0  0  0  0  0  0  0  0  0  0  0  0
  -24.6600  -31.8300   23.1780 C   0  0  0  0  0  0  0  0  0  0  0  0
  -27.2020  -26.9300   20.1810 C   0  0  0  0  0  0  0  0  0  0  0  0
  -23.4640  -30.4270   21.5470 C   0  0  0  0  0  3  0  0  0  0  0  0
  -24.9070  -28.8090   20.1310 C   0  0  0  0  0  0  0  0  0  0  0  0
  -26.0270  -30.6300   21.4000 C   0  0  0  0  0  2  0  0  0  0  0  0
  -26.0960  -29.2160   20.7490 C   0  0  0  0  0  0  0  0  0  0  0  0
  -27.2360  -28.2970   20.7500 C   0  0  0  0  0  3  0  0  0  0  0  0
  -25.9840  -26.6720   19.5090 C   0  0  0  0  0  3  0  0  0  0  0  0
  -24.8750  -27.5580   19.4910 C   0  0  0  0  0  3  0  0  0  0  0  0
  -23.6920  -29.7360   20.1760 C   0  0  0  0  0  2  0  0  0  0  0  0
  -24.7400  -30.9870   22.0960 N   0  0  0  0  0  0  0  0  0  0  0  0
  -23.5720  -32.1290   23.6950 O   0  0  0  0  0  0  0  0  0  0  0  0
  -22.7640  -29.4390   22.5180 C   0  0  0  0  0  0  0  0  0  0  0  0
  -21.4320  -29.2920   22.4040 N   0  0  0  0  0  0  0  0  0  0  0  0
  -23.4270  -28.8040   23.3400 O   0  0  0  0  0  0  0  0  0  0  0  0
  -20.9500  -29.8590   21.7200 H   0  0  0  0  0  0  0  0  0  0  0  0
  -18.0420  -28.1190   22.9450 C   0  0  0  0  0  0  0  0  0  0  0  0
  -20.6050  -28.3610   23.1810 C   0  0  0  0  0  3  0  0  0  0  0  0
  -20.6870  -26.9280   22.6070 C   0  0  0  0  0  2  0  0  0  0  0  0
  -19.5750  -26.6160   21.6030 C   0  0  0  0  0  2  0  0  0  0  0  0
  -18.2000  -26.7710   22.2620 C   0  0  0  0  0  2  0  0  0  0  0  0
  -19.1720  -28.8720   23.3630 C   0  0  0  0  0  0  0  0  0  0  0  0
  -18.9700  -30.1310   23.9690 C   0  0  0  0  0  3  0  0  0  0  0  0
  -17.6710  -30.6390   24.1560 C   0  0  0  0  0  3  0  0  0  0  0  0
  -16.5550  -29.8850   23.7490 C   0  0  0  0  0  3  0  0  0  0  0  0
  -16.7410  -28.6270   23.1530 C   0  0  0  0  0  3  0  0  0  0  0  0
  -25.9330  -32.4720   23.8090 C   0  0  0  0  0  3  0  0  0  0  0  0
  -26.4500  -31.7010   25.0860 C   0  0  1  0  0  0  0  0  0  0  0  0
  -25.3540  -31.4590   26.1520 C   0  0  0  0  0  1  0  0  0  0  0  0
  -27.0350  -30.3250   24.6970 C   0  0  0  0  0  1  0  0  0  0  0  0
  -27.6040  -32.4940   25.7470 C   0  0  0  0  0  1  0  0  0  0  0  0
  -25.6120  -33.8660   24.1580 N   0  0  0  0  0  0  0  0  0  0  0  0
  -25.9230  -34.9350   23.4130 C   0  0  0  0  0  0  0  0  0  0  0  0
  -26.5730  -34.8500   22.3690 O   0  0  0  0  0  0  0  0  0  0  0  0
  -25.0300  -34.0050   24.9710 H   0  0  0  0  0  0  0  0  0  0  0  0
  -24.1700  -36.7240   23.1400 C   0  0  0  0  0  1  0  0  0  0  0  0
  -25.4410  -36.3160   23.9040 C   0  0  0  0  0  3  0  0  0  0  0  0
  -27.5930  -37.2120   24.6770 C   0  0  0  0  0  1  0  0  0  0  0  0
  -26.4600  -37.3800   23.7700 N   0  0  0  0  0  0  0  0  0  0  0  0
  -26.0520  -38.2930   23.9450 H   0  0  0  0  0  0  0  0  0  0  0  0
  3  1  1  1
  3  2  1  0
  4  6  2  0
  4  5  1  0
  5  8  2  0
  6  9  1  0
  8  7  1  0
  8 11  1  0
  9  3  1  0
  9  7  2  0
 11 10  1  0
 12 11  1  0
 13 18  1  0
 14 15  1  0
 14 13  1  0
 16 15  1  0
 16 23  1  0
 16 17  1  0
 18 12  1  0
 18 17  1  0
 19 12  2  0
 20 21  2  0
 21 40  1  0
 22 21  1  0
 22 25  1  0
 23 24  1  0
 23 20  1  0
 24 22  2  0
 25 26  1  0
 26 27  2  0
 28 31  1  0
 28 27  1  0
 29 28  2  0
 30 29  1  0
 30 25  2  0
 31 32  1  0
 32 33  1  0
 33 34  2  0
 35 34  1  0
 35 39  1  0
 36 35  2  0
 37 32  2  0
 37 36  1  0
 38 37  1  0
 40 41  1  0
 41 44  1  0
 41 43  1  0
 42 40  2  0
 45 46  1  0
 45 20  1  0
 47 45  1  0
 48 49  1  0
 48  3  1  0
 50 61  2  0
 51 49  1  0
 51 56  1  0
 52 60  1  0
 52 62  1  0
 53 59  1  0
 53 55  1  0
 54 60  1  0
 55 56  2  0
 55 54  1  0
 57 51  2  0
 58 57  1  0
 58 53  2  0
 59 52  1  0
 60 50  1  0
 62 64  2  0
 63 62  1  0
 65 63  1  0
 66 75  2  0
 66 71  1  0
 67 63  1  0
 67 71  1  0
 68 67  1  0
 69 70  1  0
 69 68  1  0
 70 66  1  0
 71 72  2  0
 72 73  1  0
 74 73  2  0
 75 74  1  0
 76 50  1  0
 76 81  1  0
 76 77  1  0
 77 80  1  1
 77 78  1  0
 79 77  1  0
 81 84  1  0
 82 86  1  0
 82 81  1  0
 83 82  2  0
 86 85  1  0
 88 86  1  0
 88 89  1  0
 88 87  1  0
M  ISO  4  11 100  12 100  48 101  49 101
M  END
>  <TORSDO>  (59) 
F 19

>  <SCORE>  (59) 
-17.029

>  <name>  (59) 
58

>  <ligand_id>  (59) 
58

>  <original_smiles>  (59) 
[H]c1c([H])c([H])c2c(c1[H])C([H])([H])C([H])([H])C([H])([H])C2([H])N([H])C(=O)C1([H])N(C(=O)C([H])(N([H])C(=O)C([H])(N([H])C([H])([H])[H])C([H])([H])[H])C(C([H])([H])[H])(C([H])([H])[H])C([H])([H])[H])C([H])([H])c2c([H])c(OC([H])([H])C(c3c([H])c([H])c([H])c(C([H])(C(=O)N4C([H])([H])C([H])([H])C([H])([H])C([H])(n5nc(-c6c([H])c([H])c(Oc7c([H])c([H])c(F)c([H])c7F)c([H])c6[H])c(C(=O)N([H])[H])c5N([H])[H])C4([H])[H])C([H])([H])[H])c3[H])(C([H])([H])[H])C([H])([H])[H])c([H])c([H])c2C1([H])[H]

>  <smiles>  (59) 
[H]c1c([H])c([H])c2c(c1[H])C([H])([H])C([H])([H])C([H])([H])C2([H])N([H])C(=O)C1([H])N(C(=O)C([H])(N([H])C(=O)C([H])(N([H])C([H])([H])[H])C([H])([H])[H])C(C([H])([H])[H])(C([H])([H])[H])C([H])([H])[H])C([H])([H])c2c([H])c(OC([H])([H])C(c3c([H])c([H])c([H])c(C([H])(C(=O)N4C([H])([H])C([H])([H])C([H])([H])C([H])(n5nc(-c6c([H])c([H])c(Oc7c([H])c([H])c(F)c([H])c7F)c([H])c6[H])c(C(=O)N([H])[H])c5N([H])[H])C4([H])[H])C([H])([H])[H])c3[H])(C([H])([H])[H])C([H])([H])[H])c([H])c([H])c2C1([H])[H]

$$$$
59:0:0
     RDKit          3D

 86 94  0  0  1  0  0  0  0  0999 V2000
  -27.8050  -21.9610   19.3270 C   0  0  0  0  0  3  0  0  0  0  0  0
  -27.4880  -23.4340   19.2970 C   0  0  0  0  0  3  0  0  0  0  0  0
  -28.8480  -21.4370   20.1100 C   0  0  0  0  0  0  0  0  0  0  0  0
  -28.2150  -24.3560   20.0640 C   0  0  0  0  0  0  0  0  0  0  0  0
  -29.4240  -23.1050   20.8150 S   0  0  0  0  0  0  0  0  0  0  0  0
  -28.2590  -25.8610   20.2360 O   0  0  0  0  0  0  0  0  0  0  0  0
  -24.6600  -31.8330   23.1630 C   0  0  0  0  0  0  0  0  0  0  0  0
  -27.2220  -26.9400   20.1580 C   0  0  0  0  0  0  0  0  0  0  0  0
  -23.4610  -30.4180   21.5430 C   0  0  0  0  0  3  0  0  0  0  0  0
  -24.9070  -28.8110   20.1170 C   0  0  0  0  0  0  0  0  0  0  0  0
  -26.0240  -30.6390   21.3770 C   0  0  0  0  0  2  0  0  0  0  0  0
  -26.0950  -29.2250   20.7300 C   0  0  0  0  0  0  0  0  0  0  0  0
  -27.2410  -28.3070   20.7290 C   0  0  0  0  0  3  0  0  0  0  0  0
  -26.0040  -26.6830   19.4880 C   0  0  0  0  0  3  0  0  0  0  0  0
  -24.8860  -27.5610   19.4760 C   0  0  0  0  0  3  0  0  0  0  0  0
  -23.6820  -29.7250   20.1710 C   0  0  0  0  0  2  0  0  0  0  0  0
  -24.7370  -30.9920   22.0800 N   0  0  0  0  0  0  0  0  0  0  0  0
  -23.5730  -32.1200   23.6910 O   0  0  0  0  0  0  0  0  0  0  0  0
  -22.7800  -29.4260   22.5240 C   0  0  0  0  0  0  0  0  0  0  0  0
  -21.4490  -29.2600   22.4190 N   0  0  0  0  0  0  0  0  0  0  0  0
  -23.4590  -28.8050   23.3470 O   0  0  0  0  0  0  0  0  0  0  0  0
  -20.9550  -29.8100   21.7310 H   0  0  0  0  0  0  0  0  0  0  0  0
  -18.0780  -28.0340   22.9700 C   0  0  0  0  0  0  0  0  0  0  0  0
  -20.6380  -28.3240   23.2060 C   0  0  0  0  0  3  0  0  0  0  0  0
  -20.7450  -26.8870   22.6440 C   0  0  0  0  0  2  0  0  0  0  0  0
  -19.6370  -26.5470   21.6420 C   0  0  0  0  0  2  0  0  0  0  0  0
  -18.2600  -26.6820   22.2990 C   0  0  0  0  0  2  0  0  0  0  0  0
  -19.1930  -28.8110   23.3810 C   0  0  0  0  0  0  0  0  0  0  0  0
  -18.9660  -30.0730   23.9730 C   0  0  0  0  0  3  0  0  0  0  0  0
  -17.6570  -30.5580   24.1550 C   0  0  0  0  0  3  0  0  0  0  0  0
  -16.5570  -29.7800   23.7570 C   0  0  0  0  0  3  0  0  0  0  0  0
  -16.7680  -28.5190   23.1710 C   0  0  0  0  0  3  0  0  0  0  0  0
  -25.9310  -32.4890   23.7800 C   0  0  0  0  0  3  0  0  0  0  0  0
  -25.6020  -33.8830   24.1280 N   0  0  0  0  0  0  0  0  0  0  0  0
  -25.9120  -34.9540   23.3850 C   0  0  0  0  0  0  0  0  0  0  0  0
  -26.5680  -34.8740   22.3440 O   0  0  0  0  0  0  0  0  0  0  0  0
  -25.0130  -34.0160   24.9380 H   0  0  0  0  0  0  0  0  0  0  0  0
  -24.1600  -36.7400   23.0900 C   0  0  0  0  0  1  0  0  0  0  0  0
  -25.4190  -36.3340   23.8730 C   0  0  0  0  0  3  0  0  0  0  0  0
  -27.5540  -37.2350   24.6870 C   0  0  0  0  0  1  0  0  0  0  0  0
  -26.4400  -37.3980   23.7570 N   0  0  0  0  0  0  0  0  0  0  0  0
  -26.0270  -38.3140   23.9110 H   0  0  0  0  0  0  0  0  0  0  0  0
  -26.4650  -31.7250   25.0560 C   0  0  1  0  0  0  0  0  0  0  0  0
  -25.3820  -31.4800   26.1330 C   0  0  0  0  0  1  0  0  0  0  0  0
  -27.0600  -30.3520   24.6720 C   0  0  0  0  0  1  0  0  0  0  0  0
  -27.6120  -32.5330   25.7070 C   0  0  0  0  0  1  0  0  0  0  0  0
  -29.1980  -19.7590   20.5340 C   0  0  0  0  0  3  0  0  0  0  0  0
  -29.9220  -18.2600   19.8080 C   0  0  0  0  0  3  0  0  0  0  0  0
  -30.5380  -15.3470   19.9290 C   0  0  0  0  0  0  0  0  0  0  0  0
  -30.4520  -12.9270   18.9510 C   0  0  0  0  0  2  0  0  0  0  0  0
  -29.4540  -12.7630   17.7730 C   0  0  0  0  0  2  0  0  0  0  0  0
  -28.0320  -12.4760   18.2890 C   0  0  0  0  0  2  0  0  0  0  0  0
  -27.6650  -13.3920   19.4820 C   0  0  0  0  0  3  0  0  0  0  0  0
  -28.7840  -13.4490   20.5420 C   0  0  0  0  0  2  0  0  0  0  0  0
  -29.9690  -14.0300   19.8740 N   0  0  0  0  0  0  0  0  0  0  0  0
  -31.6980  -15.3570   19.4840 O   0  0  0  0  0  0  0  0  0  0  0  0
  -28.9740  -16.5710   21.4390 C   0  0  0  0  0  1  0  0  0  0  0  0
  -29.8270  -16.6340   20.2510 N   0  0  0  0  0  0  0  0  0  0  0  0
  -25.3440  -13.9390   20.3850 C   0  0  0  0  0  0  0  0  0  0  0  0
  -24.3030  -13.1570   20.8000 C   0  0  0  0  0  0  0  0  0  0  0  0
  -24.7610  -11.8070   20.7060 C   0  0  0  0  0  0  0  0  0  0  0  0
  -26.3660  -13.0670   20.0570 N   0  0  0  0  0  0  0  0  0  0  0  0
  -26.0310  -11.7760   20.3170 N   0  0  0  0  0  0  0  0  0  0  0  0
  -24.0400  -10.5430   20.9070 C   0  0  0  0  0  0  0  0  0  0  0  0
  -24.4850   -9.5760   21.8340 C   0  0  0  0  0  3  0  0  0  0  0  0
  -23.7610   -8.3790   22.0240 C   0  0  0  0  0  3  0  0  0  0  0  0
  -22.5770   -8.1410   21.2870 C   0  0  0  0  0  0  0  0  0  0  0  0
  -22.1490   -9.0970   20.3480 C   0  0  0  0  0  3  0  0  0  0  0  0
  -22.8740  -10.2850   20.1570 C   0  0  0  0  0  3  0  0  0  0  0  0
  -21.8230   -6.9970   21.3870 O   0  0  0  0  0  0  0  0  0  0  0  0
  -21.7400   -6.2880   22.5580 C   0  0  0  0  0  0  0  0  0  0  0  0
  -21.2720   -6.8780   23.7540 C   0  0  0  0  0  3  0  0  0  0  0  0
  -21.1380   -6.0970   24.9180 C   0  0  0  0  0  3  0  0  0  0  0  0
  -21.4620   -4.7270   24.8900 C   0  0  0  0  0  0  0  0  0  0  0  0
  -21.9230   -4.1370   23.7000 C   0  0  0  0  0  3  0  0  0  0  0  0
  -22.0590   -4.9160   22.5370 C   0  0  0  0  0  0  0  0  0  0  0  0
  -22.4830   -4.3380   21.3870 F   0  0  0  0  0  0  0  0  0  0  0  0
  -21.3260   -3.9740   26.0060 F   0  0  0  0  0  0  0  0  0  0  0  0
  -22.9290  -13.6330   21.1670 C   0  0  0  0  0  0  0  0  0  0  0  0
  -22.2530  -12.9210   22.0600 N   0  0  0  0  0  0  0  0  0  0  0  0
  -22.4650  -14.6720   20.6980 O   0  0  0  0  0  0  0  0  0  0  0  0
  -22.6420  -12.0790   22.4590 H   0  0  0  0  0  0  0  0  0  0  0  0
  -21.3330  -13.2190   22.3520 H   0  0  0  0  0  0  0  0  0  0  0  0
  -25.4980  -15.3130   20.2280 N   0  0  0  0  0  0  0  0  0  0  0  0
  -24.7400  -15.9650   20.4030 H   0  0  0  0  0  0  0  0  0  0  0  0
  -26.3220  -15.7560   19.8420 H   0  0  0  0  0  0  0  0  0  0  0  0
  1  3  2  0
  2  1  1  0
  2  4  2  0
  3 47  1  0
  3  5  1  0
  4  6  1  0
  4  5  1  0
  7 18  2  0
  8  6  1  0
  8 13  1  0
  9 17  1  0
  9 19  1  0
 10 16  1  0
 10 12  1  0
 11 17  1  0
 12 11  1  0
 13 12  2  0
 14  8  2  0
 15 14  1  0
 15 10  2  0
 16  9  1  0
 17  7  1  0
 19 21  2  0
 20 19  1  0
 22 20  1  0
 23 32  2  0
 23 28  1  0
 24 20  1  0
 24 28  1  0
 25 24  1  0
 26 27  1  0
 26 25  1  0
 27 23  1  0
 28 29  2  0
 29 30  1  0
 31 30  2  0
 32 31  1  0
 33  7  1  0
 33 34  1  0
 33 43  1  0
 34 37  1  0
 35 39  1  0
 35 34  1  0
 36 35  2  0
 39 38  1  0
 41 39  1  0
 41 42  1  0
 41 40  1  0
 43 46  1  1
 43 44  1  0
 45 43  1  0
 48 58  1  0
 48 47  2  0
 49 58  1  0
 50 55  1  0
 51 52  1  0
 51 50  1  0
 53 52  1  0
 53 62  1  0
 53 54  1  0
 55 49  1  0
 55 54  1  0
 56 49  2  0
 58 57  1  0
 59 60  2  0
 60 79  1  0
 61 60  1  0
 61 64  1  0
 62 63  1  0
 62 59  1  0
 63 61  2  0
 64 65  1  0
 65 66  2  0
 67 70  1  0
 67 66  1  0
 68 67  2  0
 69 68  1  0
 69 64  2  0
 70 71  1  0
 71 72  1  0
 72 73  2  0
 74 73  1  0
 74 78  1  0
 75 74  2  0
 76 71  2  0
 76 75  1  0
 77 76  1  0
 79 80  1  0
 80 83  1  0
 80 82  1  0
 81 79  2  0
 84 59  1  0
 84 85  1  0
 86 84  1  0
M  ISO  4   4 101   6 101  49 100  58 100
M  END
>  <TORSDO>  (60) 
F 18

>  <SCORE>  (60) 
-15.205

>  <name>  (60) 
59

>  <ligand_id>  (60) 
59

>  <original_smiles>  (60) 
[H]c1c(Oc2c([H])c([H])c3c(c2[H])C([H])([H])N(C(=O)C([H])(N([H])C(=O)C([H])(N([H])C([H])([H])[H])C([H])([H])[H])C(C([H])([H])[H])(C([H])([H])[H])C([H])([H])[H])C([H])(C(=O)N([H])C2([H])c4c([H])c([H])c([H])c([H])c4C([H])([H])C([H])([H])C2([H])[H])C3([H])[H])sc(C([H])([H])C([H])([H])N(C(=O)N2C([H])([H])C([H])([H])C([H])([H])C([H])(n3nc(-c4c([H])c([H])c(Oc5c([H])c([H])c(F)c([H])c5F)c([H])c4[H])c(C(=O)N([H])[H])c3N([H])[H])C2([H])[H])C([H])([H])[H])c1[H]

>  <smiles>  (60) 
[H]c1c(Oc2c([H])c([H])c3c(c2[H])C([H])([H])N(C(=O)C([H])(N([H])C(=O)C([H])(N([H])C([H])([H])[H])C([H])([H])[H])C(C([H])([H])[H])(C([H])([H])[H])C([H])([H])[H])C([H])(C(=O)N([H])C2([H])c4c([H])c([H])c([H])c([H])c4C([H])([H])C([H])([H])C2([H])[H])C3([H])[H])sc(C([H])([H])C([H])([H])N(C(=O)N2C([H])([H])C([H])([H])C([H])([H])C([H])(n3nc(-c4c([H])c([H])c(Oc5c([H])c([H])c(F)c([H])c5F)c([H])c4[H])c(C(=O)N([H])[H])c3N([H])[H])C2([H])[H])C([H])([H])[H])c1[H]

$$$$
60:0:0
     RDKit          3D

 89 97  0  0  1  0  0  0  0  0999 V2000
  -29.7390  -23.4970   19.0690 C   0  0  0  0  0  3  0  0  0  0  0  0
  -30.4390  -22.3810   18.5590 C   0  0  0  0  0  3  0  0  0  0  0  0
  -28.6470  -21.9730   20.6070 C   0  0  0  0  0  3  0  0  0  0  0  0
  -28.8010  -23.3650   20.1090 C   0  0  0  0  0  0  0  0  0  0  0  0
  -29.3660  -20.7720   20.1110 C   0  0  0  0  0  0  0  0  0  0  0  0
  -30.2610  -21.0630   19.0500 C   0  0  0  0  0  0  0  0  0  0  0  0
  -30.9810  -20.0720   18.4530 O   0  0  0  0  0  0  0  0  0  0  0  0
  -31.4800  -20.3860   17.7060 H   0  0  0  0  0  0  0  0  0  0  0  0
  -29.1790  -19.2240   20.6630 C   0  0  0  0  0  3  0  0  0  0  0  0
  -30.0010  -17.8350   20.1770 C   0  0  0  0  0  3  0  0  0  0  0  0
  -29.6910  -16.2810   20.7320 C   0  0  0  0  0  2  0  0  0  0  0  0
  -30.5100  -14.9020   20.3240 C   0  0  0  0  0  0  0  0  0  0  0  0
  -30.3940  -12.5670   19.3390 C   0  0  0  0  0  2  0  0  0  0  0  0
  -29.4470  -12.5810   18.1150 C   0  0  0  0  0  2  0  0  0  0  0  0
  -27.9800  -12.3890   18.5480 C   0  0  0  0  0  2  0  0  0  0  0  0
  -27.5940  -13.2810   19.7560 C   0  0  0  0  0  3  0  0  0  0  0  0
  -28.6600  -13.2360   20.8710 C   0  0  0  0  0  2  0  0  0  0  0  0
  -29.9420  -13.6330   20.2770 N   0  0  0  0  0  0  0  0  0  0  0  0
  -31.6840  -14.9980   19.9530 O   0  0  0  0  0  0  0  0  0  0  0  0
  -25.2110  -13.8580   20.5030 C   0  0  0  0  0  0  0  0  0  0  0  0
  -24.1490  -13.0800   20.8760 C   0  0  0  0  0  0  0  0  0  0  0  0
  -24.6160  -11.7300   20.8440 C   0  0  0  0  0  0  0  0  0  0  0  0
  -26.2560  -12.9830   20.2580 N   0  0  0  0  0  0  0  0  0  0  0  0
  -25.9060  -11.6980   20.5270 N   0  0  0  0  0  0  0  0  0  0  0  0
  -23.8890  -10.4670   21.0400 C   0  0  0  0  0  0  0  0  0  0  0  0
  -24.3330   -9.4960   21.9640 C   0  0  0  0  0  3  0  0  0  0  0  0
  -23.6070   -8.2990   22.1490 C   0  0  0  0  0  3  0  0  0  0  0  0
  -22.4220   -8.0650   21.4100 C   0  0  0  0  0  0  0  0  0  0  0  0
  -21.9960   -9.0270   20.4750 C   0  0  0  0  0  3  0  0  0  0  0  0
  -22.7230  -10.2150   20.2880 C   0  0  0  0  0  3  0  0  0  0  0  0
  -21.6670   -6.9220   21.5060 O   0  0  0  0  0  0  0  0  0  0  0  0
  -21.6470   -6.1650   22.6490 C   0  0  0  0  0  0  0  0  0  0  0  0
  -21.2600   -6.7090   23.8930 C   0  0  0  0  0  3  0  0  0  0  0  0
  -21.1860   -5.8810   25.0320 C   0  0  0  0  0  3  0  0  0  0  0  0
  -21.4860   -4.5090   24.9240 C   0  0  0  0  0  0  0  0  0  0  0  0
  -21.8660   -3.9650   23.6860 C   0  0  0  0  0  3  0  0  0  0  0  0
  -21.9420   -4.7910   22.5500 C   0  0  0  0  0  0  0  0  0  0  0  0
  -22.2870   -4.2580   21.3530 F   0  0  0  0  0  0  0  0  0  0  0  0
  -21.4050   -3.7110   26.0140 F   0  0  0  0  0  0  0  0  0  0  0  0
  -22.7530  -13.5560   21.1520 C   0  0  0  0  0  0  0  0  0  0  0  0
  -22.0310  -12.8620   22.0260 N   0  0  0  0  0  0  0  0  0  0  0  0
  -22.3100  -14.5780   20.6320 O   0  0  0  0  0  0  0  0  0  0  0  0
  -22.4020  -12.0340   22.4680 H   0  0  0  0  0  0  0  0  0  0  0  0
  -21.0960  -13.1650   22.2580 H   0  0  0  0  0  0  0  0  0  0  0  0
  -25.3690  -15.2290   20.3290 N   0  0  0  0  0  0  0  0  0  0  0  0
  -24.6000  -15.8790   20.4430 H   0  0  0  0  0  0  0  0  0  0  0  0
  -26.2130  -15.6760   19.9960 H   0  0  0  0  0  0  0  0  0  0  0  0
  -27.9410  -24.6840   20.5660 C   0  0  0  0  0  2  0  0  0  0  0  0
  -28.2550  -26.1630   20.2130 O   0  0  0  0  0  0  0  0  0  0  0  0
  -24.6330  -31.8570   23.2080 C   0  0  0  0  0  0  0  0  0  0  0  0
  -27.1990  -27.1440   20.1890 C   0  0  0  0  0  0  0  0  0  0  0  0
  -23.4280  -30.4530   21.5800 C   0  0  0  0  0  3  0  0  0  0  0  0
  -24.8710  -28.8750   20.1600 C   0  0  0  0  0  0  0  0  0  0  0  0
  -25.9810  -30.7220   21.4080 C   0  0  0  0  0  2  0  0  0  0  0  0
  -26.0530  -29.3280   20.7610 C   0  0  0  0  0  0  0  0  0  0  0  0
  -27.2210  -28.4790   20.7560 C   0  0  0  0  0  3  0  0  0  0  0  0
  -25.9980  -26.7960   19.5340 C   0  0  0  0  0  3  0  0  0  0  0  0
  -24.8550  -27.6210   19.5340 C   0  0  0  0  0  3  0  0  0  0  0  0
  -23.6430  -29.7700   20.2040 C   0  0  0  0  0  2  0  0  0  0  0  0
  -24.7010  -31.0340   22.1190 N   0  0  0  0  0  0  0  0  0  0  0  0
  -23.5490  -32.1430   23.7410 O   0  0  0  0  0  0  0  0  0  0  0  0
  -22.7570  -29.4490   22.5490 C   0  0  0  0  0  0  0  0  0  0  0  0
  -21.4280  -29.2770   22.4300 N   0  0  0  0  0  0  0  0  0  0  0  0
  -23.4330  -28.8230   23.3700 O   0  0  0  0  0  0  0  0  0  0  0  0
  -20.9410  -29.8230   21.7340 H   0  0  0  0  0  0  0  0  0  0  0  0
  -18.0500  -28.0800   22.9580 C   0  0  0  0  0  0  0  0  0  0  0  0
  -20.6110  -28.3440   23.2090 C   0  0  0  0  0  3  0  0  0  0  0  0
  -20.7100  -26.9090   22.6430 C   0  0  0  0  0  2  0  0  0  0  0  0
  -19.6010  -26.5820   21.6360 C   0  0  0  0  0  2  0  0  0  0  0  0
  -18.2230  -26.7290   22.2870 C   0  0  0  0  0  2  0  0  0  0  0  0
  -19.1720  -28.8450   23.3770 C   0  0  0  0  0  0  0  0  0  0  0  0
  -18.9550  -30.1080   23.9690 C   0  0  0  0  0  3  0  0  0  0  0  0
  -17.6510  -30.6070   24.1460 C   0  0  0  0  0  3  0  0  0  0  0  0
  -16.5450  -29.8400   23.7400 C   0  0  0  0  0  3  0  0  0  0  0  0
  -16.7450  -28.5790   23.1510 C   0  0  0  0  0  3  0  0  0  0  0  0
  -25.9150  -32.4950   23.8250 C   0  0  0  0  0  3  0  0  0  0  0  0
  -25.5970  -33.8920   24.1630 N   0  0  0  0  0  0  0  0  0  0  0  0
  -25.9170  -34.9520   23.4100 C   0  0  0  0  0  0  0  0  0  0  0  0
  -26.5770  -34.8590   22.3720 O   0  0  0  0  0  0  0  0  0  0  0  0
  -25.0070  -34.0390   24.9690 H   0  0  0  0  0  0  0  0  0  0  0  0
  -24.1770  -36.7430   23.0900 C   0  0  0  0  0  1  0  0  0  0  0  0
  -25.4300  -36.3370   23.8820 C   0  0  0  0  0  3  0  0  0  0  0  0
  -27.5730  -37.2270   24.6880 C   0  0  0  0  0  1  0  0  0  0  0  0
  -26.4580  -37.3970   23.7610 N   0  0  0  0  0  0  0  0  0  0  0  0
  -26.0500  -38.3140   23.9180 H   0  0  0  0  0  0  0  0  0  0  0  0
  -26.4360  -31.7260   25.1010 C   0  0  1  0  0  0  0  0  0  0  0  0
  -25.3470  -31.4890   26.1740 C   0  0  0  0  0  1  0  0  0  0  0  0
  -27.0200  -30.3470   24.7180 C   0  0  0  0  0  1  0  0  0  0  0  0
  -27.5900  -32.5210   25.7570 C   0  0  0  0  0  1  0  0  0  0  0  0
  1  4  1  0
  2  6  1  0
  2  1  2  0
  4 48  1  0
  4  3  2  0
  5  3  1  0
  5  9  1  0
  6  5  2  0
  7  6  1  0
  8  7  1  0
 10  9  2  0
 10 11  1  0
 12 11  1  0
 13 18  1  0
 14 15  1  0
 14 13  1  0
 16 15  1  0
 16 23  1  0
 16 17  1  0
 18 12  1  0
 18 17  1  0
 19 12  2  0
 20 21  2  0
 21 40  1  0
 22 21  1  0
 22 25  1  0
 23 20  1  0
 23 24  1  0
 24 22  2  0
 25 26  1  0
 26 27  2  0
 28 31  1  0
 28 27  1  0
 29 28  2  0
 30 29  1  0
 30 25  2  0
 31 32  1  0
 32 33  1  0
 33 34  2  0
 35 34  1  0
 35 39  1  0
 36 35  2  0
 37 32  2  0
 37 36  1  0
 38 37  1  0
 40 41  1  0
 41 44  1  0
 41 43  1  0
 42 40  2  0
 45 46  1  0
 45 20  1  0
 47 45  1  0
 49 48  1  0
 50 61  2  0
 51 49  1  0
 51 56  1  0
 52 60  1  0
 52 62  1  0
 53 59  1  0
 53 55  1  0
 54 60  1  0
 55 54  1  0
 56 55  2  0
 57 51  2  0
 58 57  1  0
 58 53  2  0
 59 52  1  0
 60 50  1  0
 62 64  2  0
 63 62  1  0
 65 63  1  0
 66 75  2  0
 66 71  1  0
 67 63  1  0
 67 71  1  0
 68 67  1  0
 69 70  1  0
 69 68  1  0
 70 66  1  0
 71 72  2  0
 72 73  1  0
 74 73  2  0
 75 74  1  0
 76 50  1  0
 76 77  1  0
 76 86  1  0
 77 80  1  0
 78 82  1  0
 78 77  1  0
 79 78  2  0
 82 81  1  0
 84 82  1  0
 84 85  1  0
 84 83  1  0
 86 89  1  1
 86 87  1  0
 88 86  1  0
M  ISO  4  11 100  12 100  48 101  49 101
M  END
>  <TORSDO>  (61) 
F 21

>  <SCORE>  (61) 
-13.468

>  <name>  (61) 
60

>  <ligand_id>  (61) 
60

>  <original_smiles>  (61) 
[H]Oc1c([H])c([H])c(C([H])([H])Oc2c([H])c([H])c3c(c2[H])C([H])([H])N(C(=O)C([H])(N([H])C(=O)C([H])(N([H])C([H])([H])[H])C([H])([H])[H])C(C([H])([H])[H])(C([H])([H])[H])C([H])([H])[H])C([H])(C(=O)N([H])C2([H])c4c([H])c([H])c([H])c([H])c4C([H])([H])C([H])([H])C2([H])[H])C3([H])[H])c([H])c1C([H])([H])C([H])([H])C([H])([H])C(=O)N1C([H])([H])C([H])([H])C([H])([H])C([H])(n2nc(-c3c([H])c([H])c(Oc4c([H])c([H])c(F)c([H])c4F)c([H])c3[H])c(C(=O)N([H])[H])c2N([H])[H])C1([H])[H]

>  <smiles>  (61) 
[H]Oc1c([H])c([H])c(C([H])([H])Oc2c([H])c([H])c3c(c2[H])C([H])([H])N(C(=O)C([H])(N([H])C(=O)C([H])(N([H])C([H])([H])[H])C([H])([H])[H])C(C([H])([H])[H])(C([H])([H])[H])C([H])([H])[H])C([H])(C(=O)N([H])C2([H])c4c([H])c([H])c([H])c([H])c4C([H])([H])C([H])([H])C2([H])[H])C3([H])[H])c([H])c1C([H])([H])C([H])([H])C([H])([H])C(=O)N1C([H])([H])C([H])([H])C([H])([H])C([H])(n2nc(-c3c([H])c([H])c(Oc4c([H])c([H])c(F)c([H])c4F)c([H])c3[H])c(C(=O)N([H])[H])c2N([H])[H])C1([H])[H]

$$$$
61:0:0
     RDKit          3D

 88 96  0  0  1  0  0  0  0  0999 V2000
  -29.0340  -23.2220   19.4280 C   0  0  0  0  0  3  0  0  0  0  0  0
  -29.2340  -21.8290   20.1700 C   0  0  0  0  0  0  0  0  0  0  0  0
  -29.0620  -22.2460   21.4860 C   0  0  0  0  0  0  0  0  0  0  0  0
  -28.7070  -24.5250   20.0810 C   0  0  0  0  0  0  0  0  0  0  0  0
  -29.1300  -21.3640   22.6910 C   0  0  0  0  0  1  0  0  0  0  0  0
  -28.6710  -24.0030   21.7550 S   0  0  0  0  0  0  0  0  0  0  0  0
  -28.5910  -26.0270   19.8070 O   0  0  0  0  0  0  0  0  0  0  0  0
  -24.6980  -31.7770   23.0100 C   0  0  0  0  0  0  0  0  0  0  0  0
  -27.4930  -27.0570   19.8880 C   0  0  0  0  0  0  0  0  0  0  0  0
  -23.5720  -30.3540   21.3470 C   0  0  0  0  0  3  0  0  0  0  0  0
  -25.0980  -28.8470   19.8900 C   0  0  0  0  0  0  0  0  0  0  0  0
  -26.1270  -30.6890   21.2000 C   0  0  0  0  0  2  0  0  0  0  0  0
  -26.2680  -29.2920   20.5180 C   0  0  0  0  0  0  0  0  0  0  0  0
  -27.4560  -28.4200   20.4900 C   0  0  0  0  0  3  0  0  0  0  0  0
  -26.2820  -26.7810   19.2130 C   0  0  0  0  0  3  0  0  0  0  0  0
  -25.1310  -27.6140   19.2180 C   0  0  0  0  0  3  0  0  0  0  0  0
  -23.8340  -29.7080   19.9580 C   0  0  0  0  0  2  0  0  0  0  0  0
  -24.8190  -30.9700   21.9060 N   0  0  0  0  0  0  0  0  0  0  0  0
  -23.5970  -31.9980   23.5410 O   0  0  0  0  0  0  0  0  0  0  0  0
  -22.9350  -29.3060   22.2950 C   0  0  0  0  0  0  0  0  0  0  0  0
  -21.6130  -29.0800   22.1800 N   0  0  0  0  0  0  0  0  0  0  0  0
  -23.6380  -28.6930   23.1040 O   0  0  0  0  0  0  0  0  0  0  0  0
  -21.0950  -29.6260   21.5050 H   0  0  0  0  0  0  0  0  0  0  0  0
  -18.3000  -27.6900   22.6960 C   0  0  0  0  0  0  0  0  0  0  0  0
  -20.8460  -28.0840   22.9360 C   0  0  0  0  0  3  0  0  0  0  0  0
  -21.0140  -26.6750   22.3240 C   0  0  0  0  0  2  0  0  0  0  0  0
  -19.9180  -26.3210   21.3140 C   0  0  0  0  0  2  0  0  0  0  0  0
  -18.5390  -26.3730   21.9770 C   0  0  0  0  0  2  0  0  0  0  0  0
  -19.3820  -28.5010   23.1300 C   0  0  0  0  0  0  0  0  0  0  0  0
  -19.1020  -29.7300   23.7680 C   0  0  0  0  0  3  0  0  0  0  0  0
  -17.7740  -30.1490   23.9720 C   0  0  0  0  0  3  0  0  0  0  0  0
  -16.7070  -29.3380   23.5500 C   0  0  0  0  0  3  0  0  0  0  0  0
  -16.9710  -28.1100   22.9170 C   0  0  0  0  0  3  0  0  0  0  0  0
  -25.9340  -32.4750   23.6520 C   0  0  0  0  0  3  0  0  0  0  0  0
  -25.5390  -33.8450   24.0310 N   0  0  0  0  0  0  0  0  0  0  0  0
  -25.8220  -34.9490   23.3260 C   0  0  0  0  0  0  0  0  0  0  0  0
  -26.5030  -34.9270   22.2990 O   0  0  0  0  0  0  0  0  0  0  0  0
  -24.9310  -33.9310   24.8320 H   0  0  0  0  0  0  0  0  0  0  0  0
  -24.0140  -36.6790   23.0330 C   0  0  0  0  0  1  0  0  0  0  0  0
  -25.2630  -36.2920   23.8420 C   0  0  0  0  0  3  0  0  0  0  0  0
  -27.3330  -37.2460   24.7570 C   0  0  0  0  0  1  0  0  0  0  0  0
  -26.2440  -37.3990   23.7950 N   0  0  0  0  0  0  0  0  0  0  0  0
  -25.7900  -38.2910   23.9700 H   0  0  0  0  0  0  0  0  0  0  0  0
  -26.4930  -31.7060   24.9140 C   0  0  1  0  0  0  0  0  0  0  0  0
  -25.4140  -31.3860   25.9760 C   0  0  0  0  0  1  0  0  0  0  0  0
  -27.1550  -30.3720   24.5040 C   0  0  0  0  0  1  0  0  0  0  0  0
  -27.5980  -32.5500   25.5920 C   0  0  0  0  0  1  0  0  0  0  0  0
  -29.3850  -20.0870   19.7380 C   0  0  0  0  0  2  0  0  0  0  0  0
  -31.0050  -18.8450   21.5490 C   0  0  0  0  0  1  0  0  0  0  0  0
  -30.4130  -18.6130   20.1530 C   0  0  0  0  0  0  0  0  0  0  0  0
  -30.9350  -15.6280   20.0680 C   0  0  0  0  0  0  0  0  0  0  0  0
  -30.9380  -13.1040   19.3690 C   0  0  0  0  0  2  0  0  0  0  0  0
  -30.0460  -12.7730   18.1440 C   0  0  0  0  0  2  0  0  0  0  0  0
  -28.5910  -12.5260   18.5770 C   0  0  0  0  0  2  0  0  0  0  0  0
  -28.1130  -13.5740   19.6130 C   0  0  0  0  0  3  0  0  0  0  0  0
  -29.1380  -13.8330   20.7360 C   0  0  0  0  0  2  0  0  0  0  0  0
  -30.3660  -14.3140   20.0770 N   0  0  0  0  0  0  0  0  0  0  0  0
  -32.1670  -15.5880   19.9190 O   0  0  0  0  0  0  0  0  0  0  0  0
  -30.1760  -16.9270   20.0380 N   0  0  0  0  0  4  0  0  0  0  0  0
  -29.1880  -16.7170   20.0350 H   0  0  0  0  0  0  0  0  0  0  0  0
  -25.7750  -14.2060   20.3990 C   0  0  0  0  0  0  0  0  0  0  0  0
  -24.6850  -13.4650   20.7540 C   0  0  0  0  0  0  0  0  0  0  0  0
  -25.0950  -12.0970   20.6870 C   0  0  0  0  0  0  0  0  0  0  0  0
  -26.7800  -13.2960   20.1250 N   0  0  0  0  0  0  0  0  0  0  0  0
  -26.3840  -12.0180   20.3680 N   0  0  0  0  0  0  0  0  0  0  0  0
  -24.3170  -10.8620   20.8450 C   0  0  0  0  0  0  0  0  0  0  0  0
  -24.6890   -9.8670   21.7760 C   0  0  0  0  0  3  0  0  0  0  0  0
  -23.9080   -8.7000   21.9250 C   0  0  0  0  0  3  0  0  0  0  0  0
  -22.7430   -8.5180   21.1420 C   0  0  0  0  0  0  0  0  0  0  0  0
  -22.3920   -9.5020   20.2000 C   0  0  0  0  0  3  0  0  0  0  0  0
  -23.1710  -10.6600   20.0490 C   0  0  0  0  0  3  0  0  0  0  0  0
  -21.9390   -7.4060   21.2000 O   0  0  0  0  0  0  0  0  0  0  0  0
  -21.7900   -6.6860   22.3580 C   0  0  0  0  0  0  0  0  0  0  0  0
  -21.2820   -7.2710   23.5390 C   0  0  0  0  0  3  0  0  0  0  0  0
  -21.0790   -6.4780   24.6860 C   0  0  0  0  0  3  0  0  0  0  0  0
  -21.3750   -5.1020   24.6530 C   0  0  0  0  0  0  0  0  0  0  0  0
  -21.8750   -4.5170   23.4760 C   0  0  0  0  0  3  0  0  0  0  0  0
  -22.0790   -5.3070   22.3320 C   0  0  0  0  0  0  0  0  0  0  0  0
  -22.5420   -4.7340   21.1940 F   0  0  0  0  0  0  0  0  0  0  0  0
  -21.1730   -4.3380   25.7520 F   0  0  0  0  0  0  0  0  0  0  0  0
  -23.3080  -13.9920   21.0360 C   0  0  0  0  0  0  0  0  0  0  0  0
  -22.5580  -13.3160   21.8960 N   0  0  0  0  0  0  0  0  0  0  0  0
  -22.9130  -15.0410   20.5300 O   0  0  0  0  0  0  0  0  0  0  0  0
  -22.8940  -12.4670   22.3270 H   0  0  0  0  0  0  0  0  0  0  0  0
  -21.6340  -13.6520   22.1290 H   0  0  0  0  0  0  0  0  0  0  0  0
  -25.9930  -15.5740   20.2520 N   0  0  0  0  0  0  0  0  0  0  0  0
  -25.2470  -16.2510   20.3660 H   0  0  0  0  0  0  0  0  0  0  0  0
  -26.8370  -15.9790   19.8720 H   0  0  0  0  0  0  0  0  0  0  0  0
  1  4  2  0
  1  2  1  0
  2  3  2  0
  3  6  1  0
  3  5  1  0
  4  6  1  0
  7  9  1  0
  7  4  1  0
  8 19  2  0
  9 14  1  0
 10 18  1  0
 10 20  1  0
 11 17  1  0
 11 13  1  0
 12 18  1  0
 13 12  1  0
 14 13  2  0
 15 16  1  0
 15  9  2  0
 16 11  2  0
 17 10  1  0
 18  8  1  0
 20 22  2  0
 21 20  1  0
 23 21  1  0
 24 33  2  0
 24 29  1  0
 25 21  1  0
 25 29  1  0
 26 25  1  0
 27 28  1  0
 27 26  1  0
 28 24  1  0
 29 30  2  0
 30 31  1  0
 32 31  2  0
 33 32  1  0
 34  8  1  0
 34 35  1  0
 34 44  1  0
 35 38  1  0
 36 40  1  0
 36 35  1  0
 37 36  2  0
 40 39  1  0
 42 40  1  0
 42 43  1  0
 42 41  1  0
 44 47  1  1
 44 45  1  0
 46 44  1  0
 48 50  1  0
 48  2  1  0
 50 49  1  0
 51 57  1  0
 52 57  1  0
 53 54  1  0
 53 52  1  0
 55 54  1  0
 55 64  1  0
 55 56  1  0
 57 56  1  0
 58 51  2  0
 59 51  1  0
 59 50  2  0
 60 59  1  0
 61 62  2  0
 62 81  1  0
 63 62  1  0
 63 66  1  0
 64 65  1  0
 64 61  1  0
 65 63  2  0
 66 67  1  0
 67 68  2  0
 69 72  1  0
 69 68  1  0
 70 69  2  0
 71 70  1  0
 71 66  2  0
 72 73  1  0
 73 74  1  0
 74 75  2  0
 76 75  1  0
 76 80  1  0
 77 76  2  0
 78 73  2  0
 78 77  1  0
 79 78  1  0
 81 82  1  0
 82 85  1  0
 82 84  1  0
 83 81  2  0
 86 87  1  0
 86 61  1  0
 88 86  1  0
M  ISO  4   4 101   7 101  51 100  59 100
M  END
>  <TORSDO>  (62) 
F 18

>  <SCORE>  (62) 
-14.734

>  <name>  (62) 
61

>  <ligand_id>  (62) 
61

>  <original_smiles>  (62) 
[H]c1c([H])c([H])c2c(c1[H])C([H])([H])C([H])([H])C([H])([H])C2([H])N([H])C(=O)C1([H])N(C(=O)C([H])(N([H])C(=O)C([H])(N([H])C([H])([H])[H])C([H])([H])[H])C(C([H])([H])[H])(C([H])([H])[H])C([H])([H])[H])C([H])([H])c2c([H])c(Oc3sc(C([H])([H])[H])c(C([H])([H])C([H])(N([H])C(=O)N4C([H])([H])C([H])([H])C([H])([H])C([H])(n5nc(-c6c([H])c([H])c(Oc7c([H])c([H])c(F)c([H])c7F)c([H])c6[H])c(C(=O)N([H])[H])c5N([H])[H])C4([H])[H])C([H])([H])[H])c3[H])c([H])c([H])c2C1([H])[H]

>  <smiles>  (62) 
[H]c1c([H])c([H])c2c(c1[H])C([H])([H])C([H])([H])C([H])([H])C2([H])N([H])C(=O)C1([H])N(C(=O)C([H])(N([H])C(=O)C([H])(N([H])C([H])([H])[H])C([H])([H])[H])C(C([H])([H])[H])(C([H])([H])[H])C([H])([H])[H])C([H])([H])c2c([H])c(Oc3sc(C([H])([H])[H])c(C([H])([H])C([H])(N([H])C(=O)N4C([H])([H])C([H])([H])C([H])([H])C([H])(n5nc(-c6c([H])c([H])c(Oc7c([H])c([H])c(F)c([H])c7F)c([H])c6[H])c(C(=O)N([H])[H])c5N([H])[H])C4([H])[H])C([H])([H])[H])c3[H])c([H])c([H])c2C1([H])[H]

$$$$
62:0:0
     RDKit          3D

 91 99  0  0  1  0  0  0  0  0999 V2000
  -29.3920  -20.4340   21.5950 C   0  0  0  0  0  3  0  0  0  0  0  0
  -29.0380  -21.6870   21.0040 C   0  0  0  0  0  3  0  0  0  0  0  0
  -28.9440  -20.3790   18.9890 C   0  0  0  0  0  3  0  0  0  0  0  0
  -29.5530  -19.1430   20.9670 C   0  0  0  0  0  0  0  0  0  0  0  0
  -28.6890  -21.8680   19.6460 C   0  0  0  0  0  0  0  0  0  0  0  0
  -29.4620  -18.9200   19.5460 C   0  0  0  0  0  0  0  0  0  0  0  0
  -30.4110  -15.8430   19.1430 C   0  0  0  0  0  0  0  0  0  0  0  0
  -30.4520  -13.2670   18.3030 C   0  0  0  0  0  2  0  0  0  0  0  0
  -29.3980  -12.7550   17.2780 C   0  0  0  0  0  2  0  0  0  0  0  0
  -28.0750  -12.3920   17.9660 C   0  0  0  0  0  2  0  0  0  0  0  0
  -27.7180  -13.4160   19.0650 C   0  0  0  0  0  3  0  0  0  0  0  0
  -28.9070  -13.7810   19.9760 C   0  0  0  0  0  2  0  0  0  0  0  0
  -29.8940  -14.4610   19.0960 N   0  0  0  0  0  0  0  0  0  0  0  0
  -31.6450  -15.7430   18.9560 O   0  0  0  0  0  0  0  0  0  0  0  0
  -29.6500  -17.2360   19.0150 N   0  0  0  0  0  0  0  0  0  0  0  0
  -28.7730  -16.9560   18.5950 H   0  0  0  0  0  0  0  0  0  0  0  0
  -25.5470  -13.9630   20.2530 C   0  0  0  0  0  0  0  0  0  0  0  0
  -24.5310  -13.1930   20.7380 C   0  0  0  0  0  0  0  0  0  0  0  0
  -24.9460  -11.8360   20.5690 C   0  0  0  0  0  0  0  0  0  0  0  0
  -26.5070  -13.0820   19.7960 N   0  0  0  0  0  0  0  0  0  0  0  0
  -26.1700  -11.7900   20.0490 N   0  0  0  0  0  0  0  0  0  0  0  0
  -24.2170  -10.5850   20.8130 C   0  0  0  0  0  0  0  0  0  0  0  0
  -24.6780   -9.6290   21.7460 C   0  0  0  0  0  3  0  0  0  0  0  0
  -23.9440   -8.4460   21.9810 C   0  0  0  0  0  3  0  0  0  0  0  0
  -22.7370   -8.2080   21.2820 C   0  0  0  0  0  0  0  0  0  0  0  0
  -22.2950   -9.1510   20.3380 C   0  0  0  0  0  3  0  0  0  0  0  0
  -23.0300  -10.3260   20.1000 C   0  0  0  0  0  3  0  0  0  0  0  0
  -21.9720   -7.0780   21.4260 O   0  0  0  0  0  0  0  0  0  0  0  0
  -21.8110   -6.4680   22.6450 C   0  0  0  0  0  0  0  0  0  0  0  0
  -21.2930   -7.1590   23.7620 C   0  0  0  0  0  3  0  0  0  0  0  0
  -21.0790   -6.4750   24.9760 C   0  0  0  0  0  3  0  0  0  0  0  0
  -21.3730   -5.1020   25.0730 C   0  0  0  0  0  0  0  0  0  0  0  0
  -21.8820   -4.4110   23.9600 C   0  0  0  0  0  3  0  0  0  0  0  0
  -22.0980   -5.0920   22.7480 C   0  0  0  0  0  0  0  0  0  0  0  0
  -22.5710   -4.4160   21.6730 F   0  0  0  0  0  0  0  0  0  0  0  0
  -21.1590   -4.4430   26.2340 F   0  0  0  0  0  0  0  0  0  0  0  0
  -23.2140  -13.6900   21.2500 C   0  0  0  0  0  0  0  0  0  0  0  0
  -22.6290  -12.9920   22.2160 N   0  0  0  0  0  0  0  0  0  0  0  0
  -22.7220  -14.7360   20.8300 O   0  0  0  0  0  0  0  0  0  0  0  0
  -23.0430  -12.1450   22.5770 H   0  0  0  0  0  0  0  0  0  0  0  0
  -21.7510  -13.3120   22.6050 H   0  0  0  0  0  0  0  0  0  0  0  0
  -25.7260  -15.3370   20.1350 N   0  0  0  0  0  0  0  0  0  0  0  0
  -25.0420  -15.9900   20.5010 H   0  0  0  0  0  0  0  0  0  0  0  0
  -26.6420  -15.7590   20.0250 H   0  0  0  0  0  0  0  0  0  0  0  0
  -29.6400  -17.9770   21.9250 C   0  0  0  0  0  0  0  0  0  0  0  0
  -30.5800  -18.0290   22.8610 N   0  0  0  0  0  0  0  0  0  0  0  0
  -28.8620  -17.0280   21.8730 O   0  0  0  0  0  0  0  0  0  0  0  0
  -31.1900  -18.8280   22.9410 H   0  0  0  0  0  0  0  0  0  0  0  0
  -30.6480  -17.2850   23.5390 H   0  0  0  0  0  0  0  0  0  0  0  0
  -27.8890  -23.5670   19.2730 C   0  0  0  0  0  2  0  0  0  0  0  0
  -27.9600  -25.3160   19.7190 O   0  0  0  0  0  0  0  0  0  0  0  0
  -24.4670  -31.5280   22.9920 C   0  0  0  0  0  0  0  0  0  0  0  0
  -26.9840  -26.5590   19.7100 C   0  0  0  0  0  0  0  0  0  0  0  0
  -23.2400  -30.1270   21.3880 C   0  0  0  0  0  3  0  0  0  0  0  0
  -24.6570  -28.5610   19.8490 C   0  0  0  0  0  0  0  0  0  0  0  0
  -25.8050  -30.3440   21.1330 C   0  0  0  0  0  2  0  0  0  0  0  0
  -25.8730  -28.9250   20.4300 C   0  0  0  0  0  0  0  0  0  0  0  0
  -27.0090  -27.9520   20.3420 C   0  0  0  0  0  3  0  0  0  0  0  0
  -25.7230  -26.4330   19.0640 C   0  0  0  0  0  3  0  0  0  0  0  0
  -24.6200  -27.3400   19.1430 C   0  0  0  0  0  3  0  0  0  0  0  0
  -23.4250  -29.4730   19.9870 C   0  0  0  0  0  2  0  0  0  0  0  0
  -24.5310  -30.7020   21.8900 N   0  0  0  0  0  0  0  0  0  0  0  0
  -23.3930  -31.7770   23.5670 O   0  0  0  0  0  0  0  0  0  0  0  0
  -22.6110  -29.1050   22.3710 C   0  0  0  0  0  0  0  0  0  0  0  0
  -21.2920  -28.8530   22.2730 N   0  0  0  0  0  0  0  0  0  0  0  0
  -23.3270  -28.5340   23.2000 O   0  0  0  0  0  0  0  0  0  0  0  0
  -20.7550  -29.3700   21.5890 H   0  0  0  0  0  0  0  0  0  0  0  0
  -18.0430  -27.3080   22.7880 C   0  0  0  0  0  0  0  0  0  0  0  0
  -20.5580  -27.8560   23.0630 C   0  0  0  0  0  3  0  0  0  0  0  0
  -20.8140  -26.4270   22.5290 C   0  0  0  0  0  2  0  0  0  0  0  0
  -19.7650  -25.9640   21.5120 C   0  0  0  0  0  2  0  0  0  0  0  0
  -18.3700  -25.9740   22.1400 C   0  0  0  0  0  2  0  0  0  0  0  0
  -19.0670  -28.2000   23.2070 C   0  0  0  0  0  0  0  0  0  0  0  0
  -18.7060  -29.4380   23.7760 C   0  0  0  0  0  3  0  0  0  0  0  0
  -17.3520  -29.7950   23.9290 C   0  0  0  0  0  3  0  0  0  0  0  0
  -16.3420  -28.9060   23.5220 C   0  0  0  0  0  3  0  0  0  0  0  0
  -16.6890  -27.6640   22.9610 C   0  0  0  0  0  3  0  0  0  0  0  0
  -25.7350  -32.2150   23.5790 C   0  0  0  0  0  3  0  0  0  0  0  0
  -25.3730  -33.5890   23.9910 N   0  0  0  0  0  0  0  0  0  0  0  0
  -25.6220  -34.7020   23.2870 C   0  0  0  0  0  0  0  0  0  0  0  0
  -26.2330  -34.6810   22.2170 O   0  0  0  0  0  0  0  0  0  0  0  0
  -24.8240  -33.6790   24.8350 H   0  0  0  0  0  0  0  0  0  0  0  0
  -23.8000  -36.4380   23.1560 C   0  0  0  0  0  1  0  0  0  0  0  0
  -25.1130  -36.0450   23.8500 C   0  0  0  0  0  3  0  0  0  0  0  0
  -27.2630  -36.9940   24.5790 C   0  0  0  0  0  1  0  0  0  0  0  0
  -26.0920  -37.1490   23.7190 N   0  0  0  0  0  0  0  0  0  0  0  0
  -25.6550  -38.0420   23.9340 H   0  0  0  0  0  0  0  0  0  0  0  0
  -26.3430  -31.4390   24.8120 C   0  0  1  0  0  0  0  0  0  0  0  0
  -25.3120  -31.1170   25.9180 C   0  0  0  0  0  1  0  0  0  0  0  0
  -26.9790  -30.1030   24.3730 C   0  0  0  0  0  1  0  0  0  0  0  0
  -27.4800  -32.2720   25.4480 C   0  0  0  0  0  1  0  0  0  0  0  0
  2  1  1  0
  3  6  2  0
  3  5  1  0
  4  1  2  0
  4 45  1  0
  5  2  2  0
  6  4  1  0
  8 13  1  0
  9 10  1  0
  9  8  1  0
 11 10  1  0
 11 20  1  0
 11 12  1  0
 13  7  1  0
 13 12  1  0
 14  7  2  0
 15  7  1  0
 15  6  1  0
 16 15  1  0
 17 18  2  0
 18 37  1  0
 19 18  1  0
 19 22  1  0
 20 21  1  0
 20 17  1  0
 21 19  2  0
 22 23  1  0
 23 24  2  0
 25 28  1  0
 25 24  1  0
 26 25  2  0
 27 26  1  0
 27 22  2  0
 28 29  1  0
 29 34  2  0
 29 30  1  0
 30 31  2  0
 31 32  1  0
 32 36  1  0
 33 32  2  0
 34 33  1  0
 35 34  1  0
 37 38  1  0
 38 40  1  0
 38 41  1  0
 39 37  2  0
 42 17  1  0
 42 43  1  0
 44 42  1  0
 45 46  1  0
 46 48  1  0
 46 49  1  0
 47 45  2  0
 50  5  1  0
 50 51  1  0
 52 63  2  0
 53 51  1  0
 53 58  1  0
 54 62  1  0
 54 64  1  0
 55 61  1  0
 55 57  1  0
 56 62  1  0
 57 56  1  0
 58 57  2  0
 59 60  1  0
 59 53  2  0
 60 55  2  0
 61 54  1  0
 62 52  1  0
 64 66  2  0
 65 64  1  0
 67 65  1  0
 68 77  2  0
 68 73  1  0
 69 65  1  0
 69 73  1  0
 70 69  1  0
 71 72  1  0
 71 70  1  0
 72 68  1  0
 73 74  2  0
 74 75  1  0
 76 75  2  0
 77 76  1  0
 78 52  1  0
 78 79  1  0
 78 88  1  0
 79 82  1  0
 80 84  1  0
 80 79  1  0
 81 80  2  0
 84 83  1  0
 86 84  1  0
 86 87  1  0
 86 85  1  0
 88 91  1  1
 88 89  1  0
 90 88  1  0
M  ISO  4   7 100  15 100  50 101  51 101
M  END
>  <TORSDO>  (63) 
F 18

>  <SCORE>  (63) 
-12.392

>  <name>  (63) 
62

>  <ligand_id>  (63) 
62

>  <original_smiles>  (63) 
[H]c1c([H])c([H])c2c(c1[H])C([H])([H])C([H])([H])C([H])([H])C2([H])N([H])C(=O)C1([H])N(C(=O)C([H])(N([H])C(=O)C([H])(N([H])C([H])([H])[H])C([H])([H])[H])C(C([H])([H])[H])(C([H])([H])[H])C([H])([H])[H])C([H])([H])c2c([H])c(OC([H])([H])c3c([H])c([H])c(C(=O)N([H])[H])c(N([H])C(=O)N4C([H])([H])C([H])([H])C([H])([H])C([H])(n5nc(-c6c([H])c([H])c(Oc7c([H])c([H])c(F)c([H])c7F)c([H])c6[H])c(C(=O)N([H])[H])c5N([H])[H])C4([H])[H])c3[H])c([H])c([H])c2C1([H])[H]

>  <smiles>  (63) 
[H]c1c([H])c([H])c2c(c1[H])C([H])([H])C([H])([H])C([H])([H])C2([H])N([H])C(=O)C1([H])N(C(=O)C([H])(N([H])C(=O)C([H])(N([H])C([H])([H])[H])C([H])([H])[H])C(C([H])([H])[H])(C([H])([H])[H])C([H])([H])[H])C([H])([H])c2c([H])c(OC([H])([H])c3c([H])c([H])c(C(=O)N([H])[H])c(N([H])C(=O)N4C([H])([H])C([H])([H])C([H])([H])C([H])(n5nc(-c6c([H])c([H])c(Oc7c([H])c([H])c(F)c([H])c7F)c([H])c6[H])c(C(=O)N([H])[H])c5N([H])[H])C4([H])[H])c3[H])c([H])c([H])c2C1([H])[H]

$$$$
63:0:0
     RDKit          3D

 91100  0  0  1  0  0  0  0  0999 V2000
  -30.4900  -21.7170   18.4570 C   0  0  0  0  0  3  0  0  0  0  0  0
  -28.6740  -21.1850   20.3900 C   0  0  0  0  0  3  0  0  0  0  0  0
  -30.3870  -20.3680   18.8920 C   0  0  0  0  0  0  0  0  0  0  0  0
  -29.7390  -22.8170   18.9520 C   0  0  0  0  0  0  0  0  0  0  0  0
  -29.4450  -19.9450   19.8700 C   0  0  0  0  0  0  0  0  0  0  0  0
  -28.8060  -22.6840   20.0030 C   0  0  0  0  0  0  0  0  0  0  0  0
  -31.3060  -19.3620   18.2070 C   0  0  0  0  0  1  0  0  0  0  0  0
  -29.9420  -24.1630   18.2790 C   0  0  0  0  0  1  0  0  0  0  0  0
  -29.2360  -18.2020   20.0160 C   0  0  0  0  0  2  0  0  0  0  0  0
  -30.9610  -17.6850   22.3900 C   0  0  0  0  0  2  0  0  0  0  0  0
  -30.0180  -16.5270   22.0630 C   0  0  0  0  0  2  0  0  0  0  0  0
  -31.6110  -17.3770   21.0490 C   0  0  0  0  0  2  0  0  0  0  0  0
  -30.2460  -16.8080   20.5530 C   0  0  2  0  0  0  0  0  0  0  0  0
  -30.6510  -15.2130   19.8780 C   0  0  0  0  0  0  0  0  0  0  0  0
  -30.4620  -12.7890   18.9390 C   0  0  0  0  0  2  0  0  0  0  0  0
  -29.4670  -12.6850   17.7570 C   0  0  0  0  0  2  0  0  0  0  0  0
  -28.0360  -12.4560   18.2690 C   0  0  0  0  0  2  0  0  0  0  0  0
  -27.7020  -13.3630   19.4810 C   0  0  0  0  0  3  0  0  0  0  0  0
  -28.8270  -13.4350   20.5350 C   0  0  0  0  0  2  0  0  0  0  0  0
  -30.0360  -13.9190   19.8570 N   0  0  0  0  0  0  0  0  0  0  0  0
  -31.7820  -15.1370   19.3700 O   0  0  0  0  0  0  0  0  0  0  0  0
  -25.3950  -13.9260   20.4070 C   0  0  0  0  0  0  0  0  0  0  0  0
  -24.3480  -13.1530   20.8250 C   0  0  0  0  0  0  0  0  0  0  0  0
  -24.7930  -11.7980   20.7290 C   0  0  0  0  0  0  0  0  0  0  0  0
  -26.4080  -13.0450   20.0710 N   0  0  0  0  0  0  0  0  0  0  0  0
  -26.0600  -11.7560   20.3290 N   0  0  0  0  0  0  0  0  0  0  0  0
  -24.0600  -10.5410   20.9370 C   0  0  0  0  0  0  0  0  0  0  0  0
  -24.5140   -9.5600   21.8480 C   0  0  0  0  0  3  0  0  0  0  0  0
  -23.7780   -8.3710   22.0460 C   0  0  0  0  0  3  0  0  0  0  0  0
  -22.5750   -8.1540   21.3330 C   0  0  0  0  0  0  0  0  0  0  0  0
  -22.1410   -9.1220   20.4080 C   0  0  0  0  0  3  0  0  0  0  0  0
  -22.8770  -10.3020   20.2100 C   0  0  0  0  0  3  0  0  0  0  0  0
  -21.8100   -7.0150   21.4390 O   0  0  0  0  0  0  0  0  0  0  0  0
  -21.7670   -6.2810   22.5970 C   0  0  0  0  0  0  0  0  0  0  0  0
  -21.3600   -6.8490   23.8240 C   0  0  0  0  0  3  0  0  0  0  0  0
  -21.2640   -6.0430   24.9750 C   0  0  0  0  0  3  0  0  0  0  0  0
  -21.5660   -4.6690   24.9020 C   0  0  0  0  0  0  0  0  0  0  0  0
  -21.9670   -4.1020   23.6790 C   0  0  0  0  0  3  0  0  0  0  0  0
  -22.0650   -4.9050   22.5300 C   0  0  0  0  0  0  0  0  0  0  0  0
  -22.4310   -4.3480   21.3490 F   0  0  0  0  0  0  0  0  0  0  0  0
  -21.4690   -3.8940   26.0060 F   0  0  0  0  0  0  0  0  0  0  0  0
  -22.9800  -13.6400   21.1970 C   0  0  0  0  0  0  0  0  0  0  0  0
  -22.3010  -12.9400   22.1000 N   0  0  0  0  0  0  0  0  0  0  0  0
  -22.5240  -14.6810   20.7230 O   0  0  0  0  0  0  0  0  0  0  0  0
  -22.6880  -12.1030   22.5110 H   0  0  0  0  0  0  0  0  0  0  0  0
  -21.3810  -13.2460   22.3860 H   0  0  0  0  0  0  0  0  0  0  0  0
  -25.5670  -15.2990   20.2580 N   0  0  0  0  0  0  0  0  0  0  0  0
  -24.8240  -15.9630   20.4490 H   0  0  0  0  0  0  0  0  0  0  0  0
  -26.4060  -15.7380   19.9030 H   0  0  0  0  0  0  0  0  0  0  0  0
  -27.9610  -24.1340   20.4990 C   0  0  0  0  0  2  0  0  0  0  0  0
  -28.2850  -25.7470   20.3370 O   0  0  0  0  0  0  0  0  0  0  0  0
  -24.6240  -31.7600   23.1400 C   0  0  0  0  0  0  0  0  0  0  0  0
  -27.2860  -26.8530   20.2750 C   0  0  0  0  0  0  0  0  0  0  0  0
  -23.4890  -30.3290   21.4940 C   0  0  0  0  0  3  0  0  0  0  0  0
  -24.9880  -28.7250   20.1330 C   0  0  0  0  0  0  0  0  0  0  0  0
  -26.0610  -30.5620   21.4160 C   0  0  0  0  0  2  0  0  0  0  0  0
  -26.1580  -29.1470   20.7770 C   0  0  0  0  0  0  0  0  0  0  0  0
  -27.3100  -28.2340   20.8120 C   0  0  0  0  0  3  0  0  0  0  0  0
  -26.0880  -26.5910   19.5760 C   0  0  0  0  0  3  0  0  0  0  0  0
  -24.9790  -27.4680   19.5090 C   0  0  0  0  0  3  0  0  0  0  0  0
  -23.7620  -29.6370   20.1320 C   0  0  0  0  0  2  0  0  0  0  0  0
  -24.7450  -30.9110   22.0710 N   0  0  0  0  0  0  0  0  0  0  0  0
  -23.5170  -32.0500   23.6250 O   0  0  0  0  0  0  0  0  0  0  0  0
  -22.7800  -29.3360   22.4530 C   0  0  0  0  0  0  0  0  0  0  0  0
  -21.4520  -29.1640   22.3040 N   0  0  0  0  0  0  0  0  0  0  0  0
  -23.4310  -28.7220   23.3010 O   0  0  0  0  0  0  0  0  0  0  0  0
  -20.9790  -29.7110   21.5990 H   0  0  0  0  0  0  0  0  0  0  0  0
  -18.0650  -27.9520   22.7590 C   0  0  0  0  0  0  0  0  0  0  0  0
  -20.6170  -28.2360   23.0710 C   0  0  0  0  0  3  0  0  0  0  0  0
  -20.7370  -26.7960   22.5190 C   0  0  0  0  0  2  0  0  0  0  0  0
  -19.6580  -26.4540   21.4860 C   0  0  0  0  0  2  0  0  0  0  0  0
  -18.2630  -26.5970   22.1000 C   0  0  0  0  0  2  0  0  0  0  0  0
  -19.1710  -28.7290   23.1990 C   0  0  0  0  0  0  0  0  0  0  0  0
  -18.9270  -29.9940   23.7770 C   0  0  0  0  0  3  0  0  0  0  0  0
  -17.6150  -30.4850   23.9150 C   0  0  0  0  0  3  0  0  0  0  0  0
  -16.5260  -29.7070   23.4880 C   0  0  0  0  0  3  0  0  0  0  0  0
  -16.7510  -28.4410   22.9170 C   0  0  0  0  0  3  0  0  0  0  0  0
  -25.8710  -32.4260   23.7940 C   0  0  0  0  0  3  0  0  0  0  0  0
  -26.3630  -31.6750   25.0940 C   0  0  1  0  0  0  0  0  0  0  0  0
  -25.2430  -31.4300   26.1310 C   0  0  0  0  0  1  0  0  0  0  0  0
  -26.9810  -30.3020   24.7450 C   0  0  0  0  0  1  0  0  0  0  0  0
  -27.4820  -32.4960   25.7790 C   0  0  0  0  0  1  0  0  0  0  0  0
  -25.5240  -33.8220   24.1180 N   0  0  0  0  0  0  0  0  0  0  0  0
  -25.8550  -34.8870   23.3760 C   0  0  0  0  0  0  0  0  0  0  0  0
  -26.5500  -34.7990   22.3620 O   0  0  0  0  0  0  0  0  0  0  0  0
  -24.9060  -33.9630   24.9050 H   0  0  0  0  0  0  0  0  0  0  0  0
  -24.1070  -36.6580   22.9990 C   0  0  0  0  0  1  0  0  0  0  0  0
  -25.3380  -36.2670   23.8330 C   0  0  0  0  0  3  0  0  0  0  0  0
  -27.4410  -37.1820   24.7140 C   0  0  0  0  0  1  0  0  0  0  0  0
  -26.3570  -37.3380   23.7460 N   0  0  0  0  0  0  0  0  0  0  0  0
  -25.9320  -38.2500   23.8900 H   0  0  0  0  0  0  0  0  0  0  0  0
  1  3  2  0
  1  4  1  0
  3  5  1  0
  4  6  2  0
  5  9  1  0
  5  2  2  0
  6  2  1  0
  6 50  1  0
  7  3  1  0
  8  4  1  0
 13  9  1  6
 11 10  1  0
 12 10  1  0
 13 12  1  0
 13 11  1  0
 14 13  1  0
 15 20  1  0
 16 17  1  0
 16 15  1  0
 18 17  1  0
 18 25  1  0
 18 19  1  0
 20 14  1  0
 20 19  1  0
 21 14  2  0
 22 23  2  0
 23 42  1  0
 24 23  1  0
 24 27  1  0
 25 26  1  0
 25 22  1  0
 26 24  2  0
 27 28  1  0
 28 29  2  0
 30 33  1  0
 30 29  1  0
 31 30  2  0
 32 31  1  0
 32 27  2  0
 33 34  1  0
 34 35  1  0
 35 36  2  0
 37 36  1  0
 37 41  1  0
 38 37  2  0
 39 34  2  0
 39 38  1  0
 40 39  1  0
 42 43  1  0
 43 46  1  0
 43 45  1  0
 44 42  2  0
 47 22  1  0
 47 48  1  0
 49 47  1  0
 51 50  1  0
 52 63  2  0
 53 51  1  0
 53 58  1  0
 54 62  1  0
 54 64  1  0
 55 57  1  0
 56 62  1  0
 57 58  2  0
 57 56  1  0
 59 53  2  0
 60 59  1  0
 60 55  2  0
 61 55  1  0
 61 54  1  0
 62 52  1  0
 64 66  2  0
 65 64  1  0
 67 65  1  0
 68 77  2  0
 68 73  1  0
 69 65  1  0
 69 73  1  0
 70 69  1  0
 71 72  1  0
 71 70  1  0
 72 68  1  0
 73 74  2  0
 74 75  1  0
 76 75  2  0
 77 76  1  0
 78 52  1  0
 78 83  1  0
 78 79  1  0
 79 82  1  1
 79 80  1  0
 81 79  1  0
 83 86  1  0
 84 88  1  0
 84 83  1  0
 85 84  2  0
 88 87  1  0
 90 88  1  0
 90 91  1  0
 90 89  1  0
M  ISO  4  13 100  14 100  50 101  51 101
M  END
>  <TORSDO>  (64) 
F 19

>  <SCORE>  (64) 
-16.464

>  <name>  (64) 
63

>  <ligand_id>  (64) 
63

>  <original_smiles>  (64) 
[H]c1c([H])c([H])c2c(c1[H])C([H])([H])C([H])([H])C([H])([H])C2([H])N([H])C(=O)C1([H])N(C(=O)C([H])(N([H])C(=O)C([H])(N([H])C([H])([H])[H])C([H])([H])[H])C(C([H])([H])[H])(C([H])([H])[H])C([H])([H])[H])C([H])([H])c2c([H])c(OC([H])([H])c3c([H])c(C([H])([H])C4(C(=O)N5C([H])([H])C([H])([H])C([H])([H])C([H])(n6nc(-c7c([H])c([H])c(Oc8c([H])c([H])c(F)c([H])c8F)c([H])c7[H])c(C(=O)N([H])[H])c6N([H])[H])C5([H])[H])C([H])([H])C([H])([H])C4([H])[H])c(C([H])([H])[H])c([H])c3C([H])([H])[H])c([H])c([H])c2C1([H])[H]

>  <smiles>  (64) 
[H]c1c([H])c([H])c2c(c1[H])C([H])([H])C([H])([H])C([H])([H])C2([H])N([H])C(=O)C1([H])N(C(=O)C([H])(N([H])C(=O)C([H])(N([H])C([H])([H])[H])C([H])([H])[H])C(C([H])([H])[H])(C([H])([H])[H])C([H])([H])[H])C([H])([H])c2c([H])c(OC([H])([H])c3c([H])c(C([H])([H])C4(C(=O)N5C([H])([H])C([H])([H])C([H])([H])C([H])(n6nc(-c7c([H])c([H])c(Oc8c([H])c([H])c(F)c([H])c8F)c([H])c7[H])c(C(=O)N([H])[H])c6N([H])[H])C5([H])[H])C([H])([H])C([H])([H])C4([H])[H])c(C([H])([H])[H])c([H])c3C([H])([H])[H])c([H])c([H])c2C1([H])[H]

$$$$
64:0:0
     RDKit          3D

 88 96  0  0  1  0  0  0  0  0999 V2000
  -27.8810  -21.2610   20.0440 C   0  0  0  0  0  3  0  0  0  0  0  0
  -27.5240  -22.7690   20.0510 C   0  0  0  0  0  3  0  0  0  0  0  0
  -29.6180  -23.2380   20.5280 C   0  0  0  0  0  3  0  0  0  0  0  0
  -29.1700  -20.5110   20.2660 C   0  0  0  0  0  0  0  0  0  0  0  0
  -29.9880  -21.7500   20.5280 C   0  0  0  0  0  0  0  0  0  0  0  0
  -28.3580  -23.9930   20.2960 C   0  0  0  0  0  0  0  0  0  0  0  0
  -31.4570  -21.5200   20.8730 C   0  0  0  0  0  1  0  0  0  0  0  0
  -29.4880  -17.2640   20.4060 C   0  0  0  0  0  3  0  0  0  0  0  0
  -29.7670  -18.7680   20.1890 C   0  0  0  0  0  0  0  0  0  0  0  0
  -30.3030  -15.7460   20.2540 C   0  0  0  0  0  0  0  0  0  0  0  0
  -30.4210  -13.1830   19.4840 C   0  0  0  0  0  2  0  0  0  0  0  0
  -29.5460  -12.7980   18.2560 C   0  0  0  0  0  2  0  0  0  0  0  0
  -28.1180  -12.4370   18.6930 C   0  0  0  0  0  2  0  0  0  0  0  0
  -27.5970  -13.4250   19.7620 C   0  0  0  0  0  3  0  0  0  0  0  0
  -28.6160  -13.7440   20.8800 C   0  0  0  0  0  2  0  0  0  0  0  0
  -29.8000  -14.3680   20.2440 N   0  0  0  0  0  0  0  0  0  0  0  0
  -31.5290  -15.6590   20.0380 O   0  0  0  0  0  0  0  0  0  0  0  0
  -25.2350  -13.9190   20.5510 C   0  0  0  0  0  0  0  0  0  0  0  0
  -24.1850  -13.1230   20.9120 C   0  0  0  0  0  0  0  0  0  0  0  0
  -24.6690  -11.7790   20.8610 C   0  0  0  0  0  0  0  0  0  0  0  0
  -26.2850  -13.0620   20.2840 N   0  0  0  0  0  0  0  0  0  0  0  0
  -25.9620  -11.7660   20.5410 N   0  0  0  0  0  0  0  0  0  0  0  0
  -23.9530  -10.5060   21.0390 C   0  0  0  0  0  0  0  0  0  0  0  0
  -24.3720   -9.5450   21.9860 C   0  0  0  0  0  3  0  0  0  0  0  0
  -23.6530   -8.3430   22.1520 C   0  0  0  0  0  3  0  0  0  0  0  0
  -22.4990   -8.0910   21.3690 C   0  0  0  0  0  0  0  0  0  0  0  0
  -22.0970   -9.0430   20.4150 C   0  0  0  0  0  3  0  0  0  0  0  0
  -22.8170  -10.2370   20.2480 C   0  0  0  0  0  3  0  0  0  0  0  0
  -21.7530   -6.9380   21.4450 O   0  0  0  0  0  0  0  0  0  0  0  0
  -21.6540   -6.2170   22.6090 C   0  0  0  0  0  0  0  0  0  0  0  0
  -21.1220   -6.7810   23.7890 C   0  0  0  0  0  3  0  0  0  0  0  0
  -20.9740   -5.9850   24.9430 C   0  0  0  0  0  3  0  0  0  0  0  0
  -21.3450   -4.6270   24.9160 C   0  0  0  0  0  0  0  0  0  0  0  0
  -21.8680   -4.0640   23.7390 C   0  0  0  0  0  3  0  0  0  0  0  0
  -22.0190   -4.8560   22.5870 C   0  0  0  0  0  0  0  0  0  0  0  0
  -22.5050   -4.3030   21.4500 F   0  0  0  0  0  0  0  0  0  0  0  0
  -21.1950   -3.8620   26.0220 F   0  0  0  0  0  0  0  0  0  0  0  0
  -22.7840  -13.5860   21.1860 C   0  0  0  0  0  0  0  0  0  0  0  0
  -22.0630  -12.8830   22.0510 N   0  0  0  0  0  0  0  0  0  0  0  0
  -22.3390  -14.6100   20.6710 O   0  0  0  0  0  0  0  0  0  0  0  0
  -22.4320  -12.0560   22.4970 H   0  0  0  0  0  0  0  0  0  0  0  0
  -21.1230  -13.1810   22.2730 H   0  0  0  0  0  0  0  0  0  0  0  0
  -25.3810  -15.2940   20.3960 N   0  0  0  0  0  0  0  0  0  0  0  0
  -24.6090  -15.9400   20.5260 H   0  0  0  0  0  0  0  0  0  0  0  0
  -26.2250  -15.7450   20.0710 H   0  0  0  0  0  0  0  0  0  0  0  0
  -30.9790  -18.8800   19.6380 O   0  0  0  0  0  0  0  0  0  0  0  0
  -31.1080  -19.8000   19.4400 H   0  0  0  0  0  0  0  0  0  0  0  0
  -28.2090  -25.6200   20.3060 O   0  0  0  0  0  0  0  0  0  0  0  0
  -24.6390  -31.8980   23.2250 C   0  0  0  0  0  0  0  0  0  0  0  0
  -27.1780  -26.7850   20.2880 C   0  0  0  0  0  0  0  0  0  0  0  0
  -23.4570  -30.4890   21.5930 C   0  0  0  0  0  3  0  0  0  0  0  0
  -24.9060  -28.8200   20.2040 C   0  0  0  0  0  0  0  0  0  0  0  0
  -26.0370  -30.6200   21.4880 C   0  0  0  0  0  2  0  0  0  0  0  0
  -26.0980  -29.1810   20.8450 C   0  0  0  0  0  0  0  0  0  0  0  0
  -27.2130  -28.1910   20.8550 C   0  0  0  0  0  3  0  0  0  0  0  0
  -25.9530  -26.6340   19.5880 C   0  0  0  0  0  3  0  0  0  0  0  0
  -24.8730  -27.5720   19.5550 C   0  0  0  0  0  3  0  0  0  0  0  0
  -23.7020  -29.7760   20.2310 C   0  0  0  0  0  2  0  0  0  0  0  0
  -24.7340  -31.0390   22.1520 N   0  0  0  0  0  0  0  0  0  0  0  0
  -23.5440  -32.2060   23.7250 O   0  0  0  0  0  0  0  0  0  0  0  0
  -22.7350  -29.5240   22.5690 C   0  0  0  0  0  0  0  0  0  0  0  0
  -21.4030  -29.3690   22.4370 N   0  0  0  0  0  0  0  0  0  0  0  0
  -23.3850  -28.9090   23.4180 O   0  0  0  0  0  0  0  0  0  0  0  0
  -20.9290  -29.9150   21.7300 H   0  0  0  0  0  0  0  0  0  0  0  0
  -18.0080  -28.1780   22.9530 C   0  0  0  0  0  0  0  0  0  0  0  0
  -20.5700  -28.4420   23.2140 C   0  0  0  0  0  3  0  0  0  0  0  0
  -20.6670  -27.0050   22.6500 C   0  0  0  0  0  2  0  0  0  0  0  0
  -19.5650  -26.6790   21.6350 C   0  0  0  0  0  2  0  0  0  0  0  0
  -18.1830  -26.8260   22.2780 C   0  0  0  0  0  2  0  0  0  0  0  0
  -19.1290  -28.9420   23.3770 C   0  0  0  0  0  0  0  0  0  0  0  0
  -18.9070  -30.2030   23.9750 C   0  0  0  0  0  3  0  0  0  0  0  0
  -17.6020  -30.6990   24.1490 C   0  0  0  0  0  3  0  0  0  0  0  0
  -16.4980  -29.9340   23.7380 C   0  0  0  0  0  3  0  0  0  0  0  0
  -16.7020  -28.6750   23.1460 C   0  0  0  0  0  3  0  0  0  0  0  0
  -25.8990  -32.5530   23.8700 C   0  0  0  0  0  3  0  0  0  0  0  0
  -25.5780  -33.9600   24.1830 N   0  0  0  0  0  0  0  0  0  0  0  0
  -25.9060  -35.0180   23.4270 C   0  0  0  0  0  0  0  0  0  0  0  0
  -26.5690  -34.9100   22.3910 O   0  0  0  0  0  0  0  0  0  0  0  0
  -24.9860  -34.1130   24.9860 H   0  0  0  0  0  0  0  0  0  0  0  0
  -24.1760  -36.8190   23.1030 C   0  0  0  0  0  1  0  0  0  0  0  0
  -25.4340  -36.4130   23.8880 C   0  0  0  0  0  3  0  0  0  0  0  0
  -27.5730  -37.3210   24.6840 C   0  0  0  0  0  1  0  0  0  0  0  0
  -26.4690  -37.4600   23.7370 N   0  0  0  0  0  0  0  0  0  0  0  0
  -26.0690  -38.3860   23.8450 H   0  0  0  0  0  0  0  0  0  0  0  0
  -26.3810  -31.8110   25.1790 C   0  0  1  0  0  0  0  0  0  0  0  0
  -25.2620  -31.6060   26.2280 C   0  0  0  0  0  1  0  0  0  0  0  0
  -26.9670  -30.4210   24.8470 C   0  0  0  0  0  1  0  0  0  0  0  0
  -27.5210  -32.6170   25.8470 C   0  0  0  0  0  1  0  0  0  0  0  0
  1  2  2  0
  1  4  1  0
  2  6  1  0
  3  5  1  0
  4  5  2  0
  5  7  1  0
  6 48  1  0
  6  3  2  0
  9  4  1  0
  9  8  2  0
 10  8  1  0
 11 16  1  0
 12 13  1  0
 12 11  1  0
 14 13  1  0
 14 21  1  0
 14 15  1  0
 16 10  1  0
 16 15  1  0
 17 10  2  0
 18 19  2  0
 19 38  1  0
 20 19  1  0
 20 23  1  0
 21 22  1  0
 21 18  1  0
 22 20  2  0
 23 24  1  0
 24 25  2  0
 26 29  1  0
 26 25  1  0
 27 26  2  0
 28 27  1  0
 28 23  2  0
 29 30  1  0
 30 31  1  0
 31 32  2  0
 33 32  1  0
 33 37  1  0
 34 33  2  0
 35 30  2  0
 35 34  1  0
 36 35  1  0
 38 39  1  0
 39 42  1  0
 39 41  1  0
 40 38  2  0
 43 44  1  0
 43 18  1  0
 45 43  1  0
 46  9  1  0
 47 46  1  0
 49 60  2  0
 50 48  1  0
 50 55  1  0
 51 59  1  0
 51 61  1  0
 52 58  1  0
 52 54  1  0
 53 59  1  0
 54 55  2  0
 54 53  1  0
 56 50  2  0
 57 56  1  0
 57 52  2  0
 58 51  1  0
 59 49  1  0
 61 63  2  0
 62 61  1  0
 64 62  1  0
 65 74  2  0
 65 70  1  0
 66 62  1  0
 66 70  1  0
 67 66  1  0
 68 69  1  0
 68 67  1  0
 69 65  1  0
 70 71  2  0
 71 72  1  0
 73 72  2  0
 74 73  1  0
 75 49  1  0
 75 76  1  0
 75 85  1  0
 76 79  1  0
 77 81  1  0
 77 76  1  0
 78 77  2  0
 81 80  1  0
 83 84  1  0
 83 81  1  0
 83 82  1  0
 85 88  1  1
 85 86  1  0
 87 85  1  0
M  ISO  4   6 101   8 100  10 100  48 101
M  END
>  <TORSDO>  (65) 
F 18

>  <SCORE>  (65) 
-15.592

>  <name>  (65) 
64

>  <ligand_id>  (65) 
64

>  <original_smiles>  (65) 
[H]OC(=C([H])C(=O)N1C([H])([H])C([H])([H])C([H])([H])C([H])(n2nc(-c3c([H])c([H])c(Oc4c([H])c([H])c(F)c([H])c4F)c([H])c3[H])c(C(=O)N([H])[H])c2N([H])[H])C1([H])[H])c1c([H])c([H])c(Oc2c([H])c([H])c3c(c2[H])C([H])([H])N(C(=O)C([H])(N([H])C(=O)C([H])(N([H])C([H])([H])[H])C([H])([H])[H])C(C([H])([H])[H])(C([H])([H])[H])C([H])([H])[H])C([H])(C(=O)N([H])C2([H])c4c([H])c([H])c([H])c([H])c4C([H])([H])C([H])([H])C2([H])[H])C3([H])[H])c([H])c1C([H])([H])[H]

>  <smiles>  (65) 
[H]OC(=C([H])C(=O)N1C([H])([H])C([H])([H])C([H])([H])C([H])(n2nc(-c3c([H])c([H])c(Oc4c([H])c([H])c(F)c([H])c4F)c([H])c3[H])c(C(=O)N([H])[H])c2N([H])[H])C1([H])[H])c1c([H])c([H])c(Oc2c([H])c([H])c3c(c2[H])C([H])([H])N(C(=O)C([H])(N([H])C(=O)C([H])(N([H])C([H])([H])[H])C([H])([H])[H])C(C([H])([H])[H])(C([H])([H])[H])C([H])([H])[H])C([H])(C(=O)N([H])C2([H])c4c([H])c([H])c([H])c([H])c4C([H])([H])C([H])([H])C2([H])[H])C3([H])[H])c([H])c1C([H])([H])[H]

$$$$
65:0:0
     RDKit          3D

 88 96  0  0  1  0  0  0  0  0999 V2000
  -28.3600  -21.2660   21.1320 C   0  0  0  0  0  3  0  0  0  0  0  0
  -28.0090  -22.7790   21.1670 C   0  0  0  0  0  3  0  0  0  0  0  0
  -28.9720  -23.0560   19.2200 C   0  0  0  0  0  3  0  0  0  0  0  0
  -29.0820  -20.4180   20.1200 C   0  0  0  0  0  0  0  0  0  0  0  0
  -29.3380  -21.5570   19.1640 C   0  0  0  0  0  0  0  0  0  0  0  0
  -28.2490  -23.9180   20.2060 C   0  0  0  0  0  0  0  0  0  0  0  0
  -30.1360  -21.1760   17.9260 C   0  0  0  0  0  1  0  0  0  0  0  0
  -30.2430  -15.8360   20.1270 C   0  0  0  0  0  0  0  0  0  0  0  0
  -30.3540  -13.2720   19.3180 C   0  0  0  0  0  2  0  0  0  0  0  0
  -29.4480  -12.8300   18.1330 C   0  0  0  0  0  2  0  0  0  0  0  0
  -28.0450  -12.4480   18.6240 C   0  0  0  0  0  2  0  0  0  0  0  0
  -27.5410  -13.4430   19.6920 C   0  0  0  0  0  3  0  0  0  0  0  0
  -28.5920  -13.8000   20.7730 C   0  0  0  0  0  2  0  0  0  0  0  0
  -29.7270  -14.4550   20.0770 N   0  0  0  0  0  0  0  0  0  0  0  0
  -31.4740  -15.7410   19.9340 O   0  0  0  0  0  0  0  0  0  0  0  0
  -29.8150  -18.7600   20.1090 C   0  0  0  0  0  0  0  0  0  0  0  0
  -29.4970  -17.2270   20.2080 N   0  0  0  0  0  0  0  0  0  0  0  0
  -31.0240  -18.9140   19.9290 O   0  0  0  0  0  0  0  0  0  0  0  0
  -28.5060  -17.0900   20.3350 H   0  0  0  0  0  0  0  0  0  0  0  0
  -25.2030  -13.9340   20.5450 C   0  0  0  0  0  0  0  0  0  0  0  0
  -24.1620  -13.1380   20.9260 C   0  0  0  0  0  0  0  0  0  0  0  0
  -24.6420  -11.7940   20.8500 C   0  0  0  0  0  0  0  0  0  0  0  0
  -26.2460  -13.0780   20.2480 N   0  0  0  0  0  0  0  0  0  0  0  0
  -25.9250  -11.7810   20.4990 N   0  0  0  0  0  0  0  0  0  0  0  0
  -23.9270  -10.5210   21.0320 C   0  0  0  0  0  0  0  0  0  0  0  0
  -24.3710   -9.5490   21.9550 C   0  0  0  0  0  3  0  0  0  0  0  0
  -23.6510   -8.3460   22.1290 C   0  0  0  0  0  3  0  0  0  0  0  0
  -22.4740   -8.1080   21.3800 C   0  0  0  0  0  0  0  0  0  0  0  0
  -22.0490   -9.0690   20.4470 C   0  0  0  0  0  3  0  0  0  0  0  0
  -22.7700  -10.2630   20.2710 C   0  0  0  0  0  3  0  0  0  0  0  0
  -21.7260   -6.9570   21.4640 O   0  0  0  0  0  0  0  0  0  0  0  0
  -21.6640   -6.2220   22.6210 C   0  0  0  0  0  0  0  0  0  0  0  0
  -21.1800   -6.7700   23.8280 C   0  0  0  0  0  3  0  0  0  0  0  0
  -21.0680   -5.9590   24.9750 C   0  0  0  0  0  3  0  0  0  0  0  0
  -21.4290   -4.6010   24.9150 C   0  0  0  0  0  0  0  0  0  0  0  0
  -21.9060   -4.0510   23.7120 C   0  0  0  0  0  3  0  0  0  0  0  0
  -22.0190   -4.8590   22.5670 C   0  0  0  0  0  0  0  0  0  0  0  0
  -22.4590   -4.3190   21.4050 F   0  0  0  0  0  0  0  0  0  0  0  0
  -21.3150   -3.8190   26.0140 F   0  0  0  0  0  0  0  0  0  0  0  0
  -22.7690  -13.5980   21.2390 C   0  0  0  0  0  0  0  0  0  0  0  0
  -22.0700  -12.8830   22.1130 N   0  0  0  0  0  0  0  0  0  0  0  0
  -22.3120  -14.6280   20.7440 O   0  0  0  0  0  0  0  0  0  0  0  0
  -22.4550  -12.0520   22.5350 H   0  0  0  0  0  0  0  0  0  0  0  0
  -21.1360  -13.1740   22.3660 H   0  0  0  0  0  0  0  0  0  0  0  0
  -25.3440  -15.3100   20.3900 N   0  0  0  0  0  0  0  0  0  0  0  0
  -24.5690  -15.9490   20.5270 H   0  0  0  0  0  0  0  0  0  0  0  0
  -26.1630  -15.7610   20.0040 H   0  0  0  0  0  0  0  0  0  0  0  0
  -28.1540  -25.5590   20.2780 O   0  0  0  0  0  0  0  0  0  0  0  0
  -24.6480  -31.9050   23.2320 C   0  0  0  0  0  0  0  0  0  0  0  0
  -27.1440  -26.7590   20.2610 C   0  0  0  0  0  0  0  0  0  0  0  0
  -23.4480  -30.5010   21.6100 C   0  0  0  0  0  3  0  0  0  0  0  0
  -24.8820  -28.8280   20.2030 C   0  0  0  0  0  0  0  0  0  0  0  0
  -26.0280  -30.6190   21.4810 C   0  0  0  0  0  2  0  0  0  0  0  0
  -26.0820  -29.1750   20.8360 C   0  0  0  0  0  0  0  0  0  0  0  0
  -27.1900  -28.1690   20.8320 C   0  0  0  0  0  3  0  0  0  0  0  0
  -25.9120  -26.6360   19.5650 C   0  0  0  0  0  3  0  0  0  0  0  0
  -24.8390  -27.5840   19.5450 C   0  0  0  0  0  3  0  0  0  0  0  0
  -23.6810  -29.7890   20.2440 C   0  0  0  0  0  2  0  0  0  0  0  0
  -24.7330  -31.0430   22.1590 N   0  0  0  0  0  0  0  0  0  0  0  0
  -23.5580  -32.2130   23.7450 O   0  0  0  0  0  0  0  0  0  0  0  0
  -22.7310  -29.5350   22.5930 C   0  0  0  0  0  0  0  0  0  0  0  0
  -21.3990  -29.3750   22.4670 N   0  0  0  0  0  0  0  0  0  0  0  0
  -23.3850  -28.9260   23.4410 O   0  0  0  0  0  0  0  0  0  0  0  0
  -20.9190  -29.9160   21.7600 H   0  0  0  0  0  0  0  0  0  0  0  0
  -18.0180  -28.1410   22.9780 C   0  0  0  0  0  0  0  0  0  0  0  0
  -20.5750  -28.4440   23.2480 C   0  0  0  0  0  3  0  0  0  0  0  0
  -20.6930  -27.0030   22.6990 C   0  0  0  0  0  2  0  0  0  0  0  0
  -19.6020  -26.6530   21.6830 C   0  0  0  0  0  2  0  0  0  0  0  0
  -18.2150  -26.7870   22.3170 C   0  0  0  0  0  2  0  0  0  0  0  0
  -19.1250  -28.9260   23.4000 C   0  0  0  0  0  0  0  0  0  0  0  0
  -18.8830  -30.1880   23.9840 C   0  0  0  0  0  3  0  0  0  0  0  0
  -17.5690  -30.6680   24.1460 C   0  0  0  0  0  3  0  0  0  0  0  0
  -16.4780  -29.8820   23.7350 C   0  0  0  0  0  3  0  0  0  0  0  0
  -16.7030  -28.6210   23.1580 C   0  0  0  0  0  3  0  0  0  0  0  0
  -25.9150  -32.5580   23.8640 C   0  0  0  0  0  3  0  0  0  0  0  0
  -25.5960  -33.9630   24.1930 N   0  0  0  0  0  0  0  0  0  0  0  0
  -25.9100  -35.0240   23.4380 C   0  0  0  0  0  0  0  0  0  0  0  0
  -26.5530  -34.9250   22.3900 O   0  0  0  0  0  0  0  0  0  0  0  0
  -25.0170  -34.1120   25.0060 H   0  0  0  0  0  0  0  0  0  0  0  0
  -24.1640  -36.8240   23.1560 C   0  0  0  0  0  1  0  0  0  0  0  0
  -25.4390  -36.4160   23.9140 C   0  0  0  0  0  3  0  0  0  0  0  0
  -27.6010  -37.3160   24.6600 C   0  0  0  0  0  1  0  0  0  0  0  0
  -26.4610  -37.4750   23.7610 N   0  0  0  0  0  0  0  0  0  0  0  0
  -26.0550  -38.3930   23.9270 H   0  0  0  0  0  0  0  0  0  0  0  0
  -26.4120  -31.8090   25.1640 C   0  0  1  0  0  0  0  0  0  0  0  0
  -25.3070  -31.5980   26.2250 C   0  0  0  0  0  1  0  0  0  0  0  0
  -26.9950  -30.4210   24.8180 C   0  0  0  0  0  1  0  0  0  0  0  0
  -27.5580  -32.6110   25.8240 C   0  0  0  0  0  1  0  0  0  0  0  0
  1  2  1  0
  3  6  1  0
  4  1  2  0
  5  3  2  0
  5  4  1  0
  6 48  1  0
  6  2  2  0
  7  5  1  0
  8 17  1  0
  9 14  1  0
 10 11  1  0
 10  9  1  0
 12 11  1  0
 12 23  1  0
 12 13  1  0
 14  8  1  0
 14 13  1  0
 15  8  2  0
 16  4  1  0
 16 17  1  0
 17 19  1  0
 18 16  2  0
 20 21  2  0
 21 40  1  0
 22 21  1  0
 22 25  1  0
 23 24  1  0
 23 20  1  0
 24 22  2  0
 25 26  1  0
 26 27  2  0
 28 31  1  0
 28 27  1  0
 29 28  2  0
 30 29  1  0
 30 25  2  0
 31 32  1  0
 32 33  1  0
 33 34  2  0
 35 34  1  0
 35 39  1  0
 36 35  2  0
 37 32  2  0
 37 36  1  0
 38 37  1  0
 40 41  1  0
 41 44  1  0
 41 43  1  0
 42 40  2  0
 45 46  1  0
 45 20  1  0
 47 45  1  0
 49 60  2  0
 50 48  1  0
 50 55  1  0
 51 59  1  0
 51 61  1  0
 52 58  1  0
 52 54  1  0
 53 59  1  0
 54 53  1  0
 55 54  2  0
 56 50  2  0
 57 56  1  0
 57 52  2  0
 58 51  1  0
 59 49  1  0
 61 63  2  0
 62 61  1  0
 64 62  1  0
 65 74  2  0
 65 70  1  0
 66 62  1  0
 66 70  1  0
 67 66  1  0
 68 69  1  0
 68 67  1  0
 69 65  1  0
 70 71  2  0
 71 72  1  0
 73 72  2  0
 74 73  1  0
 75 49  1  0
 75 76  1  0
 75 85  1  0
 76 79  1  0
 77 81  1  0
 77 76  1  0
 78 77  2  0
 81 80  1  0
 83 81  1  0
 83 84  1  0
 83 82  1  0
 85 88  1  1
 85 86  1  0
 87 85  1  0
M  ISO  4   6 101   8 100  17 100  48 101
M  END
>  <TORSDO>  (66) 
F 16

>  <SCORE>  (66) 
-15.941

>  <name>  (66) 
65

>  <ligand_id>  (66) 
65

>  <original_smiles>  (66) 
[H]c1c([H])c([H])c2c(c1[H])C([H])([H])C([H])([H])C([H])([H])C2([H])N([H])C(=O)C1([H])N(C(=O)C([H])(N([H])C(=O)C([H])(N([H])C([H])([H])[H])C([H])([H])[H])C(C([H])([H])[H])(C([H])([H])[H])C([H])([H])[H])C([H])([H])c2c([H])c(Oc3c([H])c([H])c(C(=O)N([H])C(=O)N4C([H])([H])C([H])([H])C([H])([H])C([H])(n5nc(-c6c([H])c([H])c(Oc7c([H])c([H])c(F)c([H])c7F)c([H])c6[H])c(C(=O)N([H])[H])c5N([H])[H])C4([H])[H])c(C([H])([H])[H])c3[H])c([H])c([H])c2C1([H])[H]

>  <smiles>  (66) 
[H]c1c([H])c([H])c2c(c1[H])C([H])([H])C([H])([H])C([H])([H])C2([H])N([H])C(=O)C1([H])N(C(=O)C([H])(N([H])C(=O)C([H])(N([H])C([H])([H])[H])C([H])([H])[H])C(C([H])([H])[H])(C([H])([H])[H])C([H])([H])[H])C([H])([H])c2c([H])c(Oc3c([H])c([H])c(C(=O)N([H])C(=O)N4C([H])([H])C([H])([H])C([H])([H])C([H])(n5nc(-c6c([H])c([H])c(Oc7c([H])c([H])c(F)c([H])c7F)c([H])c6[H])c(C(=O)N([H])[H])c5N([H])[H])C4([H])[H])c(C([H])([H])[H])c3[H])c([H])c([H])c2C1([H])[H]

$$$$
66:0:0
     RDKit          3D

 90 98  0  0  1  0  0  0  0  0999 V2000
  -28.2980  -20.3030   20.4150 C   0  0  0  0  0  3  0  0  0  0  0  0
  -30.5180  -20.8640   20.2150 C   0  0  0  0  0  3  0  0  0  0  0  0
  -27.9520  -21.7560   20.3370 C   0  0  0  0  0  3  0  0  0  0  0  0
  -30.1780  -22.2990   20.1510 C   0  0  0  0  0  3  0  0  0  0  0  0
  -29.6300  -19.7150   20.3390 C   0  0  0  0  0  0  0  0  0  0  0  0
  -28.8590  -22.9000   20.2020 C   0  0  0  0  0  0  0  0  0  0  0  0
  -30.9910  -18.1270   21.8710 C   0  0  0  0  0  1  0  0  0  0  0  0
  -30.2730  -18.1060   20.5090 C   0  0  0  0  0  0  0  0  0  0  0  0
  -30.4870  -15.2670   20.1500 C   0  0  0  0  0  0  0  0  0  0  0  0
  -30.3680  -12.8810   19.1760 C   0  0  0  0  0  2  0  0  0  0  0  0
  -29.3970  -12.7510   17.9780 C   0  0  0  0  0  2  0  0  0  0  0  0
  -27.9630  -12.4870   18.4670 C   0  0  0  0  0  2  0  0  0  0  0  0
  -27.5700  -13.4110   19.6460 C   0  0  0  0  0  3  0  0  0  0  0  0
  -28.6640  -13.5000   20.7310 C   0  0  0  0  0  2  0  0  0  0  0  0
  -29.8780  -13.9920   20.0640 N   0  0  0  0  0  0  0  0  0  0  0  0
  -31.6980  -15.2510   19.8930 O   0  0  0  0  0  0  0  0  0  0  0  0
  -29.7790  -16.5460   20.3310 N   0  0  0  0  0  4  0  0  0  0  0  0
  -28.7810  -16.4310   20.4240 H   0  0  0  0  0  0  0  0  0  0  0  0
  -25.2220  -13.9520   20.4850 C   0  0  0  0  0  0  0  0  0  0  0  0
  -24.1770  -13.1650   20.8770 C   0  0  0  0  0  0  0  0  0  0  0  0
  -24.6480  -11.8180   20.8140 C   0  0  0  0  0  0  0  0  0  0  0  0
  -26.2600  -13.0850   20.1950 N   0  0  0  0  0  0  0  0  0  0  0  0
  -25.9300  -11.7950   20.4630 N   0  0  0  0  0  0  0  0  0  0  0  0
  -23.9340  -10.5490   21.0090 C   0  0  0  0  0  0  0  0  0  0  0  0
  -24.3860   -9.5780   21.9290 C   0  0  0  0  0  3  0  0  0  0  0  0
  -23.6680   -8.3770   22.1140 C   0  0  0  0  0  3  0  0  0  0  0  0
  -22.4830   -8.1380   21.3780 C   0  0  0  0  0  0  0  0  0  0  0  0
  -22.0490   -9.0980   20.4470 C   0  0  0  0  0  3  0  0  0  0  0  0
  -22.7680  -10.2900   20.2610 C   0  0  0  0  0  3  0  0  0  0  0  0
  -21.7340   -6.9900   21.4740 O   0  0  0  0  0  0  0  0  0  0  0  0
  -21.6990   -6.2480   22.6270 C   0  0  0  0  0  0  0  0  0  0  0  0
  -21.2500   -6.7920   23.8500 C   0  0  0  0  0  3  0  0  0  0  0  0
  -21.1650   -5.9750   24.9960 C   0  0  0  0  0  3  0  0  0  0  0  0
  -21.5160   -4.6150   24.9180 C   0  0  0  0  0  0  0  0  0  0  0  0
  -21.9570   -4.0690   23.7000 C   0  0  0  0  0  3  0  0  0  0  0  0
  -22.0450   -4.8830   22.5570 C   0  0  0  0  0  0  0  0  0  0  0  0
  -22.4510   -4.3480   21.3800 F   0  0  0  0  0  0  0  0  0  0  0  0
  -21.4260   -3.8270   26.0150 F   0  0  0  0  0  0  0  0  0  0  0  0
  -22.7850  -13.6320   21.1930 C   0  0  0  0  0  0  0  0  0  0  0  0
  -22.0860  -12.9210   22.0680 N   0  0  0  0  0  0  0  0  0  0  0  0
  -22.3310  -14.6630   20.6990 O   0  0  0  0  0  0  0  0  0  0  0  0
  -22.4680  -12.0860   22.4890 H   0  0  0  0  0  0  0  0  0  0  0  0
  -21.1530  -13.2150   22.3230 H   0  0  0  0  0  0  0  0  0  0  0  0
  -25.3710  -15.3260   20.3180 N   0  0  0  0  0  0  0  0  0  0  0  0
  -24.6010  -15.9710   20.4590 H   0  0  0  0  0  0  0  0  0  0  0  0
  -26.1940  -15.7730   19.9350 H   0  0  0  0  0  0  0  0  0  0  0  0
  -28.4920  -24.5320   19.7200 C   0  0  0  0  0  3  0  0  0  0  0  0
  -28.7370  -23.7450   17.2510 C   0  0  0  0  0  1  0  0  0  0  0  0
  -27.9010  -24.5140   18.2910 C   0  0  0  0  0  2  0  0  0  0  0  0
  -28.2970  -25.9780   20.4620 O   0  0  0  0  0  0  0  0  0  0  0  0
  -24.6300  -31.9050   23.2690 C   0  0  0  0  0  0  0  0  0  0  0  0
  -27.2730  -27.0500   20.3200 C   0  0  0  0  0  0  0  0  0  0  0  0
  -23.4760  -30.4960   21.6160 C   0  0  0  0  0  3  0  0  0  0  0  0
  -24.9600  -28.9040   20.2310 C   0  0  0  0  0  0  0  0  0  0  0  0
  -26.0440  -30.7260   21.5190 C   0  0  0  0  0  2  0  0  0  0  0  0
  -26.1340  -29.3200   20.8680 C   0  0  0  0  0  0  0  0  0  0  0  0
  -27.2830  -28.4130   20.8920 C   0  0  0  0  0  3  0  0  0  0  0  0
  -26.0500  -26.7740   19.6640 C   0  0  0  0  0  3  0  0  0  0  0  0
  -24.9410  -27.6490   19.6120 C   0  0  0  0  0  3  0  0  0  0  0  0
  -23.7350  -29.8140   20.2480 C   0  0  0  0  0  2  0  0  0  0  0  0
  -24.7370  -31.0680   22.1880 N   0  0  0  0  0  0  0  0  0  0  0  0
  -23.5290  -32.1920   23.7660 O   0  0  0  0  0  0  0  0  0  0  0  0
  -22.7700  -29.4980   22.5720 C   0  0  0  0  0  0  0  0  0  0  0  0
  -21.4410  -29.3390   22.4330 N   0  0  0  0  0  0  0  0  0  0  0  0
  -23.4240  -28.8680   23.4050 O   0  0  0  0  0  0  0  0  0  0  0  0
  -20.9670  -29.8980   21.7370 H   0  0  0  0  0  0  0  0  0  0  0  0
  -18.0400  -28.1760   22.9320 C   0  0  0  0  0  0  0  0  0  0  0  0
  -20.6040  -28.4060   23.1950 C   0  0  0  0  0  3  0  0  0  0  0  0
  -20.6850  -26.9770   22.6070 C   0  0  0  0  0  2  0  0  0  0  0  0
  -19.5770  -26.6780   21.5910 C   0  0  0  0  0  2  0  0  0  0  0  0
  -18.1980  -26.8340   22.2390 C   0  0  0  0  0  2  0  0  0  0  0  0
  -19.1690  -28.9220   23.3670 C   0  0  0  0  0  0  0  0  0  0  0  0
  -18.9640  -30.1780   23.9770 C   0  0  0  0  0  3  0  0  0  0  0  0
  -17.6650  -30.6890   24.1560 C   0  0  0  0  0  3  0  0  0  0  0  0
  -16.5520  -29.9420   23.7350 C   0  0  0  0  0  3  0  0  0  0  0  0
  -16.7400  -28.6870   23.1290 C   0  0  0  0  0  3  0  0  0  0  0  0
  -25.8850  -32.5570   23.9220 C   0  0  0  0  0  3  0  0  0  0  0  0
  -26.3520  -31.8180   25.2370 C   0  0  1  0  0  0  0  0  0  0  0  0
  -25.2190  -31.6040   26.2680 C   0  0  0  0  0  1  0  0  0  0  0  0
  -26.9520  -30.4320   24.9100 C   0  0  0  0  0  1  0  0  0  0  0  0
  -27.4750  -32.6320   25.9240 C   0  0  0  0  0  1  0  0  0  0  0  0
  -25.5610  -33.9640   24.2180 N   0  0  0  0  0  0  0  0  0  0  0  0
  -25.9060  -35.0080   23.4540 C   0  0  0  0  0  0  0  0  0  0  0  0
  -26.5940  -34.8900   22.4370 O   0  0  0  0  0  0  0  0  0  0  0  0
  -24.9510  -34.1280   25.0060 H   0  0  0  0  0  0  0  0  0  0  0  0
  -24.1840  -36.8020   23.0510 C   0  0  0  0  0  1  0  0  0  0  0  0
  -25.4130  -36.4050   23.8840 C   0  0  0  0  0  3  0  0  0  0  0  0
  -27.5300  -37.3130   24.7400 C   0  0  0  0  0  1  0  0  0  0  0  0
  -26.4480  -37.4570   23.7700 N   0  0  0  0  0  0  0  0  0  0  0  0
  -26.0390  -38.3800   23.8870 H   0  0  0  0  0  0  0  0  0  0  0  0
  2  5  2  0
  3  1  2  0
  4  6  2  0
  4  2  1  0
  5  1  1  0
  5  8  1  0
  6  3  1  0
  8  7  1  0
  9 17  1  0
 10 15  1  0
 11 12  1  0
 11 10  1  0
 13 12  1  0
 13 22  1  0
 13 14  1  0
 15  9  1  0
 15 14  1  0
 16  9  2  0
 17 18  1  0
 17  8  2  0
 19 20  2  0
 20 39  1  0
 21 20  1  0
 21 24  1  0
 22 23  1  0
 22 19  1  0
 23 21  2  0
 24 25  1  0
 25 26  2  0
 27 30  1  0
 27 26  1  0
 28 27  2  0
 29 28  1  0
 29 24  2  0
 30 31  1  0
 31 32  1  0
 32 33  2  0
 34 33  1  0
 34 38  1  0
 35 34  2  0
 36 31  2  0
 36 35  1  0
 37 36  1  0
 39 40  1  0
 40 43  1  0
 40 42  1  0
 41 39  2  0
 44 45  1  0
 44 19  1  0
 46 44  1  0
 47 49  1  0
 47  6  1  0
 47 50  1  0
 48 49  1  0
 51 62  2  0
 52 50  1  0
 52 57  1  0
 53 61  1  0
 53 63  1  0
 54 60  1  0
 54 56  1  0
 55 61  1  0
 56 57  2  0
 56 55  1  0
 58 52  2  0
 59 58  1  0
 59 54  2  0
 60 53  1  0
 61 51  1  0
 63 65  2  0
 64 63  1  0
 66 64  1  0
 67 76  2  0
 67 72  1  0
 68 64  1  0
 68 72  1  0
 69 68  1  0
 70 71  1  0
 70 69  1  0
 71 67  1  0
 72 73  2  0
 73 74  1  0
 75 74  2  0
 76 75  1  0
 77 51  1  0
 77 82  1  0
 77 78  1  0
 78 81  1  1
 78 79  1  0
 80 78  1  0
 82 85  1  0
 83 87  1  0
 83 82  1  0
 84 83  2  0
 87 86  1  0
 89 87  1  0
 89 90  1  0
 89 88  1  0
M  ISO  4   9 100  17 100  47 101  50 101
M  END
>  <TORSDO>  (67) 
F 19

>  <SCORE>  (67) 
-15.154

>  <name>  (67) 
66

>  <ligand_id>  (67) 
66

>  <original_smiles>  (67) 
[H]c1c([H])c([H])c2c(c1[H])C([H])([H])C([H])([H])C([H])([H])C2([H])N([H])C(=O)C1([H])N(C(=O)C([H])(N([H])C(=O)C([H])(N([H])C([H])([H])[H])C([H])([H])[H])C(C([H])([H])[H])(C([H])([H])[H])C([H])([H])[H])C([H])([H])c2c([H])c(OC([H])(c3c([H])c([H])c(C([H])(N([H])C(=O)N4C([H])([H])C([H])([H])C([H])([H])C([H])(n5nc(-c6c([H])c([H])c(Oc7c([H])c([H])c(F)c([H])c7F)c([H])c6[H])c(C(=O)N([H])[H])c5N([H])[H])C4([H])[H])C([H])([H])[H])c([H])c3[H])C([H])([H])C([H])([H])[H])c([H])c([H])c2C1([H])[H]

>  <smiles>  (67) 
[H]c1c([H])c([H])c2c(c1[H])C([H])([H])C([H])([H])C([H])([H])C2([H])N([H])C(=O)C1([H])N(C(=O)C([H])(N([H])C(=O)C([H])(N([H])C([H])([H])[H])C([H])([H])[H])C(C([H])([H])[H])(C([H])([H])[H])C([H])([H])[H])C([H])([H])c2c([H])c(OC([H])(c3c([H])c([H])c(C([H])(N([H])C(=O)N4C([H])([H])C([H])([H])C([H])([H])C([H])(n5nc(-c6c([H])c([H])c(Oc7c([H])c([H])c(F)c([H])c7F)c([H])c6[H])c(C(=O)N([H])[H])c5N([H])[H])C4([H])[H])C([H])([H])[H])c([H])c3[H])C([H])([H])C([H])([H])[H])c([H])c([H])c2C1([H])[H]

$$$$
67:0:0
     RDKit          3D

 87 95  0  0  1  0  0  0  0  0999 V2000
  -29.3810  -22.5010   20.1010 C   0  0  0  0  0  3  0  0  0  0  0  0
  -29.1060  -20.8690   19.7730 C   0  0  0  0  0  0  0  0  0  0  0  0
  -27.7850  -21.0850   19.3560 C   0  0  0  0  0  0  0  0  0  0  0  0
  -28.4770  -23.7760   19.9740 C   0  0  0  0  0  0  0  0  0  0  0  0
  -26.8620  -20.0040   18.8920 C   0  0  0  0  0  1  0  0  0  0  0  0
  -27.0970  -22.8280   19.3720 S   0  0  0  0  0  0  0  0  0  0  0  0
  -30.5330  -16.0790   19.9050 C   0  0  0  0  0  0  0  0  0  0  0  0
  -30.6730  -13.4450   19.2140 C   0  0  0  0  0  2  0  0  0  0  0  0
  -29.7890  -12.8480   18.0760 C   0  0  0  0  0  2  0  0  0  0  0  0
  -28.4020  -12.4530   18.5940 C   0  0  0  0  0  2  0  0  0  0  0  0
  -27.8710  -13.5110   19.5840 C   0  0  0  0  0  3  0  0  0  0  0  0
  -28.9080  -14.0020   20.6300 C   0  0  0  0  0  2  0  0  0  0  0  0
  -30.0080  -14.6800   19.8850 N   0  0  0  0  0  0  0  0  0  0  0  0
  -31.7660  -15.9230   19.7670 O   0  0  0  0  0  0  0  0  0  0  0  0
  -30.0240  -19.1600   19.8280 C   0  0  0  0  0  0  0  0  0  0  0  0
  -29.8660  -17.5570   19.8950 N   0  0  0  0  0  0  0  0  0  0  0  0
  -31.2330  -19.3970   19.8020 O   0  0  0  0  0  0  0  0  0  0  0  0
  -30.8620  -17.7420   19.8870 H   0  0  0  0  0  0  0  0  0  0  0  0
  -25.5650  -14.0400   20.4820 C   0  0  0  0  0  0  0  0  0  0  0  0
  -24.5090  -13.2660   20.8670 C   0  0  0  0  0  0  0  0  0  0  0  0
  -24.9530  -11.9110   20.7700 C   0  0  0  0  0  0  0  0  0  0  0  0
  -26.5820  -13.1630   20.1620 N   0  0  0  0  0  0  0  0  0  0  0  0
  -26.2320  -11.8700   20.4000 N   0  0  0  0  0  0  0  0  0  0  0  0
  -24.2080  -10.6550   20.9500 C   0  0  0  0  0  0  0  0  0  0  0  0
  -24.6010   -9.6890   21.9020 C   0  0  0  0  0  3  0  0  0  0  0  0
  -23.8510   -8.5040   22.0730 C   0  0  0  0  0  3  0  0  0  0  0  0
  -22.6930   -8.2780   21.2930 C   0  0  0  0  0  0  0  0  0  0  0  0
  -22.3170   -9.2330   20.3310 C   0  0  0  0  0  3  0  0  0  0  0  0
  -23.0680  -10.4080   20.1580 C   0  0  0  0  0  3  0  0  0  0  0  0
  -21.9190   -7.1450   21.3720 O   0  0  0  0  0  0  0  0  0  0  0  0
  -21.7510   -6.4680   22.5530 C   0  0  0  0  0  0  0  0  0  0  0  0
  -21.1530   -7.0720   23.6800 C   0  0  0  0  0  3  0  0  0  0  0  0
  -20.9370   -6.3190   24.8520 C   0  0  0  0  0  3  0  0  0  0  0  0
  -21.3100   -4.9630   24.8960 C   0  0  0  0  0  0  0  0  0  0  0  0
  -21.9000   -4.3570   23.7730 C   0  0  0  0  0  3  0  0  0  0  0  0
  -22.1160   -5.1080   22.6040 C   0  0  0  0  0  0  0  0  0  0  0  0
  -22.6670   -4.5130   21.5170 F   0  0  0  0  0  0  0  0  0  0  0  0
  -21.0960   -4.2370   26.0190 F   0  0  0  0  0  0  0  0  0  0  0  0
  -23.1340  -13.7600   21.2040 C   0  0  0  0  0  0  0  0  0  0  0  0
  -22.4320  -13.0620   22.0890 N   0  0  0  0  0  0  0  0  0  0  0  0
  -22.6930  -14.8020   20.7180 O   0  0  0  0  0  0  0  0  0  0  0  0
  -22.8050  -12.2210   22.5020 H   0  0  0  0  0  0  0  0  0  0  0  0
  -21.5110  -13.3750   22.3600 H   0  0  0  0  0  0  0  0  0  0  0  0
  -25.7430  -15.4140   20.3430 N   0  0  0  0  0  0  0  0  0  0  0  0
  -24.9970  -16.0790   20.5160 H   0  0  0  0  0  0  0  0  0  0  0  0
  -26.5950  -15.8490   20.0120 H   0  0  0  0  0  0  0  0  0  0  0  0
  -28.3990  -25.4040   20.1850 O   0  0  0  0  0  0  0  0  0  0  0  0
  -24.7600  -31.7870   23.2140 C   0  0  0  0  0  0  0  0  0  0  0  0
  -27.4020  -26.6610   20.1810 C   0  0  0  0  0  0  0  0  0  0  0  0
  -23.6300  -30.4100   21.5210 C   0  0  0  0  0  3  0  0  0  0  0  0
  -25.1280  -28.7760   20.1150 C   0  0  0  0  0  0  0  0  0  0  0  0
  -26.2150  -30.5330   21.4810 C   0  0  0  0  0  2  0  0  0  0  0  0
  -26.3060  -29.0970   20.7970 C   0  0  0  0  0  0  0  0  0  0  0  0
  -27.4160  -28.0720   20.7960 C   0  0  0  0  0  3  0  0  0  0  0  0
  -26.1880  -26.5980   19.4370 C   0  0  0  0  0  3  0  0  0  0  0  0
  -25.1170  -27.5550   19.4120 C   0  0  0  0  0  3  0  0  0  0  0  0
  -23.9160  -29.7330   20.1470 C   0  0  0  0  0  2  0  0  0  0  0  0
  -24.8920  -30.9480   22.1240 N   0  0  0  0  0  0  0  0  0  0  0  0
  -23.6490  -32.0700   23.6990 O   0  0  0  0  0  0  0  0  0  0  0  0
  -22.8900  -29.4160   22.4590 C   0  0  0  0  0  0  0  0  0  0  0  0
  -21.5580  -29.2680   22.3120 N   0  0  0  0  0  0  0  0  0  0  0  0
  -23.5290  -28.7740   23.2960 O   0  0  0  0  0  0  0  0  0  0  0  0
  -21.0900  -29.8360   21.6200 H   0  0  0  0  0  0  0  0  0  0  0  0
  -18.1540  -28.0820   22.8060 C   0  0  0  0  0  0  0  0  0  0  0  0
  -20.7220  -28.3080   23.0460 C   0  0  0  0  0  3  0  0  0  0  0  0
  -20.7950  -26.9030   22.4030 C   0  0  0  0  0  2  0  0  0  0  0  0
  -19.6790  -26.6460   21.3860 C   0  0  0  0  0  2  0  0  0  0  0  0
  -18.3070  -26.7710   22.0530 C   0  0  0  0  0  2  0  0  0  0  0  0
  -19.2870  -28.8120   23.2560 C   0  0  0  0  0  0  0  0  0  0  0  0
  -19.0850  -30.0380   23.9270 C   0  0  0  0  0  3  0  0  0  0  0  0
  -17.7870  -30.5360   24.1440 C   0  0  0  0  0  3  0  0  0  0  0  0
  -16.6700  -29.8050   23.7050 C   0  0  0  0  0  3  0  0  0  0  0  0
  -16.8550  -28.5780   23.0420 C   0  0  0  0  0  3  0  0  0  0  0  0
  -25.9930  -32.4450   23.9030 C   0  0  0  0  0  3  0  0  0  0  0  0
  -25.6630  -33.8540   24.2080 N   0  0  0  0  0  0  0  0  0  0  0  0
  -26.0060  -34.9100   23.4570 C   0  0  0  0  0  0  0  0  0  0  0  0
  -26.6870  -34.8020   22.4350 O   0  0  0  0  0  0  0  0  0  0  0  0
  -25.0570  -34.0090   24.9990 H   0  0  0  0  0  0  0  0  0  0  0  0
  -24.2680  -36.7050   23.1160 C   0  0  0  0  0  1  0  0  0  0  0  0
  -25.5230  -36.3070   23.9090 C   0  0  0  0  0  3  0  0  0  0  0  0
  -27.6560  -37.2280   24.7130 C   0  0  0  0  0  1  0  0  0  0  0  0
  -26.5510  -37.3640   23.7680 N   0  0  0  0  0  0  0  0  0  0  0  0
  -26.1390  -38.2850   23.8910 H   0  0  0  0  0  0  0  0  0  0  0  0
  -26.4250  -31.7070   25.2330 C   0  0  1  0  0  0  0  0  0  0  0  0
  -25.2660  -31.5000   26.2370 C   0  0  0  0  0  1  0  0  0  0  0  0
  -27.0250  -30.3160   24.9290 C   0  0  0  0  0  1  0  0  0  0  0  0
  -27.5360  -32.5140   25.9440 C   0  0  0  0  0  1  0  0  0  0  0  0
  2 15  1  0
  2  1  1  0
  3  6  1  0
  3  2  2  0
  4  1  2  0
  4 47  1  0
  5  3  1  0
  6  4  1  0
  8 13  1  0
  9 10  1  0
  9  8  1  0
 11 10  1  0
 11 22  1  0
 11 12  1  0
 13  7  1  0
 13 12  1  0
 14  7  2  0
 15 16  1  0
 16  7  1  0
 17 15  2  0
 18 16  1  0
 19 20  2  0
 20 39  1  0
 21 20  1  0
 21 24  1  0
 22 23  1  0
 22 19  1  0
 23 21  2  0
 24 25  1  0
 25 26  2  0
 27 30  1  0
 27 26  1  0
 28 27  2  0
 29 28  1  0
 29 24  2  0
 30 31  1  0
 31 36  2  0
 31 32  1  0
 32 33  2  0
 33 34  1  0
 34 38  1  0
 35 34  2  0
 36 35  1  0
 37 36  1  0
 39 40  1  0
 40 43  1  0
 40 42  1  0
 41 39  2  0
 44 19  1  0
 44 45  1  0
 46 44  1  0
 48 59  2  0
 49 47  1  0
 49 54  1  0
 50 58  1  0
 50 60  1  0
 51 57  1  0
 51 53  1  0
 52 58  1  0
 53 52  1  0
 54 53  2  0
 55 49  2  0
 56 55  1  0
 56 51  2  0
 57 50  1  0
 58 48  1  0
 60 62  2  0
 61 60  1  0
 63 61  1  0
 64 73  2  0
 64 69  1  0
 65 61  1  0
 65 69  1  0
 66 65  1  0
 67 68  1  0
 67 66  1  0
 68 64  1  0
 69 70  2  0
 70 71  1  0
 72 71  2  0
 73 72  1  0
 74 48  1  0
 74 75  1  0
 74 84  1  0
 75 78  1  0
 76 80  1  0
 76 75  1  0
 77 76  2  0
 80 79  1  0
 82 83  1  0
 82 80  1  0
 82 81  1  0
 84 87  1  1
 84 85  1  0
 86 84  1  0
M  ISO  4   4 101   7 100  16 100  47 101
M  END
>  <TORSDO>  (68) 
F 16

>  <SCORE>  (68) 
-15.344

>  <name>  (68) 
67

>  <ligand_id>  (68) 
67

>  <original_smiles>  (68) 
[H]c1c([H])c([H])c2c(c1[H])C([H])([H])C([H])([H])C([H])([H])C2([H])N([H])C(=O)C1([H])N(C(=O)C([H])(N([H])C(=O)C([H])(N([H])C([H])([H])[H])C([H])([H])[H])C(C([H])([H])[H])(C([H])([H])[H])C([H])([H])[H])C([H])([H])c2c([H])c(Oc3sc(C([H])([H])[H])c(C(=O)N([H])C(=O)N4C([H])([H])C([H])([H])C([H])([H])C([H])(n5nc(-c6c([H])c([H])c(Oc7c([H])c([H])c(F)c([H])c7F)c([H])c6[H])c(C(=O)N([H])[H])c5N([H])[H])C4([H])[H])c3[H])c([H])c([H])c2C1([H])[H]

>  <smiles>  (68) 
[H]c1c([H])c([H])c2c(c1[H])C([H])([H])C([H])([H])C([H])([H])C2([H])N([H])C(=O)C1([H])N(C(=O)C([H])(N([H])C(=O)C([H])(N([H])C([H])([H])[H])C([H])([H])[H])C(C([H])([H])[H])(C([H])([H])[H])C([H])([H])[H])C([H])([H])c2c([H])c(Oc3sc(C([H])([H])[H])c(C(=O)N([H])C(=O)N4C([H])([H])C([H])([H])C([H])([H])C([H])(n5nc(-c6c([H])c([H])c(Oc7c([H])c([H])c(F)c([H])c7F)c([H])c6[H])c(C(=O)N([H])[H])c5N([H])[H])C4([H])[H])c3[H])c([H])c([H])c2C1([H])[H]

$$$$
68:0:0
     RDKit          3D

 92101  0  0  1  0  0  0  0  0999 V2000
  -29.4110  -18.1400   19.1400 C   0  0  0  0  0  3  0  0  0  0  0  0
  -30.2550  -18.3350   21.1970 C   0  0  0  0  0  3  0  0  0  0  0  0
  -30.0120  -17.2840   20.1990 C   0  0  0  0  0  0  0  0  0  0  0  0
  -29.3590  -20.6940   20.1220 C   0  0  0  0  0  0  0  0  0  0  0  0
  -29.1130  -19.6410   19.0950 C   0  0  0  0  0  0  0  0  0  0  0  0
  -29.9610  -19.8200   21.1780 C   0  0  0  0  0  0  0  0  0  0  0  0
  -31.3100  -22.7070   21.8830 C   0  0  0  0  0  2  0  0  0  0  0  0
  -29.8770  -23.0650   21.4230 C   0  0  0  0  0  2  0  0  0  0  0  0
  -31.6350  -21.2180   21.9780 C   0  0  0  0  0  2  0  0  0  0  0  0
  -29.3470  -22.5550   20.0460 C   0  0  1  0  0  0  0  0  0  0  0  0
  -28.5390  -20.1390   17.7820 C   0  0  0  0  0  1  0  0  0  0  0  0
  -30.4050  -22.8400   18.9630 C   0  0  0  0  0  1  0  0  0  0  0  0
  -30.4480  -20.4540   22.3190 N   0  0  0  0  0  0  0  0  0  0  0  0
  -29.7510  -21.0750   22.7200 H   0  0  0  0  0  0  0  0  0  0  0  0
  -30.6420  -15.6530   20.1430 C   0  0  0  0  0  0  0  0  0  0  0  0
  -30.6680  -13.1180   19.3920 C   0  0  0  0  0  2  0  0  0  0  0  0
  -29.7740  -12.7610   18.1740 C   0  0  0  0  0  2  0  0  0  0  0  0
  -28.3410  -12.4440   18.6270 C   0  0  0  0  0  2  0  0  0  0  0  0
  -27.8450  -13.4570   19.6850 C   0  0  0  0  0  3  0  0  0  0  0  0
  -28.8760  -13.7640   20.7920 C   0  0  0  0  0  2  0  0  0  0  0  0
  -30.0800  -14.3150   20.1370 N   0  0  0  0  0  0  0  0  0  0  0  0
  -31.8660  -15.5480   19.9430 O   0  0  0  0  0  0  0  0  0  0  0  0
  -25.4960  -13.9930   20.4920 C   0  0  0  0  0  0  0  0  0  0  0  0
  -24.4380  -13.2120   20.8630 C   0  0  0  0  0  0  0  0  0  0  0  0
  -24.9040  -11.8610   20.8110 C   0  0  0  0  0  0  0  0  0  0  0  0
  -26.5330  -13.1210   20.2190 N   0  0  0  0  0  0  0  0  0  0  0  0
  -26.1930  -11.8310   20.4820 N   0  0  0  0  0  0  0  0  0  0  0  0
  -24.1750  -10.5990   20.9950 C   0  0  0  0  0  0  0  0  0  0  0  0
  -24.5830   -9.6380   21.9450 C   0  0  0  0  0  3  0  0  0  0  0  0
  -23.8500   -8.4440   22.1200 C   0  0  0  0  0  3  0  0  0  0  0  0
  -22.6920   -8.2030   21.3420 C   0  0  0  0  0  0  0  0  0  0  0  0
  -22.3020   -9.1530   20.3810 C   0  0  0  0  0  3  0  0  0  0  0  0
  -23.0360  -10.3370   20.2060 C   0  0  0  0  0  3  0  0  0  0  0  0
  -21.9320   -7.0610   21.4240 O   0  0  0  0  0  0  0  0  0  0  0  0
  -21.8230   -6.3490   22.5920 C   0  0  0  0  0  0  0  0  0  0  0  0
  -21.3170   -6.9320   23.7740 C   0  0  0  0  0  3  0  0  0  0  0  0
  -21.1580   -6.1470   24.9340 C   0  0  0  0  0  3  0  0  0  0  0  0
  -21.4940   -4.7800   24.9110 C   0  0  0  0  0  0  0  0  0  0  0  0
  -21.9910   -4.1970   23.7330 C   0  0  0  0  0  3  0  0  0  0  0  0
  -22.1530   -4.9800   22.5760 C   0  0  0  0  0  0  0  0  0  0  0  0
  -22.6140   -4.4070   21.4380 F   0  0  0  0  0  0  0  0  0  0  0  0
  -21.3340   -4.0240   26.0220 F   0  0  0  0  0  0  0  0  0  0  0  0
  -23.0460  -13.6910   21.1470 C   0  0  0  0  0  0  0  0  0  0  0  0
  -22.3250  -12.9970   22.0210 N   0  0  0  0  0  0  0  0  0  0  0  0
  -22.6060  -14.7170   20.6310 O   0  0  0  0  0  0  0  0  0  0  0  0
  -22.6960  -12.1680   22.4620 H   0  0  0  0  0  0  0  0  0  0  0  0
  -21.3910  -13.3010   22.2540 H   0  0  0  0  0  0  0  0  0  0  0  0
  -25.6580  -15.3660   20.3320 N   0  0  0  0  0  0  0  0  0  0  0  0
  -24.8960  -16.0190   20.4750 H   0  0  0  0  0  0  0  0  0  0  0  0
  -26.5100  -15.8150   20.0180 H   0  0  0  0  0  0  0  0  0  0  0  0
  -28.1910  -24.0190   19.7430 C   0  0  0  0  0  2  0  0  0  0  0  0
  -28.3160  -25.7350   19.8800 O   0  0  0  0  0  0  0  0  0  0  0  0
  -24.6490  -31.7090   23.0240 C   0  0  0  0  0  0  0  0  0  0  0  0
  -27.2960  -26.8760   19.8500 C   0  0  0  0  0  0  0  0  0  0  0  0
  -23.4870  -30.3400   21.3430 C   0  0  0  0  0  3  0  0  0  0  0  0
  -24.9680  -28.7940   19.8660 C   0  0  0  0  0  0  0  0  0  0  0  0
  -26.0550  -30.5770   21.2100 C   0  0  0  0  0  2  0  0  0  0  0  0
  -26.1540  -29.1790   20.5040 C   0  0  0  0  0  0  0  0  0  0  0  0
  -27.3050  -28.2460   20.4670 C   0  0  0  0  0  3  0  0  0  0  0  0
  -26.0740  -26.6800   19.1640 C   0  0  0  0  0  3  0  0  0  0  0  0
  -24.9620  -27.5700   19.1740 C   0  0  0  0  0  3  0  0  0  0  0  0
  -23.7340  -29.7020   19.9460 C   0  0  0  0  0  2  0  0  0  0  0  0
  -24.7530  -30.9050   21.9130 N   0  0  0  0  0  0  0  0  0  0  0  0
  -23.5520  -31.9600   23.5510 O   0  0  0  0  0  0  0  0  0  0  0  0
  -22.8070  -29.3070   22.2800 C   0  0  0  0  0  0  0  0  0  0  0  0
  -21.4780  -29.1260   22.1600 N   0  0  0  0  0  0  0  0  0  0  0  0
  -23.4860  -28.6660   23.0870 O   0  0  0  0  0  0  0  0  0  0  0  0
  -20.9790  -29.6960   21.4890 H   0  0  0  0  0  0  0  0  0  0  0  0
  -18.1190  -27.8450   22.6700 C   0  0  0  0  0  0  0  0  0  0  0  0
  -20.6780  -28.1450   22.9030 C   0  0  0  0  0  3  0  0  0  0  0  0
  -20.7920  -26.7400   22.2670 C   0  0  0  0  0  2  0  0  0  0  0  0
  -19.6800  -26.4430   21.2560 C   0  0  0  0  0  2  0  0  0  0  0  0
  -18.3060  -26.5320   21.9270 C   0  0  0  0  0  2  0  0  0  0  0  0
  -19.2310  -28.6100   23.1130 C   0  0  0  0  0  0  0  0  0  0  0  0
  -18.9970  -29.8360   23.7730 C   0  0  0  0  0  3  0  0  0  0  0  0
  -17.6840  -30.2990   23.9890 C   0  0  0  0  0  3  0  0  0  0  0  0
  -16.5890  -29.5330   23.5570 C   0  0  0  0  0  3  0  0  0  0  0  0
  -16.8060  -28.3070   22.9040 C   0  0  0  0  0  3  0  0  0  0  0  0
  -25.9010  -32.3650   23.6810 C   0  0  0  0  0  3  0  0  0  0  0  0
  -25.5490  -33.7480   24.0590 N   0  0  0  0  0  0  0  0  0  0  0  0
  -25.8520  -34.8430   23.3480 C   0  0  0  0  0  0  0  0  0  0  0  0
  -26.5150  -34.7960   22.3090 O   0  0  0  0  0  0  0  0  0  0  0  0
  -24.9550  -33.8540   24.8680 H   0  0  0  0  0  0  0  0  0  0  0  0
  -24.0770  -36.6130   23.0950 C   0  0  0  0  0  1  0  0  0  0  0  0
  -25.3410  -36.2030   23.8680 C   0  0  0  0  0  3  0  0  0  0  0  0
  -27.4640  -37.1170   24.7020 C   0  0  0  0  0  1  0  0  0  0  0  0
  -26.3470  -37.2850   23.7770 N   0  0  0  0  0  0  0  0  0  0  0  0
  -25.9190  -38.1900   23.9560 H   0  0  0  0  0  0  0  0  0  0  0  0
  -26.4190  -31.5770   24.9490 C   0  0  1  0  0  0  0  0  0  0  0  0
  -25.3200  -31.3000   26.0030 C   0  0  0  0  0  1  0  0  0  0  0  0
  -27.0310  -30.2170   24.5460 C   0  0  0  0  0  1  0  0  0  0  0  0
  -27.5490  -32.3790   25.6380 C   0  0  0  0  0  1  0  0  0  0  0  0
  1  3  1  0
  3  2  2  0
  4  6  2  0
  5  1  2  0
  5  4  1  0
  6  2  1  0
  6 13  1  0
  7  9  1  0
  8  7  1  0
  9 13  1  0
 10 12  1  6
 10  4  1  0
 10  8  1  0
 11  5  1  0
 13 14  1  0
 15  3  1  0
 16 21  1  0
 17 18  1  0
 17 16  1  0
 19 18  1  0
 19 26  1  0
 19 20  1  0
 21 15  1  0
 21 20  1  0
 22 15  2  0
 23 24  2  0
 24 43  1  0
 25 24  1  0
 25 28  1  0
 26 27  1  0
 26 23  1  0
 27 25  2  0
 28 29  1  0
 29 30  2  0
 31 34  1  0
 31 30  1  0
 32 31  2  0
 33 32  1  0
 33 28  2  0
 34 35  1  0
 35 36  1  0
 36 37  2  0
 38 37  1  0
 38 42  1  0
 39 38  2  0
 40 35  2  0
 40 39  1  0
 41 40  1  0
 43 44  1  0
 44 47  1  0
 44 46  1  0
 45 43  2  0
 48 49  1  0
 48 23  1  0
 50 48  1  0
 51 52  1  0
 51 10  1  0
 53 64  2  0
 54 52  1  0
 54 59  1  0
 55 63  1  0
 55 65  1  0
 56 62  1  0
 56 58  1  0
 57 63  1  0
 58 57  1  0
 59 58  2  0
 60 61  1  0
 60 54  2  0
 61 56  2  0
 62 55  1  0
 63 53  1  0
 65 67  2  0
 66 65  1  0
 68 66  1  0
 69 78  2  0
 69 74  1  0
 70 66  1  0
 70 74  1  0
 71 70  1  0
 72 73  1  0
 72 71  1  0
 73 69  1  0
 74 75  2  0
 75 76  1  0
 77 76  2  0
 78 77  1  0
 79 53  1  0
 79 80  1  0
 79 89  1  0
 80 83  1  0
 81 85  1  0
 81 80  1  0
 82 81  2  0
 85 84  1  0
 87 85  1  0
 87 88  1  0
 87 86  1  0
 89 92  1  1
 89 90  1  0
 91 89  1  0
M  ISO  4   3 100  15 100  51 101  52 101
M  END
>  <TORSDO>  (69) 
F 17

>  <SCORE>  (69) 
-16.505

>  <name>  (69) 
68

>  <ligand_id>  (69) 
68

>  <original_smiles>  (69) 
[H]c1c([H])c([H])c2c(c1[H])C([H])([H])C([H])([H])C([H])([H])C2([H])N([H])C(=O)C1([H])N(C(=O)C([H])(N([H])C(=O)C([H])(N([H])C([H])([H])[H])C([H])([H])[H])C(C([H])([H])[H])(C([H])([H])[H])C([H])([H])[H])C([H])([H])c2c([H])c(OC([H])([H])C3(C([H])([H])[H])c4c(c([H])c(C(=O)N5C([H])([H])C([H])([H])C([H])([H])C([H])(n6nc(-c7c([H])c([H])c(Oc8c([H])c([H])c(F)c([H])c8F)c([H])c7[H])c(C(=O)N([H])[H])c6N([H])[H])C5([H])[H])c([H])c4C([H])([H])[H])N([H])C([H])([H])C([H])([H])C3([H])[H])c([H])c([H])c2C1([H])[H]

>  <smiles>  (69) 
[H]c1c([H])c([H])c2c(c1[H])C([H])([H])C([H])([H])C([H])([H])C2([H])N([H])C(=O)C1([H])N(C(=O)C([H])(N([H])C(=O)C([H])(N([H])C([H])([H])[H])C([H])([H])[H])C(C([H])([H])[H])(C([H])([H])[H])C([H])([H])[H])C([H])([H])c2c([H])c(OC([H])([H])C3(C([H])([H])[H])c4c(c([H])c(C(=O)N5C([H])([H])C([H])([H])C([H])([H])C([H])(n6nc(-c7c([H])c([H])c(Oc8c([H])c([H])c(F)c([H])c8F)c([H])c7[H])c(C(=O)N([H])[H])c6N([H])[H])C5([H])[H])c([H])c4C([H])([H])[H])N([H])C([H])([H])C([H])([H])C3([H])[H])c([H])c([H])c2C1([H])[H]

$$$$
69:0:0
     RDKit          3D

 90 98  0  0  1  0  0  0  0  0999 V2000
  -27.4390  -21.6140   20.8680 C   0  0  0  0  0  3  0  0  0  0  0  0
  -26.5920  -22.6950   21.2060 C   0  0  0  0  0  3  0  0  0  0  0  0
  -28.9840  -23.3000   20.0840 C   0  0  0  0  0  3  0  0  0  0  0  0
  -28.7270  -21.7940   20.3330 C   0  0  0  0  0  0  0  0  0  0  0  0
  -26.9040  -24.0690   21.0230 C   0  0  0  0  0  0  0  0  0  0  0  0
  -28.0850  -24.5300   20.3640 C   0  0  0  0  0  0  0  0  0  0  0  0
  -26.0190  -24.9430   21.5810 O   0  0  0  0  0  0  0  0  0  0  0  0
  -25.3240  -24.5150   22.0660 H   0  0  0  0  0  0  0  0  0  0  0  0
  -28.2840  -26.0530   20.1720 O   0  0  0  0  0  0  0  0  0  0  0  0
  -24.6730  -31.9170   23.2960 C   0  0  0  0  0  0  0  0  0  0  0  0
  -27.2900  -27.1720   20.1410 C   0  0  0  0  0  0  0  0  0  0  0  0
  -23.5090  -30.5770   21.5900 C   0  0  0  0  0  3  0  0  0  0  0  0
  -24.9890  -29.0470   20.1180 C   0  0  0  0  0  0  0  0  0  0  0  0
  -26.0750  -30.8070   21.4920 C   0  0  0  0  0  2  0  0  0  0  0  0
  -26.1600  -29.4240   20.7880 C   0  0  0  0  0  0  0  0  0  0  0  0
  -27.3020  -28.5030   20.7890 C   0  0  0  0  0  3  0  0  0  0  0  0
  -26.1130  -26.9800   19.3800 C   0  0  0  0  0  3  0  0  0  0  0  0
  -24.9920  -27.8460   19.3930 C   0  0  0  0  0  3  0  0  0  0  0  0
  -23.7610  -29.9530   20.1890 C   0  0  0  0  0  2  0  0  0  0  0  0
  -24.7720  -31.1270   22.1800 N   0  0  0  0  0  0  0  0  0  0  0  0
  -23.5750  -32.1800   23.8130 O   0  0  0  0  0  0  0  0  0  0  0  0
  -22.8110  -29.5390   22.5080 C   0  0  0  0  0  0  0  0  0  0  0  0
  -21.4850  -29.3670   22.3580 N   0  0  0  0  0  0  0  0  0  0  0  0
  -23.4710  -28.8910   23.3240 O   0  0  0  0  0  0  0  0  0  0  0  0
  -21.0060  -29.9420   21.6790 H   0  0  0  0  0  0  0  0  0  0  0  0
  -18.0980  -28.1470   22.8150 C   0  0  0  0  0  0  0  0  0  0  0  0
  -20.6590  -28.3950   23.0840 C   0  0  0  0  0  3  0  0  0  0  0  0
  -20.7570  -26.9930   22.4380 C   0  0  0  0  0  2  0  0  0  0  0  0
  -19.6510  -26.7240   21.4120 C   0  0  0  0  0  2  0  0  0  0  0  0
  -18.2710  -26.8360   22.0670 C   0  0  0  0  0  2  0  0  0  0  0  0
  -19.2190  -28.8870   23.2790 C   0  0  0  0  0  0  0  0  0  0  0  0
  -19.0020  -30.1140   23.9420 C   0  0  0  0  0  3  0  0  0  0  0  0
  -17.6970  -30.6030   24.1420 C   0  0  0  0  0  3  0  0  0  0  0  0
  -16.5910  -29.8610   23.6920 C   0  0  0  0  0  3  0  0  0  0  0  0
  -16.7920  -28.6340   23.0350 C   0  0  0  0  0  3  0  0  0  0  0  0
  -25.9320  -32.5440   23.9680 C   0  0  0  0  0  3  0  0  0  0  0  0
  -26.3940  -31.7680   25.2630 C   0  0  1  0  0  0  0  0  0  0  0  0
  -25.2570  -31.5360   26.2870 C   0  0  0  0  0  1  0  0  0  0  0  0
  -26.9850  -30.3870   24.9020 C   0  0  0  0  0  1  0  0  0  0  0  0
  -27.5220  -32.5560   25.9710 C   0  0  0  0  0  1  0  0  0  0  0  0
  -25.6190  -33.9450   24.3010 N   0  0  0  0  0  0  0  0  0  0  0  0
  -25.9800  -35.0080   23.5700 C   0  0  0  0  0  0  0  0  0  0  0  0
  -26.6750  -34.9130   22.5550 O   0  0  0  0  0  0  0  0  0  0  0  0
  -25.0040  -34.0920   25.0870 H   0  0  0  0  0  0  0  0  0  0  0  0
  -24.2890  -36.8370   23.1920 C   0  0  0  0  0  1  0  0  0  0  0  0
  -25.4970  -36.3970   24.0360 C   0  0  0  0  0  3  0  0  0  0  0  0
  -27.6060  -37.2490   24.9630 C   0  0  0  0  0  1  0  0  0  0  0  0
  -26.5470  -37.4370   23.9760 N   0  0  0  0  0  0  0  0  0  0  0  0
  -26.1470  -38.3620   24.1130 H   0  0  0  0  0  0  0  0  0  0  0  0
  -29.7100  -20.3510   20.3290 C   0  0  0  0  0  2  0  0  0  0  0  0
  -30.4000  -18.6060   18.5000 C   0  0  0  0  0  1  0  0  0  0  0  0
  -28.0730  -18.4900   19.3360 C   0  0  0  0  0  1  0  0  0  0  0  0
  -29.5410  -18.6360   19.7770 C   0  0  2  0  0  0  0  0  0  0  0  0
  -29.9390  -17.0670   20.5760 C   0  0  0  0  0  2  0  0  0  0  0  0
  -30.5880  -15.5050   20.0890 C   0  0  0  0  0  0  0  0  0  0  0  0
  -30.5400  -13.0480   19.2420 C   0  0  0  0  0  2  0  0  0  0  0  0
  -29.5930  -12.8600   18.0290 C   0  0  0  0  0  2  0  0  0  0  0  0
  -28.1570  -12.5860   18.5030 C   0  0  0  0  0  2  0  0  0  0  0  0
  -27.7350  -13.5500   19.6400 C   0  0  0  0  0  3  0  0  0  0  0  0
  -28.8080  -13.7020   20.7400 C   0  0  0  0  0  2  0  0  0  0  0  0
  -30.0370  -14.1890   20.0950 N   0  0  0  0  0  0  0  0  0  0  0  0
  -31.7600  -15.4930   19.6860 O   0  0  0  0  0  0  0  0  0  0  0  0
  -25.3960  -14.0960   20.4910 C   0  0  0  0  0  0  0  0  0  0  0  0
  -24.3420  -13.3150   20.8730 C   0  0  0  0  0  0  0  0  0  0  0  0
  -24.7980  -11.9640   20.7870 C   0  0  0  0  0  0  0  0  0  0  0  0
  -26.4220  -13.2230   20.1850 N   0  0  0  0  0  0  0  0  0  0  0  0
  -26.0780  -11.9320   20.4300 N   0  0  0  0  0  0  0  0  0  0  0  0
  -24.0690  -10.7010   20.9660 C   0  0  0  0  0  0  0  0  0  0  0  0
  -24.4920   -9.7290   21.9010 C   0  0  0  0  0  3  0  0  0  0  0  0
  -23.7590   -8.5330   22.0690 C   0  0  0  0  0  3  0  0  0  0  0  0
  -22.5930   -8.3000   21.3040 C   0  0  0  0  0  0  0  0  0  0  0  0
  -22.1910   -9.2600   20.3590 C   0  0  0  0  0  3  0  0  0  0  0  0
  -22.9220  -10.4470   20.1880 C   0  0  0  0  0  3  0  0  0  0  0  0
  -21.8340   -7.1570   21.3820 O   0  0  0  0  0  0  0  0  0  0  0  0
  -21.7330   -6.4370   22.5460 C   0  0  0  0  0  0  0  0  0  0  0  0
  -21.2020   -7.0000   23.7260 C   0  0  0  0  0  3  0  0  0  0  0  0
  -21.0530   -6.2050   24.8800 C   0  0  0  0  0  3  0  0  0  0  0  0
  -21.4240   -4.8470   24.8550 C   0  0  0  0  0  0  0  0  0  0  0  0
  -21.9480   -4.2840   23.6780 C   0  0  0  0  0  3  0  0  0  0  0  0
  -22.1000   -5.0760   22.5260 C   0  0  0  0  0  0  0  0  0  0  0  0
  -22.5850   -4.5220   21.3890 F   0  0  0  0  0  0  0  0  0  0  0  0
  -21.2750   -4.0810   25.9600 F   0  0  0  0  0  0  0  0  0  0  0  0
  -22.9580  -13.7920   21.2040 C   0  0  0  0  0  0  0  0  0  0  0  0
  -22.2570  -13.0780   22.0770 N   0  0  0  0  0  0  0  0  0  0  0  0
  -22.5100  -14.8330   20.7240 O   0  0  0  0  0  0  0  0  0  0  0  0
  -22.6340  -12.2360   22.4850 H   0  0  0  0  0  0  0  0  0  0  0  0
  -21.3290  -13.3800   22.3420 H   0  0  0  0  0  0  0  0  0  0  0  0
  -25.5620  -15.4710   20.3520 N   0  0  0  0  0  0  0  0  0  0  0  0
  -24.8110  -16.1290   20.5250 H   0  0  0  0  0  0  0  0  0  0  0  0
  -26.4130  -15.9160   20.0320 H   0  0  0  0  0  0  0  0  0  0  0  0
  1  2  1  0
  3  4  1  0
  3  6  2  0
  4  1  2  0
  5  2  2  0
  5  7  1  0
  6  5  1  0
  7  8  1  0
  9  6  1  0
 10 21  2  0
 11  9  1  0
 11 16  1  0
 12 20  1  0
 12 22  1  0
 13 19  1  0
 13 15  1  0
 14 20  1  0
 15 16  2  0
 15 14  1  0
 17 18  1  0
 17 11  2  0
 18 13  2  0
 19 12  1  0
 20 10  1  0
 22 24  2  0
 23 22  1  0
 25 23  1  0
 26 35  2  0
 26 31  1  0
 27 23  1  0
 27 31  1  0
 28 27  1  0
 29 30  1  0
 29 28  1  0
 30 26  1  0
 31 32  2  0
 32 33  1  0
 34 33  2  0
 35 34  1  0
 36 10  1  0
 36 41  1  0
 36 37  1  0
 37 40  1  1
 37 38  1  0
 39 37  1  0
 41 44  1  0
 42 46  1  0
 42 41  1  0
 43 42  2  0
 46 45  1  0
 48 46  1  0
 48 49  1  0
 48 47  1  0
 50  4  1  0
 53 51  1  6
 52 53  1  0
 53 50  1  0
 53 54  1  0
 55 61  1  0
 55 54  1  0
 56 61  1  0
 57 58  1  0
 57 56  1  0
 59 58  1  0
 59 66  1  0
 59 60  1  0
 61 60  1  0
 62 55  2  0
 63 64  2  0
 64 83  1  0
 65 64  1  0
 65 68  1  0
 66 67  1  0
 66 63  1  0
 67 65  2  0
 68 69  1  0
 69 70  2  0
 71 74  1  0
 71 70  1  0
 72 71  2  0
 73 72  1  0
 73 68  2  0
 74 75  1  0
 75 76  1  0
 76 77  2  0
 78 77  1  0
 78 82  1  0
 79 78  2  0
 80 75  2  0
 80 79  1  0
 81 80  1  0
 83 84  1  0
 84 87  1  0
 84 86  1  0
 85 83  2  0
 88 63  1  0
 88 89  1  0
 90 88  1  0
M  ISO  4   6 101   9 101  54 100  55 100
M  END
>  <TORSDO>  (70) 
F 20

>  <SCORE>  (70) 
-15.344

>  <name>  (70) 
69

>  <ligand_id>  (70) 
69

>  <original_smiles>  (70) 
[H]Oc1c([H])c([H])c(C([H])([H])C(C([H])([H])[H])(C([H])([H])[H])C([H])([H])C(=O)N2C([H])([H])C([H])([H])C([H])([H])C([H])(n3nc(-c4c([H])c([H])c(Oc5c([H])c([H])c(F)c([H])c5F)c([H])c4[H])c(C(=O)N([H])[H])c3N([H])[H])C2([H])[H])c([H])c1Oc1c([H])c([H])c2c(c1[H])C([H])([H])N(C(=O)C([H])(N([H])C(=O)C([H])(N([H])C([H])([H])[H])C([H])([H])[H])C(C([H])([H])[H])(C([H])([H])[H])C([H])([H])[H])C([H])(C(=O)N([H])C1([H])c3c([H])c([H])c([H])c([H])c3C([H])([H])C([H])([H])C1([H])[H])C2([H])[H]

>  <smiles>  (70) 
[H]Oc1c([H])c([H])c(C([H])([H])C(C([H])([H])[H])(C([H])([H])[H])C([H])([H])C(=O)N2C([H])([H])C([H])([H])C([H])([H])C([H])(n3nc(-c4c([H])c([H])c(Oc5c([H])c([H])c(F)c([H])c5F)c([H])c4[H])c(C(=O)N([H])[H])c3N([H])[H])C2([H])[H])c([H])c1Oc1c([H])c([H])c2c(c1[H])C([H])([H])N(C(=O)C([H])(N([H])C(=O)C([H])(N([H])C([H])([H])[H])C([H])([H])[H])C(C([H])([H])[H])(C([H])([H])[H])C([H])([H])[H])C([H])(C(=O)N([H])C1([H])c3c([H])c([H])c([H])c([H])c3C([H])([H])C([H])([H])C1([H])[H])C2([H])[H]

$$$$
70:0:0
     RDKit          3D

 88 96  0  0  1  0  0  0  0  0999 V2000
  -27.7060  -22.6290   18.0430 C   0  0  0  0  0  3  0  0  0  0  0  0
  -28.2140  -21.4650   18.6830 C   0  0  0  0  0  3  0  0  0  0  0  0
  -27.7090  -23.9410   18.6000 C   0  0  0  0  0  3  0  0  0  0  0  0
  -28.7340  -22.9390   20.5260 C   0  0  0  0  0  3  0  0  0  0  0  0
  -28.7760  -21.4720   19.9750 C   0  0  0  0  0  0  0  0  0  0  0  0
  -28.1920  -24.2620   19.8920 C   0  0  0  0  0  0  0  0  0  0  0  0
  -28.1980  -25.7760   20.2760 O   0  0  0  0  0  0  0  0  0  0  0  0
  -24.6440  -31.8450   23.1820 C   0  0  0  0  0  0  0  0  0  0  0  0
  -27.1860  -26.8940   20.1810 C   0  0  0  0  0  0  0  0  0  0  0  0
  -23.4460  -30.4370   21.5630 C   0  0  0  0  0  3  0  0  0  0  0  0
  -24.8870  -28.8150   20.1420 C   0  0  0  0  0  0  0  0  0  0  0  0
  -26.0190  -30.6270   21.4110 C   0  0  0  0  0  2  0  0  0  0  0  0
  -26.0830  -29.2100   20.7550 C   0  0  0  0  0  0  0  0  0  0  0  0
  -27.2190  -28.2730   20.7480 C   0  0  0  0  0  3  0  0  0  0  0  0
  -25.9460  -26.6610   19.5360 C   0  0  0  0  0  3  0  0  0  0  0  0
  -24.8490  -27.5620   19.5110 C   0  0  0  0  0  3  0  0  0  0  0  0
  -23.6720  -29.7460   20.1890 C   0  0  0  0  0  2  0  0  0  0  0  0
  -24.7260  -30.9980   22.1040 N   0  0  0  0  0  0  0  0  0  0  0  0
  -23.5550  -32.1390   23.7030 O   0  0  0  0  0  0  0  0  0  0  0  0
  -22.7520  -29.4490   22.5370 C   0  0  0  0  0  0  0  0  0  0  0  0
  -21.4200  -29.2890   22.4210 N   0  0  0  0  0  0  0  0  0  0  0  0
  -23.4210  -28.8240   23.3640 O   0  0  0  0  0  0  0  0  0  0  0  0
  -20.9350  -29.8400   21.7270 H   0  0  0  0  0  0  0  0  0  0  0  0
  -18.0360  -28.0870   22.9550 C   0  0  0  0  0  0  0  0  0  0  0  0
  -20.5980  -28.3600   23.2040 C   0  0  0  0  0  3  0  0  0  0  0  0
  -20.6980  -26.9230   22.6400 C   0  0  0  0  0  2  0  0  0  0  0  0
  -19.5920  -26.5900   21.6340 C   0  0  0  0  0  2  0  0  0  0  0  0
  -18.2130  -26.7340   22.2840 C   0  0  0  0  0  2  0  0  0  0  0  0
  -19.1550  -28.8550   23.3730 C   0  0  0  0  0  0  0  0  0  0  0  0
  -18.9330  -30.1190   23.9630 C   0  0  0  0  0  3  0  0  0  0  0  0
  -17.6260  -30.6110   24.1390 C   0  0  0  0  0  3  0  0  0  0  0  0
  -16.5220  -29.8400   23.7370 C   0  0  0  0  0  3  0  0  0  0  0  0
  -16.7290  -28.5800   23.1490 C   0  0  0  0  0  3  0  0  0  0  0  0
  -25.9140  -32.4950   23.8080 C   0  0  0  0  0  3  0  0  0  0  0  0
  -25.5920  -33.8940   24.1430 N   0  0  0  0  0  0  0  0  0  0  0  0
  -25.9190  -34.9590   23.3970 C   0  0  0  0  0  0  0  0  0  0  0  0
  -26.5840  -34.8670   22.3630 O   0  0  0  0  0  0  0  0  0  0  0  0
  -25.0030  -34.0400   24.9490 H   0  0  0  0  0  0  0  0  0  0  0  0
  -24.1870  -36.7580   23.0700 C   0  0  0  0  0  1  0  0  0  0  0  0
  -25.4320  -36.3440   23.8710 C   0  0  0  0  0  3  0  0  0  0  0  0
  -27.5670  -37.2290   24.7030 C   0  0  0  0  0  1  0  0  0  0  0  0
  -26.4620  -37.4010   23.7630 N   0  0  0  0  0  0  0  0  0  0  0  0
  -26.0550  -38.3190   23.9160 H   0  0  0  0  0  0  0  0  0  0  0  0
  -26.4260  -31.7390   25.0960 C   0  0  1  0  0  0  0  0  0  0  0  0
  -25.3280  -31.5160   26.1620 C   0  0  0  0  0  1  0  0  0  0  0  0
  -27.0110  -30.3560   24.7310 C   0  0  0  0  0  1  0  0  0  0  0  0
  -27.5740  -32.5410   25.7520 C   0  0  0  0  0  1  0  0  0  0  0  0
  -29.2400  -19.8780   20.6080 C   0  0  0  0  0  2  0  0  0  0  0  0
  -31.0590  -18.4470   19.1390 C   0  0  0  0  0  1  0  0  0  0  0  0
  -29.7160  -18.2670   19.8720 C   0  0  0  0  0  0  0  0  0  0  0  0
  -30.4030  -15.3550   20.2980 C   0  0  0  0  0  0  0  0  0  0  0  0
  -30.3950  -12.8700   19.5050 C   0  0  0  0  0  2  0  0  0  0  0  0
  -29.5120  -12.6430   18.2510 C   0  0  0  0  0  2  0  0  0  0  0  0
  -28.0560  -12.3640   18.6600 C   0  0  0  0  0  2  0  0  0  0  0  0
  -27.5730  -13.3500   19.7500 C   0  0  0  0  0  3  0  0  0  0  0  0
  -28.5910  -13.5430   20.8970 C   0  0  0  0  0  2  0  0  0  0  0  0
  -29.8390  -14.0410   20.2890 N   0  0  0  0  0  0  0  0  0  0  0  0
  -31.6160  -15.3320   20.0420 O   0  0  0  0  0  0  0  0  0  0  0  0
  -29.6530  -16.6480   20.3930 N   0  0  0  0  0  4  0  0  0  0  0  0
  -28.7150  -16.4410   20.7060 H   0  0  0  0  0  0  0  0  0  0  0  0
  -25.1910  -13.9120   20.4510 C   0  0  0  0  0  0  0  0  0  0  0  0
  -24.1230  -13.1390   20.8100 C   0  0  0  0  0  0  0  0  0  0  0  0
  -24.5910  -11.7880   20.8050 C   0  0  0  0  0  0  0  0  0  0  0  0
  -26.2380  -13.0340   20.2390 N   0  0  0  0  0  0  0  0  0  0  0  0
  -25.8870  -11.7520   20.5170 N   0  0  0  0  0  0  0  0  0  0  0  0
  -23.8610  -10.5280   20.9950 C   0  0  0  0  0  0  0  0  0  0  0  0
  -24.2740   -9.5680   21.9450 C   0  0  0  0  0  3  0  0  0  0  0  0
  -23.5420   -8.3740   22.1200 C   0  0  0  0  0  3  0  0  0  0  0  0
  -22.3790   -8.1320   21.3510 C   0  0  0  0  0  0  0  0  0  0  0  0
  -21.9850   -9.0820   20.3910 C   0  0  0  0  0  3  0  0  0  0  0  0
  -22.7180  -10.2680   20.2140 C   0  0  0  0  0  3  0  0  0  0  0  0
  -21.6180   -6.9900   21.4370 O   0  0  0  0  0  0  0  0  0  0  0  0
  -21.5510   -6.2570   22.5940 C   0  0  0  0  0  0  0  0  0  0  0  0
  -21.1170   -6.8230   23.8130 C   0  0  0  0  0  3  0  0  0  0  0  0
  -20.9960   -6.0150   24.9610 C   0  0  0  0  0  3  0  0  0  0  0  0
  -21.3020   -4.6430   24.8920 C   0  0  0  0  0  0  0  0  0  0  0  0
  -21.7290   -4.0750   23.6780 C   0  0  0  0  0  3  0  0  0  0  0  0
  -21.8520   -4.8810   22.5320 C   0  0  0  0  0  0  0  0  0  0  0  0
  -22.2430   -4.3260   21.3600 F   0  0  0  0  0  0  0  0  0  0  0  0
  -21.1790   -3.8640   25.9930 F   0  0  0  0  0  0  0  0  0  0  0  0
  -22.7210  -13.6150   21.0420 C   0  0  0  0  0  0  0  0  0  0  0  0
  -21.9730  -12.9330   21.9030 N   0  0  0  0  0  0  0  0  0  0  0  0
  -22.2990  -14.6370   20.4990 O   0  0  0  0  0  0  0  0  0  0  0  0
  -22.3230  -12.1080   22.3670 H   0  0  0  0  0  0  0  0  0  0  0  0
  -21.0300  -13.2420   22.1010 H   0  0  0  0  0  0  0  0  0  0  0  0
  -25.3600  -15.2800   20.2600 N   0  0  0  0  0  0  0  0  0  0  0  0
  -24.5920  -15.9390   20.3380 H   0  0  0  0  0  0  0  0  0  0  0  0
  -26.2140  -15.7080   19.9310 H   0  0  0  0  0  0  0  0  0  0  0  0
  1  3  2  0
  1  2  1  0
  2  5  2  0
  3  6  1  0
  5  4  1  0
  5 48  1  0
  6  7  1  0
  6  4  2  0
  8 19  2  0
  9  7  1  0
  9 14  1  0
 10 18  1  0
 10 20  1  0
 11 17  1  0
 11 13  1  0
 12 18  1  0
 13 12  1  0
 14 13  2  0
 15  9  2  0
 16 15  1  0
 16 11  2  0
 17 10  1  0
 18  8  1  0
 20 22  2  0
 21 20  1  0
 23 21  1  0
 24 33  2  0
 24 29  1  0
 25 21  1  0
 25 29  1  0
 26 25  1  0
 27 28  1  0
 27 26  1  0
 28 24  1  0
 29 30  2  0
 30 31  1  0
 32 31  2  0
 33 32  1  0
 34  8  1  0
 34 35  1  0
 34 44  1  0
 35 38  1  0
 36 40  1  0
 36 35  1  0
 37 36  2  0
 40 39  1  0
 42 40  1  0
 42 43  1  0
 42 41  1  0
 44 47  1  1
 44 45  1  0
 46 44  1  0
 49 50  1  0
 50 59  2  0
 50 48  1  0
 51 59  1  0
 52 57  1  0
 53 54  1  0
 53 52  1  0
 55 54  1  0
 55 64  1  0
 55 56  1  0
 57 51  1  0
 57 56  1  0
 58 51  2  0
 59 60  1  0
 61 62  2  0
 62 81  1  0
 63 62  1  0
 63 66  1  0
 64 61  1  0
 64 65  1  0
 65 63  2  0
 66 67  1  0
 67 68  2  0
 69 72  1  0
 69 68  1  0
 70 69  2  0
 71 70  1  0
 71 66  2  0
 72 73  1  0
 73 74  1  0
 74 75  2  0
 76 75  1  0
 76 80  1  0
 77 76  2  0
 78 73  2  0
 78 77  1  0
 79 78  1  0
 81 82  1  0
 82 85  1  0
 82 84  1  0
 83 81  2  0
 86 87  1  0
 86 61  1  0
 88 86  1  0
M  ISO  4   6 101   7 101  51 100  59 100
M  END
>  <TORSDO>  (71) 
F 18

>  <SCORE>  (71) 
-15.686

>  <name>  (71) 
70

>  <ligand_id>  (71) 
70

>  <original_smiles>  (71) 
[H]c1c([H])c([H])c2c(c1[H])C([H])([H])C([H])([H])C([H])([H])C2([H])N([H])C(=O)C1([H])N(C(=O)C([H])(N([H])C(=O)C([H])(N([H])C([H])([H])[H])C([H])([H])[H])C(C([H])([H])[H])(C([H])([H])[H])C([H])([H])[H])C([H])([H])c2c([H])c(Oc3c([H])c([H])c([H])c(C([H])([H])C([H])(N([H])C(=O)N4C([H])([H])C([H])([H])C([H])([H])C([H])(n5nc(-c6c([H])c([H])c(Oc7c([H])c([H])c(F)c([H])c7F)c([H])c6[H])c(C(=O)N([H])[H])c5N([H])[H])C4([H])[H])C([H])([H])[H])c3[H])c([H])c([H])c2C1([H])[H]

>  <smiles>  (71) 
[H]c1c([H])c([H])c2c(c1[H])C([H])([H])C([H])([H])C([H])([H])C2([H])N([H])C(=O)C1([H])N(C(=O)C([H])(N([H])C(=O)C([H])(N([H])C([H])([H])[H])C([H])([H])[H])C(C([H])([H])[H])(C([H])([H])[H])C([H])([H])[H])C([H])([H])c2c([H])c(Oc3c([H])c([H])c([H])c(C([H])([H])C([H])(N([H])C(=O)N4C([H])([H])C([H])([H])C([H])([H])C([H])(n5nc(-c6c([H])c([H])c(Oc7c([H])c([H])c(F)c([H])c7F)c([H])c6[H])c(C(=O)N([H])[H])c5N([H])[H])C4([H])[H])C([H])([H])[H])c3[H])c([H])c([H])c2C1([H])[H]

$$$$
71:0:0
     RDKit          3D

 87 92  0  0  1  0  0  0  0  0999 V2000
  -29.5070  -18.4620   21.6520 C   0  0  0  0  0  0  0  0  0  0  0  0
  -28.2010  -19.0560   21.1180 C   0  0  0  0  0  2  0  0  0  0  0  0
  -30.7890  -18.7670   20.8820 C   0  0  0  0  0  2  0  0  0  0  0  0
  -28.4050  -20.4600   20.5210 C   0  0  0  0  0  2  0  0  0  0  0  0
  -31.0480  -21.7460   19.0000 C   0  0  0  0  0  2  0  0  0  0  0  0
  -31.3430  -20.0410   18.6920 C   0  0  0  0  0  2  0  0  0  0  0  0
  -29.3300  -20.4980   19.2870 C   0  0  0  0  0  1  0  0  0  0  0  0
  -29.5740  -22.5580   18.9290 C   0  0  0  0  0  1  0  0  0  0  0  0
  -30.5070  -18.7550   19.3710 C   0  0  0  0  0  2  0  0  0  0  0  0
  -29.5210  -17.7530   22.6590 O   0  0  0  0  0  0  0  0  0  0  0  0
  -31.0120  -16.5920   19.1690 C   0  0  0  0  0  2  0  0  0  0  0  0
  -31.3030  -13.7700   18.5590 C   0  0  0  0  0  2  0  0  0  0  0  0
  -30.4170  -12.9050   17.5690 C   0  0  0  0  0  2  0  0  0  0  0  0
  -29.1560  -12.3660   18.2420 C   0  0  0  0  0  2  0  0  0  0  0  0
  -28.6120  -13.4470   19.1870 C   0  0  0  0  0  3  0  0  0  0  0  0
  -29.6690  -14.1920   20.0820 C   0  0  0  0  0  2  0  0  0  0  0  0
  -30.6110  -15.0530   19.2410 N   0  0  0  0  0  0  0  0  0  0  0  0
  -32.2130  -16.3160   18.8580 O   0  0  0  0  0  1  0  0  0  0  0  0
  -26.4560  -13.9110   20.4000 C   0  0  0  0  0  0  0  0  0  0  0  0
  -25.4320  -13.1360   20.8580 C   0  0  0  0  0  0  0  0  0  0  0  0
  -25.8120  -11.7810   20.6050 C   0  0  0  0  0  0  0  0  0  0  0  0
  -27.4020  -13.0440   19.8980 N   0  0  0  0  0  0  0  0  0  0  0  0
  -27.0350  -11.7400   20.0700 N   0  0  0  0  0  0  0  0  0  0  0  0
  -25.0400  -10.5390   20.7920 C   0  0  0  0  0  0  0  0  0  0  0  0
  -25.4190   -9.5610   21.7370 C   0  0  0  0  0  3  0  0  0  0  0  0
  -24.6410   -8.3950   21.9190 C   0  0  0  0  0  3  0  0  0  0  0  0
  -23.4650   -8.1990   21.1540 C   0  0  0  0  0  0  0  0  0  0  0  0
  -23.1020   -9.1650   20.2000 C   0  0  0  0  0  3  0  0  0  0  0  0
  -23.8810  -10.3200   20.0180 C   0  0  0  0  0  3  0  0  0  0  0  0
  -22.6630   -7.0850   21.2430 O   0  0  0  0  0  0  0  0  0  0  0  0
  -22.3260   -6.5320   22.4530 C   0  0  0  0  0  0  0  0  0  0  0  0
  -21.6540   -7.2730   23.4490 C   0  0  0  0  0  3  0  0  0  0  0  0
  -21.2640   -6.6470   24.6500 C   0  0  0  0  0  3  0  0  0  0  0  0
  -21.5370   -5.2820   24.8550 C   0  0  0  0  0  0  0  0  0  0  0  0
  -22.2020   -4.5410   23.8620 C   0  0  0  0  0  3  0  0  0  0  0  0
  -22.5920   -5.1630   22.6630 C   0  0  0  0  0  0  0  0  0  0  0  0
  -23.2130   -4.4380   21.7020 F   0  0  0  0  0  0  0  0  0  0  0  0
  -21.1580   -4.6790   26.0060 F   0  0  0  0  0  0  0  0  0  0  0  0
  -24.1300  -13.6440   21.4010 C   0  0  0  0  0  0  0  0  0  0  0  0
  -23.5210  -12.9090   22.3230 N   0  0  0  0  0  0  0  0  0  0  0  0
  -23.6730  -14.7300   21.0440 O   0  0  0  0  0  0  0  0  0  0  0  0
  -23.9110  -12.0300   22.6290 H   0  0  0  0  0  0  0  0  0  0  0  0
  -22.6540  -13.2290   22.7290 H   0  0  0  0  0  0  0  0  0  0  0  0
  -26.6550  -15.2880   20.3320 N   0  0  0  0  0  0  0  0  0  0  0  0
  -25.9430  -15.9470   20.6270 H   0  0  0  0  0  0  0  0  0  0  0  0
  -27.4470  -15.7300   19.8860 H   0  0  0  0  0  0  0  0  0  0  0  0
  -29.2980  -24.6260   19.2100 O   0  0  0  0  0  1  0  0  0  0  0  0
  -25.6420  -31.1990   22.8910 C   0  0  0  0  0  0  0  0  0  0  0  0
  -28.3450  -26.0850   19.3010 C   0  0  0  0  0  0  0  0  0  0  0  0
  -24.5370  -29.9650   21.0830 C   0  0  0  0  0  3  0  0  0  0  0  0
  -26.0560  -28.4240   19.5100 C   0  0  0  0  0  0  0  0  0  0  0  0
  -27.1360  -30.0130   21.0610 C   0  0  0  0  0  2  0  0  0  0  0  0
  -27.2450  -28.6110   20.2220 C   0  0  0  0  0  0  0  0  0  0  0  0
  -28.3330  -27.4950   20.0790 C   0  0  0  0  0  3  0  0  0  0  0  0
  -27.1100  -26.2770   18.5650 C   0  0  0  0  0  3  0  0  0  0  0  0
  -26.0640  -27.2940   18.6610 C   0  0  0  0  0  3  0  0  0  0  0  0
  -24.8420  -29.4000   19.6530 C   0  0  0  0  0  2  0  0  0  0  0  0
  -25.8020  -30.4360   21.7350 N   0  0  0  0  0  0  0  0  0  0  0  0
  -24.5230  -31.4280   23.3920 O   0  0  0  0  0  0  0  0  0  0  0  0
  -23.7840  -28.9060   21.9390 C   0  0  0  0  0  0  0  0  0  0  0  0
  -22.4530  -28.7490   21.7740 N   0  0  0  0  0  0  0  0  0  0  0  0
  -24.4230  -28.2150   22.7360 O   0  0  0  0  0  0  0  0  0  0  0  0
  -21.9770  -29.3560   21.1220 H   0  0  0  0  0  0  0  0  0  0  0  0
  -19.0750  -27.4270   22.1760 C   0  0  0  0  0  0  0  0  0  0  0  0
  -21.6400  -27.7030   22.4180 C   0  0  0  0  0  3  0  0  0  0  0  0
  -21.7430  -26.3690   21.6400 C   0  0  0  0  0  2  0  0  0  0  0  0
  -20.6260  -26.1850   20.6090 C   0  0  0  0  0  2  0  0  0  0  0  0
  -19.2560  -26.2040   21.2930 C   0  0  0  0  0  2  0  0  0  0  0  0
  -20.1930  -28.1400   22.6910 C   0  0  0  0  0  0  0  0  0  0  0  0
  -19.9630  -29.2820   23.4880 C   0  0  0  0  0  3  0  0  0  0  0  0
  -18.6520  -29.7160   23.7670 C   0  0  0  0  0  3  0  0  0  0  0  0
  -17.5520  -29.0010   23.2620 C   0  0  0  0  0  3  0  0  0  0  0  0
  -17.7650  -27.8560   22.4740 C   0  0  0  0  0  3  0  0  0  0  0  0
  -26.8480  -31.8320   23.6550 C   0  0  0  0  0  3  0  0  0  0  0  0
  -26.4330  -33.1400   24.2200 N   0  0  0  0  0  0  0  0  0  0  0  0
  -26.6940  -34.3450   23.6890 C   0  0  0  0  0  0  0  0  0  0  0  0
  -27.3500  -34.4790   22.6550 O   0  0  0  0  0  0  0  0  0  0  0  0
  -25.8410  -33.1030   25.0360 H   0  0  0  0  0  0  0  0  0  0  0  0
  -24.8540  -36.0740   23.7350 C   0  0  0  0  0  1  0  0  0  0  0  0
  -26.1500  -35.6000   24.4130 C   0  0  0  0  0  3  0  0  0  0  0  0
  -28.2530  -36.4760   25.3410 C   0  0  0  0  0  1  0  0  0  0  0  0
  -27.1140  -36.7240   24.4620 N   0  0  0  0  0  0  0  0  0  0  0  0
  -26.6560  -37.5780   24.7690 H   0  0  0  0  0  0  0  0  0  0  0  0
  -27.3820  -30.9160   24.8270 C   0  0  1  0  0  0  0  0  0  0  0  0
  -26.2840  -30.4680   25.8220 C   0  0  0  0  0  1  0  0  0  0  0  0
  -28.0520  -29.6400   24.2790 C   0  0  0  0  0  1  0  0  0  0  0  0
  -28.4730  -31.6680   25.6270 C   0  0  0  0  0  1  0  0  0  0  0  0
  1 10  2  0
  2  1  1  0
  3  1  1  0
  4  2  1  0
  6  5  1  0
  6  9  1  0
  7  4  1  0
  8  5  1  0
  9  3  1  0
 11 17  1  0
 12 17  1  0
 13 14  1  0
 13 12  1  0
 15 14  1  0
 15 22  1  0
 15 16  1  0
 17 16  1  0
 18 11  1  0
 19 20  2  0
 20 39  1  0
 21 24  1  0
 21 20  1  0
 22 23  1  0
 22 19  1  0
 23 21  2  0
 24 25  1  0
 25 26  2  0
 27 30  1  0
 27 26  1  0
 28 27  2  0
 29 28  1  0
 29 24  2  0
 30 31  1  0
 31 36  2  0
 31 32  1  0
 32 33  2  0
 33 34  1  0
 34 38  1  0
 35 34  2  0
 36 35  1  0
 37 36  1  0
 39 40  1  0
 40 42  1  0
 40 43  1  0
 41 39  2  0
 44 19  1  0
 44 45  1  0
 46 44  1  0
 47 49  1  0
 48 59  2  0
 49 54  1  0
 50 58  1  0
 50 60  1  0
 51 57  1  0
 51 53  1  0
 52 58  1  0
 53 52  1  0
 54 53  2  0
 55 56  1  0
 55 49  2  0
 56 51  2  0
 57 50  1  0
 58 48  1  0
 60 62  2  0
 61 60  1  0
 63 61  1  0
 64 73  2  0
 64 69  1  0
 65 61  1  0
 65 69  1  0
 66 65  1  0
 67 68  1  0
 67 66  1  0
 68 64  1  0
 69 70  2  0
 70 71  1  0
 72 71  2  0
 73 72  1  0
 74 48  1  0
 74 75  1  0
 74 84  1  0
 75 78  1  0
 76 75  1  0
 76 80  1  0
 77 76  2  0
 80 79  1  0
 80 82  1  0
 82 83  1  0
 82 81  1  0
 84 87  1  1
 84 85  1  0
 86 84  1  0
M  ISO  4   8 101   9 100  11 100  47 101
M  END
>  <TORSDO>  (72) 
F 16

>  <SCORE>  (72) 
-8.811

>  <name>  (72) 
71

>  <ligand_id>  (72) 
71

>  <original_smiles>  (72) 
[H]c1c([H])c([H])c2c(c1[H])C([H])([H])C([H])([H])C([H])([H])C2([H])N([H])C(=O)C1([H])N(C(=O)C([H])(N([H])C(=O)C([H])(N([H])C([H])([H])[H])C([H])([H])[H])C(C([H])([H])[H])(C([H])([H])[H])C([H])([H])[H])C([H])([H])c2c([H])c(OC3([H])C([H])([H])C([H])([H])C4(C(=O)N5C([H])([H])C([H])([H])C([H])([H])C([H])(n6nc(-c7c([H])c([H])c(Oc8c([H])c([H])c(F)c([H])c8F)c([H])c7[H])c(C(=O)N([H])[H])c6N([H])[H])C5([H])[H])C([H])([H])C(=O)C([H])([H])C([H])([H])C34[H])c([H])c([H])c2C1([H])[H]

>  <smiles>  (72) 
[H]c1c([H])c([H])c2c(c1[H])C([H])([H])C([H])([H])C([H])([H])C2([H])N([H])C(=O)C1([H])N(C(=O)C([H])(N([H])C(=O)C([H])(N([H])C([H])([H])[H])C([H])([H])[H])C(C([H])([H])[H])(C([H])([H])[H])C([H])([H])[H])C([H])([H])c2c([H])c(OC3([H])C([H])([H])C([H])([H])C4(C(=O)N5C([H])([H])C([H])([H])C([H])([H])C([H])(n6nc(-c7c([H])c([H])c(Oc8c([H])c([H])c(F)c([H])c8F)c([H])c7[H])c(C(=O)N([H])[H])c6N([H])[H])C5([H])[H])C([H])([H])C(=O)C([H])([H])C([H])([H])C34[H])c([H])c([H])c2C1([H])[H]

$$$$
72:0:0
     RDKit          3D

 89 98  0  0  1  0  0  0  0  0999 V2000
  -29.5240  -20.9620   21.9860 C   0  0  0  0  0  3  0  0  0  0  0  0
  -29.2590  -20.8620   19.3300 C   0  0  0  0  0  3  0  0  0  0  0  0
  -29.8040  -19.7170   21.3390 C   0  0  0  0  0  0  0  0  0  0  0  0
  -29.6290  -19.4340   19.9830 C   0  0  0  0  0  0  0  0  0  0  0  0
  -29.1040  -22.1800   21.3490 C   0  0  0  0  0  0  0  0  0  0  0  0
  -28.9620  -22.3310   19.9440 C   0  0  0  0  0  0  0  0  0  0  0  0
  -30.6210  -18.6290   21.9660 C   0  0  0  0  0  2  0  0  0  0  0  0
  -31.4200  -18.0400   20.7820 C   0  0  0  0  0  2  0  0  0  0  0  0
  -30.4360  -17.7900   19.5740 C   0  0  2  0  0  0  0  0  0  0  0  0
  -28.8520  -23.3980   22.2170 C   0  0  0  0  0  1  0  0  0  0  0  0
  -31.0160  -18.1230   18.1850 C   0  0  0  0  0  1  0  0  0  0  0  0
  -30.6850  -15.8810   19.6650 C   0  0  0  0  0  0  0  0  0  0  0  0
  -30.5900  -13.3140   18.9410 C   0  0  0  0  0  2  0  0  0  0  0  0
  -29.6280  -12.8750   17.8040 C   0  0  0  0  0  2  0  0  0  0  0  0
  -28.2500  -12.5480   18.3790 C   0  0  0  0  0  2  0  0  0  0  0  0
  -27.8180  -13.5970   19.4260 C   0  0  0  0  0  3  0  0  0  0  0  0
  -28.9130  -13.9850   20.4490 C   0  0  0  0  0  2  0  0  0  0  0  0
  -30.0490  -14.5570   19.6860 N   0  0  0  0  0  0  0  0  0  0  0  0
  -31.8840  -15.5810   19.4720 O   0  0  0  0  0  0  0  0  0  0  0  0
  -25.5500  -14.1370   20.4100 C   0  0  0  0  0  0  0  0  0  0  0  0
  -24.5050  -13.3570   20.8220 C   0  0  0  0  0  0  0  0  0  0  0  0
  -24.9420  -12.0040   20.6930 C   0  0  0  0  0  0  0  0  0  0  0  0
  -26.5500  -13.2580   20.0460 N   0  0  0  0  0  0  0  0  0  0  0  0
  -26.2070  -11.9630   20.2850 N   0  0  0  0  0  0  0  0  0  0  0  0
  -24.2020  -10.7460   20.8750 C   0  0  0  0  0  0  0  0  0  0  0  0
  -24.6110   -9.7760   21.8170 C   0  0  0  0  0  3  0  0  0  0  0  0
  -23.8670   -8.5890   21.9920 C   0  0  0  0  0  3  0  0  0  0  0  0
  -22.6980   -8.3630   21.2270 C   0  0  0  0  0  0  0  0  0  0  0  0
  -22.3090   -9.3200   20.2730 C   0  0  0  0  0  3  0  0  0  0  0  0
  -23.0540  -10.4990   20.0960 C   0  0  0  0  0  3  0  0  0  0  0  0
  -21.9270   -7.2290   21.3110 O   0  0  0  0  0  0  0  0  0  0  0  0
  -21.7630   -6.5570   22.4960 C   0  0  0  0  0  0  0  0  0  0  0  0
  -21.1640   -7.1650   23.6210 C   0  0  0  0  0  3  0  0  0  0  0  0
  -20.9520   -6.4170   24.7970 C   0  0  0  0  0  3  0  0  0  0  0  0
  -21.3300   -5.0620   24.8480 C   0  0  0  0  0  0  0  0  0  0  0  0
  -21.9200   -4.4530   23.7270 C   0  0  0  0  0  3  0  0  0  0  0  0
  -22.1340   -5.1980   22.5530 C   0  0  0  0  0  0  0  0  0  0  0  0
  -22.6850   -4.6010   21.4700 F   0  0  0  0  0  0  0  0  0  0  0  0
  -21.1200   -4.3410   25.9730 F   0  0  0  0  0  0  0  0  0  0  0  0
  -23.1440  -13.8490   21.2130 C   0  0  0  0  0  0  0  0  0  0  0  0
  -22.4770  -13.1350   22.1130 N   0  0  0  0  0  0  0  0  0  0  0  0
  -22.6870  -14.8970   20.7590 O   0  0  0  0  0  0  0  0  0  0  0  0
  -22.8620  -12.2820   22.4890 H   0  0  0  0  0  0  0  0  0  0  0  0
  -21.5700  -13.4450   22.4320 H   0  0  0  0  0  0  0  0  0  0  0  0
  -25.7360  -15.5080   20.2800 N   0  0  0  0  0  0  0  0  0  0  0  0
  -25.0150  -16.1880   20.4930 H   0  0  0  0  0  0  0  0  0  0  0  0
  -26.5860  -15.9310   19.9240 H   0  0  0  0  0  0  0  0  0  0  0  0
  -28.4100  -24.0260   19.3600 C   0  0  0  0  0  2  0  0  0  0  0  0
  -28.3840  -25.7060   19.9120 O   0  0  0  0  0  0  0  0  0  0  0  0
  -24.6340  -31.7510   23.0510 C   0  0  0  0  0  0  0  0  0  0  0  0
  -27.3770  -26.8940   19.8510 C   0  0  0  0  0  0  0  0  0  0  0  0
  -23.5040  -30.3480   21.3810 C   0  0  0  0  0  3  0  0  0  0  0  0
  -25.0180  -28.8250   19.8940 C   0  0  0  0  0  0  0  0  0  0  0  0
  -26.0710  -30.6160   21.2480 C   0  0  0  0  0  2  0  0  0  0  0  0
  -26.1990  -29.2100   20.5350 C   0  0  0  0  0  0  0  0  0  0  0  0
  -27.3580  -28.2700   20.4900 C   0  0  0  0  0  3  0  0  0  0  0  0
  -26.1550  -26.7270   19.1490 C   0  0  0  0  0  3  0  0  0  0  0  0
  -25.0320  -27.6120   19.1790 C   0  0  0  0  0  3  0  0  0  0  0  0
  -23.7700  -29.7220   19.9810 C   0  0  0  0  0  2  0  0  0  0  0  0
  -24.7600  -30.9360   21.9480 N   0  0  0  0  0  0  0  0  0  0  0  0
  -23.5320  -31.9820   23.5780 O   0  0  0  0  0  0  0  0  0  0  0  0
  -22.8470  -29.3050   22.3260 C   0  0  0  0  0  0  0  0  0  0  0  0
  -21.5220  -29.0920   22.2110 N   0  0  0  0  0  0  0  0  0  0  0  0
  -23.5410  -28.6890   23.1390 O   0  0  0  0  0  0  0  0  0  0  0  0
  -21.0090  -29.6530   21.5470 H   0  0  0  0  0  0  0  0  0  0  0  0
  -18.2000  -27.7060   22.7150 C   0  0  0  0  0  0  0  0  0  0  0  0
  -20.7470  -28.0920   22.9580 C   0  0  0  0  0  3  0  0  0  0  0  0
  -20.9130  -26.6860   22.3370 C   0  0  0  0  0  2  0  0  0  0  0  0
  -19.8150  -26.3400   21.3250 C   0  0  0  0  0  2  0  0  0  0  0  0
  -18.4350  -26.3930   21.9860 C   0  0  0  0  0  2  0  0  0  0  0  0
  -19.2840  -28.5110   23.1560 C   0  0  0  0  0  0  0  0  0  0  0  0
  -19.0100  -29.7320   23.8070 C   0  0  0  0  0  3  0  0  0  0  0  0
  -17.6850  -30.1580   24.0110 C   0  0  0  0  0  3  0  0  0  0  0  0
  -16.6140  -29.3540   23.5840 C   0  0  0  0  0  3  0  0  0  0  0  0
  -16.8720  -28.1280   22.9430 C   0  0  0  0  0  3  0  0  0  0  0  0
  -25.8690  -32.4440   23.7010 C   0  0  0  0  0  3  0  0  0  0  0  0
  -25.4880  -33.8260   24.0600 N   0  0  0  0  0  0  0  0  0  0  0  0
  -25.7440  -34.9170   23.3250 C   0  0  0  0  0  0  0  0  0  0  0  0
  -26.3860  -34.8710   22.2730 O   0  0  0  0  0  0  0  0  0  0  0  0
  -24.9190  -33.9330   24.8870 H   0  0  0  0  0  0  0  0  0  0  0  0
  -23.9100  -36.6310   23.0940 C   0  0  0  0  0  1  0  0  0  0  0  0
  -25.2080  -36.2720   23.8350 C   0  0  0  0  0  3  0  0  0  0  0  0
  -27.3200  -37.2720   24.5970 C   0  0  0  0  0  1  0  0  0  0  0  0
  -26.1750  -37.3840   23.6970 N   0  0  0  0  0  0  0  0  0  0  0  0
  -25.7250  -38.2780   23.8720 H   0  0  0  0  0  0  0  0  0  0  0  0
  -26.3990  -31.6900   24.9850 C   0  0  1  0  0  0  0  0  0  0  0  0
  -25.2960  -31.3830   26.0270 C   0  0  0  0  0  1  0  0  0  0  0  0
  -27.0630  -30.3490   24.6010 C   0  0  0  0  0  1  0  0  0  0  0  0
  -27.4910  -32.5400   25.6770 C   0  0  0  0  0  1  0  0  0  0  0  0
  2  6  1  0
  2  4  2  0
  3  7  1  0
  3  1  2  0
  4  3  1  0
  5  1  1  0
  5 10  1  0
  6  5  2  0
  8  7  1  0
  9 11  1  6
  9 12  1  0
  9  4  1  0
  9  8  1  0
 12 18  1  0
 13 18  1  0
 14 15  1  0
 14 13  1  0
 16 15  1  0
 16 23  1  0
 16 17  1  0
 18 17  1  0
 19 12  2  0
 20 21  2  0
 21 40  1  0
 22 21  1  0
 22 25  1  0
 23 24  1  0
 23 20  1  0
 24 22  2  0
 25 26  1  0
 26 27  2  0
 28 31  1  0
 28 27  1  0
 29 28  2  0
 30 29  1  0
 30 25  2  0
 31 32  1  0
 32 37  2  0
 32 33  1  0
 33 34  2  0
 34 35  1  0
 35 39  1  0
 36 35  2  0
 37 36  1  0
 38 37  1  0
 40 41  1  0
 41 44  1  0
 41 43  1  0
 42 40  2  0
 45 20  1  0
 45 46  1  0
 47 45  1  0
 48 49  1  0
 48  6  1  0
 50 61  2  0
 51 49  1  0
 51 56  1  0
 52 60  1  0
 52 62  1  0
 53 59  1  0
 53 55  1  0
 54 60  1  0
 55 54  1  0
 56 55  2  0
 57 58  1  0
 57 51  2  0
 58 53  2  0
 59 52  1  0
 60 50  1  0
 62 64  2  0
 63 62  1  0
 65 63  1  0
 66 75  2  0
 66 71  1  0
 67 63  1  0
 67 71  1  0
 68 67  1  0
 69 70  1  0
 69 68  1  0
 70 66  1  0
 71 72  2  0
 72 73  1  0
 74 73  2  0
 75 74  1  0
 76 50  1  0
 76 77  1  0
 76 86  1  0
 77 80  1  0
 78 82  1  0
 78 77  1  0
 79 78  2  0
 82 81  1  0
 84 82  1  0
 84 85  1  0
 84 83  1  0
 86 89  1  1
 86 87  1  0
 88 86  1  0
M  ISO  4   9 100  12 100  48 101  49 101
M  END
>  <TORSDO>  (73) 
F 17

>  <SCORE>  (73) 
-15.824

>  <name>  (73) 
72

>  <ligand_id>  (73) 
72

>  <original_smiles>  (73) 
[H]c1c([H])c([H])c2c(c1[H])C([H])([H])C([H])([H])C([H])([H])C2([H])N([H])C(=O)C1([H])N(C(=O)C([H])(N([H])C(=O)C([H])(N([H])C([H])([H])[H])C([H])([H])[H])C(C([H])([H])[H])(C([H])([H])[H])C([H])([H])[H])C([H])([H])c2c([H])c(OC([H])([H])c3c([H])c4c(c([H])c3C([H])([H])[H])C([H])([H])C([H])([H])C4(C(=O)N3C([H])([H])C([H])([H])C([H])([H])C([H])(n4nc(-c5c([H])c([H])c(Oc6c([H])c([H])c(F)c([H])c6F)c([H])c5[H])c(C(=O)N([H])[H])c4N([H])[H])C3([H])[H])C([H])([H])[H])c([H])c([H])c2C1([H])[H]

>  <smiles>  (73) 
[H]c1c([H])c([H])c2c(c1[H])C([H])([H])C([H])([H])C([H])([H])C2([H])N([H])C(=O)C1([H])N(C(=O)C([H])(N([H])C(=O)C([H])(N([H])C([H])([H])[H])C([H])([H])[H])C(C([H])([H])[H])(C([H])([H])[H])C([H])([H])[H])C([H])([H])c2c([H])c(OC([H])([H])c3c([H])c4c(c([H])c3C([H])([H])[H])C([H])([H])C([H])([H])C4(C(=O)N3C([H])([H])C([H])([H])C([H])([H])C([H])(n4nc(-c5c([H])c([H])c(Oc6c([H])c([H])c(F)c([H])c6F)c([H])c5[H])c(C(=O)N([H])[H])c4N([H])[H])C3([H])[H])C([H])([H])[H])c([H])c([H])c2C1([H])[H]

$$$$
73:0:0
     RDKit          3D

 89 98  0  0  1  0  0  0  0  0999 V2000
  -27.8840  -20.3300   20.1350 C   0  0  0  0  0  3  0  0  0  0  0  0
  -27.4430  -21.7660   20.2320 C   0  0  0  0  0  0  0  0  0  0  0  0
  -28.3610  -22.8330   20.3510 C   0  0  0  0  0  0  0  0  0  0  0  0
  -29.2330  -19.9820   20.2430 C   0  0  0  0  0  0  0  0  0  0  0  0
  -25.9830  -22.0800   20.3490 C   0  0  0  0  0  2  0  0  0  0  0  0
  -25.7530  -23.0540   21.5180 C   0  0  0  0  0  2  0  0  0  0  0  0
  -26.3800  -24.4360   21.2400 C   0  0  0  0  0  2  0  0  0  0  0  0
  -27.8910  -24.4720   20.8240 C   0  0  0  0  0  3  0  0  0  0  0  0
  -29.8970  -21.7470   20.4660 S   0  0  0  0  0  0  0  0  0  0  0  0
  -28.2300  -25.9980   20.2510 O   0  0  0  0  0  0  0  0  0  0  0  0
  -24.6850  -31.9970   23.2670 C   0  0  0  0  0  0  0  0  0  0  0  0
  -27.2970  -27.1750   20.2190 C   0  0  0  0  0  0  0  0  0  0  0  0
  -23.5490  -30.6520   21.5470 C   0  0  0  0  0  3  0  0  0  0  0  0
  -25.0490  -29.1090   20.1180 C   0  0  0  0  0  0  0  0  0  0  0  0
  -26.1200  -30.8590   21.5060 C   0  0  0  0  0  2  0  0  0  0  0  0
  -26.2080  -29.4650   20.8180 C   0  0  0  0  0  0  0  0  0  0  0  0
  -27.3300  -28.5140   20.8580 C   0  0  0  0  0  3  0  0  0  0  0  0
  -26.1560  -27.0340   19.4000 C   0  0  0  0  0  3  0  0  0  0  0  0
  -25.0530  -27.9190   19.3830 C   0  0  0  0  0  3  0  0  0  0  0  0
  -23.8290  -30.0250   20.1540 C   0  0  0  0  0  2  0  0  0  0  0  0
  -24.8040  -31.1980   22.1590 N   0  0  0  0  0  0  0  0  0  0  0  0
  -23.5800  -32.2680   23.7620 O   0  0  0  0  0  0  0  0  0  0  0  0
  -22.8320  -29.6180   22.4540 C   0  0  0  0  0  0  0  0  0  0  0  0
  -21.5040  -29.4680   22.2980 N   0  0  0  0  0  0  0  0  0  0  0  0
  -23.4800  -28.9540   23.2680 O   0  0  0  0  0  0  0  0  0  0  0  0
  -21.0390  -30.0510   21.6160 H   0  0  0  0  0  0  0  0  0  0  0  0
  -18.0870  -28.3380   22.8020 C   0  0  0  0  0  0  0  0  0  0  0  0
  -20.6590  -28.5100   23.0180 C   0  0  0  0  0  3  0  0  0  0  0  0
  -20.7030  -27.1170   22.3430 C   0  0  0  0  0  2  0  0  0  0  0  0
  -19.5620  -26.8810   21.3500 C   0  0  0  0  0  2  0  0  0  0  0  0
  -18.2070  -27.0260   22.0440 C   0  0  0  0  0  2  0  0  0  0  0  0
  -19.2370  -29.0420   23.2490 C   0  0  0  0  0  0  0  0  0  0  0  0
  -19.0650  -30.2660   23.9290 C   0  0  0  0  0  3  0  0  0  0  0  0
  -17.7780  -30.7910   24.1540 C   0  0  0  0  0  3  0  0  0  0  0  0
  -16.6450  -30.0890   23.7100 C   0  0  0  0  0  3  0  0  0  0  0  0
  -16.8000  -28.8620   23.0410 C   0  0  0  0  0  3  0  0  0  0  0  0
  -25.9340  -32.6260   23.9540 C   0  0  0  0  0  3  0  0  0  0  0  0
  -25.6070  -34.0200   24.3010 N   0  0  0  0  0  0  0  0  0  0  0  0
  -25.9360  -35.0940   23.5710 C   0  0  0  0  0  0  0  0  0  0  0  0
  -26.6130  -35.0180   22.5420 O   0  0  0  0  0  0  0  0  0  0  0  0
  -25.0090  -34.1490   25.1040 H   0  0  0  0  0  0  0  0  0  0  0  0
  -24.1840  -36.8790   23.2730 C   0  0  0  0  0  1  0  0  0  0  0  0
  -25.4410  -36.4730   24.0580 C   0  0  0  0  0  3  0  0  0  0  0  0
  -27.5710  -37.3810   24.8780 C   0  0  0  0  0  1  0  0  0  0  0  0
  -26.4600  -37.5400   23.9440 N   0  0  0  0  0  0  0  0  0  0  0  0
  -26.0430  -38.4520   24.1030 H   0  0  0  0  0  0  0  0  0  0  0  0
  -26.3910  -31.8390   25.2430 C   0  0  1  0  0  0  0  0  0  0  0  0
  -25.2490  -31.5900   26.2570 C   0  0  0  0  0  1  0  0  0  0  0  0
  -26.9910  -30.4630   24.8720 C   0  0  0  0  0  1  0  0  0  0  0  0
  -27.5090  -32.6260   25.9680 C   0  0  0  0  0  1  0  0  0  0  0  0
  -30.1210  -18.4670   20.1950 C   0  0  0  0  0  2  0  0  0  0  0  0
  -30.5460  -15.5640   20.0720 C   0  0  0  0  0  0  0  0  0  0  0  0
  -30.5180  -13.1330   19.1540 C   0  0  0  0  0  2  0  0  0  0  0  0
  -29.5620  -12.9350   17.9500 C   0  0  0  0  0  2  0  0  0  0  0  0
  -28.1350  -12.6420   18.4390 C   0  0  0  0  0  2  0  0  0  0  0  0
  -27.7120  -13.5860   19.5900 C   0  0  0  0  0  3  0  0  0  0  0  0
  -28.7920  -13.7260   20.6810 C   0  0  0  0  0  2  0  0  0  0  0  0
  -29.9910  -14.2540   20.0170 N   0  0  0  0  0  0  0  0  0  0  0  0
  -31.7550  -15.5780   19.8050 O   0  0  0  0  0  0  0  0  0  0  0  0
  -29.7760  -16.8310   20.2300 N   0  0  0  0  0  0  0  0  0  0  0  0
  -28.7960  -16.6550   20.4000 H   0  0  0  0  0  0  0  0  0  0  0  0
  -25.3720  -14.1180   20.4420 C   0  0  0  0  0  0  0  0  0  0  0  0
  -24.3290  -13.3280   20.8400 C   0  0  0  0  0  0  0  0  0  0  0  0
  -24.8020  -11.9820   20.7710 C   0  0  0  0  0  0  0  0  0  0  0  0
  -26.4070  -13.2510   20.1410 N   0  0  0  0  0  0  0  0  0  0  0  0
  -26.0800  -11.9610   20.4080 N   0  0  0  0  0  0  0  0  0  0  0  0
  -24.0900  -10.7120   20.9670 C   0  0  0  0  0  0  0  0  0  0  0  0
  -24.5300   -9.7560   21.9090 C   0  0  0  0  0  3  0  0  0  0  0  0
  -23.8160   -8.5530   22.0930 C   0  0  0  0  0  3  0  0  0  0  0  0
  -22.6490   -8.2970   21.3350 C   0  0  0  0  0  0  0  0  0  0  0  0
  -22.2290   -9.2400   20.3800 C   0  0  0  0  0  3  0  0  0  0  0  0
  -22.9440  -10.4360   20.1960 C   0  0  0  0  0  3  0  0  0  0  0  0
  -21.9060   -7.1450   21.4290 O   0  0  0  0  0  0  0  0  0  0  0  0
  -21.8240   -6.4340   22.5980 C   0  0  0  0  0  0  0  0  0  0  0  0
  -21.3180   -7.0100   23.7850 C   0  0  0  0  0  3  0  0  0  0  0  0
  -21.1880   -6.2250   24.9490 C   0  0  0  0  0  3  0  0  0  0  0  0
  -21.5510   -4.8650   24.9240 C   0  0  0  0  0  0  0  0  0  0  0  0
  -22.0460   -4.2880   23.7410 C   0  0  0  0  0  3  0  0  0  0  0  0
  -22.1810   -5.0710   22.5820 C   0  0  0  0  0  0  0  0  0  0  0  0
  -22.6410   -4.5070   21.4400 F   0  0  0  0  0  0  0  0  0  0  0  0
  -21.4150   -4.1080   26.0380 F   0  0  0  0  0  0  0  0  0  0  0  0
  -22.9410  -13.7930   21.1640 C   0  0  0  0  0  0  0  0  0  0  0  0
  -22.2490  -13.0860   22.0500 N   0  0  0  0  0  0  0  0  0  0  0  0
  -22.4800  -14.8180   20.6670 O   0  0  0  0  0  0  0  0  0  0  0  0
  -22.6380  -12.2550   22.4730 H   0  0  0  0  0  0  0  0  0  0  0  0
  -21.3160  -13.3740   22.3080 H   0  0  0  0  0  0  0  0  0  0  0  0
  -25.5210  -15.4930   20.2790 N   0  0  0  0  0  0  0  0  0  0  0  0
  -24.7450  -16.1340   20.4010 H   0  0  0  0  0  0  0  0  0  0  0  0
  -26.3310  -15.9280   19.8590 H   0  0  0  0  0  0  0  0  0  0  0  0
  1  2  1  0
  1  4  2  0
  2  5  1  0
  2  3  2  0
  3  9  1  0
  3  8  1  0
  4  9  1  0
  5  6  1  0
  7  6  1  0
  8 10  1  0
  8  7  1  0
 11 22  2  0
 12 10  1  0
 12 17  1  0
 13 21  1  0
 13 23  1  0
 14 20  1  0
 14 16  1  0
 15 21  1  0
 16 17  2  0
 16 15  1  0
 18 12  2  0
 19 18  1  0
 19 14  2  0
 20 13  1  0
 21 11  1  0
 23 25  2  0
 24 23  1  0
 26 24  1  0
 27 36  2  0
 27 32  1  0
 28 24  1  0
 28 32  1  0
 29 28  1  0
 30 31  1  0
 30 29  1  0
 31 27  1  0
 32 33  2  0
 33 34  1  0
 35 34  2  0
 36 35  1  0
 37 11  1  0
 37 38  1  0
 37 47  1  0
 38 41  1  0
 39 43  1  0
 39 38  1  0
 40 39  2  0
 43 42  1  0
 45 43  1  0
 45 46  1  0
 45 44  1  0
 47 50  1  1
 47 48  1  0
 49 47  1  0
 51 60  1  0
 51  4  1  0
 52 60  1  0
 53 58  1  0
 54 55  1  0
 54 53  1  0
 56 55  1  0
 56 65  1  0
 56 57  1  0
 58 52  1  0
 58 57  1  0
 59 52  2  0
 60 61  1  0
 62 63  2  0
 63 82  1  0
 64 63  1  0
 64 67  1  0
 65 66  1  0
 65 62  1  0
 66 64  2  0
 67 68  1  0
 68 69  2  0
 70 73  1  0
 70 69  1  0
 71 70  2  0
 72 71  1  0
 72 67  2  0
 73 74  1  0
 74 75  1  0
 75 76  2  0
 77 76  1  0
 77 81  1  0
 78 77  2  0
 79 74  2  0
 79 78  1  0
 80 79  1  0
 82 83  1  0
 83 86  1  0
 83 85  1  0
 84 82  2  0
 87 88  1  0
 87 62  1  0
 89 87  1  0
M  ISO  4   8 101  10 101  52 100  60 100
M  END
>  <TORSDO>  (74) 
F 17

>  <SCORE>  (74) 
-14.947

>  <name>  (74) 
73

>  <ligand_id>  (74) 
73

>  <original_smiles>  (74) 
[H]c1c([H])c([H])c2c(c1[H])C([H])([H])C([H])([H])C([H])([H])C2([H])N([H])C(=O)C1([H])N(C(=O)C([H])(N([H])C(=O)C([H])(N([H])C([H])([H])[H])C([H])([H])[H])C(C([H])([H])[H])(C([H])([H])[H])C([H])([H])[H])C([H])([H])c2c([H])c(OC3([H])c4sc(C([H])([H])N([H])C(=O)N5C([H])([H])C([H])([H])C([H])([H])C([H])(n6nc(-c7c([H])c([H])c(Oc8c([H])c([H])c(F)c([H])c8F)c([H])c7[H])c(C(=O)N([H])[H])c6N([H])[H])C5([H])[H])c([H])c4C([H])([H])C([H])([H])C3([H])[H])c([H])c([H])c2C1([H])[H]

>  <smiles>  (74) 
[H]c1c([H])c([H])c2c(c1[H])C([H])([H])C([H])([H])C([H])([H])C2([H])N([H])C(=O)C1([H])N(C(=O)C([H])(N([H])C(=O)C([H])(N([H])C([H])([H])[H])C([H])([H])[H])C(C([H])([H])[H])(C([H])([H])[H])C([H])([H])[H])C([H])([H])c2c([H])c(OC3([H])c4sc(C([H])([H])N([H])C(=O)N5C([H])([H])C([H])([H])C([H])([H])C([H])(n6nc(-c7c([H])c([H])c(Oc8c([H])c([H])c(F)c([H])c8F)c([H])c7[H])c(C(=O)N([H])[H])c6N([H])[H])C5([H])[H])c([H])c4C([H])([H])C([H])([H])C3([H])[H])c([H])c([H])c2C1([H])[H]

$$$$
74:0:0
     RDKit          3D

 95104  0  0  1  0  0  0  0  0999 V2000
  -38.4390  -20.3240   18.8690 C   0  0  0  0  0  3  0  0  0  0  0  0
  -37.3030  -21.3080   19.1800 C   0  0  0  0  0  3  0  0  0  0  0  0
  -37.5100  -19.8280   16.9380 C   0  0  0  0  0  3  0  0  0  0  0  0
  -38.7410  -19.4240   17.7090 C   0  0  0  0  0  0  0  0  0  0  0  0
  -36.3540  -20.8370   17.2440 C   0  0  0  0  0  0  0  0  0  0  0  0
  -36.0800  -21.7350   18.4340 C   0  0  0  0  0  0  0  0  0  0  0  0
  -41.5420  -15.6200   17.5800 C   0  0  0  0  0  0  0  0  0  0  0  0
  -42.6080  -13.3040   16.7130 C   0  0  0  0  0  2  0  0  0  0  0  0
  -41.9180  -12.5620   15.5320 C   0  0  0  0  0  2  0  0  0  0  0  0
  -40.7830  -11.6600   16.0340 C   0  0  0  0  0  2  0  0  0  0  0  0
  -39.9590  -12.3680   17.1310 C   0  0  0  0  0  3  0  0  0  0  0  0
  -40.8100  -13.0910   18.2030 C   0  0  0  0  0  2  0  0  0  0  0  0
  -41.5920  -14.1470   17.5080 N   0  0  0  0  0  0  0  0  0  0  0  0
  -42.7080  -16.0050   17.3610 O   0  0  0  0  0  0  0  0  0  0  0  0
  -40.0330  -18.1600   17.6280 C   0  0  0  0  0  0  0  0  0  0  0  0
  -40.3240  -16.6200   17.7080 N   0  0  0  0  0  0  0  0  0  0  0  0
  -41.0770  -18.7620   17.3670 O   0  0  0  0  0  0  0  0  0  0  0  0
  -39.4650  -16.1180   17.8650 H   0  0  0  0  0  0  0  0  0  0  0  0
  -37.7260  -11.1670   17.0990 C   0  0  0  0  0  0  0  0  0  0  0  0
  -37.1340  -10.2740   17.9470 C   0  0  0  0  0  0  0  0  0  0  0  0
  -38.0190  -10.1370   19.0620 C   0  0  0  0  0  0  0  0  0  0  0  0
  -38.9190  -11.5230   17.6990 N   0  0  0  0  0  0  0  0  0  0  0  0
  -39.0640  -10.9500   18.9230 N   0  0  0  0  0  0  0  0  0  0  0  0
  -37.9540   -9.2310   20.2160 C   0  0  0  0  0  0  0  0  0  0  0  0
  -37.0200   -9.4240   21.2580 C   0  0  0  0  0  3  0  0  0  0  0  0
  -36.9620   -8.5230   22.3430 C   0  0  0  0  0  3  0  0  0  0  0  0
  -37.8390   -7.4130   22.3940 C   0  0  0  0  0  0  0  0  0  0  0  0
  -38.7820   -7.2380   21.3650 C   0  0  0  0  0  3  0  0  0  0  0  0
  -38.8420   -8.1400   20.2890 C   0  0  0  0  0  3  0  0  0  0  0  0
  -37.8710   -6.5000   23.4220 O   0  0  0  0  0  0  0  0  0  0  0  0
  -38.4260   -5.2550   23.2620 C   0  0  0  0  0  0  0  0  0  0  0  0
  -37.8070   -4.2600   22.4760 C   0  0  0  0  0  3  0  0  0  0  0  0
  -38.4460   -3.0190   22.2810 C   0  0  0  0  0  3  0  0  0  0  0  0
  -39.7030   -2.7740   22.8650 C   0  0  0  0  0  0  0  0  0  0  0  0
  -40.3220   -3.7660   23.6450 C   0  0  0  0  0  3  0  0  0  0  0  0
  -39.6860   -5.0040   23.8410 C   0  0  0  0  0  0  0  0  0  0  0  0
  -40.2970   -5.9650   24.5750 F   0  0  0  0  0  0  0  0  0  0  0  0
  -40.3210   -1.5850   22.6730 F   0  0  0  0  0  0  0  0  0  0  0  0
  -35.8690   -9.5130   17.6820 C   0  0  0  0  0  0  0  0  0  0  0  0
  -34.7840   -9.8800   18.3530 N   0  0  0  0  0  0  0  0  0  0  0  0
  -35.8270   -8.6190   16.8360 O   0  0  0  0  0  0  0  0  0  0  0  0
  -34.8180  -10.6290   19.0280 H   0  0  0  0  0  0  0  0  0  0  0  0
  -33.9080   -9.4060   18.1880 H   0  0  0  0  0  0  0  0  0  0  0  0
  -37.3730  -11.6800   15.8550 N   0  0  0  0  0  0  0  0  0  0  0  0
  -36.5350  -11.3850   15.3650 H   0  0  0  0  0  0  0  0  0  0  0  0
  -37.9590  -12.2930   15.3020 H   0  0  0  0  0  0  0  0  0  0  0  0
  -35.3100  -20.9240   16.1940 C   0  0  0  0  0  0  0  0  0  0  0  0
  -34.3380  -20.1620   16.1930 O   0  0  0  0  0  0  0  0  0  0  0  0
  -35.8070  -23.9290   13.1210 C   0  0  0  0  0  3  0  0  0  0  0  0
  -36.7060  -23.8840   14.2020 C   0  0  0  0  0  3  0  0  0  0  0  0
  -34.7460  -23.0070   13.0520 C   0  0  0  0  0  3  0  0  0  0  0  0
  -36.5460  -22.9170   15.2130 C   0  0  0  0  0  3  0  0  0  0  0  0
  -34.5890  -22.0340   14.0590 C   0  0  0  0  0  3  0  0  0  0  0  0
  -35.4920  -21.9710   15.1440 C   0  0  0  0  0  0  0  0  0  0  0  0
  -34.8350  -22.6610   18.9820 O   0  0  0  0  0  0  0  0  0  0  0  0
  -28.5460  -27.3080   19.4480 C   0  0  0  0  0  0  0  0  0  0  0  0
  -34.0050  -23.9620   18.6980 C   0  0  0  0  0  0  0  0  0  0  0  0
  -30.0730  -27.5260   17.5340 C   0  0  0  0  0  3  0  0  0  0  0  0
  -32.4330  -26.4290   17.7720 C   0  0  0  0  0  0  0  0  0  0  0  0
  -31.0280  -26.7150   19.7950 C   0  0  0  0  0  2  0  0  0  0  0  0
  -32.1760  -25.9210   19.0510 C   0  0  0  0  0  0  0  0  0  0  0  0
  -32.9710  -24.7360   19.5060 C   0  0  0  0  0  3  0  0  0  0  0  0
  -34.2050  -24.6810   17.4900 C   0  0  0  0  0  3  0  0  0  0  0  0
  -33.4700  -25.8230   17.0360 C   0  0  0  0  0  3  0  0  0  0  0  0
  -31.5980  -27.5990   17.2250 C   0  0  0  0  0  2  0  0  0  0  0  0
  -29.8330  -27.1720   18.9700 N   0  0  0  0  0  0  0  0  0  0  0  0
  -27.6110  -27.6880   18.7220 O   0  0  0  0  0  0  0  0  0  0  0  0
  -29.3840  -26.5490   16.5450 C   0  0  0  0  0  0  0  0  0  0  0  0
  -28.3970  -27.0270   15.7630 N   0  0  0  0  0  0  0  0  0  0  0  0
  -29.7600  -25.3760   16.4790 O   0  0  0  0  0  0  0  0  0  0  0  0
  -28.1230  -27.9930   15.8770 H   0  0  0  0  0  0  0  0  0  0  0  0
  -25.6740  -27.1470   13.3590 C   0  0  0  0  0  0  0  0  0  0  0  0
  -27.6960  -26.2710   14.7180 C   0  0  0  0  0  3  0  0  0  0  0  0
  -28.4750  -26.3160   13.3820 C   0  0  0  0  0  2  0  0  0  0  0  0
  -28.0200  -27.4480   12.4560 C   0  0  0  0  0  2  0  0  0  0  0  0
  -26.5360  -27.2990   12.1150 C   0  0  0  0  0  2  0  0  0  0  0  0
  -26.2220  -26.6800   14.5840 C   0  0  0  0  0  0  0  0  0  0  0  0
  -25.3810  -26.5860   15.7140 C   0  0  0  0  0  3  0  0  0  0  0  0
  -24.0240  -26.9470   15.6360 C   0  0  0  0  0  3  0  0  0  0  0  0
  -23.4850  -27.3970   14.4180 C   0  0  0  0  0  3  0  0  0  0  0  0
  -24.3080  -27.4920   13.2820 C   0  0  0  0  0  3  0  0  0  0  0  0
  -28.1850  -27.0020   20.9330 C   0  0  0  0  0  3  0  0  0  0  0  0
  -27.0590  -27.8730   21.3260 N   0  0  0  0  0  0  0  0  0  0  0  0
  -26.9890  -28.5820   22.4600 C   0  0  0  0  0  0  0  0  0  0  0  0
  -27.8650  -28.5330   23.3270 O   0  0  0  0  0  0  0  0  0  0  0  0
  -26.3310  -28.0000   20.6390 H   0  0  0  0  0  0  0  0  0  0  0  0
  -26.1280  -30.9490   22.3610 C   0  0  0  0  0  1  0  0  0  0  0  0
  -25.7570  -29.4890   22.6720 C   0  0  0  0  0  3  0  0  0  0  0  0
  -24.2400  -28.3050   24.2000 C   0  0  0  0  0  1  0  0  0  0  0  0
  -25.1860  -29.4050   24.0360 N   0  0  0  0  0  0  0  0  0  0  0  0
  -24.7120  -30.2700   24.2820 H   0  0  0  0  0  0  0  0  0  0  0  0
  -27.7950  -25.4890   21.1740 C   0  0  1  0  0  0  0  0  0  0  0  0
  -27.9140  -24.6050   19.9110 C   0  0  0  0  0  1  0  0  0  0  0  0
  -28.6790  -24.8540   22.2710 C   0  0  0  0  0  1  0  0  0  0  0  0
  -26.3350  -25.3950   21.6800 C   0  0  0  0  0  1  0  0  0  0  0  0
  1  2  1  0
  3  5  2  0
  3  4  1  0
  4  1  2  0
  5  6  1  0
  6 55  1  0
  6  2  2  0
  7 16  1  0
  8 13  1  0
  9 10  1  0
  9  8  1  0
 11 10  1  0
 11 22  1  0
 11 12  1  0
 13  7  1  0
 13 12  1  0
 14  7  2  0
 15 16  1  0
 15  4  1  0
 16 18  1  0
 17 15  2  0
 19 22  1  0
 19 20  2  0
 20 21  1  0
 21 24  1  0
 22 23  1  0
 23 21  2  0
 24 29  2  0
 24 25  1  0
 25 26  2  0
 26 27  1  0
 27 30  1  0
 28 27  2  0
 29 28  1  0
 31 30  1  0
 31 36  1  0
 32 31  2  0
 33 32  1  0
 33 34  2  0
 34 35  1  0
 35 36  2  0
 36 37  1  0
 38 34  1  0
 39 20  1  0
 39 40  1  0
 40 42  1  0
 41 39  2  0
 43 40  1  0
 44 19  1  0
 45 44  1  0
 46 44  1  0
 47  5  1  0
 48 47  2  0
 49 50  1  0
 50 52  2  0
 51 49  2  0
 51 53  1  0
 53 54  2  0
 54 52  1  0
 54 47  1  0
 57 55  1  0
 57 62  1  0
 58 68  1  0
 58 66  1  0
 59 61  1  0
 61 62  2  0
 61 60  1  0
 63 57  2  0
 64 63  1  0
 64 59  2  0
 65 58  1  0
 65 59  1  0
 66 56  1  0
 66 60  1  0
 67 56  2  0
 69 71  1  0
 69 68  1  0
 70 68  2  0
 72 77  1  0
 73 69  1  0
 74 73  1  0
 75 74  1  0
 76 75  1  0
 76 72  1  0
 77 73  1  0
 77 78  2  0
 79 78  1  0
 80 79  2  0
 81 72  2  0
 81 80  1  0
 82 56  1  0
 82 92  1  0
 82 83  1  0
 83 84  1  0
 84 88  1  0
 84 85  2  0
 86 83  1  0
 88 87  1  0
 88 90  1  0
 90 89  1  0
 90 91  1  0
 92 95  1  1
 92 94  1  0
 93 92  1  0
M  ISO  4   6 101   7 100  16 100  55 101
M  END
>  <TORSDO>  (75) 
F 18

>  <SCORE>  (75) 
-3.537

>  <name>  (75) 
74

>  <ligand_id>  (75) 
74

>  <original_smiles>  (75) 
[H]c1c([H])c([H])c(C(=O)c2c([H])c(C(=O)N([H])C(=O)N3C([H])([H])C([H])([H])C([H])([H])C([H])(n4nc(-c5c([H])c([H])c(Oc6c([H])c([H])c(F)c([H])c6F)c([H])c5[H])c(C(=O)N([H])[H])c4N([H])[H])C3([H])[H])c([H])c([H])c2Oc2c([H])c([H])c3c(c2[H])C([H])([H])N(C(=O)C([H])(N([H])C(=O)C([H])(N([H])C([H])([H])[H])C([H])([H])[H])C(C([H])([H])[H])(C([H])([H])[H])C([H])([H])[H])C([H])(C(=O)N([H])C2([H])c4c([H])c([H])c([H])c([H])c4C([H])([H])C([H])([H])C2([H])[H])C3([H])[H])c([H])c1[H]

>  <smiles>  (75) 
[H]c1c([H])c([H])c(C(=O)c2c([H])c(C(=O)N([H])C(=O)N3C([H])([H])C([H])([H])C([H])([H])C([H])(n4nc(-c5c([H])c([H])c(Oc6c([H])c([H])c(F)c([H])c6F)c([H])c5[H])c(C(=O)N([H])[H])c4N([H])[H])C3([H])[H])c([H])c([H])c2Oc2c([H])c([H])c3c(c2[H])C([H])([H])N(C(=O)C([H])(N([H])C(=O)C([H])(N([H])C([H])([H])[H])C([H])([H])[H])C(C([H])([H])[H])(C([H])([H])[H])C([H])([H])[H])C([H])(C(=O)N([H])C2([H])c4c([H])c([H])c([H])c([H])c4C([H])([H])C([H])([H])C2([H])[H])C3([H])[H])c([H])c1[H]

$$$$
75:0:0
     RDKit          3D

 89 97  0  0  1  0  0  0  0  0999 V2000
  -27.5870  -20.8630   20.0240 C   0  0  0  0  0  3  0  0  0  0  0  0
  -26.9800  -23.3780   19.9620 C   0  0  0  0  0  3  0  0  0  0  0  0
  -28.9820  -20.9570   20.2420 C   0  0  0  0  0  0  0  0  0  0  0  0
  -29.2220  -22.6050   20.2980 C   0  0  0  0  0  0  0  0  0  0  0  0
  -28.2590  -23.9570   20.1630 C   0  0  0  0  0  0  0  0  0  0  0  0
  -26.6780  -21.9710   19.8980 C   0  0  0  0  0  0  0  0  0  0  0  0
  -30.6740  -22.9690   20.5320 C   0  0  0  0  0  1  0  0  0  0  0  0
  -25.3770  -21.6510   19.6950 F   0  0  0  0  0  0  0  0  0  0  0  0
  -30.5080  -16.3670   20.5820 C   0  0  0  0  0  0  0  0  0  0  0  0
  -30.7990  -13.7170   19.9710 C   0  0  0  0  0  2  0  0  0  0  0  0
  -30.0560  -13.0890   18.7490 C   0  0  0  0  0  2  0  0  0  0  0  0
  -28.6280  -12.6710   19.1190 C   0  0  0  0  0  2  0  0  0  0  0  0
  -27.9700  -13.7340   20.0220 C   0  0  0  0  0  3  0  0  0  0  0  0
  -28.8750  -14.2530   21.1720 C   0  0  0  0  0  2  0  0  0  0  0  0
  -30.0420  -14.9440   20.5500 N   0  0  0  0  0  0  0  0  0  0  0  0
  -31.7550  -16.2620   20.5600 O   0  0  0  0  0  0  0  0  0  0  0  0
  -29.9390  -19.3830   20.3780 C   0  0  0  0  0  0  0  0  0  0  0  0
  -29.7300  -17.7860   20.4800 N   0  0  0  0  0  0  0  0  0  0  0  0
  -31.1380  -19.6680   20.3900 O   0  0  0  0  0  0  0  0  0  0  0  0
  -28.7390  -17.6030   20.4660 H   0  0  0  0  0  0  0  0  0  0  0  0
  -25.5640  -14.2320   20.6330 C   0  0  0  0  0  0  0  0  0  0  0  0
  -24.4880  -13.4440   20.9210 C   0  0  0  0  0  0  0  0  0  0  0  0
  -24.9680  -12.0970   20.9160 C   0  0  0  0  0  0  0  0  0  0  0  0
  -26.6290  -13.3710   20.4580 N   0  0  0  0  0  0  0  0  0  0  0  0
  -26.2820  -12.0780   20.6950 N   0  0  0  0  0  0  0  0  0  0  0  0
  -24.2340  -10.8310   21.0490 C   0  0  0  0  0  0  0  0  0  0  0  0
  -24.5850   -9.8690   22.0220 C   0  0  0  0  0  3  0  0  0  0  0  0
  -23.8450   -8.6720   22.1450 C   0  0  0  0  0  3  0  0  0  0  0  0
  -22.7410   -8.4270   21.2940 C   0  0  0  0  0  0  0  0  0  0  0  0
  -22.4100   -9.3780   20.3120 C   0  0  0  0  0  3  0  0  0  0  0  0
  -23.1500  -10.5660   20.1870 C   0  0  0  0  0  3  0  0  0  0  0  0
  -21.9820   -7.2820   21.3250 O   0  0  0  0  0  0  0  0  0  0  0  0
  -21.8080   -6.5630   22.4810 C   0  0  0  0  0  0  0  0  0  0  0  0
  -21.1950   -7.1240   23.6220 C   0  0  0  0  0  3  0  0  0  0  0  0
  -20.9740   -6.3290   24.7640 C   0  0  0  0  0  3  0  0  0  0  0  0
  -21.3550   -4.9750   24.7650 C   0  0  0  0  0  0  0  0  0  0  0  0
  -21.9620   -4.4130   23.6280 C   0  0  0  0  0  3  0  0  0  0  0  0
  -22.1840   -5.2050   22.4880 C   0  0  0  0  0  0  0  0  0  0  0  0
  -22.7490   -4.6530   21.3870 F   0  0  0  0  0  0  0  0  0  0  0  0
  -21.1370   -4.2090   25.8600 F   0  0  0  0  0  0  0  0  0  0  0  0
  -23.0720  -13.9130   21.0840 C   0  0  0  0  0  0  0  0  0  0  0  0
  -22.2880  -13.2210   21.9020 N   0  0  0  0  0  0  0  0  0  0  0  0
  -22.6700  -14.9310   20.5230 O   0  0  0  0  0  0  0  0  0  0  0  0
  -22.6280  -12.3980   22.3790 H   0  0  0  0  0  0  0  0  0  0  0  0
  -21.3360  -13.5180   22.0560 H   0  0  0  0  0  0  0  0  0  0  0  0
  -25.7250  -15.6050   20.4680 N   0  0  0  0  0  0  0  0  0  0  0  0
  -24.9430  -16.2480   20.5170 H   0  0  0  0  0  0  0  0  0  0  0  0
  -26.5830  -16.0450   20.1630 H   0  0  0  0  0  0  0  0  0  0  0  0
  -28.3230  -25.6390   20.2110 O   0  0  0  0  0  0  0  0  0  0  0  0
  -24.7120  -32.0400   23.2850 C   0  0  0  0  0  0  0  0  0  0  0  0
  -27.3390  -26.9130   20.2260 C   0  0  0  0  0  0  0  0  0  0  0  0
  -23.5650  -30.6490   21.6160 C   0  0  0  0  0  3  0  0  0  0  0  0
  -25.0510  -29.0220   20.1900 C   0  0  0  0  0  0  0  0  0  0  0  0
  -26.1490  -30.7870   21.5350 C   0  0  0  0  0  2  0  0  0  0  0  0
  -26.2390  -29.3490   20.8540 C   0  0  0  0  0  0  0  0  0  0  0  0
  -27.3550  -28.3270   20.8400 C   0  0  0  0  0  3  0  0  0  0  0  0
  -26.1160  -26.8540   19.4940 C   0  0  0  0  0  3  0  0  0  0  0  0
  -25.0390  -27.8050   19.4870 C   0  0  0  0  0  3  0  0  0  0  0  0
  -23.8340  -29.9720   20.2390 C   0  0  0  0  0  2  0  0  0  0  0  0
  -24.8340  -31.1960   22.1980 N   0  0  0  0  0  0  0  0  0  0  0  0
  -23.6070  -32.3180   23.7860 O   0  0  0  0  0  0  0  0  0  0  0  0
  -22.8450  -29.6550   22.5680 C   0  0  0  0  0  0  0  0  0  0  0  0
  -21.5210  -29.4600   22.4100 N   0  0  0  0  0  0  0  0  0  0  0  0
  -23.4950  -29.0530   23.4270 O   0  0  0  0  0  0  0  0  0  0  0  0
  -21.0410  -29.9970   21.7000 H   0  0  0  0  0  0  0  0  0  0  0  0
  -18.1550  -28.1570   22.8780 C   0  0  0  0  0  0  0  0  0  0  0  0
  -20.7070  -28.4910   23.1590 C   0  0  0  0  0  3  0  0  0  0  0  0
  -20.8480  -27.0710   22.5610 C   0  0  0  0  0  2  0  0  0  0  0  0
  -19.7630  -26.7400   21.5320 C   0  0  0  0  0  2  0  0  0  0  0  0
  -18.3730  -26.8320   22.1700 C   0  0  0  0  0  2  0  0  0  0  0  0
  -19.2500  -28.9440   23.3270 C   0  0  0  0  0  0  0  0  0  0  0  0
  -18.9880  -30.1810   23.9570 C   0  0  0  0  0  3  0  0  0  0  0  0
  -17.6680  -30.6340   24.1360 C   0  0  0  0  0  3  0  0  0  0  0  0
  -16.5890  -29.8470   23.6980 C   0  0  0  0  0  3  0  0  0  0  0  0
  -16.8340  -28.6090   23.0750 C   0  0  0  0  0  3  0  0  0  0  0  0
  -25.9510  -32.7090   23.9520 C   0  0  0  0  0  3  0  0  0  0  0  0
  -25.6160  -34.1170   24.2560 N   0  0  0  0  0  0  0  0  0  0  0  0
  -25.9400  -35.1740   23.4980 C   0  0  0  0  0  0  0  0  0  0  0  0
  -26.6050  -35.0660   22.4650 O   0  0  0  0  0  0  0  0  0  0  0  0
  -25.0200  -34.2710   25.0560 H   0  0  0  0  0  0  0  0  0  0  0  0
  -24.1910  -36.9610   23.1690 C   0  0  0  0  0  1  0  0  0  0  0  0
  -25.4540  -36.5680   23.9520 C   0  0  0  0  0  3  0  0  0  0  0  0
  -27.5920  -37.4990   24.7310 C   0  0  0  0  0  1  0  0  0  0  0  0
  -26.4750  -37.6290   23.8000 N   0  0  0  0  0  0  0  0  0  0  0  0
  -26.0600  -38.5490   23.9290 H   0  0  0  0  0  0  0  0  0  0  0  0
  -26.4070  -31.9790   25.2770 C   0  0  1  0  0  0  0  0  0  0  0  0
  -25.2650  -31.7670   26.2990 C   0  0  0  0  0  1  0  0  0  0  0  0
  -27.0150  -30.5930   24.9700 C   0  0  0  0  0  1  0  0  0  0  0  0
  -27.5230  -32.7980   25.9700 C   0  0  0  0  0  1  0  0  0  0  0  0
  1  3  1  0
  2  5  2  0
  3  4  2  0
  3 17  1  0
  4  7  1  0
  5 49  1  0
  5  4  1  0
  6  2  1  0
  6  1  2  0
  8  6  1  0
 10 15  1  0
 11 12  1  0
 11 10  1  0
 13 12  1  0
 13 24  1  0
 13 14  1  0
 15  9  1  0
 15 14  1  0
 16  9  2  0
 17 19  2  0
 17 18  1  0
 18  9  1  0
 20 18  1  0
 21 22  2  0
 22 41  1  0
 23 22  1  0
 23 26  1  0
 24 21  1  0
 24 25  1  0
 25 23  2  0
 26 27  1  0
 27 28  2  0
 29 32  1  0
 29 28  1  0
 30 29  2  0
 31 30  1  0
 31 26  2  0
 32 33  1  0
 33 38  2  0
 33 34  1  0
 34 35  2  0
 35 36  1  0
 36 40  1  0
 37 36  2  0
 38 37  1  0
 39 38  1  0
 41 42  1  0
 42 45  1  0
 42 44  1  0
 43 41  2  0
 46 47  1  0
 46 21  1  0
 48 46  1  0
 49 51  1  0
 50 61  2  0
 51 56  1  0
 52 60  1  0
 52 62  1  0
 53 59  1  0
 53 55  1  0
 54 60  1  0
 55 54  1  0
 56 55  2  0
 57 51  2  0
 58 57  1  0
 58 53  2  0
 59 52  1  0
 60 50  1  0
 62 64  2  0
 63 62  1  0
 65 63  1  0
 66 75  2  0
 66 71  1  0
 67 63  1  0
 67 71  1  0
 68 67  1  0
 69 70  1  0
 69 68  1  0
 70 66  1  0
 71 72  2  0
 72 73  1  0
 74 73  2  0
 75 74  1  0
 76 50  1  0
 76 77  1  0
 76 86  1  0
 77 80  1  0
 78 82  1  0
 78 77  1  0
 79 78  2  0
 82 81  1  0
 84 85  1  0
 84 82  1  0
 84 83  1  0
 86 89  1  1
 86 87  1  0
 88 86  1  0
M  ISO  4   5 101   9 100  18 100  49 101
M  END
>  <TORSDO>  (76) 
F 16

>  <SCORE>  (76) 
-15.165

>  <name>  (76) 
75

>  <ligand_id>  (76) 
75

>  <original_smiles>  (76) 
[H]c1c([H])c([H])c2c(c1[H])C([H])([H])C([H])([H])C([H])([H])C2([H])N([H])C(=O)C1([H])N(C(=O)C([H])(N([H])C(=O)C([H])(N([H])C([H])([H])[H])C([H])([H])[H])C(C([H])([H])[H])(C([H])([H])[H])C([H])([H])[H])C([H])([H])c2c([H])c(Oc3c([H])c(F)c([H])c(C(=O)N([H])C(=O)N4C([H])([H])C([H])([H])C([H])([H])C([H])(n5nc(-c6c([H])c([H])c(Oc7c([H])c([H])c(F)c([H])c7F)c([H])c6[H])c(C(=O)N([H])[H])c5N([H])[H])C4([H])[H])c3C([H])([H])[H])c([H])c([H])c2C1([H])[H]

>  <smiles>  (76) 
[H]c1c([H])c([H])c2c(c1[H])C([H])([H])C([H])([H])C([H])([H])C2([H])N([H])C(=O)C1([H])N(C(=O)C([H])(N([H])C(=O)C([H])(N([H])C([H])([H])[H])C([H])([H])[H])C(C([H])([H])[H])(C([H])([H])[H])C([H])([H])[H])C([H])([H])c2c([H])c(Oc3c([H])c(F)c([H])c(C(=O)N([H])C(=O)N4C([H])([H])C([H])([H])C([H])([H])C([H])(n5nc(-c6c([H])c([H])c(Oc7c([H])c([H])c(F)c([H])c7F)c([H])c6[H])c(C(=O)N([H])[H])c5N([H])[H])C4([H])[H])c3C([H])([H])[H])c([H])c([H])c2C1([H])[H]

$$$$
76:0:0
     RDKit          3D

 88 96  0  0  1  0  0  0  0  0999 V2000
  -26.5590  -21.8060   20.2240 C   0  0  0  0  0  3  0  0  0  0  0  0
  -27.4600  -20.6840   20.1920 C   0  0  0  0  0  3  0  0  0  0  0  0
  -26.8660  -23.2120   20.2150 C   0  0  0  0  0  3  0  0  0  0  0  0
  -28.8740  -20.7720   20.1440 C   0  0  0  0  0  0  0  0  0  0  0  0
  -29.1290  -22.4210   20.1370 C   0  0  0  0  0  0  0  0  0  0  0  0
  -28.1650  -23.7790   20.1650 C   0  0  0  0  0  0  0  0  0  0  0  0
  -30.6010  -22.7750   20.1040 C   0  0  0  0  0  1  0  0  0  0  0  0
  -30.3970  -16.1680   20.0860 C   0  0  0  0  0  0  0  0  0  0  0  0
  -30.5990  -13.5560   19.3080 C   0  0  0  0  0  2  0  0  0  0  0  0
  -29.7190  -12.9910   18.1470 C   0  0  0  0  0  2  0  0  0  0  0  0
  -28.3400  -12.5550   18.6550 C   0  0  0  0  0  2  0  0  0  0  0  0
  -27.7930  -13.5730   19.6770 C   0  0  0  0  0  3  0  0  0  0  0  0
  -28.8240  -14.0290   20.7430 C   0  0  0  0  0  2  0  0  0  0  0  0
  -29.9190  -14.7500   20.0310 N   0  0  0  0  0  0  0  0  0  0  0  0
  -31.6330  -16.0630   19.9240 O   0  0  0  0  0  0  0  0  0  0  0  0
  -29.8300  -19.1910   20.1060 C   0  0  0  0  0  0  0  0  0  0  0  0
  -29.6220  -17.5910   20.1410 N   0  0  0  0  0  0  0  0  0  0  0  0
  -31.0280  -19.4740   20.0230 O   0  0  0  0  0  0  0  0  0  0  0  0
  -28.6330  -17.4130   20.2160 H   0  0  0  0  0  0  0  0  0  0  0  0
  -25.4630  -14.0400   20.5490 C   0  0  0  0  0  0  0  0  0  0  0  0
  -24.4240  -13.2380   20.9240 C   0  0  0  0  0  0  0  0  0  0  0  0
  -24.9050  -11.8950   20.8300 C   0  0  0  0  0  0  0  0  0  0  0  0
  -26.5060  -13.1900   20.2390 N   0  0  0  0  0  0  0  0  0  0  0  0
  -26.1870  -11.8880   20.4720 N   0  0  0  0  0  0  0  0  0  0  0  0
  -24.1910  -10.6210   21.0010 C   0  0  0  0  0  0  0  0  0  0  0  0
  -24.6100   -9.6570   21.9450 C   0  0  0  0  0  3  0  0  0  0  0  0
  -23.8900   -8.4530   22.1080 C   0  0  0  0  0  3  0  0  0  0  0  0
  -22.7370   -8.2040   21.3260 C   0  0  0  0  0  0  0  0  0  0  0  0
  -22.3370   -9.1560   20.3710 C   0  0  0  0  0  3  0  0  0  0  0  0
  -23.0580  -10.3510   20.2070 C   0  0  0  0  0  3  0  0  0  0  0  0
  -21.9910   -7.0520   21.3960 O   0  0  0  0  0  0  0  0  0  0  0  0
  -21.8470   -6.3580   22.5720 C   0  0  0  0  0  0  0  0  0  0  0  0
  -21.2550   -6.9420   23.7130 C   0  0  0  0  0  3  0  0  0  0  0  0
  -21.0630   -6.1730   24.8780 C   0  0  0  0  0  3  0  0  0  0  0  0
  -21.4520   -4.8190   24.9010 C   0  0  0  0  0  0  0  0  0  0  0  0
  -22.0360   -4.2360   23.7640 C   0  0  0  0  0  3  0  0  0  0  0  0
  -22.2290   -5.0010   22.6010 C   0  0  0  0  0  0  0  0  0  0  0  0
  -22.7730   -4.4280   21.5010 F   0  0  0  0  0  0  0  0  0  0  0  0
  -21.2620   -4.0780   26.0170 F   0  0  0  0  0  0  0  0  0  0  0  0
  -23.0330  -13.6940   21.2490 C   0  0  0  0  0  0  0  0  0  0  0  0
  -22.3380  -12.9720   22.1190 N   0  0  0  0  0  0  0  0  0  0  0  0
  -22.5730  -14.7290   20.7670 O   0  0  0  0  0  0  0  0  0  0  0  0
  -22.7250  -12.1350   22.5290 H   0  0  0  0  0  0  0  0  0  0  0  0
  -21.4070  -13.2610   22.3810 H   0  0  0  0  0  0  0  0  0  0  0  0
  -25.6030  -15.4180   20.4080 N   0  0  0  0  0  0  0  0  0  0  0  0
  -24.8290  -16.0550   20.5570 H   0  0  0  0  0  0  0  0  0  0  0  0
  -26.4240  -15.8710   20.0300 H   0  0  0  0  0  0  0  0  0  0  0  0
  -28.2470  -25.4610   20.1740 O   0  0  0  0  0  0  0  0  0  0  0  0
  -24.7410  -31.9290   23.2180 C   0  0  0  0  0  0  0  0  0  0  0  0
  -27.2780  -26.7460   20.1820 C   0  0  0  0  0  0  0  0  0  0  0  0
  -23.5600  -30.5340   21.5780 C   0  0  0  0  0  3  0  0  0  0  0  0
  -25.0130  -28.8780   20.1510 C   0  0  0  0  0  0  0  0  0  0  0  0
  -26.1440  -30.6460   21.4630 C   0  0  0  0  0  2  0  0  0  0  0  0
  -26.2110  -29.1990   20.7970 C   0  0  0  0  0  0  0  0  0  0  0  0
  -27.3160  -28.1660   20.7800 C   0  0  0  0  0  3  0  0  0  0  0  0
  -26.0470  -26.6930   19.4640 C   0  0  0  0  0  3  0  0  0  0  0  0
  -24.9790  -27.6530   19.4600 C   0  0  0  0  0  3  0  0  0  0  0  0
  -23.8070  -29.8410   20.2040 C   0  0  0  0  0  2  0  0  0  0  0  0
  -24.8410  -31.0740   22.1380 N   0  0  0  0  0  0  0  0  0  0  0  0
  -23.6450  -32.2230   23.7300 O   0  0  0  0  0  0  0  0  0  0  0  0
  -22.8420  -29.5560   22.5490 C   0  0  0  0  0  0  0  0  0  0  0  0
  -21.5110  -29.3820   22.4170 N   0  0  0  0  0  0  0  0  0  0  0  0
  -23.4980  -28.9480   23.3980 O   0  0  0  0  0  0  0  0  0  0  0  0
  -21.0270  -29.9250   21.7140 H   0  0  0  0  0  0  0  0  0  0  0  0
  -18.1410  -28.1110   22.9280 C   0  0  0  0  0  0  0  0  0  0  0  0
  -20.6970  -28.4310   23.1860 C   0  0  0  0  0  3  0  0  0  0  0  0
  -20.8240  -27.0010   22.6100 C   0  0  0  0  0  2  0  0  0  0  0  0
  -19.7290  -26.6610   21.5930 C   0  0  0  0  0  2  0  0  0  0  0  0
  -18.3450  -26.7720   22.2390 C   0  0  0  0  0  2  0  0  0  0  0  0
  -19.2440  -28.8970   23.3580 C   0  0  0  0  0  0  0  0  0  0  0  0
  -18.9950  -30.1450   23.9680 C   0  0  0  0  0  3  0  0  0  0  0  0
  -17.6790  -30.6110   24.1490 C   0  0  0  0  0  3  0  0  0  0  0  0
  -16.5920  -29.8240   23.7310 C   0  0  0  0  0  3  0  0  0  0  0  0
  -16.8240  -28.5750   23.1260 C   0  0  0  0  0  3  0  0  0  0  0  0
  -25.9960  -32.5930   23.8630 C   0  0  0  0  0  3  0  0  0  0  0  0
  -25.6620  -33.9920   24.2030 N   0  0  0  0  0  0  0  0  0  0  0  0
  -25.9620  -35.0650   23.4590 C   0  0  0  0  0  0  0  0  0  0  0  0
  -26.6020  -34.9820   22.4080 O   0  0  0  0  0  0  0  0  0  0  0  0
  -25.0850  -34.1280   25.0200 H   0  0  0  0  0  0  0  0  0  0  0  0
  -24.1990  -36.8520   23.2070 C   0  0  0  0  0  1  0  0  0  0  0  0
  -25.4820  -36.4490   23.9530 C   0  0  0  0  0  3  0  0  0  0  0  0
  -27.6340  -37.3700   24.7010 C   0  0  0  0  0  1  0  0  0  0  0  0
  -26.4950  -37.5170   23.8000 N   0  0  0  0  0  0  0  0  0  0  0  0
  -26.0800  -38.4310   23.9600 H   0  0  0  0  0  0  0  0  0  0  0  0
  -26.4930  -31.8400   25.1600 C   0  0  1  0  0  0  0  0  0  0  0  0
  -25.3830  -31.6090   26.2130 C   0  0  0  0  0  1  0  0  0  0  0  0
  -27.0900  -30.4590   24.8090 C   0  0  0  0  0  1  0  0  0  0  0  0
  -27.6270  -32.6470   25.8330 C   0  0  0  0  0  1  0  0  0  0  0  0
  2  1  2  0
  3  1  1  0
  4  2  1  0
  5  4  2  0
  5  6  1  0
  6 48  1  0
  6  3  2  0
  7  5  1  0
  8 17  1  0
  9 14  1  0
 10 11  1  0
 10  9  1  0
 12 11  1  0
 12 23  1  0
 12 13  1  0
 14  8  1  0
 14 13  1  0
 15  8  2  0
 16 17  1  0
 16  4  1  0
 17 19  1  0
 18 16  2  0
 20 21  2  0
 21 40  1  0
 22 21  1  0
 22 25  1  0
 23 24  1  0
 23 20  1  0
 24 22  2  0
 25 26  1  0
 26 27  2  0
 28 31  1  0
 28 27  1  0
 29 28  2  0
 30 29  1  0
 30 25  2  0
 31 32  1  0
 32 37  2  0
 32 33  1  0
 33 34  2  0
 34 35  1  0
 35 39  1  0
 36 35  2  0
 37 36  1  0
 38 37  1  0
 40 41  1  0
 41 44  1  0
 41 43  1  0
 42 40  2  0
 45 20  1  0
 45 46  1  0
 47 45  1  0
 48 50  1  0
 49 60  2  0
 50 55  1  0
 51 59  1  0
 51 61  1  0
 52 58  1  0
 52 54  1  0
 53 59  1  0
 54 53  1  0
 55 54  2  0
 56 50  2  0
 57 56  1  0
 57 52  2  0
 58 51  1  0
 59 49  1  0
 61 63  2  0
 62 61  1  0
 64 62  1  0
 65 74  2  0
 65 70  1  0
 66 62  1  0
 66 70  1  0
 67 66  1  0
 68 69  1  0
 68 67  1  0
 69 65  1  0
 70 71  2  0
 71 72  1  0
 73 72  2  0
 74 73  1  0
 75 49  1  0
 75 76  1  0
 75 85  1  0
 76 79  1  0
 77 81  1  0
 77 76  1  0
 78 77  2  0
 81 80  1  0
 83 81  1  0
 83 84  1  0
 83 82  1  0
 85 88  1  1
 85 86  1  0
 87 85  1  0
M  ISO  4   6 101   8 100  17 100  48 101
M  END
>  <TORSDO>  (77) 
F 16

>  <SCORE>  (77) 
-15.407

>  <name>  (77) 
76

>  <ligand_id>  (77) 
76

>  <original_smiles>  (77) 
[H]c1c([H])c(Oc2c([H])c([H])c3c(c2[H])C([H])([H])N(C(=O)C([H])(N([H])C(=O)C([H])(N([H])C([H])([H])[H])C([H])([H])[H])C(C([H])([H])[H])(C([H])([H])[H])C([H])([H])[H])C([H])(C(=O)N([H])C2([H])c4c([H])c([H])c([H])c([H])c4C([H])([H])C([H])([H])C2([H])[H])C3([H])[H])c(C([H])([H])[H])c(C(=O)N([H])C(=O)N2C([H])([H])C([H])([H])C([H])([H])C([H])(n3nc(-c4c([H])c([H])c(Oc5c([H])c([H])c(F)c([H])c5F)c([H])c4[H])c(C(=O)N([H])[H])c3N([H])[H])C2([H])[H])c1[H]

>  <smiles>  (77) 
[H]c1c([H])c(Oc2c([H])c([H])c3c(c2[H])C([H])([H])N(C(=O)C([H])(N([H])C(=O)C([H])(N([H])C([H])([H])[H])C([H])([H])[H])C(C([H])([H])[H])(C([H])([H])[H])C([H])([H])[H])C([H])(C(=O)N([H])C2([H])c4c([H])c([H])c([H])c([H])c4C([H])([H])C([H])([H])C2([H])[H])C3([H])[H])c(C([H])([H])[H])c(C(=O)N([H])C(=O)N2C([H])([H])C([H])([H])C([H])([H])C([H])(n3nc(-c4c([H])c([H])c(Oc5c([H])c([H])c(F)c([H])c5F)c([H])c4[H])c(C(=O)N([H])[H])c3N([H])[H])C2([H])[H])c1[H]

$$$$
77:0:0
     RDKit          3D

 91 99  0  0  1  0  0  0  0  0999 V2000
  -28.2820  -21.5250   22.0260 C   0  0  0  0  0  3  0  0  0  0  0  0
  -28.2620  -22.8060   21.4060 C   0  0  0  0  0  3  0  0  0  0  0  0
  -28.8390  -20.3470   21.4510 C   0  0  0  0  0  3  0  0  0  0  0  0
  -29.3960  -21.7410   19.5620 C   0  0  0  0  0  3  0  0  0  0  0  0
  -28.8010  -23.0510   20.1250 C   0  0  0  0  0  0  0  0  0  0  0  0
  -29.4580  -20.3240   20.1830 C   0  0  0  0  0  0  0  0  0  0  0  0
  -28.4860  -24.6220   19.4290 C   0  0  0  0  0  2  0  0  0  0  0  0
  -28.4510  -26.1640   20.0110 O   0  0  0  0  0  0  0  0  0  0  0  0
  -24.7350  -31.9310   23.0920 C   0  0  0  0  0  0  0  0  0  0  0  0
  -27.4110  -27.2310   19.9070 C   0  0  0  0  0  0  0  0  0  0  0  0
  -23.5670  -30.5500   21.4200 C   0  0  0  0  0  3  0  0  0  0  0  0
  -25.0530  -29.0390   19.9280 C   0  0  0  0  0  0  0  0  0  0  0  0
  -26.1210  -30.8480   21.2540 C   0  0  0  0  0  2  0  0  0  0  0  0
  -26.2300  -29.4600   20.5590 C   0  0  0  0  0  0  0  0  0  0  0  0
  -27.3920  -28.5720   20.5370 C   0  0  0  0  0  3  0  0  0  0  0  0
  -26.2060  -26.9730   19.2120 C   0  0  0  0  0  3  0  0  0  0  0  0
  -25.0670  -27.8190   19.2320 C   0  0  0  0  0  3  0  0  0  0  0  0
  -23.8050  -29.9190   20.0190 C   0  0  0  0  0  2  0  0  0  0  0  0
  -24.8310  -31.1340   21.9780 N   0  0  0  0  0  0  0  0  0  0  0  0
  -23.6410  -32.1700   23.6300 O   0  0  0  0  0  0  0  0  0  0  0  0
  -22.9180  -29.5000   22.3610 C   0  0  0  0  0  0  0  0  0  0  0  0
  -21.5890  -29.3050   22.2570 N   0  0  0  0  0  0  0  0  0  0  0  0
  -23.6140  -28.8680   23.1580 O   0  0  0  0  0  0  0  0  0  0  0  0
  -21.0780  -29.8790   21.6030 H   0  0  0  0  0  0  0  0  0  0  0  0
  -18.2480  -27.9990   22.7890 C   0  0  0  0  0  0  0  0  0  0  0  0
  -20.8070  -28.3190   23.0100 C   0  0  0  0  0  3  0  0  0  0  0  0
  -20.9290  -26.9110   22.3810 C   0  0  0  0  0  2  0  0  0  0  0  0
  -19.8140  -26.5980   21.3800 C   0  0  0  0  0  2  0  0  0  0  0  0
  -18.4420  -26.6830   22.0550 C   0  0  0  0  0  2  0  0  0  0  0  0
  -19.3570  -28.7730   23.2250 C   0  0  0  0  0  0  0  0  0  0  0  0
  -19.1170  -30.0020   23.8760 C   0  0  0  0  0  3  0  0  0  0  0  0
  -17.8040  -30.4580   24.0940 C   0  0  0  0  0  3  0  0  0  0  0  0
  -16.7110  -29.6810   23.6730 C   0  0  0  0  0  3  0  0  0  0  0  0
  -16.9330  -28.4520   23.0290 C   0  0  0  0  0  3  0  0  0  0  0  0
  -25.9900  -32.5980   23.7310 C   0  0  0  0  0  3  0  0  0  0  0  0
  -25.6450  -33.9870   24.0810 N   0  0  0  0  0  0  0  0  0  0  0  0
  -25.9510  -35.0640   23.3460 C   0  0  0  0  0  0  0  0  0  0  0  0
  -26.6200  -34.9930   22.3110 O   0  0  0  0  0  0  0  0  0  0  0  0
  -25.0510  -34.1140   24.8880 H   0  0  0  0  0  0  0  0  0  0  0  0
  -24.1840  -36.8340   23.0470 C   0  0  0  0  0  1  0  0  0  0  0  0
  -25.4390  -36.4340   23.8370 C   0  0  0  0  0  3  0  0  0  0  0  0
  -27.5550  -37.3560   24.6750 C   0  0  0  0  0  1  0  0  0  0  0  0
  -26.4480  -37.5120   23.7370 N   0  0  0  0  0  0  0  0  0  0  0  0
  -26.0240  -38.4220   23.8960 H   0  0  0  0  0  0  0  0  0  0  0  0
  -26.5120  -31.8320   25.0100 C   0  0  1  0  0  0  0  0  0  0  0  0
  -25.4130  -31.5630   26.0660 C   0  0  0  0  0  1  0  0  0  0  0  0
  -27.1370  -30.4750   24.6190 C   0  0  0  0  0  1  0  0  0  0  0  0
  -27.6330  -32.6530   25.6920 C   0  0  0  0  0  1  0  0  0  0  0  0
  -30.2010  -18.8070   19.7090 C   0  0  0  0  0  3  0  0  0  0  0  0
  -30.4350  -18.8500   18.2470 N   0  0  0  0  0  4  0  0  0  0  0  0
  -30.3290  -17.9200   17.8770 H   0  0  0  0  0  0  0  0  0  0  0  0
  -29.7150  -19.4210   17.8360 H   0  0  0  0  0  0  0  0  0  0  0  0
  -31.9110  -19.4640   16.3120 C   0  0  0  0  0  1  0  0  0  0  0  0
  -31.7710  -19.3470   17.8370 C   0  0  0  0  0  2  0  0  0  0  0  0
  -29.8990  -17.1000   20.1830 C   0  0  0  0  0  2  0  0  0  0  0  0
  -30.6940  -15.5720   19.8370 C   0  0  0  0  0  0  0  0  0  0  0  0
  -30.6470  -13.1220   18.9630 C   0  0  0  0  0  2  0  0  0  0  0  0
  -29.6680  -12.9370   17.7740 C   0  0  0  0  0  2  0  0  0  0  0  0
  -28.2410  -12.6690   18.2790 C   0  0  0  0  0  2  0  0  0  0  0  0
  -27.8450  -13.6220   19.4330 C   0  0  0  0  0  3  0  0  0  0  0  0
  -28.9440  -13.7600   20.5080 C   0  0  0  0  0  2  0  0  0  0  0  0
  -30.1600  -14.2520   19.8380 N   0  0  0  0  0  0  0  0  0  0  0  0
  -31.8760  -15.5890   19.4640 O   0  0  0  0  0  0  0  0  0  0  0  0
  -25.5200  -14.1680   20.3270 C   0  0  0  0  0  0  0  0  0  0  0  0
  -24.4750  -13.3850   20.7310 C   0  0  0  0  0  0  0  0  0  0  0  0
  -24.9320  -12.0350   20.6350 C   0  0  0  0  0  0  0  0  0  0  0  0
  -26.5440  -13.2960   20.0020 N   0  0  0  0  0  0  0  0  0  0  0  0
  -26.2050  -12.0040   20.2540 N   0  0  0  0  0  0  0  0  0  0  0  0
  -24.2080  -10.7710   20.8320 C   0  0  0  0  0  0  0  0  0  0  0  0
  -24.6230   -9.8210   21.7910 C   0  0  0  0  0  3  0  0  0  0  0  0
  -23.8970   -8.6250   21.9750 C   0  0  0  0  0  3  0  0  0  0  0  0
  -22.7400   -8.3690   21.2010 C   0  0  0  0  0  0  0  0  0  0  0  0
  -22.3430   -9.3090   20.2330 C   0  0  0  0  0  3  0  0  0  0  0  0
  -23.0700  -10.4960   20.0470 C   0  0  0  0  0  3  0  0  0  0  0  0
  -21.9870   -7.2230   21.2930 O   0  0  0  0  0  0  0  0  0  0  0  0
  -21.8470   -6.5490   22.4790 C   0  0  0  0  0  0  0  0  0  0  0  0
  -21.2760   -7.1560   23.6190 C   0  0  0  0  0  3  0  0  0  0  0  0
  -21.0850   -6.4050   24.7950 C   0  0  0  0  0  3  0  0  0  0  0  0
  -21.4550   -5.0470   24.8340 C   0  0  0  0  0  0  0  0  0  0  0  0
  -22.0160   -4.4390   23.6970 C   0  0  0  0  0  3  0  0  0  0  0  0
  -22.2100   -5.1870   22.5240 C   0  0  0  0  0  0  0  0  0  0  0  0
  -22.7320   -4.5900   21.4250 F   0  0  0  0  0  0  0  0  0  0  0  0
  -21.2640   -4.3230   25.9610 F   0  0  0  0  0  0  0  0  0  0  0  0
  -23.0980  -13.8600   21.0890 C   0  0  0  0  0  0  0  0  0  0  0  0
  -22.4210  -13.1530   21.9860 N   0  0  0  0  0  0  0  0  0  0  0  0
  -22.6370  -14.8960   20.6110 O   0  0  0  0  0  0  0  0  0  0  0  0
  -22.8110  -12.3140   22.3880 H   0  0  0  0  0  0  0  0  0  0  0  0
  -21.5000  -13.4540   22.2730 H   0  0  0  0  0  0  0  0  0  0  0  0
  -25.6790  -15.5420   20.1830 N   0  0  0  0  0  0  0  0  0  0  0  0
  -24.9180  -16.1890   20.3620 H   0  0  0  0  0  0  0  0  0  0  0  0
  -26.5080  -15.9960   19.8250 H   0  0  0  0  0  0  0  0  0  0  0  0
  2  1  2  0
  3  1  1  0
  4  5  2  0
  4  6  1  0
  5  2  1  0
  6  3  2  0
  7  8  1  0
  7  5  1  0
  9 20  2  0
 10  8  1  0
 10 15  1  0
 11 19  1  0
 11 21  1  0
 12 18  1  0
 12 14  1  0
 13 19  1  0
 14 13  1  0
 15 14  2  0
 16 17  1  0
 16 10  2  0
 17 12  2  0
 18 11  1  0
 19  9  1  0
 21 23  2  0
 22 21  1  0
 24 22  1  0
 25 34  2  0
 25 30  1  0
 26 22  1  0
 26 30  1  0
 27 26  1  0
 28 29  1  0
 28 27  1  0
 29 25  1  0
 30 31  2  0
 31 32  1  0
 33 32  2  0
 34 33  1  0
 35  9  1  0
 35 36  1  0
 35 45  1  0
 36 39  1  0
 37 41  1  0
 37 36  1  0
 38 37  2  0
 41 40  1  0
 43 41  1  0
 43 44  1  0
 43 42  1  0
 45 48  1  1
 45 46  1  0
 47 45  1  0
 49  6  1  0
 49 55  1  0
 50 49  1  0
 51 50  1  0
 52 50  1  0
 53 54  1  0
 54 50  1  0
 56 62  1  0
 56 55  1  0
 57 62  1  0
 58 59  1  0
 58 57  1  0
 60 59  1  0
 60 67  1  0
 60 61  1  0
 62 61  1  0
 63 56  2  0
 64 65  2  0
 65 84  1  0
 66 65  1  0
 66 69  1  0
 67 68  1  0
 67 64  1  0
 68 66  2  0
 69 70  1  0
 70 71  2  0
 72 75  1  0
 72 71  1  0
 73 72  2  0
 74 73  1  0
 74 69  2  0
 75 76  1  0
 76 81  2  0
 76 77  1  0
 77 78  2  0
 78 79  1  0
 79 83  1  0
 80 79  2  0
 81 80  1  0
 82 81  1  0
 84 85  1  0
 85 88  1  0
 85 87  1  0
 86 84  2  0
 89 64  1  0
 89 90  1  0
 91 89  1  0
M  ISO  4   7 101   8 101  55 100  56 100
M  END
>  <TORSDO>  (78) 
F 21

>  <SCORE>  (78) 
-14.217

>  <name>  (78) 
77

>  <ligand_id>  (78) 
77

>  <original_smiles>  (78) 
[H]c1c([H])c([H])c2c(c1[H])C([H])([H])C([H])([H])C([H])([H])C2([H])N([H])C(=O)C1([H])N(C(=O)C([H])(N([H])C(=O)C([H])(N([H])C([H])([H])[H])C([H])([H])[H])C(C([H])([H])[H])(C([H])([H])[H])C([H])([H])[H])C([H])([H])c2c([H])c(OC([H])([H])c3c([H])c([H])c([H])c(C([H])(C([H])([H])C(=O)N4C([H])([H])C([H])([H])C([H])([H])C([H])(n5nc(-c6c([H])c([H])c(Oc7c([H])c([H])c(F)c([H])c7F)c([H])c6[H])c(C(=O)N([H])[H])c5N([H])[H])C4([H])[H])[N+]([H])([H])C([H])([H])C([H])([H])[H])c3[H])c([H])c([H])c2C1([H])[H]

>  <smiles>  (78) 
[H]c1c([H])c([H])c2c(c1[H])C([H])([H])C([H])([H])C([H])([H])C2([H])N([H])C(=O)C1([H])N(C(=O)C([H])(N([H])C(=O)C([H])(N([H])C([H])([H])[H])C([H])([H])[H])C(C([H])([H])[H])(C([H])([H])[H])C([H])([H])[H])C([H])([H])c2c([H])c(OC([H])([H])c3c([H])c([H])c([H])c(C([H])(C([H])([H])C(=O)N4C([H])([H])C([H])([H])C([H])([H])C([H])(n5nc(-c6c([H])c([H])c(Oc7c([H])c([H])c(F)c([H])c7F)c([H])c6[H])c(C(=O)N([H])[H])c5N([H])[H])C4([H])[H])[N+]([H])([H])C([H])([H])C([H])([H])[H])c3[H])c([H])c([H])c2C1([H])[H]

$$$$
78:0:0
     RDKit          3D

 94102  0  0  1  0  0  0  0  0999 V2000
  -30.3210  -19.4730   20.0970 C   0  0  0  0  0  2  0  0  0  0  0  0
  -29.0450  -21.9020   22.8440 C   0  0  0  0  0  3  0  0  0  0  0  0
  -30.1780  -22.0170   23.6670 C   0  0  0  0  0  3  0  0  0  0  0  0
  -29.0710  -21.0060   21.7590 C   0  0  0  0  0  3  0  0  0  0  0  0
  -31.2840  -20.2190   22.4160 C   0  0  0  0  0  3  0  0  0  0  0  0
  -31.2910  -21.1760   23.4740 C   0  0  0  0  0  0  0  0  0  0  0  0
  -30.2020  -20.1720   21.4930 C   0  0  0  0  0  0  0  0  0  0  0  0
  -32.5190  -21.3890   24.3490 C   0  0  0  0  0  1  0  0  0  0  0  0
  -28.1180  -17.0840   21.1410 C   0  0  0  0  0  2  0  0  0  0  0  0
  -28.6220  -17.2680   19.7120 C   0  0  0  0  0  2  0  0  0  0  0  0
  -29.5280  -17.2980   21.6630 C   0  0  0  0  0  2  0  0  0  0  0  0
  -30.0520  -17.5210   20.2160 C   0  0  0  0  0  3  0  0  0  0  0  0
  -30.9190  -15.8230   19.9910 C   0  0  0  0  0  0  0  0  0  0  0  0
  -31.0370  -13.1970   19.2680 C   0  0  0  0  0  2  0  0  0  0  0  0
  -30.1370  -12.7370   18.0730 C   0  0  0  0  0  2  0  0  0  0  0  0
  -28.6960  -12.4370   18.5250 C   0  0  0  0  0  2  0  0  0  0  0  0
  -28.2110  -13.5200   19.5180 C   0  0  0  0  0  3  0  0  0  0  0  0
  -29.2520  -13.7730   20.6420 C   0  0  0  0  0  2  0  0  0  0  0  0
  -30.4400  -14.4150   20.0090 N   0  0  0  0  0  0  0  0  0  0  0  0
  -32.1340  -15.7590   19.6980 O   0  0  0  0  0  0  0  0  0  0  0  0
  -25.8400  -14.1560   20.2630 C   0  0  0  0  0  0  0  0  0  0  0  0
  -24.7690  -13.4420   20.6770 C   0  0  0  0  0  0  0  0  0  0  0  0
  -25.1710  -12.0720   20.6100 C   0  0  0  0  0  0  0  0  0  0  0  0
  -26.8670  -13.2540   20.0340 N   0  0  0  0  0  0  0  0  0  0  0  0
  -26.4560  -11.9840   20.2880 N   0  0  0  0  0  0  0  0  0  0  0  0
  -24.3790  -10.8530   20.7780 C   0  0  0  0  0  0  0  0  0  0  0  0
  -24.7850   -9.7950   21.6200 C   0  0  0  0  0  3  0  0  0  0  0  0
  -23.9730   -8.6530   21.7700 C   0  0  0  0  0  3  0  0  0  0  0  0
  -22.7440   -8.5520   21.0770 C   0  0  0  0  0  0  0  0  0  0  0  0
  -22.3570   -9.5960   20.2260 C   0  0  0  0  0  3  0  0  0  0  0  0
  -23.1700  -10.7290   20.0740 C   0  0  0  0  0  3  0  0  0  0  0  0
  -21.9130   -7.4610   21.1330 O   0  0  0  0  0  0  0  0  0  0  0  0
  -21.9250   -6.6140   22.2090 C   0  0  0  0  0  0  0  0  0  0  0  0
  -21.6990   -7.0730   23.5260 C   0  0  0  0  0  3  0  0  0  0  0  0
  -21.6470   -6.1520   24.5910 C   0  0  0  0  0  3  0  0  0  0  0  0
  -21.8170   -4.7760   24.3490 C   0  0  0  0  0  0  0  0  0  0  0  0
  -22.0310   -4.3210   23.0360 C   0  0  0  0  0  3  0  0  0  0  0  0
  -22.0830   -5.2350   21.9710 C   0  0  0  0  0  0  0  0  0  0  0  0
  -22.2720   -4.7830   20.7060 F   0  0  0  0  0  0  0  0  0  0  0  0
  -21.7560   -3.8910   25.3730 F   0  0  0  0  0  0  0  0  0  0  0  0
  -23.4110  -13.9890   21.0060 C   0  0  0  0  0  0  0  0  0  0  0  0
  -22.6890  -13.3270   21.8960 N   0  0  0  0  0  0  0  0  0  0  0  0
  -23.0250  -15.0580   20.5300 O   0  0  0  0  0  0  0  0  0  0  0  0
  -23.0450  -12.4750   22.3010 H   0  0  0  0  0  0  0  0  0  0  0  0
  -21.7910  -13.6850   22.2030 H   0  0  0  0  0  0  0  0  0  0  0  0
  -25.9810  -15.5050   19.9900 N   0  0  0  0  0  0  0  0  0  0  0  0
  -25.2290  -16.1670   20.1470 H   0  0  0  0  0  0  0  0  0  0  0  0
  -26.8570  -15.9480   19.7330 H   0  0  0  0  0  0  0  0  0  0  0  0
  -29.4780  -20.8140   19.4100 N   0  0  0  0  0  4  0  0  0  0  0  0
  -29.5130  -20.6810   18.4110 H   0  0  0  0  0  0  0  0  0  0  0  0
  -28.5250  -20.6200   19.6600 H   0  0  0  0  0  0  0  0  0  0  0  0
  -29.6320  -22.5260   19.6530 C   0  0  0  0  0  3  0  0  0  0  0  0
  -28.5170  -24.0440   19.5750 C   0  0  0  0  0  3  0  0  0  0  0  0
  -28.6540  -25.7500   19.7620 O   0  0  0  0  0  0  0  0  0  0  0  0
  -24.9800  -31.5710   23.2060 C   0  0  0  0  0  0  0  0  0  0  0  0
  -27.6210  -26.8830   19.8000 C   0  0  0  0  0  0  0  0  0  0  0  0
  -23.8090  -30.2420   21.5080 C   0  0  0  0  0  3  0  0  0  0  0  0
  -25.2810  -28.7790   19.9340 C   0  0  0  0  0  0  0  0  0  0  0  0
  -26.3680  -30.5150   21.3340 C   0  0  0  0  0  2  0  0  0  0  0  0
  -26.4720  -29.1500   20.5670 C   0  0  0  0  0  0  0  0  0  0  0  0
  -27.6290  -28.2270   20.4710 C   0  0  0  0  0  3  0  0  0  0  0  0
  -26.3850  -26.6980   19.1330 C   0  0  0  0  0  3  0  0  0  0  0  0
  -25.2720  -27.5870   19.1920 C   0  0  0  0  0  3  0  0  0  0  0  0
  -24.0350  -29.6580   20.0840 C   0  0  0  0  0  2  0  0  0  0  0  0
  -25.0760  -30.7960   22.0730 N   0  0  0  0  0  0  0  0  0  0  0  0
  -23.8890  -31.7950   23.7560 O   0  0  0  0  0  0  0  0  0  0  0  0
  -23.1490  -29.1780   22.4230 C   0  0  0  0  0  0  0  0  0  0  0  0
  -21.8330  -28.9380   22.2610 N   0  0  0  0  0  0  0  0  0  0  0  0
  -23.8290  -28.5650   23.2470 O   0  0  0  0  0  0  0  0  0  0  0  0
  -21.3340  -29.4910   21.5770 H   0  0  0  0  0  0  0  0  0  0  0  0
  -18.5410  -27.4290   22.5920 C   0  0  0  0  0  0  0  0  0  0  0  0
  -21.0530  -27.9180   22.9750 C   0  0  0  0  0  3  0  0  0  0  0  0
  -21.3100  -26.5150   22.3790 C   0  0  0  0  0  2  0  0  0  0  0  0
  -20.2870  -26.1170   21.3120 C   0  0  0  0  0  2  0  0  0  0  0  0
  -18.8690  -26.1190   21.8930 C   0  0  0  0  0  2  0  0  0  0  0  0
  -19.5670  -28.2780   23.0810 C   0  0  0  0  0  0  0  0  0  0  0  0
  -19.2120  -29.4920   23.7030 C   0  0  0  0  0  3  0  0  0  0  0  0
  -17.8620  -29.8670   23.8310 C   0  0  0  0  0  3  0  0  0  0  0  0
  -16.8490  -29.0150   23.3590 C   0  0  0  0  0  3  0  0  0  0  0  0
  -17.1880  -27.7970   22.7450 C   0  0  0  0  0  3  0  0  0  0  0  0
  -26.2310  -32.2200   23.8660 C   0  0  0  0  0  3  0  0  0  0  0  0
  -25.8780  -33.5890   24.2850 N   0  0  0  0  0  0  0  0  0  0  0  0
  -26.1890  -34.7040   23.6060 C   0  0  0  0  0  0  0  0  0  0  0  0
  -26.8580  -34.6900   22.5700 O   0  0  0  0  0  0  0  0  0  0  0  0
  -25.2870  -33.6790   25.0970 H   0  0  0  0  0  0  0  0  0  0  0  0
  -24.4020  -36.4710   23.4210 C   0  0  0  0  0  1  0  0  0  0  0  0
  -25.6800  -36.0540   24.1630 C   0  0  0  0  0  3  0  0  0  0  0  0
  -27.8170  -36.9410   24.9810 C   0  0  0  0  0  1  0  0  0  0  0  0
  -26.6850  -37.1400   24.0820 N   0  0  0  0  0  0  0  0  0  0  0  0
  -26.2650  -38.0380   24.3090 H   0  0  0  0  0  0  0  0  0  0  0  0
  -26.7720  -31.4030   25.1030 C   0  0  1  0  0  0  0  0  0  0  0  0
  -25.6860  -31.0990   26.1620 C   0  0  0  0  0  1  0  0  0  0  0  0
  -27.3750  -30.0530   24.6520 C   0  0  0  0  0  1  0  0  0  0  0  0
  -27.9150  -32.1900   25.7870 C   0  0  0  0  0  1  0  0  0  0  0  0
  1  7  1  0
  2  3  1  0
  4  2  2  0
  5  6  1  0
  6  3  2  0
  6  8  1  0
  7  4  1  0
  7  5  2  0
  9 11  1  0
 10 12  1  0
 10  9  1  0
 12 11  1  0
 13 19  1  0
 13 12  1  0
 14 19  1  0
 15 16  1  0
 15 14  1  0
 17 16  1  0
 17 24  1  0
 17 18  1  0
 19 18  1  0
 20 13  2  0
 21 22  2  0
 22 41  1  0
 23 22  1  0
 23 26  1  0
 24 21  1  0
 24 25  1  0
 25 23  2  0
 26 27  1  0
 27 28  2  0
 29 32  1  0
 29 28  1  0
 30 29  2  0
 31 30  1  0
 31 26  2  0
 32 33  1  0
 33 34  1  0
 34 35  2  0
 36 35  1  0
 36 40  1  0
 37 36  2  0
 38 33  2  0
 38 37  1  0
 39 38  1  0
 41 42  1  0
 42 45  1  0
 42 44  1  0
 43 41  2  0
 46 47  1  0
 46 21  1  0
 48 46  1  0
 49 52  1  0
 49 51  1  0
 49  1  1  0
 50 49  1  0
 53 52  2  0
 53 54  1  0
 54 56  1  0
 55 66  2  0
 56 61  1  0
 57 65  1  0
 57 67  1  0
 58 64  1  0
 58 60  1  0
 59 65  1  0
 60 59  1  0
 61 60  2  0
 62 63  1  0
 62 56  2  0
 63 58  2  0
 64 57  1  0
 65 55  1  0
 67 69  2  0
 68 67  1  0
 70 68  1  0
 71 80  2  0
 71 76  1  0
 72 68  1  0
 72 76  1  0
 73 72  1  0
 74 75  1  0
 74 73  1  0
 75 71  1  0
 76 77  2  0
 77 78  1  0
 79 78  2  0
 80 79  1  0
 81 55  1  0
 81 82  1  0
 81 91  1  0
 82 85  1  0
 83 87  1  0
 83 82  1  0
 84 83  2  0
 87 86  1  0
 89 87  1  0
 89 90  1  0
 89 88  1  0
 91 94  1  1
 91 92  1  0
 93 91  1  0
M  ISO  4  12 100  13 100  53 101  54 101
M  END
>  <TORSDO>  (79) 
F 21

>  <SCORE>  (79) 
-13.787

>  <name>  (79) 
78

>  <ligand_id>  (79) 
78

>  <original_smiles>  (79) 
[H]c1c([H])c([H])c2c(c1[H])C([H])([H])C([H])([H])C([H])([H])C2([H])N([H])C(=O)C1([H])N(C(=O)C([H])(N([H])C(=O)C([H])(N([H])C([H])([H])[H])C([H])([H])[H])C(C([H])([H])[H])(C([H])([H])[H])C([H])([H])[H])C([H])([H])c2c([H])c(OC([H])([H])C([H])([H])[N+]([H])([H])C([H])(c3c([H])c([H])c([H])c(C([H])([H])[H])c3[H])C3(C(=O)N4C([H])([H])C([H])([H])C([H])([H])C([H])(n5nc(-c6c([H])c([H])c(Oc7c([H])c([H])c(F)c([H])c7F)c([H])c6[H])c(C(=O)N([H])[H])c5N([H])[H])C4([H])[H])C([H])([H])C([H])([H])C3([H])[H])c([H])c([H])c2C1([H])[H]

>  <smiles>  (79) 
[H]c1c([H])c([H])c2c(c1[H])C([H])([H])C([H])([H])C([H])([H])C2([H])N([H])C(=O)C1([H])N(C(=O)C([H])(N([H])C(=O)C([H])(N([H])C([H])([H])[H])C([H])([H])[H])C(C([H])([H])[H])(C([H])([H])[H])C([H])([H])[H])C([H])([H])c2c([H])c(OC([H])([H])C([H])([H])[N+]([H])([H])C([H])(c3c([H])c([H])c([H])c(C([H])([H])[H])c3[H])C3(C(=O)N4C([H])([H])C([H])([H])C([H])([H])C([H])(n5nc(-c6c([H])c([H])c(Oc7c([H])c([H])c(F)c([H])c7F)c([H])c6[H])c(C(=O)N([H])[H])c5N([H])[H])C4([H])[H])C([H])([H])C([H])([H])C3([H])[H])c([H])c([H])c2C1([H])[H]

$$$$
79:0:0
     RDKit          3D

 92100  0  0  1  0  0  0  0  0999 V2000
  -28.1600  -21.5570   18.5790 C   0  0  0  0  0  3  0  0  0  0  0  0
  -27.6350  -22.7070   17.9490 C   0  0  0  0  0  3  0  0  0  0  0  0
  -28.9300  -21.6120   19.7540 C   0  0  0  0  0  0  0  0  0  0  0  0
  -27.7570  -24.0340   18.4390 C   0  0  0  0  0  0  0  0  0  0  0  0
  -28.9240  -23.0560   20.3210 C   0  0  0  0  0  0  0  0  0  0  0  0
  -28.2740  -24.3390   19.7350 C   0  0  0  0  0  0  0  0  0  0  0  0
  -27.4150  -25.1210   17.4260 C   0  0  0  0  0  1  0  0  0  0  0  0
  -29.7190  -23.2610   21.5920 C   0  0  0  0  0  1  0  0  0  0  0  0
  -28.2790  -25.8170   20.1740 O   0  0  0  0  0  0  0  0  0  0  0  0
  -24.6490  -31.7720   23.1280 C   0  0  0  0  0  0  0  0  0  0  0  0
  -27.2410  -26.8960   20.1250 C   0  0  0  0  0  0  0  0  0  0  0  0
  -23.4710  -30.3710   21.4850 C   0  0  0  0  0  3  0  0  0  0  0  0
  -24.9290  -28.7700   20.0810 C   0  0  0  0  0  0  0  0  0  0  0  0
  -26.0390  -30.5900   21.3520 C   0  0  0  0  0  2  0  0  0  0  0  0
  -26.1180  -29.1820   20.6950 C   0  0  0  0  0  0  0  0  0  0  0  0
  -27.2690  -28.2690   20.6860 C   0  0  0  0  0  3  0  0  0  0  0  0
  -25.9900  -26.6190   19.5260 C   0  0  0  0  0  3  0  0  0  0  0  0
  -24.8890  -27.5060   19.4800 C   0  0  0  0  0  3  0  0  0  0  0  0
  -23.7100  -29.6880   20.1140 C   0  0  0  0  0  2  0  0  0  0  0  0
  -24.7420  -30.9370   22.0430 N   0  0  0  0  0  0  0  0  0  0  0  0
  -23.5560  -32.0590   23.6400 O   0  0  0  0  0  0  0  0  0  0  0  0
  -22.7710  -29.3740   22.4460 C   0  0  0  0  0  0  0  0  0  0  0  0
  -21.4410  -29.2140   22.3180 N   0  0  0  0  0  0  0  0  0  0  0  0
  -23.4320  -28.7450   23.2760 O   0  0  0  0  0  0  0  0  0  0  0  0
  -20.9600  -29.7720   21.6270 H   0  0  0  0  0  0  0  0  0  0  0  0
  -18.0550  -27.9990   22.8010 C   0  0  0  0  0  0  0  0  0  0  0  0
  -20.6120  -28.2770   23.0860 C   0  0  0  0  0  3  0  0  0  0  0  0
  -20.7230  -26.8420   22.5200 C   0  0  0  0  0  2  0  0  0  0  0  0
  -19.6310  -26.5090   21.4970 C   0  0  0  0  0  2  0  0  0  0  0  0
  -18.2430  -26.6500   22.1290 C   0  0  0  0  0  2  0  0  0  0  0  0
  -19.1660  -28.7710   23.2350 C   0  0  0  0  0  0  0  0  0  0  0  0
  -18.9340  -30.0310   23.8260 C   0  0  0  0  0  3  0  0  0  0  0  0
  -17.6250  -30.5220   23.9840 C   0  0  0  0  0  3  0  0  0  0  0  0
  -16.5280  -29.7500   23.5640 C   0  0  0  0  0  3  0  0  0  0  0  0
  -16.7440  -28.4900   22.9790 C   0  0  0  0  0  3  0  0  0  0  0  0
  -25.9140  -32.4180   23.7690 C   0  0  0  0  0  3  0  0  0  0  0  0
  -26.4170  -31.6500   25.0540 C   0  0  1  0  0  0  0  0  0  0  0  0
  -25.3120  -31.4070   26.1090 C   0  0  0  0  0  1  0  0  0  0  0  0
  -27.0120  -30.2750   24.6770 C   0  0  0  0  0  1  0  0  0  0  0  0
  -27.5550  -32.4510   25.7310 C   0  0  0  0  0  1  0  0  0  0  0  0
  -25.5850  -33.8130   24.1110 N   0  0  0  0  0  0  0  0  0  0  0  0
  -25.9100  -34.8830   23.3720 C   0  0  0  0  0  0  0  0  0  0  0  0
  -26.5830  -34.7990   22.3410 O   0  0  0  0  0  0  0  0  0  0  0  0
  -24.9870  -33.9520   24.9130 H   0  0  0  0  0  0  0  0  0  0  0  0
  -24.1860  -36.6880   23.0310 C   0  0  0  0  0  1  0  0  0  0  0  0
  -25.4170  -36.2640   23.8500 C   0  0  0  0  0  3  0  0  0  0  0  0
  -27.5330  -37.1440   24.7360 C   0  0  0  0  0  1  0  0  0  0  0  0
  -26.4500  -37.3210   23.7710 N   0  0  0  0  0  0  0  0  0  0  0  0
  -26.0400  -38.2380   23.9190 H   0  0  0  0  0  0  0  0  0  0  0  0
  -29.8600  -20.1530   20.0150 C   0  0  0  0  0  2  0  0  0  0  0  0
  -29.5250  -18.4200   20.3720 C   0  0  0  0  0  3  0  0  0  0  0  0
  -29.5650  -18.2610   21.8360 N   0  0  0  0  0  4  0  0  0  0  0  0
  -30.5150  -18.2200   22.1650 H   0  0  0  0  0  0  0  0  0  0  0  0
  -29.0830  -17.4310   22.1280 H   0  0  0  0  0  0  0  0  0  0  0  0
  -29.1160  -19.0450   22.2760 H   0  0  0  0  0  0  0  0  0  0  0  0
  -29.9110  -16.8290   19.5920 C   0  0  0  0  0  2  0  0  0  0  0  0
  -30.6720  -15.2630   19.8640 C   0  0  0  0  0  0  0  0  0  0  0  0
  -30.5670  -12.8420   18.9430 C   0  0  0  0  0  2  0  0  0  0  0  0
  -29.5610  -12.6940   17.7730 C   0  0  0  0  0  2  0  0  0  0  0  0
  -28.1410  -12.4230   18.2990 C   0  0  0  0  0  2  0  0  0  0  0  0
  -27.7760  -13.3530   19.4820 C   0  0  0  0  0  3  0  0  0  0  0  0
  -28.8990  -13.4640   20.5300 C   0  0  0  0  0  2  0  0  0  0  0  0
  -30.0980  -13.9620   19.8350 N   0  0  0  0  0  0  0  0  0  0  0  0
  -31.8990  -15.2150   19.6920 O   0  0  0  0  0  0  0  0  0  0  0  0
  -25.4760  -13.9010   20.4360 C   0  0  0  0  0  0  0  0  0  0  0  0
  -24.4340  -13.1200   20.8510 C   0  0  0  0  0  0  0  0  0  0  0  0
  -24.8830  -11.7690   20.7360 C   0  0  0  0  0  0  0  0  0  0  0  0
  -26.4870  -13.0270   20.0800 N   0  0  0  0  0  0  0  0  0  0  0  0
  -26.1490  -11.7350   20.3310 N   0  0  0  0  0  0  0  0  0  0  0  0
  -24.1560  -10.5060   20.9290 C   0  0  0  0  0  0  0  0  0  0  0  0
  -24.5850   -9.5390   21.8650 C   0  0  0  0  0  3  0  0  0  0  0  0
  -23.8550   -8.3440   22.0460 C   0  0  0  0  0  3  0  0  0  0  0  0
  -22.6830   -8.1070   21.2900 C   0  0  0  0  0  0  0  0  0  0  0  0
  -22.2730   -9.0620   20.3430 C   0  0  0  0  0  3  0  0  0  0  0  0
  -23.0030  -10.2490   20.1590 C   0  0  0  0  0  3  0  0  0  0  0  0
  -21.9250   -6.9640   21.3790 O   0  0  0  0  0  0  0  0  0  0  0  0
  -21.7980   -6.2750   22.5590 C   0  0  0  0  0  0  0  0  0  0  0  0
  -21.2540   -6.8740   23.7160 C   0  0  0  0  0  3  0  0  0  0  0  0
  -21.0770   -6.1100   24.8880 C   0  0  0  0  0  3  0  0  0  0  0  0
  -21.4330   -4.7490   24.9020 C   0  0  0  0  0  0  0  0  0  0  0  0
  -21.9700   -4.1490   23.7490 C   0  0  0  0  0  3  0  0  0  0  0  0
  -22.1480   -4.9100   22.5790 C   0  0  0  0  0  0  0  0  0  0  0  0
  -22.6460   -4.3220   21.4650 F   0  0  0  0  0  0  0  0  0  0  0  0
  -21.2570   -4.0120   26.0240 F   0  0  0  0  0  0  0  0  0  0  0  0
  -23.0630  -13.6000   21.2320 C   0  0  0  0  0  0  0  0  0  0  0  0
  -22.3950  -12.8890   22.1320 N   0  0  0  0  0  0  0  0  0  0  0  0
  -22.5990  -14.6380   20.7650 O   0  0  0  0  0  0  0  0  0  0  0  0
  -22.7860  -12.0490   22.5310 H   0  0  0  0  0  0  0  0  0  0  0  0
  -21.4760  -13.1900   22.4270 H   0  0  0  0  0  0  0  0  0  0  0  0
  -25.6420  -15.2770   20.3000 N   0  0  0  0  0  0  0  0  0  0  0  0
  -24.8840  -15.9290   20.4770 H   0  0  0  0  0  0  0  0  0  0  0  0
  -26.4490  -15.7150   19.8780 H   0  0  0  0  0  0  0  0  0  0  0  0
  1  3  1  0
  2  4  1  0
  2  1  2  0
  3 50  1  0
  3  5  2  0
  4  6  2  0
  5  8  1  0
  6  9  1  0
  6  5  1  0
  7  4  1  0
 10 21  2  0
 11  9  1  0
 11 16  1  0
 12 20  1  0
 12 22  1  0
 13 19  1  0
 13 15  1  0
 14 20  1  0
 15 14  1  0
 16 15  2  0
 17 11  2  0
 18 17  1  0
 18 13  2  0
 19 12  1  0
 20 10  1  0
 22 24  2  0
 23 22  1  0
 25 23  1  0
 26 35  2  0
 26 31  1  0
 27 23  1  0
 27 31  1  0
 28 27  1  0
 29 30  1  0
 29 28  1  0
 30 26  1  0
 31 32  2  0
 32 33  1  0
 34 33  2  0
 35 34  1  0
 36 10  1  0
 36 41  1  0
 36 37  1  0
 37 40  1  1
 37 38  1  0
 39 37  1  0
 41 44  1  0
 42 46  1  0
 42 41  1  0
 43 42  2  0
 46 45  1  0
 48 46  1  0
 48 49  1  0
 48 47  1  0
 50 51  1  0
 51 56  1  0
 51 52  1  0
 52 54  1  0
 52 53  1  0
 52 55  1  0
 56 57  1  0
 58 63  1  0
 59 60  1  0
 59 58  1  0
 61 60  1  0
 61 68  1  0
 61 62  1  0
 63 57  1  0
 63 62  1  0
 64 57  2  0
 65 66  2  0
 66 85  1  0
 67 66  1  0
 67 70  1  0
 68 69  1  0
 68 65  1  0
 69 67  2  0
 70 71  1  0
 71 72  2  0
 73 76  1  0
 73 72  1  0
 74 73  2  0
 75 74  1  0
 75 70  2  0
 76 77  1  0
 77 82  2  0
 77 78  1  0
 78 79  2  0
 79 80  1  0
 80 84  1  0
 81 80  2  0
 82 81  1  0
 83 82  1  0
 85 86  1  0
 86 89  1  0
 86 88  1  0
 87 85  2  0
 90 65  1  0
 90 91  1  0
 92 90  1  0
M  ISO  4   6 101   9 101  56 100  57 100
M  END
>  <TORSDO>  (80) 
F 20

>  <SCORE>  (80) 
-15.313

>  <name>  (80) 
79

>  <ligand_id>  (80) 
79

>  <original_smiles>  (80) 
[H]c1c([H])c([H])c2c(c1[H])C([H])([H])C([H])([H])C([H])([H])C2([H])N([H])C(=O)C1([H])N(C(=O)C([H])(N([H])C(=O)C([H])(N([H])C([H])([H])[H])C([H])([H])[H])C(C([H])([H])[H])(C([H])([H])[H])C([H])([H])[H])C([H])([H])c2c([H])c(Oc3c(C([H])([H])[H])c([H])c([H])c(C([H])([H])C([H])(C([H])([H])C(=O)N4C([H])([H])C([H])([H])C([H])([H])C([H])(n5nc(-c6c([H])c([H])c(Oc7c([H])c([H])c(F)c([H])c7F)c([H])c6[H])c(C(=O)N([H])[H])c5N([H])[H])C4([H])[H])[N+]([H])([H])[H])c3C([H])([H])[H])c([H])c([H])c2C1([H])[H]

>  <smiles>  (80) 
[H]c1c([H])c([H])c2c(c1[H])C([H])([H])C([H])([H])C([H])([H])C2([H])N([H])C(=O)C1([H])N(C(=O)C([H])(N([H])C(=O)C([H])(N([H])C([H])([H])[H])C([H])([H])[H])C(C([H])([H])[H])(C([H])([H])[H])C([H])([H])[H])C([H])([H])c2c([H])c(Oc3c(C([H])([H])[H])c([H])c([H])c(C([H])([H])C([H])(C([H])([H])C(=O)N4C([H])([H])C([H])([H])C([H])([H])C([H])(n5nc(-c6c([H])c([H])c(Oc7c([H])c([H])c(F)c([H])c7F)c([H])c6[H])c(C(=O)N([H])[H])c5N([H])[H])C4([H])[H])[N+]([H])([H])[H])c3C([H])([H])[H])c([H])c([H])c2C1([H])[H]

$$$$
80:0:0
     RDKit          3D

 89 98  0  0  1  0  0  0  0  0999 V2000
  -29.9630  -20.8250   20.7070 C   0  0  0  0  0  3  0  0  0  0  0  0
  -29.7020  -19.4020   20.3050 C   0  0  0  0  0  0  0  0  0  0  0  0
  -28.5980  -19.4030   19.5000 C   0  0  0  0  0  0  0  0  0  0  0  0
  -29.1170  -21.8730   20.2270 C   0  0  0  0  0  0  0  0  0  0  0  0
  -30.4510  -17.9870   20.5980 C   0  0  0  0  0  2  0  0  0  0  0  0
  -28.0350  -18.1430   18.8960 C   0  0  0  0  0  2  0  0  0  0  0  0
  -29.0180  -16.9190   18.8800 C   0  0  0  0  0  2  0  0  0  0  0  0
  -29.7120  -16.5380   20.2360 C   0  0  2  0  0  0  0  0  0  0  0  0
  -28.6680  -16.3830   21.3650 C   0  0  0  0  0  1  0  0  0  0  0  0
  -27.9290  -21.0410   19.2240 S   0  0  0  0  0  0  0  0  0  0  0  0
  -30.5560  -15.0770   20.0670 C   0  0  0  0  0  0  0  0  0  0  0  0
  -30.4950  -12.7040   19.1450 C   0  0  0  0  0  2  0  0  0  0  0  0
  -29.5030  -12.6170   17.9560 C   0  0  0  0  0  2  0  0  0  0  0  0
  -28.0610  -12.3660   18.4440 C   0  0  0  0  0  2  0  0  0  0  0  0
  -27.6820  -13.2700   19.6450 C   0  0  0  0  0  3  0  0  0  0  0  0
  -28.7940  -13.2710   20.7120 C   0  0  0  0  0  2  0  0  0  0  0  0
  -30.0220  -13.7760   20.0720 N   0  0  0  0  0  0  0  0  0  0  0  0
  -31.7460  -15.1460   19.7380 O   0  0  0  0  0  0  0  0  0  0  0  0
  -25.3350  -13.8380   20.4960 C   0  0  0  0  0  0  0  0  0  0  0  0
  -24.2910  -13.0520   20.8950 C   0  0  0  0  0  0  0  0  0  0  0  0
  -24.7550  -11.7050   20.8010 C   0  0  0  0  0  0  0  0  0  0  0  0
  -26.3690  -12.9650   20.1910 N   0  0  0  0  0  0  0  0  0  0  0  0
  -26.0300  -11.6750   20.4340 N   0  0  0  0  0  0  0  0  0  0  0  0
  -24.0400  -10.4370   20.9800 C   0  0  0  0  0  0  0  0  0  0  0  0
  -24.4770   -9.4720   21.9130 C   0  0  0  0  0  3  0  0  0  0  0  0
  -23.7620   -8.2660   22.0810 C   0  0  0  0  0  3  0  0  0  0  0  0
  -22.5970   -8.0190   21.3180 C   0  0  0  0  0  0  0  0  0  0  0  0
  -22.1820   -8.9730   20.3720 C   0  0  0  0  0  3  0  0  0  0  0  0
  -22.8960  -10.1700   20.2010 C   0  0  0  0  0  3  0  0  0  0  0  0
  -21.8540   -6.8670   21.3970 O   0  0  0  0  0  0  0  0  0  0  0  0
  -21.7320   -6.1680   22.5700 C   0  0  0  0  0  0  0  0  0  0  0  0
  -21.1940   -6.7560   23.7350 C   0  0  0  0  0  3  0  0  0  0  0  0
  -21.0220   -5.9800   24.9000 C   0  0  0  0  0  3  0  0  0  0  0  0
  -21.3780   -4.6190   24.8980 C   0  0  0  0  0  0  0  0  0  0  0  0
  -21.9090   -4.0310   23.7360 C   0  0  0  0  0  3  0  0  0  0  0  0
  -22.0810   -4.8030   22.5740 C   0  0  0  0  0  0  0  0  0  0  0  0
  -22.5730   -4.2260   21.4510 F   0  0  0  0  0  0  0  0  0  0  0  0
  -21.2070   -3.8720   26.0140 F   0  0  0  0  0  0  0  0  0  0  0  0
  -22.9070  -13.5190   21.2440 C   0  0  0  0  0  0  0  0  0  0  0  0
  -22.2220  -12.7990   22.1250 N   0  0  0  0  0  0  0  0  0  0  0  0
  -22.4430  -14.5570   20.7730 O   0  0  0  0  0  0  0  0  0  0  0  0
  -22.6150  -11.9610   22.5300 H   0  0  0  0  0  0  0  0  0  0  0  0
  -21.2980  -13.0960   22.4080 H   0  0  0  0  0  0  0  0  0  0  0  0
  -25.4800  -15.2140   20.3420 N   0  0  0  0  0  0  0  0  0  0  0  0
  -24.7140  -15.8580   20.4990 H   0  0  0  0  0  0  0  0  0  0  0  0
  -26.3090  -15.6640   19.9780 H   0  0  0  0  0  0  0  0  0  0  0  0
  -29.2240  -23.5100   20.3860 C   0  0  0  0  0  3  0  0  0  0  0  0
  -28.0710  -24.7130   20.1410 C   0  0  0  0  0  3  0  0  0  0  0  0
  -28.2960  -26.2480   20.3170 O   0  0  0  0  0  0  0  0  0  0  0  0
  -24.6400  -31.9270   23.2700 C   0  0  0  0  0  0  0  0  0  0  0  0
  -27.2280  -27.2160   20.2490 C   0  0  0  0  0  0  0  0  0  0  0  0
  -23.4470  -30.5420   21.6160 C   0  0  0  0  0  3  0  0  0  0  0  0
  -24.9000  -28.9610   20.2020 C   0  0  0  0  0  0  0  0  0  0  0  0
  -26.0030  -30.7960   21.4720 C   0  0  0  0  0  2  0  0  0  0  0  0
  -26.0760  -29.4060   20.8190 C   0  0  0  0  0  0  0  0  0  0  0  0
  -27.2400  -28.5500   20.8240 C   0  0  0  0  0  3  0  0  0  0  0  0
  -26.0220  -26.8660   19.6010 C   0  0  0  0  0  3  0  0  0  0  0  0
  -24.8850  -27.7050   19.5790 C   0  0  0  0  0  3  0  0  0  0  0  0
  -23.6760  -29.8650   20.2390 C   0  0  0  0  0  2  0  0  0  0  0  0
  -24.7160  -31.1110   22.1750 N   0  0  0  0  0  0  0  0  0  0  0  0
  -23.5520  -32.2140   23.7910 O   0  0  0  0  0  0  0  0  0  0  0  0
  -22.7530  -29.5380   22.5710 C   0  0  0  0  0  0  0  0  0  0  0  0
  -21.4270  -29.3730   22.4310 N   0  0  0  0  0  0  0  0  0  0  0  0
  -23.4150  -28.9070   23.4020 O   0  0  0  0  0  0  0  0  0  0  0  0
  -20.9500  -29.9300   21.7360 H   0  0  0  0  0  0  0  0  0  0  0  0
  -18.0310  -28.2100   22.9210 C   0  0  0  0  0  0  0  0  0  0  0  0
  -20.5930  -28.4380   23.1930 C   0  0  0  0  0  3  0  0  0  0  0  0
  -20.6780  -27.0100   22.6040 C   0  0  0  0  0  2  0  0  0  0  0  0
  -19.5730  -26.7110   21.5860 C   0  0  0  0  0  2  0  0  0  0  0  0
  -18.1920  -26.8660   22.2310 C   0  0  0  0  0  2  0  0  0  0  0  0
  -19.1590  -28.9550   23.3580 C   0  0  0  0  0  0  0  0  0  0  0  0
  -18.9530  -30.2120   23.9660 C   0  0  0  0  0  3  0  0  0  0  0  0
  -17.6540  -30.7260   24.1380 C   0  0  0  0  0  3  0  0  0  0  0  0
  -16.5410  -29.9790   23.7160 C   0  0  0  0  0  3  0  0  0  0  0  0
  -16.7300  -28.7220   23.1140 C   0  0  0  0  0  3  0  0  0  0  0  0
  -25.9170  -32.5540   23.9100 C   0  0  0  0  0  3  0  0  0  0  0  0
  -25.6120  -33.9570   24.2370 N   0  0  0  0  0  0  0  0  0  0  0  0
  -25.9320  -35.0070   23.4700 C   0  0  0  0  0  0  0  0  0  0  0  0
  -26.5830  -34.8980   22.4270 O   0  0  0  0  0  0  0  0  0  0  0  0
  -25.0330  -34.1140   25.0480 H   0  0  0  0  0  0  0  0  0  0  0  0
  -24.1900  -36.7970   23.1600 C   0  0  0  0  0  1  0  0  0  0  0  0
  -25.4590  -36.4010   23.9310 C   0  0  0  0  0  3  0  0  0  0  0  0
  -27.6150  -37.3030   24.6860 C   0  0  0  0  0  1  0  0  0  0  0  0
  -26.4850  -37.4540   23.7720 N   0  0  0  0  0  0  0  0  0  0  0  0
  -26.0820  -38.3760   23.9160 H   0  0  0  0  0  0  0  0  0  0  0  0
  -26.4050  -31.7850   25.1980 C   0  0  1  0  0  0  0  0  0  0  0  0
  -25.2930  -31.5570   26.2500 C   0  0  0  0  0  1  0  0  0  0  0  0
  -26.9860  -30.4010   24.8250 C   0  0  0  0  0  1  0  0  0  0  0  0
  -27.5510  -32.5730   25.8770 C   0  0  0  0  0  1  0  0  0  0  0  0
  2  5  1  0
  2  1  1  0
  3  2  2  0
  4 47  1  0
  4  1  2  0
  6  3  1  0
  7  6  1  0
  7  8  1  0
  8  5  1  0
  8  9  1  1
 10  3  1  0
 10  4  1  0
 11 17  1  0
 11  8  1  0
 12 17  1  0
 13 14  1  0
 13 12  1  0
 15 14  1  0
 15 22  1  0
 15 16  1  0
 17 16  1  0
 18 11  2  0
 19 20  2  0
 20 39  1  0
 21 20  1  0
 21 24  1  0
 22 23  1  0
 22 19  1  0
 23 21  2  0
 24 25  1  0
 25 26  2  0
 27 30  1  0
 27 26  1  0
 28 27  2  0
 29 28  1  0
 29 24  2  0
 30 31  1  0
 31 36  2  0
 31 32  1  0
 32 33  2  0
 34 33  1  0
 34 38  1  0
 35 34  2  0
 36 35  1  0
 37 36  1  0
 39 40  1  0
 40 43  1  0
 40 42  1  0
 41 39  2  0
 44 19  1  0
 44 45  1  0
 46 44  1  0
 48 49  1  0
 48 47  2  0
 50 61  2  0
 51 49  1  0
 51 56  1  0
 52 60  1  0
 52 62  1  0
 53 59  1  0
 53 55  1  0
 54 60  1  0
 55 56  2  0
 55 54  1  0
 57 51  2  0
 58 57  1  0
 58 53  2  0
 59 52  1  0
 60 50  1  0
 62 64  2  0
 63 62  1  0
 65 63  1  0
 66 75  2  0
 66 71  1  0
 67 63  1  0
 67 71  1  0
 68 67  1  0
 69 70  1  0
 69 68  1  0
 70 66  1  0
 71 72  2  0
 72 73  1  0
 74 73  2  0
 75 74  1  0
 76 50  1  0
 76 77  1  0
 76 86  1  0
 77 80  1  0
 78 82  1  0
 78 77  1  0
 79 78  2  0
 82 81  1  0
 84 85  1  0
 84 82  1  0
 84 83  1  0
 86 89  1  1
 86 87  1  0
 88 86  1  0
M  ISO  4   8 100  11 100  48 101  49 101
M  END
>  <TORSDO>  (81) 
F 18

>  <SCORE>  (81) 
-14.661

>  <name>  (81) 
80

>  <ligand_id>  (81) 
80

>  <original_smiles>  (81) 
[H]c1c([H])c([H])c2c(c1[H])C([H])([H])C([H])([H])C([H])([H])C2([H])N([H])C(=O)C1([H])N(C(=O)C([H])(N([H])C(=O)C([H])(N([H])C([H])([H])[H])C([H])([H])[H])C(C([H])([H])[H])(C([H])([H])[H])C([H])([H])[H])C([H])([H])c2c([H])c(OC([H])([H])C([H])([H])c3sc4c(c3[H])C([H])([H])C(C(=O)N3C([H])([H])C([H])([H])C([H])([H])C([H])(n5nc(-c6c([H])c([H])c(Oc7c([H])c([H])c(F)c([H])c7F)c([H])c6[H])c(C(=O)N([H])[H])c5N([H])[H])C3([H])[H])(C([H])([H])[H])C([H])([H])C4([H])[H])c([H])c([H])c2C1([H])[H]

>  <smiles>  (81) 
[H]c1c([H])c([H])c2c(c1[H])C([H])([H])C([H])([H])C([H])([H])C2([H])N([H])C(=O)C1([H])N(C(=O)C([H])(N([H])C(=O)C([H])(N([H])C([H])([H])[H])C([H])([H])[H])C(C([H])([H])[H])(C([H])([H])[H])C([H])([H])[H])C([H])([H])c2c([H])c(OC([H])([H])C([H])([H])c3sc4c(c3[H])C([H])([H])C(C(=O)N3C([H])([H])C([H])([H])C([H])([H])C([H])(n5nc(-c6c([H])c([H])c(Oc7c([H])c([H])c(F)c([H])c7F)c([H])c6[H])c(C(=O)N([H])[H])c5N([H])[H])C3([H])[H])(C([H])([H])[H])C([H])([H])C4([H])[H])c([H])c([H])c2C1([H])[H]

$$$$
81:0:0
     RDKit          3D

 88 96  0  0  1  0  0  0  0  0999 V2000
  -29.2830  -21.0620   18.6890 C   0  0  0  0  0  3  0  0  0  0  0  0
  -28.9620  -22.4920   20.9210 C   0  0  0  0  0  3  0  0  0  0  0  0
  -29.5590  -19.9950   19.7380 C   0  0  0  0  0  0  0  0  0  0  0  0
  -29.3180  -20.9420   20.8440 C   0  0  0  0  0  0  0  0  0  0  0  0
  -28.9390  -22.6030   18.7510 C   0  0  0  0  0  0  0  0  0  0  0  0
  -28.6850  -23.6090   19.8820 C   0  0  0  0  0  0  0  0  0  0  0  0
  -29.4310  -19.9610   22.0220 C   0  0  0  0  0  2  0  0  0  0  0  0
  -29.9150  -18.4750   21.5790 C   0  0  0  0  0  2  0  0  0  0  0  0
  -29.7230  -18.0820   20.0580 C   0  0  0  0  0  3  0  0  0  0  0  0
  -28.8240  -23.2340   17.3760 C   0  0  0  0  0  1  0  0  0  0  0  0
  -28.2670  -17.6680   19.8070 C   0  0  0  0  0  1  0  0  0  0  0  0
  -30.6340  -16.2890   19.7680 C   0  0  0  0  0  2  0  0  0  0  0  0
  -30.8700  -13.6520   18.9200 C   0  0  0  0  0  2  0  0  0  0  0  0
  -29.9400  -13.0930   17.7880 C   0  0  0  0  0  2  0  0  0  0  0  0
  -28.5900  -12.6190   18.3420 C   0  0  0  0  0  2  0  0  0  0  0  0
  -28.0840  -13.6040   19.4120 C   0  0  0  0  0  3  0  0  0  0  0  0
  -29.1600  -14.0550   20.4380 C   0  0  0  0  0  2  0  0  0  0  0  0
  -30.2280  -14.8280   19.7220 N   0  0  0  0  0  0  0  0  0  0  0  0
  -31.8540  -16.2060   19.4800 O   0  0  0  0  0  1  0  0  0  0  0  0
  -25.8000  -14.0330   20.4200 C   0  0  0  0  0  0  0  0  0  0  0  0
  -24.7830  -13.2210   20.8280 C   0  0  0  0  0  0  0  0  0  0  0  0
  -25.2590  -11.8820   20.6710 C   0  0  0  0  0  0  0  0  0  0  0  0
  -26.8280  -13.1970   20.0310 N   0  0  0  0  0  0  0  0  0  0  0  0
  -26.5220  -11.8870   20.2450 N   0  0  0  0  0  0  0  0  0  0  0  0
  -24.5510  -10.6060   20.8450 C   0  0  0  0  0  0  0  0  0  0  0  0
  -24.9640   -9.6540   21.8040 C   0  0  0  0  0  3  0  0  0  0  0  0
  -24.2480   -8.4480   21.9710 C   0  0  0  0  0  3  0  0  0  0  0  0
  -23.1050   -8.1840   21.1790 C   0  0  0  0  0  0  0  0  0  0  0  0
  -22.7100   -9.1250   20.2120 C   0  0  0  0  0  3  0  0  0  0  0  0
  -23.4270  -10.3220   20.0440 C   0  0  0  0  0  3  0  0  0  0  0  0
  -22.3650   -7.0280   21.2520 O   0  0  0  0  0  0  0  0  0  0  0  0
  -22.1260   -6.4000   22.4480 C   0  0  0  0  0  0  0  0  0  0  0  0
  -21.4580   -7.0480   23.5100 C   0  0  0  0  0  3  0  0  0  0  0  0
  -21.1720   -6.3440   24.6960 C   0  0  0  0  0  3  0  0  0  0  0  0
  -21.5450   -4.9920   24.8210 C   0  0  0  0  0  0  0  0  0  0  0  0
  -22.2050   -4.3440   23.7630 C   0  0  0  0  0  3  0  0  0  0  0  0
  -22.4920   -5.0460   22.5790 C   0  0  0  0  0  0  0  0  0  0  0  0
  -23.1100   -4.4090   21.5540 F   0  0  0  0  0  0  0  0  0  0  0  0
  -21.2640   -4.3140   25.9580 F   0  0  0  0  0  0  0  0  0  0  0  0
  -23.4120  -13.6700   21.2390 C   0  0  0  0  0  0  0  0  0  0  0  0
  -22.7710  -12.9360   22.1390 N   0  0  0  0  0  0  0  0  0  0  0  0
  -22.9250  -14.7110   20.7990 O   0  0  0  0  0  0  0  0  0  0  0  0
  -23.1810  -12.0950   22.5170 H   0  0  0  0  0  0  0  0  0  0  0  0
  -21.8540  -13.2180   22.4570 H   0  0  0  0  0  0  0  0  0  0  0  0
  -25.9180  -15.4130   20.3140 N   0  0  0  0  0  0  0  0  0  0  0  0
  -25.1430  -16.0320   20.5240 H   0  0  0  0  0  0  0  0  0  0  0  0
  -26.7120  -15.8940   19.9170 H   0  0  0  0  0  0  0  0  0  0  0  0
  -28.5240  -25.3250   19.8930 O   0  0  0  0  0  0  0  0  0  0  0  0
  -24.9000  -31.7600   23.0660 C   0  0  0  0  0  0  0  0  0  0  0  0
  -27.5170  -26.6100   19.9220 C   0  0  0  0  0  0  0  0  0  0  0  0
  -23.7500  -30.3940   21.3800 C   0  0  0  0  0  3  0  0  0  0  0  0
  -25.2300  -28.7680   19.9280 C   0  0  0  0  0  0  0  0  0  0  0  0
  -26.3360  -30.5090   21.2970 C   0  0  0  0  0  2  0  0  0  0  0  0
  -26.4220  -29.0720   20.5940 C   0  0  0  0  0  0  0  0  0  0  0  0
  -27.5300  -28.0300   20.5550 C   0  0  0  0  0  3  0  0  0  0  0  0
  -26.2840  -26.5900   19.1970 C   0  0  0  0  0  3  0  0  0  0  0  0
  -25.2150  -27.5580   19.2070 C   0  0  0  0  0  3  0  0  0  0  0  0
  -24.0180  -29.7280   19.9950 C   0  0  0  0  0  2  0  0  0  0  0  0
  -25.0220  -30.9270   21.9670 N   0  0  0  0  0  0  0  0  0  0  0  0
  -23.7960  -32.0330   23.5720 O   0  0  0  0  0  0  0  0  0  0  0  0
  -23.0260  -29.3930   22.3240 C   0  0  0  0  0  0  0  0  0  0  0  0
  -21.6950  -29.2230   22.1850 N   0  0  0  0  0  0  0  0  0  0  0  0
  -23.6790  -28.7630   23.1590 O   0  0  0  0  0  0  0  0  0  0  0  0
  -21.2120  -29.7820   21.4960 H   0  0  0  0  0  0  0  0  0  0  0  0
  -18.3250  -27.9340   22.6640 C   0  0  0  0  0  0  0  0  0  0  0  0
  -20.8810  -28.2470   22.9250 C   0  0  0  0  0  3  0  0  0  0  0  0
  -21.0070  -26.8370   22.2990 C   0  0  0  0  0  2  0  0  0  0  0  0
  -19.9090  -26.5310   21.2760 C   0  0  0  0  0  2  0  0  0  0  0  0
  -18.5270  -26.6200   21.9280 C   0  0  0  0  0  2  0  0  0  0  0  0
  -19.4290  -28.7050   23.1160 C   0  0  0  0  0  0  0  0  0  0  0  0
  -19.1810  -29.9310   23.7720 C   0  0  0  0  0  3  0  0  0  0  0  0
  -17.8650  -30.3890   23.9740 C   0  0  0  0  0  3  0  0  0  0  0  0
  -16.7760  -29.6160   23.5320 C   0  0  0  0  0  3  0  0  0  0  0  0
  -17.0070  -28.3900   22.8840 C   0  0  0  0  0  3  0  0  0  0  0  0
  -26.1400  -32.4220   23.7410 C   0  0  0  0  0  3  0  0  0  0  0  0
  -25.7850  -33.8090   24.1180 N   0  0  0  0  0  0  0  0  0  0  0  0
  -26.0620  -34.9070   23.4010 C   0  0  0  0  0  0  0  0  0  0  0  0
  -26.6930  -34.8610   22.3440 O   0  0  0  0  0  0  0  0  0  0  0  0
  -25.2140  -33.9130   24.9440 H   0  0  0  0  0  0  0  0  0  0  0  0
  -24.2530  -36.6570   23.2380 C   0  0  0  0  0  1  0  0  0  0  0  0
  -25.5670  -36.2690   23.9360 C   0  0  0  0  0  3  0  0  0  0  0  0
  -27.7200  -37.2270   24.6340 C   0  0  0  0  0  1  0  0  0  0  0  0
  -26.5490  -37.3640   23.7720 N   0  0  0  0  0  0  0  0  0  0  0  0
  -26.1190  -38.2660   23.9630 H   0  0  0  0  0  0  0  0  0  0  0  0
  -26.6330  -31.6420   25.0240 C   0  0  1  0  0  0  0  0  0  0  0  0
  -25.5190  -31.3760   26.0630 C   0  0  0  0  0  1  0  0  0  0  0  0
  -27.2440  -30.2750   24.6430 C   0  0  0  0  0  1  0  0  0  0  0  0
  -27.7580  -32.4410   25.7230 C   0  0  0  0  0  1  0  0  0  0  0  0
  1  5  2  0
  1  3  1  0
  3  9  1  0
  3  4  2  0
  4  2  1  0
  4  7  1  0
  5  6  1  0
  6 48  1  0
  6  2  2  0
  8  7  1  0
  9 11  1  0
  9  8  1  0
 10  5  1  0
 13 18  1  0
 14 15  1  0
 14 13  1  0
 16 15  1  0
 16 23  1  0
 16 17  1  0
 18 12  1  0
 18 17  1  0
 19 12  1  0
 20 21  2  0
 21 40  1  0
 22 21  1  0
 22 25  1  0
 23 24  1  0
 23 20  1  0
 24 22  2  0
 25 26  1  0
 26 27  2  0
 28 31  1  0
 28 27  1  0
 29 28  2  0
 30 29  1  0
 30 25  2  0
 31 32  1  0
 32 37  2  0
 32 33  1  0
 33 34  2  0
 34 35  1  0
 35 39  1  0
 36 35  2  0
 37 36  1  0
 38 37  1  0
 40 41  1  0
 41 44  1  0
 41 43  1  0
 42 40  2  0
 45 20  1  0
 45 46  1  0
 47 45  1  0
 48 50  1  0
 49 60  2  0
 50 55  1  0
 51 59  1  0
 51 61  1  0
 52 58  1  0
 52 54  1  0
 53 59  1  0
 54 53  1  0
 55 54  2  0
 56 57  1  0
 56 50  2  0
 57 52  2  0
 58 51  1  0
 59 49  1  0
 61 63  2  0
 62 61  1  0
 64 62  1  0
 65 74  2  0
 65 70  1  0
 66 62  1  0
 66 70  1  0
 67 66  1  0
 68 69  1  0
 68 67  1  0
 69 65  1  0
 70 71  2  0
 71 72  1  0
 73 72  2  0
 74 73  1  0
 75 49  1  0
 75 76  1  0
 75 85  1  0
 76 79  1  0
 77 81  1  0
 77 76  1  0
 78 77  2  0
 81 80  1  0
 83 81  1  0
 83 84  1  0
 83 82  1  0
 85 88  1  1
 85 86  1  0
 87 85  1  0
M  ISO  4   6 101   9 100  12 100  48 101
M  END
>  <TORSDO>  (82) 
F 16

>  <SCORE>  (82) 
-14.166

>  <name>  (82) 
81

>  <ligand_id>  (82) 
81

>  <original_smiles>  (82) 
[H]c1c([H])c([H])c2c(c1[H])C([H])([H])C([H])([H])C([H])([H])C2([H])N([H])C(=O)C1([H])N(C(=O)C([H])(N([H])C(=O)C([H])(N([H])C([H])([H])[H])C([H])([H])[H])C(C([H])([H])[H])(C([H])([H])[H])C([H])([H])[H])C([H])([H])c2c([H])c(Oc3c([H])c4c(c([H])c3C([H])([H])[H])C(C(=O)N3C([H])([H])C([H])([H])C([H])([H])C([H])(n5nc(-c6c([H])c([H])c(Oc7c([H])c([H])c(F)c([H])c7F)c([H])c6[H])c(C(=O)N([H])[H])c5N([H])[H])C3([H])[H])(C([H])([H])[H])C([H])([H])C4([H])[H])c([H])c([H])c2C1([H])[H]

>  <smiles>  (82) 
[H]c1c([H])c([H])c2c(c1[H])C([H])([H])C([H])([H])C([H])([H])C2([H])N([H])C(=O)C1([H])N(C(=O)C([H])(N([H])C(=O)C([H])(N([H])C([H])([H])[H])C([H])([H])[H])C(C([H])([H])[H])(C([H])([H])[H])C([H])([H])[H])C([H])([H])c2c([H])c(Oc3c([H])c4c(c([H])c3C([H])([H])[H])C(C(=O)N3C([H])([H])C([H])([H])C([H])([H])C([H])(n5nc(-c6c([H])c([H])c(Oc7c([H])c([H])c(F)c([H])c7F)c([H])c6[H])c(C(=O)N([H])[H])c5N([H])[H])C3([H])[H])(C([H])([H])[H])C([H])([H])C4([H])[H])c([H])c([H])c2C1([H])[H]

$$$$
82:0:0
     RDKit          3D

 90 99  0  0  1  0  0  0  0  0999 V2000
  -29.9500  -22.5160   18.3780 C   0  0  0  0  0  3  0  0  0  0  0  0
  -28.3640  -22.2250   20.4780 C   0  0  0  0  0  3  0  0  0  0  0  0
  -29.8410  -21.1800   18.8880 C   0  0  0  0  0  0  0  0  0  0  0  0
  -29.0390  -20.8000   19.9960 C   0  0  0  0  0  0  0  0  0  0  0  0
  -29.3120  -23.7140   18.8450 C   0  0  0  0  0  0  0  0  0  0  0  0
  -28.4330  -23.7900   19.9620 C   0  0  0  0  0  0  0  0  0  0  0  0
  -30.5590  -20.0650   18.1370 C   0  0  0  0  0  2  0  0  0  0  0  0
  -29.6150  -18.9370   17.6600 C   0  0  0  0  0  2  0  0  0  0  0  0
  -28.4380  -18.6510   18.6140 C   0  0  0  0  0  2  0  0  0  0  0  0
  -28.8430  -18.8840   20.0770 C   0  0  0  0  0  3  0  0  0  0  0  0
  -29.6380  -25.0010   18.1050 C   0  0  0  0  0  1  0  0  0  0  0  0
  -30.1820  -15.8060   20.2800 C   0  0  0  0  0  0  0  0  0  0  0  0
  -30.3530  -13.1970   19.5740 C   0  0  0  0  0  2  0  0  0  0  0  0
  -29.4940  -12.7300   18.3570 C   0  0  0  0  0  2  0  0  0  0  0  0
  -28.0740  -12.3510   18.7970 C   0  0  0  0  0  2  0  0  0  0  0  0
  -27.5330  -13.3680   19.8250 C   0  0  0  0  0  3  0  0  0  0  0  0
  -28.5370  -13.7440   20.9470 C   0  0  0  0  0  2  0  0  0  0  0  0
  -29.7090  -14.3990   20.3080 N   0  0  0  0  0  0  0  0  0  0  0  0
  -31.3870  -15.7460   19.9610 O   0  0  0  0  0  0  0  0  0  0  0  0
  -29.4130  -17.1840   20.5060 N   0  0  0  0  0  0  0  0  0  0  0  0
  -28.6410  -16.8510   21.0670 H   0  0  0  0  0  0  0  0  0  0  0  0
  -25.1660  -13.8840   20.5730 C   0  0  0  0  0  0  0  0  0  0  0  0
  -24.1070  -13.1030   20.9330 C   0  0  0  0  0  0  0  0  0  0  0  0
  -24.5790  -11.7540   20.9020 C   0  0  0  0  0  0  0  0  0  0  0  0
  -26.2140  -13.0170   20.3340 N   0  0  0  0  0  0  0  0  0  0  0  0
  -25.8750  -11.7260   20.5970 N   0  0  0  0  0  0  0  0  0  0  0  0
  -23.8500  -10.4900   21.0860 C   0  0  0  0  0  0  0  0  0  0  0  0
  -24.2810   -9.5130   22.0090 C   0  0  0  0  0  3  0  0  0  0  0  0
  -23.5470   -8.3200   22.1850 C   0  0  0  0  0  3  0  0  0  0  0  0
  -22.3660   -8.0960   21.4390 C   0  0  0  0  0  0  0  0  0  0  0  0
  -21.9530   -9.0610   20.5040 C   0  0  0  0  0  3  0  0  0  0  0  0
  -22.6880  -10.2460   20.3270 C   0  0  0  0  0  3  0  0  0  0  0  0
  -21.6040   -6.9550   21.5230 O   0  0  0  0  0  0  0  0  0  0  0  0
  -21.5700   -6.1940   22.6650 C   0  0  0  0  0  0  0  0  0  0  0  0
  -21.1740   -6.7330   23.9090 C   0  0  0  0  0  3  0  0  0  0  0  0
  -21.0880   -5.9000   25.0410 C   0  0  0  0  0  3  0  0  0  0  0  0
  -21.3880   -4.5290   24.9330 C   0  0  0  0  0  0  0  0  0  0  0  0
  -21.7760   -3.9890   23.6940 C   0  0  0  0  0  3  0  0  0  0  0  0
  -21.8640   -4.8190   22.5630 C   0  0  0  0  0  0  0  0  0  0  0  0
  -22.2190   -4.2900   21.3680 F   0  0  0  0  0  0  0  0  0  0  0  0
  -21.2970   -3.7260   26.0190 F   0  0  0  0  0  0  0  0  0  0  0  0
  -22.7070  -13.5790   21.1890 C   0  0  0  0  0  0  0  0  0  0  0  0
  -21.9710  -12.8850   22.0490 N   0  0  0  0  0  0  0  0  0  0  0  0
  -22.2780  -14.6050   20.6620 O   0  0  0  0  0  0  0  0  0  0  0  0
  -22.3330  -12.0550   22.4960 H   0  0  0  0  0  0  0  0  0  0  0  0
  -21.0320  -13.1880   22.2630 H   0  0  0  0  0  0  0  0  0  0  0  0
  -25.3250  -15.2570   20.3980 N   0  0  0  0  0  0  0  0  0  0  0  0
  -24.5540  -15.9060   20.5000 H   0  0  0  0  0  0  0  0  0  0  0  0
  -26.1680  -15.6940   20.0480 H   0  0  0  0  0  0  0  0  0  0  0  0
  -28.1290  -25.3630   20.3910 O   0  0  0  0  0  0  0  0  0  0  0  0
  -24.6330  -31.7980   23.1350 C   0  0  0  0  0  0  0  0  0  0  0  0
  -27.1830  -26.6200   20.1920 C   0  0  0  0  0  0  0  0  0  0  0  0
  -23.4550  -30.3790   21.5080 C   0  0  0  0  0  3  0  0  0  0  0  0
  -24.9140  -28.7070   20.1060 C   0  0  0  0  0  0  0  0  0  0  0  0
  -26.0360  -30.5000   21.4040 C   0  0  0  0  0  2  0  0  0  0  0  0
  -26.1040  -29.0530   20.7550 C   0  0  0  0  0  0  0  0  0  0  0  0
  -27.2090  -28.0360   20.7720 C   0  0  0  0  0  3  0  0  0  0  0  0
  -25.9650  -26.5140   19.4660 C   0  0  0  0  0  3  0  0  0  0  0  0
  -24.8900  -27.4670   19.4370 C   0  0  0  0  0  3  0  0  0  0  0  0
  -23.7030  -29.6620   20.1460 C   0  0  0  0  0  2  0  0  0  0  0  0
  -24.7320  -30.9300   22.0670 N   0  0  0  0  0  0  0  0  0  0  0  0
  -23.5370  -32.1030   23.6370 O   0  0  0  0  0  0  0  0  0  0  0  0
  -22.7320  -29.4180   22.4920 C   0  0  0  0  0  0  0  0  0  0  0  0
  -21.3970  -29.2790   22.3810 N   0  0  0  0  0  0  0  0  0  0  0  0
  -23.3870  -28.7940   23.3300 O   0  0  0  0  0  0  0  0  0  0  0  0
  -20.9160  -29.8300   21.6830 H   0  0  0  0  0  0  0  0  0  0  0  0
  -18.0040  -28.0940   22.9350 C   0  0  0  0  0  0  0  0  0  0  0  0
  -20.5690  -28.3510   23.1640 C   0  0  0  0  0  3  0  0  0  0  0  0
  -20.6540  -26.9160   22.5930 C   0  0  0  0  0  2  0  0  0  0  0  0
  -19.5400  -26.6000   21.5910 C   0  0  0  0  0  2  0  0  0  0  0  0
  -18.1660  -26.7480   22.2510 C   0  0  0  0  0  2  0  0  0  0  0  0
  -19.1310  -28.8540   23.3490 C   0  0  0  0  0  0  0  0  0  0  0  0
  -18.9200  -30.1120   23.9560 C   0  0  0  0  0  3  0  0  0  0  0  0
  -17.6180  -30.6100   24.1490 C   0  0  0  0  0  3  0  0  0  0  0  0
  -16.5070  -29.8490   23.7460 C   0  0  0  0  0  3  0  0  0  0  0  0
  -16.7000  -28.5930   23.1460 C   0  0  0  0  0  3  0  0  0  0  0  0
  -25.8890  -32.4650   23.7750 C   0  0  0  0  0  3  0  0  0  0  0  0
  -25.5500  -33.8620   24.1160 N   0  0  0  0  0  0  0  0  0  0  0  0
  -25.8750  -34.9400   23.3870 C   0  0  0  0  0  0  0  0  0  0  0  0
  -26.5440  -34.8620   22.3540 O   0  0  0  0  0  0  0  0  0  0  0  0
  -24.9530  -33.9940   24.9190 H   0  0  0  0  0  0  0  0  0  0  0  0
  -24.1310  -36.7360   23.0900 C   0  0  0  0  0  1  0  0  0  0  0  0
  -25.3840  -36.3200   23.8770 C   0  0  0  0  0  3  0  0  0  0  0  0
  -27.5200  -37.2160   24.7000 C   0  0  0  0  0  1  0  0  0  0  0  0
  -26.4080  -37.3850   23.7690 N   0  0  0  0  0  0  0  0  0  0  0  0
  -25.9950  -38.2990   23.9310 H   0  0  0  0  0  0  0  0  0  0  0  0
  -26.3960  -31.7120   25.0680 C   0  0  1  0  0  0  0  0  0  0  0  0
  -25.2940  -31.4830   26.1310 C   0  0  0  0  0  1  0  0  0  0  0  0
  -26.9880  -30.3300   24.7120 C   0  0  0  0  0  1  0  0  0  0  0  0
  -27.5380  -32.5180   25.7310 C   0  0  0  0  0  1  0  0  0  0  0  0
  1  5  2  0
  1  3  1  0
  3  4  2  0
  4 10  1  0
  4  2  1  0
  5  6  1  0
  6 50  1  0
  6  2  2  0
  7  3  1  0
  8  7  1  0
  8  9  1  0
  9 10  1  0
 10 20  1  0
 11  5  1  0
 12 18  1  0
 12 20  1  0
 13 18  1  0
 14 15  1  0
 14 13  1  0
 16 15  1  0
 16 25  1  0
 16 17  1  0
 18 17  1  0
 19 12  2  0
 20 21  1  0
 22 23  2  0
 23 42  1  0
 24 23  1  0
 24 27  1  0
 25 22  1  0
 25 26  1  0
 26 24  2  0
 27 28  1  0
 28 29  2  0
 30 33  1  0
 30 29  1  0
 31 30  2  0
 32 31  1  0
 32 27  2  0
 33 34  1  0
 34 35  1  0
 35 36  2  0
 37 36  1  0
 37 41  1  0
 38 37  2  0
 39 34  2  0
 39 38  1  0
 40 39  1  0
 42 43  1  0
 43 46  1  0
 43 45  1  0
 44 42  2  0
 47 48  1  0
 47 22  1  0
 49 47  1  0
 51 62  2  0
 52 50  1  0
 52 57  1  0
 53 61  1  0
 53 63  1  0
 54 60  1  0
 54 56  1  0
 55 61  1  0
 56 57  2  0
 56 55  1  0
 58 52  2  0
 59 58  1  0
 59 54  2  0
 60 53  1  0
 61 51  1  0
 63 65  2  0
 64 63  1  0
 66 64  1  0
 67 76  2  0
 67 72  1  0
 68 64  1  0
 68 72  1  0
 69 68  1  0
 70 71  1  0
 70 69  1  0
 71 67  1  0
 72 73  2  0
 73 74  1  0
 75 74  2  0
 76 75  1  0
 77 51  1  0
 77 78  1  0
 77 87  1  0
 78 81  1  0
 79 83  1  0
 79 78  1  0
 80 79  2  0
 83 82  1  0
 85 83  1  0
 85 86  1  0
 85 84  1  0
 87 90  1  1
 87 88  1  0
 89 87  1  0
M  ISO  4   6 101  12 100  20 100  50 101
M  END
>  <TORSDO>  (83) 
F 16

>  <SCORE>  (83) 
-16.621

>  <name>  (83) 
82

>  <ligand_id>  (83) 
82

>  <original_smiles>  (83) 
[H]c1c([H])c([H])c2c(c1[H])C([H])([H])C([H])([H])C([H])([H])C2([H])N([H])C(=O)C1([H])N(C(=O)C([H])(N([H])C(=O)C([H])(N([H])C([H])([H])[H])C([H])([H])[H])C(C([H])([H])[H])(C([H])([H])[H])C([H])([H])[H])C([H])([H])c2c([H])c(Oc3c([H])c4c(c([H])c3C([H])([H])[H])C([H])([H])C([H])([H])C([H])([H])C4([H])N([H])C(=O)N3C([H])([H])C([H])([H])C([H])([H])C([H])(n4nc(-c5c([H])c([H])c(Oc6c([H])c([H])c(F)c([H])c6F)c([H])c5[H])c(C(=O)N([H])[H])c4N([H])[H])C3([H])[H])c([H])c([H])c2C1([H])[H]

>  <smiles>  (83) 
[H]c1c([H])c([H])c2c(c1[H])C([H])([H])C([H])([H])C([H])([H])C2([H])N([H])C(=O)C1([H])N(C(=O)C([H])(N([H])C(=O)C([H])(N([H])C([H])([H])[H])C([H])([H])[H])C(C([H])([H])[H])(C([H])([H])[H])C([H])([H])[H])C([H])([H])c2c([H])c(Oc3c([H])c4c(c([H])c3C([H])([H])[H])C([H])([H])C([H])([H])C([H])([H])C4([H])N([H])C(=O)N3C([H])([H])C([H])([H])C([H])([H])C([H])(n4nc(-c5c([H])c([H])c(Oc6c([H])c([H])c(F)c([H])c6F)c([H])c5[H])c(C(=O)N([H])[H])c4N([H])[H])C3([H])[H])c([H])c([H])c2C1([H])[H]

$$$$
83:0:0
     RDKit          3D

 90 98  0  0  1  0  0  0  0  0999 V2000
  -27.6380  -20.9030   19.9770 C   0  0  0  0  0  3  0  0  0  0  0  0
  -29.2580  -22.6400   20.3270 C   0  0  0  0  0  3  0  0  0  0  0  0
  -27.0460  -23.4290   19.9110 C   0  0  0  0  0  3  0  0  0  0  0  0
  -29.0250  -20.9980   20.2510 C   0  0  0  0  0  0  0  0  0  0  0  0
  -26.7380  -22.0200   19.8270 C   0  0  0  0  0  0  0  0  0  0  0  0
  -28.3210  -24.0010   20.1630 C   0  0  0  0  0  0  0  0  0  0  0  0
  -30.5450  -16.3710   20.6840 C   0  0  0  0  0  0  0  0  0  0  0  0
  -30.8100  -13.7220   20.0950 C   0  0  0  0  0  2  0  0  0  0  0  0
  -30.1060  -13.0890   18.8530 C   0  0  0  0  0  2  0  0  0  0  0  0
  -28.6640  -12.6850   19.1800 C   0  0  0  0  0  2  0  0  0  0  0  0
  -27.9840  -13.7630   20.0500 C   0  0  0  0  0  3  0  0  0  0  0  0
  -28.8520  -14.2900   21.2240 C   0  0  0  0  0  2  0  0  0  0  0  0
  -30.0450  -14.9630   20.6330 N   0  0  0  0  0  0  0  0  0  0  0  0
  -31.7880  -16.2320   20.7210 O   0  0  0  0  0  0  0  0  0  0  0  0
  -29.9870  -19.4430   20.4320 C   0  0  0  0  0  0  0  0  0  0  0  0
  -29.8680  -17.8370   20.5430 N   0  0  0  0  0  0  0  0  0  0  0  0
  -31.1770  -19.7570   20.4900 O   0  0  0  0  0  0  0  0  0  0  0  0
  -30.8550  -18.0390   20.6260 H   0  0  0  0  0  0  0  0  0  0  0  0
  -25.5660  -14.2830   20.5810 C   0  0  0  0  0  0  0  0  0  0  0  0
  -24.4730  -13.5040   20.8310 C   0  0  0  0  0  0  0  0  0  0  0  0
  -24.9410  -12.1530   20.8430 C   0  0  0  0  0  0  0  0  0  0  0  0
  -26.6270  -13.4120   20.4430 N   0  0  0  0  0  0  0  0  0  0  0  0
  -26.2610  -12.1210   20.6670 N   0  0  0  0  0  0  0  0  0  0  0  0
  -24.1920  -10.8930   20.9510 C   0  0  0  0  0  0  0  0  0  0  0  0
  -24.5030   -9.9270   21.9330 C   0  0  0  0  0  3  0  0  0  0  0  0
  -23.7490   -8.7370   22.0330 C   0  0  0  0  0  3  0  0  0  0  0  0
  -22.6700   -8.5030   21.1480 C   0  0  0  0  0  0  0  0  0  0  0  0
  -22.3780   -9.4580   20.1570 C   0  0  0  0  0  3  0  0  0  0  0  0
  -23.1320  -10.6390   20.0560 C   0  0  0  0  0  3  0  0  0  0  0  0
  -21.8990   -7.3650   21.1530 O   0  0  0  0  0  0  0  0  0  0  0  0
  -21.6910   -6.6420   22.3000 C   0  0  0  0  0  0  0  0  0  0  0  0
  -21.0710   -7.2080   23.4350 C   0  0  0  0  0  3  0  0  0  0  0  0
  -20.8130   -6.4100   24.5680 C   0  0  0  0  0  3  0  0  0  0  0  0
  -21.1650   -5.0470   24.5650 C   0  0  0  0  0  0  0  0  0  0  0  0
  -21.7790   -4.4800   23.4330 C   0  0  0  0  0  3  0  0  0  0  0  0
  -22.0380   -5.2750   22.3040 C   0  0  0  0  0  0  0  0  0  0  0  0
  -22.6090   -4.7200   21.2080 F   0  0  0  0  0  0  0  0  0  0  0  0
  -20.9120   -4.2780   25.6500 F   0  0  0  0  0  0  0  0  0  0  0  0
  -23.0570  -13.9850   20.9480 C   0  0  0  0  0  0  0  0  0  0  0  0
  -22.2400  -13.2970   21.7360 N   0  0  0  0  0  0  0  0  0  0  0  0
  -22.6840  -15.0090   20.3780 O   0  0  0  0  0  0  0  0  0  0  0  0
  -22.5540  -12.4700   22.2190 H   0  0  0  0  0  0  0  0  0  0  0  0
  -21.2840  -13.6030   21.8570 H   0  0  0  0  0  0  0  0  0  0  0  0
  -25.7460  -15.6550   20.4260 N   0  0  0  0  0  0  0  0  0  0  0  0
  -24.9750  -16.3120   20.4660 H   0  0  0  0  0  0  0  0  0  0  0  0
  -26.6340  -16.0940   20.2130 H   0  0  0  0  0  0  0  0  0  0  0  0
  -25.4060  -21.6950   19.5740 N   0  0  0  0  0  0  0  0  0  0  0  0
  -24.6900  -22.3960   19.7420 H   0  0  0  0  0  0  0  0  0  0  0  0
  -25.0840  -20.7520   19.7720 H   0  0  0  0  0  0  0  0  0  0  0  0
  -28.3930  -25.6790   20.2300 O   0  0  0  0  0  0  0  0  0  0  0  0
  -24.7500  -32.0230   23.3600 C   0  0  0  0  0  0  0  0  0  0  0  0
  -27.4120  -26.9520   20.2520 C   0  0  0  0  0  0  0  0  0  0  0  0
  -23.6250  -30.6650   21.6510 C   0  0  0  0  0  3  0  0  0  0  0  0
  -25.1280  -29.0610   20.2190 C   0  0  0  0  0  0  0  0  0  0  0  0
  -26.2100  -30.8010   21.6090 C   0  0  0  0  0  2  0  0  0  0  0  0
  -26.3070  -29.3750   20.9050 C   0  0  0  0  0  0  0  0  0  0  0  0
  -27.4220  -28.3540   20.8900 C   0  0  0  0  0  3  0  0  0  0  0  0
  -26.2000  -26.9040   19.5030 C   0  0  0  0  0  3  0  0  0  0  0  0
  -25.1240  -27.8550   19.4960 C   0  0  0  0  0  3  0  0  0  0  0  0
  -23.9120  -30.0120   20.2660 C   0  0  0  0  0  2  0  0  0  0  0  0
  -24.8860  -31.2000   22.2600 N   0  0  0  0  0  0  0  0  0  0  0  0
  -23.6380  -32.2940   23.8500 O   0  0  0  0  0  0  0  0  0  0  0  0
  -22.8890  -29.6550   22.5750 C   0  0  0  0  0  0  0  0  0  0  0  0
  -21.5650  -29.4720   22.3980 N   0  0  0  0  0  0  0  0  0  0  0  0
  -23.5270  -29.0310   23.4260 O   0  0  0  0  0  0  0  0  0  0  0  0
  -21.0970  -30.0260   21.6940 H   0  0  0  0  0  0  0  0  0  0  0  0
  -18.1850  -28.1940   22.8170 C   0  0  0  0  0  0  0  0  0  0  0  0
  -20.7380  -28.4930   23.1180 C   0  0  0  0  0  3  0  0  0  0  0  0
  -20.8670  -27.0870   22.4860 C   0  0  0  0  0  2  0  0  0  0  0  0
  -19.7820  -26.7940   21.4440 C   0  0  0  0  0  2  0  0  0  0  0  0
  -18.3920  -26.8830   22.0770 C   0  0  0  0  0  2  0  0  0  0  0  0
  -19.2860  -28.9570   23.2910 C   0  0  0  0  0  0  0  0  0  0  0  0
  -19.0340  -30.1810   23.9490 C   0  0  0  0  0  3  0  0  0  0  0  0
  -17.7170  -30.6430   24.1330 C   0  0  0  0  0  3  0  0  0  0  0  0
  -16.6320  -29.8780   23.6700 C   0  0  0  0  0  3  0  0  0  0  0  0
  -16.8670  -28.6550   23.0190 C   0  0  0  0  0  3  0  0  0  0  0  0
  -25.9810  -32.6780   24.0570 C   0  0  0  0  0  3  0  0  0  0  0  0
  -25.6410  -34.0770   24.3890 N   0  0  0  0  0  0  0  0  0  0  0  0
  -25.9800  -35.1520   23.6650 C   0  0  0  0  0  0  0  0  0  0  0  0
  -26.6660  -35.0710   22.6440 O   0  0  0  0  0  0  0  0  0  0  0  0
  -25.0300  -34.2120   25.1830 H   0  0  0  0  0  0  0  0  0  0  0  0
  -24.2340  -36.9450   23.3540 C   0  0  0  0  0  1  0  0  0  0  0  0
  -25.4860  -36.5350   24.1460 C   0  0  0  0  0  3  0  0  0  0  0  0
  -27.6110  -37.4480   24.9770 C   0  0  0  0  0  1  0  0  0  0  0  0
  -26.5080  -37.6020   24.0330 N   0  0  0  0  0  0  0  0  0  0  0  0
  -26.0900  -38.5170   24.1790 H   0  0  0  0  0  0  0  0  0  0  0  0
  -26.4240  -31.9160   25.3680 C   0  0  1  0  0  0  0  0  0  0  0  0
  -25.2700  -31.6770   26.3720 C   0  0  0  0  0  1  0  0  0  0  0  0
  -27.0370  -30.5390   25.0340 C   0  0  0  0  0  1  0  0  0  0  0  0
  -27.5290  -32.7200   26.0940 C   0  0  0  0  0  1  0  0  0  0  0  0
  1  4  1  0
  3  6  2  0
  4  2  2  0
  4 15  1  0
  5  3  1  0
  5  1  2  0
  6 50  1  0
  6  2  1  0
  7 14  2  0
  8 13  1  0
  9 10  1  0
  9  8  1  0
 11 10  1  0
 11 22  1  0
 11 12  1  0
 13  7  1  0
 13 12  1  0
 15 17  2  0
 15 16  1  0
 16 18  1  0
 16  7  1  0
 19 20  2  0
 20 21  1  0
 20 39  1  0
 21 24  1  0
 22 19  1  0
 22 23  1  0
 23 21  2  0
 24 25  1  0
 25 26  2  0
 27 30  1  0
 27 26  1  0
 28 27  2  0
 29 28  1  0
 29 24  2  0
 30 31  1  0
 31 36  2  0
 31 32  1  0
 32 33  2  0
 34 33  1  0
 34 38  1  0
 35 34  2  0
 36 35  1  0
 37 36  1  0
 39 40  1  0
 40 43  1  0
 40 42  1  0
 41 39  2  0
 44 45  1  0
 44 19  1  0
 46 44  1  0
 47 48  1  0
 47 49  1  0
 47  5  1  0
 50 52  1  0
 51 62  2  0
 52 57  1  0
 53 61  1  0
 53 63  1  0
 54 60  1  0
 54 56  1  0
 55 61  1  0
 56 55  1  0
 57 56  2  0
 58 52  2  0
 59 58  1  0
 59 54  2  0
 60 53  1  0
 61 51  1  0
 63 65  2  0
 64 63  1  0
 66 64  1  0
 67 76  2  0
 67 72  1  0
 68 64  1  0
 68 72  1  0
 69 68  1  0
 70 71  1  0
 70 69  1  0
 71 67  1  0
 72 73  2  0
 73 74  1  0
 75 74  2  0
 76 75  1  0
 77 51  1  0
 77 78  1  0
 77 87  1  0
 78 81  1  0
 79 83  1  0
 79 78  1  0
 80 79  2  0
 83 82  1  0
 85 83  1  0
 85 86  1  0
 85 84  1  0
 87 90  1  1
 87 88  1  0
 89 87  1  0
M  ISO  4   6 101   7 100  16 100  50 101
M  END
>  <TORSDO>  (84) 
F 17

>  <SCORE>  (84) 
-14.726

>  <name>  (84) 
83

>  <ligand_id>  (84) 
83

>  <original_smiles>  (84) 
[H]c1c([H])c([H])c2c(c1[H])C([H])([H])C([H])([H])C([H])([H])C2([H])N([H])C(=O)C1([H])N(C(=O)C([H])(N([H])C(=O)C([H])(N([H])C([H])([H])[H])C([H])([H])[H])C(C([H])([H])[H])(C([H])([H])[H])C([H])([H])[H])C([H])([H])c2c([H])c(Oc3c([H])c(C(=O)N([H])C(=O)N4C([H])([H])C([H])([H])C([H])([H])C([H])(n5nc(-c6c([H])c([H])c(Oc7c([H])c([H])c(F)c([H])c7F)c([H])c6[H])c(C(=O)N([H])[H])c5N([H])[H])C4([H])[H])c([H])c(N([H])[H])c3[H])c([H])c([H])c2C1([H])[H]

>  <smiles>  (84) 
[H]c1c([H])c([H])c2c(c1[H])C([H])([H])C([H])([H])C([H])([H])C2([H])N([H])C(=O)C1([H])N(C(=O)C([H])(N([H])C(=O)C([H])(N([H])C([H])([H])[H])C([H])([H])[H])C(C([H])([H])[H])(C([H])([H])[H])C([H])([H])[H])C([H])([H])c2c([H])c(Oc3c([H])c(C(=O)N([H])C(=O)N4C([H])([H])C([H])([H])C([H])([H])C([H])(n5nc(-c6c([H])c([H])c(Oc7c([H])c([H])c(F)c([H])c7F)c([H])c6[H])c(C(=O)N([H])[H])c5N([H])[H])C4([H])[H])c([H])c(N([H])[H])c3[H])c([H])c([H])c2C1([H])[H]

$$$$
84:0:0
     RDKit          3D

 93101  0  0  1  0  0  0  0  0999 V2000
  -27.6650  -22.5420   20.6870 C   0  0  0  0  0  3  0  0  0  0  0  0
  -27.4060  -23.9670   20.5660 C   0  0  0  0  0  3  0  0  0  0  0  0
  -29.6920  -24.3060   20.0970 C   0  0  0  0  0  3  0  0  0  0  0  0
  -28.9530  -21.9200   20.5360 C   0  0  0  0  0  0  0  0  0  0  0  0
  -29.9680  -22.8880   20.2160 C   0  0  0  0  0  0  0  0  0  0  0  0
  -28.4200  -24.9340   20.2710 C   0  0  0  0  0  0  0  0  0  0  0  0
  -28.3250  -26.3840   20.1920 O   0  0  0  0  0  0  0  0  0  0  0  0
  -24.5940  -31.8880   23.2320 C   0  0  0  0  0  0  0  0  0  0  0  0
  -27.1870  -27.2390   20.1960 C   0  0  0  0  0  0  0  0  0  0  0  0
  -23.3900  -30.4890   21.5920 C   0  0  0  0  0  3  0  0  0  0  0  0
  -24.8360  -28.9180   20.1650 C   0  0  0  0  0  0  0  0  0  0  0  0
  -25.9320  -30.7800   21.4120 C   0  0  0  0  0  2  0  0  0  0  0  0
  -26.0060  -29.3880   20.7740 C   0  0  0  0  0  0  0  0  0  0  0  0
  -27.1800  -28.5610   20.7770 C   0  0  0  0  0  3  0  0  0  0  0  0
  -25.9980  -26.8490   19.5460 C   0  0  0  0  0  3  0  0  0  0  0  0
  -24.8400  -27.6590   19.5380 C   0  0  0  0  0  3  0  0  0  0  0  0
  -23.6050  -29.8060   20.2120 C   0  0  0  0  0  2  0  0  0  0  0  0
  -24.6590  -31.0730   22.1350 N   0  0  0  0  0  0  0  0  0  0  0  0
  -23.5120  -32.1670   23.7670 O   0  0  0  0  0  0  0  0  0  0  0  0
  -22.7210  -29.4790   22.5560 C   0  0  0  0  0  0  0  0  0  0  0  0
  -21.3930  -29.3080   22.4360 N   0  0  0  0  0  0  0  0  0  0  0  0
  -23.3980  -28.8500   23.3750 O   0  0  0  0  0  0  0  0  0  0  0  0
  -20.9030  -29.8710   21.7540 H   0  0  0  0  0  0  0  0  0  0  0  0
  -18.0150  -28.1150   22.9450 C   0  0  0  0  0  0  0  0  0  0  0  0
  -20.5750  -28.3710   23.2080 C   0  0  0  0  0  3  0  0  0  0  0  0
  -20.6720  -26.9400   22.6300 C   0  0  0  0  0  2  0  0  0  0  0  0
  -19.5660  -26.6210   21.6180 C   0  0  0  0  0  2  0  0  0  0  0  0
  -18.1870  -26.7670   22.2670 C   0  0  0  0  0  2  0  0  0  0  0  0
  -19.1360  -28.8760   23.3730 C   0  0  0  0  0  0  0  0  0  0  0  0
  -18.9200  -30.1370   23.9700 C   0  0  0  0  0  3  0  0  0  0  0  0
  -17.6160  -30.6390   24.1420 C   0  0  0  0  0  3  0  0  0  0  0  0
  -16.5090  -29.8760   23.7300 C   0  0  0  0  0  3  0  0  0  0  0  0
  -16.7100  -28.6150   23.1400 C   0  0  0  0  0  3  0  0  0  0  0  0
  -25.8770  -32.5210   23.8540 C   0  0  0  0  0  3  0  0  0  0  0  0
  -25.5680  -33.9210   24.1820 N   0  0  0  0  0  0  0  0  0  0  0  0
  -25.9040  -34.9760   23.4270 C   0  0  0  0  0  0  0  0  0  0  0  0
  -26.5710  -34.8700   22.3940 O   0  0  0  0  0  0  0  0  0  0  0  0
  -24.9730  -34.0740   24.9840 H   0  0  0  0  0  0  0  0  0  0  0  0
  -24.1780  -36.7760   23.0790 C   0  0  0  0  0  1  0  0  0  0  0  0
  -25.4220  -36.3670   23.8860 C   0  0  0  0  0  3  0  0  0  0  0  0
  -27.5630  -37.2480   24.7070 C   0  0  0  0  0  1  0  0  0  0  0  0
  -26.4570  -37.4170   23.7680 N   0  0  0  0  0  0  0  0  0  0  0  0
  -26.0550  -38.3380   23.9170 H   0  0  0  0  0  0  0  0  0  0  0  0
  -26.3890  -31.7550   25.1360 C   0  0  1  0  0  0  0  0  0  0  0  0
  -25.2930  -31.5250   26.2030 C   0  0  0  0  0  1  0  0  0  0  0  0
  -26.9660  -30.3720   24.7510 C   0  0  0  0  0  1  0  0  0  0  0  0
  -27.5430  -32.5450   25.7940 C   0  0  0  0  0  1  0  0  0  0  0  0
  -29.2480  -20.3730   20.9890 C   0  0  0  0  0  3  0  0  0  0  0  0
  -29.4190  -19.0250   20.0480 C   0  0  0  0  0  3  0  0  0  0  0  0
  -30.0670  -17.5810   20.6110 C   0  0  0  0  0  2  0  0  0  0  0  0
  -30.5190  -14.8950   20.3350 C   0  0  0  0  0  0  0  0  0  0  0  0
  -30.3590  -12.5820   19.3500 C   0  0  0  0  0  2  0  0  0  0  0  0
  -29.4160  -12.5900   18.1260 C   0  0  0  0  0  2  0  0  0  0  0  0
  -27.9490  -12.4100   18.5590 C   0  0  0  0  0  2  0  0  0  0  0  0
  -27.5660  -13.3140   19.7600 C   0  0  0  0  0  3  0  0  0  0  0  0
  -28.6260  -13.2720   20.8800 C   0  0  0  0  0  2  0  0  0  0  0  0
  -29.9040  -13.6550   20.2710 N   0  0  0  0  0  0  0  0  0  0  0  0
  -31.7230  -14.9720   20.0690 O   0  0  0  0  0  0  0  0  0  0  0  0
  -29.7330  -16.0560   20.4860 N   0  0  0  0  0  0  0  0  0  0  0  0
  -28.7510  -15.8470   20.5950 H   0  0  0  0  0  0  0  0  0  0  0  0
  -25.1840  -13.9060   20.4850 C   0  0  0  0  0  0  0  0  0  0  0  0
  -24.1190  -13.1340   20.8580 C   0  0  0  0  0  0  0  0  0  0  0  0
  -24.5800  -11.7810   20.8350 C   0  0  0  0  0  0  0  0  0  0  0  0
  -26.2260  -13.0230   20.2530 N   0  0  0  0  0  0  0  0  0  0  0  0
  -25.8710  -11.7420   20.5280 N   0  0  0  0  0  0  0  0  0  0  0  0
  -23.8480  -10.5210   21.0260 C   0  0  0  0  0  0  0  0  0  0  0  0
  -24.2810   -9.5520   21.9590 C   0  0  0  0  0  3  0  0  0  0  0  0
  -23.5530   -8.3570   22.1380 C   0  0  0  0  0  3  0  0  0  0  0  0
  -22.3770   -8.1220   21.3860 C   0  0  0  0  0  0  0  0  0  0  0  0
  -21.9640   -9.0780   20.4430 C   0  0  0  0  0  3  0  0  0  0  0  0
  -22.6920  -10.2670   20.2600 C   0  0  0  0  0  3  0  0  0  0  0  0
  -21.6170   -6.9800   21.4800 O   0  0  0  0  0  0  0  0  0  0  0  0
  -21.5760   -6.2350   22.6310 C   0  0  0  0  0  0  0  0  0  0  0  0
  -21.1650   -6.7890   23.8640 C   0  0  0  0  0  3  0  0  0  0  0  0
  -21.0720   -5.9690   25.0080 C   0  0  0  0  0  3  0  0  0  0  0  0
  -21.3780   -4.5980   24.9190 C   0  0  0  0  0  0  0  0  0  0  0  0
  -21.7830   -4.0450   23.6920 C   0  0  0  0  0  3  0  0  0  0  0  0
  -21.8790   -4.8610   22.5510 C   0  0  0  0  0  0  0  0  0  0  0  0
  -22.2480   -4.3170   21.3660 F   0  0  0  0  0  0  0  0  0  0  0  0
  -21.2800   -3.8100   26.0160 F   0  0  0  0  0  0  0  0  0  0  0  0
  -22.7200  -13.6140   21.1180 C   0  0  0  0  0  0  0  0  0  0  0  0
  -21.9860  -12.9250   21.9840 N   0  0  0  0  0  0  0  0  0  0  0  0
  -22.2880  -14.6370   20.5860 O   0  0  0  0  0  0  0  0  0  0  0  0
  -22.3510  -12.0960   22.4320 H   0  0  0  0  0  0  0  0  0  0  0  0
  -21.0460  -13.2240   22.2020 H   0  0  0  0  0  0  0  0  0  0  0  0
  -25.3430  -15.2750   20.2940 N   0  0  0  0  0  0  0  0  0  0  0  0
  -24.5630  -15.9150   20.3940 H   0  0  0  0  0  0  0  0  0  0  0  0
  -26.1520  -15.7080   19.8660 H   0  0  0  0  0  0  0  0  0  0  0  0
  -31.4290  -22.4640   20.0960 C   0  0  0  0  0  2  0  0  0  0  0  0
  -32.1020  -22.8210   18.7530 C   0  0  0  0  0  2  0  0  0  0  0  0
  -31.8660  -21.8020   17.6230 C   0  0  0  0  0  2  0  0  0  0  0  0
  -30.3240  -20.8450   15.8480 C   0  0  0  0  0  1  0  0  0  0  0  0
  -30.4670  -21.8570   16.9920 C   0  0  0  0  0  2  0  0  0  0  0  0
  2  1  1  0
  3  5  2  0
  3  6  1  0
  4  1  2  0
  4 48  1  0
  5  4  1  0
  6  2  2  0
  7  9  1  0
  7  6  1  0
  8 19  2  0
  9 14  1  0
 10 18  1  0
 10 20  1  0
 11 17  1  0
 11 13  1  0
 12 18  1  0
 13 14  2  0
 13 12  1  0
 15  9  2  0
 16 15  1  0
 16 11  2  0
 17 10  1  0
 18  8  1  0
 20 22  2  0
 21 20  1  0
 23 21  1  0
 24 33  2  0
 24 29  1  0
 25 21  1  0
 25 29  1  0
 26 25  1  0
 27 28  1  0
 27 26  1  0
 28 24  1  0
 29 30  2  0
 30 31  1  0
 32 31  2  0
 33 32  1  0
 34  8  1  0
 34 35  1  0
 34 44  1  0
 35 38  1  0
 36 40  1  0
 36 35  1  0
 37 36  2  0
 40 39  1  0
 42 40  1  0
 42 43  1  0
 42 41  1  0
 44 47  1  1
 44 45  1  0
 46 44  1  0
 49 50  1  0
 49 48  2  0
 51 59  1  0
 52 57  1  0
 53 54  1  0
 53 52  1  0
 55 54  1  0
 55 64  1  0
 55 56  1  0
 57 51  1  0
 57 56  1  0
 58 51  2  0
 59 60  1  0
 59 50  1  0
 61 62  2  0
 62 81  1  0
 63 62  1  0
 63 66  1  0
 64 61  1  0
 64 65  1  0
 65 63  2  0
 66 67  1  0
 67 68  2  0
 69 72  1  0
 69 68  1  0
 70 69  2  0
 71 70  1  0
 71 66  2  0
 72 73  1  0
 73 74  1  0
 74 75  2  0
 76 75  1  0
 76 80  1  0
 77 76  2  0
 78 73  2  0
 78 77  1  0
 79 78  1  0
 81 82  1  0
 82 85  1  0
 82 84  1  0
 83 81  2  0
 86 87  1  0
 86 61  1  0
 88 86  1  0
 89  5  1  0
 90 89  1  0
 91 90  1  0
 92 93  1  0
 93 91  1  0
M  ISO  4   6 101   7 101  51 100  59 100
M  END
>  <TORSDO>  (85) 
F 23

>  <SCORE>  (85) 
-12.840

>  <name>  (85) 
84

>  <ligand_id>  (85) 
84

>  <original_smiles>  (85) 
[H]c1c([H])c([H])c2c(c1[H])C([H])([H])C([H])([H])C([H])([H])C2([H])N([H])C(=O)C1([H])N(C(=O)C([H])(N([H])C(=O)C([H])(N([H])C([H])([H])[H])C([H])([H])[H])C(C([H])([H])[H])(C([H])([H])[H])C([H])([H])[H])C([H])([H])c2c([H])c(Oc3c([H])c([H])c(C([H])([H])C([H])([H])C([H])([H])N([H])C(=O)N4C([H])([H])C([H])([H])C([H])([H])C([H])(n5nc(-c6c([H])c([H])c(Oc7c([H])c([H])c(F)c([H])c7F)c([H])c6[H])c(C(=O)N([H])[H])c5N([H])[H])C4([H])[H])c(C([H])([H])C([H])([H])C([H])([H])C([H])([H])C([H])([H])[H])c3[H])c([H])c([H])c2C1([H])[H]

>  <smiles>  (85) 
[H]c1c([H])c([H])c2c(c1[H])C([H])([H])C([H])([H])C([H])([H])C2([H])N([H])C(=O)C1([H])N(C(=O)C([H])(N([H])C(=O)C([H])(N([H])C([H])([H])[H])C([H])([H])[H])C(C([H])([H])[H])(C([H])([H])[H])C([H])([H])[H])C([H])([H])c2c([H])c(Oc3c([H])c([H])c(C([H])([H])C([H])([H])C([H])([H])N([H])C(=O)N4C([H])([H])C([H])([H])C([H])([H])C([H])(n5nc(-c6c([H])c([H])c(Oc7c([H])c([H])c(F)c([H])c7F)c([H])c6[H])c(C(=O)N([H])[H])c5N([H])[H])C4([H])[H])c(C([H])([H])C([H])([H])C([H])([H])C([H])([H])C([H])([H])[H])c3[H])c([H])c([H])c2C1([H])[H]

$$$$
85:0:0
     RDKit          3D

 94102  0  0  1  0  0  0  0  0999 V2000
  -30.0460  -17.8530   20.8300 C   0  0  0  0  0  3  0  0  0  0  0  0
  -30.2990  -19.3990   18.9800 C   0  0  0  0  0  3  0  0  0  0  0  0
  -29.8540  -19.2480   20.2940 C   0  0  0  0  0  0  0  0  0  0  0  0
  -30.6790  -16.6840   20.1200 C   0  0  0  0  0  0  0  0  0  0  0  0
  -31.1750  -17.0660   18.8100 C   0  0  0  0  0  0  0  0  0  0  0  0
  -30.9300  -18.3680   18.2750 C   0  0  0  0  0  0  0  0  0  0  0  0
  -31.1630  -15.2450   20.7360 C   0  0  0  0  0  0  0  0  0  0  0  0
  -31.0610  -12.7930   20.0620 C   0  0  0  0  0  2  0  0  0  0  0  0
  -30.2900  -12.5120   18.7540 C   0  0  0  0  0  2  0  0  0  0  0  0
  -28.7770  -12.4050   19.0020 C   0  0  0  0  0  2  0  0  0  0  0  0
  -28.2340  -13.4890   19.9720 C   0  0  0  0  0  3  0  0  0  0  0  0
  -29.1460  -13.6830   21.1980 C   0  0  0  0  0  2  0  0  0  0  0  0
  -30.4840  -14.0180   20.6930 N   0  0  0  0  0  0  0  0  0  0  0  0
  -32.3880  -15.1480   20.8690 O   0  0  0  0  0  0  0  0  0  0  0  0
  -25.8100  -14.1630   20.4450 C   0  0  0  0  0  0  0  0  0  0  0  0
  -24.6840  -13.4380   20.7150 C   0  0  0  0  0  0  0  0  0  0  0  0
  -25.1020  -12.0720   20.7870 C   0  0  0  0  0  0  0  0  0  0  0  0
  -26.8420  -13.2470   20.3480 N   0  0  0  0  0  0  0  0  0  0  0  0
  -26.4170  -11.9860   20.6290 N   0  0  0  0  0  0  0  0  0  0  0  0
  -24.3140  -10.8400   20.9340 C   0  0  0  0  0  0  0  0  0  0  0  0
  -24.6250   -9.8770   21.9190 C   0  0  0  0  0  3  0  0  0  0  0  0
  -23.8390   -8.7120   22.0540 C   0  0  0  0  0  3  0  0  0  0  0  0
  -22.7250   -8.5030   21.2050 C   0  0  0  0  0  0  0  0  0  0  0  0
  -22.4350   -9.4530   20.2100 C   0  0  0  0  0  3  0  0  0  0  0  0
  -23.2220  -10.6100   20.0730 C   0  0  0  0  0  3  0  0  0  0  0  0
  -21.9240   -7.3880   21.2470 O   0  0  0  0  0  0  0  0  0  0  0  0
  -21.7750   -6.6480   22.3930 C   0  0  0  0  0  0  0  0  0  0  0  0
  -21.3250   -7.2280   23.6000 C   0  0  0  0  0  3  0  0  0  0  0  0
  -21.1200   -6.4180   24.7340 C   0  0  0  0  0  3  0  0  0  0  0  0
  -21.3530   -5.0310   24.6640 C   0  0  0  0  0  0  0  0  0  0  0  0
  -21.7920   -4.4510   23.4610 C   0  0  0  0  0  3  0  0  0  0  0  0
  -21.9990   -5.2570   22.3280 C   0  0  0  0  0  0  0  0  0  0  0  0
  -22.4020   -4.6890   21.1650 F   0  0  0  0  0  0  0  0  0  0  0  0
  -21.1480   -4.2530   25.7510 F   0  0  0  0  0  0  0  0  0  0  0  0
  -23.2790  -13.9640   20.8030 C   0  0  0  0  0  0  0  0  0  0  0  0
  -22.4350  -13.3290   21.6090 N   0  0  0  0  0  0  0  0  0  0  0  0
  -22.9370  -14.9780   20.1940 O   0  0  0  0  0  0  0  0  0  0  0  0
  -22.7190  -12.5080   22.1220 H   0  0  0  0  0  0  0  0  0  0  0  0
  -21.4870  -13.6630   21.7030 H   0  0  0  0  0  0  0  0  0  0  0  0
  -26.0520  -15.5210   20.2410 N   0  0  0  0  0  0  0  0  0  0  0  0
  -25.3190  -16.2210   20.2430 H   0  0  0  0  0  0  0  0  0  0  0  0
  -26.9680  -15.9110   20.0580 H   0  0  0  0  0  0  0  0  0  0  0  0
  -29.2740  -20.5760   20.9930 C   0  0  0  0  0  0  0  0  0  0  0  0
  -29.1970  -21.8620   20.3700 N   0  0  0  0  0  0  0  0  0  0  0  0
  -28.8870  -20.4700   22.1580 O   0  0  0  0  0  0  0  0  0  0  0  0
  -29.5350  -21.8590   19.4170 H   0  0  0  0  0  0  0  0  0  0  0  0
  -28.7710  -23.3110   20.8820 C   0  0  0  0  0  2  0  0  0  0  0  0
  -28.3170  -24.6220   19.9010 C   0  0  0  0  0  2  0  0  0  0  0  0
  -28.3430  -26.1580   20.2200 O   0  0  0  0  0  0  0  0  0  0  0  0
  -24.6240  -31.8230   23.0800 C   0  0  0  0  0  0  0  0  0  0  0  0
  -27.2450  -27.0990   20.0990 C   0  0  0  0  0  0  0  0  0  0  0  0
  -23.4320  -30.4060   21.4540 C   0  0  0  0  0  3  0  0  0  0  0  0
  -24.8920  -28.8260   20.0370 C   0  0  0  0  0  0  0  0  0  0  0  0
  -25.9800  -30.6920   21.2780 C   0  0  0  0  0  2  0  0  0  0  0  0
  -26.0660  -29.2930   20.6420 C   0  0  0  0  0  0  0  0  0  0  0  0
  -27.2350  -28.4430   20.6560 C   0  0  0  0  0  3  0  0  0  0  0  0
  -26.0390  -26.7350   19.4510 C   0  0  0  0  0  3  0  0  0  0  0  0
  -24.8920  -27.5640   19.4240 C   0  0  0  0  0  3  0  0  0  0  0  0
  -23.6480  -29.7000   20.0870 C   0  0  0  0  0  2  0  0  0  0  0  0
  -24.7000  -30.9980   21.9920 N   0  0  0  0  0  0  0  0  0  0  0  0
  -23.5360  -32.1050   23.6090 O   0  0  0  0  0  0  0  0  0  0  0  0
  -22.7610  -29.4080   22.4310 C   0  0  0  0  0  0  0  0  0  0  0  0
  -21.4300  -29.2460   22.3210 N   0  0  0  0  0  0  0  0  0  0  0  0
  -23.4410  -28.7760   23.2440 O   0  0  0  0  0  0  0  0  0  0  0  0
  -20.9400  -29.7990   21.6300 H   0  0  0  0  0  0  0  0  0  0  0  0
  -18.0460  -28.0970   22.9000 C   0  0  0  0  0  0  0  0  0  0  0  0
  -20.6150  -28.3140   23.1050 C   0  0  0  0  0  3  0  0  0  0  0  0
  -20.6790  -26.8870   22.5120 C   0  0  0  0  0  2  0  0  0  0  0  0
  -19.5460  -26.5950   21.5230 C   0  0  0  0  0  2  0  0  0  0  0  0
  -18.1850  -26.7540   22.2030 C   0  0  0  0  0  2  0  0  0  0  0  0
  -19.1860  -28.8360   23.3100 C   0  0  0  0  0  0  0  0  0  0  0  0
  -19.0020  -30.0950   23.9220 C   0  0  0  0  0  3  0  0  0  0  0  0
  -17.7090  -30.6090   24.1360 C   0  0  0  0  0  3  0  0  0  0  0  0
  -16.5830  -29.8650   23.7440 C   0  0  0  0  0  3  0  0  0  0  0  0
  -16.7530  -28.6120   23.1280 C   0  0  0  0  0  3  0  0  0  0  0  0
  -25.8980  -32.4750   23.7060 C   0  0  0  0  0  3  0  0  0  0  0  0
  -25.5590  -33.8600   24.0700 N   0  0  0  0  0  0  0  0  0  0  0  0
  -25.8980  -34.9450   23.3620 C   0  0  0  0  0  0  0  0  0  0  0  0
  -26.5950  -34.8840   22.3440 O   0  0  0  0  0  0  0  0  0  0  0  0
  -24.9400  -33.9780   24.8610 H   0  0  0  0  0  0  0  0  0  0  0  0
  -24.1600  -36.7340   23.0310 C   0  0  0  0  0  1  0  0  0  0  0  0
  -25.3860  -36.3110   23.8570 C   0  0  0  0  0  3  0  0  0  0  0  0
  -27.4920  -37.1830   24.7680 C   0  0  0  0  0  1  0  0  0  0  0  0
  -26.4090  -37.3790   23.8080 N   0  0  0  0  0  0  0  0  0  0  0  0
  -25.9890  -38.2880   23.9860 H   0  0  0  0  0  0  0  0  0  0  0  0
  -26.4390  -31.6920   24.9650 C   0  0  1  0  0  0  0  0  0  0  0  0
  -25.3580  -31.4230   26.0370 C   0  0  0  0  0  1  0  0  0  0  0  0
  -27.0390  -30.3280   24.5520 C   0  0  0  0  0  1  0  0  0  0  0  0
  -27.5850  -32.4930   25.6290 C   0  0  0  0  0  1  0  0  0  0  0  0
  -31.3730  -18.7490   17.0120 N   0  0  0  0  0  0  0  0  0  0  0  0
  -30.9120  -19.5660   16.6250 H   0  0  0  0  0  0  0  0  0  0  0  0
  -31.4730  -18.0100   16.3280 H   0  0  0  0  0  0  0  0  0  0  0  0
  -31.6790  -15.7080   16.5990 C   0  0  0  0  0  1  0  0  0  0  0  0
  -32.1450  -16.1710   18.0000 C   0  0  0  0  0  2  0  0  0  0  0  0
  2  3  2  0
  3  1  1  0
  3 43  1  0
  4  7  1  0
  4  1  2  0
  5  4  1  0
  6  5  2  0
  6  2  1  0
  7 14  2  0
  8 13  1  0
  9 10  1  0
  9  8  1  0
 11 10  1  0
 11 18  1  0
 11 12  1  0
 13  7  1  0
 13 12  1  0
 15 16  2  0
 16 17  1  0
 16 35  1  0
 17 20  1  0
 18 15  1  0
 18 19  1  0
 19 17  2  0
 20 21  1  0
 21 22  2  0
 23 26  1  0
 23 22  1  0
 24 23  2  0
 25 24  1  0
 25 20  2  0
 26 27  1  0
 27 28  1  0
 28 29  2  0
 30 29  1  0
 30 34  1  0
 31 30  2  0
 32 27  2  0
 32 31  1  0
 33 32  1  0
 35 36  1  0
 36 39  1  0
 36 38  1  0
 37 35  2  0
 40 41  1  0
 40 15  1  0
 42 40  1  0
 43 45  2  0
 44 47  1  0
 44 43  1  0
 46 44  1  0
 48 49  1  0
 48 47  1  0
 50 61  2  0
 51 49  1  0
 51 56  1  0
 52 60  1  0
 52 62  1  0
 53 59  1  0
 53 55  1  0
 54 60  1  0
 55 56  2  0
 55 54  1  0
 57 51  2  0
 58 57  1  0
 58 53  2  0
 59 52  1  0
 60 50  1  0
 62 64  2  0
 63 62  1  0
 65 63  1  0
 66 75  2  0
 66 71  1  0
 67 63  1  0
 67 71  1  0
 68 67  1  0
 69 70  1  0
 69 68  1  0
 70 66  1  0
 71 72  2  0
 72 73  1  0
 74 73  2  0
 75 74  1  0
 76 50  1  0
 76 77  1  0
 76 86  1  0
 77 80  1  0
 78 82  1  0
 78 77  1  0
 79 78  2  0
 82 81  1  0
 84 82  1  0
 84 85  1  0
 84 83  1  0
 86 89  1  1
 86 87  1  0
 88 86  1  0
 90  6  1  0
 91 90  1  0
 92 90  1  0
 93 94  1  0
 94  5  1  0
M  ISO  4   4 100   7 100  48 101  49 101
M  END
>  <TORSDO>  (86) 
F 21

>  <SCORE>  (86) 
-12.850

>  <name>  (86) 
85

>  <ligand_id>  (86) 
85

>  <original_smiles>  (86) 
[H]c1c([H])c([H])c2c(c1[H])C([H])([H])C([H])([H])C([H])([H])C2([H])N([H])C(=O)C1([H])N(C(=O)C([H])(N([H])C(=O)C([H])(N([H])C([H])([H])[H])C([H])([H])[H])C(C([H])([H])[H])(C([H])([H])[H])C([H])([H])[H])C([H])([H])c2c([H])c(OC([H])([H])C([H])([H])N([H])C(=O)c3c([H])c(C(=O)N4C([H])([H])C([H])([H])C([H])([H])C([H])(n5nc(-c6c([H])c([H])c(Oc7c([H])c([H])c(F)c([H])c7F)c([H])c6[H])c(C(=O)N([H])[H])c5N([H])[H])C4([H])[H])c(C([H])([H])C([H])([H])[H])c(N([H])[H])c3[H])c([H])c([H])c2C1([H])[H]

>  <smiles>  (86) 
[H]c1c([H])c([H])c2c(c1[H])C([H])([H])C([H])([H])C([H])([H])C2([H])N([H])C(=O)C1([H])N(C(=O)C([H])(N([H])C(=O)C([H])(N([H])C([H])([H])[H])C([H])([H])[H])C(C([H])([H])[H])(C([H])([H])[H])C([H])([H])[H])C([H])([H])c2c([H])c(OC([H])([H])C([H])([H])N([H])C(=O)c3c([H])c(C(=O)N4C([H])([H])C([H])([H])C([H])([H])C([H])(n5nc(-c6c([H])c([H])c(Oc7c([H])c([H])c(F)c([H])c7F)c([H])c6[H])c(C(=O)N([H])[H])c5N([H])[H])C4([H])[H])c(C([H])([H])C([H])([H])[H])c(N([H])[H])c3[H])c([H])c([H])c2C1([H])[H]

$$$$
86:0:0
     RDKit          3D

 91 99  0  0  1  0  0  0  0  0999 V2000
  -28.7360  -25.3890   22.0390 C   0  0  0  0  0  3  0  0  0  0  0  0
  -29.0010  -24.2280   22.7860 C   0  0  0  0  0  3  0  0  0  0  0  0
  -28.7120  -24.0300   20.0320 C   0  0  0  0  0  3  0  0  0  0  0  0
  -28.9610  -22.8020   20.7750 C   0  0  0  0  0  0  0  0  0  0  0  0
  -28.5920  -25.3390   20.6450 C   0  0  0  0  0  0  0  0  0  0  0  0
  -29.1160  -22.9450   22.1850 C   0  0  0  0  0  0  0  0  0  0  0  0
  -29.8190  -21.9590   24.2810 C   0  0  0  0  0  1  0  0  0  0  0  0
  -29.3620  -21.8210   22.9390 O   0  0  0  0  0  0  0  0  0  0  0  0
  -28.4650  -26.5760   19.9670 O   0  0  0  0  0  0  0  0  0  0  0  0
  -24.6460  -31.8530   23.1980 C   0  0  0  0  0  0  0  0  0  0  0  0
  -27.3200  -27.3820   20.0650 C   0  0  0  0  0  0  0  0  0  0  0  0
  -23.4520  -30.4480   21.5550 C   0  0  0  0  0  3  0  0  0  0  0  0
  -24.9190  -28.9360   20.1030 C   0  0  0  0  0  0  0  0  0  0  0  0
  -25.9830  -30.8190   21.3510 C   0  0  0  0  0  2  0  0  0  0  0  0
  -26.0830  -29.4470   20.6940 C   0  0  0  0  0  0  0  0  0  0  0  0
  -27.2890  -28.6800   20.6660 C   0  0  0  0  0  3  0  0  0  0  0  0
  -26.1350  -26.9180   19.4610 C   0  0  0  0  0  3  0  0  0  0  0  0
  -24.9470  -27.6770   19.4790 C   0  0  0  0  0  3  0  0  0  0  0  0
  -23.6640  -29.7830   20.1690 C   0  0  0  0  0  2  0  0  0  0  0  0
  -24.7120  -31.0580   22.0910 N   0  0  0  0  0  0  0  0  0  0  0  0
  -23.5640  -32.1040   23.7480 O   0  0  0  0  0  0  0  0  0  0  0  0
  -22.8210  -29.4090   22.5140 C   0  0  0  0  0  0  0  0  0  0  0  0
  -21.5050  -29.1740   22.3690 N   0  0  0  0  0  0  0  0  0  0  0  0
  -23.5130  -28.8200   23.3460 O   0  0  0  0  0  0  0  0  0  0  0  0
  -21.0050  -29.7000   21.6670 H   0  0  0  0  0  0  0  0  0  0  0  0
  -18.1970  -27.7670   22.7630 C   0  0  0  0  0  0  0  0  0  0  0  0
  -20.7180  -28.2060   23.1340 C   0  0  0  0  0  3  0  0  0  0  0  0
  -20.9410  -26.7700   22.6060 C   0  0  0  0  0  2  0  0  0  0  0  0
  -19.9090  -26.3460   21.5570 C   0  0  0  0  0  2  0  0  0  0  0  0
  -18.4930  -26.4160   22.1360 C   0  0  0  0  0  2  0  0  0  0  0  0
  -19.2420  -28.6150   23.2160 C   0  0  0  0  0  0  0  0  0  0  0  0
  -18.9130  -29.8760   23.7600 C   0  0  0  0  0  3  0  0  0  0  0  0
  -17.5710  -30.2910   23.8570 C   0  0  0  0  0  3  0  0  0  0  0  0
  -16.5400  -29.4410   23.4210 C   0  0  0  0  0  3  0  0  0  0  0  0
  -16.8540  -28.1830   22.8790 C   0  0  0  0  0  3  0  0  0  0  0  0
  -25.9250  -32.5040   23.8120 C   0  0  0  0  0  3  0  0  0  0  0  0
  -25.5970  -33.8970   24.1480 N   0  0  0  0  0  0  0  0  0  0  0  0
  -25.9210  -34.9580   23.3980 C   0  0  0  0  0  0  0  0  0  0  0  0
  -26.5960  -34.8690   22.3680 O   0  0  0  0  0  0  0  0  0  0  0  0
  -24.9980  -34.0390   24.9480 H   0  0  0  0  0  0  0  0  0  0  0  0
  -24.1730  -36.7360   23.0480 C   0  0  0  0  0  1  0  0  0  0  0  0
  -25.4150  -36.3380   23.8630 C   0  0  0  0  0  3  0  0  0  0  0  0
  -27.5340  -37.2400   24.7140 C   0  0  0  0  0  1  0  0  0  0  0  0
  -26.4360  -37.4030   23.7650 N   0  0  0  0  0  0  0  0  0  0  0  0
  -26.0180  -38.3160   23.9180 H   0  0  0  0  0  0  0  0  0  0  0  0
  -26.4610  -31.7380   25.0840 C   0  0  1  0  0  0  0  0  0  0  0  0
  -25.3760  -31.4830   26.1550 C   0  0  0  0  0  1  0  0  0  0  0  0
  -27.0670  -30.3710   24.6910 C   0  0  0  0  0  1  0  0  0  0  0  0
  -27.6020  -32.5500   25.7420 C   0  0  0  0  0  1  0  0  0  0  0  0
  -28.9790  -21.3600   20.0710 C   0  0  0  0  0  3  0  0  0  0  0  0
  -29.7630  -20.0600   20.6520 C   0  0  0  0  0  3  0  0  0  0  0  0
  -29.5020  -18.5780   20.0630 C   0  0  0  0  0  3  0  0  0  0  0  0
  -30.4070  -17.3610   20.6160 C   0  0  0  0  0  3  0  0  0  0  0  0
  -30.6940  -14.7850   20.2050 C   0  0  0  0  0  0  0  0  0  0  0  0
  -30.4360  -12.5210   19.1960 C   0  0  0  0  0  2  0  0  0  0  0  0
  -29.4870  -12.6210   17.9830 C   0  0  0  0  0  2  0  0  0  0  0  0
  -28.0170  -12.4810   18.4300 C   0  0  0  0  0  2  0  0  0  0  0  0
  -27.6740  -13.3730   19.6530 C   0  0  0  0  0  3  0  0  0  0  0  0
  -28.7430  -13.2560   20.7590 C   0  0  0  0  0  2  0  0  0  0  0  0
  -30.0400  -13.5780   20.1510 N   0  0  0  0  0  0  0  0  0  0  0  0
  -31.8730  -14.8750   19.8580 O   0  0  0  0  0  0  0  0  0  0  0  0
  -29.9490  -15.9170   20.4690 N   0  0  0  0  0  0  0  0  0  0  0  0
  -28.9790  -15.7440   20.6850 H   0  0  0  0  0  0  0  0  0  0  0  0
  -25.3070  -14.0030   20.4230 C   0  0  0  0  0  0  0  0  0  0  0  0
  -24.2360  -13.2460   20.8100 C   0  0  0  0  0  0  0  0  0  0  0  0
  -24.6780  -11.8870   20.7720 C   0  0  0  0  0  0  0  0  0  0  0  0
  -26.3310  -13.1070   20.1640 N   0  0  0  0  0  0  0  0  0  0  0  0
  -25.9610  -11.8300   20.4390 N   0  0  0  0  0  0  0  0  0  0  0  0
  -23.9350  -10.6360   20.9770 C   0  0  0  0  0  0  0  0  0  0  0  0
  -24.3620   -9.6650   21.9090 C   0  0  0  0  0  3  0  0  0  0  0  0
  -23.6190   -8.4810   22.1020 C   0  0  0  0  0  3  0  0  0  0  0  0
  -22.4330   -8.2590   21.3620 C   0  0  0  0  0  0  0  0  0  0  0  0
  -22.0240   -9.2190   20.4190 C   0  0  0  0  0  3  0  0  0  0  0  0
  -22.7690  -10.3940   20.2240 C   0  0  0  0  0  3  0  0  0  0  0  0
  -21.6630   -7.1270   21.4620 O   0  0  0  0  0  0  0  0  0  0  0  0
  -21.6090   -6.3920   22.6200 C   0  0  0  0  0  0  0  0  0  0  0  0
  -21.2030   -6.9620   23.8460 C   0  0  0  0  0  3  0  0  0  0  0  0
  -21.0950   -6.1560   24.9960 C   0  0  0  0  0  3  0  0  0  0  0  0
  -21.3840   -4.7810   24.9220 C   0  0  0  0  0  0  0  0  0  0  0  0
  -21.7840   -4.2100   23.7010 C   0  0  0  0  0  3  0  0  0  0  0  0
  -21.8930   -5.0130   22.5530 C   0  0  0  0  0  0  0  0  0  0  0  0
  -22.2590   -4.4530   21.3750 F   0  0  0  0  0  0  0  0  0  0  0  0
  -21.2720   -4.0040   26.0250 F   0  0  0  0  0  0  0  0  0  0  0  0
  -22.8510  -13.7470   21.1020 C   0  0  0  0  0  0  0  0  0  0  0  0
  -22.1260  -13.0710   21.9860 N   0  0  0  0  0  0  0  0  0  0  0  0
  -22.4200  -14.7740   20.5790 O   0  0  0  0  0  0  0  0  0  0  0  0
  -22.4860  -12.2450   22.4390 H   0  0  0  0  0  0  0  0  0  0  0  0
  -21.1940  -13.3870   22.2150 H   0  0  0  0  0  0  0  0  0  0  0  0
  -25.4890  -15.3700   20.2420 N   0  0  0  0  0  0  0  0  0  0  0  0
  -24.7290  -16.0320   20.3570 H   0  0  0  0  0  0  0  0  0  0  0  0
  -26.3300  -15.7950   19.8740 H   0  0  0  0  0  0  0  0  0  0  0  0
  1  2  1  0
  3  5  1  0
  3  4  2  0
  4  6  1  0
  5  1  2  0
  6  2  2  0
  6  8  1  0
  8  7  1  0
  9 11  1  0
  9  5  1  0
 10 21  2  0
 11 16  1  0
 12 20  1  0
 12 22  1  0
 13 19  1  0
 13 15  1  0
 14 20  1  0
 15 14  1  0
 16 15  2  0
 17 18  1  0
 17 11  2  0
 18 13  2  0
 19 12  1  0
 20 10  1  0
 22 24  2  0
 23 22  1  0
 25 23  1  0
 26 35  2  0
 26 31  1  0
 27 23  1  0
 27 31  1  0
 28 27  1  0
 29 30  1  0
 29 28  1  0
 30 26  1  0
 31 32  2  0
 32 33  1  0
 34 33  2  0
 35 34  1  0
 36 10  1  0
 36 37  1  0
 36 46  1  0
 37 40  1  0
 38 42  1  0
 38 37  1  0
 39 38  2  0
 42 41  1  0
 44 42  1  0
 44 45  1  0
 44 43  1  0
 46 49  1  1
 46 47  1  0
 48 46  1  0
 50 51  2  0
 50  4  1  0
 52 53  2  0
 52 51  1  0
 54 62  1  0
 55 60  1  0
 56 57  1  0
 56 55  1  0
 58 57  1  0
 58 67  1  0
 58 59  1  0
 60 54  1  0
 60 59  1  0
 61 54  2  0
 62 53  1  0
 62 63  1  0
 64 65  2  0
 65 84  1  0
 66 65  1  0
 66 69  1  0
 67 64  1  0
 67 68  1  0
 68 66  2  0
 69 70  1  0
 70 71  2  0
 72 75  1  0
 72 71  1  0
 73 72  2  0
 74 73  1  0
 74 69  2  0
 75 76  1  0
 76 77  1  0
 77 78  2  0
 79 78  1  0
 79 83  1  0
 80 79  2  0
 81 76  2  0
 81 80  1  0
 82 81  1  0
 84 85  1  0
 85 88  1  0
 85 87  1  0
 86 84  2  0
 89 90  1  0
 89 64  1  0
 91 89  1  0
M  ISO  4   5 101   9 101  54 100  62 100
M  END
>  <TORSDO>  (87) 
F 21

>  <SCORE>  (87) 
-13.451

>  <name>  (87) 
86

>  <ligand_id>  (87) 
86

>  <original_smiles>  (87) 
[H]c1c([H])c([H])c2c(c1[H])C([H])([H])C([H])([H])C([H])([H])C2([H])N([H])C(=O)C1([H])N(C(=O)C([H])(N([H])C(=O)C([H])(N([H])C([H])([H])[H])C([H])([H])[H])C(C([H])([H])[H])(C([H])([H])[H])C([H])([H])[H])C([H])([H])c2c([H])c(Oc3c([H])c([H])c(OC([H])([H])[H])c(C([H])([H])C([H])([H])C([H])([H])C([H])([H])N([H])C(=O)N4C([H])([H])C([H])([H])C([H])([H])C([H])(n5nc(-c6c([H])c([H])c(Oc7c([H])c([H])c(F)c([H])c7F)c([H])c6[H])c(C(=O)N([H])[H])c5N([H])[H])C4([H])[H])c3[H])c([H])c([H])c2C1([H])[H]

>  <smiles>  (87) 
[H]c1c([H])c([H])c2c(c1[H])C([H])([H])C([H])([H])C([H])([H])C2([H])N([H])C(=O)C1([H])N(C(=O)C([H])(N([H])C(=O)C([H])(N([H])C([H])([H])[H])C([H])([H])[H])C(C([H])([H])[H])(C([H])([H])[H])C([H])([H])[H])C([H])([H])c2c([H])c(Oc3c([H])c([H])c(OC([H])([H])[H])c(C([H])([H])C([H])([H])C([H])([H])C([H])([H])N([H])C(=O)N4C([H])([H])C([H])([H])C([H])([H])C([H])(n5nc(-c6c([H])c([H])c(Oc7c([H])c([H])c(F)c([H])c7F)c([H])c6[H])c(C(=O)N([H])[H])c5N([H])[H])C4([H])[H])c3[H])c([H])c([H])c2C1([H])[H]

$$$$
87:0:0
     RDKit          3D

 95103  0  0  1  0  0  0  0  0999 V2000
  -28.4480  -20.6520   20.5500 C   0  0  0  0  0  2  0  0  0  0  0  0
  -28.7960  -21.9860   21.2410 C   0  0  0  0  0  0  0  0  0  0  0  0
  -29.0880  -23.0270   20.4400 N   0  0  0  0  0  0  0  0  0  0  0  0
  -28.7790  -22.0770   22.4700 O   0  0  0  0  0  0  0  0  0  0  0  0
  -29.1400  -22.8330   19.4510 H   0  0  0  0  0  0  0  0  0  0  0  0
  -29.2570  -24.4380   20.8190 C   0  0  0  0  0  2  0  0  0  0  0  0
  -28.2230  -25.2940   20.0610 C   0  0  0  0  0  2  0  0  0  0  0  0
  -28.3840  -26.7200   20.2050 O   0  0  0  0  0  0  0  0  0  0  0  0
  -24.5930  -31.9180   23.2340 C   0  0  0  0  0  0  0  0  0  0  0  0
  -27.2260  -27.4800   20.1370 C   0  0  0  0  0  0  0  0  0  0  0  0
  -23.3830  -30.5170   21.5940 C   0  0  0  0  0  3  0  0  0  0  0  0
  -24.8340  -29.0030   20.1470 C   0  0  0  0  0  0  0  0  0  0  0  0
  -25.9060  -30.8830   21.3870 C   0  0  0  0  0  2  0  0  0  0  0  0
  -25.9940  -29.5160   20.7400 C   0  0  0  0  0  0  0  0  0  0  0  0
  -27.1910  -28.7600   20.7360 C   0  0  0  0  0  3  0  0  0  0  0  0
  -26.0540  -26.9990   19.5080 C   0  0  0  0  0  3  0  0  0  0  0  0
  -24.8610  -27.7430   19.5260 C   0  0  0  0  0  3  0  0  0  0  0  0
  -23.5860  -29.8560   20.2060 C   0  0  0  0  0  2  0  0  0  0  0  0
  -24.6450  -31.1210   22.1290 N   0  0  0  0  0  0  0  0  0  0  0  0
  -23.5120  -32.1800   23.7840 O   0  0  0  0  0  0  0  0  0  0  0  0
  -22.7450  -29.4830   22.5500 C   0  0  0  0  0  0  0  0  0  0  0  0
  -21.4210  -29.2900   22.4280 N   0  0  0  0  0  0  0  0  0  0  0  0
  -23.4370  -28.8600   23.3610 O   0  0  0  0  0  0  0  0  0  0  0  0
  -20.9200  -29.8400   21.7420 H   0  0  0  0  0  0  0  0  0  0  0  0
  -18.0630  -28.0650   22.9260 C   0  0  0  0  0  0  0  0  0  0  0  0
  -20.6180  -28.3470   23.2070 C   0  0  0  0  0  3  0  0  0  0  0  0
  -20.7350  -26.9140   22.6360 C   0  0  0  0  0  2  0  0  0  0  0  0
  -19.6400  -26.5780   21.6200 C   0  0  0  0  0  2  0  0  0  0  0  0
  -18.2530  -26.7150   22.2560 C   0  0  0  0  0  2  0  0  0  0  0  0
  -19.1730  -28.8370   23.3600 C   0  0  0  0  0  0  0  0  0  0  0  0
  -18.9370  -30.1000   23.9440 C   0  0  0  0  0  3  0  0  0  0  0  0
  -17.6280  -30.5900   24.1020 C   0  0  0  0  0  3  0  0  0  0  0  0
  -16.5300  -29.8110   23.6920 C   0  0  0  0  0  3  0  0  0  0  0  0
  -16.7510  -28.5530   23.1030 C   0  0  0  0  0  3  0  0  0  0  0  0
  -25.8790  -32.5540   23.8440 C   0  0  0  0  0  3  0  0  0  0  0  0
  -25.5680  -33.9490   24.1790 N   0  0  0  0  0  0  0  0  0  0  0  0
  -25.8970  -35.0030   23.4210 C   0  0  0  0  0  0  0  0  0  0  0  0
  -26.5660  -34.9020   22.3870 O   0  0  0  0  0  0  0  0  0  0  0  0
  -24.9730  -34.0980   24.9790 H   0  0  0  0  0  0  0  0  0  0  0  0
  -24.1650  -36.7870   23.0650 C   0  0  0  0  0  1  0  0  0  0  0  0
  -25.4050  -36.3880   23.8800 C   0  0  0  0  0  3  0  0  0  0  0  0
  -27.5370  -37.2720   24.7150 C   0  0  0  0  0  1  0  0  0  0  0  0
  -26.4360  -37.4440   23.7710 N   0  0  0  0  0  0  0  0  0  0  0  0
  -26.0290  -38.3620   23.9240 H   0  0  0  0  0  0  0  0  0  0  0  0
  -26.4110  -31.7800   25.1110 C   0  0  1  0  0  0  0  0  0  0  0  0
  -25.3290  -31.5380   26.1880 C   0  0  0  0  0  1  0  0  0  0  0  0
  -26.9930  -30.4080   24.7060 C   0  0  0  0  0  1  0  0  0  0  0  0
  -27.5640  -32.5750   25.7630 C   0  0  0  0  0  1  0  0  0  0  0  0
  -29.2130  -19.4160   21.1300 C   0  0  0  0  0  2  0  0  0  0  0  0
  -30.3770  -18.8940   18.9490 C   0  0  0  0  0  3  0  0  0  0  0  0
  -30.6840  -16.1290   19.5310 C   0  0  0  0  0  0  0  0  0  0  0  0
  -31.0660  -18.0850   18.0440 C   0  0  0  0  0  0  0  0  0  0  0  0
  -29.8170  -18.3920   20.1360 C   0  0  0  0  0  0  0  0  0  0  0  0
  -31.2100  -16.7000   18.3130 C   0  0  0  0  0  0  0  0  0  0  0  0
  -29.9780  -16.9990   20.4340 C   0  0  0  0  0  0  0  0  0  0  0  0
  -32.0050  -15.8970   17.2770 C   0  0  0  0  0  1  0  0  0  0  0  0
  -29.4530  -16.4720   21.7700 C   0  0  0  0  0  1  0  0  0  0  0  0
  -31.1840  -14.7420   19.9590 C   0  0  0  0  0  0  0  0  0  0  0  0
  -30.6950  -12.5650   18.9700 C   0  0  0  0  0  2  0  0  0  0  0  0
  -29.7250  -12.7560   17.7820 C   0  0  0  0  0  2  0  0  0  0  0  0
  -28.2690  -12.6740   18.2620 C   0  0  0  0  0  2  0  0  0  0  0  0
  -27.9910  -13.5690   19.4990 C   0  0  0  0  0  3  0  0  0  0  0  0
  -29.0880  -13.4110   20.5720 C   0  0  0  0  0  2  0  0  0  0  0  0
  -30.3920  -13.6310   19.9360 N   0  0  0  0  0  0  0  0  0  0  0  0
  -32.4040  -14.6520   19.9030 O   0  0  0  0  0  0  0  0  0  0  0  0
  -25.6380  -14.2150   20.3150 C   0  0  0  0  0  0  0  0  0  0  0  0
  -24.5610  -13.4620   20.7000 C   0  0  0  0  0  0  0  0  0  0  0  0
  -24.9840  -12.1000   20.6300 C   0  0  0  0  0  0  0  0  0  0  0  0
  -26.6540  -13.3150   20.0420 N   0  0  0  0  0  0  0  0  0  0  0  0
  -26.2690  -12.0380   20.2990 N   0  0  0  0  0  0  0  0  0  0  0  0
  -24.2280  -10.8540   20.8090 C   0  0  0  0  0  0  0  0  0  0  0  0
  -24.6380   -9.8670   21.7330 C   0  0  0  0  0  3  0  0  0  0  0  0
  -23.8860   -8.6850   21.9020 C   0  0  0  0  0  3  0  0  0  0  0  0
  -22.7070   -8.4810   21.1480 C   0  0  0  0  0  0  0  0  0  0  0  0
  -22.3140   -9.4540   20.2140 C   0  0  0  0  0  3  0  0  0  0  0  0
  -23.0660  -10.6280   20.0420 C   0  0  0  0  0  3  0  0  0  0  0  0
  -21.9260   -7.3550   21.2300 O   0  0  0  0  0  0  0  0  0  0  0  0
  -21.8320   -6.6250   22.3870 C   0  0  0  0  0  0  0  0  0  0  0  0
  -21.3970   -7.2040   23.5980 C   0  0  0  0  0  3  0  0  0  0  0  0
  -21.2510   -6.4000   24.7480 C   0  0  0  0  0  3  0  0  0  0  0  0
  -21.5200   -5.0200   24.6830 C   0  0  0  0  0  0  0  0  0  0  0  0
  -21.9440   -4.4420   23.4740 C   0  0  0  0  0  3  0  0  0  0  0  0
  -22.0950   -5.2420   22.3290 C   0  0  0  0  0  0  0  0  0  0  0  0
  -22.4830   -4.6750   21.1600 F   0  0  0  0  0  0  0  0  0  0  0  0
  -21.3680   -4.2490   25.7850 F   0  0  0  0  0  0  0  0  0  0  0  0
  -23.1800  -13.9700   21.0050 C   0  0  0  0  0  0  0  0  0  0  0  0
  -22.4570  -13.2850   21.8820 N   0  0  0  0  0  0  0  0  0  0  0  0
  -22.7560  -15.0070   20.4990 O   0  0  0  0  0  0  0  0  0  0  0  0
  -22.8180  -12.4490   22.3190 H   0  0  0  0  0  0  0  0  0  0  0  0
  -21.5280  -13.6010   22.1250 H   0  0  0  0  0  0  0  0  0  0  0  0
  -25.8290  -15.5820   20.1470 N   0  0  0  0  0  0  0  0  0  0  0  0
  -25.0630  -16.2380   20.2380 H   0  0  0  0  0  0  0  0  0  0  0  0
  -26.6710  -16.0060   19.7720 H   0  0  0  0  0  0  0  0  0  0  0  0
  -32.7620  -19.8120   17.2060 C   0  0  0  0  0  1  0  0  0  0  0  0
  -31.6700  -18.7970   16.8240 C   0  0  0  0  0  2  0  0  0  0  0  0
  1 49  1  0
  1  2  1  0
  2  4  2  0
  3  6  1  0
  3  2  1  0
  5  3  1  0
  7  8  1  0
  7  6  1  0
  9 20  2  0
 10  8  1  0
 10 15  1  0
 11 19  1  0
 11 21  1  0
 12 18  1  0
 12 14  1  0
 13 19  1  0
 14 13  1  0
 15 14  2  0
 16 17  1  0
 16 10  2  0
 17 12  2  0
 18 11  1  0
 19  9  1  0
 21 23  2  0
 22 21  1  0
 24 22  1  0
 25 34  2  0
 25 30  1  0
 26 22  1  0
 26 30  1  0
 27 26  1  0
 28 29  1  0
 28 27  1  0
 29 25  1  0
 30 31  2  0
 31 32  1  0
 33 32  2  0
 34 33  1  0
 35  9  1  0
 35 36  1  0
 35 45  1  0
 36 39  1  0
 37 41  1  0
 37 36  1  0
 38 37  2  0
 41 40  1  0
 43 41  1  0
 43 44  1  0
 43 42  1  0
 45 48  1  1
 45 46  1  0
 47 45  1  0
 50 53  1  0
 51 58  1  0
 51 55  1  0
 52 54  1  0
 52 50  2  0
 53 55  2  0
 53 49  1  0
 54 51  2  0
 55 57  1  0
 56 54  1  0
 59 64  1  0
 60 61  1  0
 60 59  1  0
 62 61  1  0
 62 69  1  0
 62 63  1  0
 64 58  1  0
 64 63  1  0
 65 58  2  0
 66 67  2  0
 67 86  1  0
 68 67  1  0
 68 71  1  0
 69 70  1  0
 69 66  1  0
 70 68  2  0
 71 72  1  0
 72 73  2  0
 74 77  1  0
 74 73  1  0
 75 74  2  0
 76 75  1  0
 76 71  2  0
 77 78  1  0
 78 79  1  0
 79 80  2  0
 81 80  1  0
 81 85  1  0
 82 81  2  0
 83 78  2  0
 83 82  1  0
 84 83  1  0
 86 87  1  0
 87 90  1  0
 87 89  1  0
 88 86  2  0
 91 92  1  0
 91 66  1  0
 93 91  1  0
 95 94  1  0
 95 52  1  0
M  ISO  4   7 101   8 101  51 100  58 100
M  END
>  <TORSDO>  (88) 
F 22

>  <SCORE>  (88) 
-12.528

>  <name>  (88) 
87

>  <ligand_id>  (88) 
87

>  <original_smiles>  (88) 
[H]c1c([H])c([H])c2c(c1[H])C([H])([H])C([H])([H])C([H])([H])C2([H])N([H])C(=O)C1([H])N(C(=O)C([H])(N([H])C(=O)C([H])(N([H])C([H])([H])[H])C([H])([H])[H])C(C([H])([H])[H])(C([H])([H])[H])C([H])([H])[H])C([H])([H])c2c([H])c(OC([H])([H])C([H])([H])N([H])C(=O)C([H])([H])C([H])([H])c3c([H])c(C([H])([H])C([H])([H])[H])c(C([H])([H])[H])c(C(=O)N4C([H])([H])C([H])([H])C([H])([H])C([H])(n5nc(-c6c([H])c([H])c(Oc7c([H])c([H])c(F)c([H])c7F)c([H])c6[H])c(C(=O)N([H])[H])c5N([H])[H])C4([H])[H])c3C([H])([H])[H])c([H])c([H])c2C1([H])[H]

>  <smiles>  (88) 
[H]c1c([H])c([H])c2c(c1[H])C([H])([H])C([H])([H])C([H])([H])C2([H])N([H])C(=O)C1([H])N(C(=O)C([H])(N([H])C(=O)C([H])(N([H])C([H])([H])[H])C([H])([H])[H])C(C([H])([H])[H])(C([H])([H])[H])C([H])([H])[H])C([H])([H])c2c([H])c(OC([H])([H])C([H])([H])N([H])C(=O)C([H])([H])C([H])([H])c3c([H])c(C([H])([H])C([H])([H])[H])c(C([H])([H])[H])c(C(=O)N4C([H])([H])C([H])([H])C([H])([H])C([H])(n5nc(-c6c([H])c([H])c(Oc7c([H])c([H])c(F)c([H])c7F)c([H])c6[H])c(C(=O)N([H])[H])c5N([H])[H])C4([H])[H])c3C([H])([H])[H])c([H])c([H])c2C1([H])[H]

$$$$
88:0:0
     RDKit          3D

 90 99  0  0  1  0  0  0  0  0999 V2000
  -30.3990  -20.8060   20.7340 C   0  0  0  0  0  3  0  0  0  0  0  0
  -29.9990  -22.2420   20.7550 C   0  0  0  0  0  3  0  0  0  0  0  0
  -28.3050  -20.1540   19.9820 C   0  0  0  0  0  3  0  0  0  0  0  0
  -29.6130  -19.6150   20.3640 C   0  0  0  0  0  0  0  0  0  0  0  0
  -28.6960  -22.7480   20.3740 C   0  0  0  0  0  0  0  0  0  0  0  0
  -27.9120  -21.5980   20.0070 C   0  0  0  0  0  0  0  0  0  0  0  0
  -26.5310  -22.1200   19.6620 C   0  0  0  0  0  2  0  0  0  0  0  0
  -26.6250  -23.6880   19.5770 C   0  0  0  0  0  2  0  0  0  0  0  0
  -27.8320  -24.2420   20.4070 C   0  0  0  0  0  3  0  0  0  0  0  0
  -30.5230  -15.3520   20.2510 C   0  0  0  0  0  0  0  0  0  0  0  0
  -30.4720  -12.9080   19.3870 C   0  0  0  0  0  2  0  0  0  0  0  0
  -29.5750  -12.7060   18.1430 C   0  0  0  0  0  2  0  0  0  0  0  0
  -28.1320  -12.4040   18.5770 C   0  0  0  0  0  2  0  0  0  0  0  0
  -27.6560  -13.3680   19.6940 C   0  0  0  0  0  3  0  0  0  0  0  0
  -28.6900  -13.5480   20.8260 C   0  0  0  0  0  2  0  0  0  0  0  0
  -29.9210  -14.0600   20.1980 N   0  0  0  0  0  0  0  0  0  0  0  0
  -31.7400  -15.2870   20.0250 O   0  0  0  0  0  0  0  0  0  0  0  0
  -30.2890  -18.0650   20.2670 C   0  0  0  0  0  0  0  0  0  0  0  0
  -29.8190  -16.6630   20.3590 N   0  0  0  0  0  0  0  0  0  0  0  0
  -31.5070  -18.1680   20.1090 O   0  0  0  0  0  0  0  0  0  0  0  0
  -28.8290  -16.5850   20.5120 H   0  0  0  0  0  0  0  0  0  0  0  0
  -25.2690  -13.8930   20.4130 C   0  0  0  0  0  0  0  0  0  0  0  0
  -24.2170  -13.1050   20.7800 C   0  0  0  0  0  0  0  0  0  0  0  0
  -24.7060  -11.7620   20.7640 C   0  0  0  0  0  0  0  0  0  0  0  0
  -26.3270  -13.0350   20.1880 N   0  0  0  0  0  0  0  0  0  0  0  0
  -26.0010  -11.7460   20.4640 N   0  0  0  0  0  0  0  0  0  0  0  0
  -23.9970  -10.4910   20.9590 C   0  0  0  0  0  0  0  0  0  0  0  0
  -24.4200   -9.5470   21.9210 C   0  0  0  0  0  3  0  0  0  0  0  0
  -23.7070   -8.3420   22.1030 C   0  0  0  0  0  3  0  0  0  0  0  0
  -22.5560   -8.0740   21.3260 C   0  0  0  0  0  0  0  0  0  0  0  0
  -22.1530   -9.0050   20.3540 C   0  0  0  0  0  3  0  0  0  0  0  0
  -22.8650  -10.2030   20.1690 C   0  0  0  0  0  3  0  0  0  0  0  0
  -21.8160   -6.9210   21.4190 O   0  0  0  0  0  0  0  0  0  0  0  0
  -21.7370   -6.2040   22.5860 C   0  0  0  0  0  0  0  0  0  0  0  0
  -21.2370   -6.7750   23.7770 C   0  0  0  0  0  3  0  0  0  0  0  0
  -21.1090   -5.9850   24.9380 C   0  0  0  0  0  3  0  0  0  0  0  0
  -21.4680   -4.6240   24.9070 C   0  0  0  0  0  0  0  0  0  0  0  0
  -21.9600   -4.0520   23.7210 C   0  0  0  0  0  3  0  0  0  0  0  0
  -22.0910   -4.8390   22.5640 C   0  0  0  0  0  0  0  0  0  0  0  0
  -22.5440   -4.2770   21.4170 F   0  0  0  0  0  0  0  0  0  0  0  0
  -21.3370   -3.8620   26.0190 F   0  0  0  0  0  0  0  0  0  0  0  0
  -22.8090  -13.5640   21.0280 C   0  0  0  0  0  0  0  0  0  0  0  0
  -22.0860  -12.8700   21.9000 N   0  0  0  0  0  0  0  0  0  0  0  0
  -22.3610  -14.5750   20.4880 O   0  0  0  0  0  0  0  0  0  0  0  0
  -22.4630  -12.0560   22.3630 H   0  0  0  0  0  0  0  0  0  0  0  0
  -21.1410  -13.1520   22.1090 H   0  0  0  0  0  0  0  0  0  0  0  0
  -25.4180  -15.2660   20.2280 N   0  0  0  0  0  0  0  0  0  0  0  0
  -24.6440  -15.9130   20.3330 H   0  0  0  0  0  0  0  0  0  0  0  0
  -26.2710  -15.7160   19.9260 H   0  0  0  0  0  0  0  0  0  0  0  0
  -28.1830  -25.8620   20.2550 O   0  0  0  0  0  0  0  0  0  0  0  0
  -24.6690  -31.8990   23.2530 C   0  0  0  0  0  0  0  0  0  0  0  0
  -27.2050  -27.0020   20.2340 C   0  0  0  0  0  0  0  0  0  0  0  0
  -23.4820  -30.5200   21.5960 C   0  0  0  0  0  3  0  0  0  0  0  0
  -24.9320  -28.9200   20.1850 C   0  0  0  0  0  0  0  0  0  0  0  0
  -26.0550  -30.7040   21.4900 C   0  0  0  0  0  2  0  0  0  0  0  0
  -26.1180  -29.2970   20.8270 C   0  0  0  0  0  0  0  0  0  0  0  0
  -27.2470  -28.3570   20.8370 C   0  0  0  0  0  3  0  0  0  0  0  0
  -26.0090  -26.8150   19.5060 C   0  0  0  0  0  3  0  0  0  0  0  0
  -24.9010  -27.6950   19.5090 C   0  0  0  0  0  3  0  0  0  0  0  0
  -23.7200  -29.8450   20.2230 C   0  0  0  0  0  2  0  0  0  0  0  0
  -24.7560  -31.0710   22.1640 N   0  0  0  0  0  0  0  0  0  0  0  0
  -23.5770  -32.1960   23.7640 O   0  0  0  0  0  0  0  0  0  0  0  0
  -22.7740  -29.5220   22.5470 C   0  0  0  0  0  0  0  0  0  0  0  0
  -21.4430  -29.3710   22.4150 N   0  0  0  0  0  0  0  0  0  0  0  0
  -23.4280  -28.8830   23.3750 O   0  0  0  0  0  0  0  0  0  0  0  0
  -20.9660  -29.9350   21.7250 H   0  0  0  0  0  0  0  0  0  0  0  0
  -18.0430  -28.2030   22.9100 C   0  0  0  0  0  0  0  0  0  0  0  0
  -20.6070  -28.4310   23.1720 C   0  0  0  0  0  3  0  0  0  0  0  0
  -20.6890  -27.0070   22.5760 C   0  0  0  0  0  2  0  0  0  0  0  0
  -19.5820  -26.7140   21.5590 C   0  0  0  0  0  2  0  0  0  0  0  0
  -18.2030  -26.8640   22.2080 C   0  0  0  0  0  2  0  0  0  0  0  0
  -19.1730  -28.9470   23.3480 C   0  0  0  0  0  0  0  0  0  0  0  0
  -18.9680  -30.2000   23.9650 C   0  0  0  0  0  3  0  0  0  0  0  0
  -17.6700  -30.7100   24.1460 C   0  0  0  0  0  3  0  0  0  0  0  0
  -16.5550  -29.9640   23.7250 C   0  0  0  0  0  3  0  0  0  0  0  0
  -16.7440  -28.7110   23.1130 C   0  0  0  0  0  3  0  0  0  0  0  0
  -25.9380  -32.5290   23.9030 C   0  0  0  0  0  3  0  0  0  0  0  0
  -25.6290  -33.9320   24.2320 N   0  0  0  0  0  0  0  0  0  0  0  0
  -25.9490  -34.9870   23.4710 C   0  0  0  0  0  0  0  0  0  0  0  0
  -26.5980  -34.8810   22.4270 O   0  0  0  0  0  0  0  0  0  0  0  0
  -25.0460  -34.0870   25.0410 H   0  0  0  0  0  0  0  0  0  0  0  0
  -24.2010  -36.7770   23.1840 C   0  0  0  0  0  1  0  0  0  0  0  0
  -25.4780  -36.3800   23.9410 C   0  0  0  0  0  3  0  0  0  0  0  0
  -27.6390  -37.2900   24.6760 C   0  0  0  0  0  1  0  0  0  0  0  0
  -26.5010  -37.4350   23.7700 N   0  0  0  0  0  0  0  0  0  0  0  0
  -26.0960  -38.3570   23.9130 H   0  0  0  0  0  0  0  0  0  0  0  0
  -26.4160  -31.7620   25.2000 C   0  0  1  0  0  0  0  0  0  0  0  0
  -25.2950  -31.5450   26.2430 C   0  0  0  0  0  1  0  0  0  0  0  0
  -26.9950  -30.3730   24.8450 C   0  0  0  0  0  1  0  0  0  0  0  0
  -27.5590  -32.5510   25.8780 C   0  0  0  0  0  1  0  0  0  0  0  0
  1  2  1  0
  3  6  2  0
  3  4  1  0
  4  1  2  0
  5  9  1  0
  5  2  2  0
  6  5  1  0
  7  6  1  0
  8  7  1  0
  8  9  1  0
  9 50  1  0
 10 19  1  0
 11 16  1  0
 12 13  1  0
 12 11  1  0
 14 13  1  0
 14 25  1  0
 14 15  1  0
 16 10  1  0
 16 15  1  0
 17 10  2  0
 18 19  1  0
 18  4  1  0
 19 21  1  0
 20 18  2  0
 22 23  2  0
 23 42  1  0
 24 23  1  0
 24 27  1  0
 25 22  1  0
 25 26  1  0
 26 24  2  0
 27 28  1  0
 28 29  2  0
 30 33  1  0
 30 29  1  0
 31 30  2  0
 32 31  1  0
 32 27  2  0
 33 34  1  0
 34 35  1  0
 35 36  2  0
 37 36  1  0
 37 41  1  0
 38 37  2  0
 39 34  2  0
 39 38  1  0
 40 39  1  0
 42 43  1  0
 43 46  1  0
 43 45  1  0
 44 42  2  0
 47 48  1  0
 47 22  1  0
 49 47  1  0
 51 62  2  0
 52 50  1  0
 52 57  1  0
 53 61  1  0
 53 63  1  0
 54 60  1  0
 54 56  1  0
 55 61  1  0
 56 57  2  0
 56 55  1  0
 58 59  1  0
 58 52  2  0
 59 54  2  0
 60 53  1  0
 61 51  1  0
 63 65  2  0
 64 63  1  0
 66 64  1  0
 67 76  2  0
 67 72  1  0
 68 64  1  0
 68 72  1  0
 69 68  1  0
 70 71  1  0
 70 69  1  0
 71 67  1  0
 72 73  2  0
 73 74  1  0
 75 74  2  0
 76 75  1  0
 77 51  1  0
 77 78  1  0
 77 87  1  0
 78 81  1  0
 79 83  1  0
 79 78  1  0
 80 79  2  0
 83 82  1  0
 85 86  1  0
 85 83  1  0
 85 84  1  0
 87 90  1  1
 87 88  1  0
 89 87  1  0
M  ISO  4   9 101  10 100  19 100  50 101
M  END
>  <TORSDO>  (89) 
F 16

>  <SCORE>  (89) 
-16.074

>  <name>  (89) 
88

>  <ligand_id>  (89) 
88

>  <original_smiles>  (89) 
[H]c1c([H])c([H])c2c(c1[H])C([H])([H])C([H])([H])C([H])([H])C2([H])N([H])C(=O)C1([H])N(C(=O)C([H])(N([H])C(=O)C([H])(N([H])C([H])([H])[H])C([H])([H])[H])C(C([H])([H])[H])(C([H])([H])[H])C([H])([H])[H])C([H])([H])c2c([H])c(OC3([H])c4c([H])c([H])c(C(=O)N([H])C(=O)N5C([H])([H])C([H])([H])C([H])([H])C([H])(n6nc(-c7c([H])c([H])c(Oc8c([H])c([H])c(F)c([H])c8F)c([H])c7[H])c(C(=O)N([H])[H])c6N([H])[H])C5([H])[H])c([H])c4C([H])([H])C3([H])[H])c([H])c([H])c2C1([H])[H]

>  <smiles>  (89) 
[H]c1c([H])c([H])c2c(c1[H])C([H])([H])C([H])([H])C([H])([H])C2([H])N([H])C(=O)C1([H])N(C(=O)C([H])(N([H])C(=O)C([H])(N([H])C([H])([H])[H])C([H])([H])[H])C(C([H])([H])[H])(C([H])([H])[H])C([H])([H])[H])C([H])([H])c2c([H])c(OC3([H])c4c([H])c([H])c(C(=O)N([H])C(=O)N5C([H])([H])C([H])([H])C([H])([H])C([H])(n6nc(-c7c([H])c([H])c(Oc8c([H])c([H])c(F)c([H])c8F)c([H])c7[H])c(C(=O)N([H])[H])c6N([H])[H])C5([H])[H])c([H])c4C([H])([H])C3([H])[H])c([H])c([H])c2C1([H])[H]

$$$$
89:0:0
     RDKit          3D

 91100  0  0  1  0  0  0  0  0999 V2000
  -29.8350  -23.9730   21.4460 C   0  0  0  0  0  3  0  0  0  0  0  0
  -30.6370  -23.0140   22.0790 C   0  0  0  0  0  3  0  0  0  0  0  0
  -28.7290  -22.1400   20.2630 C   0  0  0  0  0  3  0  0  0  0  0  0
  -29.5610  -21.0970   20.8990 C   0  0  0  0  0  0  0  0  0  0  0  0
  -28.8460  -23.5970   20.5300 C   0  0  0  0  0  0  0  0  0  0  0  0
  -30.5080  -21.6290   21.8370 C   0  0  0  0  0  0  0  0  0  0  0  0
  -31.4270  -20.7430   22.6760 C   0  0  0  0  0  1  0  0  0  0  0  0
  -30.5890  -14.9220   20.1590 C   0  0  0  0  0  0  0  0  0  0  0  0
  -30.2590  -12.6330   19.1680 C   0  0  0  0  0  2  0  0  0  0  0  0
  -29.3010  -12.6180   17.9620 C   0  0  0  0  0  2  0  0  0  0  0  0
  -27.8580  -12.4100   18.4450 C   0  0  0  0  0  2  0  0  0  0  0  0
  -27.4940  -13.3320   19.6390 C   0  0  0  0  0  3  0  0  0  0  0  0
  -28.5900  -13.3760   20.7280 C   0  0  0  0  0  2  0  0  0  0  0  0
  -29.8360  -13.7570   20.0530 N   0  0  0  0  0  0  0  0  0  0  0  0
  -31.7930  -14.7840   19.9170 O   0  0  0  0  0  0  0  0  0  0  0  0
  -28.4310  -18.4560   20.4080 C   0  0  0  0  0  3  0  0  0  0  0  0
  -30.7080  -18.8580   19.8350 C   0  0  0  0  0  3  0  0  0  0  0  0
  -28.7450  -16.8580   20.5920 C   0  0  0  0  0  2  0  0  0  0  0  0
  -31.1250  -17.3720   20.1830 C   0  0  0  0  0  3  0  0  0  0  0  0
  -29.5990  -19.4540   20.7350 C   0  0  0  0  0  0  0  0  0  0  0  0
  -30.0950  -16.2670   20.2380 N   0  0  0  0  0  0  0  0  0  0  0  0
  -25.1430  -13.8940   20.4710 C   0  0  0  0  0  0  0  0  0  0  0  0
  -24.0910  -13.1110   20.8590 C   0  0  0  0  0  0  0  0  0  0  0  0
  -24.5590  -11.7610   20.7950 C   0  0  0  0  0  0  0  0  0  0  0  0
  -26.1800  -13.0220   20.1860 N   0  0  0  0  0  0  0  0  0  0  0  0
  -25.8410  -11.7340   20.4490 N   0  0  0  0  0  0  0  0  0  0  0  0
  -23.8400  -10.4950   20.9860 C   0  0  0  0  0  0  0  0  0  0  0  0
  -24.2770   -9.5320   21.9210 C   0  0  0  0  0  3  0  0  0  0  0  0
  -23.5560   -8.3310   22.1010 C   0  0  0  0  0  3  0  0  0  0  0  0
  -22.3840   -8.0860   21.3460 C   0  0  0  0  0  0  0  0  0  0  0  0
  -21.9670   -9.0380   20.4000 C   0  0  0  0  0  3  0  0  0  0  0  0
  -22.6880  -10.2300   20.2170 C   0  0  0  0  0  3  0  0  0  0  0  0
  -21.6340   -6.9380   21.4360 O   0  0  0  0  0  0  0  0  0  0  0  0
  -21.5610   -6.2160   22.6000 C   0  0  0  0  0  0  0  0  0  0  0  0
  -21.0810   -6.7850   23.8010 C   0  0  0  0  0  3  0  0  0  0  0  0
  -20.9570   -5.9900   24.9570 C   0  0  0  0  0  3  0  0  0  0  0  0
  -21.3000   -4.6250   24.9130 C   0  0  0  0  0  0  0  0  0  0  0  0
  -21.7710   -4.0550   23.7170 C   0  0  0  0  0  3  0  0  0  0  0  0
  -21.8980   -4.8490   22.5640 C   0  0  0  0  0  0  0  0  0  0  0  0
  -22.3330   -4.2890   21.4090 F   0  0  0  0  0  0  0  0  0  0  0  0
  -21.1720   -3.8570   26.0210 F   0  0  0  0  0  0  0  0  0  0  0  0
  -22.7010  -13.5820   21.1690 C   0  0  0  0  0  0  0  0  0  0  0  0
  -21.9970  -12.8750   22.0460 N   0  0  0  0  0  0  0  0  0  0  0  0
  -22.2490  -14.6110   20.6700 O   0  0  0  0  0  0  0  0  0  0  0  0
  -22.3770  -12.0430   22.4730 H   0  0  0  0  0  0  0  0  0  0  0  0
  -21.0640  -13.1730   22.2950 H   0  0  0  0  0  0  0  0  0  0  0  0
  -25.2950  -15.2670   20.3060 N   0  0  0  0  0  0  0  0  0  0  0  0
  -24.5270  -15.9150   20.4470 H   0  0  0  0  0  0  0  0  0  0  0  0
  -26.1300  -15.7150   19.9510 H   0  0  0  0  0  0  0  0  0  0  0  0
  -27.9400  -24.8080   19.9600 C   0  0  0  0  0  2  0  0  0  0  0  0
  -28.2180  -26.2900   20.2680 O   0  0  0  0  0  0  0  0  0  0  0  0
  -24.6200  -31.9120   23.2650 C   0  0  0  0  0  0  0  0  0  0  0  0
  -27.1680  -27.2580   20.1860 C   0  0  0  0  0  0  0  0  0  0  0  0
  -23.4070  -30.5320   21.6220 C   0  0  0  0  0  3  0  0  0  0  0  0
  -24.8440  -28.9760   20.1770 C   0  0  0  0  0  0  0  0  0  0  0  0
  -25.9570  -30.8080   21.4400 C   0  0  0  0  0  2  0  0  0  0  0  0
  -26.0240  -29.4240   20.7820 C   0  0  0  0  0  0  0  0  0  0  0  0
  -27.1890  -28.5790   20.7740 C   0  0  0  0  0  3  0  0  0  0  0  0
  -25.9680  -26.9070   19.5290 C   0  0  0  0  0  3  0  0  0  0  0  0
  -24.8240  -27.7300   19.5350 C   0  0  0  0  0  3  0  0  0  0  0  0
  -23.6150  -29.8670   20.2360 C   0  0  0  0  0  2  0  0  0  0  0  0
  -24.6810  -31.1040   22.1650 N   0  0  0  0  0  0  0  0  0  0  0  0
  -23.5390  -32.1920   23.8040 O   0  0  0  0  0  0  0  0  0  0  0  0
  -22.7360  -29.5150   22.5800 C   0  0  0  0  0  0  0  0  0  0  0  0
  -21.4090  -29.3420   22.4540 N   0  0  0  0  0  0  0  0  0  0  0  0
  -23.4110  -28.8870   23.3980 O   0  0  0  0  0  0  0  0  0  0  0  0
  -20.9210  -29.9050   21.7710 H   0  0  0  0  0  0  0  0  0  0  0  0
  -18.0290  -28.1370   22.9470 C   0  0  0  0  0  0  0  0  0  0  0  0
  -20.5880  -28.4020   23.2220 C   0  0  0  0  0  3  0  0  0  0  0  0
  -20.6930  -26.9700   22.6460 C   0  0  0  0  0  2  0  0  0  0  0  0
  -19.5930  -26.6470   21.6290 C   0  0  0  0  0  2  0  0  0  0  0  0
  -18.2100  -26.7880   22.2690 C   0  0  0  0  0  2  0  0  0  0  0  0
  -19.1460  -28.9010   23.3790 C   0  0  0  0  0  0  0  0  0  0  0  0
  -18.9220  -30.1610   23.9740 C   0  0  0  0  0  3  0  0  0  0  0  0
  -17.6150  -30.6590   24.1400 C   0  0  0  0  0  3  0  0  0  0  0  0
  -16.5140  -29.8920   23.7230 C   0  0  0  0  0  3  0  0  0  0  0  0
  -16.7220  -28.6330   23.1330 C   0  0  0  0  0  3  0  0  0  0  0  0
  -25.9050  -32.5390   23.8890 C   0  0  0  0  0  3  0  0  0  0  0  0
  -25.6010  -33.9390   24.2220 N   0  0  0  0  0  0  0  0  0  0  0  0
  -25.9140  -34.9920   23.4540 C   0  0  0  0  0  0  0  0  0  0  0  0
  -26.5540  -34.8850   22.4040 O   0  0  0  0  0  0  0  0  0  0  0  0
  -25.0280  -34.0940   25.0380 H   0  0  0  0  0  0  0  0  0  0  0  0
  -24.1670  -36.7800   23.1590 C   0  0  0  0  0  1  0  0  0  0  0  0
  -25.4410  -36.3810   23.9220 C   0  0  0  0  0  3  0  0  0  0  0  0
  -27.6020  -37.2830   24.6650 C   0  0  0  0  0  1  0  0  0  0  0  0
  -26.4650  -37.4380   23.7620 N   0  0  0  0  0  0  0  0  0  0  0  0
  -26.0600  -38.3570   23.9150 H   0  0  0  0  0  0  0  0  0  0  0  0
  -26.4130  -31.7650   25.1680 C   0  0  1  0  0  0  0  0  0  0  0  0
  -25.3170  -31.5350   26.2330 C   0  0  0  0  0  1  0  0  0  0  0  0
  -26.9890  -30.3840   24.7800 C   0  0  0  0  0  1  0  0  0  0  0  0
  -27.5670  -32.5530   25.8320 C   0  0  0  0  0  1  0  0  0  0  0  0
  1  2  1  0
  3  5  1  0
  3  4  2  0
  4  6  1  0
  5  1  2  0
  6  2  2  0
  6  7  1  0
  8 21  1  0
  9 14  1  0
 10 11  1  0
 10  9  1  0
 12 11  1  0
 12 25  1  0
 12 13  1  0
 14  8  1  0
 14 13  1  0
 15  8  2  0
 16 18  1  0
 16 20  2  0
 17 19  2  0
 17 20  1  0
 19 21  1  0
 20  4  1  0
 21 18  1  0
 22 23  2  0
 23 42  1  0
 24 23  1  0
 24 27  1  0
 25 26  1  0
 25 22  1  0
 26 24  2  0
 27 28  1  0
 28 29  2  0
 30 33  1  0
 30 29  1  0
 31 30  2  0
 32 31  1  0
 32 27  2  0
 33 34  1  0
 34 35  1  0
 35 36  2  0
 37 36  1  0
 37 41  1  0
 38 37  2  0
 39 34  2  0
 39 38  1  0
 40 39  1  0
 42 43  1  0
 43 46  1  0
 43 45  1  0
 44 42  2  0
 47 48  1  0
 47 22  1  0
 49 47  1  0
 50 51  1  0
 50  5  1  0
 52 63  2  0
 53 51  1  0
 53 58  1  0
 54 62  1  0
 54 64  1  0
 55 61  1  0
 55 57  1  0
 56 62  1  0
 57 56  1  0
 58 57  2  0
 59 60  1  0
 59 53  2  0
 60 55  2  0
 61 54  1  0
 62 52  1  0
 64 66  2  0
 65 64  1  0
 67 65  1  0
 68 77  2  0
 68 73  1  0
 69 65  1  0
 69 73  1  0
 70 69  1  0
 71 72  1  0
 71 70  1  0
 72 68  1  0
 73 74  2  0
 74 75  1  0
 76 75  2  0
 77 76  1  0
 78 52  1  0
 78 79  1  0
 78 88  1  0
 79 82  1  0
 80 84  1  0
 80 79  1  0
 81 80  2  0
 84 83  1  0
 86 87  1  0
 86 84  1  0
 86 85  1  0
 88 91  1  1
 88 89  1  0
 90 88  1  0
M  ISO  4   8 100  21 100  50 101  51 101
M  END
>  <TORSDO>  (90) 
F 17

>  <SCORE>  (90) 
-15.439

>  <name>  (90) 
89

>  <ligand_id>  (90) 
89

>  <original_smiles>  (90) 
[H]c1c([H])c([H])c2c(c1[H])C([H])([H])C([H])([H])C([H])([H])C2([H])N([H])C(=O)C1([H])N(C(=O)C([H])(N([H])C(=O)C([H])(N([H])C([H])([H])[H])C([H])([H])[H])C(C([H])([H])[H])(C([H])([H])[H])C([H])([H])[H])C([H])([H])c2c([H])c(OC([H])([H])c3c([H])c([H])c(C([H])([H])[H])c(C4([H])C([H])([H])C([H])([H])N(C(=O)N5C([H])([H])C([H])([H])C([H])([H])C([H])(n6nc(-c7c([H])c([H])c(Oc8c([H])c([H])c(F)c([H])c8F)c([H])c7[H])c(C(=O)N([H])[H])c6N([H])[H])C5([H])[H])C([H])([H])C4([H])[H])c3[H])c([H])c([H])c2C1([H])[H]

>  <smiles>  (90) 
[H]c1c([H])c([H])c2c(c1[H])C([H])([H])C([H])([H])C([H])([H])C2([H])N([H])C(=O)C1([H])N(C(=O)C([H])(N([H])C(=O)C([H])(N([H])C([H])([H])[H])C([H])([H])[H])C(C([H])([H])[H])(C([H])([H])[H])C([H])([H])[H])C([H])([H])c2c([H])c(OC([H])([H])c3c([H])c([H])c(C([H])([H])[H])c(C4([H])C([H])([H])C([H])([H])N(C(=O)N5C([H])([H])C([H])([H])C([H])([H])C([H])(n6nc(-c7c([H])c([H])c(Oc8c([H])c([H])c(F)c([H])c8F)c([H])c7[H])c(C(=O)N([H])[H])c6N([H])[H])C5([H])[H])C([H])([H])C4([H])[H])c3[H])c([H])c([H])c2C1([H])[H]

$$$$
90:0:0
     RDKit          3D

 91100  0  0  1  0  0  0  0  0999 V2000
  -27.6080  -24.8450   23.2270 C   0  0  0  0  0  2  0  0  0  0  0  0
  -28.1010  -23.4730   22.7460 C   0  0  0  0  0  2  0  0  0  0  0  0
  -27.3470  -25.7820   22.0450 C   0  0  0  0  0  2  0  0  0  0  0  0
  -29.0300  -24.4840   20.6260 C   0  0  0  0  0  2  0  0  0  0  0  0
  -29.3510  -23.5760   21.8460 C   0  0  0  0  0  3  0  0  0  0  0  0
  -28.5840  -25.9030   21.0930 C   0  0  0  0  0  3  0  0  0  0  0  0
  -31.2690  -21.9600   21.2050 C   0  0  0  0  0  3  0  0  0  0  0  0
  -31.5970  -20.5700   21.1960 C   0  0  0  0  0  3  0  0  0  0  0  0
  -29.9630  -22.2190   21.5460 C   0  0  0  0  0  0  0  0  0  0  0  0
  -30.5510  -19.7590   21.5440 C   0  0  0  0  0  0  0  0  0  0  0  0
  -29.0830  -20.7030   21.6940 S   0  0  0  0  0  0  0  0  0  0  0  0
  -30.6110  -18.2900   21.8800 C   0  0  0  0  0  2  0  0  0  0  0  0
  -30.5810  -17.2850   20.7060 C   0  0  0  0  0  2  0  0  0  0  0  0
  -30.5810  -15.8170   21.2260 C   0  0  0  0  0  2  0  0  0  0  0  0
  -31.1270  -14.7160   20.2730 C   0  0  0  0  0  0  0  0  0  0  0  0
  -30.8150  -12.5870   19.0330 C   0  0  0  0  0  2  0  0  0  0  0  0
  -29.8440  -12.7940   17.8530 C   0  0  0  0  0  2  0  0  0  0  0  0
  -28.3730  -12.6810   18.3060 C   0  0  0  0  0  2  0  0  0  0  0  0
  -28.0790  -13.5000   19.5900 C   0  0  0  0  0  3  0  0  0  0  0  0
  -29.1420  -13.2030   20.6680 C   0  0  0  0  0  2  0  0  0  0  0  0
  -30.4540  -13.5410   20.0980 N   0  0  0  0  0  0  0  0  0  0  0  0
  -32.1910  -14.9420   19.6840 O   0  0  0  0  0  0  0  0  0  0  0  0
  -25.7030  -14.1590   20.3260 C   0  0  0  0  0  0  0  0  0  0  0  0
  -24.6250  -13.4100   20.7110 C   0  0  0  0  0  0  0  0  0  0  0  0
  -25.0590  -12.0490   20.6790 C   0  0  0  0  0  0  0  0  0  0  0  0
  -26.7270  -13.2540   20.0840 N   0  0  0  0  0  0  0  0  0  0  0  0
  -26.3420  -11.9810   20.3500 N   0  0  0  0  0  0  0  0  0  0  0  0
  -24.3150  -10.8000   20.8830 C   0  0  0  0  0  0  0  0  0  0  0  0
  -24.6980   -9.8610   21.8650 C   0  0  0  0  0  3  0  0  0  0  0  0
  -23.9520   -8.6770   22.0550 C   0  0  0  0  0  3  0  0  0  0  0  0
  -22.8090   -8.4250   21.2600 C   0  0  0  0  0  0  0  0  0  0  0  0
  -22.4450   -9.3520   20.2680 C   0  0  0  0  0  3  0  0  0  0  0  0
  -23.1920  -10.5260   20.0770 C   0  0  0  0  0  3  0  0  0  0  0  0
  -22.0400   -7.2910   21.3540 O   0  0  0  0  0  0  0  0  0  0  0  0
  -21.8600   -6.6410   22.5500 C   0  0  0  0  0  0  0  0  0  0  0  0
  -21.3330   -7.2980   23.6810 C   0  0  0  0  0  3  0  0  0  0  0  0
  -21.0970   -6.5760   24.8680 C   0  0  0  0  0  3  0  0  0  0  0  0
  -21.3830   -5.1990   24.9250 C   0  0  0  0  0  0  0  0  0  0  0  0
  -21.9010   -4.5410   23.7950 C   0  0  0  0  0  3  0  0  0  0  0  0
  -22.1360   -5.2600   22.6090 C   0  0  0  0  0  0  0  0  0  0  0  0
  -22.6180   -4.6180   21.5190 F   0  0  0  0  0  0  0  0  0  0  0  0
  -21.1480   -4.5020   26.0610 F   0  0  0  0  0  0  0  0  0  0  0  0
  -23.2420  -13.9140   21.0060 C   0  0  0  0  0  0  0  0  0  0  0  0
  -22.5240  -13.2410   21.8970 N   0  0  0  0  0  0  0  0  0  0  0  0
  -22.8090  -14.9390   20.4800 O   0  0  0  0  0  0  0  0  0  0  0  0
  -22.8910  -12.4130   22.3430 H   0  0  0  0  0  0  0  0  0  0  0  0
  -21.5970  -13.5590   22.1390 H   0  0  0  0  0  0  0  0  0  0  0  0
  -25.8940  -15.5260   20.1420 N   0  0  0  0  0  0  0  0  0  0  0  0
  -25.1500  -16.2030   20.2650 H   0  0  0  0  0  0  0  0  0  0  0  0
  -26.7600  -15.9430   19.8260 H   0  0  0  0  0  0  0  0  0  0  0  0
  -28.4390  -26.8130   19.9750 O   0  0  0  0  0  0  0  0  0  0  0  0
  -24.6350  -31.8470   23.2970 C   0  0  0  0  0  0  0  0  0  0  0  0
  -27.3120  -27.6020   19.9740 C   0  0  0  0  0  0  0  0  0  0  0  0
  -23.4430  -30.5220   21.5830 C   0  0  0  0  0  3  0  0  0  0  0  0
  -24.9130  -29.0790   20.0690 C   0  0  0  0  0  0  0  0  0  0  0  0
  -25.9670  -30.9100   21.4070 C   0  0  0  0  0  2  0  0  0  0  0  0
  -26.0690  -29.5820   20.6850 C   0  0  0  0  0  0  0  0  0  0  0  0
  -27.2740  -28.8480   20.6420 C   0  0  0  0  0  3  0  0  0  0  0  0
  -26.1520  -27.1180   19.3400 C   0  0  0  0  0  3  0  0  0  0  0  0
  -24.9470  -27.8430   19.4000 C   0  0  0  0  0  3  0  0  0  0  0  0
  -23.6600  -29.9230   20.1680 C   0  0  0  0  0  2  0  0  0  0  0  0
  -24.7000  -31.1040   22.1550 N   0  0  0  0  0  0  0  0  0  0  0  0
  -23.5500  -32.0820   23.8470 O   0  0  0  0  0  0  0  0  0  0  0  0
  -22.8000  -29.4460   22.4850 C   0  0  0  0  0  0  0  0  0  0  0  0
  -21.4760  -29.2610   22.3540 N   0  0  0  0  0  0  0  0  0  0  0  0
  -23.4900  -28.7820   23.2630 O   0  0  0  0  0  0  0  0  0  0  0  0
  -20.9790  -29.8520   21.7020 H   0  0  0  0  0  0  0  0  0  0  0  0
  -18.1110  -28.0180   22.7970 C   0  0  0  0  0  0  0  0  0  0  0  0
  -20.6690  -28.2780   23.0750 C   0  0  0  0  0  3  0  0  0  0  0  0
  -20.7800  -26.8810   22.4200 C   0  0  0  0  0  2  0  0  0  0  0  0
  -19.6760  -26.6060   21.3940 C   0  0  0  0  0  2  0  0  0  0  0  0
  -18.2930  -26.7110   22.0460 C   0  0  0  0  0  2  0  0  0  0  0  0
  -19.2260  -28.7640   23.2610 C   0  0  0  0  0  0  0  0  0  0  0  0
  -19.0040  -29.9950   23.9160 C   0  0  0  0  0  3  0  0  0  0  0  0
  -17.6970  -30.4770   24.1130 C   0  0  0  0  0  3  0  0  0  0  0  0
  -16.5950  -29.7270   23.6650 C   0  0  0  0  0  3  0  0  0  0  0  0
  -16.8040  -28.5000   23.0120 C   0  0  0  0  0  3  0  0  0  0  0  0
  -25.9130  -32.4590   23.9460 C   0  0  0  0  0  3  0  0  0  0  0  0
  -26.4160  -31.6460   25.2000 C   0  0  1  0  0  0  0  0  0  0  0  0
  -25.3110  -31.3480   26.2420 C   0  0  0  0  0  1  0  0  0  0  0  0
  -27.0290  -30.2960   24.7640 C   0  0  0  0  0  1  0  0  0  0  0  0
  -27.5440  -32.4330   25.9070 C   0  0  0  0  0  1  0  0  0  0  0  0
  -25.5990  -33.8430   24.3160 N   0  0  0  0  0  0  0  0  0  0  0  0
  -25.9340  -34.9210   23.5920 C   0  0  0  0  0  0  0  0  0  0  0  0
  -26.6110  -34.8510   22.5610 O   0  0  0  0  0  0  0  0  0  0  0  0
  -25.0110  -33.9720   25.1270 H   0  0  0  0  0  0  0  0  0  0  0  0
  -24.2070  -36.7190   23.2770 C   0  0  0  0  0  1  0  0  0  0  0  0
  -25.4390  -36.2900   24.0900 C   0  0  0  0  0  3  0  0  0  0  0  0
  -27.5640  -37.1440   24.9720 C   0  0  0  0  0  1  0  0  0  0  0  0
  -26.4700  -37.3480   24.0260 N   0  0  0  0  0  0  0  0  0  0  0  0
  -26.0590  -38.2580   24.2110 H   0  0  0  0  0  0  0  0  0  0  0  0
  2  1  1  0
  3  1  1  0
  4  6  1  0
  4  5  1  0
  5  9  1  0
  5  2  1  0
  6 51  1  0
  6  3  1  0
  7  9  2  0
  8  7  1  0
  8 10  2  0
  9 11  1  0
 10 11  1  0
 10 12  1  0
 13 14  1  0
 13 12  1  0
 15 14  1  0
 16 21  1  0
 17 18  1  0
 17 16  1  0
 19 18  1  0
 19 26  1  0
 19 20  1  0
 21 15  1  0
 21 20  1  0
 22 15  2  0
 23 24  2  0
 24 43  1  0
 25 24  1  0
 25 28  1  0
 26 23  1  0
 26 27  1  0
 27 25  2  0
 28 29  1  0
 29 30  2  0
 31 34  1  0
 31 30  1  0
 32 31  2  0
 33 32  1  0
 33 28  2  0
 34 35  1  0
 35 40  2  0
 35 36  1  0
 36 37  2  0
 37 38  1  0
 38 42  1  0
 39 38  2  0
 40 39  1  0
 41 40  1  0
 43 44  1  0
 44 47  1  0
 44 46  1  0
 45 43  2  0
 48 49  1  0
 48 23  1  0
 50 48  1  0
 52 63  2  0
 53 51  1  0
 53 58  1  0
 54 62  1  0
 54 64  1  0
 55 61  1  0
 55 57  1  0
 56 62  1  0
 57 56  1  0
 58 57  2  0
 59 60  1  0
 59 53  2  0
 60 55  2  0
 61 54  1  0
 62 52  1  0
 64 66  2  0
 65 64  1  0
 67 65  1  0
 68 77  2  0
 68 73  1  0
 69 65  1  0
 69 73  1  0
 70 69  1  0
 71 72  1  0
 71 70  1  0
 72 68  1  0
 73 74  2  0
 74 75  1  0
 76 75  2  0
 77 76  1  0
 78 52  1  0
 78 83  1  0
 78 79  1  0
 79 82  1  1
 79 80  1  0
 81 79  1  0
 83 86  1  0
 84 88  1  0
 84 83  1  0
 85 84  2  0
 88 87  1  0
 90 88  1  0
 90 91  1  0
 90 89  1  0
M  ISO  4   6 101  14 100  15 100  51 101
M  END
>  <TORSDO>  (91) 
F 20

>  <SCORE>  (91) 
-11.960

>  <name>  (91) 
90

>  <ligand_id>  (91) 
90

>  <original_smiles>  (91) 
[H]c1c(C([H])([H])C([H])([H])C([H])([H])C(=O)N2C([H])([H])C([H])([H])C([H])([H])C([H])(n3nc(-c4c([H])c([H])c(Oc5c([H])c([H])c(F)c([H])c5F)c([H])c4[H])c(C(=O)N([H])[H])c3N([H])[H])C2([H])[H])sc(C2([H])C([H])([H])C([H])([H])C([H])([H])C([H])(Oc3c([H])c([H])c4c(c3[H])C([H])([H])N(C(=O)C([H])(N([H])C(=O)C([H])(N([H])C([H])([H])[H])C([H])([H])[H])C(C([H])([H])[H])(C([H])([H])[H])C([H])([H])[H])C([H])(C(=O)N([H])C3([H])c5c([H])c([H])c([H])c([H])c5C([H])([H])C([H])([H])C3([H])[H])C4([H])[H])C2([H])[H])c1[H]

>  <smiles>  (91) 
[H]c1c(C([H])([H])C([H])([H])C([H])([H])C(=O)N2C([H])([H])C([H])([H])C([H])([H])C([H])(n3nc(-c4c([H])c([H])c(Oc5c([H])c([H])c(F)c([H])c5F)c([H])c4[H])c(C(=O)N([H])[H])c3N([H])[H])C2([H])[H])sc(C2([H])C([H])([H])C([H])([H])C([H])([H])C([H])(Oc3c([H])c([H])c4c(c3[H])C([H])([H])N(C(=O)C([H])(N([H])C(=O)C([H])(N([H])C([H])([H])[H])C([H])([H])[H])C(C([H])([H])[H])(C([H])([H])[H])C([H])([H])[H])C([H])(C(=O)N([H])C3([H])c5c([H])c([H])c([H])c([H])c5C([H])([H])C([H])([H])C3([H])[H])C4([H])[H])C2([H])[H])c1[H]

$$$$
91:0:0
     RDKit          3D

 93102  0  0  1  0  0  0  0  0999 V2000
  -28.2540  -24.8990   23.4120 C   0  0  0  0  0  2  0  0  0  0  0  0
  -28.3470  -23.4790   22.8300 C   0  0  0  0  0  2  0  0  0  0  0  0
  -27.8050  -25.9120   22.3460 C   0  0  0  0  0  2  0  0  0  0  0  0
  -28.8110  -24.4340   20.5330 C   0  0  0  0  0  2  0  0  0  0  0  0
  -29.2980  -23.4330   21.6160 C   0  0  0  0  0  3  0  0  0  0  0  0
  -28.7260  -25.8730   21.0990 C   0  0  0  0  0  3  0  0  0  0  0  0
  -30.6480  -21.2660   21.6080 C   0  0  0  0  0  3  0  0  0  0  0  0
  -28.6210  -21.3390   20.2740 C   0  0  0  0  0  3  0  0  0  0  0  0
  -30.8370  -19.9090   21.2620 C   0  0  0  0  0  3  0  0  0  0  0  0
  -28.8110  -19.9850   19.9230 C   0  0  0  0  0  3  0  0  0  0  0  0
  -29.5290  -21.9920   21.1360 C   0  0  0  0  0  0  0  0  0  0  0  0
  -29.9010  -19.2470   20.4360 C   0  0  0  0  0  0  0  0  0  0  0  0
  -30.0370  -17.7580   20.0980 C   0  0  0  0  0  2  0  0  0  0  0  0
  -30.3710  -16.8530   21.3120 C   0  0  0  0  0  2  0  0  0  0  0  0
  -30.7210  -14.5050   20.4460 C   0  0  0  0  0  0  0  0  0  0  0  0
  -30.4410  -12.3760   19.2290 C   0  0  0  0  0  2  0  0  0  0  0  0
  -29.4950  -12.5980   18.0290 C   0  0  0  0  0  2  0  0  0  0  0  0
  -28.0140  -12.4840   18.4510 C   0  0  0  0  0  2  0  0  0  0  0  0
  -27.6850  -13.2890   19.7370 C   0  0  0  0  0  3  0  0  0  0  0  0
  -28.7350  -13.0050   20.8340 C   0  0  0  0  0  2  0  0  0  0  0  0
  -30.0630  -13.3280   20.2830 N   0  0  0  0  0  0  0  0  0  0  0  0
  -31.8220  -14.7460   19.9440 O   0  0  0  0  0  0  0  0  0  0  0  0
  -30.0220  -15.4450   21.1000 N   0  0  0  0  0  0  0  0  0  0  0  0
  -29.1280  -15.1420   21.4580 H   0  0  0  0  0  0  0  0  0  0  0  0
  -25.2820  -13.9140   20.4210 C   0  0  0  0  0  0  0  0  0  0  0  0
  -24.2080  -13.1500   20.7920 C   0  0  0  0  0  0  0  0  0  0  0  0
  -24.6650  -11.7970   20.7800 C   0  0  0  0  0  0  0  0  0  0  0  0
  -26.3250  -13.0270   20.2060 N   0  0  0  0  0  0  0  0  0  0  0  0
  -25.9570  -11.7480   20.4780 N   0  0  0  0  0  0  0  0  0  0  0  0
  -23.9350  -10.5380   20.9810 C   0  0  0  0  0  0  0  0  0  0  0  0
  -24.3690   -9.5770   21.9200 C   0  0  0  0  0  3  0  0  0  0  0  0
  -23.6410   -8.3820   22.1110 C   0  0  0  0  0  3  0  0  0  0  0  0
  -22.4660   -8.1400   21.3630 C   0  0  0  0  0  0  0  0  0  0  0  0
  -22.0490   -9.0910   20.4140 C   0  0  0  0  0  3  0  0  0  0  0  0
  -22.7750  -10.2770   20.2210 C   0  0  0  0  0  3  0  0  0  0  0  0
  -21.7100   -6.9960   21.4610 O   0  0  0  0  0  0  0  0  0  0  0  0
  -21.6730   -6.2540   22.6140 C   0  0  0  0  0  0  0  0  0  0  0  0
  -21.2710   -6.8130   23.8470 C   0  0  0  0  0  3  0  0  0  0  0  0
  -21.1810   -5.9990   24.9940 C   0  0  0  0  0  3  0  0  0  0  0  0
  -21.4820   -4.6270   24.9090 C   0  0  0  0  0  0  0  0  0  0  0  0
  -21.8770   -4.0670   23.6800 C   0  0  0  0  0  3  0  0  0  0  0  0
  -21.9690   -4.8790   22.5360 C   0  0  0  0  0  0  0  0  0  0  0  0
  -22.3290   -4.3300   21.3510 F   0  0  0  0  0  0  0  0  0  0  0  0
  -21.3890   -3.8420   26.0080 F   0  0  0  0  0  0  0  0  0  0  0  0
  -22.8100  -13.6320   21.0530 C   0  0  0  0  0  0  0  0  0  0  0  0
  -22.0770  -12.9430   21.9220 N   0  0  0  0  0  0  0  0  0  0  0  0
  -22.3740  -14.6500   20.5190 O   0  0  0  0  0  0  0  0  0  0  0  0
  -22.4430  -12.1180   22.3740 H   0  0  0  0  0  0  0  0  0  0  0  0
  -21.1360  -13.2450   22.1360 H   0  0  0  0  0  0  0  0  0  0  0  0
  -25.4580  -15.2840   20.2300 N   0  0  0  0  0  0  0  0  0  0  0  0
  -24.7150  -15.9590   20.3630 H   0  0  0  0  0  0  0  0  0  0  0  0
  -26.3150  -15.7010   19.8870 H   0  0  0  0  0  0  0  0  0  0  0  0
  -28.4240  -26.7950   20.0350 O   0  0  0  0  0  0  0  0  0  0  0  0
  -24.5980  -31.8960   23.2020 C   0  0  0  0  0  0  0  0  0  0  0  0
  -27.2470  -27.5030   20.0870 C   0  0  0  0  0  0  0  0  0  0  0  0
  -23.3870  -30.4920   21.5640 C   0  0  0  0  0  3  0  0  0  0  0  0
  -24.8410  -28.9720   20.1140 C   0  0  0  0  0  0  0  0  0  0  0  0
  -25.8990  -30.8850   21.3320 C   0  0  0  0  0  2  0  0  0  0  0  0
  -25.9960  -29.5130   20.6950 C   0  0  0  0  0  0  0  0  0  0  0  0
  -27.2060  -28.7830   20.6800 C   0  0  0  0  0  3  0  0  0  0  0  0
  -26.0820  -26.9720   19.4950 C   0  0  0  0  0  3  0  0  0  0  0  0
  -24.8760  -27.7020   19.5100 C   0  0  0  0  0  3  0  0  0  0  0  0
  -23.5860  -29.8190   20.1770 C   0  0  0  0  0  2  0  0  0  0  0  0
  -24.6480  -31.1030   22.0930 N   0  0  0  0  0  0  0  0  0  0  0  0
  -23.5210  -32.1580   23.7570 O   0  0  0  0  0  0  0  0  0  0  0  0
  -22.7510  -29.4640   22.5250 C   0  0  0  0  0  0  0  0  0  0  0  0
  -21.4240  -29.2850   22.4130 N   0  0  0  0  0  0  0  0  0  0  0  0
  -23.4460  -28.8290   23.3220 O   0  0  0  0  0  0  0  0  0  0  0  0
  -20.9290  -29.8560   21.7410 H   0  0  0  0  0  0  0  0  0  0  0  0
  -18.0530  -28.0910   22.9300 C   0  0  0  0  0  0  0  0  0  0  0  0
  -20.6130  -28.3370   23.1790 C   0  0  0  0  0  3  0  0  0  0  0  0
  -20.7070  -26.9140   22.5840 C   0  0  0  0  0  2  0  0  0  0  0  0
  -19.5920  -26.6070   21.5800 C   0  0  0  0  0  2  0  0  0  0  0  0
  -18.2170  -26.7490   22.2380 C   0  0  0  0  0  2  0  0  0  0  0  0
  -19.1790  -28.8450   23.3550 C   0  0  0  0  0  0  0  0  0  0  0  0
  -18.9710  -30.1030   23.9600 C   0  0  0  0  0  3  0  0  0  0  0  0
  -17.6690  -30.6060   24.1480 C   0  0  0  0  0  3  0  0  0  0  0  0
  -16.5580  -29.8470   23.7430 C   0  0  0  0  0  3  0  0  0  0  0  0
  -16.7510  -28.5920   23.1380 C   0  0  0  0  0  3  0  0  0  0  0  0
  -25.8870  -32.5290   23.8170 C   0  0  0  0  0  3  0  0  0  0  0  0
  -26.4200  -31.7500   25.0810 C   0  0  1  0  0  0  0  0  0  0  0  0
  -25.3370  -31.5010   26.1590 C   0  0  0  0  0  1  0  0  0  0  0  0
  -27.0030  -30.3800   24.6620 C   0  0  0  0  0  1  0  0  0  0  0  0
  -27.5750  -32.5420   25.7400 C   0  0  0  0  0  1  0  0  0  0  0  0
  -25.5770  -33.9230   24.1600 N   0  0  0  0  0  0  0  0  0  0  0  0
  -25.9100  -34.9820   23.4100 C   0  0  0  0  0  0  0  0  0  0  0  0
  -26.5820  -34.8890   22.3790 O   0  0  0  0  0  0  0  0  0  0  0  0
  -24.9770  -34.0710   24.9590 H   0  0  0  0  0  0  0  0  0  0  0  0
  -24.1820  -36.7760   23.0600 C   0  0  0  0  0  1  0  0  0  0  0  0
  -25.4180  -36.3650   23.8760 C   0  0  0  0  0  3  0  0  0  0  0  0
  -27.5490  -37.2350   24.7300 C   0  0  0  0  0  1  0  0  0  0  0  0
  -26.4510  -37.4190   23.7830 N   0  0  0  0  0  0  0  0  0  0  0  0
  -26.0440  -38.3360   23.9450 H   0  0  0  0  0  0  0  0  0  0  0  0
  2  1  1  0
  3  1  1  0
  4  6  1  0
  4  5  1  0
  5 11  1  0
  5  2  1  0
  6 53  1  0
  6  3  1  0
  8 11  1  0
  9  7  1  0
 10  8  2  0
 10 12  1  0
 11  7  2  0
 12  9  2  0
 13 12  1  0
 13 14  1  0
 15 23  1  0
 16 21  1  0
 17 18  1  0
 17 16  1  0
 19 18  1  0
 19 28  1  0
 19 20  1  0
 21 15  1  0
 21 20  1  0
 22 15  2  0
 23 14  1  0
 23 24  1  0
 25 26  2  0
 26 45  1  0
 27 26  1  0
 27 30  1  0
 28 25  1  0
 28 29  1  0
 29 27  2  0
 30 31  1  0
 31 32  2  0
 33 36  1  0
 33 32  1  0
 34 33  2  0
 35 34  1  0
 35 30  2  0
 36 37  1  0
 37 38  1  0
 38 39  2  0
 40 39  1  0
 40 44  1  0
 41 40  2  0
 42 37  2  0
 42 41  1  0
 43 42  1  0
 45 46  1  0
 46 49  1  0
 46 48  1  0
 47 45  2  0
 50 51  1  0
 50 25  1  0
 52 50  1  0
 53 55  1  0
 54 65  2  0
 55 60  1  0
 56 64  1  0
 56 66  1  0
 57 63  1  0
 57 59  1  0
 58 64  1  0
 59 58  1  0
 60 59  2  0
 61 62  1  0
 61 55  2  0
 62 57  2  0
 63 56  1  0
 64 54  1  0
 66 68  2  0
 67 66  1  0
 69 67  1  0
 70 79  2  0
 70 75  1  0
 71 67  1  0
 71 75  1  0
 72 71  1  0
 73 74  1  0
 73 72  1  0
 74 70  1  0
 75 76  2  0
 76 77  1  0
 78 77  2  0
 79 78  1  0
 80 54  1  0
 80 85  1  0
 80 81  1  0
 81 84  1  1
 81 82  1  0
 83 81  1  0
 85 88  1  0
 86 90  1  0
 86 85  1  0
 87 86  2  0
 90 89  1  0
 92 90  1  0
 92 93  1  0
 92 91  1  0
M  ISO  4   6 101  15 100  23 100  53 101
M  END
>  <TORSDO>  (92) 
F 19

>  <SCORE>  (92) 
-13.727

>  <name>  (92) 
91

>  <ligand_id>  (92) 
91

>  <original_smiles>  (92) 
[H]c1c([H])c([H])c2c(c1[H])C([H])([H])C([H])([H])C([H])([H])C2([H])N([H])C(=O)C1([H])N(C(=O)C([H])(N([H])C(=O)C([H])(N([H])C([H])([H])[H])C([H])([H])[H])C(C([H])([H])[H])(C([H])([H])[H])C([H])([H])[H])C([H])([H])c2c([H])c(OC3([H])C([H])([H])C([H])([H])C([H])([H])C([H])(c4c([H])c([H])c(C([H])([H])C([H])([H])N([H])C(=O)N5C([H])([H])C([H])([H])C([H])([H])C([H])(n6nc(-c7c([H])c([H])c(Oc8c([H])c([H])c(F)c([H])c8F)c([H])c7[H])c(C(=O)N([H])[H])c6N([H])[H])C5([H])[H])c([H])c4[H])C3([H])[H])c([H])c([H])c2C1([H])[H]

>  <smiles>  (92) 
[H]c1c([H])c([H])c2c(c1[H])C([H])([H])C([H])([H])C([H])([H])C2([H])N([H])C(=O)C1([H])N(C(=O)C([H])(N([H])C(=O)C([H])(N([H])C([H])([H])[H])C([H])([H])[H])C(C([H])([H])[H])(C([H])([H])[H])C([H])([H])[H])C([H])([H])c2c([H])c(OC3([H])C([H])([H])C([H])([H])C([H])([H])C([H])(c4c([H])c([H])c(C([H])([H])C([H])([H])N([H])C(=O)N5C([H])([H])C([H])([H])C([H])([H])C([H])(n6nc(-c7c([H])c([H])c(Oc8c([H])c([H])c(F)c([H])c8F)c([H])c7[H])c(C(=O)N([H])[H])c6N([H])[H])C5([H])[H])c([H])c4[H])C3([H])[H])c([H])c([H])c2C1([H])[H]

$$$$
92:0:0
     RDKit          3D

 92101  0  0  1  0  0  0  0  0999 V2000
  -28.0050  -23.9450   22.4720 C   0  0  0  0  0  3  0  0  0  0  0  0
  -28.3650  -22.7000   21.9280 C   0  0  0  0  0  3  0  0  0  0  0  0
  -27.9360  -25.1030   21.6890 C   0  0  0  0  0  3  0  0  0  0  0  0
  -28.6730  -22.4820   20.5570 C   0  0  0  0  0  0  0  0  0  0  0  0
  -28.6100  -23.7460   19.7620 C   0  0  0  0  0  0  0  0  0  0  0  0
  -28.2420  -25.0860   20.3190 C   0  0  0  0  0  0  0  0  0  0  0  0
  -28.9640  -23.6870   18.2890 C   0  0  0  0  0  1  0  0  0  0  0  0
  -28.9680  -20.2460   19.0340 C   0  0  0  0  0  3  0  0  0  0  0  0
  -29.0110  -20.9290   20.2260 C   0  0  0  0  0  0  0  0  0  0  0  0
  -29.2700  -18.6960   18.7450 C   0  0  0  0  0  2  0  0  0  0  0  0
  -29.4790  -19.9540   21.3570 C   0  0  0  0  0  2  0  0  0  0  0  0
  -29.4170  -18.3800   21.1490 C   0  0  0  0  0  2  0  0  0  0  0  0
  -29.9890  -17.7690   19.8370 C   0  0  0  0  0  3  0  0  0  0  0  0
  -30.6710  -15.0900   19.5790 C   0  0  0  0  0  0  0  0  0  0  0  0
  -30.5460  -12.7160   18.7180 C   0  0  0  0  0  2  0  0  0  0  0  0
  -29.5010  -12.6210   17.5840 C   0  0  0  0  0  2  0  0  0  0  0  0
  -28.0860  -12.4020   18.1560 C   0  0  0  0  0  2  0  0  0  0  0  0
  -27.7670  -13.3560   19.3360 C   0  0  0  0  0  3  0  0  0  0  0  0
  -28.9220  -13.4070   20.3600 C   0  0  0  0  0  2  0  0  0  0  0  0
  -30.1250  -13.8160   19.6260 N   0  0  0  0  0  0  0  0  0  0  0  0
  -31.8370  -15.2130   19.1880 O   0  0  0  0  0  0  0  0  0  0  0  0
  -29.8310  -16.2060   19.7840 N   0  0  0  0  0  0  0  0  0  0  0  0
  -28.9000  -15.9060   20.0300 H   0  0  0  0  0  0  0  0  0  0  0  0
  -25.4990  -13.9210   20.3840 C   0  0  0  0  0  0  0  0  0  0  0  0
  -24.4670  -13.1380   20.8240 C   0  0  0  0  0  0  0  0  0  0  0  0
  -24.8940  -11.7860   20.6490 C   0  0  0  0  0  0  0  0  0  0  0  0
  -26.4880  -13.0470   19.9650 N   0  0  0  0  0  0  0  0  0  0  0  0
  -26.1400  -11.7520   20.1890 N   0  0  0  0  0  0  0  0  0  0  0  0
  -24.1660  -10.5250   20.8380 C   0  0  0  0  0  0  0  0  0  0  0  0
  -24.5680   -9.5780   21.8050 C   0  0  0  0  0  3  0  0  0  0  0  0
  -23.8410   -8.3800   21.9820 C   0  0  0  0  0  3  0  0  0  0  0  0
  -22.6960   -8.1220   21.1900 C   0  0  0  0  0  0  0  0  0  0  0  0
  -22.3140   -9.0580   20.2130 C   0  0  0  0  0  3  0  0  0  0  0  0
  -23.0410  -10.2460   20.0350 C   0  0  0  0  0  3  0  0  0  0  0  0
  -21.9420   -6.9770   21.2740 O   0  0  0  0  0  0  0  0  0  0  0  0
  -21.6920   -6.3650   22.4760 C   0  0  0  0  0  0  0  0  0  0  0  0
  -21.0230   -7.0330   23.5260 C   0  0  0  0  0  3  0  0  0  0  0  0
  -20.7250   -6.3460   24.7200 C   0  0  0  0  0  3  0  0  0  0  0  0
  -21.0850   -4.9920   24.8630 C   0  0  0  0  0  0  0  0  0  0  0  0
  -21.7460   -4.3240   23.8160 C   0  0  0  0  0  3  0  0  0  0  0  0
  -22.0450   -5.0090   22.6250 C   0  0  0  0  0  0  0  0  0  0  0  0
  -22.6630   -4.3550   21.6120 F   0  0  0  0  0  0  0  0  0  0  0  0
  -20.7920   -4.3290   26.0060 F   0  0  0  0  0  0  0  0  0  0  0  0
  -23.1200  -13.6160   21.2830 C   0  0  0  0  0  0  0  0  0  0  0  0
  -22.4840  -12.8830   22.1880 N   0  0  0  0  0  0  0  0  0  0  0  0
  -22.6450  -14.6740   20.8710 O   0  0  0  0  0  0  0  0  0  0  0  0
  -22.8830  -12.0270   22.5440 H   0  0  0  0  0  0  0  0  0  0  0  0
  -21.5830  -13.1830   22.5310 H   0  0  0  0  0  0  0  0  0  0  0  0
  -25.6680  -15.2990   20.2760 N   0  0  0  0  0  0  0  0  0  0  0  0
  -24.9250  -15.9480   20.5080 H   0  0  0  0  0  0  0  0  0  0  0  0
  -26.4540  -15.7470   19.8250 H   0  0  0  0  0  0  0  0  0  0  0  0
  -28.2440  -26.4010   19.6980 O   0  0  0  0  0  0  0  0  0  0  0  0
  -24.5070  -31.7800   23.0720 C   0  0  0  0  0  0  0  0  0  0  0  0
  -27.1480  -27.3200   19.7860 C   0  0  0  0  0  0  0  0  0  0  0  0
  -23.3020  -30.4120   21.4120 C   0  0  0  0  0  3  0  0  0  0  0  0
  -24.7580  -28.9440   19.8890 C   0  0  0  0  0  0  0  0  0  0  0  0
  -25.8350  -30.7810   21.1820 C   0  0  0  0  0  2  0  0  0  0  0  0
  -25.9350  -29.4190   20.4830 C   0  0  0  0  0  0  0  0  0  0  0  0
  -27.1340  -28.6210   20.4190 C   0  0  0  0  0  3  0  0  0  0  0  0
  -25.9430  -26.9300   19.1670 C   0  0  0  0  0  3  0  0  0  0  0  0
  -24.7680  -27.7100   19.2210 C   0  0  0  0  0  3  0  0  0  0  0  0
  -23.5000  -29.7920   20.0030 C   0  0  0  0  0  2  0  0  0  0  0  0
  -24.5690  -31.0110   21.9440 N   0  0  0  0  0  0  0  0  0  0  0  0
  -23.4290  -32.0060   23.6430 O   0  0  0  0  0  0  0  0  0  0  0  0
  -22.6890  -29.3450   22.3520 C   0  0  0  0  0  0  0  0  0  0  0  0
  -21.3720  -29.1000   22.2230 N   0  0  0  0  0  0  0  0  0  0  0  0
  -23.3980  -28.7390   23.1600 O   0  0  0  0  0  0  0  0  0  0  0  0
  -20.8520  -29.6460   21.5490 H   0  0  0  0  0  0  0  0  0  0  0  0
  -18.0650  -27.7020   22.7000 C   0  0  0  0  0  0  0  0  0  0  0  0
  -20.6060  -28.1010   22.9720 C   0  0  0  0  0  3  0  0  0  0  0  0
  -20.7880  -26.6910   22.3660 C   0  0  0  0  0  2  0  0  0  0  0  0
  -19.7040  -26.3290   21.3460 C   0  0  0  0  0  2  0  0  0  0  0  0
  -18.3160  -26.3820   21.9920 C   0  0  0  0  0  2  0  0  0  0  0  0
  -19.1400  -28.5180   23.1450 C   0  0  0  0  0  0  0  0  0  0  0  0
  -18.8480  -29.7530   23.7650 C   0  0  0  0  0  3  0  0  0  0  0  0
  -17.5170  -30.1730   23.9440 C   0  0  0  0  0  3  0  0  0  0  0  0
  -16.4580  -29.3540   23.5150 C   0  0  0  0  0  3  0  0  0  0  0  0
  -16.7330  -28.1210   22.8980 C   0  0  0  0  0  3  0  0  0  0  0  0
  -25.7830  -32.4310   23.6880 C   0  0  0  0  0  3  0  0  0  0  0  0
  -25.4480  -33.8170   24.0550 N   0  0  0  0  0  0  0  0  0  0  0  0
  -25.7430  -34.8950   23.3150 C   0  0  0  0  0  0  0  0  0  0  0  0
  -26.3940  -34.8290   22.2690 O   0  0  0  0  0  0  0  0  0  0  0  0
  -24.8720  -33.9410   24.8740 H   0  0  0  0  0  0  0  0  0  0  0  0
  -23.9730  -36.6610   23.0350 C   0  0  0  0  0  1  0  0  0  0  0  0
  -25.2360  -36.2620   23.8140 C   0  0  0  0  0  3  0  0  0  0  0  0
  -27.3620  -37.1770   24.6380 C   0  0  0  0  0  1  0  0  0  0  0  0
  -26.2450  -37.3400   23.7100 N   0  0  0  0  0  0  0  0  0  0  0  0
  -25.8200  -38.2470   23.8820 H   0  0  0  0  0  0  0  0  0  0  0  0
  -26.3340  -31.6500   24.9440 C   0  0  1  0  0  0  0  0  0  0  0  0
  -25.2570  -31.3570   26.0150 C   0  0  0  0  0  1  0  0  0  0  0  0
  -26.9570  -30.3000   24.5210 C   0  0  0  0  0  1  0  0  0  0  0  0
  -27.4640  -32.4660   25.6130 C   0  0  0  0  0  1  0  0  0  0  0  0
  2  1  1  0
  3  1  2  0
  4  2  2  0
  5  6  2  0
  5  4  1  0
  6  3  1  0
  7  5  1  0
  8  9  2  0
  9  4  1  0
  9 11  1  0
 10  8  1  0
 10 13  1  0
 12 11  1  0
 13 22  1  0
 13 12  1  0
 14 20  1  0
 14 22  1  0
 15 20  1  0
 16 17  1  0
 16 15  1  0
 18 17  1  0
 18 27  1  0
 18 19  1  0
 20 19  1  0
 21 14  2  0
 22 23  1  0
 24 25  2  0
 25 44  1  0
 26 25  1  0
 26 29  1  0
 27 28  1  0
 27 24  1  0
 28 26  2  0
 29 30  1  0
 30 31  2  0
 32 35  1  0
 32 31  1  0
 33 32  2  0
 34 33  1  0
 34 29  2  0
 35 36  1  0
 36 41  2  0
 36 37  1  0
 37 38  2  0
 38 39  1  0
 39 43  1  0
 40 39  2  0
 41 40  1  0
 42 41  1  0
 44 45  1  0
 45 48  1  0
 45 47  1  0
 46 44  2  0
 49 24  1  0
 49 50  1  0
 51 49  1  0
 52 54  1  0
 52  6  1  0
 53 64  2  0
 54 59  1  0
 55 63  1  0
 55 65  1  0
 56 62  1  0
 56 58  1  0
 57 63  1  0
 58 57  1  0
 59 58  2  0
 60 61  1  0
 60 54  2  0
 61 56  2  0
 62 55  1  0
 63 53  1  0
 65 67  2  0
 66 65  1  0
 68 66  1  0
 69 78  2  0
 69 74  1  0
 70 66  1  0
 70 74  1  0
 71 70  1  0
 72 73  1  0
 72 71  1  0
 73 69  1  0
 74 75  2  0
 75 76  1  0
 77 76  2  0
 78 77  1  0
 79 53  1  0
 79 80  1  0
 79 89  1  0
 80 83  1  0
 81 85  1  0
 81 80  1  0
 82 81  2  0
 85 84  1  0
 87 85  1  0
 87 88  1  0
 87 86  1  0
 89 92  1  1
 89 90  1  0
 91 89  1  0
M  ISO  4   6 101  14 100  22 100  52 101
M  END
>  <TORSDO>  (93) 
F 17

>  <SCORE>  (93) 
-13.417

>  <name>  (93) 
92

>  <ligand_id>  (93) 
92

>  <original_smiles>  (93) 
[H]C1=C(c2c([H])c([H])c([H])c(Oc3c([H])c([H])c4c(c3[H])C([H])([H])N(C(=O)C([H])(N([H])C(=O)C([H])(N([H])C([H])([H])[H])C([H])([H])[H])C(C([H])([H])[H])(C([H])([H])[H])C([H])([H])[H])C([H])(C(=O)N([H])C3([H])c5c([H])c([H])c([H])c([H])c5C([H])([H])C([H])([H])C3([H])[H])C4([H])[H])c2C([H])([H])[H])C([H])([H])C([H])([H])C([H])(N([H])C(=O)N2C([H])([H])C([H])([H])C([H])([H])C([H])(n3nc(-c4c([H])c([H])c(Oc5c([H])c([H])c(F)c([H])c5F)c([H])c4[H])c(C(=O)N([H])[H])c3N([H])[H])C2([H])[H])C1([H])[H]

>  <smiles>  (93) 
[H]C1=C(c2c([H])c([H])c([H])c(Oc3c([H])c([H])c4c(c3[H])C([H])([H])N(C(=O)C([H])(N([H])C(=O)C([H])(N([H])C([H])([H])[H])C([H])([H])[H])C(C([H])([H])[H])(C([H])([H])[H])C([H])([H])[H])C([H])(C(=O)N([H])C3([H])c5c([H])c([H])c([H])c([H])c5C([H])([H])C([H])([H])C3([H])[H])C4([H])[H])c2C([H])([H])[H])C([H])([H])C([H])([H])C([H])(N([H])C(=O)N2C([H])([H])C([H])([H])C([H])([H])C([H])(n3nc(-c4c([H])c([H])c(Oc5c([H])c([H])c(F)c([H])c5F)c([H])c4[H])c(C(=O)N([H])[H])c3N([H])[H])C2([H])[H])C1([H])[H]

$$$$
93:0:0
     RDKit          3D

 86 93  0  0  1  0  0  0  0  0999 V2000
  -28.6450  -22.4330   21.4490 C   0  0  0  0  0  2  0  0  0  0  0  0
  -29.4320  -20.8510   21.3310 C   0  0  0  0  0  2  0  0  0  0  0  0
  -28.2910  -22.2860   19.1530 C   0  0  0  0  0  3  0  0  0  0  0  0
  -28.3720  -23.6270   20.2740 C   0  0  0  0  0  0  0  0  0  0  0  0
  -29.2990  -19.6310   20.1530 C   0  0  0  0  0  2  0  0  0  0  0  0
  -28.2480  -20.6250   19.4180 N   0  0  0  0  0  4  0  0  0  0  0  0
  -28.1070  -20.2190   18.5060 H   0  0  0  0  0  0  0  0  0  0  0  0
  -27.3800  -20.4700   19.9070 H   0  0  0  0  0  0  0  0  0  0  0  0
  -28.1560  -25.4580   20.3270 O   0  0  0  0  0  0  0  0  0  0  0  0
  -24.6480  -31.8780   23.2320 C   0  0  0  0  0  0  0  0  0  0  0  0
  -27.1470  -26.6800   20.2820 C   0  0  0  0  0  0  0  0  0  0  0  0
  -23.4540  -30.4710   21.6080 C   0  0  0  0  0  3  0  0  0  0  0  0
  -24.8900  -28.7850   20.2110 C   0  0  0  0  0  0  0  0  0  0  0  0
  -26.0360  -30.5750   21.4870 C   0  0  0  0  0  2  0  0  0  0  0  0
  -26.0910  -29.1260   20.8420 C   0  0  0  0  0  0  0  0  0  0  0  0
  -27.1950  -28.1060   20.8380 C   0  0  0  0  0  3  0  0  0  0  0  0
  -25.9070  -26.5730   19.5930 C   0  0  0  0  0  3  0  0  0  0  0  0
  -24.8440  -27.5370   19.5610 C   0  0  0  0  0  3  0  0  0  0  0  0
  -23.6930  -29.7540   20.2460 C   0  0  0  0  0  2  0  0  0  0  0  0
  -24.7390  -31.0110   22.1610 N   0  0  0  0  0  0  0  0  0  0  0  0
  -23.5540  -32.1880   23.7390 O   0  0  0  0  0  0  0  0  0  0  0  0
  -22.7300  -29.5120   22.5920 C   0  0  0  0  0  0  0  0  0  0  0  0
  -21.3960  -29.3560   22.4650 N   0  0  0  0  0  0  0  0  0  0  0  0
  -23.3810  -28.9020   23.4440 O   0  0  0  0  0  0  0  0  0  0  0  0
  -20.9190  -29.8960   21.7570 H   0  0  0  0  0  0  0  0  0  0  0  0
  -18.0140  -28.1220   22.9740 C   0  0  0  0  0  0  0  0  0  0  0  0
  -20.5710  -28.4250   23.2470 C   0  0  0  0  0  3  0  0  0  0  0  0
  -20.6900  -26.9830   22.6980 C   0  0  0  0  0  2  0  0  0  0  0  0
  -19.5990  -26.6330   21.6810 C   0  0  0  0  0  2  0  0  0  0  0  0
  -18.2120  -26.7690   22.3120 C   0  0  0  0  0  2  0  0  0  0  0  0
  -19.1210  -28.9070   23.3970 C   0  0  0  0  0  0  0  0  0  0  0  0
  -18.8790  -30.1700   23.9810 C   0  0  0  0  0  3  0  0  0  0  0  0
  -17.5640  -30.6490   24.1410 C   0  0  0  0  0  3  0  0  0  0  0  0
  -16.4740  -29.8640   23.7290 C   0  0  0  0  0  3  0  0  0  0  0  0
  -16.7000  -28.6030   23.1510 C   0  0  0  0  0  3  0  0  0  0  0  0
  -25.9080  -32.5360   23.8690 C   0  0  0  0  0  3  0  0  0  0  0  0
  -25.5850  -33.9390   24.2040 N   0  0  0  0  0  0  0  0  0  0  0  0
  -25.8880  -35.0050   23.4510 C   0  0  0  0  0  0  0  0  0  0  0  0
  -26.5260  -34.9110   22.3990 O   0  0  0  0  0  0  0  0  0  0  0  0
  -25.0130  -34.0820   25.0240 H   0  0  0  0  0  0  0  0  0  0  0  0
  -24.1280  -36.7910   23.1960 C   0  0  0  0  0  1  0  0  0  0  0  0
  -25.4160  -36.3920   23.9370 C   0  0  0  0  0  3  0  0  0  0  0  0
  -27.5790  -37.3110   24.6560 C   0  0  0  0  0  1  0  0  0  0  0  0
  -26.4300  -37.4560   23.7660 N   0  0  0  0  0  0  0  0  0  0  0  0
  -26.0200  -38.3730   23.9240 H   0  0  0  0  0  0  0  0  0  0  0  0
  -26.4050  -31.7850   25.1670 C   0  0  1  0  0  0  0  0  0  0  0  0
  -25.2990  -31.5680   26.2270 C   0  0  0  0  0  1  0  0  0  0  0  0
  -26.9910  -30.3990   24.8190 C   0  0  0  0  0  1  0  0  0  0  0  0
  -27.5510  -32.5860   25.8300 C   0  0  0  0  0  1  0  0  0  0  0  0
  -29.2500  -17.6100   20.3110 C   0  0  0  0  0  1  0  0  0  0  0  0
  -30.1470  -15.9040   20.1020 C   0  0  0  0  0  0  0  0  0  0  0  0
  -30.3380  -13.3150   19.2800 C   0  0  0  0  0  2  0  0  0  0  0  0
  -29.4230  -12.8590   18.0990 C   0  0  0  0  0  2  0  0  0  0  0  0
  -28.0270  -12.4560   18.5940 C   0  0  0  0  0  2  0  0  0  0  0  0
  -27.5210  -13.4470   19.6620 C   0  0  0  0  0  3  0  0  0  0  0  0
  -28.5720  -13.8010   20.7410 C   0  0  0  0  0  2  0  0  0  0  0  0
  -29.7090  -14.4850   20.0710 N   0  0  0  0  0  0  0  0  0  0  0  0
  -31.3710  -15.8500   19.8500 O   0  0  0  0  0  0  0  0  0  0  0  0
  -25.1920  -13.9340   20.5390 C   0  0  0  0  0  0  0  0  0  0  0  0
  -24.1520  -13.1370   20.9250 C   0  0  0  0  0  0  0  0  0  0  0  0
  -24.6290  -11.7920   20.8370 C   0  0  0  0  0  0  0  0  0  0  0  0
  -26.2310  -13.0780   20.2270 N   0  0  0  0  0  0  0  0  0  0  0  0
  -25.9100  -11.7790   20.4730 N   0  0  0  0  0  0  0  0  0  0  0  0
  -23.9150  -10.5200   21.0190 C   0  0  0  0  0  0  0  0  0  0  0  0
  -24.3590   -9.5440   21.9390 C   0  0  0  0  0  3  0  0  0  0  0  0
  -23.6380   -8.3420   22.1130 C   0  0  0  0  0  3  0  0  0  0  0  0
  -22.4590   -8.1060   21.3660 C   0  0  0  0  0  0  0  0  0  0  0  0
  -22.0340   -9.0710   20.4360 C   0  0  0  0  0  3  0  0  0  0  0  0
  -22.7550  -10.2640   20.2600 C   0  0  0  0  0  3  0  0  0  0  0  0
  -21.7100   -6.9580   21.4490 O   0  0  0  0  0  0  0  0  0  0  0  0
  -21.6440   -6.2230   22.6050 C   0  0  0  0  0  0  0  0  0  0  0  0
  -21.1670   -6.7770   23.8130 C   0  0  0  0  0  3  0  0  0  0  0  0
  -21.0500   -5.9670   24.9610 C   0  0  0  0  0  3  0  0  0  0  0  0
  -21.4000   -4.6050   24.9010 C   0  0  0  0  0  0  0  0  0  0  0  0
  -21.8710   -4.0510   23.6980 C   0  0  0  0  0  3  0  0  0  0  0  0
  -21.9900   -4.8570   22.5530 C   0  0  0  0  0  0  0  0  0  0  0  0
  -22.4220   -4.3130   21.3900 F   0  0  0  0  0  0  0  0  0  0  0  0
  -21.2810   -3.8250   26.0010 F   0  0  0  0  0  0  0  0  0  0  0  0
  -22.7630  -13.5970   21.2530 C   0  0  0  0  0  0  0  0  0  0  0  0
  -22.0700  -12.8770   22.1260 N   0  0  0  0  0  0  0  0  0  0  0  0
  -22.3060  -14.6330   20.7720 O   0  0  0  0  0  0  0  0  0  0  0  0
  -22.4550  -12.0390   22.5350 H   0  0  0  0  0  0  0  0  0  0  0  0
  -21.1380  -13.1680   22.3900 H   0  0  0  0  0  0  0  0  0  0  0  0
  -25.3380  -15.3100   20.3970 N   0  0  0  0  0  0  0  0  0  0  0  0
  -24.5730  -15.9550   20.5610 H   0  0  0  0  0  0  0  0  0  0  0  0
  -26.1720  -15.7660   20.0480 H   0  0  0  0  0  0  0  0  0  0  0  0
  2  1  1  0
  3  6  1  0
  3  4  2  0
  4  9  1  0
  4  1  1  0
  5  2  1  0
  6  8  1  0
  6  5  1  0
  7  6  1  0
 10 21  2  0
 11  9  1  0
 11 16  1  0
 12 20  1  0
 12 22  1  0
 13 19  1  0
 13 15  1  0
 14 20  1  0
 15 14  1  0
 16 15  2  0
 17 11  2  0
 18 17  1  0
 18 13  2  0
 19 12  1  0
 20 10  1  0
 22 24  2  0
 23 22  1  0
 25 23  1  0
 26 35  2  0
 26 31  1  0
 27 23  1  0
 27 31  1  0
 28 27  1  0
 29 30  1  0
 29 28  1  0
 30 26  1  0
 31 32  2  0
 32 33  1  0
 34 33  2  0
 35 34  1  0
 36 10  1  0
 36 37  1  0
 36 46  1  0
 37 40  1  0
 38 42  1  0
 38 37  1  0
 39 38  2  0
 42 41  1  0
 44 45  1  0
 44 42  1  0
 44 43  1  0
 46 49  1  1
 46 47  1  0
 48 46  1  0
 51 50  1  0
 52 57  1  0
 53 54  1  0
 53 52  1  0
 55 54  1  0
 55 62  1  0
 55 56  1  0
 57 51  1  0
 57 56  1  0
 58 51  2  0
 59 60  2  0
 60 79  1  0
 61 60  1  0
 61 64  1  0
 62 63  1  0
 62 59  1  0
 63 61  2  0
 64 65  1  0
 65 66  2  0
 67 70  1  0
 67 66  1  0
 68 67  2  0
 69 68  1  0
 69 64  2  0
 70 71  1  0
 71 72  1  0
 72 73  2  0
 74 73  1  0
 74 78  1  0
 75 74  2  0
 76 71  2  0
 76 75  1  0
 77 76  1  0
 79 80  1  0
 80 83  1  0
 80 82  1  0
 81 79  2  0
 84 59  1  0
 84 85  1  0
 86 84  1  0
M  ISO  4   4 101   9 101  50 100  51 100
M  END
>  <TORSDO>  (94) 
F 17

>  <SCORE>  (94) 
-16.528

>  <name>  (94) 
93

>  <ligand_id>  (94) 
93

>  <original_smiles>  (94) 
[H]c1c([H])c([H])c2c(c1[H])C([H])([H])C([H])([H])C([H])([H])C2([H])N([H])C(=O)C1([H])N(C(=O)C([H])(N([H])C(=O)C([H])(N([H])C([H])([H])[H])C([H])([H])[H])C(C([H])([H])[H])(C([H])([H])[H])C([H])([H])[H])C([H])([H])c2c([H])c(OC3([H])C([H])([H])C([H])([H])C([H])(C([H])([H])C(=O)N4C([H])([H])C([H])([H])C([H])([H])C([H])(n5nc(-c6c([H])c([H])c(Oc7c([H])c([H])c(F)c([H])c7F)c([H])c6[H])c(C(=O)N([H])[H])c5N([H])[H])C4([H])[H])[N+]([H])([H])C3([H])[H])c([H])c([H])c2C1([H])[H]

>  <smiles>  (94) 
[H]c1c([H])c([H])c2c(c1[H])C([H])([H])C([H])([H])C([H])([H])C2([H])N([H])C(=O)C1([H])N(C(=O)C([H])(N([H])C(=O)C([H])(N([H])C([H])([H])[H])C([H])([H])[H])C(C([H])([H])[H])(C([H])([H])[H])C([H])([H])[H])C([H])([H])c2c([H])c(OC3([H])C([H])([H])C([H])([H])C([H])(C([H])([H])C(=O)N4C([H])([H])C([H])([H])C([H])([H])C([H])(n5nc(-c6c([H])c([H])c(Oc7c([H])c([H])c(F)c([H])c7F)c([H])c6[H])c(C(=O)N([H])[H])c5N([H])[H])C4([H])[H])[N+]([H])([H])C3([H])[H])c([H])c([H])c2C1([H])[H]

$$$$
94:0:0
     RDKit          3D

 91 94  0  0  1  0  0  0  0  0999 V2000
  -20.9690  -25.6670   20.1350 C   0  0  0  0  0  2  0  0  0  0  0  0
  -23.4360  -25.9140   19.4170 C   0  0  0  0  0  3  0  0  0  0  0  0
  -21.5610  -27.6860   19.9610 C   0  0  0  0  0  2  0  0  0  0  0  0
  -22.5480  -24.9280   19.7440 C   0  0  0  0  0  2  0  0  0  0  0  0
  -20.1230  -27.1580   20.6650 C   0  0  0  0  0  2  0  0  0  0  0  0
  -23.1910  -27.2610   19.5630 C   0  0  0  0  0  0  0  0  0  0  0  0
  -18.2370  -27.8710   22.5950 O   0  0  0  0  0  0  0  0  0  0  0  0
  -17.8240  -27.0730   22.9010 H   0  0  0  0  0  0  0  0  0  0  0  0
  -24.7940  -27.7620   19.5330 O   0  0  0  0  0  0  0  0  0  0  0  0
  -26.4330  -29.5480   24.0550 C   0  0  0  0  0  0  0  0  0  0  0  0
  -25.8950  -28.1560   18.6400 C   0  0  0  0  0  3  0  0  0  0  0  0
  -24.6310  -29.6500   22.4540 C   0  0  0  0  0  3  0  0  0  0  0  0
  -25.2220  -30.2100   19.9570 C   0  0  0  0  0  3  0  0  0  0  0  0
  -27.0280  -29.9950   21.6660 C   0  0  0  0  0  2  0  0  0  0  0  0
  -26.4700  -29.6660   20.2970 C   0  0  0  0  0  3  0  0  0  0  0  0
  -26.9710  -28.6830   19.4210 C   0  0  0  0  0  2  0  0  0  0  0  0
  -25.3520  -29.0840   17.7930 C   0  0  0  0  0  2  0  0  0  0  0  0
  -24.7380  -30.0540   18.6120 C   0  0  0  0  0  2  0  0  0  0  0  0
  -24.3680  -30.5520   21.1410 C   0  0  0  0  0  2  0  0  0  0  0  0
  -26.0620  -29.7750   22.7740 N   0  0  0  0  0  0  0  0  0  0  0  0
  -25.5920  -29.4060   24.9560 O   0  0  0  0  0  0  0  0  0  0  0  0
  -24.3330  -28.0680   22.5500 C   0  0  0  0  0  0  0  0  0  0  0  0
  -23.6260  -27.5420   23.5320 N   0  0  0  0  0  0  0  0  0  0  0  0
  -24.7420  -27.2580   21.7570 O   0  0  0  0  0  0  0  0  0  0  0  0
  -23.4470  -28.2420   24.2410 H   0  0  0  0  0  0  0  0  0  0  0  0
  -19.8090  -26.3390   23.8440 C   0  0  0  0  0  0  0  0  0  0  0  0
  -22.7540  -26.3610   23.8950 C   0  0  0  0  0  3  0  0  0  0  0  0
  -22.2410  -25.3680   22.8190 C   0  0  0  0  0  3  0  0  0  0  0  0
  -20.7690  -24.7410   22.6540 C   0  0  0  0  0  3  0  0  0  0  0  0
  -19.4790  -25.1350   23.3120 C   0  0  0  0  0  2  0  0  0  0  0  0
  -21.5360  -26.9380   24.3730 C   0  0  0  0  0  0  0  0  0  0  0  0
  -21.8370  -28.7220   24.4680 C   0  0  0  0  0  3  0  0  0  0  0  0
  -20.6270  -29.8220   23.9720 C   0  0  0  0  0  3  0  0  0  0  0  0
  -19.0350  -29.2910   23.4440 C   0  0  0  0  0  3  0  0  0  0  0  0
  -18.5810  -27.5770   23.3780 C   0  0  0  0  0  0  0  0  0  0  0  0
  -27.9280  -29.4580   24.4290 C   0  0  0  0  0  3  0  0  0  0  0  0
  -28.3630  -30.8260   24.7150 N   0  0  0  0  0  0  0  0  0  0  0  0
  -29.2490  -31.4990   23.9730 C   0  0  0  0  0  0  0  0  0  0  0  0
  -29.8520  -30.9880   23.0240 O   0  0  0  0  0  0  0  0  0  0  0  0
  -27.8820  -31.3170   25.4540 H   0  0  0  0  0  0  0  0  0  0  0  0
  -28.9300  -33.8890   23.2690 C   0  0  0  0  0  1  0  0  0  0  0  0
  -29.5120  -32.9650   24.3510 C   0  0  0  0  0  3  0  0  0  0  0  0
  -31.5200  -32.5740   25.7030 C   0  0  0  0  0  1  0  0  0  0  0  0
  -30.9440  -33.2700   24.5550 N   0  0  0  0  0  0  0  0  0  0  0  0
  -31.0850  -34.2670   24.6860 H   0  0  0  0  0  0  0  0  0  0  0  0
  -28.1900  -28.5080   25.6610 C   0  0  1  0  0  0  0  0  0  0  0  0
  -27.3100  -28.8230   26.8920 C   0  0  0  0  0  1  0  0  0  0  0  0
  -27.9580  -27.0270   25.2810 C   0  0  0  0  0  1  0  0  0  0  0  0
  -29.6710  -28.6160   26.0860 C   0  0  0  0  0  1  0  0  0  0  0  0
  -23.7840  -23.2900   19.5950 C   0  0  0  0  0 15  0  0  0  0  0  0
  -25.8230  -22.5480   19.3270 C   0  0  0  0  0 15  0  0  0  0  0  0
  -27.2940  -20.9280   19.3250 C   0  0  0  0  0 15  0  0  0  0  0  0
  -29.3630  -20.2310   19.2240 C   0  0  0  0  0 15  0  0  0  0  0  0
  -32.2400  -18.1040   19.4420 C   0  0  0  0  0  0  0  0  0  0  0  0
  -33.9300  -15.9250   18.9400 C   0  0  0  0  0  2  0  0  0  0  0  0
  -33.5060  -14.9670   17.7730 C   0  0  0  0  0  2  0  0  0  0  0  0
  -32.3010  -14.1070   18.1870 C   0  0  0  0  0  2  0  0  0  0  0  0
  -31.3400  -14.9610   19.0370 C   0  0  0  0  0  3  0  0  0  0  0  0
  -32.0090  -15.6400   20.2170 C   0  0  0  0  0  2  0  0  0  0  0  0
  -32.7040  -16.6940   19.5400 N   0  0  0  0  0  0  0  0  0  0  0  0
  -33.3810  -18.6610   19.3120 O   0  0  0  0  0  0  0  0  0  0  0  0
  -30.6750  -18.7650   19.3840 N   0  0  0  0  0  2  0  0  0  0  0  0
  -30.0930  -17.9460   19.5210 H   0  0  0  0  0  0  0  0  0  0  0  0
  -28.9070  -14.8610   19.5500 C   0  0  0  0  0  0  0  0  0  0  0  0
  -28.1240  -13.8670   20.0490 C   0  0  0  0  0  0  0  0  0  0  0  0
  -29.0080  -12.7870   20.3620 C   0  0  0  0  0  0  0  0  0  0  0  0
  -30.1750  -14.3210   19.5270 N   0  0  0  0  0  0  0  0  0  0  0  0
  -30.2640  -13.1110   20.1070 N   0  0  0  0  0  0  0  0  0  0  0  0
  -28.7320  -11.4220   20.7970 C   0  0  0  0  0  0  0  0  0  0  0  0
  -29.7180  -10.6250   21.4160 C   0  0  0  0  0  3  0  0  0  0  0  0
  -29.4080   -9.3160   21.8340 C   0  0  0  0  0  3  0  0  0  0  0  0
  -28.1050   -8.7990   21.6390 C   0  0  0  0  0  0  0  0  0  0  0  0
  -27.1400   -9.5900   20.9930 C   0  0  0  0  0  3  0  0  0  0  0  0
  -27.4500  -10.8910   20.5680 C   0  0  0  0  0  3  0  0  0  0  0  0
  -27.7180   -7.5330   21.9970 O   0  0  0  0  0  0  0  0  0  0  0  0
  -28.6250   -6.6040   22.4370 C   0  0  0  0  0  0  0  0  0  0  0  0
  -29.6630   -6.9400   23.3340 C   0  0  0  0  0  3  0  0  0  0  0  0
  -30.5280   -5.9370   23.8130 C   0  0  0  0  0  3  0  0  0  0  0  0
  -30.3550   -4.6010   23.4040 C   0  0  0  0  0  0  0  0  0  0  0  0
  -29.3210   -4.2660   22.5140 C   0  0  0  0  0  3  0  0  0  0  0  0
  -28.4570   -5.2650   22.0320 C   0  0  0  0  0  0  0  0  0  0  0  0
  -27.4490   -4.9330   21.1910 F   0  0  0  0  0  0  0  0  0  0  0  0
  -31.1820   -3.6370   23.8720 F   0  0  0  0  0  0  0  0  0  0  0  0
  -26.6310  -13.8780   20.1100 C   0  0  0  0  0  0  0  0  0  0  0  0
  -26.0570  -13.1600   21.0640 N   0  0  0  0  0  0  0  0  0  0  0  0
  -25.9690  -14.5610   19.3310 O   0  0  0  0  0  0  0  0  0  0  0  0
  -26.6080  -12.6170   21.7100 H   0  0  0  0  0  0  0  0  0  0  0  0
  -25.0500  -13.1600   21.1460 H   0  0  0  0  0  0  0  0  0  0  0  0
  -28.6620  -16.1530   19.0730 N   0  0  0  0  0  0  0  0  0  0  0  0
  -27.6990  -16.4410   18.9450 H   0  0  0  0  0  0  0  0  0  0  0  0
  -29.2490  -16.5110   18.3320 H   0  0  0  0  0  0  0  0  0  0  0  0
  1  5  1  0
  2  6  2  0
  2  4  1  0
  3  5  1  0
  4  1  1  0
  6  3  1  0
  7  8  1  0
  7 35  1  0
  9  6  1  0
 10 21  2  0
 11 16  1  0
 11  9  1  0
 12 22  1  0
 12 20  1  0
 13 18  1  0
 13 15  1  0
 13 19  1  0
 14 20  1  0
 15 16  1  0
 15 14  1  0
 17 18  1  0
 17 11  1  0
 19 12  1  0
 20 10  1  0
 22 23  1  0
 23 25  1  0
 24 22  2  0
 26 31  1  0
 27 23  1  0
 27 31  1  0
 28 27  1  0
 29 28  2  0
 29 30  1  0
 30 26  1  0
 31 32  2  0
 33 32  1  0
 34 33  2  0
 35 34  1  0
 35 26  2  0
 36 10  1  0
 36 37  1  0
 36 46  1  0
 37 40  1  0
 38 42  1  0
 38 37  1  0
 39 38  2  0
 42 41  1  0
 42 44  1  0
 44 45  1  0
 44 43  1  0
 46 49  1  1
 46 47  1  0
 48 46  1  0
 54 60  1  0
 55 60  1  0
 56 57  1  0
 56 55  1  0
 58 57  1  0
 58 67  1  0
 58 59  1  0
 60 59  1  0
 61 54  2  0
 62 54  1  0
 62 63  1  0
 64 65  2  0
 65 84  1  0
 65 66  1  0
 66 69  1  0
 67 64  1  0
 67 68  1  0
 68 66  2  0
 69 70  1  0
 70 71  2  0
 72 71  1  0
 72 75  1  0
 73 72  2  0
 74 69  2  0
 74 73  1  0
 75 76  1  0
 76 77  1  0
 77 78  2  0
 79 78  1  0
 79 83  1  0
 80 79  2  0
 81 76  2  0
 81 80  1  0
 82 81  1  0
 84 85  1  0
 85 88  1  0
 85 87  1  0
 86 84  2  0
 89 64  1  0
 90 89  1  0
 91 89  1  0
M  ISO  4   6 101   9 101  54 100  62 100
M  END
>  <TORSDO>  (95) 
F 21

>  <SCORE>  (95) 
-1.740

>  <name>  (95) 
94

>  <ligand_id>  (95) 
94

>  <original_smiles>  (95) 
[H]Oc1c([H])c(Oc2c([H])c([H])c3c(c2[H])C([H])([H])N(C(=O)C([H])(N([H])C(=O)C([H])(N([H])C([H])([H])[H])C([H])([H])[H])C(C([H])([H])[H])(C([H])([H])[H])C([H])([H])[H])C([H])(C(=O)N([H])C2([H])c4c([H])c([H])c([H])c([H])c4C([H])([H])C([H])([H])C2([H])[H])C3([H])[H])c([H])c(C([H])([H])C([H])([H])C([H])([H])C([H])([H])N([H])C(=O)N2C([H])([H])C([H])([H])C([H])([H])C([H])(n3nc(-c4c([H])c([H])c(Oc5c([H])c([H])c(F)c([H])c5F)c([H])c4[H])c(C(=O)N([H])[H])c3N([H])[H])C2([H])[H])c1[H]

>  <smiles>  (95) 
[H]Oc1c([H])c(Oc2c([H])c([H])c3c(c2[H])C([H])([H])N(C(=O)C([H])(N([H])C(=O)C([H])(N([H])C([H])([H])[H])C([H])([H])[H])C(C([H])([H])[H])(C([H])([H])[H])C([H])([H])[H])C([H])(C(=O)N([H])C2([H])c4c([H])c([H])c([H])c([H])c4C([H])([H])C([H])([H])C2([H])[H])C3([H])[H])c([H])c(C([H])([H])C([H])([H])C([H])([H])C([H])([H])N([H])C(=O)N2C([H])([H])C([H])([H])C([H])([H])C([H])(n3nc(-c4c([H])c([H])c(Oc5c([H])c([H])c(F)c([H])c5F)c([H])c4[H])c(C(=O)N([H])[H])c3N([H])[H])C2([H])[H])c1[H]

$$$$
95:0:0
     RDKit          3D

 96106  0  0  1  0  0  0  0  0999 V2000
  -28.4460  -20.3390   17.5990 C   0  0  0  0  0  3  0  0  0  0  0  0
  -28.5870  -19.2120   18.4340 C   0  0  0  0  0  3  0  0  0  0  0  0
  -29.7820  -20.5580   20.1020 C   0  0  0  0  0  3  0  0  0  0  0  0
  -28.9820  -21.5640   18.0290 C   0  0  0  0  0  0  0  0  0  0  0  0
  -29.6290  -21.6910   19.2570 C   0  0  0  0  0  0  0  0  0  0  0  0
  -29.2510  -19.3010   19.6830 C   0  0  0  0  0  0  0  0  0  0  0  0
  -28.9460  -22.8710   17.2760 C   0  0  0  0  0  2  0  0  0  0  0  0
  -28.8170  -24.3150   21.3080 C   0  0  0  0  0  2  0  0  0  0  0  0
  -30.1670  -23.7910   20.8050 C   0  0  0  0  0  2  0  0  0  0  0  0
  -27.9940  -24.4900   18.9120 C   0  0  0  0  0  2  0  0  0  0  0  0
  -29.3230  -23.9160   18.3590 C   0  0  0  0  0  3  0  0  0  0  0  0
  -28.0270  -25.1670   20.2970 C   0  0  0  0  0  3  0  0  0  0  0  0
  -30.1730  -23.1190   19.4040 C   0  0  2  0  0  0  0  0  0  0  0  0
  -31.6410  -23.0870   18.9280 C   0  0  0  0  0  1  0  0  0  0  0  0
  -28.3110  -26.5980   20.2620 O   0  0  0  0  0  0  0  0  0  0  0  0
  -24.6140  -31.9490   23.2420 C   0  0  0  0  0  0  0  0  0  0  0  0
  -27.1900  -27.4230   20.1920 C   0  0  0  0  0  0  0  0  0  0  0  0
  -23.3900  -30.5400   21.6250 C   0  0  0  0  0  3  0  0  0  0  0  0
  -24.8220  -28.9960   20.1960 C   0  0  0  0  0  0  0  0  0  0  0  0
  -25.9230  -30.8720   21.4110 C   0  0  0  0  0  2  0  0  0  0  0  0
  -25.9940  -29.4960   20.7760 C   0  0  0  0  0  0  0  0  0  0  0  0
  -27.1840  -28.7200   20.7690 C   0  0  0  0  0  3  0  0  0  0  0  0
  -25.9940  -26.9720   19.5780 C   0  0  0  0  0  3  0  0  0  0  0  0
  -24.8200  -27.7340   19.5910 C   0  0  0  0  0  3  0  0  0  0  0  0
  -23.5850  -29.8600   20.2470 C   0  0  0  0  0  2  0  0  0  0  0  0
  -24.6620  -31.1350   22.1500 N   0  0  0  0  0  0  0  0  0  0  0  0
  -23.5360  -32.2310   23.7840 O   0  0  0  0  0  0  0  0  0  0  0  0
  -22.7410  -29.5260   22.5960 C   0  0  0  0  0  0  0  0  0  0  0  0
  -21.4170  -29.3410   22.4730 N   0  0  0  0  0  0  0  0  0  0  0  0
  -23.4260  -28.9100   23.4170 O   0  0  0  0  0  0  0  0  0  0  0  0
  -20.9250  -29.8860   21.7800 H   0  0  0  0  0  0  0  0  0  0  0  0
  -18.0440  -28.1450   22.9860 C   0  0  0  0  0  0  0  0  0  0  0  0
  -20.6020  -28.4130   23.2580 C   0  0  0  0  0  3  0  0  0  0  0  0
  -20.7100  -26.9720   22.7080 C   0  0  0  0  0  2  0  0  0  0  0  0
  -19.6110  -26.6270   21.6990 C   0  0  0  0  0  2  0  0  0  0  0  0
  -18.2260  -26.7830   22.3350 C   0  0  0  0  0  2  0  0  0  0  0  0
  -19.1600  -28.9160   23.4060 C   0  0  0  0  0  0  0  0  0  0  0  0
  -18.9380  -30.1900   23.9730 C   0  0  0  0  0  3  0  0  0  0  0  0
  -17.6330  -30.6930   24.1260 C   0  0  0  0  0  3  0  0  0  0  0  0
  -16.5300  -29.9180   23.7240 C   0  0  0  0  0  3  0  0  0  0  0  0
  -16.7360  -28.6460   23.1590 C   0  0  0  0  0  3  0  0  0  0  0  0
  -25.9070  -32.5800   23.8450 C   0  0  0  0  0  3  0  0  0  0  0  0
  -26.4280  -31.8220   25.1260 C   0  0  1  0  0  0  0  0  0  0  0  0
  -25.3390  -31.5970   26.2020 C   0  0  0  0  0  1  0  0  0  0  0  0
  -27.0080  -30.4400   24.7420 C   0  0  0  0  0  1  0  0  0  0  0  0
  -27.5820  -32.6210   25.7740 C   0  0  0  0  0  1  0  0  0  0  0  0
  -25.6070  -33.9830   24.1590 N   0  0  0  0  0  0  0  0  0  0  0  0
  -25.9260  -35.0220   23.3760 C   0  0  0  0  0  0  0  0  0  0  0  0
  -26.5770  -34.9000   22.3330 O   0  0  0  0  0  0  0  0  0  0  0  0
  -25.0300  -34.1520   24.9690 H   0  0  0  0  0  0  0  0  0  0  0  0
  -24.1910  -36.8050   23.0230 C   0  0  0  0  0  1  0  0  0  0  0  0
  -25.4470  -36.4160   23.8190 C   0  0  0  0  0  3  0  0  0  0  0  0
  -27.5930  -37.3130   24.6030 C   0  0  0  0  0  1  0  0  0  0  0  0
  -26.4770  -37.4670   23.6720 N   0  0  0  0  0  0  0  0  0  0  0  0
  -26.0720  -38.3890   23.8140 H   0  0  0  0  0  0  0  0  0  0  0  0
  -29.3250  -18.0390   20.5590 C   0  0  0  0  0  2  0  0  0  0  0  0
  -30.1420  -16.8610   19.9470 C   0  0  0  0  0  2  0  0  0  0  0  0
  -30.6870  -14.4750   20.0710 C   0  0  0  0  0  0  0  0  0  0  0  0
  -30.2620  -12.3290   18.9120 C   0  0  0  0  0  2  0  0  0  0  0  0
  -29.2560  -12.5360   17.7620 C   0  0  0  0  0  2  0  0  0  0  0  0
  -27.8130  -12.3800   18.2760 C   0  0  0  0  0  2  0  0  0  0  0  0
  -27.5470  -13.2180   19.5530 C   0  0  0  0  0  3  0  0  0  0  0  0
  -28.6650  -13.0200   20.5990 C   0  0  0  0  0  2  0  0  0  0  0  0
  -29.9580  -13.3210   19.9620 N   0  0  0  0  0  0  0  0  0  0  0  0
  -31.7420  -14.6300   19.4480 O   0  0  0  0  0  0  0  0  0  0  0  0
  -30.1010  -15.5520   20.6690 N   0  0  0  0  0  0  0  0  0  0  0  0
  -25.1970  -13.8110   20.4130 C   0  0  0  0  0  0  0  0  0  0  0  0
  -24.1560  -13.0320   20.8440 C   0  0  0  0  0  0  0  0  0  0  0  0
  -24.6190  -11.6820   20.7820 C   0  0  0  0  0  0  0  0  0  0  0  0
  -26.2290  -12.9330   20.1150 N   0  0  0  0  0  0  0  0  0  0  0  0
  -25.8890  -11.6490   20.3960 N   0  0  0  0  0  0  0  0  0  0  0  0
  -23.9090  -10.4190   21.0110 C   0  0  0  0  0  0  0  0  0  0  0  0
  -24.3630   -9.4790   21.9640 C   0  0  0  0  0  3  0  0  0  0  0  0
  -23.6520   -8.2770   22.1790 C   0  0  0  0  0  3  0  0  0  0  0  0
  -22.4750   -8.0070   21.4440 C   0  0  0  0  0  0  0  0  0  0  0  0
  -22.0400   -8.9340   20.4800 C   0  0  0  0  0  3  0  0  0  0  0  0
  -22.7510  -10.1270   20.2630 C   0  0  0  0  0  3  0  0  0  0  0  0
  -21.7360   -6.8550   21.5670 O   0  0  0  0  0  0  0  0  0  0  0  0
  -21.6570   -6.1730   22.7540 C   0  0  0  0  0  0  0  0  0  0  0  0
  -21.1560   -6.7770   23.9270 C   0  0  0  0  0  3  0  0  0  0  0  0
  -21.0280   -6.0200   25.1090 C   0  0  0  0  0  3  0  0  0  0  0  0
  -21.3920   -4.6610   25.1180 C   0  0  0  0  0  0  0  0  0  0  0  0
  -21.8860   -4.0550   23.9480 C   0  0  0  0  0  3  0  0  0  0  0  0
  -22.0150   -4.8100   22.7700 C   0  0  0  0  0  0  0  0  0  0  0  0
  -22.4730   -4.2180   21.6400 F   0  0  0  0  0  0  0  0  0  0  0  0
  -21.2610   -3.9310   26.2500 F   0  0  0  0  0  0  0  0  0  0  0  0
  -22.7760  -13.5050   21.2020 C   0  0  0  0  0  0  0  0  0  0  0  0
  -22.1030  -12.8000   22.1050 N   0  0  0  0  0  0  0  0  0  0  0  0
  -22.3060  -14.5320   20.7150 O   0  0  0  0  0  0  0  0  0  0  0  0
  -22.4990  -11.9690   22.5190 H   0  0  0  0  0  0  0  0  0  0  0  0
  -21.1800  -13.1000   22.3880 H   0  0  0  0  0  0  0  0  0  0  0  0
  -25.3500  -15.1810   20.2340 N   0  0  0  0  0  0  0  0  0  0  0  0
  -24.5930  -15.8380   20.3890 H   0  0  0  0  0  0  0  0  0  0  0  0
  -26.1890  -15.6220   19.8760 H   0  0  0  0  0  0  0  0  0  0  0  0
  -31.2890  -16.4080   22.7210 C   0  0  0  0  0  1  0  0  0  0  0  0
  -30.0880  -15.6350   22.1420 C   0  0  0  0  0  2  0  0  0  0  0  0
  1  4  2  0
  1  2  1  0
  2  6  2  0
  4  5  1  0
  5 13  1  0
  5  3  2  0
  6  3  1  0
  6 56  1  0
  7  4  1  0
  9  8  1  0
 10 12  1  0
 11  7  1  0
 11 10  1  0
 11 13  1  0
 12 15  1  0
 12  8  1  0
 13 14  1  6
 13  9  1  0
 16 27  2  0
 17 15  1  0
 17 22  1  0
 18 26  1  0
 18 28  1  0
 19 25  1  0
 19 21  1  0
 20 26  1  0
 21 20  1  0
 22 21  2  0
 23 24  1  0
 23 17  2  0
 24 19  2  0
 25 18  1  0
 26 16  1  0
 28 30  2  0
 29 28  1  0
 31 29  1  0
 32 41  2  0
 32 37  1  0
 33 29  1  0
 33 37  1  0
 34 33  1  0
 35 36  1  0
 35 34  1  0
 36 32  1  0
 37 38  2  0
 38 39  1  0
 40 39  2  0
 41 40  1  0
 42 16  1  0
 42 47  1  0
 42 43  1  0
 43 46  1  1
 43 44  1  0
 45 43  1  0
 47 50  1  0
 48 52  1  0
 48 47  1  0
 49 48  2  0
 52 51  1  0
 54 55  1  0
 54 52  1  0
 54 53  1  0
 57 56  1  0
 57 66  1  0
 58 66  1  0
 59 64  1  0
 60 61  1  0
 60 59  1  0
 62 61  1  0
 62 70  1  0
 62 63  1  0
 64 58  1  0
 64 63  1  0
 65 58  2  0
 66 96  1  0
 67 68  2  0
 68 87  1  0
 69 68  1  0
 69 72  1  0
 70 71  1  0
 70 67  1  0
 71 69  2  0
 72 73  1  0
 73 74  2  0
 75 78  1  0
 75 74  1  0
 76 75  2  0
 77 76  1  0
 77 72  2  0
 78 79  1  0
 79 84  2  0
 79 80  1  0
 80 81  2  0
 81 82  1  0
 82 86  1  0
 83 82  2  0
 84 83  1  0
 85 84  1  0
 87 88  1  0
 88 91  1  0
 88 90  1  0
 89 87  2  0
 92 93  1  0
 92 67  1  0
 94 92  1  0
 96 95  1  0
M  ISO  4  12 101  15 101  58 100  66 100
M  END
>  <TORSDO>  (96) 
F 19

>  <SCORE>  (96) 
-13.110

>  <name>  (96) 
95

>  <ligand_id>  (96) 
95

>  <original_smiles>  (96) 
[H]c1c([H])c([H])c2c(c1[H])C([H])([H])C([H])([H])C([H])([H])C2([H])N([H])C(=O)C1([H])N(C(=O)C([H])(N([H])C(=O)C([H])(N([H])C([H])([H])[H])C([H])([H])[H])C(C([H])([H])[H])(C([H])([H])[H])C([H])([H])[H])C([H])([H])c2c([H])c(OC3([H])C([H])([H])C([H])([H])C4(C([H])([H])[H])c5c([H])c(C([H])([H])C([H])([H])N(C(=O)N6C([H])([H])C([H])([H])C([H])([H])C([H])(n7nc(-c8c([H])c([H])c(Oc9c([H])c([H])c(F)c([H])c9F)c([H])c8[H])c(C(=O)N([H])[H])c7N([H])[H])C6([H])[H])C([H])([H])C([H])([H])[H])c([H])c([H])c5C([H])([H])C4([H])C3([H])[H])c([H])c([H])c2C1([H])[H]

>  <smiles>  (96) 
[H]c1c([H])c([H])c2c(c1[H])C([H])([H])C([H])([H])C([H])([H])C2([H])N([H])C(=O)C1([H])N(C(=O)C([H])(N([H])C(=O)C([H])(N([H])C([H])([H])[H])C([H])([H])[H])C(C([H])([H])[H])(C([H])([H])[H])C([H])([H])[H])C([H])([H])c2c([H])c(OC3([H])C([H])([H])C([H])([H])C4(C([H])([H])[H])c5c([H])c(C([H])([H])C([H])([H])N(C(=O)N6C([H])([H])C([H])([H])C([H])([H])C([H])(n7nc(-c8c([H])c([H])c(Oc9c([H])c([H])c(F)c([H])c9F)c([H])c8[H])c(C(=O)N([H])[H])c7N([H])[H])C6([H])[H])C([H])([H])C([H])([H])[H])c([H])c([H])c5C([H])([H])C4([H])C3([H])[H])c([H])c([H])c2C1([H])[H]

$$$$
96:0:0
     RDKit          3D

 91100  0  0  1  0  0  0  0  0999 V2000
  -30.9070  -18.6030   19.4490 C   0  0  0  0  0  3  0  0  0  0  0  0
  -30.8450  -20.0410   19.2920 C   0  0  0  0  0  3  0  0  0  0  0  0
  -28.6430  -20.1040   20.2110 C   0  0  0  0  0  3  0  0  0  0  0  0
  -29.8210  -17.8600   19.9920 C   0  0  0  0  0  0  0  0  0  0  0  0
  -28.7290  -18.6710   20.3800 C   0  0  0  0  0  0  0  0  0  0  0  0
  -29.7200  -20.8660   19.6570 C   0  0  0  0  0  0  0  0  0  0  0  0
  -27.7010  -17.8210   21.0780 C   0  0  0  0  0  2  0  0  0  0  0  0
  -28.1710  -16.3560   20.8650 C   0  0  0  0  0  2  0  0  0  0  0  0
  -29.6800  -16.3270   20.4840 C   0  0  1  0  0  0  0  0  0  0  0  0
  -30.2220  -14.9800   19.6740 C   0  0  0  0  0  0  0  0  0  0  0  0
  -30.1060  -12.6420   18.6920 C   0  0  0  0  0  2  0  0  0  0  0  0
  -29.0320  -12.5840   17.5790 C   0  0  0  0  0  2  0  0  0  0  0  0
  -27.6380  -12.2970   18.1700 C   0  0  0  0  0  2  0  0  0  0  0  0
  -27.3400  -13.1900   19.4000 C   0  0  0  0  0  3  0  0  0  0  0  0
  -28.5240  -13.1510   20.3940 C   0  0  0  0  0  2  0  0  0  0  0  0
  -29.6970  -13.6840   19.6820 N   0  0  0  0  0  0  0  0  0  0  0  0
  -31.2710  -15.1260   19.0300 O   0  0  0  0  0  0  0  0  0  0  0  0
  -25.0520  -13.6890   20.4410 C   0  0  0  0  0  0  0  0  0  0  0  0
  -24.0540  -12.8700   20.8980 C   0  0  0  0  0  0  0  0  0  0  0  0
  -24.5290  -11.5350   20.7230 C   0  0  0  0  0  0  0  0  0  0  0  0
  -26.0720  -12.8470   20.0290 N   0  0  0  0  0  0  0  0  0  0  0  0
  -25.7700  -11.5430   20.2520 N   0  0  0  0  0  0  0  0  0  0  0  0
  -23.8500  -10.2490   20.9210 C   0  0  0  0  0  0  0  0  0  0  0  0
  -24.3380   -9.2940   21.8380 C   0  0  0  0  0  3  0  0  0  0  0  0
  -23.6590   -8.0700   22.0260 C   0  0  0  0  0  3  0  0  0  0  0  0
  -22.4780   -7.7960   21.2970 C   0  0  0  0  0  0  0  0  0  0  0  0
  -22.0110   -8.7410   20.3650 C   0  0  0  0  0  3  0  0  0  0  0  0
  -22.6900   -9.9550   20.1760 C   0  0  0  0  0  3  0  0  0  0  0  0
  -21.7670   -6.6250   21.3940 O   0  0  0  0  0  0  0  0  0  0  0  0
  -21.6460   -5.9530   22.5840 C   0  0  0  0  0  0  0  0  0  0  0  0
  -21.0310   -6.5370   23.7120 C   0  0  0  0  0  3  0  0  0  0  0  0
  -20.8700   -5.7870   24.8930 C   0  0  0  0  0  3  0  0  0  0  0  0
  -21.3110   -4.4510   24.9460 C   0  0  0  0  0  0  0  0  0  0  0  0
  -21.9210   -3.8650   23.8220 C   0  0  0  0  0  3  0  0  0  0  0  0
  -22.0850   -4.6130   22.6430 C   0  0  0  0  0  0  0  0  0  0  0  0
  -22.6530   -4.0380   21.5560 F   0  0  0  0  0  0  0  0  0  0  0  0
  -21.1480   -3.7280   26.0790 F   0  0  0  0  0  0  0  0  0  0  0  0
  -22.7000  -13.2990   21.3790 C   0  0  0  0  0  0  0  0  0  0  0  0
  -22.1040  -12.5320   22.2860 N   0  0  0  0  0  0  0  0  0  0  0  0
  -22.1820  -14.3440   20.9890 O   0  0  0  0  0  0  0  0  0  0  0  0
  -22.5440  -11.6890   22.6250 H   0  0  0  0  0  0  0  0  0  0  0  0
  -21.1990  -12.7910   22.6520 H   0  0  0  0  0  0  0  0  0  0  0  0
  -25.1600  -15.0700   20.3160 N   0  0  0  0  0  0  0  0  0  0  0  0
  -24.3780  -15.6840   20.5120 H   0  0  0  0  0  0  0  0  0  0  0  0
  -25.9120  -15.5410   19.8310 H   0  0  0  0  0  0  0  0  0  0  0  0
  -30.3220  -16.2680   21.7500 O   0  0  0  0  0  0  0  0  0  0  0  0
  -29.9970  -17.0060   22.2490 H   0  0  0  0  0  0  0  0  0  0  0  0
  -29.6770  -22.4440   19.2580 C   0  0  0  0  0  2  0  0  0  0  0  0
  -29.1830  -23.7490   20.1340 C   0  0  0  0  0  3  0  0  0  0  0  0
  -29.0300  -25.2080   19.3640 C   0  0  0  0  0  3  0  0  0  0  0  0
  -28.8130  -26.5880   19.9860 O   0  0  0  0  0  0  0  0  0  0  0  0
  -24.5490  -31.6780   22.9980 C   0  0  0  0  0  0  0  0  0  0  0  0
  -27.6400  -27.3970   19.8700 C   0  0  0  0  0  0  0  0  0  0  0  0
  -23.5310  -30.2580   21.2560 C   0  0  0  0  0  3  0  0  0  0  0  0
  -25.1600  -28.8870   19.8200 C   0  0  0  0  0  0  0  0  0  0  0  0
  -26.0500  -30.7640   21.1990 C   0  0  0  0  0  2  0  0  0  0  0  0
  -26.2670  -29.4200   20.4910 C   0  0  0  0  0  0  0  0  0  0  0  0
  -27.5050  -28.6880   20.5020 C   0  0  0  0  0  3  0  0  0  0  0  0
  -26.5010  -26.9440   19.1680 C   0  0  0  0  0  3  0  0  0  0  0  0
  -25.2870  -27.6640   19.1440 C   0  0  0  0  0  3  0  0  0  0  0  0
  -23.8530  -29.6570   19.8610 C   0  0  0  0  0  2  0  0  0  0  0  0
  -24.7260  -30.9200   21.8750 N   0  0  0  0  0  0  0  0  0  0  0  0
  -23.4240  -31.8450   23.4930 O   0  0  0  0  0  0  0  0  0  0  0  0
  -22.9120  -29.1540   22.1460 C   0  0  0  0  0  0  0  0  0  0  0  0
  -21.5850  -28.9620   22.0450 N   0  0  0  0  0  0  0  0  0  0  0  0
  -23.6250  -28.4730   22.8900 O   0  0  0  0  0  0  0  0  0  0  0  0
  -21.0670  -29.5610   21.4170 H   0  0  0  0  0  0  0  0  0  0  0  0
  -18.2360  -27.7050   22.6070 C   0  0  0  0  0  0  0  0  0  0  0  0
  -20.8060  -27.9440   22.7550 C   0  0  0  0  0  3  0  0  0  0  0  0
  -20.8720  -26.5840   22.0220 C   0  0  0  0  0  2  0  0  0  0  0  0
  -19.7120  -26.3690   21.0430 C   0  0  0  0  0  2  0  0  0  0  0  0
  -18.3710  -26.4400   21.7770 C   0  0  0  0  0  2  0  0  0  0  0  0
  -19.3790  -28.4210   23.0510 C   0  0  0  0  0  0  0  0  0  0  0  0
  -19.1970  -29.6120   23.7890 C   0  0  0  0  0  3  0  0  0  0  0  0
  -17.9050  -30.0860   24.0820 C   0  0  0  0  0  3  0  0  0  0  0  0
  -16.7770  -29.3640   23.6550 C   0  0  0  0  0  3  0  0  0  0  0  0
  -16.9430  -28.1750   22.9230 C   0  0  0  0  0  3  0  0  0  0  0  0
  -25.7460  -32.3870   23.7020 C   0  0  0  0  0  3  0  0  0  0  0  0
  -26.2530  -31.6200   24.9840 C   0  0  1  0  0  0  0  0  0  0  0  0
  -25.1270  -31.2800   25.9900 C   0  0  0  0  0  1  0  0  0  0  0  0
  -26.9480  -30.2960   24.5920 C   0  0  0  0  0  1  0  0  0  0  0  0
  -27.3180  -32.4710   25.7170 C   0  0  0  0  0  1  0  0  0  0  0  0
  -25.3180  -33.7500   24.0550 N   0  0  0  0  0  0  0  0  0  0  0  0
  -25.5860  -34.8440   23.3320 C   0  0  0  0  0  0  0  0  0  0  0  0
  -26.2890  -34.8200   22.3190 O   0  0  0  0  0  0  0  0  0  0  0  0
  -24.7000  -33.8390   24.8490 H   0  0  0  0  0  0  0  0  0  0  0  0
  -23.7190  -36.4920   22.9860 C   0  0  0  0  0  1  0  0  0  0  0  0
  -24.9800  -36.1790   23.8070 C   0  0  0  0  0  3  0  0  0  0  0  0
  -27.0130  -37.2300   24.6960 C   0  0  0  0  0  1  0  0  0  0  0  0
  -25.9220  -37.3170   23.7290 N   0  0  0  0  0  0  0  0  0  0  0  0
  -25.4380  -38.1990   23.8740 H   0  0  0  0  0  0  0  0  0  0  0  0
  1  4  1  0
  2  1  2  0
  2  6  1  0
  3  5  1  0
  4  5  2  0
  4  9  1  0
  5  7  1  0
  6  3  2  0
  8  7  1  0
  9 10  1  0
  9  8  1  0
  9 46  1  1
 10 16  1  0
 11 16  1  0
 12 13  1  0
 12 11  1  0
 14 13  1  0
 14 21  1  0
 14 15  1  0
 16 15  1  0
 17 10  2  0
 18 19  2  0
 19 38  1  0
 20 19  1  0
 20 23  1  0
 21 22  1  0
 21 18  1  0
 22 20  2  0
 23 24  1  0
 24 25  2  0
 26 29  1  0
 26 25  1  0
 27 26  2  0
 28 27  1  0
 28 23  2  0
 29 30  1  0
 30 35  2  0
 30 31  1  0
 31 32  2  0
 32 33  1  0
 33 37  1  0
 34 33  2  0
 35 34  1  0
 36 35  1  0
 38 39  1  0
 39 41  1  0
 39 42  1  0
 40 38  2  0
 43 18  1  0
 43 44  1  0
 45 43  1  0
 46 47  1  0
 48  6  1  0
 48 49  1  0
 50 51  1  0
 50 49  2  0
 52 63  2  0
 53 51  1  0
 53 58  1  0
 54 62  1  0
 54 64  1  0
 55 61  1  0
 55 57  1  0
 56 62  1  0
 57 58  2  0
 57 56  1  0
 59 53  2  0
 60 59  1  0
 60 55  2  0
 61 54  1  0
 62 52  1  0
 64 66  2  0
 65 64  1  0
 67 65  1  0
 68 77  2  0
 68 73  1  0
 69 65  1  0
 69 73  1  0
 70 69  1  0
 71 72  1  0
 71 70  1  0
 72 68  1  0
 73 74  2  0
 74 75  1  0
 76 75  2  0
 77 76  1  0
 78 52  1  0
 78 83  1  0
 78 79  1  0
 79 82  1  1
 79 80  1  0
 81 79  1  0
 83 86  1  0
 84 88  1  0
 84 83  1  0
 85 84  2  0
 88 87  1  0
 90 88  1  0
 90 91  1  0
 90 89  1  0
M  ISO  4   9 100  10 100  50 101  51 101
M  END
>  <TORSDO>  (97) 
F 20

>  <SCORE>  (97) 
-11.884

>  <name>  (97) 
96

>  <ligand_id>  (97) 
96

>  <original_smiles>  (97) 
[H]OC1(C(=O)N2C([H])([H])C([H])([H])C([H])([H])C([H])(n3nc(-c4c([H])c([H])c(Oc5c([H])c([H])c(F)c([H])c5F)c([H])c4[H])c(C(=O)N([H])[H])c3N([H])[H])C2([H])[H])c2c([H])c([H])c(C([H])([H])C([H])([H])C([H])([H])Oc3c([H])c([H])c4c(c3[H])C([H])([H])N(C(=O)C([H])(N([H])C(=O)C([H])(N([H])C([H])([H])[H])C([H])([H])[H])C(C([H])([H])[H])(C([H])([H])[H])C([H])([H])[H])C([H])(C(=O)N([H])C3([H])c5c([H])c([H])c([H])c([H])c5C([H])([H])C([H])([H])C3([H])[H])C4([H])[H])c([H])c2C([H])([H])C1([H])[H]

>  <smiles>  (97) 
[H]OC1(C(=O)N2C([H])([H])C([H])([H])C([H])([H])C([H])(n3nc(-c4c([H])c([H])c(Oc5c([H])c([H])c(F)c([H])c5F)c([H])c4[H])c(C(=O)N([H])[H])c3N([H])[H])C2([H])[H])c2c([H])c([H])c(C([H])([H])C([H])([H])C([H])([H])Oc3c([H])c([H])c4c(c3[H])C([H])([H])N(C(=O)C([H])(N([H])C(=O)C([H])(N([H])C([H])([H])[H])C([H])([H])[H])C(C([H])([H])[H])(C([H])([H])[H])C([H])([H])[H])C([H])(C(=O)N([H])C3([H])c5c([H])c([H])c([H])c([H])c5C([H])([H])C([H])([H])C3([H])[H])C4([H])[H])c([H])c2C([H])([H])C1([H])[H]

$$$$
97:0:0
     RDKit          3D

 88 96  0  0  1  0  0  0  0  0999 V2000
  -27.9470  -21.5150   21.2220 C   0  0  0  0  0  3  0  0  0  0  0  0
  -27.1850  -22.6090   21.7050 C   0  0  0  0  0  3  0  0  0  0  0  0
  -29.1020  -23.1730   19.8960 C   0  0  0  0  0  3  0  0  0  0  0  0
  -28.9930  -21.6610   20.2950 C   0  0  0  0  0  0  0  0  0  0  0  0
  -27.3200  -23.9690   21.3090 C   0  0  0  0  0  0  0  0  0  0  0  0
  -28.2620  -24.4210   20.3290 C   0  0  0  0  0  0  0  0  0  0  0  0
  -26.4060  -24.9380   22.0350 C   0  0  0  0  0  1  0  0  0  0  0  0
  -28.3510  -25.9530   20.0380 O   0  0  0  0  0  0  0  0  0  0  0  0
  -24.6740  -31.8920   23.0940 C   0  0  0  0  0  0  0  0  0  0  0  0
  -27.3240  -27.0630   20.0340 C   0  0  0  0  0  0  0  0  0  0  0  0
  -23.4990  -30.4890   21.4460 C   0  0  0  0  0  3  0  0  0  0  0  0
  -24.9820  -28.9170   20.0100 C   0  0  0  0  0  0  0  0  0  0  0  0
  -26.0630  -30.7410   21.2970 C   0  0  0  0  0  2  0  0  0  0  0  0
  -26.1610  -29.3310   20.6390 C   0  0  0  0  0  0  0  0  0  0  0  0
  -27.3230  -28.4210   20.6360 C   0  0  0  0  0  3  0  0  0  0  0  0
  -26.1200  -26.8280   19.3290 C   0  0  0  0  0  3  0  0  0  0  0  0
  -24.9870  -27.6840   19.3350 C   0  0  0  0  0  3  0  0  0  0  0  0
  -23.7410  -29.8140   20.0650 C   0  0  0  0  0  2  0  0  0  0  0  0
  -24.7670  -31.0690   21.9990 N   0  0  0  0  0  0  0  0  0  0  0  0
  -23.5820  -32.1600   23.6200 O   0  0  0  0  0  0  0  0  0  0  0  0
  -22.8210  -29.4790   22.4070 C   0  0  0  0  0  0  0  0  0  0  0  0
  -21.4910  -29.3040   22.2920 N   0  0  0  0  0  0  0  0  0  0  0  0
  -23.4990  -28.8530   23.2270 O   0  0  0  0  0  0  0  0  0  0  0  0
  -20.9950  -29.8680   21.6120 H   0  0  0  0  0  0  0  0  0  0  0  0
  -18.1230  -28.0540   22.8380 C   0  0  0  0  0  0  0  0  0  0  0  0
  -20.6850  -28.3420   23.0540 C   0  0  0  0  0  3  0  0  0  0  0  0
  -20.7890  -26.9250   22.4450 C   0  0  0  0  0  2  0  0  0  0  0  0
  -19.6680  -26.6100   21.4500 C   0  0  0  0  0  2  0  0  0  0  0  0
  -18.3060  -26.7190   22.1400 C   0  0  0  0  0  2  0  0  0  0  0  0
  -19.2430  -28.8240   23.2550 C   0  0  0  0  0  0  0  0  0  0  0  0
  -19.0180  -30.0720   23.8750 C   0  0  0  0  0  3  0  0  0  0  0  0
  -17.7110  -30.5510   24.0800 C   0  0  0  0  0  3  0  0  0  0  0  0
  -16.6050  -29.7800   23.6780 C   0  0  0  0  0  3  0  0  0  0  0  0
  -16.8150  -28.5330   23.0640 C   0  0  0  0  0  3  0  0  0  0  0  0
  -25.9370  -32.5520   23.7300 C   0  0  0  0  0  3  0  0  0  0  0  0
  -25.5980  -33.9410   24.0920 N   0  0  0  0  0  0  0  0  0  0  0  0
  -25.9160  -35.0210   23.3690 C   0  0  0  0  0  0  0  0  0  0  0  0
  -26.5900  -34.9580   22.3370 O   0  0  0  0  0  0  0  0  0  0  0  0
  -25.0000  -34.0650   24.8960 H   0  0  0  0  0  0  0  0  0  0  0  0
  -24.1760  -36.8130   23.0530 C   0  0  0  0  0  1  0  0  0  0  0  0
  -25.4100  -36.3930   23.8650 C   0  0  0  0  0  3  0  0  0  0  0  0
  -27.5210  -37.2770   24.7550 C   0  0  0  0  0  1  0  0  0  0  0  0
  -26.4310  -37.4600   23.7980 N   0  0  0  0  0  0  0  0  0  0  0  0
  -26.0100  -38.3700   23.9640 H   0  0  0  0  0  0  0  0  0  0  0  0
  -26.4650  -31.7760   24.9990 C   0  0  1  0  0  0  0  0  0  0  0  0
  -25.3780  -31.5030   26.0640 C   0  0  0  0  0  1  0  0  0  0  0  0
  -27.0750  -30.4120   24.5990 C   0  0  0  0  0  1  0  0  0  0  0  0
  -27.5990  -32.5860   25.6720 C   0  0  0  0  0  1  0  0  0  0  0  0
  -29.9420  -20.1770   20.0690 C   0  0  0  0  0  2  0  0  0  0  0  0
  -29.6010  -18.4220   19.6520 C   0  0  0  0  0  2  0  0  0  0  0  0
  -30.6560  -15.5580   19.8860 C   0  0  0  0  0  0  0  0  0  0  0  0
  -30.6390  -13.0950   18.9880 C   0  0  0  0  0  2  0  0  0  0  0  0
  -29.6610  -12.8870   17.7990 C   0  0  0  0  0  2  0  0  0  0  0  0
  -28.2340  -12.5840   18.2930 C   0  0  0  0  0  2  0  0  0  0  0  0
  -27.8340  -13.5090   19.4690 C   0  0  0  0  0  3  0  0  0  0  0  0
  -28.9450  -13.6100   20.5400 C   0  0  0  0  0  2  0  0  0  0  0  0
  -30.1240  -14.2150   19.8760 N   0  0  0  0  0  0  0  0  0  0  0  0
  -31.8040  -15.5740   19.4130 O   0  0  0  0  0  0  0  0  0  0  0  0
  -29.1120  -16.7510   21.4390 C   0  0  0  0  0  1  0  0  0  0  0  0
  -29.9320  -16.8470   20.2320 N   0  0  0  0  0  0  0  0  0  0  0  0
  -25.4990  -14.0410   20.3470 C   0  0  0  0  0  0  0  0  0  0  0  0
  -24.4620  -13.2560   20.7630 C   0  0  0  0  0  0  0  0  0  0  0  0
  -24.9240  -11.9070   20.6680 C   0  0  0  0  0  0  0  0  0  0  0  0
  -26.5300  -13.1740   20.0310 N   0  0  0  0  0  0  0  0  0  0  0  0
  -26.1990  -11.8810   20.2840 N   0  0  0  0  0  0  0  0  0  0  0  0
  -24.2070  -10.6400   20.8620 C   0  0  0  0  0  0  0  0  0  0  0  0
  -24.6180   -9.6970   21.8300 C   0  0  0  0  0  3  0  0  0  0  0  0
  -23.8980   -8.4970   22.0140 C   0  0  0  0  0  3  0  0  0  0  0  0
  -22.7490   -8.2310   21.2290 C   0  0  0  0  0  0  0  0  0  0  0  0
  -22.3570   -9.1630   20.2510 C   0  0  0  0  0  3  0  0  0  0  0  0
  -23.0790  -10.3540   20.0670 C   0  0  0  0  0  3  0  0  0  0  0  0
  -22.0030   -7.0810   21.3210 O   0  0  0  0  0  0  0  0  0  0  0  0
  -21.8340   -6.4240   22.5130 C   0  0  0  0  0  0  0  0  0  0  0  0
  -21.2440   -7.0520   23.6330 C   0  0  0  0  0  3  0  0  0  0  0  0
  -21.0260   -6.3180   24.8170 C   0  0  0  0  0  3  0  0  0  0  0  0
  -21.3860   -4.9600   24.8800 C   0  0  0  0  0  0  0  0  0  0  0  0
  -21.9700   -4.3320   23.7660 C   0  0  0  0  0  3  0  0  0  0  0  0
  -22.1880   -5.0620   22.5850 C   0  0  0  0  0  0  0  0  0  0  0  0
  -22.7290   -4.4450   21.5050 F   0  0  0  0  0  0  0  0  0  0  0  0
  -21.1720   -4.2530   26.0160 F   0  0  0  0  0  0  0  0  0  0  0  0
  -23.0810  -13.7240   21.1210 C   0  0  0  0  0  0  0  0  0  0  0  0
  -22.4060  -13.0160   22.0190 N   0  0  0  0  0  0  0  0  0  0  0  0
  -22.6130  -14.7540   20.6380 O   0  0  0  0  0  0  0  0  0  0  0  0
  -22.8010  -12.1850   22.4340 H   0  0  0  0  0  0  0  0  0  0  0  0
  -21.4800  -13.3100   22.2970 H   0  0  0  0  0  0  0  0  0  0  0  0
  -25.6400  -15.4160   20.1760 N   0  0  0  0  0  0  0  0  0  0  0  0
  -24.8420  -16.0330   20.2780 H   0  0  0  0  0  0  0  0  0  0  0  0
  -26.4070  -15.8470   19.6780 H   0  0  0  0  0  0  0  0  0  0  0  0
  1  2  1  0
  3  4  1  0
  3  6  2  0
  4  1  2  0
  5  2  2  0
  5  7  1  0
  6  5  1  0
  8  6  1  0
  9 20  2  0
 10  8  1  0
 10 15  1  0
 11 19  1  0
 11 21  1  0
 12 18  1  0
 12 14  1  0
 13 19  1  0
 14 13  1  0
 15 14  2  0
 16 17  1  0
 16 10  2  0
 17 12  2  0
 18 11  1  0
 19  9  1  0
 21 23  2  0
 22 21  1  0
 24 22  1  0
 25 34  2  0
 25 30  1  0
 26 22  1  0
 26 30  1  0
 27 26  1  0
 28 29  1  0
 28 27  1  0
 29 25  1  0
 30 31  2  0
 31 32  1  0
 33 32  2  0
 34 33  1  0
 35  9  1  0
 35 36  1  0
 35 45  1  0
 36 39  1  0
 37 41  1  0
 37 36  1  0
 38 37  2  0
 41 40  1  0
 43 41  1  0
 43 44  1  0
 43 42  1  0
 45 48  1  1
 45 46  1  0
 47 45  1  0
 49  4  1  0
 50 49  1  0
 50 60  1  0
 51 60  1  0
 52 57  1  0
 53 54  1  0
 53 52  1  0
 55 54  1  0
 55 64  1  0
 55 56  1  0
 57 51  1  0
 57 56  1  0
 58 51  2  0
 60 59  1  0
 61 62  2  0
 62 81  1  0
 63 62  1  0
 63 66  1  0
 64 65  1  0
 64 61  1  0
 65 63  2  0
 66 67  1  0
 67 68  2  0
 69 72  1  0
 69 68  1  0
 70 69  2  0
 71 70  1  0
 71 66  2  0
 72 73  1  0
 73 78  2  0
 73 74  1  0
 74 75  2  0
 75 76  1  0
 76 80  1  0
 77 76  2  0
 78 77  1  0
 79 78  1  0
 81 82  1  0
 82 85  1  0
 82 84  1  0
 83 81  2  0
 86 87  1  0
 86 61  1  0
 88 86  1  0
M  ISO  4   6 101   8 101  51 100  60 100
M  END
>  <TORSDO>  (98) 
F 18

>  <SCORE>  (98) 
-15.057

>  <name>  (98) 
97

>  <ligand_id>  (98) 
97

>  <original_smiles>  (98) 
[H]c1c([H])c([H])c2c(c1[H])C([H])([H])C([H])([H])C([H])([H])C2([H])N([H])C(=O)C1([H])N(C(=O)C([H])(N([H])C(=O)C([H])(N([H])C([H])([H])[H])C([H])([H])[H])C(C([H])([H])[H])(C([H])([H])[H])C([H])([H])[H])C([H])([H])c2c([H])c(Oc3c([H])c(C([H])([H])C([H])([H])N(C(=O)N4C([H])([H])C([H])([H])C([H])([H])C([H])(n5nc(-c6c([H])c([H])c(Oc7c([H])c([H])c(F)c([H])c7F)c([H])c6[H])c(C(=O)N([H])[H])c5N([H])[H])C4([H])[H])C([H])([H])[H])c([H])c([H])c3C([H])([H])[H])c([H])c([H])c2C1([H])[H]

>  <smiles>  (98) 
[H]c1c([H])c([H])c2c(c1[H])C([H])([H])C([H])([H])C([H])([H])C2([H])N([H])C(=O)C1([H])N(C(=O)C([H])(N([H])C(=O)C([H])(N([H])C([H])([H])[H])C([H])([H])[H])C(C([H])([H])[H])(C([H])([H])[H])C([H])([H])[H])C([H])([H])c2c([H])c(Oc3c([H])c(C([H])([H])C([H])([H])N(C(=O)N4C([H])([H])C([H])([H])C([H])([H])C([H])(n5nc(-c6c([H])c([H])c(Oc7c([H])c([H])c(F)c([H])c7F)c([H])c6[H])c(C(=O)N([H])[H])c5N([H])[H])C4([H])[H])C([H])([H])[H])c([H])c([H])c3C([H])([H])[H])c([H])c([H])c2C1([H])[H]

$$$$
