0:0:0
     RDKit          3D

 95104  0  0  1  0  0  0  0  0999 V2000
  -28.4190  -22.5900   19.4150 C   0  0  0  0  0  3  0  0  0  0  0  0
  -28.0780  -23.9600   19.0430 C   0  0  0  0  0  3  0  0  0  0  0  0
  -28.7800  -23.3420   21.6230 C   0  0  0  0  0  3  0  0  0  0  0  0
  -28.8170  -22.2040   20.7390 C   0  0  0  0  0  0  0  0  0  0  0  0
  -28.4470  -24.7100   21.2650 C   0  0  0  0  0  0  0  0  0  0  0  0
  -28.0840  -25.0950   19.9320 C   0  0  0  0  0  0  0  0  0  0  0  0
  -28.3890  -26.8900   25.1200 C   0  0  0  0  0  2  0  0  0  0  0  0
  -29.6770  -26.9110   24.2840 C   0  0  0  0  0  2  0  0  0  0  0  0
  -27.1320  -26.8880   24.2370 C   0  0  0  0  0  2  0  0  0  0  0  0
  -29.7040  -25.7500   23.2720 C   0  0  0  0  0  2  0  0  0  0  0  0
  -27.1700  -25.7550   23.1920 C   0  0  0  0  0  2  0  0  0  0  0  0
  -28.4620  -25.7910   22.3540 C   0  0  0  0  0  3  0  0  0  0  0  0
  -29.2260  -20.7500   21.2960 C   0  0  0  0  0  0  0  0  0  0  0  0
  -29.3890  -19.5300   20.6150 N   0  0  0  0  0  0  0  0  0  0  0  0
  -29.4950  -20.7170   22.4980 O   0  0  0  0  0  0  0  0  0  0  0  0
  -29.1400  -19.5620   19.6350 H   0  0  0  0  0  0  0  0  0  0  0  0
  -30.2070  -18.2470   21.0590 C   0  0  0  0  0  2  0  0  0  0  0  0
  -29.6830  -16.6580   21.0940 C   0  0  0  0  0  2  0  0  0  0  0  0
  -30.6520  -15.3120   21.0930 C   0  0  0  0  0  0  0  0  0  0  0  0
  -30.7780  -12.9370   20.2320 C   0  0  0  0  0  2  0  0  0  0  0  0
  -29.9790  -12.8330   18.9090 C   0  0  0  0  0  2  0  0  0  0  0  0
  -28.4830  -12.5750   19.1860 C   0  0  0  0  0  2  0  0  0  0  0  0
  -27.9190  -13.5150   20.2820 C   0  0  0  0  0  3  0  0  0  0  0  0
  -28.8410  -13.5690   21.5150 C   0  0  0  0  0  2  0  0  0  0  0  0
  -30.1630  -14.0110   21.0580 N   0  0  0  0  0  0  0  0  0  0  0  0
  -31.8700  -15.4510   20.9290 O   0  0  0  0  0  0  0  0  0  0  0  0
  -25.4770  -14.0370   20.8420 C   0  0  0  0  0  0  0  0  0  0  0  0
  -24.3960  -13.2340   21.0810 C   0  0  0  0  0  0  0  0  0  0  0  0
  -24.8810  -11.8920   21.0250 C   0  0  0  0  0  0  0  0  0  0  0  0
  -26.5470  -13.1810   20.6460 N   0  0  0  0  0  0  0  0  0  0  0  0
  -26.1930  -11.8820   20.8230 N   0  0  0  0  0  0  0  0  0  0  0  0
  -24.1630  -10.6140   21.0920 C   0  0  0  0  0  0  0  0  0  0  0  0
  -24.5480   -9.5940   21.9880 C   0  0  0  0  0  3  0  0  0  0  0  0
  -23.8300   -8.3800   22.0440 C   0  0  0  0  0  3  0  0  0  0  0  0
  -22.7090   -8.1790   21.2040 C   0  0  0  0  0  0  0  0  0  0  0  0
  -22.3430   -9.1890   20.2960 C   0  0  0  0  0  3  0  0  0  0  0  0
  -23.0630  -10.3940   20.2390 C   0  0  0  0  0  3  0  0  0  0  0  0
  -21.9660   -7.0240   21.1730 O   0  0  0  0  0  0  0  0  0  0  0  0
  -21.8500   -6.2110   22.2720 C   0  0  0  0  0  0  0  0  0  0  0  0
  -21.3430   -6.6870   23.5010 C   0  0  0  0  0  3  0  0  0  0  0  0
  -21.1770   -5.8010   24.5850 C   0  0  0  0  0  3  0  0  0  0  0  0
  -21.5080   -4.4400   24.4390 C   0  0  0  0  0  0  0  0  0  0  0  0
  -22.0110   -3.9650   23.2150 C   0  0  0  0  0  3  0  0  0  0  0  0
  -22.1800   -4.8490   22.1340 C   0  0  0  0  0  0  0  0  0  0  0  0
  -22.6410   -4.3790   20.9510 F   0  0  0  0  0  0  0  0  0  0  0  0
  -21.3420   -3.5880   25.4770 F   0  0  0  0  0  0  0  0  0  0  0  0
  -22.9740  -13.6810   21.2560 C   0  0  0  0  0  0  0  0  0  0  0  0
  -22.1900  -12.9410   22.0320 N   0  0  0  0  0  0  0  0  0  0  0  0
  -22.5640  -14.7200   20.7410 O   0  0  0  0  0  0  0  0  0  0  0  0
  -22.5340  -12.1000   22.4710 H   0  0  0  0  0  0  0  0  0  0  0  0
  -21.2300  -13.2180   22.1860 H   0  0  0  0  0  0  0  0  0  0  0  0
  -25.6410  -15.4160   20.7490 N   0  0  0  0  0  0  0  0  0  0  0  0
  -24.8660  -16.0660   20.8290 H   0  0  0  0  0  0  0  0  0  0  0  0
  -26.5190  -15.8680   20.5240 H   0  0  0  0  0  0  0  0  0  0  0  0
  -27.9670  -26.4890   19.5150 O   0  0  0  0  0  0  0  0  0  0  0  0
  -24.4920  -31.8580   23.0870 C   0  0  0  0  0  0  0  0  0  0  0  0
  -26.8540  -27.3730   19.6480 C   0  0  0  0  0  0  0  0  0  0  0  0
  -23.1760  -30.5650   21.4430 C   0  0  0  0  0  3  0  0  0  0  0  0
  -24.5230  -29.0740   19.8430 C   0  0  0  0  0  0  0  0  0  0  0  0
  -25.7070  -30.8600   21.1230 C   0  0  0  0  0  2  0  0  0  0  0  0
  -25.7340  -29.5030   20.4030 C   0  0  0  0  0  0  0  0  0  0  0  0
  -26.8990  -28.6690   20.2880 C   0  0  0  0  0  3  0  0  0  0  0  0
  -25.6190  -27.0230   19.0670 C   0  0  0  0  0  3  0  0  0  0  0  0
  -24.4730  -27.8460   19.1620 C   0  0  0  0  0  3  0  0  0  0  0  0
  -23.3060  -29.9680   20.0130 C   0  0  0  0  0  2  0  0  0  0  0  0
  -24.4810  -31.1130   21.9420 N   0  0  0  0  0  0  0  0  0  0  0  0
  -23.4450  -32.1090   23.7040 O   0  0  0  0  0  0  0  0  0  0  0  0
  -22.5590  -29.5020   22.3840 C   0  0  0  0  0  0  0  0  0  0  0  0
  -21.2310  -29.3170   22.3110 N   0  0  0  0  0  0  0  0  0  0  0  0
  -23.2790  -28.8460   23.1440 O   0  0  0  0  0  0  0  0  0  0  0  0
  -20.7040  -29.9160   21.6910 H   0  0  0  0  0  0  0  0  0  0  0  0
  -17.9020  -27.9960   22.8500 C   0  0  0  0  0  0  0  0  0  0  0  0
  -20.4580  -28.3290   23.0690 C   0  0  0  0  0  3  0  0  0  0  0  0
  -20.5890  -26.9180   22.4500 C   0  0  0  0  0  2  0  0  0  0  0  0
  -19.4730  -26.5900   21.4530 C   0  0  0  0  0  2  0  0  0  0  0  0
  -18.1020  -26.6730   22.1310 C   0  0  0  0  0  2  0  0  0  0  0  0
  -19.0070  -28.7800   23.2780 C   0  0  0  0  0  0  0  0  0  0  0  0
  -18.7650  -30.0140   23.9180 C   0  0  0  0  0  3  0  0  0  0  0  0
  -17.4500  -30.4680   24.1310 C   0  0  0  0  0  3  0  0  0  0  0  0
  -16.3590  -29.6840   23.7160 C   0  0  0  0  0  3  0  0  0  0  0  0
  -16.5860  -28.4500   23.0800 C   0  0  0  0  0  3  0  0  0  0  0  0
  -25.8130  -32.4490   23.6680 C   0  0  0  0  0  3  0  0  0  0  0  0
  -26.4150  -31.5840   24.8420 C   0  0  1  0  0  0  0  0  0  0  0  0
  -25.4010  -31.2710   25.9650 C   0  0  0  0  0  1  0  0  0  0  0  0
  -26.9590  -30.2390   24.3100 C   0  0  0  0  0  1  0  0  0  0  0  0
  -27.6160  -32.3250   25.4770 C   0  0  0  0  0  1  0  0  0  0  0  0
  -25.5240  -33.8160   24.1310 N   0  0  0  0  0  0  0  0  0  0  0  0
  -25.8490  -34.9320   23.4640 C   0  0  0  0  0  0  0  0  0  0  0  0
  -26.4880  -34.9170   22.4090 O   0  0  0  0  0  0  0  0  0  0  0  0
  -24.9450  -33.9010   24.9530 H   0  0  0  0  0  0  0  0  0  0  0  0
  -24.1350  -36.7720   23.3280 C   0  0  0  0  0  1  0  0  0  0  0  0
  -25.3910  -36.2770   24.0620 C   0  0  0  0  0  3  0  0  0  0  0  0
  -27.5600  -37.0530   24.9120 C   0  0  0  0  0  1  0  0  0  0  0  0
  -26.4350  -37.3250   24.0210 N   0  0  0  0  0  0  0  0  0  0  0  0
  -26.0460  -38.2310   24.2700 H   0  0  0  0  0  0  0  0  0  0  0  0
  1  4  1  0
  2  1  2  0
  2  6  1  0
  4 13  1  0
  4  3  2  0
  5  3  1  0
  5 12  1  0
  6  5  2  0
  8  7  1  0
  9  7  1  0
 10  8  1  0
 11  9  1  0
 12 11  1  0
 12 10  1  0
 13 15  2  0
 14 17  1  0
 14 13  1  0
 16 14  1  0
 17 18  1  0
 19 18  1  0
 20 25  1  0
 21 22  1  0
 21 20  1  0
 23 22  1  0
 23 30  1  0
 23 24  1  0
 25 19  1  0
 25 24  1  0
 26 19  2  0
 27 28  2  0
 28 47  1  0
 29 28  1  0
 29 32  1  0
 30 31  1  0
 30 27  1  0
 31 29  2  0
 32 33  1  0
 33 34  2  0
 35 34  1  0
 36 35  2  0
 37 36  1  0
 37 32  2  0
 38 35  1  0
 38 39  1  0
 39 40  1  0
 40 41  2  0
 42 41  1  0
 42 46  1  0
 43 42  2  0
 44 39  2  0
 44 43  1  0
 45 44  1  0
 47 48  1  0
 48 51  1  0
 48 50  1  0
 49 47  2  0
 52 53  1  0
 52 27  1  0
 54 52  1  0
 55 57  1  0
 55  6  1  0
 56 67  2  0
 57 62  1  0
 58 66  1  0
 58 68  1  0
 59 65  1  0
 59 61  1  0
 60 66  1  0
 61 60  1  0
 62 61  2  0
 63 64  1  0
 63 57  2  0
 64 59  2  0
 65 58  1  0
 66 56  1  0
 68 70  2  0
 69 68  1  0
 71 69  1  0
 72 81  2  0
 72 77  1  0
 73 69  1  0
 73 77  1  0
 74 73  1  0
 75 76  1  0
 75 74  1  0
 76 72  1  0
 77 78  2  0
 78 79  1  0
 80 79  2  0
 81 80  1  0
 82 56  1  0
 82 87  1  0
 82 83  1  0
 83 86  1  1
 83 84  1  0
 85 83  1  0
 87 90  1  0
 88 92  1  0
 88 87  1  0
 89 88  2  0
 92 91  1  0
 94 92  1  0
 94 95  1  0
 94 93  1  0
M  ISO  4   6 101  18 100  19 100  55 101
M  END
>  <TORSDO>  (1) 
F 20

>  <SCORE>  (1) 
-12.731

>  <name>  (1) 
0

>  <ligand_id>  (1) 
0

>  <original_smiles>  (1) 
[H]c1c([H])c([H])c2c(c1[H])C([H])([H])C([H])([H])C([H])([H])C2([H])N([H])C(=O)C1([H])N(C(=O)C([H])(N([H])C(=O)C([H])(N([H])C([H])([H])[H])C([H])([H])[H])C(C([H])([H])[H])(C([H])([H])[H])C([H])([H])[H])C([H])([H])c2c([H])c(Oc3c([H])c([H])c(C(=O)N([H])C([H])([H])C([H])([H])C(=O)N4C([H])([H])C([H])([H])C([H])([H])C([H])(n5nc(-c6c([H])c([H])c(Oc7c([H])c([H])c(F)c([H])c7F)c([H])c6[H])c(C(=O)N([H])[H])c5N([H])[H])C4([H])[H])c([H])c3C3([H])C([H])([H])C([H])([H])C([H])([H])C([H])([H])C3([H])[H])c([H])c([H])c2C1([H])[H]

>  <smiles>  (1) 
[H]c1c([H])c([H])c2c(c1[H])C([H])([H])C([H])([H])C([H])([H])C2([H])N([H])C(=O)C1([H])N(C(=O)C([H])(N([H])C(=O)C([H])(N([H])C([H])([H])[H])C([H])([H])[H])C(C([H])([H])[H])(C([H])([H])[H])C([H])([H])[H])C([H])([H])c2c([H])c(Oc3c([H])c([H])c(C(=O)N([H])C([H])([H])C([H])([H])C(=O)N4C([H])([H])C([H])([H])C([H])([H])C([H])(n5nc(-c6c([H])c([H])c(Oc7c([H])c([H])c(F)c([H])c7F)c([H])c6[H])c(C(=O)N([H])[H])c5N([H])[H])C4([H])[H])c([H])c3C3([H])C([H])([H])C([H])([H])C([H])([H])C([H])([H])C3([H])[H])c([H])c([H])c2C1([H])[H]

$$$$
1:0:0
     RDKit          3D

 89 97  0  0  1  0  0  0  0  0999 V2000
  -29.8620  -17.3550   20.4840 C   0  0  0  0  0  3  0  0  0  0  0  0
  -29.2140  -18.5470   19.8570 C   0  0  0  0  0  3  0  0  0  0  0  0
  -30.5660  -18.1710   21.5820 C   0  0  0  0  0  2  0  0  0  0  0  0
  -29.4210  -20.2650   20.3230 C   0  0  0  0  0  3  0  0  0  0  0  0
  -30.0330  -19.7100   21.6740 C   0  0  0  0  0  3  0  0  0  0  0  0
  -30.3880  -15.7230   20.1980 C   0  0  0  0  0  0  0  0  0  0  0  0
  -30.3880  -13.1630   19.4130 C   0  0  0  0  0  2  0  0  0  0  0  0
  -29.5150  -12.7920   18.1820 C   0  0  0  0  0  2  0  0  0  0  0  0
  -28.0850  -12.4520   18.6200 C   0  0  0  0  0  2  0  0  0  0  0  0
  -27.5800  -13.4500   19.6850 C   0  0  0  0  0  3  0  0  0  0  0  0
  -28.5990  -13.7820   20.8020 C   0  0  0  0  0  2  0  0  0  0  0  0
  -29.7970  -14.3760   20.1620 N   0  0  0  0  0  0  0  0  0  0  0  0
  -31.5960  -15.5330   19.9530 O   0  0  0  0  0  0  0  0  0  0  0  0
  -25.2220  -13.9780   20.4460 C   0  0  0  0  0  0  0  0  0  0  0  0
  -24.1620  -13.1990   20.8130 C   0  0  0  0  0  0  0  0  0  0  0  0
  -24.6340  -11.8490   20.7930 C   0  0  0  0  0  0  0  0  0  0  0  0
  -26.2670  -13.1070   20.2070 N   0  0  0  0  0  0  0  0  0  0  0  0
  -25.9300  -11.8190   20.4860 N   0  0  0  0  0  0  0  0  0  0  0  0
  -23.9060  -10.5870   20.9880 C   0  0  0  0  0  0  0  0  0  0  0  0
  -24.3190   -9.6340   21.9450 C   0  0  0  0  0  3  0  0  0  0  0  0
  -23.5860   -8.4420   22.1300 C   0  0  0  0  0  3  0  0  0  0  0  0
  -22.4270   -8.1920   21.3580 C   0  0  0  0  0  0  0  0  0  0  0  0
  -22.0340   -9.1330   20.3900 C   0  0  0  0  0  3  0  0  0  0  0  0
  -22.7660  -10.3180   20.2040 C   0  0  0  0  0  3  0  0  0  0  0  0
  -21.6670   -7.0510   21.4500 O   0  0  0  0  0  0  0  0  0  0  0  0
  -21.5830   -6.3330   22.6150 C   0  0  0  0  0  0  0  0  0  0  0  0
  -21.1010   -6.9100   23.8120 C   0  0  0  0  0  3  0  0  0  0  0  0
  -20.9670   -6.1180   24.9690 C   0  0  0  0  0  3  0  0  0  0  0  0
  -21.3030   -4.7520   24.9320 C   0  0  0  0  0  0  0  0  0  0  0  0
  -21.7770   -4.1750   23.7410 C   0  0  0  0  0  3  0  0  0  0  0  0
  -21.9140   -4.9640   22.5850 C   0  0  0  0  0  0  0  0  0  0  0  0
  -22.3500   -4.3980   21.4350 F   0  0  0  0  0  0  0  0  0  0  0  0
  -21.1660   -3.9890   26.0430 F   0  0  0  0  0  0  0  0  0  0  0  0
  -22.7630  -13.6760   21.0640 C   0  0  0  0  0  0  0  0  0  0  0  0
  -22.0260  -12.9880   21.9280 N   0  0  0  0  0  0  0  0  0  0  0  0
  -22.3320  -14.6970   20.5300 O   0  0  0  0  0  0  0  0  0  0  0  0
  -22.3890  -12.1660   22.3870 H   0  0  0  0  0  0  0  0  0  0  0  0
  -21.0860  -13.2930   22.1390 H   0  0  0  0  0  0  0  0  0  0  0  0
  -25.3830  -15.3480   20.2610 N   0  0  0  0  0  0  0  0  0  0  0  0
  -24.6170  -16.0040   20.3700 H   0  0  0  0  0  0  0  0  0  0  0  0
  -26.2410  -15.7880   19.9540 H   0  0  0  0  0  0  0  0  0  0  0  0
  -31.0750  -20.6200   22.1540 N   0  0  0  0  0  0  0  0  0  0  0  0
  -31.3360  -20.2980   23.5390 O   0  0  0  0  0  1  0  0  0  0  0  0
  -30.7110  -21.5720   22.1370 H   0  0  0  0  0  0  0  0  0  0  0  0
  -28.5460  -18.4890   18.6960 O   0  0  0  0  0  0  0  0  0  0  0  0
  -28.5070  -17.5820   18.4210 H   0  0  0  0  0  0  0  0  0  0  0  0
  -28.4890  -21.9840   20.5140 C   0  0  0  0  0  2  0  0  0  0  0  0
  -28.3420  -23.8390   19.8980 C   0  0  0  0  0  2  0  0  0  0  0  0
  -28.1790  -25.5470   20.3520 O   0  0  0  0  0  0  0  0  0  0  0  0
  -24.5740  -31.8400   23.0870 C   0  0  0  0  0  0  0  0  0  0  0  0
  -27.2010  -26.7490   20.1880 C   0  0  0  0  0  0  0  0  0  0  0  0
  -23.4250  -30.4080   21.4500 C   0  0  0  0  0  3  0  0  0  0  0  0
  -24.9120  -28.7600   20.0700 C   0  0  0  0  0  0  0  0  0  0  0  0
  -26.0030  -30.5750   21.3680 C   0  0  0  0  0  2  0  0  0  0  0  0
  -26.0900  -29.1350   20.7250 C   0  0  0  0  0  0  0  0  0  0  0  0
  -27.2130  -28.1540   20.7580 C   0  0  0  0  0  3  0  0  0  0  0  0
  -25.9950  -26.5900   19.4580 C   0  0  0  0  0  3  0  0  0  0  0  0
  -24.9050  -27.5150   19.4140 C   0  0  0  0  0  3  0  0  0  0  0  0
  -23.6920  -29.6950   20.0910 C   0  0  0  0  0  2  0  0  0  0  0  0
  -24.6890  -30.9760   22.0200 N   0  0  0  0  0  0  0  0  0  0  0  0
  -23.4700  -32.1340   23.5780 O   0  0  0  0  0  0  0  0  0  0  0  0
  -22.7060  -29.4360   22.4250 C   0  0  0  0  0  0  0  0  0  0  0  0
  -21.3720  -29.2920   22.3050 N   0  0  0  0  0  0  0  0  0  0  0  0
  -23.3600  -28.8070   23.2600 O   0  0  0  0  0  0  0  0  0  0  0  0
  -20.8940  -29.8480   21.6100 H   0  0  0  0  0  0  0  0  0  0  0  0
  -17.9720  -28.1320   22.8590 C   0  0  0  0  0  0  0  0  0  0  0  0
  -20.5410  -28.3610   23.0800 C   0  0  0  0  0  3  0  0  0  0  0  0
  -20.6100  -26.9320   22.4890 C   0  0  0  0  0  2  0  0  0  0  0  0
  -19.4860  -26.6390   21.4890 C   0  0  0  0  0  2  0  0  0  0  0  0
  -18.1180  -26.7920   22.1570 C   0  0  0  0  0  2  0  0  0  0  0  0
  -19.1080  -28.8750   23.2770 C   0  0  0  0  0  0  0  0  0  0  0  0
  -18.9130  -30.1280   23.8990 C   0  0  0  0  0  3  0  0  0  0  0  0
  -17.6160  -30.6380   24.1030 C   0  0  0  0  0  3  0  0  0  0  0  0
  -16.4960  -29.8920   23.6980 C   0  0  0  0  0  3  0  0  0  0  0  0
  -16.6760  -28.6410   23.0820 C   0  0  0  0  0  3  0  0  0  0  0  0
  -25.8190  -32.5130   23.7390 C   0  0  0  0  0  3  0  0  0  0  0  0
  -26.3250  -31.7570   25.0310 C   0  0  1  0  0  0  0  0  0  0  0  0
  -25.2300  -31.5490   26.1040 C   0  0  0  0  0  1  0  0  0  0  0  0
  -26.8930  -30.3650   24.6730 C   0  0  0  0  0  1  0  0  0  0  0  0
  -27.4870  -32.5470   25.6800 C   0  0  0  0  0  1  0  0  0  0  0  0
  -25.4630  -33.9030   24.0860 N   0  0  0  0  0  0  0  0  0  0  0  0
  -25.7850  -34.9860   23.3640 C   0  0  0  0  0  0  0  0  0  0  0  0
  -26.4680  -34.9220   22.3400 O   0  0  0  0  0  0  0  0  0  0  0  0
  -24.8550  -34.0250   24.8820 H   0  0  0  0  0  0  0  0  0  0  0  0
  -24.0340  -36.7700   23.0380 C   0  0  0  0  0  1  0  0  0  0  0  0
  -25.2710  -36.3580   23.8540 C   0  0  0  0  0  3  0  0  0  0  0  0
  -27.3770  -37.2610   24.7390 C   0  0  0  0  0  1  0  0  0  0  0  0
  -26.2870  -37.4320   23.7830 N   0  0  0  0  0  0  0  0  0  0  0  0
  -25.8630  -38.3410   23.9460 H   0  0  0  0  0  0  0  0  0  0  0  0
  1  6  1  0
  1  3  1  0
  2 45  1  0
  2  4  1  0
  2  1  1  0
  3  5  1  0
  4 47  1  0
  4  5  1  0
  5 42  1  0
  7 12  1  0
  8  9  1  0
  8  7  1  0
 10  9  1  0
 10 17  1  0
 10 11  1  0
 12  6  1  0
 12 11  1  0
 13  6  2  0
 14 15  2  0
 15 34  1  0
 16 15  1  0
 16 19  1  0
 17 14  1  0
 17 18  1  0
 18 16  2  0
 19 20  1  0
 20 21  2  0
 22 25  1  0
 22 21  1  0
 23 22  2  0
 24 23  1  0
 24 19  2  0
 25 26  1  0
 26 27  1  0
 27 28  2  0
 29 28  1  0
 29 33  1  0
 30 29  2  0
 31 26  2  0
 31 30  1  0
 32 31  1  0
 34 35  1  0
 35 38  1  0
 35 37  1  0
 36 34  2  0
 39 40  1  0
 39 14  1  0
 41 39  1  0
 42 43  1  0
 44 42  1  0
 46 45  1  0
 48 49  1  0
 48 47  1  0
 50 61  2  0
 51 49  1  0
 51 56  1  0
 52 60  1  0
 52 62  1  0
 53 59  1  0
 53 55  1  0
 54 60  1  0
 55 56  2  0
 55 54  1  0
 57 51  2  0
 58 57  1  0
 58 53  2  0
 59 52  1  0
 60 50  1  0
 62 64  2  0
 63 62  1  0
 65 63  1  0
 66 75  2  0
 66 71  1  0
 67 63  1  0
 67 71  1  0
 68 67  1  0
 69 70  1  0
 69 68  1  0
 70 66  1  0
 71 72  2  0
 72 73  1  0
 74 73  2  0
 75 74  1  0
 76 50  1  0
 76 81  1  0
 76 77  1  0
 77 80  1  1
 77 78  1  0
 79 77  1  0
 81 84  1  0
 82 86  1  0
 82 81  1  0
 83 82  2  0
 86 85  1  0
 88 86  1  0
 88 89  1  0
 88 87  1  0
M  ISO  4   1 100   6 100  48 101  49 101
M  END
>  <TORSDO>  (2) 
F 20

>  <SCORE>  (2) 
-15.871

>  <name>  (2) 
1

>  <ligand_id>  (2) 
1

>  <original_smiles>  (2) 
[H]OC1=C(C(=O)N2C([H])([H])C([H])([H])C([H])([H])C([H])(n3nc(-c4c([H])c([H])c(Oc5c([H])c([H])c(F)c([H])c5F)c([H])c4[H])c(C(=O)N([H])[H])c3N([H])[H])C2([H])[H])C([H])([H])C([H])(N([H])[O-])C1([H])C([H])([H])C([H])([H])Oc1c([H])c([H])c2c(c1[H])C([H])([H])N(C(=O)C([H])(N([H])C(=O)C([H])(N([H])C([H])([H])[H])C([H])([H])[H])C(C([H])([H])[H])(C([H])([H])[H])C([H])([H])[H])C([H])(C(=O)N([H])C1([H])c3c([H])c([H])c([H])c([H])c3C([H])([H])C([H])([H])C1([H])[H])C2([H])[H]

>  <smiles>  (2) 
[H]OC1=C(C(=O)N2C([H])([H])C([H])([H])C([H])([H])C([H])(n3nc(-c4c([H])c([H])c(Oc5c([H])c([H])c(F)c([H])c5F)c([H])c4[H])c(C(=O)N([H])[H])c3N([H])[H])C2([H])[H])C([H])([H])C([H])(N([H])[O-])C1([H])C([H])([H])C([H])([H])Oc1c([H])c([H])c2c(c1[H])C([H])([H])N(C(=O)C([H])(N([H])C(=O)C([H])(N([H])C([H])([H])[H])C([H])([H])[H])C(C([H])([H])[H])(C([H])([H])[H])C([H])([H])[H])C([H])(C(=O)N([H])C1([H])c3c([H])c([H])c([H])c([H])c3C([H])([H])C([H])([H])C1([H])[H])C2([H])[H]

$$$$
2:0:0
     RDKit          3D

 95103  0  0  1  0  0  0  0  0999 V2000
  -29.8670  -24.0540   22.7340 C   0  0  0  0  0  0  0  0  0  0  0  0
  -30.3530  -25.4870   22.9590 C   0  0  0  0  0  2  0  0  0  0  0  0
  -29.6850  -26.5370   22.0370 C   0  0  0  0  0  2  0  0  0  0  0  0
  -29.2840  -24.6970   20.3110 C   0  0  0  0  0  2  0  0  0  0  0  0
  -29.7090  -23.5610   21.2810 C   0  0  0  0  0  3  0  0  0  0  0  0
  -28.7120  -25.9520   20.9950 C   0  0  0  0  0  3  0  0  0  0  0  0
  -29.6230  -23.3310   23.7050 O   0  0  0  0  0  0  0  0  0  0  0  0
  -28.7550  -22.4270   21.3690 N   0  0  0  0  0  4  0  0  0  0  0  0
  -27.8210  -22.7280   21.1470 H   0  0  0  0  0  0  0  0  0  0  0  0
  -28.7750  -22.2190   22.3610 H   0  0  0  0  0  0  0  0  0  0  0  0
  -29.1240  -21.2020   20.6140 C   0  0  0  0  0  2  0  0  0  0  0  0
  -28.0350  -20.1020   20.6880 C   0  0  0  0  0  2  0  0  0  0  0  0
  -28.3570  -18.7860   19.9390 C   0  0  0  0  0  2  0  0  0  0  0  0
  -29.3370  -17.8360   20.6650 C   0  0  0  0  0  2  0  0  0  0  0  0
  -30.5670  -17.4350   19.8350 C   0  0  0  0  0  2  0  0  0  0  0  0
  -31.6520  -16.7490   20.6920 C   0  0  0  0  0  2  0  0  0  0  0  0
  -31.9180  -14.2750   20.5840 C   0  0  0  0  0  0  0  0  0  0  0  0
  -31.5180  -12.0160   19.6910 C   0  0  0  0  0  2  0  0  0  0  0  0
  -30.6700  -12.1470   18.4090 C   0  0  0  0  0  2  0  0  0  0  0  0
  -29.1630  -12.2070   18.7350 C   0  0  0  0  0  2  0  0  0  0  0  0
  -28.8340  -13.2100   19.8710 C   0  0  0  0  0  3  0  0  0  0  0  0
  -29.7910  -13.0140   21.0710 C   0  0  0  0  0  2  0  0  0  0  0  0
  -31.1720  -13.1390   20.5790 N   0  0  0  0  0  0  0  0  0  0  0  0
  -33.0460  -14.3440   20.0880 O   0  0  0  0  0  0  0  0  0  0  0  0
  -31.2830  -15.3690   21.0320 N   0  0  0  0  0  0  0  0  0  0  0  0
  -30.4100  -15.2280   21.5130 H   0  0  0  0  0  0  0  0  0  0  0  0
  -26.5000  -14.1320   20.4430 C   0  0  0  0  0  0  0  0  0  0  0  0
  -25.3190  -13.5090   20.7460 C   0  0  0  0  0  0  0  0  0  0  0  0
  -25.5980  -12.1080   20.7370 C   0  0  0  0  0  0  0  0  0  0  0  0
  -27.4310  -13.1200   20.2700 N   0  0  0  0  0  0  0  0  0  0  0  0
  -26.8850  -11.8950   20.4950 N   0  0  0  0  0  0  0  0  0  0  0  0
  -24.7020  -10.9540   20.8820 C   0  0  0  0  0  0  0  0  0  0  0  0
  -24.9810   -9.9160   21.8030 C   0  0  0  0  0  3  0  0  0  0  0  0
  -24.0990   -8.8240   21.9390 C   0  0  0  0  0  3  0  0  0  0  0  0
  -22.9220   -8.7600   21.1530 C   0  0  0  0  0  0  0  0  0  0  0  0
  -22.6610   -9.7810   20.2220 C   0  0  0  0  0  3  0  0  0  0  0  0
  -23.5450  -10.8670   20.0830 C   0  0  0  0  0  3  0  0  0  0  0  0
  -22.0170   -7.7270   21.2010 O   0  0  0  0  0  0  0  0  0  0  0  0
  -21.8290   -6.9860   22.3410 C   0  0  0  0  0  0  0  0  0  0  0  0
  -21.4670   -7.5820   23.5680 C   0  0  0  0  0  3  0  0  0  0  0  0
  -21.2200   -6.7730   24.6960 C   0  0  0  0  0  3  0  0  0  0  0  0
  -21.3240   -5.3740   24.5960 C   0  0  0  0  0  0  0  0  0  0  0  0
  -21.6790   -4.7780   23.3710 C   0  0  0  0  0  3  0  0  0  0  0  0
  -21.9300   -5.5820   22.2470 C   0  0  0  0  0  0  0  0  0  0  0  0
  -22.2500   -5.0030   21.0650 F   0  0  0  0  0  0  0  0  0  0  0  0
  -21.0800   -4.5950   25.6760 F   0  0  0  0  0  0  0  0  0  0  0  0
  -23.9860  -14.1660   20.9430 C   0  0  0  0  0  0  0  0  0  0  0  0
  -23.1380  -13.5960   21.7940 N   0  0  0  0  0  0  0  0  0  0  0  0
  -23.7010  -15.2240   20.3820 O   0  0  0  0  0  0  0  0  0  0  0  0
  -23.3720  -12.7380   22.2710 H   0  0  0  0  0  0  0  0  0  0  0  0
  -22.2390  -14.0220   21.9660 H   0  0  0  0  0  0  0  0  0  0  0  0
  -26.8570  -15.4690   20.2890 N   0  0  0  0  0  0  0  0  0  0  0  0
  -26.1920  -16.2260   20.3890 H   0  0  0  0  0  0  0  0  0  0  0  0
  -27.7940  -15.7850   20.0780 H   0  0  0  0  0  0  0  0  0  0  0  0
  -28.5270  -26.9190   19.9750 O   0  0  0  0  0  0  0  0  0  0  0  0
  -24.6370  -31.8970   23.2160 C   0  0  0  0  0  0  0  0  0  0  0  0
  -27.3450  -27.5960   20.0480 C   0  0  0  0  0  0  0  0  0  0  0  0
  -23.4470  -30.5160   21.5400 C   0  0  0  0  0  3  0  0  0  0  0  0
  -24.9240  -29.0250   20.0920 C   0  0  0  0  0  0  0  0  0  0  0  0
  -25.9640  -30.9220   21.3510 C   0  0  0  0  0  2  0  0  0  0  0  0
  -26.0680  -29.5640   20.6940 C   0  0  0  0  0  0  0  0  0  0  0  0
  -27.2820  -28.8560   20.6770 C   0  0  0  0  0  3  0  0  0  0  0  0
  -26.1910  -27.0470   19.4550 C   0  0  0  0  0  3  0  0  0  0  0  0
  -24.9750  -27.7600   19.4760 C   0  0  0  0  0  3  0  0  0  0  0  0
  -23.6620  -29.8560   20.1490 C   0  0  0  0  0  2  0  0  0  0  0  0
  -24.7010  -31.1250   22.0930 N   0  0  0  0  0  0  0  0  0  0  0  0
  -23.5550  -32.1420   23.7630 O   0  0  0  0  0  0  0  0  0  0  0  0
  -22.8120  -29.4680   22.4770 C   0  0  0  0  0  0  0  0  0  0  0  0
  -21.4850  -29.2880   22.3620 N   0  0  0  0  0  0  0  0  0  0  0  0
  -23.5080  -28.8160   23.2600 O   0  0  0  0  0  0  0  0  0  0  0  0
  -20.9810  -29.8720   21.7100 H   0  0  0  0  0  0  0  0  0  0  0  0
  -18.1140  -28.1070   22.8760 C   0  0  0  0  0  0  0  0  0  0  0  0
  -20.6790  -28.3280   23.1120 C   0  0  0  0  0  3  0  0  0  0  0  0
  -20.7550  -26.9170   22.4830 C   0  0  0  0  0  2  0  0  0  0  0  0
  -19.6330  -26.6450   21.4770 C   0  0  0  0  0  2  0  0  0  0  0  0
  -18.2640  -26.7830   22.1470 C   0  0  0  0  0  2  0  0  0  0  0  0
  -19.2470  -28.8410   23.3140 C   0  0  0  0  0  0  0  0  0  0  0  0
  -19.0520  -30.0900   23.9480 C   0  0  0  0  0  3  0  0  0  0  0  0
  -17.7560  -30.6000   24.1480 C   0  0  0  0  0  3  0  0  0  0  0  0
  -16.6370  -29.8610   23.7260 C   0  0  0  0  0  3  0  0  0  0  0  0
  -16.8180  -28.6170   23.0960 C   0  0  0  0  0  3  0  0  0  0  0  0
  -25.9170  -32.5260   23.8540 C   0  0  0  0  0  3  0  0  0  0  0  0
  -25.6100  -33.9240   24.1780 N   0  0  0  0  0  0  0  0  0  0  0  0
  -25.9660  -34.9750   23.4270 C   0  0  0  0  0  0  0  0  0  0  0  0
  -26.6600  -34.8680   22.4120 O   0  0  0  0  0  0  0  0  0  0  0  0
  -25.0020  -34.0870   24.9710 H   0  0  0  0  0  0  0  0  0  0  0  0
  -24.2600  -36.7700   23.0250 C   0  0  0  0  0  1  0  0  0  0  0  0
  -25.4760  -36.3640   23.8720 C   0  0  0  0  0  3  0  0  0  0  0  0
  -27.5970  -37.2260   24.7580 C   0  0  0  0  0  1  0  0  0  0  0  0
  -26.5180  -37.4110   23.7900 N   0  0  0  0  0  0  0  0  0  0  0  0
  -26.1140  -38.3320   23.9390 H   0  0  0  0  0  0  0  0  0  0  0  0
  -26.4220  -31.7530   25.1320 C   0  0  1  0  0  0  0  0  0  0  0  0
  -25.3150  -31.5060   26.1840 C   0  0  0  0  0  1  0  0  0  0  0  0
  -27.0180  -30.3850   24.7330 C   0  0  0  0  0  1  0  0  0  0  0  0
  -27.5630  -32.5500   25.8110 C   0  0  0  0  0  1  0  0  0  0  0  0
  1  2  1  0
  1  7  2  0
  3  2  1  0
  4  6  1  0
  4  5  1  0
  5  8  1  0
  5  1  1  0
  6 55  1  0
  6  3  1  0
  8 10  1  0
  9  8  1  0
 11 12  1  0
 11  8  1  0
 13 14  1  0
 13 12  1  0
 15 14  1  0
 15 16  1  0
 16 25  1  0
 17 25  1  0
 18 23  1  0
 19 20  1  0
 19 18  1  0
 21 20  1  0
 21 30  1  0
 21 22  1  0
 23 17  1  0
 23 22  1  0
 24 17  2  0
 25 26  1  0
 27 28  2  0
 28 47  1  0
 29 28  1  0
 29 32  1  0
 30 27  1  0
 30 31  1  0
 31 29  2  0
 32 33  1  0
 33 34  2  0
 35 38  1  0
 35 34  1  0
 36 35  2  0
 37 36  1  0
 37 32  2  0
 38 39  1  0
 39 40  1  0
 40 41  2  0
 42 41  1  0
 42 46  1  0
 43 42  2  0
 44 39  2  0
 44 43  1  0
 45 44  1  0
 47 48  1  0
 48 51  1  0
 48 50  1  0
 49 47  2  0
 52 53  1  0
 52 27  1  0
 54 52  1  0
 55 57  1  0
 56 67  2  0
 57 62  1  0
 58 66  1  0
 58 68  1  0
 59 65  1  0
 59 61  1  0
 60 66  1  0
 61 60  1  0
 62 61  2  0
 63 64  1  0
 63 57  2  0
 64 59  2  0
 65 58  1  0
 66 56  1  0
 68 70  2  0
 69 68  1  0
 71 69  1  0
 72 81  2  0
 72 77  1  0
 73 69  1  0
 73 77  1  0
 74 73  1  0
 75 76  1  0
 75 74  1  0
 76 72  1  0
 77 78  2  0
 78 79  1  0
 80 79  2  0
 81 80  1  0
 82 56  1  0
 82 83  1  0
 82 92  1  0
 83 86  1  0
 84 88  1  0
 84 83  1  0
 85 84  2  0
 88 87  1  0
 90 88  1  0
 90 91  1  0
 90 89  1  0
 92 95  1  1
 92 93  1  0
 94 92  1  0
M  ISO  4   6 101  17 100  25 100  55 101
M  END
>  <TORSDO>  (3) 
F 23

>  <SCORE>  (3) 
-11.506

>  <name>  (3) 
2

>  <ligand_id>  (3) 
2

>  <original_smiles>  (3) 
[H]c1c([H])c([H])c2c(c1[H])C([H])([H])C([H])([H])C([H])([H])C2([H])N([H])C(=O)C1([H])N(C(=O)C([H])(N([H])C(=O)C([H])(N([H])C([H])([H])[H])C([H])([H])[H])C(C([H])([H])[H])(C([H])([H])[H])C([H])([H])[H])C([H])([H])c2c([H])c(OC3([H])C([H])([H])C([H])([H])C(=O)C([H])([N+]([H])([H])C([H])([H])C([H])([H])C([H])([H])C([H])([H])C([H])([H])C([H])([H])N([H])C(=O)N4C([H])([H])C([H])([H])C([H])([H])C([H])(n5nc(-c6c([H])c([H])c(Oc7c([H])c([H])c(F)c([H])c7F)c([H])c6[H])c(C(=O)N([H])[H])c5N([H])[H])C4([H])[H])C3([H])[H])c([H])c([H])c2C1([H])[H]

>  <smiles>  (3) 
[H]c1c([H])c([H])c2c(c1[H])C([H])([H])C([H])([H])C([H])([H])C2([H])N([H])C(=O)C1([H])N(C(=O)C([H])(N([H])C(=O)C([H])(N([H])C([H])([H])[H])C([H])([H])[H])C(C([H])([H])[H])(C([H])([H])[H])C([H])([H])[H])C([H])([H])c2c([H])c(OC3([H])C([H])([H])C([H])([H])C(=O)C([H])([N+]([H])([H])C([H])([H])C([H])([H])C([H])([H])C([H])([H])C([H])([H])C([H])([H])N([H])C(=O)N4C([H])([H])C([H])([H])C([H])([H])C([H])(n5nc(-c6c([H])c([H])c(Oc7c([H])c([H])c(F)c([H])c7F)c([H])c6[H])c(C(=O)N([H])[H])c5N([H])[H])C4([H])[H])C3([H])[H])c([H])c([H])c2C1([H])[H]

$$$$
3:0:0
     RDKit          3D

 91100  0  0  1  0  0  0  0  0999 V2000
  -29.2580  -21.7280   21.8330 C   0  0  0  0  0  3  0  0  0  0  0  0
  -28.7980  -22.9010   21.1720 C   0  0  0  0  0  3  0  0  0  0  0  0
  -28.8520  -21.5650   19.1610 C   0  0  0  0  0  3  0  0  0  0  0  0
  -29.5440  -20.4820   21.2020 C   0  0  0  0  0  0  0  0  0  0  0  0
  -29.3210  -20.2340   19.8240 C   0  0  0  0  0  0  0  0  0  0  0  0
  -28.5760  -22.9720   19.7820 C   0  0  0  0  0  0  0  0  0  0  0  0
  -30.2530  -19.4000   22.0060 C   0  0  0  0  0  2  0  0  0  0  0  0
  -31.4380  -18.8900   19.7450 C   0  0  0  0  0  2  0  0  0  0  0  0
  -29.9880  -18.6840   19.2650 C   0  0  0  0  0  3  0  0  0  0  0  0
  -31.5210  -18.8410   21.2960 C   0  0  0  0  0  3  0  0  0  0  0  0
  -32.8060  -19.5200   21.8020 C   0  0  0  0  0  1  0  0  0  0  0  0
  -30.5360  -15.7530   19.5260 C   0  0  0  0  0  0  0  0  0  0  0  0
  -30.6040  -13.2190   18.8920 C   0  0  0  0  0  2  0  0  0  0  0  0
  -29.6370  -12.8080   17.7540 C   0  0  0  0  0  2  0  0  0  0  0  0
  -28.2420  -12.4890   18.3170 C   0  0  0  0  0  2  0  0  0  0  0  0
  -27.7900  -13.5380   19.3620 C   0  0  0  0  0  3  0  0  0  0  0  0
  -28.8890  -13.8890   20.3910 C   0  0  0  0  0  2  0  0  0  0  0  0
  -30.0340  -14.4150   19.6290 N   0  0  0  0  0  0  0  0  0  0  0  0
  -31.7370  -15.7550   19.2130 O   0  0  0  0  0  0  0  0  0  0  0  0
  -29.7460  -17.0310   19.5740 N   0  0  0  0  0  0  0  0  0  0  0  0
  -28.7810  -16.8420   19.8030 H   0  0  0  0  0  0  0  0  0  0  0  0
  -25.5340  -14.0640   20.4160 C   0  0  0  0  0  0  0  0  0  0  0  0
  -24.4980  -13.2750   20.8310 C   0  0  0  0  0  0  0  0  0  0  0  0
  -24.9250  -11.9250   20.6360 C   0  0  0  0  0  0  0  0  0  0  0  0
  -26.5220  -13.1970   19.9870 N   0  0  0  0  0  0  0  0  0  0  0  0
  -26.1750  -11.8980   20.1840 N   0  0  0  0  0  0  0  0  0  0  0  0
  -24.1890  -10.6640   20.7940 C   0  0  0  0  0  0  0  0  0  0  0  0
  -24.5660   -9.7030   21.7580 C   0  0  0  0  0  3  0  0  0  0  0  0
  -23.8280   -8.5080   21.9060 C   0  0  0  0  0  3  0  0  0  0  0  0
  -22.6980   -8.2660   21.0890 C   0  0  0  0  0  0  0  0  0  0  0  0
  -22.3410   -9.2160   20.1150 C   0  0  0  0  0  3  0  0  0  0  0  0
  -23.0800  -10.4010   19.9650 C   0  0  0  0  0  3  0  0  0  0  0  0
  -21.9370   -7.1240   21.1450 O   0  0  0  0  0  0  0  0  0  0  0  0
  -21.6330   -6.5180   22.3380 C   0  0  0  0  0  0  0  0  0  0  0  0
  -20.8850   -7.1770   23.3380 C   0  0  0  0  0  3  0  0  0  0  0  0
  -20.5360   -6.4920   24.5200 C   0  0  0  0  0  3  0  0  0  0  0  0
  -20.9250   -5.1520   24.7000 C   0  0  0  0  0  0  0  0  0  0  0  0
  -21.6660   -4.4940   23.7020 C   0  0  0  0  0  3  0  0  0  0  0  0
  -22.0160   -5.1740   22.5240 C   0  0  0  0  0  0  0  0  0  0  0  0
  -22.7100   -4.5280   21.5560 F   0  0  0  0  0  0  0  0  0  0  0  0
  -20.5830   -4.4920   25.8310 F   0  0  0  0  0  0  0  0  0  0  0  0
  -23.1500  -13.7500   21.2870 C   0  0  0  0  0  0  0  0  0  0  0  0
  -22.5040  -13.0020   22.1730 N   0  0  0  0  0  0  0  0  0  0  0  0
  -22.6850  -14.8190   20.8930 O   0  0  0  0  0  0  0  0  0  0  0  0
  -22.8990  -12.1360   22.5090 H   0  0  0  0  0  0  0  0  0  0  0  0
  -21.6050  -13.2990   22.5210 H   0  0  0  0  0  0  0  0  0  0  0  0
  -25.7120  -15.4420   20.3390 N   0  0  0  0  0  0  0  0  0  0  0  0
  -24.9730  -16.0950   20.5800 H   0  0  0  0  0  0  0  0  0  0  0  0
  -26.5210  -15.8930   19.9350 H   0  0  0  0  0  0  0  0  0  0  0  0
  -27.9250  -24.5020   19.1810 C   0  0  0  0  0  2  0  0  0  0  0  0
  -28.0440  -26.1060   19.6390 O   0  0  0  0  0  0  0  0  0  0  0  0
  -24.6850  -31.8990   23.1800 C   0  0  0  0  0  0  0  0  0  0  0  0
  -27.0260  -27.2140   19.6650 C   0  0  0  0  0  0  0  0  0  0  0  0
  -23.3680  -30.5650   21.5840 C   0  0  0  0  0  3  0  0  0  0  0  0
  -24.7040  -29.0700   19.9400 C   0  0  0  0  0  0  0  0  0  0  0  0
  -25.9090  -30.8280   21.2190 C   0  0  0  0  0  2  0  0  0  0  0  0
  -25.9380  -29.4560   20.4760 C   0  0  0  0  0  0  0  0  0  0  0  0
  -27.0850  -28.5480   20.3220 C   0  0  0  0  0  3  0  0  0  0  0  0
  -25.7580  -27.0010   19.0750 C   0  0  0  0  0  3  0  0  0  0  0  0
  -24.6400  -27.8660   19.2170 C   0  0  0  0  0  3  0  0  0  0  0  0
  -23.4810  -29.9630   20.1540 C   0  0  0  0  0  2  0  0  0  0  0  0
  -24.6810  -31.1250   22.0450 N   0  0  0  0  0  0  0  0  0  0  0  0
  -23.6440  -32.1350   23.8150 O   0  0  0  0  0  0  0  0  0  0  0  0
  -22.7840  -29.5060   22.5550 C   0  0  0  0  0  0  0  0  0  0  0  0
  -21.4810  -29.1920   22.4290 N   0  0  0  0  0  0  0  0  0  0  0  0
  -23.5110  -28.9680   23.3930 O   0  0  0  0  0  0  0  0  0  0  0  0
  -20.9410  -29.6800   21.7280 H   0  0  0  0  0  0  0  0  0  0  0  0
  -18.2990  -27.4890   22.8250 C   0  0  0  0  0  0  0  0  0  0  0  0
  -20.7660  -28.1720   23.2050 C   0  0  0  0  0  3  0  0  0  0  0  0
  -21.1230  -26.7490   22.7170 C   0  0  0  0  0  2  0  0  0  0  0  0
  -20.1470  -26.2110   21.6640 C   0  0  0  0  0  2  0  0  0  0  0  0
  -18.7240  -26.1590   22.2270 C   0  0  0  0  0  2  0  0  0  0  0  0
  -19.2560  -28.4410   23.2680 C   0  0  0  0  0  0  0  0  0  0  0  0
  -18.8030  -29.6740   23.7870 C   0  0  0  0  0  3  0  0  0  0  0  0
  -17.4270  -29.9620   23.8670 C   0  0  0  0  0  3  0  0  0  0  0  0
  -16.4850  -29.0100   23.4370 C   0  0  0  0  0  3  0  0  0  0  0  0
  -16.9210  -27.7780   22.9230 C   0  0  0  0  0  3  0  0  0  0  0  0
  -25.9970  -32.5380   23.7270 C   0  0  0  0  0  3  0  0  0  0  0  0
  -25.6930  -33.9200   24.1410 N   0  0  0  0  0  0  0  0  0  0  0  0
  -25.9550  -35.0160   23.4190 C   0  0  0  0  0  0  0  0  0  0  0  0
  -26.5420  -34.9730   22.3340 O   0  0  0  0  0  0  0  0  0  0  0  0
  -25.1680  -34.0270   24.9980 H   0  0  0  0  0  0  0  0  0  0  0  0
  -24.1850  -36.8010   23.3040 C   0  0  0  0  0  1  0  0  0  0  0  0
  -25.4970  -36.3760   23.9840 C   0  0  0  0  0  3  0  0  0  0  0  0
  -27.6770  -37.2620   24.6850 C   0  0  0  0  0  1  0  0  0  0  0  0
  -26.5050  -37.4490   23.8340 N   0  0  0  0  0  0  0  0  0  0  0  0
  -26.0980  -38.3560   24.0510 H   0  0  0  0  0  0  0  0  0  0  0  0
  -26.6180  -31.7380   24.9400 C   0  0  1  0  0  0  0  0  0  0  0  0
  -25.6050  -31.4230   26.0650 C   0  0  0  0  0  1  0  0  0  0  0  0
  -27.2240  -30.3980   24.4680 C   0  0  0  0  0  1  0  0  0  0  0  0
  -27.7830  -32.5480   25.5590 C   0  0  0  0  0  1  0  0  0  0  0  0
  2  1  2  0
  3  6  2  0
  3  5  1  0
  4  1  1  0
  4  7  1  0
  5  4  2  0
  6  2  1  0
  8 10  1  0
  9 20  1  0
  9  8  1  0
  9  5  1  0
 10 11  1  0
 10  7  1  0
 12 20  1  0
 12 18  1  0
 13 18  1  0
 14 15  1  0
 14 13  1  0
 16 15  1  0
 16 25  1  0
 16 17  1  0
 18 17  1  0
 19 12  2  0
 20 21  1  0
 22 23  2  0
 23 42  1  0
 24 27  1  0
 24 23  1  0
 25 26  1  0
 25 22  1  0
 26 24  2  0
 27 28  1  0
 28 29  2  0
 30 33  1  0
 30 29  1  0
 31 30  2  0
 32 31  1  0
 32 27  2  0
 33 34  1  0
 34 39  2  0
 34 35  1  0
 35 36  2  0
 36 37  1  0
 37 41  1  0
 38 37  2  0
 39 38  1  0
 40 39  1  0
 42 43  1  0
 43 45  1  0
 43 46  1  0
 44 42  2  0
 47 22  1  0
 47 48  1  0
 49 47  1  0
 50 51  1  0
 50  6  1  0
 51 53  1  0
 52 63  2  0
 53 58  1  0
 54 62  1  0
 54 64  1  0
 55 61  1  0
 55 57  1  0
 56 62  1  0
 57 56  1  0
 58 57  2  0
 59 60  1  0
 59 53  2  0
 60 55  2  0
 61 54  1  0
 62 52  1  0
 64 66  2  0
 65 64  1  0
 67 65  1  0
 68 77  2  0
 68 73  1  0
 69 65  1  0
 69 73  1  0
 70 69  1  0
 71 72  1  0
 71 70  1  0
 72 68  1  0
 73 74  2  0
 74 75  1  0
 76 75  2  0
 77 76  1  0
 78 52  1  0
 78 79  1  0
 78 88  1  0
 79 82  1  0
 80 84  1  0
 80 79  1  0
 81 80  2  0
 84 83  1  0
 86 84  1  0
 86 87  1  0
 86 85  1  0
 88 91  1  1
 88 89  1  0
 90 88  1  0
M  ISO  4  12 100  20 100  50 101  51 101
M  END
>  <TORSDO>  (4) 
F 17

>  <SCORE>  (4) 
-15.391

>  <name>  (4) 
3

>  <ligand_id>  (4) 
3

>  <original_smiles>  (4) 
[H]c1c([H])c([H])c2c(c1[H])C([H])([H])C([H])([H])C([H])([H])C2([H])N([H])C(=O)C1([H])N(C(=O)C([H])(N([H])C(=O)C([H])(N([H])C([H])([H])[H])C([H])([H])[H])C(C([H])([H])[H])(C([H])([H])[H])C([H])([H])[H])C([H])([H])c2c([H])c(OC([H])([H])c3c([H])c([H])c4c(c3[H])C([H])(N([H])C(=O)N3C([H])([H])C([H])([H])C([H])([H])C([H])(n5nc(-c6c([H])c([H])c(Oc7c([H])c([H])c(F)c([H])c7F)c([H])c6[H])c(C(=O)N([H])[H])c5N([H])[H])C3([H])[H])C([H])([H])C([H])(C([H])([H])[H])C4([H])[H])c([H])c([H])c2C1([H])[H]

>  <smiles>  (4) 
[H]c1c([H])c([H])c2c(c1[H])C([H])([H])C([H])([H])C([H])([H])C2([H])N([H])C(=O)C1([H])N(C(=O)C([H])(N([H])C(=O)C([H])(N([H])C([H])([H])[H])C([H])([H])[H])C(C([H])([H])[H])(C([H])([H])[H])C([H])([H])[H])C([H])([H])c2c([H])c(OC([H])([H])c3c([H])c([H])c4c(c3[H])C([H])(N([H])C(=O)N3C([H])([H])C([H])([H])C([H])([H])C([H])(n5nc(-c6c([H])c([H])c(Oc7c([H])c([H])c(F)c([H])c7F)c([H])c6[H])c(C(=O)N([H])[H])c5N([H])[H])C3([H])[H])C([H])([H])C([H])(C([H])([H])[H])C4([H])[H])c([H])c([H])c2C1([H])[H]

$$$$
4:0:0
     RDKit          3D

 93102  0  0  1  0  0  0  0  0999 V2000
  -27.9120  -23.7400   22.6080 C   0  0  0  0  0  3  0  0  0  0  0  0
  -28.2770  -22.5730   21.9020 C   0  0  0  0  0  3  0  0  0  0  0  0
  -27.9020  -25.0110   21.9900 C   0  0  0  0  0  3  0  0  0  0  0  0
  -28.6170  -23.9490   19.9270 C   0  0  0  0  0  3  0  0  0  0  0  0
  -28.6460  -22.6230   20.5410 C   0  0  0  0  0  0  0  0  0  0  0  0
  -28.2550  -25.1730   20.6340 C   0  0  0  0  0  0  0  0  0  0  0  0
  -28.9200  -21.3850   19.8300 N   0  0  0  0  0  0  0  0  0  0  0  0
  -28.8550  -21.4990   18.8200 H   0  0  0  0  0  0  0  0  0  0  0  0
  -31.7460  -19.2710   21.5610 C   0  0  0  0  0  2  0  0  0  0  0  0
  -30.6760  -20.3810   21.4530 C   0  0  0  0  0  2  0  0  0  0  0  0
  -31.1550  -17.8420   21.5970 C   0  0  0  0  0  2  0  0  0  0  0  0
  -29.2370  -18.6880   20.1570 C   0  0  0  0  0  2  0  0  0  0  0  0
  -29.8150  -20.2020   20.1890 C   0  0  0  0  0  3  0  0  0  0  0  0
  -30.3250  -17.4980   20.3420 C   0  0  0  0  0  3  0  0  0  0  0  0
  -30.6140  -14.8720   20.1460 C   0  0  0  0  0  0  0  0  0  0  0  0
  -30.3700  -12.5900   19.1540 C   0  0  0  0  0  2  0  0  0  0  0  0
  -29.4060  -12.6520   17.9500 C   0  0  0  0  0  2  0  0  0  0  0  0
  -27.9470  -12.4790   18.4160 C   0  0  0  0  0  2  0  0  0  0  0  0
  -27.6000  -13.3780   19.6320 C   0  0  0  0  0  3  0  0  0  0  0  0
  -28.6860  -13.3180   20.7300 C   0  0  0  0  0  2  0  0  0  0  0  0
  -29.9660  -13.6570   20.1000 N   0  0  0  0  0  0  0  0  0  0  0  0
  -31.7910  -14.9490   19.7900 O   0  0  0  0  0  0  0  0  0  0  0  0
  -29.8780  -16.0260   20.3930 N   0  0  0  0  0  0  0  0  0  0  0  0
  -28.9070  -15.8680   20.6170 H   0  0  0  0  0  0  0  0  0  0  0  0
  -25.2310  -13.9670   20.4190 C   0  0  0  0  0  0  0  0  0  0  0  0
  -24.1730  -13.1940   20.8140 C   0  0  0  0  0  0  0  0  0  0  0  0
  -24.6360  -11.8430   20.7720 C   0  0  0  0  0  0  0  0  0  0  0  0
  -26.2690  -13.0890   20.1580 N   0  0  0  0  0  0  0  0  0  0  0  0
  -25.9190  -11.8060   20.4350 N   0  0  0  0  0  0  0  0  0  0  0  0
  -23.9120  -10.5810   20.9790 C   0  0  0  0  0  0  0  0  0  0  0  0
  -24.3590   -9.6150   21.9070 C   0  0  0  0  0  3  0  0  0  0  0  0
  -23.6340   -8.4190   22.1010 C   0  0  0  0  0  3  0  0  0  0  0  0
  -22.4480   -8.1800   21.3660 C   0  0  0  0  0  0  0  0  0  0  0  0
  -22.0200   -9.1350   20.4270 C   0  0  0  0  0  3  0  0  0  0  0  0
  -22.7450  -10.3220   20.2320 C   0  0  0  0  0  3  0  0  0  0  0  0
  -21.6940   -7.0370   21.4700 O   0  0  0  0  0  0  0  0  0  0  0  0
  -21.6590   -6.2990   22.6260 C   0  0  0  0  0  0  0  0  0  0  0  0
  -21.2510   -6.8590   23.8560 C   0  0  0  0  0  3  0  0  0  0  0  0
  -21.1640   -6.0480   25.0040 C   0  0  0  0  0  3  0  0  0  0  0  0
  -21.4750   -4.6770   24.9250 C   0  0  0  0  0  0  0  0  0  0  0  0
  -21.8760   -4.1170   23.6990 C   0  0  0  0  0  3  0  0  0  0  0  0
  -21.9650   -4.9250   22.5520 C   0  0  0  0  0  0  0  0  0  0  0  0
  -22.3310   -4.3750   21.3700 F   0  0  0  0  0  0  0  0  0  0  0  0
  -21.3840   -3.8960   26.0260 F   0  0  0  0  0  0  0  0  0  0  0  0
  -22.7830  -13.6710   21.1170 C   0  0  0  0  0  0  0  0  0  0  0  0
  -22.0750  -12.9760   21.9990 N   0  0  0  0  0  0  0  0  0  0  0  0
  -22.3340  -14.6980   20.6070 O   0  0  0  0  0  0  0  0  0  0  0  0
  -22.4530  -12.1450   22.4310 H   0  0  0  0  0  0  0  0  0  0  0  0
  -21.1450  -13.2780   22.2490 H   0  0  0  0  0  0  0  0  0  0  0  0
  -25.3880  -15.3390   20.2370 N   0  0  0  0  0  0  0  0  0  0  0  0
  -24.6180  -15.9860   20.3650 H   0  0  0  0  0  0  0  0  0  0  0  0
  -26.2160  -15.7820   19.8640 H   0  0  0  0  0  0  0  0  0  0  0  0
  -28.3110  -26.5020   20.1110 O   0  0  0  0  0  0  0  0  0  0  0  0
  -24.6110  -31.9320   23.2420 C   0  0  0  0  0  0  0  0  0  0  0  0
  -27.2060  -27.3760   20.1480 C   0  0  0  0  0  0  0  0  0  0  0  0
  -23.4010  -30.5430   21.6020 C   0  0  0  0  0  3  0  0  0  0  0  0
  -24.8460  -29.0010   20.1560 C   0  0  0  0  0  0  0  0  0  0  0  0
  -25.9390  -30.8660   21.3980 C   0  0  0  0  0  2  0  0  0  0  0  0
  -26.0190  -29.4860   20.7500 C   0  0  0  0  0  0  0  0  0  0  0  0
  -27.2030  -28.6840   20.7360 C   0  0  0  0  0  3  0  0  0  0  0  0
  -26.0140  -26.9500   19.5300 C   0  0  0  0  0  3  0  0  0  0  0  0
  -24.8470  -27.7410   19.5370 C   0  0  0  0  0  3  0  0  0  0  0  0
  -23.6080  -29.8770   20.2160 C   0  0  0  0  0  2  0  0  0  0  0  0
  -24.6700  -31.1320   22.1380 N   0  0  0  0  0  0  0  0  0  0  0  0
  -23.5310  -32.2030   23.7860 O   0  0  0  0  0  0  0  0  0  0  0  0
  -22.7470  -29.5200   22.5610 C   0  0  0  0  0  0  0  0  0  0  0  0
  -21.4200  -29.3400   22.4430 N   0  0  0  0  0  0  0  0  0  0  0  0
  -23.4330  -28.8910   23.3710 O   0  0  0  0  0  0  0  0  0  0  0  0
  -20.9240  -29.8920   21.7590 H   0  0  0  0  0  0  0  0  0  0  0  0
  -18.0550  -28.1130   22.9500 C   0  0  0  0  0  0  0  0  0  0  0  0
  -20.6110  -28.3920   23.2140 C   0  0  0  0  0  3  0  0  0  0  0  0
  -20.7260  -26.9640   22.6340 C   0  0  0  0  0  2  0  0  0  0  0  0
  -19.6230  -26.6280   21.6260 C   0  0  0  0  0  2  0  0  0  0  0  0
  -18.2420  -26.7650   22.2740 C   0  0  0  0  0  2  0  0  0  0  0  0
  -19.1680  -28.8830   23.3780 C   0  0  0  0  0  0  0  0  0  0  0  0
  -18.9410  -30.1430   23.9740 C   0  0  0  0  0  3  0  0  0  0  0  0
  -17.6320  -30.6320   24.1480 C   0  0  0  0  0  3  0  0  0  0  0  0
  -16.5320  -29.8570   23.7390 C   0  0  0  0  0  3  0  0  0  0  0  0
  -16.7460  -28.5990   23.1450 C   0  0  0  0  0  3  0  0  0  0  0  0
  -25.8940  -32.5670   23.8610 C   0  0  0  0  0  3  0  0  0  0  0  0
  -25.5830  -33.9650   24.1910 N   0  0  0  0  0  0  0  0  0  0  0  0
  -25.9110  -35.0190   23.4330 C   0  0  0  0  0  0  0  0  0  0  0  0
  -26.5750  -34.9170   22.3980 O   0  0  0  0  0  0  0  0  0  0  0  0
  -24.9920  -34.1190   24.9930 H   0  0  0  0  0  0  0  0  0  0  0  0
  -24.1790  -36.8140   23.0960 C   0  0  0  0  0  1  0  0  0  0  0  0
  -25.4280  -36.4070   23.8950 C   0  0  0  0  0  3  0  0  0  0  0  0
  -27.5690  -37.2970   24.7060 C   0  0  0  0  0  1  0  0  0  0  0  0
  -26.4580  -37.4620   23.7720 N   0  0  0  0  0  0  0  0  0  0  0  0
  -26.0520  -38.3830   23.9220 H   0  0  0  0  0  0  0  0  0  0  0  0
  -26.4130  -31.7970   25.1380 C   0  0  1  0  0  0  0  0  0  0  0  0
  -25.3210  -31.5640   26.2080 C   0  0  0  0  0  1  0  0  0  0  0  0
  -26.9920  -30.4170   24.7450 C   0  0  0  0  0  1  0  0  0  0  0  0
  -27.5660  -32.5910   25.7970 C   0  0  0  0  0  1  0  0  0  0  0  0
  2  1  2  0
  3  1  1  0
  4  5  2  0
  4  6  1  0
  5  2  1  0
  6  3  2  0
  7  5  1  0
  8  7  1  0
  9 11  1  0
 10  9  1  0
 12 13  1  0
 12 14  1  0
 13  7  1  0
 13 10  1  0
 14 23  1  0
 14 11  1  0
 15 23  1  0
 16 21  1  0
 17 18  1  0
 17 16  1  0
 19 18  1  0
 19 28  1  0
 19 20  1  0
 21 15  1  0
 21 20  1  0
 22 15  2  0
 23 24  1  0
 25 26  2  0
 26 45  1  0
 27 26  1  0
 27 30  1  0
 28 25  1  0
 28 29  1  0
 29 27  2  0
 30 31  1  0
 31 32  2  0
 33 36  1  0
 33 32  1  0
 34 33  2  0
 35 34  1  0
 35 30  2  0
 36 37  1  0
 37 38  1  0
 38 39  2  0
 40 39  1  0
 40 44  1  0
 41 40  2  0
 42 37  2  0
 42 41  1  0
 43 42  1  0
 45 46  1  0
 46 49  1  0
 46 48  1  0
 47 45  2  0
 50 51  1  0
 50 25  1  0
 52 50  1  0
 53 55  1  0
 53  6  1  0
 54 65  2  0
 55 60  1  0
 56 64  1  0
 56 66  1  0
 57 63  1  0
 57 59  1  0
 58 64  1  0
 59 58  1  0
 60 59  2  0
 61 62  1  0
 61 55  2  0
 62 57  2  0
 63 56  1  0
 64 54  1  0
 66 68  2  0
 67 66  1  0
 69 67  1  0
 70 79  2  0
 70 75  1  0
 71 67  1  0
 71 75  1  0
 72 71  1  0
 73 74  1  0
 73 72  1  0
 74 70  1  0
 75 76  2  0
 76 77  1  0
 78 77  2  0
 79 78  1  0
 80 54  1  0
 80 81  1  0
 80 90  1  0
 81 84  1  0
 82 86  1  0
 82 81  1  0
 83 82  2  0
 86 85  1  0
 88 86  1  0
 88 89  1  0
 88 87  1  0
 90 93  1  1
 90 91  1  0
 92 90  1  0
M  ISO  4   6 101  15 100  23 100  53 101
M  END
>  <TORSDO>  (5) 
F 18

>  <SCORE>  (5) 
-14.461

>  <name>  (5) 
4

>  <ligand_id>  (5) 
4

>  <original_smiles>  (5) 
[H]c1c([H])c(Oc2c([H])c([H])c3c(c2[H])C([H])([H])N(C(=O)C([H])(N([H])C(=O)C([H])(N([H])C([H])([H])[H])C([H])([H])[H])C(C([H])([H])[H])(C([H])([H])[H])C([H])([H])[H])C([H])(C(=O)N([H])C2([H])c4c([H])c([H])c([H])c([H])c4C([H])([H])C([H])([H])C2([H])[H])C3([H])[H])c([H])c(N([H])C2([H])C([H])([H])C([H])([H])C([H])([H])C([H])(N([H])C(=O)N3C([H])([H])C([H])([H])C([H])([H])C([H])(n4nc(-c5c([H])c([H])c(Oc6c([H])c([H])c(F)c([H])c6F)c([H])c5[H])c(C(=O)N([H])[H])c4N([H])[H])C3([H])[H])C2([H])[H])c1[H]

>  <smiles>  (5) 
[H]c1c([H])c(Oc2c([H])c([H])c3c(c2[H])C([H])([H])N(C(=O)C([H])(N([H])C(=O)C([H])(N([H])C([H])([H])[H])C([H])([H])[H])C(C([H])([H])[H])(C([H])([H])[H])C([H])([H])[H])C([H])(C(=O)N([H])C2([H])c4c([H])c([H])c([H])c([H])c4C([H])([H])C([H])([H])C2([H])[H])C3([H])[H])c([H])c(N([H])C2([H])C([H])([H])C([H])([H])C([H])([H])C([H])(N([H])C(=O)N3C([H])([H])C([H])([H])C([H])([H])C([H])(n4nc(-c5c([H])c([H])c(Oc6c([H])c([H])c(F)c([H])c6F)c([H])c5[H])c(C(=O)N([H])[H])c4N([H])[H])C3([H])[H])C2([H])[H])c1[H]

$$$$
5:0:0
     RDKit          3D

 91 99  0  0  1  0  0  0  0  0999 V2000
  -28.1480  -22.0330   19.2170 C   0  0  0  0  0  3  0  0  0  0  0  0
  -27.8870  -23.4950   19.2540 C   0  0  0  0  0  3  0  0  0  0  0  0
  -29.0820  -23.6210   21.2030 C   0  0  0  0  0  3  0  0  0  0  0  0
  -28.8980  -21.2020   20.1570 C   0  0  0  0  0  0  0  0  0  0  0  0
  -29.3340  -22.1480   21.1830 C   0  0  0  0  0  0  0  0  0  0  0  0
  -28.3260  -24.4440   20.2640 C   0  0  0  0  0  0  0  0  0  0  0  0
  -30.1020  -21.5970   22.3650 C   0  0  0  0  0  1  0  0  0  0  0  0
  -28.2810  -25.9720   20.2590 O   0  0  0  0  0  0  0  0  0  0  0  0
  -24.5700  -31.8310   23.1440 C   0  0  0  0  0  0  0  0  0  0  0  0
  -27.2000  -26.9800   20.2150 C   0  0  0  0  0  0  0  0  0  0  0  0
  -23.3980  -30.3990   21.5180 C   0  0  0  0  0  3  0  0  0  0  0  0
  -24.8710  -28.7920   20.1280 C   0  0  0  0  0  0  0  0  0  0  0  0
  -25.9570  -30.6510   21.3790 C   0  0  0  0  0  2  0  0  0  0  0  0
  -26.0450  -29.2340   20.7480 C   0  0  0  0  0  0  0  0  0  0  0  0
  -27.2020  -28.3440   20.7700 C   0  0  0  0  0  3  0  0  0  0  0  0
  -25.9980  -26.6720   19.5460 C   0  0  0  0  0  3  0  0  0  0  0  0
  -24.8680  -27.5290   19.5080 C   0  0  0  0  0  3  0  0  0  0  0  0
  -23.6400  -29.6960   20.1540 C   0  0  0  0  0  2  0  0  0  0  0  0
  -24.6620  -30.9870   22.0680 N   0  0  0  0  0  0  0  0  0  0  0  0
  -23.4750  -32.1160   23.6580 O   0  0  0  0  0  0  0  0  0  0  0  0
  -22.7170  -29.4060   22.4950 C   0  0  0  0  0  0  0  0  0  0  0  0
  -21.3940  -29.2070   22.3510 N   0  0  0  0  0  0  0  0  0  0  0  0
  -23.3830  -28.8140   23.3470 O   0  0  0  0  0  0  0  0  0  0  0  0
  -20.9120  -29.7320   21.6350 H   0  0  0  0  0  0  0  0  0  0  0  0
  -18.0400  -27.9120   22.8020 C   0  0  0  0  0  0  0  0  0  0  0  0
  -20.5800  -28.2700   23.1300 C   0  0  0  0  0  3  0  0  0  0  0  0
  -20.7450  -26.8260   22.6020 C   0  0  0  0  0  2  0  0  0  0  0  0
  -19.6820  -26.4350   21.5690 C   0  0  0  0  0  2  0  0  0  0  0  0
  -18.2800  -26.5530   22.1690 C   0  0  0  0  0  2  0  0  0  0  0  0
  -19.1200  -28.7250   23.2390 C   0  0  0  0  0  0  0  0  0  0  0  0
  -18.8370  -29.9940   23.7900 C   0  0  0  0  0  3  0  0  0  0  0  0
  -17.5110  -30.4500   23.9080 C   0  0  0  0  0  3  0  0  0  0  0  0
  -16.4460  -29.6340   23.4880 C   0  0  0  0  0  3  0  0  0  0  0  0
  -16.7120  -28.3660   22.9410 C   0  0  0  0  0  3  0  0  0  0  0  0
  -25.8340  -32.4950   23.7730 C   0  0  0  0  0  3  0  0  0  0  0  0
  -26.3620  -31.7340   25.0510 C   0  0  1  0  0  0  0  0  0  0  0  0
  -25.2690  -31.4730   26.1140 C   0  0  0  0  0  1  0  0  0  0  0  0
  -26.9760  -30.3700   24.6670 C   0  0  0  0  0  1  0  0  0  0  0  0
  -27.4930  -32.5510   25.7200 C   0  0  0  0  0  1  0  0  0  0  0  0
  -25.4910  -33.8840   24.1200 N   0  0  0  0  0  0  0  0  0  0  0  0
  -25.7950  -34.9570   23.3770 C   0  0  0  0  0  0  0  0  0  0  0  0
  -26.4570  -34.8820   22.3390 O   0  0  0  0  0  0  0  0  0  0  0  0
  -24.9050  -34.0130   24.9300 H   0  0  0  0  0  0  0  0  0  0  0  0
  -24.0360  -36.7300   23.0560 C   0  0  0  0  0  1  0  0  0  0  0  0
  -25.2840  -36.3300   23.8610 C   0  0  0  0  0  3  0  0  0  0  0  0
  -27.3980  -37.2460   24.7210 C   0  0  0  0  0  1  0  0  0  0  0  0
  -26.3000  -37.4030   23.7700 N   0  0  0  0  0  0  0  0  0  0  0  0
  -25.8770  -38.3140   23.9230 H   0  0  0  0  0  0  0  0  0  0  0  0
  -28.9730  -19.4560   20.0240 C   0  0  0  0  0  2  0  0  0  0  0  0
  -30.4900  -18.1590   21.7420 C   0  0  0  0  0  1  0  0  0  0  0  0
  -30.1620  -18.1390   20.2310 C   0  0  1  0  0  0  0  0  0  0  0  0
  -30.6530  -15.2370   19.8600 C   0  0  0  0  0  0  0  0  0  0  0  0
  -30.5270  -12.7960   19.0080 C   0  0  0  0  0  2  0  0  0  0  0  0
  -29.5330  -12.5980   17.8390 C   0  0  0  0  0  2  0  0  0  0  0  0
  -28.1080  -12.3600   18.3650 C   0  0  0  0  0  2  0  0  0  0  0  0
  -27.7360  -13.3430   19.5040 C   0  0  0  0  0  3  0  0  0  0  0  0
  -28.8510  -13.4920   20.5600 C   0  0  0  0  0  2  0  0  0  0  0  0
  -30.0520  -13.9530   19.8460 N   0  0  0  0  0  0  0  0  0  0  0  0
  -31.8570  -15.2090   19.5790 O   0  0  0  0  0  0  0  0  0  0  0  0
  -29.9110  -16.5080   19.9920 N   0  0  0  0  0  0  0  0  0  0  0  0
  -28.9280  -16.2930   20.0620 H   0  0  0  0  0  0  0  0  0  0  0  0
  -25.4400  -13.9370   20.4450 C   0  0  0  0  0  0  0  0  0  0  0  0
  -24.3850  -13.1740   20.8620 C   0  0  0  0  0  0  0  0  0  0  0  0
  -24.8130  -11.8150   20.7500 C   0  0  0  0  0  0  0  0  0  0  0  0
  -26.4390  -13.0460   20.0970 N   0  0  0  0  0  0  0  0  0  0  0  0
  -26.0770  -11.7610   20.3460 N   0  0  0  0  0  0  0  0  0  0  0  0
  -24.0640  -10.5650   20.9440 C   0  0  0  0  0  0  0  0  0  0  0  0
  -24.4950   -9.5800   21.8580 C   0  0  0  0  0  3  0  0  0  0  0  0
  -23.7450   -8.3980   22.0440 C   0  0  0  0  0  3  0  0  0  0  0  0
  -22.5500   -8.1940   21.3150 C   0  0  0  0  0  0  0  0  0  0  0  0
  -22.1370   -9.1680   20.3870 C   0  0  0  0  0  3  0  0  0  0  0  0
  -22.8880  -10.3410   20.2010 C   0  0  0  0  0  3  0  0  0  0  0  0
  -21.7700   -7.0660   21.4110 O   0  0  0  0  0  0  0  0  0  0  0  0
  -21.6890   -6.3440   22.5750 C   0  0  0  0  0  0  0  0  0  0  0  0
  -21.2010   -6.9120   23.7720 C   0  0  0  0  0  3  0  0  0  0  0  0
  -21.0700   -6.1140   24.9270 C   0  0  0  0  0  3  0  0  0  0  0  0
  -21.4150   -4.7510   24.8850 C   0  0  0  0  0  0  0  0  0  0  0  0
  -21.8960   -4.1820   23.6920 C   0  0  0  0  0  3  0  0  0  0  0  0
  -22.0300   -4.9760   22.5400 C   0  0  0  0  0  0  0  0  0  0  0  0
  -22.4730   -4.4180   21.3880 F   0  0  0  0  0  0  0  0  0  0  0  0
  -21.2820   -3.9830   25.9910 F   0  0  0  0  0  0  0  0  0  0  0  0
  -23.0250  -13.6760   21.2430 C   0  0  0  0  0  0  0  0  0  0  0  0
  -22.3390  -12.9710   22.1350 N   0  0  0  0  0  0  0  0  0  0  0  0
  -22.5820  -14.7300   20.7890 O   0  0  0  0  0  0  0  0  0  0  0  0
  -22.7120  -12.1170   22.5220 H   0  0  0  0  0  0  0  0  0  0  0  0
  -21.4280  -13.2880   22.4350 H   0  0  0  0  0  0  0  0  0  0  0  0
  -25.6240  -15.3100   20.3020 N   0  0  0  0  0  0  0  0  0  0  0  0
  -24.8800  -15.9730   20.4880 H   0  0  0  0  0  0  0  0  0  0  0  0
  -26.4430  -15.7440   19.8970 H   0  0  0  0  0  0  0  0  0  0  0  0
  -32.7930  -18.3630   20.0260 C   0  0  0  0  0  1  0  0  0  0  0  0
  -31.3990  -18.6070   19.4110 C   0  0  0  0  0  2  0  0  0  0  0  0
  1  2  2  0
  1  4  1  0
  2  6  1  0
  4  5  2  0
  5  3  1  0
  5  7  1  0
  6  3  2  0
  8  6  1  0
  9 20  2  0
 10  8  1  0
 10 15  1  0
 11 19  1  0
 11 21  1  0
 12 18  1  0
 12 14  1  0
 13 19  1  0
 14 15  2  0
 14 13  1  0
 16 10  2  0
 17 16  1  0
 17 12  2  0
 18 11  1  0
 19  9  1  0
 21 23  2  0
 22 21  1  0
 24 22  1  0
 25 34  2  0
 25 30  1  0
 26 22  1  0
 26 30  1  0
 27 26  1  0
 28 29  1  0
 28 27  1  0
 29 25  1  0
 30 31  2  0
 31 32  1  0
 33 32  2  0
 34 33  1  0
 35  9  1  0
 35 40  1  0
 35 36  1  0
 36 39  1  1
 36 37  1  0
 38 36  1  0
 40 43  1  0
 41 45  1  0
 41 40  1  0
 42 41  2  0
 45 44  1  0
 47 45  1  0
 47 48  1  0
 47 46  1  0
 49  4  1  0
 49 51  1  0
 51 50  1  1
 52 60  1  0
 53 58  1  0
 54 55  1  0
 54 53  1  0
 56 55  1  0
 56 65  1  0
 56 57  1  0
 58 52  1  0
 58 57  1  0
 59 52  2  0
 60 61  1  0
 60 51  1  0
 62 63  2  0
 63 82  1  0
 64 63  1  0
 64 67  1  0
 65 66  1  0
 65 62  1  0
 66 64  2  0
 67 68  1  0
 68 69  2  0
 70 73  1  0
 70 69  1  0
 71 70  2  0
 72 71  1  0
 72 67  2  0
 73 74  1  0
 74 75  1  0
 75 76  2  0
 77 76  1  0
 77 81  1  0
 78 77  2  0
 79 74  2  0
 79 78  1  0
 80 79  1  0
 82 83  1  0
 83 86  1  0
 83 85  1  0
 84 82  2  0
 87 62  1  0
 87 88  1  0
 89 87  1  0
 91 90  1  0
 91 51  1  0
M  ISO  4   6 101   8 101  52 100  60 100
M  END
>  <TORSDO>  (6) 
F 19

>  <SCORE>  (6) 
-15.056

>  <name>  (6) 
5

>  <ligand_id>  (6) 
5

>  <original_smiles>  (6) 
[H]c1c([H])c([H])c2c(c1[H])C([H])([H])C([H])([H])C([H])([H])C2([H])N([H])C(=O)C1([H])N(C(=O)C([H])(N([H])C(=O)C([H])(N([H])C([H])([H])[H])C([H])([H])[H])C(C([H])([H])[H])(C([H])([H])[H])C([H])([H])[H])C([H])([H])c2c([H])c(Oc3c([H])c([H])c(C([H])([H])C(N([H])C(=O)N4C([H])([H])C([H])([H])C([H])([H])C([H])(n5nc(-c6c([H])c([H])c(Oc7c([H])c([H])c(F)c([H])c7F)c([H])c6[H])c(C(=O)N([H])[H])c5N([H])[H])C4([H])[H])(C([H])([H])[H])C([H])([H])C([H])([H])[H])c(C([H])([H])[H])c3[H])c([H])c([H])c2C1([H])[H]

>  <smiles>  (6) 
[H]c1c([H])c([H])c2c(c1[H])C([H])([H])C([H])([H])C([H])([H])C2([H])N([H])C(=O)C1([H])N(C(=O)C([H])(N([H])C(=O)C([H])(N([H])C([H])([H])[H])C([H])([H])[H])C(C([H])([H])[H])(C([H])([H])[H])C([H])([H])[H])C([H])([H])c2c([H])c(Oc3c([H])c([H])c(C([H])([H])C(N([H])C(=O)N4C([H])([H])C([H])([H])C([H])([H])C([H])(n5nc(-c6c([H])c([H])c(Oc7c([H])c([H])c(F)c([H])c7F)c([H])c6[H])c(C(=O)N([H])[H])c5N([H])[H])C4([H])[H])(C([H])([H])[H])C([H])([H])C([H])([H])[H])c(C([H])([H])[H])c3[H])c([H])c([H])c2C1([H])[H]

$$$$
6:0:0
     RDKit          3D

 91 99  0  0  1  0  0  0  0  0999 V2000
  -28.4020  -21.7780   20.0950 N   0  0  0  0  0  4  0  0  0  0  0  0
  -27.8450  -21.7000   19.2600 H   0  0  0  0  0  0  0  0  0  0  0  0
  -27.7410  -21.6730   20.8490 H   0  0  0  0  0  0  0  0  0  0  0  0
  -28.4630  -19.0360   20.5080 C   0  0  0  0  0  0  0  0  0  0  0  0
  -28.7960  -17.4540   20.1250 C   0  0  0  0  0  2  0  0  0  0  0  0
  -31.2620  -19.0620   19.1150 C   0  0  0  0  0  2  0  0  0  0  0  0
  -30.1400  -20.1380   18.9130 C   0  0  0  0  0  2  0  0  0  0  0  0
  -30.9710  -17.5230   18.9490 C   0  0  0  0  0  2  0  0  0  0  0  0
  -29.2780  -20.4370   20.1660 C   0  0  0  0  0  3  0  0  0  0  0  0
  -30.2500  -16.6960   20.0920 C   0  0  1  0  0  0  0  0  0  0  0  0
  -30.9220  -16.9990   21.4530 C   0  0  0  0  0  1  0  0  0  0  0  0
  -27.4070  -19.1760   21.1340 O   0  0  0  0  0  0  0  0  0  0  0  0
  -30.6410  -15.0510   19.8530 C   0  0  0  0  0  0  0  0  0  0  0  0
  -30.3740  -12.7000   18.9530 C   0  0  0  0  0  2  0  0  0  0  0  0
  -29.3850  -12.6400   17.7700 C   0  0  0  0  0  2  0  0  0  0  0  0
  -27.9640  -12.3990   18.2950 C   0  0  0  0  0  2  0  0  0  0  0  0
  -27.6150  -13.3160   19.4940 C   0  0  0  0  0  3  0  0  0  0  0  0
  -28.7360  -13.4150   20.5470 C   0  0  0  0  0  2  0  0  0  0  0  0
  -29.9590  -13.8280   19.8530 N   0  0  0  0  0  0  0  0  0  0  0  0
  -31.8210  -14.9160   19.5120 O   0  0  0  0  0  0  0  0  0  0  0  0
  -25.3020  -13.8110   20.4460 C   0  0  0  0  0  0  0  0  0  0  0  0
  -24.2820  -13.0020   20.8610 C   0  0  0  0  0  0  0  0  0  0  0  0
  -24.7630  -11.6630   20.7430 C   0  0  0  0  0  0  0  0  0  0  0  0
  -26.3330  -12.9640   20.0910 N   0  0  0  0  0  0  0  0  0  0  0  0
  -26.0290  -11.6630   20.3380 N   0  0  0  0  0  0  0  0  0  0  0  0
  -24.0710  -10.3810   20.9330 C   0  0  0  0  0  0  0  0  0  0  0  0
  -24.5110   -9.4360   21.8870 C   0  0  0  0  0  3  0  0  0  0  0  0
  -23.8140   -8.2220   22.0660 C   0  0  0  0  0  3  0  0  0  0  0  0
  -22.6610   -7.9430   21.2930 C   0  0  0  0  0  0  0  0  0  0  0  0
  -22.2430   -8.8760   20.3270 C   0  0  0  0  0  3  0  0  0  0  0  0
  -22.9410  -10.0810   20.1470 C   0  0  0  0  0  3  0  0  0  0  0  0
  -21.9370   -6.7800   21.3810 O   0  0  0  0  0  0  0  0  0  0  0  0
  -21.7820   -6.1150   22.5720 C   0  0  0  0  0  0  0  0  0  0  0  0
  -21.1840   -6.7270   23.6950 C   0  0  0  0  0  3  0  0  0  0  0  0
  -20.9820   -5.9860   24.8770 C   0  0  0  0  0  3  0  0  0  0  0  0
  -21.3690   -4.6330   24.9340 C   0  0  0  0  0  0  0  0  0  0  0  0
  -21.9580   -4.0200   23.8150 C   0  0  0  0  0  3  0  0  0  0  0  0
  -22.1620   -4.7590   22.6360 C   0  0  0  0  0  0  0  0  0  0  0  0
  -22.7110   -4.1590   21.5530 F   0  0  0  0  0  0  0  0  0  0  0  0
  -21.1680   -3.9180   26.0660 F   0  0  0  0  0  0  0  0  0  0  0  0
  -22.9020  -13.4430   21.2510 C   0  0  0  0  0  0  0  0  0  0  0  0
  -22.2530  -12.7050   22.1430 N   0  0  0  0  0  0  0  0  0  0  0  0
  -22.4110  -14.4770   20.7960 O   0  0  0  0  0  0  0  0  0  0  0  0
  -22.6700  -11.8720   22.5320 H   0  0  0  0  0  0  0  0  0  0  0  0
  -21.3280  -12.9750   22.4460 H   0  0  0  0  0  0  0  0  0  0  0  0
  -25.4340  -15.1910   20.3130 N   0  0  0  0  0  0  0  0  0  0  0  0
  -24.6700  -15.8280   20.5070 H   0  0  0  0  0  0  0  0  0  0  0  0
  -26.2540  -15.6520   19.9440 H   0  0  0  0  0  0  0  0  0  0  0  0
  -28.9320  -23.2870   20.1930 C   0  0  0  0  0  3  0  0  0  0  0  0
  -27.9580  -24.6520   19.9100 C   0  0  0  0  0  3  0  0  0  0  0  0
  -28.2730  -26.1790   20.1220 O   0  0  0  0  0  0  0  0  0  0  0  0
  -24.6910  -31.8270   23.2600 C   0  0  0  0  0  0  0  0  0  0  0  0
  -27.2400  -27.1920   20.0730 C   0  0  0  0  0  0  0  0  0  0  0  0
  -23.4890  -30.4930   21.5780 C   0  0  0  0  0  3  0  0  0  0  0  0
  -24.9290  -28.9650   20.1010 C   0  0  0  0  0  0  0  0  0  0  0  0
  -26.0450  -30.7520   21.4170 C   0  0  0  0  0  2  0  0  0  0  0  0
  -26.1150  -29.3800   20.7210 C   0  0  0  0  0  0  0  0  0  0  0  0
  -27.2720  -28.5120   20.6890 C   0  0  0  0  0  3  0  0  0  0  0  0
  -26.0300  -26.8890   19.4110 C   0  0  0  0  0  3  0  0  0  0  0  0
  -24.8990  -27.7330   19.4330 C   0  0  0  0  0  3  0  0  0  0  0  0
  -23.7080  -29.8670   20.1770 C   0  0  0  0  0  2  0  0  0  0  0  0
  -24.7630  -31.0440   22.1420 N   0  0  0  0  0  0  0  0  0  0  0  0
  -23.6060  -32.0960   23.7980 O   0  0  0  0  0  0  0  0  0  0  0  0
  -22.8060  -29.4540   22.5010 C   0  0  0  0  0  0  0  0  0  0  0  0
  -21.4850  -29.2590   22.3360 N   0  0  0  0  0  0  0  0  0  0  0  0
  -23.4680  -28.8230   23.3300 O   0  0  0  0  0  0  0  0  0  0  0  0
  -21.0090  -29.8150   21.6400 H   0  0  0  0  0  0  0  0  0  0  0  0
  -18.1170  -27.9820   22.7160 C   0  0  0  0  0  0  0  0  0  0  0  0
  -20.6610  -28.2930   23.0670 C   0  0  0  0  0  3  0  0  0  0  0  0
  -20.8130  -26.8730   22.4740 C   0  0  0  0  0  2  0  0  0  0  0  0
  -19.7500  -26.5430   21.4210 C   0  0  0  0  0  2  0  0  0  0  0  0
  -18.3460  -26.6470   22.0240 C   0  0  0  0  0  2  0  0  0  0  0  0
  -19.2060  -28.7610   23.1920 C   0  0  0  0  0  0  0  0  0  0  0  0
  -18.9400  -30.0080   23.7960 C   0  0  0  0  0  3  0  0  0  0  0  0
  -17.6200  -30.4770   23.9320 C   0  0  0  0  0  3  0  0  0  0  0  0
  -16.5460  -29.6940   23.4750 C   0  0  0  0  0  3  0  0  0  0  0  0
  -16.7960  -28.4480   22.8720 C   0  0  0  0  0  3  0  0  0  0  0  0
  -25.9680  -32.4360   23.9130 C   0  0  0  0  0  3  0  0  0  0  0  0
  -26.4370  -31.6560   25.2030 C   0  0  1  0  0  0  0  0  0  0  0  0
  -25.3140  -31.4390   26.2460 C   0  0  0  0  0  1  0  0  0  0  0  0
  -27.0010  -30.2660   24.8290 C   0  0  0  0  0  1  0  0  0  0  0  0
  -27.5850  -32.4300   25.8920 C   0  0  0  0  0  1  0  0  0  0  0  0
  -25.6790  -33.8400   24.2390 N   0  0  0  0  0  0  0  0  0  0  0  0
  -26.0150  -34.8890   23.4750 C   0  0  0  0  0  0  0  0  0  0  0  0
  -26.6700  -34.7730   22.4360 O   0  0  0  0  0  0  0  0  0  0  0  0
  -25.0990  -34.0050   25.0490 H   0  0  0  0  0  0  0  0  0  0  0  0
  -24.2870  -36.6920   23.1710 C   0  0  0  0  0  1  0  0  0  0  0  0
  -25.5550  -36.2870   23.9390 C   0  0  0  0  0  3  0  0  0  0  0  0
  -27.7190  -37.1730   24.6870 C   0  0  0  0  0  1  0  0  0  0  0  0
  -26.5890  -37.3310   23.7750 N   0  0  0  0  0  0  0  0  0  0  0  0
  -26.1940  -38.2570   23.9190 H   0  0  0  0  0  0  0  0  0  0  0  0
  1 49  1  0
  1  3  1  0
  2  1  1  0
  4 12  2  0
  5  4  1  0
  7  6  1  0
  7  9  1  0
  8  6  1  0
  8 10  1  0
  9  1  1  0
  9  4  1  0
 10  5  1  0
 10 11  1  1
 13 19  1  0
 13 10  1  0
 14 19  1  0
 15 16  1  0
 15 14  1  0
 17 16  1  0
 17 24  1  0
 17 18  1  0
 19 18  1  0
 20 13  2  0
 21 22  2  0
 22 41  1  0
 23 22  1  0
 23 26  1  0
 24 25  1  0
 24 21  1  0
 25 23  2  0
 26 27  1  0
 27 28  2  0
 29 32  1  0
 29 28  1  0
 30 29  2  0
 31 30  1  0
 31 26  2  0
 32 33  1  0
 33 38  2  0
 33 34  1  0
 34 35  2  0
 35 36  1  0
 36 40  1  0
 37 36  2  0
 38 37  1  0
 39 38  1  0
 41 42  1  0
 42 45  1  0
 42 44  1  0
 43 41  2  0
 46 21  1  0
 46 47  1  0
 48 46  1  0
 50 51  1  0
 50 49  2  0
 52 63  2  0
 53 51  1  0
 53 58  1  0
 54 62  1  0
 54 64  1  0
 55 61  1  0
 55 57  1  0
 56 62  1  0
 57 56  1  0
 58 57  2  0
 59 60  1  0
 59 53  2  0
 60 55  2  0
 61 54  1  0
 62 52  1  0
 64 66  2  0
 65 64  1  0
 67 65  1  0
 68 77  2  0
 68 73  1  0
 69 65  1  0
 69 73  1  0
 70 69  1  0
 71 72  1  0
 71 70  1  0
 72 68  1  0
 73 74  2  0
 74 75  1  0
 76 75  2  0
 77 76  1  0
 78 52  1  0
 78 83  1  0
 78 79  1  0
 79 82  1  1
 79 80  1  0
 81 79  1  0
 83 86  1  0
 84 88  1  0
 84 83  1  0
 85 84  2  0
 88 87  1  0
 90 91  1  0
 90 88  1  0
 90 89  1  0
M  ISO  4  10 100  13 100  50 101  51 101
M  END
>  <TORSDO>  (7) 
F 19

>  <SCORE>  (7) 
-14.481

>  <name>  (7) 
6

>  <ligand_id>  (7) 
6

>  <original_smiles>  (7) 
[H]c1c([H])c([H])c2c(c1[H])C([H])([H])C([H])([H])C([H])([H])C2([H])N([H])C(=O)C1([H])N(C(=O)C([H])(N([H])C(=O)C([H])(N([H])C([H])([H])[H])C([H])([H])[H])C(C([H])([H])[H])(C([H])([H])[H])C([H])([H])[H])C([H])([H])c2c([H])c(OC([H])([H])C([H])([H])[N+]([H])([H])C3([H])C(=O)C([H])([H])C(C(=O)N4C([H])([H])C([H])([H])C([H])([H])C([H])(n5nc(-c6c([H])c([H])c(Oc7c([H])c([H])c(F)c([H])c7F)c([H])c6[H])c(C(=O)N([H])[H])c5N([H])[H])C4([H])[H])(C([H])([H])[H])C([H])([H])C([H])([H])C3([H])[H])c([H])c([H])c2C1([H])[H]

>  <smiles>  (7) 
[H]c1c([H])c([H])c2c(c1[H])C([H])([H])C([H])([H])C([H])([H])C2([H])N([H])C(=O)C1([H])N(C(=O)C([H])(N([H])C(=O)C([H])(N([H])C([H])([H])[H])C([H])([H])[H])C(C([H])([H])[H])(C([H])([H])[H])C([H])([H])[H])C([H])([H])c2c([H])c(OC([H])([H])C([H])([H])[N+]([H])([H])C3([H])C(=O)C([H])([H])C(C(=O)N4C([H])([H])C([H])([H])C([H])([H])C([H])(n5nc(-c6c([H])c([H])c(Oc7c([H])c([H])c(F)c([H])c7F)c([H])c6[H])c(C(=O)N([H])[H])c5N([H])[H])C4([H])[H])(C([H])([H])[H])C([H])([H])C([H])([H])C3([H])[H])c([H])c([H])c2C1([H])[H]

$$$$
7:0:0
     RDKit          3D

 92101  0  0  1  0  0  0  0  0999 V2000
  -28.3250  -21.7650   19.7120 C   0  0  0  0  0  3  0  0  0  0  0  0
  -29.7420  -22.9570   21.2000 C   0  0  0  0  0  3  0  0  0  0  0  0
  -28.9110  -20.4310   20.0390 C   0  0  0  0  0  0  0  0  0  0  0  0
  -28.6780  -23.0940   20.2670 C   0  0  0  0  0  0  0  0  0  0  0  0
  -30.3600  -21.6960   21.5550 C   0  0  0  0  0  0  0  0  0  0  0  0
  -29.9490  -20.4250   21.0030 C   0  0  0  0  0  0  0  0  0  0  0  0
  -28.7390  -18.9730   19.6890 C   0  0  0  0  0  0  0  0  0  0  0  0
  -29.5790  -18.1000   20.4280 C   0  0  0  0  0  0  0  0  0  0  0  0
  -31.4770  -21.7420   22.5820 C   0  0  0  0  0  1  0  0  0  0  0  0
  -31.3090  -18.5880   22.1890 C   0  0  0  0  0  1  0  0  0  0  0  0
  -30.3230  -19.0360   21.2170 N   0  0  0  0  0  0  0  0  0  0  0  0
  -27.8040  -18.5070   18.8050 O   0  0  0  0  0  0  0  0  0  0  0  0
  -27.3570  -19.2630   18.4320 H   0  0  0  0  0  0  0  0  0  0  0  0
  -27.8660  -24.5390   19.9310 C   0  0  0  0  0  2  0  0  0  0  0  0
  -28.1850  -26.0550   20.2780 O   0  0  0  0  0  0  0  0  0  0  0  0
  -24.6370  -31.8920   23.2400 C   0  0  0  0  0  0  0  0  0  0  0  0
  -27.1660  -27.1040   20.1950 C   0  0  0  0  0  0  0  0  0  0  0  0
  -23.4230  -30.5020   21.6090 C   0  0  0  0  0  3  0  0  0  0  0  0
  -24.8570  -28.9130   20.1740 C   0  0  0  0  0  0  0  0  0  0  0  0
  -25.9850  -30.7320   21.4400 C   0  0  0  0  0  2  0  0  0  0  0  0
  -26.0460  -29.3350   20.7820 C   0  0  0  0  0  0  0  0  0  0  0  0
  -27.1980  -28.4470   20.7770 C   0  0  0  0  0  3  0  0  0  0  0  0
  -25.9500  -26.8110   19.5350 C   0  0  0  0  0  3  0  0  0  0  0  0
  -24.8260  -27.6680   19.5330 C   0  0  0  0  0  3  0  0  0  0  0  0
  -23.6360  -29.8220   20.2300 C   0  0  0  0  0  2  0  0  0  0  0  0
  -24.7030  -31.0650   22.1490 N   0  0  0  0  0  0  0  0  0  0  0  0
  -23.5540  -32.1840   23.7700 O   0  0  0  0  0  0  0  0  0  0  0  0
  -22.7390  -29.5020   22.5760 C   0  0  0  0  0  0  0  0  0  0  0  0
  -21.4110  -29.3340   22.4500 N   0  0  0  0  0  0  0  0  0  0  0  0
  -23.4090  -28.8780   23.4020 O   0  0  0  0  0  0  0  0  0  0  0  0
  -20.9260  -29.8860   21.7550 H   0  0  0  0  0  0  0  0  0  0  0  0
  -18.0260  -28.1410   22.9620 C   0  0  0  0  0  0  0  0  0  0  0  0
  -20.5880  -28.4030   23.2250 C   0  0  0  0  0  3  0  0  0  0  0  0
  -20.6870  -26.9690   22.6560 C   0  0  0  0  0  2  0  0  0  0  0  0
  -19.5840  -26.6440   21.6440 C   0  0  0  0  0  2  0  0  0  0  0  0
  -18.2020  -26.7910   22.2860 C   0  0  0  0  0  2  0  0  0  0  0  0
  -19.1470  -28.9050   23.3870 C   0  0  0  0  0  0  0  0  0  0  0  0
  -18.9270  -30.1670   23.9800 C   0  0  0  0  0  3  0  0  0  0  0  0
  -17.6220  -30.6680   24.1480 C   0  0  0  0  0  3  0  0  0  0  0  0
  -16.5180  -29.9010   23.7380 C   0  0  0  0  0  3  0  0  0  0  0  0
  -16.7210  -28.6390   23.1510 C   0  0  0  0  0  3  0  0  0  0  0  0
  -25.9200  -32.5230   23.8620 C   0  0  0  0  0  3  0  0  0  0  0  0
  -26.4310  -31.7510   25.1410 C   0  0  1  0  0  0  0  0  0  0  0  0
  -25.3360  -31.5230   26.2100 C   0  0  0  0  0  1  0  0  0  0  0  0
  -27.0090  -30.3690   24.7610 C   0  0  0  0  0  1  0  0  0  0  0  0
  -27.5830  -32.5440   25.8040 C   0  0  0  0  0  1  0  0  0  0  0  0
  -25.6130  -33.9230   24.2000 N   0  0  0  0  0  0  0  0  0  0  0  0
  -25.9260  -34.9800   23.4390 C   0  0  0  0  0  0  0  0  0  0  0  0
  -26.5690  -34.8800   22.3920 O   0  0  0  0  0  0  0  0  0  0  0  0
  -25.0410  -34.0750   25.0170 H   0  0  0  0  0  0  0  0  0  0  0  0
  -24.1830  -36.7730   23.1480 C   0  0  0  0  0  1  0  0  0  0  0  0
  -25.4520  -36.3680   23.9150 C   0  0  0  0  0  3  0  0  0  0  0  0
  -27.6080  -37.2620   24.6800 C   0  0  0  0  0  1  0  0  0  0  0  0
  -26.4770  -37.4240   23.7700 N   0  0  0  0  0  0  0  0  0  0  0  0
  -26.0730  -38.3440   23.9270 H   0  0  0  0  0  0  0  0  0  0  0  0
  -29.4940  -16.4350   20.6720 C   0  0  0  0  0  2  0  0  0  0  0  0
  -30.4050  -15.0760   20.2480 C   0  0  0  0  0  0  0  0  0  0  0  0
  -30.3440  -12.7040   19.2750 C   0  0  0  0  0  2  0  0  0  0  0  0
  -29.3740  -12.6640   18.0670 C   0  0  0  0  0  2  0  0  0  0  0  0
  -27.9220  -12.4300   18.5280 C   0  0  0  0  0  2  0  0  0  0  0  0
  -27.5400  -13.3360   19.7260 C   0  0  0  0  0  3  0  0  0  0  0  0
  -28.6240  -13.3240   20.8250 C   0  0  0  0  0  2  0  0  0  0  0  0
  -29.8810  -13.7730   20.2090 N   0  0  0  0  0  0  0  0  0  0  0  0
  -31.5820  -15.1850   19.8780 O   0  0  0  0  0  0  0  0  0  0  0  0
  -25.1830  -13.9170   20.5340 C   0  0  0  0  0  0  0  0  0  0  0  0
  -24.1240  -13.1420   20.9180 C   0  0  0  0  0  0  0  0  0  0  0  0
  -24.5800  -11.7890   20.8570 C   0  0  0  0  0  0  0  0  0  0  0  0
  -26.2150  -13.0360   20.2540 N   0  0  0  0  0  0  0  0  0  0  0  0
  -25.8630  -11.7510   20.5140 N   0  0  0  0  0  0  0  0  0  0  0  0
  -23.8510  -10.5270   21.0440 C   0  0  0  0  0  0  0  0  0  0  0  0
  -24.2890   -9.5510   21.9640 C   0  0  0  0  0  3  0  0  0  0  0  0
  -23.5590   -8.3560   22.1420 C   0  0  0  0  0  3  0  0  0  0  0  0
  -22.3770   -8.1280   21.3980 C   0  0  0  0  0  0  0  0  0  0  0  0
  -21.9570   -9.0940   20.4670 C   0  0  0  0  0  3  0  0  0  0  0  0
  -22.6890  -10.2800   20.2870 C   0  0  0  0  0  3  0  0  0  0  0  0
  -21.6180   -6.9860   21.4850 O   0  0  0  0  0  0  0  0  0  0  0  0
  -21.5680   -6.2410   22.6360 C   0  0  0  0  0  0  0  0  0  0  0  0
  -21.1220   -6.7870   23.8590 C   0  0  0  0  0  3  0  0  0  0  0  0
  -21.0230   -5.9670   25.0020 C   0  0  0  0  0  3  0  0  0  0  0  0
  -21.3580   -4.6030   24.9210 C   0  0  0  0  0  0  0  0  0  0  0  0
  -21.7970   -4.0570   23.7030 C   0  0  0  0  0  3  0  0  0  0  0  0
  -21.8990   -4.8730   22.5620 C   0  0  0  0  0  0  0  0  0  0  0  0
  -22.3020   -4.3370   21.3860 F   0  0  0  0  0  0  0  0  0  0  0  0
  -21.2550   -3.8140   26.0170 F   0  0  0  0  0  0  0  0  0  0  0  0
  -22.7370  -13.6210   21.2290 C   0  0  0  0  0  0  0  0  0  0  0  0
  -22.0240  -12.9130   22.0990 N   0  0  0  0  0  0  0  0  0  0  0  0
  -22.2930  -14.6570   20.7360 O   0  0  0  0  0  0  0  0  0  0  0  0
  -22.3960  -12.0750   22.5200 H   0  0  0  0  0  0  0  0  0  0  0  0
  -21.0940  -13.2150   22.3510 H   0  0  0  0  0  0  0  0  0  0  0  0
  -25.3520  -15.2890   20.3730 N   0  0  0  0  0  0  0  0  0  0  0  0
  -24.5920  -15.9480   20.5000 H   0  0  0  0  0  0  0  0  0  0  0  0
  -26.1900  -15.7240   20.0080 H   0  0  0  0  0  0  0  0  0  0  0  0
  1  3  2  0
  1  4  1  0
  2  5  1  0
  3  6  1  0
  4  2  2  0
  5  9  1  0
  6 11  1  0
  6  5  2  0
  7  3  1  0
  7  8  2  0
  8 56  1  0
  8 11  1  0
 11 10  1  0
 12  7  1  0
 13 12  1  0
 14  4  1  0
 14 15  1  0
 16 27  2  0
 17 15  1  0
 17 22  1  0
 18 26  1  0
 18 28  1  0
 19 25  1  0
 19 21  1  0
 20 26  1  0
 21 20  1  0
 22 21  2  0
 23 17  2  0
 24 23  1  0
 24 19  2  0
 25 18  1  0
 26 16  1  0
 28 30  2  0
 29 28  1  0
 31 29  1  0
 32 41  2  0
 32 37  1  0
 33 29  1  0
 33 37  1  0
 34 33  1  0
 35 36  1  0
 35 34  1  0
 36 32  1  0
 37 38  2  0
 38 39  1  0
 40 39  2  0
 41 40  1  0
 42 16  1  0
 42 47  1  0
 42 43  1  0
 43 46  1  1
 43 44  1  0
 45 43  1  0
 47 50  1  0
 48 52  1  0
 48 47  1  0
 49 48  2  0
 52 51  1  0
 54 52  1  0
 54 55  1  0
 54 53  1  0
 57 56  1  0
 58 63  1  0
 59 60  1  0
 59 58  1  0
 61 60  1  0
 61 68  1  0
 61 62  1  0
 63 57  1  0
 63 62  1  0
 64 57  2  0
 65 66  2  0
 66 85  1  0
 67 66  1  0
 67 70  1  0
 68 69  1  0
 68 65  1  0
 69 67  2  0
 70 71  1  0
 71 72  2  0
 73 76  1  0
 73 72  1  0
 74 73  2  0
 75 74  1  0
 75 70  2  0
 76 77  1  0
 77 78  1  0
 78 79  2  0
 80 79  1  0
 80 84  1  0
 81 80  2  0
 82 77  2  0
 82 81  1  0
 83 82  1  0
 85 86  1  0
 86 89  1  0
 86 88  1  0
 87 85  2  0
 90 91  1  0
 90 65  1  0
 92 90  1  0
M  ISO  4  14 101  15 101  56 100  57 100
M  END
>  <TORSDO>  (8) 
F 19

>  <SCORE>  (8) 
-14.658

>  <name>  (8) 
7

>  <ligand_id>  (8) 
7

>  <original_smiles>  (8) 
[H]Oc1c(C([H])([H])C(=O)N2C([H])([H])C([H])([H])C([H])([H])C([H])(n3nc(-c4c([H])c([H])c(Oc5c([H])c([H])c(F)c([H])c5F)c([H])c4[H])c(C(=O)N([H])[H])c3N([H])[H])C2([H])[H])n(C([H])([H])[H])c2c(C([H])([H])[H])c([H])c(C([H])([H])Oc3c([H])c([H])c4c(c3[H])C([H])([H])N(C(=O)C([H])(N([H])C(=O)C([H])(N([H])C([H])([H])[H])C([H])([H])[H])C(C([H])([H])[H])(C([H])([H])[H])C([H])([H])[H])C([H])(C(=O)N([H])C3([H])c5c([H])c([H])c([H])c([H])c5C([H])([H])C([H])([H])C3([H])[H])C4([H])[H])c([H])c12

>  <smiles>  (8) 
[H]Oc1c(C([H])([H])C(=O)N2C([H])([H])C([H])([H])C([H])([H])C([H])(n3nc(-c4c([H])c([H])c(Oc5c([H])c([H])c(F)c([H])c5F)c([H])c4[H])c(C(=O)N([H])[H])c3N([H])[H])C2([H])[H])n(C([H])([H])[H])c2c(C([H])([H])[H])c([H])c(C([H])([H])Oc3c([H])c([H])c4c(c3[H])C([H])([H])N(C(=O)C([H])(N([H])C(=O)C([H])(N([H])C([H])([H])[H])C([H])([H])[H])C(C([H])([H])[H])(C([H])([H])[H])C([H])([H])[H])C([H])(C(=O)N([H])C3([H])c5c([H])c([H])c([H])c([H])c5C([H])([H])C([H])([H])C3([H])[H])C4([H])[H])c([H])c12

$$$$
8:0:0
     RDKit          3D

 98108  0  0  1  0  0  0  0  0999 V2000
  -28.7820  -18.7750   21.1070 C   0  0  0  0  0  2  0  0  0  0  0  0
  -31.0200  -18.8840   18.7810 C   0  0  0  0  0  2  0  0  0  0  0  0
  -29.0890  -19.9750   20.1820 C   0  0  0  0  0  3  0  0  0  0  0  0
  -30.2570  -18.3210   21.0700 C   0  0  0  0  0  3  0  0  0  0  0  0
  -30.5340  -19.4700   20.0960 C   0  0  0  0  0  3  0  0  0  0  0  0
  -30.7560  -17.3630   18.8630 C   0  0  0  0  0  3  0  0  0  0  0  0
  -30.8070  -17.0510   20.3860 C   0  0  0  0  0  3  0  0  0  0  0  0
  -30.9300  -14.5710   20.5980 C   0  0  0  0  0  0  0  0  0  0  0  0
  -30.5770  -12.4480   19.4210 C   0  0  0  0  0  2  0  0  0  0  0  0
  -29.6790  -12.7040   18.1940 C   0  0  0  0  0  2  0  0  0  0  0  0
  -28.1950  -12.5830   18.5840 C   0  0  0  0  0  2  0  0  0  0  0  0
  -27.8380  -13.3980   19.8590 C   0  0  0  0  0  3  0  0  0  0  0  0
  -28.8650  -13.1650   20.9920 C   0  0  0  0  0  2  0  0  0  0  0  0
  -30.2020  -13.4330   20.4490 N   0  0  0  0  0  0  0  0  0  0  0  0
  -32.1220  -14.6200   20.2880 O   0  0  0  0  0  0  0  0  0  0  0  0
  -30.2440  -15.7280   20.7740 N   0  0  0  0  0  0  0  0  0  0  0  0
  -29.2630  -15.6730   21.0030 H   0  0  0  0  0  0  0  0  0  0  0  0
  -25.4190  -14.0120   20.4720 C   0  0  0  0  0  0  0  0  0  0  0  0
  -24.3380  -13.2470   20.8160 C   0  0  0  0  0  0  0  0  0  0  0  0
  -24.8020  -11.8940   20.8330 C   0  0  0  0  0  0  0  0  0  0  0  0
  -26.4720  -13.1280   20.3000 N   0  0  0  0  0  0  0  0  0  0  0  0
  -26.1030  -11.8510   20.5760 N   0  0  0  0  0  0  0  0  0  0  0  0
  -24.0700  -10.6360   21.0220 C   0  0  0  0  0  0  0  0  0  0  0  0
  -24.4770   -9.6810   21.9800 C   0  0  0  0  0  3  0  0  0  0  0  0
  -23.7440   -8.4860   22.1550 C   0  0  0  0  0  3  0  0  0  0  0  0
  -22.5920   -8.2390   21.3710 C   0  0  0  0  0  0  0  0  0  0  0  0
  -22.2060   -9.1820   20.4040 C   0  0  0  0  0  3  0  0  0  0  0  0
  -22.9380  -10.3670   20.2260 C   0  0  0  0  0  3  0  0  0  0  0  0
  -21.8340   -7.0960   21.4550 O   0  0  0  0  0  0  0  0  0  0  0  0
  -21.7570   -6.3650   22.6140 C   0  0  0  0  0  0  0  0  0  0  0  0
  -21.3150   -6.9380   23.8270 C   0  0  0  0  0  3  0  0  0  0  0  0
  -21.1840   -6.1360   24.9770 C   0  0  0  0  0  3  0  0  0  0  0  0
  -21.4840   -4.7630   24.9170 C   0  0  0  0  0  0  0  0  0  0  0  0
  -21.9190   -4.1900   23.7090 C   0  0  0  0  0  3  0  0  0  0  0  0
  -22.0510   -4.9890   22.5600 C   0  0  0  0  0  0  0  0  0  0  0  0
  -22.4500   -4.4270   21.3930 F   0  0  0  0  0  0  0  0  0  0  0  0
  -21.3510   -3.9890   26.0200 F   0  0  0  0  0  0  0  0  0  0  0  0
  -22.9310  -13.7280   21.0230 C   0  0  0  0  0  0  0  0  0  0  0  0
  -22.1790  -13.0650   21.8960 N   0  0  0  0  0  0  0  0  0  0  0  0
  -22.5060  -14.7280   20.4470 O   0  0  0  0  0  0  0  0  0  0  0  0
  -22.5340  -12.2570   22.3850 H   0  0  0  0  0  0  0  0  0  0  0  0
  -21.2320  -13.3700   22.0760 H   0  0  0  0  0  0  0  0  0  0  0  0
  -25.5910  -15.3790   20.2700 N   0  0  0  0  0  0  0  0  0  0  0  0
  -24.8180  -16.0330   20.3340 H   0  0  0  0  0  0  0  0  0  0  0  0
  -26.4500  -15.8130   19.9620 H   0  0  0  0  0  0  0  0  0  0  0  0
  -28.6230  -21.9620   21.7780 C   0  0  0  0  0  3  0  0  0  0  0  0
  -28.9740  -22.4030   19.4180 C   0  0  0  0  0  3  0  0  0  0  0  0
  -28.4750  -23.3520   22.0000 C   0  0  0  0  0  3  0  0  0  0  0  0
  -28.8270  -23.7940   19.6420 C   0  0  0  0  0  3  0  0  0  0  0  0
  -28.8780  -21.4700   20.4790 C   0  0  0  0  0  0  0  0  0  0  0  0
  -28.5760  -24.2860   20.9410 C   0  0  0  0  0  0  0  0  0  0  0  0
  -28.4440  -25.7870   21.2470 C   0  0  0  0  0  2  0  0  0  0  0  0
  -28.3620  -26.6730   20.1140 O   0  0  0  0  0  0  0  0  0  0  0  0
  -24.5960  -31.8900   23.1950 C   0  0  0  0  0  0  0  0  0  0  0  0
  -27.2270  -27.4520   20.1060 C   0  0  0  0  0  0  0  0  0  0  0  0
  -23.3840  -30.4860   21.5580 C   0  0  0  0  0  3  0  0  0  0  0  0
  -24.8340  -28.9540   20.1230 C   0  0  0  0  0  0  0  0  0  0  0  0
  -25.9060  -30.8540   21.3440 C   0  0  0  0  0  2  0  0  0  0  0  0
  -25.9940  -29.4820   20.7050 C   0  0  0  0  0  0  0  0  0  0  0  0
  -27.1980  -28.7380   20.6940 C   0  0  0  0  0  3  0  0  0  0  0  0
  -26.0560  -26.9380   19.5160 C   0  0  0  0  0  3  0  0  0  0  0  0
  -24.8610  -27.6810   19.5230 C   0  0  0  0  0  3  0  0  0  0  0  0
  -23.5860  -29.8060   20.1760 C   0  0  0  0  0  2  0  0  0  0  0  0
  -24.6470  -31.0920   22.0910 N   0  0  0  0  0  0  0  0  0  0  0  0
  -23.5170  -32.1590   23.7420 O   0  0  0  0  0  0  0  0  0  0  0  0
  -22.7420  -29.4620   22.5240 C   0  0  0  0  0  0  0  0  0  0  0  0
  -21.4160  -29.2790   22.4070 N   0  0  0  0  0  0  0  0  0  0  0  0
  -23.4330  -28.8370   23.3330 O   0  0  0  0  0  0  0  0  0  0  0  0
  -20.9200  -29.8370   21.7260 H   0  0  0  0  0  0  0  0  0  0  0  0
  -18.0480  -28.0860   22.9360 C   0  0  0  0  0  0  0  0  0  0  0  0
  -20.6070  -28.3380   23.1830 C   0  0  0  0  0  3  0  0  0  0  0  0
  -20.7030  -26.9100   22.6000 C   0  0  0  0  0  2  0  0  0  0  0  0
  -19.5920  -26.5930   21.5970 C   0  0  0  0  0  2  0  0  0  0  0  0
  -18.2150  -26.7390   22.2530 C   0  0  0  0  0  2  0  0  0  0  0  0
  -19.1720  -28.8430   23.3590 C   0  0  0  0  0  0  0  0  0  0  0  0
  -18.9620  -30.1050   23.9580 C   0  0  0  0  0  3  0  0  0  0  0  0
  -17.6600  -30.6090   24.1370 C   0  0  0  0  0  3  0  0  0  0  0  0
  -16.5500  -29.8470   23.7320 C   0  0  0  0  0  3  0  0  0  0  0  0
  -16.7450  -28.5870   23.1380 C   0  0  0  0  0  3  0  0  0  0  0  0
  -25.8850  -32.5250   23.8070 C   0  0  0  0  0  3  0  0  0  0  0  0
  -26.4200  -31.7490   25.0730 C   0  0  1  0  0  0  0  0  0  0  0  0
  -25.3420  -31.5050   26.1520 C   0  0  0  0  0  1  0  0  0  0  0  0
  -27.0000  -30.3740   24.6660 C   0  0  0  0  0  1  0  0  0  0  0  0
  -27.5740  -32.5450   25.7270 C   0  0  0  0  0  1  0  0  0  0  0  0
  -25.5760  -33.9200   24.1440 N   0  0  0  0  0  0  0  0  0  0  0  0
  -25.9100  -34.9770   23.3920 C   0  0  0  0  0  0  0  0  0  0  0  0
  -26.5850  -34.8810   22.3630 O   0  0  0  0  0  0  0  0  0  0  0  0
  -24.9810  -34.0720   24.9460 H   0  0  0  0  0  0  0  0  0  0  0  0
  -24.1900  -36.7740   23.0260 C   0  0  0  0  0  1  0  0  0  0  0  0
  -25.4160  -36.3610   23.8550 C   0  0  0  0  0  3  0  0  0  0  0  0
  -27.5410  -37.2290   24.7290 C   0  0  0  0  0  1  0  0  0  0  0  0
  -26.4510  -37.4140   23.7730 N   0  0  0  0  0  0  0  0  0  0  0  0
  -26.0430  -38.3300   23.9360 H   0  0  0  0  0  0  0  0  0  0  0  0
  -31.7220  -16.5410   17.9740 C   0  0  0  0  0  2  0  0  0  0  0  0
  -31.6820  -16.9440   16.5550 N   0  0  0  0  0  4  0  0  0  0  0  0
  -30.7550  -16.8550   16.1790 H   0  0  0  0  0  0  0  0  0  0  0  0
  -32.2910  -16.3560   16.0160 H   0  0  0  0  0  0  0  0  0  0  0  0
  -31.9900  -17.8930   16.4360 H   0  0  0  0  0  0  0  0  0  0  0  0
  2  6  1  0
  3 50  1  0
  3  1  1  0
  4  1  1  0
  5  2  1  0
  5  3  1  0
  5  4  1  0
  6 94  1  0
  6  7  1  0
  7 16  1  0
  7  4  1  0
  8 16  1  0
  9 14  1  0
 10 11  1  0
 10  9  1  0
 12 11  1  0
 12 21  1  0
 12 13  1  0
 14  8  1  0
 14 13  1  0
 15  8  2  0
 16 17  1  0
 18 19  2  0
 19 20  1  0
 19 38  1  0
 20 23  1  0
 21 18  1  0
 21 22  1  0
 22 20  2  0
 23 24  1  0
 24 25  2  0
 26 29  1  0
 26 25  1  0
 27 26  2  0
 28 27  1  0
 28 23  2  0
 29 30  1  0
 30 31  1  0
 31 32  2  0
 33 32  1  0
 33 37  1  0
 34 33  2  0
 35 30  2  0
 35 34  1  0
 36 35  1  0
 38 39  1  0
 39 42  1  0
 39 41  1  0
 40 38  2  0
 43 44  1  0
 43 18  1  0
 45 43  1  0
 46 48  1  0
 47 49  2  0
 47 50  1  0
 49 51  1  0
 50 46  2  0
 51 52  1  0
 51 48  2  0
 53 52  1  0
 54 65  2  0
 55 53  1  0
 55 60  1  0
 56 64  1  0
 56 66  1  0
 57 63  1  0
 57 59  1  0
 58 64  1  0
 59 58  1  0
 60 59  2  0
 61 62  1  0
 61 55  2  0
 62 57  2  0
 63 56  1  0
 64 54  1  0
 66 68  2  0
 67 66  1  0
 69 67  1  0
 70 79  2  0
 70 75  1  0
 71 67  1  0
 71 75  1  0
 72 71  1  0
 73 74  1  0
 73 72  1  0
 74 70  1  0
 75 76  2  0
 76 77  1  0
 78 77  2  0
 79 78  1  0
 80 54  1  0
 80 85  1  0
 80 81  1  0
 81 84  1  1
 81 82  1  0
 83 81  1  0
 85 88  1  0
 86 90  1  0
 86 85  1  0
 87 86  2  0
 90 89  1  0
 92 90  1  0
 92 93  1  0
 92 91  1  0
 95 94  1  0
 96 95  1  0
 97 95  1  0
 98 95  1  0
M  ISO  4   8 100  16 100  52 101  53 101
M  END
>  <TORSDO>  (9) 
F 20

>  <SCORE>  (9) 
-14.026

>  <name>  (9) 
8

>  <ligand_id>  (9) 
8

>  <original_smiles>  (9) 
[H]c1c([H])c([H])c2c(c1[H])C([H])([H])C([H])([H])C([H])([H])C2([H])N([H])C(=O)C1([H])N(C(=O)C([H])(N([H])C(=O)C([H])(N([H])C([H])([H])[H])C([H])([H])[H])C(C([H])([H])[H])(C([H])([H])[H])C([H])([H])[H])C([H])([H])c2c([H])c(OC([H])([H])c3c([H])c([H])c(C4([H])C([H])([H])C5([H])C([H])(N([H])C(=O)N6C([H])([H])C([H])([H])C([H])([H])C([H])(n7nc(-c8c([H])c([H])c(Oc9c([H])c([H])c(F)c([H])c9F)c([H])c8[H])c(C(=O)N([H])[H])c7N([H])[H])C6([H])[H])C([H])(C([H])([H])[N+]([H])([H])[H])C([H])([H])C45[H])c([H])c3[H])c([H])c([H])c2C1([H])[H]

>  <smiles>  (9) 
[H]c1c([H])c([H])c2c(c1[H])C([H])([H])C([H])([H])C([H])([H])C2([H])N([H])C(=O)C1([H])N(C(=O)C([H])(N([H])C(=O)C([H])(N([H])C([H])([H])[H])C([H])([H])[H])C(C([H])([H])[H])(C([H])([H])[H])C([H])([H])[H])C([H])([H])c2c([H])c(OC([H])([H])c3c([H])c([H])c(C4([H])C([H])([H])C5([H])C([H])(N([H])C(=O)N6C([H])([H])C([H])([H])C([H])([H])C([H])(n7nc(-c8c([H])c([H])c(Oc9c([H])c([H])c(F)c([H])c9F)c([H])c8[H])c(C(=O)N([H])[H])c7N([H])[H])C6([H])[H])C([H])(C([H])([H])[N+]([H])([H])[H])C([H])([H])C45[H])c([H])c3[H])c([H])c([H])c2C1([H])[H]

$$$$
9:0:0
     RDKit          3D

 95103  0  0  1  0  0  0  0  0999 V2000
  -28.7640  -18.5300   21.0580 C   0  0  0  0  0  2  0  0  0  0  0  0
  -29.1260  -16.9640   21.0240 C   0  0  0  0  0  2  0  0  0  0  0  0
  -31.0670  -18.1900   20.6660 C   0  0  0  0  0  2  0  0  0  0  0  0
  -30.0300  -19.4260   21.2620 C   0  0  0  0  0  3  0  0  0  0  0  0
  -30.4210  -16.6660   20.1890 C   0  0  1  0  0  0  0  0  0  0  0  0
  -31.0940  -15.0210   20.2730 C   0  0  0  0  0  0  0  0  0  0  0  0
  -30.8890  -12.5910   19.3690 C   0  0  0  0  0  2  0  0  0  0  0  0
  -29.9630  -12.4680   18.1290 C   0  0  0  0  0  2  0  0  0  0  0  0
  -28.4930  -12.2910   18.5540 C   0  0  0  0  0  2  0  0  0  0  0  0
  -28.1010  -13.2600   19.6910 C   0  0  0  0  0  3  0  0  0  0  0  0
  -29.1530  -13.3450   20.8170 C   0  0  0  0  0  2  0  0  0  0  0  0
  -30.4340  -13.7560   20.2130 N   0  0  0  0  0  0  0  0  0  0  0  0
  -32.3150  -14.8970   20.1060 O   0  0  0  0  0  0  0  0  0  0  0  0
  -25.7700  -14.0050   20.4090 C   0  0  0  0  0  0  0  0  0  0  0  0
  -24.6510  -13.3080   20.7640 C   0  0  0  0  0  0  0  0  0  0  0  0
  -25.0260  -11.9300   20.7550 C   0  0  0  0  0  0  0  0  0  0  0  0
  -26.7530  -13.0540   20.1900 N   0  0  0  0  0  0  0  0  0  0  0  0
  -26.3160  -11.8010   20.4690 N   0  0  0  0  0  0  0  0  0  0  0  0
  -24.2150  -10.7220   20.9420 C   0  0  0  0  0  0  0  0  0  0  0  0
  -24.5890   -9.7180   21.8620 C   0  0  0  0  0  3  0  0  0  0  0  0
  -23.7810   -8.5740   22.0380 C   0  0  0  0  0  3  0  0  0  0  0  0
  -22.5860   -8.4290   21.2950 C   0  0  0  0  0  0  0  0  0  0  0  0
  -22.2310   -9.4210   20.3640 C   0  0  0  0  0  3  0  0  0  0  0  0
  -23.0390  -10.5550   20.1850 C   0  0  0  0  0  3  0  0  0  0  0  0
  -21.7520   -7.3410   21.3820 O   0  0  0  0  0  0  0  0  0  0  0  0
  -21.6520   -6.6020   22.5340 C   0  0  0  0  0  0  0  0  0  0  0  0
  -21.2530   -7.1820   23.7590 C   0  0  0  0  0  3  0  0  0  0  0  0
  -21.0960   -6.3730   24.9020 C   0  0  0  0  0  3  0  0  0  0  0  0
  -21.3280   -4.9870   24.8210 C   0  0  0  0  0  0  0  0  0  0  0  0
  -21.7210   -4.4080   23.6020 C   0  0  0  0  0  3  0  0  0  0  0  0
  -21.8800   -5.2130   22.4620 C   0  0  0  0  0  0  0  0  0  0  0  0
  -22.2390   -4.6480   21.2830 F   0  0  0  0  0  0  0  0  0  0  0  0
  -21.1700   -4.2090   25.9170 F   0  0  0  0  0  0  0  0  0  0  0  0
  -23.2850  -13.8820   21.0010 C   0  0  0  0  0  0  0  0  0  0  0  0
  -22.5100  -13.2720   21.8900 N   0  0  0  0  0  0  0  0  0  0  0  0
  -22.9150  -14.9090   20.4320 O   0  0  0  0  0  0  0  0  0  0  0  0
  -22.8220  -12.4420   22.3720 H   0  0  0  0  0  0  0  0  0  0  0  0
  -21.5920  -13.6390   22.0930 H   0  0  0  0  0  0  0  0  0  0  0  0
  -26.0250  -15.3620   20.2260 N   0  0  0  0  0  0  0  0  0  0  0  0
  -25.2970  -16.0570   20.3450 H   0  0  0  0  0  0  0  0  0  0  0  0
  -26.9150  -15.7620   19.9760 H   0  0  0  0  0  0  0  0  0  0  0  0
  -29.9210  -21.0330   20.8320 N   0  0  0  0  0  4  0  0  0  0  0  0
  -29.0630  -21.1130   20.3090 H   0  0  0  0  0  0  0  0  0  0  0  0
  -30.6480  -21.1580   20.1460 H   0  0  0  0  0  0  0  0  0  0  0  0
  -30.0110  -22.4220   21.7470 C   0  0  0  0  0  3  0  0  0  0  0  0
  -29.6000  -24.1170   21.3240 C   0  0  0  0  0  3  0  0  0  0  0  0
  -29.7260  -25.5680   22.0880 O   0  0  0  0  0  0  0  0  0  0  0  0
  -24.6360  -28.1340   26.9880 C   0  0  0  0  0  0  0  0  0  0  0  0
  -28.6650  -26.5410   22.4630 C   0  0  0  0  0  0  0  0  0  0  0  0
  -24.2480  -28.5320   24.5880 C   0  0  0  0  0  3  0  0  0  0  0  0
  -26.2840  -28.2160   23.0230 C   0  0  0  0  0  0  0  0  0  0  0  0
  -26.6630  -28.3780   25.4750 C   0  0  0  0  0  2  0  0  0  0  0  0
  -27.1290  -27.8680   24.0840 C   0  0  0  0  0  0  0  0  0  0  0  0
  -28.3160  -27.0590   23.8020 C   0  0  0  0  0  3  0  0  0  0  0  0
  -27.7940  -27.0350   21.4640 C   0  0  0  0  0  3  0  0  0  0  0  0
  -26.6430  -27.8240   21.7230 C   0  0  0  0  0  3  0  0  0  0  0  0
  -25.0090  -29.0040   23.3180 C   0  0  0  0  0  2  0  0  0  0  0  0
  -25.1810  -28.3250   25.7430 N   0  0  0  0  0  0  0  0  0  0  0  0
  -23.4070  -28.1360   27.1700 O   0  0  0  0  0  0  0  0  0  0  0  0
  -23.4060  -27.2740   24.2520 C   0  0  0  0  0  0  0  0  0  0  0  0
  -22.3850  -27.4220   23.3870 N   0  0  0  0  0  0  0  0  0  0  0  0
  -23.6940  -26.1830   24.7490 O   0  0  0  0  0  0  0  0  0  0  0  0
  -22.1980  -28.3470   23.0280 H   0  0  0  0  0  0  0  0  0  0  0  0
  -19.7110  -26.6350   21.0650 C   0  0  0  0  0  0  0  0  0  0  0  0
  -21.5170  -26.3470   22.8950 C   0  0  0  0  0  3  0  0  0  0  0  0
  -22.2590  -25.4560   21.8720 C   0  0  0  0  0  2  0  0  0  0  0  0
  -22.0430  -25.8960   20.4210 C   0  0  0  0  0  2  0  0  0  0  0  0
  -20.5540  -25.8630   20.0650 C   0  0  0  0  0  2  0  0  0  0  0  0
  -20.1690  -26.8770   22.3880 C   0  0  0  0  0  0  0  0  0  0  0  0
  -19.3570  -27.6270   23.2660 C   0  0  0  0  0  3  0  0  0  0  0  0
  -18.1120  -28.1320   22.8430 C   0  0  0  0  0  3  0  0  0  0  0  0
  -17.6590  -27.8790   21.5360 C   0  0  0  0  0  3  0  0  0  0  0  0
  -18.4550  -27.1290   20.6520 C   0  0  0  0  0  3  0  0  0  0  0  0
  -25.5300  -27.9210   28.2470 C   0  0  0  0  0  3  0  0  0  0  0  0
  -24.6700  -28.0360   29.4380 N   0  0  0  0  0  0  0  0  0  0  0  0
  -24.7640  -29.0020   30.3630 C   0  0  0  0  0  0  0  0  0  0  0  0
  -25.6380  -29.8720   30.3290 O   0  0  0  0  0  0  0  0  0  0  0  0
  -23.8960  -27.3910   29.4990 H   0  0  0  0  0  0  0  0  0  0  0  0
  -22.6840  -30.1050   31.2560 C   0  0  0  0  0  1  0  0  0  0  0  0
  -23.7270  -29.0040   31.5040 C   0  0  0  0  0  3  0  0  0  0  0  0
  -25.0830  -28.0230   33.3030 C   0  0  0  0  0  1  0  0  0  0  0  0
  -24.3270  -29.1850   32.8460 N   0  0  0  0  0  0  0  0  0  0  0  0
  -23.6100  -29.3900   33.5370 H   0  0  0  0  0  0  0  0  0  0  0  0
  -26.2760  -26.5290   28.2490 C   0  0  1  0  0  0  0  0  0  0  0  0
  -25.3360  -25.3180   28.0360 C   0  0  0  0  0  1  0  0  0  0  0  0
  -27.3570  -26.4800   27.1450 C   0  0  0  0  0  1  0  0  0  0  0  0
  -27.0140  -26.3320   29.5940 C   0  0  0  0  0  1  0  0  0  0  0  0
  -30.1410  -16.9350   18.6760 C   0  0  0  0  0  2  0  0  0  0  0  0
  -31.3540  -17.2060   17.8640 N   0  0  0  0  0  4  0  0  0  0  0  0
  -31.9810  -16.4190   17.9060 H   0  0  0  0  0  0  0  0  0  0  0  0
  -31.8470  -17.9930   18.2600 H   0  0  0  0  0  0  0  0  0  0  0  0
  -31.0750  -17.5040   16.4420 C   0  0  0  0  0  2  0  0  0  0  0  0
  -32.3570  -17.8660   15.6680 C   0  0  0  0  0  2  0  0  0  0  0  0
  -33.3540  -18.5800   13.4250 C   0  0  0  0  0  1  0  0  0  0  0  0
  -32.0790  -18.2090   14.1950 C   0  0  0  0  0  2  0  0  0  0  0  0
  1  4  1  0
  2  1  1  0
  3  4  1  0
  4 42  1  0
  5 88  1  6
  5  6  1  0
  5  3  1  0
  5  2  1  0
  7 12  1  0
  8  9  1  0
  8  7  1  0
 10  9  1  0
 10 17  1  0
 10 11  1  0
 12  6  1  0
 12 11  1  0
 13  6  2  0
 14 15  2  0
 15 34  1  0
 16 15  1  0
 16 19  1  0
 17 14  1  0
 17 18  1  0
 18 16  2  0
 19 20  1  0
 20 21  2  0
 22 25  1  0
 22 21  1  0
 23 22  2  0
 24 23  1  0
 24 19  2  0
 25 26  1  0
 26 27  1  0
 27 28  2  0
 29 28  1  0
 29 33  1  0
 30 29  2  0
 31 26  2  0
 31 30  1  0
 32 31  1  0
 34 35  1  0
 35 38  1  0
 35 37  1  0
 36 34  2  0
 39 40  1  0
 39 14  1  0
 41 39  1  0
 42 45  1  0
 43 42  1  0
 44 42  1  0
 46 45  2  0
 46 47  1  0
 47 49  1  0
 48 59  2  0
 49 54  1  0
 50 60  1  0
 50 58  1  0
 51 57  1  0
 51 53  1  0
 52 58  1  0
 53 52  1  0
 54 53  2  0
 55 56  1  0
 55 49  2  0
 56 51  2  0
 57 50  1  0
 58 48  1  0
 60 62  2  0
 61 60  1  0
 63 61  1  0
 64 69  1  0
 65 61  1  0
 66 65  1  0
 67 66  1  0
 68 67  1  0
 68 64  1  0
 69 65  1  0
 69 70  2  0
 71 70  1  0
 72 71  2  0
 73 64  2  0
 73 72  1  0
 74 48  1  0
 74 84  1  0
 74 75  1  0
 75 78  1  0
 75 76  1  0
 76 80  1  0
 77 76  2  0
 80 79  1  0
 80 82  1  0
 82 81  1  0
 82 83  1  0
 84 87  1  1
 85 84  1  0
 86 84  1  0
 89 90  1  0
 89 91  1  0
 89 88  1  0
 92 89  1  0
 93 92  1  0
 94 95  1  0
 95 93  1  0
M  ISO  4   5 100   6 100  46 101  47 101
M  END
>  <TORSDO>  (10) 
F 24

>  <SCORE>  (10) 
-9.401

>  <name>  (10) 
9

>  <ligand_id>  (10) 
9

>  <original_smiles>  (10) 
[H]c1c([H])c([H])c2c(c1[H])C([H])([H])C([H])([H])C([H])([H])C2([H])N([H])C(=O)C1([H])N(C(=O)C([H])(N([H])C(=O)C([H])(N([H])C([H])([H])[H])C([H])([H])[H])C(C([H])([H])[H])(C([H])([H])[H])C([H])([H])[H])C([H])([H])c2c([H])c(OC([H])([H])C([H])([H])[N+]([H])([H])C3([H])C([H])([H])C([H])([H])C(C(=O)N4C([H])([H])C([H])([H])C([H])([H])C([H])(n5nc(-c6c([H])c([H])c(Oc7c([H])c([H])c(F)c([H])c7F)c([H])c6[H])c(C(=O)N([H])[H])c5N([H])[H])C4([H])[H])(C([H])([H])[N+]([H])([H])C([H])([H])C([H])([H])C([H])([H])C([H])([H])[H])C3([H])[H])c([H])c([H])c2C1([H])[H]

>  <smiles>  (10) 
[H]c1c([H])c([H])c2c(c1[H])C([H])([H])C([H])([H])C([H])([H])C2([H])N([H])C(=O)C1([H])N(C(=O)C([H])(N([H])C(=O)C([H])(N([H])C([H])([H])[H])C([H])([H])[H])C(C([H])([H])[H])(C([H])([H])[H])C([H])([H])[H])C([H])([H])c2c([H])c(OC([H])([H])C([H])([H])[N+]([H])([H])C3([H])C([H])([H])C([H])([H])C(C(=O)N4C([H])([H])C([H])([H])C([H])([H])C([H])(n5nc(-c6c([H])c([H])c(Oc7c([H])c([H])c(F)c([H])c7F)c([H])c6[H])c(C(=O)N([H])[H])c5N([H])[H])C4([H])[H])(C([H])([H])[N+]([H])([H])C([H])([H])C([H])([H])C([H])([H])C([H])([H])[H])C3([H])[H])c([H])c([H])c2C1([H])[H]

$$$$
10:0:0
     RDKit          3D

 89 97  0  0  1  0  0  0  0  0999 V2000
  -29.9240  -22.9240   19.0170 C   0  0  0  0  0  3  0  0  0  0  0  0
  -30.4030  -21.5550   19.1290 C   0  0  0  0  0  3  0  0  0  0  0  0
  -28.5920  -22.6040   20.9380 C   0  0  0  0  0  3  0  0  0  0  0  0
  -29.0060  -23.5370   19.9360 C   0  0  0  0  0  0  0  0  0  0  0  0
  -29.9870  -20.6250   20.1450 C   0  0  0  0  0  0  0  0  0  0  0  0
  -29.0360  -21.2290   21.0420 C   0  0  0  0  0  0  0  0  0  0  0  0
  -28.4360  -20.4050   22.1700 C   0  0  0  0  0  1  0  0  0  0  0  0
  -30.6400  -19.1380   20.4110 C   0  0  0  0  0  2  0  0  0  0  0  0
  -30.4780  -17.7630   19.5150 C   0  0  0  0  0  2  0  0  0  0  0  0
  -31.2200  -15.1550   19.8710 C   0  0  0  0  0  0  0  0  0  0  0  0
  -30.9840  -12.8050   19.0080 C   0  0  0  0  0  2  0  0  0  0  0  0
  -30.0030  -12.8150   17.8110 C   0  0  0  0  0  2  0  0  0  0  0  0
  -28.5530  -12.6540   18.3090 C   0  0  0  0  0  2  0  0  0  0  0  0
  -28.2280  -13.6090   19.4900 C   0  0  0  0  0  3  0  0  0  0  0  0
  -29.3290  -13.5810   20.5780 C   0  0  0  0  0  2  0  0  0  0  0  0
  -30.6010  -13.9160   19.9200 N   0  0  0  0  0  0  0  0  0  0  0  0
  -32.3700  -15.2240   19.4270 O   0  0  0  0  0  0  0  0  0  0  0  0
  -30.4690  -16.3150   20.1180 N   0  0  0  0  0  0  0  0  0  0  0  0
  -29.5920  -16.0920   20.5650 H   0  0  0  0  0  0  0  0  0  0  0  0
  -25.9200  -14.2800   20.3840 C   0  0  0  0  0  0  0  0  0  0  0  0
  -24.8360  -13.5440   20.7740 C   0  0  0  0  0  0  0  0  0  0  0  0
  -25.2210  -12.1730   20.6480 C   0  0  0  0  0  0  0  0  0  0  0  0
  -26.9000  -13.3610   20.0440 N   0  0  0  0  0  0  0  0  0  0  0  0
  -26.4890  -12.0850   20.2650 N   0  0  0  0  0  0  0  0  0  0  0  0
  -24.4350  -10.9420   20.8150 C   0  0  0  0  0  0  0  0  0  0  0  0
  -24.8050   -9.9500   21.7480 C   0  0  0  0  0  3  0  0  0  0  0  0
  -24.0230   -8.7850   21.9010 C   0  0  0  0  0  3  0  0  0  0  0  0
  -22.8570   -8.6050   21.1220 C   0  0  0  0  0  0  0  0  0  0  0  0
  -22.5030   -9.5860   20.1790 C   0  0  0  0  0  3  0  0  0  0  0  0
  -23.2850  -10.7430   20.0230 C   0  0  0  0  0  3  0  0  0  0  0  0
  -22.0500   -7.4950   21.1850 O   0  0  0  0  0  0  0  0  0  0  0  0
  -21.8670   -6.8050   22.3570 C   0  0  0  0  0  0  0  0  0  0  0  0
  -21.3040   -7.4130   23.4990 C   0  0  0  0  0  3  0  0  0  0  0  0
  -21.0680   -6.6490   24.6600 C   0  0  0  0  0  3  0  0  0  0  0  0
  -21.3850   -5.2780   24.6780 C   0  0  0  0  0  0  0  0  0  0  0  0
  -21.9420   -4.6680   23.5390 C   0  0  0  0  0  3  0  0  0  0  0  0
  -22.1780   -5.4300   22.3810 C   0  0  0  0  0  0  0  0  0  0  0  0
  -22.6950   -4.8320   21.2800 F   0  0  0  0  0  0  0  0  0  0  0  0
  -21.1520   -4.5430   25.7900 F   0  0  0  0  0  0  0  0  0  0  0  0
  -23.4840  -14.0790   21.1460 C   0  0  0  0  0  0  0  0  0  0  0  0
  -22.7720  -13.3820   22.0210 N   0  0  0  0  0  0  0  0  0  0  0  0
  -23.0730  -15.1500   20.6990 O   0  0  0  0  0  0  0  0  0  0  0  0
  -23.1160  -12.5130   22.4020 H   0  0  0  0  0  0  0  0  0  0  0  0
  -21.8670  -13.7220   22.3150 H   0  0  0  0  0  0  0  0  0  0  0  0
  -26.1450  -15.6480   20.2670 N   0  0  0  0  0  0  0  0  0  0  0  0
  -25.4050  -16.3220   20.4310 H   0  0  0  0  0  0  0  0  0  0  0  0
  -26.9750  -16.0640   19.8640 H   0  0  0  0  0  0  0  0  0  0  0  0
  -28.1850  -24.9320   19.6960 C   0  0  0  0  0  2  0  0  0  0  0  0
  -28.5280  -26.3970   20.0350 O   0  0  0  0  0  0  0  0  0  0  0  0
  -24.6890  -31.8260   23.1720 C   0  0  0  0  0  0  0  0  0  0  0  0
  -27.4590  -27.3610   19.9690 C   0  0  0  0  0  0  0  0  0  0  0  0
  -23.5480  -30.4380   21.4880 C   0  0  0  0  0  3  0  0  0  0  0  0
  -25.0600  -28.9940   20.0040 C   0  0  0  0  0  0  0  0  0  0  0  0
  -26.0890  -30.8240   21.3350 C   0  0  0  0  0  2  0  0  0  0  0  0
  -26.2200  -29.4630   20.6340 C   0  0  0  0  0  0  0  0  0  0  0  0
  -27.4200  -28.6610   20.6080 C   0  0  0  0  0  3  0  0  0  0  0  0
  -26.2730  -27.0110   19.2800 C   0  0  0  0  0  3  0  0  0  0  0  0
  -25.0970  -27.7790   19.3130 C   0  0  0  0  0  3  0  0  0  0  0  0
  -23.7950  -29.8280   20.0850 C   0  0  0  0  0  2  0  0  0  0  0  0
  -24.7940  -31.0480   22.0530 N   0  0  0  0  0  0  0  0  0  0  0  0
  -23.5920  -32.0440   23.7080 O   0  0  0  0  0  0  0  0  0  0  0  0
  -22.9190  -29.3640   22.4110 C   0  0  0  0  0  0  0  0  0  0  0  0
  -21.6050  -29.1230   22.2620 N   0  0  0  0  0  0  0  0  0  0  0  0
  -23.6160  -28.7530   23.2250 O   0  0  0  0  0  0  0  0  0  0  0  0
  -21.0950  -29.6700   21.5810 H   0  0  0  0  0  0  0  0  0  0  0  0
  -18.2910  -27.7280   22.6880 C   0  0  0  0  0  0  0  0  0  0  0  0
  -20.8270  -28.1240   22.9990 C   0  0  0  0  0  3  0  0  0  0  0  0
  -21.0160  -26.7140   22.3910 C   0  0  0  0  0  2  0  0  0  0  0  0
  -19.9480  -26.3550   21.3550 C   0  0  0  0  0  2  0  0  0  0  0  0
  -18.5530  -26.4080   21.9820 C   0  0  0  0  0  2  0  0  0  0  0  0
  -19.3600  -28.5400   23.1520 C   0  0  0  0  0  0  0  0  0  0  0  0
  -19.0620  -29.7740   23.7720 C   0  0  0  0  0  3  0  0  0  0  0  0
  -17.7280  -30.1960   23.9320 C   0  0  0  0  0  3  0  0  0  0  0  0
  -16.6750  -29.3820   23.4820 C   0  0  0  0  0  3  0  0  0  0  0  0
  -16.9570  -28.1490   22.8670 C   0  0  0  0  0  3  0  0  0  0  0  0
  -25.9400  -32.4930   23.8170 C   0  0  0  0  0  3  0  0  0  0  0  0
  -26.4570  -31.7310   25.0990 C   0  0  1  0  0  0  0  0  0  0  0  0
  -25.3510  -31.4490   26.1430 C   0  0  0  0  0  1  0  0  0  0  0  0
  -27.0950  -30.3760   24.7160 C   0  0  0  0  0  1  0  0  0  0  0  0
  -27.5650  -32.5600   25.7900 C   0  0  0  0  0  1  0  0  0  0  0  0
  -25.5810  -33.8790   24.1540 N   0  0  0  0  0  0  0  0  0  0  0  0
  -25.8800  -34.9480   23.4050 C   0  0  0  0  0  0  0  0  0  0  0  0
  -26.5560  -34.8750   22.3760 O   0  0  0  0  0  0  0  0  0  0  0  0
  -24.9760  -34.0080   24.9520 H   0  0  0  0  0  0  0  0  0  0  0  0
  -24.0930  -36.6890   23.0660 C   0  0  0  0  0  1  0  0  0  0  0  0
  -25.3470  -36.3180   23.8740 C   0  0  0  0  0  3  0  0  0  0  0  0
  -27.4450  -37.2760   24.7190 C   0  0  0  0  0  1  0  0  0  0  0  0
  -26.3450  -37.4050   23.7670 N   0  0  0  0  0  0  0  0  0  0  0  0
  -25.9070  -38.3120   23.9090 H   0  0  0  0  0  0  0  0  0  0  0  0
  1  2  2  0
  1  4  1  0
  2  5  1  0
  3  6  1  0
  4  3  2  0
  5  8  1  0
  5  6  2  0
  6  7  1  0
  9 18  1  0
  9  8  1  0
 10 16  1  0
 10 18  1  0
 11 16  1  0
 12 13  1  0
 12 11  1  0
 14 13  1  0
 14 23  1  0
 14 15  1  0
 16 15  1  0
 17 10  2  0
 18 19  1  0
 20 21  2  0
 21 40  1  0
 22 21  1  0
 22 25  1  0
 23 24  1  0
 23 20  1  0
 24 22  2  0
 25 26  1  0
 26 27  2  0
 28 31  1  0
 28 27  1  0
 29 28  2  0
 30 29  1  0
 30 25  2  0
 31 32  1  0
 32 37  2  0
 32 33  1  0
 33 34  2  0
 34 35  1  0
 35 39  1  0
 36 35  2  0
 37 36  1  0
 38 37  1  0
 40 41  1  0
 41 44  1  0
 41 43  1  0
 42 40  2  0
 45 20  1  0
 45 46  1  0
 47 45  1  0
 48  4  1  0
 48 49  1  0
 50 61  2  0
 51 49  1  0
 51 56  1  0
 52 60  1  0
 52 62  1  0
 53 59  1  0
 53 55  1  0
 54 60  1  0
 55 54  1  0
 56 55  2  0
 57 58  1  0
 57 51  2  0
 58 53  2  0
 59 52  1  0
 60 50  1  0
 62 64  2  0
 63 62  1  0
 65 63  1  0
 66 75  2  0
 66 71  1  0
 67 63  1  0
 67 71  1  0
 68 67  1  0
 69 70  1  0
 69 68  1  0
 70 66  1  0
 71 72  2  0
 72 73  1  0
 74 73  2  0
 75 74  1  0
 76 50  1  0
 76 81  1  0
 76 77  1  0
 77 80  1  1
 77 78  1  0
 79 77  1  0
 81 84  1  0
 82 86  1  0
 82 81  1  0
 83 82  2  0
 86 85  1  0
 88 86  1  0
 88 89  1  0
 88 87  1  0
M  ISO  4  10 100  18 100  48 101  49 101
M  END
>  <TORSDO>  (11) 
F 19

>  <SCORE>  (11) 
-11.530

>  <name>  (11) 
10

>  <ligand_id>  (11) 
10

>  <original_smiles>  (11) 
[H]c1c([H])c([H])c2c(c1[H])C([H])([H])C([H])([H])C([H])([H])C2([H])N([H])C(=O)C1([H])N(C(=O)C([H])(N([H])C(=O)C([H])(N([H])C([H])([H])[H])C([H])([H])[H])C(C([H])([H])[H])(C([H])([H])[H])C([H])([H])[H])C([H])([H])c2c([H])c(OC([H])([H])c3c([H])c([H])c(C([H])([H])C([H])([H])N([H])C(=O)N4C([H])([H])C([H])([H])C([H])([H])C([H])(n5nc(-c6c([H])c([H])c(Oc7c([H])c([H])c(F)c([H])c7F)c([H])c6[H])c(C(=O)N([H])[H])c5N([H])[H])C4([H])[H])c(C([H])([H])[H])c3[H])c([H])c([H])c2C1([H])[H]

>  <smiles>  (11) 
[H]c1c([H])c([H])c2c(c1[H])C([H])([H])C([H])([H])C([H])([H])C2([H])N([H])C(=O)C1([H])N(C(=O)C([H])(N([H])C(=O)C([H])(N([H])C([H])([H])[H])C([H])([H])[H])C(C([H])([H])[H])(C([H])([H])[H])C([H])([H])[H])C([H])([H])c2c([H])c(OC([H])([H])c3c([H])c([H])c(C([H])([H])C([H])([H])N([H])C(=O)N4C([H])([H])C([H])([H])C([H])([H])C([H])(n5nc(-c6c([H])c([H])c(Oc7c([H])c([H])c(F)c([H])c7F)c([H])c6[H])c(C(=O)N([H])[H])c5N([H])[H])C4([H])[H])c(C([H])([H])[H])c3[H])c([H])c([H])c2C1([H])[H]

$$$$
11:0:0
     RDKit          3D

 98106  0  0  1  0  0  0  0  0999 V2000
  -29.7700  -24.2990   17.5680 C   0  0  0  0  0  0  0  0  0  0  0  0
  -29.2710  -23.0530   17.5920 N   0  0  0  0  0  0  0  0  0  0  0  0
  -30.9480  -24.5570   17.8190 O   0  0  0  0  0  0  0  0  0  0  0  0
  -28.2740  -22.9830   17.4330 H   0  0  0  0  0  0  0  0  0  0  0  0
  -27.3630  -26.0970   15.2210 C   0  0  0  0  0  3  0  0  0  0  0  0
  -27.2230  -27.3530   15.8300 C   0  0  0  0  0  3  0  0  0  0  0  0
  -28.1680  -25.1140   15.8280 C   0  0  0  0  0  3  0  0  0  0  0  0
  -27.8750  -27.6160   17.0470 C   0  0  0  0  0  3  0  0  0  0  0  0
  -28.8330  -25.3610   17.0530 C   0  0  0  0  0  0  0  0  0  0  0  0
  -28.6690  -26.6310   17.6810 C   0  0  0  0  0  0  0  0  0  0  0  0
  -29.2620  -26.9860   19.0460 C   0  0  0  0  0  2  0  0  0  0  0  0
  -28.3930  -26.6670   20.1340 O   0  0  0  0  0  0  0  0  0  0  0  0
  -24.6180  -31.8570   23.2460 C   0  0  0  0  0  0  0  0  0  0  0  0
  -27.2350  -27.4020   20.1830 C   0  0  0  0  0  0  0  0  0  0  0  0
  -23.3990  -30.4540   21.6130 C   0  0  0  0  0  3  0  0  0  0  0  0
  -24.8410  -28.8930   20.2040 C   0  0  0  0  0  0  0  0  0  0  0  0
  -25.9260  -30.8000   21.4090 C   0  0  0  0  0  2  0  0  0  0  0  0
  -26.0040  -29.4240   20.7810 C   0  0  0  0  0  0  0  0  0  0  0  0
  -27.2060  -28.6840   20.7700 C   0  0  0  0  0  3  0  0  0  0  0  0
  -26.0520  -26.8630   19.6370 C   0  0  0  0  0  3  0  0  0  0  0  0
  -24.8580  -27.6090   19.6330 C   0  0  0  0  0  3  0  0  0  0  0  0
  -23.6040  -29.7620   20.2380 C   0  0  0  0  0  2  0  0  0  0  0  0
  -24.6660  -31.0520   22.1470 N   0  0  0  0  0  0  0  0  0  0  0  0
  -23.5410  -32.1420   23.7860 O   0  0  0  0  0  0  0  0  0  0  0  0
  -22.7400  -29.4450   22.5790 C   0  0  0  0  0  0  0  0  0  0  0  0
  -21.4180  -29.2610   22.4420 N   0  0  0  0  0  0  0  0  0  0  0  0
  -23.4170  -28.8290   23.4070 O   0  0  0  0  0  0  0  0  0  0  0  0
  -20.9340  -29.8100   21.7470 H   0  0  0  0  0  0  0  0  0  0  0  0
  -18.0460  -28.0490   22.8930 C   0  0  0  0  0  0  0  0  0  0  0  0
  -20.5930  -28.3330   23.2150 C   0  0  0  0  0  3  0  0  0  0  0  0
  -20.7200  -26.8900   22.6730 C   0  0  0  0  0  2  0  0  0  0  0  0
  -19.6440  -26.5370   21.6430 C   0  0  0  0  0  2  0  0  0  0  0  0
  -18.2470  -26.6860   22.2510 C   0  0  0  0  0  2  0  0  0  0  0  0
  -19.1480  -28.8290   23.3320 C   0  0  0  0  0  0  0  0  0  0  0  0
  -18.9090  -30.1040   23.8880 C   0  0  0  0  0  3  0  0  0  0  0  0
  -17.5980  -30.6000   24.0120 C   0  0  0  0  0  3  0  0  0  0  0  0
  -16.5080  -29.8170   23.5930 C   0  0  0  0  0  3  0  0  0  0  0  0
  -16.7330  -28.5440   23.0390 C   0  0  0  0  0  3  0  0  0  0  0  0
  -25.9110  -32.4800   23.8610 C   0  0  0  0  0  3  0  0  0  0  0  0
  -26.4350  -31.6990   25.1290 C   0  0  1  0  0  0  0  0  0  0  0  0
  -25.3510  -31.4640   26.2050 C   0  0  0  0  0  1  0  0  0  0  0  0
  -27.0050  -30.3200   24.7220 C   0  0  0  0  0  1  0  0  0  0  0  0
  -27.5960  -32.4840   25.7850 C   0  0  0  0  0  1  0  0  0  0  0  0
  -25.6110  -33.8780   24.1960 N   0  0  0  0  0  0  0  0  0  0  0  0
  -25.9450  -34.9290   23.4370 C   0  0  0  0  0  0  0  0  0  0  0  0
  -26.6110  -34.8250   22.4030 O   0  0  0  0  0  0  0  0  0  0  0  0
  -25.0220  -34.0340   25.0010 H   0  0  0  0  0  0  0  0  0  0  0  0
  -24.2210  -36.7270   23.0960 C   0  0  0  0  0  1  0  0  0  0  0  0
  -25.4670  -36.3190   23.8990 C   0  0  0  0  0  3  0  0  0  0  0  0
  -27.6130  -37.1920   24.7120 C   0  0  0  0  0  1  0  0  0  0  0  0
  -26.5020  -37.3680   23.7800 N   0  0  0  0  0  0  0  0  0  0  0  0
  -26.1020  -38.2890   23.9350 H   0  0  0  0  0  0  0  0  0  0  0  0
  -30.0520  -21.8430   17.3260 C   0  0  0  0  0  2  0  0  0  0  0  0
  -31.0190  -21.4020   18.4420 C   0  0  0  0  0  2  0  0  0  0  0  0
  -30.3850  -20.5980   19.5930 C   0  0  0  0  0  2  0  0  0  0  0  0
  -31.4700  -19.9010   20.4430 C   0  0  0  0  0  2  0  0  0  0  0  0
  -30.9630  -19.1970   21.7180 C   0  0  0  0  0  2  0  0  0  0  0  0
  -30.1380  -17.9070   21.5160 C   0  0  0  0  0  2  0  0  0  0  0  0
  -30.9280  -16.7480   21.0320 N   0  0  0  0  0  4  0  0  0  0  0  0
  -31.1610  -16.8700   20.0600 H   0  0  0  0  0  0  0  0  0  0  0  0
  -31.7980  -16.6820   21.5350 H   0  0  0  0  0  0  0  0  0  0  0  0
  -30.2220  -15.4530   21.1610 C   0  0  0  0  0  2  0  0  0  0  0  0
  -30.8000  -14.3660   20.2400 C   0  0  0  0  0  0  0  0  0  0  0  0
  -30.3930  -12.2860   18.9640 C   0  0  0  0  0  2  0  0  0  0  0  0
  -29.3960  -12.5620   17.8190 C   0  0  0  0  0  2  0  0  0  0  0  0
  -27.9380  -12.4520   18.3130 C   0  0  0  0  0  2  0  0  0  0  0  0
  -27.6870  -13.2540   19.6180 C   0  0  0  0  0  3  0  0  0  0  0  0
  -28.7810  -12.9370   20.6630 C   0  0  0  0  0  2  0  0  0  0  0  0
  -30.0900  -13.2230   20.0540 N   0  0  0  0  0  0  0  0  0  0  0  0
  -31.8560  -14.6020   19.6440 O   0  0  0  0  0  0  0  0  0  0  0  0
  -25.3320  -13.9210   20.4180 C   0  0  0  0  0  0  0  0  0  0  0  0
  -24.2600  -13.1740   20.8290 C   0  0  0  0  0  0  0  0  0  0  0  0
  -24.6890  -11.8120   20.7810 C   0  0  0  0  0  0  0  0  0  0  0  0
  -26.3460  -13.0150   20.1470 N   0  0  0  0  0  0  0  0  0  0  0  0
  -25.9640  -11.7420   20.4210 N   0  0  0  0  0  0  0  0  0  0  0  0
  -23.9430  -10.5670   21.0010 C   0  0  0  0  0  0  0  0  0  0  0  0
  -24.4010   -9.5830   21.9040 C   0  0  0  0  0  3  0  0  0  0  0  0
  -23.6580   -8.4000   22.1120 C   0  0  0  0  0  3  0  0  0  0  0  0
  -22.4430   -8.1950   21.4160 C   0  0  0  0  0  0  0  0  0  0  0  0
  -22.0040   -9.1680   20.5010 C   0  0  0  0  0  3  0  0  0  0  0  0
  -22.7470  -10.3410   20.2910 C   0  0  0  0  0  3  0  0  0  0  0  0
  -21.6680   -7.0660   21.5340 O   0  0  0  0  0  0  0  0  0  0  0  0
  -21.6680   -6.3100   22.6790 C   0  0  0  0  0  0  0  0  0  0  0  0
  -21.3490   -6.8630   23.9380 C   0  0  0  0  0  3  0  0  0  0  0  0
  -21.2940   -6.0350   25.0760 C   0  0  0  0  0  3  0  0  0  0  0  0
  -21.5480   -4.6550   24.9570 C   0  0  0  0  0  0  0  0  0  0  0  0
  -21.8600   -4.1010   23.7040 C   0  0  0  0  0  3  0  0  0  0  0  0
  -21.9170   -4.9270   22.5670 C   0  0  0  0  0  0  0  0  0  0  0  0
  -22.1980   -4.3860   21.3570 F   0  0  0  0  0  0  0  0  0  0  0  0
  -21.4870   -3.8580   26.0500 F   0  0  0  0  0  0  0  0  0  0  0  0
  -22.8870  -13.6820   21.1590 C   0  0  0  0  0  0  0  0  0  0  0  0
  -22.1800  -13.0040   22.0560 N   0  0  0  0  0  0  0  0  0  0  0  0
  -22.4490  -14.7170   20.6550 O   0  0  0  0  0  0  0  0  0  0  0  0
  -22.5470  -12.1680   22.4860 H   0  0  0  0  0  0  0  0  0  0  0  0
  -21.2590  -13.3250   22.3170 H   0  0  0  0  0  0  0  0  0  0  0  0
  -25.5200  -15.2870   20.2310 N   0  0  0  0  0  0  0  0  0  0  0  0
  -24.7700  -15.9570   20.3600 H   0  0  0  0  0  0  0  0  0  0  0  0
  -26.3590  -15.7040   19.8450 H   0  0  0  0  0  0  0  0  0  0  0  0
  1  2  1  0
  1  3  2  0
  4  2  1  0
  5  7  2  0
  5  6  1  0
  6  8  2  0
  7  9  1  0
  8 10  1  0
  9  1  1  0
  9 10  2  0
 10 11  1  0
 11 12  1  0
 12 14  1  0
 13 24  2  0
 14 19  1  0
 15 23  1  0
 15 25  1  0
 16 22  1  0
 16 18  1  0
 17 23  1  0
 18 17  1  0
 19 18  2  0
 20 14  2  0
 21 20  1  0
 21 16  2  0
 22 15  1  0
 23 13  1  0
 25 27  2  0
 26 25  1  0
 28 26  1  0
 29 38  2  0
 29 34  1  0
 30 26  1  0
 30 34  1  0
 31 30  1  0
 32 33  1  0
 32 31  1  0
 33 29  1  0
 34 35  2  0
 35 36  1  0
 37 36  2  0
 38 37  1  0
 39 13  1  0
 39 44  1  0
 39 40  1  0
 40 43  1  1
 40 41  1  0
 42 40  1  0
 44 47  1  0
 45 49  1  0
 45 44  1  0
 46 45  2  0
 49 48  1  0
 51 49  1  0
 51 52  1  0
 51 50  1  0
 53  2  1  0
 53 54  1  0
 54 55  1  0
 55 56  1  0
 56 57  1  0
 58 57  1  0
 59 62  1  0
 59 58  1  0
 59 61  1  0
 60 59  1  0
 63 62  1  0
 64 69  1  0
 65 66  1  0
 65 64  1  0
 67 66  1  0
 67 74  1  0
 67 68  1  0
 69 63  1  0
 69 68  1  0
 70 63  2  0
 71 72  2  0
 72 91  1  0
 73 72  1  0
 73 76  1  0
 74 71  1  0
 74 75  1  0
 75 73  2  0
 76 77  1  0
 77 78  2  0
 79 82  1  0
 79 78  1  0
 80 79  2  0
 81 80  1  0
 81 76  2  0
 82 83  1  0
 83 84  1  0
 84 85  2  0
 86 85  1  0
 86 90  1  0
 87 86  2  0
 88 83  2  0
 88 87  1  0
 89 88  1  0
 91 92  1  0
 92 95  1  0
 92 94  1  0
 93 91  2  0
 96 97  1  0
 96 71  1  0
 98 96  1  0
M  ISO  4  11 101  12 101  62 100  63 100
M  END
>  <TORSDO>  (12) 
F 26

>  <SCORE>  (12) 
-11.850

>  <name>  (12) 
11

>  <ligand_id>  (12) 
11

>  <original_smiles>  (12) 
[H]c1c([H])c([H])c(C([H])([H])Oc2c([H])c([H])c3c(c2[H])C([H])([H])N(C(=O)C([H])(N([H])C(=O)C([H])(N([H])C([H])([H])[H])C([H])([H])[H])C(C([H])([H])[H])(C([H])([H])[H])C([H])([H])[H])C([H])(C(=O)N([H])C2([H])c4c([H])c([H])c([H])c([H])c4C([H])([H])C([H])([H])C2([H])[H])C3([H])[H])c(C(=O)N([H])C([H])([H])C([H])([H])C([H])([H])C([H])([H])C([H])([H])C([H])([H])[N+]([H])([H])C([H])([H])C(=O)N2C([H])([H])C([H])([H])C([H])([H])C([H])(n3nc(-c4c([H])c([H])c(Oc5c([H])c([H])c(F)c([H])c5F)c([H])c4[H])c(C(=O)N([H])[H])c3N([H])[H])C2([H])[H])c1[H]

>  <smiles>  (12) 
[H]c1c([H])c([H])c(C([H])([H])Oc2c([H])c([H])c3c(c2[H])C([H])([H])N(C(=O)C([H])(N([H])C(=O)C([H])(N([H])C([H])([H])[H])C([H])([H])[H])C(C([H])([H])[H])(C([H])([H])[H])C([H])([H])[H])C([H])(C(=O)N([H])C2([H])c4c([H])c([H])c([H])c([H])c4C([H])([H])C([H])([H])C2([H])[H])C3([H])[H])c(C(=O)N([H])C([H])([H])C([H])([H])C([H])([H])C([H])([H])C([H])([H])C([H])([H])[N+]([H])([H])C([H])([H])C(=O)N2C([H])([H])C([H])([H])C([H])([H])C([H])(n3nc(-c4c([H])c([H])c(Oc5c([H])c([H])c(F)c([H])c5F)c([H])c4[H])c(C(=O)N([H])[H])c3N([H])[H])C2([H])[H])c1[H]

$$$$
12:0:0
     RDKit          3D

 92100  0  0  1  0  0  0  0  0999 V2000
  -29.1280  -24.2500   22.6770 C   0  0  0  0  0  3  0  0  0  0  0  0
  -28.8690  -25.4010   21.9120 C   0  0  0  0  0  3  0  0  0  0  0  0
  -28.8660  -24.0160   19.9280 C   0  0  0  0  0  3  0  0  0  0  0  0
  -29.1350  -22.7980   20.6840 C   0  0  0  0  0  0  0  0  0  0  0  0
  -29.2500  -22.9560   22.1050 C   0  0  0  0  0  0  0  0  0  0  0  0
  -28.7220  -25.3330   20.5180 C   0  0  0  0  0  0  0  0  0  0  0  0
  -29.1290  -21.3900   20.0050 C   0  0  0  0  0  0  0  0  0  0  0  0
  -29.8120  -20.2970   20.5110 N   0  0  0  0  0  0  0  0  0  0  0  0
  -28.4500  -21.2580   18.9850 O   0  0  0  0  0  0  0  0  0  0  0  0
  -30.4180  -20.4970   21.2940 H   0  0  0  0  0  0  0  0  0  0  0  0
  -29.5030  -18.8240   20.2660 C   0  0  0  0  0  2  0  0  0  0  0  0
  -30.6030  -17.6650   20.5000 C   0  0  0  0  0  2  0  0  0  0  0  0
  -30.0640  -16.1540   20.7030 C   0  0  0  0  0  2  0  0  0  0  0  0
  -30.9310  -14.8410   20.3880 C   0  0  0  0  0  0  0  0  0  0  0  0
  -30.7680  -12.5530   19.3880 C   0  0  0  0  0  2  0  0  0  0  0  0
  -29.8420  -12.6320   18.1520 C   0  0  0  0  0  2  0  0  0  0  0  0
  -28.3620  -12.4740   18.5580 C   0  0  0  0  0  2  0  0  0  0  0  0
  -27.9780  -13.3790   19.7580 C   0  0  0  0  0  3  0  0  0  0  0  0
  -29.0170  -13.2730   20.8950 C   0  0  0  0  0  2  0  0  0  0  0  0
  -30.3360  -13.6020   20.3390 N   0  0  0  0  0  0  0  0  0  0  0  0
  -32.1080  -14.9690   20.0350 O   0  0  0  0  0  0  0  0  0  0  0  0
  -25.5910  -14.0230   20.4530 C   0  0  0  0  0  0  0  0  0  0  0  0
  -24.5060  -13.2710   20.8110 C   0  0  0  0  0  0  0  0  0  0  0  0
  -24.9450  -11.9120   20.7910 C   0  0  0  0  0  0  0  0  0  0  0  0
  -26.6210  -13.1220   20.2310 N   0  0  0  0  0  0  0  0  0  0  0  0
  -26.2380  -11.8480   20.4980 N   0  0  0  0  0  0  0  0  0  0  0  0
  -24.1940  -10.6630   20.9770 C   0  0  0  0  0  0  0  0  0  0  0  0
  -24.5730   -9.7110   21.9500 C   0  0  0  0  0  3  0  0  0  0  0  0
  -23.8240   -8.5270   22.1200 C   0  0  0  0  0  3  0  0  0  0  0  0
  -22.6840   -8.2860   21.3190 C   0  0  0  0  0  0  0  0  0  0  0  0
  -22.3240   -9.2260   20.3370 C   0  0  0  0  0  3  0  0  0  0  0  0
  -23.0720  -10.4020   20.1640 C   0  0  0  0  0  3  0  0  0  0  0  0
  -21.9110   -7.1520   21.3980 O   0  0  0  0  0  0  0  0  0  0  0  0
  -21.7650   -6.4610   22.5740 C   0  0  0  0  0  0  0  0  0  0  0  0
  -21.2270   -7.0650   23.7320 C   0  0  0  0  0  3  0  0  0  0  0  0
  -21.0300   -6.3010   24.8980 C   0  0  0  0  0  3  0  0  0  0  0  0
  -21.3600   -4.9320   24.9080 C   0  0  0  0  0  0  0  0  0  0  0  0
  -21.8900   -4.3270   23.7550 C   0  0  0  0  0  3  0  0  0  0  0  0
  -22.0900   -5.0900   22.5900 C   0  0  0  0  0  0  0  0  0  0  0  0
  -22.5820   -4.4970   21.4750 F   0  0  0  0  0  0  0  0  0  0  0  0
  -21.1620   -4.1940   26.0250 F   0  0  0  0  0  0  0  0  0  0  0  0
  -23.1140  -13.7740   21.0630 C   0  0  0  0  0  0  0  0  0  0  0  0
  -22.3660  -13.1030   21.9310 N   0  0  0  0  0  0  0  0  0  0  0  0
  -22.6970  -14.7980   20.5220 O   0  0  0  0  0  0  0  0  0  0  0  0
  -22.7150  -12.2770   22.3930 H   0  0  0  0  0  0  0  0  0  0  0  0
  -21.4310  -13.4230   22.1410 H   0  0  0  0  0  0  0  0  0  0  0  0
  -25.7820  -15.3910   20.2750 N   0  0  0  0  0  0  0  0  0  0  0  0
  -25.0260  -16.0590   20.3770 H   0  0  0  0  0  0  0  0  0  0  0  0
  -26.6450  -15.8150   19.9610 H   0  0  0  0  0  0  0  0  0  0  0  0
  -29.9190  -22.0640   24.4770 C   0  0  0  0  0  1  0  0  0  0  0  0
  -29.4690  -21.7550   23.0390 C   0  0  0  0  0  2  0  0  0  0  0  0
  -28.5600  -26.5570   19.8190 O   0  0  0  0  0  0  0  0  0  0  0  0
  -24.7080  -31.7260   23.1890 C   0  0  0  0  0  0  0  0  0  0  0  0
  -27.4060  -27.3500   19.9380 C   0  0  0  0  0  0  0  0  0  0  0  0
  -23.5110  -30.3290   21.5400 C   0  0  0  0  0  3  0  0  0  0  0  0
  -24.9810  -28.8660   20.0380 C   0  0  0  0  0  0  0  0  0  0  0  0
  -26.0300  -30.7470   21.2980 C   0  0  0  0  0  2  0  0  0  0  0  0
  -26.1460  -29.3860   20.6180 C   0  0  0  0  0  0  0  0  0  0  0  0
  -27.3630  -28.6390   20.5610 C   0  0  0  0  0  3  0  0  0  0  0  0
  -26.2190  -26.8800   19.3440 C   0  0  0  0  0  3  0  0  0  0  0  0
  -25.0190  -27.6180   19.3920 C   0  0  0  0  0  3  0  0  0  0  0  0
  -23.7140  -29.6940   20.1380 C   0  0  0  0  0  2  0  0  0  0  0  0
  -24.7690  -30.9520   22.0650 N   0  0  0  0  0  0  0  0  0  0  0  0
  -23.6300  -31.9460   23.7620 O   0  0  0  0  0  0  0  0  0  0  0  0
  -22.9140  -29.2630   22.4890 C   0  0  0  0  0  0  0  0  0  0  0  0
  -21.6080  -28.9810   22.3370 N   0  0  0  0  0  0  0  0  0  0  0  0
  -23.6250  -28.6930   23.3210 O   0  0  0  0  0  0  0  0  0  0  0  0
  -21.0910  -29.4960   21.6390 H   0  0  0  0  0  0  0  0  0  0  0  0
  -18.3570  -27.4330   22.6920 C   0  0  0  0  0  0  0  0  0  0  0  0
  -20.8530  -27.9790   23.0920 C   0  0  0  0  0  3  0  0  0  0  0  0
  -21.1420  -26.5530   22.5680 C   0  0  0  0  0  2  0  0  0  0  0  0
  -20.1420  -26.0860   21.5060 C   0  0  0  0  0  2  0  0  0  0  0  0
  -18.7180  -26.0940   22.0700 C   0  0  0  0  0  2  0  0  0  0  0  0
  -19.3600  -28.3240   23.1580 C   0  0  0  0  0  0  0  0  0  0  0  0
  -18.9720  -29.5700   23.6970 C   0  0  0  0  0  3  0  0  0  0  0  0
  -17.6130  -29.9280   23.7760 C   0  0  0  0  0  3  0  0  0  0  0  0
  -16.6240  -29.0360   23.3280 C   0  0  0  0  0  3  0  0  0  0  0  0
  -16.9970  -27.7910   22.7920 C   0  0  0  0  0  3  0  0  0  0  0  0
  -25.9830  -32.3880   23.7960 C   0  0  0  0  0  3  0  0  0  0  0  0
  -25.6440  -33.7770   24.1340 N   0  0  0  0  0  0  0  0  0  0  0  0
  -25.9660  -34.8420   23.3900 C   0  0  0  0  0  0  0  0  0  0  0  0
  -26.6470  -34.7600   22.3650 O   0  0  0  0  0  0  0  0  0  0  0  0
  -25.0380  -33.9130   24.9300 H   0  0  0  0  0  0  0  0  0  0  0  0
  -24.2170  -36.6140   23.0280 C   0  0  0  0  0  1  0  0  0  0  0  0
  -25.4510  -36.2180   23.8560 C   0  0  0  0  0  3  0  0  0  0  0  0
  -27.5550  -37.1290   24.7350 C   0  0  0  0  0  1  0  0  0  0  0  0
  -26.4680  -37.2880   23.7720 N   0  0  0  0  0  0  0  0  0  0  0  0
  -26.0450  -38.2010   23.9180 H   0  0  0  0  0  0  0  0  0  0  0  0
  -26.5350  -31.6270   25.0630 C   0  0  1  0  0  0  0  0  0  0  0  0
  -25.4620  -31.3560   26.1430 C   0  0  0  0  0  1  0  0  0  0  0  0
  -27.1510  -30.2660   24.6610 C   0  0  0  0  0  1  0  0  0  0  0  0
  -27.6720  -32.4480   25.7140 C   0  0  0  0  0  1  0  0  0  0  0  0
  2  1  2  0
  3  6  2  0
  3  4  1  0
  4  5  2  0
  5  1  1  0
  5 51  1  0
  6  2  1  0
  7  8  1  0
  7  4  1  0
  8 10  1  0
  9  7  2  0
 11 12  1  0
 11  8  1  0
 12 13  1  0
 14 13  1  0
 15 20  1  0
 16 17  1  0
 16 15  1  0
 18 17  1  0
 18 25  1  0
 18 19  1  0
 20 14  1  0
 20 19  1  0
 21 14  2  0
 22 23  2  0
 23 42  1  0
 24 23  1  0
 24 27  1  0
 25 22  1  0
 25 26  1  0
 26 24  2  0
 27 28  1  0
 28 29  2  0
 30 33  1  0
 30 29  1  0
 31 30  2  0
 32 31  1  0
 32 27  2  0
 33 34  1  0
 34 39  2  0
 34 35  1  0
 35 36  2  0
 36 37  1  0
 37 41  1  0
 38 37  2  0
 39 38  1  0
 40 39  1  0
 42 43  1  0
 43 46  1  0
 43 45  1  0
 44 42  2  0
 47 48  1  0
 47 22  1  0
 49 47  1  0
 51 50  1  0
 52 54  1  0
 52  6  1  0
 53 64  2  0
 54 59  1  0
 55 63  1  0
 55 65  1  0
 56 62  1  0
 56 58  1  0
 57 63  1  0
 58 57  1  0
 59 58  2  0
 60 61  1  0
 60 54  2  0
 61 56  2  0
 62 55  1  0
 63 53  1  0
 65 67  2  0
 66 65  1  0
 68 66  1  0
 69 78  2  0
 69 74  1  0
 70 66  1  0
 70 74  1  0
 71 70  1  0
 72 73  1  0
 72 71  1  0
 73 69  1  0
 74 75  2  0
 75 76  1  0
 77 76  2  0
 78 77  1  0
 79 53  1  0
 79 80  1  0
 79 89  1  0
 80 83  1  0
 81 85  1  0
 81 80  1  0
 82 81  2  0
 85 84  1  0
 87 85  1  0
 87 88  1  0
 87 86  1  0
 89 92  1  1
 89 90  1  0
 91 89  1  0
M  ISO  4   6 101  13 100  14 100  52 101
M  END
>  <TORSDO>  (13) 
F 21

>  <SCORE>  (13) 
-13.132

>  <name>  (13) 
12

>  <ligand_id>  (13) 
12

>  <original_smiles>  (13) 
[H]c1c([H])c([H])c2c(c1[H])C([H])([H])C([H])([H])C([H])([H])C2([H])N([H])C(=O)C1([H])N(C(=O)C([H])(N([H])C(=O)C([H])(N([H])C([H])([H])[H])C([H])([H])[H])C(C([H])([H])[H])(C([H])([H])[H])C([H])([H])[H])C([H])([H])c2c([H])c(Oc3c([H])c([H])c(C([H])([H])C([H])([H])[H])c(C(=O)N([H])C([H])([H])C([H])([H])C([H])([H])C(=O)N4C([H])([H])C([H])([H])C([H])([H])C([H])(n5nc(-c6c([H])c([H])c(Oc7c([H])c([H])c(F)c([H])c7F)c([H])c6[H])c(C(=O)N([H])[H])c5N([H])[H])C4([H])[H])c3[H])c([H])c([H])c2C1([H])[H]

>  <smiles>  (13) 
[H]c1c([H])c([H])c2c(c1[H])C([H])([H])C([H])([H])C([H])([H])C2([H])N([H])C(=O)C1([H])N(C(=O)C([H])(N([H])C(=O)C([H])(N([H])C([H])([H])[H])C([H])([H])[H])C(C([H])([H])[H])(C([H])([H])[H])C([H])([H])[H])C([H])([H])c2c([H])c(Oc3c([H])c([H])c(C([H])([H])C([H])([H])[H])c(C(=O)N([H])C([H])([H])C([H])([H])C([H])([H])C(=O)N4C([H])([H])C([H])([H])C([H])([H])C([H])(n5nc(-c6c([H])c([H])c(Oc7c([H])c([H])c(F)c([H])c7F)c([H])c6[H])c(C(=O)N([H])[H])c5N([H])[H])C4([H])[H])c3[H])c([H])c([H])c2C1([H])[H]

$$$$
13:0:0
     RDKit          3D

 91 99  0  0  1  0  0  0  0  0999 V2000
  -31.2410  -25.8440   20.1750 C   0  0  0  0  0  2  0  0  0  0  0  0
  -31.2980  -24.3620   20.5720 C   0  0  0  0  0  2  0  0  0  0  0  0
  -30.4320  -26.6470   21.2030 C   0  0  0  0  0  2  0  0  0  0  0  0
  -28.9160  -24.6010   21.4920 C   0  0  0  0  0  2  0  0  0  0  0  0
  -29.9090  -23.6870   20.6840 C   0  0  0  0  0  3  0  0  0  0  0  0
  -28.9820  -26.1570   21.2500 C   0  0  0  0  0  3  0  0  0  0  0  0
  -30.1280  -22.3350   21.3080 N   0  0  0  0  0  4  0  0  0  0  0  0
  -29.9670  -22.3870   22.3010 H   0  0  0  0  0  0  0  0  0  0  0  0
  -31.1110  -22.1560   21.1920 H   0  0  0  0  0  0  0  0  0  0  0  0
  -29.4590  -21.1120   20.7650 C   0  0  0  0  0  2  0  0  0  0  0  0
  -30.2880  -19.8100   21.0620 C   0  0  0  0  0  3  0  0  0  0  0  0
  -29.5940  -18.4290   20.8260 C   0  0  0  0  0  3  0  0  0  0  0  0
  -30.5550  -17.1900   20.8430 C   0  0  0  0  0  2  0  0  0  0  0  0
  -29.8700  -15.7860   21.0040 C   0  0  0  0  0  2  0  0  0  0  0  0
  -30.6360  -14.5430   20.4420 C   0  0  0  0  0  0  0  0  0  0  0  0
  -30.3730  -12.3540   19.3090 C   0  0  0  0  0  2  0  0  0  0  0  0
  -29.4240  -12.5310   18.1040 C   0  0  0  0  0  2  0  0  0  0  0  0
  -27.9520  -12.3820   18.5370 C   0  0  0  0  0  2  0  0  0  0  0  0
  -27.6100  -13.2340   19.7870 C   0  0  0  0  0  3  0  0  0  0  0  0
  -28.6700  -13.0440   20.8950 C   0  0  0  0  0  2  0  0  0  0  0  0
  -29.9900  -13.3470   20.3270 N   0  0  0  0  0  0  0  0  0  0  0  0
  -31.7720  -14.7060   19.9890 O   0  0  0  0  0  0  0  0  0  0  0  0
  -25.2140  -13.8460   20.4960 C   0  0  0  0  0  0  0  0  0  0  0  0
  -24.1490  -13.0770   20.8770 C   0  0  0  0  0  0  0  0  0  0  0  0
  -24.6130  -11.7260   20.8640 C   0  0  0  0  0  0  0  0  0  0  0  0
  -26.2600  -12.9630   20.2750 N   0  0  0  0  0  0  0  0  0  0  0  0
  -25.9020  -11.6850   20.5560 N   0  0  0  0  0  0  0  0  0  0  0  0
  -23.8900  -10.4650   21.0730 C   0  0  0  0  0  0  0  0  0  0  0  0
  -24.3370   -9.5020   22.0040 C   0  0  0  0  0  3  0  0  0  0  0  0
  -23.6150   -8.3060   22.1990 C   0  0  0  0  0  3  0  0  0  0  0  0
  -22.4300   -8.0630   21.4630 C   0  0  0  0  0  0  0  0  0  0  0  0
  -22.0020   -9.0140   20.5200 C   0  0  0  0  0  3  0  0  0  0  0  0
  -22.7250  -10.2040   20.3240 C   0  0  0  0  0  3  0  0  0  0  0  0
  -21.6770   -6.9180   21.5680 O   0  0  0  0  0  0  0  0  0  0  0  0
  -21.6600   -6.1710   22.7180 C   0  0  0  0  0  0  0  0  0  0  0  0
  -21.2800   -6.7250   23.9600 C   0  0  0  0  0  3  0  0  0  0  0  0
  -21.2100   -5.9050   25.1030 C   0  0  0  0  0  3  0  0  0  0  0  0
  -21.5080   -4.5320   25.0070 C   0  0  0  0  0  0  0  0  0  0  0  0
  -21.8820   -3.9790   23.7700 C   0  0  0  0  0  3  0  0  0  0  0  0
  -21.9540   -4.7960   22.6280 C   0  0  0  0  0  0  0  0  0  0  0  0
  -22.2940   -4.2540   21.4340 F   0  0  0  0  0  0  0  0  0  0  0  0
  -21.4330   -3.7430   26.1030 F   0  0  0  0  0  0  0  0  0  0  0  0
  -22.7500  -13.5550   21.1440 C   0  0  0  0  0  0  0  0  0  0  0  0
  -22.0260  -12.8690   22.0210 N   0  0  0  0  0  0  0  0  0  0  0  0
  -22.3090  -14.5710   20.6090 O   0  0  0  0  0  0  0  0  0  0  0  0
  -22.3960  -12.0470   22.4740 H   0  0  0  0  0  0  0  0  0  0  0  0
  -21.0880  -13.1710   22.2430 H   0  0  0  0  0  0  0  0  0  0  0  0
  -25.3780  -15.2150   20.3020 N   0  0  0  0  0  0  0  0  0  0  0  0
  -24.6110  -15.8730   20.4050 H   0  0  0  0  0  0  0  0  0  0  0  0
  -26.2330  -15.6510   19.9800 H   0  0  0  0  0  0  0  0  0  0  0  0
  -28.3600  -26.6110   20.0380 O   0  0  0  0  0  0  0  0  0  0  0  0
  -24.6340  -31.8830   23.2310 C   0  0  0  0  0  0  0  0  0  0  0  0
  -27.2400  -27.4170   20.1310 C   0  0  0  0  0  0  0  0  0  0  0  0
  -23.4120  -30.4850   21.5980 C   0  0  0  0  0  3  0  0  0  0  0  0
  -24.8540  -28.9450   20.1600 C   0  0  0  0  0  0  0  0  0  0  0  0
  -25.9390  -30.8330   21.3820 C   0  0  0  0  0  2  0  0  0  0  0  0
  -26.0190  -29.4580   20.7490 C   0  0  0  0  0  0  0  0  0  0  0  0
  -27.2170  -28.6970   20.7420 C   0  0  0  0  0  3  0  0  0  0  0  0
  -26.0640  -26.9330   19.5270 C   0  0  0  0  0  3  0  0  0  0  0  0
  -24.8720  -27.6810   19.5480 C   0  0  0  0  0  3  0  0  0  0  0  0
  -23.6110  -29.8070   20.2160 C   0  0  0  0  0  2  0  0  0  0  0  0
  -24.6790  -31.0830   22.1280 N   0  0  0  0  0  0  0  0  0  0  0  0
  -23.5570  -32.1570   23.7810 O   0  0  0  0  0  0  0  0  0  0  0  0
  -22.7660  -29.4640   22.5620 C   0  0  0  0  0  0  0  0  0  0  0  0
  -21.4400  -29.2810   22.4450 N   0  0  0  0  0  0  0  0  0  0  0  0
  -23.4550  -28.8380   23.3740 O   0  0  0  0  0  0  0  0  0  0  0  0
  -20.9450  -29.8380   21.7620 H   0  0  0  0  0  0  0  0  0  0  0  0
  -18.0720  -28.0710   22.9560 C   0  0  0  0  0  0  0  0  0  0  0  0
  -20.6300  -28.3420   23.2200 C   0  0  0  0  0  3  0  0  0  0  0  0
  -20.7370  -26.9100   22.6480 C   0  0  0  0  0  2  0  0  0  0  0  0
  -19.6340  -26.5790   21.6370 C   0  0  0  0  0  2  0  0  0  0  0  0
  -18.2540  -26.7210   22.2840 C   0  0  0  0  0  2  0  0  0  0  0  0
  -19.1890  -28.8400   23.3810 C   0  0  0  0  0  0  0  0  0  0  0  0
  -18.9660  -30.1040   23.9670 C   0  0  0  0  0  3  0  0  0  0  0  0
  -17.6600  -30.6010   24.1330 C   0  0  0  0  0  3  0  0  0  0  0  0
  -16.5580  -29.8290   23.7260 C   0  0  0  0  0  3  0  0  0  0  0  0
  -16.7650  -28.5670   23.1430 C   0  0  0  0  0  3  0  0  0  0  0  0
  -25.9260  -32.5110   23.8400 C   0  0  0  0  0  3  0  0  0  0  0  0
  -25.6200  -33.9070   24.1830 N   0  0  0  0  0  0  0  0  0  0  0  0
  -25.9400  -34.9640   23.4240 C   0  0  0  0  0  0  0  0  0  0  0  0
  -26.5960  -34.8670   22.3830 O   0  0  0  0  0  0  0  0  0  0  0  0
  -25.0380  -34.0560   24.9930 H   0  0  0  0  0  0  0  0  0  0  0  0
  -24.2020  -36.7530   23.1060 C   0  0  0  0  0  1  0  0  0  0  0  0
  -25.4570  -36.3480   23.8960 C   0  0  0  0  0  3  0  0  0  0  0  0
  -27.6040  -37.2330   24.6930 C   0  0  0  0  0  1  0  0  0  0  0  0
  -26.4850  -37.4050   23.7710 N   0  0  0  0  0  0  0  0  0  0  0  0
  -26.0790  -38.3220   23.9320 H   0  0  0  0  0  0  0  0  0  0  0  0
  -26.4630  -31.7300   25.1010 C   0  0  1  0  0  0  0  0  0  0  0  0
  -25.3850  -31.4820   26.1830 C   0  0  0  0  0  1  0  0  0  0  0  0
  -27.0420  -30.3560   24.6880 C   0  0  0  0  0  1  0  0  0  0  0  0
  -27.6220  -32.5200   25.7530 C   0  0  0  0  0  1  0  0  0  0  0  0
  1  2  1  0
  1  3  1  0
  2  5  1  0
  3  6  1  0
  5  7  1  0
  5  4  1  0
  6 51  1  0
  6  4  1  0
  7  8  1  0
  9  7  1  0
 10 11  1  0
 10  7  1  0
 12 13  1  0
 12 11  2  0
 13 14  1  0
 15 14  1  0
 16 21  1  0
 17 18  1  0
 17 16  1  0
 19 18  1  0
 19 26  1  0
 19 20  1  0
 21 15  1  0
 21 20  1  0
 22 15  2  0
 23 24  2  0
 24 43  1  0
 25 24  1  0
 25 28  1  0
 26 23  1  0
 26 27  1  0
 27 25  2  0
 28 29  1  0
 29 30  2  0
 31 34  1  0
 31 30  1  0
 32 31  2  0
 33 32  1  0
 33 28  2  0
 34 35  1  0
 35 36  1  0
 36 37  2  0
 38 37  1  0
 38 42  1  0
 39 38  2  0
 40 35  2  0
 40 39  1  0
 41 40  1  0
 43 44  1  0
 44 47  1  0
 44 46  1  0
 45 43  2  0
 48 49  1  0
 48 23  1  0
 50 48  1  0
 51 53  1  0
 52 63  2  0
 53 58  1  0
 54 62  1  0
 54 64  1  0
 55 61  1  0
 55 57  1  0
 56 62  1  0
 57 56  1  0
 58 57  2  0
 59 60  1  0
 59 53  2  0
 60 55  2  0
 61 54  1  0
 62 52  1  0
 64 66  2  0
 65 64  1  0
 67 65  1  0
 68 77  2  0
 68 73  1  0
 69 65  1  0
 69 73  1  0
 70 69  1  0
 71 72  1  0
 71 70  1  0
 72 68  1  0
 73 74  2  0
 74 75  1  0
 76 75  2  0
 77 76  1  0
 78 52  1  0
 78 79  1  0
 78 88  1  0
 79 82  1  0
 80 84  1  0
 80 79  1  0
 81 80  2  0
 84 83  1  0
 86 84  1  0
 86 87  1  0
 86 85  1  0
 88 91  1  1
 88 89  1  0
 90 88  1  0
M  ISO  4   6 101  14 100  15 100  51 101
M  END
>  <TORSDO>  (14) 
F 22

>  <SCORE>  (14) 
-13.083

>  <name>  (14) 
13

>  <ligand_id>  (14) 
13

>  <original_smiles>  (14) 
[H]c1c([H])c([H])c2c(c1[H])C([H])([H])C([H])([H])C([H])([H])C2([H])N([H])C(=O)C1([H])N(C(=O)C([H])(N([H])C(=O)C([H])(N([H])C([H])([H])[H])C([H])([H])[H])C(C([H])([H])[H])(C([H])([H])[H])C([H])([H])[H])C([H])([H])c2c([H])c(OC3([H])C([H])([H])C([H])([H])C([H])([H])C([H])([N+]([H])([H])C([H])([H])C([H])([H])C([H])([H])C([H])([H])C([H])([H])C(=O)N4C([H])([H])C([H])([H])C([H])([H])C([H])(n5nc(-c6c([H])c([H])c(Oc7c([H])c([H])c(F)c([H])c7F)c([H])c6[H])c(C(=O)N([H])[H])c5N([H])[H])C4([H])[H])C3([H])[H])c([H])c([H])c2C1([H])[H]

>  <smiles>  (14) 
[H]c1c([H])c([H])c2c(c1[H])C([H])([H])C([H])([H])C([H])([H])C2([H])N([H])C(=O)C1([H])N(C(=O)C([H])(N([H])C(=O)C([H])(N([H])C([H])([H])[H])C([H])([H])[H])C(C([H])([H])[H])(C([H])([H])[H])C([H])([H])[H])C([H])([H])c2c([H])c(OC3([H])C([H])([H])C([H])([H])C([H])([H])C([H])([N+]([H])([H])C([H])([H])C([H])([H])C([H])([H])C([H])([H])C([H])([H])C(=O)N4C([H])([H])C([H])([H])C([H])([H])C([H])(n5nc(-c6c([H])c([H])c(Oc7c([H])c([H])c(F)c([H])c7F)c([H])c6[H])c(C(=O)N([H])[H])c5N([H])[H])C4([H])[H])C3([H])[H])c([H])c([H])c2C1([H])[H]

$$$$
14:0:0
     RDKit          3D

 94103  0  0  1  0  0  0  0  0999 V2000
  -29.7830  -21.2390   20.0380 C   0  0  0  0  0  0  0  0  0  0  0  0
  -29.0540  -22.3660   20.3750 N   0  0  0  0  0  0  0  0  0  0  0  0
  -30.7900  -21.3620   19.3370 O   0  0  0  0  0  0  0  0  0  0  0  0
  -28.2330  -22.2030   20.9430 H   0  0  0  0  0  0  0  0  0  0  0  0
  -30.8880  -19.3210   24.0400 C   0  0  0  0  0  3  0  0  0  0  0  0
  -31.4400  -18.0290   23.8880 C   0  0  0  0  0  3  0  0  0  0  0  0
  -30.2170  -19.9430   22.9660 C   0  0  0  0  0  3  0  0  0  0  0  0
  -31.3300  -17.3430   22.6610 C   0  0  0  0  0  3  0  0  0  0  0  0
  -30.1200  -19.2610   21.7360 C   0  0  0  0  0  0  0  0  0  0  0  0
  -30.6680  -17.9700   21.5880 C   0  0  0  0  0  0  0  0  0  0  0  0
  -29.5710  -18.4920   19.5380 C   0  0  0  0  0  2  0  0  0  0  0  0
  -29.3700  -19.7580   20.5090 C   0  0  0  0  0  3  0  0  0  0  0  0
  -30.4880  -17.3650   20.2080 C   0  0  0  0  0  3  0  0  0  0  0  0
  -30.8000  -14.7460   20.0320 C   0  0  0  0  0  0  0  0  0  0  0  0
  -30.5180  -12.4260   19.1500 C   0  0  0  0  0  2  0  0  0  0  0  0
  -29.5600  -12.4620   17.9390 C   0  0  0  0  0  2  0  0  0  0  0  0
  -28.0940  -12.3570   18.4030 C   0  0  0  0  0  2  0  0  0  0  0  0
  -27.7680  -13.3230   19.5740 C   0  0  0  0  0  3  0  0  0  0  0  0
  -28.8440  -13.2640   20.6820 C   0  0  0  0  0  2  0  0  0  0  0  0
  -30.1390  -13.5410   20.0460 N   0  0  0  0  0  0  0  0  0  0  0  0
  -31.9810  -14.7990   19.6780 O   0  0  0  0  0  0  0  0  0  0  0  0
  -30.0590  -15.8980   20.2210 N   0  0  0  0  0  0  0  0  0  0  0  0
  -29.0930  -15.7400   20.4630 H   0  0  0  0  0  0  0  0  0  0  0  0
  -25.4320  -14.0300   20.3650 C   0  0  0  0  0  0  0  0  0  0  0  0
  -24.3420  -13.3090   20.7660 C   0  0  0  0  0  0  0  0  0  0  0  0
  -24.7390  -11.9370   20.7290 C   0  0  0  0  0  0  0  0  0  0  0  0
  -26.4260  -13.1010   20.1020 N   0  0  0  0  0  0  0  0  0  0  0  0
  -26.0170  -11.8370   20.3850 N   0  0  0  0  0  0  0  0  0  0  0  0
  -23.9590  -10.7110   20.9410 C   0  0  0  0  0  0  0  0  0  0  0  0
  -24.3670   -9.7260   21.8670 C   0  0  0  0  0  3  0  0  0  0  0  0
  -23.5870   -8.5660   22.0680 C   0  0  0  0  0  3  0  0  0  0  0  0
  -22.3860   -8.3820   21.3430 C   0  0  0  0  0  0  0  0  0  0  0  0
  -21.9960   -9.3550   20.4060 C   0  0  0  0  0  3  0  0  0  0  0  0
  -22.7760  -10.5070   20.2030 C   0  0  0  0  0  3  0  0  0  0  0  0
  -21.5800   -7.2760   21.4530 O   0  0  0  0  0  0  0  0  0  0  0  0
  -21.5270   -6.5370   22.6080 C   0  0  0  0  0  0  0  0  0  0  0  0
  -21.1730   -7.1140   23.8460 C   0  0  0  0  0  3  0  0  0  0  0  0
  -21.0640   -6.3050   24.9950 C   0  0  0  0  0  3  0  0  0  0  0  0
  -21.2970   -4.9190   24.9050 C   0  0  0  0  0  0  0  0  0  0  0  0
  -21.6440   -4.3410   23.6710 C   0  0  0  0  0  3  0  0  0  0  0  0
  -21.7560   -5.1480   22.5250 C   0  0  0  0  0  0  0  0  0  0  0  0
  -22.0700   -4.5840   21.3340 F   0  0  0  0  0  0  0  0  0  0  0  0
  -21.1840   -4.1390   26.0050 F   0  0  0  0  0  0  0  0  0  0  0  0
  -22.9770  -13.8540   21.0730 C   0  0  0  0  0  0  0  0  0  0  0  0
  -22.2520  -13.2120   21.9810 N   0  0  0  0  0  0  0  0  0  0  0  0
  -22.5670  -14.8850   20.5430 O   0  0  0  0  0  0  0  0  0  0  0  0
  -22.5970  -12.3770   22.4300 H   0  0  0  0  0  0  0  0  0  0  0  0
  -21.3370  -13.5620   22.2330 H   0  0  0  0  0  0  0  0  0  0  0  0
  -25.6560  -15.3910   20.1760 N   0  0  0  0  0  0  0  0  0  0  0  0
  -24.9210  -16.0770   20.3070 H   0  0  0  0  0  0  0  0  0  0  0  0
  -26.5070  -15.7890   19.8010 H   0  0  0  0  0  0  0  0  0  0  0  0
  -29.3280  -23.8260   20.0110 C   0  0  0  0  0  3  0  0  0  0  0  0
  -28.2190  -24.9480   20.3540 C   0  0  0  0  0  3  0  0  0  0  0  0
  -28.4490  -26.4180   20.1090 O   0  0  0  0  0  0  0  0  0  0  0  0
  -24.6330  -31.8040   23.1480 C   0  0  0  0  0  0  0  0  0  0  0  0
  -27.3300  -27.2830   20.0760 C   0  0  0  0  0  0  0  0  0  0  0  0
  -23.4580  -30.3880   21.5060 C   0  0  0  0  0  3  0  0  0  0  0  0
  -24.9390  -28.8760   20.0690 C   0  0  0  0  0  0  0  0  0  0  0  0
  -25.9930  -30.7550   21.3220 C   0  0  0  0  0  2  0  0  0  0  0  0
  -26.1020  -29.3770   20.6690 C   0  0  0  0  0  0  0  0  0  0  0  0
  -27.3010  -28.5930   20.6620 C   0  0  0  0  0  3  0  0  0  0  0  0
  -26.1460  -26.8590   19.4310 C   0  0  0  0  0  3  0  0  0  0  0  0
  -24.9670  -27.6250   19.4370 C   0  0  0  0  0  3  0  0  0  0  0  0
  -23.6860  -29.7260   20.1220 C   0  0  0  0  0  2  0  0  0  0  0  0
  -24.7130  -31.0000   22.0480 N   0  0  0  0  0  0  0  0  0  0  0  0
  -23.5450  -32.0570   23.6860 O   0  0  0  0  0  0  0  0  0  0  0  0
  -22.8190  -29.3540   22.4610 C   0  0  0  0  0  0  0  0  0  0  0  0
  -21.4980  -29.1380   22.3280 N   0  0  0  0  0  0  0  0  0  0  0  0
  -23.5090  -28.7470   23.2850 O   0  0  0  0  0  0  0  0  0  0  0  0
  -20.9970  -29.6820   21.6400 H   0  0  0  0  0  0  0  0  0  0  0  0
  -18.1640  -27.8040   22.7730 C   0  0  0  0  0  0  0  0  0  0  0  0
  -20.7030  -28.1750   23.0920 C   0  0  0  0  0  3  0  0  0  0  0  0
  -20.8760  -26.7420   22.5370 C   0  0  0  0  0  2  0  0  0  0  0  0
  -19.8120  -26.3630   21.5040 C   0  0  0  0  0  2  0  0  0  0  0  0
  -18.4110  -26.4570   22.1170 C   0  0  0  0  0  2  0  0  0  0  0  0
  -19.2400  -28.6180   23.2160 C   0  0  0  0  0  0  0  0  0  0  0  0
  -18.9570  -29.8770   23.7890 C   0  0  0  0  0  3  0  0  0  0  0  0
  -17.6300  -30.3250   23.9210 C   0  0  0  0  0  3  0  0  0  0  0  0
  -16.5670  -29.5100   23.4940 C   0  0  0  0  0  3  0  0  0  0  0  0
  -16.8340  -28.2510   22.9260 C   0  0  0  0  0  3  0  0  0  0  0  0
  -25.9020  -32.4640   23.7720 C   0  0  0  0  0  3  0  0  0  0  0  0
  -26.4410  -31.6930   25.0400 C   0  0  1  0  0  0  0  0  0  0  0  0
  -25.3550  -31.4200   26.1080 C   0  0  0  0  0  1  0  0  0  0  0  0
  -27.0570  -30.3330   24.6370 C   0  0  0  0  0  1  0  0  0  0  0  0
  -27.5720  -32.5100   25.7070 C   0  0  0  0  0  1  0  0  0  0  0  0
  -25.5580  -33.8510   24.1170 N   0  0  0  0  0  0  0  0  0  0  0  0
  -25.8850  -34.9220   23.3820 C   0  0  0  0  0  0  0  0  0  0  0  0
  -26.5750  -34.8470   22.3620 O   0  0  0  0  0  0  0  0  0  0  0  0
  -24.9470  -33.9800   24.9100 H   0  0  0  0  0  0  0  0  0  0  0  0
  -24.1290  -36.6880   23.0250 C   0  0  0  0  0  1  0  0  0  0  0  0
  -25.3630  -36.2930   23.8520 C   0  0  0  0  0  3  0  0  0  0  0  0
  -27.4680  -37.2040   24.7300 C   0  0  0  0  0  1  0  0  0  0  0  0
  -26.3770  -37.3670   23.7740 N   0  0  0  0  0  0  0  0  0  0  0  0
  -25.9510  -38.2760   23.9320 H   0  0  0  0  0  0  0  0  0  0  0  0
  1  2  1  0
  2  4  1  0
  3  1  2  0
  6  5  1  0
  7  5  2  0
  8  6  2  0
  9  7  1  0
 10  9  2  0
 10  8  1  0
 11 13  1  0
 11 12  1  0
 12  1  1  0
 12  9  1  0
 13 22  1  0
 13 10  1  0
 14 20  1  0
 14 22  1  0
 15 20  1  0
 16 17  1  0
 16 15  1  0
 18 17  1  0
 18 27  1  0
 18 19  1  0
 20 19  1  0
 21 14  2  0
 22 23  1  0
 24 25  2  0
 25 44  1  0
 26 25  1  0
 26 29  1  0
 27 24  1  0
 27 28  1  0
 28 26  2  0
 29 30  1  0
 30 31  2  0
 32 35  1  0
 32 31  1  0
 33 32  2  0
 34 33  1  0
 34 29  2  0
 35 36  1  0
 36 37  1  0
 37 38  2  0
 39 38  1  0
 39 43  1  0
 40 39  2  0
 41 36  2  0
 41 40  1  0
 42 41  1  0
 44 45  1  0
 45 48  1  0
 45 47  1  0
 46 44  2  0
 49 50  1  0
 49 24  1  0
 51 49  1  0
 52 53  2  0
 52  2  1  0
 54 53  1  0
 55 66  2  0
 56 54  1  0
 56 61  1  0
 57 65  1  0
 57 67  1  0
 58 64  1  0
 58 60  1  0
 59 65  1  0
 60 59  1  0
 61 60  2  0
 62 63  1  0
 62 56  2  0
 63 58  2  0
 64 57  1  0
 65 55  1  0
 67 69  2  0
 68 67  1  0
 70 68  1  0
 71 80  2  0
 71 76  1  0
 72 68  1  0
 72 76  1  0
 73 72  1  0
 74 75  1  0
 74 73  1  0
 75 71  1  0
 76 77  2  0
 77 78  1  0
 79 78  2  0
 80 79  1  0
 81 55  1  0
 81 86  1  0
 81 82  1  0
 82 85  1  1
 82 83  1  0
 84 82  1  0
 86 89  1  0
 87 91  1  0
 87 86  1  0
 88 87  2  0
 91 90  1  0
 93 91  1  0
 93 94  1  0
 93 92  1  0
M  ISO  4  14 100  22 100  53 101  54 101
M  END
>  <TORSDO>  (15) 
F 19

>  <SCORE>  (15) 
-11.436

>  <name>  (15) 
14

>  <ligand_id>  (15) 
14

>  <original_smiles>  (15) 
[H]c1c([H])c([H])c2c(c1[H])C([H])([H])C([H])([H])C([H])([H])C2([H])N([H])C(=O)C1([H])N(C(=O)C([H])(N([H])C(=O)C([H])(N([H])C([H])([H])[H])C([H])([H])[H])C(C([H])([H])[H])(C([H])([H])[H])C([H])([H])[H])C([H])([H])c2c([H])c(OC([H])([H])C([H])([H])N([H])C(=O)C3([H])c4c([H])c([H])c([H])c([H])c4C([H])(N([H])C(=O)N4C([H])([H])C([H])([H])C([H])([H])C([H])(n5nc(-c6c([H])c([H])c(Oc7c([H])c([H])c(F)c([H])c7F)c([H])c6[H])c(C(=O)N([H])[H])c5N([H])[H])C4([H])[H])C3([H])[H])c([H])c([H])c2C1([H])[H]

>  <smiles>  (15) 
[H]c1c([H])c([H])c2c(c1[H])C([H])([H])C([H])([H])C([H])([H])C2([H])N([H])C(=O)C1([H])N(C(=O)C([H])(N([H])C(=O)C([H])(N([H])C([H])([H])[H])C([H])([H])[H])C(C([H])([H])[H])(C([H])([H])[H])C([H])([H])[H])C([H])([H])c2c([H])c(OC([H])([H])C([H])([H])N([H])C(=O)C3([H])c4c([H])c([H])c([H])c([H])c4C([H])(N([H])C(=O)N4C([H])([H])C([H])([H])C([H])([H])C([H])(n5nc(-c6c([H])c([H])c(Oc7c([H])c([H])c(F)c([H])c7F)c([H])c6[H])c(C(=O)N([H])[H])c5N([H])[H])C4([H])[H])C3([H])[H])c([H])c([H])c2C1([H])[H]

$$$$
15:0:0
     RDKit          3D

 91100  0  0  1  0  0  0  0  0999 V2000
  -28.1230  -21.1260   18.4590 C   0  0  0  0  0  3  0  0  0  0  0  0
  -27.7630  -22.6220   18.3870 C   0  0  0  0  0  3  0  0  0  0  0  0
  -28.8860  -21.4180   20.5110 C   0  0  0  0  0  3  0  0  0  0  0  0
  -28.5350  -22.9130   20.4590 C   0  0  0  0  0  0  0  0  0  0  0  0
  -28.7440  -20.2990   19.5400 C   0  0  0  0  0  0  0  0  0  0  0  0
  -27.9080  -23.7360   19.3760 C   0  0  0  0  0  0  0  0  0  0  0  0
  -30.5280  -24.0500   23.5150 C   0  0  0  0  0  2  0  0  0  0  0  0
  -29.1190  -23.8890   24.1090 C   0  0  0  0  0  2  0  0  0  0  0  0
  -30.4340  -23.6360   22.0400 C   0  0  0  0  0  2  0  0  0  0  0  0
  -28.2370  -23.3140   22.9950 C   0  0  0  0  0  2  0  0  0  0  0  0
  -28.9420  -23.7170   21.6950 C   0  0  0  0  0  3  0  0  0  0  0  0
  -27.7890  -25.3560   19.3090 O   0  0  0  0  0  0  0  0  0  0  0  0
  -24.5780  -31.5400   22.7640 C   0  0  0  0  0  0  0  0  0  0  0  0
  -26.7660  -26.5140   19.4410 C   0  0  0  0  0  0  0  0  0  0  0  0
  -23.2140  -30.1550   21.2560 C   0  0  0  0  0  3  0  0  0  0  0  0
  -24.4940  -28.5290   19.6680 C   0  0  0  0  0  0  0  0  0  0  0  0
  -25.7590  -30.3130   20.8410 C   0  0  0  0  0  2  0  0  0  0  0  0
  -25.7520  -28.8870   20.1690 C   0  0  0  0  0  0  0  0  0  0  0  0
  -26.8660  -27.9070   20.0280 C   0  0  0  0  0  3  0  0  0  0  0  0
  -25.4690  -26.3660   18.8880 C   0  0  0  0  0  3  0  0  0  0  0  0
  -24.3880  -27.2950   19.0020 C   0  0  0  0  0  3  0  0  0  0  0  0
  -23.2970  -29.4750   19.8590 C   0  0  0  0  0  2  0  0  0  0  0  0
  -24.5470  -30.7030   21.6700 N   0  0  0  0  0  0  0  0  0  0  0  0
  -23.5500  -31.8280   23.4010 O   0  0  0  0  0  0  0  0  0  0  0  0
  -22.6200  -29.1620   22.2920 C   0  0  0  0  0  0  0  0  0  0  0  0
  -21.2950  -28.9250   22.2520 N   0  0  0  0  0  0  0  0  0  0  0  0
  -23.3620  -28.6030   23.1030 O   0  0  0  0  0  0  0  0  0  0  0  0
  -20.7410  -29.4310   21.5740 H   0  0  0  0  0  0  0  0  0  0  0  0
  -18.0550  -27.4050   22.8850 C   0  0  0  0  0  0  0  0  0  0  0  0
  -20.5740  -27.9610   23.0940 C   0  0  0  0  0  3  0  0  0  0  0  0
  -20.8230  -26.5110   22.6150 C   0  0  0  0  0  2  0  0  0  0  0  0
  -19.7560  -26.0070   21.6370 C   0  0  0  0  0  2  0  0  0  0  0  0
  -18.3710  -26.0440   22.2900 C   0  0  0  0  0  2  0  0  0  0  0  0
  -19.0880  -28.3110   23.2480 C   0  0  0  0  0  0  0  0  0  0  0  0
  -18.7350  -29.5750   23.7710 C   0  0  0  0  0  3  0  0  0  0  0  0
  -17.3850  -29.9370   23.9330 C   0  0  0  0  0  3  0  0  0  0  0  0
  -16.3670  -29.0320   23.5820 C   0  0  0  0  0  3  0  0  0  0  0  0
  -16.7040  -27.7690   23.0640 C   0  0  0  0  0  3  0  0  0  0  0  0
  -25.9040  -32.1880   23.2630 C   0  0  0  0  0  3  0  0  0  0  0  0
  -25.5870  -33.5220   23.8110 N   0  0  0  0  0  0  0  0  0  0  0  0
  -25.9770  -34.6900   23.2800 C   0  0  0  0  0  0  0  0  0  0  0  0
  -26.6990  -34.7550   22.2820 O   0  0  0  0  0  0  0  0  0  0  0  0
  -24.9510  -33.5450   24.5940 H   0  0  0  0  0  0  0  0  0  0  0  0
  -24.3440  -36.6050   23.1500 C   0  0  0  0  0  1  0  0  0  0  0  0
  -25.4960  -35.9890   23.9600 C   0  0  0  0  0  3  0  0  0  0  0  0
  -27.5640  -36.6200   25.1300 C   0  0  0  0  0  1  0  0  0  0  0  0
  -26.5660  -36.9980   24.1330 N   0  0  0  0  0  0  0  0  0  0  0  0
  -26.1740  -37.8960   24.4010 H   0  0  0  0  0  0  0  0  0  0  0  0
  -26.6410  -31.3230   24.3590 C   0  0  1  0  0  0  0  0  0  0  0  0
  -25.7400  -30.9290   25.5540 C   0  0  0  0  0  1  0  0  0  0  0  0
  -27.2020  -30.0170   23.7530 C   0  0  0  0  0  1  0  0  0  0  0  0
  -27.8540  -32.1040   24.9150 C   0  0  0  0  0  1  0  0  0  0  0  0
  -29.5280  -18.5940   19.6060 C   0  0  0  0  0  2  0  0  0  0  0  0
  -30.0480  -15.4880   19.7460 C   0  0  0  0  0  0  0  0  0  0  0  0
  -30.1350  -12.9260   19.0030 C   0  0  0  0  0  2  0  0  0  0  0  0
  -29.1880  -12.4830   17.8510 C   0  0  0  0  0  2  0  0  0  0  0  0
  -27.7970  -12.1250   18.3930 C   0  0  0  0  0  2  0  0  0  0  0  0
  -27.3280  -13.1500   19.4490 C   0  0  0  0  0  3  0  0  0  0  0  0
  -28.4090  -13.5070   20.4960 C   0  0  0  0  0  2  0  0  0  0  0  0
  -29.5370  -14.1200   19.7580 N   0  0  0  0  0  0  0  0  0  0  0  0
  -31.2670  -15.4340   19.4990 O   0  0  0  0  0  0  0  0  0  0  0  0
  -29.2880  -16.8480   19.8140 N   0  0  0  0  0  0  0  0  0  0  0  0
  -28.3120  -16.6600   19.9910 H   0  0  0  0  0  0  0  0  0  0  0  0
  -24.9940  -13.6590   20.3120 C   0  0  0  0  0  0  0  0  0  0  0  0
  -23.9750  -12.8700   20.7610 C   0  0  0  0  0  0  0  0  0  0  0  0
  -24.4770  -11.5320   20.7580 C   0  0  0  0  0  0  0  0  0  0  0  0
  -26.0470  -12.8030   20.0480 N   0  0  0  0  0  0  0  0  0  0  0  0
  -25.7550  -11.5190   20.3840 N   0  0  0  0  0  0  0  0  0  0  0  0
  -23.7930  -10.2610   21.0310 C   0  0  0  0  0  0  0  0  0  0  0  0
  -24.2510   -9.3710   22.0280 C   0  0  0  0  0  3  0  0  0  0  0  0
  -23.5590   -8.1680   22.2870 C   0  0  0  0  0  3  0  0  0  0  0  0
  -22.3950   -7.8450   21.5500 C   0  0  0  0  0  0  0  0  0  0  0  0
  -21.9560   -8.7230   20.5440 C   0  0  0  0  0  3  0  0  0  0  0  0
  -22.6480   -9.9170   20.2830 C   0  0  0  0  0  3  0  0  0  0  0  0
  -21.6740   -6.6870   21.7160 O   0  0  0  0  0  0  0  0  0  0  0  0
  -21.6920   -5.9900   22.8970 C   0  0  0  0  0  0  0  0  0  0  0  0
  -21.1550   -6.5270   24.0870 C   0  0  0  0  0  3  0  0  0  0  0  0
  -21.1300   -5.7510   25.2620 C   0  0  0  0  0  3  0  0  0  0  0  0
  -21.6320   -4.4360   25.2490 C   0  0  0  0  0  0  0  0  0  0  0  0
  -22.1630   -3.8970   24.0640 C   0  0  0  0  0  3  0  0  0  0  0  0
  -22.1900   -4.6720   22.8900 C   0  0  0  0  0  0  0  0  0  0  0  0
  -22.6830   -4.1390   21.7460 F   0  0  0  0  0  0  0  0  0  0  0  0
  -21.6020   -3.6860   26.3760 F   0  0  0  0  0  0  0  0  0  0  0  0
  -22.5790  -13.3230   21.0730 C   0  0  0  0  0  0  0  0  0  0  0  0
  -21.9190  -12.6680   22.0190 N   0  0  0  0  0  0  0  0  0  0  0  0
  -22.0850  -14.2990   20.5080 O   0  0  0  0  0  0  0  0  0  0  0  0
  -22.3330  -11.8810   22.4980 H   0  0  0  0  0  0  0  0  0  0  0  0
  -20.9850  -12.9570   22.2720 H   0  0  0  0  0  0  0  0  0  0  0  0
  -25.1080  -15.0250   20.0710 N   0  0  0  0  0  0  0  0  0  0  0  0
  -24.3270  -15.6600   20.1940 H   0  0  0  0  0  0  0  0  0  0  0  0
  -25.9130  -15.4660   19.6460 H   0  0  0  0  0  0  0  0  0  0  0  0
  1  5  1  0
  2  1  2  0
  2  6  1  0
  4  3  1  0
  4 11  1  0
  5 53  1  0
  5  3  2  0
  6  4  2  0
  7  8  1  0
  9  7  1  0
 10  8  1  0
 11  9  1  0
 11 10  1  0
 12  6  1  0
 12 14  1  0
 13 24  2  0
 14 19  1  0
 15 23  1  0
 15 25  1  0
 16 22  1  0
 16 18  1  0
 17 23  1  0
 18 17  1  0
 19 18  2  0
 20 21  1  0
 20 14  2  0
 21 16  2  0
 22 15  1  0
 23 13  1  0
 25 27  2  0
 26 25  1  0
 28 26  1  0
 29 38  2  0
 29 34  1  0
 30 26  1  0
 30 34  1  0
 31 30  1  0
 32 33  1  0
 32 31  1  0
 33 29  1  0
 34 35  2  0
 35 36  1  0
 37 36  2  0
 38 37  1  0
 39 13  1  0
 39 40  1  0
 39 49  1  0
 40 43  1  0
 41 40  1  0
 41 45  1  0
 42 41  2  0
 45 44  1  0
 45 47  1  0
 47 48  1  0
 47 46  1  0
 49 52  1  1
 49 50  1  0
 51 49  1  0
 53 62  1  0
 54 60  1  0
 54 62  1  0
 55 60  1  0
 56 57  1  0
 56 55  1  0
 58 57  1  0
 58 67  1  0
 58 59  1  0
 60 59  1  0
 61 54  2  0
 62 63  1  0
 64 65  2  0
 65 84  1  0
 66 65  1  0
 66 69  1  0
 67 64  1  0
 67 68  1  0
 68 66  2  0
 69 70  1  0
 70 71  2  0
 72 75  1  0
 72 71  1  0
 73 72  2  0
 74 73  1  0
 74 69  2  0
 75 76  1  0
 76 77  1  0
 77 78  2  0
 79 78  1  0
 79 83  1  0
 80 79  2  0
 81 76  2  0
 81 80  1  0
 82 81  1  0
 84 85  1  0
 85 88  1  0
 85 87  1  0
 86 84  2  0
 89 90  1  0
 89 64  1  0
 91 89  1  0
M  ISO  4   6 101  12 101  54 100  62 100
M  END
>  <TORSDO>  (16) 
F 18

>  <SCORE>  (16) 
-11.095

>  <name>  (16) 
15

>  <ligand_id>  (16) 
15

>  <original_smiles>  (16) 
[H]c1c([H])c([H])c2c(c1[H])C([H])([H])C([H])([H])C([H])([H])C2([H])N([H])C(=O)C1([H])N(C(=O)C([H])(N([H])C(=O)C([H])(N([H])C([H])([H])[H])C([H])([H])[H])C(C([H])([H])[H])(C([H])([H])[H])C([H])([H])[H])C([H])([H])c2c([H])c(Oc3c([H])c([H])c(C([H])([H])N([H])C(=O)N4C([H])([H])C([H])([H])C([H])([H])C([H])(n5nc(-c6c([H])c([H])c(Oc7c([H])c([H])c(F)c([H])c7F)c([H])c6[H])c(C(=O)N([H])[H])c5N([H])[H])C4([H])[H])c([H])c3C3([H])C([H])([H])C([H])([H])C([H])([H])C3([H])[H])c([H])c([H])c2C1([H])[H]

>  <smiles>  (16) 
[H]c1c([H])c([H])c2c(c1[H])C([H])([H])C([H])([H])C([H])([H])C2([H])N([H])C(=O)C1([H])N(C(=O)C([H])(N([H])C(=O)C([H])(N([H])C([H])([H])[H])C([H])([H])[H])C(C([H])([H])[H])(C([H])([H])[H])C([H])([H])[H])C([H])([H])c2c([H])c(Oc3c([H])c([H])c(C([H])([H])N([H])C(=O)N4C([H])([H])C([H])([H])C([H])([H])C([H])(n5nc(-c6c([H])c([H])c(Oc7c([H])c([H])c(F)c([H])c7F)c([H])c6[H])c(C(=O)N([H])[H])c5N([H])[H])C4([H])[H])c([H])c3C3([H])C([H])([H])C([H])([H])C([H])([H])C3([H])[H])c([H])c([H])c2C1([H])[H]

$$$$
16:0:0
     RDKit          3D

 93100  0  0  1  0  0  0  0  0999 V2000
  -29.0250  -22.5840   22.4920 C   0  0  0  0  0  0  0  0  0  0  0  0
  -29.1130  -23.9020   22.2830 N   0  0  0  0  0  0  0  0  0  0  0  0
  -28.3840  -21.8360   21.7510 O   0  0  0  0  0  0  0  0  0  0  0  0
  -29.6560  -24.4500   22.9380 H   0  0  0  0  0  0  0  0  0  0  0  0
  -29.7660  -22.0240   23.7110 C   0  0  0  0  0  2  0  0  0  0  0  0
  -30.3170  -20.5890   23.5280 C   0  0  0  0  0  2  0  0  0  0  0  0
  -32.5500  -21.3100   22.4900 C   0  0  0  0  0  1  0  0  0  0  0  0
  -31.3190  -20.3920   22.3590 C   0  0  0  0  0  3  0  0  0  0  0  0
  -31.7690  -18.9840   22.2370 N   0  0  0  0  0  4  0  0  0  0  0  0
  -32.4050  -18.9460   21.4570 H   0  0  0  0  0  0  0  0  0  0  0  0
  -32.2930  -18.7150   23.0560 H   0  0  0  0  0  0  0  0  0  0  0  0
  -30.7160  -17.9730   21.9870 C   0  0  0  0  0  2  0  0  0  0  0  0
  -31.3130  -16.7090   21.3520 C   0  0  0  0  0  2  0  0  0  0  0  0
  -30.2980  -15.5520   21.1770 C   0  0  0  0  0  2  0  0  0  0  0  0
  -30.7690  -14.4720   20.1860 C   0  0  0  0  0  0  0  0  0  0  0  0
  -30.3650  -12.3590   18.9730 C   0  0  0  0  0  2  0  0  0  0  0  0
  -29.3830  -12.5740   17.8060 C   0  0  0  0  0  2  0  0  0  0  0  0
  -27.9290  -12.4370   18.2920 C   0  0  0  0  0  2  0  0  0  0  0  0
  -27.6410  -13.2850   19.5600 C   0  0  0  0  0  3  0  0  0  0  0  0
  -28.7320  -13.0650   20.6330 C   0  0  0  0  0  2  0  0  0  0  0  0
  -30.0420  -13.3350   20.0230 N   0  0  0  0  0  0  0  0  0  0  0  0
  -31.7940  -14.6870   19.5320 O   0  0  0  0  0  0  0  0  0  0  0  0
  -25.2640  -13.9010   20.3390 C   0  0  0  0  0  0  0  0  0  0  0  0
  -24.2080  -13.1310   20.7490 C   0  0  0  0  0  0  0  0  0  0  0  0
  -24.6680  -11.7800   20.7140 C   0  0  0  0  0  0  0  0  0  0  0  0
  -26.3020  -13.0180   20.0830 N   0  0  0  0  0  0  0  0  0  0  0  0
  -25.9480  -11.7380   20.3640 N   0  0  0  0  0  0  0  0  0  0  0  0
  -23.9490  -10.5190   20.9380 C   0  0  0  0  0  0  0  0  0  0  0  0
  -24.3930   -9.5750   21.8910 C   0  0  0  0  0  3  0  0  0  0  0  0
  -23.6750   -8.3780   22.1020 C   0  0  0  0  0  3  0  0  0  0  0  0
  -22.4990   -8.1160   21.3590 C   0  0  0  0  0  0  0  0  0  0  0  0
  -22.0750   -9.0480   20.3960 C   0  0  0  0  0  3  0  0  0  0  0  0
  -22.7930  -10.2360   20.1840 C   0  0  0  0  0  3  0  0  0  0  0  0
  -21.7510   -6.9680   21.4790 O   0  0  0  0  0  0  0  0  0  0  0  0
  -21.6950   -6.2650   22.6540 C   0  0  0  0  0  0  0  0  0  0  0  0
  -21.2610   -6.8610   23.8590 C   0  0  0  0  0  3  0  0  0  0  0  0
  -21.1520   -6.0840   25.0290 C   0  0  0  0  0  3  0  0  0  0  0  0
  -21.4670   -4.7120   24.9970 C   0  0  0  0  0  0  0  0  0  0  0  0
  -21.8950   -4.1160   23.7980 C   0  0  0  0  0  3  0  0  0  0  0  0
  -22.0060   -4.8910   22.6290 C   0  0  0  0  0  0  0  0  0  0  0  0
  -22.3980   -4.3060   21.4710 F   0  0  0  0  0  0  0  0  0  0  0  0
  -21.3560   -3.9630   26.1190 F   0  0  0  0  0  0  0  0  0  0  0  0
  -22.8210  -13.6100   21.0650 C   0  0  0  0  0  0  0  0  0  0  0  0
  -22.1200  -12.9170   21.9550 N   0  0  0  0  0  0  0  0  0  0  0  0
  -22.3650  -14.6340   20.5550 O   0  0  0  0  0  0  0  0  0  0  0  0
  -22.5000  -12.0880   22.3880 H   0  0  0  0  0  0  0  0  0  0  0  0
  -21.1910  -13.2210   22.2090 H   0  0  0  0  0  0  0  0  0  0  0  0
  -25.4230  -15.2700   20.1440 N   0  0  0  0  0  0  0  0  0  0  0  0
  -24.6620  -15.9280   20.2690 H   0  0  0  0  0  0  0  0  0  0  0  0
  -26.2680  -15.7050   19.7930 H   0  0  0  0  0  0  0  0  0  0  0  0
  -28.4840  -24.6140   21.1740 C   0  0  0  0  0  2  0  0  0  0  0  0
  -28.7320  -26.1290   21.2700 C   0  0  0  0  0  2  0  0  0  0  0  0
  -28.3420  -26.7550   20.0510 O   0  0  0  0  0  0  0  0  0  0  0  0
  -24.5690  -31.8990   23.2220 C   0  0  0  0  0  0  0  0  0  0  0  0
  -27.1790  -27.4770   20.1180 C   0  0  0  0  0  0  0  0  0  0  0  0
  -23.3410  -30.4940   21.5940 C   0  0  0  0  0  3  0  0  0  0  0  0
  -24.7790  -28.9550   20.1550 C   0  0  0  0  0  0  0  0  0  0  0  0
  -25.8600  -30.8610   21.3630 C   0  0  0  0  0  2  0  0  0  0  0  0
  -25.9390  -29.4880   20.7340 C   0  0  0  0  0  0  0  0  0  0  0  0
  -27.1420  -28.7510   20.7220 C   0  0  0  0  0  3  0  0  0  0  0  0
  -26.0110  -26.9510   19.5320 C   0  0  0  0  0  3  0  0  0  0  0  0
  -24.8070  -27.6820   19.5570 C   0  0  0  0  0  3  0  0  0  0  0  0
  -23.5330  -29.8110   20.2130 C   0  0  0  0  0  2  0  0  0  0  0  0
  -24.6080  -31.0990   22.1200 N   0  0  0  0  0  0  0  0  0  0  0  0
  -23.4940  -32.1720   23.7760 O   0  0  0  0  0  0  0  0  0  0  0  0
  -22.7040  -29.4730   22.5620 C   0  0  0  0  0  0  0  0  0  0  0  0
  -21.3800  -29.2830   22.4420 N   0  0  0  0  0  0  0  0  0  0  0  0
  -23.3950  -28.8520   23.3750 O   0  0  0  0  0  0  0  0  0  0  0  0
  -20.8840  -29.8360   21.7560 H   0  0  0  0  0  0  0  0  0  0  0  0
  -18.0140  -28.0690   22.9420 C   0  0  0  0  0  0  0  0  0  0  0  0
  -20.5690  -28.3460   23.2180 C   0  0  0  0  0  3  0  0  0  0  0  0
  -20.6840  -26.9130   22.6500 C   0  0  0  0  0  2  0  0  0  0  0  0
  -19.5860  -26.5760   21.6360 C   0  0  0  0  0  2  0  0  0  0  0  0
  -18.2020  -26.7170   22.2770 C   0  0  0  0  0  2  0  0  0  0  0  0
  -19.1270  -28.8420   23.3690 C   0  0  0  0  0  0  0  0  0  0  0  0
  -18.9000  -30.1090   23.9490 C   0  0  0  0  0  3  0  0  0  0  0  0
  -17.5930  -30.6050   24.1070 C   0  0  0  0  0  3  0  0  0  0  0  0
  -16.4930  -29.8300   23.6990 C   0  0  0  0  0  3  0  0  0  0  0  0
  -16.7050  -28.5640   23.1220 C   0  0  0  0  0  3  0  0  0  0  0  0
  -25.8640  -32.5270   23.8260 C   0  0  0  0  0  3  0  0  0  0  0  0
  -26.3990  -31.7510   25.0910 C   0  0  1  0  0  0  0  0  0  0  0  0
  -25.3200  -31.5050   26.1710 C   0  0  0  0  0  1  0  0  0  0  0  0
  -26.9790  -30.3770   24.6770 C   0  0  0  0  0  1  0  0  0  0  0  0
  -27.5540  -32.5440   25.7430 C   0  0  0  0  0  1  0  0  0  0  0  0
  -25.5610  -33.9230   24.1630 N   0  0  0  0  0  0  0  0  0  0  0  0
  -25.8920  -34.9770   23.4040 C   0  0  0  0  0  0  0  0  0  0  0  0
  -26.5560  -34.8760   22.3700 O   0  0  0  0  0  0  0  0  0  0  0  0
  -24.9700  -34.0750   24.9670 H   0  0  0  0  0  0  0  0  0  0  0  0
  -24.1680  -36.7750   23.0570 C   0  0  0  0  0  1  0  0  0  0  0  0
  -25.4080  -36.3640   23.8670 C   0  0  0  0  0  3  0  0  0  0  0  0
  -27.5460  -37.2390   24.7000 C   0  0  0  0  0  1  0  0  0  0  0  0
  -26.4440  -37.4150   23.7580 N   0  0  0  0  0  0  0  0  0  0  0  0
  -26.0410  -38.3350   23.9130 H   0  0  0  0  0  0  0  0  0  0  0  0
  1  5  1  0
  2  1  1  0
  2  4  1  0
  3  1  2  0
  6  5  1  0
  8  7  1  0
  8  6  1  0
  9  8  1  0
  9 11  1  0
 10  9  1  0
 12  9  1  0
 13 12  1  0
 14 13  1  0
 15 14  1  0
 16 21  1  0
 17 18  1  0
 17 16  1  0
 19 18  1  0
 19 26  1  0
 19 20  1  0
 21 15  1  0
 21 20  1  0
 22 15  2  0
 23 24  2  0
 24 43  1  0
 25 24  1  0
 25 28  1  0
 26 23  1  0
 26 27  1  0
 27 25  2  0
 28 29  1  0
 29 30  2  0
 31 34  1  0
 31 30  1  0
 32 31  2  0
 33 32  1  0
 33 28  2  0
 34 35  1  0
 35 36  1  0
 36 37  2  0
 38 37  1  0
 38 42  1  0
 39 38  2  0
 40 35  2  0
 40 39  1  0
 41 40  1  0
 43 44  1  0
 44 47  1  0
 44 46  1  0
 45 43  2  0
 48 49  1  0
 48 23  1  0
 50 48  1  0
 51 52  1  0
 51  2  1  0
 53 55  1  0
 53 52  1  0
 54 65  2  0
 55 60  1  0
 56 64  1  0
 56 66  1  0
 57 63  1  0
 57 59  1  0
 58 64  1  0
 59 58  1  0
 60 59  2  0
 61 62  1  0
 61 55  2  0
 62 57  2  0
 63 56  1  0
 64 54  1  0
 66 68  2  0
 67 66  1  0
 69 67  1  0
 70 79  2  0
 70 75  1  0
 71 67  1  0
 71 75  1  0
 72 71  1  0
 73 74  1  0
 73 72  1  0
 74 70  1  0
 75 76  2  0
 76 77  1  0
 78 77  2  0
 79 78  1  0
 80 54  1  0
 80 85  1  0
 80 81  1  0
 81 84  1  1
 81 82  1  0
 83 81  1  0
 85 88  1  0
 86 90  1  0
 86 85  1  0
 87 86  2  0
 90 89  1  0
 92 90  1  0
 92 93  1  0
 92 91  1  0
M  ISO  4  14 100  15 100  52 101  53 101
M  END
>  <TORSDO>  (17) 
F 25

>  <SCORE>  (17) 
-11.950

>  <name>  (17) 
16

>  <ligand_id>  (17) 
16

>  <original_smiles>  (17) 
[H]c1c([H])c([H])c2c(c1[H])C([H])([H])C([H])([H])C([H])([H])C2([H])N([H])C(=O)C1([H])N(C(=O)C([H])(N([H])C(=O)C([H])(N([H])C([H])([H])[H])C([H])([H])[H])C(C([H])([H])[H])(C([H])([H])[H])C([H])([H])[H])C([H])([H])c2c([H])c(OC([H])([H])C([H])([H])N([H])C(=O)C([H])([H])C([H])([H])C([H])(C([H])([H])[H])[N+]([H])([H])C([H])([H])C([H])([H])C([H])([H])C(=O)N3C([H])([H])C([H])([H])C([H])([H])C([H])(n4nc(-c5c([H])c([H])c(Oc6c([H])c([H])c(F)c([H])c6F)c([H])c5[H])c(C(=O)N([H])[H])c4N([H])[H])C3([H])[H])c([H])c([H])c2C1([H])[H]

>  <smiles>  (17) 
[H]c1c([H])c([H])c2c(c1[H])C([H])([H])C([H])([H])C([H])([H])C2([H])N([H])C(=O)C1([H])N(C(=O)C([H])(N([H])C(=O)C([H])(N([H])C([H])([H])[H])C([H])([H])[H])C(C([H])([H])[H])(C([H])([H])[H])C([H])([H])[H])C([H])([H])c2c([H])c(OC([H])([H])C([H])([H])N([H])C(=O)C([H])([H])C([H])([H])C([H])(C([H])([H])[H])[N+]([H])([H])C([H])([H])C([H])([H])C([H])([H])C(=O)N3C([H])([H])C([H])([H])C([H])([H])C([H])(n4nc(-c5c([H])c([H])c(Oc6c([H])c([H])c(F)c([H])c6F)c([H])c5[H])c(C(=O)N([H])[H])c4N([H])[H])C3([H])[H])c([H])c([H])c2C1([H])[H]

$$$$
17:0:0
     RDKit          3D

 91101  0  0  1  0  0  0  0  0999 V2000
  -30.7330  -14.7920   20.3250 C   0  0  0  0  0  0  0  0  0  0  0  0
  -30.4520  -12.5110   19.3300 C   0  0  0  0  0  2  0  0  0  0  0  0
  -29.5380  -12.5680   18.0890 C   0  0  0  0  0  2  0  0  0  0  0  0
  -28.0610  -12.4260   18.5030 C   0  0  0  0  0  2  0  0  0  0  0  0
  -27.6860  -13.3370   19.7040 C   0  0  0  0  0  3  0  0  0  0  0  0
  -28.7320  -13.2820   20.8370 C   0  0  0  0  0  2  0  0  0  0  0  0
  -30.0280  -13.6090   20.2350 N   0  0  0  0  0  0  0  0  0  0  0  0
  -31.9390  -14.7630   20.0560 O   0  0  0  0  0  0  0  0  0  0  0  0
  -30.3950  -21.6270   20.8280 C   0  0  0  0  0  3  0  0  0  0  0  0
  -30.0240  -23.0350   20.8410 C   0  0  0  0  0  3  0  0  0  0  0  0
  -27.7690  -22.5820   20.0200 C   0  0  0  0  0  3  0  0  0  0  0  0
  -29.4190  -20.6840   20.4230 C   0  0  0  0  0  0  0  0  0  0  0  0
  -28.1510  -21.2070   20.0210 C   0  0  0  0  0  0  0  0  0  0  0  0
  -28.7280  -23.5650   20.4630 C   0  0  0  0  0  0  0  0  0  0  0  0
  -27.6310  -19.8070   19.7810 C   0  0  0  0  0  2  0  0  0  0  0  0
  -28.9650  -18.1780   21.4680 C   0  0  0  0  0  2  0  0  0  0  0  0
  -29.7570  -18.3490   19.0720 C   0  0  0  0  0  2  0  0  0  0  0  0
  -29.7870  -16.8030   21.5560 C   0  0  0  0  0  2  0  0  0  0  0  0
  -30.6560  -17.1030   19.4280 C   0  0  0  0  0  2  0  0  0  0  0  0
  -29.0590  -19.1410   20.2200 C   0  0  2  0  0  0  0  0  0  0  0  0
  -30.0750  -16.0400   20.3070 N   0  0  0  0  0  0  0  0  0  0  0  0
  -25.3020  -13.9630   20.3990 C   0  0  0  0  0  0  0  0  0  0  0  0
  -24.2220  -13.2070   20.7640 C   0  0  0  0  0  0  0  0  0  0  0  0
  -24.6680  -11.8500   20.7620 C   0  0  0  0  0  0  0  0  0  0  0  0
  -26.3360  -13.0680   20.1880 N   0  0  0  0  0  0  0  0  0  0  0  0
  -25.9620  -11.7930   20.4700 N   0  0  0  0  0  0  0  0  0  0  0  0
  -23.9230  -10.6010   20.9620 C   0  0  0  0  0  0  0  0  0  0  0  0
  -24.3290   -9.6410   21.9150 C   0  0  0  0  0  3  0  0  0  0  0  0
  -23.5840   -8.4560   22.1020 C   0  0  0  0  0  3  0  0  0  0  0  0
  -22.4170   -8.2230   21.3350 C   0  0  0  0  0  0  0  0  0  0  0  0
  -22.0290   -9.1710   20.3720 C   0  0  0  0  0  3  0  0  0  0  0  0
  -22.7750  -10.3470   20.1830 C   0  0  0  0  0  3  0  0  0  0  0  0
  -21.6440   -7.0920   21.4310 O   0  0  0  0  0  0  0  0  0  0  0  0
  -21.5660   -6.3700   22.5940 C   0  0  0  0  0  0  0  0  0  0  0  0
  -21.1300   -6.9520   23.8050 C   0  0  0  0  0  3  0  0  0  0  0  0
  -20.9990   -6.1560   24.9600 C   0  0  0  0  0  3  0  0  0  0  0  0
  -21.2930   -4.7800   24.9060 C   0  0  0  0  0  0  0  0  0  0  0  0
  -21.7210   -4.1990   23.7000 C   0  0  0  0  0  3  0  0  0  0  0  0
  -21.8550   -4.9910   22.5460 C   0  0  0  0  0  0  0  0  0  0  0  0
  -22.2480   -4.4210   21.3820 F   0  0  0  0  0  0  0  0  0  0  0  0
  -21.1590   -4.0140   26.0140 F   0  0  0  0  0  0  0  0  0  0  0  0
  -22.8270  -13.7070   21.0050 C   0  0  0  0  0  0  0  0  0  0  0  0
  -22.0790  -13.0420   21.8760 N   0  0  0  0  0  0  0  0  0  0  0  0
  -22.4110  -14.7260   20.4560 O   0  0  0  0  0  0  0  0  0  0  0  0
  -22.4280  -12.2170   22.3420 H   0  0  0  0  0  0  0  0  0  0  0  0
  -21.1430  -13.3630   22.0810 H   0  0  0  0  0  0  0  0  0  0  0  0
  -25.4880  -15.3290   20.2080 N   0  0  0  0  0  0  0  0  0  0  0  0
  -24.7320  -15.9980   20.3090 H   0  0  0  0  0  0  0  0  0  0  0  0
  -26.3580  -15.7550   19.9150 H   0  0  0  0  0  0  0  0  0  0  0  0
  -28.2440  -25.0630   20.8220 C   0  0  0  0  0  2  0  0  0  0  0  0
  -28.5190  -26.3370   20.0570 O   0  0  0  0  0  0  0  0  0  0  0  0
  -24.7780  -31.8070   23.1110 C   0  0  0  0  0  0  0  0  0  0  0  0
  -27.4520  -27.2710   20.0230 C   0  0  0  0  0  0  0  0  0  0  0  0
  -23.6000  -30.4050   21.4560 C   0  0  0  0  0  3  0  0  0  0  0  0
  -25.0790  -28.8930   20.0100 C   0  0  0  0  0  0  0  0  0  0  0  0
  -26.1400  -30.7550   21.2820 C   0  0  0  0  0  2  0  0  0  0  0  0
  -26.2450  -29.3810   20.6180 C   0  0  0  0  0  0  0  0  0  0  0  0
  -27.4390  -28.5840   20.6110 C   0  0  0  0  0  3  0  0  0  0  0  0
  -26.2680  -26.8630   19.3750 C   0  0  0  0  0  3  0  0  0  0  0  0
  -25.0980  -27.6440   19.3740 C   0  0  0  0  0  3  0  0  0  0  0  0
  -23.8300  -29.7510   20.0690 C   0  0  0  0  0  2  0  0  0  0  0  0
  -24.8590  -31.0080   22.0060 N   0  0  0  0  0  0  0  0  0  0  0  0
  -23.6880  -32.0590   23.6470 O   0  0  0  0  0  0  0  0  0  0  0  0
  -22.9520  -29.3690   22.4060 C   0  0  0  0  0  0  0  0  0  0  0  0
  -21.6240  -29.1850   22.2930 N   0  0  0  0  0  0  0  0  0  0  0  0
  -23.6420  -28.7310   23.2050 O   0  0  0  0  0  0  0  0  0  0  0  0
  -21.1240  -29.7520   21.6210 H   0  0  0  0  0  0  0  0  0  0  0  0
  -18.2550  -27.9830   22.8470 C   0  0  0  0  0  0  0  0  0  0  0  0
  -20.8210  -28.2290   23.0570 C   0  0  0  0  0  3  0  0  0  0  0  0
  -20.9030  -26.8130   22.4400 C   0  0  0  0  0  2  0  0  0  0  0  0
  -19.7750  -26.5230   21.4460 C   0  0  0  0  0  2  0  0  0  0  0  0
  -18.4100  -26.6540   22.1270 C   0  0  0  0  0  2  0  0  0  0  0  0
  -19.3870  -28.7300   23.2690 C   0  0  0  0  0  0  0  0  0  0  0  0
  -19.1860  -29.9750   23.9040 C   0  0  0  0  0  3  0  0  0  0  0  0
  -17.8880  -30.4740   24.1190 C   0  0  0  0  0  3  0  0  0  0  0  0
  -16.7710  -29.7240   23.7120 C   0  0  0  0  0  3  0  0  0  0  0  0
  -16.9560  -28.4800   23.0820 C   0  0  0  0  0  3  0  0  0  0  0  0
  -26.0460  -32.4580   23.7410 C   0  0  0  0  0  3  0  0  0  0  0  0
  -25.7000  -33.8360   24.1190 N   0  0  0  0  0  0  0  0  0  0  0  0
  -25.9780  -34.9230   23.3850 C   0  0  0  0  0  0  0  0  0  0  0  0
  -26.6220  -34.8710   22.3340 O   0  0  0  0  0  0  0  0  0  0  0  0
  -25.1280  -33.9470   24.9430 H   0  0  0  0  0  0  0  0  0  0  0  0
  -24.1810  -36.6650   23.1330 C   0  0  0  0  0  1  0  0  0  0  0  0
  -25.4580  -36.2800   23.8970 C   0  0  0  0  0  3  0  0  0  0  0  0
  -27.5850  -37.2150   24.6930 C   0  0  0  0  0  1  0  0  0  0  0  0
  -26.4510  -37.3700   23.7850 N   0  0  0  0  0  0  0  0  0  0  0  0
  -26.0180  -38.2710   23.9700 H   0  0  0  0  0  0  0  0  0  0  0  0
  -26.5970  -31.6650   24.9890 C   0  0  1  0  0  0  0  0  0  0  0  0
  -25.5230  -31.3670   26.0610 C   0  0  0  0  0  1  0  0  0  0  0  0
  -27.2120  -30.3140   24.5540 C   0  0  0  0  0  1  0  0  0  0  0  0
  -27.7340  -32.4700   25.6610 C   0  0  0  0  0  1  0  0  0  0  0  0
  2  7  1  0
  3  4  1  0
  3  2  1  0
  5  4  1  0
  5 25  1  0
  5  6  1  0
  7  1  1  0
  7  6  1  0
  8  1  2  0
  9 10  1  0
 11 13  2  0
 11 14  1  0
 12  9  2  0
 13 12  1  0
 14 50  1  0
 14 10  2  0
 15 13  1  0
 20 15  1  6
 16 18  1  0
 17 19  1  0
 19 21  1  0
 20 17  1  0
 20 12  1  0
 20 16  1  0
 21  1  1  0
 21 18  1  0
 22 23  2  0
 23 42  1  0
 24 23  1  0
 24 27  1  0
 25 22  1  0
 25 26  1  0
 26 24  2  0
 27 28  1  0
 28 29  2  0
 30 33  1  0
 30 29  1  0
 31 30  2  0
 32 31  1  0
 32 27  2  0
 33 34  1  0
 34 35  1  0
 35 36  2  0
 37 36  1  0
 37 41  1  0
 38 37  2  0
 39 34  2  0
 39 38  1  0
 40 39  1  0
 42 43  1  0
 43 46  1  0
 43 45  1  0
 44 42  2  0
 47 48  1  0
 47 22  1  0
 49 47  1  0
 51 50  1  0
 52 63  2  0
 53 51  1  0
 53 58  1  0
 54 62  1  0
 54 64  1  0
 55 61  1  0
 55 57  1  0
 56 62  1  0
 57 56  1  0
 58 57  2  0
 59 53  2  0
 60 59  1  0
 60 55  2  0
 61 54  1  0
 62 52  1  0
 64 66  2  0
 65 64  1  0
 67 65  1  0
 68 77  2  0
 68 73  1  0
 69 65  1  0
 69 73  1  0
 70 69  1  0
 71 72  1  0
 71 70  1  0
 72 68  1  0
 73 74  2  0
 74 75  1  0
 76 75  2  0
 77 76  1  0
 78 52  1  0
 78 79  1  0
 78 88  1  0
 79 82  1  0
 80 84  1  0
 80 79  1  0
 81 80  2  0
 84 83  1  0
 86 84  1  0
 86 87  1  0
 86 85  1  0
 88 91  1  1
 88 89  1  0
 90 88  1  0
M  ISO  4   1 100  21 100  50 101  51 101
M  END
>  <TORSDO>  (18) 
F 16

>  <SCORE>  (18) 
-14.620

>  <name>  (18) 
17

>  <ligand_id>  (18) 
17

>  <original_smiles>  (18) 
[H]c1c([H])c([H])c2c(c1[H])C([H])([H])C([H])([H])C([H])([H])C2([H])N([H])C(=O)C1([H])N(C(=O)C([H])(N([H])C(=O)C([H])(N([H])C([H])([H])[H])C([H])([H])[H])C(C([H])([H])[H])(C([H])([H])[H])C([H])([H])[H])C([H])([H])c2c([H])c(OC([H])([H])c3c([H])c([H])c4c(c3[H])C([H])([H])C43C([H])([H])C([H])([H])N(C(=O)N4C([H])([H])C([H])([H])C([H])([H])C([H])(n5nc(-c6c([H])c([H])c(Oc7c([H])c([H])c(F)c([H])c7F)c([H])c6[H])c(C(=O)N([H])[H])c5N([H])[H])C4([H])[H])C([H])([H])C3([H])[H])c([H])c([H])c2C1([H])[H]

>  <smiles>  (18) 
[H]c1c([H])c([H])c2c(c1[H])C([H])([H])C([H])([H])C([H])([H])C2([H])N([H])C(=O)C1([H])N(C(=O)C([H])(N([H])C(=O)C([H])(N([H])C([H])([H])[H])C([H])([H])[H])C(C([H])([H])[H])(C([H])([H])[H])C([H])([H])[H])C([H])([H])c2c([H])c(OC([H])([H])c3c([H])c([H])c4c(c3[H])C([H])([H])C43C([H])([H])C([H])([H])N(C(=O)N4C([H])([H])C([H])([H])C([H])([H])C([H])(n5nc(-c6c([H])c([H])c(Oc7c([H])c([H])c(F)c([H])c7F)c([H])c6[H])c(C(=O)N([H])[H])c5N([H])[H])C4([H])[H])C([H])([H])C3([H])[H])c([H])c([H])c2C1([H])[H]

$$$$
18:0:0
     RDKit          3D

 89 98  0  0  1  0  0  0  0  0999 V2000
  -30.2290  -20.9690   21.3420 C   0  0  0  0  0  0  0  0  0  0  0  0
  -29.9770  -22.5250   21.2650 C   0  0  0  0  0  2  0  0  0  0  0  0
  -29.1380  -20.0820   20.6690 C   0  0  0  0  0  3  0  0  0  0  0  0
  -28.6060  -22.7700   20.5830 C   0  0  0  0  0  3  0  0  0  0  0  0
  -28.5290  -21.3290   19.8600 N   0  0  0  0  0  4  0  0  0  0  0  0
  -31.2370  -20.5280   21.9010 O   0  0  0  0  0  0  0  0  0  0  0  0
  -27.5780  -21.1200   19.6010 H   0  0  0  0  0  0  0  0  0  0  0  0
  -29.0530  -21.3940   19.0020 H   0  0  0  0  0  0  0  0  0  0  0  0
  -28.7240  -17.4010   19.6060 C   0  0  0  0  0  2  0  0  0  0  0  0
  -29.6160  -16.7740   20.6630 C   0  0  0  0  0  3  0  0  0  0  0  0
  -29.6890  -18.4580   20.1110 C   0  0  0  0  0  3  0  0  0  0  0  0
  -30.4080  -15.2920   20.2780 C   0  0  0  0  0  0  0  0  0  0  0  0
  -30.3880  -12.8480   19.4120 C   0  0  0  0  0  2  0  0  0  0  0  0
  -29.4750  -12.6890   18.1690 C   0  0  0  0  0  2  0  0  0  0  0  0
  -28.0210  -12.4200   18.5950 C   0  0  0  0  0  2  0  0  0  0  0  0
  -27.5710  -13.3700   19.7340 C   0  0  0  0  0  3  0  0  0  0  0  0
  -28.6120  -13.4950   20.8670 C   0  0  0  0  0  2  0  0  0  0  0  0
  -29.8640  -13.9780   20.2650 N   0  0  0  0  0  0  0  0  0  0  0  0
  -31.6010  -15.3020   19.9400 O   0  0  0  0  0  0  0  0  0  0  0  0
  -25.1930  -13.9140   20.4770 C   0  0  0  0  0  0  0  0  0  0  0  0
  -24.1330  -13.1300   20.8410 C   0  0  0  0  0  0  0  0  0  0  0  0
  -24.6090  -11.7830   20.8110 C   0  0  0  0  0  0  0  0  0  0  0  0
  -26.2410  -13.0460   20.2350 N   0  0  0  0  0  0  0  0  0  0  0  0
  -25.9020  -11.7570   20.5040 N   0  0  0  0  0  0  0  0  0  0  0  0
  -23.8880  -10.5170   20.9980 C   0  0  0  0  0  0  0  0  0  0  0  0
  -24.3160   -9.5520   21.9360 C   0  0  0  0  0  3  0  0  0  0  0  0
  -23.5920   -8.3530   22.1130 C   0  0  0  0  0  3  0  0  0  0  0  0
  -22.4260   -8.1090   21.3500 C   0  0  0  0  0  0  0  0  0  0  0  0
  -22.0160   -9.0620   20.4000 C   0  0  0  0  0  3  0  0  0  0  0  0
  -22.7410  -10.2520   20.2230 C   0  0  0  0  0  3  0  0  0  0  0  0
  -21.6740   -6.9620   21.4340 O   0  0  0  0  0  0  0  0  0  0  0  0
  -21.6140   -6.2230   22.5890 C   0  0  0  0  0  0  0  0  0  0  0  0
  -21.1600   -6.7780   23.8050 C   0  0  0  0  0  3  0  0  0  0  0  0
  -21.0480   -5.9660   24.9510 C   0  0  0  0  0  3  0  0  0  0  0  0
  -21.3810   -4.6010   24.8820 C   0  0  0  0  0  0  0  0  0  0  0  0
  -21.8280   -4.0450   23.6710 C   0  0  0  0  0  3  0  0  0  0  0  0
  -21.9410   -4.8540   22.5270 C   0  0  0  0  0  0  0  0  0  0  0  0
  -22.3520   -4.3080   21.3570 F   0  0  0  0  0  0  0  0  0  0  0  0
  -21.2670   -3.8180   25.9820 F   0  0  0  0  0  0  0  0  0  0  0  0
  -22.7330  -13.5990   21.1050 C   0  0  0  0  0  0  0  0  0  0  0  0
  -22.0040  -12.8990   21.9660 N   0  0  0  0  0  0  0  0  0  0  0  0
  -22.2940  -14.6240   20.5820 O   0  0  0  0  0  0  0  0  0  0  0  0
  -22.3730  -12.0720   22.4110 H   0  0  0  0  0  0  0  0  0  0  0  0
  -21.0640  -13.1970   22.1860 H   0  0  0  0  0  0  0  0  0  0  0  0
  -25.3480  -15.2870   20.3040 N   0  0  0  0  0  0  0  0  0  0  0  0
  -24.5770  -15.9360   20.4150 H   0  0  0  0  0  0  0  0  0  0  0  0
  -26.2010  -15.7310   19.9900 H   0  0  0  0  0  0  0  0  0  0  0  0
  -28.1770  -24.3790   19.9040 C   0  0  0  0  0  2  0  0  0  0  0  0
  -28.2030  -25.9480   20.3970 O   0  0  0  0  0  0  0  0  0  0  0  0
  -24.5940  -31.8910   23.2480 C   0  0  0  0  0  0  0  0  0  0  0  0
  -27.1870  -27.0270   20.2650 C   0  0  0  0  0  0  0  0  0  0  0  0
  -23.4200  -30.4940   21.5960 C   0  0  0  0  0  3  0  0  0  0  0  0
  -24.8860  -28.8930   20.1890 C   0  0  0  0  0  0  0  0  0  0  0  0
  -25.9860  -30.7090   21.4830 C   0  0  0  0  0  2  0  0  0  0  0  0
  -26.0620  -29.3010   20.8290 C   0  0  0  0  0  0  0  0  0  0  0  0
  -27.2030  -28.3850   20.8490 C   0  0  0  0  0  3  0  0  0  0  0  0
  -25.9860  -26.7730   19.5620 C   0  0  0  0  0  3  0  0  0  0  0  0
  -24.8710  -27.6500   19.5360 C   0  0  0  0  0  3  0  0  0  0  0  0
  -23.6640  -29.8110   20.2230 C   0  0  0  0  0  2  0  0  0  0  0  0
  -24.6870  -31.0580   22.1630 N   0  0  0  0  0  0  0  0  0  0  0  0
  -23.4990  -32.1830   23.7560 O   0  0  0  0  0  0  0  0  0  0  0  0
  -22.7140  -29.4990   22.5540 C   0  0  0  0  0  0  0  0  0  0  0  0
  -21.3880  -29.3280   22.4080 N   0  0  0  0  0  0  0  0  0  0  0  0
  -23.3690  -28.8810   23.3970 O   0  0  0  0  0  0  0  0  0  0  0  0
  -20.9130  -29.8780   21.7060 H   0  0  0  0  0  0  0  0  0  0  0  0
  -18.0030  -28.1050   22.8600 C   0  0  0  0  0  0  0  0  0  0  0  0
  -20.5560  -28.3920   23.1710 C   0  0  0  0  0  3  0  0  0  0  0  0
  -20.6780  -26.9550   22.6100 C   0  0  0  0  0  2  0  0  0  0  0  0
  -19.5970  -26.6170   21.5780 C   0  0  0  0  0  2  0  0  0  0  0  0
  -18.2020  -26.7540   22.1950 C   0  0  0  0  0  2  0  0  0  0  0  0
  -19.1070  -28.8810   23.3050 C   0  0  0  0  0  0  0  0  0  0  0  0
  -18.8650  -30.1420   23.8900 C   0  0  0  0  0  3  0  0  0  0  0  0
  -17.5520  -30.6300   24.0340 C   0  0  0  0  0  3  0  0  0  0  0  0
  -16.4620  -29.8530   23.6050 C   0  0  0  0  0  3  0  0  0  0  0  0
  -16.6880  -28.5920   23.0240 C   0  0  0  0  0  3  0  0  0  0  0  0
  -25.8590  -32.5340   23.8940 C   0  0  0  0  0  3  0  0  0  0  0  0
  -25.5460  -33.9410   24.2010 N   0  0  0  0  0  0  0  0  0  0  0  0
  -25.8950  -34.9890   23.4420 C   0  0  0  0  0  0  0  0  0  0  0  0
  -26.5780  -34.8730   22.4220 O   0  0  0  0  0  0  0  0  0  0  0  0
  -24.9400  -34.1040   24.9920 H   0  0  0  0  0  0  0  0  0  0  0  0
  -24.1840  -36.7950   23.0590 C   0  0  0  0  0  1  0  0  0  0  0  0
  -25.4140  -36.3870   23.8840 C   0  0  0  0  0  3  0  0  0  0  0  0
  -27.5450  -37.2710   24.7310 C   0  0  0  0  0  1  0  0  0  0  0  0
  -26.4550  -37.4320   23.7710 N   0  0  0  0  0  0  0  0  0  0  0  0
  -26.0530  -38.3570   23.9020 H   0  0  0  0  0  0  0  0  0  0  0  0
  -26.3330  -31.7870   25.2020 C   0  0  1  0  0  0  0  0  0  0  0  0
  -25.2090  -31.5820   26.2460 C   0  0  0  0  0  1  0  0  0  0  0  0
  -26.9160  -30.3960   24.8650 C   0  0  0  0  0  1  0  0  0  0  0  0
  -27.4720  -32.5860   25.8780 C   0  0  0  0  0  1  0  0  0  0  0  0
  1  6  2  0
  2  1  1  0
  3  1  1  0
  4 48  1  0
  4  2  1  0
  5  4  1  0
  5  3  1  0
  7  5  1  0
  8  5  1  0
  9 10  1  0
 10 12  1  0
 11  9  1  0
 11 10  1  0
 11  3  1  0
 13 18  1  0
 14 15  1  0
 14 13  1  0
 16 15  1  0
 16 23  1  0
 16 17  1  0
 18 12  1  0
 18 17  1  0
 19 12  2  0
 20 21  2  0
 21 40  1  0
 22 21  1  0
 22 25  1  0
 23 20  1  0
 23 24  1  0
 24 22  2  0
 25 26  1  0
 26 27  2  0
 28 31  1  0
 28 27  1  0
 29 28  2  0
 30 29  1  0
 30 25  2  0
 31 32  1  0
 32 33  1  0
 33 34  2  0
 35 34  1  0
 35 39  1  0
 36 35  2  0
 37 32  2  0
 37 36  1  0
 38 37  1  0
 40 41  1  0
 41 44  1  0
 41 43  1  0
 42 40  2  0
 45 46  1  0
 45 20  1  0
 47 45  1  0
 48 49  1  0
 50 61  2  0
 51 49  1  0
 51 56  1  0
 52 60  1  0
 52 62  1  0
 53 59  1  0
 53 55  1  0
 54 60  1  0
 55 56  2  0
 55 54  1  0
 57 51  2  0
 58 57  1  0
 58 53  2  0
 59 52  1  0
 60 50  1  0
 62 64  2  0
 63 62  1  0
 65 63  1  0
 66 75  2  0
 66 71  1  0
 67 63  1  0
 67 71  1  0
 68 67  1  0
 69 70  1  0
 69 68  1  0
 70 66  1  0
 71 72  2  0
 72 73  1  0
 74 73  2  0
 75 74  1  0
 76 50  1  0
 76 77  1  0
 76 86  1  0
 77 80  1  0
 78 82  1  0
 78 77  1  0
 79 78  2  0
 82 81  1  0
 84 82  1  0
 84 85  1  0
 84 83  1  0
 86 89  1  1
 86 87  1  0
 88 86  1  0
M  ISO  4  10 100  12 100  48 101  49 101
M  END
>  <TORSDO>  (19) 
F 18

>  <SCORE>  (19) 
-16.354

>  <name>  (19) 
18

>  <ligand_id>  (19) 
18

>  <original_smiles>  (19) 
[H]c1c([H])c([H])c2c(c1[H])C([H])([H])C([H])([H])C([H])([H])C2([H])N([H])C(=O)C1([H])N(C(=O)C([H])(N([H])C(=O)C([H])(N([H])C([H])([H])[H])C([H])([H])[H])C(C([H])([H])[H])(C([H])([H])[H])C([H])([H])[H])C([H])([H])c2c([H])c(OC([H])([H])C3([H])C([H])([H])C(=O)C([H])(C4([H])C([H])([H])C4([H])C(=O)N4C([H])([H])C([H])([H])C([H])([H])C([H])(n5nc(-c6c([H])c([H])c(Oc7c([H])c([H])c(F)c([H])c7F)c([H])c6[H])c(C(=O)N([H])[H])c5N([H])[H])C4([H])[H])[N+]3([H])[H])c([H])c([H])c2C1([H])[H]

>  <smiles>  (19) 
[H]c1c([H])c([H])c2c(c1[H])C([H])([H])C([H])([H])C([H])([H])C2([H])N([H])C(=O)C1([H])N(C(=O)C([H])(N([H])C(=O)C([H])(N([H])C([H])([H])[H])C([H])([H])[H])C(C([H])([H])[H])(C([H])([H])[H])C([H])([H])[H])C([H])([H])c2c([H])c(OC([H])([H])C3([H])C([H])([H])C(=O)C([H])(C4([H])C([H])([H])C4([H])C(=O)N4C([H])([H])C([H])([H])C([H])([H])C([H])(n5nc(-c6c([H])c([H])c(Oc7c([H])c([H])c(F)c([H])c7F)c([H])c6[H])c(C(=O)N([H])[H])c5N([H])[H])C4([H])[H])[N+]3([H])[H])c([H])c([H])c2C1([H])[H]

$$$$
19:0:0
     RDKit          3D

 91 99  0  0  1  0  0  0  0  0999 V2000
  -28.4790  -22.0980   19.1980 C   0  0  0  0  0  0  0  0  0  0  0  0
  -29.1280  -22.3210   21.4220 C   0  0  0  0  0  0  0  0  0  0  0  0
  -28.9280  -21.3350   20.3610 C   0  0  0  0  0  0  0  0  0  0  0  0
  -28.2410  -23.5750   19.1220 C   0  0  0  0  0  0  0  0  0  0  0  0
  -28.8690  -23.7960   21.3480 C   0  0  0  0  0  0  0  0  0  0  0  0
  -28.3670  -24.5510   20.2040 C   0  0  0  0  0  0  0  0  0  0  0  0
  -28.2270  -21.2420   17.9580 C   0  0  0  0  0  1  0  0  0  0  0  0
  -29.6450  -21.7600   22.7440 C   0  0  0  0  0  1  0  0  0  0  0  0
  -27.8540  -24.1620   17.7740 C   0  0  0  0  0  1  0  0  0  0  0  0
  -29.1640  -24.6370   22.5870 C   0  0  0  0  0  1  0  0  0  0  0  0
  -28.3050  -26.0780   20.1070 O   0  0  0  0  0  0  0  0  0  0  0  0
  -24.6990  -31.9190   23.2010 C   0  0  0  0  0  0  0  0  0  0  0  0
  -27.2200  -27.0870   20.1310 C   0  0  0  0  0  0  0  0  0  0  0  0
  -23.4740  -30.5300   21.5750 C   0  0  0  0  0  3  0  0  0  0  0  0
  -24.9000  -28.9250   20.1310 C   0  0  0  0  0  0  0  0  0  0  0  0
  -26.0350  -30.7510   21.3840 C   0  0  0  0  0  2  0  0  0  0  0  0
  -26.0960  -29.3460   20.7290 C   0  0  0  0  0  0  0  0  0  0  0  0
  -27.2460  -28.4460   20.7060 C   0  0  0  0  0  3  0  0  0  0  0  0
  -25.9940  -26.8020   19.4930 C   0  0  0  0  0  3  0  0  0  0  0  0
  -24.8700  -27.6710   19.4960 C   0  0  0  0  0  3  0  0  0  0  0  0
  -23.6810  -29.8430   20.1950 C   0  0  0  0  0  2  0  0  0  0  0  0
  -24.7580  -31.0930   22.1070 N   0  0  0  0  0  0  0  0  0  0  0  0
  -23.6190  -32.2040   23.7440 O   0  0  0  0  0  0  0  0  0  0  0  0
  -22.8000  -29.5300   22.5510 C   0  0  0  0  0  0  0  0  0  0  0  0
  -21.4700  -29.3500   22.4360 N   0  0  0  0  0  0  0  0  0  0  0  0
  -23.4780  -28.9170   23.3780 O   0  0  0  0  0  0  0  0  0  0  0  0
  -20.9730  -29.9010   21.7500 H   0  0  0  0  0  0  0  0  0  0  0  0
  -18.1100  -28.0890   22.9560 C   0  0  0  0  0  0  0  0  0  0  0  0
  -20.6630  -28.4050   23.2150 C   0  0  0  0  0  3  0  0  0  0  0  0
  -20.7900  -26.9670   22.6580 C   0  0  0  0  0  2  0  0  0  0  0  0
  -19.6960  -26.6150   21.6450 C   0  0  0  0  0  2  0  0  0  0  0  0
  -18.3110  -26.7390   22.2880 C   0  0  0  0  0  2  0  0  0  0  0  0
  -19.2140  -28.8780   23.3770 C   0  0  0  0  0  0  0  0  0  0  0  0
  -18.9700  -30.1380   23.9660 C   0  0  0  0  0  3  0  0  0  0  0  0
  -17.6550  -30.6130   24.1310 C   0  0  0  0  0  3  0  0  0  0  0  0
  -16.5660  -29.8240   23.7240 C   0  0  0  0  0  3  0  0  0  0  0  0
  -16.7940  -28.5630   23.1440 C   0  0  0  0  0  3  0  0  0  0  0  0
  -25.9810  -32.5570   23.8150 C   0  0  0  0  0  3  0  0  0  0  0  0
  -25.6660  -33.9510   24.1760 N   0  0  0  0  0  0  0  0  0  0  0  0
  -25.9520  -35.0230   23.4260 C   0  0  0  0  0  0  0  0  0  0  0  0
  -26.5730  -34.9460   22.3630 O   0  0  0  0  0  0  0  0  0  0  0  0
  -25.1070  -34.0830   25.0060 H   0  0  0  0  0  0  0  0  0  0  0  0
  -24.1810  -36.8020   23.2100 C   0  0  0  0  0  1  0  0  0  0  0  0
  -25.4770  -36.4010   23.9350 C   0  0  0  0  0  3  0  0  0  0  0  0
  -27.6420  -37.3120   24.6490 C   0  0  0  0  0  1  0  0  0  0  0  0
  -26.4860  -37.4700   23.7720 N   0  0  0  0  0  0  0  0  0  0  0  0
  -26.0750  -38.3820   23.9510 H   0  0  0  0  0  0  0  0  0  0  0  0
  -26.5190  -31.7780   25.0790 C   0  0  1  0  0  0  0  0  0  0  0  0
  -25.4430  -31.5310   26.1610 C   0  0  0  0  0  1  0  0  0  0  0  0
  -27.1010  -30.4050   24.6760 C   0  0  0  0  0  1  0  0  0  0  0  0
  -27.6780  -32.5700   25.7300 C   0  0  0  0  0  1  0  0  0  0  0  0
  -28.9050  -19.5910   20.5280 C   0  0  0  0  0  3  0  0  0  0  0  0
  -30.0160  -18.2200   20.2930 C   0  0  0  0  0  3  0  0  0  0  0  0
  -30.4830  -15.3360   20.1940 C   0  0  0  0  0  0  0  0  0  0  0  0
  -30.4020  -12.9360   19.2400 C   0  0  0  0  0  2  0  0  0  0  0  0
  -29.4420  -12.8020   18.0320 C   0  0  0  0  0  2  0  0  0  0  0  0
  -28.0000  -12.5350   18.5010 C   0  0  0  0  0  2  0  0  0  0  0  0
  -27.6020  -13.4500   19.6890 C   0  0  0  0  0  3  0  0  0  0  0  0
  -28.6870  -13.5380   20.7840 C   0  0  0  0  0  2  0  0  0  0  0  0
  -29.9040  -14.0440   20.1300 N   0  0  0  0  0  0  0  0  0  0  0  0
  -31.6880  -15.3540   19.9040 O   0  0  0  0  0  0  0  0  0  0  0  0
  -29.7310  -16.5880   20.3830 N   0  0  0  0  0  0  0  0  0  0  0  0
  -28.7640  -16.3850   20.5910 H   0  0  0  0  0  0  0  0  0  0  0  0
  -25.2460  -13.9840   20.5110 C   0  0  0  0  0  0  0  0  0  0  0  0
  -24.1980  -13.1960   20.8940 C   0  0  0  0  0  0  0  0  0  0  0  0
  -24.6690  -11.8480   20.8250 C   0  0  0  0  0  0  0  0  0  0  0  0
  -26.2870  -13.1190   20.2260 N   0  0  0  0  0  0  0  0  0  0  0  0
  -25.9540  -11.8260   20.4840 N   0  0  0  0  0  0  0  0  0  0  0  0
  -23.9520  -10.5790   21.0100 C   0  0  0  0  0  0  0  0  0  0  0  0
  -24.3920   -9.6100   21.9400 C   0  0  0  0  0  3  0  0  0  0  0  0
  -23.6740   -8.4070   22.1140 C   0  0  0  0  0  3  0  0  0  0  0  0
  -22.5000   -8.1660   21.3620 C   0  0  0  0  0  0  0  0  0  0  0  0
  -22.0780   -9.1250   20.4230 C   0  0  0  0  0  3  0  0  0  0  0  0
  -22.7960  -10.3190   20.2450 C   0  0  0  0  0  3  0  0  0  0  0  0
  -21.7470   -7.0190   21.4500 O   0  0  0  0  0  0  0  0  0  0  0  0
  -21.6760   -6.2920   22.6120 C   0  0  0  0  0  0  0  0  0  0  0  0
  -21.1890   -6.8540   23.8150 C   0  0  0  0  0  3  0  0  0  0  0  0
  -21.0670   -6.0510   24.9670 C   0  0  0  0  0  3  0  0  0  0  0  0
  -21.4210   -4.6890   24.9190 C   0  0  0  0  0  0  0  0  0  0  0  0
  -21.8990   -4.1290   23.7210 C   0  0  0  0  0  3  0  0  0  0  0  0
  -22.0240   -4.9280   22.5730 C   0  0  0  0  0  0  0  0  0  0  0  0
  -22.4630   -4.3760   21.4150 F   0  0  0  0  0  0  0  0  0  0  0  0
  -21.2990   -3.9150   26.0230 F   0  0  0  0  0  0  0  0  0  0  0  0
  -22.8060  -13.6610   21.2050 C   0  0  0  0  0  0  0  0  0  0  0  0
  -22.1040  -12.9530   22.0820 N   0  0  0  0  0  0  0  0  0  0  0  0
  -22.3490  -14.6860   20.7030 O   0  0  0  0  0  0  0  0  0  0  0  0
  -22.4860  -12.1210   22.5070 H   0  0  0  0  0  0  0  0  0  0  0  0
  -21.1720  -13.2460   22.3350 H   0  0  0  0  0  0  0  0  0  0  0  0
  -25.3930  -15.3580   20.3480 N   0  0  0  0  0  0  0  0  0  0  0  0
  -24.6180  -15.9980   20.4860 H   0  0  0  0  0  0  0  0  0  0  0  0
  -26.2110  -15.8070   19.9590 H   0  0  0  0  0  0  0  0  0  0  0  0
  1  3  1  0
  2  8  1  0
  3 52  1  0
  3  2  2  0
  4  1  2  0
  4  6  1  0
  5  2  1  0
  5 10  1  0
  6  5  2  0
  7  1  1  0
  9  4  1  0
 11 13  1  0
 11  6  1  0
 12 23  2  0
 13 18  1  0
 14 22  1  0
 14 24  1  0
 15 21  1  0
 15 17  1  0
 16 22  1  0
 17 16  1  0
 18 17  2  0
 19 20  1  0
 19 13  2  0
 20 15  2  0
 21 14  1  0
 22 12  1  0
 24 26  2  0
 25 24  1  0
 27 25  1  0
 28 37  2  0
 28 33  1  0
 29 25  1  0
 29 33  1  0
 30 29  1  0
 31 32  1  0
 31 30  1  0
 32 28  1  0
 33 34  2  0
 34 35  1  0
 36 35  2  0
 37 36  1  0
 38 12  1  0
 38 39  1  0
 38 48  1  0
 39 42  1  0
 40 44  1  0
 40 39  1  0
 41 40  2  0
 44 43  1  0
 46 44  1  0
 46 47  1  0
 46 45  1  0
 48 51  1  1
 48 49  1  0
 50 48  1  0
 53 62  1  0
 53 52  2  0
 54 62  1  0
 55 60  1  0
 56 57  1  0
 56 55  1  0
 58 57  1  0
 58 67  1  0
 58 59  1  0
 60 54  1  0
 60 59  1  0
 61 54  2  0
 62 63  1  0
 64 65  2  0
 65 84  1  0
 66 65  1  0
 66 69  1  0
 67 68  1  0
 67 64  1  0
 68 66  2  0
 69 70  1  0
 70 71  2  0
 72 75  1  0
 72 71  1  0
 73 72  2  0
 74 73  1  0
 74 69  2  0
 75 76  1  0
 76 77  1  0
 77 78  2  0
 79 78  1  0
 79 83  1  0
 80 79  2  0
 81 76  2  0
 81 80  1  0
 82 81  1  0
 84 85  1  0
 85 88  1  0
 85 87  1  0
 86 84  2  0
 89 90  1  0
 89 64  1  0
 91 89  1  0
M  ISO  4   6 101  11 101  54 100  62 100
M  END
>  <TORSDO>  (20) 
F 18

>  <SCORE>  (20) 
-16.063

>  <name>  (20) 
19

>  <ligand_id>  (20) 
19

>  <original_smiles>  (20) 
[H]c1c([H])c([H])c2c(c1[H])C([H])([H])C([H])([H])C([H])([H])C2([H])N([H])C(=O)C1([H])N(C(=O)C([H])(N([H])C(=O)C([H])(N([H])C([H])([H])[H])C([H])([H])[H])C(C([H])([H])[H])(C([H])([H])[H])C([H])([H])[H])C([H])([H])c2c([H])c(Oc3c(C([H])([H])[H])c(C([H])([H])[H])c(C([H])([H])C([H])([H])N([H])C(=O)N4C([H])([H])C([H])([H])C([H])([H])C([H])(n5nc(-c6c([H])c([H])c(Oc7c([H])c([H])c(F)c([H])c7F)c([H])c6[H])c(C(=O)N([H])[H])c5N([H])[H])C4([H])[H])c(C([H])([H])[H])c3C([H])([H])[H])c([H])c([H])c2C1([H])[H]

>  <smiles>  (20) 
[H]c1c([H])c([H])c2c(c1[H])C([H])([H])C([H])([H])C([H])([H])C2([H])N([H])C(=O)C1([H])N(C(=O)C([H])(N([H])C(=O)C([H])(N([H])C([H])([H])[H])C([H])([H])[H])C(C([H])([H])[H])(C([H])([H])[H])C([H])([H])[H])C([H])([H])c2c([H])c(Oc3c(C([H])([H])[H])c(C([H])([H])[H])c(C([H])([H])C([H])([H])N([H])C(=O)N4C([H])([H])C([H])([H])C([H])([H])C([H])(n5nc(-c6c([H])c([H])c(Oc7c([H])c([H])c(F)c([H])c7F)c([H])c6[H])c(C(=O)N([H])[H])c5N([H])[H])C4([H])[H])c(C([H])([H])[H])c3C([H])([H])[H])c([H])c([H])c2C1([H])[H]

$$$$
20:0:0
     RDKit          3D

 94104  0  0  1  0  0  0  0  0999 V2000
  -28.9150  -23.6600   22.6500 C   0  0  0  0  0  3  0  0  0  0  0  0
  -28.6000  -24.8150   21.8960 C   0  0  0  0  0  3  0  0  0  0  0  0
  -28.7240  -23.4140   19.9290 C   0  0  0  0  0  3  0  0  0  0  0  0
  -29.1450  -22.3670   22.0950 C   0  0  0  0  0  0  0  0  0  0  0  0
  -29.0090  -22.1120   20.6880 C   0  0  0  0  0  0  0  0  0  0  0  0
  -28.5190  -24.8350   20.4890 C   0  0  0  0  0  0  0  0  0  0  0  0
  -29.5210  -21.2820   23.1240 C   0  0  0  0  0  2  0  0  0  0  0  0
  -30.2770  -20.0680   22.5440 C   0  0  0  0  0  2  0  0  0  0  0  0
  -29.9880  -19.8370   19.0620 C   0  0  0  0  0  2  0  0  0  0  0  0
  -30.0380  -18.2050   18.7790 C   0  0  0  0  0  2  0  0  0  0  0  0
  -29.6970  -17.7260   21.2440 C   0  0  0  0  0  2  0  0  0  0  0  0
  -29.3950  -19.3700   21.4570 C   0  0  0  0  0  3  0  0  0  0  0  0
  -29.0290  -20.4370   20.2380 C   0  0  1  0  0  0  0  0  0  0  0  0
  -30.5360  -17.1750   19.9500 C   0  0  1  0  0  0  0  0  0  0  0  0
  -27.5590  -20.1210   19.7880 C   0  0  0  0  0  1  0  0  0  0  0  0
  -30.9200  -15.5110   19.5020 C   0  0  0  0  0  0  0  0  0  0  0  0
  -30.6350  -13.0960   18.5820 C   0  0  0  0  0  2  0  0  0  0  0  0
  -29.5760  -12.9620   17.4540 C   0  0  0  0  0  2  0  0  0  0  0  0
  -28.1940  -12.6760   18.0590 C   0  0  0  0  0  2  0  0  0  0  0  0
  -27.9010  -13.6110   19.2610 C   0  0  0  0  0  3  0  0  0  0  0  0
  -29.0850  -13.7920   20.2550 C   0  0  0  0  0  2  0  0  0  0  0  0
  -30.2680  -14.2410   19.5090 N   0  0  0  0  0  0  0  0  0  0  0  0
  -32.0270  -15.4100   18.9580 O   0  0  0  0  0  0  0  0  0  0  0  0
  -25.7120  -14.1070   20.4710 C   0  0  0  0  0  0  0  0  0  0  0  0
  -24.6910  -13.3020   20.9190 C   0  0  0  0  0  0  0  0  0  0  0  0
  -25.0940  -11.9640   20.6450 C   0  0  0  0  0  0  0  0  0  0  0  0
  -26.6590  -13.2490   19.9460 N   0  0  0  0  0  0  0  0  0  0  0  0
  -26.3120  -11.9450   20.1100 N   0  0  0  0  0  0  0  0  0  0  0  0
  -24.3490  -10.7020   20.7980 C   0  0  0  0  0  0  0  0  0  0  0  0
  -24.7980   -9.6770   21.6580 C   0  0  0  0  0  3  0  0  0  0  0  0
  -24.0560   -8.4830   21.8030 C   0  0  0  0  0  3  0  0  0  0  0  0
  -22.8470   -8.3060   21.0890 C   0  0  0  0  0  0  0  0  0  0  0  0
  -22.4150   -9.3180   20.2140 C   0  0  0  0  0  3  0  0  0  0  0  0
  -23.1590  -10.5040   20.0670 C   0  0  0  0  0  3  0  0  0  0  0  0
  -22.0730   -7.1720   21.1480 O   0  0  0  0  0  0  0  0  0  0  0  0
  -21.8970   -6.4770   22.3190 C   0  0  0  0  0  0  0  0  0  0  0  0
  -21.3650   -7.0910   23.4740 C   0  0  0  0  0  3  0  0  0  0  0  0
  -21.1320   -6.3270   24.6350 C   0  0  0  0  0  3  0  0  0  0  0  0
  -21.4270   -4.9520   24.6450 C   0  0  0  0  0  0  0  0  0  0  0  0
  -21.9440   -4.3340   23.4920 C   0  0  0  0  0  3  0  0  0  0  0  0
  -22.1780   -5.0950   22.3350 C   0  0  0  0  0  0  0  0  0  0  0  0
  -22.6630   -4.4940   21.2210 F   0  0  0  0  0  0  0  0  0  0  0  0
  -21.1940   -4.2140   25.7570 F   0  0  0  0  0  0  0  0  0  0  0  0
  -23.3820  -13.7770   21.4730 C   0  0  0  0  0  0  0  0  0  0  0  0
  -22.7880  -13.0090   22.3890 N   0  0  0  0  0  0  0  0  0  0  0  0
  -22.8960  -14.8490   21.1320 O   0  0  0  0  0  0  0  0  0  0  0  0
  -23.2030  -12.1430   22.6960 H   0  0  0  0  0  0  0  0  0  0  0  0
  -21.9050  -13.3050   22.7800 H   0  0  0  0  0  0  0  0  0  0  0  0
  -25.8900  -15.4800   20.4430 N   0  0  0  0  0  0  0  0  0  0  0  0
  -25.1650  -16.1250   20.7410 H   0  0  0  0  0  0  0  0  0  0  0  0
  -26.6810  -15.9480   20.0200 H   0  0  0  0  0  0  0  0  0  0  0  0
  -31.8080  -17.7720   20.2780 O   0  0  0  0  0  0  0  0  0  0  0  0
  -31.7310  -18.7200   20.2090 H   0  0  0  0  0  0  0  0  0  0  0  0
  -28.4300  -26.2200   19.8820 O   0  0  0  0  0  0  0  0  0  0  0  0
  -24.6000  -31.8310   23.0930 C   0  0  0  0  0  0  0  0  0  0  0  0
  -27.3540  -27.2370   19.9510 C   0  0  0  0  0  0  0  0  0  0  0  0
  -23.4520  -30.4300   21.4150 C   0  0  0  0  0  3  0  0  0  0  0  0
  -24.9680  -28.9560   19.9360 C   0  0  0  0  0  0  0  0  0  0  0  0
  -25.9960  -30.8050   21.2490 C   0  0  0  0  0  2  0  0  0  0  0  0
  -26.1320  -29.4210   20.5620 C   0  0  0  0  0  0  0  0  0  0  0  0
  -27.3290  -28.5790   20.5430 C   0  0  0  0  0  3  0  0  0  0  0  0
  -26.1680  -26.9140   19.2650 C   0  0  0  0  0  3  0  0  0  0  0  0
  -25.0020  -27.7240   19.2620 C   0  0  0  0  0  3  0  0  0  0  0  0
  -23.7020  -29.8070   20.0170 C   0  0  0  0  0  2  0  0  0  0  0  0
  -24.6990  -31.0550   21.9670 N   0  0  0  0  0  0  0  0  0  0  0  0
  -23.5100  -32.0420   23.6460 O   0  0  0  0  0  0  0  0  0  0  0  0
  -22.8330  -29.3640   22.3550 C   0  0  0  0  0  0  0  0  0  0  0  0
  -21.5160  -29.1180   22.2450 N   0  0  0  0  0  0  0  0  0  0  0  0
  -23.5470  -28.7640   23.1690 O   0  0  0  0  0  0  0  0  0  0  0  0
  -20.9780  -29.6610   21.5850 H   0  0  0  0  0  0  0  0  0  0  0  0
  -18.2370  -27.6350   22.6920 C   0  0  0  0  0  0  0  0  0  0  0  0
  -20.7650  -28.1040   22.9910 C   0  0  0  0  0  3  0  0  0  0  0  0
  -20.9860  -26.6890   22.4040 C   0  0  0  0  0  2  0  0  0  0  0  0
  -19.9250  -26.2910   21.3700 C   0  0  0  0  0  2  0  0  0  0  0  0
  -18.5280  -26.3160   22.0000 C   0  0  0  0  0  2  0  0  0  0  0  0
  -19.2850  -28.4820   23.1460 C   0  0  0  0  0  0  0  0  0  0  0  0
  -18.9530  -29.7150   23.7520 C   0  0  0  0  0  3  0  0  0  0  0  0
  -17.6090  -30.1040   23.9040 C   0  0  0  0  0  3  0  0  0  0  0  0
  -16.5760  -29.2560   23.4710 C   0  0  0  0  0  3  0  0  0  0  0  0
  -16.8940  -28.0220   22.8730 C   0  0  0  0  0  3  0  0  0  0  0  0
  -25.8480  -32.5180   23.7270 C   0  0  0  0  0  3  0  0  0  0  0  0
  -25.4850  -33.9030   24.0660 N   0  0  0  0  0  0  0  0  0  0  0  0
  -25.7780  -34.9780   23.3200 C   0  0  0  0  0  0  0  0  0  0  0  0
  -26.4420  -34.9090   22.2860 O   0  0  0  0  0  0  0  0  0  0  0  0
  -24.8940  -34.0300   24.8760 H   0  0  0  0  0  0  0  0  0  0  0  0
  -23.9760  -36.7080   23.0140 C   0  0  0  0  0  1  0  0  0  0  0  0
  -25.2450  -36.3420   23.8010 C   0  0  0  0  0  3  0  0  0  0  0  0
  -27.3520  -37.3110   24.6080 C   0  0  0  0  0  1  0  0  0  0  0  0
  -26.2320  -37.4360   23.6790 N   0  0  0  0  0  0  0  0  0  0  0  0
  -25.7850  -38.3350   23.8370 H   0  0  0  0  0  0  0  0  0  0  0  0
  -26.3880  -31.7660   25.0070 C   0  0  1  0  0  0  0  0  0  0  0  0
  -25.3050  -31.4850   26.0720 C   0  0  0  0  0  1  0  0  0  0  0  0
  -27.0280  -30.4120   24.6270 C   0  0  0  0  0  1  0  0  0  0  0  0
  -27.5010  -32.6070   25.6780 C   0  0  0  0  0  1  0  0  0  0  0  0
  2  1  2  0
  3  6  2  0
  3  5  1  0
  4  1  1  0
  4  7  1  0
  5  4  2  0
  6  2  1  0
  8  7  1  0
  9 13  1  0
 10  9  1  0
 10 14  1  0
 12 11  1  0
 12  8  1  0
 13 15  1  6
 13  5  1  0
 13 12  1  0
 14 16  1  0
 14 52  1  1
 14 11  1  0
 16 22  1  0
 17 22  1  0
 18 19  1  0
 18 17  1  0
 20 19  1  0
 20 27  1  0
 20 21  1  0
 22 21  1  0
 23 16  2  0
 24 25  2  0
 25 44  1  0
 26 29  1  0
 26 25  1  0
 27 28  1  0
 27 24  1  0
 28 26  2  0
 29 30  1  0
 30 31  2  0
 32 35  1  0
 32 31  1  0
 33 32  2  0
 34 33  1  0
 34 29  2  0
 35 36  1  0
 36 41  2  0
 36 37  1  0
 37 38  2  0
 38 39  1  0
 39 43  1  0
 40 39  2  0
 41 40  1  0
 42 41  1  0
 44 45  1  0
 45 47  1  0
 45 48  1  0
 46 44  2  0
 49 24  1  0
 49 50  1  0
 51 49  1  0
 53 52  1  0
 54 56  1  0
 54  6  1  0
 55 66  2  0
 56 61  1  0
 57 65  1  0
 57 67  1  0
 58 64  1  0
 58 60  1  0
 59 65  1  0
 60 59  1  0
 61 60  2  0
 62 56  2  0
 63 62  1  0
 63 58  2  0
 64 57  1  0
 65 55  1  0
 67 69  2  0
 68 67  1  0
 70 68  1  0
 71 80  2  0
 71 76  1  0
 72 68  1  0
 72 76  1  0
 73 72  1  0
 74 75  1  0
 74 73  1  0
 75 71  1  0
 76 77  2  0
 77 78  1  0
 79 78  2  0
 80 79  1  0
 81 55  1  0
 81 82  1  0
 81 91  1  0
 82 85  1  0
 83 87  1  0
 83 82  1  0
 84 83  2  0
 87 86  1  0
 89 87  1  0
 89 90  1  0
 89 88  1  0
 91 94  1  1
 91 92  1  0
 93 91  1  0
M  ISO  4   6 101  14 100  16 100  54 101
M  END
>  <TORSDO>  (21) 
F 17

>  <SCORE>  (21) 
-12.902

>  <name>  (21) 
20

>  <ligand_id>  (21) 
20

>  <original_smiles>  (21) 
[H]OC1(C(=O)N2C([H])([H])C([H])([H])C([H])([H])C([H])(n3nc(-c4c([H])c([H])c(Oc5c([H])c([H])c(F)c([H])c5F)c([H])c4[H])c(C(=O)N([H])[H])c3N([H])[H])C2([H])[H])C([H])([H])C([H])([H])C2(C([H])([H])[H])c3c([H])c(Oc4c([H])c([H])c5c(c4[H])C([H])([H])N(C(=O)C([H])(N([H])C(=O)C([H])(N([H])C([H])([H])[H])C([H])([H])[H])C(C([H])([H])[H])(C([H])([H])[H])C([H])([H])[H])C([H])(C(=O)N([H])C4([H])c6c([H])c([H])c([H])c([H])c6C([H])([H])C([H])([H])C4([H])[H])C5([H])[H])c([H])c([H])c3C([H])([H])C([H])([H])C2([H])C1([H])[H]

>  <smiles>  (21) 
[H]OC1(C(=O)N2C([H])([H])C([H])([H])C([H])([H])C([H])(n3nc(-c4c([H])c([H])c(Oc5c([H])c([H])c(F)c([H])c5F)c([H])c4[H])c(C(=O)N([H])[H])c3N([H])[H])C2([H])[H])C([H])([H])C([H])([H])C2(C([H])([H])[H])c3c([H])c(Oc4c([H])c([H])c5c(c4[H])C([H])([H])N(C(=O)C([H])(N([H])C(=O)C([H])(N([H])C([H])([H])[H])C([H])([H])[H])C(C([H])([H])[H])(C([H])([H])[H])C([H])([H])[H])C([H])(C(=O)N([H])C4([H])c6c([H])c([H])c([H])c([H])c6C([H])([H])C([H])([H])C4([H])[H])C5([H])[H])c([H])c([H])c3C([H])([H])C([H])([H])C2([H])C1([H])[H]

$$$$
21:0:0
     RDKit          3D

 91 98  0  0  1  0  0  0  0  0999 V2000
  -30.0820  -22.6410   21.3600 O   0  0  0  0  0  1  0  0  0  0  0  0
  -29.6550  -22.5990   18.9110 O   0  0  0  0  0  1  0  0  0  0  0  0
  -29.1190  -22.4050   20.2670 S   0  0  0  0  0  3  0  0  0  0  0  0
  -27.8460  -24.0480   20.4550 N   0  0  0  0  0  0  0  0  0  0  0  0
  -26.9050  -23.8660   20.0980 H   0  0  0  0  0  0  0  0  0  0  0  0
  -28.1860  -25.7280   20.2880 O   0  0  0  0  0  0  0  0  0  0  0  0
  -24.6630  -31.9080   23.1950 C   0  0  0  0  0  0  0  0  0  0  0  0
  -27.1690  -26.8630   20.2770 C   0  0  0  0  0  0  0  0  0  0  0  0
  -23.4640  -30.4910   21.5800 C   0  0  0  0  0  3  0  0  0  0  0  0
  -24.9010  -28.8370   20.1850 C   0  0  0  0  0  0  0  0  0  0  0  0
  -26.0350  -30.6540   21.4400 C   0  0  0  0  0  2  0  0  0  0  0  0
  -26.0920  -29.2180   20.8150 C   0  0  0  0  0  0  0  0  0  0  0  0
  -27.2140  -28.2530   20.8360 C   0  0  0  0  0  3  0  0  0  0  0  0
  -25.9530  -26.6690   19.5790 C   0  0  0  0  0  3  0  0  0  0  0  0
  -24.8600  -27.5860   19.5470 C   0  0  0  0  0  3  0  0  0  0  0  0
  -23.6920  -29.7790   20.2170 C   0  0  0  0  0  2  0  0  0  0  0  0
  -24.7440  -31.0490   22.1250 N   0  0  0  0  0  0  0  0  0  0  0  0
  -23.5750  -32.2130   23.7110 O   0  0  0  0  0  0  0  0  0  0  0  0
  -22.7580  -29.5200   22.5660 C   0  0  0  0  0  0  0  0  0  0  0  0
  -21.4260  -29.3600   22.4480 N   0  0  0  0  0  0  0  0  0  0  0  0
  -23.4190  -28.9070   23.4070 O   0  0  0  0  0  0  0  0  0  0  0  0
  -20.9420  -29.9090   21.7510 H   0  0  0  0  0  0  0  0  0  0  0  0
  -18.0380  -28.1640   22.9840 C   0  0  0  0  0  0  0  0  0  0  0  0
  -20.6000  -28.4370   23.2360 C   0  0  0  0  0  3  0  0  0  0  0  0
  -20.6980  -26.9950   22.6840 C   0  0  0  0  0  2  0  0  0  0  0  0
  -19.5950  -26.6570   21.6760 C   0  0  0  0  0  2  0  0  0  0  0  0
  -18.2150  -26.8070   22.3220 C   0  0  0  0  0  2  0  0  0  0  0  0
  -19.1570  -28.9350   23.3970 C   0  0  0  0  0  0  0  0  0  0  0  0
  -18.9330  -30.2030   23.9780 C   0  0  0  0  0  3  0  0  0  0  0  0
  -17.6260  -30.6970   24.1480 C   0  0  0  0  0  3  0  0  0  0  0  0
  -16.5230  -29.9220   23.7480 C   0  0  0  0  0  3  0  0  0  0  0  0
  -16.7300  -28.6570   23.1710 C   0  0  0  0  0  3  0  0  0  0  0  0
  -25.9340  -32.5600   23.8190 C   0  0  0  0  0  3  0  0  0  0  0  0
  -26.4510  -31.7990   25.1030 C   0  0  1  0  0  0  0  0  0  0  0  0
  -25.3610  -31.5670   26.1750 C   0  0  0  0  0  1  0  0  0  0  0  0
  -27.0330  -30.4180   24.7290 C   0  0  0  0  0  1  0  0  0  0  0  0
  -27.6060  -32.5980   25.7530 C   0  0  0  0  0  1  0  0  0  0  0  0
  -25.6120  -33.9590   24.1600 N   0  0  0  0  0  0  0  0  0  0  0  0
  -25.9220  -35.0260   23.4100 C   0  0  0  0  0  0  0  0  0  0  0  0
  -26.5680  -34.9350   22.3640 O   0  0  0  0  0  0  0  0  0  0  0  0
  -25.0300  -34.1010   24.9720 H   0  0  0  0  0  0  0  0  0  0  0  0
  -24.1720  -36.8150   23.1290 C   0  0  0  0  0  1  0  0  0  0  0  0
  -25.4420  -36.4110   23.8950 C   0  0  0  0  0  3  0  0  0  0  0  0
  -27.5950  -37.3100   24.6610 C   0  0  0  0  0  1  0  0  0  0  0  0
  -26.4620  -37.4730   23.7540 N   0  0  0  0  0  0  0  0  0  0  0  0
  -26.0540  -38.3900   23.9180 H   0  0  0  0  0  0  0  0  0  0  0  0
  -28.7410  -20.1400   20.4200 C   0  0  0  0  0  1  0  0  0  0  0  0
  -32.3260  -20.0480   19.3220 C   0  0  0  0  0  2  0  0  0  0  0  0
  -32.3830  -18.9970   20.4350 C   0  0  0  0  0  2  0  0  0  0  0  0
  -31.2440  -19.7290   18.2760 C   0  0  0  0  0  2  0  0  0  0  0  0
  -31.0210  -18.8750   21.1420 C   0  0  0  0  0  2  0  0  0  0  0  0
  -30.2180  -18.6610   18.6990 C   0  0  0  0  0  2  0  0  0  0  0  0
  -29.8090  -18.5900   20.2020 C   0  0  2  0  0  0  0  0  0  0  0  0
  -30.3110  -15.5350   20.2470 C   0  0  0  0  0  0  0  0  0  0  0  0
  -30.3420  -13.0400   19.3790 C   0  0  0  0  0  2  0  0  0  0  0  0
  -29.4370  -12.7440   18.1520 C   0  0  0  0  0  2  0  0  0  0  0  0
  -28.0040  -12.4150   18.6020 C   0  0  0  0  0  2  0  0  0  0  0  0
  -27.5220  -13.3890   19.7030 C   0  0  0  0  0  3  0  0  0  0  0  0
  -28.5620  -13.6220   20.8230 C   0  0  0  0  0  2  0  0  0  0  0  0
  -29.7600  -14.1980   20.1820 N   0  0  0  0  0  0  0  0  0  0  0  0
  -31.5300  -15.4890   20.0170 O   0  0  0  0  0  0  0  0  0  0  0  0
  -29.5660  -16.8680   20.3730 N   0  0  0  0  0  0  0  0  0  0  0  0
  -28.5890  -16.6660   20.5440 H   0  0  0  0  0  0  0  0  0  0  0  0
  -25.1550  -13.9130   20.4730 C   0  0  0  0  0  0  0  0  0  0  0  0
  -24.1020  -13.1250   20.8460 C   0  0  0  0  0  0  0  0  0  0  0  0
  -24.5810  -11.7800   20.8090 C   0  0  0  0  0  0  0  0  0  0  0  0
  -26.2050  -13.0490   20.2230 N   0  0  0  0  0  0  0  0  0  0  0  0
  -25.8730  -11.7580   20.4950 N   0  0  0  0  0  0  0  0  0  0  0  0
  -23.8650  -10.5110   20.9990 C   0  0  0  0  0  0  0  0  0  0  0  0
  -24.2940   -9.5530   21.9430 C   0  0  0  0  0  3  0  0  0  0  0  0
  -23.5760   -8.3500   22.1210 C   0  0  0  0  0  3  0  0  0  0  0  0
  -22.4150   -8.0960   21.3560 C   0  0  0  0  0  0  0  0  0  0  0  0
  -22.0030   -9.0420   20.4020 C   0  0  0  0  0  3  0  0  0  0  0  0
  -22.7210  -10.2380   20.2220 C   0  0  0  0  0  3  0  0  0  0  0  0
  -21.6660   -6.9460   21.4430 O   0  0  0  0  0  0  0  0  0  0  0  0
  -21.5960   -6.2200   22.6050 C   0  0  0  0  0  0  0  0  0  0  0  0
  -21.1260   -6.7850   23.8100 C   0  0  0  0  0  3  0  0  0  0  0  0
  -21.0060   -5.9830   24.9630 C   0  0  0  0  0  3  0  0  0  0  0  0
  -21.3460   -4.6180   24.9120 C   0  0  0  0  0  0  0  0  0  0  0  0
  -21.8060   -4.0530   23.7120 C   0  0  0  0  0  3  0  0  0  0  0  0
  -21.9300   -4.8520   22.5610 C   0  0  0  0  0  0  0  0  0  0  0  0
  -22.3550   -4.2960   21.4010 F   0  0  0  0  0  0  0  0  0  0  0  0
  -21.2220   -3.8460   26.0190 F   0  0  0  0  0  0  0  0  0  0  0  0
  -22.7020  -13.5910   21.1160 C   0  0  0  0  0  0  0  0  0  0  0  0
  -21.9790  -12.8920   21.9840 N   0  0  0  0  0  0  0  0  0  0  0  0
  -22.2590  -14.6120   20.5930 O   0  0  0  0  0  0  0  0  0  0  0  0
  -22.3470  -12.0680   22.4360 H   0  0  0  0  0  0  0  0  0  0  0  0
  -21.0390  -13.1870   22.2050 H   0  0  0  0  0  0  0  0  0  0  0  0
  -25.3040  -15.2840   20.2890 N   0  0  0  0  0  0  0  0  0  0  0  0
  -24.5330  -15.9350   20.3890 H   0  0  0  0  0  0  0  0  0  0  0  0
  -26.1370  -15.7130   19.9090 H   0  0  0  0  0  0  0  0  0  0  0  0
  3  2  1  6
  3  4  1  0
  3  1  1  0
  5  4  1  0
  6  4  1  0
  7 18  2  0
  8  6  1  0
  8 13  1  0
  9 17  1  0
  9 19  1  0
 10 16  1  0
 10 12  1  0
 11 17  1  0
 12 13  2  0
 12 11  1  0
 14  8  2  0
 15 14  1  0
 15 10  2  0
 16  9  1  0
 17  7  1  0
 19 21  2  0
 20 19  1  0
 22 20  1  0
 23 32  2  0
 23 28  1  0
 24 20  1  0
 24 28  1  0
 25 24  1  0
 26 27  1  0
 26 25  1  0
 27 23  1  0
 28 29  2  0
 29 30  1  0
 31 30  2  0
 32 31  1  0
 33  7  1  0
 33 38  1  0
 33 34  1  0
 34 37  1  1
 34 35  1  0
 36 34  1  0
 38 41  1  0
 39 43  1  0
 39 38  1  0
 40 39  2  0
 43 42  1  0
 45 43  1  0
 45 46  1  0
 45 44  1  0
 48 49  1  0
 49 51  1  0
 50 52  1  0
 50 48  1  0
 52 53  1  0
 53 62  1  0
 53 47  1  6
 53 51  1  0
 54 62  1  0
 55 60  1  0
 56 57  1  0
 56 55  1  0
 58 57  1  0
 58 67  1  0
 58 59  1  0
 60 54  1  0
 60 59  1  0
 61 54  2  0
 62 63  1  0
 64 65  2  0
 65 84  1  0
 66 65  1  0
 66 69  1  0
 67 64  1  0
 67 68  1  0
 68 66  2  0
 69 70  1  0
 70 71  2  0
 72 75  1  0
 72 71  1  0
 73 72  2  0
 74 73  1  0
 74 69  2  0
 75 76  1  0
 76 77  1  0
 77 78  2  0
 79 78  1  0
 79 83  1  0
 80 79  2  0
 81 76  2  0
 81 80  1  0
 82 81  1  0
 84 85  1  0
 85 88  1  0
 85 87  1  0
 86 84  2  0
 89 90  1  0
 89 64  1  0
 91 89  1  0
M  ISO  4   4 101   6 101  54 100  62 100
M  END
>  <TORSDO>  (22) 
F 19

>  <SCORE>  (22) 
-16.878

>  <name>  (22) 
21

>  <ligand_id>  (22) 
21

>  <original_smiles>  (22) 
[H]c1c([H])c([H])c2c(c1[H])C([H])([H])C([H])([H])C([H])([H])C2([H])N([H])C(=O)C1([H])N(C(=O)C([H])(N([H])C(=O)C([H])(N([H])C([H])([H])[H])C([H])([H])[H])C(C([H])([H])[H])(C([H])([H])[H])C([H])([H])[H])C([H])([H])c2c([H])c(ON([H])S(=O)(=O)C([H])([H])C3(N([H])C(=O)N4C([H])([H])C([H])([H])C([H])([H])C([H])(n5nc(-c6c([H])c([H])c(Oc7c([H])c([H])c(F)c([H])c7F)c([H])c6[H])c(C(=O)N([H])[H])c5N([H])[H])C4([H])[H])C([H])([H])C([H])([H])C([H])([H])C([H])([H])C3([H])[H])c([H])c([H])c2C1([H])[H]

>  <smiles>  (22) 
[H]c1c([H])c([H])c2c(c1[H])C([H])([H])C([H])([H])C([H])([H])C2([H])N([H])C(=O)C1([H])N(C(=O)C([H])(N([H])C(=O)C([H])(N([H])C([H])([H])[H])C([H])([H])[H])C(C([H])([H])[H])(C([H])([H])[H])C([H])([H])[H])C([H])([H])c2c([H])c(ON([H])S(=O)(=O)C([H])([H])C3(N([H])C(=O)N4C([H])([H])C([H])([H])C([H])([H])C([H])(n5nc(-c6c([H])c([H])c(Oc7c([H])c([H])c(F)c([H])c7F)c([H])c6[H])c(C(=O)N([H])[H])c5N([H])[H])C4([H])[H])C([H])([H])C([H])([H])C([H])([H])C([H])([H])C3([H])[H])c([H])c([H])c2C1([H])[H]

$$$$
22:0:0
     RDKit          3D

 96105  0  0  1  0  0  0  0  0999 V2000
  -26.9740  -22.0960   19.0530 C   0  0  0  0  0  3  0  0  0  0  0  0
  -26.9550  -24.0760   17.6310 C   0  0  0  0  0  3  0  0  0  0  0  0
  -28.3780  -24.0190   19.6060 C   0  0  0  0  0  3  0  0  0  0  0  0
  -26.4970  -22.7740   17.9120 C   0  0  0  0  0  0  0  0  0  0  0  0
  -27.9620  -22.6950   19.8690 C   0  0  0  0  0  0  0  0  0  0  0  0
  -27.8650  -24.7180   18.4940 C   0  0  0  0  0  0  0  0  0  0  0  0
  -25.4950  -22.1190   16.9850 C   0  0  0  0  0  1  0  0  0  0  0  0
  -28.6160  -21.9280   21.0050 C   0  0  0  0  0  2  0  0  0  0  0  0
  -29.9540  -21.2620   20.5820 C   0  0  0  0  0  2  0  0  0  0  0  0
  -30.9260  -17.7800   19.1800 C   0  0  0  0  0  2  0  0  0  0  0  0
  -29.4190  -17.4740   21.0900 C   0  0  0  0  0  2  0  0  0  0  0  0
  -31.0260  -19.2910   19.5140 C   0  0  0  0  0  2  0  0  0  0  0  0
  -29.4590  -18.9850   21.4030 C   0  0  0  0  0  2  0  0  0  0  0  0
  -30.7270  -16.9460   20.4590 C   0  0  0  0  0  3  0  0  0  0  0  0
  -29.8190  -19.8180   20.2220 N   0  0  1  0  0  4  0  0  0  0  0  0
  -29.0630  -19.7630   19.5600 H   0  0  0  0  0  0  0  0  0  0  0  0
  -31.4180  -14.4970   19.8610 C   0  0  0  0  0  0  0  0  0  0  0  0
  -31.1410  -12.2170   18.9230 C   0  0  0  0  0  2  0  0  0  0  0  0
  -30.1630  -12.3310   17.7330 C   0  0  0  0  0  2  0  0  0  0  0  0
  -28.6860  -12.3220   18.2030 C   0  0  0  0  0  2  0  0  0  0  0  0
  -28.4220  -13.2770   19.3930 C   0  0  0  0  0  3  0  0  0  0  0  0
  -29.4820  -13.0360   20.4850 C   0  0  0  0  0  2  0  0  0  0  0  0
  -30.8000  -13.2860   19.8710 N   0  0  0  0  0  0  0  0  0  0  0  0
  -32.5480  -14.6760   19.3890 O   0  0  0  0  0  0  0  0  0  0  0  0
  -30.5930  -15.4910   20.2660 N   0  0  0  0  0  0  0  0  0  0  0  0
  -29.6660  -15.1480   20.4990 H   0  0  0  0  0  0  0  0  0  0  0  0
  -26.1260  -14.1340   20.1800 C   0  0  0  0  0  0  0  0  0  0  0  0
  -25.0020  -13.4750   20.5930 C   0  0  0  0  0  0  0  0  0  0  0  0
  -25.3260  -12.0820   20.5580 C   0  0  0  0  0  0  0  0  0  0  0  0
  -27.0660  -13.1530   19.9120 N   0  0  0  0  0  0  0  0  0  0  0  0
  -26.5890  -11.9160   20.1990 N   0  0  0  0  0  0  0  0  0  0  0  0
  -24.4950  -10.8960   20.7890 C   0  0  0  0  0  0  0  0  0  0  0  0
  -24.8410   -9.9340   21.7630 C   0  0  0  0  0  3  0  0  0  0  0  0
  -24.0190   -8.8070   21.9780 C   0  0  0  0  0  3  0  0  0  0  0  0
  -22.8340   -8.6390   21.2190 C   0  0  0  0  0  0  0  0  0  0  0  0
  -22.5050   -9.5900   20.2360 C   0  0  0  0  0  3  0  0  0  0  0  0
  -23.3300  -10.7070   20.0200 C   0  0  0  0  0  3  0  0  0  0  0  0
  -21.9930   -7.5600   21.3400 O   0  0  0  0  0  0  0  0  0  0  0  0
  -21.8320   -6.9050   22.5360 C   0  0  0  0  0  0  0  0  0  0  0  0
  -21.3960   -7.5770   23.7010 C   0  0  0  0  0  3  0  0  0  0  0  0
  -21.1740   -6.8530   24.8870 C   0  0  0  0  0  3  0  0  0  0  0  0
  -21.3710   -5.4590   24.9080 C   0  0  0  0  0  0  0  0  0  0  0  0
  -21.7970   -4.7890   23.7490 C   0  0  0  0  0  3  0  0  0  0  0  0
  -22.0210   -5.5090   22.5640 C   0  0  0  0  0  0  0  0  0  0  0  0
  -22.4090   -4.8560   21.4420 F   0  0  0  0  0  0  0  0  0  0  0  0
  -21.1520   -4.7610   26.0460 F   0  0  0  0  0  0  0  0  0  0  0  0
  -23.6650  -14.0850   20.9180 C   0  0  0  0  0  0  0  0  0  0  0  0
  -22.9180  -13.4890   21.8380 N   0  0  0  0  0  0  0  0  0  0  0  0
  -23.2990  -15.1340   20.3860 O   0  0  0  0  0  0  0  0  0  0  0  0
  -23.2160  -12.6320   22.2870 H   0  0  0  0  0  0  0  0  0  0  0  0
  -22.0230  -13.8820   22.0950 H   0  0  0  0  0  0  0  0  0  0  0  0
  -26.4220  -15.4830   19.9850 N   0  0  0  0  0  0  0  0  0  0  0  0
  -25.7480  -16.2220   20.1480 H   0  0  0  0  0  0  0  0  0  0  0  0
  -27.2760  -15.8180   19.5680 H   0  0  0  0  0  0  0  0  0  0  0  0
  -28.3070  -26.1440   18.2140 C   0  0  0  0  0  2  0  0  0  0  0  0
  -28.1380  -27.0300   19.3230 O   0  0  0  0  0  0  0  0  0  0  0  0
  -24.5420  -31.7980   23.1650 C   0  0  0  0  0  0  0  0  0  0  0  0
  -26.9350  -27.6820   19.4790 C   0  0  0  0  0  0  0  0  0  0  0  0
  -23.2130  -30.5440   21.4850 C   0  0  0  0  0  3  0  0  0  0  0  0
  -24.5540  -29.1620   19.8200 C   0  0  0  0  0  0  0  0  0  0  0  0
  -25.7190  -30.9240   21.1590 C   0  0  0  0  0  2  0  0  0  0  0  0
  -25.7480  -29.6210   20.3870 C   0  0  0  0  0  0  0  0  0  0  0  0
  -26.9350  -28.8750   20.2350 C   0  0  0  0  0  3  0  0  0  0  0  0
  -25.7130  -27.2280   18.9220 C   0  0  0  0  0  3  0  0  0  0  0  0
  -24.5240  -27.9620   19.0930 C   0  0  0  0  0  3  0  0  0  0  0  0
  -23.3290  -30.0120   20.0320 C   0  0  0  0  0  2  0  0  0  0  0  0
  -24.5100  -31.1040   21.9930 N   0  0  0  0  0  0  0  0  0  0  0  0
  -23.5010  -32.0220   23.8000 O   0  0  0  0  0  0  0  0  0  0  0  0
  -22.6340  -29.4330   22.3890 C   0  0  0  0  0  0  0  0  0  0  0  0
  -21.3180  -29.2040   22.2760 N   0  0  0  0  0  0  0  0  0  0  0  0
  -23.3610  -28.7860   23.1490 O   0  0  0  0  0  0  0  0  0  0  0  0
  -20.7940  -29.8090   21.6600 H   0  0  0  0  0  0  0  0  0  0  0  0
  -18.0290  -27.7790   22.6010 C   0  0  0  0  0  0  0  0  0  0  0  0
  -20.5540  -28.1750   22.9780 C   0  0  0  0  0  3  0  0  0  0  0  0
  -20.7730  -26.7660   22.3780 C   0  0  0  0  0  2  0  0  0  0  0  0
  -19.7370  -26.3700   21.3240 C   0  0  0  0  0  2  0  0  0  0  0  0
  -18.2990  -26.4810   21.8600 C   0  0  0  0  0  2  0  0  0  0  0  0
  -19.0830  -28.5810   23.1080 C   0  0  0  0  0  0  0  0  0  0  0  0
  -18.7590  -29.7960   23.7500 C   0  0  0  0  0  3  0  0  0  0  0  0
  -17.4240  -30.2100   23.9100 C   0  0  0  0  0  3  0  0  0  0  0  0
  -16.3820  -29.4030   23.4230 C   0  0  0  0  0  3  0  0  0  0  0  0
  -16.6910  -28.1950   22.7680 C   0  0  0  0  0  3  0  0  0  0  0  0
  -25.8770  -32.3650   23.7460 C   0  0  0  0  0  3  0  0  0  0  0  0
  -26.4890  -31.4640   24.8910 C   0  0  1  0  0  0  0  0  0  0  0  0
  -25.4870  -31.1220   26.0180 C   0  0  0  0  0  1  0  0  0  0  0  0
  -27.0200  -30.1270   24.3230 C   0  0  0  0  0  1  0  0  0  0  0  0
  -27.7020  -32.1780   25.5330 C   0  0  0  0  0  1  0  0  0  0  0  0
  -25.6080  -33.7210   24.2360 N   0  0  0  0  0  0  0  0  0  0  0  0
  -25.9010  -34.8410   23.5610 C   0  0  0  0  0  0  0  0  0  0  0  0
  -26.4910  -34.8350   22.4780 O   0  0  0  0  0  0  0  0  0  0  0  0
  -25.0770  -33.8040   25.0920 H   0  0  0  0  0  0  0  0  0  0  0  0
  -24.1660  -36.6570   23.5100 C   0  0  0  0  0  1  0  0  0  0  0  0
  -25.4610  -36.1780   24.1860 C   0  0  0  0  0  3  0  0  0  0  0  0
  -27.6590  -36.9760   24.9350 C   0  0  0  0  0  1  0  0  0  0  0  0
  -26.4900  -37.2350   24.0990 N   0  0  0  0  0  0  0  0  0  0  0  0
  -26.1040  -38.1380   24.3630 H   0  0  0  0  0  0  0  0  0  0  0  0
  1  5  1  0
  2  4  1  0
  2  6  2  0
  3  5  2  0
  4  1  2  0
  5  8  1  0
  6  3  1  0
  7  4  1  0
  9  8  1  0
 10 12  1  0
 10 14  1  0
 11 13  1  0
 12 15  1  0
 14 25  1  0
 14 11  1  0
 15  9  1  0
 15 13  1  0
 15 16  1  6
 17 23  1  0
 17 25  1  0
 18 23  1  0
 19 20  1  0
 19 18  1  0
 21 20  1  0
 21 30  1  0
 21 22  1  0
 23 22  1  0
 24 17  2  0
 25 26  1  0
 27 28  2  0
 28 47  1  0
 29 28  1  0
 29 32  1  0
 30 27  1  0
 30 31  1  0
 31 29  2  0
 32 33  1  0
 33 34  2  0
 35 38  1  0
 35 34  1  0
 36 35  2  0
 37 36  1  0
 37 32  2  0
 38 39  1  0
 39 44  2  0
 39 40  1  0
 40 41  2  0
 41 42  1  0
 42 46  1  0
 43 42  2  0
 44 43  1  0
 45 44  1  0
 47 48  1  0
 48 51  1  0
 48 50  1  0
 49 47  2  0
 52 53  1  0
 52 27  1  0
 54 52  1  0
 55  6  1  0
 55 56  1  0
 56 58  1  0
 57 68  2  0
 58 63  1  0
 59 67  1  0
 59 69  1  0
 60 66  1  0
 60 62  1  0
 61 67  1  0
 62 61  1  0
 63 62  2  0
 64 65  1  0
 64 58  2  0
 65 60  2  0
 66 59  1  0
 67 57  1  0
 69 71  2  0
 70 69  1  0
 72 70  1  0
 73 82  2  0
 73 78  1  0
 74 70  1  0
 74 78  1  0
 75 74  1  0
 76 77  1  0
 76 75  1  0
 77 73  1  0
 78 79  2  0
 79 80  1  0
 81 80  2  0
 82 81  1  0
 83 57  1  0
 83 88  1  0
 83 84  1  0
 84 87  1  1
 84 85  1  0
 86 84  1  0
 88 91  1  0
 89 93  1  0
 89 88  1  0
 90 89  2  0
 93 92  1  0
 95 93  1  0
 95 96  1  0
 95 94  1  0
M  ISO  4  17 100  25 100  55 101  56 101
M  END
>  <TORSDO>  (23) 
F 20

>  <SCORE>  (23) 
-11.843

>  <name>  (23) 
22

>  <ligand_id>  (23) 
22

>  <original_smiles>  (23) 
[H]c1c([H])c([H])c2c(c1[H])C([H])([H])C([H])([H])C([H])([H])C2([H])N([H])C(=O)C1([H])N(C(=O)C([H])(N([H])C(=O)C([H])(N([H])C([H])([H])[H])C([H])([H])[H])C(C([H])([H])[H])(C([H])([H])[H])C([H])([H])[H])C([H])([H])c2c([H])c(OC([H])([H])c3c([H])c(C([H])([H])[H])c([H])c(C([H])([H])C([H])([H])[N+]4([H])C([H])([H])C([H])([H])C([H])(N([H])C(=O)N5C([H])([H])C([H])([H])C([H])([H])C([H])(n6nc(-c7c([H])c([H])c(Oc8c([H])c([H])c(F)c([H])c8F)c([H])c7[H])c(C(=O)N([H])[H])c6N([H])[H])C5([H])[H])C([H])([H])C4([H])[H])c3[H])c([H])c([H])c2C1([H])[H]

>  <smiles>  (23) 
[H]c1c([H])c([H])c2c(c1[H])C([H])([H])C([H])([H])C([H])([H])C2([H])N([H])C(=O)C1([H])N(C(=O)C([H])(N([H])C(=O)C([H])(N([H])C([H])([H])[H])C([H])([H])[H])C(C([H])([H])[H])(C([H])([H])[H])C([H])([H])[H])C([H])([H])c2c([H])c(OC([H])([H])c3c([H])c(C([H])([H])[H])c([H])c(C([H])([H])C([H])([H])[N+]4([H])C([H])([H])C([H])([H])C([H])(N([H])C(=O)N5C([H])([H])C([H])([H])C([H])([H])C([H])(n6nc(-c7c([H])c([H])c(Oc8c([H])c([H])c(F)c([H])c8F)c([H])c7[H])c(C(=O)N([H])[H])c6N([H])[H])C5([H])[H])C([H])([H])C4([H])[H])c3[H])c([H])c([H])c2C1([H])[H]

$$$$
23:0:0
     RDKit          3D

 93101  0  0  1  0  0  0  0  0999 V2000
  -29.8900  -22.3480   20.8530 N   0  0  0  0  0  4  0  0  0  0  0  0
  -30.4370  -22.7510   20.1090 H   0  0  0  0  0  0  0  0  0  0  0  0
  -29.1520  -21.8250   20.4100 H   0  0  0  0  0  0  0  0  0  0  0  0
  -29.1710  -23.2940   23.1480 C   0  0  0  0  0  2  0  0  0  0  0  0
  -27.9620  -23.0940   22.2760 C   0  0  0  0  0  2  0  0  0  0  0  0
  -29.2890  -23.4760   21.6330 C   0  0  2  0  0  0  0  0  0  0  0  0
  -29.5330  -24.8720   21.0410 C   0  0  0  0  0  2  0  0  0  0  0  0
  -28.4290  -25.3810   20.0890 C   0  0  0  0  0  2  0  0  0  0  0  0
  -28.5060  -26.8090   19.9890 O   0  0  0  0  0  0  0  0  0  0  0  0
  -24.6710  -31.8370   23.2230 C   0  0  0  0  0  0  0  0  0  0  0  0
  -27.3150  -27.5050   20.0020 C   0  0  0  0  0  0  0  0  0  0  0  0
  -23.4520  -30.4610   21.5670 C   0  0  0  0  0  3  0  0  0  0  0  0
  -24.8990  -28.9740   20.0830 C   0  0  0  0  0  0  0  0  0  0  0  0
  -25.9690  -30.8560   21.3370 C   0  0  0  0  0  2  0  0  0  0  0  0
  -26.0590  -29.5010   20.6640 C   0  0  0  0  0  0  0  0  0  0  0  0
  -27.2700  -28.7760   20.6180 C   0  0  0  0  0  3  0  0  0  0  0  0
  -26.1380  -26.9920   19.4100 C   0  0  0  0  0  3  0  0  0  0  0  0
  -24.9320  -27.7170   19.4540 C   0  0  0  0  0  3  0  0  0  0  0  0
  -23.6460  -29.8160   20.1690 C   0  0  0  0  0  2  0  0  0  0  0  0
  -24.7170  -31.0640   22.1010 N   0  0  0  0  0  0  0  0  0  0  0  0
  -23.5970  -32.0850   23.7870 O   0  0  0  0  0  0  0  0  0  0  0  0
  -22.8270  -29.4110   22.5140 C   0  0  0  0  0  0  0  0  0  0  0  0
  -21.5040  -29.2150   22.3990 N   0  0  0  0  0  0  0  0  0  0  0  0
  -23.5290  -28.7770   23.3060 O   0  0  0  0  0  0  0  0  0  0  0  0
  -20.9990  -29.7800   21.7300 H   0  0  0  0  0  0  0  0  0  0  0  0
  -18.1500  -27.9730   22.9090 C   0  0  0  0  0  0  0  0  0  0  0  0
  -20.7080  -28.2510   23.1570 C   0  0  0  0  0  3  0  0  0  0  0  0
  -20.8190  -26.8350   22.5460 C   0  0  0  0  0  2  0  0  0  0  0  0
  -19.7080  -26.5240   21.5380 C   0  0  0  0  0  2  0  0  0  0  0  0
  -18.3330  -26.6400   22.2020 C   0  0  0  0  0  2  0  0  0  0  0  0
  -19.2660  -28.7360   23.3430 C   0  0  0  0  0  0  0  0  0  0  0  0
  -19.0420  -29.9850   23.9630 C   0  0  0  0  0  3  0  0  0  0  0  0
  -17.7340  -30.4690   24.1540 C   0  0  0  0  0  3  0  0  0  0  0  0
  -16.6320  -29.7020   23.7350 C   0  0  0  0  0  3  0  0  0  0  0  0
  -16.8420  -28.4560   23.1180 C   0  0  0  0  0  3  0  0  0  0  0  0
  -25.9610  -32.4650   23.8390 C   0  0  0  0  0  3  0  0  0  0  0  0
  -25.6540  -33.8600   24.1780 N   0  0  0  0  0  0  0  0  0  0  0  0
  -25.9860  -34.9170   23.4250 C   0  0  0  0  0  0  0  0  0  0  0  0
  -26.6560  -34.8190   22.3930 O   0  0  0  0  0  0  0  0  0  0  0  0
  -25.0610  -34.0100   24.9820 H   0  0  0  0  0  0  0  0  0  0  0  0
  -24.2680  -36.7170   23.0690 C   0  0  0  0  0  1  0  0  0  0  0  0
  -25.5000  -36.3020   23.8900 C   0  0  0  0  0  3  0  0  0  0  0  0
  -27.6250  -37.1740   24.7550 C   0  0  0  0  0  1  0  0  0  0  0  0
  -26.5370  -37.3520   23.7970 N   0  0  0  0  0  0  0  0  0  0  0  0
  -26.1330  -38.2730   23.9430 H   0  0  0  0  0  0  0  0  0  0  0  0
  -26.4910  -31.6850   25.1030 C   0  0  1  0  0  0  0  0  0  0  0  0
  -25.4070  -31.4360   26.1790 C   0  0  0  0  0  1  0  0  0  0  0  0
  -27.0730  -30.3120   24.6930 C   0  0  0  0  0  1  0  0  0  0  0  0
  -27.6460  -32.4740   25.7620 C   0  0  0  0  0  1  0  0  0  0  0  0
  -30.7810  -21.3990   21.5760 C   0  0  0  0  0  2  0  0  0  0  0  0
  -31.5140  -20.4080   20.6430 C   0  0  0  0  0  2  0  0  0  0  0  0
  -30.6310  -19.2800   20.0660 C   0  0  0  0  0  2  0  0  0  0  0  0
  -30.7790  -17.8990   20.7530 C   0  0  0  0  0  2  0  0  0  0  0  0
  -29.5580  -16.8030   18.7460 C   0  0  0  0  0  1  0  0  0  0  0  0
  -29.7070  -16.8830   20.2830 C   0  0  0  0  0  3  0  0  0  0  0  0
  -30.6520  -14.5480   20.4960 C   0  0  0  0  0  0  0  0  0  0  0  0
  -30.4100  -12.4070   19.3180 C   0  0  0  0  0  2  0  0  0  0  0  0
  -29.4770  -12.6560   18.1120 C   0  0  0  0  0  2  0  0  0  0  0  0
  -27.9970  -12.5050   18.5190 C   0  0  0  0  0  2  0  0  0  0  0  0
  -27.6450  -13.2960   19.8080 C   0  0  0  0  0  3  0  0  0  0  0  0
  -28.6910  -13.0280   20.9180 C   0  0  0  0  0  2  0  0  0  0  0  0
  -30.0260  -13.3470   20.3810 N   0  0  0  0  0  0  0  0  0  0  0  0
  -31.7810  -14.7720   20.0520 O   0  0  0  0  0  0  0  0  0  0  0  0
  -29.8300  -15.5420   20.8780 N   0  0  0  0  0  0  0  0  0  0  0  0
  -28.9890  -15.2100   21.3250 H   0  0  0  0  0  0  0  0  0  0  0  0
  -25.2220  -13.8800   20.4580 C   0  0  0  0  0  0  0  0  0  0  0  0
  -24.1580  -13.0960   20.8160 C   0  0  0  0  0  0  0  0  0  0  0  0
  -24.6400  -11.7510   20.8080 C   0  0  0  0  0  0  0  0  0  0  0  0
  -26.2850  -13.0110   20.2590 N   0  0  0  0  0  0  0  0  0  0  0  0
  -25.9350  -11.7270   20.5240 N   0  0  0  0  0  0  0  0  0  0  0  0
  -23.9300  -10.4800   20.9980 C   0  0  0  0  0  0  0  0  0  0  0  0
  -24.3510   -9.5370   21.9610 C   0  0  0  0  0  3  0  0  0  0  0  0
  -23.6420   -8.3300   22.1370 C   0  0  0  0  0  3  0  0  0  0  0  0
  -22.4990   -8.0560   21.3500 C   0  0  0  0  0  0  0  0  0  0  0  0
  -22.0970   -8.9890   20.3770 C   0  0  0  0  0  3  0  0  0  0  0  0
  -22.8070  -10.1880   20.1990 C   0  0  0  0  0  3  0  0  0  0  0  0
  -21.7630   -6.8990   21.4340 O   0  0  0  0  0  0  0  0  0  0  0  0
  -21.6820   -6.1810   22.6010 C   0  0  0  0  0  0  0  0  0  0  0  0
  -21.1740   -6.7470   23.7900 C   0  0  0  0  0  3  0  0  0  0  0  0
  -21.0440   -5.9530   24.9470 C   0  0  0  0  0  3  0  0  0  0  0  0
  -21.4100   -4.5940   24.9160 C   0  0  0  0  0  0  0  0  0  0  0  0
  -21.9110   -4.0280   23.7300 C   0  0  0  0  0  3  0  0  0  0  0  0
  -22.0440   -4.8190   22.5750 C   0  0  0  0  0  0  0  0  0  0  0  0
  -22.5070   -4.2630   21.4300 F   0  0  0  0  0  0  0  0  0  0  0  0
  -21.2780   -3.8300   26.0240 F   0  0  0  0  0  0  0  0  0  0  0  0
  -22.7490  -13.5550   21.0600 C   0  0  0  0  0  0  0  0  0  0  0  0
  -22.0160  -12.8540   21.9170 N   0  0  0  0  0  0  0  0  0  0  0  0
  -22.3050  -14.5700   20.5240 O   0  0  0  0  0  0  0  0  0  0  0  0
  -22.3870  -12.0320   22.3720 H   0  0  0  0  0  0  0  0  0  0  0  0
  -21.0690  -13.1420   22.1220 H   0  0  0  0  0  0  0  0  0  0  0  0
  -25.3700  -15.2500   20.2670 N   0  0  0  0  0  0  0  0  0  0  0  0
  -24.5890  -15.8930   20.3470 H   0  0  0  0  0  0  0  0  0  0  0  0
  -26.2150  -15.6960   19.9350 H   0  0  0  0  0  0  0  0  0  0  0  0
  1 50  1  0
  1  6  1  0
  2  1  1  0
  3  1  1  0
  5  4  1  0
  6  5  1  0
  6  4  1  0
  6  7  1  1
  8  7  1  0
  9 11  1  0
  9  8  1  0
 10 21  2  0
 11 16  1  0
 12 20  1  0
 12 22  1  0
 13 19  1  0
 13 15  1  0
 14 20  1  0
 15 14  1  0
 16 15  2  0
 17 18  1  0
 17 11  2  0
 18 13  2  0
 19 12  1  0
 20 10  1  0
 22 24  2  0
 23 22  1  0
 25 23  1  0
 26 35  2  0
 26 31  1  0
 27 23  1  0
 27 31  1  0
 28 27  1  0
 29 30  1  0
 29 28  1  0
 30 26  1  0
 31 32  2  0
 32 33  1  0
 34 33  2  0
 35 34  1  0
 36 10  1  0
 36 37  1  0
 36 46  1  0
 37 40  1  0
 38 42  1  0
 38 37  1  0
 39 38  2  0
 42 41  1  0
 44 42  1  0
 44 45  1  0
 44 43  1  0
 46 49  1  1
 46 47  1  0
 48 46  1  0
 51 50  1  0
 52 51  1  0
 52 53  1  0
 55 54  1  0
 55 53  1  0
 55 64  1  0
 56 64  1  0
 57 62  1  0
 58 59  1  0
 58 57  1  0
 60 59  1  0
 60 69  1  0
 60 61  1  0
 62 56  1  0
 62 61  1  0
 63 56  2  0
 64 65  1  0
 66 67  2  0
 67 86  1  0
 68 67  1  0
 68 71  1  0
 69 66  1  0
 69 70  1  0
 70 68  2  0
 71 72  1  0
 72 73  2  0
 74 77  1  0
 74 73  1  0
 75 74  2  0
 76 75  1  0
 76 71  2  0
 77 78  1  0
 78 79  1  0
 79 80  2  0
 81 80  1  0
 81 85  1  0
 82 81  2  0
 83 78  2  0
 83 82  1  0
 84 83  1  0
 86 87  1  0
 87 90  1  0
 87 89  1  0
 88 86  2  0
 91 92  1  0
 91 66  1  0
 93 91  1  0
M  ISO  4   8 101   9 101  56 100  64 100
M  END
>  <TORSDO>  (24) 
F 24

>  <SCORE>  (24) 
-11.851

>  <name>  (24) 
23

>  <ligand_id>  (24) 
23

>  <original_smiles>  (24) 
[H]c1c([H])c([H])c2c(c1[H])C([H])([H])C([H])([H])C([H])([H])C2([H])N([H])C(=O)C1([H])N(C(=O)C([H])(N([H])C(=O)C([H])(N([H])C([H])([H])[H])C([H])([H])[H])C(C([H])([H])[H])(C([H])([H])[H])C([H])([H])[H])C([H])([H])c2c([H])c(OC([H])([H])C([H])([H])C3([N+]([H])([H])C([H])([H])C([H])([H])C([H])([H])C([H])([H])C([H])(N([H])C(=O)N4C([H])([H])C([H])([H])C([H])([H])C([H])(n5nc(-c6c([H])c([H])c(Oc7c([H])c([H])c(F)c([H])c7F)c([H])c6[H])c(C(=O)N([H])[H])c5N([H])[H])C4([H])[H])C([H])([H])[H])C([H])([H])C3([H])[H])c([H])c([H])c2C1([H])[H]

>  <smiles>  (24) 
[H]c1c([H])c([H])c2c(c1[H])C([H])([H])C([H])([H])C([H])([H])C2([H])N([H])C(=O)C1([H])N(C(=O)C([H])(N([H])C(=O)C([H])(N([H])C([H])([H])[H])C([H])([H])[H])C(C([H])([H])[H])(C([H])([H])[H])C([H])([H])[H])C([H])([H])c2c([H])c(OC([H])([H])C([H])([H])C3([N+]([H])([H])C([H])([H])C([H])([H])C([H])([H])C([H])([H])C([H])(N([H])C(=O)N4C([H])([H])C([H])([H])C([H])([H])C([H])(n5nc(-c6c([H])c([H])c(Oc7c([H])c([H])c(F)c([H])c7F)c([H])c6[H])c(C(=O)N([H])[H])c5N([H])[H])C4([H])[H])C([H])([H])[H])C([H])([H])C3([H])[H])c([H])c([H])c2C1([H])[H]

$$$$
24:0:0
     RDKit          3D

 95104  0  0  1  0  0  0  0  0999 V2000
  -28.5930  -23.1840   21.5590 C   0  0  0  0  0  3  0  0  0  0  0  0
  -29.1280  -24.6540   19.6920 C   0  0  0  0  0  3  0  0  0  0  0  0
  -27.7740  -25.4840   21.5330 C   0  0  0  0  0  3  0  0  0  0  0  0
  -29.2300  -23.3860   20.3140 C   0  0  0  0  0  0  0  0  0  0  0  0
  -27.8640  -24.2270   22.1680 C   0  0  0  0  0  0  0  0  0  0  0  0
  -28.3970  -25.7060   20.2840 C   0  0  0  0  0  0  0  0  0  0  0  0
  -27.1820  -23.9970   23.5010 C   0  0  0  0  0  1  0  0  0  0  0  0
  -30.0950  -22.3180   19.6980 C   0  0  0  0  0  0  0  0  0  0  0  0
  -29.6890  -21.0410   19.8180 N   0  0  0  0  0  0  0  0  0  0  0  0
  -31.1220  -22.6350   19.0930 O   0  0  0  0  0  0  0  0  0  0  0  0
  -28.7970  -20.8800   20.2660 H   0  0  0  0  0  0  0  0  0  0  0  0
  -30.4750  -19.8790   19.3810 C   0  0  0  0  0  2  0  0  0  0  0  0
  -29.1050  -16.5290   20.9720 C   0  0  0  0  0  2  0  0  0  0  0  0
  -31.5660  -16.7220   21.4680 C   0  0  0  0  0  2  0  0  0  0  0  0
  -29.2100  -17.7060   19.9750 C   0  0  0  0  0  2  0  0  0  0  0  0
  -31.6660  -17.8640   20.4280 C   0  0  0  0  0  2  0  0  0  0  0  0
  -30.4150  -15.7140   21.1860 C   0  0  0  0  0  3  0  0  0  0  0  0
  -30.3550  -18.6720   20.3490 C   0  0  0  0  0  3  0  0  0  0  0  0
  -30.7780  -14.6710   20.0870 C   0  0  0  0  0  0  0  0  0  0  0  0
  -30.4280  -12.5300   18.8960 C   0  0  0  0  0  2  0  0  0  0  0  0
  -29.4160  -12.7170   17.7520 C   0  0  0  0  0  2  0  0  0  0  0  0
  -27.9800  -12.5010   18.2680 C   0  0  0  0  0  2  0  0  0  0  0  0
  -27.6920  -13.3310   19.5490 C   0  0  0  0  0  3  0  0  0  0  0  0
  -28.8210  -13.1490   20.5950 C   0  0  0  0  0  2  0  0  0  0  0  0
  -30.0990  -13.4960   19.9570 N   0  0  0  0  0  0  0  0  0  0  0  0
  -31.7520  -14.9170   19.3710 O   0  0  0  0  0  0  0  0  0  0  0  0
  -25.3340  -13.8810   20.4300 C   0  0  0  0  0  0  0  0  0  0  0  0
  -24.3030  -13.0770   20.8450 C   0  0  0  0  0  0  0  0  0  0  0  0
  -24.7850  -11.7380   20.7430 C   0  0  0  0  0  0  0  0  0  0  0  0
  -26.3760  -13.0240   20.1080 N   0  0  0  0  0  0  0  0  0  0  0  0
  -26.0550  -11.7300   20.3530 N   0  0  0  0  0  0  0  0  0  0  0  0
  -24.1000  -10.4560   20.9420 C   0  0  0  0  0  0  0  0  0  0  0  0
  -24.5510   -9.5130   21.8900 C   0  0  0  0  0  3  0  0  0  0  0  0
  -23.8600   -8.2960   22.0750 C   0  0  0  0  0  3  0  0  0  0  0  0
  -22.7030   -8.0140   21.3100 C   0  0  0  0  0  0  0  0  0  0  0  0
  -22.2740   -8.9450   20.3490 C   0  0  0  0  0  3  0  0  0  0  0  0
  -22.9670  -10.1530   20.1630 C   0  0  0  0  0  3  0  0  0  0  0  0
  -21.9850   -6.8450   21.4020 O   0  0  0  0  0  0  0  0  0  0  0  0
  -21.8810   -6.1540   22.5820 C   0  0  0  0  0  0  0  0  0  0  0  0
  -21.3250   -6.7390   23.7410 C   0  0  0  0  0  3  0  0  0  0  0  0
  -21.1760   -5.9740   24.9140 C   0  0  0  0  0  3  0  0  0  0  0  0
  -21.5690   -4.6220   24.9290 C   0  0  0  0  0  0  0  0  0  0  0  0
  -22.1140   -4.0350   23.7740 C   0  0  0  0  0  3  0  0  0  0  0  0
  -22.2690   -4.7990   22.6030 C   0  0  0  0  0  0  0  0  0  0  0  0
  -22.7770   -4.2240   21.4870 F   0  0  0  0  0  0  0  0  0  0  0  0
  -21.4170   -3.8820   26.0520 F   0  0  0  0  0  0  0  0  0  0  0  0
  -22.9210  -13.5210   21.2200 C   0  0  0  0  0  0  0  0  0  0  0  0
  -22.2610  -12.7810   22.1050 N   0  0  0  0  0  0  0  0  0  0  0  0
  -22.4350  -14.5560   20.7660 O   0  0  0  0  0  0  0  0  0  0  0  0
  -22.6730  -11.9440   22.4900 H   0  0  0  0  0  0  0  0  0  0  0  0
  -21.3360  -13.0570   22.4010 H   0  0  0  0  0  0  0  0  0  0  0  0
  -25.4650  -15.2570   20.2770 N   0  0  0  0  0  0  0  0  0  0  0  0
  -24.7000  -15.9020   20.4420 H   0  0  0  0  0  0  0  0  0  0  0  0
  -26.2980  -15.7150   19.9250 H   0  0  0  0  0  0  0  0  0  0  0  0
  -28.3340  -26.9290   19.6480 O   0  0  0  0  0  0  0  0  0  0  0  0
  -24.5650  -31.8920   23.0860 C   0  0  0  0  0  0  0  0  0  0  0  0
  -27.1670  -27.6480   19.7200 C   0  0  0  0  0  0  0  0  0  0  0  0
  -23.3280  -30.5690   21.4000 C   0  0  0  0  0  3  0  0  0  0  0  0
  -24.7600  -29.1130   19.8700 C   0  0  0  0  0  0  0  0  0  0  0  0
  -25.8380  -30.9670   21.1500 C   0  0  0  0  0  2  0  0  0  0  0  0
  -25.9250  -29.6270   20.4520 C   0  0  0  0  0  0  0  0  0  0  0  0
  -27.1340  -28.9010   20.3740 C   0  0  0  0  0  3  0  0  0  0  0  0
  -25.9850  -27.1440   19.1390 C   0  0  0  0  0  3  0  0  0  0  0  0
  -24.7830  -27.8710   19.2110 C   0  0  0  0  0  3  0  0  0  0  0  0
  -23.5060  -29.9510   19.9860 C   0  0  0  0  0  2  0  0  0  0  0  0
  -24.5990  -31.1510   21.9410 N   0  0  0  0  0  0  0  0  0  0  0  0
  -23.4930  -32.1310   23.6600 O   0  0  0  0  0  0  0  0  0  0  0  0
  -22.7010  -29.4980   22.3210 C   0  0  0  0  0  0  0  0  0  0  0  0
  -21.3740  -29.3240   22.2140 N   0  0  0  0  0  0  0  0  0  0  0  0
  -23.4030  -28.8310   23.0860 O   0  0  0  0  0  0  0  0  0  0  0  0
  -20.8710  -29.9150   21.5660 H   0  0  0  0  0  0  0  0  0  0  0  0
  -18.0100  -28.1180   22.7300 C   0  0  0  0  0  0  0  0  0  0  0  0
  -20.5750  -28.3450   22.9470 C   0  0  0  0  0  3  0  0  0  0  0  0
  -20.6510  -26.9510   22.2830 C   0  0  0  0  0  2  0  0  0  0  0  0
  -19.5190  -26.6970   21.2810 C   0  0  0  0  0  2  0  0  0  0  0  0
  -18.1560  -26.8120   21.9710 C   0  0  0  0  0  2  0  0  0  0  0  0
  -19.1450  -28.8470   23.1730 C   0  0  0  0  0  0  0  0  0  0  0  0
  -18.9520  -30.0760   23.8430 C   0  0  0  0  0  3  0  0  0  0  0  0
  -17.6570  -30.5730   24.0760 C   0  0  0  0  0  3  0  0  0  0  0  0
  -16.5360  -29.8410   23.6480 C   0  0  0  0  0  3  0  0  0  0  0  0
  -16.7140  -28.6140   22.9830 C   0  0  0  0  0  3  0  0  0  0  0  0
  -25.8600  -32.4960   23.7140 C   0  0  0  0  0  3  0  0  0  0  0  0
  -26.3990  -31.6660   24.9420 C   0  0  1  0  0  0  0  0  0  0  0  0
  -25.3240  -31.3730   26.0160 C   0  0  0  0  0  1  0  0  0  0  0  0
  -26.9730  -30.3120   24.4640 C   0  0  0  0  0  1  0  0  0  0  0  0
  -27.5640  -32.4260   25.6200 C   0  0  0  0  0  1  0  0  0  0  0  0
  -25.5600  -33.8800   24.1090 N   0  0  0  0  0  0  0  0  0  0  0  0
  -25.8960  -34.9640   23.3960 C   0  0  0  0  0  0  0  0  0  0  0  0
  -26.5640  -34.9020   22.3590 O   0  0  0  0  0  0  0  0  0  0  0  0
  -24.9680  -34.0040   24.9170 H   0  0  0  0  0  0  0  0  0  0  0  0
  -24.1790  -36.7800   23.1150 C   0  0  0  0  0  1  0  0  0  0  0  0
  -25.4150  -36.3330   23.9120 C   0  0  0  0  0  3  0  0  0  0  0  0
  -27.5500  -37.1620   24.7960 C   0  0  0  0  0  1  0  0  0  0  0  0
  -26.4530  -37.3850   23.8560 N   0  0  0  0  0  0  0  0  0  0  0  0
  -26.0540  -38.2980   24.0530 H   0  0  0  0  0  0  0  0  0  0  0  0
  1  5  1  0
  2  6  2  0
  2  4  1  0
  3  5  2  0
  4  1  2  0
  5  7  1  0
  6  3  1  0
  8  9  1  0
  8  4  1  0
  9 11  1  0
 10  8  2  0
 12  9  1  0
 13 17  1  0
 15 18  1  0
 15 13  1  0
 16 14  1  0
 17 19  1  0
 17 14  1  0
 18 12  1  0
 18 16  1  0
 20 25  1  0
 21 22  1  0
 21 20  1  0
 23 22  1  0
 23 30  1  0
 23 24  1  0
 25 19  1  0
 25 24  1  0
 26 19  2  0
 27 28  2  0
 28 47  1  0
 29 28  1  0
 29 32  1  0
 30 31  1  0
 30 27  1  0
 31 29  2  0
 32 33  1  0
 33 34  2  0
 35 38  1  0
 35 34  1  0
 36 35  2  0
 37 36  1  0
 37 32  2  0
 38 39  1  0
 39 44  2  0
 39 40  1  0
 40 41  2  0
 41 42  1  0
 42 46  1  0
 43 42  2  0
 44 43  1  0
 45 44  1  0
 47 48  1  0
 48 51  1  0
 48 50  1  0
 49 47  2  0
 52 27  1  0
 52 53  1  0
 54 52  1  0
 55 57  1  0
 55  6  1  0
 56 67  2  0
 57 62  1  0
 58 66  1  0
 58 68  1  0
 59 65  1  0
 59 61  1  0
 60 66  1  0
 61 60  1  0
 62 61  2  0
 63 64  1  0
 63 57  2  0
 64 59  2  0
 65 58  1  0
 66 56  1  0
 68 70  2  0
 69 68  1  0
 71 69  1  0
 72 81  2  0
 72 77  1  0
 73 69  1  0
 73 77  1  0
 74 73  1  0
 75 76  1  0
 75 74  1  0
 76 72  1  0
 77 78  2  0
 78 79  1  0
 80 79  2  0
 81 80  1  0
 82 56  1  0
 82 87  1  0
 82 83  1  0
 83 86  1  1
 83 84  1  0
 85 83  1  0
 87 90  1  0
 88 92  1  0
 88 87  1  0
 89 88  2  0
 92 91  1  0
 94 92  1  0
 94 95  1  0
 94 93  1  0
M  ISO  4   6 101  17 100  19 100  55 101
M  END
>  <TORSDO>  (25) 
F 19

>  <SCORE>  (25) 
-11.810

>  <name>  (25) 
24

>  <ligand_id>  (25) 
24

>  <original_smiles>  (25) 
[H]c1c([H])c([H])c2c(c1[H])C([H])([H])C([H])([H])C([H])([H])C2([H])N([H])C(=O)C1([H])N(C(=O)C([H])(N([H])C(=O)C([H])(N([H])C([H])([H])[H])C([H])([H])[H])C(C([H])([H])[H])(C([H])([H])[H])C([H])([H])[H])C([H])([H])c2c([H])c(Oc3c([H])c(C(=O)N([H])C([H])([H])C4([H])C([H])([H])C([H])([H])C([H])(C(=O)N5C([H])([H])C([H])([H])C([H])([H])C([H])(n6nc(-c7c([H])c([H])c(Oc8c([H])c([H])c(F)c([H])c8F)c([H])c7[H])c(C(=O)N([H])[H])c6N([H])[H])C5([H])[H])C([H])([H])C4([H])[H])c([H])c(C([H])([H])[H])c3[H])c([H])c([H])c2C1([H])[H]

>  <smiles>  (25) 
[H]c1c([H])c([H])c2c(c1[H])C([H])([H])C([H])([H])C([H])([H])C2([H])N([H])C(=O)C1([H])N(C(=O)C([H])(N([H])C(=O)C([H])(N([H])C([H])([H])[H])C([H])([H])[H])C(C([H])([H])[H])(C([H])([H])[H])C([H])([H])[H])C([H])([H])c2c([H])c(Oc3c([H])c(C(=O)N([H])C([H])([H])C4([H])C([H])([H])C([H])([H])C([H])(C(=O)N5C([H])([H])C([H])([H])C([H])([H])C([H])(n6nc(-c7c([H])c([H])c(Oc8c([H])c([H])c(F)c([H])c8F)c([H])c7[H])c(C(=O)N([H])[H])c6N([H])[H])C5([H])[H])C([H])([H])C4([H])[H])c([H])c(C([H])([H])[H])c3[H])c([H])c([H])c2C1([H])[H]

$$$$
25:0:0
     RDKit          3D

 91 99  0  0  1  0  0  0  0  0999 V2000
  -28.8500  -21.2860   19.7360 N   0  0  0  0  0  4  0  0  0  0  0  0
  -27.8570  -21.1340   19.6780 H   0  0  0  0  0  0  0  0  0  0  0  0
  -29.1430  -21.3880   18.7770 H   0  0  0  0  0  0  0  0  0  0  0  0
  -28.6550  -18.9290   21.1690 C   0  0  0  0  0  2  0  0  0  0  0  0
  -29.2120  -17.4220   21.2100 C   0  0  0  0  0  2  0  0  0  0  0  0
  -29.9320  -18.4560   19.2580 C   0  0  0  0  0  2  0  0  0  0  0  0
  -29.5000  -19.8230   20.2080 C   0  0  0  0  0  3  0  0  0  0  0  0
  -29.5080  -16.8650   19.7710 C   0  0  1  0  0  0  0  0  0  0  0  0
  -30.3920  -15.3280   19.6230 C   0  0  0  0  0  0  0  0  0  0  0  0
  -30.3810  -12.8760   18.7400 C   0  0  0  0  0  2  0  0  0  0  0  0
  -29.3510  -12.6640   17.6000 C   0  0  0  0  0  2  0  0  0  0  0  0
  -27.9530  -12.3490   18.1670 C   0  0  0  0  0  2  0  0  0  0  0  0
  -27.5860  -13.2930   19.3340 C   0  0  0  0  0  3  0  0  0  0  0  0
  -28.7290  -13.4530   20.3570 C   0  0  0  0  0  2  0  0  0  0  0  0
  -29.8920  -13.9900   19.6330 N   0  0  0  0  0  0  0  0  0  0  0  0
  -31.5890  -15.3490   19.2900 O   0  0  0  0  0  0  0  0  0  0  0  0
  -25.3410  -13.8630   20.3760 C   0  0  0  0  0  0  0  0  0  0  0  0
  -24.2970  -13.0890   20.8010 C   0  0  0  0  0  0  0  0  0  0  0  0
  -24.7320  -11.7340   20.6590 C   0  0  0  0  0  0  0  0  0  0  0  0
  -26.3200  -12.9780   19.9670 N   0  0  0  0  0  0  0  0  0  0  0  0
  -25.9820  -11.6910   20.2140 N   0  0  0  0  0  0  0  0  0  0  0  0
  -24.0090  -10.4750   20.8650 C   0  0  0  0  0  0  0  0  0  0  0  0
  -24.4600   -9.5090   21.7910 C   0  0  0  0  0  3  0  0  0  0  0  0
  -23.7380   -8.3120   21.9830 C   0  0  0  0  0  3  0  0  0  0  0  0
  -22.5520   -8.0740   21.2490 C   0  0  0  0  0  0  0  0  0  0  0  0
  -22.1190   -9.0300   20.3120 C   0  0  0  0  0  3  0  0  0  0  0  0
  -22.8430  -10.2180   20.1200 C   0  0  0  0  0  3  0  0  0  0  0  0
  -21.7960   -6.9310   21.3530 O   0  0  0  0  0  0  0  0  0  0  0  0
  -21.6780   -6.2520   22.5390 C   0  0  0  0  0  0  0  0  0  0  0  0
  -21.1580   -6.8640   23.7010 C   0  0  0  0  0  3  0  0  0  0  0  0
  -20.9880   -6.1090   24.8790 C   0  0  0  0  0  3  0  0  0  0  0  0
  -21.3310   -4.7430   24.8950 C   0  0  0  0  0  0  0  0  0  0  0  0
  -21.8450   -4.1320   23.7390 C   0  0  0  0  0  3  0  0  0  0  0  0
  -22.0170   -4.8840   22.5640 C   0  0  0  0  0  0  0  0  0  0  0  0
  -22.4920   -4.2830   21.4450 F   0  0  0  0  0  0  0  0  0  0  0  0
  -21.1610   -4.0160   26.0240 F   0  0  0  0  0  0  0  0  0  0  0  0
  -22.9460  -13.5770   21.2360 C   0  0  0  0  0  0  0  0  0  0  0  0
  -22.2940  -12.8560   22.1410 N   0  0  0  0  0  0  0  0  0  0  0  0
  -22.4860  -14.6320   20.8040 O   0  0  0  0  0  0  0  0  0  0  0  0
  -22.6770  -11.9980   22.5090 H   0  0  0  0  0  0  0  0  0  0  0  0
  -21.3950  -13.1740   22.4720 H   0  0  0  0  0  0  0  0  0  0  0  0
  -25.5540  -15.2410   20.2860 N   0  0  0  0  0  0  0  0  0  0  0  0
  -24.6340  -15.6460   20.1310 H   0  0  0  0  0  0  0  0  0  0  0  0
  -25.7370  -15.5320   21.2420 H   0  0  0  0  0  0  0  0  0  0  0  0
  -28.2060  -16.6110   19.1130 N   0  0  0  0  0  4  0  0  0  0  0  0
  -27.6920  -17.4620   18.9830 H   0  0  0  0  0  0  0  0  0  0  0  0
  -27.6040  -15.9900   19.6320 H   0  0  0  0  0  0  0  0  0  0  0  0
  -28.3620  -16.2180   18.2020 H   0  0  0  0  0  0  0  0  0  0  0  0
  -29.0190  -22.8200   20.3530 C   0  0  0  0  0  3  0  0  0  0  0  0
  -28.0670  -24.3020   20.0110 C   0  0  0  0  0  3  0  0  0  0  0  0
  -28.2420  -25.8970   20.3610 O   0  0  0  0  0  0  0  0  0  0  0  0
  -24.6670  -31.8330   23.2740 C   0  0  0  0  0  0  0  0  0  0  0  0
  -27.2230  -26.9760   20.2640 C   0  0  0  0  0  0  0  0  0  0  0  0
  -23.4750  -30.4500   21.6230 C   0  0  0  0  0  3  0  0  0  0  0  0
  -24.9260  -28.8440   20.2020 C   0  0  0  0  0  0  0  0  0  0  0  0
  -26.0400  -30.6560   21.4910 C   0  0  0  0  0  2  0  0  0  0  0  0
  -26.1090  -29.2510   20.8330 C   0  0  0  0  0  0  0  0  0  0  0  0
  -27.2530  -28.3370   20.8380 C   0  0  0  0  0  3  0  0  0  0  0  0
  -26.0140  -26.7140   19.5820 C   0  0  0  0  0  3  0  0  0  0  0  0
  -24.9030  -27.5970   19.5550 C   0  0  0  0  0  3  0  0  0  0  0  0
  -23.7090  -29.7660   20.2450 C   0  0  0  0  0  2  0  0  0  0  0  0
  -24.7490  -31.0040   22.1850 N   0  0  0  0  0  0  0  0  0  0  0  0
  -23.5750  -32.1290   23.7890 O   0  0  0  0  0  0  0  0  0  0  0  0
  -22.7680  -29.4560   22.5790 C   0  0  0  0  0  0  0  0  0  0  0  0
  -21.4400  -29.2930   22.4340 N   0  0  0  0  0  0  0  0  0  0  0  0
  -23.4200  -28.8310   23.4180 O   0  0  0  0  0  0  0  0  0  0  0  0
  -20.9650  -29.8510   21.7380 H   0  0  0  0  0  0  0  0  0  0  0  0
  -18.0450  -28.0930   22.8980 C   0  0  0  0  0  0  0  0  0  0  0  0
  -20.6030  -28.3570   23.1930 C   0  0  0  0  0  3  0  0  0  0  0  0
  -20.7090  -26.9230   22.6210 C   0  0  0  0  0  2  0  0  0  0  0  0
  -19.6210  -26.6020   21.5920 C   0  0  0  0  0  2  0  0  0  0  0  0
  -18.2310  -26.7470   22.2170 C   0  0  0  0  0  2  0  0  0  0  0  0
  -19.1600  -28.8560   23.3400 C   0  0  0  0  0  0  0  0  0  0  0  0
  -18.9320  -30.1150   23.9350 C   0  0  0  0  0  3  0  0  0  0  0  0
  -17.6250  -30.6120   24.0910 C   0  0  0  0  0  3  0  0  0  0  0  0
  -16.5250  -29.8470   23.6630 C   0  0  0  0  0  3  0  0  0  0  0  0
  -16.7370  -28.5890   23.0720 C   0  0  0  0  0  3  0  0  0  0  0  0
  -25.9390  -32.4640   23.9190 C   0  0  0  0  0  3  0  0  0  0  0  0
  -26.3950  -31.7230   25.2380 C   0  0  1  0  0  0  0  0  0  0  0  0
  -25.2620  -31.5400   26.2760 C   0  0  0  0  0  1  0  0  0  0  0  0
  -26.9620  -30.3220   24.9140 C   0  0  0  0  0  1  0  0  0  0  0  0
  -27.5390  -32.5140   25.9120 C   0  0  0  0  0  1  0  0  0  0  0  0
  -25.6450  -33.8780   24.2140 N   0  0  0  0  0  0  0  0  0  0  0  0
  -25.9880  -34.9110   23.4320 C   0  0  0  0  0  0  0  0  0  0  0  0
  -26.6470  -34.7720   22.3980 O   0  0  0  0  0  0  0  0  0  0  0  0
  -25.0570  -34.0590   25.0150 H   0  0  0  0  0  0  0  0  0  0  0  0
  -24.2780  -36.7240   23.0640 C   0  0  0  0  0  1  0  0  0  0  0  0
  -25.5300  -36.3210   23.8620 C   0  0  0  0  0  3  0  0  0  0  0  0
  -27.6890  -37.2020   24.6340 C   0  0  0  0  0  1  0  0  0  0  0  0
  -26.5740  -37.3560   23.7010 N   0  0  0  0  0  0  0  0  0  0  0  0
  -26.1820  -38.2860   23.8250 H   0  0  0  0  0  0  0  0  0  0  0  0
  1 49  1  0
  2  1  1  0
  3  1  1  0
  4  5  1  0
  6  8  1  0
  6  7  1  0
  7  1  1  0
  7  4  1  0
  8  9  1  0
  8  5  1  0
  9 15  1  0
 10 15  1  0
 11 12  1  0
 11 10  1  0
 13 12  1  0
 13 20  1  0
 13 14  1  0
 15 14  1  0
 16  9  2  0
 17 18  2  0
 18 37  1  0
 19 18  1  0
 19 22  1  0
 20 21  1  0
 20 17  1  0
 21 19  2  0
 22 23  1  0
 23 24  2  0
 25 28  1  0
 25 24  1  0
 26 25  2  0
 27 26  1  0
 27 22  2  0
 28 29  1  0
 29 34  2  0
 29 30  1  0
 30 31  2  0
 31 32  1  0
 32 36  1  0
 33 32  2  0
 34 33  1  0
 35 34  1  0
 37 38  1  0
 38 41  1  0
 38 40  1  0
 39 37  2  0
 42 17  1  0
 42 44  1  0
 43 42  1  0
 45 47  1  0
  8 45  1  6
 46 45  1  0
 48 45  1  0
 50 49  2  0
 50 51  1  0
 52 63  2  0
 53 51  1  0
 53 58  1  0
 54 62  1  0
 54 64  1  0
 55 61  1  0
 55 57  1  0
 56 62  1  0
 57 58  2  0
 57 56  1  0
 59 53  2  0
 60 59  1  0
 60 55  2  0
 61 54  1  0
 62 52  1  0
 64 66  2  0
 65 64  1  0
 67 65  1  0
 68 77  2  0
 68 73  1  0
 69 65  1  0
 69 73  1  0
 70 69  1  0
 71 72  1  0
 71 70  1  0
 72 68  1  0
 73 74  2  0
 74 75  1  0
 76 75  2  0
 77 76  1  0
 78 52  1  0
 78 83  1  0
 78 79  1  0
 79 82  1  1
 79 80  1  0
 81 79  1  0
 83 86  1  0
 84 88  1  0
 84 83  1  0
 85 84  2  0
 88 87  1  0
 90 91  1  0
 90 88  1  0
 90 89  1  0
M  ISO  4   8 100   9 100  50 101  51 101
M  END
>  <TORSDO>  (26) 
F 20

>  <SCORE>  (26) 
-14.014

>  <name>  (26) 
25

>  <ligand_id>  (26) 
25

>  <original_smiles>  (26) 
[H]c1c([H])c([H])c2c(c1[H])C([H])([H])C([H])([H])C([H])([H])C2([H])N([H])C(=O)C1([H])N(C(=O)C([H])(N([H])C(=O)C([H])(N([H])C([H])([H])[H])C([H])([H])[H])C(C([H])([H])[H])(C([H])([H])[H])C([H])([H])[H])C([H])([H])c2c([H])c(OC([H])([H])C([H])([H])[N+]([H])([H])C3([H])C([H])([H])C([H])([H])C(C(=O)N4C([H])([H])C([H])([H])C([H])([H])C([H])(n5nc(-c6c([H])c([H])c(Oc7c([H])c([H])c(F)c([H])c7F)c([H])c6[H])c(C(=O)N([H])[H])c5N([H])[H])C4([H])[H])([N+]([H])([H])[H])C3([H])[H])c([H])c([H])c2C1([H])[H]

>  <smiles>  (26) 
[H]c1c([H])c([H])c2c(c1[H])C([H])([H])C([H])([H])C([H])([H])C2([H])N([H])C(=O)C1([H])N(C(=O)C([H])(N([H])C(=O)C([H])(N([H])C([H])([H])[H])C([H])([H])[H])C(C([H])([H])[H])(C([H])([H])[H])C([H])([H])[H])C([H])([H])c2c([H])c(OC([H])([H])C([H])([H])[N+]([H])([H])C3([H])C([H])([H])C([H])([H])C(C(=O)N4C([H])([H])C([H])([H])C([H])([H])C([H])(n5nc(-c6c([H])c([H])c(Oc7c([H])c([H])c(F)c([H])c7F)c([H])c6[H])c(C(=O)N([H])[H])c5N([H])[H])C4([H])[H])([N+]([H])([H])[H])C3([H])[H])c([H])c([H])c2C1([H])[H]

$$$$
26:0:0
     RDKit          3D

 90 98  0  0  1  0  0  0  0  0999 V2000
  -28.9440  -22.4680   19.7250 C   0  0  0  0  0  3  0  0  0  0  0  0
  -29.5390  -21.3860   20.5160 C   0  0  0  0  0  0  0  0  0  0  0  0
  -28.7900  -23.7200   20.3330 C   0  0  0  0  0  0  0  0  0  0  0  0
  -29.8780  -21.8850   21.7620 C   0  0  0  0  0  0  0  0  0  0  0  0
  -30.5890  -21.2000   22.8890 C   0  0  0  0  0  1  0  0  0  0  0  0
  -29.4310  -23.5910   21.9500 S   0  0  0  0  0  0  0  0  0  0  0  0
  -29.8680  -19.9640   19.9570 C   0  0  0  0  0  0  0  0  0  0  0  0
  -29.8090  -18.8120   20.7170 N   0  0  0  0  0  0  0  0  0  0  0  0
  -30.1940  -19.8720   18.7710 O   0  0  0  0  0  0  0  0  0  0  0  0
  -29.4740  -18.9120   21.6650 H   0  0  0  0  0  0  0  0  0  0  0  0
  -30.3580  -17.4480   20.2950 C   0  0  0  0  0  3  0  0  0  0  0  0
  -29.8690  -16.0740   20.9810 C   0  0  0  0  0  3  0  0  0  0  0  0
  -30.6020  -14.7180   20.5410 C   0  0  0  0  0  0  0  0  0  0  0  0
  -30.3900  -12.4480   19.5200 C   0  0  0  0  0  2  0  0  0  0  0  0
  -29.4800  -12.5530   18.2760 C   0  0  0  0  0  2  0  0  0  0  0  0
  -28.0000  -12.3900   18.6730 C   0  0  0  0  0  2  0  0  0  0  0  0
  -27.6100  -13.2820   19.8820 C   0  0  0  0  0  3  0  0  0  0  0  0
  -28.6440  -13.1810   21.0250 C   0  0  0  0  0  2  0  0  0  0  0  0
  -29.9650  -13.5000   20.4710 N   0  0  0  0  0  0  0  0  0  0  0  0
  -31.7670  -14.8090   20.1440 O   0  0  0  0  0  0  0  0  0  0  0  0
  -25.2060  -13.8920   20.5510 C   0  0  0  0  0  0  0  0  0  0  0  0
  -24.1290  -13.1260   20.9070 C   0  0  0  0  0  0  0  0  0  0  0  0
  -24.5880  -11.7720   20.9000 C   0  0  0  0  0  0  0  0  0  0  0  0
  -26.2530  -13.0060   20.3450 N   0  0  0  0  0  0  0  0  0  0  0  0
  -25.8840  -11.7260   20.6150 N   0  0  0  0  0  0  0  0  0  0  0  0
  -23.8520  -10.5150   21.0870 C   0  0  0  0  0  0  0  0  0  0  0  0
  -24.2800   -9.5380   22.0140 C   0  0  0  0  0  3  0  0  0  0  0  0
  -23.5430   -8.3470   22.1920 C   0  0  0  0  0  3  0  0  0  0  0  0
  -22.3640   -8.1240   21.4420 C   0  0  0  0  0  0  0  0  0  0  0  0
  -21.9540   -9.0880   20.5030 C   0  0  0  0  0  3  0  0  0  0  0  0
  -22.6920  -10.2710   20.3240 C   0  0  0  0  0  3  0  0  0  0  0  0
  -21.6000   -6.9850   21.5280 O   0  0  0  0  0  0  0  0  0  0  0  0
  -21.5700   -6.2230   22.6680 C   0  0  0  0  0  0  0  0  0  0  0  0
  -21.2060   -6.7660   23.9190 C   0  0  0  0  0  3  0  0  0  0  0  0
  -21.1230   -5.9320   25.0520 C   0  0  0  0  0  3  0  0  0  0  0  0
  -21.3930   -4.5560   24.9360 C   0  0  0  0  0  0  0  0  0  0  0  0
  -21.7510   -4.0110   23.6900 C   0  0  0  0  0  3  0  0  0  0  0  0
  -21.8360   -4.8420   22.5580 C   0  0  0  0  0  0  0  0  0  0  0  0
  -22.1620   -4.3090   21.3560 F   0  0  0  0  0  0  0  0  0  0  0  0
  -21.3040   -3.7520   26.0220 F   0  0  0  0  0  0  0  0  0  0  0  0
  -22.7290  -13.6110   21.1480 C   0  0  0  0  0  0  0  0  0  0  0  0
  -21.9850  -12.9280   22.0100 N   0  0  0  0  0  0  0  0  0  0  0  0
  -22.3060  -14.6320   20.6080 O   0  0  0  0  0  0  0  0  0  0  0  0
  -22.3410  -12.1000   22.4670 H   0  0  0  0  0  0  0  0  0  0  0  0
  -21.0450  -13.2350   22.2170 H   0  0  0  0  0  0  0  0  0  0  0  0
  -25.3790  -15.2600   20.3650 N   0  0  0  0  0  0  0  0  0  0  0  0
  -24.6150  -15.9200   20.4580 H   0  0  0  0  0  0  0  0  0  0  0  0
  -26.2410  -15.6950   20.0600 H   0  0  0  0  0  0  0  0  0  0  0  0
  -27.9580  -24.9340   19.7970 C   0  0  0  0  0  2  0  0  0  0  0  0
  -28.2650  -26.3460   20.1990 O   0  0  0  0  0  0  0  0  0  0  0  0
  -24.6420  -31.8860   23.1960 C   0  0  0  0  0  0  0  0  0  0  0  0
  -27.1970  -27.2790   20.1100 C   0  0  0  0  0  0  0  0  0  0  0  0
  -23.4200  -30.4900   21.5730 C   0  0  0  0  0  3  0  0  0  0  0  0
  -24.8510  -28.9480   20.1220 C   0  0  0  0  0  0  0  0  0  0  0  0
  -25.9640  -30.7900   21.3680 C   0  0  0  0  0  2  0  0  0  0  0  0
  -26.0320  -29.4100   20.7180 C   0  0  0  0  0  0  0  0  0  0  0  0
  -27.2060  -28.5860   20.7080 C   0  0  0  0  0  3  0  0  0  0  0  0
  -25.9940  -26.9140   19.4500 C   0  0  0  0  0  3  0  0  0  0  0  0
  -24.8380  -27.7070   19.4770 C   0  0  0  0  0  3  0  0  0  0  0  0
  -23.6190  -29.8250   20.1880 C   0  0  0  0  0  2  0  0  0  0  0  0
  -24.6950  -31.0740   22.1000 N   0  0  0  0  0  0  0  0  0  0  0  0
  -23.5650  -32.1670   23.7390 O   0  0  0  0  0  0  0  0  0  0  0  0
  -22.7640  -29.4730   22.5380 C   0  0  0  0  0  0  0  0  0  0  0  0
  -21.4350  -29.3040   22.4310 N   0  0  0  0  0  0  0  0  0  0  0  0
  -23.4520  -28.8400   23.3450 O   0  0  0  0  0  0  0  0  0  0  0  0
  -20.9390  -29.8720   21.7590 H   0  0  0  0  0  0  0  0  0  0  0  0
  -18.0590  -28.1130   22.9660 C   0  0  0  0  0  0  0  0  0  0  0  0
  -20.6200  -28.3700   23.2110 C   0  0  0  0  0  3  0  0  0  0  0  0
  -20.7140  -26.9350   22.6390 C   0  0  0  0  0  2  0  0  0  0  0  0
  -19.6010  -26.6090   21.6380 C   0  0  0  0  0  2  0  0  0  0  0  0
  -18.2250  -26.7600   22.2950 C   0  0  0  0  0  2  0  0  0  0  0  0
  -19.1830  -28.8750   23.3820 C   0  0  0  0  0  0  0  0  0  0  0  0
  -18.9710  -30.1410   23.9700 C   0  0  0  0  0  3  0  0  0  0  0  0
  -17.6670  -30.6440   24.1480 C   0  0  0  0  0  3  0  0  0  0  0  0
  -16.5590  -29.8780   23.7480 C   0  0  0  0  0  3  0  0  0  0  0  0
  -16.7550  -28.6150   23.1630 C   0  0  0  0  0  3  0  0  0  0  0  0
  -25.9310  -32.5200   23.8030 C   0  0  0  0  0  3  0  0  0  0  0  0
  -26.4740  -31.7370   25.0610 C   0  0  1  0  0  0  0  0  0  0  0  0
  -25.4020  -31.4840   26.1470 C   0  0  0  0  0  1  0  0  0  0  0  0
  -27.0530  -30.3660   24.6440 C   0  0  0  0  0  1  0  0  0  0  0  0
  -27.6360  -32.5270   25.7090 C   0  0  0  0  0  1  0  0  0  0  0  0
  -25.6190  -33.9110   24.1560 N   0  0  0  0  0  0  0  0  0  0  0  0
  -25.9310  -34.9760   23.4060 C   0  0  0  0  0  0  0  0  0  0  0  0
  -26.5790  -34.8900   22.3600 O   0  0  0  0  0  0  0  0  0  0  0  0
  -25.0430  -34.0520   24.9730 H   0  0  0  0  0  0  0  0  0  0  0  0
  -24.1830  -36.7640   23.1160 C   0  0  0  0  0  1  0  0  0  0  0  0
  -25.4460  -36.3550   23.8920 C   0  0  0  0  0  3  0  0  0  0  0  0
  -27.5950  -37.2400   24.6820 C   0  0  0  0  0  1  0  0  0  0  0  0
  -26.4670  -37.4160   23.7710 N   0  0  0  0  0  0  0  0  0  0  0  0
  -26.0600  -38.3310   23.9440 H   0  0  0  0  0  0  0  0  0  0  0  0
  1  3  2  0
  1  2  1  0
  2  4  2  0
  3  6  1  0
  4  6  1  0
  4  5  1  0
  7  2  1  0
  7  8  1  0
  8 10  1  0
  9  7  2  0
 11  8  1  0
 11 12  2  0
 13 12  1  0
 14 19  1  0
 15 16  1  0
 15 14  1  0
 17 16  1  0
 17 24  1  0
 17 18  1  0
 19 13  1  0
 19 18  1  0
 20 13  2  0
 21 22  2  0
 22 41  1  0
 23 22  1  0
 23 26  1  0
 24 21  1  0
 24 25  1  0
 25 23  2  0
 26 27  1  0
 27 28  2  0
 29 32  1  0
 29 28  1  0
 30 29  2  0
 31 30  1  0
 31 26  2  0
 32 33  1  0
 33 34  1  0
 34 35  2  0
 36 35  1  0
 36 40  1  0
 37 36  2  0
 38 33  2  0
 38 37  1  0
 39 38  1  0
 41 42  1  0
 42 45  1  0
 42 44  1  0
 43 41  2  0
 46 47  1  0
 46 21  1  0
 48 46  1  0
 49 50  1  0
 49  3  1  0
 51 62  2  0
 52 50  1  0
 52 57  1  0
 53 61  1  0
 53 63  1  0
 54 60  1  0
 54 56  1  0
 55 61  1  0
 56 55  1  0
 57 56  2  0
 58 59  1  0
 58 52  2  0
 59 54  2  0
 60 53  1  0
 61 51  1  0
 63 65  2  0
 64 63  1  0
 66 64  1  0
 67 76  2  0
 67 72  1  0
 68 64  1  0
 68 72  1  0
 69 68  1  0
 70 71  1  0
 70 69  1  0
 71 67  1  0
 72 73  2  0
 73 74  1  0
 75 74  2  0
 76 75  1  0
 77 51  1  0
 77 82  1  0
 77 78  1  0
 78 81  1  1
 78 79  1  0
 80 78  1  0
 82 85  1  0
 83 87  1  0
 83 82  1  0
 84 83  2  0
 87 86  1  0
 89 87  1  0
 89 90  1  0
 89 88  1  0
M  ISO  4  12 100  13 100  49 101  50 101
M  END
>  <TORSDO>  (27) 
F 20

>  <SCORE>  (27) 
-13.951

>  <name>  (27) 
26

>  <ligand_id>  (27) 
26

>  <original_smiles>  (27) 
[H]c1c([H])c([H])c2c(c1[H])C([H])([H])C([H])([H])C([H])([H])C2([H])N([H])C(=O)C1([H])N(C(=O)C([H])(N([H])C(=O)C([H])(N([H])C([H])([H])[H])C([H])([H])[H])C(C([H])([H])[H])(C([H])([H])[H])C([H])([H])[H])C([H])([H])c2c([H])c(OC([H])([H])c3sc(C([H])([H])[H])c(C(=O)N([H])C([H])([H])C([H])([H])C(=O)N4C([H])([H])C([H])([H])C([H])([H])C([H])(n5nc(-c6c([H])c([H])c(Oc7c([H])c([H])c(F)c([H])c7F)c([H])c6[H])c(C(=O)N([H])[H])c5N([H])[H])C4([H])[H])c3[H])c([H])c([H])c2C1([H])[H]

>  <smiles>  (27) 
[H]c1c([H])c([H])c2c(c1[H])C([H])([H])C([H])([H])C([H])([H])C2([H])N([H])C(=O)C1([H])N(C(=O)C([H])(N([H])C(=O)C([H])(N([H])C([H])([H])[H])C([H])([H])[H])C(C([H])([H])[H])(C([H])([H])[H])C([H])([H])[H])C([H])([H])c2c([H])c(OC([H])([H])c3sc(C([H])([H])[H])c(C(=O)N([H])C([H])([H])C([H])([H])C(=O)N4C([H])([H])C([H])([H])C([H])([H])C([H])(n5nc(-c6c([H])c([H])c(Oc7c([H])c([H])c(F)c([H])c7F)c([H])c6[H])c(C(=O)N([H])[H])c5N([H])[H])C4([H])[H])c3[H])c([H])c([H])c2C1([H])[H]

$$$$
27:0:0
     RDKit          3D

 97106  0  0  1  0  0  0  0  0999 V2000
  -29.7830  -16.6180   21.4320 C   0  0  0  0  0  2  0  0  0  0  0  0
  -29.8370  -18.1950   21.7180 C   0  0  0  0  0  2  0  0  0  0  0  0
  -29.4180  -19.3410   19.0120 C   0  0  0  0  0  2  0  0  0  0  0  0
  -30.5350  -16.9560   19.1440 C   0  0  0  0  0  2  0  0  0  0  0  0
  -30.0130  -20.3930   19.9690 C   0  0  0  0  0  3  0  0  0  0  0  0
  -30.8910  -16.1490   20.4330 C   0  0  1  0  0  0  0  0  0  0  0  0
  -30.6980  -18.4920   19.2540 C   0  0  2  0  0  0  0  0  0  0  0  0
  -30.6080  -19.1180   20.6890 C   0  0  2  0  0  0  0  0  0  0  0  0
  -32.2570  -16.5790   21.0970 C   0  0  0  0  0  1  0  0  0  0  0  0
  -31.9060  -18.8900   18.3500 C   0  0  0  0  0  1  0  0  0  0  0  0
  -31.1320  -14.6610   19.9120 C   0  0  0  0  0  0  0  0  0  0  0  0
  -30.6030  -12.4480   18.9420 C   0  0  0  0  0  2  0  0  0  0  0  0
  -29.6740  -12.6490   17.7330 C   0  0  0  0  0  2  0  0  0  0  0  0
  -28.2160  -12.5350   18.2030 C   0  0  0  0  0  2  0  0  0  0  0  0
  -27.9190  -13.4530   19.4250 C   0  0  0  0  0  3  0  0  0  0  0  0
  -29.0080  -13.3470   20.5230 C   0  0  0  0  0  2  0  0  0  0  0  0
  -30.3260  -13.5460   19.9080 N   0  0  0  0  0  0  0  0  0  0  0  0
  -32.1980  -14.5900   19.2930 O   0  0  0  0  0  0  0  0  0  0  0  0
  -25.6080  -14.0940   20.3400 C   0  0  0  0  0  0  0  0  0  0  0  0
  -24.5340  -13.3370   20.7410 C   0  0  0  0  0  0  0  0  0  0  0  0
  -24.9410  -11.9760   20.6040 C   0  0  0  0  0  0  0  0  0  0  0  0
  -26.5910  -13.1910   19.9780 N   0  0  0  0  0  0  0  0  0  0  0  0
  -26.2020  -11.9090   20.2000 N   0  0  0  0  0  0  0  0  0  0  0  0
  -24.1790  -10.7300   20.7850 C   0  0  0  0  0  0  0  0  0  0  0  0
  -24.6200   -9.7060   21.6520 C   0  0  0  0  0  3  0  0  0  0  0  0
  -23.8570   -8.5290   21.8190 C   0  0  0  0  0  3  0  0  0  0  0  0
  -22.6390   -8.3700   21.1180 C   0  0  0  0  0  0  0  0  0  0  0  0
  -22.2170   -9.3810   20.2350 C   0  0  0  0  0  3  0  0  0  0  0  0
  -22.9810  -10.5470   20.0670 C   0  0  0  0  0  3  0  0  0  0  0  0
  -21.8440   -7.2530   21.1990 O   0  0  0  0  0  0  0  0  0  0  0  0
  -21.8310   -6.4560   22.3140 C   0  0  0  0  0  0  0  0  0  0  0  0
  -21.4710   -6.9590   23.5830 C   0  0  0  0  0  3  0  0  0  0  0  0
  -21.3970   -6.0890   24.6890 C   0  0  0  0  0  3  0  0  0  0  0  0
  -21.6780   -4.7200   24.5300 C   0  0  0  0  0  0  0  0  0  0  0  0
  -22.0380   -4.2180   23.2670 C   0  0  0  0  0  3  0  0  0  0  0  0
  -22.1080   -5.0820   22.1620 C   0  0  0  0  0  0  0  0  0  0  0  0
  -22.4310   -4.5910   20.9400 F   0  0  0  0  0  0  0  0  0  0  0  0
  -21.6040   -3.8820   25.5890 F   0  0  0  0  0  0  0  0  0  0  0  0
  -23.1840  -13.8520   21.1400 C   0  0  0  0  0  0  0  0  0  0  0  0
  -22.5070  -13.1510   22.0440 N   0  0  0  0  0  0  0  0  0  0  0  0
  -22.7420  -14.9070   20.6920 O   0  0  0  0  0  0  0  0  0  0  0  0
  -22.8890  -12.2960   22.4240 H   0  0  0  0  0  0  0  0  0  0  0  0
  -21.6010  -13.4730   22.3550 H   0  0  0  0  0  0  0  0  0  0  0  0
  -25.8220  -15.4610   20.2310 N   0  0  0  0  0  0  0  0  0  0  0  0
  -25.1140  -16.1510   20.4530 H   0  0  0  0  0  0  0  0  0  0  0  0
  -26.6850  -15.8680   19.8980 H   0  0  0  0  0  0  0  0  0  0  0  0
  -27.7110  -21.2030   20.8270 C   0  0  0  0  0  1  0  0  0  0  0  0
  -29.2000  -21.5500   20.6440 C   0  0  0  0  0  3  0  0  0  0  0  0
  -29.3100  -22.8250   19.8530 N   0  0  0  0  0  4  0  0  0  0  0  0
  -30.0660  -22.7200   19.1980 H   0  0  0  0  0  0  0  0  0  0  0  0
  -28.4620  -22.8650   19.3120 H   0  0  0  0  0  0  0  0  0  0  0  0
  -29.4760  -24.1560   20.5500 C   0  0  0  0  0  2  0  0  0  0  0  0
  -28.6900  -25.3020   19.8140 C   0  0  0  0  0  2  0  0  0  0  0  0
  -28.8050  -26.7250   20.1860 O   0  0  0  0  0  0  0  0  0  0  0  0
  -24.5470  -31.7400   23.0430 C   0  0  0  0  0  0  0  0  0  0  0  0
  -27.6490  -27.4990   20.0360 C   0  0  0  0  0  0  0  0  0  0  0  0
  -23.5480  -30.3130   21.2930 C   0  0  0  0  0  3  0  0  0  0  0  0
  -25.1880  -28.9300   19.9080 C   0  0  0  0  0  0  0  0  0  0  0  0
  -26.0650  -30.8200   21.2810 C   0  0  0  0  0  2  0  0  0  0  0  0
  -26.2770  -29.4790   20.5990 C   0  0  0  0  0  0  0  0  0  0  0  0
  -27.5100  -28.7710   20.6600 C   0  0  0  0  0  3  0  0  0  0  0  0
  -26.5450  -27.0160   19.2940 C   0  0  0  0  0  3  0  0  0  0  0  0
  -25.3220  -27.7030   19.2450 C   0  0  0  0  0  3  0  0  0  0  0  0
  -23.8890  -29.7020   19.9090 C   0  0  0  0  0  2  0  0  0  0  0  0
  -24.7330  -30.9770   21.9280 N   0  0  0  0  0  0  0  0  0  0  0  0
  -23.4170  -31.9230   23.5170 O   0  0  0  0  0  0  0  0  0  0  0  0
  -22.9130  -29.2160   22.1820 C   0  0  0  0  0  0  0  0  0  0  0  0
  -21.5860  -29.0370   22.0660 N   0  0  0  0  0  0  0  0  0  0  0  0
  -23.6110  -28.5350   22.9370 O   0  0  0  0  0  0  0  0  0  0  0  0
  -21.0830  -29.6410   21.4310 H   0  0  0  0  0  0  0  0  0  0  0  0
  -18.2100  -27.8590   22.6340 C   0  0  0  0  0  0  0  0  0  0  0  0
  -20.7870  -28.0370   22.7740 C   0  0  0  0  0  3  0  0  0  0  0  0
  -20.8140  -26.6730   22.0430 C   0  0  0  0  0  2  0  0  0  0  0  0
  -19.6470  -26.4880   21.0680 C   0  0  0  0  0  2  0  0  0  0  0  0
  -18.3100  -26.5910   21.8060 C   0  0  0  0  0  2  0  0  0  0  0  0
  -19.3720  -28.5470   23.0760 C   0  0  0  0  0  0  0  0  0  0  0  0
  -19.2200  -29.7410   23.8150 C   0  0  0  0  0  3  0  0  0  0  0  0
  -17.9420  -30.2480   24.1100 C   0  0  0  0  0  3  0  0  0  0  0  0
  -16.7950  -29.5560   23.6810 C   0  0  0  0  0  3  0  0  0  0  0  0
  -16.9310  -28.3610   22.9520 C   0  0  0  0  0  3  0  0  0  0  0  0
  -25.7430  -32.4420   23.7590 C   0  0  0  0  0  3  0  0  0  0  0  0
  -25.3440  -33.8300   24.0300 N   0  0  0  0  0  0  0  0  0  0  0  0
  -25.6780  -34.8810   23.2700 C   0  0  0  0  0  0  0  0  0  0  0  0
  -26.4250  -34.7870   22.2910 O   0  0  0  0  0  0  0  0  0  0  0  0
  -24.6940  -33.9730   24.7900 H   0  0  0  0  0  0  0  0  0  0  0  0
  -23.8820  -36.5660   22.7640 C   0  0  0  0  0  1  0  0  0  0  0  0
  -25.0940  -36.2550   23.6560 C   0  0  0  0  0  3  0  0  0  0  0  0
  -27.1240  -37.2810   24.5830 C   0  0  0  0  0  1  0  0  0  0  0  0
  -26.0770  -37.3580   23.5680 N   0  0  0  0  0  0  0  0  0  0  0  0
  -25.6170  -38.2590   23.6520 H   0  0  0  0  0  0  0  0  0  0  0  0
  -26.1840  -31.7190   25.0910 C   0  0  1  0  0  0  0  0  0  0  0  0
  -25.0190  -31.4660   26.0770 C   0  0  0  0  0  1  0  0  0  0  0  0
  -26.8460  -30.3560   24.7820 C   0  0  0  0  0  1  0  0  0  0  0  0
  -27.2490  -32.5740   25.8190 C   0  0  0  0  0  1  0  0  0  0  0  0
  -31.9420  -19.3540   21.1760 O   0  0  0  0  0  0  0  0  0  0  0  0
  -31.8310  -20.6150   23.3210 C   0  0  0  0  0  1  0  0  0  0  0  0
  -32.2860  -20.5640   21.8580 C   0  0  0  0  0  2  0  0  0  0  0  0
  1  2  1  0
  3  7  1  0
  3  5  1  0
  4  7  1  0
  4  6  1  0
  5 48  1  0
  5  8  1  0
  6  9  1  1
  6  1  1  0
  7 10  1  6
  7  8  1  0
  8 95  1  1
  8  2  1  0
 11  6  1  0
 12 17  1  0
 13 14  1  0
 13 12  1  0
 15 14  1  0
 15 22  1  0
 15 16  1  0
 17 11  1  0
 17 16  1  0
 18 11  2  0
 19 20  2  0
 20 39  1  0
 21 20  1  0
 21 24  1  0
 22 23  1  0
 22 19  1  0
 23 21  2  0
 24 25  1  0
 25 26  2  0
 27 30  1  0
 27 26  1  0
 28 27  2  0
 29 28  1  0
 29 24  2  0
 30 31  1  0
 31 32  1  0
 32 33  2  0
 34 33  1  0
 34 38  1  0
 35 34  2  0
 36 31  2  0
 36 35  1  0
 37 36  1  0
 39 40  1  0
 40 43  1  0
 40 42  1  0
 41 39  2  0
 44 19  1  0
 44 45  1  0
 46 44  1  0
 48 47  1  0
 49 52  1  0
 49 48  1  0
 50 49  1  0
 51 49  1  0
 53 54  1  0
 53 52  1  0
 55 66  2  0
 56 54  1  0
 56 61  1  0
 57 65  1  0
 57 67  1  0
 58 64  1  0
 58 60  1  0
 59 65  1  0
 60 61  2  0
 60 59  1  0
 62 56  2  0
 63 62  1  0
 63 58  2  0
 64 57  1  0
 65 55  1  0
 67 69  2  0
 68 67  1  0
 70 68  1  0
 71 80  2  0
 71 76  1  0
 72 68  1  0
 72 76  1  0
 73 72  1  0
 74 75  1  0
 74 73  1  0
 75 71  1  0
 76 77  2  0
 77 78  1  0
 79 78  2  0
 80 79  1  0
 81 55  1  0
 81 82  1  0
 81 91  1  0
 82 85  1  0
 83 87  1  0
 83 82  1  0
 84 83  2  0
 87 86  1  0
 89 90  1  0
 89 87  1  0
 89 88  1  0
 91 94  1  1
 91 92  1  0
 93 91  1  0
 95 97  1  0
 97 96  1  0
M  ISO  4   6 100  11 100  53 101  54 101
M  END
>  <TORSDO>  (28) 
F 22

>  <SCORE>  (28) 
-12.139

>  <name>  (28) 
27

>  <ligand_id>  (28) 
27

>  <original_smiles>  (28) 
[H]c1c([H])c([H])c2c(c1[H])C([H])([H])C([H])([H])C([H])([H])C2([H])N([H])C(=O)C1([H])N(C(=O)C([H])(N([H])C(=O)C([H])(N([H])C([H])([H])[H])C([H])([H])[H])C(C([H])([H])[H])(C([H])([H])[H])C([H])([H])[H])C([H])([H])c2c([H])c(OC([H])([H])C([H])([H])[N+]([H])([H])C([H])(C([H])([H])[H])C3([H])C([H])([H])C4(C([H])([H])[H])C([H])([H])C(C(=O)N5C([H])([H])C([H])([H])C([H])([H])C([H])(n6nc(-c7c([H])c([H])c(Oc8c([H])c([H])c(F)c([H])c8F)c([H])c7[H])c(C(=O)N([H])[H])c6N([H])[H])C5([H])[H])(C([H])([H])[H])C([H])([H])C([H])([H])C34OC([H])([H])C([H])([H])[H])c([H])c([H])c2C1([H])[H]

>  <smiles>  (28) 
[H]c1c([H])c([H])c2c(c1[H])C([H])([H])C([H])([H])C([H])([H])C2([H])N([H])C(=O)C1([H])N(C(=O)C([H])(N([H])C(=O)C([H])(N([H])C([H])([H])[H])C([H])([H])[H])C(C([H])([H])[H])(C([H])([H])[H])C([H])([H])[H])C([H])([H])c2c([H])c(OC([H])([H])C([H])([H])[N+]([H])([H])C([H])(C([H])([H])[H])C3([H])C([H])([H])C4(C([H])([H])[H])C([H])([H])C(C(=O)N5C([H])([H])C([H])([H])C([H])([H])C([H])(n6nc(-c7c([H])c([H])c(Oc8c([H])c([H])c(F)c([H])c8F)c([H])c7[H])c(C(=O)N([H])[H])c6N([H])[H])C5([H])[H])(C([H])([H])[H])C([H])([H])C([H])([H])C34OC([H])([H])C([H])([H])[H])c([H])c([H])c2C1([H])[H]

$$$$
28:0:0
     RDKit          3D

 96104  0  0  1  0  0  0  0  0999 V2000
  -31.1280  -22.2610   18.7790 C   0  0  0  0  0  3  0  0  0  0  0  0
  -30.0290  -23.8330   20.2850 C   0  0  0  0  0  3  0  0  0  0  0  0
  -29.4790  -23.8250   17.9060 C   0  0  0  0  0  3  0  0  0  0  0  0
  -30.9300  -22.7600   20.0900 C   0  0  0  0  0  0  0  0  0  0  0  0
  -30.3910  -22.7680   17.6930 C   0  0  0  0  0  0  0  0  0  0  0  0
  -29.2840  -24.3600   19.2060 C   0  0  0  0  0  0  0  0  0  0  0  0
  -30.5450  -22.1200   16.3220 C   0  0  0  0  0  1  0  0  0  0  0  0
  -31.6200  -22.1240   21.2640 C   0  0  0  0  0  0  0  0  0  0  0  0
  -32.0380  -20.8660   21.0600 N   0  0  0  0  0  0  0  0  0  0  0  0
  -31.6990  -22.6970   22.3550 O   0  0  0  0  0  0  0  0  0  0  0  0
  -31.9750  -20.5410   20.1070 H   0  0  0  0  0  0  0  0  0  0  0  0
  -32.5920  -19.9520   22.0570 C   0  0  0  0  0  2  0  0  0  0  0  0
  -31.6160  -18.8210   22.4610 C   0  0  0  0  0  2  0  0  0  0  0  0
  -31.2180  -17.8710   21.3830 N   0  0  0  0  0  4  0  0  0  0  0  0
  -30.4280  -18.2670   20.9010 H   0  0  0  0  0  0  0  0  0  0  0  0
  -31.9680  -17.7700   20.7150 H   0  0  0  0  0  0  0  0  0  0  0  0
  -30.8770  -16.5290   21.9430 C   0  0  0  0  0  2  0  0  0  0  0  0
  -29.8910  -15.6220   21.1450 C   0  0  0  0  0  2  0  0  0  0  0  0
  -30.5160  -14.4860   20.2930 C   0  0  0  0  0  0  0  0  0  0  0  0
  -30.1970  -12.3740   19.0350 C   0  0  0  0  0  2  0  0  0  0  0  0
  -29.1700  -12.5590   17.8930 C   0  0  0  0  0  2  0  0  0  0  0  0
  -27.7250  -12.3890   18.3990 C   0  0  0  0  0  2  0  0  0  0  0  0
  -27.4510  -13.1880   19.6950 C   0  0  0  0  0  3  0  0  0  0  0  0
  -28.5630  -12.9360   20.7310 C   0  0  0  0  0  2  0  0  0  0  0  0
  -29.8520  -13.3050   20.1240 N   0  0  0  0  0  0  0  0  0  0  0  0
  -31.5760  -14.7220   19.7070 O   0  0  0  0  0  0  0  0  0  0  0  0
  -25.0680  -13.7550   20.4800 C   0  0  0  0  0  0  0  0  0  0  0  0
  -24.0310  -12.9680   20.8950 C   0  0  0  0  0  0  0  0  0  0  0  0
  -24.5160  -11.6250   20.8690 C   0  0  0  0  0  0  0  0  0  0  0  0
  -26.1220  -12.8940   20.2260 N   0  0  0  0  0  0  0  0  0  0  0  0
  -25.7970  -11.6060   20.5200 N   0  0  0  0  0  0  0  0  0  0  0  0
  -23.8230  -10.3530   21.1050 C   0  0  0  0  0  0  0  0  0  0  0  0
  -24.2950   -9.4190   22.0520 C   0  0  0  0  0  3  0  0  0  0  0  0
  -23.5990   -8.2100   22.2750 C   0  0  0  0  0  3  0  0  0  0  0  0
  -22.4150   -7.9270   21.5500 C   0  0  0  0  0  0  0  0  0  0  0  0
  -21.9610   -8.8530   20.5950 C   0  0  0  0  0  3  0  0  0  0  0  0
  -22.6580  -10.0530   20.3720 C   0  0  0  0  0  3  0  0  0  0  0  0
  -21.6910   -6.7660   21.6800 O   0  0  0  0  0  0  0  0  0  0  0  0
  -21.6780   -6.0530   22.8520 C   0  0  0  0  0  0  0  0  0  0  0  0
  -21.2540   -6.6310   24.0690 C   0  0  0  0  0  3  0  0  0  0  0  0
  -21.1860   -5.8440   25.2340 C   0  0  0  0  0  3  0  0  0  0  0  0
  -21.5360   -4.4800   25.1870 C   0  0  0  0  0  0  0  0  0  0  0  0
  -21.9540   -3.9020   23.9760 C   0  0  0  0  0  3  0  0  0  0  0  0
  -22.0230   -4.6870   22.8110 C   0  0  0  0  0  0  0  0  0  0  0  0
  -22.4080   -4.1210   21.6410 F   0  0  0  0  0  0  0  0  0  0  0  0
  -21.4650   -3.7240   26.3070 F   0  0  0  0  0  0  0  0  0  0  0  0
  -22.6380  -13.4240   21.2110 C   0  0  0  0  0  0  0  0  0  0  0  0
  -21.9560  -12.7360   22.1190 N   0  0  0  0  0  0  0  0  0  0  0  0
  -22.1580  -14.4290   20.6840 O   0  0  0  0  0  0  0  0  0  0  0  0
  -22.3460  -11.9160   22.5590 H   0  0  0  0  0  0  0  0  0  0  0  0
  -21.0320  -13.0400   22.3850 H   0  0  0  0  0  0  0  0  0  0  0  0
  -25.1970  -15.1260   20.2800 N   0  0  0  0  0  0  0  0  0  0  0  0
  -24.4190  -15.7630   20.4180 H   0  0  0  0  0  0  0  0  0  0  0  0
  -26.0290  -15.5850   19.9300 H   0  0  0  0  0  0  0  0  0  0  0  0
  -28.0860  -25.2660   19.4800 C   0  0  0  0  0  2  0  0  0  0  0  0
  -28.2850  -26.6310   19.9260 O   0  0  0  0  0  0  0  0  0  0  0  0
  -24.5180  -31.8340   23.1940 C   0  0  0  0  0  0  0  0  0  0  0  0
  -27.1180  -27.3930   20.0110 C   0  0  0  0  0  0  0  0  0  0  0  0
  -23.3000  -30.4560   21.5520 C   0  0  0  0  0  3  0  0  0  0  0  0
  -24.7360  -28.9480   20.1040 C   0  0  0  0  0  0  0  0  0  0  0  0
  -25.8340  -30.8040   21.3450 C   0  0  0  0  0  2  0  0  0  0  0  0
  -25.9170  -29.4480   20.6680 C   0  0  0  0  0  0  0  0  0  0  0  0
  -27.1170  -28.6850   20.6060 C   0  0  0  0  0  3  0  0  0  0  0  0
  -25.8760  -26.9080   19.5140 C   0  0  0  0  0  3  0  0  0  0  0  0
  -24.7110  -27.6770   19.5350 C   0  0  0  0  0  3  0  0  0  0  0  0
  -23.5030  -29.8160   20.1620 C   0  0  0  0  0  2  0  0  0  0  0  0
  -24.5700  -31.0430   22.0900 N   0  0  0  0  0  0  0  0  0  0  0  0
  -23.4400  -32.1080   23.7400 O   0  0  0  0  0  0  0  0  0  0  0  0
  -22.6570  -29.4160   22.4980 C   0  0  0  0  0  0  0  0  0  0  0  0
  -21.3270  -29.2490   22.3860 N   0  0  0  0  0  0  0  0  0  0  0  0
  -23.3440  -28.7700   23.2930 O   0  0  0  0  0  0  0  0  0  0  0  0
  -20.8320  -29.8240   21.7200 H   0  0  0  0  0  0  0  0  0  0  0  0
  -17.9410  -28.0900   22.9150 C   0  0  0  0  0  0  0  0  0  0  0  0
  -20.5060  -28.3060   23.1480 C   0  0  0  0  0  3  0  0  0  0  0  0
  -20.5800  -26.8860   22.5410 C   0  0  0  0  0  2  0  0  0  0  0  0
  -19.4580  -26.5980   21.5390 C   0  0  0  0  0  2  0  0  0  0  0  0
  -18.0900  -26.7490   22.2120 C   0  0  0  0  0  2  0  0  0  0  0  0
  -19.0780  -28.8290   23.3380 C   0  0  0  0  0  0  0  0  0  0  0  0
  -18.8880  -30.0840   23.9560 C   0  0  0  0  0  3  0  0  0  0  0  0
  -17.5940  -30.6010   24.1520 C   0  0  0  0  0  3  0  0  0  0  0  0
  -16.4730  -29.8580   23.7470 C   0  0  0  0  0  3  0  0  0  0  0  0
  -16.6460  -28.6040   23.1330 C   0  0  0  0  0  3  0  0  0  0  0  0
  -25.8130  -32.4530   23.8070 C   0  0  0  0  0  3  0  0  0  0  0  0
  -25.5020  -33.8410   24.1730 N   0  0  0  0  0  0  0  0  0  0  0  0
  -25.8250  -34.9130   23.4360 C   0  0  0  0  0  0  0  0  0  0  0  0
  -26.4890  -34.8370   22.3980 O   0  0  0  0  0  0  0  0  0  0  0  0
  -24.9040  -33.9700   24.9760 H   0  0  0  0  0  0  0  0  0  0  0  0
  -24.0930  -36.7060   23.1270 C   0  0  0  0  0  1  0  0  0  0  0  0
  -25.3350  -36.2850   23.9290 C   0  0  0  0  0  3  0  0  0  0  0  0
  -27.4630  -37.1550   24.7860 C   0  0  0  0  0  1  0  0  0  0  0  0
  -26.3630  -37.3440   23.8460 N   0  0  0  0  0  0  0  0  0  0  0  0
  -25.9520  -38.2570   24.0150 H   0  0  0  0  0  0  0  0  0  0  0  0
  -26.3510  -31.6500   25.0560 C   0  0  1  0  0  0  0  0  0  0  0  0
  -25.2710  -31.3700   26.1260 C   0  0  0  0  0  1  0  0  0  0  0  0
  -26.9470  -30.2900   24.6210 C   0  0  0  0  0  1  0  0  0  0  0  0
  -27.4950  -32.4420   25.7330 C   0  0  0  0  0  1  0  0  0  0  0  0
  1  4  1  0
  3  6  2  0
  4  2  2  0
  4  8  1  0
  5  3  1  0
  5  1  2  0
  6 55  1  0
  6  2  1  0
  7  5  1  0
  8 10  2  0
  9  8  1  0
  9 12  1  0
 11  9  1  0
 12 13  1  0
 14 17  1  0
 14 13  1  0
 15 14  1  0
 16 14  1  0
 18 17  1  0
 19 18  1  0
 20 25  1  0
 21 22  1  0
 21 20  1  0
 23 22  1  0
 23 30  1  0
 23 24  1  0
 25 19  1  0
 25 24  1  0
 26 19  2  0
 27 28  2  0
 28 47  1  0
 29 28  1  0
 29 32  1  0
 30 27  1  0
 30 31  1  0
 31 29  2  0
 32 33  1  0
 33 34  2  0
 35 38  1  0
 35 34  1  0
 36 35  2  0
 37 36  1  0
 37 32  2  0
 38 39  1  0
 39 40  1  0
 40 41  2  0
 42 41  1  0
 42 46  1  0
 43 42  2  0
 44 39  2  0
 44 43  1  0
 45 44  1  0
 47 48  1  0
 48 51  1  0
 48 50  1  0
 49 47  2  0
 52 53  1  0
 52 27  1  0
 54 52  1  0
 55 56  1  0
 56 58  1  0
 57 68  2  0
 58 63  1  0
 59 67  1  0
 59 69  1  0
 60 66  1  0
 60 62  1  0
 61 67  1  0
 62 61  1  0
 63 62  2  0
 64 65  1  0
 64 58  2  0
 65 60  2  0
 66 59  1  0
 67 57  1  0
 69 71  2  0
 70 69  1  0
 72 70  1  0
 73 82  2  0
 73 78  1  0
 74 70  1  0
 74 78  1  0
 75 74  1  0
 76 77  1  0
 76 75  1  0
 77 73  1  0
 78 79  2  0
 79 80  1  0
 81 80  2  0
 82 81  1  0
 83 57  1  0
 83 84  1  0
 83 93  1  0
 84 87  1  0
 85 89  1  0
 85 84  1  0
 86 85  2  0
 89 88  1  0
 91 89  1  0
 91 92  1  0
 91 90  1  0
 93 96  1  1
 93 94  1  0
 95 93  1  0
M  ISO  4  18 100  19 100  55 101  56 101
M  END
>  <TORSDO>  (29) 
F 23

>  <SCORE>  (29) 
-12.003

>  <name>  (29) 
28

>  <ligand_id>  (29) 
28

>  <original_smiles>  (29) 
[H]c1c([H])c([H])c2c(c1[H])C([H])([H])C([H])([H])C([H])([H])C2([H])N([H])C(=O)C1([H])N(C(=O)C([H])(N([H])C(=O)C([H])(N([H])C([H])([H])[H])C([H])([H])[H])C(C([H])([H])[H])(C([H])([H])[H])C([H])([H])[H])C([H])([H])c2c([H])c(OC([H])([H])c3c([H])c(C(=O)N([H])C([H])([H])C([H])([H])[N+]([H])([H])C([H])([H])C([H])([H])C(=O)N4C([H])([H])C([H])([H])C([H])([H])C([H])(n5nc(-c6c([H])c([H])c(Oc7c([H])c([H])c(F)c([H])c7F)c([H])c6[H])c(C(=O)N([H])[H])c5N([H])[H])C4([H])[H])c([H])c(C([H])([H])[H])c3[H])c([H])c([H])c2C1([H])[H]

>  <smiles>  (29) 
[H]c1c([H])c([H])c2c(c1[H])C([H])([H])C([H])([H])C([H])([H])C2([H])N([H])C(=O)C1([H])N(C(=O)C([H])(N([H])C(=O)C([H])(N([H])C([H])([H])[H])C([H])([H])[H])C(C([H])([H])[H])(C([H])([H])[H])C([H])([H])[H])C([H])([H])c2c([H])c(OC([H])([H])c3c([H])c(C(=O)N([H])C([H])([H])C([H])([H])[N+]([H])([H])C([H])([H])C([H])([H])C(=O)N4C([H])([H])C([H])([H])C([H])([H])C([H])(n5nc(-c6c([H])c([H])c(Oc7c([H])c([H])c(F)c([H])c7F)c([H])c6[H])c(C(=O)N([H])[H])c5N([H])[H])C4([H])[H])c([H])c(C([H])([H])[H])c3[H])c([H])c([H])c2C1([H])[H]

$$$$
29:0:0
     RDKit          3D

 95103  0  0  1  0  0  0  0  0999 V2000
  -29.0050  -21.2670   21.6530 C   0  0  0  0  0  0  0  0  0  0  0  0
  -28.1640  -22.1760   21.1380 N   0  0  0  0  0  0  0  0  0  0  0  0
  -29.6480  -21.4460   22.6900 O   0  0  0  0  0  0  0  0  0  0  0  0
  -27.7690  -21.9360   20.2390 H   0  0  0  0  0  0  0  0  0  0  0  0
  -28.0690  -19.6070   19.9880 C   0  0  0  0  0  3  0  0  0  0  0  0
  -30.1360  -19.0420   21.1540 C   0  0  0  0  0  3  0  0  0  0  0  0
  -29.1540  -17.4620   19.5790 C   0  0  0  0  0  3  0  0  0  0  0  0
  -29.0910  -19.9650   20.8990 C   0  0  0  0  0  0  0  0  0  0  0  0
  -28.0990  -18.3620   19.3310 C   0  0  0  0  0  0  0  0  0  0  0  0
  -30.1800  -17.7890   20.4950 C   0  0  0  0  0  0  0  0  0  0  0  0
  -26.9880  -17.9820   18.3710 C   0  0  0  0  0  1  0  0  0  0  0  0
  -31.3220  -16.8130   20.8020 C   0  0  0  0  0  2  0  0  0  0  0  0
  -31.4490  -14.4190   20.0720 C   0  0  0  0  0  0  0  0  0  0  0  0
  -31.0040  -12.1980   19.0890 C   0  0  0  0  0  2  0  0  0  0  0  0
  -30.0370  -12.3460   17.8970 C   0  0  0  0  0  2  0  0  0  0  0  0
  -28.5720  -12.3190   18.3740 C   0  0  0  0  0  2  0  0  0  0  0  0
  -28.3140  -13.2890   19.5590 C   0  0  0  0  0  3  0  0  0  0  0  0
  -29.3830  -13.0950   20.6580 C   0  0  0  0  0  2  0  0  0  0  0  0
  -30.7140  -13.2750   20.0460 N   0  0  0  0  0  0  0  0  0  0  0  0
  -32.4940  -14.5730   19.4310 O   0  0  0  0  0  0  0  0  0  0  0  0
  -30.9150  -15.4080   20.8000 N   0  0  0  0  0  0  0  0  0  0  0  0
  -30.0850  -15.1770   21.3210 H   0  0  0  0  0  0  0  0  0  0  0  0
  -26.0420  -14.1100   20.4550 C   0  0  0  0  0  0  0  0  0  0  0  0
  -24.9100  -13.4380   20.8290 C   0  0  0  0  0  0  0  0  0  0  0  0
  -25.1990  -12.0510   20.6540 C   0  0  0  0  0  0  0  0  0  0  0  0
  -26.9610  -13.1360   20.0900 N   0  0  0  0  0  0  0  0  0  0  0  0
  -26.4560  -11.8880   20.2630 N   0  0  0  0  0  0  0  0  0  0  0  0
  -24.3340  -10.8690   20.7810 C   0  0  0  0  0  0  0  0  0  0  0  0
  -24.6890   -9.7810   21.6080 C   0  0  0  0  0  3  0  0  0  0  0  0
  -23.8320   -8.6650   21.7300 C   0  0  0  0  0  3  0  0  0  0  0  0
  -22.6050   -8.6320   21.0240 C   0  0  0  0  0  0  0  0  0  0  0  0
  -22.2680   -9.7090   20.1860 C   0  0  0  0  0  3  0  0  0  0  0  0
  -23.1230  -10.8160   20.0610 C   0  0  0  0  0  3  0  0  0  0  0  0
  -21.7240   -7.5790   21.0610 O   0  0  0  0  0  0  0  0  0  0  0  0
  -21.6140   -6.7690   22.1630 C   0  0  0  0  0  0  0  0  0  0  0  0
  -21.3340   -7.2910   23.4450 C   0  0  0  0  0  3  0  0  0  0  0  0
  -21.1600   -6.4180   24.5380 C   0  0  0  0  0  3  0  0  0  0  0  0
  -21.2560   -5.0260   24.3500 C   0  0  0  0  0  0  0  0  0  0  0  0
  -21.5280   -4.5040   23.0730 C   0  0  0  0  0  3  0  0  0  0  0  0
  -21.7030   -5.3740   21.9820 C   0  0  0  0  0  0  0  0  0  0  0  0
  -21.9430   -4.8650   20.7490 F   0  0  0  0  0  0  0  0  0  0  0  0
  -21.0820   -4.1870   25.3980 F   0  0  0  0  0  0  0  0  0  0  0  0
  -23.5970  -14.0500   21.2290 C   0  0  0  0  0  0  0  0  0  0  0  0
  -22.8460  -13.3780   22.0960 N   0  0  0  0  0  0  0  0  0  0  0  0
  -23.2510  -15.1530   20.8100 O   0  0  0  0  0  0  0  0  0  0  0  0
  -23.1350  -12.4810   22.4570 H   0  0  0  0  0  0  0  0  0  0  0  0
  -21.9670  -13.7670   22.4030 H   0  0  0  0  0  0  0  0  0  0  0  0
  -26.3580  -15.4620   20.3760 N   0  0  0  0  0  0  0  0  0  0  0  0
  -25.6740  -16.1830   20.5700 H   0  0  0  0  0  0  0  0  0  0  0  0
  -27.2380  -15.8310   20.0380 H   0  0  0  0  0  0  0  0  0  0  0  0
  -27.4950  -23.2470   21.8790 C   0  0  0  0  0  2  0  0  0  0  0  0
  -27.8190  -24.6810   21.4080 C   0  0  0  0  0  2  0  0  0  0  0  0
  -29.2330  -25.1820   21.7610 C   0  0  0  0  0  2  0  0  0  0  0  0
  -29.4180  -26.7050   21.5880 C   0  0  0  0  0  2  0  0  0  0  0  0
  -28.9560  -27.1450   20.3090 O   0  0  0  0  0  0  0  0  0  0  0  0
  -24.5560  -31.9390   23.2520 C   0  0  0  0  0  0  0  0  0  0  0  0
  -27.7550  -27.8130   20.2860 C   0  0  0  0  0  0  0  0  0  0  0  0
  -23.5800  -30.4930   21.4940 C   0  0  0  0  0  3  0  0  0  0  0  0
  -25.2480  -29.1100   20.1480 C   0  0  0  0  0  0  0  0  0  0  0  0
  -26.0740  -31.0540   21.4870 C   0  0  0  0  0  2  0  0  0  0  0  0
  -26.3110  -29.7110   20.8340 C   0  0  0  0  0  0  0  0  0  0  0  0
  -27.5660  -29.0700   20.9070 C   0  0  0  0  0  3  0  0  0  0  0  0
  -26.6830  -27.2270   19.5830 C   0  0  0  0  0  3  0  0  0  0  0  0
  -25.4290  -27.8640   19.5190 C   0  0  0  0  0  3  0  0  0  0  0  0
  -23.9390  -29.8650   20.1210 C   0  0  0  0  0  2  0  0  0  0  0  0
  -24.7480  -31.1780   22.1370 N   0  0  0  0  0  0  0  0  0  0  0  0
  -23.4230  -32.1150   23.7190 O   0  0  0  0  0  0  0  0  0  0  0  0
  -22.9460  -29.4010   22.3850 C   0  0  0  0  0  0  0  0  0  0  0  0
  -21.6370  -29.1660   22.2030 N   0  0  0  0  0  0  0  0  0  0  0  0
  -23.6300  -28.7690   23.1960 O   0  0  0  0  0  0  0  0  0  0  0  0
  -21.1460  -29.7310   21.5240 H   0  0  0  0  0  0  0  0  0  0  0  0
  -18.2840  -27.8810   22.6030 C   0  0  0  0  0  0  0  0  0  0  0  0
  -20.8380  -28.1590   22.8990 C   0  0  0  0  0  3  0  0  0  0  0  0
  -20.9640  -26.7780   22.2150 C   0  0  0  0  0  2  0  0  0  0  0  0
  -19.8670  -26.5150   21.1780 C   0  0  0  0  0  2  0  0  0  0  0  0
  -18.4830  -26.5900   21.8290 C   0  0  0  0  0  2  0  0  0  0  0  0
  -19.3890  -28.6260   23.0920 C   0  0  0  0  0  0  0  0  0  0  0  0
  -19.1500  -29.8400   23.7740 C   0  0  0  0  0  3  0  0  0  0  0  0
  -17.8370  -30.3050   23.9740 C   0  0  0  0  0  3  0  0  0  0  0  0
  -16.7460  -29.5550   23.5030 C   0  0  0  0  0  3  0  0  0  0  0  0
  -16.9700  -28.3450   22.8220 C   0  0  0  0  0  3  0  0  0  0  0  0
  -25.7440  -32.6470   23.9750 C   0  0  0  0  0  3  0  0  0  0  0  0
  -25.3490  -34.0420   24.2150 N   0  0  0  0  0  0  0  0  0  0  0  0
  -25.7120  -35.0780   23.4460 C   0  0  0  0  0  0  0  0  0  0  0  0
  -26.4830  -34.9650   22.4890 O   0  0  0  0  0  0  0  0  0  0  0  0
  -24.6750  -34.2000   24.9500 H   0  0  0  0  0  0  0  0  0  0  0  0
  -23.9510  -36.7710   22.8520 C   0  0  0  0  0  1  0  0  0  0  0  0
  -25.1240  -36.4590   23.7940 C   0  0  0  0  0  3  0  0  0  0  0  0
  -27.1410  -37.4590   24.7730 C   0  0  0  0  0  1  0  0  0  0  0  0
  -26.1180  -37.5530   23.7350 N   0  0  0  0  0  0  0  0  0  0  0  0
  -25.6630  -38.4580   23.8180 H   0  0  0  0  0  0  0  0  0  0  0  0
  -26.1610  -31.9430   25.3240 C   0  0  1  0  0  0  0  0  0  0  0  0
  -24.9680  -31.6490   26.2640 C   0  0  0  0  0  1  0  0  0  0  0  0
  -26.8810  -30.6050   25.0410 C   0  0  0  0  0  1  0  0  0  0  0  0
  -27.1680  -32.8340   26.0910 C   0  0  0  0  0  1  0  0  0  0  0  0
  1  3  2  0
  2  1  1  0
  2 51  1  0
  4  2  1  0
  5  8  1  0
  7 10  2  0
  8  6  2  0
  8  1  1  0
  9  7  1  0
  9  5  2  0
 10 12  1  0
 10  6  1  0
 11  9  1  0
 13 21  1  0
 14 19  1  0
 15 16  1  0
 15 14  1  0
 17 16  1  0
 17 26  1  0
 17 18  1  0
 19 13  1  0
 19 18  1  0
 20 13  2  0
 21 12  1  0
 21 22  1  0
 23 24  2  0
 24 43  1  0
 25 28  1  0
 25 24  1  0
 26 27  1  0
 26 23  1  0
 27 25  2  0
 28 29  1  0
 29 30  2  0
 31 34  1  0
 31 30  1  0
 32 31  2  0
 33 32  1  0
 33 28  2  0
 34 35  1  0
 35 36  1  0
 36 37  2  0
 38 37  1  0
 38 42  1  0
 39 38  2  0
 40 35  2  0
 40 39  1  0
 41 40  1  0
 43 44  1  0
 44 47  1  0
 44 46  1  0
 45 43  2  0
 48 23  1  0
 48 49  1  0
 50 48  1  0
 52 53  1  0
 52 51  1  0
 54 53  1  0
 55 54  1  0
 56 67  2  0
 57 55  1  0
 57 62  1  0
 58 66  1  0
 58 68  1  0
 59 61  1  0
 60 66  1  0
 61 62  2  0
 61 60  1  0
 63 57  2  0
 64 63  1  0
 64 59  2  0
 65 59  1  0
 65 58  1  0
 66 56  1  0
 68 70  2  0
 69 68  1  0
 71 69  1  0
 72 81  2  0
 72 77  1  0
 73 69  1  0
 73 77  1  0
 74 73  1  0
 75 76  1  0
 75 74  1  0
 76 72  1  0
 77 78  2  0
 78 79  1  0
 80 79  2  0
 81 80  1  0
 82 56  1  0
 82 83  1  0
 82 92  1  0
 83 86  1  0
 84 88  1  0
 84 83  1  0
 85 84  2  0
 88 87  1  0
 90 88  1  0
 90 91  1  0
 90 89  1  0
 92 95  1  1
 92 93  1  0
 94 92  1  0
M  ISO  4  13 100  21 100  54 101  55 101
M  END
>  <TORSDO>  (30) 
F 22

>  <SCORE>  (30) 
-11.993

>  <name>  (30) 
29

>  <ligand_id>  (30) 
29

>  <original_smiles>  (30) 
[H]c1c([H])c([H])c2c(c1[H])C([H])([H])C([H])([H])C([H])([H])C2([H])N([H])C(=O)C1([H])N(C(=O)C([H])(N([H])C(=O)C([H])(N([H])C([H])([H])[H])C([H])([H])[H])C(C([H])([H])[H])(C([H])([H])[H])C([H])([H])[H])C([H])([H])c2c([H])c(OC([H])([H])C([H])([H])C([H])([H])C([H])([H])N([H])C(=O)c3c([H])c(C([H])([H])[H])c([H])c(C([H])([H])N([H])C(=O)N4C([H])([H])C([H])([H])C([H])([H])C([H])(n5nc(-c6c([H])c([H])c(Oc7c([H])c([H])c(F)c([H])c7F)c([H])c6[H])c(C(=O)N([H])[H])c5N([H])[H])C4([H])[H])c3[H])c([H])c([H])c2C1([H])[H]

>  <smiles>  (30) 
[H]c1c([H])c([H])c2c(c1[H])C([H])([H])C([H])([H])C([H])([H])C2([H])N([H])C(=O)C1([H])N(C(=O)C([H])(N([H])C(=O)C([H])(N([H])C([H])([H])[H])C([H])([H])[H])C(C([H])([H])[H])(C([H])([H])[H])C([H])([H])[H])C([H])([H])c2c([H])c(OC([H])([H])C([H])([H])C([H])([H])C([H])([H])N([H])C(=O)c3c([H])c(C([H])([H])[H])c([H])c(C([H])([H])N([H])C(=O)N4C([H])([H])C([H])([H])C([H])([H])C([H])(n5nc(-c6c([H])c([H])c(Oc7c([H])c([H])c(F)c([H])c7F)c([H])c6[H])c(C(=O)N([H])[H])c5N([H])[H])C4([H])[H])c3[H])c([H])c([H])c2C1([H])[H]

$$$$
30:0:0
     RDKit          3D

 96103  0  0  1  0  0  0  0  0999 V2000
  -23.9920  -25.6290   20.4490 C   0  0  0  0  0  2  0  0  0  0  0  0
  -21.6900  -27.1150   20.4890 C   0  0  0  0  0  3  0  0  0  0  0  0
  -23.5780  -24.4790   21.3430 C   0  0  0  0  0  0  0  0  0  0  0  0
  -22.1630  -24.4300   22.0700 C   0  0  0  0  0  0  0  0  0  0  0  0
  -23.4260  -26.9840   20.0890 C   0  0  0  0  0  3  0  0  0  0  0  0
  -20.9870  -25.5540   21.9040 C   0  0  0  0  0  3  0  0  0  0  0  0
  -19.9220  -25.3110   22.7240 F   0  0  0  0  0  0  0  0  0  0  0  0
  -24.8150  -23.4490   21.6530 C   0  0  0  0  0  0  0  0  0  0  0  0
  -25.8900  -23.0000   20.8000 N   0  0  0  0  0  0  0  0  0  0  0  0
  -24.8600  -23.0240   22.8100 O   0  0  0  0  0  0  0  0  0  0  0  0
  -25.8280  -23.3270   19.8460 H   0  0  0  0  0  0  0  0  0  0  0  0
  -27.2300  -22.1600   21.1440 C   0  0  0  0  0  3  0  0  0  0  0  0
  -28.2130  -21.1460   20.1460 C   0  0  0  0  0  3  0  0  0  0  0  0
  -29.4520  -20.0390   20.6460 C   0  0  0  0  0  2  0  0  0  0  0  0
  -30.2580  -18.7500   19.8040 C   0  0  0  0  0  3  0  0  0  0  0  0
  -31.2670  -17.5180   20.4830 C   0  0  0  0  0  3  0  0  0  0  0  0
  -32.1260  -16.1720   19.8580 C   0  0  0  0  0  0  0  0  0  0  0  0
  -32.1560  -13.7380   19.0290 C   0  0  0  0  0  2  0  0  0  0  0  0
  -31.2120  -13.6190   17.8020 C   0  0  0  0  0  2  0  0  0  0  0  0
  -29.7350  -13.5240   18.2410 C   0  0  0  0  0  2  0  0  0  0  0  0
  -29.3980  -14.5580   19.3460 C   0  0  0  0  0  3  0  0  0  0  0  0
  -30.4100  -14.4810   20.4910 C   0  0  0  0  0  2  0  0  0  0  0  0
  -31.6740  -14.8600   19.8970 N   0  0  0  0  0  0  0  0  0  0  0  0
  -33.2740  -16.2940   19.3820 O   0  0  0  0  0  0  0  0  0  0  0  0
  -27.1880  -15.4180   20.2800 C   0  0  0  0  0  0  0  0  0  0  0  0
  -26.0370  -14.7750   20.6340 C   0  0  0  0  0  0  0  0  0  0  0  0
  -26.2810  -13.3840   20.4180 C   0  0  0  0  0  0  0  0  0  0  0  0
  -28.0550  -14.4240   19.8650 N   0  0  0  0  0  0  0  0  0  0  0  0
  -27.5260  -13.1860   20.0130 N   0  0  0  0  0  0  0  0  0  0  0  0
  -25.3800  -12.2340   20.5120 C   0  0  0  0  0  0  0  0  0  0  0  0
  -25.6520  -11.1490   21.3740 C   0  0  0  0  0  3  0  0  0  0  0  0
  -24.7570  -10.0610   21.4550 C   0  0  0  0  0  3  0  0  0  0  0  0
  -23.5790  -10.0540   20.6710 C   0  0  0  0  0  0  0  0  0  0  0  0
  -23.3270  -11.1240   19.7970 C   0  0  0  0  0  3  0  0  0  0  0  0
  -24.2210  -12.2040   19.7130 C   0  0  0  0  0  3  0  0  0  0  0  0
  -22.6630   -9.0300   20.6670 O   0  0  0  0  0  0  0  0  0  0  0  0
  -22.3600   -8.3310   21.8070 C   0  0  0  0  0  0  0  0  0  0  0  0
  -21.9090   -8.9760   22.9790 C   0  0  0  0  0  3  0  0  0  0  0  0
  -21.5430   -8.2140   24.1050 C   0  0  0  0  0  3  0  0  0  0  0  0
  -21.6170   -6.8090   24.0600 C   0  0  0  0  0  0  0  0  0  0  0  0
  -22.0620   -6.1640   22.8920 C   0  0  0  0  0  3  0  0  0  0  0  0
  -22.4310   -6.9250   21.7680 C   0  0  0  0  0  0  0  0  0  0  0  0
  -22.8380   -6.2980   20.6380 F   0  0  0  0  0  0  0  0  0  0  0  0
  -21.2580   -6.0750   25.1390 F   0  0  0  0  0  0  0  0  0  0  0  0
  -24.7520  -15.4250   21.0510 C   0  0  0  0  0  0  0  0  0  0  0  0
  -23.9880  -14.7690   21.9160 N   0  0  0  0  0  0  0  0  0  0  0  0
  -24.4420  -16.5450   20.6460 O   0  0  0  0  0  0  0  0  0  0  0  0
  -24.2550  -13.8600   22.2620 H   0  0  0  0  0  0  0  0  0  0  0  0
  -23.1230  -15.1810   22.2360 H   0  0  0  0  0  0  0  0  0  0  0  0
  -27.5610  -16.7570   20.2550 N   0  0  0  0  0  0  0  0  0  0  0  0
  -26.9140  -17.5010   20.4930 H   0  0  0  0  0  0  0  0  0  0  0  0
  -28.4510  -17.0970   19.9170 H   0  0  0  0  0  0  0  0  0  0  0  0
  -21.8610  -23.3660   22.9260 N   0  0  0  0  0  0  0  0  0  0  0  0
  -22.6480  -22.8780   23.3410 H   0  0  0  0  0  0  0  0  0  0  0  0
  -21.0830  -23.5060   23.5620 H   0  0  0  0  0  0  0  0  0  0  0  0
  -24.8580  -27.8560   20.2390 O   0  0  0  0  0  0  0  0  0  0  0  0
  -24.6300  -32.1550   23.5270 C   0  0  0  0  0  0  0  0  0  0  0  0
  -26.1090  -28.2870   19.5920 C   0  0  0  0  0  3  0  0  0  0  0  0
  -23.4180  -31.2890   21.5980 C   0  0  0  0  0  3  0  0  0  0  0  0
  -24.7530  -30.4480   19.5610 C   0  0  0  0  0  3  0  0  0  0  0  0
  -25.9470  -31.5770   21.4640 C   0  0  0  0  0  2  0  0  0  0  0  0
  -25.8770  -30.4910   20.4000 C   0  0  0  0  0  3  0  0  0  0  0  0
  -26.7430  -29.3810   20.2890 C   0  0  0  0  0  2  0  0  0  0  0  0
  -25.7580  -28.6100   18.3110 C   0  0  0  0  0  2  0  0  0  0  0  0
  -24.7640  -29.5970   18.4170 C   0  0  0  0  0  2  0  0  0  0  0  0
  -23.5210  -31.1540   20.0400 C   0  0  0  0  0  2  0  0  0  0  0  0
  -24.6840  -31.7460   22.2260 N   0  0  0  0  0  0  0  0  0  0  0  0
  -23.5500  -32.2470   24.1330 O   0  0  0  0  0  0  0  0  0  0  0  0
  -23.0430  -30.0020   22.3500 C   0  0  0  0  0  0  0  0  0  0  0  0
  -21.8130  -29.8270   22.7710 N   0  0  0  0  0  0  0  0  0  0  0  0
  -23.8990  -29.1910   22.6680 O   0  0  0  0  0  0  0  0  0  0  0  0
  -21.1210  -30.5490   22.6210 H   0  0  0  0  0  0  0  0  0  0  0  0
  -18.5290  -28.7020   22.0870 C   0  0  0  0  0  0  0  0  0  0  0  0
  -21.3200  -28.5010   23.1820 C   0  0  0  0  0  2  0  0  0  0  0  0
  -22.2670  -27.0070   22.2490 C   0  0  0  0  0  2  0  0  0  0  0  0
  -20.0860  -26.6980   19.7650 C   0  0  0  0  0  1  0  0  0  0  0  0
  -18.6060  -27.8030   20.5320 C   0  0  0  0  0  1  0  0  0  0  0  0
  -19.6610  -29.0140   23.0790 C   0  0  0  0  0  0  0  0  0  0  0  0
  -19.3460  -29.9490   24.1380 C   0  0  0  0  0  3  0  0  0  0  0  0
  -18.0660  -30.4430   24.4680 C   0  0  0  0  0  3  0  0  0  0  0  0
  -16.9770  -29.9520   23.7450 C   0  0  0  0  0  3  0  0  0  0  0  0
  -17.2190  -29.1200   22.6050 C   0  0  0  0  0  3  0  0  0  0  0  0
  -25.9100  -32.5440   24.3020 C   0  0  0  0  0  3  0  0  0  0  0  0
  -25.6640  -33.8910   24.8270 N   0  0  0  0  0  0  0  0  0  0  0  0
  -26.0910  -35.0140   24.2430 C   0  0  0  0  0  0  0  0  0  0  0  0
  -26.8260  -35.0120   23.2520 O   0  0  0  0  0  0  0  0  0  0  0  0
  -25.0220  -33.9640   25.6040 H   0  0  0  0  0  0  0  0  0  0  0  0
  -24.5030  -36.9510   24.0190 C   0  0  0  0  0  1  0  0  0  0  0  0
  -25.6400  -36.3490   24.8610 C   0  0  0  0  0  3  0  0  0  0  0  0
  -27.7590  -36.9200   25.9570 C   0  0  0  0  0  1  0  0  0  0  0  0
  -26.7390  -37.3290   24.9940 N   0  0  0  0  0  0  0  0  0  0  0  0
  -26.3810  -38.2370   25.2780 H   0  0  0  0  0  0  0  0  0  0  0  0
  -26.2690  -31.5510   25.4740 C   0  0  1  0  0  0  0  0  0  0  0  0
  -25.0760  -31.2000   26.3960 C   0  0  0  0  0  1  0  0  0  0  0  0
  -26.8380  -30.2250   24.9220 C   0  0  0  0  0  1  0  0  0  0  0  0
  -27.3820  -32.1760   26.3450 C   0  0  0  0  0  1  0  0  0  0  0  0
  1  3  1  0
  2 76  1  0
  2 75  1  0
  3  8  1  0
  3  4  2  0
  4 53  1  0
  5 56  1  0
  5  1  1  0
  5  2  1  0
  6  4  1  0
  6 75  1  0
  6  7  1  0
  8 10  2  0
  9 12  1  0
  9  8  1  0
 11  9  1  0
 13 14  1  0
 13 12  2  0
 15 16  2  0
 15 14  1  0
 17 23  1  0
 17 16  1  0
 18 23  1  0
 19 20  1  0
 19 18  1  0
 21 20  1  0
 21 28  1  0
 21 22  1  0
 23 22  1  0
 24 17  2  0
 25 26  2  0
 26 45  1  0
 27 30  1  0
 27 26  1  0
 28 29  1  0
 28 25  1  0
 29 27  2  0
 30 31  1  0
 31 32  2  0
 33 32  1  0
 34 33  2  0
 35 34  1  0
 35 30  2  0
 36 33  1  0
 36 37  1  0
 37 38  1  0
 38 39  2  0
 40 39  1  0
 40 44  1  0
 41 40  2  0
 42 37  2  0
 42 41  1  0
 43 42  1  0
 45 46  1  0
 46 49  1  0
 46 48  1  0
 47 45  2  0
 50 25  1  0
 50 51  1  0
 52 50  1  0
 53 54  1  0
 53 55  1  0
 57 68  2  0
 58 56  1  0
 58 63  1  0
 59 67  1  0
 59 69  1  0
 60 65  1  0
 60 66  1  0
 60 62  1  0
 61 67  1  0
 62 63  1  0
 62 61  1  0
 64 65  1  0
 64 58  1  0
 66 59  1  0
 67 57  1  0
 69 71  2  0
 69 70  1  0
 70 74  1  0
 72 70  1  0
 73 82  2  0
 73 78  1  0
 77 73  1  0
 78 74  1  0
 78 79  2  0
 79 80  1  0
 81 80  2  0
 82 81  1  0
 83 57  1  0
 83 84  1  0
 83 93  1  0
 84 87  1  0
 85 84  1  0
 85 89  1  0
 86 85  2  0
 89 88  1  0
 89 91  1  0
 91 92  1  0
 91 90  1  0
 93 96  1  1
 93 94  1  0
 95 93  1  0
M  ISO  4   5 101  16 100  17 100  56 101
M  END
>  <TORSDO>  (31) 
F 23

>  <SCORE>  (31) 
-5.379

>  <name>  (31) 
30

>  <ligand_id>  (31) 
30

>  <original_smiles>  (31) 
[H]c1c([H])c([H])c2c(c1[H])C([H])([H])C([H])([H])C([H])([H])C2([H])N([H])C(=O)C1([H])N(C(=O)C([H])(N([H])C(=O)C([H])(N([H])C([H])([H])[H])C([H])([H])[H])C(C([H])([H])[H])(C([H])([H])[H])C([H])([H])[H])C([H])([H])c2c([H])c(Oc3c([H])c(F)c(N([H])[H])c(C(=O)N([H])C([H])([H])C([H])([H])C([H])([H])C([H])([H])C([H])([H])C(=O)N4C([H])([H])C([H])([H])C([H])([H])C([H])(n5nc(-c6c([H])c([H])c(Oc7c([H])c([H])c(F)c([H])c7F)c([H])c6[H])c(C(=O)N([H])[H])c5N([H])[H])C4([H])[H])c3[H])c([H])c([H])c2C1([H])[H]

>  <smiles>  (31) 
[H]c1c([H])c([H])c2c(c1[H])C([H])([H])C([H])([H])C([H])([H])C2([H])N([H])C(=O)C1([H])N(C(=O)C([H])(N([H])C(=O)C([H])(N([H])C([H])([H])[H])C([H])([H])[H])C(C([H])([H])[H])(C([H])([H])[H])C([H])([H])[H])C([H])([H])c2c([H])c(Oc3c([H])c(F)c(N([H])[H])c(C(=O)N([H])C([H])([H])C([H])([H])C([H])([H])C([H])([H])C([H])([H])C(=O)N4C([H])([H])C([H])([H])C([H])([H])C([H])(n5nc(-c6c([H])c([H])c(Oc7c([H])c([H])c(F)c([H])c7F)c([H])c6[H])c(C(=O)N([H])[H])c5N([H])[H])C4([H])[H])c3[H])c([H])c([H])c2C1([H])[H]

$$$$
31:0:0
     RDKit          3D

 93101  0  0  1  0  0  0  0  0999 V2000
  -28.9780  -23.5240   19.9590 C   0  0  0  0  0  0  0  0  0  0  0  0
  -30.0390  -22.5450   20.0560 C   0  0  0  0  0  0  0  0  0  0  0  0
  -29.1310  -24.5300   20.8850 C   0  0  0  0  0  0  0  0  0  0  0  0
  -27.8350  -23.4880   18.9830 C   0  0  0  0  0  1  0  0  0  0  0  0
  -30.9220  -22.7670   21.0090 N   0  0  0  0  0  0  0  0  0  0  0  0
  -30.5520  -24.1940   21.8140 S   0  0  0  0  0  0  0  0  0  0  0  0
  -30.2360  -21.3380   19.1630 C   0  0  0  0  0  2  0  0  0  0  0  0
  -29.7600  -20.0750   19.7820 N   0  0  0  0  0  4  0  0  0  0  0  0
  -28.7730  -20.1610   19.9580 H   0  0  0  0  0  0  0  0  0  0  0  0
  -30.2200  -20.0160   20.6770 H   0  0  0  0  0  0  0  0  0  0  0  0
  -29.4330  -18.8790   17.5840 C   0  0  0  0  0  1  0  0  0  0  0  0
  -30.0480  -18.8320   19.0040 C   0  0  0  0  0  3  0  0  0  0  0  0
  -29.5660  -17.5360   19.7210 C   0  0  0  0  0  2  0  0  0  0  0  0
  -30.4310  -17.0400   20.9040 C   0  0  0  0  0  2  0  0  0  0  0  0
  -30.0840  -15.5930   21.3710 C   0  0  0  0  0  2  0  0  0  0  0  0
  -30.6810  -14.4530   20.5060 C   0  0  0  0  0  0  0  0  0  0  0  0
  -30.3590  -12.3370   19.2650 C   0  0  0  0  0  2  0  0  0  0  0  0
  -29.4010  -12.5710   18.0800 C   0  0  0  0  0  2  0  0  0  0  0  0
  -27.9310  -12.4410   18.5220 C   0  0  0  0  0  2  0  0  0  0  0  0
  -27.6190  -13.2530   19.8070 C   0  0  0  0  0  3  0  0  0  0  0  0
  -28.6810  -12.9720   20.8950 C   0  0  0  0  0  2  0  0  0  0  0  0
  -30.0000  -13.2880   20.3280 N   0  0  0  0  0  0  0  0  0  0  0  0
  -31.7640  -14.6600   19.9480 O   0  0  0  0  0  0  0  0  0  0  0  0
  -25.2200  -13.8800   20.5030 C   0  0  0  0  0  0  0  0  0  0  0  0
  -24.1480  -13.1150   20.8750 C   0  0  0  0  0  0  0  0  0  0  0  0
  -24.6010  -11.7610   20.8530 C   0  0  0  0  0  0  0  0  0  0  0  0
  -26.2630  -12.9910   20.2840 N   0  0  0  0  0  0  0  0  0  0  0  0
  -25.8910  -11.7120   20.5470 N   0  0  0  0  0  0  0  0  0  0  0  0
  -23.8690  -10.5040   21.0520 C   0  0  0  0  0  0  0  0  0  0  0  0
  -24.3100   -9.5290   21.9730 C   0  0  0  0  0  3  0  0  0  0  0  0
  -23.5790   -8.3370   22.1610 C   0  0  0  0  0  3  0  0  0  0  0  0
  -22.3910   -8.1100   21.4240 C   0  0  0  0  0  0  0  0  0  0  0  0
  -21.9680   -9.0730   20.4920 C   0  0  0  0  0  3  0  0  0  0  0  0
  -22.7000  -10.2580   20.3040 C   0  0  0  0  0  3  0  0  0  0  0  0
  -21.6280   -6.9710   21.5220 O   0  0  0  0  0  0  0  0  0  0  0  0
  -21.6120   -6.2120   22.6650 C   0  0  0  0  0  0  0  0  0  0  0  0
  -21.2490   -6.7570   23.9160 C   0  0  0  0  0  3  0  0  0  0  0  0
  -21.1760   -5.9260   25.0510 C   0  0  0  0  0  3  0  0  0  0  0  0
  -21.4570   -4.5510   24.9370 C   0  0  0  0  0  0  0  0  0  0  0  0
  -21.8140   -4.0060   23.6910 C   0  0  0  0  0  3  0  0  0  0  0  0
  -21.8880   -4.8340   22.5580 C   0  0  0  0  0  0  0  0  0  0  0  0
  -22.2120   -4.3010   21.3550 F   0  0  0  0  0  0  0  0  0  0  0  0
  -21.3810   -3.7500   26.0260 F   0  0  0  0  0  0  0  0  0  0  0  0
  -22.7530  -13.6010   21.1460 C   0  0  0  0  0  0  0  0  0  0  0  0
  -22.0240  -12.9140   22.0190 N   0  0  0  0  0  0  0  0  0  0  0  0
  -22.3210  -14.6250   20.6220 O   0  0  0  0  0  0  0  0  0  0  0  0
  -22.3840  -12.0820   22.4610 H   0  0  0  0  0  0  0  0  0  0  0  0
  -21.0900  -13.2260   22.2470 H   0  0  0  0  0  0  0  0  0  0  0  0
  -25.3920  -15.2470   20.3160 N   0  0  0  0  0  0  0  0  0  0  0  0
  -24.6270  -15.9070   20.4060 H   0  0  0  0  0  0  0  0  0  0  0  0
  -26.2500  -15.6770   19.9940 H   0  0  0  0  0  0  0  0  0  0  0  0
  -28.2430  -25.7030   21.2040 C   0  0  0  0  0  2  0  0  0  0  0  0
  -28.3040  -26.6640   20.1400 O   0  0  0  0  0  0  0  0  0  0  0  0
  -24.5580  -31.8730   23.2140 C   0  0  0  0  0  0  0  0  0  0  0  0
  -27.1750  -27.4470   20.1130 C   0  0  0  0  0  0  0  0  0  0  0  0
  -23.3380  -30.4760   21.5760 C   0  0  0  0  0  3  0  0  0  0  0  0
  -24.7840  -28.9420   20.1380 C   0  0  0  0  0  0  0  0  0  0  0  0
  -25.8620  -30.8380   21.3620 C   0  0  0  0  0  2  0  0  0  0  0  0
  -25.9440  -29.4690   20.7190 C   0  0  0  0  0  0  0  0  0  0  0  0
  -27.1480  -28.7270   20.7080 C   0  0  0  0  0  3  0  0  0  0  0  0
  -26.0060  -26.9330   19.5180 C   0  0  0  0  0  3  0  0  0  0  0  0
  -24.8070  -27.6720   19.5350 C   0  0  0  0  0  3  0  0  0  0  0  0
  -23.5390  -29.7970   20.1960 C   0  0  0  0  0  2  0  0  0  0  0  0
  -24.6050  -31.0770   22.1090 N   0  0  0  0  0  0  0  0  0  0  0  0
  -23.4800  -32.1460   23.7620 O   0  0  0  0  0  0  0  0  0  0  0  0
  -22.6920  -29.4550   22.5390 C   0  0  0  0  0  0  0  0  0  0  0  0
  -21.3660  -29.2780   22.4210 N   0  0  0  0  0  0  0  0  0  0  0  0
  -23.3800  -28.8250   23.3480 O   0  0  0  0  0  0  0  0  0  0  0  0
  -20.8730  -29.8350   21.7370 H   0  0  0  0  0  0  0  0  0  0  0  0
  -17.9930  -28.0920   22.9340 C   0  0  0  0  0  0  0  0  0  0  0  0
  -20.5520  -28.3410   23.1960 C   0  0  0  0  0  3  0  0  0  0  0  0
  -20.6480  -26.9120   22.6160 C   0  0  0  0  0  2  0  0  0  0  0  0
  -19.5400  -26.5930   21.6070 C   0  0  0  0  0  2  0  0  0  0  0  0
  -18.1610  -26.7420   22.2570 C   0  0  0  0  0  2  0  0  0  0  0  0
  -19.1160  -28.8500   23.3600 C   0  0  0  0  0  0  0  0  0  0  0  0
  -18.9030  -30.1140   23.9510 C   0  0  0  0  0  3  0  0  0  0  0  0
  -17.6010  -30.6200   24.1240 C   0  0  0  0  0  3  0  0  0  0  0  0
  -16.4930  -29.8580   23.7150 C   0  0  0  0  0  3  0  0  0  0  0  0
  -16.6890  -28.5970   23.1250 C   0  0  0  0  0  3  0  0  0  0  0  0
  -25.8490  -32.5000   23.8270 C   0  0  0  0  0  3  0  0  0  0  0  0
  -25.5440  -33.8960   24.1690 N   0  0  0  0  0  0  0  0  0  0  0  0
  -25.8770  -34.9520   23.4150 C   0  0  0  0  0  0  0  0  0  0  0  0
  -26.5440  -34.8550   22.3810 O   0  0  0  0  0  0  0  0  0  0  0  0
  -24.9530  -34.0460   24.9730 H   0  0  0  0  0  0  0  0  0  0  0  0
  -24.1500  -36.7480   23.0760 C   0  0  0  0  0  1  0  0  0  0  0  0
  -25.3920  -36.3380   23.8830 C   0  0  0  0  0  3  0  0  0  0  0  0
  -27.5310  -37.2110   24.7150 C   0  0  0  0  0  1  0  0  0  0  0  0
  -26.4270  -37.3900   23.7760 N   0  0  0  0  0  0  0  0  0  0  0  0
  -26.0230  -38.3090   23.9330 H   0  0  0  0  0  0  0  0  0  0  0  0
  -26.3800  -31.7180   25.0910 C   0  0  1  0  0  0  0  0  0  0  0  0
  -25.3010  -31.4680   26.1680 C   0  0  0  0  0  1  0  0  0  0  0  0
  -26.9600  -30.3450   24.6770 C   0  0  0  0  0  1  0  0  0  0  0  0
  -27.5370  -32.5090   25.7470 C   0  0  0  0  0  1  0  0  0  0  0  0
  1  2  1  0
  1  3  2  0
  2  5  2  0
  3 52  1  0
  3  6  1  0
  4  1  1  0
  5  6  1  0
  7  8  1  0
  7  2  1  0
  8  9  1  0
  8 10  1  0
 12 11  1  0
 12 13  1  0
 12  8  1  0
 13 14  1  0
 14 15  1  0
 16 15  1  0
 17 22  1  0
 18 19  1  0
 18 17  1  0
 20 19  1  0
 20 27  1  0
 20 21  1  0
 22 16  1  0
 22 21  1  0
 23 16  2  0
 24 25  2  0
 25 44  1  0
 26 25  1  0
 26 29  1  0
 27 24  1  0
 27 28  1  0
 28 26  2  0
 29 30  1  0
 30 31  2  0
 32 35  1  0
 32 31  1  0
 33 32  2  0
 34 33  1  0
 34 29  2  0
 35 36  1  0
 36 37  1  0
 37 38  2  0
 39 38  1  0
 39 43  1  0
 40 39  2  0
 41 36  2  0
 41 40  1  0
 42 41  1  0
 44 45  1  0
 45 48  1  0
 45 47  1  0
 46 44  2  0
 49 50  1  0
 49 24  1  0
 51 49  1  0
 53 52  1  0
 54 65  2  0
 55 53  1  0
 55 60  1  0
 56 64  1  0
 56 66  1  0
 57 63  1  0
 57 59  1  0
 58 64  1  0
 59 58  1  0
 60 59  2  0
 61 62  1  0
 61 55  2  0
 62 57  2  0
 63 56  1  0
 64 54  1  0
 66 68  2  0
 67 66  1  0
 69 67  1  0
 70 79  2  0
 70 75  1  0
 71 67  1  0
 71 75  1  0
 72 71  1  0
 73 74  1  0
 73 72  1  0
 74 70  1  0
 75 76  2  0
 76 77  1  0
 78 77  2  0
 79 78  1  0
 80 54  1  0
 80 81  1  0
 80 90  1  0
 81 84  1  0
 82 86  1  0
 82 81  1  0
 83 82  2  0
 86 85  1  0
 88 86  1  0
 88 89  1  0
 88 87  1  0
 90 93  1  1
 90 91  1  0
 92 90  1  0
M  ISO  4  15 100  16 100  52 101  53 101
M  END
>  <TORSDO>  (32) 
F 23

>  <SCORE>  (32) 
-12.733

>  <name>  (32) 
31

>  <ligand_id>  (32) 
31

>  <original_smiles>  (32) 
[H]c1c([H])c([H])c2c(c1[H])C([H])([H])C([H])([H])C([H])([H])C2([H])N([H])C(=O)C1([H])N(C(=O)C([H])(N([H])C(=O)C([H])(N([H])C([H])([H])[H])C([H])([H])[H])C(C([H])([H])[H])(C([H])([H])[H])C([H])([H])[H])C([H])([H])c2c([H])c(OC([H])([H])c3snc(C([H])([H])[N+]([H])([H])C([H])(C([H])([H])[H])C([H])([H])C([H])([H])C([H])([H])C(=O)N4C([H])([H])C([H])([H])C([H])([H])C([H])(n5nc(-c6c([H])c([H])c(Oc7c([H])c([H])c(F)c([H])c7F)c([H])c6[H])c(C(=O)N([H])[H])c5N([H])[H])C4([H])[H])c3C([H])([H])[H])c([H])c([H])c2C1([H])[H]

>  <smiles>  (32) 
[H]c1c([H])c([H])c2c(c1[H])C([H])([H])C([H])([H])C([H])([H])C2([H])N([H])C(=O)C1([H])N(C(=O)C([H])(N([H])C(=O)C([H])(N([H])C([H])([H])[H])C([H])([H])[H])C(C([H])([H])[H])(C([H])([H])[H])C([H])([H])[H])C([H])([H])c2c([H])c(OC([H])([H])c3snc(C([H])([H])[N+]([H])([H])C([H])(C([H])([H])[H])C([H])([H])C([H])([H])C([H])([H])C(=O)N4C([H])([H])C([H])([H])C([H])([H])C([H])(n5nc(-c6c([H])c([H])c(Oc7c([H])c([H])c(F)c([H])c7F)c([H])c6[H])c(C(=O)N([H])[H])c5N([H])[H])C4([H])[H])c3C([H])([H])[H])c([H])c([H])c2C1([H])[H]

$$$$
32:0:0
     RDKit          3D

 93101  0  0  1  0  0  0  0  0999 V2000
  -30.9370  -21.9590   21.8270 C   0  0  0  0  0  3  0  0  0  0  0  0
  -30.1760  -20.8110   21.5610 C   0  0  0  0  0  3  0  0  0  0  0  0
  -30.3860  -23.2300   21.6020 C   0  0  0  0  0  3  0  0  0  0  0  0
  -28.8610  -20.9140   21.0540 C   0  0  0  0  0  0  0  0  0  0  0  0
  -29.0640  -23.3790   21.1350 C   0  0  0  0  0  0  0  0  0  0  0  0
  -28.2860  -22.2120   20.8760 C   0  0  0  0  0  0  0  0  0  0  0  0
  -26.8240  -22.3830   20.4640 C   0  0  0  0  0  1  0  0  0  0  0  0
  -28.0670  -19.6320   20.7470 C   0  0  0  0  0  2  0  0  0  0  0  0
  -28.8190  -18.2640   20.7500 C   0  0  0  0  0  2  0  0  0  0  0  0
  -29.3490  -18.6550   18.3350 C   0  0  0  0  0  1  0  0  0  0  0  0
  -29.7570  -18.0010   19.6110 N   0  0  2  0  0  4  0  0  0  0  0  0
  -30.6410  -18.4250   19.8480 H   0  0  0  0  0  0  0  0  0  0  0  0
  -30.0100  -16.5440   19.3810 C   0  0  0  0  0  2  0  0  0  0  0  0
  -30.9330  -15.8100   20.3920 C   0  0  0  0  0  2  0  0  0  0  0  0
  -31.4890  -14.4790   19.8210 C   0  0  0  0  0  0  0  0  0  0  0  0
  -31.0980  -12.1440   19.0850 C   0  0  0  0  0  2  0  0  0  0  0  0
  -30.1480  -12.1270   17.8700 C   0  0  0  0  0  2  0  0  0  0  0  0
  -28.6790  -12.1100   18.3350 C   0  0  0  0  0  2  0  0  0  0  0  0
  -28.3800  -13.2010   19.3910 C   0  0  0  0  0  3  0  0  0  0  0  0
  -29.4410  -13.1920   20.5170 C   0  0  0  0  0  2  0  0  0  0  0  0
  -30.7710  -13.3250   19.9030 N   0  0  0  0  0  0  0  0  0  0  0  0
  -32.5750  -14.5250   19.2330 O   0  0  0  0  0  0  0  0  0  0  0  0
  -26.1040  -14.0840   20.2040 C   0  0  0  0  0  0  0  0  0  0  0  0
  -24.9720  -13.4360   20.6270 C   0  0  0  0  0  0  0  0  0  0  0  0
  -25.2710  -12.0410   20.5690 C   0  0  0  0  0  0  0  0  0  0  0  0
  -27.0270  -13.0860   19.9240 N   0  0  0  0  0  0  0  0  0  0  0  0
  -26.5320  -11.8530   20.2020 N   0  0  0  0  0  0  0  0  0  0  0  0
  -24.4120  -10.8690   20.7810 C   0  0  0  0  0  0  0  0  0  0  0  0
  -24.7660   -9.8560   21.6980 C   0  0  0  0  0  3  0  0  0  0  0  0
  -23.9180   -8.7460   21.8990 C   0  0  0  0  0  3  0  0  0  0  0  0
  -22.7040   -8.6410   21.1810 C   0  0  0  0  0  0  0  0  0  0  0  0
  -22.3700   -9.6390   20.2480 C   0  0  0  0  0  3  0  0  0  0  0  0
  -23.2140  -10.7440   20.0510 C   0  0  0  0  0  3  0  0  0  0  0  0
  -21.8290   -7.5850   21.2950 O   0  0  0  0  0  0  0  0  0  0  0  0
  -21.7190   -6.8630   22.4550 C   0  0  0  0  0  0  0  0  0  0  0  0
  -21.3970   -7.4740   23.6870 C   0  0  0  0  0  3  0  0  0  0  0  0
  -21.2270   -6.6840   24.8420 C   0  0  0  0  0  3  0  0  0  0  0  0
  -21.3660   -5.2850   24.7660 C   0  0  0  0  0  0  0  0  0  0  0  0
  -21.6830   -4.6740   23.5400 C   0  0  0  0  0  3  0  0  0  0  0  0
  -21.8530   -5.4610   22.3870 C   0  0  0  0  0  0  0  0  0  0  0  0
  -22.1360   -4.8640   21.2040 F   0  0  0  0  0  0  0  0  0  0  0  0
  -21.1990   -4.5260   25.8750 F   0  0  0  0  0  0  0  0  0  0  0  0
  -23.6540  -14.0710   20.9620 C   0  0  0  0  0  0  0  0  0  0  0  0
  -22.8960  -13.4680   21.8680 N   0  0  0  0  0  0  0  0  0  0  0  0
  -23.3130  -15.1370   20.4530 O   0  0  0  0  0  0  0  0  0  0  0  0
  -23.1910  -12.6130   22.3150 H   0  0  0  0  0  0  0  0  0  0  0  0
  -22.0100  -13.8790   22.1290 H   0  0  0  0  0  0  0  0  0  0  0  0
  -26.4080  -15.4280   20.0030 N   0  0  0  0  0  0  0  0  0  0  0  0
  -25.6410  -16.0890   20.0370 H   0  0  0  0  0  0  0  0  0  0  0  0
  -27.1060  -15.6950   19.3240 H   0  0  0  0  0  0  0  0  0  0  0  0
  -28.5230  -24.8170   21.0060 C   0  0  0  0  0  2  0  0  0  0  0  0
  -29.0110  -25.5790   19.7470 C   0  0  0  0  0  2  0  0  0  0  0  0
  -28.8620  -27.0060   19.8660 O   0  0  0  0  0  0  0  0  0  0  0  0
  -24.5920  -31.6780   23.0810 C   0  0  0  0  0  0  0  0  0  0  0  0
  -27.6130  -27.5950   19.8630 C   0  0  0  0  0  0  0  0  0  0  0  0
  -23.5220  -30.2830   21.3380 C   0  0  0  0  0  3  0  0  0  0  0  0
  -25.1110  -28.9240   19.8770 C   0  0  0  0  0  0  0  0  0  0  0  0
  -26.0170  -30.8320   21.2180 C   0  0  0  0  0  2  0  0  0  0  0  0
  -26.2130  -29.5030   20.5150 C   0  0  0  0  0  0  0  0  0  0  0  0
  -27.4650  -28.8490   20.4990 C   0  0  0  0  0  3  0  0  0  0  0  0
  -26.4900  -27.0250   19.2210 C   0  0  0  0  0  3  0  0  0  0  0  0
  -25.2450  -27.6840   19.2260 C   0  0  0  0  0  3  0  0  0  0  0  0
  -23.8070  -29.6880   19.9320 C   0  0  0  0  0  2  0  0  0  0  0  0
  -24.7260  -30.9450   21.9380 N   0  0  0  0  0  0  0  0  0  0  0  0
  -23.4850  -31.8430   23.6100 O   0  0  0  0  0  0  0  0  0  0  0  0
  -22.9280  -29.1710   22.2310 C   0  0  0  0  0  0  0  0  0  0  0  0
  -21.6130  -28.9350   22.0970 N   0  0  0  0  0  0  0  0  0  0  0  0
  -23.6460  -28.5250   23.0000 O   0  0  0  0  0  0  0  0  0  0  0  0
  -21.0920  -29.5130   21.4510 H   0  0  0  0  0  0  0  0  0  0  0  0
  -18.2930  -27.5840   22.5590 C   0  0  0  0  0  0  0  0  0  0  0  0
  -20.8460  -27.9090   22.8030 C   0  0  0  0  0  3  0  0  0  0  0  0
  -20.9840  -26.5340   22.1070 C   0  0  0  0  0  2  0  0  0  0  0  0
  -19.8720  -26.2580   21.0920 C   0  0  0  0  0  2  0  0  0  0  0  0
  -18.5010  -26.3020   21.7730 C   0  0  0  0  0  2  0  0  0  0  0  0
  -19.3950  -28.3470   23.0310 C   0  0  0  0  0  0  0  0  0  0  0  0
  -19.1480  -29.5500   23.7270 C   0  0  0  0  0  3  0  0  0  0  0  0
  -17.8310  -29.9910   23.9580 C   0  0  0  0  0  3  0  0  0  0  0  0
  -16.7450  -29.2230   23.5040 C   0  0  0  0  0  3  0  0  0  0  0  0
  -16.9760  -28.0210   22.8110 C   0  0  0  0  0  3  0  0  0  0  0  0
  -25.8190  -32.3630   23.7630 C   0  0  0  0  0  3  0  0  0  0  0  0
  -25.4170  -33.7280   24.1250 N   0  0  0  0  0  0  0  0  0  0  0  0
  -25.7100  -34.8230   23.4110 C   0  0  0  0  0  0  0  0  0  0  0  0
  -26.4190  -34.7920   22.4010 O   0  0  0  0  0  0  0  0  0  0  0  0
  -24.7890  -33.8200   24.9100 H   0  0  0  0  0  0  0  0  0  0  0  0
  -23.8850  -36.5150   23.0570 C   0  0  0  0  0  1  0  0  0  0  0  0
  -25.1250  -36.1630   23.8940 C   0  0  0  0  0  3  0  0  0  0  0  0
  -27.1780  -37.1490   24.8100 C   0  0  0  0  0  1  0  0  0  0  0  0
  -26.0930  -37.2800   23.8420 N   0  0  0  0  0  0  0  0  0  0  0  0
  -25.6270  -38.1680   24.0060 H   0  0  0  0  0  0  0  0  0  0  0  0
  -26.3440  -31.5800   25.0300 C   0  0  1  0  0  0  0  0  0  0  0  0
  -25.2370  -31.2470   26.0560 C   0  0  0  0  0  1  0  0  0  0  0  0
  -27.0160  -30.2520   24.6100 C   0  0  0  0  0  1  0  0  0  0  0  0
  -27.4280  -32.4160   25.7500 C   0  0  0  0  0  1  0  0  0  0  0  0
  2  1  2  0
  3  1  1  0
  4  2  1  0
  5  3  2  0
  6  4  2  0
  6  5  1  0
  7  6  1  0
  8  9  1  0
  8  4  1  0
 10 11  1  0
 11 12  1  1
 11  9  1  0
 13 11  1  0
 13 14  1  0
 15 21  1  0
 15 14  1  0
 16 21  1  0
 17 18  1  0
 17 16  1  0
 19 18  1  0
 19 26  1  0
 19 20  1  0
 21 20  1  0
 22 15  2  0
 23 24  2  0
 24 43  1  0
 25 24  1  0
 25 28  1  0
 26 27  1  0
 26 23  1  0
 27 25  2  0
 28 29  1  0
 29 30  2  0
 31 34  1  0
 31 30  1  0
 32 31  2  0
 33 32  1  0
 33 28  2  0
 34 35  1  0
 35 36  1  0
 36 37  2  0
 38 37  1  0
 38 42  1  0
 39 38  2  0
 40 35  2  0
 40 39  1  0
 41 40  1  0
 43 44  1  0
 44 47  1  0
 44 46  1  0
 45 43  2  0
 48 49  1  0
 48 23  1  0
 50 48  1  0
 51  5  1  0
 52 53  1  0
 52 51  1  0
 54 65  2  0
 55 53  1  0
 55 60  1  0
 56 64  1  0
 56 66  1  0
 57 63  1  0
 57 59  1  0
 58 64  1  0
 59 58  1  0
 60 59  2  0
 61 62  1  0
 61 55  2  0
 62 57  2  0
 63 56  1  0
 64 54  1  0
 66 68  2  0
 67 66  1  0
 69 67  1  0
 70 79  2  0
 70 75  1  0
 71 67  1  0
 71 75  1  0
 72 71  1  0
 73 74  1  0
 73 72  1  0
 74 70  1  0
 75 76  2  0
 76 77  1  0
 78 77  2  0
 79 78  1  0
 80 54  1  0
 80 81  1  0
 80 90  1  0
 81 84  1  0
 82 86  1  0
 82 81  1  0
 83 82  2  0
 86 85  1  0
 88 86  1  0
 88 89  1  0
 88 87  1  0
 90 93  1  1
 90 91  1  0
 92 90  1  0
M  ISO  4  14 100  15 100  52 101  53 101
M  END
>  <TORSDO>  (33) 
F 23

>  <SCORE>  (33) 
-11.624

>  <name>  (33) 
32

>  <ligand_id>  (33) 
32

>  <original_smiles>  (33) 
[H]c1c([H])c([H])c2c(c1[H])C([H])([H])C([H])([H])C([H])([H])C2([H])N([H])C(=O)C1([H])N(C(=O)C([H])(N([H])C(=O)C([H])(N([H])C([H])([H])[H])C([H])([H])[H])C(C([H])([H])[H])(C([H])([H])[H])C([H])([H])[H])C([H])([H])c2c([H])c(OC([H])([H])C([H])([H])c3c([H])c([H])c([H])c(C([H])([H])C([H])([H])[N+]([H])(C([H])([H])[H])C([H])([H])C([H])([H])C(=O)N4C([H])([H])C([H])([H])C([H])([H])C([H])(n5nc(-c6c([H])c([H])c(Oc7c([H])c([H])c(F)c([H])c7F)c([H])c6[H])c(C(=O)N([H])[H])c5N([H])[H])C4([H])[H])c3C([H])([H])[H])c([H])c([H])c2C1([H])[H]

>  <smiles>  (33) 
[H]c1c([H])c([H])c2c(c1[H])C([H])([H])C([H])([H])C([H])([H])C2([H])N([H])C(=O)C1([H])N(C(=O)C([H])(N([H])C(=O)C([H])(N([H])C([H])([H])[H])C([H])([H])[H])C(C([H])([H])[H])(C([H])([H])[H])C([H])([H])[H])C([H])([H])c2c([H])c(OC([H])([H])C([H])([H])c3c([H])c([H])c([H])c(C([H])([H])C([H])([H])[N+]([H])(C([H])([H])[H])C([H])([H])C([H])([H])C(=O)N4C([H])([H])C([H])([H])C([H])([H])C([H])(n5nc(-c6c([H])c([H])c(Oc7c([H])c([H])c(F)c([H])c7F)c([H])c6[H])c(C(=O)N([H])[H])c5N([H])[H])C4([H])[H])c3C([H])([H])[H])c([H])c([H])c2C1([H])[H]

$$$$
33:0:0
     RDKit          3D

 90 99  0  0  1  0  0  0  0  0999 V2000
  -31.1010  -22.2090   19.6000 C   0  0  0  0  0  0  0  0  0  0  0  0
  -30.8020  -20.8430   20.1910 C   0  0  0  0  0  2  0  0  0  0  0  0
  -29.6560  -18.7600   18.0350 C   0  0  0  0  0  2  0  0  0  0  0  0
  -29.0370  -17.4360   18.5620 C   0  0  0  0  0  2  0  0  0  0  0  0
  -28.9830  -20.0770   18.5300 C   0  0  0  0  0  2  0  0  0  0  0  0
  -29.2120  -18.8540   20.7450 C   0  0  0  0  0  2  0  0  0  0  0  0
  -29.3400  -17.1240   20.0520 C   0  0  0  0  0  3  0  0  0  0  0  0
  -28.7580  -22.4070   19.8990 C   0  0  0  0  0  3  0  0  0  0  0  0
  -29.2970  -20.5520   19.9920 C   0  0  1  0  0  0  0  0  0  0  0  0
  -30.0150  -22.9450   19.4160 N   0  0  0  0  0  0  0  0  0  0  0  0
  -32.2430  -22.5750   19.3210 O   0  0  0  0  0  0  0  0  0  0  0  0
  -30.0570  -23.8740   19.0190 H   0  0  0  0  0  0  0  0  0  0  0  0
  -30.2500  -15.5280   20.1660 C   0  0  0  0  0  0  0  0  0  0  0  0
  -30.3550  -13.0100   19.3590 C   0  0  0  0  0  2  0  0  0  0  0  0
  -29.4430  -12.7050   18.1380 C   0  0  0  0  0  2  0  0  0  0  0  0
  -28.0010  -12.3970   18.5760 C   0  0  0  0  0  2  0  0  0  0  0  0
  -27.5240  -13.3750   19.6750 C   0  0  0  0  0  3  0  0  0  0  0  0
  -28.5630  -13.5970   20.7890 C   0  0  0  0  0  2  0  0  0  0  0  0
  -29.7690  -14.1630   20.1640 N   0  0  0  0  0  0  0  0  0  0  0  0
  -31.4820  -15.5110   19.9910 O   0  0  0  0  0  0  0  0  0  0  0  0
  -25.1750  -13.9170   20.4750 C   0  0  0  0  0  0  0  0  0  0  0  0
  -24.1220  -13.1370   20.8600 C   0  0  0  0  0  0  0  0  0  0  0  0
  -24.5950  -11.7870   20.8300 C   0  0  0  0  0  0  0  0  0  0  0  0
  -26.2140  -13.0430   20.2110 N   0  0  0  0  0  0  0  0  0  0  0  0
  -25.8820  -11.7570   20.4980 N   0  0  0  0  0  0  0  0  0  0  0  0
  -23.8710  -10.5240   21.0310 C   0  0  0  0  0  0  0  0  0  0  0  0
  -24.3100   -9.5570   21.9630 C   0  0  0  0  0  3  0  0  0  0  0  0
  -23.5810   -8.3610   22.1490 C   0  0  0  0  0  3  0  0  0  0  0  0
  -22.3990   -8.1280   21.4060 C   0  0  0  0  0  0  0  0  0  0  0  0
  -21.9820   -9.0830   20.4630 C   0  0  0  0  0  3  0  0  0  0  0  0
  -22.7110  -10.2690   20.2750 C   0  0  0  0  0  3  0  0  0  0  0  0
  -21.6380   -6.9870   21.5070 O   0  0  0  0  0  0  0  0  0  0  0  0
  -21.6030   -6.2450   22.6600 C   0  0  0  0  0  0  0  0  0  0  0  0
  -21.1850   -6.7980   23.8900 C   0  0  0  0  0  3  0  0  0  0  0  0
  -21.0960   -5.9810   25.0360 C   0  0  0  0  0  3  0  0  0  0  0  0
  -21.4120   -4.6120   24.9500 C   0  0  0  0  0  0  0  0  0  0  0  0
  -21.8190   -4.0570   23.7250 C   0  0  0  0  0  3  0  0  0  0  0  0
  -21.9100   -4.8720   22.5810 C   0  0  0  0  0  0  0  0  0  0  0  0
  -22.2850   -4.3270   21.4000 F   0  0  0  0  0  0  0  0  0  0  0  0
  -21.3170   -3.8260   26.0490 F   0  0  0  0  0  0  0  0  0  0  0  0
  -22.7270  -13.6110   21.1380 C   0  0  0  0  0  0  0  0  0  0  0  0
  -22.0070  -12.9150   22.0110 N   0  0  0  0  0  0  0  0  0  0  0  0
  -22.2830  -14.6340   20.6180 O   0  0  0  0  0  0  0  0  0  0  0  0
  -22.3840  -12.0940   22.4590 H   0  0  0  0  0  0  0  0  0  0  0  0
  -21.0670  -13.2060   22.2320 H   0  0  0  0  0  0  0  0  0  0  0  0
  -25.3380  -15.2870   20.2930 N   0  0  0  0  0  0  0  0  0  0  0  0
  -24.5780  -15.9490   20.4070 H   0  0  0  0  0  0  0  0  0  0  0  0
  -26.1880  -15.7150   19.9520 H   0  0  0  0  0  0  0  0  0  0  0  0
  -28.0180  -23.9890   20.5790 C   0  0  0  0  0  2  0  0  0  0  0  0
  -28.1890  -25.6790   20.3200 O   0  0  0  0  0  0  0  0  0  0  0  0
  -24.6400  -31.8590   23.1830 C   0  0  0  0  0  0  0  0  0  0  0  0
  -27.1940  -26.8330   20.2830 C   0  0  0  0  0  0  0  0  0  0  0  0
  -23.4670  -30.4430   21.5500 C   0  0  0  0  0  3  0  0  0  0  0  0
  -24.9280  -28.8030   20.1620 C   0  0  0  0  0  0  0  0  0  0  0  0
  -26.0400  -30.6180   21.4380 C   0  0  0  0  0  2  0  0  0  0  0  0
  -26.1110  -29.1880   20.8030 C   0  0  0  0  0  0  0  0  0  0  0  0
  -27.2380  -28.2280   20.8290 C   0  0  0  0  0  3  0  0  0  0  0  0
  -25.9810  -26.6320   19.5830 C   0  0  0  0  0  3  0  0  0  0  0  0
  -24.8960  -27.5520   19.5260 C   0  0  0  0  0  3  0  0  0  0  0  0
  -23.7180  -29.7430   20.1820 C   0  0  0  0  0  2  0  0  0  0  0  0
  -24.7390  -31.0050   22.1100 N   0  0  0  0  0  0  0  0  0  0  0  0
  -23.5440  -32.1550   23.6870 O   0  0  0  0  0  0  0  0  0  0  0  0
  -22.7560  -29.4630   22.5210 C   0  0  0  0  0  0  0  0  0  0  0  0
  -21.4230  -29.3120   22.3990 N   0  0  0  0  0  0  0  0  0  0  0  0
  -23.4120  -28.8380   23.3570 O   0  0  0  0  0  0  0  0  0  0  0  0
  -20.9450  -29.8680   21.7050 H   0  0  0  0  0  0  0  0  0  0  0  0
  -18.0300  -28.1220   22.9160 C   0  0  0  0  0  0  0  0  0  0  0  0
  -20.5920  -28.3820   23.1730 C   0  0  0  0  0  3  0  0  0  0  0  0
  -20.6870  -26.9470   22.6030 C   0  0  0  0  0  2  0  0  0  0  0  0
  -19.5810  -26.6260   21.5920 C   0  0  0  0  0  2  0  0  0  0  0  0
  -18.2020  -26.7730   22.2380 C   0  0  0  0  0  2  0  0  0  0  0  0
  -19.1530  -28.8840   23.3410 C   0  0  0  0  0  0  0  0  0  0  0  0
  -18.9350  -30.1430   23.9410 C   0  0  0  0  0  3  0  0  0  0  0  0
  -17.6310  -30.6420   24.1180 C   0  0  0  0  0  3  0  0  0  0  0  0
  -16.5230  -29.8790   23.7080 C   0  0  0  0  0  3  0  0  0  0  0  0
  -16.7250  -28.6200   23.1130 C   0  0  0  0  0  3  0  0  0  0  0  0
  -25.9010  -32.5160   23.8250 C   0  0  0  0  0  3  0  0  0  0  0  0
  -25.5700  -33.9150   24.1530 N   0  0  0  0  0  0  0  0  0  0  0  0
  -25.9030  -34.9800   23.4110 C   0  0  0  0  0  0  0  0  0  0  0  0
  -26.5780  -34.8890   22.3840 O   0  0  0  0  0  0  0  0  0  0  0  0
  -24.9680  -34.0580   24.9520 H   0  0  0  0  0  0  0  0  0  0  0  0
  -24.1710  -36.7800   23.0720 C   0  0  0  0  0  1  0  0  0  0  0  0
  -25.4110  -36.3670   23.8800 C   0  0  0  0  0  3  0  0  0  0  0  0
  -27.5380  -37.2580   24.7260 C   0  0  0  0  0  1  0  0  0  0  0  0
  -26.4400  -37.4240   23.7770 N   0  0  0  0  0  0  0  0  0  0  0  0
  -26.0300  -38.3440   23.9250 H   0  0  0  0  0  0  0  0  0  0  0  0
  -26.3970  -31.7630   25.1220 C   0  0  1  0  0  0  0  0  0  0  0  0
  -25.2880  -31.5370   26.1760 C   0  0  0  0  0  1  0  0  0  0  0  0
  -26.9900  -30.3810   24.7670 C   0  0  0  0  0  1  0  0  0  0  0  0
  -27.5370  -32.5670   25.7910 C   0  0  0  0  0  1  0  0  0  0  0  0
  1  2  1  0
  3  5  1  0
  3  4  1  0
  4  7  1  0
  7 13  1  0
  7  6  1  0
  8  9  1  0
  8 49  1  0
  9  5  1  6
  9  2  1  0
  9  6  1  0
 10  1  1  0
 10  8  1  0
 11  1  2  0
 12 10  1  0
 14 19  1  0
 15 16  1  0
 15 14  1  0
 17 16  1  0
 17 24  1  0
 17 18  1  0
 19 13  1  0
 19 18  1  0
 20 13  2  0
 21 22  2  0
 22 41  1  0
 23 22  1  0
 23 26  1  0
 24 21  1  0
 24 25  1  0
 25 23  2  0
 26 27  1  0
 27 28  2  0
 29 32  1  0
 29 28  1  0
 30 29  2  0
 31 30  1  0
 31 26  2  0
 32 33  1  0
 33 34  1  0
 34 35  2  0
 36 35  1  0
 36 40  1  0
 37 36  2  0
 38 33  2  0
 38 37  1  0
 39 38  1  0
 41 42  1  0
 42 45  1  0
 42 44  1  0
 43 41  2  0
 46 47  1  0
 46 21  1  0
 48 46  1  0
 50 49  1  0
 51 62  2  0
 52 50  1  0
 52 57  1  0
 53 61  1  0
 53 63  1  0
 54 60  1  0
 54 56  1  0
 55 61  1  0
 56 57  2  0
 56 55  1  0
 58 52  2  0
 59 58  1  0
 59 54  2  0
 60 53  1  0
 61 51  1  0
 63 65  2  0
 64 63  1  0
 66 64  1  0
 67 76  2  0
 67 72  1  0
 68 64  1  0
 68 72  1  0
 69 68  1  0
 70 71  1  0
 70 69  1  0
 71 67  1  0
 72 73  2  0
 73 74  1  0
 75 74  2  0
 76 75  1  0
 77 51  1  0
 77 78  1  0
 77 87  1  0
 78 81  1  0
 79 83  1  0
 79 78  1  0
 80 79  2  0
 83 82  1  0
 85 83  1  0
 85 86  1  0
 85 84  1  0
 87 90  1  1
 87 88  1  0
 89 87  1  0
M  ISO  4   7 100  13 100  49 101  50 101
M  END
>  <TORSDO>  (34) 
F 17

>  <SCORE>  (34) 
-16.662

>  <name>  (34) 
33

>  <ligand_id>  (34) 
33

>  <original_smiles>  (34) 
[H]c1c([H])c([H])c2c(c1[H])C([H])([H])C([H])([H])C([H])([H])C2([H])N([H])C(=O)C1([H])N(C(=O)C([H])(N([H])C(=O)C([H])(N([H])C([H])([H])[H])C([H])([H])[H])C(C([H])([H])[H])(C([H])([H])[H])C([H])([H])[H])C([H])([H])c2c([H])c(OC([H])([H])C3([H])N([H])C(=O)C([H])([H])C34C([H])([H])C([H])([H])C([H])([H])C([H])(C(=O)N3C([H])([H])C([H])([H])C([H])([H])C([H])(n5nc(-c6c([H])c([H])c(Oc7c([H])c([H])c(F)c([H])c7F)c([H])c6[H])c(C(=O)N([H])[H])c5N([H])[H])C3([H])[H])C4([H])[H])c([H])c([H])c2C1([H])[H]

>  <smiles>  (34) 
[H]c1c([H])c([H])c2c(c1[H])C([H])([H])C([H])([H])C([H])([H])C2([H])N([H])C(=O)C1([H])N(C(=O)C([H])(N([H])C(=O)C([H])(N([H])C([H])([H])[H])C([H])([H])[H])C(C([H])([H])[H])(C([H])([H])[H])C([H])([H])[H])C([H])([H])c2c([H])c(OC([H])([H])C3([H])N([H])C(=O)C([H])([H])C34C([H])([H])C([H])([H])C([H])([H])C([H])(C(=O)N3C([H])([H])C([H])([H])C([H])([H])C([H])(n5nc(-c6c([H])c([H])c(Oc7c([H])c([H])c(F)c([H])c7F)c([H])c6[H])c(C(=O)N([H])[H])c5N([H])[H])C3([H])[H])C4([H])[H])c([H])c([H])c2C1([H])[H]

$$$$
34:0:0
     RDKit          3D

 91100  0  0  1  0  0  0  0  0999 V2000
  -29.0540  -22.0310   20.4650 N   0  0  0  0  0  4  0  0  0  0  0  0
  -28.0890  -21.7910   20.6240 H   0  0  0  0  0  0  0  0  0  0  0  0
  -29.4800  -22.0670   21.3790 H   0  0  0  0  0  0  0  0  0  0  0  0
  -31.0430  -21.2270   19.1040 C   0  0  0  0  0  1  0  0  0  0  0  0
  -29.6880  -20.8030   19.7010 C   0  0  0  0  0  3  0  0  0  0  0  0
  -28.7510  -17.1820   20.9550 C   0  0  0  0  0  2  0  0  0  0  0  0
  -28.6270  -18.7110   21.0590 C   0  0  0  0  0  2  0  0  0  0  0  0
  -29.3100  -16.9520   19.5730 C   0  0  0  0  0  3  0  0  0  0  0  0
  -30.3490  -18.0480   19.3760 C   0  0  0  0  0  3  0  0  0  0  0  0
  -29.8850  -19.2650   20.3690 C   0  0  0  0  0  3  0  0  0  0  0  0
  -30.6560  -16.4080   19.1790 C   0  0  2  0  0  0  0  0  0  0  0  0
  -31.0010  -16.1680   17.7020 C   0  0  0  0  0  1  0  0  0  0  0  0
  -31.3990  -15.1780   19.9540 C   0  0  0  0  0  0  0  0  0  0  0  0
  -31.2250  -12.7510   19.2820 C   0  0  0  0  0  2  0  0  0  0  0  0
  -30.3000  -12.5710   18.0540 C   0  0  0  0  0  2  0  0  0  0  0  0
  -28.8140  -12.5240   18.4600 C   0  0  0  0  0  2  0  0  0  0  0  0
  -28.4270  -13.5640   19.5450 C   0  0  0  0  0  3  0  0  0  0  0  0
  -29.4730  -13.6480   20.6720 C   0  0  0  0  0  2  0  0  0  0  0  0
  -30.7720  -13.9370   20.0540 N   0  0  0  0  0  0  0  0  0  0  0  0
  -32.6340  -15.1730   19.9520 O   0  0  0  0  0  0  0  0  0  0  0  0
  -26.0900  -14.2890   20.3000 C   0  0  0  0  0  0  0  0  0  0  0  0
  -24.9760  -13.5780   20.6550 C   0  0  0  0  0  0  0  0  0  0  0  0
  -25.3550  -12.2010   20.6110 C   0  0  0  0  0  0  0  0  0  0  0  0
  -27.0760  -13.3490   20.0520 N   0  0  0  0  0  0  0  0  0  0  0  0
  -26.6430  -12.0880   20.3100 N   0  0  0  0  0  0  0  0  0  0  0  0
  -24.5500  -10.9850   20.7800 C   0  0  0  0  0  0  0  0  0  0  0  0
  -24.9000   -9.9940   21.7240 C   0  0  0  0  0  3  0  0  0  0  0  0
  -24.0980   -8.8420   21.8830 C   0  0  0  0  0  3  0  0  0  0  0  0
  -22.9330   -8.6750   21.0980 C   0  0  0  0  0  0  0  0  0  0  0  0
  -22.6030   -9.6540   20.1430 C   0  0  0  0  0  3  0  0  0  0  0  0
  -23.4050  -10.7960   19.9820 C   0  0  0  0  0  3  0  0  0  0  0  0
  -22.1090   -7.5780   21.1660 O   0  0  0  0  0  0  0  0  0  0  0  0
  -21.9450   -6.8720   22.3300 C   0  0  0  0  0  0  0  0  0  0  0  0
  -21.4750   -7.4850   23.5130 C   0  0  0  0  0  3  0  0  0  0  0  0
  -21.2550   -6.7080   24.6670 C   0  0  0  0  0  3  0  0  0  0  0  0
  -21.4940   -5.3220   24.6410 C   0  0  0  0  0  0  0  0  0  0  0  0
  -21.9570   -4.7090   23.4630 C   0  0  0  0  0  3  0  0  0  0  0  0
  -22.1780   -5.4830   22.3100 C   0  0  0  0  0  0  0  0  0  0  0  0
  -22.6040   -4.8850   21.1710 F   0  0  0  0  0  0  0  0  0  0  0  0
  -21.2760   -4.5740   25.7480 F   0  0  0  0  0  0  0  0  0  0  0  0
  -23.6100  -14.1390   20.9210 C   0  0  0  0  0  0  0  0  0  0  0  0
  -22.8380  -13.4880   21.7850 N   0  0  0  0  0  0  0  0  0  0  0  0
  -23.2380  -15.1900   20.4000 O   0  0  0  0  0  0  0  0  0  0  0  0
  -23.1540  -12.6370   22.2270 H   0  0  0  0  0  0  0  0  0  0  0  0
  -21.9200  -13.8450   22.0070 H   0  0  0  0  0  0  0  0  0  0  0  0
  -26.3380  -15.6480   20.1410 N   0  0  0  0  0  0  0  0  0  0  0  0
  -25.6170  -16.3490   20.2700 H   0  0  0  0  0  0  0  0  0  0  0  0
  -27.2260  -16.0370   19.8580 H   0  0  0  0  0  0  0  0  0  0  0  0
  -29.0800  -23.5060   19.8840 C   0  0  0  0  0  3  0  0  0  0  0  0
  -28.2140  -24.7700   20.5490 C   0  0  0  0  0  3  0  0  0  0  0  0
  -28.4220  -26.2780   20.2750 O   0  0  0  0  0  0  0  0  0  0  0  0
  -24.6090  -31.8420   23.1940 C   0  0  0  0  0  0  0  0  0  0  0  0
  -27.3270  -27.2010   20.2340 C   0  0  0  0  0  0  0  0  0  0  0  0
  -23.4640  -30.4310   21.5260 C   0  0  0  0  0  3  0  0  0  0  0  0
  -24.9670  -28.8780   20.1400 C   0  0  0  0  0  0  0  0  0  0  0  0
  -26.0130  -30.7450   21.4150 C   0  0  0  0  0  2  0  0  0  0  0  0
  -26.1230  -29.3550   20.7710 C   0  0  0  0  0  0  0  0  0  0  0  0
  -27.3070  -28.5350   20.7960 C   0  0  0  0  0  3  0  0  0  0  0  0
  -26.1470  -26.8110   19.5660 C   0  0  0  0  0  3  0  0  0  0  0  0
  -24.9900  -27.6180   19.5220 C   0  0  0  0  0  3  0  0  0  0  0  0
  -23.7250  -29.7540   20.1540 C   0  0  0  0  0  2  0  0  0  0  0  0
  -24.7140  -31.0270   22.1010 N   0  0  0  0  0  0  0  0  0  0  0  0
  -23.5080  -32.1110   23.6990 O   0  0  0  0  0  0  0  0  0  0  0  0
  -22.7800  -29.4140   22.4730 C   0  0  0  0  0  0  0  0  0  0  0  0
  -21.4570  -29.2270   22.3150 N   0  0  0  0  0  0  0  0  0  0  0  0
  -23.4420  -28.7950   23.3110 O   0  0  0  0  0  0  0  0  0  0  0  0
  -20.9810  -29.7780   21.6150 H   0  0  0  0  0  0  0  0  0  0  0  0
  -18.0820  -27.9820   22.7310 C   0  0  0  0  0  0  0  0  0  0  0  0
  -20.6290  -28.2800   23.0660 C   0  0  0  0  0  3  0  0  0  0  0  0
  -20.7660  -26.8480   22.4980 C   0  0  0  0  0  2  0  0  0  0  0  0
  -19.6960  -26.5080   21.4550 C   0  0  0  0  0  2  0  0  0  0  0  0
  -18.2960  -26.6340   22.0620 C   0  0  0  0  0  2  0  0  0  0  0  0
  -19.1780  -28.7610   23.1880 C   0  0  0  0  0  0  0  0  0  0  0  0
  -18.9240  -30.0210   23.7730 C   0  0  0  0  0  3  0  0  0  0  0  0
  -17.6090  -30.5020   23.9050 C   0  0  0  0  0  3  0  0  0  0  0  0
  -16.5270  -29.7200   23.4640 C   0  0  0  0  0  3  0  0  0  0  0  0
  -16.7640  -28.4620   22.8830 C   0  0  0  0  0  3  0  0  0  0  0  0
  -25.8650  -32.4920   23.8510 C   0  0  0  0  0  3  0  0  0  0  0  0
  -26.3470  -31.7370   25.1510 C   0  0  1  0  0  0  0  0  0  0  0  0
  -25.2220  -31.4960   26.1840 C   0  0  0  0  0  1  0  0  0  0  0  0
  -26.9580  -30.3630   24.7940 C   0  0  0  0  0  1  0  0  0  0  0  0
  -27.4650  -32.5500   25.8450 C   0  0  0  0  0  1  0  0  0  0  0  0
  -25.5330  -33.8910   24.1630 N   0  0  0  0  0  0  0  0  0  0  0  0
  -25.8800  -34.9450   23.4120 C   0  0  0  0  0  0  0  0  0  0  0  0
  -26.5790  -34.8420   22.4010 O   0  0  0  0  0  0  0  0  0  0  0  0
  -24.9150  -34.0440   24.9470 H   0  0  0  0  0  0  0  0  0  0  0  0
  -24.1440  -36.7220   23.0130 C   0  0  0  0  0  1  0  0  0  0  0  0
  -25.3720  -36.3320   23.8510 C   0  0  0  0  0  3  0  0  0  0  0  0
  -27.4810  -37.2440   24.7190 C   0  0  0  0  0  1  0  0  0  0  0  0
  -26.3980  -37.3940   23.7520 N   0  0  0  0  0  0  0  0  0  0  0  0
  -25.9800  -38.3120   23.8820 H   0  0  0  0  0  0  0  0  0  0  0  0
  1  2  1  0
  1  3  1  0
  5  4  1  0
  5 10  1  0
  5  1  1  0
  6  7  1  0
  8  6  1  0
  9  8  1  0
  9 10  1  0
 10  7  1  0
 11  9  1  0
 11  8  1  0
 11 13  1  0
 11 12  1  6
 13 19  1  0
 14 19  1  0
 15 16  1  0
 15 14  1  0
 16 17  1  0
 17 24  1  0
 17 18  1  0
 19 18  1  0
 20 13  2  0
 21 22  2  0
 22 41  1  0
 23 22  1  0
 23 26  1  0
 24 21  1  0
 24 25  1  0
 25 23  2  0
 26 27  1  0
 27 28  2  0
 29 32  1  0
 29 28  1  0
 30 29  2  0
 31 30  1  0
 31 26  2  0
 32 33  1  0
 33 34  1  0
 34 35  2  0
 36 35  1  0
 36 40  1  0
 37 36  2  0
 38 33  2  0
 38 37  1  0
 39 38  1  0
 41 42  1  0
 42 45  1  0
 42 44  1  0
 43 41  2  0
 46 47  1  0
 46 21  1  0
 48 46  1  0
 49  1  1  0
 49 50  2  0
 51 50  1  0
 52 63  2  0
 52 78  1  0
 53 51  1  0
 53 58  1  0
 54 62  1  0
 54 64  1  0
 55 61  1  0
 55 57  1  0
 56 62  1  0
 57 58  2  0
 57 56  1  0
 59 53  2  0
 60 59  1  0
 60 55  2  0
 61 54  1  0
 62 52  1  0
 64 66  2  0
 65 64  1  0
 65 69  1  0
 67 65  1  0
 68 77  2  0
 68 73  1  0
 69 73  1  0
 70 69  1  0
 71 72  1  0
 71 70  1  0
 72 68  1  0
 73 74  2  0
 74 75  1  0
 76 75  2  0
 77 76  1  0
 78 83  1  0
 78 79  1  0
 79 82  1  1
 79 80  1  0
 81 79  1  0
 83 86  1  0
 84 88  1  0
 84 83  1  0
 85 84  2  0
 87 88  1  0
 90 88  1  0
 90 91  1  0
 90 89  1  0
M  ISO  4  11 100  13 100  50 101  51 101
M  END
>  <TORSDO>  (35) 
F 20

>  <SCORE>  (35) 
-12.157

>  <name>  (35) 
34

>  <ligand_id>  (35) 
34

>  <original_smiles>  (35) 
[H]c1c([H])c([H])c2c(c1[H])C([H])([H])C([H])([H])C([H])([H])C2([H])N([H])C(=O)C1([H])N(C(=O)C([H])(N([H])C(=O)C([H])(N([H])C([H])([H])[H])C([H])([H])[H])C(C([H])([H])[H])(C([H])([H])[H])C([H])([H])[H])C([H])([H])c2c([H])c(OC([H])([H])C([H])([H])[N+]([H])([H])C([H])(C([H])([H])[H])C3([H])C([H])([H])C([H])([H])C4([H])C3([H])C4(C(=O)N3C([H])([H])C([H])([H])C([H])([H])C([H])(n4nc(-c5c([H])c([H])c(Oc6c([H])c([H])c(F)c([H])c6F)c([H])c5[H])c(C(=O)N([H])[H])c4N([H])[H])C3([H])[H])C([H])([H])[H])c([H])c([H])c2C1([H])[H]

>  <smiles>  (35) 
[H]c1c([H])c([H])c2c(c1[H])C([H])([H])C([H])([H])C([H])([H])C2([H])N([H])C(=O)C1([H])N(C(=O)C([H])(N([H])C(=O)C([H])(N([H])C([H])([H])[H])C([H])([H])[H])C(C([H])([H])[H])(C([H])([H])[H])C([H])([H])[H])C([H])([H])c2c([H])c(OC([H])([H])C([H])([H])[N+]([H])([H])C([H])(C([H])([H])[H])C3([H])C([H])([H])C([H])([H])C4([H])C3([H])C4(C(=O)N3C([H])([H])C([H])([H])C([H])([H])C([H])(n4nc(-c5c([H])c([H])c(Oc6c([H])c([H])c(F)c([H])c6F)c([H])c5[H])c(C(=O)N([H])[H])c4N([H])[H])C3([H])[H])C([H])([H])[H])c([H])c([H])c2C1([H])[H]

$$$$
35:0:0
     RDKit          3D

 91 99  0  0  1  0  0  0  0  0999 V2000
  -27.4810  -22.3260   21.0990 C   0  0  0  0  0  3  0  0  0  0  0  0
  -29.0530  -24.0040   20.2770 C   0  0  0  0  0  3  0  0  0  0  0  0
  -26.9110  -24.7080   21.1400 C   0  0  0  0  0  3  0  0  0  0  0  0
  -28.7710  -22.6100   20.6060 C   0  0  0  0  0  0  0  0  0  0  0  0
  -26.5720  -23.3620   21.3720 C   0  0  0  0  0  0  0  0  0  0  0  0
  -28.1120  -25.0990   20.5020 C   0  0  0  0  0  0  0  0  0  0  0  0
  -25.2010  -23.0580   21.9280 C   0  0  0  0  0  1  0  0  0  0  0  0
  -29.8160  -21.4560   20.6380 C   0  0  0  0  0  0  0  0  0  0  0  0
  -29.4140  -20.1410   20.4950 N   0  0  0  0  0  0  0  0  0  0  0  0
  -30.9890  -21.7300   20.8800 O   0  0  0  0  0  0  0  0  0  0  0  0
  -28.4840  -20.0380   20.1200 H   0  0  0  0  0  0  0  0  0  0  0  0
  -29.9510  -18.8860   21.1710 C   0  0  0  0  0  2  0  0  0  0  0  0
  -30.2760  -17.5610   20.3160 C   0  0  0  0  0  3  0  0  0  0  0  0
  -30.0130  -16.1040   20.9700 C   0  0  0  0  0  3  0  0  0  0  0  0
  -30.6900  -14.8150   20.3280 C   0  0  0  0  0  0  0  0  0  0  0  0
  -30.4570  -12.6030   19.1970 C   0  0  0  0  0  2  0  0  0  0  0  0
  -29.4900  -12.7460   17.9990 C   0  0  0  0  0  2  0  0  0  0  0  0
  -28.0240  -12.5790   18.4420 C   0  0  0  0  0  2  0  0  0  0  0  0
  -27.6820  -13.4050   19.7100 C   0  0  0  0  0  3  0  0  0  0  0  0
  -28.7580  -13.2270   20.8030 C   0  0  0  0  0  2  0  0  0  0  0  0
  -30.0550  -13.5990   20.2160 N   0  0  0  0  0  0  0  0  0  0  0  0
  -31.8180  -14.9540   19.8460 O   0  0  0  0  0  0  0  0  0  0  0  0
  -25.2810  -13.9800   20.4320 C   0  0  0  0  0  0  0  0  0  0  0  0
  -24.2220  -13.1970   20.8100 C   0  0  0  0  0  0  0  0  0  0  0  0
  -24.6940  -11.8500   20.7760 C   0  0  0  0  0  0  0  0  0  0  0  0
  -26.3360  -13.1110   20.1980 N   0  0  0  0  0  0  0  0  0  0  0  0
  -25.9850  -11.8240   20.4600 N   0  0  0  0  0  0  0  0  0  0  0  0
  -23.9770  -10.5830   20.9740 C   0  0  0  0  0  0  0  0  0  0  0  0
  -24.4180   -9.6190   21.9080 C   0  0  0  0  0  3  0  0  0  0  0  0
  -23.6960   -8.4190   22.0950 C   0  0  0  0  0  3  0  0  0  0  0  0
  -22.5200   -8.1750   21.3470 C   0  0  0  0  0  0  0  0  0  0  0  0
  -22.0980   -9.1290   20.4050 C   0  0  0  0  0  3  0  0  0  0  0  0
  -22.8200  -10.3190   20.2170 C   0  0  0  0  0  3  0  0  0  0  0  0
  -21.7730   -7.0250   21.4400 O   0  0  0  0  0  0  0  0  0  0  0  0
  -21.7370   -6.2820   22.5920 C   0  0  0  0  0  0  0  0  0  0  0  0
  -21.3170   -6.8350   23.8220 C   0  0  0  0  0  3  0  0  0  0  0  0
  -21.2280   -6.0190   24.9670 C   0  0  0  0  0  3  0  0  0  0  0  0
  -21.5500   -4.6520   24.8850 C   0  0  0  0  0  0  0  0  0  0  0  0
  -21.9630   -4.0970   23.6600 C   0  0  0  0  0  3  0  0  0  0  0  0
  -22.0530   -4.9090   22.5170 C   0  0  0  0  0  0  0  0  0  0  0  0
  -22.4320   -4.3660   21.3350 F   0  0  0  0  0  0  0  0  0  0  0  0
  -21.4560   -3.8660   25.9830 F   0  0  0  0  0  0  0  0  0  0  0  0
  -22.8220  -13.6670   21.0890 C   0  0  0  0  0  0  0  0  0  0  0  0
  -22.1030  -12.9740   21.9650 N   0  0  0  0  0  0  0  0  0  0  0  0
  -22.3790  -14.6880   20.5650 O   0  0  0  0  0  0  0  0  0  0  0  0
  -22.4730  -12.1500   22.4130 H   0  0  0  0  0  0  0  0  0  0  0  0
  -21.1630  -13.2740   22.1890 H   0  0  0  0  0  0  0  0  0  0  0  0
  -25.4250  -15.3520   20.2490 N   0  0  0  0  0  0  0  0  0  0  0  0
  -24.6410  -15.9870   20.3520 H   0  0  0  0  0  0  0  0  0  0  0  0
  -26.2560  -15.8080   19.8940 H   0  0  0  0  0  0  0  0  0  0  0  0
  -28.3120  -26.4890   20.1720 O   0  0  0  0  0  0  0  0  0  0  0  0
  -24.6410  -31.9580   23.2550 C   0  0  0  0  0  0  0  0  0  0  0  0
  -27.2340  -27.4120   20.1180 C   0  0  0  0  0  0  0  0  0  0  0  0
  -23.4300  -30.5870   21.6000 C   0  0  0  0  0  3  0  0  0  0  0  0
  -24.8750  -29.0540   20.1380 C   0  0  0  0  0  0  0  0  0  0  0  0
  -25.9730  -30.8940   21.4130 C   0  0  0  0  0  2  0  0  0  0  0  0
  -26.0480  -29.5200   20.7500 C   0  0  0  0  0  0  0  0  0  0  0  0
  -27.2260  -28.7050   20.7420 C   0  0  0  0  0  3  0  0  0  0  0  0
  -26.0560  -27.0420   19.4310 C   0  0  0  0  0  3  0  0  0  0  0  0
  -24.8830  -27.8180   19.4710 C   0  0  0  0  0  3  0  0  0  0  0  0
  -23.6400  -29.9250   20.2070 C   0  0  0  0  0  2  0  0  0  0  0  0
  -24.7010  -31.1650   22.1450 N   0  0  0  0  0  0  0  0  0  0  0  0
  -23.5590  -32.2240   23.8000 O   0  0  0  0  0  0  0  0  0  0  0  0
  -22.7720  -29.5610   22.5530 C   0  0  0  0  0  0  0  0  0  0  0  0
  -21.4420  -29.4030   22.4500 N   0  0  0  0  0  0  0  0  0  0  0  0
  -23.4540  -28.9160   23.3520 O   0  0  0  0  0  0  0  0  0  0  0  0
  -20.9450  -30.0100   21.8080 H   0  0  0  0  0  0  0  0  0  0  0  0
  -18.0760  -28.1530   22.9010 C   0  0  0  0  0  0  0  0  0  0  0  0
  -20.6280  -28.4400   23.2010 C   0  0  0  0  0  3  0  0  0  0  0  0
  -20.7610  -27.0190   22.6050 C   0  0  0  0  0  2  0  0  0  0  0  0
  -19.6730  -26.7030   21.5730 C   0  0  0  0  0  2  0  0  0  0  0  0
  -18.2770  -26.8220   22.1920 C   0  0  0  0  0  2  0  0  0  0  0  0
  -19.1800  -28.9140   23.3650 C   0  0  0  0  0  0  0  0  0  0  0  0
  -18.9410  -30.1590   23.9890 C   0  0  0  0  0  3  0  0  0  0  0  0
  -17.6300  -30.6470   24.1420 C   0  0  0  0  0  3  0  0  0  0  0  0
  -16.5420  -29.8900   23.6760 C   0  0  0  0  0  3  0  0  0  0  0  0
  -16.7650  -28.6440   23.0680 C   0  0  0  0  0  3  0  0  0  0  0  0
  -25.9260  -32.5810   23.8810 C   0  0  0  0  0  3  0  0  0  0  0  0
  -26.4340  -31.8060   25.1590 C   0  0  1  0  0  0  0  0  0  0  0  0
  -25.3380  -31.5780   26.2270 C   0  0  0  0  0  1  0  0  0  0  0  0
  -27.0080  -30.4230   24.7700 C   0  0  0  0  0  1  0  0  0  0  0  0
  -27.5870  -32.5910   25.8240 C   0  0  0  0  0  1  0  0  0  0  0  0
  -25.6220  -33.9820   24.2160 N   0  0  0  0  0  0  0  0  0  0  0  0
  -25.9430  -35.0340   23.4490 C   0  0  0  0  0  0  0  0  0  0  0  0
  -26.5940  -34.9290   22.4060 O   0  0  0  0  0  0  0  0  0  0  0  0
  -25.0460  -34.1370   25.0300 H   0  0  0  0  0  0  0  0  0  0  0  0
  -24.2030  -36.8290   23.1390 C   0  0  0  0  0  1  0  0  0  0  0  0
  -25.4660  -36.4240   23.9150 C   0  0  0  0  0  3  0  0  0  0  0  0
  -27.6240  -37.3160   24.6840 C   0  0  0  0  0  1  0  0  0  0  0  0
  -26.4950  -37.4780   23.7690 N   0  0  0  0  0  0  0  0  0  0  0  0
  -26.0910  -38.3970   23.9260 H   0  0  0  0  0  0  0  0  0  0  0  0
  1  5  1  0
  2  6  2  0
  2  4  1  0
  3  5  2  0
  4  8  1  0
  4  1  2  0
  5  7  1  0
  6  3  1  0
  8 10  2  0
  9  8  1  0
  9 12  1  0
 11  9  1  0
 13 14  2  0
 13 12  1  0
 15 14  1  0
 16 21  1  0
 17 18  1  0
 17 16  1  0
 19 18  1  0
 19 26  1  0
 19 20  1  0
 21 15  1  0
 21 20  1  0
 22 15  2  0
 23 24  2  0
 24 43  1  0
 25 24  1  0
 25 28  1  0
 26 23  1  0
 26 27  1  0
 27 25  2  0
 28 29  1  0
 29 30  2  0
 31 34  1  0
 31 30  1  0
 32 31  2  0
 33 32  1  0
 33 28  2  0
 34 35  1  0
 35 36  1  0
 36 37  2  0
 38 37  1  0
 38 42  1  0
 39 38  2  0
 40 35  2  0
 40 39  1  0
 41 40  1  0
 43 44  1  0
 44 47  1  0
 44 46  1  0
 45 43  2  0
 48 49  1  0
 48 23  1  0
 50 48  1  0
 51  6  1  0
 52 63  2  0
 53 51  1  0
 53 58  1  0
 54 62  1  0
 54 64  1  0
 55 61  1  0
 55 57  1  0
 56 62  1  0
 57 56  1  0
 58 57  2  0
 59 60  1  0
 59 53  2  0
 60 55  2  0
 61 54  1  0
 62 52  1  0
 64 66  2  0
 65 64  1  0
 67 65  1  0
 68 77  2  0
 68 73  1  0
 69 65  1  0
 69 73  1  0
 70 69  1  0
 71 72  1  0
 71 70  1  0
 72 68  1  0
 73 74  2  0
 74 75  1  0
 76 75  2  0
 77 76  1  0
 78 52  1  0
 78 83  1  0
 78 79  1  0
 79 82  1  1
 79 80  1  0
 81 79  1  0
 83 86  1  0
 84 88  1  0
 84 83  1  0
 85 84  2  0
 88 87  1  0
 90 88  1  0
 90 91  1  0
 90 89  1  0
M  ISO  4   6 101  14 100  15 100  51 101
M  END
>  <TORSDO>  (36) 
F 20

>  <SCORE>  (36) 
-13.533

>  <name>  (36) 
35

>  <ligand_id>  (36) 
35

>  <original_smiles>  (36) 
[H]c1c([H])c([H])c2c(c1[H])C([H])([H])C([H])([H])C([H])([H])C2([H])N([H])C(=O)C1([H])N(C(=O)C([H])(N([H])C(=O)C([H])(N([H])C([H])([H])[H])C([H])([H])[H])C(C([H])([H])[H])(C([H])([H])[H])C([H])([H])[H])C([H])([H])c2c([H])c(Oc3c([H])c(C(=O)N([H])C([H])([H])C([H])([H])C([H])([H])C(=O)N4C([H])([H])C([H])([H])C([H])([H])C([H])(n5nc(-c6c([H])c([H])c(Oc7c([H])c([H])c(F)c([H])c7F)c([H])c6[H])c(C(=O)N([H])[H])c5N([H])[H])C4([H])[H])c([H])c(C([H])([H])[H])c3[H])c([H])c([H])c2C1([H])[H]

>  <smiles>  (36) 
[H]c1c([H])c([H])c2c(c1[H])C([H])([H])C([H])([H])C([H])([H])C2([H])N([H])C(=O)C1([H])N(C(=O)C([H])(N([H])C(=O)C([H])(N([H])C([H])([H])[H])C([H])([H])[H])C(C([H])([H])[H])(C([H])([H])[H])C([H])([H])[H])C([H])([H])c2c([H])c(Oc3c([H])c(C(=O)N([H])C([H])([H])C([H])([H])C([H])([H])C(=O)N4C([H])([H])C([H])([H])C([H])([H])C([H])(n5nc(-c6c([H])c([H])c(Oc7c([H])c([H])c(F)c([H])c7F)c([H])c6[H])c(C(=O)N([H])[H])c5N([H])[H])C4([H])[H])c([H])c(C([H])([H])[H])c3[H])c([H])c([H])c2C1([H])[H]

$$$$
36:0:0
     RDKit          3D

 96104  0  0  1  0  0  0  0  0999 V2000
  -26.9610  -20.9750   20.5910 C   0  0  0  0  0  3  0  0  0  0  0  0
  -29.6670  -21.3910   20.2220 C   0  0  0  0  0  3  0  0  0  0  0  0
  -27.4690  -22.2730   20.7680 C   0  0  0  0  0  0  0  0  0  0  0  0
  -27.7500  -19.8870   20.1600 C   0  0  0  0  0  0  0  0  0  0  0  0
  -28.8420  -22.5340   20.5370 C   0  0  0  0  0  0  0  0  0  0  0  0
  -29.1750  -20.0310   20.0760 C   0  0  0  0  0  0  0  0  0  0  0  0
  -26.4650  -23.3450   21.1800 C   0  0  0  0  0  1  0  0  0  0  0  0
  -25.7580  -18.8750   18.8480 C   0  0  0  0  0  1  0  0  0  0  0  0
  -26.9810  -18.6210   19.7680 C   0  0  0  0  0  2  0  0  0  0  0  0
  -29.4000  -23.9970   20.7510 C   0  0  0  0  0  2  0  0  0  0  0  0
  -28.8900  -25.1690   19.8110 C   0  0  0  0  0  2  0  0  0  0  0  0
  -28.8340  -26.5420   20.3720 O   0  0  0  0  0  0  0  0  0  0  0  0
  -24.8130  -31.7400   23.3260 C   0  0  0  0  0  0  0  0  0  0  0  0
  -27.6720  -27.3290   20.2900 C   0  0  0  0  0  0  0  0  0  0  0  0
  -23.7170  -30.3470   21.6090 C   0  0  0  0  0  3  0  0  0  0  0  0
  -25.2610  -28.8720   20.2230 C   0  0  0  0  0  0  0  0  0  0  0  0
  -26.2470  -30.7430   21.5340 C   0  0  0  0  0  2  0  0  0  0  0  0
  -26.3870  -29.3730   20.8830 C   0  0  0  0  0  0  0  0  0  0  0  0
  -27.5890  -28.6090   20.9190 C   0  0  0  0  0  3  0  0  0  0  0  0
  -26.5240  -26.8950   19.5860 C   0  0  0  0  0  3  0  0  0  0  0  0
  -25.3340  -27.6400   19.5620 C   0  0  0  0  0  3  0  0  0  0  0  0
  -24.0000  -29.7070   20.2260 C   0  0  0  0  0  2  0  0  0  0  0  0
  -24.9430  -30.9620   22.2140 N   0  0  0  0  0  0  0  0  0  0  0  0
  -23.7000  -31.9740   23.8250 O   0  0  0  0  0  0  0  0  0  0  0  0
  -23.0470  -29.2900   22.5230 C   0  0  0  0  0  0  0  0  0  0  0  0
  -21.7370  -29.0720   22.3310 N   0  0  0  0  0  0  0  0  0  0  0  0
  -23.7070  -28.6730   23.3620 O   0  0  0  0  0  0  0  0  0  0  0  0
  -21.2580  -29.6280   21.6370 H   0  0  0  0  0  0  0  0  0  0  0  0
  -18.3810  -27.7730   22.6710 C   0  0  0  0  0  0  0  0  0  0  0  0
  -20.9190  -28.0970   23.0500 C   0  0  0  0  0  3  0  0  0  0  0  0
  -21.0860  -26.6780   22.4590 C   0  0  0  0  0  2  0  0  0  0  0  0
  -20.0370  -26.3410   21.3960 C   0  0  0  0  0  2  0  0  0  0  0  0
  -18.6240  -26.4400   21.9830 C   0  0  0  0  0  2  0  0  0  0  0  0
  -19.4590  -28.5580   23.1600 C   0  0  0  0  0  0  0  0  0  0  0  0
  -19.1760  -29.8030   23.7620 C   0  0  0  0  0  3  0  0  0  0  0  0
  -17.8510  -30.2610   23.8820 C   0  0  0  0  0  3  0  0  0  0  0  0
  -16.7880  -29.4760   23.4020 C   0  0  0  0  0  3  0  0  0  0  0  0
  -17.0530  -28.2340   22.7990 C   0  0  0  0  0  3  0  0  0  0  0  0
  -26.0550  -32.3930   24.0100 C   0  0  0  0  0  3  0  0  0  0  0  0
  -26.5140  -31.6370   25.3170 C   0  0  1  0  0  0  0  0  0  0  0  0
  -25.3660  -31.3810   26.3190 C   0  0  0  0  0  1  0  0  0  0  0  0
  -27.1450  -30.2700   24.9630 C   0  0  0  0  0  1  0  0  0  0  0  0
  -27.6080  -32.4530   26.0410 C   0  0  0  0  0  1  0  0  0  0  0  0
  -25.7060  -33.7870   24.3120 N   0  0  0  0  0  0  0  0  0  0  0  0
  -26.0470  -34.8410   23.5550 C   0  0  0  0  0  0  0  0  0  0  0  0
  -26.7530  -34.7390   22.5460 O   0  0  0  0  0  0  0  0  0  0  0  0
  -25.0840  -33.9380   25.0920 H   0  0  0  0  0  0  0  0  0  0  0  0
  -24.2880  -36.5920   23.1350 C   0  0  0  0  0  1  0  0  0  0  0  0
  -25.5170  -36.2240   23.9800 C   0  0  0  0  0  3  0  0  0  0  0  0
  -27.6030  -37.1780   24.8560 C   0  0  0  0  0  1  0  0  0  0  0  0
  -26.5250  -37.2980   23.8790 N   0  0  0  0  0  0  0  0  0  0  0  0
  -26.0920  -38.2090   23.9960 H   0  0  0  0  0  0  0  0  0  0  0  0
  -30.1660  -18.8070   19.7570 C   0  0  0  0  0  3  0  0  0  0  0  0
  -31.5450  -19.1440   20.1830 N   0  0  0  0  0  4  0  0  0  0  0  0
  -31.5510  -19.4440   21.1400 H   0  0  0  0  0  0  0  0  0  0  0  0
  -31.9110  -19.8940   19.6220 H   0  0  0  0  0  0  0  0  0  0  0  0
  -32.1670  -18.3630   20.0750 H   0  0  0  0  0  0  0  0  0  0  0  0
  -29.7600  -17.2740   20.1560 C   0  0  0  0  0  2  0  0  0  0  0  0
  -31.2840  -16.2140   22.0880 C   0  0  0  0  0  1  0  0  0  0  0  0
  -30.3200  -15.9250   20.9100 C   0  0  0  0  0  3  0  0  0  0  0  0
  -30.9220  -14.6560   20.1200 C   0  0  0  0  0  0  0  0  0  0  0  0
  -30.6810  -12.4270   19.0110 C   0  0  0  0  0  2  0  0  0  0  0  0
  -29.7150  -12.5640   17.8170 C   0  0  0  0  0  2  0  0  0  0  0  0
  -28.2500  -12.4200   18.2730 C   0  0  0  0  0  2  0  0  0  0  0  0
  -27.9340  -13.2610   19.5370 C   0  0  0  0  0  3  0  0  0  0  0  0
  -29.0060  -13.0570   20.6210 C   0  0  0  0  0  2  0  0  0  0  0  0
  -30.2950  -13.4330   20.0270 N   0  0  0  0  0  0  0  0  0  0  0  0
  -32.0200  -14.8090   19.5730 O   0  0  0  0  0  0  0  0  0  0  0  0
  -25.5700  -13.8890   20.2890 C   0  0  0  0  0  0  0  0  0  0  0  0
  -24.5020  -13.1410   20.6830 C   0  0  0  0  0  0  0  0  0  0  0  0
  -24.9450  -11.7780   20.6460 C   0  0  0  0  0  0  0  0  0  0  0  0
  -26.5960  -12.9930   20.0420 N   0  0  0  0  0  0  0  0  0  0  0  0
  -26.2260  -11.7140   20.3090 N   0  0  0  0  0  0  0  0  0  0  0  0
  -24.2020  -10.5360   20.8560 C   0  0  0  0  0  0  0  0  0  0  0  0
  -24.5870   -9.6020   21.8430 C   0  0  0  0  0  3  0  0  0  0  0  0
  -23.8440   -8.4210   22.0380 C   0  0  0  0  0  3  0  0  0  0  0  0
  -22.7010   -8.1640   21.2460 C   0  0  0  0  0  0  0  0  0  0  0  0
  -22.3300   -9.0910   20.2490 C   0  0  0  0  0  3  0  0  0  0  0  0
  -23.0770  -10.2640   20.0540 C   0  0  0  0  0  3  0  0  0  0  0  0
  -21.9350   -7.0290   21.3450 O   0  0  0  0  0  0  0  0  0  0  0  0
  -21.7600   -6.3790   22.5400 C   0  0  0  0  0  0  0  0  0  0  0  0
  -21.1970   -7.0240   23.6650 C   0  0  0  0  0  3  0  0  0  0  0  0
  -20.9620   -6.2940   24.8460 C   0  0  0  0  0  3  0  0  0  0  0  0
  -21.2930   -4.9280   24.9110 C   0  0  0  0  0  0  0  0  0  0  0  0
  -21.8550   -4.2860   23.7910 C   0  0  0  0  0  3  0  0  0  0  0  0
  -22.0840   -5.0090   22.6080 C   0  0  0  0  0  0  0  0  0  0  0  0
  -22.6020   -4.3780   21.5280 F   0  0  0  0  0  0  0  0  0  0  0  0
  -21.0670   -4.2300   26.0470 F   0  0  0  0  0  0  0  0  0  0  0  0
  -23.1230  -13.6490   20.9880 C   0  0  0  0  0  0  0  0  0  0  0  0
  -22.4140  -12.9750   21.8830 N   0  0  0  0  0  0  0  0  0  0  0  0
  -22.6920  -14.6820   20.4750 O   0  0  0  0  0  0  0  0  0  0  0  0
  -22.7950  -12.1490   22.3210 H   0  0  0  0  0  0  0  0  0  0  0  0
  -21.4910  -13.2960   22.1400 H   0  0  0  0  0  0  0  0  0  0  0  0
  -25.7450  -15.2590   20.0970 N   0  0  0  0  0  0  0  0  0  0  0  0
  -24.9670  -15.9000   20.1930 H   0  0  0  0  0  0  0  0  0  0  0  0
  -26.5750  -15.7010   19.7360 H   0  0  0  0  0  0  0  0  0  0  0  0
  1  3  1  0
  2  5  1  0
  3  7  1  0
  4  1  2  0
  5 10  1  0
  5  3  2  0
  6  4  1  0
  6  2  2  0
  8  9  1  0
  9  4  1  0
 11 12  1  0
 11 10  1  0
 13 24  2  0
 14 12  1  0
 14 19  1  0
 15 23  1  0
 15 25  1  0
 16 22  1  0
 16 18  1  0
 17 23  1  0
 18 19  2  0
 18 17  1  0
 20 14  2  0
 21 20  1  0
 21 16  2  0
 22 15  1  0
 23 13  1  0
 25 27  2  0
 26 25  1  0
 28 26  1  0
 29 38  2  0
 29 34  1  0
 30 26  1  0
 30 34  1  0
 31 30  1  0
 32 33  1  0
 32 31  1  0
 33 29  1  0
 34 35  2  0
 35 36  1  0
 37 36  2  0
 38 37  1  0
 39 13  1  0
 39 44  1  0
 39 40  1  0
 40 43  1  1
 40 41  1  0
 42 40  1  0
 44 47  1  0
 45 49  1  0
 45 44  1  0
 46 45  2  0
 49 48  1  0
 51 49  1  0
 51 52  1  0
 51 50  1  0
 53  6  1  0
 53 58  1  0
 53 54  1  0
 54 55  1  0
 56 54  1  0
 57 54  1  0
 58 60  1  0
 60 59  1  0
 61 60  1  0
 62 67  1  0
 63 64  1  0
 63 62  1  0
 65 64  1  0
 65 72  1  0
 65 66  1  0
 67 61  1  0
 67 66  1  0
 68 61  2  0
 69 70  2  0
 70 89  1  0
 71 70  1  0
 71 74  1  0
 72 69  1  0
 72 73  1  0
 73 71  2  0
 74 75  1  0
 75 76  2  0
 77 80  1  0
 77 76  1  0
 78 77  2  0
 79 78  1  0
 79 74  2  0
 80 81  1  0
 81 86  2  0
 81 82  1  0
 82 83  2  0
 83 84  1  0
 84 88  1  0
 85 84  2  0
 86 85  1  0
 87 86  1  0
 89 90  1  0
 90 93  1  0
 90 92  1  0
 91 89  2  0
 94 95  1  0
 94 69  1  0
 96 94  1  0
M  ISO  4  11 101  12 101  60 100  61 100
M  END
>  <TORSDO>  (37) 
F 23

>  <SCORE>  (37) 
-10.943

>  <name>  (37) 
36

>  <ligand_id>  (37) 
36

>  <original_smiles>  (37) 
[H]c1c([H])c([H])c2c(c1[H])C([H])([H])C([H])([H])C([H])([H])C2([H])N([H])C(=O)C1([H])N(C(=O)C([H])(N([H])C(=O)C([H])(N([H])C([H])([H])[H])C([H])([H])[H])C(C([H])([H])[H])(C([H])([H])[H])C([H])([H])[H])C([H])([H])c2c([H])c(OC([H])([H])C([H])([H])c3c([H])c(C([H])(C([H])([H])C([H])(C(=O)N4C([H])([H])C([H])([H])C([H])([H])C([H])(n5nc(-c6c([H])c([H])c(Oc7c([H])c([H])c(F)c([H])c7F)c([H])c6[H])c(C(=O)N([H])[H])c5N([H])[H])C4([H])[H])C([H])([H])[H])[N+]([H])([H])[H])c(C([H])([H])C([H])([H])[H])c([H])c3C([H])([H])[H])c([H])c([H])c2C1([H])[H]

>  <smiles>  (37) 
[H]c1c([H])c([H])c2c(c1[H])C([H])([H])C([H])([H])C([H])([H])C2([H])N([H])C(=O)C1([H])N(C(=O)C([H])(N([H])C(=O)C([H])(N([H])C([H])([H])[H])C([H])([H])[H])C(C([H])([H])[H])(C([H])([H])[H])C([H])([H])[H])C([H])([H])c2c([H])c(OC([H])([H])C([H])([H])c3c([H])c(C([H])(C([H])([H])C([H])(C(=O)N4C([H])([H])C([H])([H])C([H])([H])C([H])(n5nc(-c6c([H])c([H])c(Oc7c([H])c([H])c(F)c([H])c7F)c([H])c6[H])c(C(=O)N([H])[H])c5N([H])[H])C4([H])[H])C([H])([H])[H])[N+]([H])([H])[H])c(C([H])([H])C([H])([H])[H])c([H])c3C([H])([H])[H])c([H])c([H])c2C1([H])[H]

$$$$
37:0:0
     RDKit          3D

 88 97  0  0  1  0  0  0  0  0999 V2000
  -29.2960  -20.5700   21.0540 C   0  0  0  0  0  3  0  0  0  0  0  0
  -29.3660  -19.2140   20.4050 C   0  0  0  0  0  0  0  0  0  0  0  0
  -29.1760  -19.3930   19.0090 C   0  0  0  0  0  0  0  0  0  0  0  0
  -28.9930  -21.7170   20.2170 C   0  0  0  0  0  0  0  0  0  0  0  0
  -29.9010  -18.1310   18.6370 C   0  0  0  0  0  2  0  0  0  0  0  0
  -30.1620  -17.7890   20.1910 C   0  0  0  0  0  3  0  0  0  0  0  0
  -28.9960  -21.0940   18.5280 S   0  0  0  0  0  0  0  0  0  0  0  0
  -30.5140  -15.0590   20.3060 C   0  0  0  0  0  0  0  0  0  0  0  0
  -30.3850  -12.6990   19.3740 C   0  0  0  0  0  2  0  0  0  0  0  0
  -29.4480  -12.6460   18.1450 C   0  0  0  0  0  2  0  0  0  0  0  0
  -27.9890  -12.4270   18.5850 C   0  0  0  0  0  2  0  0  0  0  0  0
  -27.5850  -13.3480   19.7660 C   0  0  0  0  0  3  0  0  0  0  0  0
  -28.6470  -13.3780   20.8850 C   0  0  0  0  0  2  0  0  0  0  0  0
  -29.9100  -13.7990   20.2660 N   0  0  0  0  0  0  0  0  0  0  0  0
  -31.7110  -15.1020   20.0030 O   0  0  0  0  0  0  0  0  0  0  0  0
  -29.7680  -16.2700   20.4660 N   0  0  0  0  0  0  0  0  0  0  0  0
  -28.7970  -16.1300   20.7020 H   0  0  0  0  0  0  0  0  0  0  0  0
  -25.2110  -13.9110   20.5350 C   0  0  0  0  0  0  0  0  0  0  0  0
  -24.1530  -13.1300   20.9080 C   0  0  0  0  0  0  0  0  0  0  0  0
  -24.6200  -11.7810   20.8610 C   0  0  0  0  0  0  0  0  0  0  0  0
  -26.2540  -13.0380   20.2750 N   0  0  0  0  0  0  0  0  0  0  0  0
  -25.9090  -11.7500   20.5390 N   0  0  0  0  0  0  0  0  0  0  0  0
  -23.8970  -10.5160   21.0450 C   0  0  0  0  0  0  0  0  0  0  0  0
  -24.3230   -9.5490   21.9810 C   0  0  0  0  0  3  0  0  0  0  0  0
  -23.5970   -8.3510   22.1540 C   0  0  0  0  0  3  0  0  0  0  0  0
  -22.4310   -8.1100   21.3890 C   0  0  0  0  0  0  0  0  0  0  0  0
  -22.0250   -9.0660   20.4410 C   0  0  0  0  0  3  0  0  0  0  0  0
  -22.7510  -10.2550   20.2660 C   0  0  0  0  0  3  0  0  0  0  0  0
  -21.6770   -6.9640   21.4700 O   0  0  0  0  0  0  0  0  0  0  0  0
  -21.6060   -6.2300   22.6280 C   0  0  0  0  0  0  0  0  0  0  0  0
  -21.1150   -6.7820   23.8320 C   0  0  0  0  0  3  0  0  0  0  0  0
  -20.9920   -5.9730   24.9790 C   0  0  0  0  0  3  0  0  0  0  0  0
  -21.3520   -4.6140   24.9230 C   0  0  0  0  0  0  0  0  0  0  0  0
  -21.8370   -4.0610   23.7250 C   0  0  0  0  0  3  0  0  0  0  0  0
  -21.9600   -4.8670   22.5800 C   0  0  0  0  0  0  0  0  0  0  0  0
  -22.4070   -4.3230   21.4220 F   0  0  0  0  0  0  0  0  0  0  0  0
  -21.2280   -3.8350   26.0230 F   0  0  0  0  0  0  0  0  0  0  0  0
  -22.7570  -13.6030   21.1920 C   0  0  0  0  0  0  0  0  0  0  0  0
  -22.0330  -12.8980   22.0530 N   0  0  0  0  0  0  0  0  0  0  0  0
  -22.3170  -14.6360   20.6860 O   0  0  0  0  0  0  0  0  0  0  0  0
  -22.4010  -12.0640   22.4840 H   0  0  0  0  0  0  0  0  0  0  0  0
  -21.0960  -13.1990   22.2840 H   0  0  0  0  0  0  0  0  0  0  0  0
  -25.3690  -15.2830   20.3670 N   0  0  0  0  0  0  0  0  0  0  0  0
  -24.5980  -15.9310   20.4860 H   0  0  0  0  0  0  0  0  0  0  0  0
  -26.2010  -15.7260   19.9990 H   0  0  0  0  0  0  0  0  0  0  0  0
  -29.0320  -23.3550   20.5240 C   0  0  0  0  0  3  0  0  0  0  0  0
  -28.0160  -24.6340   20.0400 C   0  0  0  0  0  3  0  0  0  0  0  0
  -28.2310  -26.1750   20.2900 O   0  0  0  0  0  0  0  0  0  0  0  0
  -24.6200  -31.9240   23.2200 C   0  0  0  0  0  0  0  0  0  0  0  0
  -27.1790  -27.1710   20.2060 C   0  0  0  0  0  0  0  0  0  0  0  0
  -23.4140  -30.5230   21.5910 C   0  0  0  0  0  3  0  0  0  0  0  0
  -24.8560  -28.9350   20.1670 C   0  0  0  0  0  0  0  0  0  0  0  0
  -25.9690  -30.7760   21.4200 C   0  0  0  0  0  2  0  0  0  0  0  0
  -26.0370  -29.3790   20.7720 C   0  0  0  0  0  0  0  0  0  0  0  0
  -27.1990  -28.5120   20.7740 C   0  0  0  0  0  3  0  0  0  0  0  0
  -25.9710  -26.8350   19.5590 C   0  0  0  0  0  3  0  0  0  0  0  0
  -24.8370  -27.6780   19.5430 C   0  0  0  0  0  3  0  0  0  0  0  0
  -23.6300  -29.8370   20.2150 C   0  0  0  0  0  2  0  0  0  0  0  0
  -24.6880  -31.0970   22.1310 N   0  0  0  0  0  0  0  0  0  0  0  0
  -23.5360  -32.2140   23.7490 O   0  0  0  0  0  0  0  0  0  0  0  0
  -22.7330  -29.5240   22.5600 C   0  0  0  0  0  0  0  0  0  0  0  0
  -21.4050  -29.3540   22.4360 N   0  0  0  0  0  0  0  0  0  0  0  0
  -23.4040  -28.9030   23.3890 O   0  0  0  0  0  0  0  0  0  0  0  0
  -20.9200  -29.9060   21.7420 H   0  0  0  0  0  0  0  0  0  0  0  0
  -18.0210  -28.1660   22.9580 C   0  0  0  0  0  0  0  0  0  0  0  0
  -20.5820  -28.4220   23.2140 C   0  0  0  0  0  3  0  0  0  0  0  0
  -20.6770  -26.9880   22.6430 C   0  0  0  0  0  2  0  0  0  0  0  0
  -19.5700  -26.6660   21.6340 C   0  0  0  0  0  2  0  0  0  0  0  0
  -18.1910  -26.8150   22.2830 C   0  0  0  0  0  2  0  0  0  0  0  0
  -19.1430  -28.9280   23.3790 C   0  0  0  0  0  0  0  0  0  0  0  0
  -18.9290  -30.1920   23.9710 C   0  0  0  0  0  3  0  0  0  0  0  0
  -17.6250  -30.6940   24.1460 C   0  0  0  0  0  3  0  0  0  0  0  0
  -16.5180  -29.9300   23.7380 C   0  0  0  0  0  3  0  0  0  0  0  0
  -16.7170  -28.6680   23.1500 C   0  0  0  0  0  3  0  0  0  0  0  0
  -25.9000  -32.5610   23.8420 C   0  0  0  0  0  3  0  0  0  0  0  0
  -25.5850  -33.9570   24.1880 N   0  0  0  0  0  0  0  0  0  0  0  0
  -25.8890  -35.0200   23.4330 C   0  0  0  0  0  0  0  0  0  0  0  0
  -26.5320  -34.9300   22.3830 O   0  0  0  0  0  0  0  0  0  0  0  0
  -25.0080  -34.0990   25.0040 H   0  0  0  0  0  0  0  0  0  0  0  0
  -24.1360  -36.8050   23.1510 C   0  0  0  0  0  1  0  0  0  0  0  0
  -25.4070  -36.4030   23.9160 C   0  0  0  0  0  3  0  0  0  0  0  0
  -27.5570  -37.3070   24.6880 C   0  0  0  0  0  1  0  0  0  0  0  0
  -26.4270  -37.4660   23.7750 N   0  0  0  0  0  0  0  0  0  0  0  0
  -26.0170  -38.3820   23.9340 H   0  0  0  0  0  0  0  0  0  0  0  0
  -26.4220  -31.7860   25.1150 C   0  0  1  0  0  0  0  0  0  0  0  0
  -25.3310  -31.5390   26.1840 C   0  0  0  0  0  1  0  0  0  0  0  0
  -27.0110  -30.4130   24.7200 C   0  0  0  0  0  1  0  0  0  0  0  0
  -27.5680  -32.5840   25.7790 C   0  0  0  0  0  1  0  0  0  0  0  0
  2  1  1  0
  3  2  2  0
  4 46  1  0
  4  1  2  0
  5  3  1  0
  5  6  1  0
  6  2  1  0
  6 16  1  0
  7  3  1  0
  7  4  1  0
  8 16  1  0
  9 14  1  0
 10 11  1  0
 10  9  1  0
 12 11  1  0
 12 21  1  0
 12 13  1  0
 14  8  1  0
 14 13  1  0
 15  8  2  0
 16 17  1  0
 18 19  2  0
 19 38  1  0
 20 19  1  0
 20 23  1  0
 21 18  1  0
 21 22  1  0
 22 20  2  0
 23 24  1  0
 24 25  2  0
 26 29  1  0
 26 25  1  0
 27 26  2  0
 28 27  1  0
 28 23  2  0
 29 30  1  0
 30 31  1  0
 31 32  2  0
 33 32  1  0
 33 37  1  0
 34 33  2  0
 35 30  2  0
 35 34  1  0
 36 35  1  0
 38 39  1  0
 39 42  1  0
 39 41  1  0
 40 38  2  0
 43 44  1  0
 43 18  1  0
 45 43  1  0
 47 48  1  0
 47 46  2  0
 49 60  2  0
 50 48  1  0
 50 55  1  0
 51 59  1  0
 51 61  1  0
 52 58  1  0
 52 54  1  0
 53 59  1  0
 54 55  2  0
 54 53  1  0
 56 50  2  0
 57 56  1  0
 57 52  2  0
 58 51  1  0
 59 49  1  0
 61 63  2  0
 62 61  1  0
 64 62  1  0
 65 74  2  0
 65 70  1  0
 66 62  1  0
 66 70  1  0
 67 66  1  0
 68 69  1  0
 68 67  1  0
 69 65  1  0
 70 71  2  0
 71 72  1  0
 73 72  2  0
 74 73  1  0
 75 49  1  0
 75 76  1  0
 75 85  1  0
 76 79  1  0
 77 81  1  0
 77 76  1  0
 78 77  2  0
 81 80  1  0
 83 81  1  0
 83 84  1  0
 83 82  1  0
 85 88  1  1
 85 86  1  0
 87 85  1  0
M  ISO  4   8 100  16 100  47 101  48 101
M  END
>  <TORSDO>  (38) 
F 18

>  <SCORE>  (38) 
-15.484

>  <name>  (38) 
37

>  <ligand_id>  (38) 
37

>  <original_smiles>  (38) 
[H]c1c([H])c([H])c2c(c1[H])C([H])([H])C([H])([H])C([H])([H])C2([H])N([H])C(=O)C1([H])N(C(=O)C([H])(N([H])C(=O)C([H])(N([H])C([H])([H])[H])C([H])([H])[H])C(C([H])([H])[H])(C([H])([H])[H])C([H])([H])[H])C([H])([H])c2c([H])c(OC([H])([H])C([H])([H])c3sc4c(c3[H])C([H])(N([H])C(=O)N3C([H])([H])C([H])([H])C([H])([H])C([H])(n5nc(-c6c([H])c([H])c(Oc7c([H])c([H])c(F)c([H])c7F)c([H])c6[H])c(C(=O)N([H])[H])c5N([H])[H])C3([H])[H])C4([H])[H])c([H])c([H])c2C1([H])[H]

>  <smiles>  (38) 
[H]c1c([H])c([H])c2c(c1[H])C([H])([H])C([H])([H])C([H])([H])C2([H])N([H])C(=O)C1([H])N(C(=O)C([H])(N([H])C(=O)C([H])(N([H])C([H])([H])[H])C([H])([H])[H])C(C([H])([H])[H])(C([H])([H])[H])C([H])([H])[H])C([H])([H])c2c([H])c(OC([H])([H])C([H])([H])c3sc4c(c3[H])C([H])(N([H])C(=O)N3C([H])([H])C([H])([H])C([H])([H])C([H])(n5nc(-c6c([H])c([H])c(Oc7c([H])c([H])c(F)c([H])c7F)c([H])c6[H])c(C(=O)N([H])[H])c5N([H])[H])C3([H])[H])C4([H])[H])c([H])c([H])c2C1([H])[H]

$$$$
38:0:0
     RDKit          3D

 96105  0  0  1  0  0  0  0  0999 V2000
  -30.9470  -22.2500   19.2100 N   0  0  0  0  0  4  0  0  0  0  0  0
  -31.8640  -22.3810   18.8130 H   0  0  0  0  0  0  0  0  0  0  0  0
  -30.3850  -21.7760   18.5230 H   0  0  0  0  0  0  0  0  0  0  0  0
  -30.5910  -24.5510   18.3300 C   0  0  0  0  0  2  0  0  0  0  0  0
  -28.8300  -23.4670   19.7570 C   0  0  0  0  0  2  0  0  0  0  0  0
  -30.0570  -25.9390   18.7060 C   0  0  0  0  0  2  0  0  0  0  0  0
  -28.2590  -24.8340   20.1530 C   0  0  0  0  0  2  0  0  0  0  0  0
  -30.3490  -23.5700   19.4880 C   0  0  0  0  0  3  0  0  0  0  0  0
  -28.5670  -25.9160   19.1040 C   0  0  0  0  0  3  0  0  0  0  0  0
  -28.3620  -27.1740   19.7170 O   0  0  0  0  0  0  0  0  0  0  0  0
  -24.5410  -31.9600   23.2170 C   0  0  0  0  0  0  0  0  0  0  0  0
  -27.1190  -27.7480   19.8080 C   0  0  0  0  0  0  0  0  0  0  0  0
  -23.2770  -30.6130   21.5670 C   0  0  0  0  0  3  0  0  0  0  0  0
  -24.6840  -29.1600   20.0140 C   0  0  0  0  0  0  0  0  0  0  0  0
  -25.7790  -31.0320   21.2680 C   0  0  0  0  0  2  0  0  0  0  0  0
  -25.8520  -29.6930   20.5700 C   0  0  0  0  0  0  0  0  0  0  0  0
  -27.0650  -28.9890   20.4710 C   0  0  0  0  0  3  0  0  0  0  0  0
  -25.9300  -27.2020   19.2690 C   0  0  0  0  0  3  0  0  0  0  0  0
  -24.7140  -27.9090   19.3700 C   0  0  0  0  0  3  0  0  0  0  0  0
  -23.4300  -29.9910   20.1510 C   0  0  0  0  0  2  0  0  0  0  0  0
  -24.5520  -31.2140   22.0760 N   0  0  0  0  0  0  0  0  0  0  0  0
  -23.4830  -32.1900   23.8180 O   0  0  0  0  0  0  0  0  0  0  0  0
  -22.6880  -29.5410   22.5090 C   0  0  0  0  0  0  0  0  0  0  0  0
  -21.3680  -29.3190   22.4060 N   0  0  0  0  0  0  0  0  0  0  0  0
  -23.4120  -28.9110   23.2850 O   0  0  0  0  0  0  0  0  0  0  0  0
  -20.8440  -29.8820   21.7500 H   0  0  0  0  0  0  0  0  0  0  0  0
  -18.0540  -27.9720   22.9000 C   0  0  0  0  0  0  0  0  0  0  0  0
  -20.6000  -28.3320   23.1620 C   0  0  0  0  0  3  0  0  0  0  0  0
  -20.7600  -26.9190   22.5530 C   0  0  0  0  0  2  0  0  0  0  0  0
  -19.6650  -26.5710   21.5390 C   0  0  0  0  0  2  0  0  0  0  0  0
  -18.2820  -26.6450   22.1950 C   0  0  0  0  0  2  0  0  0  0  0  0
  -19.1430  -28.7720   23.3390 C   0  0  0  0  0  0  0  0  0  0  0  0
  -18.8770  -30.0130   23.9560 C   0  0  0  0  0  3  0  0  0  0  0  0
  -17.5540  -30.4560   24.1390 C   0  0  0  0  0  3  0  0  0  0  0  0
  -16.4800  -29.6540   23.7180 C   0  0  0  0  0  3  0  0  0  0  0  0
  -16.7300  -28.4140   23.1050 C   0  0  0  0  0  3  0  0  0  0  0  0
  -25.8480  -32.5790   23.8050 C   0  0  0  0  0  3  0  0  0  0  0  0
  -26.4070  -31.7860   25.0490 C   0  0  1  0  0  0  0  0  0  0  0  0
  -25.3520  -31.5310   26.1490 C   0  0  0  0  0  1  0  0  0  0  0  0
  -26.9740  -30.4170   24.6100 C   0  0  0  0  0  1  0  0  0  0  0  0
  -27.5800  -32.5690   25.6860 C   0  0  0  0  0  1  0  0  0  0  0  0
  -25.5520  -33.9720   24.1660 N   0  0  0  0  0  0  0  0  0  0  0  0
  -25.8810  -35.0370   23.4210 C   0  0  0  0  0  0  0  0  0  0  0  0
  -26.5370  -34.9480   22.3790 O   0  0  0  0  0  0  0  0  0  0  0  0
  -24.9700  -34.1150   24.9780 H   0  0  0  0  0  0  0  0  0  0  0  0
  -24.1620  -36.8440   23.1120 C   0  0  0  0  0  1  0  0  0  0  0  0
  -25.4050  -36.4180   23.9090 C   0  0  0  0  0  3  0  0  0  0  0  0
  -27.5500  -37.2740   24.7430 C   0  0  0  0  0  1  0  0  0  0  0  0
  -26.4440  -37.4660   23.8090 N   0  0  0  0  0  0  0  0  0  0  0  0
  -26.0450  -38.3870   23.9750 H   0  0  0  0  0  0  0  0  0  0  0  0
  -31.0950  -21.3990   20.4090 C   0  0  0  0  0  2  0  0  0  0  0  0
  -30.7790  -19.9370   20.0840 C   0  0  0  0  0  2  0  0  0  0  0  0
  -31.4560  -18.0910   23.4840 C   0  0  0  0  0  2  0  0  0  0  0  0
  -31.7220  -19.0170   22.2850 C   0  0  0  0  0  2  0  0  0  0  0  0
  -31.0840  -16.6730   23.0230 C   0  0  0  0  0  2  0  0  0  0  0  0
  -30.1130  -17.6640   20.8820 C   0  0  0  0  0  2  0  0  0  0  0  0
  -30.5100  -19.0760   21.3310 C   0  0  0  0  0  3  0  0  0  0  0  0
  -29.8750  -16.7070   22.0670 C   0  0  0  0  0  3  0  0  0  0  0  0
  -29.9160  -14.7220   20.5160 C   0  0  0  0  0  0  0  0  0  0  0  0
  -29.6730  -12.7020   19.1320 C   0  0  0  0  0  2  0  0  0  0  0  0
  -28.6270  -12.9040   18.0210 C   0  0  0  0  0  2  0  0  0  0  0  0
  -27.2140  -12.5720   18.5370 C   0  0  0  0  0  2  0  0  0  0  0  0
  -26.8900  -13.2830   19.8760 C   0  0  0  0  0  3  0  0  0  0  0  0
  -28.0350  -13.0850   20.8950 C   0  0  0  0  0  2  0  0  0  0  0  0
  -29.2970  -13.5400   20.2790 N   0  0  0  0  0  0  0  0  0  0  0  0
  -30.8270  -15.1590   19.8070 O   0  0  0  0  0  0  0  0  0  0  0  0
  -29.4860  -15.3740   21.6060 N   0  0  0  0  0  0  0  0  0  0  0  0
  -28.7660  -14.9060   22.1360 H   0  0  0  0  0  0  0  0  0  0  0  0
  -24.4960  -13.5800   20.7840 C   0  0  0  0  0  0  0  0  0  0  0  0
  -23.5440  -12.6720   21.1630 C   0  0  0  0  0  0  0  0  0  0  0  0
  -24.1390  -11.3850   20.9950 C   0  0  0  0  0  0  0  0  0  0  0  0
  -25.6070  -12.8360   20.4180 N   0  0  0  0  0  0  0  0  0  0  0  0
  -25.3980  -11.5060   20.5970 N   0  0  0  0  0  0  0  0  0  0  0  0
  -23.5640  -10.0400   21.1360 C   0  0  0  0  0  0  0  0  0  0  0  0
  -24.1060   -9.0950   22.0360 C   0  0  0  0  0  3  0  0  0  0  0  0
  -23.5250   -7.8160   22.1660 C   0  0  0  0  0  3  0  0  0  0  0  0
  -22.3890   -7.4700   21.3960 C   0  0  0  0  0  0  0  0  0  0  0  0
  -21.8680   -8.4060   20.4850 C   0  0  0  0  0  3  0  0  0  0  0  0
  -22.4500   -9.6770   20.3530 C   0  0  0  0  0  3  0  0  0  0  0  0
  -21.7730   -6.2420   21.4370 O   0  0  0  0  0  0  0  0  0  0  0  0
  -21.7590   -5.4830   22.5800 C   0  0  0  0  0  0  0  0  0  0  0  0
  -21.1990   -5.9600   23.7840 C   0  0  0  0  0  3  0  0  0  0  0  0
  -21.1420   -5.1200   24.9160 C   0  0  0  0  0  3  0  0  0  0  0  0
  -21.6340   -3.8040   24.8420 C   0  0  0  0  0  0  0  0  0  0  0  0
  -22.1880   -3.3260   23.6410 C   0  0  0  0  0  3  0  0  0  0  0  0
  -22.2470   -4.1620   22.5120 C   0  0  0  0  0  0  0  0  0  0  0  0
  -22.7620   -3.6890   21.3520 F   0  0  0  0  0  0  0  0  0  0  0  0
  -21.5730   -2.9950   25.9250 F   0  0  0  0  0  0  0  0  0  0  0  0
  -22.1300  -12.9730   21.5680 C   0  0  0  0  0  0  0  0  0  0  0  0
  -21.5540  -12.1550   22.4420 N   0  0  0  0  0  0  0  0  0  0  0  0
  -21.5420  -13.9700   21.1460 O   0  0  0  0  0  0  0  0  0  0  0  0
  -22.0420  -11.3490   22.8040 H   0  0  0  0  0  0  0  0  0  0  0  0
  -20.6110  -12.3390   22.7540 H   0  0  0  0  0  0  0  0  0  0  0  0
  -24.5060  -14.9700   20.7030 N   0  0  0  0  0  0  0  0  0  0  0  0
  -23.6890  -15.5320   20.9180 H   0  0  0  0  0  0  0  0  0  0  0  0
  -25.2890  -15.5180   20.3710 H   0  0  0  0  0  0  0  0  0  0  0  0
  1 51  1  0
  2  1  1  0
  3  1  1  0
  4  6  1  0
  4  8  1  0
  5  7  1  0
  6  9  1  0
  8  1  1  0
  8  5  1  0
  9 10  1  0
  9  7  1  0
 10 12  1  0
 11 22  2  0
 12 17  1  0
 13 21  1  0
 13 23  1  0
 14 20  1  0
 14 16  1  0
 15 21  1  0
 16 15  1  0
 17 16  2  0
 18 19  1  0
 18 12  2  0
 19 14  2  0
 20 13  1  0
 21 11  1  0
 23 25  2  0
 24 23  1  0
 26 24  1  0
 27 36  2  0
 27 32  1  0
 28 24  1  0
 28 32  1  0
 29 28  1  0
 30 31  1  0
 30 29  1  0
 31 27  1  0
 32 33  2  0
 33 34  1  0
 35 34  2  0
 36 35  1  0
 37 11  1  0
 37 42  1  0
 37 38  1  0
 38 41  1  1
 38 39  1  0
 40 38  1  0
 42 45  1  0
 43 47  1  0
 43 42  1  0
 44 43  2  0
 47 46  1  0
 49 47  1  0
 49 50  1  0
 49 48  1  0
 52 51  1  0
 54 53  1  0
 55 53  1  0
 56 57  1  0
 56 58  1  0
 57 52  1  0
 57 54  1  0
 58 67  1  0
 58 55  1  0
 59 67  1  0
 60 65  1  0
 61 62  1  0
 61 60  1  0
 63 62  1  0
 63 72  1  0
 63 64  1  0
 65 59  1  0
 65 64  1  0
 66 59  2  0
 67 68  1  0
 69 70  2  0
 70 89  1  0
 71 74  1  0
 71 70  1  0
 72 73  1  0
 72 69  1  0
 73 71  2  0
 74 75  1  0
 75 76  2  0
 77 80  1  0
 77 76  1  0
 78 77  2  0
 79 78  1  0
 79 74  2  0
 80 81  1  0
 81 82  1  0
 82 83  2  0
 84 83  1  0
 84 88  1  0
 85 84  2  0
 86 81  2  0
 86 85  1  0
 87 86  1  0
 89 90  1  0
 90 93  1  0
 90 92  1  0
 91 89  2  0
 94 69  1  0
 94 95  1  0
 96 94  1  0
M  ISO  4   9 101  10 101  59 100  67 100
M  END
>  <TORSDO>  (39) 
F 20

>  <SCORE>  (39) 
-10.906

>  <name>  (39) 
38

>  <ligand_id>  (39) 
38

>  <original_smiles>  (39) 
[H]c1c([H])c([H])c2c(c1[H])C([H])([H])C([H])([H])C([H])([H])C2([H])N([H])C(=O)C1([H])N(C(=O)C([H])(N([H])C(=O)C([H])(N([H])C([H])([H])[H])C([H])([H])[H])C(C([H])([H])[H])(C([H])([H])[H])C([H])([H])[H])C([H])([H])c2c([H])c(OC3([H])C([H])([H])C([H])([H])C([H])([N+]([H])([H])C([H])([H])C([H])([H])C4([H])C([H])([H])C([H])([H])C([H])([H])C([H])(N([H])C(=O)N5C([H])([H])C([H])([H])C([H])([H])C([H])(n6nc(-c7c([H])c([H])c(Oc8c([H])c([H])c(F)c([H])c8F)c([H])c7[H])c(C(=O)N([H])[H])c6N([H])[H])C5([H])[H])C4([H])[H])C([H])([H])C3([H])[H])c([H])c([H])c2C1([H])[H]

>  <smiles>  (39) 
[H]c1c([H])c([H])c2c(c1[H])C([H])([H])C([H])([H])C([H])([H])C2([H])N([H])C(=O)C1([H])N(C(=O)C([H])(N([H])C(=O)C([H])(N([H])C([H])([H])[H])C([H])([H])[H])C(C([H])([H])[H])(C([H])([H])[H])C([H])([H])[H])C([H])([H])c2c([H])c(OC3([H])C([H])([H])C([H])([H])C([H])([N+]([H])([H])C([H])([H])C([H])([H])C4([H])C([H])([H])C([H])([H])C([H])([H])C([H])(N([H])C(=O)N5C([H])([H])C([H])([H])C([H])([H])C([H])(n6nc(-c7c([H])c([H])c(Oc8c([H])c([H])c(F)c([H])c8F)c([H])c7[H])c(C(=O)N([H])[H])c6N([H])[H])C5([H])[H])C4([H])[H])C([H])([H])C3([H])[H])c([H])c([H])c2C1([H])[H]

$$$$
39:0:0
     RDKit          3D

 93101  0  0  1  0  0  0  0  0999 V2000
  -28.5590  -22.3810   20.4180 C   0  0  0  0  0  3  0  0  0  0  0  0
  -30.7710  -21.6130   19.7860 C   0  0  0  0  0  3  0  0  0  0  0  0
  -30.2700  -24.0280   19.8910 C   0  0  0  0  0  3  0  0  0  0  0  0
  -29.4590  -21.2710   20.1820 C   0  0  0  0  0  0  0  0  0  0  0  0
  -28.9430  -23.7730   20.2820 C   0  0  0  0  0  0  0  0  0  0  0  0
  -31.1670  -22.9640   19.6420 C   0  0  0  0  0  0  0  0  0  0  0  0
  -29.0130  -19.7820   20.1770 C   0  0  0  0  0  0  0  0  0  0  0  0
  -29.9080  -18.7600   20.4090 N   0  0  0  0  0  0  0  0  0  0  0  0
  -27.8360  -19.5270   19.9200 O   0  0  0  0  0  0  0  0  0  0  0  0
  -30.8270  -19.0660   20.7020 H   0  0  0  0  0  0  0  0  0  0  0  0
  -29.8280  -17.3130   19.9290 C   0  0  0  0  0  2  0  0  0  0  0  0
  -29.9090  -16.0560   20.9330 C   0  0  0  0  0  2  0  0  0  0  0  0
  -30.6000  -14.7030   20.4220 C   0  0  0  0  0  0  0  0  0  0  0  0
  -30.3740  -12.4460   19.3740 C   0  0  0  0  0  2  0  0  0  0  0  0
  -29.4450  -12.5680   18.1440 C   0  0  0  0  0  2  0  0  0  0  0  0
  -27.9670  -12.4220   18.5590 C   0  0  0  0  0  2  0  0  0  0  0  0
  -27.6050  -13.2930   19.7930 C   0  0  0  0  0  3  0  0  0  0  0  0
  -28.6520  -13.1480   20.9180 C   0  0  0  0  0  2  0  0  0  0  0  0
  -29.9640  -13.4830   20.3500 N   0  0  0  0  0  0  0  0  0  0  0  0
  -31.7550  -14.7990   19.9980 O   0  0  0  0  0  0  0  0  0  0  0  0
  -25.2100  -13.9060   20.4890 C   0  0  0  0  0  0  0  0  0  0  0  0
  -24.1350  -13.1420   20.8560 C   0  0  0  0  0  0  0  0  0  0  0  0
  -24.5900  -11.7870   20.8430 C   0  0  0  0  0  0  0  0  0  0  0  0
  -26.2510  -13.0180   20.2710 N   0  0  0  0  0  0  0  0  0  0  0  0
  -25.8840  -11.7380   20.5440 N   0  0  0  0  0  0  0  0  0  0  0  0
  -23.8520  -10.5320   21.0380 C   0  0  0  0  0  0  0  0  0  0  0  0
  -24.2790   -9.5600   21.9700 C   0  0  0  0  0  3  0  0  0  0  0  0
  -23.5440   -8.3690   22.1530 C   0  0  0  0  0  3  0  0  0  0  0  0
  -22.3650   -8.1420   21.4040 C   0  0  0  0  0  0  0  0  0  0  0  0
  -21.9550   -9.1020   20.4600 C   0  0  0  0  0  3  0  0  0  0  0  0
  -22.6930  -10.2840   20.2760 C   0  0  0  0  0  3  0  0  0  0  0  0
  -21.6000   -7.0050   21.4960 O   0  0  0  0  0  0  0  0  0  0  0  0
  -21.5600   -6.2550   22.6440 C   0  0  0  0  0  0  0  0  0  0  0  0
  -21.1690   -6.8080   23.8830 C   0  0  0  0  0  3  0  0  0  0  0  0
  -21.0760   -5.9860   25.0240 C   0  0  0  0  0  3  0  0  0  0  0  0
  -21.3640   -4.6110   24.9270 C   0  0  0  0  0  0  0  0  0  0  0  0
  -21.7490   -4.0580   23.6940 C   0  0  0  0  0  3  0  0  0  0  0  0
  -21.8450   -4.8770   22.5550 C   0  0  0  0  0  0  0  0  0  0  0  0
  -22.1950   -4.3350   21.3650 F   0  0  0  0  0  0  0  0  0  0  0  0
  -21.2670   -3.8190   26.0210 F   0  0  0  0  0  0  0  0  0  0  0  0
  -22.7380  -13.6310   21.1100 C   0  0  0  0  0  0  0  0  0  0  0  0
  -21.9960  -12.9490   21.9750 N   0  0  0  0  0  0  0  0  0  0  0  0
  -22.3140  -14.6550   20.5760 O   0  0  0  0  0  0  0  0  0  0  0  0
  -22.3550  -12.1210   22.4290 H   0  0  0  0  0  0  0  0  0  0  0  0
  -21.0600  -13.2630   22.1900 H   0  0  0  0  0  0  0  0  0  0  0  0
  -25.3840  -15.2740   20.3030 N   0  0  0  0  0  0  0  0  0  0  0  0
  -24.6190  -15.9300   20.4120 H   0  0  0  0  0  0  0  0  0  0  0  0
  -26.2350  -15.7110   19.9740 H   0  0  0  0  0  0  0  0  0  0  0  0
  -32.4640  -23.2470   19.2190 N   0  0  0  0  0  0  0  0  0  0  0  0
  -33.1740  -22.5200   19.2420 H   0  0  0  0  0  0  0  0  0  0  0  0
  -32.8370  -24.1870   19.3240 H   0  0  0  0  0  0  0  0  0  0  0  0
  -27.9460  -24.9670   20.5580 C   0  0  0  0  0  2  0  0  0  0  0  0
  -28.2750  -26.3880   20.2050 O   0  0  0  0  0  0  0  0  0  0  0  0
  -24.6130  -31.8860   23.2280 C   0  0  0  0  0  0  0  0  0  0  0  0
  -27.1910  -27.2920   20.1700 C   0  0  0  0  0  0  0  0  0  0  0  0
  -23.4010  -30.4880   21.5970 C   0  0  0  0  0  3  0  0  0  0  0  0
  -24.8430  -28.9360   20.1660 C   0  0  0  0  0  0  0  0  0  0  0  0
  -25.9440  -30.7920   21.4080 C   0  0  0  0  0  2  0  0  0  0  0  0
  -26.0180  -29.4110   20.7640 C   0  0  0  0  0  0  0  0  0  0  0  0
  -27.1970  -28.6000   20.7590 C   0  0  0  0  0  3  0  0  0  0  0  0
  -26.0010  -26.8970   19.5200 C   0  0  0  0  0  3  0  0  0  0  0  0
  -24.8390  -27.6850   19.5340 C   0  0  0  0  0  3  0  0  0  0  0  0
  -23.6100  -29.8150   20.2160 C   0  0  0  0  0  2  0  0  0  0  0  0
  -24.6710  -31.0730   22.1330 N   0  0  0  0  0  0  0  0  0  0  0  0
  -23.5310  -32.1690   23.7640 O   0  0  0  0  0  0  0  0  0  0  0  0
  -22.7400  -29.4730   22.5600 C   0  0  0  0  0  0  0  0  0  0  0  0
  -21.4130  -29.2940   22.4370 N   0  0  0  0  0  0  0  0  0  0  0  0
  -23.4210  -28.8490   23.3790 O   0  0  0  0  0  0  0  0  0  0  0  0
  -20.9250  -29.8480   21.7470 H   0  0  0  0  0  0  0  0  0  0  0  0
  -18.0380  -28.0940   22.9400 C   0  0  0  0  0  0  0  0  0  0  0  0
  -20.5960  -28.3610   23.2130 C   0  0  0  0  0  3  0  0  0  0  0  0
  -20.7010  -26.9260   22.6470 C   0  0  0  0  0  2  0  0  0  0  0  0
  -19.6010  -26.5950   21.6330 C   0  0  0  0  0  2  0  0  0  0  0  0
  -18.2180  -26.7410   22.2750 C   0  0  0  0  0  2  0  0  0  0  0  0
  -19.1540  -28.8620   23.3660 C   0  0  0  0  0  0  0  0  0  0  0  0
  -18.9320  -30.1280   23.9510 C   0  0  0  0  0  3  0  0  0  0  0  0
  -17.6260  -30.6270   24.1130 C   0  0  0  0  0  3  0  0  0  0  0  0
  -16.5240  -29.8570   23.7030 C   0  0  0  0  0  3  0  0  0  0  0  0
  -16.7310  -28.5930   23.1220 C   0  0  0  0  0  3  0  0  0  0  0  0
  -25.8990  -32.5180   23.8430 C   0  0  0  0  0  3  0  0  0  0  0  0
  -25.5910  -33.9170   24.1770 N   0  0  0  0  0  0  0  0  0  0  0  0
  -25.9170  -34.9710   23.4170 C   0  0  0  0  0  0  0  0  0  0  0  0
  -26.5790  -34.8690   22.3810 O   0  0  0  0  0  0  0  0  0  0  0  0
  -25.0030  -34.0700   24.9820 H   0  0  0  0  0  0  0  0  0  0  0  0
  -24.1850  -36.7630   23.0780 C   0  0  0  0  0  1  0  0  0  0  0  0
  -25.4310  -36.3590   23.8800 C   0  0  0  0  0  3  0  0  0  0  0  0
  -27.5730  -37.2410   24.6970 C   0  0  0  0  0  1  0  0  0  0  0  0
  -26.4640  -37.4120   23.7630 N   0  0  0  0  0  0  0  0  0  0  0  0
  -26.0580  -38.3330   23.9160 H   0  0  0  0  0  0  0  0  0  0  0  0
  -26.4210  -31.7470   25.1160 C   0  0  1  0  0  0  0  0  0  0  0  0
  -25.3350  -31.5120   26.1910 C   0  0  0  0  0  1  0  0  0  0  0  0
  -27.0010  -30.3680   24.7230 C   0  0  0  0  0  1  0  0  0  0  0  0
  -27.5770  -32.5390   25.7720 C   0  0  0  0  0  1  0  0  0  0  0  0
  2  4  1  0
  3  5  2  0
  4  1  2  0
  5  1  1  0
  5 52  1  0
  6  2  2  0
  6  3  1  0
  7  4  1  0
  7  8  1  0
  8 10  1  0
  9  7  2  0
 11  8  1  0
 11 12  1  0
 13 12  1  0
 14 19  1  0
 15 16  1  0
 15 14  1  0
 17 16  1  0
 17 24  1  0
 17 18  1  0
 19 13  1  0
 19 18  1  0
 20 13  2  0
 21 22  2  0
 22 41  1  0
 23 22  1  0
 23 26  1  0
 24 21  1  0
 24 25  1  0
 25 23  2  0
 26 27  1  0
 27 28  2  0
 29 32  1  0
 29 28  1  0
 30 29  2  0
 31 30  1  0
 31 26  2  0
 32 33  1  0
 33 34  1  0
 34 35  2  0
 36 35  1  0
 36 40  1  0
 37 36  2  0
 38 33  2  0
 38 37  1  0
 39 38  1  0
 41 42  1  0
 42 45  1  0
 42 44  1  0
 43 41  2  0
 46 47  1  0
 46 21  1  0
 48 46  1  0
 49 50  1  0
 49 51  1  0
 49  6  1  0
 53 52  1  0
 54 65  2  0
 55 53  1  0
 55 60  1  0
 56 64  1  0
 56 66  1  0
 57 63  1  0
 57 59  1  0
 58 64  1  0
 59 58  1  0
 60 59  2  0
 61 62  1  0
 61 55  2  0
 62 57  2  0
 63 56  1  0
 64 54  1  0
 66 68  2  0
 67 66  1  0
 69 67  1  0
 70 79  2  0
 70 75  1  0
 71 67  1  0
 71 75  1  0
 72 71  1  0
 73 74  1  0
 73 72  1  0
 74 70  1  0
 75 76  2  0
 76 77  1  0
 78 77  2  0
 79 78  1  0
 80 54  1  0
 80 81  1  0
 80 90  1  0
 81 84  1  0
 82 86  1  0
 82 81  1  0
 83 82  2  0
 86 85  1  0
 88 86  1  0
 88 89  1  0
 88 87  1  0
 90 93  1  1
 90 91  1  0
 92 90  1  0
M  ISO  4  12 100  13 100  52 101  53 101
M  END
>  <TORSDO>  (40) 
F 21

>  <SCORE>  (40) 
-13.673

>  <name>  (40) 
39

>  <ligand_id>  (40) 
39

>  <original_smiles>  (40) 
[H]c1c([H])c([H])c2c(c1[H])C([H])([H])C([H])([H])C([H])([H])C2([H])N([H])C(=O)C1([H])N(C(=O)C([H])(N([H])C(=O)C([H])(N([H])C([H])([H])[H])C([H])([H])[H])C(C([H])([H])[H])(C([H])([H])[H])C([H])([H])[H])C([H])([H])c2c([H])c(OC([H])([H])c3c([H])c(C(=O)N([H])C([H])([H])C([H])([H])C(=O)N4C([H])([H])C([H])([H])C([H])([H])C([H])(n5nc(-c6c([H])c([H])c(Oc7c([H])c([H])c(F)c([H])c7F)c([H])c6[H])c(C(=O)N([H])[H])c5N([H])[H])C4([H])[H])c([H])c(N([H])[H])c3[H])c([H])c([H])c2C1([H])[H]

>  <smiles>  (40) 
[H]c1c([H])c([H])c2c(c1[H])C([H])([H])C([H])([H])C([H])([H])C2([H])N([H])C(=O)C1([H])N(C(=O)C([H])(N([H])C(=O)C([H])(N([H])C([H])([H])[H])C([H])([H])[H])C(C([H])([H])[H])(C([H])([H])[H])C([H])([H])[H])C([H])([H])c2c([H])c(OC([H])([H])c3c([H])c(C(=O)N([H])C([H])([H])C([H])([H])C(=O)N4C([H])([H])C([H])([H])C([H])([H])C([H])(n5nc(-c6c([H])c([H])c(Oc7c([H])c([H])c(F)c([H])c7F)c([H])c6[H])c(C(=O)N([H])[H])c5N([H])[H])C4([H])[H])c([H])c(N([H])[H])c3[H])c([H])c([H])c2C1([H])[H]

$$$$
40:0:0
     RDKit          3D

 91101  0  0  1  0  0  0  0  0999 V2000
  -27.5850  -22.9370   21.4430 C   0  0  0  0  0  3  0  0  0  0  0  0
  -27.6350  -24.2160   20.8310 C   0  0  0  0  0  3  0  0  0  0  0  0
  -28.8280  -23.1250   19.0220 C   0  0  0  0  0  3  0  0  0  0  0  0
  -28.1310  -21.7550   20.8740 C   0  0  0  0  0  0  0  0  0  0  0  0
  -28.8120  -21.6960   19.6440 C   0  0  0  0  0  0  0  0  0  0  0  0
  -28.2410  -24.4640   19.5780 C   0  0  0  0  0  0  0  0  0  0  0  0
  -29.8600  -18.7930   20.9630 C   0  0  0  0  0  0  0  0  0  0  0  0
  -27.9310  -20.4120   21.5310 C   0  0  0  0  0  2  0  0  0  0  0  0
  -29.1400  -19.9810   19.2690 C   0  0  0  0  0  3  0  0  0  0  0  0
  -28.4820  -19.3890   20.5440 C   0  0  0  0  0  3  0  0  0  0  0  0
  -30.2240  -18.5170   19.5060 C   0  0  0  0  0  3  0  0  0  0  0  0
  -30.4340  -18.6030   22.0380 O   0  0  0  0  0  0  0  0  0  0  0  0
  -30.8220  -15.5780   19.3550 C   0  0  0  0  0  0  0  0  0  0  0  0
  -30.8090  -13.0630   18.6600 C   0  0  0  0  0  2  0  0  0  0  0  0
  -29.7750  -12.6880   17.5670 C   0  0  0  0  0  2  0  0  0  0  0  0
  -28.3950  -12.4100   18.1850 C   0  0  0  0  0  2  0  0  0  0  0  0
  -28.0190  -13.4620   19.2580 C   0  0  0  0  0  3  0  0  0  0  0  0
  -29.1700  -13.7510   20.2430 C   0  0  0  0  0  2  0  0  0  0  0  0
  -30.2930  -14.2550   19.4320 N   0  0  0  0  0  0  0  0  0  0  0  0
  -32.0320  -15.5800   19.0820 O   0  0  0  0  0  0  0  0  0  0  0  0
  -30.0230  -16.8410   19.3770 N   0  0  0  0  0  0  0  0  0  0  0  0
  -29.0460  -16.6050   19.4680 H   0  0  0  0  0  0  0  0  0  0  0  0
  -25.8180  -14.0500   20.3990 C   0  0  0  0  0  0  0  0  0  0  0  0
  -24.7790  -13.2910   20.8530 C   0  0  0  0  0  0  0  0  0  0  0  0
  -25.1590  -11.9290   20.6390 C   0  0  0  0  0  0  0  0  0  0  0  0
  -26.7640  -13.1570   19.9320 N   0  0  0  0  0  0  0  0  0  0  0  0
  -26.3900  -11.8680   20.1410 N   0  0  0  0  0  0  0  0  0  0  0  0
  -24.3930  -10.6880   20.8210 C   0  0  0  0  0  0  0  0  0  0  0  0
  -24.8060   -9.6930   21.7340 C   0  0  0  0  0  3  0  0  0  0  0  0
  -24.0390   -8.5190   21.9060 C   0  0  0  0  0  3  0  0  0  0  0  0
  -22.8480   -8.3350   21.1670 C   0  0  0  0  0  0  0  0  0  0  0  0
  -22.4540   -9.3180   20.2420 C   0  0  0  0  0  3  0  0  0  0  0  0
  -23.2210  -10.4830   20.0680 C   0  0  0  0  0  3  0  0  0  0  0  0
  -22.0530   -7.2160   21.2510 O   0  0  0  0  0  0  0  0  0  0  0  0
  -21.8800   -6.5430   22.4350 C   0  0  0  0  0  0  0  0  0  0  0  0
  -21.3520   -7.1780   23.5800 C   0  0  0  0  0  3  0  0  0  0  0  0
  -21.1250   -6.4330   24.7560 C   0  0  0  0  0  3  0  0  0  0  0  0
  -21.4150   -5.0550   24.7840 C   0  0  0  0  0  0  0  0  0  0  0  0
  -21.9340   -4.4210   23.6420 C   0  0  0  0  0  3  0  0  0  0  0  0
  -22.1630   -5.1630   22.4690 C   0  0  0  0  0  0  0  0  0  0  0  0
  -22.6440   -4.5440   21.3650 F   0  0  0  0  0  0  0  0  0  0  0  0
  -21.1890   -4.3370   25.9090 F   0  0  0  0  0  0  0  0  0  0  0  0
  -23.4600  -13.8030   21.3560 C   0  0  0  0  0  0  0  0  0  0  0  0
  -22.8270  -13.0730   22.2670 N   0  0  0  0  0  0  0  0  0  0  0  0
  -23.0100  -14.8840   20.9780 O   0  0  0  0  0  0  0  0  0  0  0  0
  -23.2090  -12.1980   22.5930 H   0  0  0  0  0  0  0  0  0  0  0  0
  -21.9470  -13.3940   22.6440 H   0  0  0  0  0  0  0  0  0  0  0  0
  -26.0260  -15.4240   20.3080 N   0  0  0  0  0  0  0  0  0  0  0  0
  -25.2880  -16.0800   20.5410 H   0  0  0  0  0  0  0  0  0  0  0  0
  -26.7740  -15.8460   19.7740 H   0  0  0  0  0  0  0  0  0  0  0  0
  -28.2330  -25.9510   19.1480 O   0  0  0  0  0  0  0  0  0  0  0  0
  -24.7270  -31.6240   22.8450 C   0  0  0  0  0  0  0  0  0  0  0  0
  -27.1960  -27.0240   19.3270 C   0  0  0  0  0  0  0  0  0  0  0  0
  -23.4620  -30.3110   21.1910 C   0  0  0  0  0  3  0  0  0  0  0  0
  -24.8530  -28.8490   19.5710 C   0  0  0  0  0  0  0  0  0  0  0  0
  -26.0080  -30.6040   20.8940 C   0  0  0  0  0  2  0  0  0  0  0  0
  -26.0710  -29.2390   20.1410 C   0  0  0  0  0  0  0  0  0  0  0  0
  -27.2340  -28.3490   19.9980 C   0  0  0  0  0  3  0  0  0  0  0  0
  -25.9390  -26.7980   18.7210 C   0  0  0  0  0  3  0  0  0  0  0  0
  -24.8090  -27.6500   18.8420 C   0  0  0  0  0  3  0  0  0  0  0  0
  -23.6170  -29.7320   19.7590 C   0  0  0  0  0  2  0  0  0  0  0  0
  -24.7570  -30.8720   21.6960 N   0  0  0  0  0  0  0  0  0  0  0  0
  -23.6680  -31.8420   23.4560 O   0  0  0  0  0  0  0  0  0  0  0  0
  -22.8590  -29.2310   22.1290 C   0  0  0  0  0  0  0  0  0  0  0  0
  -21.5290  -29.0270   22.0730 N   0  0  0  0  0  0  0  0  0  0  0  0
  -23.5940  -28.5790   22.8740 O   0  0  0  0  0  0  0  0  0  0  0  0
  -20.9860  -29.6000   21.4420 H   0  0  0  0  0  0  0  0  0  0  0  0
  -18.2400  -27.6110   22.6660 C   0  0  0  0  0  0  0  0  0  0  0  0
  -20.7900  -28.0140   22.8350 C   0  0  0  0  0  3  0  0  0  0  0  0
  -20.9460  -26.6130   22.1990 C   0  0  0  0  0  2  0  0  0  0  0  0
  -19.8230  -26.2700   21.2150 C   0  0  0  0  0  2  0  0  0  0  0  0
  -18.4640  -26.3070   21.9190 C   0  0  0  0  0  2  0  0  0  0  0  0
  -19.3320  -28.4180   23.0840 C   0  0  0  0  0  0  0  0  0  0  0  0
  -19.0660  -29.6330   23.7540 C   0  0  0  0  0  3  0  0  0  0  0  0
  -17.7440  -30.0430   24.0040 C   0  0  0  0  0  3  0  0  0  0  0  0
  -16.6680  -29.2360   23.5970 C   0  0  0  0  0  3  0  0  0  0  0  0
  -16.9170  -28.0210   22.9340 C   0  0  0  0  0  3  0  0  0  0  0  0
  -26.0200  -32.2630   23.4380 C   0  0  0  0  0  3  0  0  0  0  0  0
  -25.6700  -33.6000   23.9530 N   0  0  0  0  0  0  0  0  0  0  0  0
  -25.9360  -34.7570   23.3340 C   0  0  0  0  0  0  0  0  0  0  0  0
  -26.5640  -34.8140   22.2730 O   0  0  0  0  0  0  0  0  0  0  0  0
  -25.1010  -33.6240   24.7870 H   0  0  0  0  0  0  0  0  0  0  0  0
  -24.1460  -36.5290   23.2920 C   0  0  0  0  0  1  0  0  0  0  0  0
  -25.4300  -36.0580   23.9930 C   0  0  0  0  0  3  0  0  0  0  0  0
  -27.5700  -36.8990   24.8570 C   0  0  0  0  0  1  0  0  0  0  0  0
  -26.4280  -37.1500   23.9840 N   0  0  0  0  0  0  0  0  0  0  0  0
  -26.0020  -38.0290   24.2650 H   0  0  0  0  0  0  0  0  0  0  0  0
  -26.6700  -31.3930   24.5840 C   0  0  1  0  0  0  0  0  0  0  0  0
  -25.6790  -30.9920   25.7020 C   0  0  0  0  0  1  0  0  0  0  0  0
  -27.2790  -30.0930   24.0140 C   0  0  0  0  0  1  0  0  0  0  0  0
  -27.8360  -32.1740   25.2360 C   0  0  0  0  0  1  0  0  0  0  0  0
  2  1  2  0
  3  6  2  0
  3  5  1  0
  4  1  1  0
  4  8  1  0
  5  4  2  0
  6  2  1  0
  7 12  2  0
  9 11  1  0
  9  5  1  0
  9 10  1  0
 10  7  1  0
 10  8  1  0
 11 21  1  0
 11  7  1  0
 13 21  1  0
 13 19  1  0
 14 19  1  0
 15 16  1  0
 15 14  1  0
 17 16  1  0
 17 26  1  0
 17 18  1  0
 19 18  1  0
 20 13  2  0
 21 22  1  0
 23 24  2  0
 24 43  1  0
 25 28  1  0
 25 24  1  0
 26 27  1  0
 26 23  1  0
 27 25  2  0
 28 29  1  0
 29 30  2  0
 31 34  1  0
 31 30  1  0
 32 31  2  0
 33 32  1  0
 33 28  2  0
 34 35  1  0
 35 40  2  0
 35 36  1  0
 36 37  2  0
 37 38  1  0
 38 42  1  0
 39 38  2  0
 40 39  1  0
 41 40  1  0
 43 44  1  0
 44 46  1  0
 44 47  1  0
 45 43  2  0
 48 23  1  0
 48 49  1  0
 50 48  1  0
 51 53  1  0
 51  6  1  0
 52 63  2  0
 53 58  1  0
 54 62  1  0
 54 64  1  0
 55 61  1  0
 55 57  1  0
 56 62  1  0
 57 56  1  0
 58 57  2  0
 59 60  1  0
 59 53  2  0
 60 55  2  0
 61 54  1  0
 62 52  1  0
 64 66  2  0
 65 64  1  0
 67 65  1  0
 68 77  2  0
 68 73  1  0
 69 65  1  0
 69 73  1  0
 70 69  1  0
 71 72  1  0
 71 70  1  0
 72 68  1  0
 73 74  2  0
 74 75  1  0
 76 75  2  0
 77 76  1  0
 78 52  1  0
 78 79  1  0
 78 88  1  0
 79 82  1  0
 80 79  1  0
 80 84  1  0
 81 80  2  0
 84 83  1  0
 86 84  1  0
 86 87  1  0
 86 85  1  0
 88 91  1  1
 88 89  1  0
 90 88  1  0
M  ISO  4   6 101  13 100  21 100  51 101
M  END
>  <TORSDO>  (41) 
F 16

>  <SCORE>  (41) 
-12.802

>  <name>  (41) 
40

>  <ligand_id>  (41) 
40

>  <original_smiles>  (41) 
[H]c1c([H])c([H])c2c(c1[H])C([H])([H])C([H])([H])C([H])([H])C2([H])N([H])C(=O)C1([H])N(C(=O)C([H])(N([H])C(=O)C([H])(N([H])C([H])([H])[H])C([H])([H])[H])C(C([H])([H])[H])(C([H])([H])[H])C([H])([H])[H])C([H])([H])c2c([H])c(Oc3c([H])c([H])c4c(c3[H])C3([H])C([H])(N([H])C(=O)N5C([H])([H])C([H])([H])C([H])([H])C([H])(n6nc(-c7c([H])c([H])c(Oc8c([H])c([H])c(F)c([H])c8F)c([H])c7[H])c(C(=O)N([H])[H])c6N([H])[H])C5([H])[H])C(=O)C3([H])C4([H])[H])c([H])c([H])c2C1([H])[H]

>  <smiles>  (41) 
[H]c1c([H])c([H])c2c(c1[H])C([H])([H])C([H])([H])C([H])([H])C2([H])N([H])C(=O)C1([H])N(C(=O)C([H])(N([H])C(=O)C([H])(N([H])C([H])([H])[H])C([H])([H])[H])C(C([H])([H])[H])(C([H])([H])[H])C([H])([H])[H])C([H])([H])c2c([H])c(Oc3c([H])c([H])c4c(c3[H])C3([H])C([H])(N([H])C(=O)N5C([H])([H])C([H])([H])C([H])([H])C([H])(n6nc(-c7c([H])c([H])c(Oc8c([H])c([H])c(F)c([H])c8F)c([H])c7[H])c(C(=O)N([H])[H])c6N([H])[H])C5([H])[H])C(=O)C3([H])C4([H])[H])c([H])c([H])c2C1([H])[H]

$$$$
41:0:0
     RDKit          3D

 93102  0  0  1  0  0  0  0  0999 V2000
  -28.6970  -21.8690   20.3490 C   0  0  0  0  0  2  0  0  0  0  0  0
  -30.7090  -14.6090   19.7430 C   0  0  0  0  0  0  0  0  0  0  0  0
  -30.2560  -12.4540   18.6150 C   0  0  0  0  0  2  0  0  0  0  0  0
  -29.1700  -12.6750   17.5390 C   0  0  0  0  0  2  0  0  0  0  0  0
  -27.7650  -12.5260   18.1520 C   0  0  0  0  0  2  0  0  0  0  0  0
  -27.5920  -13.3390   19.4630 C   0  0  0  0  0  3  0  0  0  0  0  0
  -28.7810  -13.1200   20.4240 C   0  0  0  0  0  2  0  0  0  0  0  0
  -30.0150  -13.4330   19.6890 N   0  0  0  0  0  0  0  0  0  0  0  0
  -31.8020  -14.7450   19.1820 O   0  0  0  0  0  0  0  0  0  0  0  0
  -30.0340  -18.7860   22.3480 C   0  0  0  0  0  3  0  0  0  0  0  0
  -29.2950  -19.4240   19.6900 C   0  0  0  0  0  3  0  0  0  0  0  0
  -29.9990  -17.7880   21.3580 C   0  0  0  0  0  0  0  0  0  0  0  0
  -29.6600  -18.1000   20.0600 C   0  0  0  0  0  0  0  0  0  0  0  0
  -29.6690  -20.1190   22.0110 C   0  0  0  0  0  0  0  0  0  0  0  0
  -29.2690  -20.4560   20.6790 C   0  0  0  0  0  0  0  0  0  0  0  0
  -30.2650  -16.3000   21.4990 C   0  0  0  0  0  3  0  0  0  0  0  0
  -29.7130  -16.8310   19.2280 C   0  0  0  0  0  3  0  0  0  0  0  0
  -29.6680  -21.1620   23.1180 C   0  0  0  0  0  1  0  0  0  0  0  0
  -30.0140  -15.7040   20.1630 N   0  0  0  0  0  0  0  0  0  0  0  0
  -25.3480  -13.9420   20.5630 C   0  0  0  0  0  0  0  0  0  0  0  0
  -24.3090  -13.1690   21.0090 C   0  0  0  0  0  0  0  0  0  0  0  0
  -24.7080  -11.8130   20.7990 C   0  0  0  0  0  0  0  0  0  0  0  0
  -26.3130  -13.0560   20.1090 N   0  0  0  0  0  0  0  0  0  0  0  0
  -25.9410  -11.7660   20.3080 N   0  0  0  0  0  0  0  0  0  0  0  0
  -23.9640  -10.5600   20.9820 C   0  0  0  0  0  0  0  0  0  0  0  0
  -24.4370   -9.5400   21.8360 C   0  0  0  0  0  3  0  0  0  0  0  0
  -23.6950   -8.3500   22.0100 C   0  0  0  0  0  3  0  0  0  0  0  0
  -22.4670   -8.1740   21.3310 C   0  0  0  0  0  0  0  0  0  0  0  0
  -22.0110   -9.1840   20.4640 C   0  0  0  0  0  3  0  0  0  0  0  0
  -22.7530  -10.3650   20.2890 C   0  0  0  0  0  3  0  0  0  0  0  0
  -21.6910   -7.0440   21.4190 O   0  0  0  0  0  0  0  0  0  0  0  0
  -21.6380   -6.2950   22.5670 C   0  0  0  0  0  0  0  0  0  0  0  0
  -21.2360   -6.8520   23.8020 C   0  0  0  0  0  3  0  0  0  0  0  0
  -21.1280   -6.0300   24.9420 C   0  0  0  0  0  3  0  0  0  0  0  0
  -21.4130   -4.6540   24.8490 C   0  0  0  0  0  0  0  0  0  0  0  0
  -21.8090   -4.0990   23.6200 C   0  0  0  0  0  3  0  0  0  0  0  0
  -21.9180   -4.9170   22.4810 C   0  0  0  0  0  0  0  0  0  0  0  0
  -22.2780   -4.3710   21.2950 F   0  0  0  0  0  0  0  0  0  0  0  0
  -21.3020   -3.8640   25.9420 F   0  0  0  0  0  0  0  0  0  0  0  0
  -22.9850  -13.6590   21.5180 C   0  0  0  0  0  0  0  0  0  0  0  0
  -22.3630  -12.9170   22.4280 N   0  0  0  0  0  0  0  0  0  0  0  0
  -22.5140  -14.7330   21.1460 O   0  0  0  0  0  0  0  0  0  0  0  0
  -22.7580  -12.0460   22.7520 H   0  0  0  0  0  0  0  0  0  0  0  0
  -21.4800  -13.2240   22.8090 H   0  0  0  0  0  0  0  0  0  0  0  0
  -25.5440  -15.3180   20.4880 N   0  0  0  0  0  0  0  0  0  0  0  0
  -24.8390  -15.9830   20.7820 H   0  0  0  0  0  0  0  0  0  0  0  0
  -26.3830  -15.7610   20.1340 H   0  0  0  0  0  0  0  0  0  0  0  0
  -29.7060  -22.9610   20.1960 N   0  0  0  0  0  4  0  0  0  0  0  0
  -30.0130  -22.9750   19.2360 H   0  0  0  0  0  0  0  0  0  0  0  0
  -30.5020  -22.6620   20.7360 H   0  0  0  0  0  0  0  0  0  0  0  0
  -29.3600  -24.3580   20.6580 C   0  0  0  0  0  2  0  0  0  0  0  0
  -28.3910  -25.2010   19.7650 C   0  0  0  0  0  2  0  0  0  0  0  0
  -28.4140  -26.6340   20.0710 O   0  0  0  0  0  0  0  0  0  0  0  0
  -24.4540  -31.7540   23.1320 C   0  0  0  0  0  0  0  0  0  0  0  0
  -27.2370  -27.3790   20.0140 C   0  0  0  0  0  0  0  0  0  0  0  0
  -23.3020  -30.3380   21.4670 C   0  0  0  0  0  3  0  0  0  0  0  0
  -24.8100  -28.8700   20.0220 C   0  0  0  0  0  0  0  0  0  0  0  0
  -25.8240  -30.7620   21.2930 C   0  0  0  0  0  2  0  0  0  0  0  0
  -25.9530  -29.4000   20.6300 C   0  0  0  0  0  0  0  0  0  0  0  0
  -27.1680  -28.6640   20.6200 C   0  0  0  0  0  3  0  0  0  0  0  0
  -26.0730  -26.8940   19.3710 C   0  0  0  0  0  3  0  0  0  0  0  0
  -24.8680  -27.6200   19.3850 C   0  0  0  0  0  3  0  0  0  0  0  0
  -23.5410  -29.6930   20.0770 C   0  0  0  0  0  2  0  0  0  0  0  0
  -24.5450  -30.9670   22.0220 N   0  0  0  0  0  0  0  0  0  0  0  0
  -23.3600  -31.9860   23.6670 O   0  0  0  0  0  0  0  0  0  0  0  0
  -22.6770  -29.2810   22.4090 C   0  0  0  0  0  0  0  0  0  0  0  0
  -21.3600  -29.0550   22.2690 N   0  0  0  0  0  0  0  0  0  0  0  0
  -23.3760  -28.6700   23.2220 O   0  0  0  0  0  0  0  0  0  0  0  0
  -20.8570  -29.6030   21.5870 H   0  0  0  0  0  0  0  0  0  0  0  0
  -18.0250  -27.7390   22.7280 C   0  0  0  0  0  0  0  0  0  0  0  0
  -20.5710  -28.0810   23.0220 C   0  0  0  0  0  3  0  0  0  0  0  0
  -20.7260  -26.6610   22.4310 C   0  0  0  0  0  2  0  0  0  0  0  0
  -19.6430  -26.3120   21.4040 C   0  0  0  0  0  2  0  0  0  0  0  0
  -18.2520  -26.4040   22.0370 C   0  0  0  0  0  2  0  0  0  0  0  0
  -19.1130  -28.5330   23.1760 C   0  0  0  0  0  0  0  0  0  0  0  0
  -18.8470  -29.7820   23.7780 C   0  0  0  0  0  3  0  0  0  0  0  0
  -17.5240  -30.2370   23.9390 C   0  0  0  0  0  3  0  0  0  0  0  0
  -16.4500  -29.4380   23.5080 C   0  0  0  0  0  3  0  0  0  0  0  0
  -16.7010  -28.1920   22.9080 C   0  0  0  0  0  3  0  0  0  0  0  0
  -25.7130  -32.4190   23.7690 C   0  0  0  0  0  3  0  0  0  0  0  0
  -26.2500  -31.6480   25.0350 C   0  0  1  0  0  0  0  0  0  0  0  0
  -25.1620  -31.3580   26.0950 C   0  0  0  0  0  1  0  0  0  0  0  0
  -26.8790  -30.2960   24.6240 C   0  0  0  0  0  1  0  0  0  0  0  0
  -27.3710  -32.4700   25.7120 C   0  0  0  0  0  1  0  0  0  0  0  0
  -25.3560  -33.8020   24.1150 N   0  0  0  0  0  0  0  0  0  0  0  0
  -25.6490  -34.8740   23.3670 C   0  0  0  0  0  0  0  0  0  0  0  0
  -26.3200  -34.8060   22.3330 O   0  0  0  0  0  0  0  0  0  0  0  0
  -24.7600  -33.9250   24.9200 H   0  0  0  0  0  0  0  0  0  0  0  0
  -23.8570  -36.6070   23.0380 C   0  0  0  0  0  1  0  0  0  0  0  0
  -25.1140  -36.2380   23.8420 C   0  0  0  0  0  3  0  0  0  0  0  0
  -27.2200  -37.1900   24.6740 C   0  0  0  0  0  1  0  0  0  0  0  0
  -26.1090  -37.3290   23.7360 N   0  0  0  0  0  0  0  0  0  0  0  0
  -25.6700  -38.2330   23.8950 H   0  0  0  0  0  0  0  0  0  0  0  0
  1 15  1  0
  2 19  1  0
  3  8  1  0
  4  5  1  0
  4  3  1  0
  6  5  1  0
  6 23  1  0
  6  7  1  0
  8  2  1  0
  8  7  1  0
  9  2  2  0
 11 13  1  0
 11 15  2  0
 12 16  2  0
 12 10  1  0
 13 12  1  0
 14 10  2  0
 14 18  1  0
 15 14  1  0
 17 13  2  0
 17 19  1  0
 19 16  1  0
 20 21  2  0
 21 40  1  0
 22 25  1  0
 22 21  1  0
 23 24  1  0
 23 20  1  0
 24 22  2  0
 25 26  1  0
 26 27  2  0
 28 31  1  0
 28 27  1  0
 29 28  2  0
 30 29  1  0
 30 25  2  0
 31 32  1  0
 32 33  1  0
 33 34  2  0
 35 34  1  0
 35 39  1  0
 36 35  2  0
 37 32  2  0
 37 36  1  0
 38 37  1  0
 40 41  1  0
 41 43  1  0
 41 44  1  0
 42 40  2  0
 45 20  1  0
 45 46  1  0
 47 45  1  0
 48  1  1  0
 48 51  1  0
 48 50  1  0
 49 48  1  0
 52 53  1  0
 52 51  1  0
 54 65  2  0
 55 53  1  0
 55 60  1  0
 56 64  1  0
 56 66  1  0
 57 63  1  0
 57 59  1  0
 58 64  1  0
 59 58  1  0
 60 59  2  0
 61 62  1  0
 61 55  2  0
 62 57  2  0
 63 56  1  0
 64 54  1  0
 66 68  2  0
 67 66  1  0
 69 67  1  0
 70 79  2  0
 70 75  1  0
 71 67  1  0
 71 75  1  0
 72 71  1  0
 73 74  1  0
 73 72  1  0
 74 70  1  0
 75 76  2  0
 76 77  1  0
 78 77  2  0
 79 78  1  0
 80 54  1  0
 80 85  1  0
 80 81  1  0
 81 84  1  1
 81 82  1  0
 83 81  1  0
 85 88  1  0
 86 90  1  0
 86 85  1  0
 87 86  2  0
 90 89  1  0
 92 90  1  0
 92 93  1  0
 92 91  1  0
M  ISO  4   2 100  19 100  52 101  53 101
M  END
>  <TORSDO>  (42) 
F 19

>  <SCORE>  (42) 
-11.989

>  <name>  (42) 
41

>  <ligand_id>  (42) 
41

>  <original_smiles>  (42) 
[H]c1c([H])c([H])c2c(c1[H])C([H])([H])C([H])([H])C([H])([H])C2([H])N([H])C(=O)C1([H])N(C(=O)C([H])(N([H])C(=O)C([H])(N([H])C([H])([H])[H])C([H])([H])[H])C(C([H])([H])[H])(C([H])([H])[H])C([H])([H])[H])C([H])([H])c2c([H])c(OC([H])([H])C([H])([H])[N+]([H])([H])C([H])([H])c3c([H])c4c(c([H])c3C([H])([H])[H])C([H])([H])N(C(=O)N3C([H])([H])C([H])([H])C([H])([H])C([H])(n5nc(-c6c([H])c([H])c(Oc7c([H])c([H])c(F)c([H])c7F)c([H])c6[H])c(C(=O)N([H])[H])c5N([H])[H])C3([H])[H])C4([H])[H])c([H])c([H])c2C1([H])[H]

>  <smiles>  (42) 
[H]c1c([H])c([H])c2c(c1[H])C([H])([H])C([H])([H])C([H])([H])C2([H])N([H])C(=O)C1([H])N(C(=O)C([H])(N([H])C(=O)C([H])(N([H])C([H])([H])[H])C([H])([H])[H])C(C([H])([H])[H])(C([H])([H])[H])C([H])([H])[H])C([H])([H])c2c([H])c(OC([H])([H])C([H])([H])[N+]([H])([H])C([H])([H])c3c([H])c4c(c([H])c3C([H])([H])[H])C([H])([H])N(C(=O)N3C([H])([H])C([H])([H])C([H])([H])C([H])(n5nc(-c6c([H])c([H])c(Oc7c([H])c([H])c(F)c([H])c7F)c([H])c6[H])c(C(=O)N([H])[H])c5N([H])[H])C3([H])[H])C4([H])[H])c([H])c([H])c2C1([H])[H]

$$$$
42:0:0
     RDKit          3D

 90 98  0  0  1  0  0  0  0  0999 V2000
  -30.6500  -21.0840   19.3830 C   0  0  0  0  0  3  0  0  0  0  0  0
  -30.1440  -23.5230   19.3520 C   0  0  0  0  0  3  0  0  0  0  0  0
  -30.9430  -22.4100   18.9660 C   0  0  0  0  0  0  0  0  0  0  0  0
  -29.5560  -20.7700   20.2180 C   0  0  0  0  0  0  0  0  0  0  0  0
  -29.0050  -23.3840   20.1810 C   0  0  0  0  0  0  0  0  0  0  0  0
  -28.7470  -21.9690   20.6100 C   0  0  0  0  0  0  0  0  0  0  0  0
  -32.1540  -22.6260   18.0640 C   0  0  0  0  0  1  0  0  0  0  0  0
  -27.5660  -21.7180   21.5430 C   0  0  0  0  0  1  0  0  0  0  0  0
  -29.2950  -19.1690   20.6140 C   0  0  0  0  0  3  0  0  0  0  0  0
  -30.2700  -17.8270   20.2240 C   0  0  0  0  0  3  0  0  0  0  0  0
  -30.6450  -15.0820   20.2730 C   0  0  0  0  0  0  0  0  0  0  0  0
  -30.4730  -12.7530   19.2870 C   0  0  0  0  0  2  0  0  0  0  0  0
  -29.5170  -12.7440   18.0740 C   0  0  0  0  0  2  0  0  0  0  0  0
  -28.0690  -12.5160   18.5350 C   0  0  0  0  0  2  0  0  0  0  0  0
  -27.6820  -13.4170   19.7370 C   0  0  0  0  0  3  0  0  0  0  0  0
  -28.7610  -13.4160   20.8460 C   0  0  0  0  0  2  0  0  0  0  0  0
  -30.0220  -13.8320   20.2150 N   0  0  0  0  0  0  0  0  0  0  0  0
  -31.8360  -15.1200   19.9460 O   0  0  0  0  0  0  0  0  0  0  0  0
  -29.9120  -16.2940   20.4710 N   0  0  0  0  0  0  0  0  0  0  0  0
  -28.9490  -16.1400   20.7310 H   0  0  0  0  0  0  0  0  0  0  0  0
  -25.3080  -13.9870   20.5050 C   0  0  0  0  0  0  0  0  0  0  0  0
  -24.2500  -13.2090   20.8840 C   0  0  0  0  0  0  0  0  0  0  0  0
  -24.7120  -11.8570   20.8370 C   0  0  0  0  0  0  0  0  0  0  0  0
  -26.3500  -13.1120   20.2490 N   0  0  0  0  0  0  0  0  0  0  0  0
  -26.0000  -11.8240   20.5130 N   0  0  0  0  0  0  0  0  0  0  0  0
  -23.9860  -10.5940   21.0210 C   0  0  0  0  0  0  0  0  0  0  0  0
  -24.4160   -9.6290   21.9600 C   0  0  0  0  0  3  0  0  0  0  0  0
  -23.6930   -8.4280   22.1320 C   0  0  0  0  0  3  0  0  0  0  0  0
  -22.5260   -8.1890   21.3670 C   0  0  0  0  0  0  0  0  0  0  0  0
  -22.1170   -9.1420   20.4210 C   0  0  0  0  0  3  0  0  0  0  0  0
  -22.8380  -10.3350   20.2450 C   0  0  0  0  0  3  0  0  0  0  0  0
  -21.7740   -7.0410   21.4520 O   0  0  0  0  0  0  0  0  0  0  0  0
  -21.7000   -6.3130   22.6120 C   0  0  0  0  0  0  0  0  0  0  0  0
  -21.2130   -6.8680   23.8150 C   0  0  0  0  0  3  0  0  0  0  0  0
  -21.0890   -6.0640   24.9660 C   0  0  0  0  0  3  0  0  0  0  0  0
  -21.4440   -4.7010   24.9120 C   0  0  0  0  0  0  0  0  0  0  0  0
  -21.9240   -4.1440   23.7150 C   0  0  0  0  0  3  0  0  0  0  0  0
  -22.0500   -4.9470   22.5700 C   0  0  0  0  0  0  0  0  0  0  0  0
  -22.4930   -4.4010   21.4110 F   0  0  0  0  0  0  0  0  0  0  0  0
  -21.3210   -3.9260   26.0150 F   0  0  0  0  0  0  0  0  0  0  0  0
  -22.8570  -13.6860   21.1810 C   0  0  0  0  0  0  0  0  0  0  0  0
  -22.1340  -12.9780   22.0410 N   0  0  0  0  0  0  0  0  0  0  0  0
  -22.4200  -14.7260   20.6880 O   0  0  0  0  0  0  0  0  0  0  0  0
  -22.4990  -12.1380   22.4660 H   0  0  0  0  0  0  0  0  0  0  0  0
  -21.2010  -13.2810   22.2770 H   0  0  0  0  0  0  0  0  0  0  0  0
  -25.4600  -15.3610   20.3350 N   0  0  0  0  0  0  0  0  0  0  0  0
  -24.6580  -15.9780   20.3970 H   0  0  0  0  0  0  0  0  0  0  0  0
  -26.2710  -15.8040   19.9240 H   0  0  0  0  0  0  0  0  0  0  0  0
  -28.0780  -24.7280   20.5100 C   0  0  0  0  0  2  0  0  0  0  0  0
  -28.3750  -26.2410   20.2150 O   0  0  0  0  0  0  0  0  0  0  0  0
  -24.6470  -31.9140   23.2300 C   0  0  0  0  0  0  0  0  0  0  0  0
  -27.3090  -27.2280   20.1940 C   0  0  0  0  0  0  0  0  0  0  0  0
  -23.4780  -30.5090   21.5800 C   0  0  0  0  0  3  0  0  0  0  0  0
  -24.9590  -28.9570   20.1610 C   0  0  0  0  0  0  0  0  0  0  0  0
  -26.0330  -30.7980   21.4400 C   0  0  0  0  0  2  0  0  0  0  0  0
  -26.1290  -29.4090   20.7780 C   0  0  0  0  0  0  0  0  0  0  0  0
  -27.3090  -28.5630   20.7740 C   0  0  0  0  0  3  0  0  0  0  0  0
  -26.1070  -26.8920   19.5280 C   0  0  0  0  0  3  0  0  0  0  0  0
  -24.9600  -27.7150   19.5170 C   0  0  0  0  0  3  0  0  0  0  0  0
  -23.7210  -29.8410   20.2020 C   0  0  0  0  0  2  0  0  0  0  0  0
  -24.7390  -31.0950   22.1390 N   0  0  0  0  0  0  0  0  0  0  0  0
  -23.5530  -32.1850   23.7510 O   0  0  0  0  0  0  0  0  0  0  0  0
  -22.8010  -29.4900   22.5310 C   0  0  0  0  0  0  0  0  0  0  0  0
  -21.4730  -29.3140   22.3990 N   0  0  0  0  0  0  0  0  0  0  0  0
  -23.4700  -28.8610   23.3550 O   0  0  0  0  0  0  0  0  0  0  0  0
  -20.9920  -29.8710   21.7070 H   0  0  0  0  0  0  0  0  0  0  0  0
  -18.0860  -28.1230   22.9070 C   0  0  0  0  0  0  0  0  0  0  0  0
  -20.6510  -28.3690   23.1600 C   0  0  0  0  0  3  0  0  0  0  0  0
  -20.7400  -26.9460   22.5590 C   0  0  0  0  0  2  0  0  0  0  0  0
  -19.6280  -26.6460   21.5490 C   0  0  0  0  0  2  0  0  0  0  0  0
  -18.2520  -26.7850   22.2050 C   0  0  0  0  0  2  0  0  0  0  0  0
  -19.2120  -28.8750   23.3400 C   0  0  0  0  0  0  0  0  0  0  0  0
  -18.9990  -30.1270   23.9590 C   0  0  0  0  0  3  0  0  0  0  0  0
  -17.6970  -30.6290   24.1410 C   0  0  0  0  0  3  0  0  0  0  0  0
  -16.5880  -29.8760   23.7220 C   0  0  0  0  0  3  0  0  0  0  0  0
  -16.7830  -28.6220   23.1150 C   0  0  0  0  0  3  0  0  0  0  0  0
  -25.9130  -32.5630   23.8700 C   0  0  0  0  0  3  0  0  0  0  0  0
  -26.4150  -31.7970   25.1540 C   0  0  1  0  0  0  0  0  0  0  0  0
  -25.3060  -31.5470   26.2040 C   0  0  0  0  0  1  0  0  0  0  0  0
  -27.0140  -30.4250   24.7690 C   0  0  0  0  0  1  0  0  0  0  0  0
  -27.5560  -32.5960   25.8270 C   0  0  0  0  0  1  0  0  0  0  0  0
  -25.5860  -33.9570   24.2070 N   0  0  0  0  0  0  0  0  0  0  0  0
  -25.8930  -35.0180   23.4480 C   0  0  0  0  0  0  0  0  0  0  0  0
  -26.5470  -34.9260   22.4050 O   0  0  0  0  0  0  0  0  0  0  0  0
  -25.0040  -34.1010   25.0200 H   0  0  0  0  0  0  0  0  0  0  0  0
  -24.1300  -36.7830   23.1270 C   0  0  0  0  0  1  0  0  0  0  0  0
  -25.3940  -36.4020   23.9140 C   0  0  0  0  0  3  0  0  0  0  0  0
  -27.5290  -37.3200   24.7070 C   0  0  0  0  0  1  0  0  0  0  0  0
  -26.4100  -37.4690   23.7800 N   0  0  0  0  0  0  0  0  0  0  0  0
  -25.9970  -38.3850   23.9310 H   0  0  0  0  0  0  0  0  0  0  0  0
  1  4  1  0
  2  5  2  0
  3  2  1  0
  3  1  2  0
  4  6  2  0
  4  9  1  0
  5 49  1  0
  5  6  1  0
  6  8  1  0
  7  3  1  0
 10 19  1  0
 10  9  2  0
 11 19  1  0
 12 17  1  0
 13 14  1  0
 13 12  1  0
 15 14  1  0
 15 24  1  0
 15 16  1  0
 17 11  1  0
 17 16  1  0
 18 11  2  0
 19 20  1  0
 21 22  2  0
 22 41  1  0
 23 22  1  0
 23 26  1  0
 24 21  1  0
 24 25  1  0
 25 23  2  0
 26 27  1  0
 27 28  2  0
 29 32  1  0
 29 28  1  0
 30 29  2  0
 31 30  1  0
 31 26  2  0
 32 33  1  0
 33 34  1  0
 34 35  2  0
 36 35  1  0
 36 40  1  0
 37 36  2  0
 38 33  2  0
 38 37  1  0
 39 38  1  0
 41 42  1  0
 42 45  1  0
 42 44  1  0
 43 41  2  0
 46 47  1  0
 46 21  1  0
 48 46  1  0
 50 49  1  0
 51 62  2  0
 52 50  1  0
 52 57  1  0
 53 61  1  0
 53 63  1  0
 54 60  1  0
 54 56  1  0
 55 61  1  0
 56 55  1  0
 57 56  2  0
 58 52  2  0
 59 58  1  0
 59 54  2  0
 60 53  1  0
 61 51  1  0
 63 65  2  0
 64 63  1  0
 66 64  1  0
 67 76  2  0
 67 72  1  0
 68 64  1  0
 68 72  1  0
 69 68  1  0
 70 71  1  0
 70 69  1  0
 71 67  1  0
 72 73  2  0
 73 74  1  0
 75 74  2  0
 76 75  1  0
 77 51  1  0
 77 82  1  0
 77 78  1  0
 78 81  1  1
 78 79  1  0
 80 78  1  0
 82 85  1  0
 83 87  1  0
 83 82  1  0
 84 83  2  0
 87 86  1  0
 89 87  1  0
 89 90  1  0
 89 88  1  0
M  ISO  4  11 100  19 100  49 101  50 101
M  END
>  <TORSDO>  (43) 
F 19

>  <SCORE>  (43) 
-14.628

>  <name>  (43) 
42

>  <ligand_id>  (43) 
42

>  <original_smiles>  (43) 
[H]c1c([H])c([H])c2c(c1[H])C([H])([H])C([H])([H])C([H])([H])C2([H])N([H])C(=O)C1([H])N(C(=O)C([H])(N([H])C(=O)C([H])(N([H])C([H])([H])[H])C([H])([H])[H])C(C([H])([H])[H])(C([H])([H])[H])C([H])([H])[H])C([H])([H])c2c([H])c(OC([H])([H])c3c([H])c(C([H])([H])[H])c([H])c(C([H])([H])C([H])([H])N([H])C(=O)N4C([H])([H])C([H])([H])C([H])([H])C([H])(n5nc(-c6c([H])c([H])c(Oc7c([H])c([H])c(F)c([H])c7F)c([H])c6[H])c(C(=O)N([H])[H])c5N([H])[H])C4([H])[H])c3C([H])([H])[H])c([H])c([H])c2C1([H])[H]

>  <smiles>  (43) 
[H]c1c([H])c([H])c2c(c1[H])C([H])([H])C([H])([H])C([H])([H])C2([H])N([H])C(=O)C1([H])N(C(=O)C([H])(N([H])C(=O)C([H])(N([H])C([H])([H])[H])C([H])([H])[H])C(C([H])([H])[H])(C([H])([H])[H])C([H])([H])[H])C([H])([H])c2c([H])c(OC([H])([H])c3c([H])c(C([H])([H])[H])c([H])c(C([H])([H])C([H])([H])N([H])C(=O)N4C([H])([H])C([H])([H])C([H])([H])C([H])(n5nc(-c6c([H])c([H])c(Oc7c([H])c([H])c(F)c([H])c7F)c([H])c6[H])c(C(=O)N([H])[H])c5N([H])[H])C4([H])[H])c3C([H])([H])[H])c([H])c([H])c2C1([H])[H]

$$$$
43:0:0
     RDKit          3D

 94103  0  0  1  0  0  0  0  0999 V2000
  -32.1020  -17.3800   17.8300 C   0  0  0  0  0  2  0  0  0  0  0  0
  -29.0040  -19.5560   20.2030 C   0  0  0  0  0  2  0  0  0  0  0  0
  -31.3540  -19.4740   21.2850 C   0  0  0  0  0  2  0  0  0  0  0  0
  -32.0510  -16.0550   18.5760 C   0  0  0  0  0  2  0  0  0  0  0  0
  -31.0710  -18.2580   18.5250 C   0  0  0  0  0  2  0  0  0  0  0  0
  -29.0880  -17.9980   20.1160 C   0  0  0  0  0  2  0  0  0  0  0  0
  -31.3450  -17.9240   21.0280 C   0  0  0  0  0  2  0  0  0  0  0  0
  -29.9900  -20.2440   21.1950 C   0  0  0  0  0  3  0  0  0  0  0  0
  -30.6610  -15.9460   19.2930 C   0  0  1  0  0  0  0  0  0  0  0  0
  -30.5210  -17.4890   19.7780 C   0  0  2  0  0  0  0  0  0  0  0  0
  -29.6630  -15.6960   18.1230 C   0  0  0  0  0  1  0  0  0  0  0  0
  -30.7710  -14.6990   20.3240 C   0  0  0  0  0  0  0  0  0  0  0  0
  -30.4260  -12.4370   19.4320 C   0  0  0  0  0  2  0  0  0  0  0  0
  -29.4710  -12.3730   18.2300 C   0  0  0  0  0  2  0  0  0  0  0  0
  -27.9940  -12.3320   18.6700 C   0  0  0  0  0  2  0  0  0  0  0  0
  -27.6250  -13.2490   19.8750 C   0  0  0  0  0  3  0  0  0  0  0  0
  -28.7290  -13.2740   20.9560 C   0  0  0  0  0  2  0  0  0  0  0  0
  -30.0040  -13.5630   20.2720 N   0  0  0  0  0  0  0  0  0  0  0  0
  -31.8890  -14.5930   20.8050 O   0  0  0  0  0  0  0  0  0  0  0  0
  -25.2260  -13.8240   20.5750 C   0  0  0  0  0  0  0  0  0  0  0  0
  -24.1580  -13.0370   20.9100 C   0  0  0  0  0  0  0  0  0  0  0  0
  -24.6400  -11.6930   20.8950 C   0  0  0  0  0  0  0  0  0  0  0  0
  -26.2890  -12.9540   20.3800 N   0  0  0  0  0  0  0  0  0  0  0  0
  -25.9410  -11.6700   20.6380 N   0  0  0  0  0  0  0  0  0  0  0  0
  -23.9270  -10.4210   21.0570 C   0  0  0  0  0  0  0  0  0  0  0  0
  -24.3330   -9.4690   22.0180 C   0  0  0  0  0  3  0  0  0  0  0  0
  -23.6210   -8.2610   22.1720 C   0  0  0  0  0  3  0  0  0  0  0  0
  -22.4880   -7.9970   21.3660 C   0  0  0  0  0  0  0  0  0  0  0  0
  -22.1040   -8.9380   20.3940 C   0  0  0  0  0  3  0  0  0  0  0  0
  -22.8180  -10.1370   20.2360 C   0  0  0  0  0  3  0  0  0  0  0  0
  -21.7480   -6.8410   21.4330 O   0  0  0  0  0  0  0  0  0  0  0  0
  -21.6340   -6.1260   22.5980 C   0  0  0  0  0  0  0  0  0  0  0  0
  -21.1000   -6.6980   23.7750 C   0  0  0  0  0  3  0  0  0  0  0  0
  -20.9350   -5.9070   24.9290 C   0  0  0  0  0  3  0  0  0  0  0  0
  -21.2950   -4.5460   24.9090 C   0  0  0  0  0  0  0  0  0  0  0  0
  -21.8240   -3.9750   23.7380 C   0  0  0  0  0  3  0  0  0  0  0  0
  -21.9900   -4.7630   22.5850 C   0  0  0  0  0  0  0  0  0  0  0  0
  -22.4780   -4.2020   21.4520 F   0  0  0  0  0  0  0  0  0  0  0  0
  -21.1310   -3.7840   26.0150 F   0  0  0  0  0  0  0  0  0  0  0  0
  -22.7460  -13.4960   21.1320 C   0  0  0  0  0  0  0  0  0  0  0  0
  -22.0020  -12.7920   21.9760 N   0  0  0  0  0  0  0  0  0  0  0  0
  -22.3120  -14.5130   20.5930 O   0  0  0  0  0  0  0  0  0  0  0  0
  -22.3660  -11.9700   22.4360 H   0  0  0  0  0  0  0  0  0  0  0  0
  -21.0520  -13.0800   22.1680 H   0  0  0  0  0  0  0  0  0  0  0  0
  -25.3720  -15.1980   20.3940 N   0  0  0  0  0  0  0  0  0  0  0  0
  -24.5880  -15.8350   20.4830 H   0  0  0  0  0  0  0  0  0  0  0  0
  -26.2300  -15.6580   20.1160 H   0  0  0  0  0  0  0  0  0  0  0  0
  -30.2130  -21.7000   20.8520 N   0  0  0  0  0  4  0  0  0  0  0  0
  -30.3670  -21.7690   19.8590 H   0  0  0  0  0  0  0  0  0  0  0  0
  -31.0760  -21.9730   21.2950 H   0  0  0  0  0  0  0  0  0  0  0  0
  -29.1930  -22.7310   21.2490 C   0  0  0  0  0  2  0  0  0  0  0  0
  -29.4510  -24.1760   20.6530 C   0  0  0  0  0  3  0  0  0  0  0  0
  -28.4580  -25.3070   21.1030 C   0  0  0  0  0  3  0  0  0  0  0  0
  -28.6320  -26.6240   20.4860 O   0  0  0  0  0  0  0  0  0  0  0  0
  -24.6650  -31.9040   23.2790 C   0  0  0  0  0  0  0  0  0  0  0  0
  -27.4880  -27.4090   20.3980 C   0  0  0  0  0  0  0  0  0  0  0  0
  -23.5470  -30.4520   21.6210 C   0  0  0  0  0  3  0  0  0  0  0  0
  -25.0800  -28.9180   20.2730 C   0  0  0  0  0  0  0  0  0  0  0  0
  -26.0750  -30.8440   21.5100 C   0  0  0  0  0  2  0  0  0  0  0  0
  -26.2120  -29.4610   20.8950 C   0  0  0  0  0  0  0  0  0  0  0  0
  -27.4210  -28.7180   20.9480 C   0  0  0  0  0  3  0  0  0  0  0  0
  -26.3410  -26.9040   19.7450 C   0  0  0  0  0  3  0  0  0  0  0  0
  -25.1440  -27.6420   19.6870 C   0  0  0  0  0  3  0  0  0  0  0  0
  -23.8210  -29.7580   20.2610 C   0  0  0  0  0  2  0  0  0  0  0  0
  -24.7790  -31.0830   22.1950 N   0  0  0  0  0  0  0  0  0  0  0  0
  -23.5600  -32.1650   23.7730 O   0  0  0  0  0  0  0  0  0  0  0  0
  -22.8770  -29.4370   22.5750 C   0  0  0  0  0  0  0  0  0  0  0  0
  -21.5560  -29.2480   22.4200 N   0  0  0  0  0  0  0  0  0  0  0  0
  -23.5440  -28.8210   23.4120 O   0  0  0  0  0  0  0  0  0  0  0  0
  -21.0790  -29.7960   21.7190 H   0  0  0  0  0  0  0  0  0  0  0  0
  -18.1680  -28.0800   22.8990 C   0  0  0  0  0  0  0  0  0  0  0  0
  -20.7270  -28.3120   23.1810 C   0  0  0  0  0  3  0  0  0  0  0  0
  -20.8170  -26.8850   22.5930 C   0  0  0  0  0  2  0  0  0  0  0  0
  -19.7150  -26.5820   21.5720 C   0  0  0  0  0  2  0  0  0  0  0  0
  -18.3330  -26.7350   22.2130 C   0  0  0  0  0  2  0  0  0  0  0  0
  -19.2910  -28.8280   23.3400 C   0  0  0  0  0  0  0  0  0  0  0  0
  -19.0840  -30.0880   23.9430 C   0  0  0  0  0  3  0  0  0  0  0  0
  -17.7850  -30.6020   24.1080 C   0  0  0  0  0  3  0  0  0  0  0  0
  -16.6740  -29.8510   23.6840 C   0  0  0  0  0  3  0  0  0  0  0  0
  -16.8670  -28.5910   23.0880 C   0  0  0  0  0  3  0  0  0  0  0  0
  -25.9150  -32.5720   23.9320 C   0  0  0  0  0  3  0  0  0  0  0  0
  -26.4040  -31.8320   25.2380 C   0  0  1  0  0  0  0  0  0  0  0  0
  -25.2790  -31.5850   26.2700 C   0  0  0  0  0  1  0  0  0  0  0  0
  -27.0290  -30.4610   24.8860 C   0  0  0  0  0  1  0  0  0  0  0  0
  -27.5150  -32.6580   25.9260 C   0  0  0  0  0  1  0  0  0  0  0  0
  -25.5680  -33.9680   24.2280 N   0  0  0  0  0  0  0  0  0  0  0  0
  -25.9010  -35.0140   23.4590 C   0  0  0  0  0  0  0  0  0  0  0  0
  -26.6030  -34.9060   22.4490 O   0  0  0  0  0  0  0  0  0  0  0  0
  -24.9490  -34.1250   25.0080 H   0  0  0  0  0  0  0  0  0  0  0  0
  -24.1480  -36.7640   23.0210 C   0  0  0  0  0  1  0  0  0  0  0  0
  -25.3720  -36.4000   23.8760 C   0  0  0  0  0  3  0  0  0  0  0  0
  -27.4620  -37.3450   24.7550 C   0  0  0  0  0  1  0  0  0  0  0  0
  -26.3860  -37.4720   23.7740 N   0  0  0  0  0  0  0  0  0  0  0  0
  -25.9570  -38.3860   23.8940 H   0  0  0  0  0  0  0  0  0  0  0  0
  1  5  1  0
  1  4  1  0
  2  8  1  0
  4  9  1  0
  6  2  1  0
  7  3  1  0
  8 48  1  0
  8  3  1  0
  9 11  1  6
  9 10  1  0
  9 12  1  0
 10  5  1  6
 10  6  1  0
 10  7  1  0
 12 19  2  0
 13 18  1  0
 14 15  1  0
 14 13  1  0
 16 15  1  0
 16 23  1  0
 16 17  1  0
 18 12  1  0
 18 17  1  0
 20 21  2  0
 21 40  1  0
 22 21  1  0
 22 25  1  0
 23 20  1  0
 23 24  1  0
 24 22  2  0
 25 26  1  0
 26 27  2  0
 28 31  1  0
 28 27  1  0
 29 28  2  0
 30 29  1  0
 30 25  2  0
 31 32  1  0
 32 33  1  0
 33 34  2  0
 35 34  1  0
 35 39  1  0
 36 35  2  0
 37 32  2  0
 37 36  1  0
 38 37  1  0
 40 41  1  0
 41 44  1  0
 41 43  1  0
 42 40  2  0
 45 46  1  0
 45 20  1  0
 47 45  1  0
 48 51  1  0
 48 50  1  0
 49 48  1  0
 52 53  2  0
 52 51  1  0
 54 53  1  0
 55 66  2  0
 56 54  1  0
 56 61  1  0
 57 65  1  0
 57 67  1  0
 58 60  1  0
 59 65  1  0
 60 61  2  0
 60 59  1  0
 62 56  2  0
 63 62  1  0
 63 58  2  0
 64 58  1  0
 64 57  1  0
 65 55  1  0
 67 69  2  0
 68 67  1  0
 70 68  1  0
 71 80  2  0
 71 76  1  0
 72 68  1  0
 72 76  1  0
 73 72  1  0
 74 75  1  0
 74 73  1  0
 75 71  1  0
 76 77  2  0
 77 78  1  0
 79 78  2  0
 80 79  1  0
 81 55  1  0
 81 86  1  0
 81 82  1  0
 82 85  1  1
 82 83  1  0
 84 82  1  0
 86 89  1  0
 87 91  1  0
 87 86  1  0
 88 87  2  0
 91 90  1  0
 93 91  1  0
 93 94  1  0
 93 92  1  0
M  ISO  4   9 100  12 100  53 101  54 101
M  END
>  <TORSDO>  (44) 
F 20

>  <SCORE>  (44) 
-13.200

>  <name>  (44) 
43

>  <ligand_id>  (44) 
43

>  <original_smiles>  (44) 
[H]c1c([H])c([H])c2c(c1[H])C([H])([H])C([H])([H])C([H])([H])C2([H])N([H])C(=O)C1([H])N(C(=O)C([H])(N([H])C(=O)C([H])(N([H])C([H])([H])[H])C([H])([H])[H])C(C([H])([H])[H])(C([H])([H])[H])C([H])([H])[H])C([H])([H])c2c([H])c(OC([H])([H])C([H])([H])C([H])([H])[N+]([H])([H])C3([H])C([H])([H])C([H])([H])C4(C([H])([H])C([H])([H])C([H])([H])C4(C(=O)N4C([H])([H])C([H])([H])C([H])([H])C([H])(n5nc(-c6c([H])c([H])c(Oc7c([H])c([H])c(F)c([H])c7F)c([H])c6[H])c(C(=O)N([H])[H])c5N([H])[H])C4([H])[H])C([H])([H])[H])C([H])([H])C3([H])[H])c([H])c([H])c2C1([H])[H]

>  <smiles>  (44) 
[H]c1c([H])c([H])c2c(c1[H])C([H])([H])C([H])([H])C([H])([H])C2([H])N([H])C(=O)C1([H])N(C(=O)C([H])(N([H])C(=O)C([H])(N([H])C([H])([H])[H])C([H])([H])[H])C(C([H])([H])[H])(C([H])([H])[H])C([H])([H])[H])C([H])([H])c2c([H])c(OC([H])([H])C([H])([H])C([H])([H])[N+]([H])([H])C3([H])C([H])([H])C([H])([H])C4(C([H])([H])C([H])([H])C([H])([H])C4(C(=O)N4C([H])([H])C([H])([H])C([H])([H])C([H])(n5nc(-c6c([H])c([H])c(Oc7c([H])c([H])c(F)c([H])c7F)c([H])c6[H])c(C(=O)N([H])[H])c5N([H])[H])C4([H])[H])C([H])([H])[H])C([H])([H])C3([H])[H])c([H])c([H])c2C1([H])[H]

$$$$
44:0:0
     RDKit          3D

 95103  0  0  1  0  0  0  0  0999 V2000
  -32.5940  -20.6790   21.1670 C   0  0  0  0  0  3  0  0  0  0  0  0
  -30.5520  -21.2550   22.3590 C   0  0  0  0  0  3  0  0  0  0  0  0
  -31.5600  -20.3200   22.0530 C   0  0  0  0  0  0  0  0  0  0  0  0
  -32.6350  -21.9660   20.5900 C   0  0  0  0  0  0  0  0  0  0  0  0
  -31.6220  -22.9120   20.8990 C   0  0  0  0  0  0  0  0  0  0  0  0
  -30.5900  -22.5460   21.7960 C   0  0  0  0  0  0  0  0  0  0  0  0
  -33.7920  -22.3020   19.6640 C   0  0  0  0  0  1  0  0  0  0  0  0
  -29.6180  -23.4390   22.1120 F   0  0  0  0  0  0  0  0  0  0  0  0
  -31.5520  -18.9300   22.6680 C   0  0  0  0  0  2  0  0  0  0  0  0
  -30.5260  -17.9830   22.0190 C   0  0  0  0  0  2  0  0  0  0  0  0
  -31.1240  -16.5900   21.7670 C   0  0  0  0  0  2  0  0  0  0  0  0
  -30.0840  -15.5220   21.3470 C   0  0  0  0  0  2  0  0  0  0  0  0
  -30.6200  -14.4350   20.3940 C   0  0  0  0  0  0  0  0  0  0  0  0
  -30.2590  -12.3500   19.1250 C   0  0  0  0  0  2  0  0  0  0  0  0
  -29.2960  -12.6010   17.9480 C   0  0  0  0  0  2  0  0  0  0  0  0
  -27.8320  -12.4400   18.4010 C   0  0  0  0  0  2  0  0  0  0  0  0
  -27.5210  -13.2420   19.6920 C   0  0  0  0  0  3  0  0  0  0  0  0
  -28.5940  -12.9880   20.7730 C   0  0  0  0  0  2  0  0  0  0  0  0
  -29.9130  -13.2930   20.1980 N   0  0  0  0  0  0  0  0  0  0  0  0
  -31.6660  -14.6630   19.7770 O   0  0  0  0  0  0  0  0  0  0  0  0
  -25.1280  -13.8230   20.4460 C   0  0  0  0  0  0  0  0  0  0  0  0
  -24.0760  -13.0390   20.8350 C   0  0  0  0  0  0  0  0  0  0  0  0
  -24.5540  -11.6930   20.7970 C   0  0  0  0  0  0  0  0  0  0  0  0
  -26.1790  -12.9550   20.1950 N   0  0  0  0  0  0  0  0  0  0  0  0
  -25.8370  -11.6690   20.4630 N   0  0  0  0  0  0  0  0  0  0  0  0
  -23.8490  -10.4210   21.0040 C   0  0  0  0  0  0  0  0  0  0  0  0
  -24.3100   -9.4610   21.9300 C   0  0  0  0  0  3  0  0  0  0  0  0
  -23.6030   -8.2530   22.1210 C   0  0  0  0  0  3  0  0  0  0  0  0
  -22.4230   -8.0000   21.3840 C   0  0  0  0  0  0  0  0  0  0  0  0
  -21.9820   -8.9500   20.4450 C   0  0  0  0  0  3  0  0  0  0  0  0
  -22.6900  -10.1460   20.2530 C   0  0  0  0  0  3  0  0  0  0  0  0
  -21.6850   -6.8440   21.4850 O   0  0  0  0  0  0  0  0  0  0  0  0
  -21.6690   -6.0990   22.6370 C   0  0  0  0  0  0  0  0  0  0  0  0
  -21.2650   -6.6470   23.8740 C   0  0  0  0  0  3  0  0  0  0  0  0
  -21.1940   -5.8270   25.0170 C   0  0  0  0  0  3  0  0  0  0  0  0
  -21.5210   -4.4610   24.9270 C   0  0  0  0  0  0  0  0  0  0  0  0
  -21.9180   -3.9120   23.6940 C   0  0  0  0  0  3  0  0  0  0  0  0
  -21.9890   -4.7290   22.5520 C   0  0  0  0  0  0  0  0  0  0  0  0
  -22.3520   -4.1910   21.3630 F   0  0  0  0  0  0  0  0  0  0  0  0
  -21.4470   -3.6710   26.0230 F   0  0  0  0  0  0  0  0  0  0  0  0
  -22.6780  -13.4970   21.1350 C   0  0  0  0  0  0  0  0  0  0  0  0
  -21.9750  -12.7930   22.0140 N   0  0  0  0  0  0  0  0  0  0  0  0
  -22.2160  -14.5170   20.6230 O   0  0  0  0  0  0  0  0  0  0  0  0
  -22.3630  -11.9700   22.4510 H   0  0  0  0  0  0  0  0  0  0  0  0
  -21.0390  -13.0830   22.2570 H   0  0  0  0  0  0  0  0  0  0  0  0
  -25.2710  -15.1960   20.2680 N   0  0  0  0  0  0  0  0  0  0  0  0
  -24.5020  -15.8430   20.4070 H   0  0  0  0  0  0  0  0  0  0  0  0
  -26.1170  -15.6490   19.9460 H   0  0  0  0  0  0  0  0  0  0  0  0
  -31.6380  -24.3300   20.3170 C   0  0  0  0  0  2  0  0  0  0  0  0
  -30.3360  -24.7390   19.7520 N   0  0  0  0  0  4  0  0  0  0  0  0
  -29.6970  -24.8410   20.5280 H   0  0  0  0  0  0  0  0  0  0  0  0
  -29.9900  -23.9990   19.1590 H   0  0  0  0  0  0  0  0  0  0  0  0
  -30.3760  -26.0100   18.9930 C   0  0  0  0  0  2  0  0  0  0  0  0
  -28.9730  -26.5910   18.7950 C   0  0  0  0  0  2  0  0  0  0  0  0
  -28.4590  -26.8610   20.0970 O   0  0  0  0  0  0  0  0  0  0  0  0
  -24.5860  -31.9050   23.2480 C   0  0  0  0  0  0  0  0  0  0  0  0
  -27.2700  -27.5400   20.1210 C   0  0  0  0  0  0  0  0  0  0  0  0
  -23.3850  -30.5010   21.5980 C   0  0  0  0  0  3  0  0  0  0  0  0
  -24.8490  -28.9790   20.1680 C   0  0  0  0  0  0  0  0  0  0  0  0
  -25.9010  -30.8870   21.3970 C   0  0  0  0  0  2  0  0  0  0  0  0
  -25.9960  -29.5180   20.7600 C   0  0  0  0  0  0  0  0  0  0  0  0
  -27.2060  -28.7960   20.7540 C   0  0  0  0  0  3  0  0  0  0  0  0
  -26.1060  -26.9940   19.5370 C   0  0  0  0  0  3  0  0  0  0  0  0
  -24.8930  -27.7070   19.5630 C   0  0  0  0  0  3  0  0  0  0  0  0
  -23.5950  -29.8210   20.2170 C   0  0  0  0  0  2  0  0  0  0  0  0
  -24.6410  -31.1140   22.1400 N   0  0  0  0  0  0  0  0  0  0  0  0
  -23.5060  -32.1670   23.7920 O   0  0  0  0  0  0  0  0  0  0  0  0
  -22.7440  -29.4730   22.5560 C   0  0  0  0  0  0  0  0  0  0  0  0
  -21.4200  -29.2870   22.4330 N   0  0  0  0  0  0  0  0  0  0  0  0
  -23.4340  -28.8450   23.3640 O   0  0  0  0  0  0  0  0  0  0  0  0
  -20.9270  -29.8430   21.7490 H   0  0  0  0  0  0  0  0  0  0  0  0
  -18.0500  -28.0870   22.9330 C   0  0  0  0  0  0  0  0  0  0  0  0
  -20.6090  -28.3410   23.1970 C   0  0  0  0  0  3  0  0  0  0  0  0
  -20.7110  -26.9160   22.6070 C   0  0  0  0  0  2  0  0  0  0  0  0
  -19.6030  -26.6030   21.5950 C   0  0  0  0  0  2  0  0  0  0  0  0
  -18.2250  -26.7420   22.2460 C   0  0  0  0  0  2  0  0  0  0  0  0
  -19.1710  -28.8440   23.3650 C   0  0  0  0  0  0  0  0  0  0  0  0
  -18.9560  -30.1040   23.9660 C   0  0  0  0  0  3  0  0  0  0  0  0
  -17.6530  -30.6050   24.1400 C   0  0  0  0  0  3  0  0  0  0  0  0
  -16.5470  -29.8430   23.7250 C   0  0  0  0  0  3  0  0  0  0  0  0
  -16.7460  -28.5860   23.1280 C   0  0  0  0  0  3  0  0  0  0  0  0
  -25.8710  -32.5390   23.8660 C   0  0  0  0  0  3  0  0  0  0  0  0
  -25.5620  -33.9370   24.1920 N   0  0  0  0  0  0  0  0  0  0  0  0
  -25.9050  -34.9870   23.4330 C   0  0  0  0  0  0  0  0  0  0  0  0
  -26.5850  -34.8800   22.4090 O   0  0  0  0  0  0  0  0  0  0  0  0
  -24.9560  -34.0940   24.9830 H   0  0  0  0  0  0  0  0  0  0  0  0
  -24.1840  -36.7790   23.0520 C   0  0  0  0  0  1  0  0  0  0  0  0
  -25.4130  -36.3760   23.8810 C   0  0  0  0  0  3  0  0  0  0  0  0
  -27.5390  -37.2550   24.7390 C   0  0  0  0  0  1  0  0  0  0  0  0
  -26.4490  -37.4270   23.7810 N   0  0  0  0  0  0  0  0  0  0  0  0
  -26.0430  -38.3470   23.9260 H   0  0  0  0  0  0  0  0  0  0  0  0
  -26.3920  -31.7690   25.1430 C   0  0  1  0  0  0  0  0  0  0  0  0
  -25.3020  -31.5320   26.2130 C   0  0  0  0  0  1  0  0  0  0  0  0
  -26.9750  -30.3920   24.7470 C   0  0  0  0  0  1  0  0  0  0  0  0
  -27.5410  -32.5680   25.8030 C   0  0  0  0  0  1  0  0  0  0  0  0
  1  3  1  0
  3  2  2  0
  3  9  1  0
  4  5  1  0
  4  1  2  0
  5  6  2  0
  6  8  1  0
  6  2  1  0
  7  4  1  0
 10  9  1  0
 11 10  1  0
 12 11  1  0
 13 12  1  0
 14 19  1  0
 15 16  1  0
 15 14  1  0
 17 16  1  0
 17 24  1  0
 17 18  1  0
 19 13  1  0
 19 18  1  0
 20 13  2  0
 21 22  2  0
 22 41  1  0
 23 22  1  0
 23 26  1  0
 24 21  1  0
 24 25  1  0
 25 23  2  0
 26 27  1  0
 27 28  2  0
 29 32  1  0
 29 28  1  0
 30 29  2  0
 31 30  1  0
 31 26  2  0
 32 33  1  0
 33 34  1  0
 34 35  2  0
 36 35  1  0
 36 40  1  0
 37 36  2  0
 38 33  2  0
 38 37  1  0
 39 38  1  0
 41 42  1  0
 42 45  1  0
 42 44  1  0
 43 41  2  0
 46 47  1  0
 46 21  1  0
 48 46  1  0
 49  5  1  0
 50 49  1  0
 50 51  1  0
 52 50  1  0
 53 50  1  0
 54 53  1  0
 54 55  1  0
 55 57  1  0
 56 67  2  0
 57 62  1  0
 58 66  1  0
 58 68  1  0
 59 65  1  0
 59 61  1  0
 60 66  1  0
 61 60  1  0
 62 61  2  0
 63 64  1  0
 63 57  2  0
 64 59  2  0
 65 58  1  0
 66 56  1  0
 68 70  2  0
 69 68  1  0
 71 69  1  0
 72 81  2  0
 72 77  1  0
 73 69  1  0
 73 77  1  0
 74 73  1  0
 75 76  1  0
 75 74  1  0
 76 72  1  0
 77 78  2  0
 78 79  1  0
 80 79  2  0
 81 80  1  0
 82 56  1  0
 82 83  1  0
 82 92  1  0
 83 86  1  0
 84 88  1  0
 84 83  1  0
 85 84  2  0
 88 87  1  0
 90 88  1  0
 90 91  1  0
 90 89  1  0
 92 95  1  1
 92 93  1  0
 94 92  1  0
M  ISO  4  12 100  13 100  54 101  55 101
M  END
>  <TORSDO>  (45) 
F 24

>  <SCORE>  (45) 
-12.372

>  <name>  (45) 
44

>  <ligand_id>  (45) 
44

>  <original_smiles>  (45) 
[H]c1c([H])c([H])c2c(c1[H])C([H])([H])C([H])([H])C([H])([H])C2([H])N([H])C(=O)C1([H])N(C(=O)C([H])(N([H])C(=O)C([H])(N([H])C([H])([H])[H])C([H])([H])[H])C(C([H])([H])[H])(C([H])([H])[H])C([H])([H])[H])C([H])([H])c2c([H])c(OC([H])([H])C([H])([H])[N+]([H])([H])C([H])([H])c3c(F)c([H])c(C([H])([H])C([H])([H])C([H])([H])C([H])([H])C(=O)N4C([H])([H])C([H])([H])C([H])([H])C([H])(n5nc(-c6c([H])c([H])c(Oc7c([H])c([H])c(F)c([H])c7F)c([H])c6[H])c(C(=O)N([H])[H])c5N([H])[H])C4([H])[H])c([H])c3C([H])([H])[H])c([H])c([H])c2C1([H])[H]

>  <smiles>  (45) 
[H]c1c([H])c([H])c2c(c1[H])C([H])([H])C([H])([H])C([H])([H])C2([H])N([H])C(=O)C1([H])N(C(=O)C([H])(N([H])C(=O)C([H])(N([H])C([H])([H])[H])C([H])([H])[H])C(C([H])([H])[H])(C([H])([H])[H])C([H])([H])[H])C([H])([H])c2c([H])c(OC([H])([H])C([H])([H])[N+]([H])([H])C([H])([H])c3c(F)c([H])c(C([H])([H])C([H])([H])C([H])([H])C([H])([H])C(=O)N4C([H])([H])C([H])([H])C([H])([H])C([H])(n5nc(-c6c([H])c([H])c(Oc7c([H])c([H])c(F)c([H])c7F)c([H])c6[H])c(C(=O)N([H])[H])c5N([H])[H])C4([H])[H])c([H])c3C([H])([H])[H])c([H])c([H])c2C1([H])[H]

$$$$
45:0:0
     RDKit          3D

 90 98  0  0  1  0  0  0  0  0999 V2000
  -27.9970  -22.4040   20.5990 C   0  0  0  0  0  3  0  0  0  0  0  0
  -29.9620  -22.9580   19.4250 C   0  0  0  0  0  3  0  0  0  0  0  0
  -29.1670  -21.8930   19.9470 C   0  0  0  0  0  0  0  0  0  0  0  0
  -27.6650  -23.8230   20.7150 C   0  0  0  0  0  0  0  0  0  0  0  0
  -29.6470  -24.3640   19.5220 C   0  0  0  0  0  0  0  0  0  0  0  0
  -28.4700  -24.8870   20.1490 C   0  0  0  0  0  0  0  0  0  0  0  0
  -26.4080  -24.1610   21.4930 C   0  0  0  0  0  1  0  0  0  0  0  0
  -30.6390  -25.3430   18.9200 C   0  0  0  0  0  1  0  0  0  0  0  0
  -28.3350  -26.3400   20.2500 O   0  0  0  0  0  0  0  0  0  0  0  0
  -24.6100  -31.8750   23.2300 C   0  0  0  0  0  0  0  0  0  0  0  0
  -27.2020  -27.2070   20.2060 C   0  0  0  0  0  0  0  0  0  0  0  0
  -23.4030  -30.4720   21.5960 C   0  0  0  0  0  3  0  0  0  0  0  0
  -24.8510  -28.8970   20.1680 C   0  0  0  0  0  0  0  0  0  0  0  0
  -25.9460  -30.7590   21.4140 C   0  0  0  0  0  2  0  0  0  0  0  0
  -26.0220  -29.3650   20.7770 C   0  0  0  0  0  0  0  0  0  0  0  0
  -27.1900  -28.5310   20.7850 C   0  0  0  0  0  3  0  0  0  0  0  0
  -26.0170  -26.8250   19.5460 C   0  0  0  0  0  3  0  0  0  0  0  0
  -24.8580  -27.6370   19.5410 C   0  0  0  0  0  3  0  0  0  0  0  0
  -23.6180  -29.7860   20.2170 C   0  0  0  0  0  2  0  0  0  0  0  0
  -24.6720  -31.0560   22.1360 N   0  0  0  0  0  0  0  0  0  0  0  0
  -23.5270  -32.1580   23.7640 O   0  0  0  0  0  0  0  0  0  0  0  0
  -22.7380  -29.4660   22.5650 C   0  0  0  0  0  0  0  0  0  0  0  0
  -21.4140  -29.2730   22.4290 N   0  0  0  0  0  0  0  0  0  0  0  0
  -23.4140  -28.8590   23.4010 O   0  0  0  0  0  0  0  0  0  0  0  0
  -20.9260  -29.8130   21.7280 H   0  0  0  0  0  0  0  0  0  0  0  0
  -18.0550  -28.0040   22.8870 C   0  0  0  0  0  0  0  0  0  0  0  0
  -20.6000  -28.3330   23.2040 C   0  0  0  0  0  3  0  0  0  0  0  0
  -20.7490  -26.8930   22.6590 C   0  0  0  0  0  2  0  0  0  0  0  0
  -19.6770  -26.5250   21.6290 C   0  0  0  0  0  2  0  0  0  0  0  0
  -18.2780  -26.6480   22.2390 C   0  0  0  0  0  2  0  0  0  0  0  0
  -19.1460  -28.8020   23.3250 C   0  0  0  0  0  0  0  0  0  0  0  0
  -18.8820  -30.0700   23.8890 C   0  0  0  0  0  3  0  0  0  0  0  0
  -17.5620  -30.5390   24.0200 C   0  0  0  0  0  3  0  0  0  0  0  0
  -16.4870  -29.7410   23.5960 C   0  0  0  0  0  3  0  0  0  0  0  0
  -16.7330  -28.4740   23.0350 C   0  0  0  0  0  3  0  0  0  0  0  0
  -25.8940  -32.5090   23.8500 C   0  0  0  0  0  3  0  0  0  0  0  0
  -26.4100  -31.7430   25.1310 C   0  0  1  0  0  0  0  0  0  0  0  0
  -25.3180  -31.5160   26.2010 C   0  0  0  0  0  1  0  0  0  0  0  0
  -26.9860  -30.3600   24.7440 C   0  0  0  0  0  1  0  0  0  0  0  0
  -27.5640  -32.5370   25.7890 C   0  0  0  0  0  1  0  0  0  0  0  0
  -25.5860  -33.9080   24.1820 N   0  0  0  0  0  0  0  0  0  0  0  0
  -25.9200  -34.9630   23.4260 C   0  0  0  0  0  0  0  0  0  0  0  0
  -26.5910  -34.8610   22.3960 O   0  0  0  0  0  0  0  0  0  0  0  0
  -24.9990  -34.0620   24.9880 H   0  0  0  0  0  0  0  0  0  0  0  0
  -24.1970  -36.7610   23.0740 C   0  0  0  0  0  1  0  0  0  0  0  0
  -25.4360  -36.3530   23.8860 C   0  0  0  0  0  3  0  0  0  0  0  0
  -27.5730  -37.2300   24.7220 C   0  0  0  0  0  1  0  0  0  0  0  0
  -26.4720  -37.4040   23.7780 N   0  0  0  0  0  0  0  0  0  0  0  0
  -26.0670  -38.3240   23.9300 H   0  0  0  0  0  0  0  0  0  0  0  0
  -29.5690  -20.3440   19.5880 C   0  0  0  0  0  2  0  0  0  0  0  0
  -29.4720  -18.9410   20.4550 C   0  0  0  0  0  3  0  0  0  0  0  0
  -30.1240  -17.5250   19.8420 C   0  0  0  0  0  3  0  0  0  0  0  0
  -30.6210  -14.8970   20.0370 C   0  0  0  0  0  0  0  0  0  0  0  0
  -30.3880  -12.6280   18.9420 C   0  0  0  0  0  2  0  0  0  0  0  0
  -29.3760  -12.6970   17.7740 C   0  0  0  0  0  2  0  0  0  0  0  0
  -27.9310  -12.5020   18.2710 C   0  0  0  0  0  2  0  0  0  0  0  0
  -27.6310  -13.3370   19.5430 C   0  0  0  0  0  3  0  0  0  0  0  0
  -28.7500  -13.1790   20.5880 C   0  0  0  0  0  2  0  0  0  0  0  0
  -29.9950  -13.6510   19.9560 N   0  0  0  0  0  0  0  0  0  0  0  0
  -31.7450  -14.9920   19.5280 O   0  0  0  0  0  0  0  0  0  0  0  0
  -29.1890  -16.1120   21.6890 C   0  0  0  0  0  1  0  0  0  0  0  0
  -29.9230  -16.0810   20.4210 N   0  0  0  0  0  0  0  0  0  0  0  0
  -25.2930  -13.9110   20.4170 C   0  0  0  0  0  0  0  0  0  0  0  0
  -24.2500  -13.1300   20.8330 C   0  0  0  0  0  0  0  0  0  0  0  0
  -24.7100  -11.7800   20.7470 C   0  0  0  0  0  0  0  0  0  0  0  0
  -26.3180  -13.0360   20.1000 N   0  0  0  0  0  0  0  0  0  0  0  0
  -25.9780  -11.7470   20.3610 N   0  0  0  0  0  0  0  0  0  0  0  0
  -23.9930  -10.5150   20.9540 C   0  0  0  0  0  0  0  0  0  0  0  0
  -24.4580   -9.5410   21.8640 C   0  0  0  0  0  3  0  0  0  0  0  0
  -23.7400   -8.3420   22.0590 C   0  0  0  0  0  3  0  0  0  0  0  0
  -22.5420   -8.1070   21.3430 C   0  0  0  0  0  0  0  0  0  0  0  0
  -22.0960   -9.0700   20.4200 C   0  0  0  0  0  3  0  0  0  0  0  0
  -22.8160  -10.2610   20.2230 C   0  0  0  0  0  3  0  0  0  0  0  0
  -21.7900   -6.9630   21.4480 O   0  0  0  0  0  0  0  0  0  0  0  0
  -21.7520   -6.2310   22.6090 C   0  0  0  0  0  0  0  0  0  0  0  0
  -21.3480   -6.8010   23.8360 C   0  0  0  0  0  3  0  0  0  0  0  0
  -21.2550   -5.9950   24.9880 C   0  0  0  0  0  3  0  0  0  0  0  0
  -21.5600   -4.6230   24.9160 C   0  0  0  0  0  0  0  0  0  0  0  0
  -21.9580   -4.0540   23.6940 C   0  0  0  0  0  3  0  0  0  0  0  0
  -22.0530   -4.8560   22.5430 C   0  0  0  0  0  0  0  0  0  0  0  0
  -22.4160   -4.2980   21.3630 F   0  0  0  0  0  0  0  0  0  0  0  0
  -21.4650   -3.8470   26.0220 F   0  0  0  0  0  0  0  0  0  0  0  0
  -22.8730  -13.6040   21.1970 C   0  0  0  0  0  0  0  0  0  0  0  0
  -22.1980  -12.8940   22.0940 N   0  0  0  0  0  0  0  0  0  0  0  0
  -22.4060  -14.6370   20.7210 O   0  0  0  0  0  0  0  0  0  0  0  0
  -22.5900  -12.0550   22.4960 H   0  0  0  0  0  0  0  0  0  0  0  0
  -21.2780  -13.1920   22.3830 H   0  0  0  0  0  0  0  0  0  0  0  0
  -25.4470  -15.2860   20.2580 N   0  0  0  0  0  0  0  0  0  0  0  0
  -24.6910  -15.9390   20.4340 H   0  0  0  0  0  0  0  0  0  0  0  0
  -26.2790  -15.7330   19.8920 H   0  0  0  0  0  0  0  0  0  0  0  0
  1  4  1  0
  2  5  2  0
  2  3  1  0
  3  1  2  0
  4  7  1  0
  5  6  1  0
  6  9  1  0
  6  4  2  0
  8  5  1  0
 10 21  2  0
 11  9  1  0
 11 16  1  0
 12 20  1  0
 12 22  1  0
 13 19  1  0
 13 15  1  0
 14 20  1  0
 15 16  2  0
 15 14  1  0
 17 11  2  0
 18 17  1  0
 18 13  2  0
 19 12  1  0
 20 10  1  0
 22 24  2  0
 23 22  1  0
 25 23  1  0
 26 35  2  0
 26 31  1  0
 27 23  1  0
 27 31  1  0
 28 27  1  0
 29 30  1  0
 29 28  1  0
 30 26  1  0
 31 32  2  0
 32 33  1  0
 34 33  2  0
 35 34  1  0
 36 10  1  0
 36 41  1  0
 36 37  1  0
 37 40  1  1
 37 38  1  0
 39 37  1  0
 41 44  1  0
 42 46  1  0
 42 41  1  0
 43 42  2  0
 46 45  1  0
 48 46  1  0
 48 49  1  0
 48 47  1  0
 50  3  1  0
 50 51  1  0
 52 62  1  0
 52 51  2  0
 53 62  1  0
 54 59  1  0
 55 56  1  0
 55 54  1  0
 57 56  1  0
 57 66  1  0
 57 58  1  0
 59 53  1  0
 59 58  1  0
 60 53  2  0
 62 61  1  0
 63 64  2  0
 64 83  1  0
 65 64  1  0
 65 68  1  0
 66 67  1  0
 66 63  1  0
 67 65  2  0
 68 69  1  0
 69 70  2  0
 71 74  1  0
 71 70  1  0
 72 71  2  0
 73 72  1  0
 73 68  2  0
 74 75  1  0
 75 76  1  0
 76 77  2  0
 78 77  1  0
 78 82  1  0
 79 78  2  0
 80 75  2  0
 80 79  1  0
 81 80  1  0
 83 84  1  0
 84 87  1  0
 84 86  1  0
 85 83  2  0
 88 63  1  0
 88 89  1  0
 90 88  1  0
M  ISO  4   6 101   9 101  53 100  62 100
M  END
>  <TORSDO>  (46) 
F 19

>  <SCORE>  (46) 
-13.592

>  <name>  (46) 
45

>  <ligand_id>  (46) 
45

>  <original_smiles>  (46) 
[H]c1c([H])c([H])c2c(c1[H])C([H])([H])C([H])([H])C([H])([H])C2([H])N([H])C(=O)C1([H])N(C(=O)C([H])(N([H])C(=O)C([H])(N([H])C([H])([H])[H])C([H])([H])[H])C(C([H])([H])[H])(C([H])([H])[H])C([H])([H])[H])C([H])([H])c2c([H])c(Oc3c(C([H])([H])[H])c([H])c(C([H])([H])C([H])([H])C([H])([H])N(C(=O)N4C([H])([H])C([H])([H])C([H])([H])C([H])(n5nc(-c6c([H])c([H])c(Oc7c([H])c([H])c(F)c([H])c7F)c([H])c6[H])c(C(=O)N([H])[H])c5N([H])[H])C4([H])[H])C([H])([H])[H])c([H])c3C([H])([H])[H])c([H])c([H])c2C1([H])[H]

>  <smiles>  (46) 
[H]c1c([H])c([H])c2c(c1[H])C([H])([H])C([H])([H])C([H])([H])C2([H])N([H])C(=O)C1([H])N(C(=O)C([H])(N([H])C(=O)C([H])(N([H])C([H])([H])[H])C([H])([H])[H])C(C([H])([H])[H])(C([H])([H])[H])C([H])([H])[H])C([H])([H])c2c([H])c(Oc3c(C([H])([H])[H])c([H])c(C([H])([H])C([H])([H])C([H])([H])N(C(=O)N4C([H])([H])C([H])([H])C([H])([H])C([H])(n5nc(-c6c([H])c([H])c(Oc7c([H])c([H])c(F)c([H])c7F)c([H])c6[H])c(C(=O)N([H])[H])c5N([H])[H])C4([H])[H])C([H])([H])[H])c([H])c3C([H])([H])[H])c([H])c([H])c2C1([H])[H]

$$$$
46:0:0
     RDKit          3D

 95104  0  0  1  0  0  0  0  0999 V2000
  -30.4640  -23.6720   17.3000 C   0  0  0  0  0  2  0  0  0  0  0  0
  -30.9290  -23.3150   18.7240 C   0  0  0  0  0  2  0  0  0  0  0  0
  -29.2810  -25.8080   18.1670 C   0  0  0  0  0  2  0  0  0  0  0  0
  -29.4660  -24.5250   20.4260 C   0  0  0  0  0  2  0  0  0  0  0  0
  -29.2830  -24.6520   17.1470 C   0  0  0  0  0  3  0  0  0  0  0  0
  -29.8140  -23.1490   19.7840 C   0  0  0  0  0  3  0  0  0  0  0  0
  -28.6250  -25.4630   19.5180 C   0  0  0  0  0  3  0  0  0  0  0  0
  -29.2570  -25.2030   15.7090 C   0  0  0  0  0  1  0  0  0  0  0  0
  -30.2160  -22.1180   20.7860 N   0  0  0  0  0  4  0  0  0  0  0  0
  -29.7860  -22.3220   21.6740 H   0  0  0  0  0  0  0  0  0  0  0  0
  -31.2140  -22.1590   20.9200 H   0  0  0  0  0  0  0  0  0  0  0  0
  -29.8130  -20.7400   20.3960 C   0  0  0  0  0  2  0  0  0  0  0  0
  -30.5370  -19.5850   21.1410 C   0  0  0  0  0  2  0  0  0  0  0  0
  -29.2520  -16.3890   19.4370 C   0  0  0  0  0  2  0  0  0  0  0  0
  -29.6960  -17.8490   19.4080 C   0  0  0  0  0  2  0  0  0  0  0  0
  -30.5290  -16.9480   21.4440 C   0  0  0  0  0  2  0  0  0  0  0  0
  -29.7820  -15.7710   20.7570 C   0  0  0  0  0  3  0  0  0  0  0  0
  -29.8510  -18.2160   20.8820 C   0  0  0  0  0  3  0  0  0  0  0  0
  -30.6130  -14.4860   20.4580 C   0  0  0  0  0  0  0  0  0  0  0  0
  -30.3560  -12.3040   19.3500 C   0  0  0  0  0  2  0  0  0  0  0  0
  -29.4120  -12.5080   18.1420 C   0  0  0  0  0  2  0  0  0  0  0  0
  -27.9310  -12.3800   18.5630 C   0  0  0  0  0  2  0  0  0  0  0  0
  -27.5940  -13.2030   19.8350 C   0  0  0  0  0  3  0  0  0  0  0  0
  -28.6540  -12.9720   20.9370 C   0  0  0  0  0  2  0  0  0  0  0  0
  -29.9790  -13.2840   20.3810 N   0  0  0  0  0  0  0  0  0  0  0  0
  -31.7790  -14.6340   20.0780 O   0  0  0  0  0  0  0  0  0  0  0  0
  -25.1970  -13.8330   20.5320 C   0  0  0  0  0  0  0  0  0  0  0  0
  -24.1250  -13.0670   20.9010 C   0  0  0  0  0  0  0  0  0  0  0  0
  -24.5820  -11.7140   20.8820 C   0  0  0  0  0  0  0  0  0  0  0  0
  -26.2400  -12.9430   20.3120 N   0  0  0  0  0  0  0  0  0  0  0  0
  -25.8720  -11.6650   20.5790 N   0  0  0  0  0  0  0  0  0  0  0  0
  -23.8530  -10.4550   21.0760 C   0  0  0  0  0  0  0  0  0  0  0  0
  -24.3000   -9.4790   21.9930 C   0  0  0  0  0  3  0  0  0  0  0  0
  -23.5690   -8.2840   22.1760 C   0  0  0  0  0  3  0  0  0  0  0  0
  -22.3820   -8.0580   21.4410 C   0  0  0  0  0  0  0  0  0  0  0  0
  -21.9570   -9.0230   20.5100 C   0  0  0  0  0  3  0  0  0  0  0  0
  -22.6860  -10.2100   20.3270 C   0  0  0  0  0  3  0  0  0  0  0  0
  -21.6230   -6.9170   21.5340 O   0  0  0  0  0  0  0  0  0  0  0  0
  -21.6110   -6.1530   22.6730 C   0  0  0  0  0  0  0  0  0  0  0  0
  -21.2530   -6.6900   23.9290 C   0  0  0  0  0  3  0  0  0  0  0  0
  -21.1840   -5.8510   25.0600 C   0  0  0  0  0  3  0  0  0  0  0  0
  -21.4670   -4.4780   24.9370 C   0  0  0  0  0  0  0  0  0  0  0  0
  -21.8240   -3.9410   23.6870 C   0  0  0  0  0  3  0  0  0  0  0  0
  -21.8900   -4.7750   22.5580 C   0  0  0  0  0  0  0  0  0  0  0  0
  -22.2100   -4.2480   21.3510 F   0  0  0  0  0  0  0  0  0  0  0  0
  -21.3950   -3.6710   26.0220 F   0  0  0  0  0  0  0  0  0  0  0  0
  -22.7270  -13.5490   21.1660 C   0  0  0  0  0  0  0  0  0  0  0  0
  -21.9980  -12.8580   22.0350 N   0  0  0  0  0  0  0  0  0  0  0  0
  -22.2910  -14.5720   20.6390 O   0  0  0  0  0  0  0  0  0  0  0  0
  -22.3660  -12.0300   22.4810 H   0  0  0  0  0  0  0  0  0  0  0  0
  -21.0600  -13.1570   22.2570 H   0  0  0  0  0  0  0  0  0  0  0  0
  -25.3700  -15.2020   20.3480 N   0  0  0  0  0  0  0  0  0  0  0  0
  -24.6120  -15.8660   20.4550 H   0  0  0  0  0  0  0  0  0  0  0  0
  -26.2370  -15.6350   20.0550 H   0  0  0  0  0  0  0  0  0  0  0  0
  -28.4290  -26.7190   20.1870 O   0  0  0  0  0  0  0  0  0  0  0  0
  -24.6220  -31.8730   23.2230 C   0  0  0  0  0  0  0  0  0  0  0  0
  -27.2300  -27.4130   20.1240 C   0  0  0  0  0  0  0  0  0  0  0  0
  -23.3940  -30.4710   21.5970 C   0  0  0  0  0  3  0  0  0  0  0  0
  -24.8290  -28.9300   20.1540 C   0  0  0  0  0  0  0  0  0  0  0  0
  -25.9170  -30.8240   21.3710 C   0  0  0  0  0  2  0  0  0  0  0  0
  -25.9910  -29.4500   20.7330 C   0  0  0  0  0  0  0  0  0  0  0  0
  -27.1860  -28.6960   20.7210 C   0  0  0  0  0  3  0  0  0  0  0  0
  -26.0430  -26.9140   19.5280 C   0  0  0  0  0  3  0  0  0  0  0  0
  -24.8500  -27.6610   19.5520 C   0  0  0  0  0  3  0  0  0  0  0  0
  -23.5860  -29.7900   20.2140 C   0  0  0  0  0  2  0  0  0  0  0  0
  -24.6630  -31.0710   22.1210 N   0  0  0  0  0  0  0  0  0  0  0  0
  -23.5490  -32.1490   23.7750 O   0  0  0  0  0  0  0  0  0  0  0  0
  -22.7520  -29.4520   22.5660 C   0  0  0  0  0  0  0  0  0  0  0  0
  -21.4250  -29.2710   22.4520 N   0  0  0  0  0  0  0  0  0  0  0  0
  -23.4420  -28.8290   23.3780 O   0  0  0  0  0  0  0  0  0  0  0  0
  -20.9300  -29.8270   21.7690 H   0  0  0  0  0  0  0  0  0  0  0  0
  -18.0570  -28.0760   22.9710 C   0  0  0  0  0  0  0  0  0  0  0  0
  -20.6150  -28.3390   23.2340 C   0  0  0  0  0  3  0  0  0  0  0  0
  -20.7190  -26.9050   22.6660 C   0  0  0  0  0  2  0  0  0  0  0  0
  -19.6150  -26.5720   21.6570 C   0  0  0  0  0  2  0  0  0  0  0  0
  -18.2350  -26.7220   22.3040 C   0  0  0  0  0  2  0  0  0  0  0  0
  -19.1760  -28.8420   23.3930 C   0  0  0  0  0  0  0  0  0  0  0  0
  -18.9570  -30.1090   23.9750 C   0  0  0  0  0  3  0  0  0  0  0  0
  -17.6520  -30.6100   24.1400 C   0  0  0  0  0  3  0  0  0  0  0  0
  -16.5490  -29.8400   23.7370 C   0  0  0  0  0  3  0  0  0  0  0  0
  -16.7520  -28.5750   23.1570 C   0  0  0  0  0  3  0  0  0  0  0  0
  -25.9190  -32.5000   23.8260 C   0  0  0  0  0  3  0  0  0  0  0  0
  -26.4620  -31.7180   25.0850 C   0  0  1  0  0  0  0  0  0  0  0  0
  -25.3890  -31.4660   26.1690 C   0  0  0  0  0  1  0  0  0  0  0  0
  -27.0400  -30.3470   24.6670 C   0  0  0  0  0  1  0  0  0  0  0  0
  -27.6220  -32.5090   25.7350 C   0  0  0  0  0  1  0  0  0  0  0  0
  -25.6160  -33.8940   24.1720 N   0  0  0  0  0  0  0  0  0  0  0  0
  -25.9310  -34.9520   23.4150 C   0  0  0  0  0  0  0  0  0  0  0  0
  -26.5800  -34.8600   22.3700 O   0  0  0  0  0  0  0  0  0  0  0  0
  -25.0350  -34.0430   24.9850 H   0  0  0  0  0  0  0  0  0  0  0  0
  -24.1840  -36.7370   23.1170 C   0  0  0  0  0  1  0  0  0  0  0  0
  -25.4470  -36.3330   23.8940 C   0  0  0  0  0  3  0  0  0  0  0  0
  -27.5990  -37.2200   24.6760 C   0  0  0  0  0  1  0  0  0  0  0  0
  -26.4700  -37.3940   23.7650 N   0  0  0  0  0  0  0  0  0  0  0  0
  -26.0620  -38.3090   23.9410 H   0  0  0  0  0  0  0  0  0  0  0  0
  1  2  1  0
  2  6  1  0
  3  7  1  0
  5  8  1  0
  5  1  1  0
  5  3  1  0
  6  4  1  0
  6  9  1  0
  7 55  1  0
  7  4  1  0
  9 11  1  0
  9 10  1  0
 12  9  1  0
 12 13  1  0
 14 17  1  0
 15 14  1  0
 15 18  1  0
 17 19  1  0
 17 16  1  0
 18 13  1  0
 18 16  1  0
 20 25  1  0
 21 22  1  0
 21 20  1  0
 23 22  1  0
 23 30  1  0
 23 24  1  0
 25 19  1  0
 25 24  1  0
 26 19  2  0
 27 28  2  0
 28 47  1  0
 29 28  1  0
 29 32  1  0
 30 27  1  0
 30 31  1  0
 31 29  2  0
 32 33  1  0
 33 34  2  0
 35 38  1  0
 35 34  1  0
 36 35  2  0
 37 36  1  0
 37 32  2  0
 38 39  1  0
 39 40  1  0
 40 41  2  0
 42 41  1  0
 42 46  1  0
 43 42  2  0
 44 39  2  0
 44 43  1  0
 45 44  1  0
 47 48  1  0
 48 51  1  0
 48 50  1  0
 49 47  2  0
 52 53  1  0
 52 27  1  0
 54 52  1  0
 56 67  2  0
 57 55  1  0
 57 62  1  0
 58 66  1  0
 58 68  1  0
 59 65  1  0
 59 61  1  0
 60 66  1  0
 61 60  1  0
 62 61  2  0
 63 64  1  0
 63 57  2  0
 64 59  2  0
 65 58  1  0
 66 56  1  0
 68 70  2  0
 69 68  1  0
 71 69  1  0
 72 81  2  0
 72 77  1  0
 73 69  1  0
 73 77  1  0
 74 73  1  0
 75 76  1  0
 75 74  1  0
 76 72  1  0
 77 78  2  0
 78 79  1  0
 80 79  2  0
 81 80  1  0
 82 56  1  0
 82 87  1  0
 82 83  1  0
 83 86  1  1
 83 84  1  0
 85 83  1  0
 87 90  1  0
 88 92  1  0
 88 87  1  0
 89 88  2  0
 92 91  1  0
 94 92  1  0
 94 95  1  0
 94 93  1  0
M  ISO  4   7 101  17 100  19 100  55 101
M  END
>  <TORSDO>  (47) 
F 20

>  <SCORE>  (47) 
-13.944

>  <name>  (47) 
46

>  <ligand_id>  (47) 
46

>  <original_smiles>  (47) 
[H]c1c([H])c([H])c2c(c1[H])C([H])([H])C([H])([H])C([H])([H])C2([H])N([H])C(=O)C1([H])N(C(=O)C([H])(N([H])C(=O)C([H])(N([H])C([H])([H])[H])C([H])([H])[H])C(C([H])([H])[H])(C([H])([H])[H])C([H])([H])[H])C([H])([H])c2c([H])c(OC3([H])C([H])([H])C([H])(C([H])([H])[H])C([H])([H])C([H])([H])C([H])([N+]([H])([H])C([H])([H])C([H])([H])C4([H])C([H])([H])C([H])([H])C([H])(C(=O)N5C([H])([H])C([H])([H])C([H])([H])C([H])(n6nc(-c7c([H])c([H])c(Oc8c([H])c([H])c(F)c([H])c8F)c([H])c7[H])c(C(=O)N([H])[H])c6N([H])[H])C5([H])[H])C4([H])[H])C3([H])[H])c([H])c([H])c2C1([H])[H]

>  <smiles>  (47) 
[H]c1c([H])c([H])c2c(c1[H])C([H])([H])C([H])([H])C([H])([H])C2([H])N([H])C(=O)C1([H])N(C(=O)C([H])(N([H])C(=O)C([H])(N([H])C([H])([H])[H])C([H])([H])[H])C(C([H])([H])[H])(C([H])([H])[H])C([H])([H])[H])C([H])([H])c2c([H])c(OC3([H])C([H])([H])C([H])(C([H])([H])[H])C([H])([H])C([H])([H])C([H])([N+]([H])([H])C([H])([H])C([H])([H])C4([H])C([H])([H])C([H])([H])C([H])(C(=O)N5C([H])([H])C([H])([H])C([H])([H])C([H])(n6nc(-c7c([H])c([H])c(Oc8c([H])c([H])c(F)c([H])c8F)c([H])c7[H])c(C(=O)N([H])[H])c6N([H])[H])C5([H])[H])C4([H])[H])C3([H])[H])c([H])c([H])c2C1([H])[H]

$$$$
47:0:0
     RDKit          3D

 91 99  0  0  1  0  0  0  0  0999 V2000
  -30.3770  -19.8330   20.9040 C   0  0  0  0  0  3  0  0  0  0  0  0
  -30.1610  -21.2450   21.0820 C   0  0  0  0  0  0  0  0  0  0  0  0
  -29.6410  -18.9960   20.0230 C   0  0  0  0  0  0  0  0  0  0  0  0
  -28.5830  -19.7270   19.3560 C   0  0  0  0  0  0  0  0  0  0  0  0
  -28.2820  -21.1420   19.6270 C   0  0  0  0  0  0  0  0  0  0  0  0
  -29.1090  -21.9950   20.4470 C   0  0  0  0  0  0  0  0  0  0  0  0
  -31.1610  -21.9600   21.9800 C   0  0  0  0  0  1  0  0  0  0  0  0
  -27.7930  -18.9810   18.2810 C   0  0  0  0  0  1  0  0  0  0  0  0
  -27.0320  -21.7850   19.0260 C   0  0  0  0  0  1  0  0  0  0  0  0
  -28.8990  -23.6040   20.7810 C   0  0  0  0  0  3  0  0  0  0  0  0
  -28.2500  -24.8250   19.8740 C   0  0  0  0  0  3  0  0  0  0  0  0
  -28.3380  -26.3100   20.2830 O   0  0  0  0  0  0  0  0  0  0  0  0
  -24.5910  -31.8910   23.1950 C   0  0  0  0  0  0  0  0  0  0  0  0
  -27.2560  -27.2450   20.1800 C   0  0  0  0  0  0  0  0  0  0  0  0
  -23.4270  -30.4990   21.5240 C   0  0  0  0  0  3  0  0  0  0  0  0
  -24.9130  -28.9460   20.1240 C   0  0  0  0  0  0  0  0  0  0  0  0
  -25.9810  -30.7870   21.4150 C   0  0  0  0  0  2  0  0  0  0  0  0
  -26.0740  -29.4040   20.7570 C   0  0  0  0  0  0  0  0  0  0  0  0
  -27.2460  -28.5660   20.7710 C   0  0  0  0  0  3  0  0  0  0  0  0
  -26.0720  -26.8850   19.4970 C   0  0  0  0  0  3  0  0  0  0  0  0
  -24.9190  -27.6980   19.4850 C   0  0  0  0  0  3  0  0  0  0  0  0
  -23.6780  -29.8280   20.1490 C   0  0  0  0  0  2  0  0  0  0  0  0
  -24.6830  -31.0810   22.0990 N   0  0  0  0  0  0  0  0  0  0  0  0
  -23.4950  -32.1690   23.7010 O   0  0  0  0  0  0  0  0  0  0  0  0
  -22.7380  -29.4800   22.4680 C   0  0  0  0  0  0  0  0  0  0  0  0
  -21.4100  -29.3210   22.3270 N   0  0  0  0  0  0  0  0  0  0  0  0
  -23.4000  -28.8410   23.2890 O   0  0  0  0  0  0  0  0  0  0  0  0
  -20.9390  -29.8900   21.6380 H   0  0  0  0  0  0  0  0  0  0  0  0
  -18.0080  -28.2000   22.8340 C   0  0  0  0  0  0  0  0  0  0  0  0
  -20.5730  -28.3840   23.0780 C   0  0  0  0  0  3  0  0  0  0  0  0
  -20.6310  -26.9690   22.4570 C   0  0  0  0  0  2  0  0  0  0  0  0
  -19.5080  -26.7080   21.4470 C   0  0  0  0  0  2  0  0  0  0  0  0
  -18.1390  -26.8690   22.1130 C   0  0  0  0  0  2  0  0  0  0  0  0
  -19.1500  -28.9200   23.2740 C   0  0  0  0  0  0  0  0  0  0  0  0
  -18.9720  -30.1660   23.9110 C   0  0  0  0  0  3  0  0  0  0  0  0
  -17.6830  -30.6940   24.1110 C   0  0  0  0  0  3  0  0  0  0  0  0
  -16.5540  -29.9720   23.6870 C   0  0  0  0  0  3  0  0  0  0  0  0
  -16.7180  -28.7260   23.0560 C   0  0  0  0  0  3  0  0  0  0  0  0
  -25.8530  -32.5270   23.8530 C   0  0  0  0  0  3  0  0  0  0  0  0
  -26.3260  -31.7670   25.1520 C   0  0  1  0  0  0  0  0  0  0  0  0
  -25.2000  -31.5350   26.1860 C   0  0  0  0  0  1  0  0  0  0  0  0
  -26.9230  -30.3840   24.7960 C   0  0  0  0  0  1  0  0  0  0  0  0
  -27.4540  -32.5660   25.8470 C   0  0  0  0  0  1  0  0  0  0  0  0
  -25.5350  -33.9290   24.1660 N   0  0  0  0  0  0  0  0  0  0  0  0
  -25.8910  -34.9790   23.4150 C   0  0  0  0  0  0  0  0  0  0  0  0
  -26.5860  -34.8700   22.4010 O   0  0  0  0  0  0  0  0  0  0  0  0
  -24.9190  -34.0860   24.9510 H   0  0  0  0  0  0  0  0  0  0  0  0
  -24.1840  -36.7830   23.0020 C   0  0  0  0  0  1  0  0  0  0  0  0
  -25.3940  -36.3700   23.8550 C   0  0  0  0  0  3  0  0  0  0  0  0
  -27.4960  -37.2530   24.7680 C   0  0  0  0  0  1  0  0  0  0  0  0
  -26.4350  -37.4180   23.7770 N   0  0  0  0  0  0  0  0  0  0  0  0
  -26.0280  -38.3420   23.9010 H   0  0  0  0  0  0  0  0  0  0  0  0
  -30.2050  -17.4980   19.6520 C   0  0  0  0  0  2  0  0  0  0  0  0
  -30.6520  -14.9320   20.2240 C   0  0  0  0  0  0  0  0  0  0  0  0
  -30.4780  -12.6110   19.3050 C   0  0  0  0  0  2  0  0  0  0  0  0
  -29.5290  -12.6360   18.0860 C   0  0  0  0  0  2  0  0  0  0  0  0
  -28.0690  -12.4520   18.5330 C   0  0  0  0  0  2  0  0  0  0  0  0
  -27.6950  -13.3460   19.7440 C   0  0  0  0  0  3  0  0  0  0  0  0
  -28.7710  -13.3140   20.8510 C   0  0  0  0  0  2  0  0  0  0  0  0
  -30.0430  -13.6900   20.2280 N   0  0  0  0  0  0  0  0  0  0  0  0
  -31.8530  -14.9840   19.9310 O   0  0  0  0  0  0  0  0  0  0  0  0
  -29.8800  -16.1080   20.2680 N   0  0  0  0  0  0  0  0  0  0  0  0
  -28.9010  -15.9540   20.4510 H   0  0  0  0  0  0  0  0  0  0  0  0
  -25.3270  -13.9210   20.5360 C   0  0  0  0  0  0  0  0  0  0  0  0
  -24.2630  -13.1400   20.9100 C   0  0  0  0  0  0  0  0  0  0  0  0
  -24.7270  -11.7920   20.8490 C   0  0  0  0  0  0  0  0  0  0  0  0
  -26.3620  -13.0440   20.2580 N   0  0  0  0  0  0  0  0  0  0  0  0
  -26.0130  -11.7570   20.5200 N   0  0  0  0  0  0  0  0  0  0  0  0
  -24.0020  -10.5270   21.0290 C   0  0  0  0  0  0  0  0  0  0  0  0
  -24.4270   -9.5510   21.9570 C   0  0  0  0  0  3  0  0  0  0  0  0
  -23.6970   -8.3550   22.1250 C   0  0  0  0  0  3  0  0  0  0  0  0
  -22.5280   -8.1260   21.3580 C   0  0  0  0  0  0  0  0  0  0  0  0
  -22.1160   -9.0930   20.4220 C   0  0  0  0  0  3  0  0  0  0  0  0
  -22.8500  -10.2810   20.2560 C   0  0  0  0  0  3  0  0  0  0  0  0
  -21.7670   -6.9850   21.4410 O   0  0  0  0  0  0  0  0  0  0  0  0
  -21.6940   -6.2440   22.5940 C   0  0  0  0  0  0  0  0  0  0  0  0
  -21.2150   -6.7950   23.8010 C   0  0  0  0  0  3  0  0  0  0  0  0
  -21.0930   -5.9810   24.9460 C   0  0  0  0  0  3  0  0  0  0  0  0
  -21.4380   -4.6170   24.8810 C   0  0  0  0  0  0  0  0  0  0  0  0
  -21.9070   -4.0670   23.6750 C   0  0  0  0  0  3  0  0  0  0  0  0
  -22.0310   -4.8770   22.5340 C   0  0  0  0  0  0  0  0  0  0  0  0
  -22.4670   -4.3360   21.3700 F   0  0  0  0  0  0  0  0  0  0  0  0
  -21.3100   -3.8340   25.9770 F   0  0  0  0  0  0  0  0  0  0  0  0
  -22.8700  -13.6180   21.2010 C   0  0  0  0  0  0  0  0  0  0  0  0
  -22.1440  -12.9060   22.0540 N   0  0  0  0  0  0  0  0  0  0  0  0
  -22.4380  -14.6600   20.7150 O   0  0  0  0  0  0  0  0  0  0  0  0
  -22.5010  -12.0640   22.4790 H   0  0  0  0  0  0  0  0  0  0  0  0
  -21.2100  -13.2140   22.2910 H   0  0  0  0  0  0  0  0  0  0  0  0
  -25.4690  -15.2980   20.3770 N   0  0  0  0  0  0  0  0  0  0  0  0
  -24.6830  -15.9180   20.5390 H   0  0  0  0  0  0  0  0  0  0  0  0
  -26.2870  -15.7800   20.0260 H   0  0  0  0  0  0  0  0  0  0  0  0
  1  2  1  0
  2  7  1  0
  3  1  2  0
  4  5  2  0
  4  3  1  0
  5  6  1  0
  6 10  1  0
  6  2  2  0
  8  4  1  0
  9  5  1  0
 11 12  1  0
 11 10  2  0
 13 24  2  0
 14 12  1  0
 14 19  1  0
 15 23  1  0
 15 25  1  0
 16 22  1  0
 16 18  1  0
 17 23  1  0
 18 19  2  0
 18 17  1  0
 20 14  2  0
 21 20  1  0
 21 16  2  0
 22 15  1  0
 23 13  1  0
 25 27  2  0
 26 25  1  0
 28 26  1  0
 29 38  2  0
 29 34  1  0
 30 26  1  0
 30 34  1  0
 31 30  1  0
 32 33  1  0
 32 31  1  0
 33 29  1  0
 34 35  2  0
 35 36  1  0
 37 36  2  0
 38 37  1  0
 39 13  1  0
 39 44  1  0
 39 40  1  0
 40 43  1  1
 40 41  1  0
 42 40  1  0
 44 47  1  0
 45 49  1  0
 45 44  1  0
 46 45  2  0
 49 48  1  0
 51 49  1  0
 51 52  1  0
 51 50  1  0
 53  3  1  0
 53 62  1  0
 54 60  1  0
 54 62  1  0
 55 60  1  0
 56 57  1  0
 56 55  1  0
 58 57  1  0
 58 67  1  0
 58 59  1  0
 60 59  1  0
 61 54  2  0
 62 63  1  0
 64 65  2  0
 65 84  1  0
 66 65  1  0
 66 69  1  0
 67 68  1  0
 67 64  1  0
 68 66  2  0
 69 70  1  0
 70 71  2  0
 72 75  1  0
 72 71  1  0
 73 72  2  0
 74 73  1  0
 74 69  2  0
 75 76  1  0
 76 77  1  0
 77 78  2  0
 79 78  1  0
 79 83  1  0
 80 79  2  0
 81 76  2  0
 81 80  1  0
 82 81  1  0
 84 85  1  0
 85 88  1  0
 85 87  1  0
 86 84  2  0
 89 64  1  0
 89 90  1  0
 91 89  1  0
M  ISO  4  11 101  12 101  54 100  62 100
M  END
>  <TORSDO>  (48) 
F 19

>  <SCORE>  (48) 
-14.482

>  <name>  (48) 
47

>  <ligand_id>  (48) 
47

>  <original_smiles>  (48) 
[H]c1c([H])c([H])c2c(c1[H])C([H])([H])C([H])([H])C([H])([H])C2([H])N([H])C(=O)C1([H])N(C(=O)C([H])(N([H])C(=O)C([H])(N([H])C([H])([H])[H])C([H])([H])[H])C(C([H])([H])[H])(C([H])([H])[H])C([H])([H])[H])C([H])([H])c2c([H])c(OC([H])([H])C([H])([H])c3c(C([H])([H])[H])c([H])c(C([H])([H])N([H])C(=O)N4C([H])([H])C([H])([H])C([H])([H])C([H])(n5nc(-c6c([H])c([H])c(Oc7c([H])c([H])c(F)c([H])c7F)c([H])c6[H])c(C(=O)N([H])[H])c5N([H])[H])C4([H])[H])c(C([H])([H])[H])c3C([H])([H])[H])c([H])c([H])c2C1([H])[H]

>  <smiles>  (48) 
[H]c1c([H])c([H])c2c(c1[H])C([H])([H])C([H])([H])C([H])([H])C2([H])N([H])C(=O)C1([H])N(C(=O)C([H])(N([H])C(=O)C([H])(N([H])C([H])([H])[H])C([H])([H])[H])C(C([H])([H])[H])(C([H])([H])[H])C([H])([H])[H])C([H])([H])c2c([H])c(OC([H])([H])C([H])([H])c3c(C([H])([H])[H])c([H])c(C([H])([H])N([H])C(=O)N4C([H])([H])C([H])([H])C([H])([H])C([H])(n5nc(-c6c([H])c([H])c(Oc7c([H])c([H])c(F)c([H])c7F)c([H])c6[H])c(C(=O)N([H])[H])c5N([H])[H])C4([H])[H])c(C([H])([H])[H])c3C([H])([H])[H])c([H])c([H])c2C1([H])[H]

$$$$
48:0:0
     RDKit          3D

 93 96  0  0  1  0  0  0  0  0999 V2000
  -21.1310  -28.8730   23.0270 C   0  0  0  0  0  2  0  0  0  0  0  0
  -20.3960  -27.3230   23.3890 C   0  0  0  0  0  1  0  0  0  0  0  0
  -21.8760  -28.8410   21.4090 C   0  0  0  0  0  2  0  0  0  0  0  0
  -20.9920  -25.9690   21.5820 C   0  0  0  0  0  1  0  0  0  0  0  0
  -22.8100  -27.6970   20.5850 C   0  0  0  0  0  3  0  0  0  0  0  0
  -21.8750  -26.5560   20.5080 N   0  0  0  0  0  2  0  0  0  0  0  0
  -24.4300  -27.1400   20.8360 O   0  0  0  0  0  0  0  0  0  0  0  0
  -24.7770  -32.0710   23.2240 C   0  0  0  0  0  0  0  0  0  0  0  0
  -25.8660  -27.2880   20.4380 C   0  0  0  0  0  3  0  0  0  0  0  0
  -23.7720  -30.4830   21.7880 C   0  0  0  0  0  3  0  0  0  0  0  0
  -25.0150  -29.4990   19.7360 C   0  0  0  0  0  3  0  0  0  0  0  0
  -26.1750  -30.8790   21.4770 C   0  0  0  0  0  2  0  0  0  0  0  0
  -26.0560  -29.6000   20.6520 C   0  0  0  0  0  3  0  0  0  0  0  0
  -26.6580  -28.3760   20.9470 C   0  0  0  0  0  2  0  0  0  0  0  0
  -25.7990  -27.2920   19.0750 C   0  0  0  0  0  2  0  0  0  0  0  0
  -24.9720  -28.4010   18.8140 C   0  0  0  0  0  2  0  0  0  0  0  0
  -23.8590  -30.3230   20.1610 C   0  0  0  0  0  2  0  0  0  0  0  0
  -24.9100  -31.2690   22.1430 N   0  0  0  0  0  0  0  0  0  0  0  0
  -23.6700  -32.3490   23.7240 O   0  0  0  0  0  0  0  0  0  0  0  0
  -23.8600  -29.3170   22.9750 C   0  0  0  0  0  0  0  0  0  0  0  0
  -23.5260  -28.0200   23.1560 N   0  0  0  0  0  0  0  0  0  0  0  0
  -23.9880  -29.5730   24.1200 O   0  0  0  0  0  0  0  0  0  0  0  0
  -23.9470  -27.7600   24.0350 H   0  0  0  0  0  0  0  0  0  0  0  0
  -18.3500  -27.3700   22.0590 C   0  0  0  0  0  3  0  0  0  0  0  0
  -22.4310  -27.0340   22.8510 C   0  0  0  0  0  2  0  0  0  0  0  0
  -21.7290  -25.4670   23.7700 C   0  0  0  0  0  1  0  0  0  0  0  0
  -19.8320  -24.9920   23.4300 C   0  0  0  0  0  1  0  0  0  0  0  0
  -18.5060  -25.8040   22.4860 C   0  0  0  0  0  2  0  0  0  0  0  0
  -19.6600  -28.0250   21.4880 C   0  0  0  0  0  2  0  0  0  0  0  0
  -19.0800  -29.4900   21.8530 C   0  0  0  0  0  2  0  0  0  0  0  0
  -18.1260  -30.0720   22.8240 C   0  0  0  0  0  2  0  0  0  0  0  0
  -17.0390  -29.3110   23.2000 C   0  0  0  0  0  2  0  0  0  0  0  0
  -17.1590  -27.9850   22.7200 C   0  0  0  0  0  2  0  0  0  0  0  0
  -26.0440  -32.5820   23.9050 C   0  0  0  0  0  3  0  0  0  0  0  0
  -25.7180  -33.9420   24.3060 N   0  0  0  0  0  0  0  0  0  0  0  0
  -25.9330  -35.0000   23.5240 C   0  0  0  0  0  0  0  0  0  0  0  0
  -26.5350  -34.9270   22.4500 O   0  0  0  0  0  0  0  0  0  0  0  0
  -25.1790  -34.0590   25.1520 H   0  0  0  0  0  0  0  0  0  0  0  0
  -24.1550  -36.7520   23.2520 C   0  0  0  0  0  1  0  0  0  0  0  0
  -25.4170  -36.3520   24.0330 C   0  0  0  0  0  3  0  0  0  0  0  0
  -27.5630  -37.2090   24.8480 C   0  0  0  0  0  1  0  0  0  0  0  0
  -26.4330  -37.4180   23.9450 N   0  0  0  0  0  0  0  0  0  0  0  0
  -26.0240  -38.3250   24.1530 H   0  0  0  0  0  0  0  0  0  0  0  0
  -26.5080  -31.7100   25.1330 C   0  0  1  0  0  0  0  0  0  0  0  0
  -25.4260  -31.4830   26.2200 C   0  0  0  0  0  1  0  0  0  0  0  0
  -27.0900  -30.3410   24.6930 C   0  0  0  0  0  1  0  0  0  0  0  0
  -27.6770  -32.4460   25.8180 C   0  0  0  0  0  1  0  0  0  0  0  0
  -21.9990  -24.0100   21.3950 C   0  0  0  0  0 15  0  0  0  0  0  0
  -25.6820  -20.2070   22.0380 C   0  0  0  0  0  2  0  0  0  0  0  0
  -25.6670  -20.4190   19.9650 C   0  0  0  0  0  2  0  0  0  0  0  0
  -24.2080  -21.4580   22.1840 C   0  0  0  0  0  2  0  0  0  0  0  0
  -24.1860  -21.6600   20.0990 C   0  0  0  0  0  2  0  0  0  0  0  0
  -26.3660  -18.9400   20.8550 C   0  0  0  0  0  2  0  0  0  0  0  0
  -23.6210  -22.7730   21.2660 N   0  0  0  0  0  0  0  0  0  0  0  0
  -24.3600  -23.4570   21.3120 H   0  0  0  0  0  0  0  0  0  0  0  0
  -29.0330  -16.1690   20.5190 C   0  0  0  0  0  0  0  0  0  0  0  0
  -30.1270  -13.6520   19.6560 C   0  0  0  0  0  2  0  0  0  0  0  0
  -29.4930  -12.8530   18.4520 C   0  0  0  0  0  2  0  0  0  0  0  0
  -28.1260  -12.2700   18.8350 C   0  0  0  0  0  2  0  0  0  0  0  0
  -27.4440  -13.2550   19.7970 C   0  0  0  0  0  3  0  0  0  0  0  0
  -28.2790  -13.6570   21.0020 C   0  0  0  0  0  2  0  0  0  0  0  0
  -29.1270  -14.6510   20.3940 N   0  0  0  0  0  0  0  0  0  0  0  0
  -30.2970  -16.3360   20.3480 O   0  0  0  0  0  0  0  0  0  0  0  0
  -27.7280  -17.3520   20.6870 N   0  0  0  0  0  2  0  0  0  0  0  0
  -28.4790  -18.0290   20.6570 H   0  0  0  0  0  0  0  0  0  0  0  0
  -25.1590  -13.8020   20.5620 C   0  0  0  0  0  0  0  0  0  0  0  0
  -24.1110  -13.0220   20.9290 C   0  0  0  0  0  0  0  0  0  0  0  0
  -24.5830  -11.6730   20.8790 C   0  0  0  0  0  0  0  0  0  0  0  0
  -26.1630  -12.9080   20.2700 N   0  0  0  0  0  0  0  0  0  0  0  0
  -25.8610  -11.6260   20.5460 N   0  0  0  0  0  0  0  0  0  0  0  0
  -23.8710  -10.4140   21.0490 C   0  0  0  0  0  0  0  0  0  0  0  0
  -24.3420   -9.4120   21.9230 C   0  0  0  0  0  3  0  0  0  0  0  0
  -23.6190   -8.2120   22.0760 C   0  0  0  0  0  3  0  0  0  0  0  0
  -22.4170   -8.0140   21.3540 C   0  0  0  0  0  0  0  0  0  0  0  0
  -21.9730   -9.0070   20.4640 C   0  0  0  0  0  3  0  0  0  0  0  0
  -22.6960  -10.1980   20.3080 C   0  0  0  0  0  3  0  0  0  0  0  0
  -21.6570   -6.8750   21.4230 O   0  0  0  0  0  0  0  0  0  0  0  0
  -21.6810   -6.0660   22.5290 C   0  0  0  0  0  0  0  0  0  0  0  0
  -21.3980   -6.5590   23.8210 C   0  0  0  0  0  3  0  0  0  0  0  0
  -21.3650   -5.6760   24.9190 C   0  0  0  0  0  3  0  0  0  0  0  0
  -21.6050   -4.3030   24.7250 C   0  0  0  0  0  0  0  0  0  0  0  0
  -21.8830   -3.8100   23.4380 C   0  0  0  0  0  3  0  0  0  0  0  0
  -21.9180   -4.6900   22.3420 C   0  0  0  0  0  0  0  0  0  0  0  0
  -22.1660   -4.2090   21.1000 F   0  0  0  0  0  0  0  0  0  0  0  0
  -21.5640   -3.4520   25.7770 F   0  0  0  0  0  0  0  0  0  0  0  0
  -22.7260  -13.5070   21.2050 C   0  0  0  0  0  0  0  0  0  0  0  0
  -21.9990  -12.8070   22.0650 N   0  0  0  0  0  0  0  0  0  0  0  0
  -22.3020  -14.5420   20.6920 O   0  0  0  0  0  0  0  0  0  0  0  0
  -22.3640  -11.9720   22.4970 H   0  0  0  0  0  0  0  0  0  0  0  0
  -21.0640  -13.1110   22.2970 H   0  0  0  0  0  0  0  0  0  0  0  0
  -25.3350  -15.1790   20.4270 N   0  0  0  0  0  0  0  0  0  0  0  0
  -24.5780  -15.8290   20.6060 H   0  0  0  0  0  0  0  0  0  0  0  0
  -26.2000  -15.6470   20.1800 H   0  0  0  0  0  0  0  0  0  0  0  0
  1  2  1  0
  3  1  1  0
  5  7  1  0
  5  3  1  0
  6  5  1  0
  6  4  1  0
  8 19  2  0
  9  7  1  0
  9 14  1  0
 10 18  1  0
 10 20  1  0
 11 16  1  0
 11 17  1  0
 11 13  1  0
 12 18  1  0
 13 14  1  0
 13 12  1  0
 15  9  1  0
 16 15  1  0
 17 10  1  0
 18  8  1  0
 20 21  1  0
 20 22  2  0
 21 23  1  0
 24 28  1  0
 24 33  1  0
 25 21  1  0
 25 26  1  0
 28 27  1  0
 29 30  1  0
 29 24  1  0
 30 31  1  0
 31 32  1  0
 33 32  1  0
 34  8  1  0
 34 35  1  0
 34 44  1  0
 35 38  1  0
 36 40  1  0
 36 35  1  0
 37 36  2  0
 40 39  1  0
 42 40  1  0
 42 43  1  0
 42 41  1  0
 44 47  1  1
 44 45  1  0
 46 44  1  0
 49 51  1  0
 50 52  1  0
 50 53  1  0
 52 54  1  0
 53 49  1  0
 54 55  1  0
 54 51  1  0
 56 64  1  0
 57 62  1  0
 58 59  1  0
 58 57  1  0
 60 59  1  0
 60 69  1  0
 60 61  1  0
 62 56  1  0
 62 61  1  0
 63 56  2  0
 65 64  1  0
 66 67  2  0
 67 86  1  0
 68 67  1  0
 68 71  1  0
 69 70  1  0
 69 66  1  0
 70 68  2  0
 71 72  1  0
 72 73  2  0
 74 77  1  0
 74 73  1  0
 75 74  2  0
 76 75  1  0
 76 71  2  0
 77 78  1  0
 78 79  1  0
 79 80  2  0
 81 80  1  0
 81 85  1  0
 82 81  2  0
 83 78  2  0
 83 82  1  0
 84 83  1  0
 86 87  1  0
 87 90  1  0
 87 89  1  0
 88 86  2  0
 91 66  1  0
 91 92  1  0
 93 91  1  0
M  ISO  4   5 101   7 101  56 100  64 100
M  END
>  <TORSDO>  (49) 
F 18

>  <SCORE>  (49) 
21.064

>  <name>  (49) 
48

>  <ligand_id>  (49) 
48

>  <original_smiles>  (49) 
[H]c1c(Oc2c([H])c([H])c3c(c2[H])C([H])([H])N(C(=O)C([H])(N([H])C(=O)C([H])(N([H])C([H])([H])[H])C([H])([H])[H])C(C([H])([H])[H])(C([H])([H])[H])C([H])([H])[H])C([H])(C(=O)N([H])C2([H])c4c([H])c([H])c([H])c([H])c4C([H])([H])C([H])([H])C2([H])[H])C3([H])[H])nc(C([H])([H])[N+]2([H])C([H])([H])C([H])([H])C([H])(N([H])C(=O)N3C([H])([H])C([H])([H])C([H])([H])C([H])(n4nc(-c5c([H])c([H])c(Oc6c([H])c([H])c(F)c([H])c6F)c([H])c5[H])c(C(=O)N([H])[H])c4N([H])[H])C3([H])[H])C([H])([H])C2([H])[H])c([H])c1[H]

>  <smiles>  (49) 
[H]c1c(Oc2c([H])c([H])c3c(c2[H])C([H])([H])N(C(=O)C([H])(N([H])C(=O)C([H])(N([H])C([H])([H])[H])C([H])([H])[H])C(C([H])([H])[H])(C([H])([H])[H])C([H])([H])[H])C([H])(C(=O)N([H])C2([H])c4c([H])c([H])c([H])c([H])c4C([H])([H])C([H])([H])C2([H])[H])C3([H])[H])nc(C([H])([H])[N+]2([H])C([H])([H])C([H])([H])C([H])(N([H])C(=O)N3C([H])([H])C([H])([H])C([H])([H])C([H])(n4nc(-c5c([H])c([H])c(Oc6c([H])c([H])c(F)c([H])c6F)c([H])c5[H])c(C(=O)N([H])[H])c4N([H])[H])C3([H])[H])C([H])([H])C2([H])[H])c([H])c1[H]

$$$$
49:0:0
     RDKit          3D

 89 97  0  0  1  0  0  0  0  0999 V2000
  -29.6000  -20.8200   18.8550 C   0  0  0  0  0  0  0  0  0  0  0  0
  -29.2030  -20.9040   21.1170 C   0  0  0  0  0  0  0  0  0  0  0  0
  -30.0180  -19.2250   18.8980 C   0  0  0  0  0  2  0  0  0  0  0  0
  -29.6210  -19.3290   21.3150 C   0  0  0  0  0  2  0  0  0  0  0  0
  -29.5860  -18.2660   20.1110 C   0  0  0  0  0  3  0  0  0  0  0  0
  -29.2640  -21.6410   19.9370 N   0  0  0  0  0  0  0  0  0  0  0  0
  -29.6540  -21.3390   17.7340 O   0  0  0  0  0  0  0  0  0  0  0  0
  -28.8680  -21.4950   22.1500 O   0  0  0  0  0  0  0  0  0  0  0  0
  -30.7140  -15.4750   20.1730 C   0  0  0  0  0  0  0  0  0  0  0  0
  -30.7610  -13.0290   19.3660 C   0  0  0  0  0  2  0  0  0  0  0  0
  -29.8400  -12.8350   18.1340 C   0  0  0  0  0  2  0  0  0  0  0  0
  -28.3850  -12.5710   18.5690 C   0  0  0  0  0  2  0  0  0  0  0  0
  -27.9260  -13.5370   19.6930 C   0  0  0  0  0  3  0  0  0  0  0  0
  -28.9740  -13.6660   20.8190 C   0  0  0  0  0  2  0  0  0  0  0  0
  -30.2120  -14.1550   20.1930 N   0  0  0  0  0  0  0  0  0  0  0  0
  -31.9140  -15.5700   19.8810 O   0  0  0  0  0  0  0  0  0  0  0  0
  -29.8290  -16.6290   20.2910 N   0  0  0  0  0  0  0  0  0  0  0  0
  -28.9370  -16.2340   20.5540 H   0  0  0  0  0  0  0  0  0  0  0  0
  -25.5540  -14.0760   20.4730 C   0  0  0  0  0  0  0  0  0  0  0  0
  -24.5020  -13.2880   20.8470 C   0  0  0  0  0  0  0  0  0  0  0  0
  -24.9750  -11.9410   20.7900 C   0  0  0  0  0  0  0  0  0  0  0  0
  -26.6000  -13.2110   20.2030 N   0  0  0  0  0  0  0  0  0  0  0  0
  -26.2630  -11.9210   20.4610 N   0  0  0  0  0  0  0  0  0  0  0  0
  -24.2570  -10.6720   20.9640 C   0  0  0  0  0  0  0  0  0  0  0  0
  -24.6500   -9.7260   21.9370 C   0  0  0  0  0  3  0  0  0  0  0  0
  -23.9290   -8.5240   22.1000 C   0  0  0  0  0  3  0  0  0  0  0  0
  -22.8010   -8.2550   21.2880 C   0  0  0  0  0  0  0  0  0  0  0  0
  -22.4280   -9.1900   20.3050 C   0  0  0  0  0  3  0  0  0  0  0  0
  -23.1500  -10.3830   20.1420 C   0  0  0  0  0  3  0  0  0  0  0  0
  -22.0550   -7.1040   21.3590 O   0  0  0  0  0  0  0  0  0  0  0  0
  -21.8720   -6.4360   22.5430 C   0  0  0  0  0  0  0  0  0  0  0  0
  -21.2380   -7.0410   23.6490 C   0  0  0  0  0  3  0  0  0  0  0  0
  -21.0080   -6.2960   24.8230 C   0  0  0  0  0  3  0  0  0  0  0  0
  -21.4020   -4.9450   24.8890 C   0  0  0  0  0  0  0  0  0  0  0  0
  -22.0310   -4.3410   23.7870 C   0  0  0  0  0  3  0  0  0  0  0  0
  -22.2620   -5.0830   22.6160 C   0  0  0  0  0  0  0  0  0  0  0  0
  -22.8470   -4.4880   21.5490 F   0  0  0  0  0  0  0  0  0  0  0  0
  -21.1750   -4.2270   26.0140 F   0  0  0  0  0  0  0  0  0  0  0  0
  -23.1040  -13.7530   21.1380 C   0  0  0  0  0  0  0  0  0  0  0  0
  -22.3860  -13.0460   22.0020 N   0  0  0  0  0  0  0  0  0  0  0  0
  -22.6570  -14.7790   20.6280 O   0  0  0  0  0  0  0  0  0  0  0  0
  -22.7560  -12.2160   22.4420 H   0  0  0  0  0  0  0  0  0  0  0  0
  -21.4480  -13.3460   22.2360 H   0  0  0  0  0  0  0  0  0  0  0  0
  -25.7040  -15.4510   20.3130 N   0  0  0  0  0  0  0  0  0  0  0  0
  -24.9230  -16.0890   20.4220 H   0  0  0  0  0  0  0  0  0  0  0  0
  -26.5160  -15.8900   19.9000 H   0  0  0  0  0  0  0  0  0  0  0  0
  -29.3270  -23.3020   19.8940 C   0  0  0  0  0  3  0  0  0  0  0  0
  -28.1730  -24.6270   19.8080 C   0  0  0  0  0  3  0  0  0  0  0  0
  -28.3890  -26.2270   19.9810 O   0  0  0  0  0  0  0  0  0  0  0  0
  -24.7460  -31.8900   23.2900 C   0  0  0  0  0  0  0  0  0  0  0  0
  -27.3440  -27.2680   19.9920 C   0  0  0  0  0  0  0  0  0  0  0  0
  -23.5590  -30.5760   21.5790 C   0  0  0  0  0  3  0  0  0  0  0  0
  -25.0150  -29.0770   20.0650 C   0  0  0  0  0  0  0  0  0  0  0  0
  -26.1190  -30.8350   21.4350 C   0  0  0  0  0  2  0  0  0  0  0  0
  -26.1990  -29.4730   20.6990 C   0  0  0  0  0  0  0  0  0  0  0  0
  -27.3600  -28.5890   20.6400 C   0  0  0  0  0  3  0  0  0  0  0  0
  -26.1280  -27.0050   19.3260 C   0  0  0  0  0  3  0  0  0  0  0  0
  -25.0000  -27.8630   19.3600 C   0  0  0  0  0  3  0  0  0  0  0  0
  -23.7860  -29.9760   20.1660 C   0  0  0  0  0  2  0  0  0  0  0  0
  -24.8290  -31.1240   22.1560 N   0  0  0  0  0  0  0  0  0  0  0  0
  -23.6570  -32.1400   23.8300 O   0  0  0  0  0  0  0  0  0  0  0  0
  -22.8810  -29.5200   22.4880 C   0  0  0  0  0  0  0  0  0  0  0  0
  -21.5550  -29.3390   22.3470 N   0  0  0  0  0  0  0  0  0  0  0  0
  -23.5540  -28.8640   23.2880 O   0  0  0  0  0  0  0  0  0  0  0  0
  -21.0690  -29.9180   21.6760 H   0  0  0  0  0  0  0  0  0  0  0  0
  -18.1850  -28.0680   22.7780 C   0  0  0  0  0  0  0  0  0  0  0  0
  -20.7420  -28.3520   23.0620 C   0  0  0  0  0  3  0  0  0  0  0  0
  -20.8640  -26.9550   22.4100 C   0  0  0  0  0  2  0  0  0  0  0  0
  -19.7660  -26.6730   21.3790 C   0  0  0  0  0  2  0  0  0  0  0  0
  -18.3810  -26.7630   22.0270 C   0  0  0  0  0  2  0  0  0  0  0  0
  -19.2940  -28.8220   23.2500 C   0  0  0  0  0  0  0  0  0  0  0  0
  -19.0550  -30.0440   23.9160 C   0  0  0  0  0  3  0  0  0  0  0  0
  -17.7430  -30.5130   24.1140 C   0  0  0  0  0  3  0  0  0  0  0  0
  -16.6500  -29.7560   23.6580 C   0  0  0  0  0  3  0  0  0  0  0  0
  -16.8720  -28.5350   22.9950 C   0  0  0  0  0  3  0  0  0  0  0  0
  -26.0150  -32.5040   23.9530 C   0  0  0  0  0  3  0  0  0  0  0  0
  -25.7040  -33.8960   24.3220 N   0  0  0  0  0  0  0  0  0  0  0  0
  -26.0030  -34.9720   23.5820 C   0  0  0  0  0  0  0  0  0  0  0  0
  -26.6350  -34.8970   22.5250 O   0  0  0  0  0  0  0  0  0  0  0  0
  -25.1370  -34.0250   25.1470 H   0  0  0  0  0  0  0  0  0  0  0  0
  -24.2330  -36.7500   23.3700 C   0  0  0  0  0  1  0  0  0  0  0  0
  -25.5290  -36.3490   24.0920 C   0  0  0  0  0  3  0  0  0  0  0  0
  -27.6920  -37.2630   24.8080 C   0  0  0  0  0  1  0  0  0  0  0  0
  -26.5380  -37.4180   23.9270 N   0  0  0  0  0  0  0  0  0  0  0  0
  -26.1280  -38.3320   24.1010 H   0  0  0  0  0  0  0  0  0  0  0  0
  -26.4990  -31.7010   25.2250 C   0  0  1  0  0  0  0  0  0  0  0  0
  -25.3830  -31.4480   26.2650 C   0  0  0  0  0  1  0  0  0  0  0  0
  -27.0830  -30.3280   24.8230 C   0  0  0  0  0  1  0  0  0  0  0  0
  -27.6400  -32.4740   25.9290 C   0  0  0  0  0  1  0  0  0  0  0  0
  1  3  1  0
  1  6  1  0
  2  4  1  0
  2  8  2  0
  3  5  1  0
  5 17  1  0
  5  4  1  0
  6  2  1  0
  7  1  2  0
  9 15  1  0
  9 17  1  0
 10 15  1  0
 11 12  1  0
 11 10  1  0
 13 12  1  0
 13 22  1  0
 13 14  1  0
 15 14  1  0
 16  9  2  0
 17 18  1  0
 19 20  2  0
 20 39  1  0
 21 20  1  0
 21 24  1  0
 22 23  1  0
 22 19  1  0
 23 21  2  0
 24 25  1  0
 25 26  2  0
 27 30  1  0
 27 26  1  0
 28 27  2  0
 29 28  1  0
 29 24  2  0
 30 31  1  0
 31 36  2  0
 31 32  1  0
 32 33  2  0
 33 34  1  0
 34 38  1  0
 35 34  2  0
 36 35  1  0
 37 36  1  0
 39 40  1  0
 40 43  1  0
 40 42  1  0
 41 39  2  0
 44 45  1  0
 44 19  1  0
 46 44  1  0
 47  6  1  0
 48 47  2  0
 48 49  1  0
 49 51  1  0
 50 61  2  0
 51 56  1  0
 52 60  1  0
 52 62  1  0
 53 59  1  0
 53 55  1  0
 54 60  1  0
 55 54  1  0
 56 55  2  0
 57 58  1  0
 57 51  2  0
 58 53  2  0
 59 52  1  0
 60 50  1  0
 62 64  2  0
 63 62  1  0
 65 63  1  0
 66 75  2  0
 66 71  1  0
 67 63  1  0
 67 71  1  0
 68 67  1  0
 69 70  1  0
 69 68  1  0
 70 66  1  0
 71 72  2  0
 72 73  1  0
 74 73  2  0
 75 74  1  0
 76 50  1  0
 76 77  1  0
 76 86  1  0
 77 80  1  0
 78 82  1  0
 78 77  1  0
 79 78  2  0
 82 81  1  0
 84 82  1  0
 84 85  1  0
 84 83  1  0
 86 89  1  1
 86 87  1  0
 88 86  1  0
M  ISO  4   9 100  17 100  48 101  49 101
M  END
>  <TORSDO>  (50) 
F 18

>  <SCORE>  (50) 
-14.895

>  <name>  (50) 
49

>  <ligand_id>  (50) 
49

>  <original_smiles>  (50) 
[H]c1c([H])c([H])c2c(c1[H])C([H])([H])C([H])([H])C([H])([H])C2([H])N([H])C(=O)C1([H])N(C(=O)C([H])(N([H])C(=O)C([H])(N([H])C([H])([H])[H])C([H])([H])[H])C(C([H])([H])[H])(C([H])([H])[H])C([H])([H])[H])C([H])([H])c2c([H])c(OC([H])([H])C([H])([H])N3C(=O)C([H])([H])C([H])(N([H])C(=O)N4C([H])([H])C([H])([H])C([H])([H])C([H])(n5nc(-c6c([H])c([H])c(Oc7c([H])c([H])c(F)c([H])c7F)c([H])c6[H])c(C(=O)N([H])[H])c5N([H])[H])C4([H])[H])C([H])([H])C3=O)c([H])c([H])c2C1([H])[H]

>  <smiles>  (50) 
[H]c1c([H])c([H])c2c(c1[H])C([H])([H])C([H])([H])C([H])([H])C2([H])N([H])C(=O)C1([H])N(C(=O)C([H])(N([H])C(=O)C([H])(N([H])C([H])([H])[H])C([H])([H])[H])C(C([H])([H])[H])(C([H])([H])[H])C([H])([H])[H])C([H])([H])c2c([H])c(OC([H])([H])C([H])([H])N3C(=O)C([H])([H])C([H])(N([H])C(=O)N4C([H])([H])C([H])([H])C([H])([H])C([H])(n5nc(-c6c([H])c([H])c(Oc7c([H])c([H])c(F)c([H])c7F)c([H])c6[H])c(C(=O)N([H])[H])c5N([H])[H])C4([H])[H])C([H])([H])C3=O)c([H])c([H])c2C1([H])[H]

$$$$
50:0:0
     RDKit          3D

 98104  0  0  1  0  0  0  0  0999 V2000
  -25.8530  -27.1040   21.0420 C   0  0  0  0  0  2  0  0  0  0  0  0
  -24.8180  -28.8430   21.7320 C   0  0  0  0  0  1  0  0  0  0  0  0
  -26.0850  -27.7640   18.7580 C   0  0  0  0  0  2  0  0  0  0  0  0
  -25.3150  -29.2050   18.3520 C   0  0  0  0  0  3  0  0  0  0  0  0
  -24.5670  -30.0020   19.7340 C   0  0  0  0  0  2  0  0  0  0  0  0
  -25.9200  -27.6910   22.1250 C   0  0  0  0  0  2  0  0  0  0  0  0
  -26.4290  -28.9940   17.2070 C   0  0  0  0  0  2  0  0  0  0  0  0
  -26.6040  -27.3000   17.3830 C   0  0  0  0  0  3  0  0  0  0  0  0
  -23.9300  -31.3410   19.2640 C   0  0  0  0  0  1  0  0  0  0  0  0
  -27.8750  -26.3050   17.2570 N   0  0  0  0  0  4  0  0  0  0  0  0
  -28.4620  -26.4840   18.0570 H   0  0  0  0  0  0  0  0  0  0  0  0
  -28.3990  -26.6300   16.4630 H   0  0  0  0  0  0  0  0  0  0  0  0
  -27.7840  -24.6960   17.0550 C   0  0  0  0  0  2  0  0  0  0  0  0
  -28.7540  -23.4710   17.7980 C   0  0  0  0  0  2  0  0  0  0  0  0
  -28.3360  -21.8470   18.2160 C   0  0  0  0  0  2  0  0  0  0  0  0
  -29.3560  -20.6250   18.4710 N   0  0  0  0  0  4  0  0  0  0  0  0
  -29.7460  -20.4050   17.5690 H   0  0  0  0  0  0  0  0  0  0  0  0
  -30.1170  -21.0010   19.0100 H   0  0  0  0  0  0  0  0  0  0  0  0
  -28.9950  -19.2170   19.1650 C   0  0  0  0  0  3  0  0  0  0  0  0
  -29.9530  -17.7850   19.1350 C   0  0  0  0  0  3  0  0  0  0  0  0
  -29.6470  -16.2860   19.9240 C   0  0  0  0  0  2  0  0  0  0  0  0
  -30.4660  -14.8170   19.8000 C   0  0  0  0  0  0  0  0  0  0  0  0
  -30.2840  -12.4490   18.9280 C   0  0  0  0  0  2  0  0  0  0  0  0
  -29.2620  -12.4540   17.7720 C   0  0  0  0  0  2  0  0  0  0  0  0
  -27.8290  -12.2650   18.3100 C   0  0  0  0  0  2  0  0  0  0  0  0
  -27.5230  -13.1630   19.5380 C   0  0  0  0  0  3  0  0  0  0  0  0
  -28.6690  -13.1470   20.5700 C   0  0  0  0  0  2  0  0  0  0  0  0
  -29.8970  -13.5420   19.8650 N   0  0  0  0  0  0  0  0  0  0  0  0
  -31.6690  -14.8380   19.5110 O   0  0  0  0  0  0  0  0  0  0  0  0
  -25.2170  -13.7600   20.4700 C   0  0  0  0  0  0  0  0  0  0  0  0
  -24.1630  -12.9930   20.8870 C   0  0  0  0  0  0  0  0  0  0  0  0
  -24.6010  -11.6360   20.7950 C   0  0  0  0  0  0  0  0  0  0  0  0
  -26.2230  -12.8690   20.1350 N   0  0  0  0  0  0  0  0  0  0  0  0
  -25.8680  -11.5850   20.4010 N   0  0  0  0  0  0  0  0  0  0  0  0
  -23.8630  -10.3830   21.0010 C   0  0  0  0  0  0  0  0  0  0  0  0
  -24.3300   -9.3840   21.8850 C   0  0  0  0  0  3  0  0  0  0  0  0
  -23.5900   -8.1970   22.0780 C   0  0  0  0  0  3  0  0  0  0  0  0
  -22.3700   -7.9990   21.3880 C   0  0  0  0  0  0  0  0  0  0  0  0
  -21.9220   -8.9850   20.4930 C   0  0  0  0  0  3  0  0  0  0  0  0
  -22.6630  -10.1640   20.2970 C   0  0  0  0  0  3  0  0  0  0  0  0
  -21.5990   -6.8660   21.4940 O   0  0  0  0  0  0  0  0  0  0  0  0
  -21.5990   -6.1000   22.6320 C   0  0  0  0  0  0  0  0  0  0  0  0
  -21.2470   -6.6360   23.8900 C   0  0  0  0  0  3  0  0  0  0  0  0
  -21.1910   -5.8000   25.0220 C   0  0  0  0  0  3  0  0  0  0  0  0
  -21.4770   -4.4270   24.9000 C   0  0  0  0  0  0  0  0  0  0  0  0
  -21.8230   -3.8890   23.6470 C   0  0  0  0  0  3  0  0  0  0  0  0
  -21.8800   -4.7230   22.5160 C   0  0  0  0  0  0  0  0  0  0  0  0
  -22.1930   -4.1960   21.3080 F   0  0  0  0  0  0  0  0  0  0  0  0
  -21.4160   -3.6210   25.9850 F   0  0  0  0  0  0  0  0  0  0  0  0
  -22.7950  -13.4890   21.2520 C   0  0  0  0  0  0  0  0  0  0  0  0
  -22.1070  -12.7890   22.1480 N   0  0  0  0  0  0  0  0  0  0  0  0
  -22.3470  -14.5320   20.7800 O   0  0  0  0  0  0  0  0  0  0  0  0
  -22.4800  -11.9450   22.5560 H   0  0  0  0  0  0  0  0  0  0  0  0
  -21.1920  -13.1090   22.4310 H   0  0  0  0  0  0  0  0  0  0  0  0
  -25.3960  -15.1320   20.3160 N   0  0  0  0  0  0  0  0  0  0  0  0
  -24.6550  -15.8030   20.5010 H   0  0  0  0  0  0  0  0  0  0  0  0
  -26.2350  -15.5640   19.9520 H   0  0  0  0  0  0  0  0  0  0  0  0
  -27.2550  -27.0130   21.4860 O   0  0  0  0  0  0  0  0  0  0  0  0
  -24.4050  -31.8220   23.2110 C   0  0  0  0  0  0  0  0  0  0  0  0
  -27.6760  -26.5770   20.0840 C   0  0  0  0  0  3  0  0  0  0  0  0
  -22.9510  -30.3150   21.6060 C   0  0  0  0  0  3  0  0  0  0  0  0
  -24.2290  -27.9580   19.8270 C   0  0  0  0  0  2  0  0  0  0  0  0
  -26.2450  -30.8610   21.4090 C   0  0  0  0  0  2  0  0  0  0  0  0
  -26.6180  -29.2340   20.4090 C   0  0  0  0  0  2  0  0  0  0  0  0
  -27.9210  -28.2380   20.3200 C   0  0  0  0  0  2  0  0  0  0  0  0
  -26.2220  -25.6080   19.4140 C   0  0  0  0  0  3  0  0  0  0  0  0
  -24.5270  -26.2860   19.3420 C   0  0  0  0  0  3  0  0  0  0  0  0
  -22.7980  -28.8710   20.3680 C   0  0  0  0  0  2  0  0  0  0  0  0
  -24.5040  -31.2460   21.9890 N   0  0  0  0  0  0  0  0  0  0  0  0
  -23.3160  -31.9670   23.7850 O   0  0  0  0  0  0  0  0  0  0  0  0
  -22.2940  -29.4380   22.7620 C   0  0  0  0  0  0  0  0  0  0  0  0
  -21.0460  -29.0390   22.5490 N   0  0  0  0  0  0  0  0  0  0  0  0
  -22.9230  -28.9060   23.6860 O   0  0  0  0  0  0  0  0  0  0  0  0
  -20.5370  -29.4320   21.7700 H   0  0  0  0  0  0  0  0  0  0  0  0
  -17.9210  -27.4240   22.8570 C   0  0  0  0  0  0  0  0  0  0  0  0
  -20.3740  -27.9960   23.3110 C   0  0  0  0  0  3  0  0  0  0  0  0
  -20.7140  -26.5690   22.8070 C   0  0  0  0  0  2  0  0  0  0  0  0
  -19.7420  -26.0580   21.7390 C   0  0  0  0  0  2  0  0  0  0  0  0
  -18.3070  -26.0720   22.2800 C   0  0  0  0  0  2  0  0  0  0  0  0
  -18.8990  -28.3240   23.3390 C   0  0  0  0  0  0  0  0  0  0  0  0
  -18.5130  -29.5880   23.8280 C   0  0  0  0  0  3  0  0  0  0  0  0
  -17.1590  -29.9600   23.8490 C   0  0  0  0  0  3  0  0  0  0  0  0
  -16.1840  -29.0560   23.3940 C   0  0  0  0  0  3  0  0  0  0  0  0
  -16.5620  -27.7930   22.9040 C   0  0  0  0  0  3  0  0  0  0  0  0
  -25.6770  -32.3670   23.9040 C   0  0  0  0  0  3  0  0  0  0  0  0
  -25.3610  -33.7590   24.2040 N   0  0  0  0  0  0  0  0  0  0  0  0
  -25.6720  -34.7770   23.3920 C   0  0  0  0  0  0  0  0  0  0  0  0
  -26.3390  -34.6320   22.3620 O   0  0  0  0  0  0  0  0  0  0  0  0
  -24.7660  -33.9350   25.0000 H   0  0  0  0  0  0  0  0  0  0  0  0
  -23.9550  -36.5530   22.9310 C   0  0  0  0  0  1  0  0  0  0  0  0
  -25.1700  -36.1720   23.7920 C   0  0  0  0  0  3  0  0  0  0  0  0
  -27.2960  -37.0460   24.6500 C   0  0  0  0  0  1  0  0  0  0  0  0
  -26.2110  -37.2130   23.6850 N   0  0  0  0  0  0  0  0  0  0  0  0
  -25.8100  -38.1370   23.8160 H   0  0  0  0  0  0  0  0  0  0  0  0
  -26.1500  -31.5940   25.2020 C   0  0  1  0  0  0  0  0  0  0  0  0
  -25.0300  -31.3740   26.2410 C   0  0  0  0  0  1  0  0  0  0  0  0
  -26.7640  -30.2060   24.9030 C   0  0  0  0  0  1  0  0  0  0  0  0
  -27.2850  -32.4060   25.8680 C   0  0  0  0  0  1  0  0  0  0  0  0
  1 58  1  0
  1  6  1  0
  2  6  1  0
  4  3  1  0
  4  5  1  0
  7  8  1  0
  7  4  1  0
  8 10  1  0
  8  3  1  0
  9  5  1  0
 10 11  1  0
 12 10  1  0
 13 10  1  0
 13 14  1  0
 14 15  1  0
 15 16  1  0
 16 18  1  0
 16 19  1  0
 17 16  1  0
 20 19  2  0
 20 21  1  0
 22 28  1  0
 22 21  1  0
 23 28  1  0
 24 25  1  0
 24 23  1  0
 26 25  1  0
 26 33  1  0
 26 27  1  0
 28 27  1  0
 29 22  2  0
 30 31  2  0
 31 50  1  0
 32 31  1  0
 32 35  1  0
 33 34  1  0
 33 30  1  0
 34 32  2  0
 35 36  1  0
 36 37  2  0
 38 41  1  0
 38 37  1  0
 39 38  2  0
 40 39  1  0
 40 35  2  0
 41 42  1  0
 42 43  1  0
 43 44  2  0
 45 44  1  0
 45 49  1  0
 46 45  2  0
 47 42  2  0
 47 46  1  0
 48 47  1  0
 50 51  1  0
 51 54  1  0
 51 53  1  0
 52 50  2  0
 55 30  1  0
 55 56  1  0
 57 55  1  0
 59 70  2  0
 60 65  1  0
 60 58  1  0
 61 69  1  0
 61 71  1  0
 62 68  1  0
 63 69  1  0
 64 63  1  0
 65 64  1  0
 66 60  1  0
 67 66  2  0
 67 62  1  0
 68 61  1  0
 69 59  1  0
 71 73  2  0
 72 71  1  0
 74 72  1  0
 75 84  2  0
 75 80  1  0
 76 72  1  0
 76 80  1  0
 77 76  1  0
 78 79  1  0
 78 77  1  0
 79 75  1  0
 80 81  2  0
 81 82  1  0
 83 82  2  0
 84 83  1  0
 85 59  1  0
 85 86  1  0
 85 95  1  0
 86 89  1  0
 87 91  1  0
 87 86  1  0
 88 87  2  0
 91 90  1  0
 93 91  1  0
 93 94  1  0
 93 92  1  0
 95 98  1  1
 95 96  1  0
 97 95  1  0
M  ISO  4   6 101  21 100  22 100  58 101
M  END
>  <TORSDO>  (51) 
F 24

>  <SCORE>  (51) 
-14.199

>  <name>  (51) 
50

>  <ligand_id>  (51) 
50

>  <original_smiles>  (51) 
[H]c1c([H])c([H])c2c(c1[H])C([H])([H])C([H])([H])C([H])([H])C2([H])N([H])C(=O)C1([H])N(C(=O)C([H])(N([H])C(=O)C([H])(N([H])C([H])([H])[H])C([H])([H])[H])C(C([H])([H])[H])(C([H])([H])[H])C([H])([H])[H])C([H])([H])c2c([H])c(Oc3c([H])c(C([H])([H])[H])c4c(c3[H])C([H])([N+]([H])([H])C([H])([H])C([H])([H])C([H])([H])[N+]([H])([H])C([H])([H])C([H])([H])C([H])([H])C(=O)N3C([H])([H])C([H])([H])C([H])([H])C([H])(n5nc(-c6c([H])c([H])c(Oc7c([H])c([H])c(F)c([H])c7F)c([H])c6[H])c(C(=O)N([H])[H])c5N([H])[H])C3([H])[H])C4([H])[H])c([H])c([H])c2C1([H])[H]

>  <smiles>  (51) 
[H]c1c([H])c([H])c2c(c1[H])C([H])([H])C([H])([H])C([H])([H])C2([H])N([H])C(=O)C1([H])N(C(=O)C([H])(N([H])C(=O)C([H])(N([H])C([H])([H])[H])C([H])([H])[H])C(C([H])([H])[H])(C([H])([H])[H])C([H])([H])[H])C([H])([H])c2c([H])c(Oc3c([H])c(C([H])([H])[H])c4c(c3[H])C([H])([N+]([H])([H])C([H])([H])C([H])([H])C([H])([H])[N+]([H])([H])C([H])([H])C([H])([H])C([H])([H])C(=O)N3C([H])([H])C([H])([H])C([H])([H])C([H])(n5nc(-c6c([H])c([H])c(Oc7c([H])c([H])c(F)c([H])c7F)c([H])c6[H])c(C(=O)N([H])[H])c5N([H])[H])C3([H])[H])C4([H])[H])c([H])c([H])c2C1([H])[H]

$$$$
51:0:0
     RDKit          3D

 90 98  0  0  1  0  0  0  0  0999 V2000
  -26.7980  -23.0790   21.7440 C   0  0  0  0  0  3  0  0  0  0  0  0
  -27.6200  -22.0010   21.3450 C   0  0  0  0  0  3  0  0  0  0  0  0
  -27.0340  -24.4170   21.3500 C   0  0  0  0  0  3  0  0  0  0  0  0
  -28.7510  -22.1780   20.5190 C   0  0  0  0  0  0  0  0  0  0  0  0
  -28.9620  -23.6210   20.1140 C   0  0  0  0  0  0  0  0  0  0  0  0
  -28.1070  -24.7900   20.5120 C   0  0  0  0  0  0  0  0  0  0  0  0
  -30.1470  -23.9570   19.2260 C   0  0  0  0  0  1  0  0  0  0  0  0
  -29.6210  -20.8580   20.1470 C   0  0  0  0  0  0  0  0  0  0  0  0
  -29.3800  -19.5090   20.5630 N   0  0  0  0  0  0  0  0  0  0  0  0
  -30.6050  -21.0320   19.4290 O   0  0  0  0  0  0  0  0  0  0  0  0
  -28.5670  -19.3960   21.1530 H   0  0  0  0  0  0  0  0  0  0  0  0
  -30.1900  -18.1550   20.2670 C   0  0  0  0  0  3  0  0  0  0  0  0
  -29.7870  -16.5650   20.7390 C   0  0  0  0  0  3  0  0  0  0  0  0
  -30.6180  -15.1450   20.3940 C   0  0  0  0  0  0  0  0  0  0  0  0
  -30.5490  -12.7900   19.4160 C   0  0  0  0  0  2  0  0  0  0  0  0
  -29.6330  -12.7660   18.1670 C   0  0  0  0  0  2  0  0  0  0  0  0
  -28.1640  -12.5390   18.5700 C   0  0  0  0  0  2  0  0  0  0  0  0
  -27.7360  -13.4410   19.7570 C   0  0  0  0  0  3  0  0  0  0  0  0
  -28.7740  -13.4360   20.8990 C   0  0  0  0  0  2  0  0  0  0  0  0
  -30.0580  -13.8630   20.3310 N   0  0  0  0  0  0  0  0  0  0  0  0
  -31.8110  -15.2190   20.0730 O   0  0  0  0  0  0  0  0  0  0  0  0
  -25.3360  -13.9970   20.4490 C   0  0  0  0  0  0  0  0  0  0  0  0
  -24.2730  -13.2140   20.8030 C   0  0  0  0  0  0  0  0  0  0  0  0
  -24.7520  -11.8670   20.7900 C   0  0  0  0  0  0  0  0  0  0  0  0
  -26.3930  -13.1280   20.2330 N   0  0  0  0  0  0  0  0  0  0  0  0
  -26.0500  -11.8430   20.5040 N   0  0  0  0  0  0  0  0  0  0  0  0
  -24.0340  -10.5980   20.9760 C   0  0  0  0  0  0  0  0  0  0  0  0
  -24.4340   -9.6580   21.9490 C   0  0  0  0  0  3  0  0  0  0  0  0
  -23.7140   -8.4550   22.1210 C   0  0  0  0  0  3  0  0  0  0  0  0
  -22.5810   -8.1850   21.3180 C   0  0  0  0  0  0  0  0  0  0  0  0
  -22.2000   -9.1150   20.3340 C   0  0  0  0  0  3  0  0  0  0  0  0
  -22.9200  -10.3090   20.1610 C   0  0  0  0  0  3  0  0  0  0  0  0
  -21.8360   -7.0330   21.3970 O   0  0  0  0  0  0  0  0  0  0  0  0
  -21.7110   -6.3360   22.5720 C   0  0  0  0  0  0  0  0  0  0  0  0
  -21.1690   -6.9260   23.7340 C   0  0  0  0  0  3  0  0  0  0  0  0
  -20.9930   -6.1540   24.8990 C   0  0  0  0  0  3  0  0  0  0  0  0
  -21.3480   -4.7930   24.9030 C   0  0  0  0  0  0  0  0  0  0  0  0
  -21.8840   -4.2010   23.7440 C   0  0  0  0  0  3  0  0  0  0  0  0
  -22.0610   -4.9700   22.5820 C   0  0  0  0  0  0  0  0  0  0  0  0
  -22.5560   -4.3910   21.4620 F   0  0  0  0  0  0  0  0  0  0  0  0
  -21.1730   -4.0480   26.0200 F   0  0  0  0  0  0  0  0  0  0  0  0
  -22.8660  -13.6780   21.0430 C   0  0  0  0  0  0  0  0  0  0  0  0
  -22.1270  -12.9800   21.8980 N   0  0  0  0  0  0  0  0  0  0  0  0
  -22.4300  -14.6960   20.5060 O   0  0  0  0  0  0  0  0  0  0  0  0
  -22.4930  -12.1580   22.3530 H   0  0  0  0  0  0  0  0  0  0  0  0
  -21.1820  -13.2740   22.1010 H   0  0  0  0  0  0  0  0  0  0  0  0
  -25.4890  -15.3690   20.2670 N   0  0  0  0  0  0  0  0  0  0  0  0
  -24.7130  -16.0150   20.3640 H   0  0  0  0  0  0  0  0  0  0  0  0
  -26.3410  -15.8160   19.9540 H   0  0  0  0  0  0  0  0  0  0  0  0
  -28.2720  -26.2340   20.2110 O   0  0  0  0  0  0  0  0  0  0  0  0
  -24.6290  -31.9480   23.2340 C   0  0  0  0  0  0  0  0  0  0  0  0
  -27.2150  -27.2290   20.2000 C   0  0  0  0  0  0  0  0  0  0  0  0
  -23.4300  -30.5470   21.5970 C   0  0  0  0  0  3  0  0  0  0  0  0
  -24.8820  -28.9750   20.1680 C   0  0  0  0  0  0  0  0  0  0  0  0
  -25.9830  -30.8170   21.4290 C   0  0  0  0  0  2  0  0  0  0  0  0
  -26.0610  -29.4210   20.7820 C   0  0  0  0  0  0  0  0  0  0  0  0
  -27.2260  -28.5630   20.7840 C   0  0  0  0  0  3  0  0  0  0  0  0
  -26.0160  -26.8930   19.5380 C   0  0  0  0  0  3  0  0  0  0  0  0
  -24.8720  -27.7250   19.5320 C   0  0  0  0  0  3  0  0  0  0  0  0
  -23.6510  -29.8700   20.2180 C   0  0  0  0  0  2  0  0  0  0  0  0
  -24.7010  -31.1280   22.1410 N   0  0  0  0  0  0  0  0  0  0  0  0
  -23.5430  -32.2290   23.7660 O   0  0  0  0  0  0  0  0  0  0  0  0
  -22.7570  -29.5380   22.5630 C   0  0  0  0  0  0  0  0  0  0  0  0
  -21.4300  -29.3620   22.4390 N   0  0  0  0  0  0  0  0  0  0  0  0
  -23.4330  -28.9160   23.3860 O   0  0  0  0  0  0  0  0  0  0  0  0
  -20.9410  -29.9140   21.7480 H   0  0  0  0  0  0  0  0  0  0  0  0
  -18.0560  -28.1420   22.9510 C   0  0  0  0  0  0  0  0  0  0  0  0
  -20.6140  -28.4210   23.2130 C   0  0  0  0  0  3  0  0  0  0  0  0
  -20.7230  -26.9880   22.6390 C   0  0  0  0  0  2  0  0  0  0  0  0
  -19.6200  -26.6580   21.6280 C   0  0  0  0  0  2  0  0  0  0  0  0
  -18.2400  -26.7950   22.2740 C   0  0  0  0  0  2  0  0  0  0  0  0
  -19.1700  -28.9130   23.3770 C   0  0  0  0  0  0  0  0  0  0  0  0
  -18.9430  -30.1730   23.9720 C   0  0  0  0  0  3  0  0  0  0  0  0
  -17.6360  -30.6640   24.1440 C   0  0  0  0  0  3  0  0  0  0  0  0
  -16.5360  -29.8910   23.7320 C   0  0  0  0  0  3  0  0  0  0  0  0
  -16.7460  -28.6320   23.1420 C   0  0  0  0  0  3  0  0  0  0  0  0
  -25.9050  -32.5900   23.8580 C   0  0  0  0  0  3  0  0  0  0  0  0
  -26.4170  -31.8290   25.1430 C   0  0  1  0  0  0  0  0  0  0  0  0
  -25.3190  -31.6000   26.2090 C   0  0  0  0  0  1  0  0  0  0  0  0
  -27.0020  -30.4480   24.7690 C   0  0  0  0  0  1  0  0  0  0  0  0
  -27.5640  -32.6280   25.8030 C   0  0  0  0  0  1  0  0  0  0  0  0
  -25.5910  -33.9900   24.1850 N   0  0  0  0  0  0  0  0  0  0  0  0
  -25.9160  -35.0450   23.4250 C   0  0  0  0  0  0  0  0  0  0  0  0
  -26.5790  -34.9420   22.3890 O   0  0  0  0  0  0  0  0  0  0  0  0
  -25.0000  -34.1420   24.9890 H   0  0  0  0  0  0  0  0  0  0  0  0
  -24.1830  -36.8390   23.0830 C   0  0  0  0  0  1  0  0  0  0  0  0
  -25.4300  -36.4350   23.8850 C   0  0  0  0  0  3  0  0  0  0  0  0
  -27.5670  -37.3260   24.7040 C   0  0  0  0  0  1  0  0  0  0  0  0
  -26.4620  -37.4880   23.7640 N   0  0  0  0  0  0  0  0  0  0  0  0
  -26.0550  -38.4090   23.9100 H   0  0  0  0  0  0  0  0  0  0  0  0
  2  1  2  0
  3  1  1  0
  4  2  1  0
  5  6  1  0
  5  4  2  0
  6  3  2  0
  7  5  1  0
  8  4  1  0
  8  9  1  0
  9 11  1  0
 10  8  2  0
 12  9  1  0
 12 13  2  0
 14 13  1  0
 15 20  1  0
 16 17  1  0
 16 15  1  0
 18 17  1  0
 18 25  1  0
 18 19  1  0
 20 14  1  0
 20 19  1  0
 21 14  2  0
 22 23  2  0
 23 42  1  0
 24 23  1  0
 24 27  1  0
 25 22  1  0
 25 26  1  0
 26 24  2  0
 27 28  1  0
 28 29  2  0
 30 33  1  0
 30 29  1  0
 31 30  2  0
 32 31  1  0
 32 27  2  0
 33 34  1  0
 34 39  2  0
 34 35  1  0
 35 36  2  0
 36 37  1  0
 37 41  1  0
 38 37  2  0
 39 38  1  0
 40 39  1  0
 42 43  1  0
 43 46  1  0
 43 45  1  0
 44 42  2  0
 47 48  1  0
 47 22  1  0
 49 47  1  0
 50  6  1  0
 51 62  2  0
 52 50  1  0
 52 57  1  0
 53 61  1  0
 53 63  1  0
 54 60  1  0
 54 56  1  0
 55 61  1  0
 56 57  2  0
 56 55  1  0
 58 52  2  0
 59 58  1  0
 59 54  2  0
 60 53  1  0
 61 51  1  0
 63 65  2  0
 64 63  1  0
 66 64  1  0
 67 76  2  0
 67 72  1  0
 68 64  1  0
 68 72  1  0
 69 68  1  0
 70 71  1  0
 70 69  1  0
 71 67  1  0
 72 73  2  0
 73 74  1  0
 75 74  2  0
 76 75  1  0
 77 51  1  0
 77 82  1  0
 77 78  1  0
 78 81  1  1
 78 79  1  0
 80 78  1  0
 82 85  1  0
 83 87  1  0
 83 82  1  0
 84 83  2  0
 87 86  1  0
 89 87  1  0
 89 90  1  0
 89 88  1  0
M  ISO  4   6 101  13 100  14 100  50 101
M  END
>  <TORSDO>  (52) 
F 19

>  <SCORE>  (52) 
-14.967

>  <name>  (52) 
51

>  <ligand_id>  (52) 
51

>  <original_smiles>  (52) 
[H]c1c([H])c(Oc2c([H])c([H])c3c(c2[H])C([H])([H])N(C(=O)C([H])(N([H])C(=O)C([H])(N([H])C([H])([H])[H])C([H])([H])[H])C(C([H])([H])[H])(C([H])([H])[H])C([H])([H])[H])C([H])(C(=O)N([H])C2([H])c4c([H])c([H])c([H])c([H])c4C([H])([H])C([H])([H])C2([H])[H])C3([H])[H])c(C([H])([H])[H])c(C(=O)N([H])C([H])([H])C([H])([H])C(=O)N2C([H])([H])C([H])([H])C([H])([H])C([H])(n3nc(-c4c([H])c([H])c(Oc5c([H])c([H])c(F)c([H])c5F)c([H])c4[H])c(C(=O)N([H])[H])c3N([H])[H])C2([H])[H])c1[H]

>  <smiles>  (52) 
[H]c1c([H])c(Oc2c([H])c([H])c3c(c2[H])C([H])([H])N(C(=O)C([H])(N([H])C(=O)C([H])(N([H])C([H])([H])[H])C([H])([H])[H])C(C([H])([H])[H])(C([H])([H])[H])C([H])([H])[H])C([H])(C(=O)N([H])C2([H])c4c([H])c([H])c([H])c([H])c4C([H])([H])C([H])([H])C2([H])[H])C3([H])[H])c(C([H])([H])[H])c(C(=O)N([H])C([H])([H])C([H])([H])C(=O)N2C([H])([H])C([H])([H])C([H])([H])C([H])(n3nc(-c4c([H])c([H])c(Oc5c([H])c([H])c(F)c([H])c5F)c([H])c4[H])c(C(=O)N([H])[H])c3N([H])[H])C2([H])[H])c1[H]

$$$$
52:0:0
     RDKit          3D

 92102  0  0  1  0  0  0  0  0999 V2000
  -29.6700  -21.2070   18.2190 C   0  0  0  0  0  2  0  0  0  0  0  0
  -30.4500  -20.0560   22.1160 C   0  0  0  0  0  2  0  0  0  0  0  0
  -30.6950  -18.6230   21.4930 C   0  0  0  0  0  2  0  0  0  0  0  0
  -29.6160  -22.6560   18.7820 C   0  0  0  0  0  2  0  0  0  0  0  0
  -30.0480  -22.5950   21.3080 C   0  0  0  0  0  2  0  0  0  0  0  0
  -28.5660  -20.4050   18.8750 C   0  0  0  0  0  3  0  0  0  0  0  0
  -28.6660  -19.3940   20.0250 C   0  0  0  0  0  3  0  0  0  0  0  0
  -28.2920  -21.0930   20.1960 C   0  0  0  0  0  3  0  0  0  0  0  0
  -30.9980  -21.3240   21.3610 C   0  0  0  0  0  3  0  0  0  0  0  0
  -29.8870  -18.1840   20.2210 C   0  0  0  0  0  3  0  0  0  0  0  0
  -28.9520  -22.6710   20.1860 C   0  0  2  0  0  0  0  0  0  0  0  0
  -32.3630  -21.7190   21.9540 C   0  0  0  0  0  1  0  0  0  0  0  0
  -30.4720  -15.2600   20.0200 C   0  0  0  0  0  0  0  0  0  0  0  0
  -30.4080  -12.8380   19.0830 C   0  0  0  0  0  2  0  0  0  0  0  0
  -29.4220  -12.6540   17.9020 C   0  0  0  0  0  2  0  0  0  0  0  0
  -27.9980  -12.3710   18.4130 C   0  0  0  0  0  2  0  0  0  0  0  0
  -27.6070  -13.3000   19.5900 C   0  0  0  0  0  3  0  0  0  0  0  0
  -28.7170  -13.4270   20.6540 C   0  0  0  0  0  2  0  0  0  0  0  0
  -29.9070  -13.9530   19.9650 N   0  0  0  0  0  0  0  0  0  0  0  0
  -31.6770  -15.2740   19.7320 O   0  0  0  0  0  0  0  0  0  0  0  0
  -29.7000  -16.5150   20.2010 N   0  0  0  0  0  0  0  0  0  0  0  0
  -28.7320  -16.2750   20.3560 H   0  0  0  0  0  0  0  0  0  0  0  0
  -25.2800  -13.8210   20.4940 C   0  0  0  0  0  0  0  0  0  0  0  0
  -24.2450  -13.0260   20.8970 C   0  0  0  0  0  0  0  0  0  0  0  0
  -24.7140  -11.6800   20.7950 C   0  0  0  0  0  0  0  0  0  0  0  0
  -26.3130  -12.9600   20.1630 N   0  0  0  0  0  0  0  0  0  0  0  0
  -25.9870  -11.6640   20.4120 N   0  0  0  0  0  0  0  0  0  0  0  0
  -24.0020  -10.4080   20.9830 C   0  0  0  0  0  0  0  0  0  0  0  0
  -24.4440   -9.4430   21.9140 C   0  0  0  0  0  3  0  0  0  0  0  0
  -23.7280   -8.2390   22.0930 C   0  0  0  0  0  3  0  0  0  0  0  0
  -22.5570   -7.9910   21.3390 C   0  0  0  0  0  0  0  0  0  0  0  0
  -22.1340   -8.9450   20.3960 C   0  0  0  0  0  3  0  0  0  0  0  0
  -22.8500  -10.1410   20.2170 C   0  0  0  0  0  3  0  0  0  0  0  0
  -21.8130   -6.8390   21.4260 O   0  0  0  0  0  0  0  0  0  0  0  0
  -21.7250   -6.1260   22.5940 C   0  0  0  0  0  0  0  0  0  0  0  0
  -21.1640   -6.6800   23.7650 C   0  0  0  0  0  3  0  0  0  0  0  0
  -21.0290   -5.8900   24.9250 C   0  0  0  0  0  3  0  0  0  0  0  0
  -21.4460   -4.5450   24.9130 C   0  0  0  0  0  0  0  0  0  0  0  0
  -21.9990   -3.9900   23.7470 C   0  0  0  0  0  3  0  0  0  0  0  0
  -22.1360   -4.7770   22.5900 C   0  0  0  0  0  0  0  0  0  0  0  0
  -22.6500   -4.2310   21.4620 F   0  0  0  0  0  0  0  0  0  0  0  0
  -21.3090   -3.7830   26.0230 F   0  0  0  0  0  0  0  0  0  0  0  0
  -22.8630  -13.4870   21.2560 C   0  0  0  0  0  0  0  0  0  0  0  0
  -22.1910  -12.7680   22.1480 N   0  0  0  0  0  0  0  0  0  0  0  0
  -22.3910  -14.5190   20.7830 O   0  0  0  0  0  0  0  0  0  0  0  0
  -22.5890  -11.9330   22.5520 H   0  0  0  0  0  0  0  0  0  0  0  0
  -21.2660  -13.0560   22.4330 H   0  0  0  0  0  0  0  0  0  0  0  0
  -25.4260  -15.1970   20.3520 N   0  0  0  0  0  0  0  0  0  0  0  0
  -24.6560  -15.8360   20.5210 H   0  0  0  0  0  0  0  0  0  0  0  0
  -26.2340  -15.6520   19.9500 H   0  0  0  0  0  0  0  0  0  0  0  0
  -27.9950  -24.2090   20.3230 C   0  0  0  0  0  2  0  0  0  0  0  0
  -28.2740  -25.8380   20.3300 O   0  0  0  0  0  0  0  0  0  0  0  0
  -24.6560  -31.8000   23.2590 C   0  0  0  0  0  0  0  0  0  0  0  0
  -27.2620  -26.9350   20.2710 C   0  0  0  0  0  0  0  0  0  0  0  0
  -23.4960  -30.4270   21.5780 C   0  0  0  0  0  3  0  0  0  0  0  0
  -24.9720  -28.8240   20.1830 C   0  0  0  0  0  0  0  0  0  0  0  0
  -26.0670  -30.6260   21.4980 C   0  0  0  0  0  2  0  0  0  0  0  0
  -26.1460  -29.2210   20.8340 C   0  0  0  0  0  0  0  0  0  0  0  0
  -27.2890  -28.2990   20.8490 C   0  0  0  0  0  3  0  0  0  0  0  0
  -26.0560  -26.6910   19.5760 C   0  0  0  0  0  3  0  0  0  0  0  0
  -24.9510  -27.5810   19.5340 C   0  0  0  0  0  3  0  0  0  0  0  0
  -23.7560  -29.7520   20.2040 C   0  0  0  0  0  2  0  0  0  0  0  0
  -24.7610  -30.9770   22.1660 N   0  0  0  0  0  0  0  0  0  0  0  0
  -23.5560  -32.0920   23.7550 O   0  0  0  0  0  0  0  0  0  0  0  0
  -22.7710  -29.4280   22.5170 C   0  0  0  0  0  0  0  0  0  0  0  0
  -21.4420  -29.2780   22.3600 N   0  0  0  0  0  0  0  0  0  0  0  0
  -23.4110  -28.7870   23.3550 O   0  0  0  0  0  0  0  0  0  0  0  0
  -20.9790  -29.8450   21.6630 H   0  0  0  0  0  0  0  0  0  0  0  0
  -18.0280  -28.1430   22.8300 C   0  0  0  0  0  0  0  0  0  0  0  0
  -20.5930  -28.3410   23.1050 C   0  0  0  0  0  3  0  0  0  0  0  0
  -20.6600  -26.9220   22.4930 C   0  0  0  0  0  2  0  0  0  0  0  0
  -19.5530  -26.6560   21.4670 C   0  0  0  0  0  2  0  0  0  0  0  0
  -18.1740  -26.8120   22.1130 C   0  0  0  0  0  2  0  0  0  0  0  0
  -19.1630  -28.8690   23.2820 C   0  0  0  0  0  0  0  0  0  0  0  0
  -18.9680  -30.1150   23.9170 C   0  0  0  0  0  3  0  0  0  0  0  0
  -17.6740  -30.6360   24.1010 C   0  0  0  0  0  3  0  0  0  0  0  0
  -16.5550  -29.9080   23.6630 C   0  0  0  0  0  3  0  0  0  0  0  0
  -16.7330  -28.6630   23.0330 C   0  0  0  0  0  3  0  0  0  0  0  0
  -25.9150  -32.4310   23.9310 C   0  0  0  0  0  3  0  0  0  0  0  0
  -25.5990  -33.8330   24.2580 N   0  0  0  0  0  0  0  0  0  0  0  0
  -25.9010  -34.8870   23.4880 C   0  0  0  0  0  0  0  0  0  0  0  0
  -26.5380  -34.7810   22.4360 O   0  0  0  0  0  0  0  0  0  0  0  0
  -25.0310  -33.9860   25.0770 H   0  0  0  0  0  0  0  0  0  0  0  0
  -24.1260  -36.6530   23.2270 C   0  0  0  0  0  1  0  0  0  0  0  0
  -25.4250  -36.2780   23.9570 C   0  0  0  0  0  3  0  0  0  0  0  0
  -27.5870  -37.2220   24.6410 C   0  0  0  0  0  1  0  0  0  0  0  0
  -26.4310  -37.3450   23.7570 N   0  0  0  0  0  0  0  0  0  0  0  0
  -26.0170  -38.2620   23.9040 H   0  0  0  0  0  0  0  0  0  0  0  0
  -26.3710  -31.6610   25.2320 C   0  0  1  0  0  0  0  0  0  0  0  0
  -25.2340  -31.4340   26.2560 C   0  0  0  0  0  1  0  0  0  0  0  0
  -26.9600  -30.2760   24.8760 C   0  0  0  0  0  1  0  0  0  0  0  0
  -27.4990  -32.4490   25.9390 C   0  0  0  0  0  1  0  0  0  0  0  0
  1  4  1  0
  3  2  1  0
  4 11  1  0
  5  9  1  0
  6  1  1  0
  6  7  1  0
  6  8  1  0
  7  8  1  0
  7 10  1  0
  9 12  1  0
  9  2  1  0
 10  3  1  0
 11  8  1  0
 11 51  1  1
 11  5  1  0
 13 21  1  0
 14 19  1  0
 15 16  1  0
 15 14  1  0
 16 17  1  0
 17 26  1  0
 17 18  1  0
 19 13  1  0
 19 18  1  0
 20 13  2  0
 21 10  1  0
 21 22  1  0
 23 24  2  0
 24 43  1  0
 25 24  1  0
 25 28  1  0
 26 27  1  0
 26 23  1  0
 27 25  2  0
 28 29  1  0
 29 30  2  0
 31 34  1  0
 31 30  1  0
 32 31  2  0
 33 32  1  0
 33 28  2  0
 34 35  1  0
 35 36  1  0
 36 37  2  0
 38 37  1  0
 38 42  1  0
 39 38  2  0
 40 35  2  0
 40 39  1  0
 41 40  1  0
 43 44  1  0
 44 47  1  0
 44 46  1  0
 45 43  2  0
 48 23  1  0
 48 49  1  0
 50 48  1  0
 51 52  1  0
 53 64  2  0
 53 79  1  0
 54 52  1  0
 54 59  1  0
 55 63  1  0
 55 65  1  0
 56 62  1  0
 56 58  1  0
 57 63  1  0
 58 59  2  0
 58 57  1  0
 60 54  2  0
 61 60  1  0
 61 56  2  0
 62 55  1  0
 63 53  1  0
 65 67  2  0
 66 65  1  0
 66 70  1  0
 68 66  1  0
 69 78  2  0
 69 74  1  0
 70 74  1  0
 71 70  1  0
 72 73  1  0
 72 71  1  0
 73 69  1  0
 74 75  2  0
 75 76  1  0
 77 76  2  0
 78 77  1  0
 79 80  1  0
 79 89  1  0
 80 83  1  0
 81 85  1  0
 81 80  1  0
 82 81  2  0
 84 85  1  0
 87 88  1  0
 87 85  1  0
 87 86  1  0
 89 92  1  1
 89 90  1  0
 91 89  1  0
M  ISO  4  13 100  21 100  51 101  52 101
M  END
>  <TORSDO>  (53) 
F 17

>  <SCORE>  (53) 
-16.500

>  <name>  (53) 
52

>  <ligand_id>  (53) 
52

>  <original_smiles>  (53) 
[H]c1c([H])c([H])c2c(c1[H])C([H])([H])C([H])([H])C([H])([H])C2([H])N([H])C(=O)C1([H])N(C(=O)C([H])(N([H])C(=O)C([H])(N([H])C([H])([H])[H])C([H])([H])[H])C(C([H])([H])[H])(C([H])([H])[H])C([H])([H])[H])C([H])([H])c2c([H])c(OC([H])([H])C34C([H])([H])C([H])([H])C5([H])C([H])(C([H])(N([H])C(=O)N6C([H])([H])C([H])([H])C([H])([H])C([H])(n7nc(-c8c([H])c([H])c(Oc9c([H])c([H])c(F)c([H])c9F)c([H])c8[H])c(C(=O)N([H])[H])c7N([H])[H])C6([H])[H])C([H])([H])C([H])([H])C([H])(C([H])([H])[H])C3([H])[H])C54[H])c([H])c([H])c2C1([H])[H]

>  <smiles>  (53) 
[H]c1c([H])c([H])c2c(c1[H])C([H])([H])C([H])([H])C([H])([H])C2([H])N([H])C(=O)C1([H])N(C(=O)C([H])(N([H])C(=O)C([H])(N([H])C([H])([H])[H])C([H])([H])[H])C(C([H])([H])[H])(C([H])([H])[H])C([H])([H])[H])C([H])([H])c2c([H])c(OC([H])([H])C34C([H])([H])C([H])([H])C5([H])C([H])(C([H])(N([H])C(=O)N6C([H])([H])C([H])([H])C([H])([H])C([H])(n7nc(-c8c([H])c([H])c(Oc9c([H])c([H])c(F)c([H])c9F)c([H])c8[H])c(C(=O)N([H])[H])c7N([H])[H])C6([H])[H])C([H])([H])C([H])([H])C([H])(C([H])([H])[H])C3([H])[H])C54[H])c([H])c([H])c2C1([H])[H]

$$$$
53:0:0
     RDKit          3D

 95104  0  0  1  0  0  0  0  0999 V2000
  -29.6510  -22.8090   20.6380 C   0  0  0  0  0  3  0  0  0  0  0  0
  -31.7770  -22.9540   19.4200 C   0  0  0  0  0  3  0  0  0  0  0  0
  -29.7580  -24.1840   20.9120 C   0  0  0  0  0  0  0  0  0  0  0  0
  -30.8300  -24.9320   20.4450 C   0  0  0  0  0  0  0  0  0  0  0  0
  -30.6670  -22.1940   19.8670 C   0  0  0  0  0  0  0  0  0  0  0  0
  -31.8660  -24.3340   19.7040 C   0  0  0  0  0  0  0  0  0  0  0  0
  -28.7610  -25.0500   21.6420 C   0  0  0  0  0  2  0  0  0  0  0  0
  -30.6630  -26.3890   20.7910 C   0  0  0  0  0  2  0  0  0  0  0  0
  -29.1810  -26.4880   21.2430 C   0  0  0  0  0  3  0  0  0  0  0  0
  -32.9100  -25.0690   19.2500 F   0  0  0  0  0  0  0  0  0  0  0  0
  -28.4310  -26.7840   20.0660 O   0  0  0  0  0  0  0  0  0  0  0  0
  -24.5740  -31.9090   23.2520 C   0  0  0  0  0  0  0  0  0  0  0  0
  -27.2620  -27.4940   20.1930 C   0  0  0  0  0  0  0  0  0  0  0  0
  -23.3760  -30.4900   21.6120 C   0  0  0  0  0  3  0  0  0  0  0  0
  -24.8420  -28.9470   20.2060 C   0  0  0  0  0  0  0  0  0  0  0  0
  -25.8950  -30.8640   21.4200 C   0  0  0  0  0  2  0  0  0  0  0  0
  -25.9880  -29.4880   20.8020 C   0  0  0  0  0  0  0  0  0  0  0  0
  -27.2000  -28.7660   20.8060 C   0  0  0  0  0  3  0  0  0  0  0  0
  -26.1040  -26.9620   19.5920 C   0  0  0  0  0  3  0  0  0  0  0  0
  -24.8910  -27.6780   19.5990 C   0  0  0  0  0  3  0  0  0  0  0  0
  -23.5850  -29.7860   20.2440 C   0  0  0  0  0  2  0  0  0  0  0  0
  -24.6310  -31.1040   22.1520 N   0  0  0  0  0  0  0  0  0  0  0  0
  -23.4920  -32.1800   23.7890 O   0  0  0  0  0  0  0  0  0  0  0  0
  -22.7230  -29.4800   22.5810 C   0  0  0  0  0  0  0  0  0  0  0  0
  -21.4030  -29.2830   22.4360 N   0  0  0  0  0  0  0  0  0  0  0  0
  -23.4020  -28.8710   23.4110 O   0  0  0  0  0  0  0  0  0  0  0  0
  -20.9200  -29.8290   21.7390 H   0  0  0  0  0  0  0  0  0  0  0  0
  -18.0370  -28.0510   22.8770 C   0  0  0  0  0  0  0  0  0  0  0  0
  -20.5840  -28.3460   23.2020 C   0  0  0  0  0  3  0  0  0  0  0  0
  -20.7190  -26.9080   22.6490 C   0  0  0  0  0  2  0  0  0  0  0  0
  -19.6430  -26.5540   21.6160 C   0  0  0  0  0  2  0  0  0  0  0  0
  -18.2430  -26.6960   22.2210 C   0  0  0  0  0  2  0  0  0  0  0  0
  -19.1350  -28.8350   23.3190 C   0  0  0  0  0  0  0  0  0  0  0  0
  -18.8880  -30.1060   23.8810 C   0  0  0  0  0  3  0  0  0  0  0  0
  -17.5730  -30.5920   24.0120 C   0  0  0  0  0  3  0  0  0  0  0  0
  -16.4890  -29.8040   23.5910 C   0  0  0  0  0  3  0  0  0  0  0  0
  -16.7210  -28.5370   23.0280 C   0  0  0  0  0  3  0  0  0  0  0  0
  -25.8590  -32.5420   23.8740 C   0  0  0  0  0  3  0  0  0  0  0  0
  -25.5510  -33.9410   24.2020 N   0  0  0  0  0  0  0  0  0  0  0  0
  -25.8870  -34.9900   23.4420 C   0  0  0  0  0  0  0  0  0  0  0  0
  -26.5610  -34.8840   22.4130 O   0  0  0  0  0  0  0  0  0  0  0  0
  -24.9520  -34.0980   25.0000 H   0  0  0  0  0  0  0  0  0  0  0  0
  -24.1560  -36.7770   23.0790 C   0  0  0  0  0  1  0  0  0  0  0  0
  -25.3970  -36.3780   23.8950 C   0  0  0  0  0  3  0  0  0  0  0  0
  -27.5260  -37.2650   24.7330 C   0  0  0  0  0  1  0  0  0  0  0  0
  -26.4290  -37.4310   23.7820 N   0  0  0  0  0  0  0  0  0  0  0  0
  -26.0210  -38.3520   23.9230 H   0  0  0  0  0  0  0  0  0  0  0  0
  -26.3760  -31.7720   25.1510 C   0  0  1  0  0  0  0  0  0  0  0  0
  -25.2810  -31.5240   26.2140 C   0  0  0  0  0  1  0  0  0  0  0  0
  -26.9710  -30.4010   24.7600 C   0  0  0  0  0  1  0  0  0  0  0  0
  -27.5180  -32.5740   25.8180 C   0  0  0  0  0  1  0  0  0  0  0  0
  -30.5300  -20.7300   19.4860 C   0  0  0  0  0  2  0  0  0  0  0  0
  -30.9850  -19.7760   20.6050 C   0  0  0  0  0  2  0  0  0  0  0  0
  -30.6080  -18.3200   20.3170 C   0  0  0  0  0  0  0  0  0  0  0  0
  -30.1400  -17.6060   21.3490 N   0  0  0  0  0  0  0  0  0  0  0  0
  -30.7070  -17.8580   19.1790 O   0  0  0  0  0  0  0  0  0  0  0  0
  -30.0970  -18.0720   22.2470 H   0  0  0  0  0  0  0  0  0  0  0  0
  -29.5580  -16.2630   21.2780 C   0  0  0  0  0  2  0  0  0  0  0  0
  -30.5850  -15.1320   21.5250 C   0  0  0  0  0  2  0  0  0  0  0  0
  -30.8600  -14.2840   20.2710 C   0  0  0  0  0  0  0  0  0  0  0  0
  -30.3760  -12.2780   18.9030 C   0  0  0  0  0  2  0  0  0  0  0  0
  -29.3670  -12.5510   17.7750 C   0  0  0  0  0  2  0  0  0  0  0  0
  -27.9220  -12.4030   18.2800 C   0  0  0  0  0  2  0  0  0  0  0  0
  -27.6780  -13.2030   19.5810 C   0  0  0  0  0  3  0  0  0  0  0  0
  -28.7750  -12.9190   20.6290 C   0  0  0  0  0  2  0  0  0  0  0  0
  -30.0880  -13.1950   20.0190 N   0  0  0  0  0  0  0  0  0  0  0  0
  -31.8260  -14.5910   19.5640 O   0  0  0  0  0  0  0  0  0  0  0  0
  -25.3220  -13.8460   20.3960 C   0  0  0  0  0  0  0  0  0  0  0  0
  -24.2580  -13.0840   20.8030 C   0  0  0  0  0  0  0  0  0  0  0  0
  -24.6980  -11.7260   20.7440 C   0  0  0  0  0  0  0  0  0  0  0  0
  -26.3430  -12.9500   20.1190 N   0  0  0  0  0  0  0  0  0  0  0  0
  -25.9730  -11.6710   20.3820 N   0  0  0  0  0  0  0  0  0  0  0  0
  -23.9620  -10.4720   20.9580 C   0  0  0  0  0  0  0  0  0  0  0  0
  -24.4110   -9.5020   21.8820 C   0  0  0  0  0  3  0  0  0  0  0  0
  -23.6790   -8.3120   22.0840 C   0  0  0  0  0  3  0  0  0  0  0  0
  -22.4860   -8.0840   21.3600 C   0  0  0  0  0  0  0  0  0  0  0  0
  -22.0530   -9.0420   20.4260 C   0  0  0  0  0  3  0  0  0  0  0  0
  -22.7860  -10.2240   20.2240 C   0  0  0  0  0  3  0  0  0  0  0  0
  -21.7240   -6.9460   21.4680 O   0  0  0  0  0  0  0  0  0  0  0  0
  -21.6810   -6.2160   22.6280 C   0  0  0  0  0  0  0  0  0  0  0  0
  -21.2760   -6.7900   23.8540 C   0  0  0  0  0  3  0  0  0  0  0  0
  -21.1810   -5.9900   25.0090 C   0  0  0  0  0  3  0  0  0  0  0  0
  -21.4780   -4.6160   24.9400 C   0  0  0  0  0  0  0  0  0  0  0  0
  -21.8760   -4.0410   23.7190 C   0  0  0  0  0  3  0  0  0  0  0  0
  -21.9730   -4.8380   22.5650 C   0  0  0  0  0  0  0  0  0  0  0  0
  -22.3380   -4.2760   21.3870 F   0  0  0  0  0  0  0  0  0  0  0  0
  -21.3790   -3.8440   26.0470 F   0  0  0  0  0  0  0  0  0  0  0  0
  -22.8800  -13.5800   21.1390 C   0  0  0  0  0  0  0  0  0  0  0  0
  -22.1820  -12.8880   22.0320 N   0  0  0  0  0  0  0  0  0  0  0  0
  -22.4330  -14.6140   20.6480 O   0  0  0  0  0  0  0  0  0  0  0  0
  -22.5580  -12.0470   22.4460 H   0  0  0  0  0  0  0  0  0  0  0  0
  -21.2640  -13.2060   22.3100 H   0  0  0  0  0  0  0  0  0  0  0  0
  -25.5010  -15.2150   20.2230 N   0  0  0  0  0  0  0  0  0  0  0  0
  -24.7590  -15.8880   20.3780 H   0  0  0  0  0  0  0  0  0  0  0  0
  -26.3510  -15.6420   19.8760 H   0  0  0  0  0  0  0  0  0  0  0  0
  1  3  1  0
  2  6  2  0
  2  5  1  0
  3  7  1  0
  4  8  1  0
  4  3  2  0
  5  1  2  0
  6  4  1  0
  8  9  1  0
  9 11  1  0
  9  7  1  0
 10  6  1  0
 11 13  1  0
 12 23  2  0
 13 18  1  0
 14 22  1  0
 14 24  1  0
 15 21  1  0
 15 17  1  0
 16 22  1  0
 17 18  2  0
 17 16  1  0
 19 20  1  0
 19 13  2  0
 20 15  2  0
 21 14  1  0
 22 12  1  0
 24 26  2  0
 25 24  1  0
 27 25  1  0
 28 37  2  0
 28 33  1  0
 29 25  1  0
 29 33  1  0
 30 29  1  0
 31 32  1  0
 31 30  1  0
 32 28  1  0
 33 34  2  0
 34 35  1  0
 36 35  2  0
 37 36  1  0
 38 12  1  0
 38 39  1  0
 38 48  1  0
 39 42  1  0
 40 44  1  0
 40 39  1  0
 41 40  2  0
 44 43  1  0
 46 44  1  0
 46 47  1  0
 46 45  1  0
 48 51  1  1
 48 49  1  0
 50 48  1  0
 52  5  1  0
 52 53  1  0
 54 53  1  0
 54 55  1  0
 55 57  1  0
 56 54  2  0
 58 55  1  0
 58 59  1  0
 60 59  1  0
 61 66  1  0
 62 63  1  0
 62 61  1  0
 64 63  1  0
 64 71  1  0
 64 65  1  0
 66 60  1  0
 66 65  1  0
 67 60  2  0
 68 69  2  0
 69 88  1  0
 70 69  1  0
 70 73  1  0
 71 72  1  0
 71 68  1  0
 72 70  2  0
 73 74  1  0
 74 75  2  0
 76 79  1  0
 76 75  1  0
 77 76  2  0
 78 77  1  0
 78 73  2  0
 79 80  1  0
 80 81  1  0
 81 82  2  0
 83 82  1  0
 83 87  1  0
 84 83  2  0
 85 80  2  0
 85 84  1  0
 86 85  1  0
 88 89  1  0
 89 92  1  0
 89 91  1  0
 90 88  2  0
 93 94  1  0
 93 68  1  0
 95 93  1  0
M  ISO  4   9 101  11 101  59 100  60 100
M  END
>  <TORSDO>  (54) 
F 21

>  <SCORE>  (54) 
-13.620

>  <name>  (54) 
53

>  <ligand_id>  (54) 
53

>  <original_smiles>  (54) 
[H]c1c([H])c([H])c2c(c1[H])C([H])([H])C([H])([H])C([H])([H])C2([H])N([H])C(=O)C1([H])N(C(=O)C([H])(N([H])C(=O)C([H])(N([H])C([H])([H])[H])C([H])([H])[H])C(C([H])([H])[H])(C([H])([H])[H])C([H])([H])[H])C([H])([H])c2c([H])c(OC3([H])C([H])([H])c4c([H])c(C([H])([H])C([H])([H])C(=O)N([H])C([H])([H])C([H])([H])C(=O)N5C([H])([H])C([H])([H])C([H])([H])C([H])(n6nc(-c7c([H])c([H])c(Oc8c([H])c([H])c(F)c([H])c8F)c([H])c7[H])c(C(=O)N([H])[H])c6N([H])[H])C5([H])[H])c([H])c(F)c4C3([H])[H])c([H])c([H])c2C1([H])[H]

>  <smiles>  (54) 
[H]c1c([H])c([H])c2c(c1[H])C([H])([H])C([H])([H])C([H])([H])C2([H])N([H])C(=O)C1([H])N(C(=O)C([H])(N([H])C(=O)C([H])(N([H])C([H])([H])[H])C([H])([H])[H])C(C([H])([H])[H])(C([H])([H])[H])C([H])([H])[H])C([H])([H])c2c([H])c(OC3([H])C([H])([H])c4c([H])c(C([H])([H])C([H])([H])C(=O)N([H])C([H])([H])C([H])([H])C(=O)N5C([H])([H])C([H])([H])C([H])([H])C([H])(n6nc(-c7c([H])c([H])c(Oc8c([H])c([H])c(F)c([H])c8F)c([H])c7[H])c(C(=O)N([H])[H])c6N([H])[H])C5([H])[H])c([H])c(F)c4C3([H])[H])c([H])c([H])c2C1([H])[H]

$$$$
54:0:0
     RDKit          3D

 91 99  0  0  1  0  0  0  0  0999 V2000
  -29.9390  -17.7700   21.9080 C   0  0  0  0  0  0  0  0  0  0  0  0
  -30.7330  -16.5740   21.3430 C   0  0  0  0  0  2  0  0  0  0  0  0
  -30.4540  -17.7270   19.0720 C   0  0  0  0  0  2  0  0  0  0  0  0
  -30.3590  -16.2840   19.8770 C   0  0  0  0  0  3  0  0  0  0  0  0
  -30.4680  -19.1760   19.8870 C   0  0  1  0  0  0  0  0  0  0  0  0
  -29.8220  -18.8980   21.1750 N   0  0  0  0  0  0  0  0  0  0  0  0
  -29.4180  -17.6840   23.0180 O   0  0  0  0  0  0  0  0  0  0  0  0
  -29.2750  -19.6450   21.5780 H   0  0  0  0  0  0  0  0  0  0  0  0
  -31.0380  -14.8830   19.3500 C   0  0  0  0  0  0  0  0  0  0  0  0
  -30.6720  -12.5900   18.3490 C   0  0  0  0  0  2  0  0  0  0  0  0
  -29.5470  -12.6500   17.2880 C   0  0  0  0  0  2  0  0  0  0  0  0
  -28.1620  -12.4830   17.9450 C   0  0  0  0  0  2  0  0  0  0  0  0
  -27.9940  -13.3780   19.1980 C   0  0  0  0  0  3  0  0  0  0  0  0
  -29.2140  -13.2830   20.1380 C   0  0  0  0  0  2  0  0  0  0  0  0
  -30.4050  -13.6470   19.3610 N   0  0  0  0  0  0  0  0  0  0  0  0
  -32.1450  -14.9460   18.8030 O   0  0  0  0  0  0  0  0  0  0  0  0
  -25.8310  -14.0200   20.4150 C   0  0  0  0  0  0  0  0  0  0  0  0
  -24.7850  -13.2760   20.8910 C   0  0  0  0  0  0  0  0  0  0  0  0
  -25.1250  -11.9120   20.6370 C   0  0  0  0  0  0  0  0  0  0  0  0
  -26.7400  -13.1120   19.8980 N   0  0  0  0  0  0  0  0  0  0  0  0
  -26.3340  -11.8310   20.0940 N   0  0  0  0  0  0  0  0  0  0  0  0
  -24.3410  -10.6840   20.8240 C   0  0  0  0  0  0  0  0  0  0  0  0
  -24.7910   -9.6400   21.6630 C   0  0  0  0  0  3  0  0  0  0  0  0
  -24.0100   -8.4790   21.8430 C   0  0  0  0  0  3  0  0  0  0  0  0
  -22.7640   -8.3520   21.1840 C   0  0  0  0  0  0  0  0  0  0  0  0
  -22.3320   -9.3830   20.3320 C   0  0  0  0  0  3  0  0  0  0  0  0
  -23.1130  -10.5360   20.1500 C   0  0  0  0  0  3  0  0  0  0  0  0
  -21.9490   -7.2480   21.2790 O   0  0  0  0  0  0  0  0  0  0  0  0
  -21.8600   -6.5170   22.4370 C   0  0  0  0  0  0  0  0  0  0  0  0
  -21.4140   -7.0910   23.6480 C   0  0  0  0  0  3  0  0  0  0  0  0
  -21.2720   -6.2880   24.7970 C   0  0  0  0  0  3  0  0  0  0  0  0
  -21.5630   -4.9120   24.7350 C   0  0  0  0  0  0  0  0  0  0  0  0
  -22.0010   -4.3370   23.5280 C   0  0  0  0  0  3  0  0  0  0  0  0
  -22.1450   -5.1380   22.3820 C   0  0  0  0  0  0  0  0  0  0  0  0
  -22.5470   -4.5770   21.2160 F   0  0  0  0  0  0  0  0  0  0  0  0
  -21.4190   -4.1370   25.8350 F   0  0  0  0  0  0  0  0  0  0  0  0
  -23.5010  -13.8050   21.4600 C   0  0  0  0  0  0  0  0  0  0  0  0
  -22.8900  -13.0690   22.3810 N   0  0  0  0  0  0  0  0  0  0  0  0
  -23.0560  -14.9020   21.1230 O   0  0  0  0  0  0  0  0  0  0  0  0
  -23.2660  -12.1780   22.6720 H   0  0  0  0  0  0  0  0  0  0  0  0
  -22.0340  -13.4010   22.8020 H   0  0  0  0  0  0  0  0  0  0  0  0
  -26.0740  -15.3890   20.3510 N   0  0  0  0  0  0  0  0  0  0  0  0
  -25.3980  -16.0760   20.6690 H   0  0  0  0  0  0  0  0  0  0  0  0
  -26.8880  -15.8070   19.9180 H   0  0  0  0  0  0  0  0  0  0  0  0
  -32.7940  -20.0470   19.0290 C   0  0  0  0  0  1  0  0  0  0  0  0
  -31.9510  -19.5300   20.2060 C   0  0  0  0  0  2  0  0  0  0  0  0
  -29.7970  -20.5600   19.2290 C   0  0  0  0  0  2  0  0  0  0  0  0
  -29.5040  -21.9850   20.0450 C   0  0  0  0  0  3  0  0  0  0  0  0
  -29.2790  -23.4790   19.3410 C   0  0  0  0  0  3  0  0  0  0  0  0
  -28.5570  -24.7670   20.1020 C   0  0  0  0  0  2  0  0  0  0  0  0
  -28.6770  -26.2520   19.7290 O   0  0  0  0  0  0  0  0  0  0  0  0
  -24.7090  -31.4830   23.0120 C   0  0  0  0  0  0  0  0  0  0  0  0
  -27.5430  -27.1190   19.7650 C   0  0  0  0  0  0  0  0  0  0  0  0
  -23.5830  -30.1060   21.3020 C   0  0  0  0  0  3  0  0  0  0  0  0
  -25.1150  -28.6870   19.8080 C   0  0  0  0  0  0  0  0  0  0  0  0
  -26.1110  -30.5340   21.1500 C   0  0  0  0  0  2  0  0  0  0  0  0
  -26.2630  -29.1830   20.4400 C   0  0  0  0  0  0  0  0  0  0  0  0
  -27.4800  -28.4150   20.4010 C   0  0  0  0  0  3  0  0  0  0  0  0
  -26.3670  -26.7080   19.1010 C   0  0  0  0  0  3  0  0  0  0  0  0
  -25.1750  -27.4630   19.1240 C   0  0  0  0  0  3  0  0  0  0  0  0
  -23.8400  -29.5090   19.8920 C   0  0  0  0  0  2  0  0  0  0  0  0
  -24.8200  -30.7270   21.8780 N   0  0  0  0  0  0  0  0  0  0  0  0
  -23.6110  -31.6830   23.5520 O   0  0  0  0  0  0  0  0  0  0  0  0
  -22.9630  -29.0170   22.2110 C   0  0  0  0  0  0  0  0  0  0  0  0
  -21.6500  -28.7670   22.0570 N   0  0  0  0  0  0  0  0  0  0  0  0
  -23.6640  -28.4020   23.0200 O   0  0  0  0  0  0  0  0  0  0  0  0
  -21.1380  -29.3230   21.3870 H   0  0  0  0  0  0  0  0  0  0  0  0
  -18.3450  -27.3450   22.4640 C   0  0  0  0  0  0  0  0  0  0  0  0
  -20.8810  -27.7490   22.7760 C   0  0  0  0  0  3  0  0  0  0  0  0
  -21.0750  -26.3520   22.1420 C   0  0  0  0  0  2  0  0  0  0  0  0
  -20.0050  -26.0080   21.1000 C   0  0  0  0  0  2  0  0  0  0  0  0
  -18.6100  -26.0410   21.7300 C   0  0  0  0  0  2  0  0  0  0  0  0
  -19.4110  -28.1560   22.9400 C   0  0  0  0  0  0  0  0  0  0  0  0
  -19.1080  -29.3740   23.5840 C   0  0  0  0  0  3  0  0  0  0  0  0
  -17.7730  -29.7870   23.7560 C   0  0  0  0  0  3  0  0  0  0  0  0
  -16.7220  -28.9750   23.2940 C   0  0  0  0  0  3  0  0  0  0  0  0
  -17.0090  -27.7550   22.6550 C   0  0  0  0  0  3  0  0  0  0  0  0
  -25.9540  -32.1520   23.6720 C   0  0  0  0  0  3  0  0  0  0  0  0
  -25.5870  -33.5320   24.0220 N   0  0  0  0  0  0  0  0  0  0  0  0
  -25.8990  -34.6120   23.2940 C   0  0  0  0  0  0  0  0  0  0  0  0
  -26.5940  -34.5540   22.2770 O   0  0  0  0  0  0  0  0  0  0  0  0
  -24.9720  -33.6480   24.8140 H   0  0  0  0  0  0  0  0  0  0  0  0
  -24.1150  -36.3550   22.9530 C   0  0  0  0  0  1  0  0  0  0  0  0
  -25.3590  -35.9750   23.7730 C   0  0  0  0  0  3  0  0  0  0  0  0
  -27.4410  -36.9250   24.6600 C   0  0  0  0  0  1  0  0  0  0  0  0
  -26.3550  -37.0660   23.6940 N   0  0  0  0  0  0  0  0  0  0  0  0
  -25.9130  -37.9680   23.8440 H   0  0  0  0  0  0  0  0  0  0  0  0
  -26.4700  -31.3780   24.9460 C   0  0  1  0  0  0  0  0  0  0  0  0
  -25.3640  -31.0840   25.9880 C   0  0  0  0  0  1  0  0  0  0  0  0
  -27.1090  -30.0280   24.5470 C   0  0  0  0  0  1  0  0  0  0  0  0
  -27.5790  -32.1990   25.6440 C   0  0  0  0  0  1  0  0  0  0  0  0
  1  7  2  0
  2  1  1  0
  3  4  1  0
  3  5  1  0
  4  9  1  0
  4  2  1  0
  5 47  1  6
  5 46  1  0
  5  6  1  0
  6  8  1  0
  6  1  1  0
  9 15  1  0
 10 15  1  0
 11 12  1  0
 11 10  1  0
 13 12  1  0
 13 20  1  0
 13 14  1  0
 15 14  1  0
 16  9  2  0
 17 18  2  0
 18 37  1  0
 19 22  1  0
 19 18  1  0
 20 21  1  0
 20 17  1  0
 21 19  2  0
 22 23  1  0
 23 24  2  0
 25 28  1  0
 25 24  1  0
 26 25  2  0
 27 26  1  0
 27 22  2  0
 28 29  1  0
 29 30  1  0
 30 31  2  0
 32 31  1  0
 32 36  1  0
 33 32  2  0
 34 29  2  0
 34 33  1  0
 35 34  1  0
 37 38  1  0
 38 40  1  0
 38 41  1  0
 39 37  2  0
 42 17  1  0
 42 43  1  0
 44 42  1  0
 45 46  1  0
 47 48  1  0
 49 48  2  0
 49 50  1  0
 51 53  1  0
 51 50  1  0
 52 63  2  0
 53 58  1  0
 54 62  1  0
 54 64  1  0
 55 61  1  0
 55 57  1  0
 56 62  1  0
 57 56  1  0
 58 57  2  0
 59 60  1  0
 59 53  2  0
 60 55  2  0
 61 54  1  0
 62 52  1  0
 64 66  2  0
 65 64  1  0
 67 65  1  0
 68 77  2  0
 68 73  1  0
 69 65  1  0
 69 73  1  0
 70 69  1  0
 71 72  1  0
 71 70  1  0
 72 68  1  0
 73 74  2  0
 74 75  1  0
 76 75  2  0
 77 76  1  0
 78 52  1  0
 78 79  1  0
 78 88  1  0
 79 82  1  0
 80 84  1  0
 80 79  1  0
 81 80  2  0
 84 83  1  0
 86 84  1  0
 86 87  1  0
 86 85  1  0
 88 91  1  1
 88 89  1  0
 90 88  1  0
M  ISO  4   4 100   9 100  50 101  51 101
M  END
>  <TORSDO>  (55) 
F 21

>  <SCORE>  (55) 
-9.880

>  <name>  (55) 
54

>  <ligand_id>  (55) 
54

>  <original_smiles>  (55) 
[H]c1c([H])c([H])c2c(c1[H])C([H])([H])C([H])([H])C([H])([H])C2([H])N([H])C(=O)C1([H])N(C(=O)C([H])(N([H])C(=O)C([H])(N([H])C([H])([H])[H])C([H])([H])[H])C(C([H])([H])[H])(C([H])([H])[H])C([H])([H])[H])C([H])([H])c2c([H])c(OC([H])([H])C([H])([H])C([H])([H])C([H])([H])C3(C([H])([H])C([H])([H])[H])N([H])C(=O)C([H])([H])C([H])(C(=O)N4C([H])([H])C([H])([H])C([H])([H])C([H])(n5nc(-c6c([H])c([H])c(Oc7c([H])c([H])c(F)c([H])c7F)c([H])c6[H])c(C(=O)N([H])[H])c5N([H])[H])C4([H])[H])C3([H])[H])c([H])c([H])c2C1([H])[H]

>  <smiles>  (55) 
[H]c1c([H])c([H])c2c(c1[H])C([H])([H])C([H])([H])C([H])([H])C2([H])N([H])C(=O)C1([H])N(C(=O)C([H])(N([H])C(=O)C([H])(N([H])C([H])([H])[H])C([H])([H])[H])C(C([H])([H])[H])(C([H])([H])[H])C([H])([H])[H])C([H])([H])c2c([H])c(OC([H])([H])C([H])([H])C([H])([H])C([H])([H])C3(C([H])([H])C([H])([H])[H])N([H])C(=O)C([H])([H])C([H])(C(=O)N4C([H])([H])C([H])([H])C([H])([H])C([H])(n5nc(-c6c([H])c([H])c(Oc7c([H])c([H])c(F)c([H])c7F)c([H])c6[H])c(C(=O)N([H])[H])c5N([H])[H])C4([H])[H])C3([H])[H])c([H])c([H])c2C1([H])[H]

$$$$
55:0:0
     RDKit          3D

 93102  0  0  1  0  0  0  0  0999 V2000
  -27.0510  -22.7880   18.6960 C   0  0  0  0  0  3  0  0  0  0  0  0
  -27.9310  -21.9960   19.4490 C   0  0  0  0  0  3  0  0  0  0  0  0
  -27.3420  -24.1480   18.4700 C   0  0  0  0  0  0  0  0  0  0  0  0
  -29.2370  -22.4460   19.6560 C   0  0  0  0  0  3  0  0  0  0  0  0
  -28.3730  -24.8050   19.2220 C   0  0  0  0  0  0  0  0  0  0  0  0
  -27.4730  -20.7100   20.1610 C   0  0  0  0  0  2  0  0  0  0  0  0
  -28.1680  -20.4730   21.5480 C   0  0  0  0  0  2  0  0  0  0  0  0
  -29.6450  -20.9750   21.6580 C   0  0  0  0  0  2  0  0  0  0  0  0
  -30.2250  -21.2510   20.2710 C   0  0  0  0  0  3  0  0  0  0  0  0
  -26.4640  -24.8010   17.4010 C   0  0  0  0  0  1  0  0  0  0  0  0
  -29.3810  -23.8800   19.6750 N   0  0  0  0  0  0  0  0  0  0  0  0
  -30.7190  -19.8720   19.5790 N   0  0  0  0  0  4  0  0  0  0  0  0
  -31.6210  -19.7670   20.0030 H   0  0  0  0  0  0  0  0  0  0  0  0
  -30.8950  -20.1110   18.6180 H   0  0  0  0  0  0  0  0  0  0  0  0
  -30.1800  -18.3440   19.5890 C   0  0  0  0  0  2  0  0  0  0  0  0
  -30.8780  -16.9150   20.3000 C   0  0  0  0  0  2  0  0  0  0  0  0
  -31.3790  -15.4060   19.7090 C   0  0  0  0  0  0  0  0  0  0  0  0
  -31.1930  -12.9550   18.9710 C   0  0  0  0  0  2  0  0  0  0  0  0
  -30.2170  -12.7910   17.7720 C   0  0  0  0  0  2  0  0  0  0  0  0
  -28.7770  -12.6090   18.2870 C   0  0  0  0  0  2  0  0  0  0  0  0
  -28.4080  -13.6760   19.3420 C   0  0  0  0  0  3  0  0  0  0  0  0
  -29.4940  -13.7980   20.4430 C   0  0  0  0  0  2  0  0  0  0  0  0
  -30.7620  -14.1430   19.7890 N   0  0  0  0  0  0  0  0  0  0  0  0
  -32.4890  -15.3800   19.1740 O   0  0  0  0  0  0  0  0  0  0  0  0
  -26.1130  -14.3820   20.2300 C   0  0  0  0  0  0  0  0  0  0  0  0
  -25.0230  -13.6700   20.6310 C   0  0  0  0  0  0  0  0  0  0  0  0
  -25.3850  -12.2920   20.5200 C   0  0  0  0  0  0  0  0  0  0  0  0
  -27.0760  -13.4440   19.9000 N   0  0  0  0  0  0  0  0  0  0  0  0
  -26.6540  -12.1790   20.1400 N   0  0  0  0  0  0  0  0  0  0  0  0
  -24.5880  -11.0740   20.7000 C   0  0  0  0  0  0  0  0  0  0  0  0
  -24.9720  -10.0670   21.6130 C   0  0  0  0  0  3  0  0  0  0  0  0
  -24.1730   -8.9130   21.7860 C   0  0  0  0  0  3  0  0  0  0  0  0
  -22.9770   -8.7620   21.0440 C   0  0  0  0  0  0  0  0  0  0  0  0
  -22.6130   -9.7550   20.1200 C   0  0  0  0  0  3  0  0  0  0  0  0
  -23.4100  -10.8990   19.9460 C   0  0  0  0  0  3  0  0  0  0  0  0
  -22.1570   -7.6650   21.1260 O   0  0  0  0  0  0  0  0  0  0  0  0
  -21.9960   -6.9710   22.2990 C   0  0  0  0  0  0  0  0  0  0  0  0
  -21.5530   -7.5960   23.4850 C   0  0  0  0  0  3  0  0  0  0  0  0
  -21.3360   -6.8280   24.6460 C   0  0  0  0  0  3  0  0  0  0  0  0
  -21.5540   -5.4390   24.6220 C   0  0  0  0  0  0  0  0  0  0  0  0
  -21.9890   -4.8140   23.4420 C   0  0  0  0  0  3  0  0  0  0  0  0
  -22.2070   -5.5760   22.2830 C   0  0  0  0  0  0  0  0  0  0  0  0
  -22.6050   -4.9650   21.1420 F   0  0  0  0  0  0  0  0  0  0  0  0
  -21.3390   -4.7030   25.7380 F   0  0  0  0  0  0  0  0  0  0  0  0
  -23.6780  -14.2250   20.9920 C   0  0  0  0  0  0  0  0  0  0  0  0
  -22.9650  -13.5690   21.9000 N   0  0  0  0  0  0  0  0  0  0  0  0
  -23.2730  -15.2820   20.5100 O   0  0  0  0  0  0  0  0  0  0  0  0
  -23.2940  -12.7010   22.3030 H   0  0  0  0  0  0  0  0  0  0  0  0
  -22.0740  -13.9390   22.2000 H   0  0  0  0  0  0  0  0  0  0  0  0
  -26.3730  -15.7470   20.0910 N   0  0  0  0  0  0  0  0  0  0  0  0
  -25.6820  -16.4720   20.2580 H   0  0  0  0  0  0  0  0  0  0  0  0
  -27.2270  -16.1230   19.6960 H   0  0  0  0  0  0  0  0  0  0  0  0
  -28.4790  -26.2960   19.3800 O   0  0  0  0  0  0  0  0  0  0  0  0
  -24.8060  -31.6820   23.0380 C   0  0  0  0  0  0  0  0  0  0  0  0
  -27.3930  -27.2760   19.5170 C   0  0  0  0  0  0  0  0  0  0  0  0
  -23.5790  -30.3680   21.3570 C   0  0  0  0  0  3  0  0  0  0  0  0
  -25.0100  -28.9740   19.7750 C   0  0  0  0  0  0  0  0  0  0  0  0
  -26.1240  -30.7470   21.0850 C   0  0  0  0  0  2  0  0  0  0  0  0
  -26.2230  -29.4150   20.3100 C   0  0  0  0  0  0  0  0  0  0  0  0
  -27.4170  -28.6010   20.1360 C   0  0  0  0  0  3  0  0  0  0  0  0
  -26.0950  -26.9230   19.0870 C   0  0  0  0  0  3  0  0  0  0  0  0
  -24.9560  -27.7250   19.1580 C   0  0  0  0  0  3  0  0  0  0  0  0
  -23.7670  -29.8200   19.9250 C   0  0  0  0  0  2  0  0  0  0  0  0
  -24.8590  -30.9540   21.8810 N   0  0  0  0  0  0  0  0  0  0  0  0
  -23.7350  -31.8790   23.6370 O   0  0  0  0  0  0  0  0  0  0  0  0
  -22.9850  -29.2600   22.2700 C   0  0  0  0  0  0  0  0  0  0  0  0
  -21.6610  -29.0320   22.1770 N   0  0  0  0  0  0  0  0  0  0  0  0
  -23.7100  -28.6120   23.0290 O   0  0  0  0  0  0  0  0  0  0  0  0
  -21.1200  -29.6100   21.5500 H   0  0  0  0  0  0  0  0  0  0  0  0
  -18.3790  -27.5580   22.6500 C   0  0  0  0  0  0  0  0  0  0  0  0
  -20.9160  -28.0030   22.9100 C   0  0  0  0  0  3  0  0  0  0  0  0
  -21.1190  -26.6070   22.2730 C   0  0  0  0  0  2  0  0  0  0  0  0
  -20.0350  -26.2460   21.2530 C   0  0  0  0  0  2  0  0  0  0  0  0
  -18.6530  -26.2570   21.9130 C   0  0  0  0  0  2  0  0  0  0  0  0
  -19.4420  -28.3860   23.1040 C   0  0  0  0  0  0  0  0  0  0  0  0
  -19.1330  -29.5990   23.7580 C   0  0  0  0  0  3  0  0  0  0  0  0
  -17.7960  -29.9880   23.9570 C   0  0  0  0  0  3  0  0  0  0  0  0
  -16.7490  -29.1610   23.5160 C   0  0  0  0  0  3  0  0  0  0  0  0
  -17.0420  -27.9480   22.8680 C   0  0  0  0  0  3  0  0  0  0  0  0
  -26.0860  -32.3260   23.6490 C   0  0  0  0  0  3  0  0  0  0  0  0
  -26.6840  -31.4920   24.8520 C   0  0  1  0  0  0  0  0  0  0  0  0
  -25.6420  -31.1490   25.9450 C   0  0  0  0  0  1  0  0  0  0  0  0
  -27.2980  -30.1620   24.3550 C   0  0  0  0  0  1  0  0  0  0  0  0
  -27.8280  -32.2870   25.5220 C   0  0  0  0  0  1  0  0  0  0  0  0
  -25.7370  -33.6850   24.0940 N   0  0  0  0  0  0  0  0  0  0  0  0
  -25.9870  -34.8050   23.4030 C   0  0  0  0  0  0  0  0  0  0  0  0
  -26.6090  -34.8070   22.3360 O   0  0  0  0  0  0  0  0  0  0  0  0
  -25.1830  -33.7500   24.9350 H   0  0  0  0  0  0  0  0  0  0  0  0
  -24.1720  -36.5460   23.2870 C   0  0  0  0  0  1  0  0  0  0  0  0
  -25.4760  -36.1360   23.9910 C   0  0  0  0  0  3  0  0  0  0  0  0
  -27.6160  -37.0610   24.7610 C   0  0  0  0  0  1  0  0  0  0  0  0
  -26.4550  -37.2400   23.8930 N   0  0  0  0  0  0  0  0  0  0  0  0
  -26.0180  -38.1260   24.1320 H   0  0  0  0  0  0  0  0  0  0  0  0
  2  1  1  0
  2  4  1  0
  2  6  1  0
  3  1  2  0
  3  5  1  0
  4 11  1  0
  4  9  1  0
  5 53  1  0
  5 11  2  0
  6  7  1  0
  7  8  1  0
  9 12  1  0
  9  8  1  0
 10  3  1  0
 12 15  1  0
 12 13  1  0
 14 12  1  0
 15 16  1  0
 17 23  1  0
 17 16  1  0
 18 23  1  0
 19 20  1  0
 19 18  1  0
 21 20  1  0
 21 28  1  0
 21 22  1  0
 23 22  1  0
 24 17  2  0
 25 26  2  0
 26 45  1  0
 27 26  1  0
 27 30  1  0
 28 29  1  0
 28 25  1  0
 29 27  2  0
 30 31  1  0
 31 32  2  0
 33 36  1  0
 33 32  1  0
 34 33  2  0
 35 34  1  0
 35 30  2  0
 36 37  1  0
 37 38  1  0
 38 39  2  0
 40 39  1  0
 40 44  1  0
 41 40  2  0
 42 37  2  0
 42 41  1  0
 43 42  1  0
 45 46  1  0
 46 49  1  0
 46 48  1  0
 47 45  2  0
 50 25  1  0
 50 51  1  0
 52 50  1  0
 53 55  1  0
 54 65  2  0
 55 60  1  0
 56 64  1  0
 56 66  1  0
 57 63  1  0
 57 59  1  0
 58 64  1  0
 59 58  1  0
 60 59  2  0
 61 62  1  0
 61 55  2  0
 62 57  2  0
 63 56  1  0
 64 54  1  0
 66 68  2  0
 67 66  1  0
 69 67  1  0
 70 79  2  0
 70 75  1  0
 71 67  1  0
 71 75  1  0
 72 71  1  0
 73 74  1  0
 73 72  1  0
 74 70  1  0
 75 76  2  0
 76 77  1  0
 78 77  2  0
 79 78  1  0
 80 54  1  0
 80 85  1  0
 80 81  1  0
 81 84  1  1
 81 82  1  0
 83 81  1  0
 85 88  1  0
 86 90  1  0
 86 85  1  0
 87 86  2  0
 90 89  1  0
 92 90  1  0
 92 93  1  0
 92 91  1  0
M  ISO  4   5 101  16 100  17 100  53 101
M  END
>  <TORSDO>  (56) 
F 19

>  <SCORE>  (56) 
-12.028

>  <name>  (56) 
55

>  <ligand_id>  (56) 
55

>  <original_smiles>  (56) 
[H]c1c([H])c([H])c2c(c1[H])C([H])([H])C([H])([H])C([H])([H])C2([H])N([H])C(=O)C1([H])N(C(=O)C([H])(N([H])C(=O)C([H])(N([H])C([H])([H])[H])C([H])([H])[H])C(C([H])([H])[H])(C([H])([H])[H])C([H])([H])[H])C([H])([H])c2c([H])c(Oc3nc4c(c([H])c3C([H])([H])[H])C([H])([H])C([H])([H])C([H])([H])C4([H])[N+]([H])([H])C([H])([H])C([H])([H])C(=O)N3C([H])([H])C([H])([H])C([H])([H])C([H])(n4nc(-c5c([H])c([H])c(Oc6c([H])c([H])c(F)c([H])c6F)c([H])c5[H])c(C(=O)N([H])[H])c4N([H])[H])C3([H])[H])c([H])c([H])c2C1([H])[H]

>  <smiles>  (56) 
[H]c1c([H])c([H])c2c(c1[H])C([H])([H])C([H])([H])C([H])([H])C2([H])N([H])C(=O)C1([H])N(C(=O)C([H])(N([H])C(=O)C([H])(N([H])C([H])([H])[H])C([H])([H])[H])C(C([H])([H])[H])(C([H])([H])[H])C([H])([H])[H])C([H])([H])c2c([H])c(Oc3nc4c(c([H])c3C([H])([H])[H])C([H])([H])C([H])([H])C([H])([H])C4([H])[N+]([H])([H])C([H])([H])C([H])([H])C(=O)N3C([H])([H])C([H])([H])C([H])([H])C([H])(n4nc(-c5c([H])c([H])c(Oc6c([H])c([H])c(F)c([H])c6F)c([H])c5[H])c(C(=O)N([H])[H])c4N([H])[H])C3([H])[H])c([H])c([H])c2C1([H])[H]

$$$$
56:0:0
     RDKit          3D

 89 97  0  0  1  0  0  0  0  0999 V2000
  -29.9350  -20.1940   21.8090 C   0  0  0  0  0  3  0  0  0  0  0  0
  -29.9440  -21.4840   22.4130 C   0  0  0  0  0  3  0  0  0  0  0  0
  -28.8000  -21.2750   19.9830 C   0  0  0  0  0  3  0  0  0  0  0  0
  -29.3850  -19.9420   20.5390 C   0  0  0  0  0  0  0  0  0  0  0  0
  -29.3980  -22.6790   21.8510 C   0  0  0  0  0  0  0  0  0  0  0  0
  -28.7590  -22.7110   20.5820 C   0  0  0  0  0  0  0  0  0  0  0  0
  -29.5000  -23.9500   22.6730 C   0  0  0  0  0  1  0  0  0  0  0  0
  -28.7140  -18.3090   18.6270 C   0  0  0  0  0  1  0  0  0  0  0  0
  -29.6320  -18.3290   19.8520 C   0  0  0  0  0  0  0  0  0  0  0  0
  -30.4310  -15.4400   20.1980 C   0  0  0  0  0  0  0  0  0  0  0  0
  -30.4280  -12.9600   19.3610 C   0  0  0  0  0  2  0  0  0  0  0  0
  -29.5130  -12.7230   18.1300 C   0  0  0  0  0  2  0  0  0  0  0  0
  -28.0740  -12.4260   18.5840 C   0  0  0  0  0  2  0  0  0  0  0  0
  -27.6100  -13.4060   19.6900 C   0  0  0  0  0  3  0  0  0  0  0  0
  -28.6580  -13.5920   20.8130 C   0  0  0  0  0  2  0  0  0  0  0  0
  -29.8850  -14.1140   20.1850 N   0  0  0  0  0  0  0  0  0  0  0  0
  -31.6260  -15.4400   19.8650 O   0  0  0  0  0  0  0  0  0  0  0  0
  -29.6740  -16.7190   20.3990 N   0  0  0  0  0  4  0  0  0  0  0  0
  -28.7870  -16.4880   20.8220 H   0  0  0  0  0  0  0  0  0  0  0  0
  -25.2370  -13.9370   20.4620 C   0  0  0  0  0  0  0  0  0  0  0  0
  -24.1840  -13.1510   20.8410 C   0  0  0  0  0  0  0  0  0  0  0  0
  -24.6620  -11.8050   20.8040 C   0  0  0  0  0  0  0  0  0  0  0  0
  -26.2860  -13.0730   20.2080 N   0  0  0  0  0  0  0  0  0  0  0  0
  -25.9530  -11.7830   20.4830 N   0  0  0  0  0  0  0  0  0  0  0  0
  -23.9450  -10.5370   20.9980 C   0  0  0  0  0  0  0  0  0  0  0  0
  -24.3870   -9.5690   21.9260 C   0  0  0  0  0  3  0  0  0  0  0  0
  -23.6650   -8.3690   22.1090 C   0  0  0  0  0  3  0  0  0  0  0  0
  -22.4870   -8.1270   21.3620 C   0  0  0  0  0  0  0  0  0  0  0  0
  -22.0630   -9.0860   20.4240 C   0  0  0  0  0  3  0  0  0  0  0  0
  -22.7870  -10.2760   20.2390 C   0  0  0  0  0  3  0  0  0  0  0  0
  -21.7370   -6.9810   21.4540 O   0  0  0  0  0  0  0  0  0  0  0  0
  -21.6990   -6.2360   22.6070 C   0  0  0  0  0  0  0  0  0  0  0  0
  -21.2730   -6.7850   23.8360 C   0  0  0  0  0  3  0  0  0  0  0  0
  -21.1820   -5.9660   24.9790 C   0  0  0  0  0  3  0  0  0  0  0  0
  -21.5100   -4.5990   24.8940 C   0  0  0  0  0  0  0  0  0  0  0  0
  -21.9330   -4.0510   23.6690 C   0  0  0  0  0  3  0  0  0  0  0  0
  -22.0230   -4.8670   22.5280 C   0  0  0  0  0  0  0  0  0  0  0  0
  -22.4080   -4.3290   21.3470 F   0  0  0  0  0  0  0  0  0  0  0  0
  -21.4180   -3.8090   25.9880 F   0  0  0  0  0  0  0  0  0  0  0  0
  -22.7850  -13.6190   21.1160 C   0  0  0  0  0  0  0  0  0  0  0  0
  -22.0600  -12.9190   21.9820 N   0  0  0  0  0  0  0  0  0  0  0  0
  -22.3430  -14.6440   20.6020 O   0  0  0  0  0  0  0  0  0  0  0  0
  -22.4240  -12.0880   22.4270 H   0  0  0  0  0  0  0  0  0  0  0  0
  -21.1230  -13.2230   22.2060 H   0  0  0  0  0  0  0  0  0  0  0  0
  -25.3830  -15.3100   20.2800 N   0  0  0  0  0  0  0  0  0  0  0  0
  -24.6060  -15.9500   20.4050 H   0  0  0  0  0  0  0  0  0  0  0  0
  -26.2070  -15.7590   19.9010 H   0  0  0  0  0  0  0  0  0  0  0  0
  -27.9930  -24.2200   20.0420 C   0  0  0  0  0  2  0  0  0  0  0  0
  -28.1750  -25.8430   20.3960 O   0  0  0  0  0  0  0  0  0  0  0  0
  -24.6330  -31.9040   23.2410 C   0  0  0  0  0  0  0  0  0  0  0  0
  -27.1800  -26.9680   20.2730 C   0  0  0  0  0  0  0  0  0  0  0  0
  -23.4340  -30.4940   21.6190 C   0  0  0  0  0  3  0  0  0  0  0  0
  -24.8790  -28.8690   20.2030 C   0  0  0  0  0  0  0  0  0  0  0  0
  -26.0000  -30.6940   21.4620 C   0  0  0  0  0  2  0  0  0  0  0  0
  -26.0660  -29.2720   20.8230 C   0  0  0  0  0  0  0  0  0  0  0  0
  -27.2060  -28.3420   20.8370 C   0  0  0  0  0  3  0  0  0  0  0  0
  -25.9660  -26.7300   19.5840 C   0  0  0  0  0  3  0  0  0  0  0  0
  -24.8560  -27.6190   19.5600 C   0  0  0  0  0  3  0  0  0  0  0  0
  -23.6610  -29.7960   20.2460 C   0  0  0  0  0  2  0  0  0  0  0  0
  -24.7120  -31.0590   22.1600 N   0  0  0  0  0  0  0  0  0  0  0  0
  -23.5460  -32.1980   23.7640 O   0  0  0  0  0  0  0  0  0  0  0  0
  -22.7390  -29.5100   22.5990 C   0  0  0  0  0  0  0  0  0  0  0  0
  -21.4090  -29.3410   22.4740 N   0  0  0  0  0  0  0  0  0  0  0  0
  -23.4050  -28.9010   23.4380 O   0  0  0  0  0  0  0  0  0  0  0  0
  -20.9270  -29.8910   21.7750 H   0  0  0  0  0  0  0  0  0  0  0  0
  -18.0280  -28.1120   22.9800 C   0  0  0  0  0  0  0  0  0  0  0  0
  -20.5850  -28.4080   23.2520 C   0  0  0  0  0  3  0  0  0  0  0  0
  -20.7030  -26.9690   22.6970 C   0  0  0  0  0  2  0  0  0  0  0  0
  -19.6090  -26.6230   21.6820 C   0  0  0  0  0  2  0  0  0  0  0  0
  -18.2230  -26.7580   22.3180 C   0  0  0  0  0  2  0  0  0  0  0  0
  -19.1370  -28.8940   23.4030 C   0  0  0  0  0  0  0  0  0  0  0  0
  -18.8990  -30.1580   23.9860 C   0  0  0  0  0  3  0  0  0  0  0  0
  -17.5870  -30.6410   24.1460 C   0  0  0  0  0  3  0  0  0  0  0  0
  -16.4940  -29.8600   23.7370 C   0  0  0  0  0  3  0  0  0  0  0  0
  -16.7140  -28.5970   23.1600 C   0  0  0  0  0  3  0  0  0  0  0  0
  -25.9060  -32.5490   23.8680 C   0  0  0  0  0  3  0  0  0  0  0  0
  -25.5930  -33.9530   24.1910 N   0  0  0  0  0  0  0  0  0  0  0  0
  -25.9280  -35.0080   23.4350 C   0  0  0  0  0  0  0  0  0  0  0  0
  -26.5910  -34.9020   22.4010 O   0  0  0  0  0  0  0  0  0  0  0  0
  -25.0040  -34.1080   24.9950 H   0  0  0  0  0  0  0  0  0  0  0  0
  -24.2040  -36.8140   23.1000 C   0  0  0  0  0  1  0  0  0  0  0  0
  -25.4530  -36.4020   23.8970 C   0  0  0  0  0  3  0  0  0  0  0  0
  -27.5990  -37.2840   24.7060 C   0  0  0  0  0  1  0  0  0  0  0  0
  -26.4900  -37.4520   23.7690 N   0  0  0  0  0  0  0  0  0  0  0  0
  -26.0890  -38.3750   23.9130 H   0  0  0  0  0  0  0  0  0  0  0  0
  -26.4100  -31.7950   25.1610 C   0  0  1  0  0  0  0  0  0  0  0  0
  -25.3080  -31.5850   26.2260 C   0  0  0  0  0  1  0  0  0  0  0  0
  -26.9850  -30.4060   24.8040 C   0  0  0  0  0  1  0  0  0  0  0  0
  -27.5630  -32.5900   25.8160 C   0  0  0  0  0  1  0  0  0  0  0  0
  1  2  1  0
  3  4  1  0
  3  6  2  0
  4  1  2  0
  5  2  2  0
  5  7  1  0
  6  5  1  0
  8  9  1  0
  9 18  2  3
  9  4  1  0
 10 18  1  0
 11 16  1  0
 12 13  1  0
 12 11  1  0
 14 13  1  0
 14 23  1  0
 14 15  1  0
 16 10  1  0
 16 15  1  0
 17 10  2  0
 18 19  1  0
 20 21  2  0
 21 40  1  0
 22 21  1  0
 22 25  1  0
 23 20  1  0
 23 24  1  0
 24 22  2  0
 25 26  1  0
 26 27  2  0
 28 31  1  0
 28 27  1  0
 29 28  2  0
 30 29  1  0
 30 25  2  0
 31 32  1  0
 32 33  1  0
 33 34  2  0
 35 34  1  0
 35 39  1  0
 36 35  2  0
 37 32  2  0
 37 36  1  0
 38 37  1  0
 40 41  1  0
 41 44  1  0
 41 43  1  0
 42 40  2  0
 45 46  1  0
 45 20  1  0
 47 45  1  0
 48 49  1  0
 48  6  1  0
 50 61  2  0
 51 49  1  0
 51 56  1  0
 52 60  1  0
 52 62  1  0
 53 59  1  0
 53 55  1  0
 54 60  1  0
 55 56  2  0
 55 54  1  0
 57 51  2  0
 58 57  1  0
 58 53  2  0
 59 52  1  0
 60 50  1  0
 62 64  2  0
 63 62  1  0
 65 63  1  0
 66 75  2  0
 66 71  1  0
 67 63  1  0
 67 71  1  0
 68 67  1  0
 69 70  1  0
 69 68  1  0
 70 66  1  0
 71 72  2  0
 72 73  1  0
 74 73  2  0
 75 74  1  0
 76 50  1  0
 76 77  1  0
 76 86  1  0
 77 80  1  0
 78 82  1  0
 78 77  1  0
 79 78  2  0
 82 81  1  0
 84 82  1  0
 84 85  1  0
 84 83  1  0
 86 89  1  1
 86 87  1  0
 88 86  1  0
M  ISO  4  10 100  18 100  48 101  49 101
M  END
>  <TORSDO>  (57) 
F 18

>  <SCORE>  (57) 
-16.749

>  <name>  (57) 
56

>  <ligand_id>  (57) 
56

>  <original_smiles>  (57) 
[H]c1c([H])c([H])c2c(c1[H])C([H])([H])C([H])([H])C([H])([H])C2([H])N([H])C(=O)C1([H])N(C(=O)C([H])(N([H])C(=O)C([H])(N([H])C([H])([H])[H])C([H])([H])[H])C(C([H])([H])[H])(C([H])([H])[H])C([H])([H])[H])C([H])([H])c2c([H])c(OC([H])([H])c3c([H])c(C([H])(N([H])C(=O)N4C([H])([H])C([H])([H])C([H])([H])C([H])(n5nc(-c6c([H])c([H])c(Oc7c([H])c([H])c(F)c([H])c7F)c([H])c6[H])c(C(=O)N([H])[H])c5N([H])[H])C4([H])[H])C([H])([H])[H])c([H])c([H])c3C([H])([H])[H])c([H])c([H])c2C1([H])[H]

>  <smiles>  (57) 
[H]c1c([H])c([H])c2c(c1[H])C([H])([H])C([H])([H])C([H])([H])C2([H])N([H])C(=O)C1([H])N(C(=O)C([H])(N([H])C(=O)C([H])(N([H])C([H])([H])[H])C([H])([H])[H])C(C([H])([H])[H])(C([H])([H])[H])C([H])([H])[H])C([H])([H])c2c([H])c(OC([H])([H])c3c([H])c(C([H])(N([H])C(=O)N4C([H])([H])C([H])([H])C([H])([H])C([H])(n5nc(-c6c([H])c([H])c(Oc7c([H])c([H])c(F)c([H])c7F)c([H])c6[H])c(C(=O)N([H])[H])c5N([H])[H])C4([H])[H])C([H])([H])[H])c([H])c([H])c3C([H])([H])[H])c([H])c([H])c2C1([H])[H]

$$$$
57:0:0
     RDKit          3D

 88 96  0  0  1  0  0  0  0  0999 V2000
  -27.9140  -19.6050   19.1840 C   0  0  0  0  0  0  0  0  0  0  0  0
  -29.3550  -20.8090   21.2390 C   0  0  0  0  0  2  0  0  0  0  0  0
  -29.8570  -19.0910   21.2720 C   0  0  0  0  0  2  0  0  0  0  0  0
  -30.0890  -19.2140   19.0740 C   0  0  0  0  0  2  0  0  0  0  0  0
  -28.2070  -18.0700   19.5390 C   0  0  0  0  0  3  0  0  0  0  0  0
  -29.1520  -21.8620   19.9000 C   0  0  0  0  0  2  0  0  0  0  0  0
  -29.7010  -17.8950   20.0450 C   0  0  2  0  0  0  0  0  0  0  0  0
  -27.8300  -17.1980   18.3260 C   0  0  0  0  0  1  0  0  0  0  0  0
  -29.0150  -20.4140   19.1170 N   0  0  0  0  0  0  0  0  0  0  0  0
  -26.7600  -20.0330   19.1240 O   0  0  0  0  0  0  0  0  0  0  0  0
  -30.4530  -16.0780   20.0380 C   0  0  0  0  0  0  0  0  0  0  0  0
  -30.6460  -13.4500   19.3350 C   0  0  0  0  0  2  0  0  0  0  0  0
  -29.7730  -12.9200   18.1540 C   0  0  0  0  0  2  0  0  0  0  0  0
  -28.3850  -12.4910   18.6440 C   0  0  0  0  0  2  0  0  0  0  0  0
  -27.8290  -13.5170   19.6510 C   0  0  0  0  0  3  0  0  0  0  0  0
  -28.8450  -13.9870   20.7240 C   0  0  0  0  0  2  0  0  0  0  0  0
  -29.9840  -14.6610   20.0400 N   0  0  0  0  0  0  0  0  0  0  0  0
  -31.6870  -15.9560   19.8740 O   0  0  0  0  0  0  0  0  0  0  0  0
  -25.4960  -14.0180   20.4900 C   0  0  0  0  0  0  0  0  0  0  0  0
  -24.4470  -13.2280   20.8630 C   0  0  0  0  0  0  0  0  0  0  0  0
  -24.9200  -11.8820   20.7920 C   0  0  0  0  0  0  0  0  0  0  0  0
  -26.5340  -13.1550   20.2030 N   0  0  0  0  0  0  0  0  0  0  0  0
  -26.2060  -11.8590   20.4500 N   0  0  0  0  0  0  0  0  0  0  0  0
  -24.1980  -10.6140   20.9720 C   0  0  0  0  0  0  0  0  0  0  0  0
  -24.6090   -9.6580   21.9260 C   0  0  0  0  0  3  0  0  0  0  0  0
  -23.8840   -8.4580   22.0950 C   0  0  0  0  0  3  0  0  0  0  0  0
  -22.7340   -8.2060   21.3100 C   0  0  0  0  0  0  0  0  0  0  0  0
  -22.3420   -9.1520   20.3460 C   0  0  0  0  0  3  0  0  0  0  0  0
  -23.0680  -10.3430   20.1750 C   0  0  0  0  0  3  0  0  0  0  0  0
  -21.9820   -7.0590   21.3870 O   0  0  0  0  0  0  0  0  0  0  0  0
  -21.8390   -6.3700   22.5650 C   0  0  0  0  0  0  0  0  0  0  0  0
  -21.2860   -6.9720   23.7170 C   0  0  0  0  0  3  0  0  0  0  0  0
  -21.0910   -6.2090   24.8860 C   0  0  0  0  0  3  0  0  0  0  0  0
  -21.4400   -4.8440   24.9030 C   0  0  0  0  0  0  0  0  0  0  0  0
  -21.9850   -4.2420   23.7550 C   0  0  0  0  0  3  0  0  0  0  0  0
  -22.1810   -5.0030   22.5900 C   0  0  0  0  0  0  0  0  0  0  0  0
  -22.6870   -4.4130   21.4800 F   0  0  0  0  0  0  0  0  0  0  0  0
  -21.2460   -4.1090   26.0220 F   0  0  0  0  0  0  0  0  0  0  0  0
  -23.0560  -13.6970   21.1670 C   0  0  0  0  0  0  0  0  0  0  0  0
  -22.3450  -12.9890   22.0380 N   0  0  0  0  0  0  0  0  0  0  0  0
  -22.6070  -14.7280   20.6670 O   0  0  0  0  0  0  0  0  0  0  0  0
  -22.7210  -12.1550   22.4640 H   0  0  0  0  0  0  0  0  0  0  0  0
  -21.4110  -13.2860   22.2810 H   0  0  0  0  0  0  0  0  0  0  0  0
  -25.6490  -15.3930   20.3350 N   0  0  0  0  0  0  0  0  0  0  0  0
  -24.8800  -16.0410   20.4700 H   0  0  0  0  0  0  0  0  0  0  0  0
  -26.4850  -15.8350   19.9760 H   0  0  0  0  0  0  0  0  0  0  0  0
  -28.2000  -23.6600   19.7580 C   0  0  0  0  0  1  0  0  0  0  0  0
  -28.2970  -25.4890   19.8910 O   0  0  0  0  0  0  0  0  0  0  0  0
  -24.7710  -31.8240   23.0220 C   0  0  0  0  0  0  0  0  0  0  0  0
  -27.3140  -26.7440   19.8780 C   0  0  0  0  0  0  0  0  0  0  0  0
  -23.5740  -30.4410   21.3820 C   0  0  0  0  0  3  0  0  0  0  0  0
  -25.0180  -28.8210   19.9120 C   0  0  0  0  0  0  0  0  0  0  0  0
  -26.1540  -30.5910   21.2200 C   0  0  0  0  0  2  0  0  0  0  0  0
  -26.2260  -29.1600   20.5330 C   0  0  0  0  0  0  0  0  0  0  0  0
  -27.3470  -28.1540   20.4820 C   0  0  0  0  0  3  0  0  0  0  0  0
  -26.0640  -26.6510   19.2030 C   0  0  0  0  0  3  0  0  0  0  0  0
  -24.9830  -27.5940   19.2220 C   0  0  0  0  0  3  0  0  0  0  0  0
  -23.8010  -29.7660   19.9970 C   0  0  0  0  0  2  0  0  0  0  0  0
  -24.8590  -30.9870   21.9280 N   0  0  0  0  0  0  0  0  0  0  0  0
  -23.6820  -32.1000   23.5580 O   0  0  0  0  0  0  0  0  0  0  0  0
  -22.8830  -29.4410   22.3520 C   0  0  0  0  0  0  0  0  0  0  0  0
  -21.5480  -29.2800   22.2580 N   0  0  0  0  0  0  0  0  0  0  0  0
  -23.5620  -28.8080   23.1630 O   0  0  0  0  0  0  0  0  0  0  0  0
  -21.0460  -29.8390   21.5830 H   0  0  0  0  0  0  0  0  0  0  0  0
  -18.1860  -28.0220   22.8430 C   0  0  0  0  0  0  0  0  0  0  0  0
  -20.7520  -28.3150   23.0300 C   0  0  0  0  0  3  0  0  0  0  0  0
  -20.8490  -26.8990   22.4140 C   0  0  0  0  0  2  0  0  0  0  0  0
  -19.7200  -26.5930   21.4250 C   0  0  0  0  0  2  0  0  0  0  0  0
  -18.3580  -26.6980   22.1160 C   0  0  0  0  0  2  0  0  0  0  0  0
  -19.3090  -28.7890   23.2570 C   0  0  0  0  0  0  0  0  0  0  0  0
  -19.0900  -30.0240   23.9050 C   0  0  0  0  0  3  0  0  0  0  0  0
  -17.7840  -30.4950   24.1370 C   0  0  0  0  0  3  0  0  0  0  0  0
  -16.6780  -29.7260   23.7350 C   0  0  0  0  0  3  0  0  0  0  0  0
  -16.8800  -28.4920   23.0940 C   0  0  0  0  0  3  0  0  0  0  0  0
  -26.0310  -32.4870   23.6550 C   0  0  0  0  0  3  0  0  0  0  0  0
  -25.6820  -33.8690   24.0500 N   0  0  0  0  0  0  0  0  0  0  0  0
  -25.9660  -34.9720   23.3440 C   0  0  0  0  0  0  0  0  0  0  0  0
  -26.6030  -34.9360   22.2890 O   0  0  0  0  0  0  0  0  0  0  0  0
  -25.1080  -33.9660   24.8750 H   0  0  0  0  0  0  0  0  0  0  0  0
  -24.1850  -36.7480   23.1590 C   0  0  0  0  0  1  0  0  0  0  0  0
  -25.4700  -36.3290   23.8910 C   0  0  0  0  0  3  0  0  0  0  0  0
  -27.6150  -37.2390   24.6760 C   0  0  0  0  0  1  0  0  0  0  0  0
  -26.4720  -37.4130   23.7830 N   0  0  0  0  0  0  0  0  0  0  0  0
  -26.0490  -38.3160   23.9820 H   0  0  0  0  0  0  0  0  0  0  0  0
  -26.5780  -31.7000   24.9110 C   0  0  1  0  0  0  0  0  0  0  0  0
  -25.5040  -31.4230   25.9900 C   0  0  0  0  0  1  0  0  0  0  0  0
  -27.1780  -30.3380   24.4960 C   0  0  0  0  0  1  0  0  0  0  0  0
  -27.7260  -32.4980   25.5730 C   0  0  0  0  0  1  0  0  0  0  0  0
  1  5  1  0
  2  3  1  0
  4  9  1  0
  4  7  1  0
  5  8  1  0
  5  7  1  0
  6  2  1  0
  7 11  1  1
  7  3  1  0
  9  1  1  0
  9  6  1  0
 10  1  2  0
 11 17  1  0
 12 17  1  0
 13 14  1  0
 13 12  1  0
 15 14  1  0
 15 22  1  0
 15 16  1  0
 17 16  1  0
 18 11  2  0
 19 20  2  0
 20 39  1  0
 21 20  1  0
 21 24  1  0
 22 23  1  0
 22 19  1  0
 23 21  2  0
 24 25  1  0
 25 26  2  0
 27 30  1  0
 27 26  1  0
 28 27  2  0
 29 28  1  0
 29 24  2  0
 30 31  1  0
 31 36  2  0
 31 32  1  0
 32 33  2  0
 33 34  1  0
 34 38  1  0
 35 34  2  0
 36 35  1  0
 37 36  1  0
 39 40  1  0
 40 43  1  0
 40 42  1  0
 41 39  2  0
 44 45  1  0
 44 19  1  0
 46 44  1  0
 47 48  1  0
 49 60  2  0
 50 48  1  0
 50 55  1  0
 51 59  1  0
 51 61  1  0
 52 58  1  0
 52 54  1  0
 53 59  1  0
 54 53  1  0
 55 54  2  0
 56 57  1  0
 56 50  2  0
 57 52  2  0
 58 51  1  0
 59 49  1  0
 61 63  2  0
 62 61  1  0
 64 62  1  0
 65 74  2  0
 65 70  1  0
 66 62  1  0
 66 70  1  0
 67 66  1  0
 68 69  1  0
 68 67  1  0
 69 65  1  0
 70 71  2  0
 71 72  1  0
 73 72  2  0
 74 73  1  0
 75 49  1  0
 75 76  1  0
 75 85  1  0
 76 79  1  0
 77 81  1  0
 77 76  1  0
 78 77  2  0
 81 80  1  0
 83 81  1  0
 83 84  1  0
 83 82  1  0
 85 88  1  1
 85 86  1  0
 87 85  1  0
M  ISO  4   7 100  11 100  47 101  48 101
M  END
>  <TORSDO>  (58) 
F 17

>  <SCORE>  (58) 
-16.001

>  <name>  (58) 
57

>  <ligand_id>  (58) 
57

>  <original_smiles>  (58) 
[H]c1c([H])c([H])c2c(c1[H])C([H])([H])C([H])([H])C([H])([H])C2([H])N([H])C(=O)C1([H])N(C(=O)C([H])(N([H])C(=O)C([H])(N([H])C([H])([H])[H])C([H])([H])[H])C(C([H])([H])[H])(C([H])([H])[H])C([H])([H])[H])C([H])([H])c2c([H])c(OC([H])([H])C3([H])N4C(=O)C([H])(C([H])([H])[H])C(C(=O)N5C([H])([H])C([H])([H])C([H])([H])C([H])(n6nc(-c7c([H])c([H])c(Oc8c([H])c([H])c(F)c([H])c8F)c([H])c7[H])c(C(=O)N([H])[H])c6N([H])[H])C5([H])[H])(C4([H])[H])C([H])([H])C3([H])[H])c([H])c([H])c2C1([H])[H]

>  <smiles>  (58) 
[H]c1c([H])c([H])c2c(c1[H])C([H])([H])C([H])([H])C([H])([H])C2([H])N([H])C(=O)C1([H])N(C(=O)C([H])(N([H])C(=O)C([H])(N([H])C([H])([H])[H])C([H])([H])[H])C(C([H])([H])[H])(C([H])([H])[H])C([H])([H])[H])C([H])([H])c2c([H])c(OC([H])([H])C3([H])N4C(=O)C([H])(C([H])([H])[H])C(C(=O)N5C([H])([H])C([H])([H])C([H])([H])C([H])(n6nc(-c7c([H])c([H])c(Oc8c([H])c([H])c(F)c([H])c8F)c([H])c7[H])c(C(=O)N([H])[H])c6N([H])[H])C5([H])[H])(C4([H])[H])C([H])([H])C3([H])[H])c([H])c([H])c2C1([H])[H]

$$$$
58:0:0
     RDKit          3D

 95103  0  0  1  0  0  0  0  0999 V2000
  -27.6850  -21.3170   20.6860 C   0  0  0  0  0  3  0  0  0  0  0  0
  -29.1970  -23.0180   19.9250 C   0  0  0  0  0  3  0  0  0  0  0  0
  -27.0590  -23.8070   20.6550 C   0  0  0  0  0  3  0  0  0  0  0  0
  -28.9960  -21.4260   20.1650 C   0  0  0  0  0  0  0  0  0  0  0  0
  -26.7930  -22.4210   20.9140 C   0  0  0  0  0  0  0  0  0  0  0  0
  -28.2670  -24.3260   20.1290 C   0  0  0  0  0  0  0  0  0  0  0  0
  -25.5630  -22.1270   21.4300 O   0  0  0  0  0  0  0  0  0  0  0  0
  -25.4360  -21.2010   21.6130 H   0  0  0  0  0  0  0  0  0  0  0  0
  -28.3520  -25.9450   19.9780 O   0  0  0  0  0  0  0  0  0  0  0  0
  -24.7800  -32.0420   23.3340 C   0  0  0  0  0  0  0  0  0  0  0  0
  -27.3560  -27.1470   20.0610 C   0  0  0  0  0  0  0  0  0  0  0  0
  -23.6020  -30.7210   21.6270 C   0  0  0  0  0  3  0  0  0  0  0  0
  -25.0640  -29.1680   20.1220 C   0  0  0  0  0  0  0  0  0  0  0  0
  -26.1800  -30.8950   21.5080 C   0  0  0  0  0  2  0  0  0  0  0  0
  -26.2580  -29.4970   20.7770 C   0  0  0  0  0  0  0  0  0  0  0  0
  -27.3840  -28.5160   20.7200 C   0  0  0  0  0  3  0  0  0  0  0  0
  -26.1300  -27.0460   19.3530 C   0  0  0  0  0  3  0  0  0  0  0  0
  -25.0400  -27.9700   19.3880 C   0  0  0  0  0  3  0  0  0  0  0  0
  -23.8450  -30.1000   20.2200 C   0  0  0  0  0  2  0  0  0  0  0  0
  -24.8780  -31.2500   22.2110 N   0  0  0  0  0  0  0  0  0  0  0  0
  -23.6860  -32.3000   23.8660 O   0  0  0  0  0  0  0  0  0  0  0  0
  -22.9020  -29.6830   22.5460 C   0  0  0  0  0  0  0  0  0  0  0  0
  -21.5770  -29.4930   22.3940 N   0  0  0  0  0  0  0  0  0  0  0  0
  -23.5630  -29.0490   23.3710 O   0  0  0  0  0  0  0  0  0  0  0  0
  -21.0910  -30.0560   21.7110 H   0  0  0  0  0  0  0  0  0  0  0  0
  -18.2220  -28.1640   22.8140 C   0  0  0  0  0  0  0  0  0  0  0  0
  -20.7700  -28.5000   23.1130 C   0  0  0  0  0  3  0  0  0  0  0  0
  -20.9200  -27.0970   22.4770 C   0  0  0  0  0  2  0  0  0  0  0  0
  -19.8370  -26.7870   21.4370 C   0  0  0  0  0  2  0  0  0  0  0  0
  -18.4470  -26.8570   22.0720 C   0  0  0  0  0  2  0  0  0  0  0  0
  -19.3110  -28.9430   23.2880 C   0  0  0  0  0  0  0  0  0  0  0  0
  -19.0420  -30.1640   23.9450 C   0  0  0  0  0  3  0  0  0  0  0  0
  -17.7190  -30.6070   24.1300 C   0  0  0  0  0  3  0  0  0  0  0  0
  -16.6450  -29.8260   23.6690 C   0  0  0  0  0  3  0  0  0  0  0  0
  -16.8970  -28.6060   23.0180 C   0  0  0  0  0  3  0  0  0  0  0  0
  -26.0370  -32.6730   24.0050 C   0  0  0  0  0  3  0  0  0  0  0  0
  -25.7010  -34.0520   24.4110 N   0  0  0  0  0  0  0  0  0  0  0  0
  -25.9840  -35.1570   23.7050 C   0  0  0  0  0  0  0  0  0  0  0  0
  -26.6130  -35.1220   22.6450 O   0  0  0  0  0  0  0  0  0  0  0  0
  -25.1390  -34.1500   25.2430 H   0  0  0  0  0  0  0  0  0  0  0  0
  -24.1940  -36.9250   23.5570 C   0  0  0  0  0  1  0  0  0  0  0  0
  -25.4970  -36.5120   24.2610 C   0  0  0  0  0  3  0  0  0  0  0  0
  -27.6530  -37.4310   24.9990 C   0  0  0  0  0  1  0  0  0  0  0  0
  -26.4930  -37.5990   24.1290 N   0  0  0  0  0  0  0  0  0  0  0  0
  -26.0710  -38.5000   24.3350 H   0  0  0  0  0  0  0  0  0  0  0  0
  -26.5420  -31.8570   25.2600 C   0  0  1  0  0  0  0  0  0  0  0  0
  -25.4460  -31.6050   26.3220 C   0  0  0  0  0  1  0  0  0  0  0  0
  -27.1060  -30.4820   24.8410 C   0  0  0  0  0  1  0  0  0  0  0  0
  -27.7030  -32.6170   25.9460 C   0  0  0  0  0  1  0  0  0  0  0  0
  -29.9110  -19.8010   19.8770 C   0  0  0  0  0  3  0  0  0  0  0  0
  -30.0200  -19.7680   18.4010 N   0  0  0  0  0  4  0  0  0  0  0  0
  -30.2100  -18.8230   18.1140 H   0  0  0  0  0  0  0  0  0  0  0  0
  -29.1200  -20.0190   18.0290 H   0  0  0  0  0  0  0  0  0  0  0  0
  -31.0480  -20.6290   17.7820 C   0  0  0  0  0  2  0  0  0  0  0  0
  -30.7870  -20.7900   16.2700 C   0  0  0  0  0  2  0  0  0  0  0  0
  -31.9110  -21.4290   15.6030 N   0  0  0  0  0  0  0  0  0  0  0  0
  -31.9980  -22.3890   15.9290 H   0  0  0  0  0  0  0  0  0  0  0  0
  -31.7000  -21.5250   14.6120 H   0  0  0  0  0  0  0  0  0  0  0  0
  -29.8000  -17.8990   20.3520 C   0  0  0  0  0  2  0  0  0  0  0  0
  -30.6520  -16.2220   20.1090 C   0  0  0  0  0  0  0  0  0  0  0  0
  -30.8390  -13.6510   19.3270 C   0  0  0  0  0  2  0  0  0  0  0  0
  -29.9540  -13.2320   18.1140 C   0  0  0  0  0  2  0  0  0  0  0  0
  -28.5380  -12.8500   18.5670 C   0  0  0  0  0  2  0  0  0  0  0  0
  -28.0090  -13.8390   19.6280 C   0  0  0  0  0  3  0  0  0  0  0  0
  -29.0330  -14.1750   20.7380 C   0  0  0  0  0  2  0  0  0  0  0  0
  -30.2040  -14.8200   20.0970 N   0  0  0  0  0  0  0  0  0  0  0  0
  -31.8730  -16.1830   19.8500 O   0  0  0  0  0  0  0  0  0  0  0  0
  -25.6630  -14.3230   20.4670 C   0  0  0  0  0  0  0  0  0  0  0  0
  -24.6120  -13.5230   20.8140 C   0  0  0  0  0  0  0  0  0  0  0  0
  -25.0830  -12.1780   20.7040 C   0  0  0  0  0  0  0  0  0  0  0  0
  -26.7020  -13.4690   20.1540 N   0  0  0  0  0  0  0  0  0  0  0  0
  -26.3700  -12.1670   20.3650 N   0  0  0  0  0  0  0  0  0  0  0  0
  -24.3580  -10.9070   20.8440 C   0  0  0  0  0  0  0  0  0  0  0  0
  -24.7460   -9.9330   21.7900 C   0  0  0  0  0  3  0  0  0  0  0  0
  -24.0190   -8.7300   21.9200 C   0  0  0  0  0  3  0  0  0  0  0  0
  -22.8880   -8.4910   21.1030 C   0  0  0  0  0  0  0  0  0  0  0  0
  -22.5190   -9.4540   20.1470 C   0  0  0  0  0  3  0  0  0  0  0  0
  -23.2470  -10.6490   20.0160 C   0  0  0  0  0  3  0  0  0  0  0  0
  -22.1360   -7.3420   21.1400 O   0  0  0  0  0  0  0  0  0  0  0  0
  -21.9560   -6.6380   22.3030 C   0  0  0  0  0  0  0  0  0  0  0  0
  -21.3440   -7.2160   23.4380 C   0  0  0  0  0  3  0  0  0  0  0  0
  -21.1150   -6.4360   24.5890 C   0  0  0  0  0  3  0  0  0  0  0  0
  -21.4890   -5.0790   24.6060 C   0  0  0  0  0  0  0  0  0  0  0  0
  -22.0920   -4.5000   23.4760 C   0  0  0  0  0  3  0  0  0  0  0  0
  -22.3230   -5.2780   22.3270 C   0  0  0  0  0  0  0  0  0  0  0  0
  -22.8860   -4.7090   21.2340 F   0  0  0  0  0  0  0  0  0  0  0  0
  -21.2620   -4.3280   25.7100 F   0  0  0  0  0  0  0  0  0  0  0  0
  -23.2200  -13.9840   21.1290 C   0  0  0  0  0  0  0  0  0  0  0  0
  -22.5110  -13.2520   21.9820 N   0  0  0  0  0  0  0  0  0  0  0  0
  -22.7700  -15.0270   20.6570 O   0  0  0  0  0  0  0  0  0  0  0  0
  -22.8910  -12.4090   22.3890 H   0  0  0  0  0  0  0  0  0  0  0  0
  -21.5760  -13.5410   22.2350 H   0  0  0  0  0  0  0  0  0  0  0  0
  -25.8200  -15.7030   20.3580 N   0  0  0  0  0  0  0  0  0  0  0  0
  -25.0550  -16.3490   20.5210 H   0  0  0  0  0  0  0  0  0  0  0  0
  -26.6630  -16.1590   20.0360 H   0  0  0  0  0  0  0  0  0  0  0  0
  1  5  1  0
  2  6  2  0
  2  4  1  0
  3  5  2  0
  4  1  2  0
  5  7  1  0
  6  3  1  0
  7  8  1  0
  9 11  1  0
  9  6  1  0
 10 21  2  0
 11 16  1  0
 12 20  1  0
 12 22  1  0
 13 19  1  0
 13 15  1  0
 14 20  1  0
 15 14  1  0
 16 15  2  0
 17 18  1  0
 17 11  2  0
 18 13  2  0
 19 12  1  0
 20 10  1  0
 22 24  2  0
 23 22  1  0
 25 23  1  0
 26 35  2  0
 26 31  1  0
 27 23  1  0
 27 31  1  0
 28 27  1  0
 29 30  1  0
 29 28  1  0
 30 26  1  0
 31 32  2  0
 32 33  1  0
 34 33  2  0
 35 34  1  0
 36 10  1  0
 36 37  1  0
 36 46  1  0
 37 40  1  0
 38 42  1  0
 38 37  1  0
 39 38  2  0
 42 41  1  0
 44 42  1  0
 44 45  1  0
 44 43  1  0
 46 49  1  1
 46 47  1  0
 48 46  1  0
 50  4  1  0
 50 59  1  0
 51 50  1  0
 52 51  1  0
 53 51  1  0
 54 51  1  0
 55 54  1  0
 56 57  1  0
 56 55  1  0
 58 56  1  0
 60 59  1  0
 61 66  1  0
 62 63  1  0
 62 61  1  0
 64 63  1  0
 64 71  1  0
 64 65  1  0
 66 60  1  0
 66 65  1  0
 67 60  2  0
 68 69  2  0
 69 88  1  0
 70 69  1  0
 70 73  1  0
 71 72  1  0
 71 68  1  0
 72 70  2  0
 73 74  1  0
 74 75  2  0
 76 79  1  0
 76 75  1  0
 77 76  2  0
 78 77  1  0
 78 73  2  0
 79 80  1  0
 80 85  2  0
 80 81  1  0
 81 82  2  0
 82 83  1  0
 83 87  1  0
 84 83  2  0
 85 84  1  0
 86 85  1  0
 88 89  1  0
 89 92  1  0
 89 91  1  0
 90 88  2  0
 93 68  1  0
 93 94  1  0
 95 93  1  0
M  ISO  4   6 101   9 101  59 100  60 100
M  END
>  <TORSDO>  (59) 
F 23

>  <SCORE>  (59) 
-12.168

>  <name>  (59) 
58

>  <ligand_id>  (59) 
58

>  <original_smiles>  (59) 
[H]Oc1c([H])c(Oc2c([H])c([H])c3c(c2[H])C([H])([H])N(C(=O)C([H])(N([H])C(=O)C([H])(N([H])C([H])([H])[H])C([H])([H])[H])C(C([H])([H])[H])(C([H])([H])[H])C([H])([H])[H])C([H])(C(=O)N([H])C2([H])c4c([H])c([H])c([H])c([H])c4C([H])([H])C([H])([H])C2([H])[H])C3([H])[H])c([H])c(C([H])(C([H])([H])C(=O)N2C([H])([H])C([H])([H])C([H])([H])C([H])(n3nc(-c4c([H])c([H])c(Oc5c([H])c([H])c(F)c([H])c5F)c([H])c4[H])c(C(=O)N([H])[H])c3N([H])[H])C2([H])[H])[N+]([H])([H])C([H])([H])C([H])([H])N([H])[H])c1[H]

>  <smiles>  (59) 
[H]Oc1c([H])c(Oc2c([H])c([H])c3c(c2[H])C([H])([H])N(C(=O)C([H])(N([H])C(=O)C([H])(N([H])C([H])([H])[H])C([H])([H])[H])C(C([H])([H])[H])(C([H])([H])[H])C([H])([H])[H])C([H])(C(=O)N([H])C2([H])c4c([H])c([H])c([H])c([H])c4C([H])([H])C([H])([H])C2([H])[H])C3([H])[H])c([H])c(C([H])(C([H])([H])C(=O)N2C([H])([H])C([H])([H])C([H])([H])C([H])(n3nc(-c4c([H])c([H])c(Oc5c([H])c([H])c(F)c([H])c5F)c([H])c4[H])c(C(=O)N([H])[H])c3N([H])[H])C2([H])[H])[N+]([H])([H])C([H])([H])C([H])([H])N([H])[H])c1[H]

$$$$
59:0:0
     RDKit          3D

 89 97  0  0  1  0  0  0  0  0999 V2000
  -27.3130  -21.5210   19.9920 C   0  0  0  0  0  3  0  0  0  0  0  0
  -28.9880  -23.2120   20.4140 C   0  0  0  0  0  3  0  0  0  0  0  0
  -26.7460  -23.9710   20.0330 C   0  0  0  0  0  3  0  0  0  0  0  0
  -28.6740  -21.6830   20.3130 C   0  0  0  0  0  0  0  0  0  0  0  0
  -26.3980  -22.6000   19.8820 C   0  0  0  0  0  0  0  0  0  0  0  0
  -28.0610  -24.4600   20.2470 C   0  0  0  0  0  0  0  0  0  0  0  0
  -25.0920  -22.2830   19.6410 O   0  0  0  0  0  0  0  0  0  0  0  0
  -24.5190  -23.0420   19.5850 H   0  0  0  0  0  0  0  0  0  0  0  0
  -28.2580  -26.0110   20.3050 O   0  0  0  0  0  0  0  0  0  0  0  0
  -24.7190  -32.0120   23.3900 C   0  0  0  0  0  0  0  0  0  0  0  0
  -27.2740  -27.1610   20.2670 C   0  0  0  0  0  0  0  0  0  0  0  0
  -23.5360  -30.6620   21.7060 C   0  0  0  0  0  3  0  0  0  0  0  0
  -24.9960  -29.0950   20.2460 C   0  0  0  0  0  0  0  0  0  0  0  0
  -26.1070  -30.8500   21.5990 C   0  0  0  0  0  2  0  0  0  0  0  0
  -26.1740  -29.4530   20.9120 C   0  0  0  0  0  0  0  0  0  0  0  0
  -27.2990  -28.5020   20.9140 C   0  0  0  0  0  3  0  0  0  0  0  0
  -26.1000  -27.0200   19.4900 C   0  0  0  0  0  3  0  0  0  0  0  0
  -24.9870  -27.9000   19.5130 C   0  0  0  0  0  3  0  0  0  0  0  0
  -23.7780  -30.0190   20.3120 C   0  0  0  0  0  2  0  0  0  0  0  0
  -24.8080  -31.2030   22.2840 N   0  0  0  0  0  0  0  0  0  0  0  0
  -23.6260  -32.2920   23.9090 O   0  0  0  0  0  0  0  0  0  0  0  0
  -22.8320  -29.6410   22.6400 C   0  0  0  0  0  0  0  0  0  0  0  0
  -21.5080  -29.4580   22.4800 N   0  0  0  0  0  0  0  0  0  0  0  0
  -23.4860  -29.0160   23.4780 O   0  0  0  0  0  0  0  0  0  0  0  0
  -21.0320  -30.0140   21.7830 H   0  0  0  0  0  0  0  0  0  0  0  0
  -18.1300  -28.1980   22.9050 C   0  0  0  0  0  0  0  0  0  0  0  0
  -20.6820  -28.4960   23.2190 C   0  0  0  0  0  3  0  0  0  0  0  0
  -20.8140  -27.0760   22.6200 C   0  0  0  0  0  2  0  0  0  0  0  0
  -19.7350  -26.7560   21.5810 C   0  0  0  0  0  2  0  0  0  0  0  0
  -18.3400  -26.8670   22.2030 C   0  0  0  0  0  2  0  0  0  0  0  0
  -19.2310  -28.9700   23.3680 C   0  0  0  0  0  0  0  0  0  0  0  0
  -18.9790  -30.2130   23.9880 C   0  0  0  0  0  3  0  0  0  0  0  0
  -17.6630  -30.6860   24.1470 C   0  0  0  0  0  3  0  0  0  0  0  0
  -16.5790  -29.9120   23.6980 C   0  0  0  0  0  3  0  0  0  0  0  0
  -16.8140  -28.6700   23.0840 C   0  0  0  0  0  3  0  0  0  0  0  0
  -25.9850  -32.6370   24.0470 C   0  0  0  0  0  3  0  0  0  0  0  0
  -26.4390  -31.8830   25.3580 C   0  0  1  0  0  0  0  0  0  0  0  0
  -25.3000  -31.6760   26.3840 C   0  0  0  0  0  1  0  0  0  0  0  0
  -27.0230  -30.4910   25.0240 C   0  0  0  0  0  1  0  0  0  0  0  0
  -27.5710  -32.6760   26.0530 C   0  0  0  0  0  1  0  0  0  0  0  0
  -25.6870  -34.0490   24.3540 N   0  0  0  0  0  0  0  0  0  0  0  0
  -26.0410  -35.0940   23.5950 C   0  0  0  0  0  0  0  0  0  0  0  0
  -26.7160  -34.9720   22.5700 O   0  0  0  0  0  0  0  0  0  0  0  0
  -25.0870  -34.2170   25.1490 H   0  0  0  0  0  0  0  0  0  0  0  0
  -24.3420  -36.9170   23.2310 C   0  0  0  0  0  1  0  0  0  0  0  0
  -25.5780  -36.4960   24.0410 C   0  0  0  0  0  3  0  0  0  0  0  0
  -27.7210  -37.3690   24.8680 C   0  0  0  0  0  1  0  0  0  0  0  0
  -26.6270  -37.5320   23.9140 N   0  0  0  0  0  0  0  0  0  0  0  0
  -26.2320  -38.4610   24.0400 H   0  0  0  0  0  0  0  0  0  0  0  0
  -29.4880  -20.1560   20.7120 C   0  0  0  0  0  2  0  0  0  0  0  0
  -29.6520  -18.5040   19.9490 C   0  0  0  0  0  2  0  0  0  0  0  0
  -30.5560  -15.6270   20.2490 C   0  0  0  0  0  0  0  0  0  0  0  0
  -30.5840  -13.1620   19.3950 C   0  0  0  0  0  2  0  0  0  0  0  0
  -29.6830  -12.9430   18.1500 C   0  0  0  0  0  2  0  0  0  0  0  0
  -28.2350  -12.6440   18.5720 C   0  0  0  0  0  2  0  0  0  0  0  0
  -27.7600  -13.5950   19.6980 C   0  0  0  0  0  3  0  0  0  0  0  0
  -28.7930  -13.7620   20.8370 C   0  0  0  0  0  2  0  0  0  0  0  0
  -30.0250  -14.2970   20.2310 N   0  0  0  0  0  0  0  0  0  0  0  0
  -31.7510  -15.6510   19.9180 O   0  0  0  0  0  0  0  0  0  0  0  0
  -29.7780  -16.8900   20.4660 N   0  0  0  0  0  0  0  0  0  0  0  0
  -28.8990  -16.6210   20.8850 H   0  0  0  0  0  0  0  0  0  0  0  0
  -25.3720  -14.1150   20.4160 C   0  0  0  0  0  0  0  0  0  0  0  0
  -24.3200  -13.3240   20.7800 C   0  0  0  0  0  0  0  0  0  0  0  0
  -24.8100  -11.9810   20.7660 C   0  0  0  0  0  0  0  0  0  0  0  0
  -26.4330  -13.2570   20.1920 N   0  0  0  0  0  0  0  0  0  0  0  0
  -26.1060  -11.9670   20.4710 N   0  0  0  0  0  0  0  0  0  0  0  0
  -24.1010  -10.7090   20.9600 C   0  0  0  0  0  0  0  0  0  0  0  0
  -24.5150   -9.7700   21.9310 C   0  0  0  0  0  3  0  0  0  0  0  0
  -23.8020   -8.5660   22.1120 C   0  0  0  0  0  3  0  0  0  0  0  0
  -22.6610   -8.2900   21.3220 C   0  0  0  0  0  0  0  0  0  0  0  0
  -22.2660   -9.2160   20.3410 C   0  0  0  0  0  3  0  0  0  0  0  0
  -22.9800  -10.4130   20.1580 C   0  0  0  0  0  3  0  0  0  0  0  0
  -21.9220   -7.1350   21.4110 O   0  0  0  0  0  0  0  0  0  0  0  0
  -21.8260   -6.4290   22.5840 C   0  0  0  0  0  0  0  0  0  0  0  0
  -21.2750   -6.9970   23.7520 C   0  0  0  0  0  3  0  0  0  0  0  0
  -21.1310   -6.2150   24.9150 C   0  0  0  0  0  3  0  0  0  0  0  0
  -21.5290   -4.8660   24.9110 C   0  0  0  0  0  0  0  0  0  0  0  0
  -22.0740   -4.2960   23.7460 C   0  0  0  0  0  3  0  0  0  0  0  0
  -22.2190   -5.0750   22.5850 C   0  0  0  0  0  0  0  0  0  0  0  0
  -22.7240   -4.5150   21.4600 F   0  0  0  0  0  0  0  0  0  0  0  0
  -21.3850   -4.1120   26.0260 F   0  0  0  0  0  0  0  0  0  0  0  0
  -22.9120  -13.7800   21.0260 C   0  0  0  0  0  0  0  0  0  0  0  0
  -22.1890  -13.0910   21.9020 N   0  0  0  0  0  0  0  0  0  0  0  0
  -22.4620  -14.7850   20.4770 O   0  0  0  0  0  0  0  0  0  0  0  0
  -22.5670  -12.2800   22.3680 H   0  0  0  0  0  0  0  0  0  0  0  0
  -21.2440  -13.3810   22.1100 H   0  0  0  0  0  0  0  0  0  0  0  0
  -25.5110  -15.4870   20.2260 N   0  0  0  0  0  0  0  0  0  0  0  0
  -24.7280  -16.1240   20.3170 H   0  0  0  0  0  0  0  0  0  0  0  0
  -26.3450  -15.9350   19.8690 H   0  0  0  0  0  0  0  0  0  0  0  0
  1  4  1  0
  3  6  2  0
  4  2  2  0
  4 50  1  0
  5  1  2  0
  5  3  1  0
  6  9  1  0
  6  2  1  0
  7  5  1  0
  8  7  1  0
 10 21  2  0
 11  9  1  0
 11 16  1  0
 12 20  1  0
 12 22  1  0
 13 19  1  0
 13 15  1  0
 14 20  1  0
 15 16  2  0
 15 14  1  0
 17 18  1  0
 17 11  2  0
 18 13  2  0
 19 12  1  0
 20 10  1  0
 22 24  2  0
 23 22  1  0
 25 23  1  0
 26 35  2  0
 26 31  1  0
 27 23  1  0
 27 31  1  0
 28 27  1  0
 29 30  1  0
 29 28  1  0
 30 26  1  0
 31 32  2  0
 32 33  1  0
 34 33  2  0
 35 34  1  0
 36 10  1  0
 36 41  1  0
 36 37  1  0
 37 40  1  1
 37 38  1  0
 39 37  1  0
 41 44  1  0
 42 46  1  0
 42 41  1  0
 43 42  2  0
 46 45  1  0
 48 49  1  0
 48 46  1  0
 48 47  1  0
 51 60  1  0
 51 50  1  0
 52 60  1  0
 53 58  1  0
 54 55  1  0
 54 53  1  0
 56 55  1  0
 56 65  1  0
 56 57  1  0
 58 52  1  0
 58 57  1  0
 59 52  2  0
 60 61  1  0
 62 63  2  0
 63 82  1  0
 64 63  1  0
 64 67  1  0
 65 62  1  0
 65 66  1  0
 66 64  2  0
 67 68  1  0
 68 69  2  0
 70 73  1  0
 70 69  1  0
 71 70  2  0
 72 71  1  0
 72 67  2  0
 73 74  1  0
 74 79  2  0
 74 75  1  0
 75 76  2  0
 77 76  1  0
 77 81  1  0
 78 77  2  0
 79 78  1  0
 80 79  1  0
 82 83  1  0
 83 86  1  0
 83 85  1  0
 84 82  2  0
 87 88  1  0
 87 62  1  0
 89 87  1  0
M  ISO  4   6 101   9 101  52 100  60 100
M  END
>  <TORSDO>  (60) 
F 19

>  <SCORE>  (60) 
-15.263

>  <name>  (60) 
59

>  <ligand_id>  (60) 
59

>  <original_smiles>  (60) 
[H]Oc1c([H])c(Oc2c([H])c([H])c3c(c2[H])C([H])([H])N(C(=O)C([H])(N([H])C(=O)C([H])(N([H])C([H])([H])[H])C([H])([H])[H])C(C([H])([H])[H])(C([H])([H])[H])C([H])([H])[H])C([H])(C(=O)N([H])C2([H])c4c([H])c([H])c([H])c([H])c4C([H])([H])C([H])([H])C2([H])[H])C3([H])[H])c([H])c(C([H])([H])C([H])([H])N([H])C(=O)N2C([H])([H])C([H])([H])C([H])([H])C([H])(n3nc(-c4c([H])c([H])c(Oc5c([H])c([H])c(F)c([H])c5F)c([H])c4[H])c(C(=O)N([H])[H])c3N([H])[H])C2([H])[H])c1[H]

>  <smiles>  (60) 
[H]Oc1c([H])c(Oc2c([H])c([H])c3c(c2[H])C([H])([H])N(C(=O)C([H])(N([H])C(=O)C([H])(N([H])C([H])([H])[H])C([H])([H])[H])C(C([H])([H])[H])(C([H])([H])[H])C([H])([H])[H])C([H])(C(=O)N([H])C2([H])c4c([H])c([H])c([H])c([H])c4C([H])([H])C([H])([H])C2([H])[H])C3([H])[H])c([H])c(C([H])([H])C([H])([H])N([H])C(=O)N2C([H])([H])C([H])([H])C([H])([H])C([H])(n3nc(-c4c([H])c([H])c(Oc5c([H])c([H])c(F)c([H])c5F)c([H])c4[H])c(C(=O)N([H])[H])c3N([H])[H])C2([H])[H])c1[H]

$$$$
60:0:0
     RDKit          3D

 98107  0  0  1  0  0  0  0  0999 V2000
  -26.2750  -20.7950   18.7320 C   0  0  0  0  0  3  0  0  0  0  0  0
  -26.5110  -22.0710   19.2650 C   0  0  0  0  0  3  0  0  0  0  0  0
  -27.0190  -19.6900   19.1620 C   0  0  0  0  0  3  0  0  0  0  0  0
  -27.4070  -22.2550   20.3550 C   0  0  0  0  0  0  0  0  0  0  0  0
  -28.0110  -19.8280   20.1700 C   0  0  0  0  0  0  0  0  0  0  0  0
  -28.0810  -21.0970   20.8570 C   0  0  0  0  0  0  0  0  0  0  0  0
  -28.8420  -21.1960   22.1710 C   0  0  0  0  0  1  0  0  0  0  0  0
  -27.5240  -23.6800   20.9640 C   0  0  0  0  0  2  0  0  0  0  0  0
  -28.9360  -24.3980   20.9400 C   0  0  0  0  0  3  0  0  0  0  0  0
  -29.7370  -24.0730   22.1410 N   0  0  0  0  0  4  0  0  0  0  0  0
  -29.4040  -24.5980   22.9320 H   0  0  0  0  0  0  0  0  0  0  0  0
  -30.7030  -24.3290   21.9900 H   0  0  0  0  0  0  0  0  0  0  0  0
  -29.6910  -23.0930   22.3560 H   0  0  0  0  0  0  0  0  0  0  0  0
  -28.9300  -25.9520   20.8940 C   0  0  0  0  0  2  0  0  0  0  0  0
  -28.8600  -26.5530   19.5990 O   0  0  0  0  0  0  0  0  0  0  0  0
  -25.0040  -31.4060   23.0590 C   0  0  0  0  0  0  0  0  0  0  0  0
  -27.7690  -27.3710   19.5590 C   0  0  0  0  0  0  0  0  0  0  0  0
  -23.8750  -30.1730   21.2390 C   0  0  0  0  0  3  0  0  0  0  0  0
  -25.3830  -28.8300   19.6870 C   0  0  0  0  0  0  0  0  0  0  0  0
  -26.3930  -30.5760   21.1550 C   0  0  0  0  0  2  0  0  0  0  0  0
  -26.5160  -29.2930   20.3690 C   0  0  0  0  0  0  0  0  0  0  0  0
  -27.7220  -28.5740   20.3070 C   0  0  0  0  0  3  0  0  0  0  0  0
  -26.6370  -26.9180   18.8710 C   0  0  0  0  0  3  0  0  0  0  0  0
  -25.4370  -27.6430   18.9360 C   0  0  0  0  0  3  0  0  0  0  0  0
  -24.1300  -29.6630   19.7960 C   0  0  0  0  0  2  0  0  0  0  0  0
  -25.1070  -30.7300   21.8790 N   0  0  0  0  0  0  0  0  0  0  0  0
  -23.9010  -31.5980   23.5900 O   0  0  0  0  0  0  0  0  0  0  0  0
  -23.2200  -29.0450   22.0650 C   0  0  0  0  0  0  0  0  0  0  0  0
  -21.9060  -28.8420   21.8600 N   0  0  0  0  0  0  0  0  0  0  0  0
  -23.8920  -28.3490   22.8420 O   0  0  0  0  0  0  0  0  0  0  0  0
  -21.4430  -29.4030   21.1620 H   0  0  0  0  0  0  0  0  0  0  0  0
  -18.5290  -27.5270   22.1120 C   0  0  0  0  0  0  0  0  0  0  0  0
  -21.0730  -27.8290   22.5080 C   0  0  0  0  0  3  0  0  0  0  0  0
  -21.2260  -26.4690   21.7940 C   0  0  0  0  0  2  0  0  0  0  0  0
  -20.1660  -26.2490   20.7050 C   0  0  0  0  0  2  0  0  0  0  0  0
  -18.7740  -26.2520   21.3330 C   0  0  0  0  0  2  0  0  0  0  0  0
  -19.6080  -28.2760   22.6630 C   0  0  0  0  0  0  0  0  0  0  0  0
  -19.3080  -29.4710   23.3590 C   0  0  0  0  0  3  0  0  0  0  0  0
  -17.9750  -29.9110   23.4990 C   0  0  0  0  0  3  0  0  0  0  0  0
  -16.9180  -29.1610   22.9570 C   0  0  0  0  0  3  0  0  0  0  0  0
  -17.1950  -27.9630   22.2760 C   0  0  0  0  0  3  0  0  0  0  0  0
  -26.2580  -31.9750   23.7910 C   0  0  0  0  0  3  0  0  0  0  0  0
  -26.7590  -31.0680   24.9800 C   0  0  1  0  0  0  0  0  0  0  0  0
  -25.6460  -30.6950   25.9820 C   0  0  0  0  0  1  0  0  0  0  0  0
  -27.3710  -29.7590   24.4320 C   0  0  0  0  0  1  0  0  0  0  0  0
  -27.8880  -31.8020   25.7390 C   0  0  0  0  0  1  0  0  0  0  0  0
  -25.9050  -33.3190   24.2670 N   0  0  0  0  0  0  0  0  0  0  0  0
  -26.2440  -34.4590   23.6500 C   0  0  0  0  0  0  0  0  0  0  0  0
  -26.9460  -34.4890   22.6360 O   0  0  0  0  0  0  0  0  0  0  0  0
  -25.2630  -33.3650   25.0440 H   0  0  0  0  0  0  0  0  0  0  0  0
  -24.4790  -36.2360   23.4490 C   0  0  0  0  0  1  0  0  0  0  0  0
  -25.7080  -35.7710   24.2450 C   0  0  0  0  0  3  0  0  0  0  0  0
  -27.8010  -36.5990   25.2260 C   0  0  0  0  0  1  0  0  0  0  0  0
  -26.7160  -36.8500   24.2810 N   0  0  0  0  0  0  0  0  0  0  0  0
  -26.2880  -37.7410   24.5170 H   0  0  0  0  0  0  0  0  0  0  0  0
  -29.1370  -18.7330   20.2810 C   0  0  0  0  0  2  0  0  0  0  0  0
  -29.2900  -17.3540   20.8910 N   0  0  1  0  0  4  0  0  0  0  0  0
  -29.5920  -17.5750   21.8300 H   0  0  0  0  0  0  0  0  0  0  0  0
  -26.7100  -17.0230   20.9190 C   0  0  0  0  0  2  0  0  0  0  0  0
  -28.1160  -16.4390   21.0920 C   0  0  0  0  0  2  0  0  0  0  0  0
  -30.4260  -16.6400   20.2230 C   0  0  0  0  0  2  0  0  0  0  0  0
  -31.1590  -15.5390   21.0160 C   0  0  0  0  0  2  0  0  0  0  0  0
  -31.5600  -14.4060   20.0420 C   0  0  0  0  0  0  0  0  0  0  0  0
  -31.1120  -12.2250   18.9620 C   0  0  0  0  0  2  0  0  0  0  0  0
  -30.1260  -12.3560   17.7880 C   0  0  0  0  0  2  0  0  0  0  0  0
  -28.6650  -12.3080   18.2710 C   0  0  0  0  0  2  0  0  0  0  0  0
  -28.4070  -13.2530   19.4690 C   0  0  0  0  0  3  0  0  0  0  0  0
  -29.4860  -13.0510   20.5510 C   0  0  0  0  0  2  0  0  0  0  0  0
  -30.8100  -13.2760   19.9500 N   0  0  0  0  0  0  0  0  0  0  0  0
  -32.5540  -14.5980   19.3400 O   0  0  0  0  0  0  0  0  0  0  0  0
  -26.1080  -14.0340   20.3400 C   0  0  0  0  0  0  0  0  0  0  0  0
  -25.0100  -13.3360   20.7720 C   0  0  0  0  0  0  0  0  0  0  0  0
  -25.3620  -11.9570   20.6800 C   0  0  0  0  0  0  0  0  0  0  0  0
  -27.0640  -13.0860   20.0230 N   0  0  0  0  0  0  0  0  0  0  0  0
  -26.6230  -11.8300   20.2840 N   0  0  0  0  0  0  0  0  0  0  0  0
  -24.5520  -10.7490   20.8790 C   0  0  0  0  0  0  0  0  0  0  0  0
  -24.9410   -9.7350   21.7830 C   0  0  0  0  0  3  0  0  0  0  0  0
  -24.1330   -8.5910   21.9630 C   0  0  0  0  0  3  0  0  0  0  0  0
  -22.9230   -8.4530   21.2430 C   0  0  0  0  0  0  0  0  0  0  0  0
  -22.5550   -9.4550   20.3250 C   0  0  0  0  0  3  0  0  0  0  0  0
  -23.3620  -10.5900   20.1420 C   0  0  0  0  0  3  0  0  0  0  0  0
  -22.0910   -7.3630   21.3330 O   0  0  0  0  0  0  0  0  0  0  0  0
  -21.9940   -6.6310   22.4870 C   0  0  0  0  0  0  0  0  0  0  0  0
  -21.6400   -7.2250   23.7200 C   0  0  0  0  0  3  0  0  0  0  0  0
  -21.4840   -6.4250   24.8700 C   0  0  0  0  0  3  0  0  0  0  0  0
  -21.6680   -5.0320   24.7880 C   0  0  0  0  0  0  0  0  0  0  0  0
  -22.0130   -4.4380   23.5620 C   0  0  0  0  0  3  0  0  0  0  0  0
  -22.1730   -5.2340   22.4160 C   0  0  0  0  0  0  0  0  0  0  0  0
  -22.4840   -4.6520   21.2320 F   0  0  0  0  0  0  0  0  0  0  0  0
  -21.5120   -4.2610   25.8920 F   0  0  0  0  0  0  0  0  0  0  0  0
  -23.6760  -13.9160   21.1470 C   0  0  0  0  0  0  0  0  0  0  0  0
  -22.9710  -13.2810   22.0740 N   0  0  0  0  0  0  0  0  0  0  0  0
  -23.2790  -14.9690   20.6550 O   0  0  0  0  0  0  0  0  0  0  0  0
  -23.3120  -12.4250   22.4850 H   0  0  0  0  0  0  0  0  0  0  0  0
  -22.0830  -13.6620   22.3750 H   0  0  0  0  0  0  0  0  0  0  0  0
  -26.3400  -15.3950   20.1680 N   0  0  0  0  0  4  0  0  0  0  0  0
  -25.5550  -16.0340   20.2320 H   0  0  0  0  0  0  0  0  0  0  0  0
  -27.1080  -15.7670   19.6240 H   0  0  0  0  0  0  0  0  0  0  0  0
  1  3  2  0
  1  2  1  0
  2  4  2  0
  3  5  1  0
  4  6  1  0
  4  8  1  0
  5 56  1  0
  5  6  2  0
  6  7  1  0
  9 14  1  0
  9  8  1  0
  9 10  1  0
 10 13  1  0
 10 11  1  0
 12 10  1  0
 15 14  1  0
 16 27  2  0
 17 15  1  0
 17 22  1  0
 18 26  1  0
 18 28  1  0
 19 25  1  0
 19 21  1  0
 20 26  1  0
 21 20  1  0
 22 21  2  0
 23 24  1  0
 23 17  2  0
 24 19  2  0
 25 18  1  0
 26 16  1  0
 28 30  2  0
 29 28  1  0
 31 29  1  0
 32 41  2  0
 32 37  1  0
 33 29  1  0
 33 37  1  0
 34 33  1  0
 35 36  1  0
 35 34  1  0
 36 32  1  0
 37 38  2  0
 38 39  1  0
 40 39  2  0
 41 40  1  0
 42 16  1  0
 42 47  1  0
 42 43  1  0
 43 46  1  1
 43 44  1  0
 45 43  1  0
 47 50  1  0
 48 52  1  0
 48 47  1  0
 49 48  2  0
 52 51  1  0
 52 54  1  0
 54 55  1  0
 54 53  1  0
 56 57  1  0
 57 60  1  0
 57 58  1  1
 59 60  1  0
 61 57  1  0
 61 62  1  0
 63 62  1  0
 64 69  1  0
 65 66  1  0
 65 64  1  0
 67 66  1  0
 67 74  1  0
 67 68  1  0
 69 63  1  0
 69 68  1  0
 70 63  2  0
 71 72  2  0
 72 91  1  0
 73 72  1  0
 73 76  1  0
 74 75  1  0
 74 71  1  0
 75 73  2  0
 76 77  1  0
 77 78  2  0
 79 82  1  0
 79 78  1  0
 80 79  2  0
 81 80  1  0
 81 76  2  0
 82 83  1  0
 83 84  1  0
 84 85  2  0
 86 85  1  0
 86 90  1  0
 87 86  2  0
 88 83  2  0
 88 87  1  0
 89 88  1  0
 91 92  1  0
 92 95  1  0
 92 94  1  0
 93 91  2  0
 96 97  1  0
 96 71  1  0
 96 59  1  0
 98 96  1  0
M  ISO  4  14 101  15 101  62 100  63 100
M  END
>  <TORSDO>  (61) 
F 25

>  <SCORE>  (61) 
-8.765

>  <name>  (61) 
60

>  <ligand_id>  (61) 
60

>  <original_smiles>  (61) 
[H]c1c([H])c([H])c2c(c1[H])C([H])([H])C([H])([H])C([H])([H])C2([H])N([H])C(=O)C1([H])N(C(=O)C([H])(N([H])C(=O)C([H])(N([H])C([H])([H])[H])C([H])([H])[H])C(C([H])([H])[H])(C([H])([H])[H])C([H])([H])[H])C([H])([H])c2c([H])c(OC([H])([H])C([H])(C([H])([H])c3c([H])c([H])c([H])c(C([H])([H])[N+]([H])(C([H])([H])C([H])([H])[H])C([H])([H])C([H])([H])C(=O)N4C([H])([H])C([H])([H])C([H])([H])C([H])(n5nc(-c6c([H])c([H])c(Oc7c([H])c([H])c(F)c([H])c7F)c([H])c6[H])c(C(=O)N([H])[H])c5N([H])[H])C4([H])[H])c3C([H])([H])[H])[N+]([H])([H])[H])c([H])c([H])c2C1([H])[H]

>  <smiles>  (61) 
[H]c1c([H])c([H])c2c(c1[H])C([H])([H])C([H])([H])C([H])([H])C2([H])N([H])C(=O)C1([H])N(C(=O)C([H])(N([H])C(=O)C([H])(N([H])C([H])([H])[H])C([H])([H])[H])C(C([H])([H])[H])(C([H])([H])[H])C([H])([H])[H])C([H])([H])c2c([H])c(OC([H])([H])C([H])(C([H])([H])c3c([H])c([H])c([H])c(C([H])([H])[N+]([H])(C([H])([H])C([H])([H])[H])C([H])([H])C([H])([H])C(=O)N4C([H])([H])C([H])([H])C([H])([H])C([H])(n5nc(-c6c([H])c([H])c(Oc7c([H])c([H])c(F)c([H])c7F)c([H])c6[H])c(C(=O)N([H])[H])c5N([H])[H])C4([H])[H])c3C([H])([H])[H])[N+]([H])([H])[H])c([H])c([H])c2C1([H])[H]

$$$$
61:0:0
     RDKit          3D

 95103  0  0  1  0  0  0  0  0999 V2000
  -28.2940  -24.1930   23.0890 C   0  0  0  0  0  3  0  0  0  0  0  0
  -27.4290  -26.2440   22.1120 C   0  0  0  0  0  3  0  0  0  0  0  0
  -29.1010  -24.9480   20.9090 C   0  0  0  0  0  3  0  0  0  0  0  0
  -27.4500  -25.3140   23.1650 C   0  0  0  0  0  0  0  0  0  0  0  0
  -29.1320  -23.9960   21.9650 C   0  0  0  0  0  0  0  0  0  0  0  0
  -28.2300  -26.0690   20.9530 C   0  0  0  0  0  0  0  0  0  0  0  0
  -26.5510  -25.5120   24.3740 C   0  0  0  0  0  1  0  0  0  0  0  0
  -30.4660  -22.1960   23.2590 C   0  0  0  0  0  1  0  0  0  0  0  0
  -30.0260  -22.7430   21.8750 C   0  0  0  0  0  3  0  0  0  0  0  0
  -29.3420  -21.7270   21.0270 N   0  0  0  0  0  4  0  0  0  0  0  0
  -28.3520  -21.7840   21.2100 H   0  0  0  0  0  0  0  0  0  0  0  0
  -29.4770  -22.0230   20.0760 H   0  0  0  0  0  0  0  0  0  0  0  0
  -29.7460  -20.3020   21.1260 C   0  0  0  0  0  2  0  0  0  0  0  0
  -29.2630  -19.4740   19.9080 C   0  0  0  0  0  2  0  0  0  0  0  0
  -29.0770  -17.9510   20.1190 C   0  0  0  0  0  2  0  0  0  0  0  0
  -30.0900  -17.2240   21.0400 C   0  0  0  0  0  2  0  0  0  0  0  0
  -30.5590  -14.8360   20.4050 C   0  0  0  0  0  0  0  0  0  0  0  0
  -30.3710  -12.6820   19.2070 C   0  0  0  0  0  2  0  0  0  0  0  0
  -29.3990  -12.8010   18.0140 C   0  0  0  0  0  2  0  0  0  0  0  0
  -27.9360  -12.6130   18.4600 C   0  0  0  0  0  2  0  0  0  0  0  0
  -27.5770  -13.4330   19.7310 C   0  0  0  0  0  3  0  0  0  0  0  0
  -28.6490  -13.2470   20.8270 C   0  0  0  0  0  2  0  0  0  0  0  0
  -29.9510  -13.6290   20.2570 N   0  0  0  0  0  0  0  0  0  0  0  0
  -31.6450  -15.1090   19.8850 O   0  0  0  0  0  0  0  0  0  0  0  0
  -29.8300  -15.7770   21.0410 N   0  0  0  0  0  0  0  0  0  0  0  0
  -28.9480  -15.4760   21.4300 H   0  0  0  0  0  0  0  0  0  0  0  0
  -25.1690  -13.9300   20.4740 C   0  0  0  0  0  0  0  0  0  0  0  0
  -24.1480  -13.1080   20.8630 C   0  0  0  0  0  0  0  0  0  0  0  0
  -24.6650  -11.7770   20.8110 C   0  0  0  0  0  0  0  0  0  0  0  0
  -26.2470  -13.0960   20.2200 N   0  0  0  0  0  0  0  0  0  0  0  0
  -25.9480  -11.7960   20.4780 N   0  0  0  0  0  0  0  0  0  0  0  0
  -24.0030  -10.4810   20.9970 C   0  0  0  0  0  0  0  0  0  0  0  0
  -24.4290   -9.5820   21.9980 C   0  0  0  0  0  3  0  0  0  0  0  0
  -23.7640   -8.3500   22.1810 C   0  0  0  0  0  3  0  0  0  0  0  0
  -22.6570   -8.0070   21.3670 C   0  0  0  0  0  0  0  0  0  0  0  0
  -22.2530   -8.8970   20.3540 C   0  0  0  0  0  3  0  0  0  0  0  0
  -22.9190  -10.1210   20.1690 C   0  0  0  0  0  3  0  0  0  0  0  0
  -21.9710   -6.8210   21.4620 O   0  0  0  0  0  0  0  0  0  0  0  0
  -21.8220   -6.1700   22.6610 C   0  0  0  0  0  0  0  0  0  0  0  0
  -21.1470   -6.7570   23.7510 C   0  0  0  0  0  3  0  0  0  0  0  0
  -20.9400   -6.0160   24.9290 C   0  0  0  0  0  3  0  0  0  0  0  0
  -21.4040   -4.6910   25.0220 C   0  0  0  0  0  0  0  0  0  0  0  0
  -22.0740   -4.1020   23.9350 C   0  0  0  0  0  3  0  0  0  0  0  0
  -22.2750   -4.8380   22.7530 C   0  0  0  0  0  0  0  0  0  0  0  0
  -22.8980   -4.2540   21.6990 F   0  0  0  0  0  0  0  0  0  0  0  0
  -21.2020   -3.9800   26.1560 F   0  0  0  0  0  0  0  0  0  0  0  0
  -22.7330  -13.5120   21.1630 C   0  0  0  0  0  0  0  0  0  0  0  0
  -22.0580  -12.7700   22.0310 N   0  0  0  0  0  0  0  0  0  0  0  0
  -22.2360  -14.5170   20.6510 O   0  0  0  0  0  0  0  0  0  0  0  0
  -22.4990  -11.9770   22.4770 H   0  0  0  0  0  0  0  0  0  0  0  0
  -21.0960  -12.9840   22.2580 H   0  0  0  0  0  0  0  0  0  0  0  0
  -25.2810  -15.3060   20.2900 N   0  0  0  0  0  0  0  0  0  0  0  0
  -24.4980  -15.9420   20.3820 H   0  0  0  0  0  0  0  0  0  0  0  0
  -26.1080  -15.7490   19.9090 H   0  0  0  0  0  0  0  0  0  0  0  0
  -28.1780  -26.9580   19.8790 O   0  0  0  0  0  0  0  0  0  0  0  0
  -24.5820  -31.9870   23.3190 C   0  0  0  0  0  0  0  0  0  0  0  0
  -27.0840  -27.7950   19.8220 C   0  0  0  0  0  0  0  0  0  0  0  0
  -23.3150  -30.7340   21.6020 C   0  0  0  0  0  3  0  0  0  0  0  0
  -24.7130  -29.3200   20.0000 C   0  0  0  0  0  0  0  0  0  0  0  0
  -25.8360  -31.0970   21.3550 C   0  0  0  0  0  2  0  0  0  0  0  0
  -25.8900  -29.7860   20.5980 C   0  0  0  0  0  0  0  0  0  0  0  0
  -27.0830  -29.0340   20.5020 C   0  0  0  0  0  3  0  0  0  0  0  0
  -25.9040  -27.3530   19.1900 C   0  0  0  0  0  3  0  0  0  0  0  0
  -24.7200  -28.1050   19.2880 C   0  0  0  0  0  3  0  0  0  0  0  0
  -23.4720  -30.1720   20.1640 C   0  0  0  0  0  2  0  0  0  0  0  0
  -24.5970  -31.2870   22.1480 N   0  0  0  0  0  0  0  0  0  0  0  0
  -23.5220  -32.2260   23.9150 O   0  0  0  0  0  0  0  0  0  0  0  0
  -22.6780  -29.6450   22.4970 C   0  0  0  0  0  0  0  0  0  0  0  0
  -21.3550  -29.4580   22.3650 N   0  0  0  0  0  0  0  0  0  0  0  0
  -23.3670  -28.9690   23.2650 O   0  0  0  0  0  0  0  0  0  0  0  0
  -20.8480  -30.0660   21.7380 H   0  0  0  0  0  0  0  0  0  0  0  0
  -17.9870  -28.2370   22.8160 C   0  0  0  0  0  0  0  0  0  0  0  0
  -20.5510  -28.4600   23.0690 C   0  0  0  0  0  3  0  0  0  0  0  0
  -20.6360  -27.0770   22.3800 C   0  0  0  0  0  2  0  0  0  0  0  0
  -19.5170  -26.8440   21.3570 C   0  0  0  0  0  2  0  0  0  0  0  0
  -18.1480  -26.9400   22.0360 C   0  0  0  0  0  2  0  0  0  0  0  0
  -19.1180  -28.9550   23.2870 C   0  0  0  0  0  0  0  0  0  0  0  0
  -18.9150  -30.1670   23.9800 C   0  0  0  0  0  3  0  0  0  0  0  0
  -17.6180  -30.6620   24.2060 C   0  0  0  0  0  3  0  0  0  0  0  0
  -16.5000  -29.9350   23.7590 C   0  0  0  0  0  3  0  0  0  0  0  0
  -16.6870  -28.7240   23.0670 C   0  0  0  0  0  3  0  0  0  0  0  0
  -25.8980  -32.5450   23.9510 C   0  0  0  0  0  3  0  0  0  0  0  0
  -25.6330  -33.9250   24.3750 N   0  0  0  0  0  0  0  0  0  0  0  0
  -25.9790  -35.0180   23.6800 C   0  0  0  0  0  0  0  0  0  0  0  0
  -26.6310  -34.9630   22.6330 O   0  0  0  0  0  0  0  0  0  0  0  0
  -25.0560  -34.0440   25.1940 H   0  0  0  0  0  0  0  0  0  0  0  0
  -24.2960  -36.8740   23.4700 C   0  0  0  0  0  1  0  0  0  0  0  0
  -25.5320  -36.3820   24.2380 C   0  0  0  0  0  3  0  0  0  0  0  0
  -27.6880  -37.1650   25.1090 C   0  0  0  0  0  1  0  0  0  0  0  0
  -26.5880  -37.4130   24.1820 N   0  0  0  0  0  0  0  0  0  0  0  0
  -26.2040  -38.3320   24.3820 H   0  0  0  0  0  0  0  0  0  0  0  0
  -26.4270  -31.6790   25.1600 C   0  0  1  0  0  0  0  0  0  0  0  0
  -25.3520  -31.3850   26.2330 C   0  0  0  0  0  1  0  0  0  0  0  0
  -26.9730  -30.3220   24.6580 C   0  0  0  0  0  1  0  0  0  0  0  0
  -27.6090  -32.4040   25.8480 C   0  0  0  0  0  1  0  0  0  0  0  0
  1  4  1  0
  2  4  2  0
  3  6  2  0
  3  5  1  0
  4  7  1  0
  5  1  2  0
  6  2  1  0
  9  5  1  0
  9  8  1  0
 10 13  1  0
 10 11  1  0
 10  9  1  0
 12 10  1  0
 14 15  1  0
 14 13  1  0
 15 16  1  0
 16 25  1  0
 17 25  1  0
 18 23  1  0
 19 20  1  0
 19 18  1  0
 21 20  1  0
 21 30  1  0
 21 22  1  0
 23 17  1  0
 23 22  1  0
 24 17  2  0
 25 26  1  0
 27 28  2  0
 28 47  1  0
 29 28  1  0
 29 32  1  0
 30 27  1  0
 30 31  1  0
 31 29  2  0
 32 33  1  0
 33 34  2  0
 35 38  1  0
 35 34  1  0
 36 35  2  0
 37 36  1  0
 37 32  2  0
 38 39  1  0
 39 44  2  0
 39 40  1  0
 40 41  2  0
 41 42  1  0
 42 46  1  0
 43 42  2  0
 44 43  1  0
 45 44  1  0
 47 48  1  0
 48 51  1  0
 48 50  1  0
 49 47  2  0
 52 53  1  0
 52 27  1  0
 54 52  1  0
 55  6  1  0
 56 67  2  0
 57 55  1  0
 57 62  1  0
 58 66  1  0
 58 68  1  0
 59 65  1  0
 59 61  1  0
 60 66  1  0
 61 60  1  0
 62 61  2  0
 63 64  1  0
 63 57  2  0
 64 59  2  0
 65 58  1  0
 66 56  1  0
 68 70  2  0
 69 68  1  0
 71 69  1  0
 72 81  2  0
 72 77  1  0
 73 69  1  0
 73 77  1  0
 74 73  1  0
 75 76  1  0
 75 74  1  0
 76 72  1  0
 77 78  2  0
 78 79  1  0
 80 79  2  0
 81 80  1  0
 82 56  1  0
 82 83  1  0
 82 92  1  0
 83 86  1  0
 84 88  1  0
 84 83  1  0
 85 84  2  0
 88 87  1  0
 90 88  1  0
 90 91  1  0
 90 89  1  0
 92 95  1  1
 92 93  1  0
 94 92  1  0
M  ISO  4   6 101  17 100  25 100  55 101
M  END
>  <TORSDO>  (62) 
F 22

>  <SCORE>  (62) 
-11.966

>  <name>  (62) 
61

>  <ligand_id>  (62) 
61

>  <original_smiles>  (62) 
[H]c1c([H])c([H])c2c(c1[H])C([H])([H])C([H])([H])C([H])([H])C2([H])N([H])C(=O)C1([H])N(C(=O)C([H])(N([H])C(=O)C([H])(N([H])C([H])([H])[H])C([H])([H])[H])C(C([H])([H])[H])(C([H])([H])[H])C([H])([H])[H])C([H])([H])c2c([H])c(Oc3c([H])c(C([H])([H])[H])c([H])c(C([H])(C([H])([H])[H])[N+]([H])([H])C([H])([H])C([H])([H])C([H])([H])C([H])([H])N([H])C(=O)N4C([H])([H])C([H])([H])C([H])([H])C([H])(n5nc(-c6c([H])c([H])c(Oc7c([H])c([H])c(F)c([H])c7F)c([H])c6[H])c(C(=O)N([H])[H])c5N([H])[H])C4([H])[H])c3[H])c([H])c([H])c2C1([H])[H]

>  <smiles>  (62) 
[H]c1c([H])c([H])c2c(c1[H])C([H])([H])C([H])([H])C([H])([H])C2([H])N([H])C(=O)C1([H])N(C(=O)C([H])(N([H])C(=O)C([H])(N([H])C([H])([H])[H])C([H])([H])[H])C(C([H])([H])[H])(C([H])([H])[H])C([H])([H])[H])C([H])([H])c2c([H])c(Oc3c([H])c(C([H])([H])[H])c([H])c(C([H])(C([H])([H])[H])[N+]([H])([H])C([H])([H])C([H])([H])C([H])([H])C([H])([H])N([H])C(=O)N4C([H])([H])C([H])([H])C([H])([H])C([H])(n5nc(-c6c([H])c([H])c(Oc7c([H])c([H])c(F)c([H])c7F)c([H])c6[H])c(C(=O)N([H])[H])c5N([H])[H])C4([H])[H])c3[H])c([H])c([H])c2C1([H])[H]

$$$$
62:0:0
     RDKit          3D

 94104  0  0  1  0  0  0  0  0999 V2000
  -30.8020  -23.4310   20.6490 C   0  0  0  0  0  2  0  0  0  0  0  0
  -31.4560  -18.5340   20.4830 C   0  0  0  0  0  2  0  0  0  0  0  0
  -30.2320  -24.6650   19.8650 C   0  0  0  0  0  2  0  0  0  0  0  0
  -31.5070  -20.0930   20.4160 C   0  0  0  0  0  2  0  0  0  0  0  0
  -27.6750  -21.8230   19.6300 C   0  0  0  0  0  2  0  0  0  0  0  0
  -29.9300  -22.2480   20.2360 C   0  0  0  0  0  3  0  0  0  0  0  0
  -28.5370  -23.0020   20.3120 C   0  0  0  0  0  3  0  0  0  0  0  0
  -29.1820  -19.4950   20.3710 C   0  0  0  0  0  3  0  0  0  0  0  0
  -30.0780  -18.0570   19.9810 C   0  0  0  0  0  3  0  0  0  0  0  0
  -28.6640  -24.6490   19.7700 C   0  0  0  0  0  3  0  0  0  0  0  0
  -28.2810  -20.3160   19.3130 C   0  0  0  0  0  3  0  0  0  0  0  0
  -30.1490  -20.7040   20.8550 C   0  0  1  0  0  0  0  0  0  0  0  0
  -30.1050  -20.7860   22.3960 C   0  0  0  0  0  1  0  0  0  0  0  0
  -30.5400  -15.2200   20.1250 C   0  0  0  0  0  0  0  0  0  0  0  0
  -30.3980  -12.8310   19.1940 C   0  0  0  0  0  2  0  0  0  0  0  0
  -29.4420  -12.7370   17.9810 C   0  0  0  0  0  2  0  0  0  0  0  0
  -27.9920  -12.5110   18.4440 C   0  0  0  0  0  2  0  0  0  0  0  0
  -27.6050  -13.4340   19.6270 C   0  0  0  0  0  3  0  0  0  0  0  0
  -28.6880  -13.4920   20.7280 C   0  0  0  0  0  2  0  0  0  0  0  0
  -29.9290  -13.9460   20.0850 N   0  0  0  0  0  0  0  0  0  0  0  0
  -31.7330  -15.2230   19.8040 O   0  0  0  0  0  0  0  0  0  0  0  0
  -29.8150  -16.4730   20.3140 N   0  0  0  0  0  0  0  0  0  0  0  0
  -28.8600  -16.2960   20.5890 H   0  0  0  0  0  0  0  0  0  0  0  0
  -25.2450  -14.0030   20.4170 C   0  0  0  0  0  0  0  0  0  0  0  0
  -24.1890  -13.2280   20.8070 C   0  0  0  0  0  0  0  0  0  0  0  0
  -24.6530  -11.8770   20.7690 C   0  0  0  0  0  0  0  0  0  0  0  0
  -26.2830  -13.1250   20.1570 N   0  0  0  0  0  0  0  0  0  0  0  0
  -25.9390  -11.8400   20.4360 N   0  0  0  0  0  0  0  0  0  0  0  0
  -23.9270  -10.6140   20.9700 C   0  0  0  0  0  0  0  0  0  0  0  0
  -24.3690   -9.6480   21.9000 C   0  0  0  0  0  3  0  0  0  0  0  0
  -23.6410   -8.4550   22.0940 C   0  0  0  0  0  3  0  0  0  0  0  0
  -22.4550   -8.2170   21.3570 C   0  0  0  0  0  0  0  0  0  0  0  0
  -22.0310   -9.1730   20.4160 C   0  0  0  0  0  3  0  0  0  0  0  0
  -22.7610  -10.3580   20.2210 C   0  0  0  0  0  3  0  0  0  0  0  0
  -21.6990   -7.0750   21.4590 O   0  0  0  0  0  0  0  0  0  0  0  0
  -21.6600   -6.3390   22.6150 C   0  0  0  0  0  0  0  0  0  0  0  0
  -21.2440   -6.9000   23.8420 C   0  0  0  0  0  3  0  0  0  0  0  0
  -21.1530   -6.0880   24.9920 C   0  0  0  0  0  3  0  0  0  0  0  0
  -21.4660   -4.7180   24.9150 C   0  0  0  0  0  0  0  0  0  0  0  0
  -21.8730   -4.1570   23.6920 C   0  0  0  0  0  3  0  0  0  0  0  0
  -21.9670   -4.9650   22.5450 C   0  0  0  0  0  0  0  0  0  0  0  0
  -22.3390   -4.4140   21.3650 F   0  0  0  0  0  0  0  0  0  0  0  0
  -21.3710   -3.9380   26.0170 F   0  0  0  0  0  0  0  0  0  0  0  0
  -22.7980  -13.7050   21.1010 C   0  0  0  0  0  0  0  0  0  0  0  0
  -22.0870  -13.0150   21.9850 N   0  0  0  0  0  0  0  0  0  0  0  0
  -22.3510  -14.7280   20.5810 O   0  0  0  0  0  0  0  0  0  0  0  0
  -22.4650  -12.1880   22.4240 H   0  0  0  0  0  0  0  0  0  0  0  0
  -21.1540  -13.3160   22.2260 H   0  0  0  0  0  0  0  0  0  0  0  0
  -25.4070  -15.3720   20.2340 N   0  0  0  0  0  0  0  0  0  0  0  0
  -24.6430  -16.0270   20.3620 H   0  0  0  0  0  0  0  0  0  0  0  0
  -26.2370  -15.8070   19.8570 H   0  0  0  0  0  0  0  0  0  0  0  0
  -27.2120  -18.9390   17.6850 C   0  0  0  0  0  1  0  0  0  0  0  0
  -27.1510  -19.5180   18.9820 O   0  0  0  0  0  0  0  0  0  0  0  0
  -28.3750  -26.1380   20.3090 O   0  0  0  0  0  0  0  0  0  0  0  0
  -24.6740  -31.8720   23.1850 C   0  0  0  0  0  0  0  0  0  0  0  0
  -27.3010  -27.1210   20.1420 C   0  0  0  0  0  0  0  0  0  0  0  0
  -23.4910  -30.4700   21.5370 C   0  0  0  0  0  3  0  0  0  0  0  0
  -24.9540  -28.8980   20.0960 C   0  0  0  0  0  0  0  0  0  0  0  0
  -26.0430  -30.7390   21.3800 C   0  0  0  0  0  2  0  0  0  0  0  0
  -26.1280  -29.3420   20.7180 C   0  0  0  0  0  0  0  0  0  0  0  0
  -27.2870  -28.4680   20.7240 C   0  0  0  0  0  3  0  0  0  0  0  0
  -26.1040  -26.8000   19.4650 C   0  0  0  0  0  3  0  0  0  0  0  0
  -24.9610  -27.6450   19.4540 C   0  0  0  0  0  3  0  0  0  0  0  0
  -23.7190  -29.7910   20.1560 C   0  0  0  0  0  2  0  0  0  0  0  0
  -24.7560  -31.0530   22.0880 N   0  0  0  0  0  0  0  0  0  0  0  0
  -23.5850  -32.1460   23.7130 O   0  0  0  0  0  0  0  0  0  0  0  0
  -22.8140  -29.4630   22.5000 C   0  0  0  0  0  0  0  0  0  0  0  0
  -21.4840  -29.2940   22.3830 N   0  0  0  0  0  0  0  0  0  0  0  0
  -23.4900  -28.8320   23.3170 O   0  0  0  0  0  0  0  0  0  0  0  0
  -20.9900  -29.8510   21.6990 H   0  0  0  0  0  0  0  0  0  0  0  0
  -18.1070  -28.0880   22.9090 C   0  0  0  0  0  0  0  0  0  0  0  0
  -20.6710  -28.3490   23.1530 C   0  0  0  0  0  3  0  0  0  0  0  0
  -20.7660  -26.9240   22.5600 C   0  0  0  0  0  2  0  0  0  0  0  0
  -19.6540  -26.6160   21.5530 C   0  0  0  0  0  2  0  0  0  0  0  0
  -18.2780  -26.7510   22.2100 C   0  0  0  0  0  2  0  0  0  0  0  0
  -19.2300  -28.8450   23.3380 C   0  0  0  0  0  0  0  0  0  0  0  0
  -19.0130  -30.0970   23.9530 C   0  0  0  0  0  3  0  0  0  0  0  0
  -17.7080  -30.5930   24.1430 C   0  0  0  0  0  3  0  0  0  0  0  0
  -16.6010  -29.8310   23.7290 C   0  0  0  0  0  3  0  0  0  0  0  0
  -16.8020  -28.5810   23.1180 C   0  0  0  0  0  3  0  0  0  0  0  0
  -25.9420  -32.5190   23.8210 C   0  0  0  0  0  3  0  0  0  0  0  0
  -25.6160  -33.9150   24.1660 N   0  0  0  0  0  0  0  0  0  0  0  0
  -25.9330  -34.9820   23.4210 C   0  0  0  0  0  0  0  0  0  0  0  0
  -26.5930  -34.8960   22.3820 O   0  0  0  0  0  0  0  0  0  0  0  0
  -25.0260  -34.0530   24.9740 H   0  0  0  0  0  0  0  0  0  0  0  0
  -24.1740  -36.7550   23.1200 C   0  0  0  0  0  1  0  0  0  0  0  0
  -25.4390  -36.3610   23.9020 C   0  0  0  0  0  3  0  0  0  0  0  0
  -27.5820  -37.2660   24.6920 C   0  0  0  0  0  1  0  0  0  0  0  0
  -26.4570  -37.4270   23.7720 N   0  0  0  0  0  0  0  0  0  0  0  0
  -26.0440  -38.3430   23.9360 H   0  0  0  0  0  0  0  0  0  0  0  0
  -26.4550  -31.7500   25.0990 C   0  0  1  0  0  0  0  0  0  0  0  0
  -25.3580  -31.5060   26.1610 C   0  0  0  0  0  1  0  0  0  0  0  0
  -27.0470  -30.3760   24.7100 C   0  0  0  0  0  1  0  0  0  0  0  0
  -27.6010  -32.5460   25.7660 C   0  0  0  0  0  1  0  0  0  0  0  0
  3  1  1  0
  4  2  1  0
  4 12  1  0
  6  7  1  0
  6  1  1  0
  6 12  1  0
  7  5  1  0
  8 12  1  0
  9 22  1  0
  9  8  1  0
  9  2  1  0
 10  3  1  0
 10 54  1  0
 10  7  1  0
 11  5  1  0
 11  8  1  0
 12 13  1  1
 14 22  1  0
 15 20  1  0
 16 17  1  0
 16 15  1  0
 17 18  1  0
 18 27  1  0
 18 19  1  0
 20 14  1  0
 20 19  1  0
 21 14  2  0
 22 23  1  0
 24 25  2  0
 25 44  1  0
 26 25  1  0
 26 29  1  0
 27 24  1  0
 27 28  1  0
 28 26  2  0
 29 30  1  0
 30 31  2  0
 32 35  1  0
 32 31  1  0
 33 32  2  0
 34 33  1  0
 34 29  2  0
 35 36  1  0
 36 37  1  0
 37 38  2  0
 39 38  1  0
 39 43  1  0
 40 39  2  0
 41 36  2  0
 41 40  1  0
 42 41  1  0
 44 45  1  0
 45 48  1  0
 45 47  1  0
 46 44  2  0
 49 50  1  0
 49 24  1  0
 51 49  1  0
 52 53  1  0
 53 11  1  0
 55 66  2  0
 55 81  1  0
 56 54  1  0
 56 61  1  0
 57 65  1  0
 57 67  1  0
 58 64  1  0
 58 60  1  0
 59 65  1  0
 60 61  2  0
 60 59  1  0
 62 56  2  0
 63 62  1  0
 63 58  2  0
 64 57  1  0
 65 55  1  0
 67 69  2  0
 68 67  1  0
 68 72  1  0
 70 68  1  0
 71 80  2  0
 71 76  1  0
 72 76  1  0
 73 72  1  0
 74 75  1  0
 74 73  1  0
 75 71  1  0
 76 77  2  0
 77 78  1  0
 79 78  2  0
 80 79  1  0
 81 82  1  0
 81 91  1  0
 82 85  1  0
 83 87  1  0
 83 82  1  0
 84 83  2  0
 86 87  1  0
 89 87  1  0
 89 90  1  0
 89 88  1  0
 91 94  1  1
 91 92  1  0
 93 91  1  0
M  ISO  4  10 101  14 100  22 100  54 101
M  END
>  <TORSDO>  (63) 
F 17

>  <SCORE>  (63) 
-15.120

>  <name>  (63) 
62

>  <ligand_id>  (63) 
62

>  <original_smiles>  (63) 
[H]c1c([H])c([H])c2c(c1[H])C([H])([H])C([H])([H])C([H])([H])C2([H])N([H])C(=O)C1([H])N(C(=O)C([H])(N([H])C(=O)C([H])(N([H])C([H])([H])[H])C([H])([H])[H])C(C([H])([H])[H])(C([H])([H])[H])C([H])([H])[H])C([H])([H])c2c([H])c(OC3([H])C([H])([H])C([H])([H])C4([H])C3([H])C([H])([H])C([H])(OC([H])([H])[H])C3([H])C([H])(N([H])C(=O)N5C([H])([H])C([H])([H])C([H])([H])C([H])(n6nc(-c7c([H])c([H])c(Oc8c([H])c([H])c(F)c([H])c8F)c([H])c7[H])c(C(=O)N([H])[H])c6N([H])[H])C5([H])[H])C([H])([H])C([H])([H])C34C([H])([H])[H])c([H])c([H])c2C1([H])[H]

>  <smiles>  (63) 
[H]c1c([H])c([H])c2c(c1[H])C([H])([H])C([H])([H])C([H])([H])C2([H])N([H])C(=O)C1([H])N(C(=O)C([H])(N([H])C(=O)C([H])(N([H])C([H])([H])[H])C([H])([H])[H])C(C([H])([H])[H])(C([H])([H])[H])C([H])([H])[H])C([H])([H])c2c([H])c(OC3([H])C([H])([H])C([H])([H])C4([H])C3([H])C([H])([H])C([H])(OC([H])([H])[H])C3([H])C([H])(N([H])C(=O)N5C([H])([H])C([H])([H])C([H])([H])C([H])(n6nc(-c7c([H])c([H])c(Oc8c([H])c([H])c(F)c([H])c8F)c([H])c7[H])c(C(=O)N([H])[H])c6N([H])[H])C5([H])[H])C([H])([H])C([H])([H])C34C([H])([H])[H])c([H])c([H])c2C1([H])[H]

$$$$
63:0:0
     RDKit          3D

 93102  0  0  1  0  0  0  0  0999 V2000
  -29.9870  -24.3910   17.6470 C   0  0  0  0  0  2  0  0  0  0  0  0
  -30.5450  -23.3670   18.6490 C   0  0  0  0  0  2  0  0  0  0  0  0
  -29.6130  -25.7160   18.3320 C   0  0  0  0  0  2  0  0  0  0  0  0
  -29.2490  -24.4800   20.5170 C   0  0  0  0  0  2  0  0  0  0  0  0
  -29.5670  -23.1300   19.8240 C   0  0  0  0  0  3  0  0  0  0  0  0
  -28.6480  -25.4890   19.5070 C   0  0  0  0  0  3  0  0  0  0  0  0
  -30.0830  -22.0890   20.7550 N   0  0  0  0  0  4  0  0  0  0  0  0
  -29.7080  -22.2600   21.6750 H   0  0  0  0  0  0  0  0  0  0  0  0
  -31.0860  -22.1640   20.8160 H   0  0  0  0  0  0  0  0  0  0  0  0
  -29.6980  -20.7090   20.3640 C   0  0  0  0  0  2  0  0  0  0  0  0
  -30.4530  -19.5710   21.0980 C   0  0  0  0  0  2  0  0  0  0  0  0
  -29.3160  -16.3620   19.3330 C   0  0  0  0  0  2  0  0  0  0  0  0
  -29.7110  -17.8360   19.3370 C   0  0  0  0  0  2  0  0  0  0  0  0
  -30.4800  -16.9400   21.4050 C   0  0  0  0  0  2  0  0  0  0  0  0
  -29.7700  -15.7590   20.6900 C   0  0  0  0  0  3  0  0  0  0  0  0
  -29.8010  -18.1950   20.8170 C   0  0  0  0  0  3  0  0  0  0  0  0
  -30.6120  -14.4760   20.4490 C   0  0  0  0  0  0  0  0  0  0  0  0
  -30.3550  -12.2910   19.3560 C   0  0  0  0  0  2  0  0  0  0  0  0
  -29.4140  -12.5030   18.1480 C   0  0  0  0  0  2  0  0  0  0  0  0
  -27.9350  -12.3690   18.5670 C   0  0  0  0  0  2  0  0  0  0  0  0
  -27.5940  -13.1990   19.8320 C   0  0  0  0  0  3  0  0  0  0  0  0
  -28.6500  -12.9700   20.9380 C   0  0  0  0  0  2  0  0  0  0  0  0
  -29.9790  -13.2720   20.3840 N   0  0  0  0  0  0  0  0  0  0  0  0
  -31.7810  -14.6220   20.0820 O   0  0  0  0  0  0  0  0  0  0  0  0
  -25.1950  -13.8270   20.5260 C   0  0  0  0  0  0  0  0  0  0  0  0
  -24.1220  -13.0610   20.8950 C   0  0  0  0  0  0  0  0  0  0  0  0
  -24.5810  -11.7090   20.8760 C   0  0  0  0  0  0  0  0  0  0  0  0
  -26.2390  -12.9380   20.3070 N   0  0  0  0  0  0  0  0  0  0  0  0
  -25.8700  -11.6610   20.5740 N   0  0  0  0  0  0  0  0  0  0  0  0
  -23.8520  -10.4500   21.0720 C   0  0  0  0  0  0  0  0  0  0  0  0
  -24.2970   -9.4760   21.9930 C   0  0  0  0  0  3  0  0  0  0  0  0
  -23.5690   -8.2810   22.1760 C   0  0  0  0  0  3  0  0  0  0  0  0
  -22.3820   -8.0510   21.4370 C   0  0  0  0  0  0  0  0  0  0  0  0
  -21.9590   -9.0140   20.5050 C   0  0  0  0  0  3  0  0  0  0  0  0
  -22.6870  -10.2010   20.3210 C   0  0  0  0  0  3  0  0  0  0  0  0
  -21.6270   -6.9070   21.5310 O   0  0  0  0  0  0  0  0  0  0  0  0
  -21.6120   -6.1470   22.6730 C   0  0  0  0  0  0  0  0  0  0  0  0
  -21.2450   -6.6870   23.9240 C   0  0  0  0  0  3  0  0  0  0  0  0
  -21.1760   -5.8520   25.0570 C   0  0  0  0  0  3  0  0  0  0  0  0
  -21.4630   -4.4790   24.9400 C   0  0  0  0  0  0  0  0  0  0  0  0
  -21.8240   -3.9380   23.6940 C   0  0  0  0  0  3  0  0  0  0  0  0
  -21.8950   -4.7690   22.5620 C   0  0  0  0  0  0  0  0  0  0  0  0
  -22.2230   -4.2400   21.3590 F   0  0  0  0  0  0  0  0  0  0  0  0
  -21.3890   -3.6750   26.0270 F   0  0  0  0  0  0  0  0  0  0  0  0
  -22.7240  -13.5430   21.1600 C   0  0  0  0  0  0  0  0  0  0  0  0
  -21.9940  -12.8520   22.0280 N   0  0  0  0  0  0  0  0  0  0  0  0
  -22.2880  -14.5660   20.6310 O   0  0  0  0  0  0  0  0  0  0  0  0
  -22.3600  -12.0240   22.4740 H   0  0  0  0  0  0  0  0  0  0  0  0
  -21.0560  -13.1550   22.2490 H   0  0  0  0  0  0  0  0  0  0  0  0
  -25.3660  -15.1960   20.3410 N   0  0  0  0  0  0  0  0  0  0  0  0
  -24.6050  -15.8590   20.4440 H   0  0  0  0  0  0  0  0  0  0  0  0
  -26.2280  -15.6310   20.0370 H   0  0  0  0  0  0  0  0  0  0  0  0
  -28.4390  -26.7560   20.1440 O   0  0  0  0  0  0  0  0  0  0  0  0
  -24.6170  -31.8710   23.2250 C   0  0  0  0  0  0  0  0  0  0  0  0
  -27.2270  -27.4260   20.1070 C   0  0  0  0  0  0  0  0  0  0  0  0
  -23.3900  -30.4730   21.5960 C   0  0  0  0  0  3  0  0  0  0  0  0
  -24.8220  -28.9330   20.1540 C   0  0  0  0  0  0  0  0  0  0  0  0
  -25.9130  -30.8250   21.3710 C   0  0  0  0  0  2  0  0  0  0  0  0
  -25.9860  -29.4540   20.7290 C   0  0  0  0  0  0  0  0  0  0  0  0
  -27.1830  -28.7050   20.7080 C   0  0  0  0  0  3  0  0  0  0  0  0
  -26.0370  -26.9190   19.5260 C   0  0  0  0  0  3  0  0  0  0  0  0
  -24.8420  -27.6640   19.5540 C   0  0  0  0  0  3  0  0  0  0  0  0
  -23.5820  -29.7940   20.2140 C   0  0  0  0  0  2  0  0  0  0  0  0
  -24.6590  -31.0710   22.1220 N   0  0  0  0  0  0  0  0  0  0  0  0
  -23.5430  -32.1470   23.7750 O   0  0  0  0  0  0  0  0  0  0  0  0
  -22.7470  -29.4530   22.5630 C   0  0  0  0  0  0  0  0  0  0  0  0
  -21.4210  -29.2710   22.4450 N   0  0  0  0  0  0  0  0  0  0  0  0
  -23.4370  -28.8280   23.3730 O   0  0  0  0  0  0  0  0  0  0  0  0
  -20.9270  -29.8280   21.7620 H   0  0  0  0  0  0  0  0  0  0  0  0
  -18.0520  -28.0700   22.9550 C   0  0  0  0  0  0  0  0  0  0  0  0
  -20.6100  -28.3350   23.2220 C   0  0  0  0  0  3  0  0  0  0  0  0
  -20.7160  -26.9030   22.6520 C   0  0  0  0  0  2  0  0  0  0  0  0
  -19.6120  -26.5720   21.6420 C   0  0  0  0  0  2  0  0  0  0  0  0
  -18.2310  -26.7180   22.2880 C   0  0  0  0  0  2  0  0  0  0  0  0
  -19.1700  -28.8380   23.3800 C   0  0  0  0  0  0  0  0  0  0  0  0
  -18.9500  -30.1050   23.9620 C   0  0  0  0  0  3  0  0  0  0  0  0
  -17.6440  -30.6050   24.1270 C   0  0  0  0  0  3  0  0  0  0  0  0
  -16.5410  -29.8350   23.7190 C   0  0  0  0  0  3  0  0  0  0  0  0
  -16.7460  -28.5690   23.1390 C   0  0  0  0  0  3  0  0  0  0  0  0
  -25.9120  -32.4980   23.8310 C   0  0  0  0  0  3  0  0  0  0  0  0
  -26.4530  -31.7120   25.0900 C   0  0  1  0  0  0  0  0  0  0  0  0
  -25.3780  -31.4600   26.1720 C   0  0  0  0  0  1  0  0  0  0  0  0
  -27.0310  -30.3410   24.6690 C   0  0  0  0  0  1  0  0  0  0  0  0
  -27.6130  -32.5000   25.7420 C   0  0  0  0  0  1  0  0  0  0  0  0
  -25.6090  -33.8920   24.1780 N   0  0  0  0  0  0  0  0  0  0  0  0
  -25.9280  -34.9500   23.4210 C   0  0  0  0  0  0  0  0  0  0  0  0
  -26.5800  -34.8550   22.3770 O   0  0  0  0  0  0  0  0  0  0  0  0
  -25.0290  -34.0420   24.9910 H   0  0  0  0  0  0  0  0  0  0  0  0
  -24.1870  -36.7380   23.1110 C   0  0  0  0  0  1  0  0  0  0  0  0
  -25.4450  -36.3330   23.8970 C   0  0  0  0  0  3  0  0  0  0  0  0
  -27.5940  -37.2170   24.6900 C   0  0  0  0  0  1  0  0  0  0  0  0
  -26.4710  -37.3900   23.7710 N   0  0  0  0  0  0  0  0  0  0  0  0
  -26.0660  -38.3080   23.9360 H   0  0  0  0  0  0  0  0  0  0  0  0
  1  3  1  0
  1  2  1  0
  2  5  1  0
  3  6  1  0
  5  4  1  0
  5  7  1  0
  6 53  1  0
  6  4  1  0
  7  9  1  0
  7  8  1  0
 10  7  1  0
 10 11  1  0
 12 13  1  0
 12 15  1  0
 13 16  1  0
 15 17  1  0
 15 14  1  0
 16 11  1  0
 16 14  1  0
 18 23  1  0
 19 20  1  0
 19 18  1  0
 21 20  1  0
 21 28  1  0
 21 22  1  0
 23 17  1  0
 23 22  1  0
 24 17  2  0
 25 26  2  0
 26 45  1  0
 27 26  1  0
 27 30  1  0
 28 25  1  0
 28 29  1  0
 29 27  2  0
 30 31  1  0
 31 32  2  0
 33 36  1  0
 33 32  1  0
 34 33  2  0
 35 34  1  0
 35 30  2  0
 36 37  1  0
 37 38  1  0
 38 39  2  0
 40 39  1  0
 40 44  1  0
 41 40  2  0
 42 37  2  0
 42 41  1  0
 43 42  1  0
 45 46  1  0
 46 49  1  0
 46 48  1  0
 47 45  2  0
 50 51  1  0
 50 25  1  0
 52 50  1  0
 54 65  2  0
 55 53  1  0
 55 60  1  0
 56 64  1  0
 56 66  1  0
 57 63  1  0
 57 59  1  0
 58 64  1  0
 59 58  1  0
 60 59  2  0
 61 62  1  0
 61 55  2  0
 62 57  2  0
 63 56  1  0
 64 54  1  0
 66 68  2  0
 67 66  1  0
 69 67  1  0
 70 79  2  0
 70 75  1  0
 71 67  1  0
 71 75  1  0
 72 71  1  0
 73 74  1  0
 73 72  1  0
 74 70  1  0
 75 76  2  0
 76 77  1  0
 78 77  2  0
 79 78  1  0
 80 54  1  0
 80 85  1  0
 80 81  1  0
 81 84  1  1
 81 82  1  0
 83 81  1  0
 85 88  1  0
 86 90  1  0
 86 85  1  0
 87 86  2  0
 90 89  1  0
 92 90  1  0
 92 93  1  0
 92 91  1  0
M  ISO  4   6 101  15 100  17 100  53 101
M  END
>  <TORSDO>  (64) 
F 20

>  <SCORE>  (64) 
-13.894

>  <name>  (64) 
63

>  <ligand_id>  (64) 
63

>  <original_smiles>  (64) 
[H]c1c([H])c([H])c2c(c1[H])C([H])([H])C([H])([H])C([H])([H])C2([H])N([H])C(=O)C1([H])N(C(=O)C([H])(N([H])C(=O)C([H])(N([H])C([H])([H])[H])C([H])([H])[H])C(C([H])([H])[H])(C([H])([H])[H])C([H])([H])[H])C([H])([H])c2c([H])c(OC3([H])C([H])([H])C([H])([H])C([H])([H])C([H])([N+]([H])([H])C([H])([H])C([H])([H])C4([H])C([H])([H])C([H])([H])C([H])(C(=O)N5C([H])([H])C([H])([H])C([H])([H])C([H])(n6nc(-c7c([H])c([H])c(Oc8c([H])c([H])c(F)c([H])c8F)c([H])c7[H])c(C(=O)N([H])[H])c6N([H])[H])C5([H])[H])C4([H])[H])C3([H])[H])c([H])c([H])c2C1([H])[H]

>  <smiles>  (64) 
[H]c1c([H])c([H])c2c(c1[H])C([H])([H])C([H])([H])C([H])([H])C2([H])N([H])C(=O)C1([H])N(C(=O)C([H])(N([H])C(=O)C([H])(N([H])C([H])([H])[H])C([H])([H])[H])C(C([H])([H])[H])(C([H])([H])[H])C([H])([H])[H])C([H])([H])c2c([H])c(OC3([H])C([H])([H])C([H])([H])C([H])([H])C([H])([N+]([H])([H])C([H])([H])C([H])([H])C4([H])C([H])([H])C([H])([H])C([H])(C(=O)N5C([H])([H])C([H])([H])C([H])([H])C([H])(n6nc(-c7c([H])c([H])c(Oc8c([H])c([H])c(F)c([H])c8F)c([H])c7[H])c(C(=O)N([H])[H])c6N([H])[H])C5([H])[H])C4([H])[H])C3([H])[H])c([H])c([H])c2C1([H])[H]

$$$$
64:0:0
     RDKit          3D

 89 98  0  0  1  0  0  0  0  0999 V2000
  -30.7490  -20.9080   17.8860 C   0  0  0  0  0  3  0  0  0  0  0  0
  -31.0220  -19.6060   18.4280 C   0  0  0  0  0  3  0  0  0  0  0  0
  -30.2030  -22.0300   18.6100 C   0  0  0  0  0  3  0  0  0  0  0  0
  -30.7220  -19.2580   19.7870 C   0  0  0  0  0  0  0  0  0  0  0  0
  -30.0890  -20.4900   20.4960 C   0  0  0  0  0  0  0  0  0  0  0  0
  -29.8170  -22.0420   19.9960 C   0  0  0  0  0  0  0  0  0  0  0  0
  -29.7540  -19.7380   21.8400 C   0  0  0  0  0  2  0  0  0  0  0  0
  -30.1070  -18.1140   21.8460 C   0  0  0  0  0  3  0  0  0  0  0  0
  -31.0820  -17.6790   20.5950 C   0  0  2  0  0  0  0  0  0  0  0  0
  -30.5170  -17.7030   23.3270 C   0  0  0  0  0  1  0  0  0  0  0  0
  -32.5240  -17.9460   21.2060 C   0  0  0  0  0  1  0  0  0  0  0  0
  -31.4300  -15.8620   20.0160 C   0  0  0  0  0  0  0  0  0  0  0  0
  -31.2970  -13.3150   19.0670 C   0  0  0  0  0  2  0  0  0  0  0  0
  -30.3670  -13.0290   17.8430 C   0  0  0  0  0  2  0  0  0  0  0  0
  -28.9430  -12.7060   18.3150 C   0  0  0  0  0  2  0  0  0  0  0  0
  -28.5310  -13.6590   19.4570 C   0  0  0  0  0  3  0  0  0  0  0  0
  -29.6040  -13.9120   20.5520 C   0  0  0  0  0  2  0  0  0  0  0  0
  -30.8010  -14.5200   19.9130 N   0  0  0  0  0  0  0  0  0  0  0  0
  -32.5920  -15.6540   19.6030 O   0  0  0  0  0  0  0  0  0  0  0  0
  -26.2230  -14.2680   20.3080 C   0  0  0  0  0  0  0  0  0  0  0  0
  -25.1500  -13.5380   20.7070 C   0  0  0  0  0  0  0  0  0  0  0  0
  -25.5460  -12.1620   20.6240 C   0  0  0  0  0  0  0  0  0  0  0  0
  -27.2170  -13.3560   20.0080 N   0  0  0  0  0  0  0  0  0  0  0  0
  -26.8210  -12.0770   20.2510 N   0  0  0  0  0  0  0  0  0  0  0  0
  -24.7670  -10.9320   20.8150 C   0  0  0  0  0  0  0  0  0  0  0  0
  -25.1210   -9.9770   21.7920 C   0  0  0  0  0  3  0  0  0  0  0  0
  -24.3420   -8.8140   21.9720 C   0  0  0  0  0  3  0  0  0  0  0  0
  -23.1940   -8.5950   21.1740 C   0  0  0  0  0  0  0  0  0  0  0  0
  -22.8610   -9.5380   20.1840 C   0  0  0  0  0  3  0  0  0  0  0  0
  -23.6390  -10.6940   20.0050 C   0  0  0  0  0  3  0  0  0  0  0  0
  -22.3920   -7.4810   21.2530 O   0  0  0  0  0  0  0  0  0  0  0  0
  -22.1250   -6.8720   22.4570 C   0  0  0  0  0  0  0  0  0  0  0  0
  -21.5170   -7.5660   23.5270 C   0  0  0  0  0  3  0  0  0  0  0  0
  -21.2040   -6.8860   24.7220 C   0  0  0  0  0  3  0  0  0  0  0  0
  -21.4740   -5.5110   24.8410 C   0  0  0  0  0  0  0  0  0  0  0  0
  -22.0710   -4.8160   23.7770 C   0  0  0  0  0  3  0  0  0  0  0  0
  -22.3930   -5.4940   22.5880 C   0  0  0  0  0  0  0  0  0  0  0  0
  -22.9480   -4.8130   21.5570 F   0  0  0  0  0  0  0  0  0  0  0  0
  -21.1650   -4.8600   25.9850 F   0  0  0  0  0  0  0  0  0  0  0  0
  -23.7900  -14.0690   21.0480 C   0  0  0  0  0  0  0  0  0  0  0  0
  -23.0780  -13.4160   21.9520 N   0  0  0  0  0  0  0  0  0  0  0  0
  -23.3740  -15.1170   20.5440 O   0  0  0  0  0  0  0  0  0  0  0  0
  -23.4280  -12.5770   22.3900 H   0  0  0  0  0  0  0  0  0  0  0  0
  -22.1670  -13.7690   22.2210 H   0  0  0  0  0  0  0  0  0  0  0  0
  -26.4600  -15.6350   20.1370 N   0  0  0  0  0  0  0  0  0  0  0  0
  -25.7340  -16.3380   20.1910 H   0  0  0  0  0  0  0  0  0  0  0  0
  -27.3050  -15.9770   19.6990 H   0  0  0  0  0  0  0  0  0  0  0  0
  -29.0500  -23.6800   20.6020 C   0  0  0  0  0  2  0  0  0  0  0  0
  -29.0930  -25.4590   20.2950 O   0  0  0  0  0  0  0  0  0  0  0  0
  -25.0300  -31.5950   23.1000 C   0  0  0  0  0  0  0  0  0  0  0  0
  -28.0330  -26.6280   20.2540 C   0  0  0  0  0  0  0  0  0  0  0  0
  -24.0170  -30.1160   21.4220 C   0  0  0  0  0  3  0  0  0  0  0  0
  -25.6350  -28.5520   20.0850 C   0  0  0  0  0  0  0  0  0  0  0  0
  -26.5900  -30.4090   21.4220 C   0  0  0  0  0  2  0  0  0  0  0  0
  -26.7810  -28.9760   20.7740 C   0  0  0  0  0  0  0  0  0  0  0  0
  -27.9630  -28.0480   20.8130 C   0  0  0  0  0  3  0  0  0  0  0  0
  -26.8330  -26.4280   19.5150 C   0  0  0  0  0  3  0  0  0  0  0  0
  -25.7030  -27.3060   19.4380 C   0  0  0  0  0  3  0  0  0  0  0  0
  -24.3690  -29.4290   20.0680 C   0  0  0  0  0  2  0  0  0  0  0  0
  -25.2320  -30.7440   22.0330 N   0  0  0  0  0  0  0  0  0  0  0  0
  -23.8960  -31.8240   23.5540 O   0  0  0  0  0  0  0  0  0  0  0  0
  -23.3210  -29.0960   22.3630 C   0  0  0  0  0  0  0  0  0  0  0  0
  -22.0050  -28.8670   22.1910 N   0  0  0  0  0  0  0  0  0  0  0  0
  -23.9800  -28.5140   23.2270 O   0  0  0  0  0  0  0  0  0  0  0  0
  -21.5170  -29.3960   21.4840 H   0  0  0  0  0  0  0  0  0  0  0  0
  -18.6850  -27.4340   22.5750 C   0  0  0  0  0  0  0  0  0  0  0  0
  -21.2110  -27.8790   22.9320 C   0  0  0  0  0  3  0  0  0  0  0  0
  -21.4270  -26.4550   22.3680 C   0  0  0  0  0  2  0  0  0  0  0  0
  -20.3900  -26.0570   21.3140 C   0  0  0  0  0  2  0  0  0  0  0  0
  -18.9780  -26.1040   21.9030 C   0  0  0  0  0  2  0  0  0  0  0  0
  -19.7310  -28.2750   23.0410 C   0  0  0  0  0  0  0  0  0  0  0  0
  -19.3970  -29.5160   23.6290 C   0  0  0  0  0  3  0  0  0  0  0  0
  -18.0520  -29.9150   23.7570 C   0  0  0  0  0  3  0  0  0  0  0  0
  -17.0230  -29.0710   23.3050 C   0  0  0  0  0  3  0  0  0  0  0  0
  -17.3400  -27.8330   22.7180 C   0  0  0  0  0  3  0  0  0  0  0  0
  -26.2150  -32.3320   23.8010 C   0  0  0  0  0  3  0  0  0  0  0  0
  -25.7680  -33.6910   24.1630 N   0  0  0  0  0  0  0  0  0  0  0  0
  -25.9970  -34.8020   23.4510 C   0  0  0  0  0  0  0  0  0  0  0  0
  -26.6680  -34.7950   22.4170 O   0  0  0  0  0  0  0  0  0  0  0  0
  -25.1810  -33.7690   24.9810 H   0  0  0  0  0  0  0  0  0  0  0  0
  -24.1000  -36.4380   23.1900 C   0  0  0  0  0  1  0  0  0  0  0  0
  -25.3910  -36.1270   23.9600 C   0  0  0  0  0  3  0  0  0  0  0  0
  -27.4400  -37.2010   24.7830 C   0  0  0  0  0  1  0  0  0  0  0  0
  -26.3140  -37.2770   23.8600 N   0  0  0  0  0  0  0  0  0  0  0  0
  -25.8210  -38.1510   24.0360 H   0  0  0  0  0  0  0  0  0  0  0  0
  -26.7400  -31.5860   25.0920 C   0  0  1  0  0  0  0  0  0  0  0  0
  -25.6260  -31.2510   26.1140 C   0  0  0  0  0  1  0  0  0  0  0  0
  -27.4440  -30.2620   24.7200 C   0  0  0  0  0  1  0  0  0  0  0  0
  -27.7980  -32.4600   25.8060 C   0  0  0  0  0  1  0  0  0  0  0  0
  1  2  2  0
  1  3  1  0
  2  4  1  0
  3  6  2  0
  4  5  2  0
  4  9  1  0
  5  7  1  0
  6  5  1  0
  6 48  1  0
  7  8  1  0
  8 10  1  0
  9 11  1  1
  9  8  1  0
 12  9  1  0
 13 18  1  0
 14 15  1  0
 14 13  1  0
 16 15  1  0
 16 23  1  0
 16 17  1  0
 18 12  1  0
 18 17  1  0
 19 12  2  0
 20 21  2  0
 21 40  1  0
 22 21  1  0
 22 25  1  0
 23 24  1  0
 23 20  1  0
 24 22  2  0
 25 26  1  0
 26 27  2  0
 28 31  1  0
 28 27  1  0
 29 28  2  0
 30 29  1  0
 30 25  2  0
 31 32  1  0
 32 37  2  0
 32 33  1  0
 33 34  2  0
 34 35  1  0
 35 39  1  0
 36 35  2  0
 37 36  1  0
 38 37  1  0
 40 41  1  0
 41 44  1  0
 41 43  1  0
 42 40  2  0
 45 46  1  0
 45 20  1  0
 47 45  1  0
 49 48  1  0
 50 61  2  0
 51 49  1  0
 51 56  1  0
 52 60  1  0
 52 62  1  0
 53 55  1  0
 54 60  1  0
 55 56  2  0
 55 54  1  0
 57 51  2  0
 58 57  1  0
 58 53  2  0
 59 53  1  0
 59 52  1  0
 60 50  1  0
 62 64  2  0
 63 62  1  0
 65 63  1  0
 66 75  2  0
 66 71  1  0
 67 63  1  0
 67 71  1  0
 68 67  1  0
 69 70  1  0
 69 68  1  0
 70 66  1  0
 71 72  2  0
 72 73  1  0
 74 73  2  0
 75 74  1  0
 76 50  1  0
 76 77  1  0
 76 86  1  0
 77 80  1  0
 78 82  1  0
 78 77  1  0
 79 78  2  0
 82 81  1  0
 84 82  1  0
 84 85  1  0
 84 83  1  0
 86 89  1  1
 86 87  1  0
 88 86  1  0
M  ISO  4   9 100  12 100  48 101  49 101
M  END
>  <TORSDO>  (65) 
F 17

>  <SCORE>  (65) 
-12.567

>  <name>  (65) 
64

>  <ligand_id>  (65) 
64

>  <original_smiles>  (65) 
[H]c1c([H])c([H])c2c(c1[H])C([H])([H])C([H])([H])C([H])([H])C2([H])N([H])C(=O)C1([H])N(C(=O)C([H])(N([H])C(=O)C([H])(N([H])C([H])([H])[H])C([H])([H])[H])C(C([H])([H])[H])(C([H])([H])[H])C([H])([H])[H])C([H])([H])c2c([H])c(OC([H])([H])c3c([H])c([H])c([H])c4c3C([H])([H])C([H])(C([H])([H])[H])C4(C(=O)N3C([H])([H])C([H])([H])C([H])([H])C([H])(n4nc(-c5c([H])c([H])c(Oc6c([H])c([H])c(F)c([H])c6F)c([H])c5[H])c(C(=O)N([H])[H])c4N([H])[H])C3([H])[H])C([H])([H])[H])c([H])c([H])c2C1([H])[H]

>  <smiles>  (65) 
[H]c1c([H])c([H])c2c(c1[H])C([H])([H])C([H])([H])C([H])([H])C2([H])N([H])C(=O)C1([H])N(C(=O)C([H])(N([H])C(=O)C([H])(N([H])C([H])([H])[H])C([H])([H])[H])C(C([H])([H])[H])(C([H])([H])[H])C([H])([H])[H])C([H])([H])c2c([H])c(OC([H])([H])c3c([H])c([H])c([H])c4c3C([H])([H])C([H])(C([H])([H])[H])C4(C(=O)N3C([H])([H])C([H])([H])C([H])([H])C([H])(n4nc(-c5c([H])c([H])c(Oc6c([H])c([H])c(F)c([H])c6F)c([H])c5[H])c(C(=O)N([H])[H])c4N([H])[H])C3([H])[H])C([H])([H])[H])c([H])c([H])c2C1([H])[H]

$$$$
65:0:0
     RDKit          3D

 93101  0  0  1  0  0  0  0  0999 V2000
  -31.1890  -18.5990   21.7870 C   0  0  0  0  0  2  0  0  0  0  0  0
  -30.0210  -20.8780   21.8350 C   0  0  0  0  0  2  0  0  0  0  0  0
  -29.9510  -19.4630   19.6450 C   0  0  0  0  0  2  0  0  0  0  0  0
  -30.1280  -19.4800   22.5030 C   0  0  0  0  0  3  0  0  0  0  0  0
  -30.8160  -18.1840   20.3450 C   0  0  0  0  0  3  0  0  0  0  0  0
  -29.4000  -20.8670   20.4230 C   0  0  0  0  0  3  0  0  0  0  0  0
  -31.2890  -15.4420   20.5430 C   0  0  0  0  0  0  0  0  0  0  0  0
  -31.2840  -12.9410   20.0920 C   0  0  0  0  0  2  0  0  0  0  0  0
  -30.5300  -12.6070   18.7840 C   0  0  0  0  0  2  0  0  0  0  0  0
  -29.0180  -12.4640   19.0460 C   0  0  0  0  0  2  0  0  0  0  0  0
  -28.4590  -13.6100   19.9290 C   0  0  0  0  0  3  0  0  0  0  0  0
  -29.3470  -13.8860   21.1600 C   0  0  0  0  0  2  0  0  0  0  0  0
  -30.6890  -14.1890   20.6490 N   0  0  0  0  0  0  0  0  0  0  0  0
  -32.5240  -15.4690   20.4890 O   0  0  0  0  0  0  0  0  0  0  0  0
  -30.5140  -16.6210   20.3040 N   0  0  0  0  0  0  0  0  0  0  0  0
  -29.5300  -16.4120   20.2390 H   0  0  0  0  0  0  0  0  0  0  0  0
  -26.0380  -14.3270   20.3340 C   0  0  0  0  0  0  0  0  0  0  0  0
  -24.9050  -13.6210   20.6330 C   0  0  0  0  0  0  0  0  0  0  0  0
  -25.3130  -12.2570   20.7650 C   0  0  0  0  0  0  0  0  0  0  0  0
  -27.0630  -13.3980   20.2900 N   0  0  0  0  0  0  0  0  0  0  0  0
  -26.6290  -12.1530   20.6170 N   0  0  0  0  0  0  0  0  0  0  0  0
  -24.5150  -11.0390   20.9630 C   0  0  0  0  0  0  0  0  0  0  0  0
  -24.8330  -10.1020   21.9710 C   0  0  0  0  0  3  0  0  0  0  0  0
  -24.0380   -8.9510   22.1540 C   0  0  0  0  0  3  0  0  0  0  0  0
  -22.9100   -8.7280   21.3290 C   0  0  0  0  0  0  0  0  0  0  0  0
  -22.6120   -9.6520   20.3110 C   0  0  0  0  0  3  0  0  0  0  0  0
  -23.4070  -10.7940   20.1270 C   0  0  0  0  0  3  0  0  0  0  0  0
  -22.0960   -7.6250   21.4170 O   0  0  0  0  0  0  0  0  0  0  0  0
  -21.9710   -6.9140   22.5830 C   0  0  0  0  0  0  0  0  0  0  0  0
  -21.5020   -7.5110   23.7740 C   0  0  0  0  0  3  0  0  0  0  0  0
  -21.3240   -6.7280   24.9310 C   0  0  0  0  0  3  0  0  0  0  0  0
  -21.6030   -5.3490   24.9000 C   0  0  0  0  0  0  0  0  0  0  0  0
  -22.0650   -4.7510   23.7140 C   0  0  0  0  0  3  0  0  0  0  0  0
  -22.2450   -5.5320   22.5580 C   0  0  0  0  0  0  0  0  0  0  0  0
  -22.6690   -4.9460   21.4120 F   0  0  0  0  0  0  0  0  0  0  0  0
  -21.4250   -4.5940   26.0090 F   0  0  0  0  0  0  0  0  0  0  0  0
  -23.5080  -14.1650   20.6920 C   0  0  0  0  0  0  0  0  0  0  0  0
  -22.6600  -13.5840   21.5330 N   0  0  0  0  0  0  0  0  0  0  0  0
  -23.1750  -15.1420   20.0230 O   0  0  0  0  0  0  0  0  0  0  0  0
  -22.9410  -12.7950   22.0970 H   0  0  0  0  0  0  0  0  0  0  0  0
  -21.7160  -13.9350   21.6170 H   0  0  0  0  0  0  0  0  0  0  0  0
  -26.2760  -15.6710   20.0660 N   0  0  0  0  0  0  0  0  0  0  0  0
  -25.5250  -16.3520   20.0370 H   0  0  0  0  0  0  0  0  0  0  0  0
  -27.1670  -16.0550   19.7840 H   0  0  0  0  0  0  0  0  0  0  0  0
  -29.4910  -22.3360   19.8000 N   0  0  0  0  0  4  0  0  0  0  0  0
  -29.6560  -22.1880   18.8160 H   0  0  0  0  0  0  0  0  0  0  0  0
  -30.3500  -22.7420   20.1370 H   0  0  0  0  0  0  0  0  0  0  0  0
  -28.3750  -23.4830   19.8280 C   0  0  0  0  0  2  0  0  0  0  0  0
  -28.5800  -25.0540   20.4380 C   0  0  0  0  0  2  0  0  0  0  0  0
  -28.4460  -26.4810   19.8050 O   0  0  0  0  0  0  0  0  0  0  0  0
  -24.5690  -31.9100   23.0380 C   0  0  0  0  0  0  0  0  0  0  0  0
  -27.3210  -27.3780   19.8880 C   0  0  0  0  0  0  0  0  0  0  0  0
  -23.4330  -30.5480   21.3250 C   0  0  0  0  0  3  0  0  0  0  0  0
  -24.9450  -29.0550   19.8770 C   0  0  0  0  0  0  0  0  0  0  0  0
  -25.9800  -30.8860   21.2120 C   0  0  0  0  0  2  0  0  0  0  0  0
  -26.1020  -29.5170   20.5160 C   0  0  0  0  0  0  0  0  0  0  0  0
  -27.2940  -28.7000   20.4940 C   0  0  0  0  0  3  0  0  0  0  0  0
  -26.1320  -27.0060   19.2300 C   0  0  0  0  0  3  0  0  0  0  0  0
  -24.9710  -27.8140   19.2200 C   0  0  0  0  0  3  0  0  0  0  0  0
  -23.6950  -29.9230   19.9280 C   0  0  0  0  0  2  0  0  0  0  0  0
  -24.6800  -31.1360   21.9150 N   0  0  0  0  0  0  0  0  0  0  0  0
  -23.4670  -32.1450   23.5570 O   0  0  0  0  0  0  0  0  0  0  0  0
  -22.7640  -29.4900   22.2370 C   0  0  0  0  0  0  0  0  0  0  0  0
  -21.4280  -29.3570   22.1440 N   0  0  0  0  0  0  0  0  0  0  0  0
  -23.4480  -28.7920   22.9900 O   0  0  0  0  0  0  0  0  0  0  0  0
  -20.9330  -29.9710   21.5130 H   0  0  0  0  0  0  0  0  0  0  0  0
  -18.0280  -28.2930   22.7980 C   0  0  0  0  0  0  0  0  0  0  0  0
  -20.6120  -28.3820   22.8730 C   0  0  0  0  0  3  0  0  0  0  0  0
  -20.5750  -27.0230   22.1370 C   0  0  0  0  0  2  0  0  0  0  0  0
  -19.3790  -26.8810   21.1900 C   0  0  0  0  0  2  0  0  0  0  0  0
  -18.0640  -27.0250   21.9620 C   0  0  0  0  0  2  0  0  0  0  0  0
  -19.2230  -28.9380   23.2130 C   0  0  0  0  0  0  0  0  0  0  0  0
  -19.1320  -30.1320   23.9610 C   0  0  0  0  0  3  0  0  0  0  0  0
  -17.8780  -30.6780   24.2960 C   0  0  0  0  0  3  0  0  0  0  0  0
  -16.6990  -30.0280   23.8950 C   0  0  0  0  0  3  0  0  0  0  0  0
  -16.7750  -28.8370   23.1520 C   0  0  0  0  0  3  0  0  0  0  0  0
  -25.8190  -32.5520   23.7120 C   0  0  0  0  0  3  0  0  0  0  0  0
  -25.4450  -33.9070   24.1520 N   0  0  0  0  0  0  0  0  0  0  0  0
  -25.7280  -35.0330   23.4840 C   0  0  0  0  0  0  0  0  0  0  0  0
  -26.3970  -35.0430   22.4480 O   0  0  0  0  0  0  0  0  0  0  0  0
  -24.8440  -33.9670   24.9610 H   0  0  0  0  0  0  0  0  0  0  0  0
  -23.9020  -36.7560   23.3080 C   0  0  0  0  0  1  0  0  0  0  0  0
  -25.1840  -36.3580   24.0550 C   0  0  0  0  0  3  0  0  0  0  0  0
  -27.2890  -37.2970   24.9020 C   0  0  0  0  0  1  0  0  0  0  0  0
  -26.1580  -37.4700   23.9950 N   0  0  0  0  0  0  0  0  0  0  0  0
  -25.7090  -38.3540   24.2130 H   0  0  0  0  0  0  0  0  0  0  0  0
  -26.3670  -31.7120   24.9320 C   0  0  1  0  0  0  0  0  0  0  0  0
  -25.2810  -31.3420   25.9710 C   0  0  0  0  0  1  0  0  0  0  0  0
  -27.0180  -30.3960   24.4460 C   0  0  0  0  0  1  0  0  0  0  0  0
  -27.4740  -32.5090   25.6610 C   0  0  0  0  0  1  0  0  0  0  0  0
  -30.4480  -19.6570   24.0100 C   0  0  0  0  0  2  0  0  0  0  0  0
  -30.8650  -18.3840   24.7540 C   0  0  0  0  0  3  0  0  0  0  0  0
  -30.6210  -17.2600   24.3080 O   0  0  0  0  0  0  0  0  0  0  0  0
  1  4  1  0
  2  4  1  0
  3  5  1  0
  3  6  1  0
  4 91  1  0
  5 15  1  0
  5  1  1  0
  6 45  1  0
  6  2  1  0
  7 13  1  0
  8 13  1  0
  9 10  1  0
  9  8  1  0
 11 10  1  0
 11 20  1  0
 11 12  1  0
 13 12  1  0
 14  7  2  0
 15  7  1  0
 16 15  1  0
 17 18  2  0
 18 37  1  0
 18 19  1  0
 19 22  1  0
 20 17  1  0
 20 21  1  0
 21 19  2  0
 22 23  1  0
 23 24  2  0
 25 28  1  0
 25 24  1  0
 26 25  2  0
 27 26  1  0
 27 22  2  0
 28 29  1  0
 29 30  1  0
 30 31  2  0
 32 31  1  0
 32 36  1  0
 33 32  2  0
 34 29  2  0
 34 33  1  0
 35 34  1  0
 37 38  1  0
 38 41  1  0
 38 40  1  0
 39 37  2  0
 42 17  1  0
 43 42  1  0
 44 42  1  0
 45 48  1  0
 45 47  1  0
 46 45  1  0
 48 49  1  0
 50 52  1  0
 50 49  1  0
 51 62  2  0
 52 57  1  0
 53 61  1  0
 53 63  1  0
 54 60  1  0
 54 56  1  0
 55 61  1  0
 56 55  1  0
 57 56  2  0
 58 52  2  0
 59 58  1  0
 59 54  2  0
 60 53  1  0
 61 51  1  0
 63 65  2  0
 64 63  1  0
 66 64  1  0
 67 76  2  0
 67 72  1  0
 68 64  1  0
 68 72  1  0
 69 68  1  0
 70 71  1  0
 70 69  1  0
 71 67  1  0
 72 73  2  0
 73 74  1  0
 75 74  2  0
 76 75  1  0
 77 51  1  0
 77 78  1  0
 77 87  1  0
 78 81  1  0
 79 83  1  0
 79 78  1  0
 80 79  2  0
 83 82  1  0
 85 83  1  0
 85 86  1  0
 85 84  1  0
 87 90  1  1
 87 88  1  0
 89 87  1  0
 91 92  1  0
 93 92  2  0
M  ISO  4   7 100  15 100  49 101  50 101
M  END
>  <TORSDO>  (66) 
F 21

>  <SCORE>  (66) 
-9.316

>  <name>  (66) 
65

>  <ligand_id>  (66) 
65

>  <original_smiles>  (66) 
[H]C(=O)C([H])([H])C1([H])C([H])([H])C([H])(N([H])C(=O)N2C([H])([H])C([H])([H])C([H])([H])C([H])(n3nc(-c4c([H])c([H])c(Oc5c([H])c([H])c(F)c([H])c5F)c([H])c4[H])c(C(=O)N([H])[H])c3N([H])[H])C2([H])[H])C([H])([H])C([H])([N+]([H])([H])C([H])([H])C([H])([H])Oc2c([H])c([H])c3c(c2[H])C([H])([H])N(C(=O)C([H])(N([H])C(=O)C([H])(N([H])C([H])([H])[H])C([H])([H])[H])C(C([H])([H])[H])(C([H])([H])[H])C([H])([H])[H])C([H])(C(=O)N([H])C2([H])c4c([H])c([H])c([H])c([H])c4C([H])([H])C([H])([H])C2([H])[H])C3([H])[H])C1([H])[H]

>  <smiles>  (66) 
[H]C(=O)C([H])([H])C1([H])C([H])([H])C([H])(N([H])C(=O)N2C([H])([H])C([H])([H])C([H])([H])C([H])(n3nc(-c4c([H])c([H])c(Oc5c([H])c([H])c(F)c([H])c5F)c([H])c4[H])c(C(=O)N([H])[H])c3N([H])[H])C2([H])[H])C([H])([H])C([H])([N+]([H])([H])C([H])([H])C([H])([H])Oc2c([H])c([H])c3c(c2[H])C([H])([H])N(C(=O)C([H])(N([H])C(=O)C([H])(N([H])C([H])([H])[H])C([H])([H])[H])C(C([H])([H])[H])(C([H])([H])[H])C([H])([H])[H])C([H])(C(=O)N([H])C2([H])c4c([H])c([H])c([H])c([H])c4C([H])([H])C([H])([H])C2([H])[H])C3([H])[H])C1([H])[H]

$$$$
66:0:0
     RDKit          3D

 92100  0  0  1  0  0  0  0  0999 V2000
  -26.3730  -23.0180   21.4280 C   0  0  0  0  0  3  0  0  0  0  0  0
  -27.2670  -21.9330   21.4130 C   0  0  0  0  0  3  0  0  0  0  0  0
  -26.8580  -24.3310   21.3140 C   0  0  0  0  0  3  0  0  0  0  0  0
  -29.1290  -23.4680   21.0850 C   0  0  0  0  0  3  0  0  0  0  0  0
  -28.6530  -22.1350   21.2420 C   0  0  0  0  0  0  0  0  0  0  0  0
  -28.2350  -24.5770   21.1420 C   0  0  0  0  0  0  0  0  0  0  0  0
  -29.6030  -20.9320   21.4270 C   0  0  0  0  0  2  0  0  0  0  0  0
  -28.5160  -19.8290   19.2980 C   0  0  0  0  0  1  0  0  0  0  0  0
  -29.6420  -19.7760   20.3570 C   0  0  0  0  0  3  0  0  0  0  0  0
  -29.7540  -18.4430   21.0410 N   0  0  0  0  0  4  0  0  0  0  0  0
  -30.4670  -18.5470   21.7460 H   0  0  0  0  0  0  0  0  0  0  0  0
  -28.8850  -18.2620   21.5200 H   0  0  0  0  0  0  0  0  0  0  0  0
  -30.1170  -17.2260   20.2490 C   0  0  0  0  0  2  0  0  0  0  0  0
  -30.1130  -15.9290   21.1290 C   0  0  0  0  0  2  0  0  0  0  0  0
  -30.7900  -14.6880   20.4770 C   0  0  0  0  0  0  0  0  0  0  0  0
  -30.5390  -12.5040   19.3440 C   0  0  0  0  0  2  0  0  0  0  0  0
  -29.6120  -12.6850   18.1240 C   0  0  0  0  0  2  0  0  0  0  0  0
  -28.1270  -12.5570   18.5240 C   0  0  0  0  0  2  0  0  0  0  0  0
  -27.7710  -13.3910   19.7860 C   0  0  0  0  0  3  0  0  0  0  0  0
  -28.8150  -13.1710   20.9070 C   0  0  0  0  0  2  0  0  0  0  0  0
  -30.1390  -13.4950   20.3570 N   0  0  0  0  0  0  0  0  0  0  0  0
  -31.9160  -14.8500   20.0010 O   0  0  0  0  0  0  0  0  0  0  0  0
  -25.3560  -14.0010   20.4370 C   0  0  0  0  0  0  0  0  0  0  0  0
  -24.2820  -13.2330   20.7970 C   0  0  0  0  0  0  0  0  0  0  0  0
  -24.7450  -11.8820   20.7980 C   0  0  0  0  0  0  0  0  0  0  0  0
  -26.4090  -13.1180   20.2430 N   0  0  0  0  0  0  0  0  0  0  0  0
  -26.0420  -11.8390   20.5170 N   0  0  0  0  0  0  0  0  0  0  0  0
  -24.0160  -10.6220   20.9960 C   0  0  0  0  0  0  0  0  0  0  0  0
  -24.4400   -9.6690   21.9480 C   0  0  0  0  0  3  0  0  0  0  0  0
  -23.7140   -8.4710   22.1340 C   0  0  0  0  0  3  0  0  0  0  0  0
  -22.5520   -8.2200   21.3680 C   0  0  0  0  0  0  0  0  0  0  0  0
  -22.1480   -9.1610   20.4050 C   0  0  0  0  0  3  0  0  0  0  0  0
  -22.8740  -10.3490   20.2160 C   0  0  0  0  0  3  0  0  0  0  0  0
  -21.8010   -7.0720   21.4600 O   0  0  0  0  0  0  0  0  0  0  0  0
  -21.7400   -6.3430   22.6190 C   0  0  0  0  0  0  0  0  0  0  0  0
  -21.3100   -6.9120   23.8370 C   0  0  0  0  0  3  0  0  0  0  0  0
  -21.1970   -6.1080   24.9890 C   0  0  0  0  0  3  0  0  0  0  0  0
  -21.5030   -4.7360   24.9250 C   0  0  0  0  0  0  0  0  0  0  0  0
  -21.9270   -4.1660   23.7120 C   0  0  0  0  0  3  0  0  0  0  0  0
  -22.0430   -4.9660   22.5610 C   0  0  0  0  0  0  0  0  0  0  0  0
  -22.4300   -4.4070   21.3900 F   0  0  0  0  0  0  0  0  0  0  0  0
  -21.3880   -3.9620   26.0290 F   0  0  0  0  0  0  0  0  0  0  0  0
  -22.8780  -13.7110   21.0340 C   0  0  0  0  0  0  0  0  0  0  0  0
  -22.1360  -13.0300   21.8990 N   0  0  0  0  0  0  0  0  0  0  0  0
  -22.4460  -14.7230   20.4830 O   0  0  0  0  0  0  0  0  0  0  0  0
  -22.4980  -12.2120   22.3670 H   0  0  0  0  0  0  0  0  0  0  0  0
  -21.1920  -13.3300   22.0950 H   0  0  0  0  0  0  0  0  0  0  0  0
  -25.5220  -15.3680   20.2350 N   0  0  0  0  0  0  0  0  0  0  0  0
  -24.7440  -16.0160   20.2970 H   0  0  0  0  0  0  0  0  0  0  0  0
  -26.3650  -15.7980   19.8750 H   0  0  0  0  0  0  0  0  0  0  0  0
  -28.7350  -26.0300   21.1460 C   0  0  0  0  0  2  0  0  0  0  0  0
  -28.3570  -26.8200   20.0090 O   0  0  0  0  0  0  0  0  0  0  0  0
  -24.5710  -31.9780   23.2480 C   0  0  0  0  0  0  0  0  0  0  0  0
  -27.1940  -27.5560   20.1100 C   0  0  0  0  0  0  0  0  0  0  0  0
  -23.3500  -30.5790   21.6130 C   0  0  0  0  0  3  0  0  0  0  0  0
  -24.7930  -29.0490   20.1650 C   0  0  0  0  0  0  0  0  0  0  0  0
  -25.8700  -30.9450   21.3860 C   0  0  0  0  0  2  0  0  0  0  0  0
  -25.9530  -29.5730   20.7490 C   0  0  0  0  0  0  0  0  0  0  0  0
  -27.1600  -28.8310   20.7250 C   0  0  0  0  0  3  0  0  0  0  0  0
  -26.0250  -27.0590   19.5050 C   0  0  0  0  0  3  0  0  0  0  0  0
  -24.8230  -27.7890   19.5390 C   0  0  0  0  0  3  0  0  0  0  0  0
  -23.5460  -29.9000   20.2280 C   0  0  0  0  0  2  0  0  0  0  0  0
  -24.6160  -31.1840   22.1410 N   0  0  0  0  0  0  0  0  0  0  0  0
  -23.4970  -32.2420   23.8060 O   0  0  0  0  0  0  0  0  0  0  0  0
  -22.7140  -29.5510   22.5790 C   0  0  0  0  0  0  0  0  0  0  0  0
  -21.3910  -29.3610   22.4650 N   0  0  0  0  0  0  0  0  0  0  0  0
  -23.4110  -28.9310   23.3860 O   0  0  0  0  0  0  0  0  0  0  0  0
  -20.8920  -29.9180   21.7860 H   0  0  0  0  0  0  0  0  0  0  0  0
  -18.0340  -28.1230   22.9710 C   0  0  0  0  0  0  0  0  0  0  0  0
  -20.5890  -28.4140   23.2400 C   0  0  0  0  0  3  0  0  0  0  0  0
  -20.7110  -26.9840   22.6660 C   0  0  0  0  0  2  0  0  0  0  0  0
  -19.6110  -26.6430   21.6550 C   0  0  0  0  0  2  0  0  0  0  0  0
  -18.2280  -26.7720   22.3000 C   0  0  0  0  0  2  0  0  0  0  0  0
  -19.1430  -28.8990   23.3970 C   0  0  0  0  0  0  0  0  0  0  0  0
  -18.9100  -30.1600   23.9870 C   0  0  0  0  0  3  0  0  0  0  0  0
  -17.5990  -30.6470   24.1520 C   0  0  0  0  0  3  0  0  0  0  0  0
  -16.5050  -29.8670   23.7430 C   0  0  0  0  0  3  0  0  0  0  0  0
  -16.7230  -28.6070   23.1570 C   0  0  0  0  0  3  0  0  0  0  0  0
  -25.8640  -32.6100   23.8530 C   0  0  0  0  0  3  0  0  0  0  0  0
  -25.5590  -34.0080   24.1830 N   0  0  0  0  0  0  0  0  0  0  0  0
  -25.8940  -35.0590   23.4230 C   0  0  0  0  0  0  0  0  0  0  0  0
  -26.5620  -34.9540   22.3900 O   0  0  0  0  0  0  0  0  0  0  0  0
  -24.9700  -34.1650   24.9860 H   0  0  0  0  0  0  0  0  0  0  0  0
  -24.1740  -36.8610   23.0680 C   0  0  0  0  0  1  0  0  0  0  0  0
  -25.4110  -36.4500   23.8810 C   0  0  0  0  0  3  0  0  0  0  0  0
  -27.5490  -37.3260   24.7130 C   0  0  0  0  0  1  0  0  0  0  0  0
  -26.4480  -37.4970   23.7690 N   0  0  0  0  0  0  0  0  0  0  0  0
  -26.0480  -38.4200   23.9160 H   0  0  0  0  0  0  0  0  0  0  0  0
  -26.3940  -31.8410   25.1250 C   0  0  1  0  0  0  0  0  0  0  0  0
  -25.3170  -31.6060   26.2100 C   0  0  0  0  0  1  0  0  0  0  0  0
  -26.9700  -30.4630   24.7230 C   0  0  0  0  0  1  0  0  0  0  0  0
  -27.5520  -32.6400   25.7720 C   0  0  0  0  0  1  0  0  0  0  0  0
  2  1  1  0
  3  1  2  0
  4  6  2  0
  4  5  1  0
  5  2  2  0
  5  7  1  0
  6 51  1  0
  6  3  1  0
  9  8  1  0
  9 10  1  0
  9  7  1  0
 10 12  1  0
 10 11  1  0
 13 10  1  0
 13 14  1  0
 15 14  1  0
 16 21  1  0
 17 18  1  0
 17 16  1  0
 19 18  1  0
 19 26  1  0
 19 20  1  0
 21 15  1  0
 21 20  1  0
 22 15  2  0
 23 24  2  0
 24 25  1  0
 24 43  1  0
 25 28  1  0
 26 23  1  0
 26 27  1  0
 27 25  2  0
 28 29  1  0
 29 30  2  0
 31 34  1  0
 31 30  1  0
 32 31  2  0
 33 32  1  0
 33 28  2  0
 34 35  1  0
 35 36  1  0
 36 37  2  0
 38 37  1  0
 38 42  1  0
 39 38  2  0
 40 35  2  0
 40 39  1  0
 41 40  1  0
 43 44  1  0
 44 47  1  0
 44 46  1  0
 45 43  2  0
 48 49  1  0
 48 23  1  0
 50 48  1  0
 52 54  1  0
 52 51  1  0
 53 64  2  0
 54 59  1  0
 55 63  1  0
 55 65  1  0
 56 62  1  0
 56 58  1  0
 57 63  1  0
 58 57  1  0
 59 58  2  0
 60 61  1  0
 60 54  2  0
 61 56  2  0
 62 55  1  0
 63 53  1  0
 65 67  2  0
 66 65  1  0
 68 66  1  0
 69 78  2  0
 69 74  1  0
 70 66  1  0
 70 74  1  0
 71 70  1  0
 72 73  1  0
 72 71  1  0
 73 69  1  0
 74 75  2  0
 75 76  1  0
 77 76  2  0
 78 77  1  0
 79 53  1  0
 79 80  1  0
 79 89  1  0
 80 83  1  0
 81 85  1  0
 81 80  1  0
 82 81  2  0
 85 84  1  0
 87 85  1  0
 87 88  1  0
 87 86  1  0
 89 92  1  1
 89 90  1  0
 91 89  1  0
M  ISO  4  14 100  15 100  51 101  52 101
M  END
>  <TORSDO>  (67) 
F 22

>  <SCORE>  (67) 
-13.023

>  <name>  (67) 
66

>  <ligand_id>  (67) 
66

>  <original_smiles>  (67) 
[H]c1c([H])c([H])c2c(c1[H])C([H])([H])C([H])([H])C([H])([H])C2([H])N([H])C(=O)C1([H])N(C(=O)C([H])(N([H])C(=O)C([H])(N([H])C([H])([H])[H])C([H])([H])[H])C(C([H])([H])[H])(C([H])([H])[H])C([H])([H])[H])C([H])([H])c2c([H])c(OC([H])([H])c3c([H])c([H])c([H])c(C([H])([H])C([H])(C([H])([H])[H])[N+]([H])([H])C([H])([H])C([H])([H])C(=O)N4C([H])([H])C([H])([H])C([H])([H])C([H])(n5nc(-c6c([H])c([H])c(Oc7c([H])c([H])c(F)c([H])c7F)c([H])c6[H])c(C(=O)N([H])[H])c5N([H])[H])C4([H])[H])c3[H])c([H])c([H])c2C1([H])[H]

>  <smiles>  (67) 
[H]c1c([H])c([H])c2c(c1[H])C([H])([H])C([H])([H])C([H])([H])C2([H])N([H])C(=O)C1([H])N(C(=O)C([H])(N([H])C(=O)C([H])(N([H])C([H])([H])[H])C([H])([H])[H])C(C([H])([H])[H])(C([H])([H])[H])C([H])([H])[H])C([H])([H])c2c([H])c(OC([H])([H])c3c([H])c([H])c([H])c(C([H])([H])C([H])(C([H])([H])[H])[N+]([H])([H])C([H])([H])C([H])([H])C(=O)N4C([H])([H])C([H])([H])C([H])([H])C([H])(n5nc(-c6c([H])c([H])c(Oc7c([H])c([H])c(F)c([H])c7F)c([H])c6[H])c(C(=O)N([H])[H])c5N([H])[H])C4([H])[H])c3[H])c([H])c([H])c2C1([H])[H]

$$$$
67:0:0
     RDKit          3D

 94103  0  0  1  0  0  0  0  0999 V2000
  -29.2770  -21.4140   19.6720 C   0  0  0  0  0  3  0  0  0  0  0  0
  -29.7570  -20.0660   20.2840 C   0  0  0  0  0  0  0  0  0  0  0  0
  -30.1480  -20.3000   21.6260 C   0  0  0  0  0  0  0  0  0  0  0  0
  -29.1490  -22.8350   20.2980 C   0  0  0  0  0  0  0  0  0  0  0  0
  -29.9330  -21.5450   22.3150 C   0  0  0  0  0  0  0  0  0  0  0  0
  -29.5130  -22.7650   21.6720 C   0  0  0  0  0  0  0  0  0  0  0  0
  -30.9700  -19.1750   22.2630 C   0  0  0  0  0  2  0  0  0  0  0  0
  -32.1410  -18.7250   21.3530 C   0  0  0  0  0  2  0  0  0  0  0  0
  -30.2540  -18.4720   19.6520 C   0  0  0  0  0  3  0  0  0  0  0  0
  -31.7890  -18.5600   19.8530 C   0  0  0  0  0  3  0  0  0  0  0  0
  -30.1610  -21.5740   23.8290 C   0  0  0  0  0  1  0  0  0  0  0  0
  -29.4500  -24.0670   22.4730 C   0  0  0  0  0  1  0  0  0  0  0  0
  -30.7470  -15.5570   20.1160 C   0  0  0  0  0  0  0  0  0  0  0  0
  -30.8510  -12.9960   19.6180 C   0  0  0  0  0  2  0  0  0  0  0  0
  -29.9950  -12.5410   18.4090 C   0  0  0  0  0  2  0  0  0  0  0  0
  -28.5480  -12.2590   18.8450 C   0  0  0  0  0  2  0  0  0  0  0  0
  -28.0090  -13.3600   19.7930 C   0  0  0  0  0  3  0  0  0  0  0  0
  -29.0040  -13.7490   20.9090 C   0  0  0  0  0  2  0  0  0  0  0  0
  -30.2250  -14.2300   20.2400 N   0  0  0  0  0  0  0  0  0  0  0  0
  -31.9690  -15.5350   19.9080 O   0  0  0  0  0  0  0  0  0  0  0  0
  -29.9700  -16.8420   20.0360 N   0  0  0  0  0  0  0  0  0  0  0  0
  -28.9890  -16.6780   20.2070 H   0  0  0  0  0  0  0  0  0  0  0  0
  -25.6650  -13.9430   20.5940 C   0  0  0  0  0  0  0  0  0  0  0  0
  -24.5880  -13.1790   20.9460 C   0  0  0  0  0  0  0  0  0  0  0  0
  -25.0220  -11.8200   20.8620 C   0  0  0  0  0  0  0  0  0  0  0  0
  -26.6830  -13.0520   20.3070 N   0  0  0  0  0  0  0  0  0  0  0  0
  -26.3100  -11.7660   20.5370 N   0  0  0  0  0  0  0  0  0  0  0  0
  -24.2650  -10.5700   21.0140 C   0  0  0  0  0  0  0  0  0  0  0  0
  -24.6420   -9.5850   21.9530 C   0  0  0  0  0  3  0  0  0  0  0  0
  -23.8830   -8.4030   22.0950 C   0  0  0  0  0  3  0  0  0  0  0  0
  -22.7320   -8.1980   21.2970 C   0  0  0  0  0  0  0  0  0  0  0  0
  -22.3740   -9.1710   20.3480 C   0  0  0  0  0  3  0  0  0  0  0  0
  -23.1330  -10.3440   20.2040 C   0  0  0  0  0  3  0  0  0  0  0  0
  -21.9500   -7.0700   21.3500 O   0  0  0  0  0  0  0  0  0  0  0  0
  -21.7850   -6.3600   22.5110 C   0  0  0  0  0  0  0  0  0  0  0  0
  -21.2470   -6.9510   23.6750 C   0  0  0  0  0  3  0  0  0  0  0  0
  -21.0300   -6.1680   24.8270 C   0  0  0  0  0  3  0  0  0  0  0  0
  -21.3390   -4.7960   24.8140 C   0  0  0  0  0  0  0  0  0  0  0  0
  -21.8680   -4.2040   23.6540 C   0  0  0  0  0  3  0  0  0  0  0  0
  -22.0880   -4.9840   22.5060 C   0  0  0  0  0  0  0  0  0  0  0  0
  -22.5790   -4.4040   21.3840 F   0  0  0  0  0  0  0  0  0  0  0  0
  -21.1230   -4.0410   25.9170 F   0  0  0  0  0  0  0  0  0  0  0  0
  -23.2060  -13.6800   21.2430 C   0  0  0  0  0  0  0  0  0  0  0  0
  -22.4720  -12.9820   22.1010 N   0  0  0  0  0  0  0  0  0  0  0  0
  -22.7890  -14.7280   20.7500 O   0  0  0  0  0  0  0  0  0  0  0  0
  -22.8250  -12.1340   22.5200 H   0  0  0  0  0  0  0  0  0  0  0  0
  -21.5440  -13.3000   22.3420 H   0  0  0  0  0  0  0  0  0  0  0  0
  -25.8550  -15.3160   20.4640 N   0  0  0  0  0  0  0  0  0  0  0  0
  -25.0970  -15.9750   20.6040 H   0  0  0  0  0  0  0  0  0  0  0  0
  -26.6970  -15.7510   20.1110 H   0  0  0  0  0  0  0  0  0  0  0  0
  -32.3520  -19.5990   19.0670 O   0  0  0  0  0  0  0  0  0  0  0  0
  -33.2970  -19.5590   19.1740 H   0  0  0  0  0  0  0  0  0  0  0  0
  -28.4830  -24.3790   19.7190 C   0  0  0  0  0  2  0  0  0  0  0  0
  -28.5480  -25.9750   20.2220 O   0  0  0  0  0  0  0  0  0  0  0  0
  -24.7920  -31.7820   23.3060 C   0  0  0  0  0  0  0  0  0  0  0  0
  -27.5420  -27.0910   20.1190 C   0  0  0  0  0  0  0  0  0  0  0  0
  -23.6850  -30.4580   21.5500 C   0  0  0  0  0  3  0  0  0  0  0  0
  -25.2160  -28.9610   20.0870 C   0  0  0  0  0  0  0  0  0  0  0  0
  -26.2510  -30.7110   21.5150 C   0  0  0  0  0  2  0  0  0  0  0  0
  -26.3710  -29.3400   20.7800 C   0  0  0  0  0  0  0  0  0  0  0  0
  -27.5240  -28.4250   20.7770 C   0  0  0  0  0  3  0  0  0  0  0  0
  -26.3610  -26.8860   19.3670 C   0  0  0  0  0  3  0  0  0  0  0  0
  -25.2390  -27.7590   19.3610 C   0  0  0  0  0  3  0  0  0  0  0  0
  -23.9780  -29.8590   20.1460 C   0  0  0  0  0  2  0  0  0  0  0  0
  -24.9280  -31.0100   22.1790 N   0  0  0  0  0  0  0  0  0  0  0  0
  -23.6790  -32.0240   23.8020 O   0  0  0  0  0  0  0  0  0  0  0  0
  -22.9760  -29.3990   22.4340 C   0  0  0  0  0  0  0  0  0  0  0  0
  -21.6520  -29.2230   22.2600 N   0  0  0  0  0  0  0  0  0  0  0  0
  -23.6240  -28.7390   23.2490 O   0  0  0  0  0  0  0  0  0  0  0  0
  -21.1810  -29.8100   21.5870 H   0  0  0  0  0  0  0  0  0  0  0  0
  -18.2770  -27.9340   22.5980 C   0  0  0  0  0  0  0  0  0  0  0  0
  -20.8240  -28.2290   22.9510 C   0  0  0  0  0  3  0  0  0  0  0  0
  -20.9680  -26.8340   22.2980 C   0  0  0  0  0  2  0  0  0  0  0  0
  -19.9010  -26.5530   21.2350 C   0  0  0  0  0  2  0  0  0  0  0  0
  -18.4990  -26.6330   21.8460 C   0  0  0  0  0  2  0  0  0  0  0  0
  -19.3690  -28.6910   23.1040 C   0  0  0  0  0  0  0  0  0  0  0  0
  -19.1050  -29.9060   23.7710 C   0  0  0  0  0  3  0  0  0  0  0  0
  -17.7850  -30.3670   23.9360 C   0  0  0  0  0  3  0  0  0  0  0  0
  -16.7100  -29.6080   23.4440 C   0  0  0  0  0  3  0  0  0  0  0  0
  -16.9560  -28.3920   22.7820 C   0  0  0  0  0  3  0  0  0  0  0  0
  -26.0260  -32.4130   24.0190 C   0  0  0  0  0  3  0  0  0  0  0  0
  -25.6840  -33.8040   24.3740 N   0  0  0  0  0  0  0  0  0  0  0  0
  -26.0230  -34.8850   23.6610 C   0  0  0  0  0  0  0  0  0  0  0  0
  -26.7170  -34.8190   22.6430 O   0  0  0  0  0  0  0  0  0  0  0  0
  -25.0700  -33.9280   25.1660 H   0  0  0  0  0  0  0  0  0  0  0  0
  -24.2730  -36.6690   23.3440 C   0  0  0  0  0  1  0  0  0  0  0  0
  -25.5150  -36.2570   24.1510 C   0  0  0  0  0  3  0  0  0  0  0  0
  -27.6300  -37.1550   25.0210 C   0  0  0  0  0  1  0  0  0  0  0  0
  -26.5340  -37.3280   24.0710 N   0  0  0  0  0  0  0  0  0  0  0  0
  -26.1150  -38.2380   24.2350 H   0  0  0  0  0  0  0  0  0  0  0  0
  -26.4680  -31.6200   25.3110 C   0  0  1  0  0  0  0  0  0  0  0  0
  -25.3130  -31.3630   26.3090 C   0  0  0  0  0  1  0  0  0  0  0  0
  -27.0750  -30.2490   24.9390 C   0  0  0  0  0  1  0  0  0  0  0  0
  -27.5770  -32.4040   26.0520 C   0  0  0  0  0  1  0  0  0  0  0  0
  1  2  2  0
  1  4  1  0
  2  3  1  0
  3  7  1  0
  3  5  2  0
  4  6  2  0
  5 11  1  0
  6  5  1  0
  6 12  1  0
  8  7  1  0
  9 10  1  0
  9 21  1  0
  9  2  1  0
 10 51  1  0
 10  8  1  0
 13 19  1  0
 14 19  1  0
 15 16  1  0
 15 14  1  0
 17 16  1  0
 17 26  1  0
 17 18  1  0
 19 18  1  0
 20 13  2  0
 21 13  1  0
 21 22  1  0
 23 24  2  0
 24 43  1  0
 25 24  1  0
 25 28  1  0
 26 27  1  0
 26 23  1  0
 27 25  2  0
 28 29  1  0
 29 30  2  0
 31 34  1  0
 31 30  1  0
 32 31  2  0
 33 32  1  0
 33 28  2  0
 34 35  1  0
 35 36  1  0
 36 37  2  0
 38 37  1  0
 38 42  1  0
 39 38  2  0
 40 35  2  0
 40 39  1  0
 41 40  1  0
 43 44  1  0
 44 47  1  0
 44 46  1  0
 45 43  2  0
 48 23  1  0
 48 49  1  0
 50 48  1  0
 51 52  1  0
 53 54  1  0
 53  4  1  0
 55 66  2  0
 56 54  1  0
 56 61  1  0
 57 65  1  0
 57 67  1  0
 58 64  1  0
 58 60  1  0
 59 65  1  0
 60 59  1  0
 61 60  2  0
 62 56  2  0
 63 62  1  0
 63 58  2  0
 64 57  1  0
 65 55  1  0
 67 69  2  0
 68 67  1  0
 70 68  1  0
 71 80  2  0
 71 76  1  0
 72 68  1  0
 72 76  1  0
 73 72  1  0
 74 75  1  0
 74 73  1  0
 75 71  1  0
 76 77  2  0
 77 78  1  0
 79 78  2  0
 80 79  1  0
 81 55  1  0
 81 82  1  0
 81 91  1  0
 82 85  1  0
 83 87  1  0
 83 82  1  0
 84 83  2  0
 87 86  1  0
 89 87  1  0
 89 90  1  0
 89 88  1  0
 91 94  1  1
 91 92  1  0
 93 91  1  0
M  ISO  4  13 100  21 100  53 101  54 101
M  END
>  <TORSDO>  (68) 
F 18

>  <SCORE>  (68) 
-16.270

>  <name>  (68) 
67

>  <ligand_id>  (68) 
67

>  <original_smiles>  (68) 
[H]OC1([H])C([H])(N([H])C(=O)N2C([H])([H])C([H])([H])C([H])([H])C([H])(n3nc(-c4c([H])c([H])c(Oc5c([H])c([H])c(F)c([H])c5F)c([H])c4[H])c(C(=O)N([H])[H])c3N([H])[H])C2([H])[H])c2c([H])c(C([H])([H])Oc3c([H])c([H])c4c(c3[H])C([H])([H])N(C(=O)C([H])(N([H])C(=O)C([H])(N([H])C([H])([H])[H])C([H])([H])[H])C(C([H])([H])[H])(C([H])([H])[H])C([H])([H])[H])C([H])(C(=O)N([H])C3([H])c5c([H])c([H])c([H])c([H])c5C([H])([H])C([H])([H])C3([H])[H])C4([H])[H])c(C([H])([H])[H])c(C([H])([H])[H])c2C([H])([H])C1([H])[H]

>  <smiles>  (68) 
[H]OC1([H])C([H])(N([H])C(=O)N2C([H])([H])C([H])([H])C([H])([H])C([H])(n3nc(-c4c([H])c([H])c(Oc5c([H])c([H])c(F)c([H])c5F)c([H])c4[H])c(C(=O)N([H])[H])c3N([H])[H])C2([H])[H])c2c([H])c(C([H])([H])Oc3c([H])c([H])c4c(c3[H])C([H])([H])N(C(=O)C([H])(N([H])C(=O)C([H])(N([H])C([H])([H])[H])C([H])([H])[H])C(C([H])([H])[H])(C([H])([H])[H])C([H])([H])[H])C([H])(C(=O)N([H])C3([H])c5c([H])c([H])c([H])c([H])c5C([H])([H])C([H])([H])C3([H])[H])C4([H])[H])c(C([H])([H])[H])c(C([H])([H])[H])c2C([H])([H])C1([H])[H]

$$$$
68:0:0
     RDKit          3D

 93102  0  0  1  0  0  0  0  0999 V2000
  -30.2430  -23.5250   19.7280 C   0  0  0  0  0  3  0  0  0  0  0  0
  -30.7900  -21.1250   19.8240 C   0  0  0  0  0  3  0  0  0  0  0  0
  -31.1550  -22.4610   19.5340 C   0  0  0  0  0  0  0  0  0  0  0  0
  -28.9420  -23.2830   20.1980 C   0  0  0  0  0  0  0  0  0  0  0  0
  -29.5070  -20.8040   20.3020 C   0  0  0  0  0  0  0  0  0  0  0  0
  -28.6140  -21.9070   20.4680 N   0  0  0  0  0  0  0  0  0  0  0  0
  -33.1900  -21.8010   17.9660 C   0  0  0  0  0  2  0  0  0  0  0  0
  -32.7890  -23.8760   17.9770 C   0  0  0  0  0  2  0  0  0  0  0  0
  -32.5460  -22.7460   18.9950 C   0  0  0  0  0  3  0  0  0  0  0  0
  -33.9170  -23.0200   17.3920 C   0  0  0  0  0  3  0  0  0  0  0  0
  -33.9780  -23.0370   16.0600 F   0  0  0  0  0  0  0  0  0  0  0  0
  -29.2070  -19.3670   20.5740 N   0  0  0  0  0  0  0  0  0  0  0  0
  -28.2820  -19.1910   20.9550 H   0  0  0  0  0  0  0  0  0  0  0  0
  -30.0920  -18.0710   20.3470 C   0  0  0  0  0  3  0  0  0  0  0  0
  -29.6310  -16.4610   20.6980 C   0  0  0  0  0  3  0  0  0  0  0  0
  -30.4610  -15.0330   20.3710 C   0  0  0  0  0  0  0  0  0  0  0  0
  -30.3520  -12.6860   19.3760 C   0  0  0  0  0  2  0  0  0  0  0  0
  -29.4100  -12.6870   18.1460 C   0  0  0  0  0  2  0  0  0  0  0  0
  -27.9470  -12.4680   18.5750 C   0  0  0  0  0  2  0  0  0  0  0  0
  -27.5530  -13.3610   19.7780 C   0  0  0  0  0  3  0  0  0  0  0  0
  -28.6120  -13.3360   20.8990 C   0  0  0  0  0  2  0  0  0  0  0  0
  -29.8900  -13.7550   20.3120 N   0  0  0  0  0  0  0  0  0  0  0  0
  -31.6530  -15.0990   20.0440 O   0  0  0  0  0  0  0  0  0  0  0  0
  -25.1720  -13.9360   20.5190 C   0  0  0  0  0  0  0  0  0  0  0  0
  -24.1070  -13.1610   20.8870 C   0  0  0  0  0  0  0  0  0  0  0  0
  -24.5730  -11.8090   20.8570 C   0  0  0  0  0  0  0  0  0  0  0  0
  -26.2150  -13.0590   20.2760 N   0  0  0  0  0  0  0  0  0  0  0  0
  -25.8640  -11.7740   20.5460 N   0  0  0  0  0  0  0  0  0  0  0  0
  -23.8440  -10.5480   21.0470 C   0  0  0  0  0  0  0  0  0  0  0  0
  -24.2720   -9.5790   21.9810 C   0  0  0  0  0  3  0  0  0  0  0  0
  -23.5430   -8.3830   22.1590 C   0  0  0  0  0  3  0  0  0  0  0  0
  -22.3730   -8.1460   21.4000 C   0  0  0  0  0  0  0  0  0  0  0  0
  -21.9640   -9.1020   20.4520 C   0  0  0  0  0  3  0  0  0  0  0  0
  -22.6930  -10.2900   20.2740 C   0  0  0  0  0  3  0  0  0  0  0  0
  -21.6170   -7.0010   21.4850 O   0  0  0  0  0  0  0  0  0  0  0  0
  -21.5620   -6.2590   22.6380 C   0  0  0  0  0  0  0  0  0  0  0  0
  -21.1260   -6.8140   23.8610 C   0  0  0  0  0  3  0  0  0  0  0  0
  -21.0180   -6.0000   25.0050 C   0  0  0  0  0  3  0  0  0  0  0  0
  -21.3370   -4.6300   24.9270 C   0  0  0  0  0  0  0  0  0  0  0  0
  -21.7680   -4.0740   23.7090 C   0  0  0  0  0  3  0  0  0  0  0  0
  -21.8760   -4.8870   22.5670 C   0  0  0  0  0  0  0  0  0  0  0  0
  -22.2700   -4.3430   21.3910 F   0  0  0  0  0  0  0  0  0  0  0  0
  -21.2270   -3.8460   26.0240 F   0  0  0  0  0  0  0  0  0  0  0  0
  -22.7100  -13.6370   21.1560 C   0  0  0  0  0  0  0  0  0  0  0  0
  -21.9830  -12.9410   22.0230 N   0  0  0  0  0  0  0  0  0  0  0  0
  -22.2720  -14.6610   20.6340 O   0  0  0  0  0  0  0  0  0  0  0  0
  -22.3510  -12.1130   22.4670 H   0  0  0  0  0  0  0  0  0  0  0  0
  -21.0450  -13.2420   22.2480 H   0  0  0  0  0  0  0  0  0  0  0  0
  -25.3370  -15.3060   20.3460 N   0  0  0  0  0  0  0  0  0  0  0  0
  -24.5740  -15.9640   20.4680 H   0  0  0  0  0  0  0  0  0  0  0  0
  -26.1890  -15.7460   20.0220 H   0  0  0  0  0  0  0  0  0  0  0  0
  -27.8890  -24.5730   20.2590 C   0  0  0  0  0  2  0  0  0  0  0  0
  -28.2260  -26.1150   20.2460 O   0  0  0  0  0  0  0  0  0  0  0  0
  -24.6350  -31.8850   23.2370 C   0  0  0  0  0  0  0  0  0  0  0  0
  -27.1820  -27.1280   20.2030 C   0  0  0  0  0  0  0  0  0  0  0  0
  -23.4260  -30.4890   21.6080 C   0  0  0  0  0  3  0  0  0  0  0  0
  -24.8630  -28.9070   20.1810 C   0  0  0  0  0  0  0  0  0  0  0  0
  -25.9840  -30.7380   21.4340 C   0  0  0  0  0  2  0  0  0  0  0  0
  -26.0510  -29.3410   20.7830 C   0  0  0  0  0  0  0  0  0  0  0  0
  -27.2110  -28.4710   20.7740 C   0  0  0  0  0  3  0  0  0  0  0  0
  -25.9650  -26.8090   19.5590 C   0  0  0  0  0  3  0  0  0  0  0  0
  -24.8360  -27.6560   19.5520 C   0  0  0  0  0  3  0  0  0  0  0  0
  -23.6390  -29.8090   20.2300 C   0  0  0  0  0  2  0  0  0  0  0  0
  -24.7030  -31.0600   22.1470 N   0  0  0  0  0  0  0  0  0  0  0  0
  -23.5510  -32.1730   23.7680 O   0  0  0  0  0  0  0  0  0  0  0  0
  -22.7460  -29.4860   22.5750 C   0  0  0  0  0  0  0  0  0  0  0  0
  -21.4180  -29.3140   22.4490 N   0  0  0  0  0  0  0  0  0  0  0  0
  -23.4180  -28.8640   23.4010 O   0  0  0  0  0  0  0  0  0  0  0  0
  -20.9310  -29.8660   21.7560 H   0  0  0  0  0  0  0  0  0  0  0  0
  -18.0390  -28.1070   22.9570 C   0  0  0  0  0  0  0  0  0  0  0  0
  -20.5970  -28.3810   23.2260 C   0  0  0  0  0  3  0  0  0  0  0  0
  -20.7050  -26.9440   22.6640 C   0  0  0  0  0  2  0  0  0  0  0  0
  -19.6050  -26.6100   21.6500 C   0  0  0  0  0  2  0  0  0  0  0  0
  -18.2210  -26.7540   22.2890 C   0  0  0  0  0  2  0  0  0  0  0  0
  -19.1540  -28.8780   23.3820 C   0  0  0  0  0  0  0  0  0  0  0  0
  -18.9270  -30.1420   23.9670 C   0  0  0  0  0  3  0  0  0  0  0  0
  -17.6200  -30.6360   24.1300 C   0  0  0  0  0  3  0  0  0  0  0  0
  -16.5200  -29.8630   23.7190 C   0  0  0  0  0  3  0  0  0  0  0  0
  -16.7310  -28.6000   23.1390 C   0  0  0  0  0  3  0  0  0  0  0  0
  -25.9150  -32.5210   23.8580 C   0  0  0  0  0  3  0  0  0  0  0  0
  -25.6010  -33.9170   24.2010 N   0  0  0  0  0  0  0  0  0  0  0  0
  -25.9070  -34.9780   23.4430 C   0  0  0  0  0  0  0  0  0  0  0  0
  -26.5490  -34.8840   22.3920 O   0  0  0  0  0  0  0  0  0  0  0  0
  -25.0290  -34.0610   25.0190 H   0  0  0  0  0  0  0  0  0  0  0  0
  -24.1520  -36.7600   23.1600 C   0  0  0  0  0  1  0  0  0  0  0  0
  -25.4270  -36.3630   23.9220 C   0  0  0  0  0  3  0  0  0  0  0  0
  -27.5840  -37.2670   24.6710 C   0  0  0  0  0  1  0  0  0  0  0  0
  -26.4460  -37.4250   23.7700 N   0  0  0  0  0  0  0  0  0  0  0  0
  -26.0390  -38.3420   23.9340 H   0  0  0  0  0  0  0  0  0  0  0  0
  -26.4330  -31.7470   25.1340 C   0  0  1  0  0  0  0  0  0  0  0  0
  -25.3440  -31.5090   26.2060 C   0  0  0  0  0  1  0  0  0  0  0  0
  -27.0140  -30.3680   24.7440 C   0  0  0  0  0  1  0  0  0  0  0  0
  -27.5870  -32.5410   25.7920 C   0  0  0  0  0  1  0  0  0  0  0  0
  1  4  1  0
  2  5  2  0
  3  1  2  0
  3  2  1  0
  4 52  1  0
  4  6  2  0
  5  6  1  0
  5 12  1  0
  7  9  1  0
  8  9  1  0
  9  3  1  0
 10 11  1  0
 10  7  1  0
 10  8  1  0
 12 13  1  0
 14 12  1  0
 14 15  2  0
 16 15  1  0
 17 22  1  0
 18 19  1  0
 18 17  1  0
 20 19  1  0
 20 27  1  0
 20 21  1  0
 22 16  1  0
 22 21  1  0
 23 16  2  0
 24 25  2  0
 25 44  1  0
 26 25  1  0
 26 29  1  0
 27 24  1  0
 27 28  1  0
 28 26  2  0
 29 30  1  0
 30 31  2  0
 32 35  1  0
 32 31  1  0
 33 32  2  0
 34 33  1  0
 34 29  2  0
 35 36  1  0
 36 37  1  0
 37 38  2  0
 39 38  1  0
 39 43  1  0
 40 39  2  0
 41 36  2  0
 41 40  1  0
 42 41  1  0
 44 45  1  0
 45 48  1  0
 45 47  1  0
 46 44  2  0
 49 50  1  0
 49 24  1  0
 51 49  1  0
 53 52  1  0
 54 65  2  0
 55 53  1  0
 55 60  1  0
 56 64  1  0
 56 66  1  0
 57 63  1  0
 57 59  1  0
 58 64  1  0
 59 58  1  0
 60 59  2  0
 61 55  2  0
 62 61  1  0
 62 57  2  0
 63 56  1  0
 64 54  1  0
 66 68  2  0
 67 66  1  0
 69 67  1  0
 70 79  2  0
 70 75  1  0
 71 67  1  0
 71 75  1  0
 72 71  1  0
 73 74  1  0
 73 72  1  0
 74 70  1  0
 75 76  2  0
 76 77  1  0
 78 77  2  0
 79 78  1  0
 80 54  1  0
 80 81  1  0
 80 90  1  0
 81 84  1  0
 82 86  1  0
 82 81  1  0
 83 82  2  0
 86 85  1  0
 88 86  1  0
 88 89  1  0
 88 87  1  0
 90 93  1  1
 90 91  1  0
 92 90  1  0
M  ISO  4  15 100  16 100  52 101  53 101
M  END
>  <TORSDO>  (69) 
F 21

>  <SCORE>  (69) 
-14.215

>  <name>  (69) 
68

>  <ligand_id>  (69) 
68

>  <original_smiles>  (69) 
[H]c1c([H])c([H])c2c(c1[H])C([H])([H])C([H])([H])C([H])([H])C2([H])N([H])C(=O)C1([H])N(C(=O)C([H])(N([H])C(=O)C([H])(N([H])C([H])([H])[H])C([H])([H])[H])C(C([H])([H])[H])(C([H])([H])[H])C([H])([H])[H])C([H])([H])c2c([H])c(OC([H])([H])c3nc(N([H])C([H])([H])C([H])([H])C(=O)N4C([H])([H])C([H])([H])C([H])([H])C([H])(n5nc(-c6c([H])c([H])c(Oc7c([H])c([H])c(F)c([H])c7F)c([H])c6[H])c(C(=O)N([H])[H])c5N([H])[H])C4([H])[H])c([H])c(C4([H])C([H])([H])C([H])(F)C4([H])[H])c3[H])c([H])c([H])c2C1([H])[H]

>  <smiles>  (69) 
[H]c1c([H])c([H])c2c(c1[H])C([H])([H])C([H])([H])C([H])([H])C2([H])N([H])C(=O)C1([H])N(C(=O)C([H])(N([H])C(=O)C([H])(N([H])C([H])([H])[H])C([H])([H])[H])C(C([H])([H])[H])(C([H])([H])[H])C([H])([H])[H])C([H])([H])c2c([H])c(OC([H])([H])c3nc(N([H])C([H])([H])C([H])([H])C(=O)N4C([H])([H])C([H])([H])C([H])([H])C([H])(n5nc(-c6c([H])c([H])c(Oc7c([H])c([H])c(F)c([H])c7F)c([H])c6[H])c(C(=O)N([H])[H])c5N([H])[H])C4([H])[H])c([H])c(C4([H])C([H])([H])C([H])(F)C4([H])[H])c3[H])c([H])c([H])c2C1([H])[H]

$$$$
69:0:0
     RDKit          3D

 92100  0  0  1  0  0  0  0  0999 V2000
  -27.9730  -24.0860   23.5420 C   0  0  0  0  0  3  0  0  0  0  0  0
  -28.2020  -25.4620   23.5520 C   0  0  0  0  0  3  0  0  0  0  0  0
  -28.0490  -23.3930   22.3280 C   0  0  0  0  0  3  0  0  0  0  0  0
  -28.3770  -26.1360   22.3370 C   0  0  0  0  0  3  0  0  0  0  0  0
  -28.3490  -24.0090   21.0790 C   0  0  0  0  0  0  0  0  0  0  0  0
  -28.3450  -25.5040   21.0690 C   0  0  0  0  0  0  0  0  0  0  0  0
  -27.2440  -22.4930   19.3310 C   0  0  0  0  0  1  0  0  0  0  0  0
  -28.5990  -22.9020   19.9410 C   0  0  0  0  0  3  0  0  0  0  0  0
  -29.4000  -21.5580   20.4090 C   0  0  0  0  0  0  0  0  0  0  0  0
  -29.1510  -20.2730   19.9460 N   0  0  0  0  0  0  0  0  0  0  0  0
  -30.2670  -21.6920   21.2740 O   0  0  0  0  0  0  0  0  0  0  0  0
  -28.4960  -20.2110   19.1780 H   0  0  0  0  0  0  0  0  0  0  0  0
  -29.4550  -18.9470   20.6530 C   0  0  0  0  0  3  0  0  0  0  0  0
  -29.9040  -17.5960   19.8810 C   0  0  0  0  0  3  0  0  0  0  0  0
  -29.8610  -16.2060   20.7130 C   0  0  0  0  0  2  0  0  0  0  0  0
  -30.6000  -14.8800   20.2010 C   0  0  0  0  0  0  0  0  0  0  0  0
  -30.4390  -12.5760   19.2290 C   0  0  0  0  0  2  0  0  0  0  0  0
  -29.4920  -12.6260   18.0090 C   0  0  0  0  0  2  0  0  0  0  0  0
  -28.0310  -12.4280   18.4510 C   0  0  0  0  0  2  0  0  0  0  0  0
  -27.6490  -13.3290   19.6590 C   0  0  0  0  0  3  0  0  0  0  0  0
  -28.7170  -13.2780   20.7720 C   0  0  0  0  0  2  0  0  0  0  0  0
  -30.0090  -13.6350   20.1720 N   0  0  0  0  0  0  0  0  0  0  0  0
  -31.7430  -15.0080   19.7560 O   0  0  0  0  0  0  0  0  0  0  0  0
  -25.2430  -13.8750   20.3710 C   0  0  0  0  0  0  0  0  0  0  0  0
  -24.1980  -13.0820   20.7630 C   0  0  0  0  0  0  0  0  0  0  0  0
  -24.6990  -11.7450   20.7660 C   0  0  0  0  0  0  0  0  0  0  0  0
  -26.3120  -13.0200   20.1610 N   0  0  0  0  0  0  0  0  0  0  0  0
  -25.9910  -11.7360   20.4620 N   0  0  0  0  0  0  0  0  0  0  0  0
  -24.0090  -10.4660   20.9880 C   0  0  0  0  0  0  0  0  0  0  0  0
  -24.4260   -9.5650   21.9920 C   0  0  0  0  0  3  0  0  0  0  0  0
  -23.7310   -8.3550   22.2010 C   0  0  0  0  0  3  0  0  0  0  0  0
  -22.6050   -8.0360   21.4050 C   0  0  0  0  0  0  0  0  0  0  0  0
  -22.2080   -8.9240   20.3930 C   0  0  0  0  0  3  0  0  0  0  0  0
  -22.9030  -10.1280   20.1820 C   0  0  0  0  0  3  0  0  0  0  0  0
  -21.8870   -6.8690   21.5180 O   0  0  0  0  0  0  0  0  0  0  0  0
  -21.7560   -6.2200   22.7170 C   0  0  0  0  0  0  0  0  0  0  0  0
  -21.1720   -6.8420   23.8430 C   0  0  0  0  0  3  0  0  0  0  0  0
  -20.9930   -6.1130   25.0360 C   0  0  0  0  0  3  0  0  0  0  0  0
  -21.3870   -4.7630   25.1040 C   0  0  0  0  0  0  0  0  0  0  0  0
  -21.9610   -4.1400   23.9800 C   0  0  0  0  0  3  0  0  0  0  0  0
  -22.1400   -4.8660   22.7910 C   0  0  0  0  0  0  0  0  0  0  0  0
  -22.6740   -4.2550   21.7060 F   0  0  0  0  0  0  0  0  0  0  0  0
  -21.2080   -4.0610   26.2460 F   0  0  0  0  0  0  0  0  0  0  0  0
  -22.7880  -13.5280   21.0250 C   0  0  0  0  0  0  0  0  0  0  0  0
  -22.0870  -12.8360   21.9180 N   0  0  0  0  0  0  0  0  0  0  0  0
  -22.3190  -14.5210   20.4720 O   0  0  0  0  0  0  0  0  0  0  0  0
  -22.4820  -12.0300   22.3790 H   0  0  0  0  0  0  0  0  0  0  0  0
  -21.1420  -13.1150   22.1410 H   0  0  0  0  0  0  0  0  0  0  0  0
  -25.3660  -15.2450   20.1560 N   0  0  0  0  0  0  0  0  0  0  0  0
  -24.5790  -15.8740   20.2620 H   0  0  0  0  0  0  0  0  0  0  0  0
  -26.2090  -15.7140   19.8460 H   0  0  0  0  0  0  0  0  0  0  0  0
  -28.3110  -26.4820   20.0270 O   0  0  0  0  0  0  0  0  0  0  0  0
  -24.6210  -31.9330   23.1700 C   0  0  0  0  0  0  0  0  0  0  0  0
  -27.2470  -27.4240   20.0080 C   0  0  0  0  0  0  0  0  0  0  0  0
  -23.4150  -30.5450   21.5230 C   0  0  0  0  0  3  0  0  0  0  0  0
  -24.8660  -29.0400   20.0390 C   0  0  0  0  0  0  0  0  0  0  0  0
  -25.9450  -30.8960   21.3080 C   0  0  0  0  0  2  0  0  0  0  0  0
  -26.0360  -29.5230   20.6410 C   0  0  0  0  0  0  0  0  0  0  0  0
  -27.2270  -28.7250   20.6210 C   0  0  0  0  0  3  0  0  0  0  0  0
  -26.0620  -27.0180   19.3660 C   0  0  0  0  0  3  0  0  0  0  0  0
  -24.8840  -27.7940   19.3920 C   0  0  0  0  0  3  0  0  0  0  0  0
  -23.6150  -29.8950   20.1270 C   0  0  0  0  0  2  0  0  0  0  0  0
  -24.6790  -31.1430   22.0550 N   0  0  0  0  0  0  0  0  0  0  0  0
  -23.5410  -32.1840   23.7240 O   0  0  0  0  0  0  0  0  0  0  0  0
  -22.7780  -29.5050   22.4770 C   0  0  0  0  0  0  0  0  0  0  0  0
  -21.4510  -29.3070   22.3640 N   0  0  0  0  0  0  0  0  0  0  0  0
  -23.4750  -28.8800   23.2790 O   0  0  0  0  0  0  0  0  0  0  0  0
  -20.9420  -29.8580   21.6870 H   0  0  0  0  0  0  0  0  0  0  0  0
  -18.1080  -28.0460   22.8990 C   0  0  0  0  0  0  0  0  0  0  0  0
  -20.6660  -28.3410   23.1340 C   0  0  0  0  0  3  0  0  0  0  0  0
  -20.7820  -26.9230   22.5260 C   0  0  0  0  0  2  0  0  0  0  0  0
  -19.6670  -26.6030   21.5250 C   0  0  0  0  0  2  0  0  0  0  0  0
  -18.2930  -26.7140   22.1940 C   0  0  0  0  0  2  0  0  0  0  0  0
  -19.2200  -28.8170   23.3280 C   0  0  0  0  0  0  0  0  0  0  0  0
  -18.9890  -30.0640   23.9470 C   0  0  0  0  0  3  0  0  0  0  0  0
  -17.6780  -30.5360   24.1490 C   0  0  0  0  0  3  0  0  0  0  0  0
  -16.5800  -29.7610   23.7380 C   0  0  0  0  0  3  0  0  0  0  0  0
  -16.7980  -28.5190   23.1160 C   0  0  0  0  0  3  0  0  0  0  0  0
  -25.9020  -32.5740   23.7850 C   0  0  0  0  0  3  0  0  0  0  0  0
  -25.5830  -33.9680   24.1260 N   0  0  0  0  0  0  0  0  0  0  0  0
  -25.9170  -35.0320   23.3830 C   0  0  0  0  0  0  0  0  0  0  0  0
  -26.5950  -34.9440   22.3570 O   0  0  0  0  0  0  0  0  0  0  0  0
  -24.9810  -34.1100   24.9240 H   0  0  0  0  0  0  0  0  0  0  0  0
  -24.1970  -36.8340   23.0250 C   0  0  0  0  0  1  0  0  0  0  0  0
  -25.4210  -36.4140   23.8540 C   0  0  0  0  0  3  0  0  0  0  0  0
  -27.5340  -37.2890   24.7440 C   0  0  0  0  0  1  0  0  0  0  0  0
  -26.4550  -37.4680   23.7770 N   0  0  0  0  0  0  0  0  0  0  0  0
  -26.0450  -38.3860   23.9240 H   0  0  0  0  0  0  0  0  0  0  0  0
  -26.4360  -31.8010   25.0540 C   0  0  1  0  0  0  0  0  0  0  0  0
  -25.3490  -31.5480   26.1240 C   0  0  0  0  0  1  0  0  0  0  0  0
  -27.0320  -30.4320   24.6510 C   0  0  0  0  0  1  0  0  0  0  0  0
  -27.5820  -32.6030   25.7130 C   0  0  0  0  0  1  0  0  0  0  0  0
  1  2  1  0
  3  1  2  0
  4  2  2  0
  5  3  1  0
  6  5  2  0
  6  4  1  0
  8  7  1  0
  8  9  1  0
  8  5  1  0
  9 11  2  0
 10  9  1  0
 10 13  1  0
 12 10  1  0
 14 13  2  0
 14 15  1  0
 16 15  1  0
 17 22  1  0
 18 19  1  0
 18 17  1  0
 20 19  1  0
 20 27  1  0
 20 21  1  0
 22 16  1  0
 22 21  1  0
 23 16  2  0
 24 25  2  0
 25 26  1  0
 25 44  1  0
 26 29  1  0
 27 24  1  0
 27 28  1  0
 28 26  2  0
 29 30  1  0
 30 31  2  0
 32 35  1  0
 32 31  1  0
 33 32  2  0
 34 33  1  0
 34 29  2  0
 35 36  1  0
 36 41  2  0
 36 37  1  0
 37 38  2  0
 38 39  1  0
 39 43  1  0
 40 39  2  0
 41 40  1  0
 42 41  1  0
 44 45  1  0
 45 48  1  0
 45 47  1  0
 46 44  2  0
 49 50  1  0
 49 24  1  0
 51 49  1  0
 52  6  1  0
 53 64  2  0
 54 52  1  0
 54 59  1  0
 55 63  1  0
 55 65  1  0
 56 62  1  0
 56 58  1  0
 57 63  1  0
 58 57  1  0
 59 58  2  0
 60 61  1  0
 60 54  2  0
 61 56  2  0
 62 55  1  0
 63 53  1  0
 65 67  2  0
 66 65  1  0
 68 66  1  0
 69 78  2  0
 69 74  1  0
 70 66  1  0
 70 74  1  0
 71 70  1  0
 72 73  1  0
 72 71  1  0
 73 69  1  0
 74 75  2  0
 75 76  1  0
 77 76  2  0
 78 77  1  0
 79 53  1  0
 79 80  1  0
 79 89  1  0
 80 83  1  0
 81 85  1  0
 81 80  1  0
 82 81  2  0
 85 84  1  0
 87 85  1  0
 87 88  1  0
 87 86  1  0
 89 92  1  1
 89 90  1  0
 91 89  1  0
M  ISO  4   6 101  15 100  16 100  52 101
M  END
>  <TORSDO>  (70) 
F 21

>  <SCORE>  (70) 
-11.654

>  <name>  (70) 
69

>  <ligand_id>  (70) 
69

>  <original_smiles>  (70) 
[H]c1c([H])c([H])c(C([H])(C(=O)N([H])C([H])([H])C([H])([H])C([H])([H])C(=O)N2C([H])([H])C([H])([H])C([H])([H])C([H])(n3nc(-c4c([H])c([H])c(Oc5c([H])c([H])c(F)c([H])c5F)c([H])c4[H])c(C(=O)N([H])[H])c3N([H])[H])C2([H])[H])C([H])([H])[H])c(Oc2c([H])c([H])c3c(c2[H])C([H])([H])N(C(=O)C([H])(N([H])C(=O)C([H])(N([H])C([H])([H])[H])C([H])([H])[H])C(C([H])([H])[H])(C([H])([H])[H])C([H])([H])[H])C([H])(C(=O)N([H])C2([H])c4c([H])c([H])c([H])c([H])c4C([H])([H])C([H])([H])C2([H])[H])C3([H])[H])c1[H]

>  <smiles>  (70) 
[H]c1c([H])c([H])c(C([H])(C(=O)N([H])C([H])([H])C([H])([H])C([H])([H])C(=O)N2C([H])([H])C([H])([H])C([H])([H])C([H])(n3nc(-c4c([H])c([H])c(Oc5c([H])c([H])c(F)c([H])c5F)c([H])c4[H])c(C(=O)N([H])[H])c3N([H])[H])C2([H])[H])C([H])([H])[H])c(Oc2c([H])c([H])c3c(c2[H])C([H])([H])N(C(=O)C([H])(N([H])C(=O)C([H])(N([H])C([H])([H])[H])C([H])([H])[H])C(C([H])([H])[H])(C([H])([H])[H])C([H])([H])[H])C([H])(C(=O)N([H])C2([H])c4c([H])c([H])c([H])c([H])c4C([H])([H])C([H])([H])C2([H])[H])C3([H])[H])c1[H]

$$$$
70:0:0
     RDKit          3D

 94102  0  0  1  0  0  0  0  0999 V2000
  -29.7370  -21.2400   17.7760 C   0  0  0  0  0  3  0  0  0  0  0  0
  -29.4430  -20.0850   17.0330 C   0  0  0  0  0  3  0  0  0  0  0  0
  -29.6850  -19.9270   19.8270 C   0  0  0  0  0  3  0  0  0  0  0  0
  -29.8430  -21.1800   19.1830 C   0  0  0  0  0  0  0  0  0  0  0  0
  -29.2560  -18.8450   17.6760 C   0  0  0  0  0  0  0  0  0  0  0  0
  -29.3940  -18.7520   19.0890 C   0  0  0  0  0  0  0  0  0  0  0  0
  -28.9120  -17.6420   16.8120 C   0  0  0  0  0  1  0  0  0  0  0  0
  -30.1310  -22.4230   19.9850 C   0  0  0  0  0  0  0  0  0  0  0  0
  -29.6710  -23.5670   19.4620 N   0  0  0  0  0  0  0  0  0  0  0  0
  -30.6930  -22.3650   21.0810 O   0  0  0  0  0  0  0  0  0  0  0  0
  -29.2140  -23.4990   18.5620 H   0  0  0  0  0  0  0  0  0  0  0  0
  -29.7000  -24.8870   20.0930 C   0  0  0  0  0  2  0  0  0  0  0  0
  -28.4600  -25.6890   19.6750 C   0  0  0  0  0  2  0  0  0  0  0  0
  -28.4600  -26.9980   20.2540 O   0  0  0  0  0  0  0  0  0  0  0  0
  -24.6370  -32.0890   23.4420 C   0  0  0  0  0  0  0  0  0  0  0  0
  -27.2740  -27.7090   20.2520 C   0  0  0  0  0  0  0  0  0  0  0  0
  -23.4300  -30.7300   21.7660 C   0  0  0  0  0  3  0  0  0  0  0  0
  -24.8800  -29.2250   20.3070 C   0  0  0  0  0  0  0  0  0  0  0  0
  -25.9590  -31.0800   21.5860 C   0  0  0  0  0  2  0  0  0  0  0  0
  -26.0380  -29.7230   20.9160 C   0  0  0  0  0  0  0  0  0  0  0  0
  -27.2330  -28.9670   20.8960 C   0  0  0  0  0  3  0  0  0  0  0  0
  -26.0930  -27.2330   19.6300 C   0  0  0  0  0  3  0  0  0  0  0  0
  -24.9010  -27.9760   19.6670 C   0  0  0  0  0  3  0  0  0  0  0  0
  -23.6420  -30.0910   20.3690 C   0  0  0  0  0  2  0  0  0  0  0  0
  -24.6940  -31.3130   22.3230 N   0  0  0  0  0  0  0  0  0  0  0  0
  -23.5550  -32.3550   23.9840 O   0  0  0  0  0  0  0  0  0  0  0  0
  -22.7750  -29.6860   22.6980 C   0  0  0  0  0  0  0  0  0  0  0  0
  -21.4580  -29.4780   22.5320 N   0  0  0  0  0  0  0  0  0  0  0  0
  -23.4480  -29.0670   23.5260 O   0  0  0  0  0  0  0  0  0  0  0  0
  -20.9770  -30.0350   21.8390 H   0  0  0  0  0  0  0  0  0  0  0  0
  -18.0950  -28.2150   22.9180 C   0  0  0  0  0  0  0  0  0  0  0  0
  -20.6380  -28.5200   23.2720 C   0  0  0  0  0  3  0  0  0  0  0  0
  -20.7870  -27.0960   22.6900 C   0  0  0  0  0  2  0  0  0  0  0  0
  -19.7230  -26.7570   21.6410 C   0  0  0  0  0  2  0  0  0  0  0  0
  -18.3190  -26.8720   22.2420 C   0  0  0  0  0  2  0  0  0  0  0  0
  -19.1850  -28.9960   23.3880 C   0  0  0  0  0  0  0  0  0  0  0  0
  -18.9240  -30.2510   23.9770 C   0  0  0  0  0  3  0  0  0  0  0  0
  -17.6050  -30.7270   24.1030 C   0  0  0  0  0  3  0  0  0  0  0  0
  -16.5290  -29.9440   23.6510 C   0  0  0  0  0  3  0  0  0  0  0  0
  -16.7750  -28.6900   23.0640 C   0  0  0  0  0  3  0  0  0  0  0  0
  -25.9230  -32.7010   24.0800 C   0  0  0  0  0  3  0  0  0  0  0  0
  -25.6420  -34.1120   24.3760 N   0  0  0  0  0  0  0  0  0  0  0  0
  -26.0120  -35.1380   23.5980 C   0  0  0  0  0  0  0  0  0  0  0  0
  -26.6960  -34.9950   22.5800 O   0  0  0  0  0  0  0  0  0  0  0  0
  -25.0380  -34.2990   25.1630 H   0  0  0  0  0  0  0  0  0  0  0  0
  -24.3350  -36.9630   23.1650 C   0  0  0  0  0  1  0  0  0  0  0  0
  -25.5460  -36.5460   24.0140 C   0  0  0  0  0  3  0  0  0  0  0  0
  -27.6770  -37.4000   24.8870 C   0  0  0  0  0  1  0  0  0  0  0  0
  -26.6080  -37.5720   23.9060 N   0  0  0  0  0  0  0  0  0  0  0  0
  -26.2210  -38.5050   24.0170 H   0  0  0  0  0  0  0  0  0  0  0  0
  -26.3950  -31.9400   25.3780 C   0  0  1  0  0  0  0  0  0  0  0  0
  -25.2720  -31.7330   26.4200 C   0  0  0  0  0  1  0  0  0  0  0  0
  -26.9660  -30.5490   25.0170 C   0  0  0  0  0  1  0  0  0  0  0  0
  -27.5430  -32.7240   26.0550 C   0  0  0  0  0  1  0  0  0  0  0  0
  -29.1790  -17.4160   19.8030 C   0  0  0  0  0  2  0  0  0  0  0  0
  -30.0970  -17.0940   21.0060 C   0  0  0  0  0  2  0  0  0  0  0  0
  -30.6990  -14.7160   20.6610 C   0  0  0  0  0  0  0  0  0  0  0  0
  -30.4300  -12.6200   19.4030 C   0  0  0  0  0  2  0  0  0  0  0  0
  -29.4920  -12.8840   18.2070 C   0  0  0  0  0  2  0  0  0  0  0  0
  -28.0210  -12.6960   18.6210 C   0  0  0  0  0  2  0  0  0  0  0  0
  -27.6630  -13.4690   19.9170 C   0  0  0  0  0  3  0  0  0  0  0  0
  -28.7130  -13.2050   21.0240 C   0  0  0  0  0  2  0  0  0  0  0  0
  -30.0450  -13.5370   20.4860 N   0  0  0  0  0  0  0  0  0  0  0  0
  -31.7800  -14.9790   20.1280 O   0  0  0  0  0  0  0  0  0  0  0  0
  -29.9980  -15.6600   21.3040 N   0  0  0  0  0  0  0  0  0  0  0  0
  -29.1590  -15.3450   21.7720 H   0  0  0  0  0  0  0  0  0  0  0  0
  -25.2330  -13.9970   20.5920 C   0  0  0  0  0  0  0  0  0  0  0  0
  -24.1840  -13.1880   20.9390 C   0  0  0  0  0  0  0  0  0  0  0  0
  -24.6860  -11.8510   20.8990 C   0  0  0  0  0  0  0  0  0  0  0  0
  -26.3080  -13.1510   20.3690 N   0  0  0  0  0  0  0  0  0  0  0  0
  -25.9810  -11.8550   20.6070 N   0  0  0  0  0  0  0  0  0  0  0  0
  -23.9980  -10.5650   21.0690 C   0  0  0  0  0  0  0  0  0  0  0  0
  -24.4280   -9.6160   22.0240 C   0  0  0  0  0  3  0  0  0  0  0  0
  -23.7380   -8.3960   22.1800 C   0  0  0  0  0  3  0  0  0  0  0  0
  -22.6040   -8.1120   21.3830 C   0  0  0  0  0  0  0  0  0  0  0  0
  -22.1920   -9.0500   20.4210 C   0  0  0  0  0  3  0  0  0  0  0  0
  -22.8810  -10.2640   20.2620 C   0  0  0  0  0  3  0  0  0  0  0  0
  -21.8900   -6.9410   21.4480 O   0  0  0  0  0  0  0  0  0  0  0  0
  -21.7990   -6.2150   22.6090 C   0  0  0  0  0  0  0  0  0  0  0  0
  -21.2310   -6.7570   23.7820 C   0  0  0  0  0  3  0  0  0  0  0  0
  -21.0930   -5.9550   24.9330 C   0  0  0  0  0  3  0  0  0  0  0  0
  -21.5130   -4.6120   24.9110 C   0  0  0  0  0  0  0  0  0  0  0  0
  -22.0740   -4.0690   23.7420 C   0  0  0  0  0  3  0  0  0  0  0  0
  -22.2140   -4.8680   22.5930 C   0  0  0  0  0  0  0  0  0  0  0  0
  -22.7360   -4.3350   21.4630 F   0  0  0  0  0  0  0  0  0  0  0  0
  -21.3740   -3.8400   26.0140 F   0  0  0  0  0  0  0  0  0  0  0  0
  -22.7690  -13.6170   21.2000 C   0  0  0  0  0  0  0  0  0  0  0  0
  -22.0530  -12.8830   22.0430 N   0  0  0  0  0  0  0  0  0  0  0  0
  -22.3090  -14.6400   20.6940 O   0  0  0  0  0  0  0  0  0  0  0  0
  -22.4390  -12.0560   22.4740 H   0  0  0  0  0  0  0  0  0  0  0  0
  -21.1050  -13.1530   22.2630 H   0  0  0  0  0  0  0  0  0  0  0  0
  -25.3600  -15.3730   20.4270 N   0  0  0  0  0  0  0  0  0  0  0  0
  -24.5700  -16.0020   20.5160 H   0  0  0  0  0  0  0  0  0  0  0  0
  -26.1980  -15.8310   20.0980 H   0  0  0  0  0  0  0  0  0  0  0  0
  1  4  1  0
  2  5  1  0
  2  1  2  0
  4  3  2  0
  4  8  1  0
  5  6  2  0
  6 55  1  0
  6  3  1  0
  7  5  1  0
  8 10  2  0
  9  8  1  0
  9 12  1  0
 11  9  1  0
 13 12  1  0
 13 14  1  0
 15 26  2  0
 16 14  1  0
 16 21  1  0
 17 25  1  0
 17 27  1  0
 18 24  1  0
 18 20  1  0
 19 25  1  0
 20 19  1  0
 21 20  2  0
 22 23  1  0
 22 16  2  0
 23 18  2  0
 24 17  1  0
 25 15  1  0
 27 29  2  0
 28 27  1  0
 30 28  1  0
 31 40  2  0
 31 36  1  0
 32 28  1  0
 32 36  1  0
 33 32  1  0
 34 35  1  0
 34 33  1  0
 35 31  1  0
 36 37  2  0
 37 38  1  0
 39 38  2  0
 40 39  1  0
 41 15  1  0
 41 42  1  0
 41 51  1  0
 42 45  1  0
 43 47  1  0
 43 42  1  0
 44 43  2  0
 47 46  1  0
 49 47  1  0
 49 50  1  0
 49 48  1  0
 51 54  1  1
 51 52  1  0
 53 51  1  0
 55 56  1  0
 56 65  1  0
 57 65  1  0
 58 63  1  0
 59 60  1  0
 59 58  1  0
 61 60  1  0
 61 70  1  0
 61 62  1  0
 63 57  1  0
 63 62  1  0
 64 57  2  0
 65 66  1  0
 67 68  2  0
 68 87  1  0
 69 68  1  0
 69 72  1  0
 70 67  1  0
 70 71  1  0
 71 69  2  0
 72 73  1  0
 73 74  2  0
 75 78  1  0
 75 74  1  0
 76 75  2  0
 77 76  1  0
 77 72  2  0
 78 79  1  0
 79 80  1  0
 80 81  2  0
 82 81  1  0
 82 86  1  0
 83 82  2  0
 84 79  2  0
 84 83  1  0
 85 84  1  0
 87 88  1  0
 88 91  1  0
 88 90  1  0
 89 87  2  0
 92 93  1  0
 92 67  1  0
 94 92  1  0
M  ISO  4  13 101  14 101  57 100  65 100
M  END
>  <TORSDO>  (71) 
F 21

>  <SCORE>  (71) 
-12.596

>  <name>  (71) 
70

>  <ligand_id>  (71) 
70

>  <original_smiles>  (71) 
[H]c1c([H])c([H])c2c(c1[H])C([H])([H])C([H])([H])C([H])([H])C2([H])N([H])C(=O)C1([H])N(C(=O)C([H])(N([H])C(=O)C([H])(N([H])C([H])([H])[H])C([H])([H])[H])C(C([H])([H])[H])(C([H])([H])[H])C([H])([H])[H])C([H])([H])c2c([H])c(OC([H])([H])C([H])([H])N([H])C(=O)c3c([H])c([H])c(C([H])([H])[H])c(C([H])([H])C([H])([H])N([H])C(=O)N4C([H])([H])C([H])([H])C([H])([H])C([H])(n5nc(-c6c([H])c([H])c(Oc7c([H])c([H])c(F)c([H])c7F)c([H])c6[H])c(C(=O)N([H])[H])c5N([H])[H])C4([H])[H])c3[H])c([H])c([H])c2C1([H])[H]

>  <smiles>  (71) 
[H]c1c([H])c([H])c2c(c1[H])C([H])([H])C([H])([H])C([H])([H])C2([H])N([H])C(=O)C1([H])N(C(=O)C([H])(N([H])C(=O)C([H])(N([H])C([H])([H])[H])C([H])([H])[H])C(C([H])([H])[H])(C([H])([H])[H])C([H])([H])[H])C([H])([H])c2c([H])c(OC([H])([H])C([H])([H])N([H])C(=O)c3c([H])c([H])c(C([H])([H])[H])c(C([H])([H])C([H])([H])N([H])C(=O)N4C([H])([H])C([H])([H])C([H])([H])C([H])(n5nc(-c6c([H])c([H])c(Oc7c([H])c([H])c(F)c([H])c7F)c([H])c6[H])c(C(=O)N([H])[H])c5N([H])[H])C4([H])[H])c3[H])c([H])c([H])c2C1([H])[H]

$$$$
71:0:0
     RDKit          3D

 88 96  0  0  1  0  0  0  0  0999 V2000
  -29.1740  -21.4800   22.3350 C   0  0  0  0  0  3  0  0  0  0  0  0
  -29.4300  -20.2380   21.6870 C   0  0  0  0  0  3  0  0  0  0  0  0
  -28.8530  -22.7030   21.6780 C   0  0  0  0  0  3  0  0  0  0  0  0
  -29.4130  -20.0760   20.2860 C   0  0  0  0  0  0  0  0  0  0  0  0
  -28.7410  -22.8280   20.2770 C   0  0  0  0  0  0  0  0  0  0  0  0
  -29.0470  -21.4430   19.6250 C   0  0  0  0  0  0  0  0  0  0  0  0
  -28.9710  -21.4190   18.1130 C   0  0  0  0  0  1  0  0  0  0  0  0
  -29.9200  -18.4920   19.6640 C   0  0  0  0  0  2  0  0  0  0  0  0
  -30.5970  -15.5870   19.9470 C   0  0  0  0  0  0  0  0  0  0  0  0
  -30.5780  -13.1190   19.0960 C   0  0  0  0  0  2  0  0  0  0  0  0
  -29.6180  -12.8820   17.9010 C   0  0  0  0  0  2  0  0  0  0  0  0
  -28.1960  -12.5820   18.4000 C   0  0  0  0  0  2  0  0  0  0  0  0
  -27.7730  -13.5430   19.5380 C   0  0  0  0  0  3  0  0  0  0  0  0
  -28.8610  -13.7260   20.6210 C   0  0  0  0  0  2  0  0  0  0  0  0
  -30.0550  -14.2610   19.9430 N   0  0  0  0  0  0  0  0  0  0  0  0
  -31.7900  -15.5910   19.6040 O   0  0  0  0  0  0  0  0  0  0  0  0
  -29.8380  -16.8660   20.1310 N   0  0  0  0  0  0  0  0  0  0  0  0
  -28.9180  -16.6560   20.4900 H   0  0  0  0  0  0  0  0  0  0  0  0
  -25.4370  -14.0670   20.4090 C   0  0  0  0  0  0  0  0  0  0  0  0
  -24.3990  -13.2760   20.8140 C   0  0  0  0  0  0  0  0  0  0  0  0
  -24.8730  -11.9290   20.7380 C   0  0  0  0  0  0  0  0  0  0  0  0
  -26.4730  -13.2030   20.1020 N   0  0  0  0  0  0  0  0  0  0  0  0
  -26.1500  -11.9110   20.3680 N   0  0  0  0  0  0  0  0  0  0  0  0
  -24.1630  -10.6590   20.9400 C   0  0  0  0  0  0  0  0  0  0  0  0
  -24.6020   -9.7070   21.8870 C   0  0  0  0  0  3  0  0  0  0  0  0
  -23.8870   -8.5040   22.0770 C   0  0  0  0  0  3  0  0  0  0  0  0
  -22.7200   -8.2440   21.3210 C   0  0  0  0  0  0  0  0  0  0  0  0
  -22.3010   -9.1840   20.3630 C   0  0  0  0  0  3  0  0  0  0  0  0
  -23.0160  -10.3780   20.1700 C   0  0  0  0  0  3  0  0  0  0  0  0
  -21.9770   -7.0920   21.4190 O   0  0  0  0  0  0  0  0  0  0  0  0
  -21.8880   -6.3910   22.5940 C   0  0  0  0  0  0  0  0  0  0  0  0
  -21.3480   -6.9660   23.7660 C   0  0  0  0  0  3  0  0  0  0  0  0
  -21.2110   -6.1890   24.9330 C   0  0  0  0  0  3  0  0  0  0  0  0
  -21.6040   -4.8370   24.9300 C   0  0  0  0  0  0  0  0  0  0  0  0
  -22.1360   -4.2610   23.7630 C   0  0  0  0  0  3  0  0  0  0  0  0
  -22.2740   -5.0360   22.5980 C   0  0  0  0  0  0  0  0  0  0  0  0
  -22.7680   -4.4690   21.4710 F   0  0  0  0  0  0  0  0  0  0  0  0
  -21.4650   -4.0880   26.0490 F   0  0  0  0  0  0  0  0  0  0  0  0
  -23.0110  -13.7380   21.1500 C   0  0  0  0  0  0  0  0  0  0  0  0
  -22.3310  -13.0330   22.0450 N   0  0  0  0  0  0  0  0  0  0  0  0
  -22.5430  -14.7620   20.6540 O   0  0  0  0  0  0  0  0  0  0  0  0
  -22.7250  -12.2060   22.4690 H   0  0  0  0  0  0  0  0  0  0  0  0
  -21.4010  -13.3250   22.3120 H   0  0  0  0  0  0  0  0  0  0  0  0
  -25.5800  -15.4410   20.2450 N   0  0  0  0  0  0  0  0  0  0  0  0
  -24.8090  -16.0830   20.3940 H   0  0  0  0  0  0  0  0  0  0  0  0
  -26.3950  -15.8890   19.8470 H   0  0  0  0  0  0  0  0  0  0  0  0
  -28.1370  -24.3830   19.6730 C   0  0  0  0  0  2  0  0  0  0  0  0
  -28.2450  -25.9760   20.1650 O   0  0  0  0  0  0  0  0  0  0  0  0
  -24.6210  -31.9270   23.1530 C   0  0  0  0  0  0  0  0  0  0  0  0
  -27.2400  -27.0930   20.0630 C   0  0  0  0  0  0  0  0  0  0  0  0
  -23.4460  -30.5340   21.5000 C   0  0  0  0  0  3  0  0  0  0  0  0
  -24.9160  -28.9670   20.0460 C   0  0  0  0  0  0  0  0  0  0  0  0
  -26.0100  -30.7730   21.3550 C   0  0  0  0  0  2  0  0  0  0  0  0
  -26.0980  -29.3700   20.6770 C   0  0  0  0  0  0  0  0  0  0  0  0
  -27.2490  -28.4530   20.6650 C   0  0  0  0  0  3  0  0  0  0  0  0
  -26.0300  -26.8610   19.3690 C   0  0  0  0  0  3  0  0  0  0  0  0
  -24.9090  -27.7350   19.3710 C   0  0  0  0  0  3  0  0  0  0  0  0
  -23.6830  -29.8710   20.1140 C   0  0  0  0  0  2  0  0  0  0  0  0
  -24.7150  -31.1060   22.0560 N   0  0  0  0  0  0  0  0  0  0  0  0
  -23.5300  -32.1960   23.6790 O   0  0  0  0  0  0  0  0  0  0  0  0
  -22.7670  -29.5190   22.4560 C   0  0  0  0  0  0  0  0  0  0  0  0
  -21.4440  -29.3100   22.3100 N   0  0  0  0  0  0  0  0  0  0  0  0
  -23.4380  -28.9170   23.2980 O   0  0  0  0  0  0  0  0  0  0  0  0
  -20.9540  -29.8470   21.6080 H   0  0  0  0  0  0  0  0  0  0  0  0
  -18.1000  -27.9700   22.7550 C   0  0  0  0  0  0  0  0  0  0  0  0
  -20.6410  -28.3450   23.0700 C   0  0  0  0  0  3  0  0  0  0  0  0
  -20.8130  -26.9140   22.5080 C   0  0  0  0  0  2  0  0  0  0  0  0
  -19.7480  -26.5400   21.4720 C   0  0  0  0  0  2  0  0  0  0  0  0
  -18.3480  -26.6280   22.0870 C   0  0  0  0  0  2  0  0  0  0  0  0
  -19.1770  -28.7830   23.2020 C   0  0  0  0  0  0  0  0  0  0  0  0
  -18.8900  -30.0340   23.7900 C   0  0  0  0  0  3  0  0  0  0  0  0
  -17.5610  -30.4760   23.9330 C   0  0  0  0  0  3  0  0  0  0  0  0
  -16.4990  -29.6630   23.4990 C   0  0  0  0  0  3  0  0  0  0  0  0
  -16.7690  -28.4120   22.9170 C   0  0  0  0  0  3  0  0  0  0  0  0
  -25.8840  -32.5830   23.7910 C   0  0  0  0  0  3  0  0  0  0  0  0
  -25.5520  -33.9800   24.1250 N   0  0  0  0  0  0  0  0  0  0  0  0
  -25.8850  -35.0480   23.3880 C   0  0  0  0  0  0  0  0  0  0  0  0
  -26.5690  -34.9610   22.3650 O   0  0  0  0  0  0  0  0  0  0  0  0
  -24.9430  -34.1200   24.9180 H   0  0  0  0  0  0  0  0  0  0  0  0
  -24.1640  -36.8510   23.0290 C   0  0  0  0  0  1  0  0  0  0  0  0
  -25.3880  -36.4320   23.8580 C   0  0  0  0  0  3  0  0  0  0  0  0
  -27.4950  -37.3190   24.7580 C   0  0  0  0  0  1  0  0  0  0  0  0
  -26.4210  -37.4870   23.7820 N   0  0  0  0  0  0  0  0  0  0  0  0
  -26.0090  -38.4060   23.9210 H   0  0  0  0  0  0  0  0  0  0  0  0
  -26.3890  -31.8260   25.0820 C   0  0  1  0  0  0  0  0  0  0  0  0
  -25.2800  -31.5670   26.1280 C   0  0  0  0  0  1  0  0  0  0  0  0
  -27.0090  -30.4590   24.7130 C   0  0  0  0  0  1  0  0  0  0  0  0
  -27.5090  -32.6440   25.7650 C   0  0  0  0  0  1  0  0  0  0  0  0
  2  1  1  0
  3  1  2  0
  4  2  2  0
  5  3  1  0
  6  5  2  0
  6  4  1  0
  7  6  1  0
  8 17  1  0
  8  4  1  0
  9 17  1  0
 10 15  1  0
 11 12  1  0
 11 10  1  0
 13 12  1  0
 13 22  1  0
 13 14  1  0
 15  9  1  0
 15 14  1  0
 16  9  2  0
 17 18  1  0
 19 20  2  0
 20 39  1  0
 21 20  1  0
 21 24  1  0
 22 23  1  0
 22 19  1  0
 23 21  2  0
 24 25  1  0
 25 26  2  0
 27 30  1  0
 27 26  1  0
 28 27  2  0
 29 28  1  0
 29 24  2  0
 30 31  1  0
 31 36  2  0
 31 32  1  0
 32 33  2  0
 34 33  1  0
 34 38  1  0
 35 34  2  0
 36 35  1  0
 37 36  1  0
 39 40  1  0
 40 43  1  0
 40 42  1  0
 41 39  2  0
 44 45  1  0
 44 19  1  0
 46 44  1  0
 47 48  1  0
 47  5  1  0
 49 60  2  0
 50 48  1  0
 50 55  1  0
 51 59  1  0
 51 61  1  0
 52 58  1  0
 52 54  1  0
 53 59  1  0
 54 53  1  0
 55 54  2  0
 56 57  1  0
 56 50  2  0
 57 52  2  0
 58 51  1  0
 59 49  1  0
 61 63  2  0
 62 61  1  0
 64 62  1  0
 65 74  2  0
 65 70  1  0
 66 62  1  0
 66 70  1  0
 67 66  1  0
 68 69  1  0
 68 67  1  0
 69 65  1  0
 70 71  2  0
 71 72  1  0
 73 72  2  0
 74 73  1  0
 75 49  1  0
 75 76  1  0
 75 85  1  0
 76 79  1  0
 77 81  1  0
 77 76  1  0
 78 77  2  0
 81 80  1  0
 83 81  1  0
 83 84  1  0
 83 82  1  0
 85 88  1  1
 85 86  1  0
 87 85  1  0
M  ISO  4   9 100  17 100  47 101  48 101
M  END
>  <TORSDO>  (72) 
F 18

>  <SCORE>  (72) 
-16.051

>  <name>  (72) 
71

>  <ligand_id>  (72) 
71

>  <original_smiles>  (72) 
[H]c1c([H])c(C([H])([H])Oc2c([H])c([H])c3c(c2[H])C([H])([H])N(C(=O)C([H])(N([H])C(=O)C([H])(N([H])C([H])([H])[H])C([H])([H])[H])C(C([H])([H])[H])(C([H])([H])[H])C([H])([H])[H])C([H])(C(=O)N([H])C2([H])c4c([H])c([H])c([H])c([H])c4C([H])([H])C([H])([H])C2([H])[H])C3([H])[H])c(C([H])([H])[H])c(C([H])([H])N([H])C(=O)N2C([H])([H])C([H])([H])C([H])([H])C([H])(n3nc(-c4c([H])c([H])c(Oc5c([H])c([H])c(F)c([H])c5F)c([H])c4[H])c(C(=O)N([H])[H])c3N([H])[H])C2([H])[H])c1[H]

>  <smiles>  (72) 
[H]c1c([H])c(C([H])([H])Oc2c([H])c([H])c3c(c2[H])C([H])([H])N(C(=O)C([H])(N([H])C(=O)C([H])(N([H])C([H])([H])[H])C([H])([H])[H])C(C([H])([H])[H])(C([H])([H])[H])C([H])([H])[H])C([H])(C(=O)N([H])C2([H])c4c([H])c([H])c([H])c([H])c4C([H])([H])C([H])([H])C2([H])[H])C3([H])[H])c(C([H])([H])[H])c(C([H])([H])N([H])C(=O)N2C([H])([H])C([H])([H])C([H])([H])C([H])(n3nc(-c4c([H])c([H])c(Oc5c([H])c([H])c(F)c([H])c5F)c([H])c4[H])c(C(=O)N([H])[H])c3N([H])[H])C2([H])[H])c1[H]

$$$$
72:0:0
     RDKit          3D

 92101  0  0  1  0  0  0  0  0999 V2000
  -28.7620  -22.7560   19.0130 C   0  0  0  0  0  2  0  0  0  0  0  0
  -30.8000  -23.4620   20.3110 C   0  0  0  0  0  2  0  0  0  0  0  0
  -28.6460  -24.2830   18.6270 C   0  0  0  0  0  2  0  0  0  0  0  0
  -30.3690  -24.9700   20.3340 C   0  0  0  0  0  2  0  0  0  0  0  0
  -29.6120  -22.4740   20.2800 C   0  0  0  0  0  3  0  0  0  0  0  0
  -28.9510  -25.2940   19.7760 C   0  0  0  0  0  3  0  0  0  0  0  0
  -30.3190  -19.4680   22.5870 C   0  0  0  0  0  3  0  0  0  0  0  0
  -30.0210  -20.7430   22.0730 C   0  0  0  0  0  3  0  0  0  0  0  0
  -30.5710  -18.3880   21.7250 C   0  0  0  0  0  3  0  0  0  0  0  0
  -30.2170  -19.8740   19.8120 C   0  0  0  0  0  3  0  0  0  0  0  0
  -29.9530  -20.9910   20.6840 C   0  0  0  0  0  0  0  0  0  0  0  0
  -30.5290  -18.5590   20.3260 C   0  0  0  0  0  0  0  0  0  0  0  0
  -30.8720  -17.3350   19.4170 C   0  0  0  0  0  2  0  0  0  0  0  0
  -31.2960  -14.8260   19.7210 C   0  0  0  0  0  0  0  0  0  0  0  0
  -30.9950  -12.5060   18.9060 C   0  0  0  0  0  2  0  0  0  0  0  0
  -30.0110  -12.5390   17.7170 C   0  0  0  0  0  2  0  0  0  0  0  0
  -28.5550  -12.4470   18.2150 C   0  0  0  0  0  2  0  0  0  0  0  0
  -28.2550  -13.4310   19.3780 C   0  0  0  0  0  3  0  0  0  0  0  0
  -29.3550  -13.3800   20.4630 C   0  0  0  0  0  2  0  0  0  0  0  0
  -30.6440  -13.6260   19.8010 N   0  0  0  0  0  0  0  0  0  0  0  0
  -32.4470  -14.9050   19.2830 O   0  0  0  0  0  0  0  0  0  0  0  0
  -30.5450  -15.9520   19.9060 N   0  0  0  0  0  0  0  0  0  0  0  0
  -29.6030  -15.8040   20.2300 H   0  0  0  0  0  0  0  0  0  0  0  0
  -25.9460  -14.1440   20.2520 C   0  0  0  0  0  0  0  0  0  0  0  0
  -24.8630  -13.4220   20.6740 C   0  0  0  0  0  0  0  0  0  0  0  0
  -25.2480  -12.0480   20.5930 C   0  0  0  0  0  0  0  0  0  0  0  0
  -26.9250  -13.2130   19.9400 N   0  0  0  0  0  0  0  0  0  0  0  0
  -26.5130  -11.9460   20.2050 N   0  0  0  0  0  0  0  0  0  0  0  0
  -24.4660  -10.8230   20.8060 C   0  0  0  0  0  0  0  0  0  0  0  0
  -24.8370   -9.8700   21.7790 C   0  0  0  0  0  3  0  0  0  0  0  0
  -24.0590   -8.7100   21.9780 C   0  0  0  0  0  3  0  0  0  0  0  0
  -22.8950   -8.4940   21.2040 C   0  0  0  0  0  0  0  0  0  0  0  0
  -22.5420   -9.4350   20.2200 C   0  0  0  0  0  3  0  0  0  0  0  0
  -23.3200  -10.5870   20.0190 C   0  0  0  0  0  3  0  0  0  0  0  0
  -22.0920   -7.3850   21.3090 O   0  0  0  0  0  0  0  0  0  0  0  0
  -21.9040   -6.7440   22.5080 C   0  0  0  0  0  0  0  0  0  0  0  0
  -21.3820   -7.4140   23.6360 C   0  0  0  0  0  3  0  0  0  0  0  0
  -21.1390   -6.7010   24.8270 C   0  0  0  0  0  3  0  0  0  0  0  0
  -21.4060   -5.3200   24.8910 C   0  0  0  0  0  0  0  0  0  0  0  0
  -21.9200   -4.6500   23.7660 C   0  0  0  0  0  3  0  0  0  0  0  0
  -22.1650   -5.3600   22.5770 C   0  0  0  0  0  0  0  0  0  0  0  0
  -22.6390   -4.7060   21.4900 F   0  0  0  0  0  0  0  0  0  0  0  0
  -21.1660   -4.6340   26.0320 F   0  0  0  0  0  0  0  0  0  0  0  0
  -23.5120  -13.9680   21.0380 C   0  0  0  0  0  0  0  0  0  0  0  0
  -22.8140  -13.3130   21.9600 N   0  0  0  0  0  0  0  0  0  0  0  0
  -23.0880  -15.0100   20.5400 O   0  0  0  0  0  0  0  0  0  0  0  0
  -23.1720  -12.4700   22.3840 H   0  0  0  0  0  0  0  0  0  0  0  0
  -21.9100  -13.6600   22.2450 H   0  0  0  0  0  0  0  0  0  0  0  0
  -26.1750  -15.5070   20.0860 N   0  0  0  0  0  0  0  0  0  0  0  0
  -25.4540  -16.1990   20.2550 H   0  0  0  0  0  0  0  0  0  0  0  0
  -27.0200  -15.9070   19.7000 H   0  0  0  0  0  0  0  0  0  0  0  0
  -28.8780  -26.7200   19.4050 O   0  0  0  0  0  0  0  0  0  0  0  0
  -24.6630  -31.4220   22.8410 C   0  0  0  0  0  0  0  0  0  0  0  0
  -27.6530  -27.3880   19.4540 C   0  0  0  0  0  0  0  0  0  0  0  0
  -23.5630  -30.0070   21.1400 C   0  0  0  0  0  3  0  0  0  0  0  0
  -25.1270  -28.7060   19.5920 C   0  0  0  0  0  0  0  0  0  0  0  0
  -26.0440  -30.6140   20.9170 C   0  0  0  0  0  2  0  0  0  0  0  0
  -26.2500  -29.2940   20.1870 C   0  0  0  0  0  0  0  0  0  0  0  0
  -27.5150  -28.6490   20.1040 C   0  0  0  0  0  3  0  0  0  0  0  0
  -26.5050  -26.8360   18.8470 C   0  0  0  0  0  3  0  0  0  0  0  0
  -25.2540  -27.4800   18.9130 C   0  0  0  0  0  3  0  0  0  0  0  0
  -23.8070  -29.4360   19.7170 C   0  0  0  0  0  2  0  0  0  0  0  0
  -24.7760  -30.6960   21.6910 N   0  0  0  0  0  0  0  0  0  0  0  0
  -23.5730  -31.5520   23.4160 O   0  0  0  0  0  0  0  0  0  0  0  0
  -23.0380  -28.8710   22.0510 C   0  0  0  0  0  0  0  0  0  0  0  0
  -21.7450  -28.5380   21.9130 N   0  0  0  0  0  0  0  0  0  0  0  0
  -23.7930  -28.2950   22.8390 O   0  0  0  0  0  0  0  0  0  0  0  0
  -21.1880  -29.0640   21.2520 H   0  0  0  0  0  0  0  0  0  0  0  0
  -18.5710  -26.8380   22.2580 C   0  0  0  0  0  0  0  0  0  0  0  0
  -21.0500  -27.4710   22.6340 C   0  0  0  0  0  3  0  0  0  0  0  0
  -21.3880  -26.0840   22.0390 C   0  0  0  0  0  2  0  0  0  0  0  0
  -20.3850  -25.6220   20.9770 C   0  0  0  0  0  2  0  0  0  0  0  0
  -18.9750  -25.5450   21.5670 C   0  0  0  0  0  2  0  0  0  0  0  0
  -19.5460  -27.7490   22.7440 C   0  0  0  0  0  0  0  0  0  0  0  0
  -19.1180  -28.9510   23.3460 C   0  0  0  0  0  3  0  0  0  0  0  0
  -17.7470  -29.2470   23.4690 C   0  0  0  0  0  3  0  0  0  0  0  0
  -16.7870  -28.3350   22.9980 C   0  0  0  0  0  3  0  0  0  0  0  0
  -17.1990  -27.1320   22.3980 C   0  0  0  0  0  3  0  0  0  0  0  0
  -25.8920  -32.1460   23.4750 C   0  0  0  0  0  3  0  0  0  0  0  0
  -25.4370  -33.4570   23.9550 N   0  0  0  0  0  0  0  0  0  0  0  0
  -25.6530  -34.6170   23.3200 C   0  0  0  0  0  0  0  0  0  0  0  0
  -26.3270  -34.7000   22.2900 O   0  0  0  0  0  0  0  0  0  0  0  0
  -24.8330  -33.4580   24.7640 H   0  0  0  0  0  0  0  0  0  0  0  0
  -23.7480  -36.2520   23.1480 C   0  0  0  0  0  1  0  0  0  0  0  0
  -25.0230  -35.8870   23.9260 C   0  0  0  0  0  3  0  0  0  0  0  0
  -27.0520  -36.8850   24.8790 C   0  0  0  0  0  1  0  0  0  0  0  0
  -25.9390  -37.0470   23.9470 N   0  0  0  0  0  0  0  0  0  0  0  0
  -25.4400  -37.8960   24.1960 H   0  0  0  0  0  0  0  0  0  0  0  0
  -26.5600  -31.3260   24.6470 C   0  0  1  0  0  0  0  0  0  0  0  0
  -25.5560  -30.8600   25.7290 C   0  0  0  0  0  1  0  0  0  0  0  0
  -27.2760  -30.0710   24.0960 C   0  0  0  0  0  1  0  0  0  0  0  0
  -27.6440  -32.1870   25.3380 C   0  0  0  0  0  1  0  0  0  0  0  0
  1  5  1  0
  2  4  1  0
  3  1  1  0
  3  6  1  0
  5  2  1  0
  5 11  1  0
  6 52  1  0
  6  4  1  0
  8  7  1  0
  9  7  2  0
 10 12  2  0
 10 11  1  0
 11  8  2  0
 12  9  1  0
 13 22  1  0
 13 12  1  0
 14 20  1  0
 14 22  1  0
 15 20  1  0
 16 17  1  0
 16 15  1  0
 18 17  1  0
 18 27  1  0
 18 19  1  0
 20 19  1  0
 21 14  2  0
 22 23  1  0
 24 25  2  0
 25 44  1  0
 26 25  1  0
 26 29  1  0
 27 28  1  0
 27 24  1  0
 28 26  2  0
 29 30  1  0
 30 31  2  0
 32 35  1  0
 32 31  1  0
 33 32  2  0
 34 33  1  0
 34 29  2  0
 35 36  1  0
 36 41  2  0
 36 37  1  0
 37 38  2  0
 38 39  1  0
 39 43  1  0
 40 39  2  0
 41 40  1  0
 42 41  1  0
 44 45  1  0
 45 48  1  0
 45 47  1  0
 46 44  2  0
 49 24  1  0
 49 50  1  0
 51 49  1  0
 52 54  1  0
 53 64  2  0
 54 59  1  0
 55 63  1  0
 55 65  1  0
 56 62  1  0
 56 58  1  0
 57 63  1  0
 58 57  1  0
 59 58  2  0
 60 61  1  0
 60 54  2  0
 61 56  2  0
 62 55  1  0
 63 53  1  0
 65 67  2  0
 66 65  1  0
 68 66  1  0
 69 78  2  0
 69 74  1  0
 70 66  1  0
 70 74  1  0
 71 70  1  0
 72 73  1  0
 72 71  1  0
 73 69  1  0
 74 75  2  0
 75 76  1  0
 77 76  2  0
 78 77  1  0
 79 53  1  0
 79 80  1  0
 79 89  1  0
 80 83  1  0
 81 85  1  0
 81 80  1  0
 82 81  2  0
 85 84  1  0
 85 87  1  0
 87 88  1  0
 87 86  1  0
 89 92  1  1
 89 90  1  0
 91 89  1  0
M  ISO  4   6 101  14 100  22 100  52 101
M  END
>  <TORSDO>  (73) 
F 18

>  <SCORE>  (73) 
-11.570

>  <name>  (73) 
72

>  <ligand_id>  (73) 
72

>  <original_smiles>  (73) 
[H]c1c([H])c([H])c2c(c1[H])C([H])([H])C([H])([H])C([H])([H])C2([H])N([H])C(=O)C1([H])N(C(=O)C([H])(N([H])C(=O)C([H])(N([H])C([H])([H])[H])C([H])([H])[H])C(C([H])([H])[H])(C([H])([H])[H])C([H])([H])[H])C([H])([H])c2c([H])c(OC3([H])C([H])([H])C([H])([H])C([H])(c4c([H])c([H])c([H])c(C([H])([H])N([H])C(=O)N5C([H])([H])C([H])([H])C([H])([H])C([H])(n6nc(-c7c([H])c([H])c(Oc8c([H])c([H])c(F)c([H])c8F)c([H])c7[H])c(C(=O)N([H])[H])c6N([H])[H])C5([H])[H])c4[H])C([H])([H])C3([H])[H])c([H])c([H])c2C1([H])[H]

>  <smiles>  (73) 
[H]c1c([H])c([H])c2c(c1[H])C([H])([H])C([H])([H])C([H])([H])C2([H])N([H])C(=O)C1([H])N(C(=O)C([H])(N([H])C(=O)C([H])(N([H])C([H])([H])[H])C([H])([H])[H])C(C([H])([H])[H])(C([H])([H])[H])C([H])([H])[H])C([H])([H])c2c([H])c(OC3([H])C([H])([H])C([H])([H])C([H])(c4c([H])c([H])c([H])c(C([H])([H])N([H])C(=O)N5C([H])([H])C([H])([H])C([H])([H])C([H])(n6nc(-c7c([H])c([H])c(Oc8c([H])c([H])c(F)c([H])c8F)c([H])c7[H])c(C(=O)N([H])[H])c6N([H])[H])C5([H])[H])c4[H])C([H])([H])C3([H])[H])c([H])c([H])c2C1([H])[H]

$$$$
73:0:0
     RDKit          3D

 92100  0  0  1  0  0  0  0  0999 V2000
  -27.4480  -21.6030   20.2670 C   0  0  0  0  0  0  0  0  0  0  0  0
  -26.7140  -22.0030   19.0050 C   0  0  0  0  0  2  0  0  0  0  0  0
  -27.6970  -22.9650   18.3250 C   0  0  0  0  0  2  0  0  0  0  0  0
  -28.9050  -22.0520   20.1850 C   0  0  0  0  0  3  0  0  0  0  0  0
  -28.7920  -23.2530   19.2930 N   0  0  2  0  0  4  0  0  0  0  0  0
  -26.9030  -21.0120   21.2040 O   0  0  0  0  0  0  0  0  0  0  0  0
  -29.6600  -23.3350   18.7810 H   0  0  0  0  0  0  0  0  0  0  0  0
  -29.7750  -20.8900   19.5900 C   0  0  0  0  0  2  0  0  0  0  0  0
  -30.1360  -19.7400   20.5850 C   0  0  0  0  0  2  0  0  0  0  0  0
  -30.2230  -18.3110   19.9750 C   0  0  0  0  0  2  0  0  0  0  0  0
  -30.8610  -17.2660   20.9370 C   0  0  0  0  0  2  0  0  0  0  0  0
  -31.1280  -14.8570   20.1740 C   0  0  0  0  0  0  0  0  0  0  0  0
  -30.7920  -12.6900   19.0390 C   0  0  0  0  0  2  0  0  0  0  0  0
  -29.8290  -12.8920   17.8500 C   0  0  0  0  0  2  0  0  0  0  0  0
  -28.3600  -12.7890   18.3050 C   0  0  0  0  0  2  0  0  0  0  0  0
  -28.0580  -13.6410   19.5670 C   0  0  0  0  0  3  0  0  0  0  0  0
  -29.1270  -13.4010   20.6570 C   0  0  0  0  0  2  0  0  0  0  0  0
  -30.4450  -13.6850   20.0640 N   0  0  0  0  0  0  0  0  0  0  0  0
  -32.2560  -15.0260   19.7050 O   0  0  0  0  0  0  0  0  0  0  0  0
  -30.4260  -15.8770   20.7070 N   0  0  0  0  0  0  0  0  0  0  0  0
  -29.4980  -15.6410   21.0250 H   0  0  0  0  0  0  0  0  0  0  0  0
  -25.6910  -14.3040   20.3310 C   0  0  0  0  0  0  0  0  0  0  0  0
  -24.6080  -13.5560   20.7070 C   0  0  0  0  0  0  0  0  0  0  0  0
  -25.0310  -12.1940   20.6450 C   0  0  0  0  0  0  0  0  0  0  0  0
  -26.7080  -13.3980   20.0670 N   0  0  0  0  0  0  0  0  0  0  0  0
  -26.3120  -12.1230   20.3120 N   0  0  0  0  0  0  0  0  0  0  0  0
  -24.2720  -10.9480   20.8250 C   0  0  0  0  0  0  0  0  0  0  0  0
  -24.6470   -9.9890   21.7910 C   0  0  0  0  0  3  0  0  0  0  0  0
  -23.8920   -8.8090   21.9590 C   0  0  0  0  0  3  0  0  0  0  0  0
  -22.7460   -8.5790   21.1610 C   0  0  0  0  0  0  0  0  0  0  0  0
  -22.3910   -9.5260   20.1840 C   0  0  0  0  0  3  0  0  0  0  0  0
  -23.1480  -10.6990   20.0150 C   0  0  0  0  0  3  0  0  0  0  0  0
  -21.9670   -7.4500   21.2360 O   0  0  0  0  0  0  0  0  0  0  0  0
  -21.8000   -6.7680   22.4140 C   0  0  0  0  0  0  0  0  0  0  0  0
  -21.2260   -7.3760   23.5520 C   0  0  0  0  0  3  0  0  0  0  0  0
  -21.0090   -6.6190   24.7200 C   0  0  0  0  0  3  0  0  0  0  0  0
  -21.3560   -5.2560   24.7510 C   0  0  0  0  0  0  0  0  0  0  0  0
  -21.9220   -4.6470   23.6170 C   0  0  0  0  0  3  0  0  0  0  0  0
  -22.1410   -5.4010   22.4510 C   0  0  0  0  0  0  0  0  0  0  0  0
  -22.6680   -4.8060   21.3540 F   0  0  0  0  0  0  0  0  0  0  0  0
  -21.1400   -4.5250   25.8700 F   0  0  0  0  0  0  0  0  0  0  0  0
  -23.2300  -14.0670   21.0130 C   0  0  0  0  0  0  0  0  0  0  0  0
  -22.5030  -13.3800   21.8880 N   0  0  0  0  0  0  0  0  0  0  0  0
  -22.8090  -15.1100   20.5130 O   0  0  0  0  0  0  0  0  0  0  0  0
  -22.8570  -12.5350   22.3120 H   0  0  0  0  0  0  0  0  0  0  0  0
  -21.5780  -13.7020   22.1370 H   0  0  0  0  0  0  0  0  0  0  0  0
  -25.8930  -15.6720   20.1740 N   0  0  0  0  0  0  0  0  0  0  0  0
  -25.1460  -16.3450   20.3050 H   0  0  0  0  0  0  0  0  0  0  0  0
  -26.7490  -16.0920   19.8350 H   0  0  0  0  0  0  0  0  0  0  0  0
  -28.5930  -24.5550   20.0270 C   0  0  0  0  0  2  0  0  0  0  0  0
  -28.8590  -25.8360   19.1790 C   0  0  0  0  0  2  0  0  0  0  0  0
  -28.6780  -27.0640   19.9180 O   0  0  0  0  0  0  0  0  0  0  0  0
  -24.6560  -31.9530   23.2220 C   0  0  0  0  0  0  0  0  0  0  0  0
  -27.4520  -27.7100   19.9500 C   0  0  0  0  0  0  0  0  0  0  0  0
  -23.4930  -30.5620   21.5390 C   0  0  0  0  0  3  0  0  0  0  0  0
  -24.9930  -29.1310   20.0530 C   0  0  0  0  0  0  0  0  0  0  0  0
  -26.0060  -31.0150   21.3440 C   0  0  0  0  0  2  0  0  0  0  0  0
  -26.1360  -29.6720   20.6510 C   0  0  0  0  0  0  0  0  0  0  0  0
  -27.3630  -28.9680   20.5990 C   0  0  0  0  0  3  0  0  0  0  0  0
  -26.2770  -27.1780   19.3670 C   0  0  0  0  0  3  0  0  0  0  0  0
  -25.0600  -27.8820   19.4130 C   0  0  0  0  0  3  0  0  0  0  0  0
  -23.7180  -29.9390   20.1370 C   0  0  0  0  0  2  0  0  0  0  0  0
  -24.7360  -31.1910   22.0930 N   0  0  0  0  0  0  0  0  0  0  0  0
  -23.5690  -32.1650   23.7780 O   0  0  0  0  0  0  0  0  0  0  0  0
  -22.8890  -29.4840   22.4660 C   0  0  0  0  0  0  0  0  0  0  0  0
  -21.5770  -29.2340   22.3210 N   0  0  0  0  0  0  0  0  0  0  0  0
  -23.5980  -28.8740   23.2710 O   0  0  0  0  0  0  0  0  0  0  0  0
  -21.0630  -29.7810   21.6440 H   0  0  0  0  0  0  0  0  0  0  0  0
  -18.2710  -27.8420   22.7440 C   0  0  0  0  0  0  0  0  0  0  0  0
  -20.8060  -28.2360   23.0590 C   0  0  0  0  0  3  0  0  0  0  0  0
  -20.9970  -26.8260   22.4520 C   0  0  0  0  0  2  0  0  0  0  0  0
  -19.9290  -26.4660   21.4140 C   0  0  0  0  0  2  0  0  0  0  0  0
  -18.5320  -26.5200   22.0410 C   0  0  0  0  0  2  0  0  0  0  0  0
  -19.3390  -28.6550   23.2070 C   0  0  0  0  0  0  0  0  0  0  0  0
  -19.0430  -29.8910   23.8200 C   0  0  0  0  0  3  0  0  0  0  0  0
  -17.7110  -30.3160   23.9780 C   0  0  0  0  0  3  0  0  0  0  0  0
  -16.6560  -29.5000   23.5320 C   0  0  0  0  0  3  0  0  0  0  0  0
  -16.9380  -28.2650   22.9220 C   0  0  0  0  0  3  0  0  0  0  0  0
  -25.9220  -32.6110   23.8540 C   0  0  0  0  0  3  0  0  0  0  0  0
  -25.5850  -34.0040   24.1750 N   0  0  0  0  0  0  0  0  0  0  0  0
  -25.9130  -35.0590   23.4170 C   0  0  0  0  0  0  0  0  0  0  0  0
  -26.6030  -34.9620   22.3980 O   0  0  0  0  0  0  0  0  0  0  0  0
  -24.9790  -34.1530   24.9690 H   0  0  0  0  0  0  0  0  0  0  0  0
  -24.1690  -36.8230   23.0080 C   0  0  0  0  0  1  0  0  0  0  0  0
  -25.3910  -36.4390   23.8570 C   0  0  0  0  0  3  0  0  0  0  0  0
  -27.4790  -37.3600   24.7630 C   0  0  0  0  0  1  0  0  0  0  0  0
  -26.4120  -37.5080   23.7770 N   0  0  0  0  0  0  0  0  0  0  0  0
  -25.9850  -38.4220   23.9060 H   0  0  0  0  0  0  0  0  0  0  0  0
  -26.4410  -31.8550   25.1380 C   0  0  1  0  0  0  0  0  0  0  0  0
  -25.3400  -31.5890   26.1910 C   0  0  0  0  0  1  0  0  0  0  0  0
  -27.0640  -30.4930   24.7540 C   0  0  0  0  0  1  0  0  0  0  0  0
  -27.5630  -32.6790   25.8140 C   0  0  0  0  0  1  0  0  0  0  0  0
  1  6  2  0
  2  1  1  0
  3  2  1  0
  3  5  1  0
  4  8  1  0
  4  1  1  0
  5 50  1  0
  5  4  1  0
  5  7  1  6
  8  9  1  0
 10  9  1  0
 10 11  1  0
 12 20  1  0
 13 18  1  0
 14 15  1  0
 14 13  1  0
 16 15  1  0
 16 25  1  0
 16 17  1  0
 18 12  1  0
 18 17  1  0
 19 12  2  0
 20 11  1  0
 20 21  1  0
 22 23  2  0
 23 42  1  0
 24 23  1  0
 24 27  1  0
 25 26  1  0
 25 22  1  0
 26 24  2  0
 27 28  1  0
 28 29  2  0
 30 33  1  0
 30 29  1  0
 31 30  2  0
 32 31  1  0
 32 27  2  0
 33 34  1  0
 34 39  2  0
 34 35  1  0
 35 36  2  0
 36 37  1  0
 37 41  1  0
 38 37  2  0
 39 38  1  0
 40 39  1  0
 42 43  1  0
 43 46  1  0
 43 45  1  0
 44 42  2  0
 47 48  1  0
 47 22  1  0
 49 47  1  0
 51 52  1  0
 51 50  1  0
 52 54  1  0
 53 64  2  0
 54 59  1  0
 55 63  1  0
 55 65  1  0
 56 62  1  0
 56 58  1  0
 57 63  1  0
 58 57  1  0
 59 58  2  0
 60 61  1  0
 60 54  2  0
 61 56  2  0
 62 55  1  0
 63 53  1  0
 65 67  2  0
 66 65  1  0
 68 66  1  0
 69 78  2  0
 69 74  1  0
 70 66  1  0
 70 74  1  0
 71 70  1  0
 72 73  1  0
 72 71  1  0
 73 69  1  0
 74 75  2  0
 75 76  1  0
 77 76  2  0
 78 77  1  0
 79 53  1  0
 79 80  1  0
 79 89  1  0
 80 83  1  0
 81 85  1  0
 81 80  1  0
 82 81  2  0
 85 84  1  0
 87 85  1  0
 87 88  1  0
 87 86  1  0
 89 92  1  1
 89 90  1  0
 91 89  1  0
M  ISO  4  12 100  20 100  51 101  52 101
M  END
>  <TORSDO>  (74) 
F 22

>  <SCORE>  (74) 
-11.216

>  <name>  (74) 
73

>  <ligand_id>  (74) 
73

>  <original_smiles>  (74) 
[H]c1c([H])c([H])c2c(c1[H])C([H])([H])C([H])([H])C([H])([H])C2([H])N([H])C(=O)C1([H])N(C(=O)C([H])(N([H])C(=O)C([H])(N([H])C([H])([H])[H])C([H])([H])[H])C(C([H])([H])[H])(C([H])([H])[H])C([H])([H])[H])C([H])([H])c2c([H])c(OC([H])([H])C([H])([H])[N+]3([H])C([H])([H])C([H])([H])C(=O)C3([H])C([H])([H])C([H])([H])C([H])([H])C([H])([H])N([H])C(=O)N3C([H])([H])C([H])([H])C([H])([H])C([H])(n4nc(-c5c([H])c([H])c(Oc6c([H])c([H])c(F)c([H])c6F)c([H])c5[H])c(C(=O)N([H])[H])c4N([H])[H])C3([H])[H])c([H])c([H])c2C1([H])[H]

>  <smiles>  (74) 
[H]c1c([H])c([H])c2c(c1[H])C([H])([H])C([H])([H])C([H])([H])C2([H])N([H])C(=O)C1([H])N(C(=O)C([H])(N([H])C(=O)C([H])(N([H])C([H])([H])[H])C([H])([H])[H])C(C([H])([H])[H])(C([H])([H])[H])C([H])([H])[H])C([H])([H])c2c([H])c(OC([H])([H])C([H])([H])[N+]3([H])C([H])([H])C([H])([H])C(=O)C3([H])C([H])([H])C([H])([H])C([H])([H])C([H])([H])N([H])C(=O)N3C([H])([H])C([H])([H])C([H])([H])C([H])(n4nc(-c5c([H])c([H])c(Oc6c([H])c([H])c(F)c([H])c6F)c([H])c5[H])c(C(=O)N([H])[H])c4N([H])[H])C3([H])[H])c([H])c([H])c2C1([H])[H]

$$$$
74:0:0
     RDKit          3D

 94102  0  0  1  0  0  0  0  0999 V2000
  -29.0440  -21.9010   20.9930 N   0  0  0  0  0  4  0  0  0  0  0  0
  -28.8500  -22.3650   21.8680 H   0  0  0  0  0  0  0  0  0  0  0  0
  -28.4320  -21.1030   20.9340 H   0  0  0  0  0  0  0  0  0  0  0  0
  -29.2720  -22.6130   18.5640 C   0  0  0  0  0  1  0  0  0  0  0  0
  -28.6450  -22.8890   19.9450 C   0  0  0  0  0  3  0  0  0  0  0  0
  -28.8750  -24.3420   20.4570 C   0  0  0  0  0  0  0  0  0  0  0  0
  -29.2900  -24.5820   21.5970 O   0  0  0  0  0  0  0  0  0  0  0  0
  -28.5700  -25.5020   19.4750 C   0  0  0  0  0  2  0  0  0  0  0  0
  -28.4050  -26.7750   20.1380 O   0  0  0  0  0  0  0  0  0  0  0  0
  -24.6680  -31.9250   23.2880 C   0  0  0  0  0  0  0  0  0  0  0  0
  -27.1990  -27.4600   20.1340 C   0  0  0  0  0  0  0  0  0  0  0  0
  -23.4000  -30.5390   21.6790 C   0  0  0  0  0  3  0  0  0  0  0  0
  -24.8020  -28.9880   20.2110 C   0  0  0  0  0  0  0  0  0  0  0  0
  -25.9200  -30.8770   21.4050 C   0  0  0  0  0  2  0  0  0  0  0  0
  -25.9780  -29.5050   20.7660 C   0  0  0  0  0  0  0  0  0  0  0  0
  -27.1690  -28.7450   20.7270 C   0  0  0  0  0  3  0  0  0  0  0  0
  -25.9970  -26.9600   19.5770 C   0  0  0  0  0  3  0  0  0  0  0  0
  -24.8070  -27.7160   19.6160 C   0  0  0  0  0  3  0  0  0  0  0  0
  -23.5620  -29.8510   20.2960 C   0  0  0  0  0  2  0  0  0  0  0  0
  -24.6830  -31.1290   22.1810 N   0  0  0  0  0  0  0  0  0  0  0  0
  -23.6050  -32.2060   23.8620 O   0  0  0  0  0  0  0  0  0  0  0  0
  -22.7680  -29.5250   22.6600 C   0  0  0  0  0  0  0  0  0  0  0  0
  -21.4460  -29.3210   22.5420 N   0  0  0  0  0  0  0  0  0  0  0  0
  -23.4640  -28.9190   23.4790 O   0  0  0  0  0  0  0  0  0  0  0  0
  -20.9400  -29.8640   21.8580 H   0  0  0  0  0  0  0  0  0  0  0  0
  -18.1110  -28.0360   23.0240 C   0  0  0  0  0  0  0  0  0  0  0  0
  -20.6530  -28.3760   23.3260 C   0  0  0  0  0  3  0  0  0  0  0  0
  -20.8130  -26.9380   22.7830 C   0  0  0  0  0  2  0  0  0  0  0  0
  -19.7280  -26.5340   21.7800 C   0  0  0  0  0  2  0  0  0  0  0  0
  -18.3320  -26.6700   22.3950 C   0  0  0  0  0  2  0  0  0  0  0  0
  -19.2000  -28.8390   23.4500 C   0  0  0  0  0  0  0  0  0  0  0  0
  -18.9350  -30.1100   24.0080 C   0  0  0  0  0  3  0  0  0  0  0  0
  -17.6150  -30.5790   24.1390 C   0  0  0  0  0  3  0  0  0  0  0  0
  -16.5400  -29.7710   23.7330 C   0  0  0  0  0  3  0  0  0  0  0  0
  -16.7890  -28.5020   23.1770 C   0  0  0  0  0  3  0  0  0  0  0  0
  -25.9770  -32.5440   23.8690 C   0  0  0  0  0  3  0  0  0  0  0  0
  -25.6940  -33.9460   24.2000 N   0  0  0  0  0  0  0  0  0  0  0  0
  -26.0210  -34.9920   23.4310 C   0  0  0  0  0  0  0  0  0  0  0  0
  -26.6660  -34.8740   22.3850 O   0  0  0  0  0  0  0  0  0  0  0  0
  -25.1220  -34.1080   25.0170 H   0  0  0  0  0  0  0  0  0  0  0  0
  -24.3130  -36.8090   23.1050 C   0  0  0  0  0  1  0  0  0  0  0  0
  -25.5630  -36.3880   23.8950 C   0  0  0  0  0  3  0  0  0  0  0  0
  -27.7230  -37.2470   24.6870 C   0  0  0  0  0  1  0  0  0  0  0  0
  -26.6070  -37.4260   23.7610 N   0  0  0  0  0  0  0  0  0  0  0  0
  -26.2180  -38.3530   23.9060 H   0  0  0  0  0  0  0  0  0  0  0  0
  -26.5240  -31.7710   25.1310 C   0  0  1  0  0  0  0  0  0  0  0  0
  -25.4620  -31.5420   26.2330 C   0  0  0  0  0  1  0  0  0  0  0  0
  -27.0850  -30.3890   24.7230 C   0  0  0  0  0  1  0  0  0  0  0  0
  -27.7000  -32.5560   25.7590 C   0  0  0  0  0  1  0  0  0  0  0  0
  -30.4490  -21.4040   21.0710 C   0  0  0  0  0  2  0  0  0  0  0  0
  -30.9300  -19.2660   19.5970 C   0  0  0  0  0  2  0  0  0  0  0  0
  -29.4850  -19.0350   21.6680 C   0  0  0  0  0  2  0  0  0  0  0  0
  -30.5790  -17.7610   19.4330 C   0  0  0  0  0  2  0  0  0  0  0  0
  -29.8980  -17.5620   21.8920 C   0  0  0  0  0  2  0  0  0  0  0  0
  -30.6100  -19.8480   20.9980 C   0  0  0  0  0  3  0  0  0  0  0  0
  -30.7170  -16.9250   20.7340 C   0  0  0  0  0  3  0  0  0  0  0  0
  -30.9540  -14.5140   19.9720 C   0  0  0  0  0  0  0  0  0  0  0  0
  -30.5800  -12.3450   18.8550 C   0  0  0  0  0  2  0  0  0  0  0  0
  -29.5610  -12.5170   17.7120 C   0  0  0  0  0  2  0  0  0  0  0  0
  -28.1170  -12.3780   18.2310 C   0  0  0  0  0  2  0  0  0  0  0  0
  -27.8540  -13.2440   19.4910 C   0  0  0  0  0  3  0  0  0  0  0  0
  -28.9720  -13.0530   20.5410 C   0  0  0  0  0  2  0  0  0  0  0  0
  -30.2640  -13.3430   19.8880 N   0  0  0  0  0  0  0  0  0  0  0  0
  -32.0520  -14.6920   19.4390 O   0  0  0  0  0  0  0  0  0  0  0  0
  -30.2910  -15.5240   20.5570 N   0  0  0  0  0  0  0  0  0  0  0  0
  -29.3840  -15.2790   20.9290 H   0  0  0  0  0  0  0  0  0  0  0  0
  -25.5120  -13.8780   20.3480 C   0  0  0  0  0  0  0  0  0  0  0  0
  -24.4560  -13.1170   20.7670 C   0  0  0  0  0  0  0  0  0  0  0  0
  -24.8920  -11.7580   20.6880 C   0  0  0  0  0  0  0  0  0  0  0  0
  -26.5290  -12.9860   20.0470 N   0  0  0  0  0  0  0  0  0  0  0  0
  -26.1630  -11.7060   20.3100 N   0  0  0  0  0  0  0  0  0  0  0  0
  -24.1620  -10.5060   20.9050 C   0  0  0  0  0  0  0  0  0  0  0  0
  -24.5830   -9.5650   21.8680 C   0  0  0  0  0  3  0  0  0  0  0  0
  -23.8540   -8.3730   22.0680 C   0  0  0  0  0  3  0  0  0  0  0  0
  -22.6890   -8.1140   21.3080 C   0  0  0  0  0  0  0  0  0  0  0  0
  -22.2890   -9.0450   20.3330 C   0  0  0  0  0  3  0  0  0  0  0  0
  -23.0180  -10.2300   20.1300 C   0  0  0  0  0  3  0  0  0  0  0  0
  -21.9340   -6.9700   21.4140 O   0  0  0  0  0  0  0  0  0  0  0  0
  -21.7880   -6.3130   22.6110 C   0  0  0  0  0  0  0  0  0  0  0  0
  -21.2420   -6.9510   23.7470 C   0  0  0  0  0  3  0  0  0  0  0  0
  -21.0430   -6.2210   24.9350 C   0  0  0  0  0  3  0  0  0  0  0  0
  -21.3810   -4.8550   24.9870 C   0  0  0  0  0  0  0  0  0  0  0  0
  -21.9170   -4.2180   23.8560 C   0  0  0  0  0  3  0  0  0  0  0  0
  -22.1170   -4.9450   22.6690 C   0  0  0  0  0  0  0  0  0  0  0  0
  -22.6140   -4.3200   21.5740 F   0  0  0  0  0  0  0  0  0  0  0  0
  -21.1810   -4.1510   26.1280 F   0  0  0  0  0  0  0  0  0  0  0  0
  -23.0870  -13.6070   21.1360 C   0  0  0  0  0  0  0  0  0  0  0  0
  -22.4080  -12.9080   22.0380 N   0  0  0  0  0  0  0  0  0  0  0  0
  -22.6310  -14.6470   20.6600 O   0  0  0  0  0  0  0  0  0  0  0  0
  -22.7950  -12.0670   22.4440 H   0  0  0  0  0  0  0  0  0  0  0  0
  -21.4910  -13.2160   22.3260 H   0  0  0  0  0  0  0  0  0  0  0  0
  -25.6910  -15.2480   20.1750 N   0  0  0  0  0  0  0  0  0  0  0  0
  -24.9550  -15.9250   20.3470 H   0  0  0  0  0  0  0  0  0  0  0  0
  -26.5300  -15.6650   19.7910 H   0  0  0  0  0  0  0  0  0  0  0  0
  1 50  1  0
  1  2  1  0
  3  1  1  0
  5  4  1  0
  5  6  1  0
  5  1  1  0
  6  7  2  0
  8  9  1  0
  8  6  1  0
 10 21  2  0
 11  9  1  0
 11 16  1  0
 12 20  1  0
 12 22  1  0
 13 19  1  0
 13 15  1  0
 14 20  1  0
 15 14  1  0
 16 15  2  0
 17 18  1  0
 17 11  2  0
 18 13  2  0
 19 12  1  0
 20 10  1  0
 22 24  2  0
 23 22  1  0
 25 23  1  0
 26 35  2  0
 26 31  1  0
 27 23  1  0
 27 31  1  0
 28 27  1  0
 29 30  1  0
 29 28  1  0
 30 26  1  0
 31 32  2  0
 32 33  1  0
 34 33  2  0
 35 34  1  0
 36 10  1  0
 36 37  1  0
 36 46  1  0
 37 40  1  0
 38 42  1  0
 38 37  1  0
 39 38  2  0
 42 41  1  0
 44 42  1  0
 44 45  1  0
 44 43  1  0
 46 49  1  1
 46 47  1  0
 48 46  1  0
 51 55  1  0
 52 54  1  0
 53 51  1  0
 53 56  1  0
 55 50  1  0
 55 52  1  0
 56 65  1  0
 56 54  1  0
 57 65  1  0
 58 63  1  0
 59 60  1  0
 59 58  1  0
 61 60  1  0
 61 70  1  0
 61 62  1  0
 63 57  1  0
 63 62  1  0
 64 57  2  0
 65 66  1  0
 67 68  2  0
 68 87  1  0
 69 68  1  0
 69 72  1  0
 70 71  1  0
 70 67  1  0
 71 69  2  0
 72 73  1  0
 73 74  2  0
 75 78  1  0
 75 74  1  0
 76 75  2  0
 77 76  1  0
 77 72  2  0
 78 79  1  0
 79 84  2  0
 79 80  1  0
 80 81  2  0
 81 82  1  0
 82 86  1  0
 83 82  2  0
 84 83  1  0
 85 84  1  0
 87 88  1  0
 88 91  1  0
 88 90  1  0
 89 87  2  0
 92 93  1  0
 92 67  1  0
 94 92  1  0
M  ISO  4   8 101   9 101  57 100  65 100
M  END
>  <TORSDO>  (75) 
F 21

>  <SCORE>  (75) 
-12.348

>  <name>  (75) 
74

>  <ligand_id>  (75) 
74

>  <original_smiles>  (75) 
[H]c1c([H])c([H])c2c(c1[H])C([H])([H])C([H])([H])C([H])([H])C2([H])N([H])C(=O)C1([H])N(C(=O)C([H])(N([H])C(=O)C([H])(N([H])C([H])([H])[H])C([H])([H])[H])C(C([H])([H])[H])(C([H])([H])[H])C([H])([H])[H])C([H])([H])c2c([H])c(OC([H])([H])C(=O)C([H])(C([H])([H])[H])[N+]([H])([H])C([H])([H])C3([H])C([H])([H])C([H])([H])C([H])(N([H])C(=O)N4C([H])([H])C([H])([H])C([H])([H])C([H])(n5nc(-c6c([H])c([H])c(Oc7c([H])c([H])c(F)c([H])c7F)c([H])c6[H])c(C(=O)N([H])[H])c5N([H])[H])C4([H])[H])C([H])([H])C3([H])[H])c([H])c([H])c2C1([H])[H]

>  <smiles>  (75) 
[H]c1c([H])c([H])c2c(c1[H])C([H])([H])C([H])([H])C([H])([H])C2([H])N([H])C(=O)C1([H])N(C(=O)C([H])(N([H])C(=O)C([H])(N([H])C([H])([H])[H])C([H])([H])[H])C(C([H])([H])[H])(C([H])([H])[H])C([H])([H])[H])C([H])([H])c2c([H])c(OC([H])([H])C(=O)C([H])(C([H])([H])[H])[N+]([H])([H])C([H])([H])C3([H])C([H])([H])C([H])([H])C([H])(N([H])C(=O)N4C([H])([H])C([H])([H])C([H])([H])C([H])(n5nc(-c6c([H])c([H])c(Oc7c([H])c([H])c(F)c([H])c7F)c([H])c6[H])c(C(=O)N([H])[H])c5N([H])[H])C4([H])[H])C([H])([H])C3([H])[H])c([H])c([H])c2C1([H])[H]

$$$$
75:0:0
     RDKit          3D

 92101  0  0  1  0  0  0  0  0999 V2000
  -31.1880  -21.3620   20.6620 C   0  0  0  0  0  2  0  0  0  0  0  0
  -31.5150  -21.7410   19.2160 C   0  0  0  0  0  2  0  0  0  0  0  0
  -30.6610  -24.0630   18.6310 C   0  0  0  0  0  2  0  0  0  0  0  0
  -29.6610  -21.2050   20.6670 C   0  0  0  0  0  3  0  0  0  0  0  0
  -30.3180  -22.5790   18.7180 C   0  0  0  0  0  3  0  0  0  0  0  0
  -29.2160  -22.4820   19.7940 C   0  0  0  0  0  3  0  0  0  0  0  0
  -29.2250  -23.9680   20.4150 C   0  0  0  0  0  3  0  0  0  0  0  0
  -30.4610  -24.5090   19.9600 O   0  0  0  0  0  0  0  0  0  0  0  0
  -29.3010  -19.7580   20.1040 C   0  0  0  0  0  0  0  0  0  0  0  0
  -29.7970  -18.6180   20.6900 N   0  0  0  0  0  0  0  0  0  0  0  0
  -28.5990  -19.6760   19.0960 O   0  0  0  0  0  0  0  0  0  0  0  0
  -30.3410  -18.7520   21.5330 H   0  0  0  0  0  0  0  0  0  0  0  0
  -29.8090  -17.2250   20.1000 C   0  0  0  0  0  2  0  0  0  0  0  0
  -29.9400  -15.9660   21.0750 C   0  0  0  0  0  2  0  0  0  0  0  0
  -30.6210  -14.6480   20.5070 C   0  0  0  0  0  0  0  0  0  0  0  0
  -30.3950  -12.4130   19.4260 C   0  0  0  0  0  2  0  0  0  0  0  0
  -29.4850  -12.5560   18.1860 C   0  0  0  0  0  2  0  0  0  0  0  0
  -28.0010  -12.4180   18.5780 C   0  0  0  0  0  2  0  0  0  0  0  0
  -27.6260  -13.2760   19.8160 C   0  0  0  0  0  3  0  0  0  0  0  0
  -28.6560  -13.1050   20.9520 C   0  0  0  0  0  2  0  0  0  0  0  0
  -29.9790  -13.4370   20.4100 N   0  0  0  0  0  0  0  0  0  0  0  0
  -31.7710  -14.7620   20.0750 O   0  0  0  0  0  0  0  0  0  0  0  0
  -25.2140  -13.8840   20.4560 C   0  0  0  0  0  0  0  0  0  0  0  0
  -24.1370  -13.1170   20.8090 C   0  0  0  0  0  0  0  0  0  0  0  0
  -24.6000  -11.7650   20.8170 C   0  0  0  0  0  0  0  0  0  0  0  0
  -26.2640  -13.0020   20.2680 N   0  0  0  0  0  0  0  0  0  0  0  0
  -25.9000  -11.7230   20.5460 N   0  0  0  0  0  0  0  0  0  0  0  0
  -23.8690  -10.5050   21.0100 C   0  0  0  0  0  0  0  0  0  0  0  0
  -24.2860   -9.5470   21.9610 C   0  0  0  0  0  3  0  0  0  0  0  0
  -23.5560   -8.3530   22.1440 C   0  0  0  0  0  3  0  0  0  0  0  0
  -22.3920   -8.1090   21.3740 C   0  0  0  0  0  0  0  0  0  0  0  0
  -21.9960   -9.0540   20.4110 C   0  0  0  0  0  3  0  0  0  0  0  0
  -22.7270  -10.2400   20.2270 C   0  0  0  0  0  3  0  0  0  0  0  0
  -21.6350   -6.9680   21.4640 O   0  0  0  0  0  0  0  0  0  0  0  0
  -21.5770   -6.2300   22.6210 C   0  0  0  0  0  0  0  0  0  0  0  0
  -21.1560   -6.7960   23.8440 C   0  0  0  0  0  3  0  0  0  0  0  0
  -21.0460   -5.9870   24.9920 C   0  0  0  0  0  3  0  0  0  0  0  0
  -21.3440   -4.6130   24.9170 C   0  0  0  0  0  0  0  0  0  0  0  0
  -21.7560   -4.0460   23.6980 C   0  0  0  0  0  3  0  0  0  0  0  0
  -21.8700   -4.8530   22.5520 C   0  0  0  0  0  0  0  0  0  0  0  0
  -22.2470   -4.2980   21.3760 F   0  0  0  0  0  0  0  0  0  0  0  0
  -21.2300   -3.8340   26.0170 F   0  0  0  0  0  0  0  0  0  0  0  0
  -22.7320  -13.5960   21.0340 C   0  0  0  0  0  0  0  0  0  0  0  0
  -21.9820  -12.9150   21.8930 N   0  0  0  0  0  0  0  0  0  0  0  0
  -22.3060  -14.6090   20.4810 O   0  0  0  0  0  0  0  0  0  0  0  0
  -22.3430  -12.0950   22.3600 H   0  0  0  0  0  0  0  0  0  0  0  0
  -21.0370  -13.2130   22.0850 H   0  0  0  0  0  0  0  0  0  0  0  0
  -25.3860  -15.2510   20.2570 N   0  0  0  0  0  0  0  0  0  0  0  0
  -24.6230  -15.9150   20.3250 H   0  0  0  0  0  0  0  0  0  0  0  0
  -26.2550  -15.6750   19.9580 H   0  0  0  0  0  0  0  0  0  0  0  0
  -28.1020  -25.0160   19.9690 C   0  0  0  0  0  2  0  0  0  0  0  0
  -28.2950  -26.4640   20.2450 O   0  0  0  0  0  0  0  0  0  0  0  0
  -24.6150  -31.8940   23.2510 C   0  0  0  0  0  0  0  0  0  0  0  0
  -27.1810  -27.3180   20.1850 C   0  0  0  0  0  0  0  0  0  0  0  0
  -23.3930  -30.4980   21.6240 C   0  0  0  0  0  3  0  0  0  0  0  0
  -24.8250  -28.9420   20.1880 C   0  0  0  0  0  0  0  0  0  0  0  0
  -25.9330  -30.8070   21.4190 C   0  0  0  0  0  2  0  0  0  0  0  0
  -26.0010  -29.4270   20.7740 C   0  0  0  0  0  0  0  0  0  0  0  0
  -27.1820  -28.6260   20.7630 C   0  0  0  0  0  3  0  0  0  0  0  0
  -25.9800  -26.8900   19.5720 C   0  0  0  0  0  3  0  0  0  0  0  0
  -24.8160  -27.6790   19.5790 C   0  0  0  0  0  3  0  0  0  0  0  0
  -23.5930  -29.8210   20.2440 C   0  0  0  0  0  2  0  0  0  0  0  0
  -24.6670  -31.0830   22.1550 N   0  0  0  0  0  0  0  0  0  0  0  0
  -23.5360  -32.1790   23.7910 O   0  0  0  0  0  0  0  0  0  0  0  0
  -22.7330  -29.4850   22.5900 C   0  0  0  0  0  0  0  0  0  0  0  0
  -21.4070  -29.3080   22.4670 N   0  0  0  0  0  0  0  0  0  0  0  0
  -23.4140  -28.8610   23.4090 O   0  0  0  0  0  0  0  0  0  0  0  0
  -20.9190  -29.8670   21.7820 H   0  0  0  0  0  0  0  0  0  0  0  0
  -18.0280  -28.1130   22.9660 C   0  0  0  0  0  0  0  0  0  0  0  0
  -20.5850  -28.3760   23.2410 C   0  0  0  0  0  3  0  0  0  0  0  0
  -20.6890  -26.9400   22.6760 C   0  0  0  0  0  2  0  0  0  0  0  0
  -19.5890  -26.6100   21.6620 C   0  0  0  0  0  2  0  0  0  0  0  0
  -18.2070  -26.7590   22.3010 C   0  0  0  0  0  2  0  0  0  0  0  0
  -19.1460  -28.8800   23.3920 C   0  0  0  0  0  0  0  0  0  0  0  0
  -18.9240  -30.1470   23.9720 C   0  0  0  0  0  3  0  0  0  0  0  0
  -17.6190  -30.6500   24.1300 C   0  0  0  0  0  3  0  0  0  0  0  0
  -16.5160  -29.8810   23.7180 C   0  0  0  0  0  3  0  0  0  0  0  0
  -16.7220  -28.6140   23.1440 C   0  0  0  0  0  3  0  0  0  0  0  0
  -25.9040  -32.5210   23.8660 C   0  0  0  0  0  3  0  0  0  0  0  0
  -26.4210  -31.7470   25.1400 C   0  0  1  0  0  0  0  0  0  0  0  0
  -25.3330  -31.5180   26.2150 C   0  0  0  0  0  1  0  0  0  0  0  0
  -26.9940  -30.3660   24.7430 C   0  0  0  0  0  1  0  0  0  0  0  0
  -27.5800  -32.5360   25.7940 C   0  0  0  0  0  1  0  0  0  0  0  0
  -25.6010  -33.9200   24.1990 N   0  0  0  0  0  0  0  0  0  0  0  0
  -25.9270  -34.9720   23.4370 C   0  0  0  0  0  0  0  0  0  0  0  0
  -26.5840  -34.8670   22.3980 O   0  0  0  0  0  0  0  0  0  0  0  0
  -25.0130  -34.0750   25.0050 H   0  0  0  0  0  0  0  0  0  0  0  0
  -24.1940  -36.7660   23.1110 C   0  0  0  0  0  1  0  0  0  0  0  0
  -25.4500  -36.3610   23.9010 C   0  0  0  0  0  3  0  0  0  0  0  0
  -27.6020  -37.2430   24.6880 C   0  0  0  0  0  1  0  0  0  0  0  0
  -26.4810  -37.4140   23.7670 N   0  0  0  0  0  0  0  0  0  0  0  0
  -26.0800  -38.3350   23.9210 H   0  0  0  0  0  0  0  0  0  0  0  0
  1  4  1  0
  2  1  1  0
  3  8  1  0
  4  9  1  0
  5  3  1  0
  5  2  1  0
  5  6  1  0
  6  7  1  0
  6  4  1  0
  8  7  1  0
  9 10  1  0
 10 12  1  0
 11  9  2  0
 13 10  1  0
 13 14  1  0
 15 14  1  0
 16 21  1  0
 17 18  1  0
 17 16  1  0
 18 19  1  0
 19 26  1  0
 19 20  1  0
 21 15  1  0
 21 20  1  0
 22 15  2  0
 23 24  2  0
 24 25  1  0
 24 43  1  0
 25 28  1  0
 26 23  1  0
 26 27  1  0
 27 25  2  0
 28 29  1  0
 29 30  2  0
 31 34  1  0
 31 30  1  0
 32 31  2  0
 33 32  1  0
 33 28  2  0
 34 35  1  0
 35 36  1  0
 36 37  2  0
 38 37  1  0
 38 42  1  0
 39 38  2  0
 40 35  2  0
 40 39  1  0
 41 40  1  0
 43 44  1  0
 44 47  1  0
 44 46  1  0
 45 43  2  0
 48 49  1  0
 48 23  1  0
 50 48  1  0
 51 52  1  0
 51  7  1  0
 53 64  2  0
 53 79  1  0
 54 52  1  0
 54 59  1  0
 55 63  1  0
 55 65  1  0
 56 62  1  0
 56 58  1  0
 57 63  1  0
 58 57  1  0
 59 58  2  0
 60 61  1  0
 60 54  2  0
 61 56  2  0
 62 55  1  0
 63 53  1  0
 65 67  2  0
 66 65  1  0
 66 70  1  0
 68 66  1  0
 69 78  2  0
 69 74  1  0
 70 74  1  0
 71 70  1  0
 72 73  1  0
 72 71  1  0
 73 69  1  0
 74 75  2  0
 75 76  1  0
 77 76  2  0
 78 77  1  0
 79 84  1  0
 79 80  1  0
 80 83  1  1
 80 81  1  0
 82 80  1  0
 84 87  1  0
 85 89  1  0
 85 84  1  0
 86 85  2  0
 88 89  1  0
 91 89  1  0
 91 92  1  0
 91 90  1  0
M  ISO  4  14 100  15 100  51 101  52 101
M  END
>  <TORSDO>  (76) 
F 20

>  <SCORE>  (76) 
-13.892

>  <name>  (76) 
75

>  <ligand_id>  (76) 
75

>  <original_smiles>  (76) 
[H]c1c([H])c([H])c2c(c1[H])C([H])([H])C([H])([H])C([H])([H])C2([H])N([H])C(=O)C1([H])N(C(=O)C([H])(N([H])C(=O)C([H])(N([H])C([H])([H])[H])C([H])([H])[H])C(C([H])([H])[H])(C([H])([H])[H])C([H])([H])[H])C([H])([H])c2c([H])c(OC([H])([H])C3([H])OC([H])([H])C4([H])C([H])([H])C([H])([H])C([H])(C(=O)N([H])C([H])([H])C([H])([H])C(=O)N5C([H])([H])C([H])([H])C([H])([H])C([H])(n6nc(-c7c([H])c([H])c(Oc8c([H])c([H])c(F)c([H])c8F)c([H])c7[H])c(C(=O)N([H])[H])c6N([H])[H])C5([H])[H])C34[H])c([H])c([H])c2C1([H])[H]

>  <smiles>  (76) 
[H]c1c([H])c([H])c2c(c1[H])C([H])([H])C([H])([H])C([H])([H])C2([H])N([H])C(=O)C1([H])N(C(=O)C([H])(N([H])C(=O)C([H])(N([H])C([H])([H])[H])C([H])([H])[H])C(C([H])([H])[H])(C([H])([H])[H])C([H])([H])[H])C([H])([H])c2c([H])c(OC([H])([H])C3([H])OC([H])([H])C4([H])C([H])([H])C([H])([H])C([H])(C(=O)N([H])C([H])([H])C([H])([H])C(=O)N5C([H])([H])C([H])([H])C([H])([H])C([H])(n6nc(-c7c([H])c([H])c(Oc8c([H])c([H])c(F)c([H])c8F)c([H])c7[H])c(C(=O)N([H])[H])c6N([H])[H])C5([H])[H])C34[H])c([H])c([H])c2C1([H])[H]

$$$$
76:0:0
     RDKit          3D

 90 98  0  0  1  0  0  0  0  0999 V2000
  -28.5740  -18.9260   19.2620 C   0  0  0  0  0  3  0  0  0  0  0  0
  -28.4650  -17.6750   18.6450 C   0  0  0  0  0  3  0  0  0  0  0  0
  -29.9740  -17.8560   20.9460 C   0  0  0  0  0  3  0  0  0  0  0  0
  -29.8340  -16.4880   20.3690 C   0  0  0  0  0  0  0  0  0  0  0  0
  -29.3700  -19.1070   20.4010 C   0  0  0  0  0  0  0  0  0  0  0  0
  -29.1130  -16.5190   19.1290 C   0  0  0  0  0  0  0  0  0  0  0  0
  -30.6000  -15.1340   20.8230 C   0  0  0  0  0  0  0  0  0  0  0  0
  -30.6320  -12.7050   20.1120 C   0  0  0  0  0  2  0  0  0  0  0  0
  -29.8310  -12.4550   18.8120 C   0  0  0  0  0  2  0  0  0  0  0  0
  -28.3120  -12.3410   19.0780 C   0  0  0  0  0  2  0  0  0  0  0  0
  -27.7680  -13.3160   20.1590 C   0  0  0  0  0  3  0  0  0  0  0  0
  -28.7190  -13.4620   21.3580 C   0  0  0  0  0  2  0  0  0  0  0  0
  -30.0300  -13.8600   20.8310 N   0  0  0  0  0  0  0  0  0  0  0  0
  -31.8350  -15.1830   20.8630 O   0  0  0  0  0  0  0  0  0  0  0  0
  -25.3210  -13.8620   20.6620 C   0  0  0  0  0  0  0  0  0  0  0  0
  -24.2460  -13.0710   20.9600 C   0  0  0  0  0  0  0  0  0  0  0  0
  -24.7460  -11.7350   21.0310 C   0  0  0  0  0  0  0  0  0  0  0  0
  -26.4030  -13.0030   20.5590 N   0  0  0  0  0  0  0  0  0  0  0  0
  -26.0610  -11.7240   20.8510 N   0  0  0  0  0  0  0  0  0  0  0  0
  -24.0410  -10.4580   21.1990 C   0  0  0  0  0  0  0  0  0  0  0  0
  -24.4090   -9.5380   22.2050 C   0  0  0  0  0  3  0  0  0  0  0  0
  -23.7010   -8.3270   22.3600 C   0  0  0  0  0  3  0  0  0  0  0  0
  -22.6120   -8.0270   21.5070 C   0  0  0  0  0  0  0  0  0  0  0  0
  -22.2640   -8.9360   20.4930 C   0  0  0  0  0  3  0  0  0  0  0  0
  -22.9730  -10.1380   20.3360 C   0  0  0  0  0  3  0  0  0  0  0  0
  -21.8820   -6.8650   21.5680 O   0  0  0  0  0  0  0  0  0  0  0  0
  -21.7470   -6.1610   22.7380 C   0  0  0  0  0  0  0  0  0  0  0  0
  -21.1890   -6.7430   23.8980 C   0  0  0  0  0  3  0  0  0  0  0  0
  -21.0060   -5.9650   25.0570 C   0  0  0  0  0  3  0  0  0  0  0  0
  -21.3690   -4.6040   25.0570 C   0  0  0  0  0  0  0  0  0  0  0  0
  -21.9180   -4.0220   23.9010 C   0  0  0  0  0  3  0  0  0  0  0  0
  -22.1040   -4.7980   22.7450 C   0  0  0  0  0  0  0  0  0  0  0  0
  -22.6140   -4.2270   21.6260 F   0  0  0  0  0  0  0  0  0  0  0  0
  -21.1840   -3.8520   26.1670 F   0  0  0  0  0  0  0  0  0  0  0  0
  -22.8170  -13.5150   21.0720 C   0  0  0  0  0  0  0  0  0  0  0  0
  -22.0250  -12.8310   21.8900 N   0  0  0  0  0  0  0  0  0  0  0  0
  -22.4060  -14.5050   20.4680 O   0  0  0  0  0  0  0  0  0  0  0  0
  -22.3690  -12.0330   22.4030 H   0  0  0  0  0  0  0  0  0  0  0  0
  -21.0610  -13.1090   22.0050 H   0  0  0  0  0  0  0  0  0  0  0  0
  -25.4650  -15.2290   20.4440 N   0  0  0  0  0  0  0  0  0  0  0  0
  -24.6770  -15.8670   20.4440 H   0  0  0  0  0  0  0  0  0  0  0  0
  -26.3340  -15.6690   20.1650 H   0  0  0  0  0  0  0  0  0  0  0  0
  -29.0540  -15.4610   18.2300 N   0  0  0  0  0  0  0  0  0  0  0  0
  -28.7170  -15.6020   17.2830 H   0  0  0  0  0  0  0  0  0  0  0  0
  -29.6090  -14.6240   18.3540 H   0  0  0  0  0  0  0  0  0  0  0  0
  -29.5230  -20.6570   20.9010 C   0  0  0  0  0  3  0  0  0  0  0  0
  -28.7570  -21.9570   20.1640 C   0  0  0  0  0  3  0  0  0  0  0  0
  -29.0170  -23.5830   20.4690 C   0  0  0  0  0  3  0  0  0  0  0  0
  -28.0620  -24.8190   19.8760 C   0  0  0  0  0  3  0  0  0  0  0  0
  -28.3030  -26.3390   20.0090 O   0  0  0  0  0  0  0  0  0  0  0  0
  -24.6630  -31.9200   23.0710 C   0  0  0  0  0  0  0  0  0  0  0  0
  -27.2270  -27.2880   19.9480 C   0  0  0  0  0  0  0  0  0  0  0  0
  -23.4420  -30.5310   21.4400 C   0  0  0  0  0  3  0  0  0  0  0  0
  -24.8770  -28.9880   19.9710 C   0  0  0  0  0  0  0  0  0  0  0  0
  -25.9870  -30.8280   21.2290 C   0  0  0  0  0  2  0  0  0  0  0  0
  -26.0600  -29.4470   20.5630 C   0  0  0  0  0  0  0  0  0  0  0  0
  -27.2350  -28.6120   20.5360 C   0  0  0  0  0  3  0  0  0  0  0  0
  -26.0190  -26.9270   19.3100 C   0  0  0  0  0  3  0  0  0  0  0  0
  -24.8670  -27.7410   19.3290 C   0  0  0  0  0  3  0  0  0  0  0  0
  -23.6410  -29.8700   20.0510 C   0  0  0  0  0  2  0  0  0  0  0  0
  -24.7180  -31.1140   21.9680 N   0  0  0  0  0  0  0  0  0  0  0  0
  -23.5850  -32.1920   23.6220 O   0  0  0  0  0  0  0  0  0  0  0  0
  -22.7900  -29.5090   22.4030 C   0  0  0  0  0  0  0  0  0  0  0  0
  -21.4570  -29.3500   22.3190 N   0  0  0  0  0  0  0  0  0  0  0  0
  -23.4860  -28.8620   23.1900 O   0  0  0  0  0  0  0  0  0  0  0  0
  -20.9530  -29.9250   21.6580 H   0  0  0  0  0  0  0  0  0  0  0  0
  -18.0870  -28.1630   22.9080 C   0  0  0  0  0  0  0  0  0  0  0  0
  -20.6550  -28.4030   23.0990 C   0  0  0  0  0  3  0  0  0  0  0  0
  -20.7290  -26.9810   22.4960 C   0  0  0  0  0  2  0  0  0  0  0  0
  -19.5930  -26.6850   21.5110 C   0  0  0  0  0  2  0  0  0  0  0  0
  -18.2330  -26.8250   22.2030 C   0  0  0  0  0  2  0  0  0  0  0  0
  -19.2240  -28.9110   23.3150 C   0  0  0  0  0  0  0  0  0  0  0  0
  -19.0330  -30.1620   23.9390 C   0  0  0  0  0  3  0  0  0  0  0  0
  -17.7380  -30.6680   24.1570 C   0  0  0  0  0  3  0  0  0  0  0  0
  -16.6160  -29.9180   23.7650 C   0  0  0  0  0  3  0  0  0  0  0  0
  -16.7920  -28.6670   23.1460 C   0  0  0  0  0  3  0  0  0  0  0  0
  -25.9490  -32.5590   23.6790 C   0  0  0  0  0  3  0  0  0  0  0  0
  -25.6180  -33.9350   24.0800 N   0  0  0  0  0  0  0  0  0  0  0  0
  -25.9510  -35.0340   23.3890 C   0  0  0  0  0  0  0  0  0  0  0  0
  -26.6350  -34.9950   22.3630 O   0  0  0  0  0  0  0  0  0  0  0  0
  -25.0110  -34.0380   24.8810 H   0  0  0  0  0  0  0  0  0  0  0  0
  -24.2340  -36.8500   23.0950 C   0  0  0  0  0  1  0  0  0  0  0  0
  -25.4480  -36.3900   23.9190 C   0  0  0  0  0  3  0  0  0  0  0  0
  -27.5510  -37.2180   24.8790 C   0  0  0  0  0  1  0  0  0  0  0  0
  -26.4810  -37.4480   23.9110 N   0  0  0  0  0  0  0  0  0  0  0  0
  -26.0680  -38.3570   24.1050 H   0  0  0  0  0  0  0  0  0  0  0  0
  -26.5200  -31.7490   24.9080 C   0  0  1  0  0  0  0  0  0  0  0  0
  -25.4670  -31.4500   26.0010 C   0  0  0  0  0  1  0  0  0  0  0  0
  -27.1160  -30.3990   24.4470 C   0  0  0  0  0  1  0  0  0  0  0  0
  -27.6760  -32.5410   25.5640 C   0  0  0  0  0  1  0  0  0  0  0  0
  1  5  1  0
  2  6  1  0
  2  1  2  0
  4  7  1  0
  4  3  1  0
  5 46  1  0
  5  3  2  0
  6  4  2  0
  7 13  1  0
  7 14  2  0
  8 13  1  0
  9 10  1  0
  9  8  1  0
 11 10  1  0
 11 18  1  0
 11 12  1  0
 13 12  1  0
 15 16  2  0
 16 17  1  0
 16 35  1  0
 17 20  1  0
 18 15  1  0
 18 19  1  0
 19 17  2  0
 20 21  1  0
 21 22  2  0
 23 26  1  0
 23 22  1  0
 24 23  2  0
 25 24  1  0
 25 20  2  0
 26 27  1  0
 27 32  2  0
 27 28  1  0
 28 29  2  0
 29 30  1  0
 30 34  1  0
 31 30  2  0
 32 31  1  0
 33 32  1  0
 35 36  1  0
 36 39  1  0
 36 38  1  0
 37 35  2  0
 40 15  1  0
 41 40  1  0
 42 40  1  0
 43 45  1  0
 43  6  1  0
 44 43  1  0
 47 48  1  0
 47 46  2  0
 49 50  1  0
 49 48  2  0
 51 62  2  0
 52 50  1  0
 52 57  1  0
 53 61  1  0
 53 63  1  0
 54 60  1  0
 54 56  1  0
 55 61  1  0
 56 55  1  0
 57 56  2  0
 58 59  1  0
 58 52  2  0
 59 54  2  0
 60 53  1  0
 61 51  1  0
 63 65  2  0
 64 63  1  0
 66 64  1  0
 67 76  2  0
 67 72  1  0
 68 64  1  0
 68 72  1  0
 69 68  1  0
 70 71  1  0
 70 69  1  0
 71 67  1  0
 72 73  2  0
 73 74  1  0
 75 74  2  0
 76 75  1  0
 77 51  1  0
 77 78  1  0
 77 87  1  0
 78 81  1  0
 79 83  1  0
 79 78  1  0
 80 79  2  0
 83 82  1  0
 85 83  1  0
 85 86  1  0
 85 84  1  0
 87 90  1  1
 87 88  1  0
 89 87  1  0
M  ISO  4   4 100   7 100  49 101  50 101
M  END
>  <TORSDO>  (77) 
F 21

>  <SCORE>  (77) 
-12.708

>  <name>  (77) 
76

>  <ligand_id>  (77) 
76

>  <original_smiles>  (77) 
[H]c1c([H])c([H])c2c(c1[H])C([H])([H])C([H])([H])C([H])([H])C2([H])N([H])C(=O)C1([H])N(C(=O)C([H])(N([H])C(=O)C([H])(N([H])C([H])([H])[H])C([H])([H])[H])C(C([H])([H])[H])(C([H])([H])[H])C([H])([H])[H])C([H])([H])c2c([H])c(OC([H])([H])C([H])([H])C([H])([H])C([H])([H])c3c([H])c([H])c(N([H])[H])c(C(=O)N4C([H])([H])C([H])([H])C([H])([H])C([H])(n5nc(-c6c([H])c([H])c(Oc7c([H])c([H])c(F)c([H])c7F)c([H])c6[H])c(C(=O)N([H])[H])c5N([H])[H])C4([H])[H])c3[H])c([H])c([H])c2C1([H])[H]

>  <smiles>  (77) 
[H]c1c([H])c([H])c2c(c1[H])C([H])([H])C([H])([H])C([H])([H])C2([H])N([H])C(=O)C1([H])N(C(=O)C([H])(N([H])C(=O)C([H])(N([H])C([H])([H])[H])C([H])([H])[H])C(C([H])([H])[H])(C([H])([H])[H])C([H])([H])[H])C([H])([H])c2c([H])c(OC([H])([H])C([H])([H])C([H])([H])C([H])([H])c3c([H])c([H])c(N([H])[H])c(C(=O)N4C([H])([H])C([H])([H])C([H])([H])C([H])(n5nc(-c6c([H])c([H])c(Oc7c([H])c([H])c(F)c([H])c7F)c([H])c6[H])c(C(=O)N([H])[H])c5N([H])[H])C4([H])[H])c3[H])c([H])c([H])c2C1([H])[H]

$$$$
77:0:0
     RDKit          3D

 91 99  0  0  1  0  0  0  0  0999 V2000
  -30.2960  -23.5810   20.0670 C   0  0  0  0  0  3  0  0  0  0  0  0
  -31.2230  -22.5180   19.9470 C   0  0  0  0  0  3  0  0  0  0  0  0
  -28.6240  -21.8940   20.5570 C   0  0  0  0  0  3  0  0  0  0  0  0
  -28.9440  -23.3440   20.3730 C   0  0  0  0  0  0  0  0  0  0  0  0
  -29.5590  -20.7340   20.4340 C   0  0  0  0  0  0  0  0  0  0  0  0
  -30.8800  -21.1490   20.1140 C   0  0  0  0  0  0  0  0  0  0  0  0
  -31.9010  -20.2230   19.9410 N   0  0  0  0  0  0  0  0  0  0  0  0
  -32.7440  -20.5240   19.4620 H   0  0  0  0  0  0  0  0  0  0  0  0
  -31.6390  -19.2740   19.7030 H   0  0  0  0  0  0  0  0  0  0  0  0
  -29.1860  -19.1150   20.6220 C   0  0  0  0  0  3  0  0  0  0  0  0
  -30.1970  -17.7550   20.4350 C   0  0  0  0  0  3  0  0  0  0  0  0
  -30.5290  -15.0200   20.3230 C   0  0  0  0  0  0  0  0  0  0  0  0
  -30.3840  -12.6780   19.3480 C   0  0  0  0  0  2  0  0  0  0  0  0
  -29.4340  -12.6360   18.1260 C   0  0  0  0  0  2  0  0  0  0  0  0
  -27.9800  -12.4100   18.5800 C   0  0  0  0  0  2  0  0  0  0  0  0
  -27.5870  -13.3260   19.7700 C   0  0  0  0  0  3  0  0  0  0  0  0
  -28.6560  -13.3400   20.8830 C   0  0  0  0  0  2  0  0  0  0  0  0
  -29.9170  -13.7650   20.2590 N   0  0  0  0  0  0  0  0  0  0  0  0
  -31.7190  -15.0760   19.9950 O   0  0  0  0  0  0  0  0  0  0  0  0
  -29.7900  -16.2190   20.5510 N   0  0  0  0  0  0  0  0  0  0  0  0
  -28.8200  -16.0630   20.7850 H   0  0  0  0  0  0  0  0  0  0  0  0
  -25.2190  -13.8860   20.5570 C   0  0  0  0  0  0  0  0  0  0  0  0
  -24.1630  -13.1030   20.9320 C   0  0  0  0  0  0  0  0  0  0  0  0
  -24.6290  -11.7540   20.8740 C   0  0  0  0  0  0  0  0  0  0  0  0
  -26.2590  -13.0150   20.2840 N   0  0  0  0  0  0  0  0  0  0  0  0
  -25.9140  -11.7260   20.5400 N   0  0  0  0  0  0  0  0  0  0  0  0
  -23.9080  -10.4860   21.0560 C   0  0  0  0  0  0  0  0  0  0  0  0
  -24.3400   -9.5170   21.9850 C   0  0  0  0  0  3  0  0  0  0  0  0
  -23.6190   -8.3160   22.1550 C   0  0  0  0  0  3  0  0  0  0  0  0
  -22.4510   -8.0750   21.3940 C   0  0  0  0  0  0  0  0  0  0  0  0
  -22.0380   -9.0340   20.4520 C   0  0  0  0  0  3  0  0  0  0  0  0
  -22.7610  -10.2270   20.2810 C   0  0  0  0  0  3  0  0  0  0  0  0
  -21.7000   -6.9280   21.4750 O   0  0  0  0  0  0  0  0  0  0  0  0
  -21.6290   -6.1930   22.6300 C   0  0  0  0  0  0  0  0  0  0  0  0
  -21.1480   -6.7470   23.8380 C   0  0  0  0  0  3  0  0  0  0  0  0
  -21.0290   -5.9370   24.9840 C   0  0  0  0  0  3  0  0  0  0  0  0
  -21.3770   -4.5750   24.9250 C   0  0  0  0  0  0  0  0  0  0  0  0
  -21.8500   -4.0200   23.7220 C   0  0  0  0  0  3  0  0  0  0  0  0
  -21.9710   -4.8270   22.5770 C   0  0  0  0  0  0  0  0  0  0  0  0
  -22.4080   -4.2830   21.4160 F   0  0  0  0  0  0  0  0  0  0  0  0
  -21.2540   -3.7940   26.0240 F   0  0  0  0  0  0  0  0  0  0  0  0
  -22.7690  -13.5720   21.2320 C   0  0  0  0  0  0  0  0  0  0  0  0
  -22.0580  -12.8620   22.1020 N   0  0  0  0  0  0  0  0  0  0  0  0
  -22.3210  -14.6040   20.7340 O   0  0  0  0  0  0  0  0  0  0  0  0
  -22.4360  -12.0270   22.5270 H   0  0  0  0  0  0  0  0  0  0  0  0
  -21.1220  -13.1550   22.3450 H   0  0  0  0  0  0  0  0  0  0  0  0
  -25.3770  -15.2590   20.3960 N   0  0  0  0  0  0  0  0  0  0  0  0
  -24.6060  -15.9080   20.5180 H   0  0  0  0  0  0  0  0  0  0  0  0
  -26.2120  -15.7010   20.0360 H   0  0  0  0  0  0  0  0  0  0  0  0
  -27.9080  -24.6350   20.4440 C   0  0  0  0  0  2  0  0  0  0  0  0
  -28.2450  -26.1620   20.3030 O   0  0  0  0  0  0  0  0  0  0  0  0
  -24.6350  -31.8990   23.2640 C   0  0  0  0  0  0  0  0  0  0  0  0
  -27.1950  -27.1610   20.2460 C   0  0  0  0  0  0  0  0  0  0  0  0
  -23.4300  -30.5070   21.6260 C   0  0  0  0  0  3  0  0  0  0  0  0
  -24.8740  -28.9260   20.2020 C   0  0  0  0  0  0  0  0  0  0  0  0
  -25.9860  -30.7630   21.4570 C   0  0  0  0  0  2  0  0  0  0  0  0
  -26.0550  -29.3680   20.8100 C   0  0  0  0  0  0  0  0  0  0  0  0
  -27.2170  -28.5050   20.8090 C   0  0  0  0  0  3  0  0  0  0  0  0
  -25.9830  -26.8270   19.5960 C   0  0  0  0  0  3  0  0  0  0  0  0
  -24.8490  -27.6710   19.5810 C   0  0  0  0  0  3  0  0  0  0  0  0
  -23.6490  -29.8270   20.2470 C   0  0  0  0  0  2  0  0  0  0  0  0
  -24.7050  -31.0790   22.1710 N   0  0  0  0  0  0  0  0  0  0  0  0
  -23.5490  -32.1840   23.7950 O   0  0  0  0  0  0  0  0  0  0  0  0
  -22.7470  -29.5010   22.5870 C   0  0  0  0  0  0  0  0  0  0  0  0
  -21.4200  -29.3290   22.4530 N   0  0  0  0  0  0  0  0  0  0  0  0
  -23.4150  -28.8810   23.4180 O   0  0  0  0  0  0  0  0  0  0  0  0
  -20.9380  -29.8790   21.7560 H   0  0  0  0  0  0  0  0  0  0  0  0
  -18.0390  -28.1190   22.9400 C   0  0  0  0  0  0  0  0  0  0  0  0
  -20.5960  -28.3920   23.2210 C   0  0  0  0  0  3  0  0  0  0  0  0
  -20.7050  -26.9570   22.6560 C   0  0  0  0  0  2  0  0  0  0  0  0
  -19.6120  -26.6270   21.6350 C   0  0  0  0  0  2  0  0  0  0  0  0
  -18.2230  -26.7690   22.2680 C   0  0  0  0  0  2  0  0  0  0  0  0
  -19.1520  -28.8880   23.3720 C   0  0  0  0  0  0  0  0  0  0  0  0
  -18.9210  -30.1520   23.9590 C   0  0  0  0  0  3  0  0  0  0  0  0
  -17.6130  -30.6460   24.1160 C   0  0  0  0  0  3  0  0  0  0  0  0
  -16.5150  -29.8740   23.6990 C   0  0  0  0  0  3  0  0  0  0  0  0
  -16.7280  -28.6110   23.1160 C   0  0  0  0  0  3  0  0  0  0  0  0
  -25.9150  -32.5300   23.8950 C   0  0  0  0  0  3  0  0  0  0  0  0
  -26.4180  -31.7620   25.1800 C   0  0  1  0  0  0  0  0  0  0  0  0
  -25.3170  -31.5390   26.2430 C   0  0  0  0  0  1  0  0  0  0  0  0
  -26.9920  -30.3790   24.8020 C   0  0  0  0  0  1  0  0  0  0  0  0
  -27.5690  -32.5490   25.8450 C   0  0  0  0  0  1  0  0  0  0  0  0
  -25.6080  -33.9320   24.2240 N   0  0  0  0  0  0  0  0  0  0  0  0
  -25.9150  -34.9860   23.4560 C   0  0  0  0  0  0  0  0  0  0  0  0
  -26.5530  -34.8830   22.4050 O   0  0  0  0  0  0  0  0  0  0  0  0
  -25.0460  -34.0840   25.0480 H   0  0  0  0  0  0  0  0  0  0  0  0
  -24.1600  -36.7640   23.1630 C   0  0  0  0  0  1  0  0  0  0  0  0
  -25.4390  -36.3760   23.9240 C   0  0  0  0  0  3  0  0  0  0  0  0
  -27.5990  -37.2800   24.6590 C   0  0  0  0  0  1  0  0  0  0  0  0
  -26.4600  -37.4360   23.7600 N   0  0  0  0  0  0  0  0  0  0  0  0
  -26.0540  -38.3540   23.9160 H   0  0  0  0  0  0  0  0  0  0  0  0
  1  4  1  0
  2  1  2  0
  2  6  1  0
  4 50  1  0
  4  3  2  0
  5  3  1  0
  5 10  1  0
  6  5  2  0
  7  6  1  0
  8  7  1  0
  9  7  1  0
 11 20  1  0
 11 10  2  0
 12 20  1  0
 13 18  1  0
 14 15  1  0
 14 13  1  0
 16 15  1  0
 16 25  1  0
 16 17  1  0
 18 12  1  0
 18 17  1  0
 19 12  2  0
 20 21  1  0
 22 23  2  0
 23 42  1  0
 24 23  1  0
 24 27  1  0
 25 26  1  0
 25 22  1  0
 26 24  2  0
 27 28  1  0
 28 29  2  0
 30 33  1  0
 30 29  1  0
 31 30  2  0
 32 31  1  0
 32 27  2  0
 33 34  1  0
 34 35  1  0
 35 36  2  0
 37 36  1  0
 37 41  1  0
 38 37  2  0
 39 34  2  0
 39 38  1  0
 40 39  1  0
 42 43  1  0
 43 46  1  0
 43 45  1  0
 44 42  2  0
 47 48  1  0
 47 22  1  0
 49 47  1  0
 51 50  1  0
 52 63  2  0
 53 51  1  0
 53 58  1  0
 54 62  1  0
 54 64  1  0
 55 61  1  0
 55 57  1  0
 56 62  1  0
 57 56  1  0
 58 57  2  0
 59 53  2  0
 60 59  1  0
 60 55  2  0
 61 54  1  0
 62 52  1  0
 64 66  2  0
 65 64  1  0
 67 65  1  0
 68 77  2  0
 68 73  1  0
 69 65  1  0
 69 73  1  0
 70 69  1  0
 71 72  1  0
 71 70  1  0
 72 68  1  0
 73 74  2  0
 74 75  1  0
 76 75  2  0
 77 76  1  0
 78 52  1  0
 78 83  1  0
 78 79  1  0
 79 82  1  1
 79 80  1  0
 81 79  1  0
 83 86  1  0
 84 88  1  0
 84 83  1  0
 85 84  2  0
 88 87  1  0
 90 91  1  0
 90 88  1  0
 90 89  1  0
M  ISO  4  12 100  20 100  50 101  51 101
M  END
>  <TORSDO>  (78) 
F 20

>  <SCORE>  (78) 
-14.750

>  <name>  (78) 
77

>  <ligand_id>  (78) 
77

>  <original_smiles>  (78) 
[H]c1c([H])c([H])c2c(c1[H])C([H])([H])C([H])([H])C([H])([H])C2([H])N([H])C(=O)C1([H])N(C(=O)C([H])(N([H])C(=O)C([H])(N([H])C([H])([H])[H])C([H])([H])[H])C(C([H])([H])[H])(C([H])([H])[H])C([H])([H])[H])C([H])([H])c2c([H])c(OC([H])([H])c3c([H])c([H])c(N([H])[H])c(C([H])([H])C([H])([H])N([H])C(=O)N4C([H])([H])C([H])([H])C([H])([H])C([H])(n5nc(-c6c([H])c([H])c(Oc7c([H])c([H])c(F)c([H])c7F)c([H])c6[H])c(C(=O)N([H])[H])c5N([H])[H])C4([H])[H])c3[H])c([H])c([H])c2C1([H])[H]

>  <smiles>  (78) 
[H]c1c([H])c([H])c2c(c1[H])C([H])([H])C([H])([H])C([H])([H])C2([H])N([H])C(=O)C1([H])N(C(=O)C([H])(N([H])C(=O)C([H])(N([H])C([H])([H])[H])C([H])([H])[H])C(C([H])([H])[H])(C([H])([H])[H])C([H])([H])[H])C([H])([H])c2c([H])c(OC([H])([H])c3c([H])c([H])c(N([H])[H])c(C([H])([H])C([H])([H])N([H])C(=O)N4C([H])([H])C([H])([H])C([H])([H])C([H])(n5nc(-c6c([H])c([H])c(Oc7c([H])c([H])c(F)c([H])c7F)c([H])c6[H])c(C(=O)N([H])[H])c5N([H])[H])C4([H])[H])c3[H])c([H])c([H])c2C1([H])[H]

$$$$
78:0:0
     RDKit          3D

 89 97  0  0  1  0  0  0  0  0999 V2000
  -30.4460  -21.0660   19.7350 C   0  0  0  0  0  3  0  0  0  0  0  0
  -30.0230  -22.4880   19.6600 C   0  0  0  0  0  3  0  0  0  0  0  0
  -28.3790  -20.4190   20.4210 C   0  0  0  0  0  3  0  0  0  0  0  0
  -29.6800  -19.8550   20.0840 C   0  0  0  0  0  0  0  0  0  0  0  0
  -28.7150  -23.0330   19.9660 C   0  0  0  0  0  0  0  0  0  0  0  0
  -27.9370  -21.8480   20.3740 C   0  0  0  0  0  0  0  0  0  0  0  0
  -26.4950  -22.0940   20.7840 C   0  0  0  0  0  1  0  0  0  0  0  0
  -30.2740  -18.2220   20.0500 C   0  0  0  0  0  0  0  0  0  0  0  0
  -29.8880  -16.9240   20.4570 N   0  0  0  0  0  0  0  0  0  0  0  0
  -30.6540  -15.5720   20.3700 C   0  0  0  0  0  0  0  0  0  0  0  0
  -30.6170  -13.0880   19.6370 C   0  0  0  0  0  2  0  0  0  0  0  0
  -29.7610  -12.8560   18.3680 C   0  0  0  0  0  2  0  0  0  0  0  0
  -28.2910  -12.6100   18.7480 C   0  0  0  0  0  2  0  0  0  0  0  0
  -27.7920  -13.6260   19.8050 C   0  0  0  0  0  3  0  0  0  0  0  0
  -28.7850  -13.8380   20.9660 C   0  0  0  0  0  2  0  0  0  0  0  0
  -30.0640  -14.2780   20.3870 N   0  0  0  0  0  0  0  0  0  0  0  0
  -31.8690  -15.4820   20.1680 O   0  0  0  0  0  0  0  0  0  0  0  0
  -25.4020  -14.2070   20.4750 C   0  0  0  0  0  0  0  0  0  0  0  0
  -24.3220  -13.4430   20.8180 C   0  0  0  0  0  0  0  0  0  0  0  0
  -24.7800  -12.0890   20.8240 C   0  0  0  0  0  0  0  0  0  0  0  0
  -26.4450  -13.3230   20.2770 N   0  0  0  0  0  0  0  0  0  0  0  0
  -26.0820  -12.0420   20.5570 N   0  0  0  0  0  0  0  0  0  0  0  0
  -24.0380  -10.8350   21.0080 C   0  0  0  0  0  0  0  0  0  0  0  0
  -24.4170   -9.8850   21.9820 C   0  0  0  0  0  3  0  0  0  0  0  0
  -23.6720   -8.6980   22.1540 C   0  0  0  0  0  3  0  0  0  0  0  0
  -22.5330   -8.4510   21.3510 C   0  0  0  0  0  0  0  0  0  0  0  0
  -22.1730   -9.3880   20.3670 C   0  0  0  0  0  3  0  0  0  0  0  0
  -22.9180  -10.5670   20.1950 C   0  0  0  0  0  3  0  0  0  0  0  0
  -21.7660   -7.3130   21.4300 O   0  0  0  0  0  0  0  0  0  0  0  0
  -21.6670   -6.5900   22.5910 C   0  0  0  0  0  0  0  0  0  0  0  0
  -21.1550   -7.1540   23.7790 C   0  0  0  0  0  3  0  0  0  0  0  0
  -21.0050   -6.3550   24.9300 C   0  0  0  0  0  3  0  0  0  0  0  0
  -21.3590   -4.9930   24.8940 C   0  0  0  0  0  0  0  0  0  0  0  0
  -21.8640   -4.4280   23.7100 C   0  0  0  0  0  3  0  0  0  0  0  0
  -22.0140   -5.2250   22.5610 C   0  0  0  0  0  0  0  0  0  0  0  0
  -22.4820   -4.6690   21.4170 F   0  0  0  0  0  0  0  0  0  0  0  0
  -21.2090   -4.2240   25.9980 F   0  0  0  0  0  0  0  0  0  0  0  0
  -22.9200  -13.9330   21.0290 C   0  0  0  0  0  0  0  0  0  0  0  0
  -22.1560  -13.2600   21.8820 N   0  0  0  0  0  0  0  0  0  0  0  0
  -22.5090  -14.9510   20.4730 O   0  0  0  0  0  0  0  0  0  0  0  0
  -22.5010  -12.4370   22.3540 H   0  0  0  0  0  0  0  0  0  0  0  0
  -21.2130  -13.5730   22.0670 H   0  0  0  0  0  0  0  0  0  0  0  0
  -25.5820  -15.5750   20.2880 N   0  0  0  0  0  0  0  0  0  0  0  0
  -24.8250  -16.2430   20.3820 H   0  0  0  0  0  0  0  0  0  0  0  0
  -26.4630  -16.0030   20.0310 H   0  0  0  0  0  0  0  0  0  0  0  0
  -32.8050  -18.5340   20.2360 C   0  0  0  0  0  1  0  0  0  0  0  0
  -31.6120  -18.2820   19.2950 C   0  0  0  0  0  2  0  0  0  0  0  0
  -28.0380  -24.6200   19.6560 C   0  0  0  0  0  2  0  0  0  0  0  0
  -28.3840  -26.1860   19.9640 O   0  0  0  0  0  0  0  0  0  0  0  0
  -24.6450  -31.8460   23.2500 C   0  0  0  0  0  0  0  0  0  0  0  0
  -27.3600  -27.2680   19.9470 C   0  0  0  0  0  0  0  0  0  0  0  0
  -23.4990  -30.5170   21.5230 C   0  0  0  0  0  3  0  0  0  0  0  0
  -25.0010  -29.0600   20.0080 C   0  0  0  0  0  0  0  0  0  0  0  0
  -26.0560  -30.8270   21.3990 C   0  0  0  0  0  2  0  0  0  0  0  0
  -26.1730  -29.4670   20.6570 C   0  0  0  0  0  0  0  0  0  0  0  0
  -27.3490  -28.5920   20.6050 C   0  0  0  0  0  3  0  0  0  0  0  0
  -26.1530  -27.0180   19.2540 C   0  0  0  0  0  3  0  0  0  0  0  0
  -25.0120  -27.8570   19.2890 C   0  0  0  0  0  3  0  0  0  0  0  0
  -23.7510  -29.9320   20.1090 C   0  0  0  0  0  2  0  0  0  0  0  0
  -24.7540  -31.0860   22.1130 N   0  0  0  0  0  0  0  0  0  0  0  0
  -23.5460  -32.0670   23.7840 O   0  0  0  0  0  0  0  0  0  0  0  0
  -22.8360  -29.4390   22.4210 C   0  0  0  0  0  0  0  0  0  0  0  0
  -21.5140  -29.2360   22.2760 N   0  0  0  0  0  0  0  0  0  0  0  0
  -23.5190  -28.7890   23.2160 O   0  0  0  0  0  0  0  0  0  0  0  0
  -21.0140  -29.8160   21.6160 H   0  0  0  0  0  0  0  0  0  0  0  0
  -18.1640  -27.9180   22.7250 C   0  0  0  0  0  0  0  0  0  0  0  0
  -20.7200  -28.2250   22.9810 C   0  0  0  0  0  3  0  0  0  0  0  0
  -20.8470  -26.8410   22.3010 C   0  0  0  0  0  2  0  0  0  0  0  0
  -19.7410  -26.5680   21.2770 C   0  0  0  0  0  2  0  0  0  0  0  0
  -18.3630  -26.6300   21.9450 C   0  0  0  0  0  2  0  0  0  0  0  0
  -19.2690  -28.6740   23.1980 C   0  0  0  0  0  0  0  0  0  0  0  0
  -19.0260  -29.8800   23.8910 C   0  0  0  0  0  3  0  0  0  0  0  0
  -17.7120  -30.3310   24.1140 C   0  0  0  0  0  3  0  0  0  0  0  0
  -16.6210  -29.5710   23.6560 C   0  0  0  0  0  3  0  0  0  0  0  0
  -16.8480  -28.3660   22.9680 C   0  0  0  0  0  3  0  0  0  0  0  0
  -25.8940  -32.4860   23.9260 C   0  0  0  0  0  3  0  0  0  0  0  0
  -26.3690  -31.7060   25.2150 C   0  0  1  0  0  0  0  0  0  0  0  0
  -25.2400  -31.4510   26.2410 C   0  0  0  0  0  1  0  0  0  0  0  0
  -26.9790  -30.3360   24.8380 C   0  0  0  0  0  1  0  0  0  0  0  0
  -27.4890  -32.5050   25.9260 C   0  0  0  0  0  1  0  0  0  0  0  0
  -25.5570  -33.8790   24.2730 N   0  0  0  0  0  0  0  0  0  0  0  0
  -25.8540  -34.9500   23.5260 C   0  0  0  0  0  0  0  0  0  0  0  0
  -26.5050  -34.8720   22.4810 O   0  0  0  0  0  0  0  0  0  0  0  0
  -24.9770  -34.0090   25.0890 H   0  0  0  0  0  0  0  0  0  0  0  0
  -24.0650  -36.7030   23.2650 C   0  0  0  0  0  1  0  0  0  0  0  0
  -25.3530  -36.3250   24.0130 C   0  0  0  0  0  3  0  0  0  0  0  0
  -27.4930  -37.2760   24.7560 C   0  0  0  0  0  1  0  0  0  0  0  0
  -26.3520  -37.4070   23.8550 N   0  0  0  0  0  0  0  0  0  0  0  0
  -25.9250  -38.3150   24.0140 H   0  0  0  0  0  0  0  0  0  0  0  0
  1  4  1  0
  2  1  2  0
  2  5  1  0
  4  3  2  0
  5  6  2  0
  6  3  1  0
  6  7  1  0
  8  4  1  0
  8  9  2  0
 10 16  1  0
 10  9  1  0
 11 16  1  0
 12 13  1  0
 12 11  1  0
 14 13  1  0
 14 21  1  0
 14 15  1  0
 16 15  1  0
 17 10  2  0
 18 19  2  0
 19 20  1  0
 19 38  1  0
 20 23  1  0
 21 18  1  0
 21 22  1  0
 22 20  2  0
 23 24  1  0
 24 25  2  0
 26 29  1  0
 26 25  1  0
 27 26  2  0
 28 27  1  0
 28 23  2  0
 29 30  1  0
 30 31  1  0
 31 32  2  0
 33 32  1  0
 33 37  1  0
 34 33  2  0
 35 30  2  0
 35 34  1  0
 36 35  1  0
 38 39  1  0
 39 42  1  0
 39 41  1  0
 40 38  2  0
 43 44  1  0
 43 18  1  0
 45 43  1  0
 47  8  1  0
 47 46  1  0
 48 49  1  0
 48  5  1  0
 50 61  2  0
 51 49  1  0
 51 56  1  0
 52 60  1  0
 52 62  1  0
 53 59  1  0
 53 55  1  0
 54 60  1  0
 55 54  1  0
 56 55  2  0
 57 58  1  0
 57 51  2  0
 58 53  2  0
 59 52  1  0
 60 50  1  0
 62 64  2  0
 63 62  1  0
 65 63  1  0
 66 75  2  0
 66 71  1  0
 67 63  1  0
 67 71  1  0
 68 67  1  0
 69 70  1  0
 69 68  1  0
 70 66  1  0
 71 72  2  0
 72 73  1  0
 74 73  2  0
 75 74  1  0
 76 50  1  0
 76 81  1  0
 76 77  1  0
 77 80  1  1
 77 78  1  0
 79 77  1  0
 81 84  1  0
 82 86  1  0
 82 81  1  0
 83 82  2  0
 86 85  1  0
 88 86  1  0
 88 89  1  0
 88 87  1  0
M  ISO  4   9 100  10 100  48 101  49 101
M  END
>  <TORSDO>  (79) 
F 19

>  <SCORE>  (79) 
-14.358

>  <name>  (79) 
78

>  <ligand_id>  (79) 
78

>  <original_smiles>  (79) 
[H]c1c([H])c([H])c2c(c1[H])C([H])([H])C([H])([H])C([H])([H])C2([H])N([H])C(=O)C1([H])N(C(=O)C([H])(N([H])C(=O)C([H])(N([H])C([H])([H])[H])C([H])([H])[H])C(C([H])([H])[H])(C([H])([H])[H])C([H])([H])[H])C([H])([H])c2c([H])c(OC([H])([H])c3c([H])c([H])c(C(=NC(=O)N4C([H])([H])C([H])([H])C([H])([H])C([H])(n5nc(-c6c([H])c([H])c(Oc7c([H])c([H])c(F)c([H])c7F)c([H])c6[H])c(C(=O)N([H])[H])c5N([H])[H])C4([H])[H])C([H])([H])C([H])([H])[H])c([H])c3C([H])([H])[H])c([H])c([H])c2C1([H])[H]

>  <smiles>  (79) 
[H]c1c([H])c([H])c2c(c1[H])C([H])([H])C([H])([H])C([H])([H])C2([H])N([H])C(=O)C1([H])N(C(=O)C([H])(N([H])C(=O)C([H])(N([H])C([H])([H])[H])C([H])([H])[H])C(C([H])([H])[H])(C([H])([H])[H])C([H])([H])[H])C([H])([H])c2c([H])c(OC([H])([H])c3c([H])c([H])c(C(=NC(=O)N4C([H])([H])C([H])([H])C([H])([H])C([H])(n5nc(-c6c([H])c([H])c(Oc7c([H])c([H])c(F)c([H])c7F)c([H])c6[H])c(C(=O)N([H])[H])c5N([H])[H])C4([H])[H])C([H])([H])C([H])([H])[H])c([H])c3C([H])([H])[H])c([H])c([H])c2C1([H])[H]

$$$$
79:0:0
     RDKit          3D

 95104  0  0  1  0  0  0  0  0999 V2000
  -29.4050  -20.0380   21.2900 C   0  0  0  0  0  3  0  0  0  0  0  0
  -29.0300  -21.5090   21.3470 C   0  0  0  0  0  3  0  0  0  0  0  0
  -30.0390  -20.2890   19.1660 C   0  0  0  0  0  3  0  0  0  0  0  0
  -29.8790  -19.2000   20.1600 C   0  0  0  0  0  0  0  0  0  0  0  0
  -29.0660  -22.5570   20.3000 C   0  0  0  0  0  0  0  0  0  0  0  0
  -29.6650  -21.7600   19.2020 C   0  0  0  0  0  0  0  0  0  0  0  0
  -29.8950  -22.4990   17.8960 C   0  0  0  0  0  1  0  0  0  0  0  0
  -28.2910  -18.1950   17.7850 C   0  0  0  0  0  2  0  0  0  0  0  0
  -27.1890  -18.0070   20.1740 C   0  0  0  0  0  2  0  0  0  0  0  0
  -29.4680  -17.3380   18.3440 C   0  0  0  0  0  2  0  0  0  0  0  0
  -28.3640  -17.0520   20.5160 C   0  0  0  0  0  2  0  0  0  0  0  0
  -27.0240  -18.3630   18.6720 C   0  0  0  0  0  3  0  0  0  0  0  0
  -29.7400  -17.3810   19.8810 C   0  0  2  0  0  0  0  0  0  0  0  0
  -30.6860  -15.7730   20.0490 C   0  0  0  0  0  0  0  0  0  0  0  0
  -30.8340  -13.2120   19.3470 C   0  0  0  0  0  2  0  0  0  0  0  0
  -29.9150  -12.7960   18.1570 C   0  0  0  0  0  2  0  0  0  0  0  0
  -28.4960  -12.4450   18.6340 C   0  0  0  0  0  2  0  0  0  0  0  0
  -27.9900  -13.4820   19.6580 C   0  0  0  0  0  3  0  0  0  0  0  0
  -29.0380  -13.7590   20.7620 C   0  0  0  0  0  2  0  0  0  0  0  0
  -30.2220  -14.3860   20.1070 N   0  0  0  0  0  0  0  0  0  0  0  0
  -31.9220  -15.7480   19.9000 O   0  0  0  0  0  0  0  0  0  0  0  0
  -25.6190  -14.0650   20.3800 C   0  0  0  0  0  0  0  0  0  0  0  0
  -24.5420  -13.3160   20.7520 C   0  0  0  0  0  0  0  0  0  0  0  0
  -24.9950  -11.9640   20.7360 C   0  0  0  0  0  0  0  0  0  0  0  0
  -26.6580  -13.1790   20.1660 N   0  0  0  0  0  0  0  0  0  0  0  0
  -26.2910  -11.9040   20.4420 N   0  0  0  0  0  0  0  0  0  0  0  0
  -24.2440  -10.7210   20.9260 C   0  0  0  0  0  0  0  0  0  0  0  0
  -24.6420   -9.7600   21.8810 C   0  0  0  0  0  3  0  0  0  0  0  0
  -23.8900   -8.5800   22.0610 C   0  0  0  0  0  3  0  0  0  0  0  0
  -22.7260   -8.3580   21.2870 C   0  0  0  0  0  0  0  0  0  0  0  0
  -22.3450   -9.3090   20.3240 C   0  0  0  0  0  3  0  0  0  0  0  0
  -23.1000  -10.4800   20.1410 C   0  0  0  0  0  3  0  0  0  0  0  0
  -21.9460   -7.2300   21.3780 O   0  0  0  0  0  0  0  0  0  0  0  0
  -21.8350   -6.5270   22.5500 C   0  0  0  0  0  0  0  0  0  0  0  0
  -21.3530   -7.1270   23.7340 C   0  0  0  0  0  3  0  0  0  0  0  0
  -21.1900   -6.3510   24.9000 C   0  0  0  0  0  3  0  0  0  0  0  0
  -21.4990   -4.9770   24.8800 C   0  0  0  0  0  0  0  0  0  0  0  0
  -21.9760   -4.3780   23.7010 C   0  0  0  0  0  3  0  0  0  0  0  0
  -22.1410   -5.1520   22.5380 C   0  0  0  0  0  0  0  0  0  0  0  0
  -22.5800   -4.5670   21.3980 F   0  0  0  0  0  0  0  0  0  0  0  0
  -21.3340   -4.2300   25.9960 F   0  0  0  0  0  0  0  0  0  0  0  0
  -23.1530  -13.8270   20.9980 C   0  0  0  0  0  0  0  0  0  0  0  0
  -22.4150  -13.1820   21.8940 N   0  0  0  0  0  0  0  0  0  0  0  0
  -22.7330  -14.8380   20.4350 O   0  0  0  0  0  0  0  0  0  0  0  0
  -22.7690  -12.3650   22.3700 H   0  0  0  0  0  0  0  0  0  0  0  0
  -21.4820  -13.5060   22.1050 H   0  0  0  0  0  0  0  0  0  0  0  0
  -25.7800  -15.4180   20.1690 N   0  0  0  0  0  0  0  0  0  0  0  0
  -25.0050  -16.0640   20.2520 H   0  0  0  0  0  0  0  0  0  0  0  0
  -26.6300  -15.8220   19.8070 H   0  0  0  0  0  0  0  0  0  0  0  0
  -26.4220  -19.7030   18.5140 N   0  0  0  0  0  4  0  0  0  0  0  0
  -27.0490  -20.4200   18.8310 H   0  0  0  0  0  0  0  0  0  0  0  0
  -25.5720  -19.7710   19.0460 H   0  0  0  0  0  0  0  0  0  0  0  0
  -26.1940  -19.8790   17.5500 H   0  0  0  0  0  0  0  0  0  0  0  0
  -28.2040  -24.1700   20.2430 C   0  0  0  0  0  2  0  0  0  0  0  0
  -28.4610  -25.8440   20.4260 O   0  0  0  0  0  0  0  0  0  0  0  0
  -24.7560  -31.9430   23.2600 C   0  0  0  0  0  0  0  0  0  0  0  0
  -27.4450  -26.9850   20.3450 C   0  0  0  0  0  0  0  0  0  0  0  0
  -23.6170  -30.5270   21.5990 C   0  0  0  0  0  3  0  0  0  0  0  0
  -25.1230  -28.9080   20.2290 C   0  0  0  0  0  0  0  0  0  0  0  0
  -26.1910  -30.7350   21.5230 C   0  0  0  0  0  2  0  0  0  0  0  0
  -26.2940  -29.3100   20.8790 C   0  0  0  0  0  0  0  0  0  0  0  0
  -27.4430  -28.3740   20.9090 C   0  0  0  0  0  3  0  0  0  0  0  0
  -26.2330  -26.7630   19.6430 C   0  0  0  0  0  3  0  0  0  0  0  0
  -25.1230  -27.6570   19.5890 C   0  0  0  0  0  3  0  0  0  0  0  0
  -23.8960  -29.8280   20.2370 C   0  0  0  0  0  2  0  0  0  0  0  0
  -24.8760  -31.1000   22.1810 N   0  0  0  0  0  0  0  0  0  0  0  0
  -23.6500  -32.2290   23.7510 O   0  0  0  0  0  0  0  0  0  0  0  0
  -22.8930  -29.5430   22.5580 C   0  0  0  0  0  0  0  0  0  0  0  0
  -21.5620  -29.3870   22.4180 N   0  0  0  0  0  0  0  0  0  0  0  0
  -23.5410  -28.9190   23.4020 O   0  0  0  0  0  0  0  0  0  0  0  0
  -21.0930  -29.9150   21.6960 H   0  0  0  0  0  0  0  0  0  0  0  0
  -18.1620  -28.2140   22.9350 C   0  0  0  0  0  0  0  0  0  0  0  0
  -20.7260  -28.4590   23.1920 C   0  0  0  0  0  3  0  0  0  0  0  0
  -20.8050  -27.0260   22.6190 C   0  0  0  0  0  2  0  0  0  0  0  0
  -19.7080  -26.7410   21.5890 C   0  0  0  0  0  2  0  0  0  0  0  0
  -18.3290  -26.8700   22.2460 C   0  0  0  0  0  2  0  0  0  0  0  0
  -19.2870  -28.9660   23.3660 C   0  0  0  0  0  0  0  0  0  0  0  0
  -19.0740  -30.2180   23.9810 C   0  0  0  0  0  3  0  0  0  0  0  0
  -17.7720  -30.7260   24.1540 C   0  0  0  0  0  3  0  0  0  0  0  0
  -16.6620  -29.9740   23.7330 C   0  0  0  0  0  3  0  0  0  0  0  0
  -16.8590  -28.7160   23.1340 C   0  0  0  0  0  3  0  0  0  0  0  0
  -26.0020  -32.6040   23.9260 C   0  0  0  0  0  3  0  0  0  0  0  0
  -26.4810  -31.8490   25.2280 C   0  0  1  0  0  0  0  0  0  0  0  0
  -25.3560  -31.6060   26.2620 C   0  0  0  0  0  1  0  0  0  0  0  0
  -27.0950  -30.4760   24.8760 C   0  0  0  0  0  1  0  0  0  0  0  0
  -27.6000  -32.6630   25.9230 C   0  0  0  0  0  1  0  0  0  0  0  0
  -25.6620  -34.0020   24.2540 N   0  0  0  0  0  0  0  0  0  0  0  0
  -25.9890  -35.0680   23.5110 C   0  0  0  0  0  0  0  0  0  0  0  0
  -26.6690  -34.9790   22.4850 O   0  0  0  0  0  0  0  0  0  0  0  0
  -25.0570  -34.1440   25.0500 H   0  0  0  0  0  0  0  0  0  0  0  0
  -24.2410  -36.8510   23.1660 C   0  0  0  0  0  1  0  0  0  0  0  0
  -25.4880  -36.4530   23.9740 C   0  0  0  0  0  3  0  0  0  0  0  0
  -27.6090  -37.3650   24.8120 C   0  0  0  0  0  1  0  0  0  0  0  0
  -26.5090  -37.5190   23.8650 N   0  0  0  0  0  0  0  0  0  0  0  0
  -26.0920  -38.4340   24.0080 H   0  0  0  0  0  0  0  0  0  0  0  0
  1  2  1  0
  3  6  2  0
  3  4  1  0
  4  1  2  0
  5  2  2  0
  6  5  1  0
  7  6  1  0
  8 10  1  0
  8 12  1  0
  9 11  1  0
 10 13  1  0
 12 50  1  0
 12  9  1  0
 13 14  1  6
 13  4  1  0
 13 11  1  0
 14 20  1  0
 15 20  1  0
 16 17  1  0
 16 15  1  0
 18 17  1  0
 18 25  1  0
 18 19  1  0
 20 19  1  0
 21 14  2  0
 22 23  2  0
 23 42  1  0
 24 23  1  0
 24 27  1  0
 25 22  1  0
 25 26  1  0
 26 24  2  0
 27 28  1  0
 28 29  2  0
 30 33  1  0
 30 29  1  0
 31 30  2  0
 32 31  1  0
 32 27  2  0
 33 34  1  0
 34 35  1  0
 35 36  2  0
 37 36  1  0
 37 41  1  0
 38 37  2  0
 39 34  2  0
 39 38  1  0
 40 39  1  0
 42 43  1  0
 43 46  1  0
 43 45  1  0
 44 42  2  0
 47 48  1  0
 47 22  1  0
 49 47  1  0
 50 51  1  0
 50 52  1  0
 53 50  1  0
 54  5  1  0
 54 55  1  0
 56 67  2  0
 57 55  1  0
 57 62  1  0
 58 66  1  0
 58 68  1  0
 59 65  1  0
 59 61  1  0
 60 66  1  0
 61 62  2  0
 61 60  1  0
 63 57  2  0
 64 63  1  0
 64 59  2  0
 65 58  1  0
 66 56  1  0
 68 70  2  0
 69 68  1  0
 71 69  1  0
 72 81  2  0
 72 77  1  0
 73 69  1  0
 73 77  1  0
 74 73  1  0
 75 76  1  0
 75 74  1  0
 76 72  1  0
 77 78  2  0
 78 79  1  0
 80 79  2  0
 81 80  1  0
 82 56  1  0
 82 87  1  0
 82 83  1  0
 83 86  1  1
 83 84  1  0
 85 83  1  0
 87 90  1  0
 88 92  1  0
 88 87  1  0
 89 88  2  0
 92 91  1  0
 94 92  1  0
 94 95  1  0
 94 93  1  0
M  ISO  4  13 100  14 100  54 101  55 101
M  END
>  <TORSDO>  (80) 
F 19

>  <SCORE>  (80) 
-16.140

>  <name>  (80) 
79

>  <ligand_id>  (80) 
79

>  <original_smiles>  (80) 
[H]c1c([H])c([H])c2c(c1[H])C([H])([H])C([H])([H])C([H])([H])C2([H])N([H])C(=O)C1([H])N(C(=O)C([H])(N([H])C(=O)C([H])(N([H])C([H])([H])[H])C([H])([H])[H])C(C([H])([H])[H])(C([H])([H])[H])C([H])([H])[H])C([H])([H])c2c([H])c(OC([H])([H])c3c([H])c([H])c(C4(C(=O)N5C([H])([H])C([H])([H])C([H])([H])C([H])(n6nc(-c7c([H])c([H])c(Oc8c([H])c([H])c(F)c([H])c8F)c([H])c7[H])c(C(=O)N([H])[H])c6N([H])[H])C5([H])[H])C([H])([H])C([H])([H])C([H])([N+]([H])([H])[H])C([H])([H])C4([H])[H])c([H])c3C([H])([H])[H])c([H])c([H])c2C1([H])[H]

>  <smiles>  (80) 
[H]c1c([H])c([H])c2c(c1[H])C([H])([H])C([H])([H])C([H])([H])C2([H])N([H])C(=O)C1([H])N(C(=O)C([H])(N([H])C(=O)C([H])(N([H])C([H])([H])[H])C([H])([H])[H])C(C([H])([H])[H])(C([H])([H])[H])C([H])([H])[H])C([H])([H])c2c([H])c(OC([H])([H])c3c([H])c([H])c(C4(C(=O)N5C([H])([H])C([H])([H])C([H])([H])C([H])(n6nc(-c7c([H])c([H])c(Oc8c([H])c([H])c(F)c([H])c8F)c([H])c7[H])c(C(=O)N([H])[H])c6N([H])[H])C5([H])[H])C([H])([H])C([H])([H])C([H])([N+]([H])([H])[H])C([H])([H])C4([H])[H])c([H])c3C([H])([H])[H])c([H])c([H])c2C1([H])[H]

$$$$
80:0:0
     RDKit          3D

 93102  0  0  1  0  0  0  0  0999 V2000
  -30.6410  -14.8930   20.3510 C   0  0  0  0  0  0  0  0  0  0  0  0
  -30.4590  -12.5700   19.3920 C   0  0  0  0  0  2  0  0  0  0  0  0
  -29.5430  -12.5590   18.1500 C   0  0  0  0  0  2  0  0  0  0  0  0
  -28.0750  -12.3640   18.5700 C   0  0  0  0  0  2  0  0  0  0  0  0
  -27.6650  -13.2860   19.7500 C   0  0  0  0  0  3  0  0  0  0  0  0
  -28.7100  -13.2920   20.8840 C   0  0  0  0  0  2  0  0  0  0  0  0
  -29.9930  -13.6680   20.2800 N   0  0  0  0  0  0  0  0  0  0  0  0
  -31.8490  -14.9090   20.0870 O   0  0  0  0  0  0  0  0  0  0  0  0
  -30.8240  -21.6620   21.0470 C   0  0  0  0  0  2  0  0  0  0  0  0
  -30.5680  -20.3710   20.1590 C   0  0  0  0  0  2  0  0  0  0  0  0
  -28.1570  -20.5930   20.5550 C   0  0  0  0  0  2  0  0  0  0  0  0
  -29.8270  -22.8980   21.2140 C   0  0  0  0  0  2  0  0  0  0  0  0
  -28.1020  -21.9780   19.6910 C   0  0  0  0  0  2  0  0  0  0  0  0
  -29.4250  -18.4830   21.6420 C   0  0  0  0  0  2  0  0  0  0  0  0
  -29.0440  -18.3880   19.2850 C   0  0  0  0  0  2  0  0  0  0  0  0
  -30.2650  -17.1130   21.5280 C   0  0  0  0  0  2  0  0  0  0  0  0
  -29.9070  -17.0320   19.2400 C   0  0  0  0  0  2  0  0  0  0  0  0
  -29.3140  -19.4750   20.4090 C   0  0  2  0  0  0  0  0  0  0  0  0
  -28.9080  -23.3550   20.0350 C   0  0  2  0  0  0  0  0  0  0  0  0
  -29.9350  -16.1240   20.4410 N   0  0  0  0  0  0  0  0  0  0  0  0
  -25.2710  -13.8540   20.4520 C   0  0  0  0  0  0  0  0  0  0  0  0
  -24.2080  -13.0750   20.8160 C   0  0  0  0  0  0  0  0  0  0  0  0
  -24.6840  -11.7280   20.8090 C   0  0  0  0  0  0  0  0  0  0  0  0
  -26.3240  -12.9820   20.2370 N   0  0  0  0  0  0  0  0  0  0  0  0
  -25.9790  -11.6980   20.5180 N   0  0  0  0  0  0  0  0  0  0  0  0
  -23.9640  -10.4610   21.0050 C   0  0  0  0  0  0  0  0  0  0  0  0
  -24.3920   -9.5060   21.9530 C   0  0  0  0  0  3  0  0  0  0  0  0
  -23.6710   -8.3070   22.1370 C   0  0  0  0  0  3  0  0  0  0  0  0
  -22.5070   -8.0540   21.3730 C   0  0  0  0  0  0  0  0  0  0  0  0
  -22.0980   -8.9970   20.4140 C   0  0  0  0  0  3  0  0  0  0  0  0
  -22.8200  -10.1880   20.2280 C   0  0  0  0  0  3  0  0  0  0  0  0
  -21.7590   -6.9050   21.4660 O   0  0  0  0  0  0  0  0  0  0  0  0
  -21.7000   -6.1750   22.6260 C   0  0  0  0  0  0  0  0  0  0  0  0
  -21.2480   -6.7380   23.8390 C   0  0  0  0  0  3  0  0  0  0  0  0
  -21.1380   -5.9340   24.9900 C   0  0  0  0  0  3  0  0  0  0  0  0
  -21.4700   -4.5680   24.9300 C   0  0  0  0  0  0  0  0  0  0  0  0
  -21.9150   -4.0040   23.7220 C   0  0  0  0  0  3  0  0  0  0  0  0
  -22.0270   -4.8050   22.5720 C   0  0  0  0  0  0  0  0  0  0  0  0
  -22.4360   -4.2520   21.4050 F   0  0  0  0  0  0  0  0  0  0  0  0
  -21.3580   -3.7920   26.0350 F   0  0  0  0  0  0  0  0  0  0  0  0
  -22.8030  -13.5440   21.0600 C   0  0  0  0  0  0  0  0  0  0  0  0
  -22.0700  -12.8590   21.9300 N   0  0  0  0  0  0  0  0  0  0  0  0
  -22.3630  -14.5540   20.5120 O   0  0  0  0  0  0  0  0  0  0  0  0
  -22.4390  -12.0420   22.3940 H   0  0  0  0  0  0  0  0  0  0  0  0
  -21.1280  -13.1560   22.1370 H   0  0  0  0  0  0  0  0  0  0  0  0
  -25.4280  -15.2240   20.2620 N   0  0  0  0  0  0  0  0  0  0  0  0
  -24.6610  -15.8790   20.3660 H   0  0  0  0  0  0  0  0  0  0  0  0
  -26.2930  -15.6660   19.9750 H   0  0  0  0  0  0  0  0  0  0  0  0
  -29.8110  -23.7430   18.8330 C   0  0  0  0  0  2  0  0  0  0  0  0
  -30.0400  -24.5100   16.4090 C   0  0  0  0  0  1  0  0  0  0  0  0
  -29.0710  -24.1590   17.5430 C   0  0  0  0  0  2  0  0  0  0  0  0
  -27.9750  -24.7140   20.3570 C   0  0  0  0  0  2  0  0  0  0  0  0
  -28.3010  -26.2160   20.1570 O   0  0  0  0  0  0  0  0  0  0  0  0
  -24.6490  -31.8390   23.1780 C   0  0  0  0  0  0  0  0  0  0  0  0
  -27.2460  -27.1890   20.1060 C   0  0  0  0  0  0  0  0  0  0  0  0
  -23.4610  -30.4670   21.5140 C   0  0  0  0  0  3  0  0  0  0  0  0
  -24.9180  -28.9200   20.0790 C   0  0  0  0  0  0  0  0  0  0  0  0
  -26.0150  -30.7400   21.3700 C   0  0  0  0  0  2  0  0  0  0  0  0
  -26.0920  -29.3600   20.7040 C   0  0  0  0  0  0  0  0  0  0  0  0
  -27.2580  -28.5100   20.7040 C   0  0  0  0  0  3  0  0  0  0  0  0
  -26.0520  -26.8600   19.4240 C   0  0  0  0  0  3  0  0  0  0  0  0
  -24.9100  -27.6830   19.4240 C   0  0  0  0  0  3  0  0  0  0  0  0
  -23.6900  -29.8120   20.1280 C   0  0  0  0  0  2  0  0  0  0  0  0
  -24.7270  -31.0360   22.0760 N   0  0  0  0  0  0  0  0  0  0  0  0
  -23.5600  -32.1170   23.7030 O   0  0  0  0  0  0  0  0  0  0  0  0
  -22.7790  -29.4420   22.4560 C   0  0  0  0  0  0  0  0  0  0  0  0
  -21.4510  -29.2800   22.3250 N   0  0  0  0  0  0  0  0  0  0  0  0
  -23.4470  -28.7970   23.2680 O   0  0  0  0  0  0  0  0  0  0  0  0
  -20.9690  -29.8520   21.6450 H   0  0  0  0  0  0  0  0  0  0  0  0
  -18.0590  -28.1090   22.8170 C   0  0  0  0  0  0  0  0  0  0  0  0
  -20.6220  -28.3370   23.0800 C   0  0  0  0  0  3  0  0  0  0  0  0
  -20.7050  -26.9160   22.4760 C   0  0  0  0  0  2  0  0  0  0  0  0
  -19.5960  -26.6250   21.4600 C   0  0  0  0  0  2  0  0  0  0  0  0
  -18.2180  -26.7730   22.1120 C   0  0  0  0  0  2  0  0  0  0  0  0
  -19.1880  -28.8500   23.2580 C   0  0  0  0  0  0  0  0  0  0  0  0
  -18.9840  -30.1020   23.8780 C   0  0  0  0  0  3  0  0  0  0  0  0
  -17.6850  -30.6120   24.0620 C   0  0  0  0  0  3  0  0  0  0  0  0
  -16.5710  -29.8680   23.6370 C   0  0  0  0  0  3  0  0  0  0  0  0
  -16.7590  -28.6180   23.0210 C   0  0  0  0  0  3  0  0  0  0  0  0
  -25.9240  -32.4670   23.8210 C   0  0  0  0  0  3  0  0  0  0  0  0
  -25.6080  -33.8590   24.1730 N   0  0  0  0  0  0  0  0  0  0  0  0
  -25.9270  -34.9270   23.4290 C   0  0  0  0  0  0  0  0  0  0  0  0
  -26.5870  -34.8430   22.3900 O   0  0  0  0  0  0  0  0  0  0  0  0
  -25.0200  -33.9990   24.9820 H   0  0  0  0  0  0  0  0  0  0  0  0
  -24.1790  -36.7130   23.1320 C   0  0  0  0  0  1  0  0  0  0  0  0
  -25.4390  -36.3070   23.9130 C   0  0  0  0  0  3  0  0  0  0  0  0
  -27.5830  -37.1990   24.7150 C   0  0  0  0  0  1  0  0  0  0  0  0
  -26.4620  -37.3700   23.7930 N   0  0  0  0  0  0  0  0  0  0  0  0
  -26.0520  -38.2840   23.9580 H   0  0  0  0  0  0  0  0  0  0  0  0
  -26.4280  -31.6780   25.0920 C   0  0  1  0  0  0  0  0  0  0  0  0
  -25.3260  -31.4300   26.1480 C   0  0  0  0  0  1  0  0  0  0  0  0
  -27.0140  -30.3050   24.6920 C   0  0  0  0  0  1  0  0  0  0  0  0
  -27.5750  -32.4640   25.7740 C   0  0  0  0  0  1  0  0  0  0  0  0
  1 20  1  0
  2  7  1  0
  3  4  1  0
  3  2  1  0
  5  4  1  0
  5 24  1  0
  5  6  1  0
  7  1  1  0
  7  6  1  0
  8  1  2  0
  9 12  1  0
 18 10  1  6
 10  9  1  0
 13 19  1  0
 13 11  1  0
 16 14  1  0
 17 15  1  0
 17 20  1  0
 18 15  1  0
 18 11  1  0
 18 14  1  0
 19 49  1  6
 19 52  1  0
 19 12  1  0
 20 16  1  0
 21 22  2  0
 22 41  1  0
 23 22  1  0
 23 26  1  0
 24 21  1  0
 24 25  1  0
 25 23  2  0
 26 27  1  0
 27 28  2  0
 29 32  1  0
 29 28  1  0
 30 29  2  0
 31 30  1  0
 31 26  2  0
 32 33  1  0
 33 34  1  0
 34 35  2  0
 36 35  1  0
 36 40  1  0
 37 36  2  0
 38 33  2  0
 38 37  1  0
 39 38  1  0
 41 42  1  0
 42 45  1  0
 42 44  1  0
 43 41  2  0
 46 47  1  0
 46 21  1  0
 48 46  1  0
 50 51  1  0
 51 49  1  0
 53 52  1  0
 54 65  2  0
 55 53  1  0
 55 60  1  0
 56 64  1  0
 56 66  1  0
 57 63  1  0
 57 59  1  0
 58 64  1  0
 59 58  1  0
 60 59  2  0
 61 55  2  0
 62 61  1  0
 62 57  2  0
 63 56  1  0
 64 54  1  0
 66 68  2  0
 67 66  1  0
 69 67  1  0
 70 79  2  0
 70 75  1  0
 71 67  1  0
 71 75  1  0
 72 71  1  0
 73 74  1  0
 73 72  1  0
 74 70  1  0
 75 76  2  0
 76 77  1  0
 78 77  2  0
 79 78  1  0
 80 54  1  0
 80 81  1  0
 80 90  1  0
 81 84  1  0
 82 86  1  0
 82 81  1  0
 83 82  2  0
 86 85  1  0
 88 86  1  0
 88 89  1  0
 88 87  1  0
 90 93  1  1
 90 91  1  0
 92 90  1  0
M  ISO  4   1 100  20 100  52 101  53 101
M  END
>  <TORSDO>  (81) 
F 18

>  <SCORE>  (81) 
-14.269

>  <name>  (81) 
80

>  <ligand_id>  (81) 
80

>  <original_smiles>  (81) 
[H]c1c([H])c([H])c2c(c1[H])C([H])([H])C([H])([H])C([H])([H])C2([H])N([H])C(=O)C1([H])N(C(=O)C([H])(N([H])C(=O)C([H])(N([H])C([H])([H])[H])C([H])([H])[H])C(C([H])([H])[H])(C([H])([H])[H])C([H])([H])[H])C([H])([H])c2c([H])c(OC([H])([H])C3(C([H])([H])C([H])([H])C([H])([H])[H])C([H])([H])C([H])([H])C([H])([H])C4(C([H])([H])C([H])([H])N(C(=O)N5C([H])([H])C([H])([H])C([H])([H])C([H])(n6nc(-c7c([H])c([H])c(Oc8c([H])c([H])c(F)c([H])c8F)c([H])c7[H])c(C(=O)N([H])[H])c6N([H])[H])C5([H])[H])C([H])([H])C4([H])[H])C([H])([H])C3([H])[H])c([H])c([H])c2C1([H])[H]

>  <smiles>  (81) 
[H]c1c([H])c([H])c2c(c1[H])C([H])([H])C([H])([H])C([H])([H])C2([H])N([H])C(=O)C1([H])N(C(=O)C([H])(N([H])C(=O)C([H])(N([H])C([H])([H])[H])C([H])([H])[H])C(C([H])([H])[H])(C([H])([H])[H])C([H])([H])[H])C([H])([H])c2c([H])c(OC([H])([H])C3(C([H])([H])C([H])([H])C([H])([H])[H])C([H])([H])C([H])([H])C([H])([H])C4(C([H])([H])C([H])([H])N(C(=O)N5C([H])([H])C([H])([H])C([H])([H])C([H])(n6nc(-c7c([H])c([H])c(Oc8c([H])c([H])c(F)c([H])c8F)c([H])c7[H])c(C(=O)N([H])[H])c6N([H])[H])C5([H])[H])C([H])([H])C4([H])[H])C([H])([H])C3([H])[H])c([H])c([H])c2C1([H])[H]

$$$$
81:0:0
     RDKit          3D

 93101  0  0  1  0  0  0  0  0999 V2000
  -29.5850  -16.6880   19.8630 C   0  0  0  0  0  2  0  0  0  0  0  0
  -28.9910  -18.0370   20.3410 C   0  0  0  0  0  2  0  0  0  0  0  0
  -31.4360  -17.8850   18.3920 C   0  0  0  0  0  2  0  0  0  0  0  0
  -29.3030  -19.3720   18.0660 C   0  0  0  0  0  2  0  0  0  0  0  0
  -30.8230  -19.5570   18.2910 C   0  0  0  0  0  3  0  0  0  0  0  0
  -31.1150  -16.6180   19.5980 C   0  0  2  0  0  0  0  0  0  0  0  0
  -28.4320  -19.0140   19.2890 C   0  0  1  0  0  0  0  0  0  0  0  0
  -27.2750  -18.5310   18.8350 F   0  0  0  0  0  0  0  0  0  0  0  0
  -28.1640  -20.1490   19.9370 F   0  0  0  0  0  0  0  0  0  0  0  0
  -31.6340  -14.9290   19.6700 C   0  0  0  0  0  0  0  0  0  0  0  0
  -31.5650  -12.3340   19.7320 C   0  0  0  0  0  2  0  0  0  0  0  0
  -30.7400  -11.7260   18.5670 C   0  0  0  0  0  2  0  0  0  0  0  0
  -29.2480  -11.6430   18.9340 C   0  0  0  0  0  2  0  0  0  0  0  0
  -28.7550  -12.9470   19.6080 C   0  0  0  0  0  3  0  0  0  0  0  0
  -29.7130  -13.4250   20.7170 C   0  0  0  0  0  2  0  0  0  0  0  0
  -31.0200  -13.7050   20.0820 N   0  0  0  0  0  0  0  0  0  0  0  0
  -32.8170  -14.7290   19.3500 O   0  0  0  0  0  0  0  0  0  0  0  0
  -26.4640  -13.8700   20.2550 C   0  0  0  0  0  0  0  0  0  0  0  0
  -25.2920  -13.2680   20.6170 C   0  0  0  0  0  0  0  0  0  0  0  0
  -25.5600  -11.8650   20.6440 C   0  0  0  0  0  0  0  0  0  0  0  0
  -27.3770  -12.8470   20.0730 N   0  0  0  0  0  0  0  0  0  0  0  0
  -26.8410  -11.6360   20.3750 N   0  0  0  0  0  0  0  0  0  0  0  0
  -24.6540  -10.7290   20.8520 C   0  0  0  0  0  0  0  0  0  0  0  0
  -24.9490   -9.7080   21.7830 C   0  0  0  0  0  3  0  0  0  0  0  0
  -24.0510   -8.6370   21.9800 C   0  0  0  0  0  3  0  0  0  0  0  0
  -22.8420   -8.5800   21.2470 C   0  0  0  0  0  0  0  0  0  0  0  0
  -22.5630   -9.5860   20.3050 C   0  0  0  0  0  3  0  0  0  0  0  0
  -23.4600  -10.6480   20.1060 C   0  0  0  0  0  3  0  0  0  0  0  0
  -21.9230   -7.5630   21.3520 O   0  0  0  0  0  0  0  0  0  0  0  0
  -21.8480   -6.7750   22.4720 C   0  0  0  0  0  0  0  0  0  0  0  0
  -21.5930   -7.3180   23.7500 C   0  0  0  0  0  3  0  0  0  0  0  0
  -21.4530   -6.4650   24.8630 C   0  0  0  0  0  3  0  0  0  0  0  0
  -21.5600   -5.0700   24.7000 C   0  0  0  0  0  0  0  0  0  0  0  0
  -21.8090   -4.5270   23.4270 C   0  0  0  0  0  3  0  0  0  0  0  0
  -21.9490   -5.3780   22.3170 C   0  0  0  0  0  0  0  0  0  0  0  0
  -22.1670   -4.8470   21.0890 F   0  0  0  0  0  0  0  0  0  0  0  0
  -21.4190   -4.2490   25.7670 F   0  0  0  0  0  0  0  0  0  0  0  0
  -23.9710  -13.9500   20.8230 C   0  0  0  0  0  0  0  0  0  0  0  0
  -23.1320  -13.4110   21.6980 N   0  0  0  0  0  0  0  0  0  0  0  0
  -23.6950  -14.9990   20.2400 O   0  0  0  0  0  0  0  0  0  0  0  0
  -23.3670  -12.5610   22.1910 H   0  0  0  0  0  0  0  0  0  0  0  0
  -22.2410  -13.8510   21.8760 H   0  0  0  0  0  0  0  0  0  0  0  0
  -26.8240  -15.1970   20.0380 N   0  0  0  0  0  0  0  0  0  0  0  0
  -26.1600  -15.9560   20.1410 H   0  0  0  0  0  0  0  0  0  0  0  0
  -27.7310  -15.5030   19.7130 H   0  0  0  0  0  0  0  0  0  0  0  0
  -31.2890  -20.7760   17.2740 N   0  0  0  0  0  4  0  0  0  0  0  0
  -30.7570  -20.6390   16.4290 H   0  0  0  0  0  0  0  0  0  0  0  0
  -32.2380  -20.5530   17.0170 H   0  0  0  0  0  0  0  0  0  0  0  0
  -31.3050  -22.4110   17.5480 C   0  0  0  0  0  3  0  0  0  0  0  0
  -30.5710  -23.7390   16.6210 C   0  0  0  0  0  3  0  0  0  0  0  0
  -30.4280  -25.3500   16.8550 O   0  0  0  0  0  0  0  0  0  0  0  0
  -26.2460  -28.2000   22.3740 C   0  0  0  0  0  0  0  0  0  0  0  0
  -29.2590  -26.1400   17.3030 C   0  0  0  0  0  0  0  0  0  0  0  0
  -25.1520  -27.7130   20.2220 C   0  0  0  0  0  3  0  0  0  0  0  0
  -26.7130  -27.3540   18.1940 C   0  0  0  0  0  0  0  0  0  0  0  0
  -27.6390  -28.3800   20.2600 C   0  0  0  0  0  2  0  0  0  0  0  0
  -27.8650  -27.5560   18.9640 C   0  0  0  0  0  0  0  0  0  0  0  0
  -29.1260  -26.9730   18.5130 C   0  0  0  0  0  3  0  0  0  0  0  0
  -28.0580  -26.0860   16.5600 C   0  0  0  0  0  3  0  0  0  0  0  0
  -26.8290  -26.6510   16.9850 C   0  0  0  0  0  3  0  0  0  0  0  0
  -25.3810  -27.9040   18.6970 C   0  0  0  0  0  2  0  0  0  0  0  0
  -26.3670  -28.0940   21.0120 N   0  0  0  0  0  0  0  0  0  0  0  0
  -25.1650  -27.9980   22.9490 O   0  0  0  0  0  0  0  0  0  0  0  0
  -24.6760  -26.2620   20.4980 C   0  0  0  0  0  0  0  0  0  0  0  0
  -23.3950  -25.9630   20.2150 N   0  0  0  0  0  0  0  0  0  0  0  0
  -25.4660  -25.4240   20.9410 O   0  0  0  0  0  0  0  0  0  0  0  0
  -22.8000  -26.7030   19.8700 H   0  0  0  0  0  0  0  0  0  0  0  0
  -20.3130  -24.1110   19.7460 C   0  0  0  0  0  0  0  0  0  0  0  0
  -22.7740  -24.6410   20.3480 C   0  0  0  0  0  3  0  0  0  0  0  0
  -23.1510  -23.7290   19.1570 C   0  0  0  0  0  2  0  0  0  0  0  0
  -22.1290  -23.7730   18.0170 C   0  0  0  0  0  2  0  0  0  0  0  0
  -20.7480  -23.3370   18.5140 C   0  0  0  0  0  2  0  0  0  0  0  0
  -21.2630  -24.7370   20.5980 C   0  0  0  0  0  0  0  0  0  0  0  0
  -20.8000  -25.4720   21.7120 C   0  0  0  0  0  3  0  0  0  0  0  0
  -19.4220  -25.5850   21.9790 C   0  0  0  0  0  3  0  0  0  0  0  0
  -18.4890  -24.9530   21.1380 C   0  0  0  0  0  3  0  0  0  0  0  0
  -18.9360  -24.2150   20.0280 C   0  0  0  0  0  3  0  0  0  0  0  0
  -27.4560  -28.6020   23.2710 C   0  0  0  0  0  3  0  0  0  0  0  0
  -28.3910  -27.3800   23.6280 C   0  0  1  0  0  0  0  0  0  0  0  0
  -27.6340  -26.1660   24.2160 C   0  0  0  0  0  1  0  0  0  0  0  0
  -29.1590  -26.8920   22.3790 C   0  0  0  0  0  1  0  0  0  0  0  0
  -29.4610  -27.8200   24.6540 C   0  0  0  0  0  1  0  0  0  0  0  0
  -26.9260  -29.2110   24.5030 N   0  0  0  0  0  0  0  0  0  0  0  0
  -26.9800  -30.5180   24.7960 C   0  0  0  0  0  0  0  0  0  0  0  0
  -27.5470  -31.3390   24.0710 O   0  0  0  0  0  0  0  0  0  0  0  0
  -26.4010  -28.6050   25.1160 H   0  0  0  0  0  0  0  0  0  0  0  0
  -24.9480  -31.6420   25.7690 C   0  0  0  0  0  1  0  0  0  0  0  0
  -26.3010  -30.9900   26.0980 C   0  0  0  0  0  3  0  0  0  0  0  0
  -28.3040  -31.3080   27.4850 C   0  0  0  0  0  1  0  0  0  0  0  0
  -27.1250  -31.9320   26.8880 N   0  0  0  0  0  0  0  0  0  0  0  0
  -26.5760  -32.3520   27.6330 H   0  0  0  0  0  0  0  0  0  0  0  0
  -31.4020  -16.8360   22.2460 C   0  0  0  0  0  1  0  0  0  0  0  0
  -31.8850  -17.2230   20.8290 C   0  0  0  0  0  2  0  0  0  0  0  0
  1  2  1  0
  3  6  1  0
  4  5  1  0
  4  7  1  0
  5 46  1  0
  5  3  1  0
  6 10  1  0
  6  1  1  0
  6 93  1  1
  7  9  1  1
  7  2  1  0
  8  7  1  0
 10 16  1  0
 11 16  1  0
 12 13  1  0
 12 11  1  0
 14 13  1  0
 14 21  1  0
 14 15  1  0
 16 15  1  0
 17 10  2  0
 18 19  2  0
 19 20  1  0
 19 38  1  0
 20 23  1  0
 21 18  1  0
 21 22  1  0
 22 20  2  0
 23 24  1  0
 24 25  2  0
 26 29  1  0
 26 25  1  0
 27 26  2  0
 28 27  1  0
 28 23  2  0
 29 30  1  0
 30 31  1  0
 31 32  2  0
 33 32  1  0
 33 37  1  0
 34 33  2  0
 35 30  2  0
 35 34  1  0
 36 35  1  0
 38 39  1  0
 39 42  1  0
 39 41  1  0
 40 38  2  0
 43 44  1  0
 43 18  1  0
 45 43  1  0
 46 49  1  0
 47 46  1  0
 48 46  1  0
 50 51  1  0
 50 49  2  0
 51 53  1  0
 52 63  2  0
 53 58  1  0
 54 64  1  0
 54 62  1  0
 55 61  1  0
 55 57  1  0
 56 62  1  0
 57 56  1  0
 58 57  2  0
 59 60  1  0
 59 53  2  0
 60 55  2  0
 61 54  1  0
 62 52  1  0
 64 66  2  0
 65 64  1  0
 67 65  1  0
 68 77  2  0
 68 73  1  0
 69 65  1  0
 69 73  1  0
 70 69  1  0
 71 72  1  0
 71 70  1  0
 72 68  1  0
 73 74  2  0
 74 75  1  0
 76 75  2  0
 77 76  1  0
 78 52  1  0
 78 79  1  0
 78 83  1  0
 79 80  1  1
 79 82  1  0
 81 79  1  0
 83 84  1  0
 83 86  1  0
 84 88  1  0
 85 84  2  0
 88 87  1  0
 88 90  1  0
 90 89  1  0
 90 91  1  0
 93 92  1  0
M  ISO  4   6 100  10 100  50 101  51 101
M  END
>  <TORSDO>  (82) 
F 20

>  <SCORE>  (82) 
-10.424

>  <name>  (82) 
81

>  <ligand_id>  (82) 
81

>  <original_smiles>  (82) 
[H]c1c([H])c([H])c2c(c1[H])C([H])([H])C([H])([H])C([H])([H])C2([H])N([H])C(=O)C1([H])N(C(=O)C([H])(N([H])C(=O)C([H])(N([H])C([H])([H])[H])C([H])([H])[H])C(C([H])([H])[H])(C([H])([H])[H])C([H])([H])[H])C([H])([H])c2c([H])c(OC([H])([H])C([H])([H])[N+]([H])([H])C3([H])C([H])([H])C(F)(F)C([H])([H])C([H])([H])C(C(=O)N4C([H])([H])C([H])([H])C([H])([H])C([H])(n5nc(-c6c([H])c([H])c(Oc7c([H])c([H])c(F)c([H])c7F)c([H])c6[H])c(C(=O)N([H])[H])c5N([H])[H])C4([H])[H])(C([H])([H])C([H])([H])[H])C3([H])[H])c([H])c([H])c2C1([H])[H]

>  <smiles>  (82) 
[H]c1c([H])c([H])c2c(c1[H])C([H])([H])C([H])([H])C([H])([H])C2([H])N([H])C(=O)C1([H])N(C(=O)C([H])(N([H])C(=O)C([H])(N([H])C([H])([H])[H])C([H])([H])[H])C(C([H])([H])[H])(C([H])([H])[H])C([H])([H])[H])C([H])([H])c2c([H])c(OC([H])([H])C([H])([H])[N+]([H])([H])C3([H])C([H])([H])C(F)(F)C([H])([H])C([H])([H])C(C(=O)N4C([H])([H])C([H])([H])C([H])([H])C([H])(n5nc(-c6c([H])c([H])c(Oc7c([H])c([H])c(F)c([H])c7F)c([H])c6[H])c(C(=O)N([H])[H])c5N([H])[H])C4([H])[H])(C([H])([H])C([H])([H])[H])C3([H])[H])c([H])c([H])c2C1([H])[H]

$$$$
82:0:0
     RDKit          3D

 93101  0  0  1  0  0  0  0  0999 V2000
  -29.6570  -21.3260   19.6900 C   0  0  0  0  0  0  0  0  0  0  0  0
  -29.3720  -22.5200   20.3200 N   0  0  0  0  0  0  0  0  0  0  0  0
  -29.6040  -21.2380   18.4600 O   0  0  0  0  0  0  0  0  0  0  0  0
  -29.4060  -22.5080   21.3290 H   0  0  0  0  0  0  0  0  0  0  0  0
  -30.5920  -20.1840   21.8010 C   0  0  0  0  0  3  0  0  0  0  0  0
  -30.9290  -19.0460   22.5650 C   0  0  0  0  0  3  0  0  0  0  0  0
  -29.9540  -18.7090   19.9900 C   0  0  0  0  0  3  0  0  0  0  0  0
  -30.0510  -20.0620   20.5050 C   0  0  0  0  0  0  0  0  0  0  0  0
  -30.3100  -17.5240   20.7460 C   0  0  0  0  0  0  0  0  0  0  0  0
  -30.7670  -17.7340   22.0690 C   0  0  0  0  0  0  0  0  0  0  0  0
  -31.0120  -16.6780   22.9460 N   0  0  0  0  0  0  0  0  0  0  0  0
  -31.3620  -16.8850   23.8770 H   0  0  0  0  0  0  0  0  0  0  0  0
  -31.3060  -15.7760   22.5950 H   0  0  0  0  0  0  0  0  0  0  0  0
  -29.9460  -16.0800   20.2220 C   0  0  0  0  0  2  0  0  0  0  0  0
  -30.8610  -14.7720   20.3140 C   0  0  0  0  0  0  0  0  0  0  0  0
  -30.6650  -12.5070   19.3070 C   0  0  0  0  0  2  0  0  0  0  0  0
  -29.7440  -12.6580   18.0700 C   0  0  0  0  0  2  0  0  0  0  0  0
  -28.2610  -12.5020   18.4730 C   0  0  0  0  0  2  0  0  0  0  0  0
  -27.8920  -13.3860   19.6910 C   0  0  0  0  0  3  0  0  0  0  0  0
  -28.9330  -13.2170   20.8240 C   0  0  0  0  0  2  0  0  0  0  0  0
  -30.2620  -13.5370   20.2860 N   0  0  0  0  0  0  0  0  0  0  0  0
  -32.0690  -14.8780   20.0720 O   0  0  0  0  0  0  0  0  0  0  0  0
  -25.5140  -14.0560   20.3980 C   0  0  0  0  0  0  0  0  0  0  0  0
  -24.4270  -13.3140   20.7690 C   0  0  0  0  0  0  0  0  0  0  0  0
  -24.8580  -11.9510   20.7600 C   0  0  0  0  0  0  0  0  0  0  0  0
  -26.5360  -13.1460   20.1730 N   0  0  0  0  0  0  0  0  0  0  0  0
  -26.1490  -11.8780   20.4570 N   0  0  0  0  0  0  0  0  0  0  0  0
  -24.1040  -10.7080   20.9590 C   0  0  0  0  0  0  0  0  0  0  0  0
  -24.5000   -9.7530   21.9200 C   0  0  0  0  0  3  0  0  0  0  0  0
  -23.7510   -8.5710   22.1020 C   0  0  0  0  0  3  0  0  0  0  0  0
  -22.5920   -8.3370   21.3240 C   0  0  0  0  0  0  0  0  0  0  0  0
  -22.2150   -9.2820   20.3530 C   0  0  0  0  0  3  0  0  0  0  0  0
  -22.9650  -10.4560   20.1690 C   0  0  0  0  0  3  0  0  0  0  0  0
  -21.8160   -7.2080   21.4140 O   0  0  0  0  0  0  0  0  0  0  0  0
  -21.7080   -6.5040   22.5860 C   0  0  0  0  0  0  0  0  0  0  0  0
  -21.2530   -7.1060   23.7810 C   0  0  0  0  0  3  0  0  0  0  0  0
  -21.0890   -6.3270   24.9430 C   0  0  0  0  0  3  0  0  0  0  0  0
  -21.3720   -4.9480   24.9130 C   0  0  0  0  0  0  0  0  0  0  0  0
  -21.8210   -4.3460   23.7230 C   0  0  0  0  0  3  0  0  0  0  0  0
  -21.9870   -5.1230   22.5640 C   0  0  0  0  0  0  0  0  0  0  0  0
  -22.4000   -4.5340   21.4150 F   0  0  0  0  0  0  0  0  0  0  0  0
  -21.2090   -4.1980   26.0280 F   0  0  0  0  0  0  0  0  0  0  0  0
  -23.0370  -13.8270   21.0190 C   0  0  0  0  0  0  0  0  0  0  0  0
  -22.2860  -13.1710   21.8970 N   0  0  0  0  0  0  0  0  0  0  0  0
  -22.6240  -14.8440   20.4660 O   0  0  0  0  0  0  0  0  0  0  0  0
  -22.6260  -12.3490   22.3740 H   0  0  0  0  0  0  0  0  0  0  0  0
  -21.3510  -13.4990   22.0940 H   0  0  0  0  0  0  0  0  0  0  0  0
  -25.7120  -15.4210   20.2090 N   0  0  0  0  0  0  0  0  0  0  0  0
  -24.9610  -16.0930   20.3290 H   0  0  0  0  0  0  0  0  0  0  0  0
  -26.5770  -15.8450   19.8990 H   0  0  0  0  0  0  0  0  0  0  0  0
  -29.2050  -23.8990   19.7000 C   0  0  0  0  0  3  0  0  0  0  0  0
  -28.3720  -25.0090   20.5130 C   0  0  0  0  0  3  0  0  0  0  0  0
  -28.5000  -26.4700   20.1980 O   0  0  0  0  0  0  0  0  0  0  0  0
  -24.6540  -31.8720   23.1940 C   0  0  0  0  0  0  0  0  0  0  0  0
  -27.3600  -27.3010   20.1940 C   0  0  0  0  0  0  0  0  0  0  0  0
  -23.4910  -30.4590   21.5340 C   0  0  0  0  0  3  0  0  0  0  0  0
  -24.9740  -28.9000   20.1430 C   0  0  0  0  0  0  0  0  0  0  0  0
  -26.0300  -30.7870   21.3950 C   0  0  0  0  0  2  0  0  0  0  0  0
  -26.1280  -29.3980   20.7630 C   0  0  0  0  0  0  0  0  0  0  0  0
  -27.3210  -28.6050   20.7830 C   0  0  0  0  0  3  0  0  0  0  0  0
  -26.1860  -26.8630   19.5460 C   0  0  0  0  0  3  0  0  0  0  0  0
  -25.0060  -27.6360   19.5310 C   0  0  0  0  0  3  0  0  0  0  0  0
  -23.7320  -29.7710   20.1620 C   0  0  0  0  0  2  0  0  0  0  0  0
  -24.7420  -31.0630   22.0960 N   0  0  0  0  0  0  0  0  0  0  0  0
  -23.5580  -32.1420   23.7100 O   0  0  0  0  0  0  0  0  0  0  0  0
  -22.8180  -29.4460   22.4920 C   0  0  0  0  0  0  0  0  0  0  0  0
  -21.4980  -29.2490   22.3400 N   0  0  0  0  0  0  0  0  0  0  0  0
  -23.4870  -28.8380   23.3310 O   0  0  0  0  0  0  0  0  0  0  0  0
  -21.0120  -29.7950   21.6420 H   0  0  0  0  0  0  0  0  0  0  0  0
  -18.1470  -27.9510   22.7520 C   0  0  0  0  0  0  0  0  0  0  0  0
  -20.6830  -28.2980   23.1030 C   0  0  0  0  0  3  0  0  0  0  0  0
  -20.8520  -26.8610   22.5600 C   0  0  0  0  0  2  0  0  0  0  0  0
  -19.7980  -26.4840   21.5160 C   0  0  0  0  0  2  0  0  0  0  0  0
  -18.3910  -26.5970   22.1090 C   0  0  0  0  0  2  0  0  0  0  0  0
  -19.2240  -28.7560   23.2070 C   0  0  0  0  0  0  0  0  0  0  0  0
  -18.9460  -30.0190   23.7730 C   0  0  0  0  0  3  0  0  0  0  0  0
  -17.6220  -30.4800   23.8870 C   0  0  0  0  0  3  0  0  0  0  0  0
  -16.5570  -29.6750   23.4460 C   0  0  0  0  0  3  0  0  0  0  0  0
  -16.8200  -28.4120   22.8850 C   0  0  0  0  0  3  0  0  0  0  0  0
  -25.9190  -32.5170   23.8420 C   0  0  0  0  0  3  0  0  0  0  0  0
  -25.5910  -33.9130   24.1680 N   0  0  0  0  0  0  0  0  0  0  0  0
  -25.9250  -34.9720   23.4170 C   0  0  0  0  0  0  0  0  0  0  0  0
  -26.6120  -34.8780   22.3970 O   0  0  0  0  0  0  0  0  0  0  0  0
  -24.9910  -34.0580   24.9670 H   0  0  0  0  0  0  0  0  0  0  0  0
  -24.1900  -36.7550   23.0370 C   0  0  0  0  0  1  0  0  0  0  0  0
  -25.4180  -36.3560   23.8700 C   0  0  0  0  0  3  0  0  0  0  0  0
  -27.5360  -37.2590   24.7310 C   0  0  0  0  0  1  0  0  0  0  0  0
  -26.4450  -37.4190   23.7740 N   0  0  0  0  0  0  0  0  0  0  0  0
  -26.0300  -38.3350   23.9150 H   0  0  0  0  0  0  0  0  0  0  0  0
  -26.4210  -31.7510   25.1270 C   0  0  1  0  0  0  0  0  0  0  0  0
  -25.3190  -31.5080   26.1840 C   0  0  0  0  0  1  0  0  0  0  0  0
  -27.0210  -30.3790   24.7470 C   0  0  0  0  0  1  0  0  0  0  0  0
  -27.5560  -32.5570   25.8060 C   0  0  0  0  0  1  0  0  0  0  0  0
  1  2  1  0
  1  8  1  0
  2  4  1  0
  3  1  2  0
  5  6  1  0
  7  8  1  0
  7  9  2  0
  8  5  2  0
  9 10  1  0
 10  6  2  0
 10 11  1  0
 11 12  1  0
 13 11  1  0
 14 15  1  0
 14  9  1  0
 16 21  1  0
 17 18  1  0
 17 16  1  0
 19 18  1  0
 19 26  1  0
 19 20  1  0
 21 15  1  0
 21 20  1  0
 22 15  2  0
 23 24  2  0
 24 43  1  0
 25 24  1  0
 25 28  1  0
 26 23  1  0
 26 27  1  0
 27 25  2  0
 28 29  1  0
 29 30  2  0
 31 34  1  0
 31 30  1  0
 32 31  2  0
 33 32  1  0
 33 28  2  0
 34 35  1  0
 35 36  1  0
 36 37  2  0
 38 37  1  0
 38 42  1  0
 39 38  2  0
 40 35  2  0
 40 39  1  0
 41 40  1  0
 43 44  1  0
 44 47  1  0
 44 46  1  0
 45 43  2  0
 48 49  1  0
 48 23  1  0
 50 48  1  0
 51  2  1  0
 51 52  2  0
 53 52  1  0
 54 65  2  0
 55 53  1  0
 55 60  1  0
 56 64  1  0
 56 66  1  0
 57 63  1  0
 57 59  1  0
 58 64  1  0
 59 60  2  0
 59 58  1  0
 61 55  2  0
 62 61  1  0
 62 57  2  0
 63 56  1  0
 64 54  1  0
 66 68  2  0
 67 66  1  0
 69 67  1  0
 70 79  2  0
 70 75  1  0
 71 67  1  0
 71 75  1  0
 72 71  1  0
 73 74  1  0
 73 72  1  0
 74 70  1  0
 75 76  2  0
 76 77  1  0
 78 77  2  0
 79 78  1  0
 80 54  1  0
 80 81  1  0
 80 90  1  0
 81 84  1  0
 82 86  1  0
 82 81  1  0
 83 82  2  0
 86 85  1  0
 88 86  1  0
 88 89  1  0
 88 87  1  0
 90 93  1  1
 90 91  1  0
 92 90  1  0
M  ISO  4  14 100  15 100  52 101  53 101
M  END
>  <TORSDO>  (83) 
F 21

>  <SCORE>  (83) 
-13.248

>  <name>  (83) 
82

>  <ligand_id>  (83) 
82

>  <original_smiles>  (83) 
[H]c1c([H])c([H])c2c(c1[H])C([H])([H])C([H])([H])C([H])([H])C2([H])N([H])C(=O)C1([H])N(C(=O)C([H])(N([H])C(=O)C([H])(N([H])C([H])([H])[H])C([H])([H])[H])C(C([H])([H])[H])(C([H])([H])[H])C([H])([H])[H])C([H])([H])c2c([H])c(OC([H])([H])C([H])([H])N([H])C(=O)c3c([H])c([H])c(N([H])[H])c(C([H])([H])C(=O)N4C([H])([H])C([H])([H])C([H])([H])C([H])(n5nc(-c6c([H])c([H])c(Oc7c([H])c([H])c(F)c([H])c7F)c([H])c6[H])c(C(=O)N([H])[H])c5N([H])[H])C4([H])[H])c3[H])c([H])c([H])c2C1([H])[H]

>  <smiles>  (83) 
[H]c1c([H])c([H])c2c(c1[H])C([H])([H])C([H])([H])C([H])([H])C2([H])N([H])C(=O)C1([H])N(C(=O)C([H])(N([H])C(=O)C([H])(N([H])C([H])([H])[H])C([H])([H])[H])C(C([H])([H])[H])(C([H])([H])[H])C([H])([H])[H])C([H])([H])c2c([H])c(OC([H])([H])C([H])([H])N([H])C(=O)c3c([H])c([H])c(N([H])[H])c(C([H])([H])C(=O)N4C([H])([H])C([H])([H])C([H])([H])C([H])(n5nc(-c6c([H])c([H])c(Oc7c([H])c([H])c(F)c([H])c7F)c([H])c6[H])c(C(=O)N([H])[H])c5N([H])[H])C4([H])[H])c3[H])c([H])c([H])c2C1([H])[H]

$$$$
83:0:0
     RDKit          3D

 99109  0  0  1  0  0  0  0  0999 V2000
  -29.0290  -21.0730   19.6950 C   0  0  0  0  0  3  0  0  0  0  0  0
  -27.3990  -19.4660   20.3860 C   0  0  0  0  0  3  0  0  0  0  0  0
  -29.8280  -20.1000   19.0340 C   0  0  0  0  0  0  0  0  0  0  0  0
  -29.4170  -18.6670   19.1410 C   0  0  0  0  0  0  0  0  0  0  0  0
  -27.8320  -20.7840   20.3520 C   0  0  0  0  0  0  0  0  0  0  0  0
  -28.1540  -18.4320   19.8050 C   0  0  0  0  0  0  0  0  0  0  0  0
  -32.9950  -17.8290   18.7390 C   0  0  0  0  0  2  0  0  0  0  0  0
  -32.1820  -17.2120   19.9080 C   0  0  0  0  0  2  0  0  0  0  0  0
  -30.9170  -17.6600   17.2930 C   0  0  0  0  0  2  0  0  0  0  0  0
  -32.0180  -20.0120   17.4730 C   0  0  0  0  0  2  0  0  0  0  0  0
  -30.1300  -17.3450   18.5650 C   0  0  0  0  0  3  0  0  0  0  0  0
  -31.0550  -20.8630   18.3610 C   0  0  0  0  0  3  0  0  0  0  0  0
  -32.1810  -18.4600   17.5800 C   0  0  0  0  0  3  0  0  0  0  0  0
  -30.9270  -16.3160   19.5710 C   0  0  2  0  0  0  0  0  0  0  0  0
  -27.0090  -21.8770   21.0090 C   0  0  0  0  0  1  0  0  0  0  0  0
  -27.4680  -17.0830   19.9840 C   0  0  0  0  0  1  0  0  0  0  0  0
  -30.2900  -16.1640   20.9790 C   0  0  0  0  0  1  0  0  0  0  0  0
  -31.3770  -14.7860   19.1140 C   0  0  0  0  0  0  0  0  0  0  0  0
  -31.1480  -12.3150   18.6280 C   0  0  0  0  0  2  0  0  0  0  0  0
  -30.1040  -12.0530   17.5190 C   0  0  0  0  0  2  0  0  0  0  0  0
  -28.6910  -11.9300   18.1160 C   0  0  0  0  0  2  0  0  0  0  0  0
  -28.3870  -13.0580   19.1340 C   0  0  0  0  0  3  0  0  0  0  0  0
  -29.5450  -13.2660   20.1310 C   0  0  0  0  0  2  0  0  0  0  0  0
  -30.7610  -13.5600   19.3600 N   0  0  0  0  0  0  0  0  0  0  0  0
  -32.4380  -14.7190   18.4820 O   0  0  0  0  0  0  0  0  0  0  0  0
  -26.2210  -13.8010   20.2850 C   0  0  0  0  0  0  0  0  0  0  0  0
  -25.1570  -13.1080   20.7860 C   0  0  0  0  0  0  0  0  0  0  0  0
  -25.4490  -11.7270   20.5650 C   0  0  0  0  0  0  0  0  0  0  0  0
  -27.1120  -12.8520   19.8140 N   0  0  0  0  0  0  0  0  0  0  0  0
  -26.6600  -11.5910   20.0390 N   0  0  0  0  0  0  0  0  0  0  0  0
  -24.6160  -10.5360   20.7670 C   0  0  0  0  0  0  0  0  0  0  0  0
  -24.9440   -9.5640   21.7360 C   0  0  0  0  0  3  0  0  0  0  0  0
  -24.1200   -8.4360   21.9260 C   0  0  0  0  0  3  0  0  0  0  0  0
  -22.9490   -8.2720   21.1500 C   0  0  0  0  0  0  0  0  0  0  0  0
  -22.6370   -9.2310   20.1720 C   0  0  0  0  0  3  0  0  0  0  0  0
  -23.4620  -10.3520   19.9800 C   0  0  0  0  0  3  0  0  0  0  0  0
  -22.0990   -7.1970   21.2520 O   0  0  0  0  0  0  0  0  0  0  0  0
  -21.7340   -6.6780   22.4670 C   0  0  0  0  0  0  0  0  0  0  0  0
  -21.1330   -7.4740   23.4670 C   0  0  0  0  0  3  0  0  0  0  0  0
  -20.7080   -6.8840   24.6760 C   0  0  0  0  0  3  0  0  0  0  0  0
  -20.8770   -5.5020   24.8810 C   0  0  0  0  0  0  0  0  0  0  0  0
  -21.4700   -4.7080   23.8840 C   0  0  0  0  0  3  0  0  0  0  0  0
  -21.8940   -5.2950   22.6800 C   0  0  0  0  0  0  0  0  0  0  0  0
  -22.4460   -4.5220   21.7150 F   0  0  0  0  0  0  0  0  0  0  0  0
  -20.4620   -4.9330   26.0380 F   0  0  0  0  0  0  0  0  0  0  0  0
  -23.8910  -13.6990   21.3360 C   0  0  0  0  0  0  0  0  0  0  0  0
  -23.2560  -13.0210   22.2830 N   0  0  0  0  0  0  0  0  0  0  0  0
  -23.4830  -14.7960   20.9570 O   0  0  0  0  0  0  0  0  0  0  0  0
  -23.6020  -12.1320   22.6120 H   0  0  0  0  0  0  0  0  0  0  0  0
  -22.4110  -13.4010   22.6870 H   0  0  0  0  0  0  0  0  0  0  0  0
  -26.4860  -15.1600   20.1600 N   0  0  0  0  0  0  0  0  0  0  0  0
  -25.8170  -15.8580   20.4630 H   0  0  0  0  0  0  0  0  0  0  0  0
  -27.2700  -15.5500   19.6590 H   0  0  0  0  0  0  0  0  0  0  0  0
  -30.6780  -22.1970   17.6340 N   0  0  0  0  0  4  0  0  0  0  0  0
  -29.6690  -22.1960   17.6130 H   0  0  0  0  0  0  0  0  0  0  0  0
  -30.9600  -22.0740   16.6750 H   0  0  0  0  0  0  0  0  0  0  0  0
  -31.1340  -23.6240   18.0760 C   0  0  0  0  0  2  0  0  0  0  0  0
  -30.1350  -24.9010   17.7880 C   0  0  0  0  0  2  0  0  0  0  0  0
  -30.1670  -26.2570   18.4880 O   0  0  0  0  0  0  0  0  0  0  0  0
  -25.9960  -29.3690   23.5990 C   0  0  0  0  0  0  0  0  0  0  0  0
  -28.9470  -26.9090   18.8340 C   0  0  0  0  0  0  0  0  0  0  0  0
  -24.8570  -28.5070   21.5880 C   0  0  0  0  0  3  0  0  0  0  0  0
  -26.3650  -27.9580   19.5900 C   0  0  0  0  0  0  0  0  0  0  0  0
  -27.2800  -29.3530   21.4400 C   0  0  0  0  0  2  0  0  0  0  0  0
  -27.5080  -28.3800   20.2810 C   0  0  0  0  0  0  0  0  0  0  0  0
  -28.7970  -27.8740   19.8940 C   0  0  0  0  0  3  0  0  0  0  0  0
  -27.7590  -26.5760   18.1400 C   0  0  0  0  0  3  0  0  0  0  0  0
  -26.4950  -27.0720   18.5110 C   0  0  0  0  0  3  0  0  0  0  0  0
  -25.0160  -28.4830   20.0460 C   0  0  0  0  0  2  0  0  0  0  0  0
  -26.0660  -29.0750   22.2670 N   0  0  0  0  0  0  0  0  0  0  0  0
  -24.9520  -29.1950   24.2450 O   0  0  0  0  0  0  0  0  0  0  0  0
  -24.4860  -27.0880   22.0840 C   0  0  0  0  0  0  0  0  0  0  0  0
  -23.3670  -26.5380   21.5810 N   0  0  0  0  0  0  0  0  0  0  0  0
  -25.2140  -26.4940   22.8850 O   0  0  0  0  0  0  0  0  0  0  0  0
  -22.8170  -27.0890   20.9370 H   0  0  0  0  0  0  0  0  0  0  0  0
  -20.8500  -24.1000   20.6790 C   0  0  0  0  0  0  0  0  0  0  0  0
  -22.8590  -25.1980   21.8790 C   0  0  0  0  0  3  0  0  0  0  0  0
  -23.7260  -24.1130   21.2000 C   0  0  0  0  0  2  0  0  0  0  0  0
  -23.1990  -23.6910   19.8250 C   0  0  0  0  0  2  0  0  0  0  0  0
  -21.7730  -23.1440   19.9410 C   0  0  0  0  0  2  0  0  0  0  0  0
  -21.3620  -25.0760   21.5740 C   0  0  0  0  0  0  0  0  0  0  0  0
  -20.4640  -25.9630   22.2070 C   0  0  0  0  0  3  0  0  0  0  0  0
  -19.0810  -25.8860   21.9580 C   0  0  0  0  0  3  0  0  0  0  0  0
  -18.5770  -24.9080   21.0820 C   0  0  0  0  0  3  0  0  0  0  0  0
  -19.4600  -24.0170   20.4480 C   0  0  0  0  0  3  0  0  0  0  0  0
  -27.2190  -29.9560   24.3700 C   0  0  0  0  0  3  0  0  0  0  0  0
  -27.7160  -29.0270   25.5440 C   0  0  1  0  0  0  0  0  0  0  0  0
  -26.5830  -28.5480   26.4810 C   0  0  0  0  0  1  0  0  0  0  0  0
  -28.4270  -27.7700   24.9890 C   0  0  0  0  0  1  0  0  0  0  0  0
  -28.7590  -29.7790   26.4030 C   0  0  0  0  0  1  0  0  0  0  0  0
  -26.8260  -31.2740   24.8880 N   0  0  0  0  0  0  0  0  0  0  0  0
  -27.1490  -32.4450   24.3220 C   0  0  0  0  0  0  0  0  0  0  0  0
  -27.8740  -32.5290   23.3270 O   0  0  0  0  0  0  0  0  0  0  0  0
  -26.1890  -31.2810   25.6710 H   0  0  0  0  0  0  0  0  0  0  0  0
  -25.3890  -34.2320   24.1190 C   0  0  0  0  0  1  0  0  0  0  0  0
  -26.5740  -33.7260   24.9580 C   0  0  0  0  0  3  0  0  0  0  0  0
  -28.5880  -34.5160   26.1190 C   0  0  0  0  0  1  0  0  0  0  0  0
  -27.5720  -34.8070   25.1120 N   0  0  0  0  0  0  0  0  0  0  0  0
  -27.1190  -35.6820   25.3620 H   0  0  0  0  0  0  0  0  0  0  0  0
  1  5  1  0
  3  4  1  0
  3  1  2  0
  4  6  2  0
  5  2  2  0
  5 15  1  0
  6 16  1  0
  6  2  1  0
  7  8  1  0
 10 13  1  0
 10 12  1  0
 11  9  1  0
 11  4  1  0
 11 14  1  0
 12 54  1  0
 12  3  1  0
 13  9  1  0
 13  7  1  0
 14  8  1  0
 14 17  1  1
 18 24  1  0
 18 14  1  0
 19 24  1  0
 20 21  1  0
 20 19  1  0
 22 21  1  0
 22 29  1  0
 22 23  1  0
 24 23  1  0
 25 18  2  0
 26 27  2  0
 27 46  1  0
 28 31  1  0
 28 27  1  0
 29 30  1  0
 29 26  1  0
 30 28  2  0
 31 32  1  0
 32 33  2  0
 34 37  1  0
 34 33  1  0
 35 34  2  0
 36 35  1  0
 36 31  2  0
 37 38  1  0
 38 43  2  0
 38 39  1  0
 39 40  2  0
 40 41  1  0
 41 45  1  0
 42 41  2  0
 43 42  1  0
 44 43  1  0
 46 47  1  0
 47 49  1  0
 47 50  1  0
 48 46  2  0
 51 26  1  0
 51 52  1  0
 53 51  1  0
 54 57  1  0
 55 54  1  0
 56 54  1  0
 58 57  1  0
 58 59  1  0
 59 61  1  0
 60 71  2  0
 61 66  1  0
 62 72  1  0
 62 70  1  0
 63 69  1  0
 63 65  1  0
 64 70  1  0
 65 64  1  0
 66 65  2  0
 67 68  1  0
 67 61  2  0
 68 63  2  0
 69 62  1  0
 70 60  1  0
 72 74  2  0
 73 72  1  0
 75 73  1  0
 76 81  1  0
 77 73  1  0
 78 77  1  0
 79 80  1  0
 79 78  1  0
 80 76  1  0
 81 77  1  0
 81 82  2  0
 83 82  1  0
 84 83  2  0
 85 76  2  0
 85 84  1  0
 86 60  1  0
 86 91  1  0
 86 87  1  0
 87 90  1  1
 87 88  1  0
 89 87  1  0
 91 94  1  0
 92 91  1  0
 92 96  1  0
 93 92  2  0
 96 95  1  0
 96 98  1  0
 98 99  1  0
 98 97  1  0
M  ISO  4  14 100  18 100  58 101  59 101
M  END
>  <TORSDO>  (84) 
F 19

>  <SCORE>  (84) 
-8.612

>  <name>  (84) 
83

>  <ligand_id>  (84) 
83

>  <original_smiles>  (84) 
[H]c1c([H])c([H])c2c(c1[H])C([H])([H])C([H])([H])C([H])([H])C2([H])N([H])C(=O)C1([H])N(C(=O)C([H])(N([H])C(=O)C([H])(N([H])C([H])([H])[H])C([H])([H])[H])C(C([H])([H])[H])(C([H])([H])[H])C([H])([H])[H])C([H])([H])c2c([H])c(OC([H])([H])C([H])([H])[N+]([H])([H])C3([H])c4c([H])c(C([H])([H])[H])c([H])c(C([H])([H])[H])c4C4([H])C([H])([H])C([H])(C([H])([H])C([H])([H])C4(C(=O)N4C([H])([H])C([H])([H])C([H])([H])C([H])(n5nc(-c6c([H])c([H])c(Oc7c([H])c([H])c(F)c([H])c7F)c([H])c6[H])c(C(=O)N([H])[H])c5N([H])[H])C4([H])[H])C([H])([H])[H])C3([H])[H])c([H])c([H])c2C1([H])[H]

>  <smiles>  (84) 
[H]c1c([H])c([H])c2c(c1[H])C([H])([H])C([H])([H])C([H])([H])C2([H])N([H])C(=O)C1([H])N(C(=O)C([H])(N([H])C(=O)C([H])(N([H])C([H])([H])[H])C([H])([H])[H])C(C([H])([H])[H])(C([H])([H])[H])C([H])([H])[H])C([H])([H])c2c([H])c(OC([H])([H])C([H])([H])[N+]([H])([H])C3([H])c4c([H])c(C([H])([H])[H])c([H])c(C([H])([H])[H])c4C4([H])C([H])([H])C([H])(C([H])([H])C([H])([H])C4(C(=O)N4C([H])([H])C([H])([H])C([H])([H])C([H])(n5nc(-c6c([H])c([H])c(Oc7c([H])c([H])c(F)c([H])c7F)c([H])c6[H])c(C(=O)N([H])[H])c5N([H])[H])C4([H])[H])C([H])([H])[H])C3([H])[H])c([H])c([H])c2C1([H])[H]

$$$$
84:0:0
     RDKit          3D

 91 99  0  0  1  0  0  0  0  0999 V2000
  -28.8390  -22.8960   17.9790 C   0  0  0  0  0  3  0  0  0  0  0  0
  -28.8780  -23.6250   16.7860 C   0  0  0  0  0  3  0  0  0  0  0  0
  -28.5800  -25.6480   18.0460 C   0  0  0  0  0  3  0  0  0  0  0  0
  -28.6900  -23.4570   19.2840 C   0  0  0  0  0  0  0  0  0  0  0  0
  -28.4650  -24.9900   19.3030 C   0  0  0  0  0  0  0  0  0  0  0  0
  -28.7710  -25.0080   16.8210 C   0  0  0  0  0  0  0  0  0  0  0  0
  -28.8420  -25.7280   15.6770 F   0  0  0  0  0  0  0  0  0  0  0  0
  -28.7670  -22.2660   20.3730 C   0  0  0  0  0  0  0  0  0  0  0  0
  -29.1990  -20.9290   20.0320 N   0  0  0  0  0  0  0  0  0  0  0  0
  -28.4110  -22.5100   21.5270 O   0  0  0  0  0  0  0  0  0  0  0  0
  -29.5270  -20.8820   19.0780 H   0  0  0  0  0  0  0  0  0  0  0  0
  -29.1820  -19.4900   20.7300 C   0  0  0  0  0  3  0  0  0  0  0  0
  -29.8890  -18.0370   20.1480 C   0  0  0  0  0  3  0  0  0  0  0  0
  -29.6590  -16.4500   20.7600 C   0  0  0  0  0  2  0  0  0  0  0  0
  -30.4580  -15.0190   20.3780 C   0  0  0  0  0  0  0  0  0  0  0  0
  -30.3780  -12.6430   19.4450 C   0  0  0  0  0  2  0  0  0  0  0  0
  -29.4640  -12.5970   18.1960 C   0  0  0  0  0  2  0  0  0  0  0  0
  -27.9930  -12.3880   18.6000 C   0  0  0  0  0  2  0  0  0  0  0  0
  -27.5700  -13.3100   19.7730 C   0  0  0  0  0  3  0  0  0  0  0  0
  -28.6070  -13.3210   20.9150 C   0  0  0  0  0  2  0  0  0  0  0  0
  -29.8920  -13.7370   20.3400 N   0  0  0  0  0  0  0  0  0  0  0  0
  -31.6460  -15.0820   20.0370 O   0  0  0  0  0  0  0  0  0  0  0  0
  -25.1760  -13.8940   20.4610 C   0  0  0  0  0  0  0  0  0  0  0  0
  -24.1050  -13.1240   20.8210 C   0  0  0  0  0  0  0  0  0  0  0  0
  -24.5710  -11.7720   20.8190 C   0  0  0  0  0  0  0  0  0  0  0  0
  -26.2240  -13.0140   20.2510 N   0  0  0  0  0  0  0  0  0  0  0  0
  -25.8670  -11.7330   20.5330 N   0  0  0  0  0  0  0  0  0  0  0  0
  -23.8410  -10.5130   21.0150 C   0  0  0  0  0  0  0  0  0  0  0  0
  -24.2650   -9.5520   21.9600 C   0  0  0  0  0  3  0  0  0  0  0  0
  -23.5330   -8.3590   22.1440 C   0  0  0  0  0  3  0  0  0  0  0  0
  -22.3640   -8.1170   21.3840 C   0  0  0  0  0  0  0  0  0  0  0  0
  -21.9600   -9.0670   20.4290 C   0  0  0  0  0  3  0  0  0  0  0  0
  -22.6910  -10.2510   20.2430 C   0  0  0  0  0  3  0  0  0  0  0  0
  -21.6060   -6.9750   21.4770 O   0  0  0  0  0  0  0  0  0  0  0  0
  -21.5600   -6.2340   22.6300 C   0  0  0  0  0  0  0  0  0  0  0  0
  -21.1580   -6.7950   23.8620 C   0  0  0  0  0  3  0  0  0  0  0  0
  -21.0580   -5.9800   25.0070 C   0  0  0  0  0  3  0  0  0  0  0  0
  -21.3490   -4.6060   24.9230 C   0  0  0  0  0  0  0  0  0  0  0  0
  -21.7450   -4.0440   23.6960 C   0  0  0  0  0  3  0  0  0  0  0  0
  -21.8460   -4.8550   22.5520 C   0  0  0  0  0  0  0  0  0  0  0  0
  -22.2070   -4.3050   21.3680 F   0  0  0  0  0  0  0  0  0  0  0  0
  -21.2460   -3.8210   26.0210 F   0  0  0  0  0  0  0  0  0  0  0  0
  -22.7030  -13.6040   21.0560 C   0  0  0  0  0  0  0  0  0  0  0  0
  -21.9580  -12.9230   21.9200 N   0  0  0  0  0  0  0  0  0  0  0  0
  -22.2760  -14.6190   20.5100 O   0  0  0  0  0  0  0  0  0  0  0  0
  -22.3180  -12.1020   22.3860 H   0  0  0  0  0  0  0  0  0  0  0  0
  -21.0170  -13.2270   22.1210 H   0  0  0  0  0  0  0  0  0  0  0  0
  -25.3430  -15.2620   20.2680 N   0  0  0  0  0  0  0  0  0  0  0  0
  -24.5780  -15.9200   20.3710 H   0  0  0  0  0  0  0  0  0  0  0  0
  -26.2040  -15.7010   19.9650 H   0  0  0  0  0  0  0  0  0  0  0  0
  -28.2290  -26.0730   20.2690 O   0  0  0  0  0  0  0  0  0  0  0  0
  -24.6460  -31.8660   23.1940 C   0  0  0  0  0  0  0  0  0  0  0  0
  -27.2100  -27.1130   20.1620 C   0  0  0  0  0  0  0  0  0  0  0  0
  -23.4370  -30.4570   21.5740 C   0  0  0  0  0  3  0  0  0  0  0  0
  -24.8780  -28.8760   20.1430 C   0  0  0  0  0  0  0  0  0  0  0  0
  -25.9920  -30.7180   21.3910 C   0  0  0  0  0  2  0  0  0  0  0  0
  -26.0630  -29.3200   20.7430 C   0  0  0  0  0  0  0  0  0  0  0  0
  -27.2260  -28.4520   20.7430 C   0  0  0  0  0  3  0  0  0  0  0  0
  -25.9910  -26.7760   19.5320 C   0  0  0  0  0  3  0  0  0  0  0  0
  -24.8560  -27.6180   19.5210 C   0  0  0  0  0  3  0  0  0  0  0  0
  -23.6500  -29.7730   20.1980 C   0  0  0  0  0  2  0  0  0  0  0  0
  -24.7120  -31.0370   22.1070 N   0  0  0  0  0  0  0  0  0  0  0  0
  -23.5630  -32.1530   23.7280 O   0  0  0  0  0  0  0  0  0  0  0  0
  -22.7650  -29.4560   22.5490 C   0  0  0  0  0  0  0  0  0  0  0  0
  -21.4350  -29.2850   22.4370 N   0  0  0  0  0  0  0  0  0  0  0  0
  -23.4440  -28.8360   23.3720 O   0  0  0  0  0  0  0  0  0  0  0  0
  -20.9430  -29.8370   21.7480 H   0  0  0  0  0  0  0  0  0  0  0  0
  -18.0610  -28.0750   22.9690 C   0  0  0  0  0  0  0  0  0  0  0  0
  -20.6210  -28.3530   23.2220 C   0  0  0  0  0  3  0  0  0  0  0  0
  -20.7260  -26.9160   22.6620 C   0  0  0  0  0  2  0  0  0  0  0  0
  -19.6210  -26.5770   21.6560 C   0  0  0  0  0  2  0  0  0  0  0  0
  -18.2420  -26.7210   22.3050 C   0  0  0  0  0  2  0  0  0  0  0  0
  -19.1780  -28.8480   23.3850 C   0  0  0  0  0  0  0  0  0  0  0  0
  -18.9530  -30.1130   23.9700 C   0  0  0  0  0  3  0  0  0  0  0  0
  -17.6460  -30.6070   24.1400 C   0  0  0  0  0  3  0  0  0  0  0  0
  -16.5450  -29.8320   23.7390 C   0  0  0  0  0  3  0  0  0  0  0  0
  -16.7530  -28.5680   23.1580 C   0  0  0  0  0  3  0  0  0  0  0  0
  -25.9260  -32.5090   23.8090 C   0  0  0  0  0  3  0  0  0  0  0  0
  -26.4560  -31.7390   25.0810 C   0  0  1  0  0  0  0  0  0  0  0  0
  -25.3730  -31.5000   26.1600 C   0  0  0  0  0  1  0  0  0  0  0  0
  -27.0380  -30.3630   24.6880 C   0  0  0  0  0  1  0  0  0  0  0  0
  -27.6120  -32.5360   25.7320 C   0  0  0  0  0  1  0  0  0  0  0  0
  -25.6060  -33.9050   24.1530 N   0  0  0  0  0  0  0  0  0  0  0  0
  -25.9240  -34.9700   23.4040 C   0  0  0  0  0  0  0  0  0  0  0  0
  -26.5840  -34.8800   22.3650 O   0  0  0  0  0  0  0  0  0  0  0  0
  -25.0180  -34.0470   24.9600 H   0  0  0  0  0  0  0  0  0  0  0  0
  -24.1820  -36.7590   23.0940 C   0  0  0  0  0  1  0  0  0  0  0  0
  -25.4370  -36.3520   23.8830 C   0  0  0  0  0  3  0  0  0  0  0  0
  -27.5790  -37.2400   24.6900 C   0  0  0  0  0  1  0  0  0  0  0  0
  -26.4610  -37.4120   23.7660 N   0  0  0  0  0  0  0  0  0  0  0  0
  -26.0520  -38.3280   23.9300 H   0  0  0  0  0  0  0  0  0  0  0  0
  1  4  1  0
  2  6  1  0
  2  1  2  0
  3  5  1  0
  4  5  2  0
  4  8  1  0
  5 51  1  0
  6  3  2  0
  7  6  1  0
  8 10  2  0
  9  8  1  0
  9 12  1  0
 11  9  1  0
 13 12  2  0
 13 14  1  0
 15 14  1  0
 16 21  1  0
 17 18  1  0
 17 16  1  0
 19 18  1  0
 19 26  1  0
 19 20  1  0
 21 15  1  0
 21 20  1  0
 22 15  2  0
 23 24  2  0
 24 43  1  0
 25 24  1  0
 25 28  1  0
 26 23  1  0
 26 27  1  0
 27 25  2  0
 28 29  1  0
 29 30  2  0
 31 34  1  0
 31 30  1  0
 32 31  2  0
 33 32  1  0
 33 28  2  0
 34 35  1  0
 35 36  1  0
 36 37  2  0
 38 37  1  0
 38 42  1  0
 39 38  2  0
 40 35  2  0
 40 39  1  0
 41 40  1  0
 43 44  1  0
 44 47  1  0
 44 46  1  0
 45 43  2  0
 48 49  1  0
 48 23  1  0
 50 48  1  0
 52 63  2  0
 53 51  1  0
 53 58  1  0
 54 62  1  0
 54 64  1  0
 55 61  1  0
 55 57  1  0
 56 62  1  0
 57 58  2  0
 57 56  1  0
 59 53  2  0
 60 59  1  0
 60 55  2  0
 61 54  1  0
 62 52  1  0
 64 66  2  0
 65 64  1  0
 67 65  1  0
 68 77  2  0
 68 73  1  0
 69 65  1  0
 69 73  1  0
 70 69  1  0
 71 72  1  0
 71 70  1  0
 72 68  1  0
 73 74  2  0
 74 75  1  0
 76 75  2  0
 77 76  1  0
 78 52  1  0
 78 83  1  0
 78 79  1  0
 79 82  1  1
 79 80  1  0
 81 79  1  0
 83 86  1  0
 84 88  1  0
 84 83  1  0
 85 84  2  0
 88 87  1  0
 90 88  1  0
 90 91  1  0
 90 89  1  0
M  ISO  4   5 101  14 100  15 100  51 101
M  END
>  <TORSDO>  (85) 
F 20

>  <SCORE>  (85) 
-14.753

>  <name>  (85) 
84

>  <ligand_id>  (85) 
84

>  <original_smiles>  (85) 
[H]c1c([H])c([H])c2c(c1[H])C([H])([H])C([H])([H])C([H])([H])C2([H])N([H])C(=O)C1([H])N(C(=O)C([H])(N([H])C(=O)C([H])(N([H])C([H])([H])[H])C([H])([H])[H])C(C([H])([H])[H])(C([H])([H])[H])C([H])([H])[H])C([H])([H])c2c([H])c(Oc3c([H])c(F)c([H])c([H])c3C(=O)N([H])C([H])([H])C([H])([H])C([H])([H])C(=O)N3C([H])([H])C([H])([H])C([H])([H])C([H])(n4nc(-c5c([H])c([H])c(Oc6c([H])c([H])c(F)c([H])c6F)c([H])c5[H])c(C(=O)N([H])[H])c4N([H])[H])C3([H])[H])c([H])c([H])c2C1([H])[H]

>  <smiles>  (85) 
[H]c1c([H])c([H])c2c(c1[H])C([H])([H])C([H])([H])C([H])([H])C2([H])N([H])C(=O)C1([H])N(C(=O)C([H])(N([H])C(=O)C([H])(N([H])C([H])([H])[H])C([H])([H])[H])C(C([H])([H])[H])(C([H])([H])[H])C([H])([H])[H])C([H])([H])c2c([H])c(Oc3c([H])c(F)c([H])c([H])c3C(=O)N([H])C([H])([H])C([H])([H])C([H])([H])C(=O)N3C([H])([H])C([H])([H])C([H])([H])C([H])(n4nc(-c5c([H])c([H])c(Oc6c([H])c([H])c(F)c([H])c6F)c([H])c5[H])c(C(=O)N([H])[H])c4N([H])[H])C3([H])[H])c([H])c([H])c2C1([H])[H]

$$$$
85:0:0
     RDKit          3D

 93100  0  0  1  0  0  0  0  0999 V2000
  -27.4960  -21.0530   20.9060 C   0  0  0  0  0  1  0  0  0  0  0  0
  -28.1450  -22.0130   21.9250 C   0  0  0  0  0  3  0  0  0  0  0  0
  -29.5260  -21.6210   22.3070 N   0  0  0  0  0  4  0  0  0  0  0  0
  -29.8360  -22.2710   23.0120 H   0  0  0  0  0  0  0  0  0  0  0  0
  -29.4870  -20.7180   22.7490 H   0  0  0  0  0  0  0  0  0  0  0  0
  -30.5760  -21.5870   21.2590 C   0  0  0  0  0  2  0  0  0  0  0  0
  -31.4670  -20.3340   21.3850 C   0  0  0  0  0  2  0  0  0  0  0  0
  -31.0290  -19.2000   20.4440 C   0  0  0  0  0  2  0  0  0  0  0  0
  -31.4050  -17.7940   20.9310 C   0  0  0  0  0  2  0  0  0  0  0  0
  -31.3690  -16.7890   19.7710 C   0  0  0  0  0  2  0  0  0  0  0  0
  -31.6570  -14.3360   19.6860 C   0  0  0  0  0  0  0  0  0  0  0  0
  -31.2690  -11.9700   19.1260 C   0  0  0  0  0  2  0  0  0  0  0  0
  -30.2830  -11.8740   17.9440 C   0  0  0  0  0  2  0  0  0  0  0  0
  -28.8250  -11.8940   18.4420 C   0  0  0  0  0  2  0  0  0  0  0  0
  -28.5500  -13.0510   19.4390 C   0  0  0  0  0  3  0  0  0  0  0  0
  -29.6380  -13.0900   20.5370 C   0  0  0  0  0  2  0  0  0  0  0  0
  -30.9570  -13.1900   19.8820 N   0  0  0  0  0  0  0  0  0  0  0  0
  -32.6780  -14.4020   18.9930 O   0  0  0  0  0  0  0  0  0  0  0  0
  -31.1100  -15.4290   20.2270 N   0  0  0  0  0  0  0  0  0  0  0  0
  -30.2970  -15.2790   20.8060 H   0  0  0  0  0  0  0  0  0  0  0  0
  -26.3260  -13.9620   20.3700 C   0  0  0  0  0  0  0  0  0  0  0  0
  -25.1840  -13.3310   20.7870 C   0  0  0  0  0  0  0  0  0  0  0  0
  -25.4320  -11.9320   20.6440 C   0  0  0  0  0  0  0  0  0  0  0  0
  -27.2080  -12.9540   20.0100 N   0  0  0  0  0  0  0  0  0  0  0  0
  -26.6740  -11.7240   20.2250 N   0  0  0  0  0  0  0  0  0  0  0  0
  -24.5400  -10.7800   20.8270 C   0  0  0  0  0  0  0  0  0  0  0  0
  -24.8830   -9.7100   21.6830 C   0  0  0  0  0  3  0  0  0  0  0  0
  -24.0020   -8.6210   21.8570 C   0  0  0  0  0  3  0  0  0  0  0  0
  -22.7620   -8.5960   21.1750 C   0  0  0  0  0  0  0  0  0  0  0  0
  -22.4350   -9.6530   20.3080 C   0  0  0  0  0  3  0  0  0  0  0  0
  -23.3150  -10.7330   20.1310 C   0  0  0  0  0  3  0  0  0  0  0  0
  -21.8530   -7.5690   21.2630 O   0  0  0  0  0  0  0  0  0  0  0  0
  -21.7310   -6.8130   22.4010 C   0  0  0  0  0  0  0  0  0  0  0  0
  -21.4180   -7.3910   23.6500 C   0  0  0  0  0  3  0  0  0  0  0  0
  -21.2330   -6.5690   24.7790 C   0  0  0  0  0  3  0  0  0  0  0  0
  -21.3510   -5.1720   24.6620 C   0  0  0  0  0  0  0  0  0  0  0  0
  -21.6560   -4.5930   23.4160 C   0  0  0  0  0  3  0  0  0  0  0  0
  -21.8430   -5.4120   22.2890 C   0  0  0  0  0  0  0  0  0  0  0  0
  -22.1170   -4.8480   21.0880 F   0  0  0  0  0  0  0  0  0  0  0  0
  -21.1640   -4.3810   25.7450 F   0  0  0  0  0  0  0  0  0  0  0  0
  -23.9000  -13.9890   21.2050 C   0  0  0  0  0  0  0  0  0  0  0  0
  -23.1580  -13.3600   22.1120 N   0  0  0  0  0  0  0  0  0  0  0  0
  -23.5720  -15.0900   20.7670 O   0  0  0  0  0  0  0  0  0  0  0  0
  -23.4370  -12.4660   22.4860 H   0  0  0  0  0  0  0  0  0  0  0  0
  -22.2990  -13.7810   22.4360 H   0  0  0  0  0  0  0  0  0  0  0  0
  -26.6830  -15.3020   20.2530 N   0  0  0  0  0  0  0  0  0  0  0  0
  -26.0360  -16.0550   20.4600 H   0  0  0  0  0  0  0  0  0  0  0  0
  -27.5670  -15.6280   19.8850 H   0  0  0  0  0  0  0  0  0  0  0  0
  -28.0560  -23.4690   21.4870 C   0  0  0  0  0  3  0  0  0  0  0  0
  -28.4450  -23.8840   20.3490 N   0  0  0  0  0  0  0  0  0  0  0  0
  -28.2280  -25.2860   20.0340 C   0  0  0  0  0  2  0  0  0  0  0  0
  -27.9430  -25.4510   18.5260 C   0  0  0  0  0  2  0  0  0  0  0  0
  -27.8900  -26.8270   18.1580 O   0  0  0  0  0  0  0  0  0  0  0  0
  -24.9520  -31.2110   22.8870 C   0  0  0  0  0  0  0  0  0  0  0  0
  -26.7620  -27.5410   18.4950 C   0  0  0  0  0  0  0  0  0  0  0  0
  -23.4110  -30.3020   21.1790 C   0  0  0  0  0  3  0  0  0  0  0  0
  -24.5140  -29.0840   19.2310 C   0  0  0  0  0  0  0  0  0  0  0  0
  -25.9000  -30.5890   20.6710 C   0  0  0  0  0  2  0  0  0  0  0  0
  -25.7810  -29.4090   19.7300 C   0  0  0  0  0  0  0  0  0  0  0  0
  -26.9070  -28.6470   19.3570 C   0  0  0  0  0  3  0  0  0  0  0  0
  -25.4770  -27.2200   17.9990 C   0  0  0  0  0  3  0  0  0  0  0  0
  -24.3550  -27.9880   18.3640 C   0  0  0  0  0  3  0  0  0  0  0  0
  -23.3630  -29.9610   19.6650 C   0  0  0  0  0  2  0  0  0  0  0  0
  -24.7810  -30.6990   21.6360 N   0  0  0  0  0  0  0  0  0  0  0  0
  -23.9860  -31.3980   23.6400 O   0  0  0  0  0  0  0  0  0  0  0  0
  -22.8220  -29.1130   21.9690 C   0  0  0  0  0  0  0  0  0  0  0  0
  -21.4840  -28.9940   21.9610 N   0  0  0  0  0  0  0  0  0  0  0  0
  -23.5590  -28.3080   22.5460 O   0  0  0  0  0  0  0  0  0  0  0  0
  -20.9510  -29.6990   21.4700 H   0  0  0  0  0  0  0  0  0  0  0  0
  -18.1360  -27.7350   22.4630 C   0  0  0  0  0  0  0  0  0  0  0  0
  -20.7100  -27.9340   22.6030 C   0  0  0  0  0  3  0  0  0  0  0  0
  -20.7540  -26.6310   21.7710 C   0  0  0  0  0  2  0  0  0  0  0  0
  -19.5820  -26.5010   20.7920 C   0  0  0  0  0  2  0  0  0  0  0  0
  -18.2490  -26.5290   21.5460 C   0  0  0  0  0  2  0  0  0  0  0  0
  -19.2920  -28.4050   22.9460 C   0  0  0  0  0  0  0  0  0  0  0  0
  -19.1330  -29.5420   23.7670 C   0  0  0  0  0  3  0  0  0  0  0  0
  -17.8500  -30.0080   24.1090 C   0  0  0  0  0  3  0  0  0  0  0  0
  -16.7090  -29.3330   23.6420 C   0  0  0  0  0  3  0  0  0  0  0  0
  -16.8540  -28.1970   22.8240 C   0  0  0  0  0  3  0  0  0  0  0  0
  -26.3620  -31.6120   23.4230 C   0  0  0  0  0  3  0  0  0  0  0  0
  -27.0300  -30.4930   24.3130 C   0  0  1  0  0  0  0  0  0  0  0  0
  -26.1180  -29.9750   25.4490 C   0  0  0  0  0  1  0  0  0  0  0  0
  -27.4390  -29.2790   23.4450 C   0  0  0  0  0  1  0  0  0  0  0  0
  -28.3280  -31.0370   24.9530 C   0  0  0  0  0  1  0  0  0  0  0  0
  -26.2090  -32.8600   24.1830 N   0  0  0  0  0  0  0  0  0  0  0  0
  -26.5540  -34.0720   23.7300 C   0  0  0  0  0  0  0  0  0  0  0  0
  -27.1080  -34.2480   22.6420 O   0  0  0  0  0  0  0  0  0  0  0  0
  -25.7100  -32.7980   25.0590 H   0  0  0  0  0  0  0  0  0  0  0  0
  -24.9830  -36.0010   24.0920 C   0  0  0  0  0  1  0  0  0  0  0  0
  -26.2320  -35.2820   24.6260 C   0  0  0  0  0  3  0  0  0  0  0  0
  -28.4890  -35.7160   25.4880 C   0  0  0  0  0  1  0  0  0  0  0  0
  -27.3500  -36.2430   24.7420 N   0  0  0  0  0  0  0  0  0  0  0  0
  -27.0430  -37.1000   25.1940 H   0  0  0  0  0  0  0  0  0  0  0  0
  2  1  1  0
  2  3  1  0
  3  5  1  0
  3  4  1  0
  6  7  1  0
  6  3  1  0
  8  9  1  0
  8  7  1  0
 10 19  1  0
 10  9  1  0
 11 17  1  0
 11 19  1  0
 12 17  1  0
 13 14  1  0
 13 12  1  0
 15 14  1  0
 15 24  1  0
 15 16  1  0
 17 16  1  0
 18 11  2  0
 19 20  1  0
 21 22  2  0
 22 41  1  0
 23 22  1  0
 23 26  1  0
 24 25  1  0
 24 21  1  0
 25 23  2  0
 26 27  1  0
 27 28  2  0
 29 32  1  0
 29 28  1  0
 30 29  2  0
 31 30  1  0
 31 26  2  0
 32 33  1  0
 33 34  1  0
 34 35  2  0
 36 35  1  0
 36 40  1  0
 37 36  2  0
 38 33  2  0
 38 37  1  0
 39 38  1  0
 41 42  1  0
 42 45  1  0
 42 44  1  0
 43 41  2  0
 46 21  1  0
 46 47  1  0
 48 46  1  0
 49  2  1  0
 50 49  2  0
 51 50  1  0
 52 51  1  0
 53 55  1  0
 53 52  1  0
 54 65  2  0
 55 60  1  0
 56 64  1  0
 56 66  1  0
 57 63  1  0
 57 59  1  0
 58 64  1  0
 59 58  1  0
 60 59  2  0
 61 62  1  0
 61 55  2  0
 62 57  2  0
 63 56  1  0
 64 54  1  0
 66 68  2  0
 67 66  1  0
 69 67  1  0
 70 79  2  0
 70 75  1  0
 71 67  1  0
 71 75  1  0
 72 71  1  0
 73 74  1  0
 73 72  1  0
 74 70  1  0
 75 76  2  0
 76 77  1  0
 78 77  2  0
 79 78  1  0
 80 54  1  0
 80 85  1  0
 80 81  1  0
 81 84  1  1
 81 82  1  0
 83 81  1  0
 85 88  1  0
 86 85  1  0
 86 90  1  0
 87 86  2  0
 90 89  1  0
 90 92  1  0
 92 93  1  0
 92 91  1  0
M  ISO  4  11 100  19 100  52 101  53 101
M  END
>  <TORSDO>  (86) 
F 25

>  <SCORE>  (86) 
-9.324

>  <name>  (86) 
85

>  <ligand_id>  (86) 
85

>  <original_smiles>  (86) 
[H]C(=NC([H])([H])C([H])([H])Oc1c([H])c([H])c2c(c1[H])C([H])([H])N(C(=O)C([H])(N([H])C(=O)C([H])(N([H])C([H])([H])[H])C([H])([H])[H])C(C([H])([H])[H])(C([H])([H])[H])C([H])([H])[H])C([H])(C(=O)N([H])C1([H])c3c([H])c([H])c([H])c([H])c3C([H])([H])C([H])([H])C1([H])[H])C2([H])[H])C([H])(C([H])([H])[H])[N+]([H])([H])C([H])([H])C([H])([H])C([H])([H])C([H])([H])C([H])([H])N([H])C(=O)N1C([H])([H])C([H])([H])C([H])([H])C([H])(n2nc(-c3c([H])c([H])c(Oc4c([H])c([H])c(F)c([H])c4F)c([H])c3[H])c(C(=O)N([H])[H])c2N([H])[H])C1([H])[H]

>  <smiles>  (86) 
[H]C(=NC([H])([H])C([H])([H])Oc1c([H])c([H])c2c(c1[H])C([H])([H])N(C(=O)C([H])(N([H])C(=O)C([H])(N([H])C([H])([H])[H])C([H])([H])[H])C(C([H])([H])[H])(C([H])([H])[H])C([H])([H])[H])C([H])(C(=O)N([H])C1([H])c3c([H])c([H])c([H])c([H])c3C([H])([H])C([H])([H])C1([H])[H])C2([H])[H])C([H])(C([H])([H])[H])[N+]([H])([H])C([H])([H])C([H])([H])C([H])([H])C([H])([H])C([H])([H])N([H])C(=O)N1C([H])([H])C([H])([H])C([H])([H])C([H])(n2nc(-c3c([H])c([H])c(Oc4c([H])c([H])c(F)c([H])c4F)c([H])c3[H])c(C(=O)N([H])[H])c2N([H])[H])C1([H])[H]

$$$$
86:0:0
     RDKit          3D

 91100  0  0  1  0  0  0  0  0999 V2000
  -30.8560  -22.3870   19.5400 C   0  0  0  0  0  3  0  0  0  0  0  0
  -30.5160  -21.0150   19.6400 C   0  0  0  0  0  3  0  0  0  0  0  0
  -28.2040  -21.6050   20.1900 C   0  0  0  0  0  3  0  0  0  0  0  0
  -29.8490  -23.3500   19.7410 C   0  0  0  0  0  0  0  0  0  0  0  0
  -28.5600  -22.9710   20.0840 C   0  0  0  0  0  0  0  0  0  0  0  0
  -29.1890  -20.6090   19.9360 C   0  0  0  0  0  0  0  0  0  0  0  0
  -29.9560  -24.8510   19.5700 C   0  0  0  0  0  2  0  0  0  0  0  0
  -27.6680  -24.1920   20.2250 C   0  0  0  0  0  2  0  0  0  0  0  0
  -28.4830  -25.3570   19.5710 C   0  0  0  0  0  3  0  0  0  0  0  0
  -28.3920  -26.6670   20.1740 O   0  0  0  0  0  0  0  0  0  0  0  0
  -24.5980  -31.8630   23.2430 C   0  0  0  0  0  0  0  0  0  0  0  0
  -27.2120  -27.3940   20.1370 C   0  0  0  0  0  0  0  0  0  0  0  0
  -23.3800  -30.4690   21.6020 C   0  0  0  0  0  3  0  0  0  0  0  0
  -24.8220  -28.9290   20.1650 C   0  0  0  0  0  0  0  0  0  0  0  0
  -25.9090  -30.8090   21.4010 C   0  0  0  0  0  2  0  0  0  0  0  0
  -25.9840  -29.4380   20.7560 C   0  0  0  0  0  0  0  0  0  0  0  0
  -27.1770  -28.6750   20.7440 C   0  0  0  0  0  3  0  0  0  0  0  0
  -26.0290  -26.9140   19.5280 C   0  0  0  0  0  3  0  0  0  0  0  0
  -24.8400  -27.6670   19.5500 C   0  0  0  0  0  3  0  0  0  0  0  0
  -23.5830  -29.7950   20.2190 C   0  0  0  0  0  2  0  0  0  0  0  0
  -24.6480  -31.0630   22.1400 N   0  0  0  0  0  0  0  0  0  0  0  0
  -23.5190  -32.1380   23.7870 O   0  0  0  0  0  0  0  0  0  0  0  0
  -22.7280  -29.4480   22.5620 C   0  0  0  0  0  0  0  0  0  0  0  0
  -21.4030  -29.2690   22.4380 N   0  0  0  0  0  0  0  0  0  0  0  0
  -23.4120  -28.8210   23.3750 O   0  0  0  0  0  0  0  0  0  0  0  0
  -20.9120  -29.8280   21.7530 H   0  0  0  0  0  0  0  0  0  0  0  0
  -18.0280  -28.0790   22.9380 C   0  0  0  0  0  0  0  0  0  0  0  0
  -20.5860  -28.3330   23.2080 C   0  0  0  0  0  3  0  0  0  0  0  0
  -20.6860  -26.9010   22.6310 C   0  0  0  0  0  2  0  0  0  0  0  0
  -19.5830  -26.5810   21.6180 C   0  0  0  0  0  2  0  0  0  0  0  0
  -18.2020  -26.7300   22.2620 C   0  0  0  0  0  2  0  0  0  0  0  0
  -19.1480  -28.8390   23.3690 C   0  0  0  0  0  0  0  0  0  0  0  0
  -18.9330  -30.1020   23.9590 C   0  0  0  0  0  3  0  0  0  0  0  0
  -17.6290  -30.6070   24.1250 C   0  0  0  0  0  3  0  0  0  0  0  0
  -16.5230  -29.8450   23.7110 C   0  0  0  0  0  3  0  0  0  0  0  0
  -16.7240  -28.5830   23.1230 C   0  0  0  0  0  3  0  0  0  0  0  0
  -25.8890  -32.4870   23.8580 C   0  0  0  0  0  3  0  0  0  0  0  0
  -26.4130  -31.7090   25.1280 C   0  0  1  0  0  0  0  0  0  0  0  0
  -25.3260  -31.4720   26.2020 C   0  0  0  0  0  1  0  0  0  0  0  0
  -26.9880  -30.3310   24.7260 C   0  0  0  0  0  1  0  0  0  0  0  0
  -27.5700  -32.4970   25.7850 C   0  0  0  0  0  1  0  0  0  0  0  0
  -25.5870  -33.8850   24.1960 N   0  0  0  0  0  0  0  0  0  0  0  0
  -25.9140  -34.9380   23.4340 C   0  0  0  0  0  0  0  0  0  0  0  0
  -26.5730  -34.8350   22.3960 O   0  0  0  0  0  0  0  0  0  0  0  0
  -25.0020  -34.0390   25.0040 H   0  0  0  0  0  0  0  0  0  0  0  0
  -24.1830  -36.7320   23.1010 C   0  0  0  0  0  1  0  0  0  0  0  0
  -25.4330  -36.3250   23.8980 C   0  0  0  0  0  3  0  0  0  0  0  0
  -27.5780  -37.2070   24.7060 C   0  0  0  0  0  1  0  0  0  0  0  0
  -26.4650  -37.3780   23.7750 N   0  0  0  0  0  0  0  0  0  0  0  0
  -26.0610  -38.2980   23.9290 H   0  0  0  0  0  0  0  0  0  0  0  0
  -28.7980  -19.1270   19.8120 C   0  0  0  0  0  2  0  0  0  0  0  0
  -29.4570  -18.0960   20.7830 C   0  0  0  0  0  2  0  0  0  0  0  0
  -30.1560  -16.8970   20.0710 C   0  0  0  0  0  2  0  0  0  0  0  0
  -30.6650  -14.4780   20.3440 C   0  0  0  0  0  0  0  0  0  0  0  0
  -30.3460  -12.3020   19.2440 C   0  0  0  0  0  2  0  0  0  0  0  0
  -29.4100  -12.5280   18.0380 C   0  0  0  0  0  2  0  0  0  0  0  0
  -27.9340  -12.4110   18.4680 C   0  0  0  0  0  2  0  0  0  0  0  0
  -27.6070  -13.2460   19.7370 C   0  0  0  0  0  3  0  0  0  0  0  0
  -28.6640  -13.0220   20.8440 C   0  0  0  0  0  2  0  0  0  0  0  0
  -29.9900  -13.2990   20.2690 N   0  0  0  0  0  0  0  0  0  0  0  0
  -31.8100  -14.6170   19.9080 O   0  0  0  0  0  0  0  0  0  0  0  0
  -29.9190  -15.5590   20.6590 N   0  0  0  0  0  0  0  0  0  0  0  0
  -28.9950  -15.3690   21.0200 H   0  0  0  0  0  0  0  0  0  0  0  0
  -25.2130  -13.8690   20.4410 C   0  0  0  0  0  0  0  0  0  0  0  0
  -24.1410  -13.1050   20.8190 C   0  0  0  0  0  0  0  0  0  0  0  0
  -24.5950  -11.7520   20.8020 C   0  0  0  0  0  0  0  0  0  0  0  0
  -26.2530  -12.9810   20.2190 N   0  0  0  0  0  0  0  0  0  0  0  0
  -25.8850  -11.7030   20.4940 N   0  0  0  0  0  0  0  0  0  0  0  0
  -23.8620  -10.4950   21.0050 C   0  0  0  0  0  0  0  0  0  0  0  0
  -24.2990   -9.5270   21.9380 C   0  0  0  0  0  3  0  0  0  0  0  0
  -23.5660   -8.3370   22.1290 C   0  0  0  0  0  3  0  0  0  0  0  0
  -22.3840   -8.1030   21.3870 C   0  0  0  0  0  0  0  0  0  0  0  0
  -21.9670   -9.0580   20.4430 C   0  0  0  0  0  3  0  0  0  0  0  0
  -22.7000  -10.2410   20.2500 C   0  0  0  0  0  3  0  0  0  0  0  0
  -21.6240   -6.9630   21.4860 O   0  0  0  0  0  0  0  0  0  0  0  0
  -21.5910   -6.2180   22.6370 C   0  0  0  0  0  0  0  0  0  0  0  0
  -21.1970   -6.7760   23.8740 C   0  0  0  0  0  3  0  0  0  0  0  0
  -21.1080   -5.9580   25.0180 C   0  0  0  0  0  3  0  0  0  0  0  0
  -21.4050   -4.5850   24.9280 C   0  0  0  0  0  0  0  0  0  0  0  0
  -21.7930   -4.0280   23.6960 C   0  0  0  0  0  3  0  0  0  0  0  0
  -21.8820   -4.8430   22.5540 C   0  0  0  0  0  0  0  0  0  0  0  0
  -22.2360   -4.2960   21.3650 F   0  0  0  0  0  0  0  0  0  0  0  0
  -21.3120   -3.7980   26.0240 F   0  0  0  0  0  0  0  0  0  0  0  0
  -22.7460  -13.5930   21.0870 C   0  0  0  0  0  0  0  0  0  0  0  0
  -22.0160  -12.9120   21.9640 N   0  0  0  0  0  0  0  0  0  0  0  0
  -22.3120  -14.6120   20.5540 O   0  0  0  0  0  0  0  0  0  0  0  0
  -22.3800  -12.0900   22.4210 H   0  0  0  0  0  0  0  0  0  0  0  0
  -21.0810  -13.2220   22.1840 H   0  0  0  0  0  0  0  0  0  0  0  0
  -25.3820  -15.2370   20.2480 N   0  0  0  0  0  0  0  0  0  0  0  0
  -24.6130  -15.8900   20.3470 H   0  0  0  0  0  0  0  0  0  0  0  0
  -26.2260  -15.6730   19.9000 H   0  0  0  0  0  0  0  0  0  0  0  0
  1  2  2  0
  1  4  1  0
  2  6  1  0
  4  5  2  0
  5  3  1  0
  5  8  1  0
  6  3  2  0
  7  9  1  0
  7  4  1  0
  9 10  1  0
  9  8  1  0
 11 22  2  0
 12 10  1  0
 12 17  1  0
 13 21  1  0
 13 23  1  0
 14 20  1  0
 14 16  1  0
 15 21  1  0
 16 15  1  0
 17 16  2  0
 18 19  1  0
 18 12  2  0
 19 14  2  0
 20 13  1  0
 21 11  1  0
 23 25  2  0
 24 23  1  0
 26 24  1  0
 27 36  2  0
 27 32  1  0
 28 24  1  0
 28 32  1  0
 29 28  1  0
 30 31  1  0
 30 29  1  0
 31 27  1  0
 32 33  2  0
 33 34  1  0
 35 34  2  0
 36 35  1  0
 37 11  1  0
 37 42  1  0
 37 38  1  0
 38 41  1  1
 38 39  1  0
 40 38  1  0
 42 45  1  0
 43 47  1  0
 43 42  1  0
 44 43  2  0
 47 46  1  0
 49 47  1  0
 49 50  1  0
 49 48  1  0
 51  6  1  0
 51 52  1  0
 53 62  1  0
 53 52  1  0
 54 62  1  0
 55 60  1  0
 56 57  1  0
 56 55  1  0
 58 57  1  0
 58 67  1  0
 58 59  1  0
 60 54  1  0
 60 59  1  0
 61 54  2  0
 62 63  1  0
 64 65  2  0
 65 84  1  0
 66 65  1  0
 66 69  1  0
 67 64  1  0
 67 68  1  0
 68 66  2  0
 69 70  1  0
 70 71  2  0
 72 75  1  0
 72 71  1  0
 73 72  2  0
 74 73  1  0
 74 69  2  0
 75 76  1  0
 76 77  1  0
 77 78  2  0
 79 78  1  0
 79 83  1  0
 80 79  2  0
 81 76  2  0
 81 80  1  0
 82 81  1  0
 84 85  1  0
 85 88  1  0
 85 87  1  0
 86 84  2  0
 89 90  1  0
 89 64  1  0
 91 89  1  0
M  ISO  4   9 101  10 101  54 100  62 100
M  END
>  <TORSDO>  (87) 
F 19

>  <SCORE>  (87) 
-14.150

>  <name>  (87) 
86

>  <ligand_id>  (87) 
86

>  <original_smiles>  (87) 
[H]c1c([H])c([H])c2c(c1[H])C([H])([H])C([H])([H])C([H])([H])C2([H])N([H])C(=O)C1([H])N(C(=O)C([H])(N([H])C(=O)C([H])(N([H])C([H])([H])[H])C([H])([H])[H])C(C([H])([H])[H])(C([H])([H])[H])C([H])([H])[H])C([H])([H])c2c([H])c(OC3([H])C([H])([H])c4c([H])c([H])c(C([H])([H])C([H])([H])C([H])([H])N([H])C(=O)N5C([H])([H])C([H])([H])C([H])([H])C([H])(n6nc(-c7c([H])c([H])c(Oc8c([H])c([H])c(F)c([H])c8F)c([H])c7[H])c(C(=O)N([H])[H])c6N([H])[H])C5([H])[H])c([H])c4C3([H])[H])c([H])c([H])c2C1([H])[H]

>  <smiles>  (87) 
[H]c1c([H])c([H])c2c(c1[H])C([H])([H])C([H])([H])C([H])([H])C2([H])N([H])C(=O)C1([H])N(C(=O)C([H])(N([H])C(=O)C([H])(N([H])C([H])([H])[H])C([H])([H])[H])C(C([H])([H])[H])(C([H])([H])[H])C([H])([H])[H])C([H])([H])c2c([H])c(OC3([H])C([H])([H])c4c([H])c([H])c(C([H])([H])C([H])([H])C([H])([H])N([H])C(=O)N5C([H])([H])C([H])([H])C([H])([H])C([H])(n6nc(-c7c([H])c([H])c(Oc8c([H])c([H])c(F)c([H])c8F)c([H])c7[H])c(C(=O)N([H])[H])c6N([H])[H])C5([H])[H])c([H])c4C3([H])[H])c([H])c([H])c2C1([H])[H]

$$$$
87:0:0
     RDKit          3D

 88 96  0  0  1  0  0  0  0  0999 V2000
  -31.1220  -20.9100   21.3250 C   0  0  0  0  0  0  0  0  0  0  0  0
  -28.6130  -20.3180   20.0690 C   0  0  0  0  0  0  0  0  0  0  0  0
  -30.4630  -22.0120   20.4120 C   0  0  0  0  0  2  0  0  0  0  0  0
  -30.8300  -19.3590   21.2230 C   0  0  0  0  0  2  0  0  0  0  0  0
  -28.9060  -22.0800   20.4300 C   0  0  0  0  0  3  0  0  0  0  0  0
  -29.7610  -18.8210   20.2190 C   0  0  0  0  0  3  0  0  0  0  0  0
  -31.9240  -21.2840   22.1830 O   0  0  0  0  0  0  0  0  0  0  0  0
  -27.4750  -20.0760   19.6660 O   0  0  0  0  0  0  0  0  0  0  0  0
  -30.3140  -15.6770   20.1820 C   0  0  0  0  0  0  0  0  0  0  0  0
  -30.3950  -13.1390   19.3480 C   0  0  0  0  0  2  0  0  0  0  0  0
  -29.5010  -12.7540   18.1340 C   0  0  0  0  0  2  0  0  0  0  0  0
  -28.0770  -12.4020   18.5900 C   0  0  0  0  0  2  0  0  0  0  0  0
  -27.5730  -13.3920   19.6640 C   0  0  0  0  0  3  0  0  0  0  0  0
  -28.6070  -13.6930   20.7760 C   0  0  0  0  0  2  0  0  0  0  0  0
  -29.7820  -14.3150   20.1200 N   0  0  0  0  0  0  0  0  0  0  0  0
  -31.5400  -15.6120   19.9690 O   0  0  0  0  0  0  0  0  0  0  0  0
  -29.5770  -17.0460   20.3160 N   0  0  0  0  0  0  0  0  0  0  0  0
  -28.5990  -16.8430   20.4670 H   0  0  0  0  0  0  0  0  0  0  0  0
  -25.2040  -13.9050   20.4200 C   0  0  0  0  0  0  0  0  0  0  0  0
  -24.1530  -13.1180   20.7910 C   0  0  0  0  0  0  0  0  0  0  0  0
  -24.6390  -11.7740   20.7750 C   0  0  0  0  0  0  0  0  0  0  0  0
  -26.2590  -13.0450   20.1850 N   0  0  0  0  0  0  0  0  0  0  0  0
  -25.9330  -11.7550   20.4660 N   0  0  0  0  0  0  0  0  0  0  0  0
  -23.9250  -10.5040   20.9740 C   0  0  0  0  0  0  0  0  0  0  0  0
  -24.3590   -9.5500   21.9220 C   0  0  0  0  0  3  0  0  0  0  0  0
  -23.6400   -8.3510   22.1120 C   0  0  0  0  0  3  0  0  0  0  0  0
  -22.4720   -8.0950   21.3540 C   0  0  0  0  0  0  0  0  0  0  0  0
  -22.0570   -9.0360   20.3960 C   0  0  0  0  0  3  0  0  0  0  0  0
  -22.7780  -10.2270   20.2050 C   0  0  0  0  0  3  0  0  0  0  0  0
  -21.7260   -6.9450   21.4510 O   0  0  0  0  0  0  0  0  0  0  0  0
  -21.6780   -6.2140   22.6120 C   0  0  0  0  0  0  0  0  0  0  0  0
  -21.2340   -6.7770   23.8280 C   0  0  0  0  0  3  0  0  0  0  0  0
  -21.1340   -5.9720   24.9810 C   0  0  0  0  0  3  0  0  0  0  0  0
  -21.4680   -4.6060   24.9190 C   0  0  0  0  0  0  0  0  0  0  0  0
  -21.9030   -4.0430   23.7070 C   0  0  0  0  0  3  0  0  0  0  0  0
  -22.0050   -4.8450   22.5560 C   0  0  0  0  0  0  0  0  0  0  0  0
  -22.4060   -4.2920   21.3850 F   0  0  0  0  0  0  0  0  0  0  0  0
  -21.3630   -3.8310   26.0230 F   0  0  0  0  0  0  0  0  0  0  0  0
  -22.7490  -13.5800   21.0450 C   0  0  0  0  0  0  0  0  0  0  0  0
  -22.0250  -12.8920   21.9200 N   0  0  0  0  0  0  0  0  0  0  0  0
  -22.3030  -14.5920   20.5020 O   0  0  0  0  0  0  0  0  0  0  0  0
  -22.3990  -12.0760   22.3800 H   0  0  0  0  0  0  0  0  0  0  0  0
  -21.0820  -13.1860   22.1330 H   0  0  0  0  0  0  0  0  0  0  0  0
  -25.3450  -15.2770   20.2270 N   0  0  0  0  0  0  0  0  0  0  0  0
  -24.5630  -15.9150   20.3260 H   0  0  0  0  0  0  0  0  0  0  0  0
  -26.1750  -15.7220   19.8580 H   0  0  0  0  0  0  0  0  0  0  0  0
  -28.1250  -23.8160   19.9880 C   0  0  0  0  0  2  0  0  0  0  0  0
  -28.2170  -25.5490   20.3170 O   0  0  0  0  0  0  0  0  0  0  0  0
  -24.7050  -31.8370   23.2100 C   0  0  0  0  0  0  0  0  0  0  0  0
  -27.2410  -26.7580   20.2270 C   0  0  0  0  0  0  0  0  0  0  0  0
  -23.5180  -30.4330   21.5780 C   0  0  0  0  0  3  0  0  0  0  0  0
  -24.9660  -28.7840   20.1650 C   0  0  0  0  0  0  0  0  0  0  0  0
  -26.0950  -30.5790   21.4550 C   0  0  0  0  0  2  0  0  0  0  0  0
  -26.1600  -29.1450   20.8010 C   0  0  0  0  0  0  0  0  0  0  0  0
  -27.2800  -28.1590   20.8020 C   0  0  0  0  0  3  0  0  0  0  0  0
  -26.0150  -26.6070   19.5310 C   0  0  0  0  0  3  0  0  0  0  0  0
  -24.9330  -27.5430   19.5060 C   0  0  0  0  0  3  0  0  0  0  0  0
  -23.7570  -29.7340   20.2090 C   0  0  0  0  0  2  0  0  0  0  0  0
  -24.7960  -30.9830   22.1340 N   0  0  0  0  0  0  0  0  0  0  0  0
  -23.6120  -32.1380   23.7210 O   0  0  0  0  0  0  0  0  0  0  0  0
  -22.8030  -29.4590   22.5520 C   0  0  0  0  0  0  0  0  0  0  0  0
  -21.4700  -29.3070   22.4310 N   0  0  0  0  0  0  0  0  0  0  0  0
  -23.4600  -28.8350   23.3900 O   0  0  0  0  0  0  0  0  0  0  0  0
  -20.9890  -29.8610   21.7360 H   0  0  0  0  0  0  0  0  0  0  0  0
  -18.0840  -28.0930   22.9500 C   0  0  0  0  0  0  0  0  0  0  0  0
  -20.6440  -28.3730   23.2070 C   0  0  0  0  0  3  0  0  0  0  0  0
  -20.7480  -26.9360   22.6410 C   0  0  0  0  0  2  0  0  0  0  0  0
  -19.6480  -26.6060   21.6280 C   0  0  0  0  0  2  0  0  0  0  0  0
  -18.2660  -26.7460   22.2720 C   0  0  0  0  0  2  0  0  0  0  0  0
  -19.1990  -28.8640   23.3740 C   0  0  0  0  0  0  0  0  0  0  0  0
  -18.9720  -30.1230   23.9730 C   0  0  0  0  0  3  0  0  0  0  0  0
  -17.6630  -30.6110   24.1480 C   0  0  0  0  0  3  0  0  0  0  0  0
  -16.5630  -29.8400   23.7360 C   0  0  0  0  0  3  0  0  0  0  0  0
  -16.7750  -28.5820   23.1430 C   0  0  0  0  0  3  0  0  0  0  0  0
  -25.9680  -32.4900   23.8500 C   0  0  0  0  0  3  0  0  0  0  0  0
  -25.6420  -33.8890   24.1900 N   0  0  0  0  0  0  0  0  0  0  0  0
  -25.9450  -34.9580   23.4410 C   0  0  0  0  0  0  0  0  0  0  0  0
  -26.5870  -34.8710   22.3920 O   0  0  0  0  0  0  0  0  0  0  0  0
  -25.0650  -34.0280   25.0070 H   0  0  0  0  0  0  0  0  0  0  0  0
  -24.1790  -36.7390   23.1920 C   0  0  0  0  0  1  0  0  0  0  0  0
  -25.4660  -36.3420   23.9310 C   0  0  0  0  0  3  0  0  0  0  0  0
  -27.6280  -37.2610   24.6510 C   0  0  0  0  0  1  0  0  0  0  0  0
  -26.4770  -37.4100   23.7650 N   0  0  0  0  0  0  0  0  0  0  0  0
  -26.0660  -38.3240   23.9330 H   0  0  0  0  0  0  0  0  0  0  0  0
  -26.4700  -31.7310   25.1410 C   0  0  1  0  0  0  0  0  0  0  0  0
  -25.3670  -31.5080   26.2030 C   0  0  0  0  0  1  0  0  0  0  0  0
  -27.0520  -30.3460   24.7800 C   0  0  0  0  0  1  0  0  0  0  0  0
  -27.6190  -32.5280   25.8030 C   0  0  0  0  0  1  0  0  0  0  0  0
  1  7  2  0
  2  6  1  0
  2  5  1  0
  3  5  1  0
  3  1  1  0
  4  1  1  0
  5 47  1  0
  6 17  1  0
  6  4  1  0
  8  2  2  0
  9 17  1  0
 10 15  1  0
 11 12  1  0
 11 10  1  0
 13 12  1  0
 13 22  1  0
 13 14  1  0
 15  9  1  0
 15 14  1  0
 16  9  2  0
 17 18  1  0
 19 20  2  0
 20 39  1  0
 21 20  1  0
 21 24  1  0
 22 19  1  0
 22 23  1  0
 23 21  2  0
 24 25  1  0
 25 26  2  0
 27 30  1  0
 27 26  1  0
 28 27  2  0
 29 28  1  0
 29 24  2  0
 30 31  1  0
 31 32  1  0
 32 33  2  0
 34 33  1  0
 34 38  1  0
 35 34  2  0
 36 31  2  0
 36 35  1  0
 37 36  1  0
 39 40  1  0
 40 43  1  0
 40 42  1  0
 41 39  2  0
 44 45  1  0
 44 19  1  0
 46 44  1  0
 47 48  1  0
 49 60  2  0
 50 48  1  0
 50 55  1  0
 51 59  1  0
 51 61  1  0
 52 58  1  0
 52 54  1  0
 53 59  1  0
 54 55  2  0
 54 53  1  0
 56 50  2  0
 57 56  1  0
 57 52  2  0
 58 51  1  0
 59 49  1  0
 61 63  2  0
 62 61  1  0
 64 62  1  0
 65 74  2  0
 65 70  1  0
 66 62  1  0
 66 70  1  0
 67 66  1  0
 68 69  1  0
 68 67  1  0
 69 65  1  0
 70 71  2  0
 71 72  1  0
 73 72  2  0
 74 73  1  0
 75 49  1  0
 75 76  1  0
 75 85  1  0
 76 79  1  0
 77 81  1  0
 77 76  1  0
 78 77  2  0
 81 80  1  0
 83 81  1  0
 83 84  1  0
 83 82  1  0
 85 88  1  1
 85 86  1  0
 87 85  1  0
M  ISO  4   9 100  17 100  47 101  48 101
M  END
>  <TORSDO>  (88) 
F 17

>  <SCORE>  (88) 
-16.632

>  <name>  (88) 
87

>  <ligand_id>  (88) 
87

>  <original_smiles>  (88) 
[H]c1c([H])c([H])c2c(c1[H])C([H])([H])C([H])([H])C([H])([H])C2([H])N([H])C(=O)C1([H])N(C(=O)C([H])(N([H])C(=O)C([H])(N([H])C([H])([H])[H])C([H])([H])[H])C(C([H])([H])[H])(C([H])([H])[H])C([H])([H])[H])C([H])([H])c2c([H])c(OC([H])([H])C3([H])C(=O)C([H])(N([H])C(=O)N4C([H])([H])C([H])([H])C([H])([H])C([H])(n5nc(-c6c([H])c([H])c(Oc7c([H])c([H])c(F)c([H])c7F)c([H])c6[H])c(C(=O)N([H])[H])c5N([H])[H])C4([H])[H])C([H])([H])C(=O)C3([H])[H])c([H])c([H])c2C1([H])[H]

>  <smiles>  (88) 
[H]c1c([H])c([H])c2c(c1[H])C([H])([H])C([H])([H])C([H])([H])C2([H])N([H])C(=O)C1([H])N(C(=O)C([H])(N([H])C(=O)C([H])(N([H])C([H])([H])[H])C([H])([H])[H])C(C([H])([H])[H])(C([H])([H])[H])C([H])([H])[H])C([H])([H])c2c([H])c(OC([H])([H])C3([H])C(=O)C([H])(N([H])C(=O)N4C([H])([H])C([H])([H])C([H])([H])C([H])(n5nc(-c6c([H])c([H])c(Oc7c([H])c([H])c(F)c([H])c7F)c([H])c6[H])c(C(=O)N([H])[H])c5N([H])[H])C4([H])[H])C([H])([H])C(=O)C3([H])[H])c([H])c([H])c2C1([H])[H]

$$$$
88:0:0
     RDKit          3D

 92100  0  0  1  0  0  0  0  0999 V2000
  -30.1910  -21.9950   19.1140 C   0  0  0  0  0  3  0  0  0  0  0  0
  -29.0810  -23.0940   20.9790 C   0  0  0  0  0  3  0  0  0  0  0  0
  -29.5780  -24.3610   18.9630 C   0  0  0  0  0  3  0  0  0  0  0  0
  -29.6470  -21.9230   20.4180 C   0  0  0  0  0  0  0  0  0  0  0  0
  -30.1530  -23.2060   18.3870 C   0  0  0  0  0  0  0  0  0  0  0  0
  -29.0440  -24.3160   20.2670 C   0  0  0  0  0  0  0  0  0  0  0  0
  -30.7400  -23.2770   16.9920 C   0  0  0  0  0  1  0  0  0  0  0  0
  -29.7100  -20.6520   21.2330 C   0  0  0  0  0  0  0  0  0  0  0  0
  -29.6870  -19.4840   20.5660 N   0  0  0  0  0  0  0  0  0  0  0  0
  -29.7130  -20.7080   22.4650 O   0  0  0  0  0  0  0  0  0  0  0  0
  -29.6450  -19.5370   19.5590 H   0  0  0  0  0  0  0  0  0  0  0  0
  -29.5400  -18.1620   21.1880 C   0  0  0  0  0  2  0  0  0  0  0  0
  -30.3930  -17.0660   20.5100 C   0  0  0  0  0  2  0  0  0  0  0  0
  -30.1390  -15.6650   21.1240 C   0  0  0  0  0  2  0  0  0  0  0  0
  -30.7980  -14.5030   20.3440 C   0  0  0  0  0  0  0  0  0  0  0  0
  -30.4760  -12.3990   19.0920 C   0  0  0  0  0  2  0  0  0  0  0  0
  -29.5030  -12.6530   17.9220 C   0  0  0  0  0  2  0  0  0  0  0  0
  -28.0340  -12.5230   18.3770 C   0  0  0  0  0  2  0  0  0  0  0  0
  -27.7410  -13.3110   19.6820 C   0  0  0  0  0  3  0  0  0  0  0  0
  -28.8160  -13.0030   20.7470 C   0  0  0  0  0  2  0  0  0  0  0  0
  -30.1290  -13.3320   20.1720 N   0  0  0  0  0  0  0  0  0  0  0  0
  -31.8960  -14.7130   19.8150 O   0  0  0  0  0  0  0  0  0  0  0  0
  -25.3530  -13.9350   20.4210 C   0  0  0  0  0  0  0  0  0  0  0  0
  -24.2850  -13.1680   20.8030 C   0  0  0  0  0  0  0  0  0  0  0  0
  -24.7390  -11.8140   20.7650 C   0  0  0  0  0  0  0  0  0  0  0  0
  -26.3910  -13.0470   20.1780 N   0  0  0  0  0  0  0  0  0  0  0  0
  -26.0230  -11.7670   20.4400 N   0  0  0  0  0  0  0  0  0  0  0  0
  -24.0110  -10.5540   20.9640 C   0  0  0  0  0  0  0  0  0  0  0  0
  -24.4500   -9.5890   21.8960 C   0  0  0  0  0  3  0  0  0  0  0  0
  -23.7230   -8.3930   22.0850 C   0  0  0  0  0  3  0  0  0  0  0  0
  -22.5440   -8.1550   21.3400 C   0  0  0  0  0  0  0  0  0  0  0  0
  -22.1230   -9.1090   20.3970 C   0  0  0  0  0  3  0  0  0  0  0  0
  -22.8500  -10.2970   20.2070 C   0  0  0  0  0  3  0  0  0  0  0  0
  -21.7880   -7.0120   21.4370 O   0  0  0  0  0  0  0  0  0  0  0  0
  -21.7390   -6.2760   22.5930 C   0  0  0  0  0  0  0  0  0  0  0  0
  -21.3010   -6.8360   23.8130 C   0  0  0  0  0  3  0  0  0  0  0  0
  -21.2030   -6.0260   24.9630 C   0  0  0  0  0  3  0  0  0  0  0  0
  -21.5310   -4.6590   24.8920 C   0  0  0  0  0  0  0  0  0  0  0  0
  -21.9620   -4.1000   23.6760 C   0  0  0  0  0  3  0  0  0  0  0  0
  -22.0630   -4.9060   22.5290 C   0  0  0  0  0  0  0  0  0  0  0  0
  -22.4580   -4.3580   21.3560 F   0  0  0  0  0  0  0  0  0  0  0  0
  -21.4270   -3.8790   25.9940 F   0  0  0  0  0  0  0  0  0  0  0  0
  -22.8930  -13.6500   21.0940 C   0  0  0  0  0  0  0  0  0  0  0  0
  -22.1750  -12.9570   21.9700 N   0  0  0  0  0  0  0  0  0  0  0  0
  -22.4520  -14.6780   20.5810 O   0  0  0  0  0  0  0  0  0  0  0  0
  -22.5480  -12.1270   22.4080 H   0  0  0  0  0  0  0  0  0  0  0  0
  -21.2410  -13.2590   22.2050 H   0  0  0  0  0  0  0  0  0  0  0  0
  -25.5240  -15.3040   20.2400 N   0  0  0  0  0  0  0  0  0  0  0  0
  -24.7670  -15.9670   20.3600 H   0  0  0  0  0  0  0  0  0  0  0  0
  -26.3760  -15.7340   19.9020 H   0  0  0  0  0  0  0  0  0  0  0  0
  -28.4310  -25.5490   20.9290 C   0  0  0  0  0  2  0  0  0  0  0  0
  -28.5000  -26.7560   20.1550 O   0  0  0  0  0  0  0  0  0  0  0  0
  -24.6150  -31.8850   23.2260 C   0  0  0  0  0  0  0  0  0  0  0  0
  -27.3360  -27.4890   20.1590 C   0  0  0  0  0  0  0  0  0  0  0  0
  -23.4430  -30.4830   21.5600 C   0  0  0  0  0  3  0  0  0  0  0  0
  -24.9280  -28.9640   20.1470 C   0  0  0  0  0  0  0  0  0  0  0  0
  -25.9670  -30.8660   21.3960 C   0  0  0  0  0  2  0  0  0  0  0  0
  -26.0740  -29.5000   20.7500 C   0  0  0  0  0  0  0  0  0  0  0  0
  -27.2850  -28.7710   20.7480 C   0  0  0  0  0  3  0  0  0  0  0  0
  -26.1760  -26.9620   19.5540 C   0  0  0  0  0  3  0  0  0  0  0  0
  -24.9730  -27.6930   19.5460 C   0  0  0  0  0  3  0  0  0  0  0  0
  -23.6750  -29.8100   20.1810 C   0  0  0  0  0  2  0  0  0  0  0  0
  -24.6930  -31.0930   22.1200 N   0  0  0  0  0  0  0  0  0  0  0  0
  -23.5250  -32.1470   23.7520 O   0  0  0  0  0  0  0  0  0  0  0  0
  -22.7860  -29.4520   22.5060 C   0  0  0  0  0  0  0  0  0  0  0  0
  -21.4620  -29.2750   22.3700 N   0  0  0  0  0  0  0  0  0  0  0  0
  -23.4650  -28.8170   23.3170 O   0  0  0  0  0  0  0  0  0  0  0  0
  -20.9790  -29.8370   21.6850 H   0  0  0  0  0  0  0  0  0  0  0  0
  -18.0790  -28.1000   22.8490 C   0  0  0  0  0  0  0  0  0  0  0  0
  -20.6380  -28.3300   23.1240 C   0  0  0  0  0  3  0  0  0  0  0  0
  -20.7290  -26.9090   22.5210 C   0  0  0  0  0  2  0  0  0  0  0  0
  -19.6230  -26.6150   21.5030 C   0  0  0  0  0  2  0  0  0  0  0  0
  -18.2430  -26.7600   22.1510 C   0  0  0  0  0  2  0  0  0  0  0  0
  -19.2040  -28.8440   23.2930 C   0  0  0  0  0  0  0  0  0  0  0  0
  -18.9970  -30.1000   23.9040 C   0  0  0  0  0  3  0  0  0  0  0  0
  -17.6970  -30.6100   24.0780 C   0  0  0  0  0  3  0  0  0  0  0  0
  -16.5860  -29.8620   23.6540 C   0  0  0  0  0  3  0  0  0  0  0  0
  -16.7780  -28.6080   23.0440 C   0  0  0  0  0  3  0  0  0  0  0  0
  -25.8880  -32.5200   23.8670 C   0  0  0  0  0  3  0  0  0  0  0  0
  -25.5680  -33.9140   24.1980 N   0  0  0  0  0  0  0  0  0  0  0  0
  -25.9060  -34.9720   23.4480 C   0  0  0  0  0  0  0  0  0  0  0  0
  -26.5910  -34.8750   22.4260 O   0  0  0  0  0  0  0  0  0  0  0  0
  -24.9600  -34.0640   24.9910 H   0  0  0  0  0  0  0  0  0  0  0  0
  -24.1740  -36.7550   23.0680 C   0  0  0  0  0  1  0  0  0  0  0  0
  -25.4030  -36.3550   23.9010 C   0  0  0  0  0  3  0  0  0  0  0  0
  -27.5140  -37.2480   24.7780 C   0  0  0  0  0  1  0  0  0  0  0  0
  -26.4320  -37.4140   23.8120 N   0  0  0  0  0  0  0  0  0  0  0  0
  -26.0180  -38.3320   23.9530 H   0  0  0  0  0  0  0  0  0  0  0  0
  -26.3940  -31.7450   25.1450 C   0  0  1  0  0  0  0  0  0  0  0  0
  -25.2890  -31.4920   26.1970 C   0  0  0  0  0  1  0  0  0  0  0  0
  -26.9920  -30.3750   24.7480 C   0  0  0  0  0  1  0  0  0  0  0  0
  -27.5310  -32.5430   25.8260 C   0  0  0  0  0  1  0  0  0  0  0  0
  1  4  1  0
  3  6  2  0
  4  2  2  0
  4  8  1  0
  5  3  1  0
  5  1  2  0
  6 51  1  0
  6  2  1  0
  7  5  1  0
  8 10  2  0
  9 12  1  0
  9  8  1  0
 11  9  1  0
 13 14  1  0
 13 12  1  0
 15 14  1  0
 16 21  1  0
 17 18  1  0
 17 16  1  0
 19 18  1  0
 19 26  1  0
 19 20  1  0
 21 15  1  0
 21 20  1  0
 22 15  2  0
 23 24  2  0
 24 43  1  0
 25 24  1  0
 25 28  1  0
 26 23  1  0
 26 27  1  0
 27 25  2  0
 28 29  1  0
 29 30  2  0
 31 34  1  0
 31 30  1  0
 32 31  2  0
 33 32  1  0
 33 28  2  0
 34 35  1  0
 35 36  1  0
 36 37  2  0
 38 37  1  0
 38 42  1  0
 39 38  2  0
 40 35  2  0
 40 39  1  0
 41 40  1  0
 43 44  1  0
 44 47  1  0
 44 46  1  0
 45 43  2  0
 48 49  1  0
 48 23  1  0
 50 48  1  0
 52 54  1  0
 52 51  1  0
 53 64  2  0
 54 59  1  0
 55 63  1  0
 55 65  1  0
 56 62  1  0
 56 58  1  0
 57 63  1  0
 58 57  1  0
 59 58  2  0
 60 54  2  0
 61 60  1  0
 61 56  2  0
 62 55  1  0
 63 53  1  0
 65 67  2  0
 66 65  1  0
 68 66  1  0
 69 78  2  0
 69 74  1  0
 70 66  1  0
 70 74  1  0
 71 70  1  0
 72 73  1  0
 72 71  1  0
 73 69  1  0
 74 75  2  0
 75 76  1  0
 77 76  2  0
 78 77  1  0
 79 53  1  0
 79 80  1  0
 79 89  1  0
 80 83  1  0
 81 85  1  0
 81 80  1  0
 82 81  2  0
 85 84  1  0
 87 85  1  0
 87 88  1  0
 87 86  1  0
 89 92  1  1
 89 90  1  0
 91 89  1  0
M  ISO  4  14 100  15 100  51 101  52 101
M  END
>  <TORSDO>  (89) 
F 21

>  <SCORE>  (89) 
-13.240

>  <name>  (89) 
88

>  <ligand_id>  (89) 
88

>  <original_smiles>  (89) 
[H]c1c([H])c([H])c2c(c1[H])C([H])([H])C([H])([H])C([H])([H])C2([H])N([H])C(=O)C1([H])N(C(=O)C([H])(N([H])C(=O)C([H])(N([H])C([H])([H])[H])C([H])([H])[H])C(C([H])([H])[H])(C([H])([H])[H])C([H])([H])[H])C([H])([H])c2c([H])c(OC([H])([H])c3c([H])c(C(=O)N([H])C([H])([H])C([H])([H])C([H])([H])C(=O)N4C([H])([H])C([H])([H])C([H])([H])C([H])(n5nc(-c6c([H])c([H])c(Oc7c([H])c([H])c(F)c([H])c7F)c([H])c6[H])c(C(=O)N([H])[H])c5N([H])[H])C4([H])[H])c([H])c(C([H])([H])[H])c3[H])c([H])c([H])c2C1([H])[H]

>  <smiles>  (89) 
[H]c1c([H])c([H])c2c(c1[H])C([H])([H])C([H])([H])C([H])([H])C2([H])N([H])C(=O)C1([H])N(C(=O)C([H])(N([H])C(=O)C([H])(N([H])C([H])([H])[H])C([H])([H])[H])C(C([H])([H])[H])(C([H])([H])[H])C([H])([H])[H])C([H])([H])c2c([H])c(OC([H])([H])c3c([H])c(C(=O)N([H])C([H])([H])C([H])([H])C([H])([H])C(=O)N4C([H])([H])C([H])([H])C([H])([H])C([H])(n5nc(-c6c([H])c([H])c(Oc7c([H])c([H])c(F)c([H])c7F)c([H])c6[H])c(C(=O)N([H])[H])c5N([H])[H])C4([H])[H])c([H])c(C([H])([H])[H])c3[H])c([H])c([H])c2C1([H])[H]

$$$$
89:0:0
     RDKit          3D

 93102  0  0  1  0  0  0  0  0999 V2000
  -31.6520  -18.2530   21.8400 C   0  0  0  0  0  2  0  0  0  0  0  0
  -32.0490  -21.3450   19.5080 C   0  0  0  0  0  2  0  0  0  0  0  0
  -30.9920  -16.8640   21.7640 C   0  0  0  0  0  2  0  0  0  0  0  0
  -30.6840  -19.4170   21.5460 C   0  0  0  0  0  2  0  0  0  0  0  0
  -31.5090  -19.9410   19.1920 C   0  0  0  0  0  2  0  0  0  0  0  0
  -29.9430  -17.9330   19.5960 C   0  0  0  0  0  2  0  0  0  0  0  0
  -29.2490  -20.8380   19.8270 C   0  0  0  0  0  2  0  0  0  0  0  0
  -31.0430  -22.4810   19.2040 C   0  0  0  0  0  3  0  0  0  0  0  0
  -30.0210  -16.5610   20.5630 C   0  0  2  0  0  0  0  0  0  0  0  0
  -30.2900  -19.5240   20.0530 C   0  0  1  0  0  0  0  0  0  0  0  0
  -31.7180  -23.8480   19.4300 C   0  0  0  0  0  1  0  0  0  0  0  0
  -28.6150  -16.4610   21.2010 C   0  0  0  0  0  1  0  0  0  0  0  0
  -29.7500  -22.3450   19.9450 N   0  0  1  0  0  4  0  0  0  0  0  0
  -29.9650  -22.4440   20.9280 H   0  0  0  0  0  0  0  0  0  0  0  0
  -30.5490  -15.0970   19.9350 C   0  0  0  0  0  0  0  0  0  0  0  0
  -30.3720  -12.7700   18.9410 C   0  0  0  0  0  2  0  0  0  0  0  0
  -29.3660  -12.7810   17.7690 C   0  0  0  0  0  2  0  0  0  0  0  0
  -27.9210  -12.5770   18.2680 C   0  0  0  0  0  2  0  0  0  0  0  0
  -27.5990  -13.4190   19.5310 C   0  0  0  0  0  3  0  0  0  0  0  0
  -28.7330  -13.3310   20.5720 C   0  0  0  0  0  2  0  0  0  0  0  0
  -29.9590  -13.8240   19.9220 N   0  0  0  0  0  0  0  0  0  0  0  0
  -31.6520  -15.1550   19.3760 O   0  0  0  0  0  0  0  0  0  0  0  0
  -25.2520  -13.9310   20.4230 C   0  0  0  0  0  0  0  0  0  0  0  0
  -24.2230  -13.1270   20.8390 C   0  0  0  0  0  0  0  0  0  0  0  0
  -24.7070  -11.7890   20.7390 C   0  0  0  0  0  0  0  0  0  0  0  0
  -26.2940  -13.0810   20.0980 N   0  0  0  0  0  0  0  0  0  0  0  0
  -25.9760  -11.7830   20.3420 N   0  0  0  0  0  0  0  0  0  0  0  0
  -24.0090  -10.5100   20.9430 C   0  0  0  0  0  0  0  0  0  0  0  0
  -24.4740   -9.5520   21.8700 C   0  0  0  0  0  3  0  0  0  0  0  0
  -23.7720   -8.3400   22.0590 C   0  0  0  0  0  3  0  0  0  0  0  0
  -22.5930   -8.0790   21.3210 C   0  0  0  0  0  0  0  0  0  0  0  0
  -22.1490   -9.0260   20.3830 C   0  0  0  0  0  3  0  0  0  0  0  0
  -22.8510  -10.2290   20.1900 C   0  0  0  0  0  3  0  0  0  0  0  0
  -21.8590   -6.9220   21.4220 O   0  0  0  0  0  0  0  0  0  0  0  0
  -21.7850   -6.2150   22.5960 C   0  0  0  0  0  0  0  0  0  0  0  0
  -21.2720   -6.7870   23.7800 C   0  0  0  0  0  3  0  0  0  0  0  0
  -21.1480   -6.0050   24.9460 C   0  0  0  0  0  3  0  0  0  0  0  0
  -21.5310   -4.6500   24.9270 C   0  0  0  0  0  0  0  0  0  0  0  0
  -22.0390   -4.0770   23.7500 C   0  0  0  0  0  3  0  0  0  0  0  0
  -22.1640   -4.8570   22.5870 C   0  0  0  0  0  0  0  0  0  0  0  0
  -22.6340   -4.2930   21.4480 F   0  0  0  0  0  0  0  0  0  0  0  0
  -21.4060   -3.8980   26.0450 F   0  0  0  0  0  0  0  0  0  0  0  0
  -22.8410  -13.5760   21.2160 C   0  0  0  0  0  0  0  0  0  0  0  0
  -22.1820  -12.8460   22.1110 N   0  0  0  0  0  0  0  0  0  0  0  0
  -22.3550  -14.6050   20.7560 O   0  0  0  0  0  0  0  0  0  0  0  0
  -22.5880  -12.0120   22.5050 H   0  0  0  0  0  0  0  0  0  0  0  0
  -21.2560  -13.1240   22.4050 H   0  0  0  0  0  0  0  0  0  0  0  0
  -25.3740  -15.3060   20.2760 N   0  0  0  0  0  0  0  0  0  0  0  0
  -24.6120  -15.9460   20.4790 H   0  0  0  0  0  0  0  0  0  0  0  0
  -26.1890  -15.7700   19.9020 H   0  0  0  0  0  0  0  0  0  0  0  0
  -28.8120  -23.5870   19.5720 C   0  0  0  0  0  2  0  0  0  0  0  0
  -28.6440  -24.9940   20.4970 C   0  0  0  0  0  2  0  0  0  0  0  0
  -28.6650  -26.5130   20.1330 O   0  0  0  0  0  0  0  0  0  0  0  0
  -24.6820  -31.9580   23.2350 C   0  0  0  0  0  0  0  0  0  0  0  0
  -27.5320  -27.3990   20.1830 C   0  0  0  0  0  0  0  0  0  0  0  0
  -23.5840  -30.5430   21.5430 C   0  0  0  0  0  3  0  0  0  0  0  0
  -25.1300  -29.0420   20.1410 C   0  0  0  0  0  0  0  0  0  0  0  0
  -26.1310  -30.9080   21.4560 C   0  0  0  0  0  2  0  0  0  0  0  0
  -26.2780  -29.5290   20.7830 C   0  0  0  0  0  0  0  0  0  0  0  0
  -27.4820  -28.7280   20.7760 C   0  0  0  0  0  3  0  0  0  0  0  0
  -26.3500  -26.9990   19.5260 C   0  0  0  0  0  3  0  0  0  0  0  0
  -25.1750  -27.7890   19.5060 C   0  0  0  0  0  3  0  0  0  0  0  0
  -23.8690  -29.8960   20.1650 C   0  0  0  0  0  2  0  0  0  0  0  0
  -24.8170  -31.1570   22.1330 N   0  0  0  0  0  0  0  0  0  0  0  0
  -23.5700  -32.1970   23.7360 O   0  0  0  0  0  0  0  0  0  0  0  0
  -22.9180  -29.4970   22.4690 C   0  0  0  0  0  0  0  0  0  0  0  0
  -21.5950  -29.2940   22.3150 N   0  0  0  0  0  0  0  0  0  0  0  0
  -23.5920  -28.8660   23.2870 O   0  0  0  0  0  0  0  0  0  0  0  0
  -21.1050  -29.8560   21.6320 H   0  0  0  0  0  0  0  0  0  0  0  0
  -18.2290  -28.0310   22.7690 C   0  0  0  0  0  0  0  0  0  0  0  0
  -20.7830  -28.3210   23.0500 C   0  0  0  0  0  3  0  0  0  0  0  0
  -20.9070  -26.9110   22.4260 C   0  0  0  0  0  2  0  0  0  0  0  0
  -19.8130  -26.6090   21.3980 C   0  0  0  0  0  2  0  0  0  0  0  0
  -18.4270  -26.7100   22.0420 C   0  0  0  0  0  2  0  0  0  0  0  0
  -19.3370  -28.7930   23.2270 C   0  0  0  0  0  0  0  0  0  0  0  0
  -19.0950  -30.0290   23.8650 C   0  0  0  0  0  3  0  0  0  0  0  0
  -17.7800  -30.5050   24.0450 C   0  0  0  0  0  3  0  0  0  0  0  0
  -16.6890  -29.7360   23.6050 C   0  0  0  0  0  3  0  0  0  0  0  0
  -16.9150  -28.5000   22.9730 C   0  0  0  0  0  3  0  0  0  0  0  0
  -25.9170  -32.6280   23.9090 C   0  0  0  0  0  3  0  0  0  0  0  0
  -25.5640  -34.0240   24.2070 N   0  0  0  0  0  0  0  0  0  0  0  0
  -25.8930  -35.0750   23.4440 C   0  0  0  0  0  0  0  0  0  0  0  0
  -26.5950  -34.9750   22.4340 O   0  0  0  0  0  0  0  0  0  0  0  0
  -24.9440  -34.1710   24.9900 H   0  0  0  0  0  0  0  0  0  0  0  0
  -24.1300  -36.8190   23.0320 C   0  0  0  0  0  1  0  0  0  0  0  0
  -25.3630  -36.4580   23.8720 C   0  0  0  0  0  3  0  0  0  0  0  0
  -27.4530  -37.4140   24.7430 C   0  0  0  0  0  1  0  0  0  0  0  0
  -26.3740  -37.5330   23.7660 N   0  0  0  0  0  0  0  0  0  0  0  0
  -25.9420  -38.4460   23.8830 H   0  0  0  0  0  0  0  0  0  0  0  0
  -26.3920  -31.8870   25.2220 C   0  0  1  0  0  0  0  0  0  0  0  0
  -25.2480  -31.6200   26.2320 C   0  0  0  0  0  1  0  0  0  0  0  0
  -27.0430  -30.5250   24.8840 C   0  0  0  0  0  1  0  0  0  0  0  0
  -27.4820  -32.7250   25.9340 C   0  0  0  0  0  1  0  0  0  0  0  0
  3  1  1  0
  4  1  1  0
  5  2  1  0
 10  6  1  6
  6  9  1  0
  7 13  1  0
  7 10  1  0
  8 11  1  0
  8  2  1  0
  8 13  1  0
  9 12  1  1
  9  3  1  0
 10  5  1  0
 10  4  1  0
 13 14  1  1
 15  9  1  0
 16 21  1  0
 17 18  1  0
 17 16  1  0
 19 18  1  0
 19 26  1  0
 19 20  1  0
 21 15  1  0
 21 20  1  0
 22 15  2  0
 23 24  2  0
 24 43  1  0
 25 24  1  0
 25 28  1  0
 26 27  1  0
 26 23  1  0
 27 25  2  0
 28 29  1  0
 29 30  2  0
 31 34  1  0
 31 30  1  0
 32 31  2  0
 33 32  1  0
 33 28  2  0
 34 35  1  0
 35 36  1  0
 36 37  2  0
 38 37  1  0
 38 42  1  0
 39 38  2  0
 40 35  2  0
 40 39  1  0
 41 40  1  0
 43 44  1  0
 44 47  1  0
 44 46  1  0
 45 43  2  0
 48 23  1  0
 48 49  1  0
 50 48  1  0
 51 13  1  0
 51 52  1  0
 53 55  1  0
 53 52  1  0
 54 65  2  0
 55 60  1  0
 56 64  1  0
 56 66  1  0
 57 63  1  0
 57 59  1  0
 58 64  1  0
 59 58  1  0
 60 59  2  0
 61 55  2  0
 62 61  1  0
 62 57  2  0
 63 56  1  0
 64 54  1  0
 66 68  2  0
 67 66  1  0
 69 67  1  0
 70 79  2  0
 70 75  1  0
 71 67  1  0
 71 75  1  0
 72 71  1  0
 73 74  1  0
 73 72  1  0
 74 70  1  0
 75 76  2  0
 76 77  1  0
 78 77  2  0
 79 78  1  0
 80 54  1  0
 80 81  1  0
 80 90  1  0
 81 84  1  0
 82 86  1  0
 82 81  1  0
 83 82  2  0
 86 85  1  0
 88 86  1  0
 88 89  1  0
 88 87  1  0
 90 93  1  1
 90 91  1  0
 92 90  1  0
M  ISO  4   9 100  15 100  52 101  53 101
M  END
>  <TORSDO>  (90) 
F 18

>  <SCORE>  (90) 
-14.293

>  <name>  (90) 
89

>  <ligand_id>  (90) 
89

>  <original_smiles>  (90) 
[H]c1c([H])c([H])c2c(c1[H])C([H])([H])C([H])([H])C([H])([H])C2([H])N([H])C(=O)C1([H])N(C(=O)C([H])(N([H])C(=O)C([H])(N([H])C([H])([H])[H])C([H])([H])[H])C(C([H])([H])[H])(C([H])([H])[H])C([H])([H])[H])C([H])([H])c2c([H])c(OC([H])([H])C([H])([H])[N+]3([H])C([H])([H])C4(C([H])([H])C([H])([H])C([H])([H])C(C(=O)N5C([H])([H])C([H])([H])C([H])([H])C([H])(n6nc(-c7c([H])c([H])c(Oc8c([H])c([H])c(F)c([H])c8F)c([H])c7[H])c(C(=O)N([H])[H])c6N([H])[H])C5([H])[H])(C([H])([H])[H])C4([H])[H])C([H])([H])C([H])([H])C3([H])C([H])([H])[H])c([H])c([H])c2C1([H])[H]

>  <smiles>  (90) 
[H]c1c([H])c([H])c2c(c1[H])C([H])([H])C([H])([H])C([H])([H])C2([H])N([H])C(=O)C1([H])N(C(=O)C([H])(N([H])C(=O)C([H])(N([H])C([H])([H])[H])C([H])([H])[H])C(C([H])([H])[H])(C([H])([H])[H])C([H])([H])[H])C([H])([H])c2c([H])c(OC([H])([H])C([H])([H])[N+]3([H])C([H])([H])C4(C([H])([H])C([H])([H])C([H])([H])C(C(=O)N5C([H])([H])C([H])([H])C([H])([H])C([H])(n6nc(-c7c([H])c([H])c(Oc8c([H])c([H])c(F)c([H])c8F)c([H])c7[H])c(C(=O)N([H])[H])c6N([H])[H])C5([H])[H])(C([H])([H])[H])C4([H])[H])C([H])([H])C([H])([H])C3([H])C([H])([H])[H])c([H])c([H])c2C1([H])[H]

$$$$
90:0:0
     RDKit          3D

 94103  0  0  1  0  0  0  0  0999 V2000
  -31.7600  -17.1960   22.2560 C   0  0  0  0  0  2  0  0  0  0  0  0
  -30.9160  -21.2520   20.2760 C   0  0  0  0  0  2  0  0  0  0  0  0
  -28.7940  -21.2020   21.6040 C   0  0  0  0  0  2  0  0  0  0  0  0
  -31.1680  -18.4060   22.9860 C   0  0  0  0  0  2  0  0  0  0  0  0
  -31.5250  -20.1790   21.2070 C   0  0  0  0  0  2  0  0  0  0  0  0
  -29.3990  -20.1640   22.5680 C   0  0  0  0  0  2  0  0  0  0  0  0
  -29.9000  -18.1710   20.9890 C   0  0  0  0  0  2  0  0  0  0  0  0
  -30.9270  -17.0140   20.9760 C   0  0  0  0  0  3  0  0  0  0  0  0
  -29.8710  -22.1270   21.0000 C   0  0  0  0  0  3  0  0  0  0  0  0
  -30.4810  -19.2680   21.9170 C   0  0  2  0  0  0  0  0  0  0  0  0
  -30.8970  -14.6400   20.2220 C   0  0  0  0  0  0  0  0  0  0  0  0
  -30.4610  -12.5340   19.0210 C   0  0  0  0  0  2  0  0  0  0  0  0
  -29.4960  -12.7920   17.8480 C   0  0  0  0  0  2  0  0  0  0  0  0
  -28.0340  -12.6860   18.3190 C   0  0  0  0  0  2  0  0  0  0  0  0
  -27.7570  -13.5100   19.6040 C   0  0  0  0  0  3  0  0  0  0  0  0
  -28.8360  -13.2500   20.6790 C   0  0  0  0  0  2  0  0  0  0  0  0
  -30.1540  -13.5110   20.0790 N   0  0  0  0  0  0  0  0  0  0  0  0
  -31.9950  -14.7830   19.6760 O   0  0  0  0  0  0  0  0  0  0  0  0
  -30.3320  -15.6660   20.8900 N   0  0  0  0  0  0  0  0  0  0  0  0
  -29.4230  -15.5130   21.2980 H   0  0  0  0  0  0  0  0  0  0  0  0
  -25.4120  -14.1700   20.4360 C   0  0  0  0  0  0  0  0  0  0  0  0
  -24.3240  -13.4200   20.7940 C   0  0  0  0  0  0  0  0  0  0  0  0
  -24.7250  -12.0550   20.6640 C   0  0  0  0  0  0  0  0  0  0  0  0
  -26.4100  -13.2620   20.1140 N   0  0  0  0  0  0  0  0  0  0  0  0
  -26.0020  -11.9820   20.3080 N   0  0  0  0  0  0  0  0  0  0  0  0
  -23.9510  -10.8140   20.8010 C   0  0  0  0  0  0  0  0  0  0  0  0
  -24.3970   -9.7510   21.6180 C   0  0  0  0  0  3  0  0  0  0  0  0
  -23.6260   -8.5760   21.7480 C   0  0  0  0  0  3  0  0  0  0  0  0
  -22.3940   -8.4550   21.0620 C   0  0  0  0  0  0  0  0  0  0  0  0
  -21.9660   -9.5060   20.2320 C   0  0  0  0  0  3  0  0  0  0  0  0
  -22.7360  -10.6740   20.0990 C   0  0  0  0  0  3  0  0  0  0  0  0
  -21.5910   -7.3410   21.1090 O   0  0  0  0  0  0  0  0  0  0  0  0
  -21.6220   -6.4770   22.1740 C   0  0  0  0  0  0  0  0  0  0  0  0
  -21.3710   -6.9100   23.4930 C   0  0  0  0  0  3  0  0  0  0  0  0
  -21.3440   -5.9760   24.5480 C   0  0  0  0  0  3  0  0  0  0  0  0
  -21.5580   -4.6090   24.2860 C   0  0  0  0  0  0  0  0  0  0  0  0
  -21.8030   -4.1750   22.9700 C   0  0  0  0  0  3  0  0  0  0  0  0
  -21.8320   -5.1070   21.9180 C   0  0  0  0  0  0  0  0  0  0  0  0
  -22.0470   -4.6790   20.6500 F   0  0  0  0  0  0  0  0  0  0  0  0
  -21.5240   -3.7110   25.2970 F   0  0  0  0  0  0  0  0  0  0  0  0
  -22.9580  -13.9360   21.1470 C   0  0  0  0  0  0  0  0  0  0  0  0
  -22.2370  -13.2240   22.0060 N   0  0  0  0  0  0  0  0  0  0  0  0
  -22.5420  -15.0030   20.6970 O   0  0  0  0  0  0  0  0  0  0  0  0
  -22.5860  -12.3600   22.3910 H   0  0  0  0  0  0  0  0  0  0  0  0
  -21.3210  -13.5490   22.2840 H   0  0  0  0  0  0  0  0  0  0  0  0
  -25.6300  -15.5400   20.3370 N   0  0  0  0  0  0  0  0  0  0  0  0
  -24.8990  -16.2200   20.5120 H   0  0  0  0  0  0  0  0  0  0  0  0
  -26.4910  -15.9610   20.0060 H   0  0  0  0  0  0  0  0  0  0  0  0
  -29.2460  -23.1160   20.0850 N   0  0  0  0  0  4  0  0  0  0  0  0
  -28.2610  -23.1050   20.2980 H   0  0  0  0  0  0  0  0  0  0  0  0
  -29.3400  -22.7910   19.1340 H   0  0  0  0  0  0  0  0  0  0  0  0
  -29.6900  -24.5380   20.1890 C   0  0  0  0  0  2  0  0  0  0  0  0
  -28.6790  -25.4610   19.4690 C   0  0  0  0  0  2  0  0  0  0  0  0
  -28.7610  -26.8680   19.7830 O   0  0  0  0  0  0  0  0  0  0  0  0
  -24.5980  -31.6400   23.0500 C   0  0  0  0  0  0  0  0  0  0  0  0
  -27.5590  -27.5610   19.7500 C   0  0  0  0  0  0  0  0  0  0  0  0
  -23.5060  -30.2630   21.3140 C   0  0  0  0  0  3  0  0  0  0  0  0
  -25.0720  -28.9240   19.8150 C   0  0  0  0  0  0  0  0  0  0  0  0
  -26.0050  -30.7970   21.1730 C   0  0  0  0  0  2  0  0  0  0  0  0
  -26.1890  -29.4760   20.4530 C   0  0  0  0  0  0  0  0  0  0  0  0
  -27.4350  -28.8040   20.4180 C   0  0  0  0  0  3  0  0  0  0  0  0
  -26.4200  -27.0480   19.0780 C   0  0  0  0  0  3  0  0  0  0  0  0
  -25.1840  -27.7100   19.1220 C   0  0  0  0  0  3  0  0  0  0  0  0
  -23.7720  -29.6910   19.8970 C   0  0  0  0  0  2  0  0  0  0  0  0
  -24.7200  -30.9120   21.9040 N   0  0  0  0  0  0  0  0  0  0  0  0
  -23.4950  -31.8060   23.5890 O   0  0  0  0  0  0  0  0  0  0  0  0
  -22.9170  -29.1410   22.2000 C   0  0  0  0  0  0  0  0  0  0  0  0
  -21.6000  -28.9090   22.0760 N   0  0  0  0  0  0  0  0  0  0  0  0
  -23.6410  -28.4880   22.9560 O   0  0  0  0  0  0  0  0  0  0  0  0
  -21.0760  -29.4940   21.4400 H   0  0  0  0  0  0  0  0  0  0  0  0
  -18.2830  -27.5550   22.5480 C   0  0  0  0  0  0  0  0  0  0  0  0
  -20.8360  -27.8810   22.7820 C   0  0  0  0  0  3  0  0  0  0  0  0
  -20.9720  -26.5080   22.0840 C   0  0  0  0  0  2  0  0  0  0  0  0
  -19.8540  -26.2310   21.0730 C   0  0  0  0  0  2  0  0  0  0  0  0
  -18.4870  -26.2720   21.7600 C   0  0  0  0  0  2  0  0  0  0  0  0
  -19.3860  -28.3180   23.0150 C   0  0  0  0  0  0  0  0  0  0  0  0
  -19.1420  -29.5200   23.7140 C   0  0  0  0  0  3  0  0  0  0  0  0
  -17.8250  -29.9580   23.9520 C   0  0  0  0  0  3  0  0  0  0  0  0
  -16.7370  -29.1920   23.5020 C   0  0  0  0  0  3  0  0  0  0  0  0
  -16.9660  -27.9920   22.8060 C   0  0  0  0  0  3  0  0  0  0  0  0
  -25.8330  -32.3180   23.7230 C   0  0  0  0  0  3  0  0  0  0  0  0
  -26.3560  -31.5360   24.9900 C   0  0  1  0  0  0  0  0  0  0  0  0
  -25.2510  -31.2200   26.0250 C   0  0  0  0  0  1  0  0  0  0  0  0
  -27.0100  -30.1980   24.5730 C   0  0  0  0  0  1  0  0  0  0  0  0
  -27.4520  -32.3640   25.6990 C   0  0  0  0  0  1  0  0  0  0  0  0
  -25.4420  -33.6880   24.0800 N   0  0  0  0  0  0  0  0  0  0  0  0
  -25.7360  -34.7750   23.3540 C   0  0  0  0  0  0  0  0  0  0  0  0
  -26.4340  -34.7330   22.3380 O   0  0  0  0  0  0  0  0  0  0  0  0
  -24.8200  -33.7890   24.8690 H   0  0  0  0  0  0  0  0  0  0  0  0
  -23.9200  -36.4790   23.0020 C   0  0  0  0  0  1  0  0  0  0  0  0
  -25.1620  -36.1230   23.8320 C   0  0  0  0  0  3  0  0  0  0  0  0
  -27.2280  -37.1020   24.7310 C   0  0  0  0  0  1  0  0  0  0  0  0
  -26.1390  -37.2330   23.7670 N   0  0  0  0  0  0  0  0  0  0  0  0
  -25.6790  -38.1260   23.9260 H   0  0  0  0  0  0  0  0  0  0  0  0
  1  4  1  0
  2  9  1  0
  2  5  1  0
  3  6  1  0
 10  5  1  6
  8 19  1  0
  8  7  1  0
  8  1  1  0
  9 49  1  0
  9  3  1  0
 10  7  1  0
 10  6  1  0
 10  4  1  0
 11 19  1  0
 12 17  1  0
 13 14  1  0
 13 12  1  0
 15 14  1  0
 15 24  1  0
 15 16  1  0
 17 11  1  0
 17 16  1  0
 18 11  2  0
 19 20  1  0
 21 22  2  0
 22 41  1  0
 23 22  1  0
 23 26  1  0
 24 25  1  0
 24 21  1  0
 25 23  2  0
 26 27  1  0
 27 28  2  0
 29 32  1  0
 29 28  1  0
 30 29  2  0
 31 30  1  0
 31 26  2  0
 32 33  1  0
 33 34  1  0
 34 35  2  0
 36 35  1  0
 36 40  1  0
 37 36  2  0
 38 33  2  0
 38 37  1  0
 39 38  1  0
 41 42  1  0
 42 45  1  0
 42 44  1  0
 43 41  2  0
 46 21  1  0
 46 47  1  0
 48 46  1  0
 49 52  1  0
 49 50  1  0
 51 49  1  0
 53 54  1  0
 53 52  1  0
 55 66  2  0
 56 54  1  0
 56 61  1  0
 57 65  1  0
 57 67  1  0
 58 64  1  0
 58 60  1  0
 59 65  1  0
 60 59  1  0
 61 60  2  0
 62 63  1  0
 62 56  2  0
 63 58  2  0
 64 57  1  0
 65 55  1  0
 67 69  2  0
 68 67  1  0
 70 68  1  0
 71 80  2  0
 71 76  1  0
 72 68  1  0
 72 76  1  0
 73 72  1  0
 74 75  1  0
 74 73  1  0
 75 71  1  0
 76 77  2  0
 77 78  1  0
 79 78  2  0
 80 79  1  0
 81 55  1  0
 81 86  1  0
 81 82  1  0
 82 85  1  1
 82 83  1  0
 84 82  1  0
 86 89  1  0
 87 91  1  0
 87 86  1  0
 88 87  2  0
 91 90  1  0
 93 91  1  0
 93 94  1  0
 93 92  1  0
M  ISO  4  11 100  19 100  53 101  54 101
M  END
>  <TORSDO>  (91) 
F 19

>  <SCORE>  (91) 
-10.673

>  <name>  (91) 
90

>  <ligand_id>  (91) 
90

>  <original_smiles>  (91) 
[H]c1c([H])c([H])c2c(c1[H])C([H])([H])C([H])([H])C([H])([H])C2([H])N([H])C(=O)C1([H])N(C(=O)C([H])(N([H])C(=O)C([H])(N([H])C([H])([H])[H])C([H])([H])[H])C(C([H])([H])[H])(C([H])([H])[H])C([H])([H])[H])C([H])([H])c2c([H])c(OC([H])([H])C([H])([H])[N+]([H])([H])C3([H])C([H])([H])C([H])([H])C4(C([H])([H])C([H])([H])C([H])(N([H])C(=O)N5C([H])([H])C([H])([H])C([H])([H])C([H])(n6nc(-c7c([H])c([H])c(Oc8c([H])c([H])c(F)c([H])c8F)c([H])c7[H])c(C(=O)N([H])[H])c6N([H])[H])C5([H])[H])C4([H])[H])C([H])([H])C3([H])[H])c([H])c([H])c2C1([H])[H]

>  <smiles>  (91) 
[H]c1c([H])c([H])c2c(c1[H])C([H])([H])C([H])([H])C([H])([H])C2([H])N([H])C(=O)C1([H])N(C(=O)C([H])(N([H])C(=O)C([H])(N([H])C([H])([H])[H])C([H])([H])[H])C(C([H])([H])[H])(C([H])([H])[H])C([H])([H])[H])C([H])([H])c2c([H])c(OC([H])([H])C([H])([H])[N+]([H])([H])C3([H])C([H])([H])C([H])([H])C4(C([H])([H])C([H])([H])C([H])(N([H])C(=O)N5C([H])([H])C([H])([H])C([H])([H])C([H])(n6nc(-c7c([H])c([H])c(Oc8c([H])c([H])c(F)c([H])c8F)c([H])c7[H])c(C(=O)N([H])[H])c6N([H])[H])C5([H])[H])C4([H])[H])C([H])([H])C3([H])[H])c([H])c([H])c2C1([H])[H]

$$$$
91:0:0
     RDKit          3D

 91 99  0  0  1  0  0  0  0  0999 V2000
  -26.5120  -23.2360   21.2760 C   0  0  0  0  0  2  0  0  0  0  0  0
  -27.6640  -22.2260   21.3680 C   0  0  0  0  0  2  0  0  0  0  0  0
  -27.0110  -24.6820   21.4030 C   0  0  0  0  0  2  0  0  0  0  0  0
  -29.1970  -24.0120   20.3700 C   0  0  0  0  0  2  0  0  0  0  0  0
  -28.7750  -22.4630   20.3180 C   0  0  0  0  0  3  0  0  0  0  0  0
  -27.9910  -25.0420   20.2550 C   0  0  0  0  0  3  0  0  0  0  0  0
  -31.2210  -21.7260   19.8390 C   0  0  0  0  0  1  0  0  0  0  0  0
  -29.8960  -21.3330   20.5160 C   0  0  0  0  0  3  0  0  0  0  0  0
  -29.4910  -19.9370   20.0630 N   0  0  0  0  0  4  0  0  0  0  0  0
  -28.4860  -19.8820   20.0830 H   0  0  0  0  0  0  0  0  0  0  0  0
  -29.7630  -19.8450   19.0990 H   0  0  0  0  0  0  0  0  0  0  0  0
  -30.0100  -18.7340   20.8330 C   0  0  0  0  0  3  0  0  0  0  0  0
  -29.9530  -17.3190   20.0970 C   0  0  0  0  0  3  0  0  0  0  0  0
  -30.0460  -15.9920   20.9800 C   0  0  0  0  0  2  0  0  0  0  0  0
  -30.6830  -14.6980   20.3300 C   0  0  0  0  0  0  0  0  0  0  0  0
  -30.4220  -12.4790   19.2310 C   0  0  0  0  0  2  0  0  0  0  0  0
  -29.4770  -12.6340   18.0190 C   0  0  0  0  0  2  0  0  0  0  0  0
  -28.0030  -12.4880   18.4500 C   0  0  0  0  0  2  0  0  0  0  0  0
  -27.6600  -13.3350   19.7060 C   0  0  0  0  0  3  0  0  0  0  0  0
  -28.7250  -13.1540   20.8120 C   0  0  0  0  0  2  0  0  0  0  0  0
  -30.0330  -13.4920   20.2350 N   0  0  0  0  0  0  0  0  0  0  0  0
  -31.8060  -14.8310   19.8360 O   0  0  0  0  0  0  0  0  0  0  0  0
  -25.2650  -13.9360   20.4180 C   0  0  0  0  0  0  0  0  0  0  0  0
  -24.1980  -13.1670   20.7960 C   0  0  0  0  0  0  0  0  0  0  0  0
  -24.6600  -11.8150   20.7760 C   0  0  0  0  0  0  0  0  0  0  0  0
  -26.3100  -13.0540   20.1920 N   0  0  0  0  0  0  0  0  0  0  0  0
  -25.9510  -11.7740   20.4670 N   0  0  0  0  0  0  0  0  0  0  0  0
  -23.9330  -10.5540   20.9810 C   0  0  0  0  0  0  0  0  0  0  0  0
  -24.3730   -9.5900   21.9150 C   0  0  0  0  0  3  0  0  0  0  0  0
  -23.6460   -8.3960   22.1080 C   0  0  0  0  0  3  0  0  0  0  0  0
  -22.4650   -8.1560   21.3660 C   0  0  0  0  0  0  0  0  0  0  0  0
  -22.0450   -9.1080   20.4200 C   0  0  0  0  0  3  0  0  0  0  0  0
  -22.7720  -10.2930   20.2260 C   0  0  0  0  0  3  0  0  0  0  0  0
  -21.7100   -7.0130   21.4670 O   0  0  0  0  0  0  0  0  0  0  0  0
  -21.6760   -6.2710   22.6210 C   0  0  0  0  0  0  0  0  0  0  0  0
  -21.2760   -6.8290   23.8540 C   0  0  0  0  0  3  0  0  0  0  0  0
  -21.1910   -6.0160   25.0010 C   0  0  0  0  0  3  0  0  0  0  0  0
  -21.4940   -4.6430   24.9150 C   0  0  0  0  0  0  0  0  0  0  0  0
  -21.8870   -4.0840   23.6870 C   0  0  0  0  0  3  0  0  0  0  0  0
  -21.9740   -4.8960   22.5420 C   0  0  0  0  0  0  0  0  0  0  0  0
  -22.3330   -4.3480   21.3560 F   0  0  0  0  0  0  0  0  0  0  0  0
  -21.4050   -3.8580   26.0140 F   0  0  0  0  0  0  0  0  0  0  0  0
  -22.8010  -13.6450   21.0670 C   0  0  0  0  0  0  0  0  0  0  0  0
  -22.0760  -12.9560   21.9420 N   0  0  0  0  0  0  0  0  0  0  0  0
  -22.3600  -14.6640   20.5380 O   0  0  0  0  0  0  0  0  0  0  0  0
  -22.4460  -12.1320   22.3910 H   0  0  0  0  0  0  0  0  0  0  0  0
  -21.1370  -13.2570   22.1640 H   0  0  0  0  0  0  0  0  0  0  0  0
  -25.4300  -15.3060   20.2270 N   0  0  0  0  0  0  0  0  0  0  0  0
  -24.6660  -15.9640   20.3320 H   0  0  0  0  0  0  0  0  0  0  0  0
  -26.2850  -15.7380   19.9000 H   0  0  0  0  0  0  0  0  0  0  0  0
  -28.2730  -26.5060   20.2310 O   0  0  0  0  0  0  0  0  0  0  0  0
  -24.5900  -31.8990   23.2560 C   0  0  0  0  0  0  0  0  0  0  0  0
  -27.1790  -27.3850   20.1310 C   0  0  0  0  0  0  0  0  0  0  0  0
  -23.3740  -30.5130   21.6170 C   0  0  0  0  0  3  0  0  0  0  0  0
  -24.8150  -28.9940   20.1520 C   0  0  0  0  0  0  0  0  0  0  0  0
  -25.9100  -30.8420   21.4140 C   0  0  0  0  0  2  0  0  0  0  0  0
  -25.9880  -29.4740   20.7470 C   0  0  0  0  0  0  0  0  0  0  0  0
  -27.1720  -28.6790   20.7330 C   0  0  0  0  0  3  0  0  0  0  0  0
  -25.9920  -26.9800   19.4710 C   0  0  0  0  0  3  0  0  0  0  0  0
  -24.8200  -27.7510   19.5020 C   0  0  0  0  0  3  0  0  0  0  0  0
  -23.5730  -29.8570   20.2280 C   0  0  0  0  0  2  0  0  0  0  0  0
  -24.6450  -31.1000   22.1520 N   0  0  0  0  0  0  0  0  0  0  0  0
  -23.5110  -32.1710   23.8030 O   0  0  0  0  0  0  0  0  0  0  0  0
  -22.7240  -29.4830   22.5720 C   0  0  0  0  0  0  0  0  0  0  0  0
  -21.3990  -29.2990   22.4490 N   0  0  0  0  0  0  0  0  0  0  0  0
  -23.4100  -28.8560   23.3830 O   0  0  0  0  0  0  0  0  0  0  0  0
  -20.9040  -29.8540   21.7660 H   0  0  0  0  0  0  0  0  0  0  0  0
  -18.0310  -28.0790   22.9510 C   0  0  0  0  0  0  0  0  0  0  0  0
  -20.5870  -28.3550   23.2190 C   0  0  0  0  0  3  0  0  0  0  0  0
  -20.6990  -26.9260   22.6400 C   0  0  0  0  0  2  0  0  0  0  0  0
  -19.5980  -26.5980   21.6260 C   0  0  0  0  0  2  0  0  0  0  0  0
  -18.2150  -26.7330   22.2720 C   0  0  0  0  0  2  0  0  0  0  0  0
  -19.1440  -28.8480   23.3810 C   0  0  0  0  0  0  0  0  0  0  0  0
  -18.9170  -30.1080   23.9760 C   0  0  0  0  0  3  0  0  0  0  0  0
  -17.6080  -30.6000   24.1440 C   0  0  0  0  0  3  0  0  0  0  0  0
  -16.5090  -29.8270   23.7310 C   0  0  0  0  0  3  0  0  0  0  0  0
  -16.7210  -28.5680   23.1400 C   0  0  0  0  0  3  0  0  0  0  0  0
  -25.8780  -32.5280   23.8700 C   0  0  0  0  0  3  0  0  0  0  0  0
  -25.5740  -33.9280   24.2020 N   0  0  0  0  0  0  0  0  0  0  0  0
  -25.9070  -34.9790   23.4420 C   0  0  0  0  0  0  0  0  0  0  0  0
  -26.5720  -34.8730   22.4080 O   0  0  0  0  0  0  0  0  0  0  0  0
  -24.9840  -34.0840   25.0050 H   0  0  0  0  0  0  0  0  0  0  0  0
  -24.1840  -36.7770   23.0910 C   0  0  0  0  0  1  0  0  0  0  0  0
  -25.4260  -36.3690   23.9000 C   0  0  0  0  0  3  0  0  0  0  0  0
  -27.5670  -37.2440   24.7220 C   0  0  0  0  0  1  0  0  0  0  0  0
  -26.4620  -37.4190   23.7830 N   0  0  0  0  0  0  0  0  0  0  0  0
  -26.0600  -38.3400   23.9340 H   0  0  0  0  0  0  0  0  0  0  0  0
  -26.3990  -31.7550   25.1430 C   0  0  1  0  0  0  0  0  0  0  0  0
  -25.3090  -31.5190   26.2160 C   0  0  0  0  0  1  0  0  0  0  0  0
  -26.9760  -30.3760   24.7490 C   0  0  0  0  0  1  0  0  0  0  0  0
  -27.5570  -32.5450   25.7970 C   0  0  0  0  0  1  0  0  0  0  0  0
  1  2  1  0
  1  3  1  0
  5  4  1  0
  5  8  1  0
  5  2  1  0
  6 51  1  0
  6  4  1  0
  6  3  1  0
  8  7  1  0
  9 10  1  0
  9  8  1  0
  9 12  1  0
 11  9  1  0
 13 12  2  0
 13 14  1  0
 15 14  1  0
 16 21  1  0
 17 18  1  0
 17 16  1  0
 19 18  1  0
 19 26  1  0
 19 20  1  0
 21 15  1  0
 21 20  1  0
 22 15  2  0
 23 24  2  0
 24 43  1  0
 25 24  1  0
 25 28  1  0
 26 23  1  0
 26 27  1  0
 27 25  2  0
 28 29  1  0
 29 30  2  0
 31 34  1  0
 31 30  1  0
 32 31  2  0
 33 32  1  0
 33 28  2  0
 34 35  1  0
 35 36  1  0
 36 37  2  0
 38 37  1  0
 38 42  1  0
 39 38  2  0
 40 35  2  0
 40 39  1  0
 41 40  1  0
 43 44  1  0
 44 47  1  0
 44 46  1  0
 45 43  2  0
 48 49  1  0
 48 23  1  0
 50 48  1  0
 52 63  2  0
 53 51  1  0
 53 58  1  0
 54 62  1  0
 54 64  1  0
 55 61  1  0
 55 57  1  0
 56 62  1  0
 57 56  1  0
 58 57  2  0
 59 60  1  0
 59 53  2  0
 60 55  2  0
 61 54  1  0
 62 52  1  0
 64 66  2  0
 65 64  1  0
 67 65  1  0
 68 77  2  0
 68 73  1  0
 69 65  1  0
 69 73  1  0
 70 69  1  0
 71 72  1  0
 71 70  1  0
 72 68  1  0
 73 74  2  0
 74 75  1  0
 76 75  2  0
 77 76  1  0
 78 52  1  0
 78 79  1  0
 78 88  1  0
 79 82  1  0
 80 84  1  0
 80 79  1  0
 81 80  2  0
 84 83  1  0
 86 84  1  0
 86 87  1  0
 86 85  1  0
 88 91  1  1
 88 89  1  0
 90 88  1  0
M  ISO  4   6 101  14 100  15 100  51 101
M  END
>  <TORSDO>  (92) 
F 21

>  <SCORE>  (92) 
-13.556

>  <name>  (92) 
91

>  <ligand_id>  (92) 
91

>  <original_smiles>  (92) 
[H]c1c([H])c([H])c2c(c1[H])C([H])([H])C([H])([H])C([H])([H])C2([H])N([H])C(=O)C1([H])N(C(=O)C([H])(N([H])C(=O)C([H])(N([H])C([H])([H])[H])C([H])([H])[H])C(C([H])([H])[H])(C([H])([H])[H])C([H])([H])[H])C([H])([H])c2c([H])c(OC3([H])C([H])([H])C([H])([H])C([H])([H])C([H])(C([H])(C([H])([H])[H])[N+]([H])([H])C([H])([H])C([H])([H])C([H])([H])C(=O)N4C([H])([H])C([H])([H])C([H])([H])C([H])(n5nc(-c6c([H])c([H])c(Oc7c([H])c([H])c(F)c([H])c7F)c([H])c6[H])c(C(=O)N([H])[H])c5N([H])[H])C4([H])[H])C3([H])[H])c([H])c([H])c2C1([H])[H]

>  <smiles>  (92) 
[H]c1c([H])c([H])c2c(c1[H])C([H])([H])C([H])([H])C([H])([H])C2([H])N([H])C(=O)C1([H])N(C(=O)C([H])(N([H])C(=O)C([H])(N([H])C([H])([H])[H])C([H])([H])[H])C(C([H])([H])[H])(C([H])([H])[H])C([H])([H])[H])C([H])([H])c2c([H])c(OC3([H])C([H])([H])C([H])([H])C([H])([H])C([H])(C([H])(C([H])([H])[H])[N+]([H])([H])C([H])([H])C([H])([H])C([H])([H])C(=O)N4C([H])([H])C([H])([H])C([H])([H])C([H])(n5nc(-c6c([H])c([H])c(Oc7c([H])c([H])c(F)c([H])c7F)c([H])c6[H])c(C(=O)N([H])[H])c5N([H])[H])C4([H])[H])C3([H])[H])c([H])c([H])c2C1([H])[H]

$$$$
92:0:0
     RDKit          3D

 93102  0  0  1  0  0  0  0  0999 V2000
  -29.2060  -23.0620   20.3650 C   0  0  0  0  0  3  0  0  0  0  0  0
  -28.7080  -21.8510   19.7440 C   0  0  0  0  0  0  0  0  0  0  0  0
  -27.4440  -22.0340   19.2980 C   0  0  0  0  0  0  0  0  0  0  0  0
  -28.2810  -24.1120   20.3790 C   0  0  0  0  0  0  0  0  0  0  0  0
  -26.8520  -20.9260   18.5370 C   0  0  0  0  0  2  0  0  0  0  0  0
  -27.9100  -19.8150   18.7110 C   0  0  0  0  0  2  0  0  0  0  0  0
  -29.2120  -20.4560   19.3110 C   0  0  0  0  0  3  0  0  0  0  0  0
  -26.7730  -23.5950   19.6480 S   0  0  0  0  0  0  0  0  0  0  0  0
  -29.8810  -19.5350   20.3000 N   0  0  0  0  0  4  0  0  0  0  0  0
  -30.8190  -19.8700   20.4470 H   0  0  0  0  0  0  0  0  0  0  0  0
  -29.4000  -19.5960   21.1810 H   0  0  0  0  0  0  0  0  0  0  0  0
  -29.9310  -18.0790   19.8890 C   0  0  0  0  0  2  0  0  0  0  0  0
  -30.8120  -17.1030   20.7550 C   0  0  0  0  0  2  0  0  0  0  0  0
  -31.1330  -14.6180   20.1110 C   0  0  0  0  0  0  0  0  0  0  0  0
  -30.7850  -12.4180   19.0150 C   0  0  0  0  0  2  0  0  0  0  0  0
  -29.8180  -12.6050   17.8270 C   0  0  0  0  0  2  0  0  0  0  0  0
  -28.3530  -12.4930   18.2920 C   0  0  0  0  0  2  0  0  0  0  0  0
  -28.0590  -13.3680   19.5400 C   0  0  0  0  0  3  0  0  0  0  0  0
  -29.1360  -13.1620   20.6300 C   0  0  0  0  0  2  0  0  0  0  0  0
  -30.4490  -13.4390   20.0250 N   0  0  0  0  0  0  0  0  0  0  0  0
  -32.2580  -14.7690   19.6270 O   0  0  0  0  0  0  0  0  0  0  0  0
  -30.4360  -15.6650   20.6240 N   0  0  0  0  0  0  0  0  0  0  0  0
  -29.5210  -15.4250   20.9790 H   0  0  0  0  0  0  0  0  0  0  0  0
  -25.7230  -14.0580   20.3630 C   0  0  0  0  0  0  0  0  0  0  0  0
  -24.6310  -13.3260   20.7440 C   0  0  0  0  0  0  0  0  0  0  0  0
  -25.0190  -11.9550   20.6380 C   0  0  0  0  0  0  0  0  0  0  0  0
  -26.7120  -13.1370   20.0570 N   0  0  0  0  0  0  0  0  0  0  0  0
  -26.2960  -11.8640   20.2810 N   0  0  0  0  0  0  0  0  0  0  0  0
  -24.2360  -10.7250   20.8040 C   0  0  0  0  0  0  0  0  0  0  0  0
  -24.6180   -9.7340   21.7340 C   0  0  0  0  0  3  0  0  0  0  0  0
  -23.8460   -8.5630   21.8920 C   0  0  0  0  0  3  0  0  0  0  0  0
  -22.6740   -8.3770   21.1200 C   0  0  0  0  0  0  0  0  0  0  0  0
  -22.3070   -9.3570   20.1820 C   0  0  0  0  0  3  0  0  0  0  0  0
  -23.0800  -10.5200   20.0240 C   0  0  0  0  0  3  0  0  0  0  0  0
  -21.8770   -7.2580   21.1850 O   0  0  0  0  0  0  0  0  0  0  0  0
  -21.7400   -6.5400   22.3450 C   0  0  0  0  0  0  0  0  0  0  0  0
  -21.2460   -7.1240   23.5320 C   0  0  0  0  0  3  0  0  0  0  0  0
  -21.0590   -6.3300   24.6820 C   0  0  0  0  0  3  0  0  0  0  0  0
  -21.3530   -4.9540   24.6420 C   0  0  0  0  0  0  0  0  0  0  0  0
  -21.8390   -4.3690   23.4610 C   0  0  0  0  0  3  0  0  0  0  0  0
  -22.0300   -5.1610   22.3150 C   0  0  0  0  0  0  0  0  0  0  0  0
  -22.4790   -4.5900   21.1710 F   0  0  0  0  0  0  0  0  0  0  0  0
  -21.1630   -4.1900   25.7440 F   0  0  0  0  0  0  0  0  0  0  0  0
  -23.2720  -13.8600   21.0900 C   0  0  0  0  0  0  0  0  0  0  0  0
  -22.5440  -13.1770   21.9670 N   0  0  0  0  0  0  0  0  0  0  0  0
  -22.8620  -14.9200   20.6150 O   0  0  0  0  0  0  0  0  0  0  0  0
  -22.8860  -12.3210   22.3830 H   0  0  0  0  0  0  0  0  0  0  0  0
  -21.6280  -13.5130   22.2310 H   0  0  0  0  0  0  0  0  0  0  0  0
  -25.9510  -15.4240   20.2250 N   0  0  0  0  0  0  0  0  0  0  0  0
  -25.2100  -16.1060   20.3510 H   0  0  0  0  0  0  0  0  0  0  0  0
  -26.7860  -15.8100   19.8080 H   0  0  0  0  0  0  0  0  0  0  0  0
  -28.3620  -25.5030   21.0290 C   0  0  0  0  0  2  0  0  0  0  0  0
  -28.2330  -26.6050   20.0900 O   0  0  0  0  0  0  0  0  0  0  0  0
  -24.5080  -31.9130   23.2260 C   0  0  0  0  0  0  0  0  0  0  0  0
  -27.0980  -27.3990   20.1590 C   0  0  0  0  0  0  0  0  0  0  0  0
  -23.2910  -30.5320   21.5770 C   0  0  0  0  0  3  0  0  0  0  0  0
  -24.7320  -28.9770   20.1520 C   0  0  0  0  0  0  0  0  0  0  0  0
  -25.8250  -30.8470   21.3900 C   0  0  0  0  0  2  0  0  0  0  0  0
  -25.8970  -29.4680   20.7550 C   0  0  0  0  0  0  0  0  0  0  0  0
  -27.0840  -28.6890   20.7580 C   0  0  0  0  0  3  0  0  0  0  0  0
  -25.9210  -26.9440   19.5310 C   0  0  0  0  0  3  0  0  0  0  0  0
  -24.7410  -27.7130   19.5360 C   0  0  0  0  0  3  0  0  0  0  0  0
  -23.5000  -29.8550   20.1950 C   0  0  0  0  0  2  0  0  0  0  0  0
  -24.5610  -31.1140   22.1220 N   0  0  0  0  0  0  0  0  0  0  0  0
  -23.4280  -32.1980   23.7620 O   0  0  0  0  0  0  0  0  0  0  0  0
  -22.6220  -29.5170   22.5310 C   0  0  0  0  0  0  0  0  0  0  0  0
  -21.2970  -29.3500   22.3960 N   0  0  0  0  0  0  0  0  0  0  0  0
  -23.2920  -28.8830   23.3490 O   0  0  0  0  0  0  0  0  0  0  0  0
  -20.8170  -29.9140   21.7070 H   0  0  0  0  0  0  0  0  0  0  0  0
  -17.9000  -28.2240   22.9120 C   0  0  0  0  0  0  0  0  0  0  0  0
  -20.4650  -28.4170   23.1580 C   0  0  0  0  0  3  0  0  0  0  0  0
  -20.5290  -26.9930   22.5540 C   0  0  0  0  0  2  0  0  0  0  0  0
  -19.4060  -26.7150   21.5480 C   0  0  0  0  0  2  0  0  0  0  0  0
  -18.0380  -26.8800   22.2150 C   0  0  0  0  0  2  0  0  0  0  0  0
  -19.0400  -28.9520   23.3420 C   0  0  0  0  0  0  0  0  0  0  0  0
  -18.8570  -30.2100   23.9560 C   0  0  0  0  0  3  0  0  0  0  0  0
  -17.5660  -30.7390   24.1450 C   0  0  0  0  0  3  0  0  0  0  0  0
  -16.4410  -30.0060   23.7320 C   0  0  0  0  0  3  0  0  0  0  0  0
  -16.6070  -28.7500   23.1200 C   0  0  0  0  0  3  0  0  0  0  0  0
  -25.7980  -32.5260   23.8530 C   0  0  0  0  0  3  0  0  0  0  0  0
  -26.2840  -31.7600   25.1430 C   0  0  1  0  0  0  0  0  0  0  0  0
  -25.1680  -31.5310   26.1880 C   0  0  0  0  0  1  0  0  0  0  0  0
  -26.8720  -30.3810   24.7660 C   0  0  0  0  0  1  0  0  0  0  0  0
  -27.4200  -32.5580   25.8260 C   0  0  0  0  0  1  0  0  0  0  0  0
  -25.5120  -33.9330   24.1600 N   0  0  0  0  0  0  0  0  0  0  0  0
  -25.8650  -34.9690   23.3870 C   0  0  0  0  0  0  0  0  0  0  0  0
  -26.5400  -34.8400   22.3620 O   0  0  0  0  0  0  0  0  0  0  0  0
  -24.9170  -34.1080   24.9570 H   0  0  0  0  0  0  0  0  0  0  0  0
  -24.1700  -36.7850   23.0020 C   0  0  0  0  0  1  0  0  0  0  0  0
  -25.4000  -36.3710   23.8240 C   0  0  0  0  0  3  0  0  0  0  0  0
  -27.5420  -37.2380   24.6540 C   0  0  0  0  0  1  0  0  0  0  0  0
  -26.4500  -37.4050   23.6990 N   0  0  0  0  0  0  0  0  0  0  0  0
  -26.0580  -38.3340   23.8260 H   0  0  0  0  0  0  0  0  0  0  0  0
  1  4  2  0
  2  1  1  0
  3  8  1  0
  3  2  2  0
  4 52  1  0
  5  6  1  0
  5  3  1  0
  6  7  1  0
  7  2  1  0
  7  9  1  0
  8  4  1  0
  9 10  1  0
  9 11  1  0
 12  9  1  0
 12 13  1  0
 14 22  1  0
 15 20  1  0
 16 17  1  0
 16 15  1  0
 18 17  1  0
 18 27  1  0
 18 19  1  0
 20 14  1  0
 20 19  1  0
 21 14  2  0
 22 13  1  0
 22 23  1  0
 24 25  2  0
 25 44  1  0
 26 25  1  0
 26 29  1  0
 27 28  1  0
 27 24  1  0
 28 26  2  0
 29 30  1  0
 30 31  2  0
 32 35  1  0
 32 31  1  0
 33 32  2  0
 34 33  1  0
 34 29  2  0
 35 36  1  0
 36 37  1  0
 37 38  2  0
 39 38  1  0
 39 43  1  0
 40 39  2  0
 41 36  2  0
 41 40  1  0
 42 41  1  0
 44 45  1  0
 45 48  1  0
 45 47  1  0
 46 44  2  0
 49 50  1  0
 49 24  1  0
 51 49  1  0
 53 55  1  0
 53 52  1  0
 54 65  2  0
 55 60  1  0
 56 64  1  0
 56 66  1  0
 57 63  1  0
 57 59  1  0
 58 64  1  0
 59 60  2  0
 59 58  1  0
 61 62  1  0
 61 55  2  0
 62 57  2  0
 63 56  1  0
 64 54  1  0
 66 68  2  0
 67 66  1  0
 69 67  1  0
 70 79  2  0
 70 75  1  0
 71 67  1  0
 71 75  1  0
 72 71  1  0
 73 74  1  0
 73 72  1  0
 74 70  1  0
 75 76  2  0
 76 77  1  0
 78 77  2  0
 79 78  1  0
 80 54  1  0
 80 85  1  0
 80 81  1  0
 81 84  1  1
 81 82  1  0
 83 81  1  0
 85 88  1  0
 86 90  1  0
 86 85  1  0
 87 86  2  0
 90 89  1  0
 92 90  1  0
 92 93  1  0
 92 91  1  0
M  ISO  4  14 100  22 100  52 101  53 101
M  END
>  <TORSDO>  (93) 
F 20

>  <SCORE>  (93) 
-13.591

>  <name>  (93) 
92

>  <ligand_id>  (93) 
92

>  <original_smiles>  (93) 
[H]c1c([H])c([H])c2c(c1[H])C([H])([H])C([H])([H])C([H])([H])C2([H])N([H])C(=O)C1([H])N(C(=O)C([H])(N([H])C(=O)C([H])(N([H])C([H])([H])[H])C([H])([H])[H])C(C([H])([H])[H])(C([H])([H])[H])C([H])([H])[H])C([H])([H])c2c([H])c(OC([H])([H])c3sc4c(c3[H])C([H])([N+]([H])([H])C([H])([H])C([H])([H])N([H])C(=O)N3C([H])([H])C([H])([H])C([H])([H])C([H])(n5nc(-c6c([H])c([H])c(Oc7c([H])c([H])c(F)c([H])c7F)c([H])c6[H])c(C(=O)N([H])[H])c5N([H])[H])C3([H])[H])C([H])([H])C4([H])[H])c([H])c([H])c2C1([H])[H]

>  <smiles>  (93) 
[H]c1c([H])c([H])c2c(c1[H])C([H])([H])C([H])([H])C([H])([H])C2([H])N([H])C(=O)C1([H])N(C(=O)C([H])(N([H])C(=O)C([H])(N([H])C([H])([H])[H])C([H])([H])[H])C(C([H])([H])[H])(C([H])([H])[H])C([H])([H])[H])C([H])([H])c2c([H])c(OC([H])([H])c3sc4c(c3[H])C([H])([N+]([H])([H])C([H])([H])C([H])([H])N([H])C(=O)N3C([H])([H])C([H])([H])C([H])([H])C([H])(n5nc(-c6c([H])c([H])c(Oc7c([H])c([H])c(F)c([H])c7F)c([H])c6[H])c(C(=O)N([H])[H])c5N([H])[H])C3([H])[H])C([H])([H])C4([H])[H])c([H])c([H])c2C1([H])[H]

$$$$
93:0:0
     RDKit          3D

 88 97  0  0  1  0  0  0  0  0999 V2000
  -31.0840  -21.1650   20.7070 C   0  0  0  0  0  2  0  0  0  0  0  0
  -30.1630  -22.3410   20.6650 C   0  0  0  0  0  3  0  0  0  0  0  0
  -30.8760  -19.8290   20.4400 C   0  0  0  0  0  3  0  0  0  0  0  0
  -28.8510  -22.3170   20.3360 C   0  0  0  0  0  0  0  0  0  0  0  0
  -31.9910  -18.9760   19.9070 C   0  0  0  0  0  2  0  0  0  0  0  0
  -28.4560  -20.5920   20.1850 C   0  0  0  0  0  2  0  0  0  0  0  0
  -31.4340  -18.5900   18.5240 C   0  0  0  0  0  2  0  0  0  0  0  0
  -29.9270  -18.9540   18.5620 C   0  0  0  0  0  2  0  0  0  0  0  0
  -29.5700  -19.1210   20.0510 C   0  0  1  0  0  0  0  0  0  0  0  0
  -27.8860  -23.8820   20.2050 C   0  0  0  0  0  2  0  0  0  0  0  0
  -28.1540  -25.5940   20.3410 O   0  0  0  0  0  0  0  0  0  0  0  0
  -24.6600  -31.8590   23.2210 C   0  0  0  0  0  0  0  0  0  0  0  0
  -27.1840  -26.7910   20.2710 C   0  0  0  0  0  0  0  0  0  0  0  0
  -23.4690  -30.4560   21.5910 C   0  0  0  0  0  3  0  0  0  0  0  0
  -24.9140  -28.7990   20.1920 C   0  0  0  0  0  0  0  0  0  0  0  0
  -26.0470  -30.6010   21.4680 C   0  0  0  0  0  2  0  0  0  0  0  0
  -26.1080  -29.1680   20.8230 C   0  0  0  0  0  0  0  0  0  0  0  0
  -27.2300  -28.1910   20.8290 C   0  0  0  0  0  3  0  0  0  0  0  0
  -25.9540  -26.6210   19.5840 C   0  0  0  0  0  3  0  0  0  0  0  0
  -24.8740  -27.5510   19.5500 C   0  0  0  0  0  3  0  0  0  0  0  0
  -23.7080  -29.7480   20.2260 C   0  0  0  0  0  2  0  0  0  0  0  0
  -24.7480  -31.0040   22.1450 N   0  0  0  0  0  0  0  0  0  0  0  0
  -23.5680  -32.1660   23.7290 O   0  0  0  0  0  0  0  0  0  0  0  0
  -22.7500  -29.4860   22.5670 C   0  0  0  0  0  0  0  0  0  0  0  0
  -21.4170  -29.3360   22.4420 N   0  0  0  0  0  0  0  0  0  0  0  0
  -23.4030  -28.8640   23.4090 O   0  0  0  0  0  0  0  0  0  0  0  0
  -20.9390  -29.8890   21.7430 H   0  0  0  0  0  0  0  0  0  0  0  0
  -18.0240  -28.1400   22.9570 C   0  0  0  0  0  0  0  0  0  0  0  0
  -20.5850  -28.4080   23.2200 C   0  0  0  0  0  3  0  0  0  0  0  0
  -20.6840  -26.9690   22.6610 C   0  0  0  0  0  2  0  0  0  0  0  0
  -19.5840  -26.6390   21.6470 C   0  0  0  0  0  2  0  0  0  0  0  0
  -18.2020  -26.7880   22.2860 C   0  0  0  0  0  2  0  0  0  0  0  0
  -19.1430  -28.9080   23.3800 C   0  0  0  0  0  0  0  0  0  0  0  0
  -18.9200  -30.1700   23.9710 C   0  0  0  0  0  3  0  0  0  0  0  0
  -17.6130  -30.6670   24.1400 C   0  0  0  0  0  3  0  0  0  0  0  0
  -16.5100  -29.8980   23.7280 C   0  0  0  0  0  3  0  0  0  0  0  0
  -16.7170  -28.6360   23.1430 C   0  0  0  0  0  3  0  0  0  0  0  0
  -25.9260  -32.5080   23.8580 C   0  0  0  0  0  3  0  0  0  0  0  0
  -25.6050  -33.9090   24.1920 N   0  0  0  0  0  0  0  0  0  0  0  0
  -25.9180  -34.9750   23.4430 C   0  0  0  0  0  0  0  0  0  0  0  0
  -26.5650  -34.8810   22.3970 O   0  0  0  0  0  0  0  0  0  0  0  0
  -25.0220  -34.0530   25.0050 H   0  0  0  0  0  0  0  0  0  0  0  0
  -24.1660  -36.7670   23.1670 C   0  0  0  0  0  1  0  0  0  0  0  0
  -25.4420  -36.3620   23.9240 C   0  0  0  0  0  3  0  0  0  0  0  0
  -27.6000  -37.2680   24.6720 C   0  0  0  0  0  1  0  0  0  0  0  0
  -26.4620  -37.4240   23.7710 N   0  0  0  0  0  0  0  0  0  0  0  0
  -26.0540  -38.3410   23.9310 H   0  0  0  0  0  0  0  0  0  0  0  0
  -26.4240  -31.7500   25.1510 C   0  0  1  0  0  0  0  0  0  0  0  0
  -25.3180  -31.5320   26.2120 C   0  0  0  0  0  1  0  0  0  0  0  0
  -27.0040  -30.3640   24.7940 C   0  0  0  0  0  1  0  0  0  0  0  0
  -27.5710  -32.5470   25.8150 C   0  0  0  0  0  1  0  0  0  0  0  0
  -29.4480  -17.2480   20.5130 C   0  0  0  0  0  2  0  0  0  0  0  0
  -30.2580  -15.5940   20.2330 C   0  0  0  0  0  0  0  0  0  0  0  0
  -30.3290  -13.0670   19.3820 C   0  0  0  0  0  2  0  0  0  0  0  0
  -29.4140  -12.7580   18.1610 C   0  0  0  0  0  2  0  0  0  0  0  0
  -27.9800  -12.4340   18.6100 C   0  0  0  0  0  2  0  0  0  0  0  0
  -27.5050  -13.4040   19.7150 C   0  0  0  0  0  3  0  0  0  0  0  0
  -28.5520  -13.6400   20.8270 C   0  0  0  0  0  2  0  0  0  0  0  0
  -29.7540  -14.2280   20.1960 N   0  0  0  0  0  0  0  0  0  0  0  0
  -31.4750  -15.5380   19.9710 O   0  0  0  0  0  0  0  0  0  0  0  0
  -25.1490  -13.9350   20.5070 C   0  0  0  0  0  0  0  0  0  0  0  0
  -24.0930  -13.1530   20.8800 C   0  0  0  0  0  0  0  0  0  0  0  0
  -24.5640  -11.8040   20.8370 C   0  0  0  0  0  0  0  0  0  0  0  0
  -26.1900  -13.0660   20.2430 N   0  0  0  0  0  0  0  0  0  0  0  0
  -25.8530  -11.7750   20.5120 N   0  0  0  0  0  0  0  0  0  0  0  0
  -23.8380  -10.5390   21.0270 C   0  0  0  0  0  0  0  0  0  0  0  0
  -24.2700   -9.5700   21.9570 C   0  0  0  0  0  3  0  0  0  0  0  0
  -23.5400   -8.3750   22.1390 C   0  0  0  0  0  3  0  0  0  0  0  0
  -22.3640   -8.1410   21.3880 C   0  0  0  0  0  0  0  0  0  0  0  0
  -21.9510   -9.0990   20.4450 C   0  0  0  0  0  3  0  0  0  0  0  0
  -22.6810  -10.2850   20.2640 C   0  0  0  0  0  3  0  0  0  0  0  0
  -21.6060   -6.9970   21.4760 O   0  0  0  0  0  0  0  0  0  0  0  0
  -21.5530   -6.2560   22.6290 C   0  0  0  0  0  0  0  0  0  0  0  0
  -21.1180   -6.8110   23.8530 C   0  0  0  0  0  3  0  0  0  0  0  0
  -21.0130   -5.9960   24.9970 C   0  0  0  0  0  3  0  0  0  0  0  0
  -21.3330   -4.6270   24.9200 C   0  0  0  0  0  0  0  0  0  0  0  0
  -21.7600   -4.0710   23.7020 C   0  0  0  0  0  3  0  0  0  0  0  0
  -21.8660   -4.8830   22.5590 C   0  0  0  0  0  0  0  0  0  0  0  0
  -22.2590   -4.3380   21.3820 F   0  0  0  0  0  0  0  0  0  0  0  0
  -21.2250   -3.8430   26.0180 F   0  0  0  0  0  0  0  0  0  0  0  0
  -22.6980  -13.6260   21.1590 C   0  0  0  0  0  0  0  0  0  0  0  0
  -21.9780  -12.9290   22.0300 N   0  0  0  0  0  0  0  0  0  0  0  0
  -22.2570  -14.6520   20.6400 O   0  0  0  0  0  0  0  0  0  0  0  0
  -22.3520  -12.1020   22.4700 H   0  0  0  0  0  0  0  0  0  0  0  0
  -21.0390  -13.2250   22.2590 H   0  0  0  0  0  0  0  0  0  0  0  0
  -25.3070  -15.3080   20.3380 N   0  0  0  0  0  0  0  0  0  0  0  0
  -24.5410  -15.9590   20.4640 H   0  0  0  0  0  0  0  0  0  0  0  0
  -26.1540  -15.7520   20.0080 H   0  0  0  0  0  0  0  0  0  0  0  0
  2  1  1  0
  3  5  1  0
  3  1  1  0
  4  2  2  0
  6  4  1  0
  7  8  1  0
  7  5  1  0
  8  9  1  0
  9  6  1  0
  9  3  1  0
  9 52  1  1
 10  4  1  0
 10 11  1  0
 12 23  2  0
 13 11  1  0
 13 18  1  0
 14 22  1  0
 14 24  1  0
 15 21  1  0
 15 17  1  0
 16 22  1  0
 17 18  2  0
 17 16  1  0
 19 13  2  0
 20 19  1  0
 20 15  2  0
 21 14  1  0
 22 12  1  0
 24 26  2  0
 25 24  1  0
 27 25  1  0
 28 37  2  0
 28 33  1  0
 29 25  1  0
 29 33  1  0
 30 29  1  0
 31 32  1  0
 31 30  1  0
 32 28  1  0
 33 34  2  0
 34 35  1  0
 36 35  2  0
 37 36  1  0
 38 12  1  0
 38 39  1  0
 38 48  1  0
 39 42  1  0
 40 44  1  0
 40 39  1  0
 41 40  2  0
 44 43  1  0
 46 44  1  0
 46 47  1  0
 46 45  1  0
 48 51  1  1
 48 49  1  0
 50 48  1  0
 53 52  1  0
 54 59  1  0
 55 56  1  0
 55 54  1  0
 57 56  1  0
 57 64  1  0
 57 58  1  0
 59 53  1  0
 59 58  1  0
 60 53  2  0
 61 62  2  0
 62 81  1  0
 63 62  1  0
 63 66  1  0
 64 61  1  0
 64 65  1  0
 65 63  2  0
 66 67  1  0
 67 68  2  0
 69 72  1  0
 69 68  1  0
 70 69  2  0
 71 70  1  0
 71 66  2  0
 72 73  1  0
 73 74  1  0
 74 75  2  0
 76 75  1  0
 76 80  1  0
 77 76  2  0
 78 73  2  0
 78 77  1  0
 79 78  1  0
 81 82  1  0
 82 85  1  0
 82 84  1  0
 83 81  2  0
 86 87  1  0
 86 61  1  0
 88 86  1  0
M  ISO  4  10 101  11 101  52 100  53 100
M  END
>  <TORSDO>  (94) 
F 18

>  <SCORE>  (94) 
-16.767

>  <name>  (94) 
93

>  <ligand_id>  (94) 
93

>  <original_smiles>  (94) 
[H]C1=C(C([H])([H])Oc2c([H])c([H])c3c(c2[H])C([H])([H])N(C(=O)C([H])(N([H])C(=O)C([H])(N([H])C([H])([H])[H])C([H])([H])[H])C(C([H])([H])[H])(C([H])([H])[H])C([H])([H])[H])C([H])(C(=O)N([H])C2([H])c4c([H])c([H])c([H])c([H])c4C([H])([H])C([H])([H])C2([H])[H])C3([H])[H])C([H])([H])C2(C([H])([H])C(=O)N3C([H])([H])C([H])([H])C([H])([H])C([H])(n4nc(-c5c([H])c([H])c(Oc6c([H])c([H])c(F)c([H])c6F)c([H])c5[H])c(C(=O)N([H])[H])c4N([H])[H])C3([H])[H])C(=C1[H])C([H])([H])C([H])([H])C2([H])[H]

>  <smiles>  (94) 
[H]C1=C(C([H])([H])Oc2c([H])c([H])c3c(c2[H])C([H])([H])N(C(=O)C([H])(N([H])C(=O)C([H])(N([H])C([H])([H])[H])C([H])([H])[H])C(C([H])([H])[H])(C([H])([H])[H])C([H])([H])[H])C([H])(C(=O)N([H])C2([H])c4c([H])c([H])c([H])c([H])c4C([H])([H])C([H])([H])C2([H])[H])C3([H])[H])C([H])([H])C2(C([H])([H])C(=O)N3C([H])([H])C([H])([H])C([H])([H])C([H])(n4nc(-c5c([H])c([H])c(Oc6c([H])c([H])c(F)c([H])c6F)c([H])c5[H])c(C(=O)N([H])[H])c4N([H])[H])C3([H])[H])C(=C1[H])C([H])([H])C([H])([H])C2([H])[H]

$$$$
94:0:0
     RDKit          3D

 99107  0  0  1  0  0  0  0  0999 V2000
  -29.7630  -20.4910   20.2920 C   0  0  0  0  0  2  0  0  0  0  0  0
  -32.6470  -17.2170   20.0320 C   0  0  0  0  0  3  0  0  0  0  0  0
  -33.0700  -18.5380   19.8290 C   0  0  0  0  0  0  0  0  0  0  0  0
  -31.2960  -16.8930   20.2660 C   0  0  0  0  0  0  0  0  0  0  0  0
  -32.1430  -19.6020   19.9100 C   0  0  0  0  0  0  0  0  0  0  0  0
  -30.3350  -17.9560   20.2720 C   0  0  0  0  0  0  0  0  0  0  0  0
  -30.7650  -19.3210   20.1460 C   0  0  0  0  0  0  0  0  0  0  0  0
  -34.5430  -18.7850   19.5310 C   0  0  0  0  0  1  0  0  0  0  0  0
  -32.6670  -21.0270   19.7200 C   0  0  0  0  0  1  0  0  0  0  0  0
  -28.3770  -17.4350   21.8470 C   0  0  0  0  0  1  0  0  0  0  0  0
  -28.8400  -17.6370   20.3960 C   0  0  0  0  0  2  0  0  0  0  0  0
  -30.9530  -15.4050   20.5770 C   0  0  0  0  0  3  0  0  0  0  0  0
  -31.2350  -14.4110   19.4080 C   0  0  0  0  0  0  0  0  0  0  0  0
  -30.6860  -12.3140   18.1930 C   0  0  0  0  0  2  0  0  0  0  0  0
  -29.5370  -12.5320   17.1910 C   0  0  0  0  0  2  0  0  0  0  0  0
  -28.1680  -12.3750   17.8810 C   0  0  0  0  0  2  0  0  0  0  0  0
  -28.0700  -13.1920   19.1970 C   0  0  0  0  0  3  0  0  0  0  0  0
  -29.3030  -12.9270   20.0860 C   0  0  0  0  0  2  0  0  0  0  0  0
  -30.5040  -13.2630   19.3030 N   0  0  0  0  0  0  0  0  0  0  0  0
  -32.1320  -14.6690   18.5970 O   0  0  0  0  0  0  0  0  0  0  0  0
  -25.9030  -13.8060   20.4460 C   0  0  0  0  0  0  0  0  0  0  0  0
  -24.8770  -13.0370   20.9280 C   0  0  0  0  0  0  0  0  0  0  0  0
  -25.2270  -11.6840   20.6370 C   0  0  0  0  0  0  0  0  0  0  0  0
  -26.8200  -12.9180   19.9030 N   0  0  0  0  0  0  0  0  0  0  0  0
  -26.4260  -11.6310   20.0680 N   0  0  0  0  0  0  0  0  0  0  0  0
  -24.4680  -10.4390   20.8140 C   0  0  0  0  0  0  0  0  0  0  0  0
  -24.8930   -9.4350   21.7130 C   0  0  0  0  0  3  0  0  0  0  0  0
  -24.1350   -8.2560   21.8800 C   0  0  0  0  0  3  0  0  0  0  0  0
  -22.9380   -8.0720   21.1460 C   0  0  0  0  0  0  0  0  0  0  0  0
  -22.5320   -9.0640   20.2350 C   0  0  0  0  0  3  0  0  0  0  0  0
  -23.2910  -10.2350   20.0670 C   0  0  0  0  0  3  0  0  0  0  0  0
  -22.1520   -6.9480   21.2230 O   0  0  0  0  0  0  0  0  0  0  0  0
  -21.9250   -6.3110   22.4160 C   0  0  0  0  0  0  0  0  0  0  0  0
  -21.3950   -6.9900   23.5350 C   0  0  0  0  0  3  0  0  0  0  0  0
  -21.1110   -6.2810   24.7190 C   0  0  0  0  0  3  0  0  0  0  0  0
  -21.3480   -4.8940   24.7850 C   0  0  0  0  0  0  0  0  0  0  0  0
  -21.8710   -4.2160   23.6700 C   0  0  0  0  0  3  0  0  0  0  0  0
  -22.1560   -4.9230   22.4880 C   0  0  0  0  0  0  0  0  0  0  0  0
  -22.6390   -4.2600   21.4100 F   0  0  0  0  0  0  0  0  0  0  0  0
  -21.0690   -4.2120   25.9190 F   0  0  0  0  0  0  0  0  0  0  0  0
  -23.5990  -13.5330   21.5420 C   0  0  0  0  0  0  0  0  0  0  0  0
  -23.0490  -12.7920   22.4980 N   0  0  0  0  0  0  0  0  0  0  0  0
  -23.1030  -14.6090   21.2090 O   0  0  0  0  0  0  0  0  0  0  0  0
  -23.4630  -11.9190   22.7860 H   0  0  0  0  0  0  0  0  0  0  0  0
  -22.2020  -13.1050   22.9510 H   0  0  0  0  0  0  0  0  0  0  0  0
  -26.1190  -15.1790   20.4050 N   0  0  0  0  0  0  0  0  0  0  0  0
  -25.4370  -15.8410   20.7540 H   0  0  0  0  0  0  0  0  0  0  0  0
  -26.9160  -15.6240   19.9680 H   0  0  0  0  0  0  0  0  0  0  0  0
  -31.3450  -15.7750   23.1050 C   0  0  0  0  0  1  0  0  0  0  0  0
  -31.6550  -14.9130   21.8730 C   0  0  0  0  0  2  0  0  0  0  0  0
  -29.4840  -21.2630   18.9730 C   0  0  0  0  0  2  0  0  0  0  0  0
  -26.9840  -21.5920   19.5090 C   0  0  0  0  0  1  0  0  0  0  0  0
  -28.2670  -22.2400   18.9540 C   0  0  0  0  0  3  0  0  0  0  0  0
  -28.5130  -23.5670   19.5890 N   0  0  0  0  0  4  0  0  0  0  0  0
  -27.6210  -24.0360   19.6320 H   0  0  0  0  0  0  0  0  0  0  0  0
  -28.8130  -23.4540   20.5450 H   0  0  0  0  0  0  0  0  0  0  0  0
  -29.4430  -24.4860   18.8700 C   0  0  0  0  0  2  0  0  0  0  0  0
  -28.7650  -25.7890   18.3800 C   0  0  0  0  0  2  0  0  0  0  0  0
  -28.5580  -26.7190   19.4540 O   0  0  0  0  0  0  0  0  0  0  0  0
  -24.8580  -31.5030   23.2100 C   0  0  0  0  0  0  0  0  0  0  0  0
  -27.3690  -27.4140   19.5560 C   0  0  0  0  0  0  0  0  0  0  0  0
  -23.5740  -30.2540   21.5040 C   0  0  0  0  0  3  0  0  0  0  0  0
  -24.9610  -28.8800   19.8620 C   0  0  0  0  0  0  0  0  0  0  0  0
  -26.0830  -30.6600   21.2080 C   0  0  0  0  0  2  0  0  0  0  0  0
  -26.1440  -29.3550   20.4380 C   0  0  0  0  0  0  0  0  0  0  0  0
  -27.3450  -28.6240   20.2900 C   0  0  0  0  0  3  0  0  0  0  0  0
  -26.1540  -26.9430   18.9980 C   0  0  0  0  0  3  0  0  0  0  0  0
  -24.9600  -27.6740   19.1450 C   0  0  0  0  0  3  0  0  0  0  0  0
  -23.7140  -29.7140   20.0580 C   0  0  0  0  0  2  0  0  0  0  0  0
  -24.8590  -30.8140   22.0330 N   0  0  0  0  0  0  0  0  0  0  0  0
  -23.8060  -31.7080   23.8300 O   0  0  0  0  0  0  0  0  0  0  0  0
  -22.9840  -29.1350   22.3920 C   0  0  0  0  0  0  0  0  0  0  0  0
  -21.6760  -28.8750   22.2350 N   0  0  0  0  0  0  0  0  0  0  0  0
  -23.6990  -28.5070   23.1780 O   0  0  0  0  0  0  0  0  0  0  0  0
  -21.1580  -29.4400   21.5770 H   0  0  0  0  0  0  0  0  0  0  0  0
  -18.4070  -27.3630   22.5150 C   0  0  0  0  0  0  0  0  0  0  0  0
  -20.9130  -27.8390   22.9280 C   0  0  0  0  0  3  0  0  0  0  0  0
  -21.1760  -26.4440   22.3110 C   0  0  0  0  0  2  0  0  0  0  0  0
  -20.1590  -26.0610   21.2330 C   0  0  0  0  0  2  0  0  0  0  0  0
  -18.7390  -26.0590   21.8070 C   0  0  0  0  0  2  0  0  0  0  0  0
  -19.4290  -28.2070   23.0260 C   0  0  0  0  0  0  0  0  0  0  0  0
  -19.0690  -29.4270   23.6380 C   0  0  0  0  0  3  0  0  0  0  0  0
  -17.7180  -29.8050   23.7500 C   0  0  0  0  0  3  0  0  0  0  0  0
  -16.7090  -28.9580   23.2600 C   0  0  0  0  0  3  0  0  0  0  0  0
  -17.0540  -27.7410   22.6460 C   0  0  0  0  0  3  0  0  0  0  0  0
  -26.1710  -32.0840   23.8200 C   0  0  0  0  0  3  0  0  0  0  0  0
  -26.7330  -31.2230   25.0180 C   0  0  1  0  0  0  0  0  0  0  0  0
  -25.6720  -30.8800   26.0900 C   0  0  0  0  0  1  0  0  0  0  0  0
  -27.3240  -29.8920   24.4950 C   0  0  0  0  0  1  0  0  0  0  0  0
  -27.8920  -31.9770   25.7110 C   0  0  0  0  0  1  0  0  0  0  0  0
  -25.8900  -33.4580   24.2580 N   0  0  0  0  0  0  0  0  0  0  0  0
  -26.1960  -34.5560   23.5530 C   0  0  0  0  0  0  0  0  0  0  0  0
  -26.8210  -34.5200   22.4900 O   0  0  0  0  0  0  0  0  0  0  0  0
  -25.3380  -33.5610   25.0970 H   0  0  0  0  0  0  0  0  0  0  0  0
  -24.4600  -36.3660   23.3910 C   0  0  0  0  0  1  0  0  0  0  0  0
  -25.7330  -35.9110   24.1200 C   0  0  0  0  0  3  0  0  0  0  0  0
  -27.9070  -36.7400   24.9090 C   0  0  0  0  0  1  0  0  0  0  0  0
  -26.7620  -36.9700   24.0320 N   0  0  0  0  0  0  0  0  0  0  0  0
  -26.3630  -37.8760   24.2650 H   0  0  0  0  0  0  0  0  0  0  0  0
  2  4  1  0
  3  5  1  0
  3  2  2  0
  4  6  2  0
  4 12  1  0
  5  7  2  0
  6 11  1  0
  7  6  1  0
  7  1  1  0
  8  3  1  0
  9  5  1  0
 11 10  1  0
 12 50  1  0
 13 12  1  0
 14 19  1  0
 15 16  1  0
 15 14  1  0
 17 16  1  0
 17 24  1  0
 17 18  1  0
 19 13  1  0
 19 18  1  0
 20 13  2  0
 21 22  2  0
 22 41  1  0
 23 26  1  0
 23 22  1  0
 24 25  1  0
 24 21  1  0
 25 23  2  0
 26 27  1  0
 27 28  2  0
 29 32  1  0
 29 28  1  0
 30 29  2  0
 31 30  1  0
 31 26  2  0
 32 33  1  0
 33 38  2  0
 33 34  1  0
 34 35  2  0
 35 36  1  0
 36 40  1  0
 37 36  2  0
 38 37  1  0
 39 38  1  0
 41 42  1  0
 42 44  1  0
 42 45  1  0
 43 41  2  0
 46 21  1  0
 46 47  1  0
 48 46  1  0
 50 49  1  0
 51  1  1  0
 53 51  1  0
 53 52  1  0
 53 54  1  0
 54 55  1  0
 54 56  1  0
 57 54  1  0
 58 57  1  0
 58 59  1  0
 59 61  1  0
 60 71  2  0
 61 66  1  0
 62 70  1  0
 62 72  1  0
 63 69  1  0
 63 65  1  0
 64 70  1  0
 65 64  1  0
 66 65  2  0
 67 68  1  0
 67 61  2  0
 68 63  2  0
 69 62  1  0
 70 60  1  0
 72 74  2  0
 73 72  1  0
 75 73  1  0
 76 85  2  0
 76 81  1  0
 77 73  1  0
 77 81  1  0
 78 77  1  0
 79 80  1  0
 79 78  1  0
 80 76  1  0
 81 82  2  0
 82 83  1  0
 84 83  2  0
 85 84  1  0
 86 60  1  0
 86 91  1  0
 86 87  1  0
 87 90  1  1
 87 88  1  0
 89 87  1  0
 91 94  1  0
 92 96  1  0
 92 91  1  0
 93 92  2  0
 96 95  1  0
 98 96  1  0
 98 99  1  0
 98 97  1  0
M  ISO  4  12 100  13 100  58 101  59 101
M  END
>  <TORSDO>  (95) 
F 25

>  <SCORE>  (95) 
-6.055

>  <name>  (95) 
94

>  <ligand_id>  (95) 
94

>  <original_smiles>  (95) 
[H]c1c([H])c([H])c2c(c1[H])C([H])([H])C([H])([H])C([H])([H])C2([H])N([H])C(=O)C1([H])N(C(=O)C([H])(N([H])C(=O)C([H])(N([H])C([H])([H])[H])C([H])([H])[H])C(C([H])([H])[H])(C([H])([H])[H])C([H])([H])[H])C([H])([H])c2c([H])c(OC([H])([H])C([H])([H])[N+]([H])([H])C([H])(C([H])([H])[H])C([H])([H])C([H])([H])c3c(C([H])([H])[H])c(C([H])([H])[H])c([H])c(C([H])(C(=O)N4C([H])([H])C([H])([H])C([H])([H])C([H])(n5nc(-c6c([H])c([H])c(Oc7c([H])c([H])c(F)c([H])c7F)c([H])c6[H])c(C(=O)N([H])[H])c5N([H])[H])C4([H])[H])C([H])([H])C([H])([H])[H])c3C([H])([H])C([H])([H])[H])c([H])c([H])c2C1([H])[H]

>  <smiles>  (95) 
[H]c1c([H])c([H])c2c(c1[H])C([H])([H])C([H])([H])C([H])([H])C2([H])N([H])C(=O)C1([H])N(C(=O)C([H])(N([H])C(=O)C([H])(N([H])C([H])([H])[H])C([H])([H])[H])C(C([H])([H])[H])(C([H])([H])[H])C([H])([H])[H])C([H])([H])c2c([H])c(OC([H])([H])C([H])([H])[N+]([H])([H])C([H])(C([H])([H])[H])C([H])([H])C([H])([H])c3c(C([H])([H])[H])c(C([H])([H])[H])c([H])c(C([H])(C(=O)N4C([H])([H])C([H])([H])C([H])([H])C([H])(n5nc(-c6c([H])c([H])c(Oc7c([H])c([H])c(F)c([H])c7F)c([H])c6[H])c(C(=O)N([H])[H])c5N([H])[H])C4([H])[H])C([H])([H])C([H])([H])[H])c3C([H])([H])C([H])([H])[H])c([H])c([H])c2C1([H])[H]

$$$$
95:0:0
     RDKit          3D

 92101  0  0  1  0  0  0  0  0999 V2000
  -31.5530  -23.4870   20.6840 C   0  0  0  0  0  3  0  0  0  0  0  0
  -31.2300  -22.1120   20.6930 C   0  0  0  0  0  3  0  0  0  0  0  0
  -30.5610  -24.4660   20.4660 C   0  0  0  0  0  3  0  0  0  0  0  0
  -28.9100  -22.6810   20.2770 C   0  0  0  0  0  3  0  0  0  0  0  0
  -29.9010  -21.6760   20.4970 C   0  0  0  0  0  0  0  0  0  0  0  0
  -29.2220  -24.0800   20.2570 C   0  0  0  0  0  0  0  0  0  0  0  0
  -30.1910  -19.3890   21.7280 C   0  0  0  0  0  2  0  0  0  0  0  0
  -29.9810  -19.3940   19.2320 C   0  0  0  0  0  2  0  0  0  0  0  0
  -29.8730  -17.8630   21.7490 C   0  0  0  0  0  2  0  0  0  0  0  0
  -29.6710  -17.8640   19.2600 C   0  0  0  0  0  2  0  0  0  0  0  0
  -29.5660  -20.1500   20.5240 C   0  0  0  0  0  3  0  0  0  0  0  0
  -30.3170  -17.1210   20.4610 C   0  0  0  0  0  3  0  0  0  0  0  0
  -30.6970  -14.6140   20.0460 C   0  0  0  0  0  0  0  0  0  0  0  0
  -30.3770  -12.4350   18.9160 C   0  0  0  0  0  2  0  0  0  0  0  0
  -29.3620  -12.6260   17.7680 C   0  0  0  0  0  2  0  0  0  0  0  0
  -27.9180  -12.4570   18.2820 C   0  0  0  0  0  2  0  0  0  0  0  0
  -27.6440  -13.2780   19.5730 C   0  0  0  0  0  3  0  0  0  0  0  0
  -28.7690  -13.0800   20.6130 C   0  0  0  0  0  2  0  0  0  0  0  0
  -30.0450  -13.4160   19.9640 N   0  0  0  0  0  0  0  0  0  0  0  0
  -31.8220  -14.7790   19.5650 O   0  0  0  0  0  0  0  0  0  0  0  0
  -29.9700  -15.6680   20.5020 N   0  0  0  0  0  0  0  0  0  0  0  0
  -29.0510  -15.4360   20.8490 H   0  0  0  0  0  0  0  0  0  0  0  0
  -25.2980  -13.8500   20.4560 C   0  0  0  0  0  0  0  0  0  0  0  0
  -24.2550  -13.0640   20.8650 C   0  0  0  0  0  0  0  0  0  0  0  0
  -24.7140  -11.7150   20.7590 C   0  0  0  0  0  0  0  0  0  0  0  0
  -26.3270  -12.9790   20.1290 N   0  0  0  0  0  0  0  0  0  0  0  0
  -25.9820  -11.6880   20.3690 N   0  0  0  0  0  0  0  0  0  0  0  0
  -24.0000  -10.4450   20.9510 C   0  0  0  0  0  0  0  0  0  0  0  0
  -24.4470   -9.4800   21.8800 C   0  0  0  0  0  3  0  0  0  0  0  0
  -23.7330   -8.2760   22.0580 C   0  0  0  0  0  3  0  0  0  0  0  0
  -22.5580   -8.0280   21.3100 C   0  0  0  0  0  0  0  0  0  0  0  0
  -22.1300   -8.9830   20.3710 C   0  0  0  0  0  3  0  0  0  0  0  0
  -22.8440  -10.1790   20.1890 C   0  0  0  0  0  3  0  0  0  0  0  0
  -21.8140   -6.8770   21.4000 O   0  0  0  0  0  0  0  0  0  0  0  0
  -21.7160   -6.1720   22.5730 C   0  0  0  0  0  0  0  0  0  0  0  0
  -21.2080   -6.7560   23.7530 C   0  0  0  0  0  3  0  0  0  0  0  0
  -21.0610   -5.9760   24.9170 C   0  0  0  0  0  3  0  0  0  0  0  0
  -21.4120   -4.6140   24.9020 C   0  0  0  0  0  0  0  0  0  0  0  0
  -21.9120   -4.0290   23.7260 C   0  0  0  0  0  3  0  0  0  0  0  0
  -22.0610   -4.8060   22.5640 C   0  0  0  0  0  0  0  0  0  0  0  0
  -22.5250   -4.2330   21.4270 F   0  0  0  0  0  0  0  0  0  0  0  0
  -21.2630   -3.8620   26.0180 F   0  0  0  0  0  0  0  0  0  0  0  0
  -22.8790  -13.5300   21.2390 C   0  0  0  0  0  0  0  0  0  0  0  0
  -22.2110  -12.8110   22.1360 N   0  0  0  0  0  0  0  0  0  0  0  0
  -22.4040  -14.5660   20.7740 O   0  0  0  0  0  0  0  0  0  0  0  0
  -22.6090  -11.9730   22.5330 H   0  0  0  0  0  0  0  0  0  0  0  0
  -21.2900  -13.1030   22.4290 H   0  0  0  0  0  0  0  0  0  0  0  0
  -25.4530  -15.2260   20.3120 N   0  0  0  0  0  0  0  0  0  0  0  0
  -24.6920  -15.8740   20.4840 H   0  0  0  0  0  0  0  0  0  0  0  0
  -26.2750  -15.6760   19.9280 H   0  0  0  0  0  0  0  0  0  0  0  0
  -28.1240  -25.1280   19.9510 C   0  0  0  0  0  2  0  0  0  0  0  0
  -28.3710  -26.5520   20.2060 O   0  0  0  0  0  0  0  0  0  0  0  0
  -24.6360  -31.8760   23.2730 C   0  0  0  0  0  0  0  0  0  0  0  0
  -27.2470  -27.3870   20.1530 C   0  0  0  0  0  0  0  0  0  0  0  0
  -23.4290  -30.5020   21.6150 C   0  0  0  0  0  3  0  0  0  0  0  0
  -24.8760  -28.9780   20.1680 C   0  0  0  0  0  0  0  0  0  0  0  0
  -25.9660  -30.8280   21.4340 C   0  0  0  0  0  2  0  0  0  0  0  0
  -26.0450  -29.4620   20.7710 C   0  0  0  0  0  0  0  0  0  0  0  0
  -27.2320  -28.6770   20.7570 C   0  0  0  0  0  3  0  0  0  0  0  0
  -26.0530  -26.9560   19.5210 C   0  0  0  0  0  3  0  0  0  0  0  0
  -24.8820  -27.7280   19.5360 C   0  0  0  0  0  3  0  0  0  0  0  0
  -23.6390  -29.8460   20.2260 C   0  0  0  0  0  2  0  0  0  0  0  0
  -24.6960  -31.0840   22.1650 N   0  0  0  0  0  0  0  0  0  0  0  0
  -23.5530  -32.1490   23.8110 O   0  0  0  0  0  0  0  0  0  0  0  0
  -22.7670  -29.4710   22.5610 C   0  0  0  0  0  0  0  0  0  0  0  0
  -21.4420  -29.2970   22.4290 N   0  0  0  0  0  0  0  0  0  0  0  0
  -23.4440  -28.8330   23.3700 O   0  0  0  0  0  0  0  0  0  0  0  0
  -20.9550  -29.8640   21.7500 H   0  0  0  0  0  0  0  0  0  0  0  0
  -18.0580  -28.1170   22.9220 C   0  0  0  0  0  0  0  0  0  0  0  0
  -20.6190  -28.3530   23.1880 C   0  0  0  0  0  3  0  0  0  0  0  0
  -20.7080  -26.9300   22.5910 C   0  0  0  0  0  2  0  0  0  0  0  0
  -19.6010  -26.6300   21.5750 C   0  0  0  0  0  2  0  0  0  0  0  0
  -18.2210  -26.7760   22.2260 C   0  0  0  0  0  2  0  0  0  0  0  0
  -19.1830  -28.8650   23.3600 C   0  0  0  0  0  0  0  0  0  0  0  0
  -18.9760  -30.1200   23.9700 C   0  0  0  0  0  3  0  0  0  0  0  0
  -17.6760  -30.6290   24.1470 C   0  0  0  0  0  3  0  0  0  0  0  0
  -16.5640  -29.8780   23.7270 C   0  0  0  0  0  3  0  0  0  0  0  0
  -16.7560  -28.6230   23.1200 C   0  0  0  0  0  3  0  0  0  0  0  0
  -25.9210  -32.4980   23.9020 C   0  0  0  0  0  3  0  0  0  0  0  0
  -25.6170  -33.8940   24.2430 N   0  0  0  0  0  0  0  0  0  0  0  0
  -25.9220  -34.9490   23.4760 C   0  0  0  0  0  0  0  0  0  0  0  0
  -26.5630  -34.8500   22.4260 O   0  0  0  0  0  0  0  0  0  0  0  0
  -25.0470  -34.0460   25.0630 H   0  0  0  0  0  0  0  0  0  0  0  0
  -24.1650  -36.7260   23.1910 C   0  0  0  0  0  1  0  0  0  0  0  0
  -25.4430  -36.3360   23.9500 C   0  0  0  0  0  3  0  0  0  0  0  0
  -27.6010  -37.2440   24.6910 C   0  0  0  0  0  1  0  0  0  0  0  0
  -26.4610  -37.3980   23.7910 N   0  0  0  0  0  0  0  0  0  0  0  0
  -26.0520  -38.3150   23.9490 H   0  0  0  0  0  0  0  0  0  0  0  0
  -26.4310  -31.7130   25.1710 C   0  0  1  0  0  0  0  0  0  0  0  0
  -25.3350  -31.4650   26.2330 C   0  0  0  0  0  1  0  0  0  0  0  0
  -27.0140  -30.3390   24.7670 C   0  0  0  0  0  1  0  0  0  0  0  0
  -27.5830  -32.4970   25.8450 C   0  0  0  0  0  1  0  0  0  0  0  0
  1  2  1  0
  3  1  2  0
  4  5  1  0
  5  2  2  0
  6  4  2  0
  6  3  1  0
  7  9  1  0
  8 10  1  0
  8 11  1  0
 10 12  1  0
 11  5  1  0
 11  7  1  0
 12 21  1  0
 12  9  1  0
 13 21  1  0
 14 19  1  0
 15 16  1  0
 15 14  1  0
 17 16  1  0
 17 26  1  0
 17 18  1  0
 19 13  1  0
 19 18  1  0
 20 13  2  0
 21 22  1  0
 23 24  2  0
 24 43  1  0
 25 24  1  0
 25 28  1  0
 26 27  1  0
 26 23  1  0
 27 25  2  0
 28 29  1  0
 29 30  2  0
 31 34  1  0
 31 30  1  0
 32 31  2  0
 33 32  1  0
 33 28  2  0
 34 35  1  0
 35 36  1  0
 36 37  2  0
 38 37  1  0
 38 42  1  0
 39 38  2  0
 40 35  2  0
 40 39  1  0
 41 40  1  0
 43 44  1  0
 44 47  1  0
 44 46  1  0
 45 43  2  0
 48 23  1  0
 48 49  1  0
 50 48  1  0
 51 52  1  0
 51  6  1  0
 53 64  2  0
 54 52  1  0
 54 59  1  0
 55 63  1  0
 55 65  1  0
 56 62  1  0
 56 58  1  0
 57 63  1  0
 58 57  1  0
 59 58  2  0
 60 61  1  0
 60 54  2  0
 61 56  2  0
 62 55  1  0
 63 53  1  0
 65 67  2  0
 66 65  1  0
 68 66  1  0
 69 78  2  0
 69 74  1  0
 70 66  1  0
 70 74  1  0
 71 70  1  0
 72 73  1  0
 72 71  1  0
 73 69  1  0
 74 75  2  0
 75 76  1  0
 77 76  2  0
 78 77  1  0
 79 53  1  0
 79 80  1  0
 79 89  1  0
 80 83  1  0
 81 85  1  0
 81 80  1  0
 82 81  2  0
 85 84  1  0
 87 88  1  0
 87 85  1  0
 87 86  1  0
 89 92  1  1
 89 90  1  0
 91 89  1  0
M  ISO  4  13 100  21 100  51 101  52 101
M  END
>  <TORSDO>  (96) 
F 18

>  <SCORE>  (96) 
-14.097

>  <name>  (96) 
95

>  <ligand_id>  (96) 
95

>  <original_smiles>  (96) 
[H]c1c([H])c([H])c2c(c1[H])C([H])([H])C([H])([H])C([H])([H])C2([H])N([H])C(=O)C1([H])N(C(=O)C([H])(N([H])C(=O)C([H])(N([H])C([H])([H])[H])C([H])([H])[H])C(C([H])([H])[H])(C([H])([H])[H])C([H])([H])[H])C([H])([H])c2c([H])c(OC([H])([H])c3c([H])c([H])c([H])c(C4([H])C([H])([H])C([H])([H])C([H])(N([H])C(=O)N5C([H])([H])C([H])([H])C([H])([H])C([H])(n6nc(-c7c([H])c([H])c(Oc8c([H])c([H])c(F)c([H])c8F)c([H])c7[H])c(C(=O)N([H])[H])c6N([H])[H])C5([H])[H])C([H])([H])C4([H])[H])c3[H])c([H])c([H])c2C1([H])[H]

>  <smiles>  (96) 
[H]c1c([H])c([H])c2c(c1[H])C([H])([H])C([H])([H])C([H])([H])C2([H])N([H])C(=O)C1([H])N(C(=O)C([H])(N([H])C(=O)C([H])(N([H])C([H])([H])[H])C([H])([H])[H])C(C([H])([H])[H])(C([H])([H])[H])C([H])([H])[H])C([H])([H])c2c([H])c(OC([H])([H])c3c([H])c([H])c([H])c(C4([H])C([H])([H])C([H])([H])C([H])(N([H])C(=O)N5C([H])([H])C([H])([H])C([H])([H])C([H])(n6nc(-c7c([H])c([H])c(Oc8c([H])c([H])c(F)c([H])c8F)c([H])c7[H])c(C(=O)N([H])[H])c6N([H])[H])C5([H])[H])C([H])([H])C4([H])[H])c3[H])c([H])c([H])c2C1([H])[H]

$$$$
97:0:0
     RDKit          3D

 92 90  0  0  1  0  0  0  0  0999 V2000
  -34.2380  -21.7900   15.6820 C   0  0  0  0  0  3  0  0  0  0  0  0
  -33.0510  -21.1250   15.2570 C   0  0  0  0  0  3  0  0  0  0  0  0
  -34.9190  -21.3940   13.3940 C   0  0  0  0  0  3  0  0  0  0  0  0
  -33.5920  -20.6060   12.8020 C   0  0  0  0  0  0  0  0  0  0  0  0
  -35.3400  -22.0620   14.8480 C   0  0  0  0  0  0  0  0  0  0  0  0
  -32.7320  -20.6300   13.9500 C   0  0  0  0  0  0  0  0  0  0  0  0
  -29.3970  -20.8500    8.1370 C   0  0  2  0  0  0  0  0  0  0  0  0
  -28.1210  -20.2970    7.3110 C   0  0  0  0  0  1  0  0  0  0  0  0
  -27.7600  -19.3240    8.8770 C   0  0  0  0  0  1  0  0  0  0  0  0
  -28.9590  -19.5730   10.2360 C   0  0  0  0  0  1  0  0  0  0  0  0
  -30.8310  -20.0240    9.8000 C   0  0  0  0  0 15  0  0  0  0  0  0
  -30.6160  -21.5800    8.6600 C   0  0  0  0  0  1  0  0  0  0  0  0
  -29.5170  -21.3670    7.3010 N   0  0  0  0  0  1  0  0  0  0  0  0
  -28.5090  -21.6720    8.9840 O   0  0  0  0  0  1  0  0  0  0  0  0
  -31.2660  -18.1410   11.0370 C   0  0  0  0  0 15  0  0  0  0  0  0
  -33.1280  -20.4900    9.3950 C   0  0  0  0  0 15  0  0  0  0  0  0
  -30.0600  -17.8630    9.1350 C   0  0  0  0  0 15  0  0  0  0  0  0
  -32.0590  -20.1560    7.5680 C   0  0  0  0  0 15  0  0  0  0  0  0
  -32.7190  -19.7070   11.2950 C   0  0  0  0  0  1  0  0  0  0  0  0
  -30.2480  -19.4080    7.7680 N   0  0  0  0  0 15  0  0  0  0  0  0
  -32.4750  -17.5800    7.7250 C   0  0  0  0  0  0  0  0  0  0  0  0
  -33.5360  -16.7130    7.7240 C   0  0  0  0  0  0  0  0  0  0  0  0
  -34.1890  -16.7110    8.9480 C   0  0  0  0  0  0  0  0  0  0  0  0
  -32.2430  -18.3110    8.8770 N   0  0  0  0  0  2  0  0  0  0  0  0
  -33.4090  -17.5680    9.6090 N   0  0  0  0  0  0  0  0  0  0  0  0
  -35.4360  -15.9390    9.3810 C   0  0  0  0  0  0  0  0  0  0  0  0
  -36.7740  -16.2270    8.9840 C   0  0  0  0  0  3  0  0  0  0  0  0
  -37.8980  -15.5710    9.5720 C   0  0  0  0  0  3  0  0  0  0  0  0
  -37.7230  -14.6020   10.5910 C   0  0  0  0  0  0  0  0  0  0  0  0
  -36.4080  -14.2920   10.9770 C   0  0  0  0  0  3  0  0  0  0  0  0
  -35.3000  -14.9420   10.3850 C   0  0  0  0  0  3  0  0  0  0  0  0
  -38.7370  -13.8880   11.2020 O   0  0  0  0  0  0  0  0  0  0  0  0
  -39.9430  -13.6260   10.5950 C   0  0  0  0  0  0  0  0  0  0  0  0
  -40.4160  -14.4030    9.5150 C   0  0  0  0  0  3  0  0  0  0  0  0
  -41.6910  -14.1450    8.9600 C   0  0  0  0  0  3  0  0  0  0  0  0
  -42.4960  -13.1160    9.4890 C   0  0  0  0  0  0  0  0  0  0  0  0
  -42.0340  -12.3510   10.5740 C   0  0  0  0  0  3  0  0  0  0  0  0
  -40.7670  -12.6100   11.1270 C   0  0  0  0  0  0  0  0  0  0  0  0
  -40.3440  -11.8840   12.1910 F   0  0  0  0  0  0  0  0  0  0  0  0
  -43.7130  -12.8600    8.9540 F   0  0  0  0  0  0  0  0  0  0  0  0
  -33.9010  -15.9220    6.5260 C   0  0  0  0  0  0  0  0  0  0  0  0
  -35.0330  -16.2060    5.9010 N   0  0  0  0  0  0  0  0  0  0  0  0
  -33.2130  -14.9460    6.2270 O   0  0  0  0  0  0  0  0  0  0  0  0
  -35.6190  -16.9850    6.1650 H   0  0  0  0  0  0  0  0  0  0  0  0
  -35.3200  -15.6160    5.1340 H   0  0  0  0  0  0  0  0  0  0  0  0
  -31.6320  -17.6080    6.6900 N   0  0  0  0  0  0  0  0  0  0  0  0
  -31.0510  -16.8030    6.9130 H   0  0  0  0  0  0  0  0  0  0  0  0
  -32.2280  -17.2870    5.9210 H   0  0  0  0  0  0  0  0  0  0  0  0
  -31.4630  -20.1490   13.8370 O   0  0  0  0  0  0  0  0  0  0  0  0
  -31.1420  -20.1290   12.9280 H   0  0  0  0  0  0  0  0  0  0  0  0
  -36.6630  -23.1860   15.6670 C   0  0  0  0  0  2  0  0  0  0  0  0
  -36.9450  -24.7370   16.5750 O   0  0  0  0  0  0  0  0  0  0  0  0
  -36.1740  -30.8840   21.3360 C   0  0  0  0  0  0  0  0  0  0  0  0
  -36.3550  -25.4840   17.8180 C   0  0  0  0  0  0  0  0  0  0  0  0
  -36.5190  -28.6050   22.1750 C   0  0  0  0  0  3  0  0  0  0  0  0
  -35.9370  -26.6310   20.5840 C   0  0  0  0  0  0  0  0  0  0  0  0
  -35.2070  -28.9190   19.9710 C   0  0  0  0  0  2  0  0  0  0  0  0
  -35.6420  -27.4670   19.5030 C   0  0  0  0  0  0  0  0  0  0  0  0
  -35.8310  -26.8900   18.1330 C   0  0  0  0  0  3  0  0  0  0  0  0
  -36.3950  -24.7590   19.0160 C   0  0  0  0  0  3  0  0  0  0  0  0
  -36.2450  -25.2880   20.3220 C   0  0  0  0  0  3  0  0  0  0  0  0
  -35.9250  -27.1800   22.0150 C   0  0  0  0  0  2  0  0  0  0  0  0
  -35.9620  -29.5350   21.1420 N   0  0  0  0  0  0  0  0  0  0  0  0
  -36.8250  -31.3140   22.3050 O   0  0  0  0  0  0  0  0  0  0  0  0
  -38.0710  -28.5520   22.1550 C   0  0  0  0  0  0  0  0  0  0  0  0
  -38.7200  -28.5150   23.3340 N   0  0  0  0  0  0  0  0  0  0  0  0
  -38.6710  -28.5270   21.0770 O   0  0  0  0  0  0  0  0  0  0  0  0
  -38.1690  -28.5560   24.1800 H   0  0  0  0  0  0  0  0  0  0  0  0
  -41.3320  -27.1380   25.4500 C   0  0  0  0  0  0  0  0  0  0  0  0
  -40.1720  -28.3930   23.5050 C   0  0  0  0  0  3  0  0  0  0  0  0
  -40.7460  -27.2850   22.5910 C   0  0  0  0  0  2  0  0  0  0  0  0
  -40.8440  -25.9220   23.2850 C   0  0  0  0  0  2  0  0  0  0  0  0
  -41.7470  -26.0110   24.5190 C   0  0  0  0  0  2  0  0  0  0  0  0
  -40.5800  -28.2480   24.9780 C   0  0  0  0  0  0  0  0  0  0  0  0
  -40.1990  -29.2520   25.8930 C   0  0  0  0  0  3  0  0  0  0  0  0
  -40.5530  -29.1620   27.2530 C   0  0  0  0  0  3  0  0  0  0  0  0
  -41.3070  -28.0670   27.7120 C   0  0  0  0  0  3  0  0  0  0  0  0
  -41.6990  -27.0610   26.8110 C   0  0  0  0  0  3  0  0  0  0  0  0
  -35.5980  -31.9550   20.3630 C   0  0  0  0  0  3  0  0  0  0  0  0
  -36.3320  -33.2190   20.5830 N   0  0  0  0  0  0  0  0  0  0  0  0
  -37.3760  -33.6480   19.8600 C   0  0  0  0  0  0  0  0  0  0  0  0
  -37.8600  -32.9830   18.9430 O   0  0  0  0  0  0  0  0  0  0  0  0
  -35.9490  -33.8410   21.2790 H   0  0  0  0  0  0  0  0  0  0  0  0
  -38.7590  -34.9440   21.5240 C   0  0  0  0  0  1  0  0  0  0  0  0
  -37.9780  -35.0290   20.2030 C   0  0  0  0  0  3  0  0  0  0  0  0
  -36.0390  -35.9380   21.4100 C   0  0  0  0  0  1  0  0  0  0  0  0
  -36.9690  -36.1070   20.2970 N   0  0  0  0  0  0  0  0  0  0  0  0
  -36.4280  -36.1730   19.4400 H   0  0  0  0  0  0  0  0  0  0  0  0
  -35.7150  -31.5320   18.8450 C   0  0  1  0  0  0  0  0  0  0  0  0
  -35.9250  -32.7220   17.8780 C   0  0  0  0  0  1  0  0  0  0  0  0
  -36.8870  -30.5500   18.6260 C   0  0  0  0  0  1  0  0  0  0  0  0
  -34.4340  -30.7830   18.4100 C   0  0  0  0  0  1  0  0  0  0  0  0
  2  1  1  0
  3  5  1  0
  4  3  2  0
  4  6  1  0
  5 51  1  0
  5  1  2  0
  6  2  2  0
  7 12  1  6
  7 14  1  0
  8  7  1  0
  9 10  1  0
 13  7  1  0
 19  4  1  0
 21 24  1  0
 22 21  2  0
 22 23  1  0
 23 26  1  0
 23 25  2  0
 24 25  1  0
 26 31  1  0
 27 26  2  0
 27 28  1  0
 28 29  2  0
 29 30  1  0
 29 32  1  0
 31 30  2  0
 33 38  1  0
 33 32  1  0
 34 33  2  0
 35 36  2  0
 35 34  1  0
 36 37  1  0
 37 38  2  0
 38 39  1  0
 40 36  1  0
 41 22  1  0
 42 44  1  0
 42 41  1  0
 43 41  2  0
 45 42  1  0
 46 47  1  0
 46 21  1  0
 48 46  1  0
 49  6  1  0
 50 49  1  0
 51 52  1  0
 52 54  1  0
 53 64  2  0
 54 59  2  0
 54 60  1  0
 55 65  1  0
 56 62  1  0
 57 63  1  0
 58 57  1  0
 58 56  2  0
 59 58  1  0
 60 61  2  0
 61 56  1  0
 62 55  1  0
 63 53  1  0
 63 55  1  0
 65 66  1  0
 66 68  1  0
 67 65  2  0
 69 78  1  0
 70 66  1  0
 70 74  1  0
 71 72  1  0
 71 70  1  0
 72 73  1  0
 73 69  1  0
 74 69  2  0
 74 75  1  0
 75 76  2  0
 76 77  1  0
 78 77  2  0
 79 80  1  0
 79 53  1  0
 80 83  1  0
 81 85  1  0
 81 80  1  0
 82 81  2  0
 85 87  1  0
 85 84  1  0
 87 86  1  0
 88 87  1  0
 89 79  1  0
 89 90  1  6
 91 89  1  0
 92 89  1  0
M  ISO  4   7 100  20 100  51 101  52 101
M  END
>  <TORSDO>  (97) 
F 18

>  <SCORE>  (97) 
-0.776

>  <name>  (97) 
97

>  <ligand_id>  (97) 
97

>  <original_smiles>  (97) 
[H]Oc1c([H])c([H])c(C([H])([H])Oc2c([H])c([H])c3c(c2[H])C([H])([H])N(C(=O)C([H])(N([H])C(=O)C([H])(N([H])C([H])([H])[H])C([H])([H])[H])C(C([H])([H])[H])(C([H])([H])[H])C([H])([H])[H])C([H])(C(=O)N([H])C2([H])c4c([H])c([H])c([H])c([H])c4C([H])([H])C([H])([H])C2([H])[H])C3([H])[H])c([H])c1C1([H])C([H])([H])C([H])([H])N(C(=O)N2C([H])([H])C([H])([H])C([H])([H])C([H])(n3nc(-c4c([H])c([H])c(Oc5c([H])c([H])c(F)c([H])c5F)c([H])c4[H])c(C(=O)N([H])[H])c3N([H])[H])C2([H])[H])C([H])([H])C1([H])[H]

>  <smiles>  (97) 
[H]Oc1c([H])c([H])c(C([H])([H])Oc2c([H])c([H])c3c(c2[H])C([H])([H])N(C(=O)C([H])(N([H])C(=O)C([H])(N([H])C([H])([H])[H])C([H])([H])[H])C(C([H])([H])[H])(C([H])([H])[H])C([H])([H])[H])C([H])(C(=O)N([H])C2([H])c4c([H])c([H])c([H])c([H])c4C([H])([H])C([H])([H])C2([H])[H])C3([H])[H])c([H])c1C1([H])C([H])([H])C([H])([H])N(C(=O)N2C([H])([H])C([H])([H])C([H])([H])C([H])(n3nc(-c4c([H])c([H])c(Oc5c([H])c([H])c(F)c([H])c5F)c([H])c4[H])c(C(=O)N([H])[H])c3N([H])[H])C2([H])[H])C([H])([H])C1([H])[H]

$$$$
98:0:0
     RDKit          3D

 95104  0  0  1  0  0  0  0  0999 V2000
  -32.1310  -23.1790   19.7090 C   0  0  0  0  0  3  0  0  0  0  0  0
  -30.9930  -25.3390   19.7770 C   0  0  0  0  0  3  0  0  0  0  0  0
  -29.7870  -23.2960   20.3620 C   0  0  0  0  0  3  0  0  0  0  0  0
  -32.1520  -24.5760   19.5340 C   0  0  0  0  0  0  0  0  0  0  0  0
  -30.9440  -22.5310   20.1040 C   0  0  0  0  0  0  0  0  0  0  0  0
  -29.8070  -24.7010   20.2170 C   0  0  0  0  0  0  0  0  0  0  0  0
  -33.4340  -25.2420   19.0870 C   0  0  0  0  0  1  0  0  0  0  0  0
  -30.9080  -21.0140   20.2080 C   0  0  0  0  0  2  0  0  0  0  0  0
  -31.3550  -20.4540   21.5720 C   0  0  0  0  0  2  0  0  0  0  0  0
  -30.2690  -19.6060   22.2690 C   0  0  0  0  0  2  0  0  0  0  0  0
  -31.3230  -15.9700   21.9020 C   0  0  0  0  0  2  0  0  0  0  0  0
  -29.2310  -16.4320   20.4370 C   0  0  0  0  0  2  0  0  0  0  0  0
  -30.9570  -17.2510   22.6710 C   0  0  0  0  0  2  0  0  0  0  0  0
  -29.0000  -17.6890   21.2840 C   0  0  0  0  0  2  0  0  0  0  0  0
  -30.1400  -15.3610   21.1050 C   0  0  0  0  0  3  0  0  0  0  0  0
  -30.2980  -18.2150   21.7580 N   0  0  1  0  0  4  0  0  0  0  0  0
  -30.8710  -18.2600   20.9310 H   0  0  0  0  0  0  0  0  0  0  0  0
  -30.6480  -14.3700   20.0150 C   0  0  0  0  0  0  0  0  0  0  0  0
  -30.2590  -12.3520   18.6330 C   0  0  0  0  0  2  0  0  0  0  0  0
  -29.2300  -12.6670   17.5270 C   0  0  0  0  0  2  0  0  0  0  0  0
  -27.7880  -12.4570   18.0360 C   0  0  0  0  0  2  0  0  0  0  0  0
  -27.5530  -13.2290   19.3590 C   0  0  0  0  0  3  0  0  0  0  0  0
  -28.6590  -12.8770   20.3710 C   0  0  0  0  0  2  0  0  0  0  0  0
  -29.9600  -13.2220   19.7800 N   0  0  0  0  0  0  0  0  0  0  0  0
  -31.6450  -14.6750   19.3450 O   0  0  0  0  0  0  0  0  0  0  0  0
  -25.2490  -13.9020   20.2910 C   0  0  0  0  0  0  0  0  0  0  0  0
  -24.2010  -13.1540   20.7500 C   0  0  0  0  0  0  0  0  0  0  0  0
  -24.6260  -11.7910   20.6580 C   0  0  0  0  0  0  0  0  0  0  0  0
  -26.2380  -12.9940   19.9400 N   0  0  0  0  0  0  0  0  0  0  0  0
  -25.8750  -11.7190   20.2250 N   0  0  0  0  0  0  0  0  0  0  0  0
  -23.8960  -10.5450   20.8940 C   0  0  0  0  0  0  0  0  0  0  0  0
  -24.3700   -9.5770   21.8040 C   0  0  0  0  0  3  0  0  0  0  0  0
  -23.6450   -8.3870   22.0260 C   0  0  0  0  0  3  0  0  0  0  0  0
  -22.4310   -8.1600   21.3360 C   0  0  0  0  0  0  0  0  0  0  0  0
  -21.9770   -9.1150   20.4090 C   0  0  0  0  0  3  0  0  0  0  0  0
  -22.7030  -10.2970   20.1880 C   0  0  0  0  0  3  0  0  0  0  0  0
  -21.6710   -7.0250   21.4650 O   0  0  0  0  0  0  0  0  0  0  0  0
  -21.6570   -6.2950   22.6270 C   0  0  0  0  0  0  0  0  0  0  0  0
  -21.2840   -6.8660   23.8620 C   0  0  0  0  0  3  0  0  0  0  0  0
  -21.2150   -6.0620   25.0180 C   0  0  0  0  0  3  0  0  0  0  0  0
  -21.5110   -4.6880   24.9390 C   0  0  0  0  0  0  0  0  0  0  0  0
  -21.8760   -4.1170   23.7080 C   0  0  0  0  0  3  0  0  0  0  0  0
  -21.9470   -4.9180   22.5560 C   0  0  0  0  0  0  0  0  0  0  0  0
  -22.2780   -4.3580   21.3680 F   0  0  0  0  0  0  0  0  0  0  0  0
  -21.4360   -3.9140   26.0460 F   0  0  0  0  0  0  0  0  0  0  0  0
  -22.8420  -13.6520   21.1510 C   0  0  0  0  0  0  0  0  0  0  0  0
  -22.1830  -12.9630   22.0730 N   0  0  0  0  0  0  0  0  0  0  0  0
  -22.3780  -14.6870   20.6720 O   0  0  0  0  0  0  0  0  0  0  0  0
  -22.5790  -12.1360   22.4900 H   0  0  0  0  0  0  0  0  0  0  0  0
  -21.2650  -13.2700   22.3620 H   0  0  0  0  0  0  0  0  0  0  0  0
  -25.4370  -15.2750   20.1260 N   0  0  0  0  0  0  0  0  0  0  0  0
  -24.6900  -15.9400   20.3020 H   0  0  0  0  0  0  0  0  0  0  0  0
  -26.2380  -15.6950   19.6760 H   0  0  0  0  0  0  0  0  0  0  0  0
  -28.5470  -25.4890   20.5470 C   0  0  0  0  0  2  0  0  0  0  0  0
  -28.5930  -26.8370   20.0800 O   0  0  0  0  0  0  0  0  0  0  0  0
  -24.6790  -31.8620   23.2100 C   0  0  0  0  0  0  0  0  0  0  0  0
  -27.3990  -27.5070   20.1080 C   0  0  0  0  0  0  0  0  0  0  0  0
  -23.4930  -30.4650   21.5360 C   0  0  0  0  0  3  0  0  0  0  0  0
  -24.9770  -28.9510   20.1110 C   0  0  0  0  0  0  0  0  0  0  0  0
  -26.0150  -30.8480   21.3770 C   0  0  0  0  0  2  0  0  0  0  0  0
  -26.1180  -29.4880   20.7260 C   0  0  0  0  0  0  0  0  0  0  0  0
  -27.3310  -28.7720   20.7270 C   0  0  0  0  0  3  0  0  0  0  0  0
  -26.2520  -26.9800   19.4800 C   0  0  0  0  0  3  0  0  0  0  0  0
  -25.0400  -27.6930   19.4850 C   0  0  0  0  0  3  0  0  0  0  0  0
  -23.7220  -29.7900   20.1560 C   0  0  0  0  0  2  0  0  0  0  0  0
  -24.7430  -31.0780   22.0950 N   0  0  0  0  0  0  0  0  0  0  0  0
  -23.5930  -32.1180   23.7480 O   0  0  0  0  0  0  0  0  0  0  0  0
  -22.8460  -29.4330   22.4860 C   0  0  0  0  0  0  0  0  0  0  0  0
  -21.5240  -29.2520   22.3500 N   0  0  0  0  0  0  0  0  0  0  0  0
  -23.5290  -28.8030   23.3000 O   0  0  0  0  0  0  0  0  0  0  0  0
  -21.0370  -29.8060   21.6590 H   0  0  0  0  0  0  0  0  0  0  0  0
  -18.1580  -28.0320   22.8280 C   0  0  0  0  0  0  0  0  0  0  0  0
  -20.7100  -28.3040   23.1090 C   0  0  0  0  0  3  0  0  0  0  0  0
  -20.8260  -26.8820   22.5200 C   0  0  0  0  0  2  0  0  0  0  0  0
  -19.7300  -26.5600   21.4990 C   0  0  0  0  0  2  0  0  0  0  0  0
  -18.3440  -26.6890   22.1380 C   0  0  0  0  0  2  0  0  0  0  0  0
  -19.2690  -28.7970   23.2690 C   0  0  0  0  0  0  0  0  0  0  0  0
  -19.0410  -30.0480   23.8790 C   0  0  0  0  0  3  0  0  0  0  0  0
  -17.7360  -30.5420   24.0460 C   0  0  0  0  0  3  0  0  0  0  0  0
  -16.6370  -29.7770   23.6160 C   0  0  0  0  0  3  0  0  0  0  0  0
  -16.8480  -28.5230   23.0170 C   0  0  0  0  0  3  0  0  0  0  0  0
  -25.9590  -32.4920   23.8450 C   0  0  0  0  0  3  0  0  0  0  0  0
  -25.6450  -33.8880   24.1740 N   0  0  0  0  0  0  0  0  0  0  0  0
  -25.9900  -34.9440   23.4240 C   0  0  0  0  0  0  0  0  0  0  0  0
  -26.6790  -34.8450   22.4040 O   0  0  0  0  0  0  0  0  0  0  0  0
  -25.0440  -34.0420   24.9690 H   0  0  0  0  0  0  0  0  0  0  0  0
  -24.2660  -36.7320   23.0390 C   0  0  0  0  0  1  0  0  0  0  0  0
  -25.4910  -36.3290   23.8750 C   0  0  0  0  0  3  0  0  0  0  0  0
  -27.6100  -37.2090   24.7560 C   0  0  0  0  0  1  0  0  0  0  0  0
  -26.5270  -37.3840   23.7880 N   0  0  0  0  0  0  0  0  0  0  0  0
  -26.1170  -38.3050   23.9300 H   0  0  0  0  0  0  0  0  0  0  0  0
  -26.4740  -31.7160   25.1190 C   0  0  1  0  0  0  0  0  0  0  0  0
  -25.3750  -31.4660   26.1780 C   0  0  0  0  0  1  0  0  0  0  0  0
  -27.0670  -30.3430   24.7260 C   0  0  0  0  0  1  0  0  0  0  0  0
  -27.6180  -32.5130   25.7870 C   0  0  0  0  0  1  0  0  0  0  0  0
  1  5  1  0
  2  6  2  0
  4  1  2  0
  4  2  1  0
  5  8  1  0
  5  3  2  0
  6  3  1  0
  6 54  1  0
  7  4  1  0
  8  9  1  0
  9 10  1  0
 11 13  1  0
 12 15  1  0
 12 14  1  0
 14 16  1  0
 15 18  1  0
 15 11  1  0
 16 10  1  0
 16 13  1  0
 16 17  1  6
 19 24  1  0
 20 21  1  0
 20 19  1  0
 22 21  1  0
 22 29  1  0
 22 23  1  0
 24 18  1  0
 24 23  1  0
 25 18  2  0
 26 27  2  0
 27 46  1  0
 28 27  1  0
 28 31  1  0
 29 30  1  0
 29 26  1  0
 30 28  2  0
 31 32  1  0
 32 33  2  0
 34 37  1  0
 34 33  1  0
 35 34  2  0
 36 35  1  0
 36 31  2  0
 37 38  1  0
 38 39  1  0
 39 40  2  0
 41 40  1  0
 41 45  1  0
 42 41  2  0
 43 38  2  0
 43 42  1  0
 44 43  1  0
 46 47  1  0
 47 50  1  0
 47 49  1  0
 48 46  2  0
 51 26  1  0
 51 52  1  0
 53 51  1  0
 55 57  1  0
 55 54  1  0
 56 67  2  0
 57 62  1  0
 58 66  1  0
 58 68  1  0
 59 65  1  0
 59 61  1  0
 60 66  1  0
 61 62  2  0
 61 60  1  0
 63 64  1  0
 63 57  2  0
 64 59  2  0
 65 58  1  0
 66 56  1  0
 68 70  2  0
 69 68  1  0
 71 69  1  0
 72 81  2  0
 72 77  1  0
 73 69  1  0
 73 77  1  0
 74 73  1  0
 75 76  1  0
 75 74  1  0
 76 72  1  0
 77 78  2  0
 78 79  1  0
 80 79  2  0
 81 80  1  0
 82 56  1  0
 82 83  1  0
 82 92  1  0
 83 86  1  0
 84 88  1  0
 84 83  1  0
 85 84  2  0
 88 87  1  0
 90 88  1  0
 90 91  1  0
 90 89  1  0
 92 95  1  1
 92 93  1  0
 94 92  1  0
M  ISO  4  15 100  18 100  54 101  55 101
M  END
>  <TORSDO>  (98) 
F 21

>  <SCORE>  (98) 
-12.326

>  <name>  (98) 
98

>  <ligand_id>  (98) 
98

>  <original_smiles>  (98) 
[H]c1c([H])c([H])c2c(c1[H])C([H])([H])C([H])([H])C([H])([H])C2([H])N([H])C(=O)C1([H])N(C(=O)C([H])(N([H])C(=O)C([H])(N([H])C([H])([H])[H])C([H])([H])[H])C(C([H])([H])[H])(C([H])([H])[H])C([H])([H])[H])C([H])([H])c2c([H])c(OC([H])([H])c3c([H])c(C([H])([H])[H])c([H])c(C([H])([H])C([H])([H])C([H])([H])[N+]4([H])C([H])([H])C([H])([H])C([H])(C(=O)N5C([H])([H])C([H])([H])C([H])([H])C([H])(n6nc(-c7c([H])c([H])c(Oc8c([H])c([H])c(F)c([H])c8F)c([H])c7[H])c(C(=O)N([H])[H])c6N([H])[H])C5([H])[H])C([H])([H])C4([H])[H])c3[H])c([H])c([H])c2C1([H])[H]

>  <smiles>  (98) 
[H]c1c([H])c([H])c2c(c1[H])C([H])([H])C([H])([H])C([H])([H])C2([H])N([H])C(=O)C1([H])N(C(=O)C([H])(N([H])C(=O)C([H])(N([H])C([H])([H])[H])C([H])([H])[H])C(C([H])([H])[H])(C([H])([H])[H])C([H])([H])[H])C([H])([H])c2c([H])c(OC([H])([H])c3c([H])c(C([H])([H])[H])c([H])c(C([H])([H])C([H])([H])C([H])([H])[N+]4([H])C([H])([H])C([H])([H])C([H])(C(=O)N5C([H])([H])C([H])([H])C([H])([H])C([H])(n6nc(-c7c([H])c([H])c(Oc8c([H])c([H])c(F)c([H])c8F)c([H])c7[H])c(C(=O)N([H])[H])c6N([H])[H])C5([H])[H])C([H])([H])C4([H])[H])c3[H])c([H])c([H])c2C1([H])[H]

$$$$
