0:0:0
     RDKit          3D

 96104  0  0  1  0  0  0  0  0999 V2000
  -28.8470  -23.6470   25.6520 C   0  0  0  0  0  2  0  0  0  0  0  0
  -29.1190  -22.2380   25.1420 C   0  0  0  0  0  2  0  0  0  0  0  0
  -29.5820  -24.5890   24.6860 C   0  0  0  0  0  2  0  0  0  0  0  0
  -30.2620  -22.3590   24.1240 C   0  0  0  0  0  3  0  0  0  0  0  0
  -30.0330  -23.7540   23.4580 C   0  0  0  0  0  3  0  0  0  0  0  0
  -29.0410  -23.7980   22.3400 N   0  0  0  0  0  4  0  0  0  0  0  0
  -28.2200  -23.2640   22.5910 H   0  0  0  0  0  0  0  0  0  0  0  0
  -29.4810  -23.3240   21.5650 H   0  0  0  0  0  0  0  0  0  0  0  0
  -28.6270  -25.1710   21.8790 C   0  0  0  0  0  2  0  0  0  0  0  0
  -28.2940  -25.2710   20.3610 C   0  0  0  0  0  2  0  0  0  0  0  0
  -28.2870  -26.6400   19.8970 O   0  0  0  0  0  0  0  0  0  0  0  0
  -24.5630  -31.7200   23.1840 C   0  0  0  0  0  0  0  0  0  0  0  0
  -27.1060  -27.3580   19.9280 C   0  0  0  0  0  0  0  0  0  0  0  0
  -23.3180  -30.3990   21.5070 C   0  0  0  0  0  3  0  0  0  0  0  0
  -24.7320  -28.8970   20.0070 C   0  0  0  0  0  0  0  0  0  0  0  0
  -25.8430  -30.7360   21.2860 C   0  0  0  0  0  2  0  0  0  0  0  0
  -25.9040  -29.3900   20.5940 C   0  0  0  0  0  0  0  0  0  0  0  0
  -27.0970  -28.6320   20.5400 C   0  0  0  0  0  3  0  0  0  0  0  0
  -25.9200  -26.8790   19.3340 C   0  0  0  0  0  3  0  0  0  0  0  0
  -24.7350  -27.6430   19.3750 C   0  0  0  0  0  3  0  0  0  0  0  0
  -23.4980  -29.7640   20.1000 C   0  0  0  0  0  2  0  0  0  0  0  0
  -24.5930  -30.9670   22.0500 N   0  0  0  0  0  0  0  0  0  0  0  0
  -23.4910  -31.9870   23.7500 O   0  0  0  0  0  0  0  0  0  0  0  0
  -22.6680  -29.3510   22.4360 C   0  0  0  0  0  0  0  0  0  0  0  0
  -21.3430  -29.1790   22.3080 N   0  0  0  0  0  0  0  0  0  0  0  0
  -23.3540  -28.6920   23.2220 O   0  0  0  0  0  0  0  0  0  0  0  0
  -20.8590  -29.7610   21.6380 H   0  0  0  0  0  0  0  0  0  0  0  0
  -17.9640  -27.9770   22.7600 C   0  0  0  0  0  0  0  0  0  0  0  0
  -20.5220  -28.2210   23.0450 C   0  0  0  0  0  3  0  0  0  0  0  0
  -20.6210  -26.8110   22.4210 C   0  0  0  0  0  2  0  0  0  0  0  0
  -19.5210  -26.5230   21.3940 C   0  0  0  0  0  2  0  0  0  0  0  0
  -18.1380  -26.6520   22.0400 C   0  0  0  0  0  2  0  0  0  0  0  0
  -19.0840  -28.7230   23.2150 C   0  0  0  0  0  0  0  0  0  0  0  0
  -18.8680  -29.9670   23.8460 C   0  0  0  0  0  3  0  0  0  0  0  0
  -17.5640  -30.4660   24.0270 C   0  0  0  0  0  3  0  0  0  0  0  0
  -16.4590  -29.7160   23.5920 C   0  0  0  0  0  3  0  0  0  0  0  0
  -16.6590  -28.4710   22.9670 C   0  0  0  0  0  3  0  0  0  0  0  0
  -25.8630  -32.3090   23.8140 C   0  0  0  0  0  3  0  0  0  0  0  0
  -26.4160  -31.4590   25.0250 C   0  0  1  0  0  0  0  0  0  0  0  0
  -25.3490  -31.1450   26.1020 C   0  0  0  0  0  1  0  0  0  0  0  0
  -26.9940  -30.1110   24.5300 C   0  0  0  0  0  1  0  0  0  0  0  0
  -27.5860  -32.2130   25.7020 C   0  0  0  0  0  1  0  0  0  0  0  0
  -25.5670  -33.6840   24.2390 N   0  0  0  0  0  0  0  0  0  0  0  0
  -25.9110  -34.7820   23.5540 C   0  0  0  0  0  0  0  0  0  0  0  0
  -26.5820  -34.7430   22.5200 O   0  0  0  0  0  0  0  0  0  0  0  0
  -24.9710  -33.7880   25.0470 H   0  0  0  0  0  0  0  0  0  0  0  0
  -24.2060  -36.6150   23.3070 C   0  0  0  0  0  1  0  0  0  0  0  0
  -25.4330  -36.1420   24.1020 C   0  0  0  0  0  3  0  0  0  0  0  0
  -27.5700  -36.9360   25.0140 C   0  0  0  0  0  1  0  0  0  0  0  0
  -26.4790  -37.1860   24.0750 N   0  0  0  0  0  0  0  0  0  0  0  0
  -26.0850  -38.0990   24.2800 H   0  0  0  0  0  0  0  0  0  0  0  0
  -30.3590  -21.0310   23.3240 C   0  0  0  0  0  2  0  0  0  0  0  0
  -31.5030  -20.8210   22.3000 C   0  0  0  0  0  2  0  0  0  0  0  0
  -31.8400  -19.3160   21.9910 C   0  0  0  0  0  2  0  0  0  0  0  0
  -31.0240  -18.4640   20.9410 C   0  0  0  0  0  3  0  0  0  0  0  0
  -30.0140  -20.0430   19.1210 C   0  0  0  0  0  1  0  0  0  0  0  0
  -29.7670  -19.2080   20.3970 C   0  0  0  0  0  2  0  0  0  0  0  0
  -30.7600  -16.9810   21.4620 C   0  0  0  0  0  2  0  0  0  0  0  0
  -31.1660  -14.7130   20.4730 C   0  0  0  0  0  0  0  0  0  0  0  0
  -30.8720  -12.4380   19.5480 C   0  0  0  0  0  2  0  0  0  0  0  0
  -29.9860  -12.4910   18.2820 C   0  0  0  0  0  2  0  0  0  0  0  0
  -28.5040  -12.3730   18.6690 C   0  0  0  0  0  2  0  0  0  0  0  0
  -28.0970  -13.3730   19.7840 C   0  0  0  0  0  3  0  0  0  0  0  0
  -29.0980  -13.3370   20.9680 C   0  0  0  0  0  2  0  0  0  0  0  0
  -30.4490  -13.5470   20.4220 N   0  0  0  0  0  0  0  0  0  0  0  0
  -32.3710  -14.7540   20.2270 O   0  0  0  0  0  0  0  0  0  0  0  0
  -29.9910  -16.3210   19.1640 C   0  0  0  0  0  1  0  0  0  0  0  0
  -30.4530  -15.8780   20.4880 N   0  0  0  0  0  0  0  0  0  0  0  0
  -25.6900  -14.0820   20.3460 C   0  0  0  0  0  0  0  0  0  0  0  0
  -24.5760  -13.3570   20.6780 C   0  0  0  0  0  0  0  0  0  0  0  0
  -24.9960  -11.9940   20.7290 C   0  0  0  0  0  0  0  0  0  0  0  0
  -26.7160  -13.1620   20.2080 N   0  0  0  0  0  0  0  0  0  0  0  0
  -26.2970  -11.9030   20.4940 N   0  0  0  0  0  0  0  0  0  0  0  0
  -24.2230  -10.7630   20.9300 C   0  0  0  0  0  0  0  0  0  0  0  0
  -24.5650   -9.8290   21.9320 C   0  0  0  0  0  3  0  0  0  0  0  0
  -23.7920   -8.6610   22.1150 C   0  0  0  0  0  3  0  0  0  0  0  0
  -22.6660   -8.4180   21.2920 C   0  0  0  0  0  0  0  0  0  0  0  0
  -22.3440   -9.3430   20.2810 C   0  0  0  0  0  3  0  0  0  0  0  0
  -23.1190  -10.5010   20.0990 C   0  0  0  0  0  3  0  0  0  0  0  0
  -21.8810   -7.2950   21.3730 O   0  0  0  0  0  0  0  0  0  0  0  0
  -21.7090   -6.6200   22.5560 C   0  0  0  0  0  0  0  0  0  0  0  0
  -21.1980   -7.2580   23.7080 C   0  0  0  0  0  3  0  0  0  0  0  0
  -20.9660   -6.5140   24.8800 C   0  0  0  0  0  3  0  0  0  0  0  0
  -21.2450   -5.1330   24.9040 C   0  0  0  0  0  0  0  0  0  0  0  0
  -21.7470   -4.4960   23.7570 C   0  0  0  0  0  3  0  0  0  0  0  0
  -21.9730   -5.2380   22.5840 C   0  0  0  0  0  0  0  0  0  0  0  0
  -22.4390   -4.6150   21.4740 F   0  0  0  0  0  0  0  0  0  0  0  0
  -21.0210   -4.4140   26.0290 F   0  0  0  0  0  0  0  0  0  0  0  0
  -23.1850  -13.8890   20.8520 C   0  0  0  0  0  0  0  0  0  0  0  0
  -22.3960  -13.2550   21.7140 N   0  0  0  0  0  0  0  0  0  0  0  0
  -22.8030  -14.8980   20.2640 O   0  0  0  0  0  0  0  0  0  0  0  0
  -22.7220  -12.4420   22.2140 H   0  0  0  0  0  0  0  0  0  0  0  0
  -21.4570  -13.5890   21.8750 H   0  0  0  0  0  0  0  0  0  0  0  0
  -25.8950  -15.4390   20.1270 N   0  0  0  0  0  0  0  0  0  0  0  0
  -25.1300  -16.1010   20.1980 H   0  0  0  0  0  0  0  0  0  0  0  0
  -26.7760  -15.8700   19.8770 H   0  0  0  0  0  0  0  0  0  0  0  0
  2  1  1  0
  3  1  1  0
  4 52  1  0
  4  2  1  0
  5  6  1  0
  5  4  1  0
  5  3  1  0
  6  7  1  0
  8  6  1  0
  9  6  1  0
 10  9  1  0
 11 13  1  0
 11 10  1  0
 12 23  2  0
 13 18  1  0
 14 22  1  0
 14 24  1  0
 15 21  1  0
 15 17  1  0
 16 22  1  0
 17 16  1  0
 18 17  2  0
 19 20  1  0
 19 13  2  0
 20 15  2  0
 21 14  1  0
 22 12  1  0
 24 26  2  0
 25 24  1  0
 27 25  1  0
 28 37  2  0
 28 33  1  0
 29 25  1  0
 29 33  1  0
 30 29  1  0
 31 32  1  0
 31 30  1  0
 32 28  1  0
 33 34  2  0
 34 35  1  0
 36 35  2  0
 37 36  1  0
 38 12  1  0
 38 43  1  0
 38 39  1  0
 39 42  1  1
 39 40  1  0
 41 39  1  0
 43 46  1  0
 44 48  1  0
 44 43  1  0
 45 44  2  0
 48 47  1  0
 50 48  1  0
 50 51  1  0
 50 49  1  0
 53 52  1  0
 54 53  1  0
 55 57  1  0
 55 58  1  0
 55 54  1  0
 56 57  1  0
 59 68  1  0
 60 65  1  0
 61 62  1  0
 61 60  1  0
 63 62  1  0
 63 72  1  0
 63 64  1  0
 65 59  1  0
 65 64  1  0
 66 59  2  0
 67 68  1  0
 68 58  1  0
 69 70  2  0
 70 71  1  0
 70 89  1  0
 71 74  1  0
 72 69  1  0
 72 73  1  0
 73 71  2  0
 74 75  1  0
 75 76  2  0
 77 80  1  0
 77 76  1  0
 78 77  2  0
 79 78  1  0
 79 74  2  0
 80 81  1  0
 81 86  2  0
 81 82  1  0
 82 83  2  0
 83 84  1  0
 84 88  1  0
 85 84  2  0
 86 85  1  0
 87 86  1  0
 89 90  1  0
 90 93  1  0
 90 92  1  0
 91 89  2  0
 94 95  1  0
 94 69  1  0
 96 94  1  0
M  ISO  4  10 101  11 101  59 100  68 100
M  END
>  <TORSDO>  (1) 
F 25

>  <SCORE>  (1) 
-7.475

>  <name>  (1) 
0

>  <ligand_id>  (1) 
0

>  <original_smiles>  (1) 
[H]c1c([H])c([H])c2c(c1[H])C([H])([H])C([H])([H])C([H])([H])C2([H])N([H])C(=O)C1([H])N(C(=O)C([H])(N([H])C(=O)C([H])(N([H])C([H])([H])[H])C([H])([H])[H])C(C([H])([H])[H])(C([H])([H])[H])C([H])([H])[H])C([H])([H])c2c([H])c(OC([H])([H])C([H])([H])[N+]([H])([H])C3([H])C([H])([H])C([H])([H])C([H])([H])C3([H])C([H])([H])C([H])([H])C([H])([H])C([H])(C([H])([H])N(C(=O)N3C([H])([H])C([H])([H])C([H])([H])C([H])(n4nc(-c5c([H])c([H])c(Oc6c([H])c([H])c(F)c([H])c6F)c([H])c5[H])c(C(=O)N([H])[H])c4N([H])[H])C3([H])[H])C([H])([H])[H])C([H])([H])C([H])([H])[H])c([H])c([H])c2C1([H])[H]

>  <smiles>  (1) 
[H]c1c([H])c([H])c2c(c1[H])C([H])([H])C([H])([H])C([H])([H])C2([H])N([H])C(=O)C1([H])N(C(=O)C([H])(N([H])C(=O)C([H])(N([H])C([H])([H])[H])C([H])([H])[H])C(C([H])([H])[H])(C([H])([H])[H])C([H])([H])[H])C([H])([H])c2c([H])c(OC([H])([H])C([H])([H])[N+]([H])([H])C3([H])C([H])([H])C([H])([H])C([H])([H])C3([H])C([H])([H])C([H])([H])C([H])([H])C([H])(C([H])([H])N(C(=O)N3C([H])([H])C([H])([H])C([H])([H])C([H])(n4nc(-c5c([H])c([H])c(Oc6c([H])c([H])c(F)c([H])c6F)c([H])c5[H])c(C(=O)N([H])[H])c4N([H])[H])C3([H])[H])C([H])([H])[H])C([H])([H])C([H])([H])[H])c([H])c([H])c2C1([H])[H]

$$$$
1:0:0
     RDKit          3D

 92101  0  0  1  0  0  0  0  0999 V2000
  -33.0580  -20.4600   21.5250 C   0  0  0  0  0  3  0  0  0  0  0  0
  -32.8070  -21.8210   21.5370 C   0  0  0  0  0  3  0  0  0  0  0  0
  -32.0260  -19.5830   21.2000 C   0  0  0  0  0  3  0  0  0  0  0  0
  -31.5440  -22.3130   21.1820 C   0  0  0  0  0  0  0  0  0  0  0  0
  -30.4410  -21.4570   20.8260 C   0  0  0  0  0  0  0  0  0  0  0  0
  -30.6950  -19.9840   20.8750 C   0  0  0  0  0  0  0  0  0  0  0  0
  -31.4720  -23.8310   21.2190 C   0  0  0  0  0  2  0  0  0  0  0  0
  -29.1110  -22.2530   20.4200 C   0  0  0  0  0  2  0  0  0  0  0  0
  -30.5120  -24.4030   20.2050 C   0  0  0  0  0  2  0  0  0  0  0  0
  -29.1170  -23.8930   20.5270 C   0  0  0  0  0  3  0  0  0  0  0  0
  -29.7340  -18.7160   20.6350 C   0  0  0  0  0  3  0  0  0  0  0  0
  -30.4460  -17.2330   20.6970 C   0  0  0  0  0  3  0  0  0  0  0  0
  -30.4920  -14.6950   20.2490 C   0  0  0  0  0  0  0  0  0  0  0  0
  -30.2230  -12.4670   19.1620 C   0  0  0  0  0  2  0  0  0  0  0  0
  -29.2500  -12.5940   17.9710 C   0  0  0  0  0  2  0  0  0  0  0  0
  -27.7920  -12.4180   18.4380 C   0  0  0  0  0  2  0  0  0  0  0  0
  -27.4630  -13.2450   19.7110 C   0  0  0  0  0  3  0  0  0  0  0  0
  -28.5610  -13.1260   20.7880 C   0  0  0  0  0  2  0  0  0  0  0  0
  -29.8300  -13.4940   20.1550 N   0  0  0  0  0  0  0  0  0  0  0  0
  -31.6730  -14.7670   19.8950 O   0  0  0  0  0  0  0  0  0  0  0  0
  -29.7950  -15.8590   20.5480 N   0  0  0  0  0  0  0  0  0  0  0  0
  -28.8090  -15.7760   20.7430 H   0  0  0  0  0  0  0  0  0  0  0  0
  -25.0970  -13.7930   20.5340 C   0  0  0  0  0  0  0  0  0  0  0  0
  -24.0510  -13.0020   20.9220 C   0  0  0  0  0  0  0  0  0  0  0  0
  -24.5230  -11.6560   20.8410 C   0  0  0  0  0  0  0  0  0  0  0  0
  -26.1390  -12.9290   20.2400 N   0  0  0  0  0  0  0  0  0  0  0  0
  -25.8030  -11.6360   20.4860 N   0  0  0  0  0  0  0  0  0  0  0  0
  -23.8100  -10.3840   21.0230 C   0  0  0  0  0  0  0  0  0  0  0  0
  -24.2720   -9.4000   21.9240 C   0  0  0  0  0  3  0  0  0  0  0  0
  -23.5590   -8.1950   22.0980 C   0  0  0  0  0  3  0  0  0  0  0  0
  -22.3660   -7.9650   21.3710 C   0  0  0  0  0  0  0  0  0  0  0  0
  -21.9220   -8.9370   20.4590 C   0  0  0  0  0  3  0  0  0  0  0  0
  -22.6360  -10.1340   20.2820 C   0  0  0  0  0  3  0  0  0  0  0  0
  -21.6210   -6.8120   21.4550 O   0  0  0  0  0  0  0  0  0  0  0  0
  -21.5980   -6.0520   22.5960 C   0  0  0  0  0  0  0  0  0  0  0  0
  -21.1660   -6.5760   23.8340 C   0  0  0  0  0  3  0  0  0  0  0  0
  -21.0930   -5.7400   24.9660 C   0  0  0  0  0  3  0  0  0  0  0  0
  -21.4400   -4.3800   24.8620 C   0  0  0  0  0  0  0  0  0  0  0  0
  -21.8640   -3.8550   23.6300 C   0  0  0  0  0  3  0  0  0  0  0  0
  -21.9410   -4.6880   22.5000 C   0  0  0  0  0  0  0  0  0  0  0  0
  -22.3310   -4.1720   21.3100 F   0  0  0  0  0  0  0  0  0  0  0  0
  -21.3630   -3.5760   25.9490 F   0  0  0  0  0  0  0  0  0  0  0  0
  -22.6620  -13.4630   21.2520 C   0  0  0  0  0  0  0  0  0  0  0  0
  -21.9650  -12.7400   22.1220 N   0  0  0  0  0  0  0  0  0  0  0  0
  -22.2030  -14.5000   20.7750 O   0  0  0  0  0  0  0  0  0  0  0  0
  -22.3480  -11.9000   22.5300 H   0  0  0  0  0  0  0  0  0  0  0  0
  -21.0350  -13.0330   22.3850 H   0  0  0  0  0  0  0  0  0  0  0  0
  -25.2410  -15.1690   20.3830 N   0  0  0  0  0  0  0  0  0  0  0  0
  -24.4590  -15.8020   20.5150 H   0  0  0  0  0  0  0  0  0  0  0  0
  -26.0630  -15.6310   20.0140 H   0  0  0  0  0  0  0  0  0  0  0  0
  -28.0610  -24.8780   19.8090 C   0  0  0  0  0  2  0  0  0  0  0  0
  -28.2320  -26.3620   20.0080 O   0  0  0  0  0  0  0  0  0  0  0  0
  -24.5450  -31.7800   23.0920 C   0  0  0  0  0  0  0  0  0  0  0  0
  -27.1280  -27.2380   19.9500 C   0  0  0  0  0  0  0  0  0  0  0  0
  -23.3330  -30.4100   21.4340 C   0  0  0  0  0  3  0  0  0  0  0  0
  -24.7740  -28.8810   19.9700 C   0  0  0  0  0  0  0  0  0  0  0  0
  -25.8740  -30.7200   21.2470 C   0  0  0  0  0  2  0  0  0  0  0  0
  -25.9480  -29.3500   20.5730 C   0  0  0  0  0  0  0  0  0  0  0  0
  -27.1270  -28.5400   20.5530 C   0  0  0  0  0  3  0  0  0  0  0  0
  -25.9380  -26.8400   19.3030 C   0  0  0  0  0  3  0  0  0  0  0  0
  -24.7740  -27.6350   19.3210 C   0  0  0  0  0  3  0  0  0  0  0  0
  -23.5410  -29.7570   20.0430 C   0  0  0  0  0  2  0  0  0  0  0  0
  -24.6030  -30.9860   21.9810 N   0  0  0  0  0  0  0  0  0  0  0  0
  -23.4660  -32.0450   23.6390 O   0  0  0  0  0  0  0  0  0  0  0  0
  -22.6750  -29.3780   22.3810 C   0  0  0  0  0  0  0  0  0  0  0  0
  -21.3430  -29.2260   22.2810 N   0  0  0  0  0  0  0  0  0  0  0  0
  -23.3620  -28.7180   23.1660 O   0  0  0  0  0  0  0  0  0  0  0  0
  -20.8460  -29.8020   21.6170 H   0  0  0  0  0  0  0  0  0  0  0  0
  -17.9550  -28.0920   22.8470 C   0  0  0  0  0  0  0  0  0  0  0  0
  -20.5260  -28.2810   23.0460 C   0  0  0  0  0  3  0  0  0  0  0  0
  -20.5780  -26.8680   22.4200 C   0  0  0  0  0  2  0  0  0  0  0  0
  -19.4390  -26.6080   21.4310 C   0  0  0  0  0  2  0  0  0  0  0  0
  -18.0800  -26.7630   22.1210 C   0  0  0  0  0  2  0  0  0  0  0  0
  -19.1050  -28.8120   23.2690 C   0  0  0  0  0  0  0  0  0  0  0  0
  -18.9320  -30.0600   23.9070 C   0  0  0  0  0  3  0  0  0  0  0  0
  -17.6450  -30.5820   24.1300 C   0  0  0  0  0  3  0  0  0  0  0  0
  -16.5110  -29.8560   23.7280 C   0  0  0  0  0  3  0  0  0  0  0  0
  -16.6680  -28.6130   23.0890 C   0  0  0  0  0  3  0  0  0  0  0  0
  -25.8310  -32.4060   23.7120 C   0  0  0  0  0  3  0  0  0  0  0  0
  -26.3490  -31.6220   24.9790 C   0  0  1  0  0  0  0  0  0  0  0  0
  -25.2590  -31.3730   26.0480 C   0  0  0  0  0  1  0  0  0  0  0  0
  -26.9260  -30.2470   24.5740 C   0  0  0  0  0  1  0  0  0  0  0  0
  -27.5030  -32.4070   25.6460 C   0  0  0  0  0  1  0  0  0  0  0  0
  -25.5230  -33.8020   24.0590 N   0  0  0  0  0  0  0  0  0  0  0  0
  -25.8580  -34.8640   23.3130 C   0  0  0  0  0  0  0  0  0  0  0  0
  -26.5250  -34.7700   22.2800 O   0  0  0  0  0  0  0  0  0  0  0  0
  -24.9300  -33.9470   24.8620 H   0  0  0  0  0  0  0  0  0  0  0  0
  -24.1430  -36.6740   22.9790 C   0  0  0  0  0  1  0  0  0  0  0  0
  -25.3770  -36.2480   23.7910 C   0  0  0  0  0  3  0  0  0  0  0  0
  -27.5070  -37.1140   24.6530 C   0  0  0  0  0  1  0  0  0  0  0  0
  -26.4160  -37.2970   23.7000 N   0  0  0  0  0  0  0  0  0  0  0  0
  -26.0120  -38.2180   23.8540 H   0  0  0  0  0  0  0  0  0  0  0  0
  1  2  1  0
  3  1  2  0
  4  7  1  0
  4  2  2  0
  5  6  2  0
  5  4  1  0
  6  3  1  0
  8 10  1  0
  8  5  1  0
  9 10  1  0
  9  7  1  0
 10 51  1  0
 11 12  2  0
 11  6  1  0
 13 21  1  0
 14 19  1  0
 15 16  1  0
 15 14  1  0
 17 16  1  0
 17 26  1  0
 17 18  1  0
 19 13  1  0
 19 18  1  0
 20 13  2  0
 21 12  1  0
 21 22  1  0
 23 24  2  0
 24 43  1  0
 25 24  1  0
 25 28  1  0
 26 27  1  0
 26 23  1  0
 27 25  2  0
 28 29  1  0
 29 30  2  0
 31 34  1  0
 31 30  1  0
 32 31  2  0
 33 32  1  0
 33 28  2  0
 34 35  1  0
 35 36  1  0
 36 37  2  0
 38 37  1  0
 38 42  1  0
 39 38  2  0
 40 35  2  0
 40 39  1  0
 41 40  1  0
 43 44  1  0
 44 47  1  0
 44 46  1  0
 45 43  2  0
 48 49  1  0
 48 23  1  0
 50 48  1  0
 51 52  1  0
 53 64  2  0
 54 52  1  0
 54 59  1  0
 55 63  1  0
 55 65  1  0
 56 62  1  0
 56 58  1  0
 57 63  1  0
 58 57  1  0
 59 58  2  0
 60 61  1  0
 60 54  2  0
 61 56  2  0
 62 55  1  0
 63 53  1  0
 65 67  2  0
 66 65  1  0
 68 66  1  0
 69 78  2  0
 69 74  1  0
 70 66  1  0
 70 74  1  0
 71 70  1  0
 72 73  1  0
 72 71  1  0
 73 69  1  0
 74 75  2  0
 75 76  1  0
 77 76  2  0
 78 77  1  0
 79 53  1  0
 79 84  1  0
 79 80  1  0
 80 83  1  1
 80 81  1  0
 82 80  1  0
 84 87  1  0
 85 89  1  0
 85 84  1  0
 86 85  2  0
 89 88  1  0
 91 89  1  0
 91 92  1  0
 91 90  1  0
M  ISO  4  13 100  21 100  51 101  52 101
M  END
>  <TORSDO>  (2) 
F 19

>  <SCORE>  (2) 
-13.556

>  <name>  (2) 
1

>  <ligand_id>  (2) 
1

>  <original_smiles>  (2) 
[H]c1c([H])c([H])c2c(c1[H])C([H])([H])C([H])([H])C([H])([H])C2([H])N([H])C(=O)C1([H])N(C(=O)C([H])(N([H])C(=O)C([H])(N([H])C([H])([H])[H])C([H])([H])[H])C(C([H])([H])[H])(C([H])([H])[H])C([H])([H])[H])C([H])([H])c2c([H])c(OC([H])([H])C3([H])C([H])([H])c4c(C([H])([H])C([H])([H])N([H])C(=O)N5C([H])([H])C([H])([H])C([H])([H])C([H])(n6nc(-c7c([H])c([H])c(Oc8c([H])c([H])c(F)c([H])c8F)c([H])c7[H])c(C(=O)N([H])[H])c6N([H])[H])C5([H])[H])c([H])c([H])c([H])c4C([H])([H])C3([H])[H])c([H])c([H])c2C1([H])[H]

>  <smiles>  (2) 
[H]c1c([H])c([H])c2c(c1[H])C([H])([H])C([H])([H])C([H])([H])C2([H])N([H])C(=O)C1([H])N(C(=O)C([H])(N([H])C(=O)C([H])(N([H])C([H])([H])[H])C([H])([H])[H])C(C([H])([H])[H])(C([H])([H])[H])C([H])([H])[H])C([H])([H])c2c([H])c(OC([H])([H])C3([H])C([H])([H])c4c(C([H])([H])C([H])([H])N([H])C(=O)N5C([H])([H])C([H])([H])C([H])([H])C([H])(n6nc(-c7c([H])c([H])c(Oc8c([H])c([H])c(F)c([H])c8F)c([H])c7[H])c(C(=O)N([H])[H])c6N([H])[H])C5([H])[H])c([H])c([H])c([H])c4C([H])([H])C3([H])[H])c([H])c([H])c2C1([H])[H]

$$$$
2:0:0
     RDKit          3D

 96104  0  0  1  0  0  0  0  0999 V2000
  -29.0940  -21.2020   23.2990 C   0  0  0  0  0  3  0  0  0  0  0  0
  -28.6450  -21.4240   21.9900 C   0  0  0  0  0  3  0  0  0  0  0  0
  -30.7280  -19.6350   22.4510 C   0  0  0  0  0  3  0  0  0  0  0  0
  -30.1520  -20.3160   23.5340 C   0  0  0  0  0  0  0  0  0  0  0  0
  -29.2230  -20.7830   20.8560 C   0  0  0  0  0  0  0  0  0  0  0  0
  -30.3010  -19.8390   21.1170 C   0  0  0  0  0  0  0  0  0  0  0  0
  -30.1670  -18.8320   25.5860 C   0  0  0  0  0  1  0  0  0  0  0  0
  -30.6890  -20.1200   24.9410 C   0  0  0  0  0  2  0  0  0  0  0  0
  -27.8210  -20.1850   18.7320 C   0  0  0  0  0  1  0  0  0  0  0  0
  -28.6740  -21.2510   19.4560 C   0  0  0  0  0  3  0  0  0  0  0  0
  -27.8200  -22.4900   19.5460 N   0  0  0  0  0  4  0  0  0  0  0  0
  -26.9930  -22.2940   19.0050 H   0  0  0  0  0  0  0  0  0  0  0  0
  -27.5260  -22.5210   20.5100 H   0  0  0  0  0  0  0  0  0  0  0  0
  -28.3510  -23.8490   19.1390 C   0  0  0  0  0  2  0  0  0  0  0  0
  -27.2480  -24.9750   19.2250 C   0  0  0  0  0  2  0  0  0  0  0  0
  -27.5860  -26.4050   19.1090 O   0  0  0  0  0  0  0  0  0  0  0  0
  -24.4620  -31.5620   23.0440 C   0  0  0  0  0  0  0  0  0  0  0  0
  -26.5160  -27.2970   19.2630 C   0  0  0  0  0  0  0  0  0  0  0  0
  -23.0340  -30.4140   21.3920 C   0  0  0  0  0  3  0  0  0  0  0  0
  -24.2520  -28.9860   19.6720 C   0  0  0  0  0  0  0  0  0  0  0  0
  -25.5550  -30.6540   20.9820 C   0  0  0  0  0  2  0  0  0  0  0  0
  -25.4990  -29.3570   20.1900 C   0  0  0  0  0  0  0  0  0  0  0  0
  -26.6370  -28.5260   19.9760 C   0  0  0  0  0  3  0  0  0  0  0  0
  -25.2380  -26.9790   18.7370 C   0  0  0  0  0  3  0  0  0  0  0  0
  -24.1190  -27.7990   18.9430 C   0  0  0  0  0  3  0  0  0  0  0  0
  -23.0770  -29.8990   19.9350 C   0  0  0  0  0  2  0  0  0  0  0  0
  -24.3760  -30.8840   21.8640 N   0  0  0  0  0  0  0  0  0  0  0  0
  -23.4480  -31.8200   23.7090 O   0  0  0  0  0  0  0  0  0  0  0  0
  -22.4140  -29.3180   22.2920 C   0  0  0  0  0  0  0  0  0  0  0  0
  -21.0830  -29.1520   22.2070 N   0  0  0  0  0  0  0  0  0  0  0  0
  -23.1250  -28.6250   23.0240 O   0  0  0  0  0  0  0  0  0  0  0  0
  -20.5670  -29.7710   21.5980 H   0  0  0  0  0  0  0  0  0  0  0  0
  -17.7350  -27.8580   22.6700 C   0  0  0  0  0  0  0  0  0  0  0  0
  -20.2910  -28.1560   22.9310 C   0  0  0  0  0  3  0  0  0  0  0  0
  -20.4160  -26.7600   22.2780 C   0  0  0  0  0  2  0  0  0  0  0  0
  -19.3120  -26.4680   21.2590 C   0  0  0  0  0  2  0  0  0  0  0  0
  -17.9340  -26.5500   21.9230 C   0  0  0  0  0  2  0  0  0  0  0  0
  -18.8430  -28.6210   23.1290 C   0  0  0  0  0  0  0  0  0  0  0  0
  -18.6060  -29.8480   23.7860 C   0  0  0  0  0  3  0  0  0  0  0  0
  -17.2940  -30.3120   23.9900 C   0  0  0  0  0  3  0  0  0  0  0  0
  -16.2010  -29.5460   23.5490 C   0  0  0  0  0  3  0  0  0  0  0  0
  -16.4210  -28.3210   22.8930 C   0  0  0  0  0  3  0  0  0  0  0  0
  -25.8290  -32.0640   23.5990 C   0  0  0  0  0  3  0  0  0  0  0  0
  -25.6610  -33.4690   23.9950 N   0  0  0  0  0  0  0  0  0  0  0  0
  -26.1160  -34.5170   23.2950 C   0  0  0  0  0  0  0  0  0  0  0  0
  -26.7960  -34.3950   22.2730 O   0  0  0  0  0  0  0  0  0  0  0  0
  -25.0730  -33.6450   24.7970 H   0  0  0  0  0  0  0  0  0  0  0  0
  -24.6290  -36.5170   22.9720 C   0  0  0  0  0  1  0  0  0  0  0  0
  -25.7670  -35.9240   23.8160 C   0  0  0  0  0  3  0  0  0  0  0  0
  -27.9320  -36.5090   24.8140 C   0  0  0  0  0  1  0  0  0  0  0  0
  -26.9180  -36.8530   23.8220 N   0  0  0  0  0  0  0  0  0  0  0  0
  -26.6070  -37.8040   24.0040 H   0  0  0  0  0  0  0  0  0  0  0  0
  -26.3590  -31.2020   24.8110 C   0  0  1  0  0  0  0  0  0  0  0  0
  -25.3240  -31.0160   25.9450 C   0  0  0  0  0  1  0  0  0  0  0  0
  -26.7870  -29.7980   24.3290 C   0  0  0  0  0  1  0  0  0  0  0  0
  -27.6200  -31.8650   25.4160 C   0  0  0  0  0  1  0  0  0  0  0  0
  -31.1740  -19.0780   20.0900 C   0  0  0  0  0  2  0  0  0  0  0  0
  -30.5390  -17.8380   19.3540 C   0  0  0  0  0  2  0  0  0  0  0  0
  -31.2190  -15.4160   19.7600 C   0  0  0  0  0  0  0  0  0  0  0  0
  -30.9690  -13.1000   18.9110 C   0  0  0  0  0  2  0  0  0  0  0  0
  -29.9990  -13.1430   17.7100 C   0  0  0  0  0  2  0  0  0  0  0  0
  -28.5390  -13.0170   18.1870 C   0  0  0  0  0  2  0  0  0  0  0  0
  -28.2100  -13.9700   19.3680 C   0  0  0  0  0  3  0  0  0  0  0  0
  -29.3010  -13.9200   20.4650 C   0  0  0  0  0  2  0  0  0  0  0  0
  -30.5950  -14.1990   19.8250 N   0  0  0  0  0  0  0  0  0  0  0  0
  -32.3370  -15.5430   19.2550 O   0  0  0  0  0  0  0  0  0  0  0  0
  -30.4620  -16.5110   20.0510 N   0  0  0  0  0  0  0  0  0  0  0  0
  -29.5870  -16.3110   20.5110 H   0  0  0  0  0  0  0  0  0  0  0  0
  -25.8800  -14.6170   20.2380 C   0  0  0  0  0  0  0  0  0  0  0  0
  -24.8070  -13.8650   20.6280 C   0  0  0  0  0  0  0  0  0  0  0  0
  -25.2140  -12.5010   20.5040 C   0  0  0  0  0  0  0  0  0  0  0  0
  -26.8780  -13.7130   19.9070 N   0  0  0  0  0  0  0  0  0  0  0  0
  -26.4840  -12.4330   20.1240 N   0  0  0  0  0  0  0  0  0  0  0  0
  -24.4510  -11.2580   20.6760 C   0  0  0  0  0  0  0  0  0  0  0  0
  -24.8780  -10.2450   21.5620 C   0  0  0  0  0  3  0  0  0  0  0  0
  -24.1180   -9.0670   21.7220 C   0  0  0  0  0  3  0  0  0  0  0  0
  -22.9140   -8.8940   20.9990 C   0  0  0  0  0  0  0  0  0  0  0  0
  -22.5060   -9.8960   20.1000 C   0  0  0  0  0  3  0  0  0  0  0  0
  -23.2670  -11.0650   19.9360 C   0  0  0  0  0  3  0  0  0  0  0  0
  -22.1230   -7.7740   21.0730 O   0  0  0  0  0  0  0  0  0  0  0  0
  -21.9410   -7.0980   22.2520 C   0  0  0  0  0  0  0  0  0  0  0  0
  -21.3910   -7.7210   23.3940 C   0  0  0  0  0  3  0  0  0  0  0  0
  -21.1600   -6.9700   24.5640 C   0  0  0  0  0  3  0  0  0  0  0  0
  -21.4680   -5.5960   24.5910 C   0  0  0  0  0  0  0  0  0  0  0  0
  -22.0090   -4.9720   23.4530 C   0  0  0  0  0  3  0  0  0  0  0  0
  -22.2440   -5.7220   22.2870 C   0  0  0  0  0  0  0  0  0  0  0  0
  -22.7460   -5.1120   21.1870 F   0  0  0  0  0  0  0  0  0  0  0  0
  -21.2390   -4.8720   25.7120 F   0  0  0  0  0  0  0  0  0  0  0  0
  -23.4450  -14.3770   21.0020 C   0  0  0  0  0  0  0  0  0  0  0  0
  -22.7560  -13.6840   21.9000 N   0  0  0  0  0  0  0  0  0  0  0  0
  -23.0070  -15.4280   20.5340 O   0  0  0  0  0  0  0  0  0  0  0  0
  -23.1220  -12.8290   22.2940 H   0  0  0  0  0  0  0  0  0  0  0  0
  -21.8440  -14.0060   22.1940 H   0  0  0  0  0  0  0  0  0  0  0  0
  -26.0860  -15.9880   20.1150 N   0  0  0  0  0  0  0  0  0  0  0  0
  -25.3500  -16.6580   20.3110 H   0  0  0  0  0  0  0  0  0  0  0  0
  -26.9360  -16.4200   19.7760 H   0  0  0  0  0  0  0  0  0  0  0  0
  1  4  1  0
  2  1  2  0
  3  4  2  0
  4  8  1  0
  5  6  2  0
  5  2  1  0
  6  3  1  0
  8  7  1  0
 10  9  1  0
 10 11  1  0
 10  5  1  0
 11 13  1  0
 12 11  1  0
 14 15  1  0
 14 11  1  0
 16 15  1  0
 16 18  1  0
 17 28  2  0
 18 23  1  0
 19 27  1  0
 19 29  1  0
 20 26  1  0
 20 22  1  0
 21 27  1  0
 22 21  1  0
 23 22  2  0
 24 25  1  0
 24 18  2  0
 25 20  2  0
 26 19  1  0
 27 17  1  0
 29 31  2  0
 30 29  1  0
 32 30  1  0
 33 42  2  0
 33 38  1  0
 34 30  1  0
 34 38  1  0
 35 34  1  0
 36 37  1  0
 36 35  1  0
 37 33  1  0
 38 39  2  0
 39 40  1  0
 41 40  2  0
 42 41  1  0
 43 17  1  0
 43 44  1  0
 43 53  1  0
 44 47  1  0
 45 49  1  0
 45 44  1  0
 46 45  2  0
 49 48  1  0
 49 51  1  0
 51 52  1  0
 51 50  1  0
 53 56  1  1
 53 54  1  0
 55 53  1  0
 57  6  1  0
 58 67  1  0
 58 57  1  0
 59 65  1  0
 59 67  1  0
 60 65  1  0
 61 62  1  0
 61 60  1  0
 63 62  1  0
 63 72  1  0
 63 64  1  0
 65 64  1  0
 66 59  2  0
 67 68  1  0
 69 70  2  0
 70 89  1  0
 71 70  1  0
 71 74  1  0
 72 73  1  0
 72 69  1  0
 73 71  2  0
 74 75  1  0
 75 76  2  0
 77 80  1  0
 77 76  1  0
 78 77  2  0
 79 78  1  0
 79 74  2  0
 80 81  1  0
 81 86  2  0
 81 82  1  0
 82 83  2  0
 83 84  1  0
 84 88  1  0
 85 84  2  0
 86 85  1  0
 87 86  1  0
 89 90  1  0
 90 93  1  0
 90 92  1  0
 91 89  2  0
 94 69  1  0
 94 95  1  0
 96 94  1  0
M  ISO  4  15 101  16 101  59 100  67 100
M  END
>  <TORSDO>  (3) 
F 23

>  <SCORE>  (3) 
-6.923

>  <name>  (3) 
2

>  <ligand_id>  (3) 
2

>  <original_smiles>  (3) 
[H]c1c([H])c([H])c2c(c1[H])C([H])([H])C([H])([H])C([H])([H])C2([H])N([H])C(=O)C1([H])N(C(=O)C([H])(N([H])C(=O)C([H])(N([H])C([H])([H])[H])C([H])([H])[H])C(C([H])([H])[H])(C([H])([H])[H])C([H])([H])[H])C([H])([H])c2c([H])c(OC([H])([H])C([H])([H])[N+]([H])([H])C([H])(c3c([H])c([H])c(C([H])([H])C([H])([H])[H])c([H])c3C([H])([H])C([H])([H])N([H])C(=O)N3C([H])([H])C([H])([H])C([H])([H])C([H])(n4nc(-c5c([H])c([H])c(Oc6c([H])c([H])c(F)c([H])c6F)c([H])c5[H])c(C(=O)N([H])[H])c4N([H])[H])C3([H])[H])C([H])([H])[H])c([H])c([H])c2C1([H])[H]

>  <smiles>  (3) 
[H]c1c([H])c([H])c2c(c1[H])C([H])([H])C([H])([H])C([H])([H])C2([H])N([H])C(=O)C1([H])N(C(=O)C([H])(N([H])C(=O)C([H])(N([H])C([H])([H])[H])C([H])([H])[H])C(C([H])([H])[H])(C([H])([H])[H])C([H])([H])[H])C([H])([H])c2c([H])c(OC([H])([H])C([H])([H])[N+]([H])([H])C([H])(c3c([H])c([H])c(C([H])([H])C([H])([H])[H])c([H])c3C([H])([H])C([H])([H])N([H])C(=O)N3C([H])([H])C([H])([H])C([H])([H])C([H])(n4nc(-c5c([H])c([H])c(Oc6c([H])c([H])c(F)c([H])c6F)c([H])c5[H])c(C(=O)N([H])[H])c4N([H])[H])C3([H])[H])C([H])([H])[H])c([H])c([H])c2C1([H])[H]

$$$$
3:0:0
     RDKit          3D

 94102  0  0  1  0  0  0  0  0999 V2000
  -26.8950  -24.2860   20.0810 C   0  0  0  0  0  3  0  0  0  0  0  0
  -26.8240  -23.0690   20.7800 C   0  0  0  0  0  3  0  0  0  0  0  0
  -29.2370  -22.8950   20.6660 C   0  0  0  0  0  3  0  0  0  0  0  0
  -28.1340  -24.8390   19.6680 C   0  0  0  0  0  0  0  0  0  0  0  0
  -29.3190  -24.1340   20.0080 C   0  0  0  0  0  0  0  0  0  0  0  0
  -27.9950  -22.3380   21.0290 C   0  0  0  0  0  0  0  0  0  0  0  0
  -30.7090  -24.6370   19.6600 C   0  0  0  0  0  1  0  0  0  0  0  0
  -27.8950  -21.0510   21.5740 N   0  0  0  0  0  0  0  0  0  0  0  0
  -26.9600  -20.6530   21.5790 H   0  0  0  0  0  0  0  0  0  0  0  0
  -28.9710  -20.1170   21.2560 C   0  0  0  0  0  2  0  0  0  0  0  0
  -29.1180  -19.8660   19.7370 C   0  0  0  0  0  2  0  0  0  0  0  0
  -30.3490  -19.0230   19.3720 C   0  0  0  0  0  2  0  0  0  0  0  0
  -30.3050  -17.6030   19.9420 C   0  0  0  0  0  2  0  0  0  0  0  0
  -31.6910  -16.9410   19.9400 C   0  0  0  0  0  2  0  0  0  0  0  0
  -32.0770  -14.5060   19.6960 C   0  0  0  0  0  0  0  0  0  0  0  0
  -31.5990  -12.2220   18.9270 C   0  0  0  0  0  2  0  0  0  0  0  0
  -30.5960  -12.2470   17.7540 C   0  0  0  0  0  2  0  0  0  0  0  0
  -29.1400  -12.3170   18.2510 C   0  0  0  0  0  2  0  0  0  0  0  0
  -28.9250  -13.4150   19.3220 C   0  0  0  0  0  3  0  0  0  0  0  0
  -29.9990  -13.2830   20.4250 C   0  0  0  0  0  2  0  0  0  0  0  0
  -31.3310  -13.3790   19.7890 N   0  0  0  0  0  0  0  0  0  0  0  0
  -33.1040  -14.6050   19.0160 O   0  0  0  0  0  0  0  0  0  0  0  0
  -31.5430  -15.5510   20.3320 N   0  0  0  0  0  0  0  0  0  0  0  0
  -30.7570  -15.3340   20.9260 H   0  0  0  0  0  0  0  0  0  0  0  0
  -26.7050  -14.4070   20.1900 C   0  0  0  0  0  0  0  0  0  0  0  0
  -25.5410  -13.8130   20.5950 C   0  0  0  0  0  0  0  0  0  0  0  0
  -25.7580  -12.4050   20.4860 C   0  0  0  0  0  0  0  0  0  0  0  0
  -27.5700  -13.3700   19.8680 N   0  0  0  0  0  0  0  0  0  0  0  0
  -27.0020  -12.1590   20.1020 N   0  0  0  0  0  0  0  0  0  0  0  0
  -24.8410  -11.2790   20.6780 C   0  0  0  0  0  0  0  0  0  0  0  0
  -25.1410  -10.2350   21.5800 C   0  0  0  0  0  3  0  0  0  0  0  0
  -24.2390   -9.1640   21.7620 C   0  0  0  0  0  3  0  0  0  0  0  0
  -23.0220   -9.1330   21.0410 C   0  0  0  0  0  0  0  0  0  0  0  0
  -22.7380  -10.1630   20.1270 C   0  0  0  0  0  3  0  0  0  0  0  0
  -23.6380  -11.2260   19.9440 C   0  0  0  0  0  3  0  0  0  0  0  0
  -22.0980   -8.1200   21.1320 O   0  0  0  0  0  0  0  0  0  0  0  0
  -21.9210   -7.4060   22.2910 C   0  0  0  0  0  0  0  0  0  0  0  0
  -21.5760   -8.0370   23.5060 C   0  0  0  0  0  3  0  0  0  0  0  0
  -21.3360   -7.2620   24.6570 C   0  0  0  0  0  3  0  0  0  0  0  0
  -21.4280   -5.8580   24.5950 C   0  0  0  0  0  0  0  0  0  0  0  0
  -21.7630   -5.2280   23.3830 C   0  0  0  0  0  3  0  0  0  0  0  0
  -22.0060   -6.0000   22.2330 C   0  0  0  0  0  0  0  0  0  0  0  0
  -22.3080   -5.3880   21.0630 F   0  0  0  0  0  0  0  0  0  0  0  0
  -21.1910   -5.1120   25.6980 F   0  0  0  0  0  0  0  0  0  0  0  0
  -24.2640  -14.5040   20.9800 C   0  0  0  0  0  0  0  0  0  0  0  0
  -23.4970  -13.9150   21.8910 N   0  0  0  0  0  0  0  0  0  0  0  0
  -23.9610  -15.5980   20.5070 O   0  0  0  0  0  0  0  0  0  0  0  0
  -23.7540  -13.0250   22.2920 H   0  0  0  0  0  0  0  0  0  0  0  0
  -22.6440  -14.3630   22.1950 H   0  0  0  0  0  0  0  0  0  0  0  0
  -27.0890  -15.7380   20.0500 N   0  0  0  0  0  0  0  0  0  0  0  0
  -26.4600  -16.5050   20.2650 H   0  0  0  0  0  0  0  0  0  0  0  0
  -27.9710  -16.0460   19.6670 H   0  0  0  0  0  0  0  0  0  0  0  0
  -28.1840  -26.1130   18.8010 C   0  0  0  0  0  2  0  0  0  0  0  0
  -28.2150  -27.3470   19.5270 O   0  0  0  0  0  0  0  0  0  0  0  0
  -24.7890  -32.0670   23.5790 C   0  0  0  0  0  0  0  0  0  0  0  0
  -27.0520  -28.0660   19.6980 C   0  0  0  0  0  0  0  0  0  0  0  0
  -23.4340  -30.9050   21.8940 C   0  0  0  0  0  3  0  0  0  0  0  0
  -24.7030  -29.5760   20.1360 C   0  0  0  0  0  0  0  0  0  0  0  0
  -25.9280  -31.2560   21.5190 C   0  0  0  0  0  2  0  0  0  0  0  0
  -25.9160  -29.9810   20.7070 C   0  0  0  0  0  0  0  0  0  0  0  0
  -27.0840  -29.2120   20.5220 C   0  0  0  0  0  3  0  0  0  0  0  0
  -25.8350  -27.7350   19.0590 C   0  0  0  0  0  3  0  0  0  0  0  0
  -24.6550  -28.4450   19.3130 C   0  0  0  0  0  3  0  0  0  0  0  0
  -23.4860  -30.4230   20.4190 C   0  0  0  0  0  2  0  0  0  0  0  0
  -24.7420  -31.4150   22.3890 N   0  0  0  0  0  0  0  0  0  0  0  0
  -23.7610  -32.2760   24.2390 O   0  0  0  0  0  0  0  0  0  0  0  0
  -22.8580  -29.7710   22.7660 C   0  0  0  0  0  0  0  0  0  0  0  0
  -21.5390  -29.6670   22.6670 N   0  0  0  0  0  0  0  0  0  0  0  0
  -23.5640  -29.0240   23.4430 O   0  0  0  0  0  0  0  0  0  0  0  0
  -21.1030  -30.4140   22.1430 H   0  0  0  0  0  0  0  0  0  0  0  0
  -18.1750  -28.0690   22.9210 C   0  0  0  0  0  0  0  0  0  0  0  0
  -20.6260  -28.6010   22.9820 C   0  0  0  0  0  3  0  0  0  0  0  0
  -20.9700  -27.1290   22.7340 C   0  0  0  0  0  2  0  0  0  0  0  0
  -19.9340  -26.5500   21.7460 C   0  0  0  0  0  2  0  0  0  0  0  0
  -18.4840  -26.7280   22.2500 C   0  0  0  0  0  2  0  0  0  0  0  0
  -19.2070  -28.9280   23.3720 C   0  0  0  0  0  0  0  0  0  0  0  0
  -18.8930  -30.1540   23.9920 C   0  0  0  0  0  3  0  0  0  0  0  0
  -17.5490  -30.5500   24.1220 C   0  0  0  0  0  3  0  0  0  0  0  0
  -16.5230  -29.7170   23.6440 C   0  0  0  0  0  3  0  0  0  0  0  0
  -16.8320  -28.4740   23.0600 C   0  0  0  0  0  3  0  0  0  0  0  0
  -26.1350  -32.5990   24.1570 C   0  0  0  0  0  3  0  0  0  0  0  0
  -25.9050  -33.9780   24.5970 N   0  0  0  0  0  0  0  0  0  0  0  0
  -26.2520  -35.0660   23.8960 C   0  0  0  0  0  0  0  0  0  0  0  0
  -26.8710  -35.0080   22.8310 O   0  0  0  0  0  0  0  0  0  0  0  0
  -25.3560  -34.1020   25.4350 H   0  0  0  0  0  0  0  0  0  0  0  0
  -24.6020  -36.9570   23.7310 C   0  0  0  0  0  1  0  0  0  0  0  0
  -25.8460  -36.4370   24.4690 C   0  0  0  0  0  3  0  0  0  0  0  0
  -28.0480  -37.1500   25.2870 C   0  0  0  0  0  1  0  0  0  0  0  0
  -26.9260  -37.4450   24.4000 N   0  0  0  0  0  0  0  0  0  0  0  0
  -26.5720  -38.3700   24.6310 H   0  0  0  0  0  0  0  0  0  0  0  0
  -26.6910  -31.7110   25.3340 C   0  0  1  0  0  0  0  0  0  0  0  0
  -25.6510  -31.4320   26.4450 C   0  0  0  0  0  1  0  0  0  0  0  0
  -27.1920  -30.3470   24.8030 C   0  0  0  0  0  1  0  0  0  0  0  0
  -27.9100  -32.4090   25.9780 C   0  0  0  0  0  1  0  0  0  0  0  0
  1  2  1  0
  2  6  2  0
  3  6  1  0
  4  5  1  0
  4  1  2  0
  5  3  2  0
  6  8  1  0
  7  5  1  0
  8  9  1  0
 10  8  1  0
 11 10  1  0
 12 11  1  0
 12 13  1  0
 14 13  1  0
 14 23  1  0
 15 21  1  0
 15 23  1  0
 16 21  1  0
 17 18  1  0
 17 16  1  0
 19 18  1  0
 19 28  1  0
 19 20  1  0
 21 20  1  0
 22 15  2  0
 23 24  1  0
 25 26  2  0
 26 45  1  0
 27 26  1  0
 27 30  1  0
 28 29  1  0
 28 25  1  0
 29 27  2  0
 30 31  1  0
 31 32  2  0
 33 36  1  0
 33 32  1  0
 34 33  2  0
 35 34  1  0
 35 30  2  0
 36 37  1  0
 37 38  1  0
 38 39  2  0
 40 39  1  0
 40 44  1  0
 41 40  2  0
 42 37  2  0
 42 41  1  0
 43 42  1  0
 45 46  1  0
 46 49  1  0
 46 48  1  0
 47 45  2  0
 50 25  1  0
 50 51  1  0
 52 50  1  0
 53 54  1  0
 53  4  1  0
 54 56  1  0
 55 66  2  0
 56 61  1  0
 57 65  1  0
 57 67  1  0
 58 64  1  0
 58 60  1  0
 59 65  1  0
 60 59  1  0
 61 60  2  0
 62 63  1  0
 62 56  2  0
 63 58  2  0
 64 57  1  0
 65 55  1  0
 67 69  2  0
 68 67  1  0
 70 68  1  0
 71 80  2  0
 71 76  1  0
 72 68  1  0
 72 76  1  0
 73 72  1  0
 74 75  1  0
 74 73  1  0
 75 71  1  0
 76 77  2  0
 77 78  1  0
 79 78  2  0
 80 79  1  0
 81 55  1  0
 81 82  1  0
 81 91  1  0
 82 85  1  0
 83 87  1  0
 83 82  1  0
 84 83  2  0
 87 86  1  0
 89 87  1  0
 89 90  1  0
 89 88  1  0
 91 94  1  1
 91 92  1  0
 93 91  1  0
M  ISO  4  15 100  23 100  53 101  54 101
M  END
>  <TORSDO>  (4) 
F 23

>  <SCORE>  (4) 
-10.725

>  <name>  (4) 
3

>  <ligand_id>  (4) 
3

>  <original_smiles>  (4) 
[H]c1c([H])c([H])c2c(c1[H])C([H])([H])C([H])([H])C([H])([H])C2([H])N([H])C(=O)C1([H])N(C(=O)C([H])(N([H])C(=O)C([H])(N([H])C([H])([H])[H])C([H])([H])[H])C(C([H])([H])[H])(C([H])([H])[H])C([H])([H])[H])C([H])([H])c2c([H])c(OC([H])([H])c3c([H])c([H])c(N([H])C([H])([H])C([H])([H])C([H])([H])C([H])([H])C([H])([H])N([H])C(=O)N4C([H])([H])C([H])([H])C([H])([H])C([H])(n5nc(-c6c([H])c([H])c(Oc7c([H])c([H])c(F)c([H])c7F)c([H])c6[H])c(C(=O)N([H])[H])c5N([H])[H])C4([H])[H])c([H])c3C([H])([H])[H])c([H])c([H])c2C1([H])[H]

>  <smiles>  (4) 
[H]c1c([H])c([H])c2c(c1[H])C([H])([H])C([H])([H])C([H])([H])C2([H])N([H])C(=O)C1([H])N(C(=O)C([H])(N([H])C(=O)C([H])(N([H])C([H])([H])[H])C([H])([H])[H])C(C([H])([H])[H])(C([H])([H])[H])C([H])([H])[H])C([H])([H])c2c([H])c(OC([H])([H])c3c([H])c([H])c(N([H])C([H])([H])C([H])([H])C([H])([H])C([H])([H])C([H])([H])N([H])C(=O)N4C([H])([H])C([H])([H])C([H])([H])C([H])(n5nc(-c6c([H])c([H])c(Oc7c([H])c([H])c(F)c([H])c7F)c([H])c6[H])c(C(=O)N([H])[H])c5N([H])[H])C4([H])[H])c([H])c3C([H])([H])[H])c([H])c([H])c2C1([H])[H]

$$$$
4:0:0
     RDKit          3D

 96104  0  0  1  0  0  0  0  0999 V2000
  -32.6210  -21.4340   18.8430 C   0  0  0  0  0  3  0  0  0  0  0  0
  -32.1780  -20.0970   18.8450 C   0  0  0  0  0  3  0  0  0  0  0  0
  -31.8860  -22.4240   18.1650 C   0  0  0  0  0  3  0  0  0  0  0  0
  -30.2640  -20.7380   17.4840 C   0  0  0  0  0  3  0  0  0  0  0  0
  -30.9900  -19.7400   18.1690 C   0  0  0  0  0  0  0  0  0  0  0  0
  -30.7030  -22.0820   17.4780 C   0  0  0  0  0  0  0  0  0  0  0  0
  -29.2930  -22.7310   15.4450 C   0  0  0  0  0  1  0  0  0  0  0  0
  -29.8800  -23.1700   16.7960 C   0  0  0  0  0  3  0  0  0  0  0  0
  -28.8250  -23.5700   17.7440 N   0  0  0  0  0  4  0  0  0  0  0  0
  -27.9250  -23.3200   17.3690 H   0  0  0  0  0  0  0  0  0  0  0  0
  -28.9800  -22.9950   18.5570 H   0  0  0  0  0  0  0  0  0  0  0  0
  -28.8240  -24.9900   18.1710 C   0  0  0  0  0  2  0  0  0  0  0  0
  -28.4250  -25.1120   19.6500 C   0  0  0  0  0  2  0  0  0  0  0  0
  -28.4040  -26.4800   20.0490 O   0  0  0  0  0  0  0  0  0  0  0  0
  -24.6680  -31.6140   23.1680 C   0  0  0  0  0  0  0  0  0  0  0  0
  -27.2160  -27.1730   20.0290 C   0  0  0  0  0  0  0  0  0  0  0  0
  -23.4300  -30.2670   21.5000 C   0  0  0  0  0  3  0  0  0  0  0  0
  -24.8460  -28.7140   20.0610 C   0  0  0  0  0  0  0  0  0  0  0  0
  -25.9620  -30.5710   21.3130 C   0  0  0  0  0  2  0  0  0  0  0  0
  -26.0130  -29.2080   20.6560 C   0  0  0  0  0  0  0  0  0  0  0  0
  -27.1960  -28.4470   20.6340 C   0  0  0  0  0  3  0  0  0  0  0  0
  -26.0270  -26.6830   19.4330 C   0  0  0  0  0  3  0  0  0  0  0  0
  -24.8470  -27.4490   19.4470 C   0  0  0  0  0  3  0  0  0  0  0  0
  -23.6250  -29.6000   20.1120 C   0  0  0  0  0  2  0  0  0  0  0  0
  -24.7050  -30.8300   22.0530 N   0  0  0  0  0  0  0  0  0  0  0  0
  -23.5930  -31.9070   23.7100 O   0  0  0  0  0  0  0  0  0  0  0  0
  -22.7490  -29.2500   22.4440 C   0  0  0  0  0  0  0  0  0  0  0  0
  -21.4180  -29.1240   22.3260 N   0  0  0  0  0  0  0  0  0  0  0  0
  -23.4160  -28.5770   23.2340 O   0  0  0  0  0  0  0  0  0  0  0  0
  -20.9420  -29.7180   21.6610 H   0  0  0  0  0  0  0  0  0  0  0  0
  -18.0000  -28.0790   22.8490 C   0  0  0  0  0  0  0  0  0  0  0  0
  -20.5710  -28.2020   23.0820 C   0  0  0  0  0  3  0  0  0  0  0  0
  -20.5930  -26.7870   22.4590 C   0  0  0  0  0  2  0  0  0  0  0  0
  -19.4610  -26.5510   21.4560 C   0  0  0  0  0  2  0  0  0  0  0  0
  -18.0990  -26.7430   22.1300 C   0  0  0  0  0  2  0  0  0  0  0  0
  -19.1610  -28.7700   23.2820 C   0  0  0  0  0  0  0  0  0  0  0  0
  -19.0160  -30.0250   23.9140 C   0  0  0  0  0  3  0  0  0  0  0  0
  -17.7420  -30.5870   24.1140 C   0  0  0  0  0  3  0  0  0  0  0  0
  -16.5940  -29.8910   23.6970 C   0  0  0  0  0  3  0  0  0  0  0  0
  -16.7240  -28.6360   23.0730 C   0  0  0  0  0  3  0  0  0  0  0  0
  -25.9690  -32.2010   23.8010 C   0  0  0  0  0  3  0  0  0  0  0  0
  -25.6910  -33.5970   24.1670 N   0  0  0  0  0  0  0  0  0  0  0  0
  -26.0410  -34.6600   23.4320 C   0  0  0  0  0  0  0  0  0  0  0  0
  -26.7040  -34.5680   22.3950 O   0  0  0  0  0  0  0  0  0  0  0  0
  -25.1090  -33.7450   24.9780 H   0  0  0  0  0  0  0  0  0  0  0  0
  -24.3490  -36.4950   23.1260 C   0  0  0  0  0  1  0  0  0  0  0  0
  -25.5820  -36.0450   23.9260 C   0  0  0  0  0  3  0  0  0  0  0  0
  -27.7340  -36.8650   24.7780 C   0  0  0  0  0  1  0  0  0  0  0  0
  -26.6350  -37.0790   23.8400 N   0  0  0  0  0  0  0  0  0  0  0  0
  -26.2480  -38.0040   24.0110 H   0  0  0  0  0  0  0  0  0  0  0  0
  -26.4760  -31.3830   25.0500 C   0  0  1  0  0  0  0  0  0  0  0  0
  -25.3860  -31.1370   26.1180 C   0  0  0  0  0  1  0  0  0  0  0  0
  -27.0280  -30.0080   24.6110 C   0  0  0  0  0  1  0  0  0  0  0  0
  -27.6430  -32.1360   25.7320 C   0  0  0  0  0  1  0  0  0  0  0  0
  -30.4650  -18.3100   18.1350 C   0  0  0  0  0  2  0  0  0  0  0  0
  -31.1190  -17.3320   19.1290 C   0  0  0  0  0  2  0  0  0  0  0  0
  -30.2620  -16.0650   19.3230 C   0  0  0  0  0  2  0  0  0  0  0  0
  -31.4210  -13.9520   19.5960 C   0  0  0  0  0  0  0  0  0  0  0  0
  -30.8630  -11.7530   18.6280 C   0  0  0  0  0  2  0  0  0  0  0  0
  -29.8410  -11.9380   17.4890 C   0  0  0  0  0  2  0  0  0  0  0  0
  -28.4000  -11.9630   18.0400 C   0  0  0  0  0  2  0  0  0  0  0  0
  -28.2340  -12.9260   19.2470 C   0  0  0  0  0  3  0  0  0  0  0  0
  -29.3520  -12.6920   20.2840 C   0  0  0  0  0  2  0  0  0  0  0  0
  -30.6480  -12.8350   19.5990 N   0  0  0  0  0  0  0  0  0  0  0  0
  -32.4860  -14.0350   18.9720 O   0  0  0  0  0  0  0  0  0  0  0  0
  -30.8690  -15.0380   20.1850 N   0  0  0  0  0  0  0  0  0  0  0  0
  -26.0210  -13.8250   20.2100 C   0  0  0  0  0  0  0  0  0  0  0  0
  -24.8960  -13.1860   20.6610 C   0  0  0  0  0  0  0  0  0  0  0  0
  -25.1620  -11.7890   20.5420 C   0  0  0  0  0  0  0  0  0  0  0  0
  -26.9070  -12.8210   19.8500 N   0  0  0  0  0  0  0  0  0  0  0  0
  -26.3980  -11.5890   20.1040 N   0  0  0  0  0  0  0  0  0  0  0  0
  -24.2920  -10.6280   20.7700 C   0  0  0  0  0  0  0  0  0  0  0  0
  -24.6390   -9.6180   21.6950 C   0  0  0  0  0  3  0  0  0  0  0  0
  -23.7820   -8.5170   21.9090 C   0  0  0  0  0  3  0  0  0  0  0  0
  -22.5620   -8.4200   21.1980 C   0  0  0  0  0  0  0  0  0  0  0  0
  -22.2310   -9.4180   20.2640 C   0  0  0  0  0  3  0  0  0  0  0  0
  -23.0870  -10.5100   20.0490 C   0  0  0  0  0  3  0  0  0  0  0  0
  -21.6770   -7.3750   21.3210 O   0  0  0  0  0  0  0  0  0  0  0  0
  -21.5490   -6.6750   22.4940 C   0  0  0  0  0  0  0  0  0  0  0  0
  -21.1810   -7.3080   23.7020 C   0  0  0  0  0  3  0  0  0  0  0  0
  -20.9940   -6.5400   24.8690 C   0  0  0  0  0  3  0  0  0  0  0  0
  -21.1640   -5.1430   24.8290 C   0  0  0  0  0  0  0  0  0  0  0  0
  -21.5240   -4.5110   23.6260 C   0  0  0  0  0  3  0  0  0  0  0  0
  -21.7140   -5.2760   22.4610 C   0  0  0  0  0  0  0  0  0  0  0  0
  -22.0410   -4.6600   21.3000 F   0  0  0  0  0  0  0  0  0  0  0  0
  -20.9740   -4.4050   25.9480 F   0  0  0  0  0  0  0  0  0  0  0  0
  -23.6100  -13.8330   21.0890 C   0  0  0  0  0  0  0  0  0  0  0  0
  -22.8940  -13.2180   22.0230 N   0  0  0  0  0  0  0  0  0  0  0  0
  -23.2580  -14.9180   20.6300 O   0  0  0  0  0  0  0  0  0  0  0  0
  -23.1940  -12.3370   22.4160 H   0  0  0  0  0  0  0  0  0  0  0  0
  -22.0340  -13.6330   22.3500 H   0  0  0  0  0  0  0  0  0  0  0  0
  -26.3540  -15.1670   20.0600 N   0  0  0  0  0  0  0  0  0  0  0  0
  -25.7000  -15.9120   20.2770 H   0  0  0  0  0  0  0  0  0  0  0  0
  -27.2300  -15.5030   19.6810 H   0  0  0  0  0  0  0  0  0  0  0  0
  -30.2370  -15.9680   22.4280 C   0  0  0  0  0  1  0  0  0  0  0  0
  -31.3650  -15.5090   21.4880 C   0  0  0  0  0  2  0  0  0  0  0  0
  1  2  1  0
  3  1  2  0
  4  5  1  0
  5  2  2  0
  6  4  2  0
  6  3  1  0
  8  7  1  0
  8  6  1  0
  8  9  1  0
  9 12  1  0
  9 11  1  0
 10  9  1  0
 12 13  1  0
 13 14  1  0
 15 26  2  0
 16 14  1  0
 16 21  1  0
 17 25  1  0
 17 27  1  0
 18 24  1  0
 18 20  1  0
 19 25  1  0
 20 19  1  0
 21 20  2  0
 22 23  1  0
 22 16  2  0
 23 18  2  0
 24 17  1  0
 25 15  1  0
 27 29  2  0
 28 27  1  0
 30 28  1  0
 31 40  2  0
 31 36  1  0
 32 28  1  0
 32 36  1  0
 33 32  1  0
 34 35  1  0
 34 33  1  0
 35 31  1  0
 36 37  2  0
 37 38  1  0
 39 38  2  0
 40 39  1  0
 41 15  1  0
 41 42  1  0
 41 51  1  0
 42 45  1  0
 43 47  1  0
 43 42  1  0
 44 43  2  0
 47 46  1  0
 49 47  1  0
 49 50  1  0
 49 48  1  0
 51 54  1  1
 51 52  1  0
 53 51  1  0
 55  5  1  0
 55 56  1  0
 56 57  1  0
 57 66  1  0
 58 64  1  0
 58 66  1  0
 59 64  1  0
 60 61  1  0
 60 59  1  0
 62 61  1  0
 62 70  1  0
 62 63  1  0
 64 63  1  0
 65 58  2  0
 66 96  1  0
 67 68  2  0
 68 87  1  0
 69 68  1  0
 69 72  1  0
 70 71  1  0
 70 67  1  0
 71 69  2  0
 72 73  1  0
 73 74  2  0
 75 78  1  0
 75 74  1  0
 76 75  2  0
 77 76  1  0
 77 72  2  0
 78 79  1  0
 79 80  1  0
 80 81  2  0
 82 81  1  0
 82 86  1  0
 83 82  2  0
 84 79  2  0
 84 83  1  0
 85 84  1  0
 87 88  1  0
 88 91  1  0
 88 90  1  0
 89 87  2  0
 92 67  1  0
 92 93  1  0
 94 92  1  0
 96 95  1  0
M  ISO  4  13 101  14 101  58 100  66 100
M  END
>  <TORSDO>  (5) 
F 24

>  <SCORE>  (5) 
-10.456

>  <name>  (5) 
4

>  <ligand_id>  (5) 
4

>  <original_smiles>  (5) 
[H]c1c([H])c([H])c2c(c1[H])C([H])([H])C([H])([H])C([H])([H])C2([H])N([H])C(=O)C1([H])N(C(=O)C([H])(N([H])C(=O)C([H])(N([H])C([H])([H])[H])C([H])([H])[H])C(C([H])([H])[H])(C([H])([H])[H])C([H])([H])[H])C([H])([H])c2c([H])c(OC([H])([H])C([H])([H])[N+]([H])([H])C([H])(c3c([H])c([H])c([H])c(C([H])([H])C([H])([H])C([H])([H])N(C(=O)N4C([H])([H])C([H])([H])C([H])([H])C([H])(n5nc(-c6c([H])c([H])c(Oc7c([H])c([H])c(F)c([H])c7F)c([H])c6[H])c(C(=O)N([H])[H])c5N([H])[H])C4([H])[H])C([H])([H])C([H])([H])[H])c3[H])C([H])([H])[H])c([H])c([H])c2C1([H])[H]

>  <smiles>  (5) 
[H]c1c([H])c([H])c2c(c1[H])C([H])([H])C([H])([H])C([H])([H])C2([H])N([H])C(=O)C1([H])N(C(=O)C([H])(N([H])C(=O)C([H])(N([H])C([H])([H])[H])C([H])([H])[H])C(C([H])([H])[H])(C([H])([H])[H])C([H])([H])[H])C([H])([H])c2c([H])c(OC([H])([H])C([H])([H])[N+]([H])([H])C([H])(c3c([H])c([H])c([H])c(C([H])([H])C([H])([H])C([H])([H])N(C(=O)N4C([H])([H])C([H])([H])C([H])([H])C([H])(n5nc(-c6c([H])c([H])c(Oc7c([H])c([H])c(F)c([H])c7F)c([H])c6[H])c(C(=O)N([H])[H])c5N([H])[H])C4([H])[H])C([H])([H])C([H])([H])[H])c3[H])C([H])([H])[H])c([H])c([H])c2C1([H])[H]

$$$$
5:0:0
     RDKit          3D

 87 95  0  0  1  0  0  0  0  0999 V2000
  -28.4660  -17.2720   19.8020 C   0  0  0  0  0  3  0  0  0  0  0  0
  -29.6840  -16.9240   20.3180 C   0  0  0  0  0  0  0  0  0  0  0  0
  -27.6220  -18.6060   20.1030 C   0  0  0  0  0  2  0  0  0  0  0  0
  -30.2780  -18.3230   20.9790 C   0  0  0  0  0  2  0  0  0  0  0  0
  -27.9140  -20.1510   19.6530 C   0  0  0  0  0  2  0  0  0  0  0  0
  -30.1330  -19.9910   20.4760 C   0  0  0  0  0  2  0  0  0  0  0  0
  -28.8730  -20.9850   20.4870 N   0  0  1  0  0  4  0  0  0  0  0  0
  -28.5220  -20.9420   21.4330 H   0  0  0  0  0  0  0  0  0  0  0  0
  -30.3960  -15.4270   20.1960 C   0  0  0  0  0  0  0  0  0  0  0  0
  -30.3440  -12.9600   19.3310 C   0  0  0  0  0  2  0  0  0  0  0  0
  -29.4150  -12.7100   18.1160 C   0  0  0  0  0  2  0  0  0  0  0  0
  -27.9810  -12.4100   18.5820 C   0  0  0  0  0  2  0  0  0  0  0  0
  -27.5290  -13.3830   19.6970 C   0  0  0  0  0  3  0  0  0  0  0  0
  -28.5890  -13.5970   20.7970 C   0  0  0  0  0  2  0  0  0  0  0  0
  -29.8020  -14.1200   20.1450 N   0  0  0  0  0  0  0  0  0  0  0  0
  -31.6160  -15.3320   19.9910 O   0  0  0  0  0  0  0  0  0  0  0  0
  -25.1850  -13.9190   20.5310 C   0  0  0  0  0  0  0  0  0  0  0  0
  -24.1330  -13.1350   20.9060 C   0  0  0  0  0  0  0  0  0  0  0  0
  -24.6000  -11.7860   20.8390 C   0  0  0  0  0  0  0  0  0  0  0  0
  -26.2210  -13.0500   20.2410 N   0  0  0  0  0  0  0  0  0  0  0  0
  -25.8840  -11.7590   20.4970 N   0  0  0  0  0  0  0  0  0  0  0  0
  -23.8770  -10.5200   21.0200 C   0  0  0  0  0  0  0  0  0  0  0  0
  -24.3070   -9.5460   21.9480 C   0  0  0  0  0  3  0  0  0  0  0  0
  -23.5790   -8.3490   22.1180 C   0  0  0  0  0  3  0  0  0  0  0  0
  -22.4070   -8.1160   21.3610 C   0  0  0  0  0  0  0  0  0  0  0  0
  -21.9950   -9.0790   20.4230 C   0  0  0  0  0  3  0  0  0  0  0  0
  -22.7240  -10.2670   20.2500 C   0  0  0  0  0  3  0  0  0  0  0  0
  -21.6510   -6.9720   21.4420 O   0  0  0  0  0  0  0  0  0  0  0  0
  -21.5750   -6.2390   22.6000 C   0  0  0  0  0  0  0  0  0  0  0  0
  -21.0620   -6.7880   23.7960 C   0  0  0  0  0  3  0  0  0  0  0  0
  -20.9370   -5.9790   24.9430 C   0  0  0  0  0  3  0  0  0  0  0  0
  -21.3130   -4.6250   24.8950 C   0  0  0  0  0  0  0  0  0  0  0  0
  -21.8190   -4.0750   23.7040 C   0  0  0  0  0  3  0  0  0  0  0  0
  -21.9460   -4.8810   22.5590 C   0  0  0  0  0  0  0  0  0  0  0  0
  -22.4140   -4.3410   21.4070 F   0  0  0  0  0  0  0  0  0  0  0  0
  -21.1850   -3.8460   25.9950 F   0  0  0  0  0  0  0  0  0  0  0  0
  -22.7420  -13.6080   21.2090 C   0  0  0  0  0  0  0  0  0  0  0  0
  -22.0300  -12.9000   22.0790 N   0  0  0  0  0  0  0  0  0  0  0  0
  -22.2950  -14.6400   20.7100 O   0  0  0  0  0  0  0  0  0  0  0  0
  -22.4060  -12.0660   22.5050 H   0  0  0  0  0  0  0  0  0  0  0  0
  -21.0970  -13.2000   22.3260 H   0  0  0  0  0  0  0  0  0  0  0  0
  -25.3440  -15.2950   20.3830 N   0  0  0  0  0  0  0  0  0  0  0  0
  -24.5820  -15.9440   20.5490 H   0  0  0  0  0  0  0  0  0  0  0  0
  -26.2000  -15.7520   20.1040 H   0  0  0  0  0  0  0  0  0  0  0  0
  -29.0390  -22.6600   20.1990 C   0  0  0  0  0  3  0  0  0  0  0  0
  -27.9800  -24.1520   20.3680 C   0  0  0  0  0  3  0  0  0  0  0  0
  -28.2040  -25.8190   20.2860 O   0  0  0  0  0  0  0  0  0  0  0  0
  -24.6350  -31.8830   23.2010 C   0  0  0  0  0  0  0  0  0  0  0  0
  -27.1920  -26.9350   20.2410 C   0  0  0  0  0  0  0  0  0  0  0  0
  -23.4470  -30.4730   21.5720 C   0  0  0  0  0  3  0  0  0  0  0  0
  -24.8990  -28.8490   20.1690 C   0  0  0  0  0  0  0  0  0  0  0  0
  -26.0170  -30.6710   21.4340 C   0  0  0  0  0  2  0  0  0  0  0  0
  -26.0880  -29.2500   20.7900 C   0  0  0  0  0  0  0  0  0  0  0  0
  -27.2280  -28.3170   20.7950 C   0  0  0  0  0  3  0  0  0  0  0  0
  -25.9700  -26.7000   19.5690 C   0  0  0  0  0  3  0  0  0  0  0  0
  -24.8690  -27.5960   19.5360 C   0  0  0  0  0  3  0  0  0  0  0  0
  -23.6820  -29.7770   20.2030 C   0  0  0  0  0  2  0  0  0  0  0  0
  -24.7220  -31.0380   22.1220 N   0  0  0  0  0  0  0  0  0  0  0  0
  -23.5440  -32.1770   23.7160 O   0  0  0  0  0  0  0  0  0  0  0  0
  -22.7480  -29.4870   22.5450 C   0  0  0  0  0  0  0  0  0  0  0  0
  -21.4180  -29.3200   22.4180 N   0  0  0  0  0  0  0  0  0  0  0  0
  -23.4110  -28.8710   23.3830 O   0  0  0  0  0  0  0  0  0  0  0  0
  -20.9350  -29.8680   21.7200 H   0  0  0  0  0  0  0  0  0  0  0  0
  -18.0320  -28.1240   22.9480 C   0  0  0  0  0  0  0  0  0  0  0  0
  -20.5950  -28.3870   23.1960 C   0  0  0  0  0  3  0  0  0  0  0  0
  -20.6890  -26.9530   22.6240 C   0  0  0  0  0  2  0  0  0  0  0  0
  -19.5800  -26.6300   21.6170 C   0  0  0  0  0  2  0  0  0  0  0  0
  -18.2020  -26.7760   22.2690 C   0  0  0  0  0  2  0  0  0  0  0  0
  -19.1540  -28.8880   23.3690 C   0  0  0  0  0  0  0  0  0  0  0  0
  -18.9370  -30.1480   23.9680 C   0  0  0  0  0  3  0  0  0  0  0  0
  -17.6320  -30.6450   24.1490 C   0  0  0  0  0  3  0  0  0  0  0  0
  -16.5260  -29.8800   23.7400 C   0  0  0  0  0  3  0  0  0  0  0  0
  -16.7270  -28.6220   23.1460 C   0  0  0  0  0  3  0  0  0  0  0  0
  -25.9020  -32.5340   23.8330 C   0  0  0  0  0  3  0  0  0  0  0  0
  -25.5810  -33.9380   24.1530 N   0  0  0  0  0  0  0  0  0  0  0  0
  -25.9110  -34.9930   23.3970 C   0  0  0  0  0  0  0  0  0  0  0  0
  -26.5790  -34.8880   22.3650 O   0  0  0  0  0  0  0  0  0  0  0  0
  -24.9850  -34.0910   24.9540 H   0  0  0  0  0  0  0  0  0  0  0  0
  -24.1920  -36.7990   23.0390 C   0  0  0  0  0  1  0  0  0  0  0  0
  -25.4280  -36.3850   23.8550 C   0  0  0  0  0  3  0  0  0  0  0  0
  -27.5550  -37.2730   24.7060 C   0  0  0  0  0  1  0  0  0  0  0  0
  -26.4660  -37.4350   23.7470 N   0  0  0  0  0  0  0  0  0  0  0  0
  -26.0600  -38.3580   23.8800 H   0  0  0  0  0  0  0  0  0  0  0  0
  -26.3980  -31.7860   25.1330 C   0  0  1  0  0  0  0  0  0  0  0  0
  -25.2900  -31.5680   26.1900 C   0  0  0  0  0  1  0  0  0  0  0  0
  -26.9870  -30.4010   24.7820 C   0  0  0  0  0  1  0  0  0  0  0  0
  -27.5400  -32.5910   25.7970 C   0  0  0  0  0  1  0  0  0  0  0  0
  1  3  1  0
  1  2  2  0
  2  4  1  0
  5  3  1  0
  5  7  1  0
  6  7  1  0
  6  4  1  0
  7  8  1  1
  9  2  1  0
 10 15  1  0
 11 12  1  0
 11 10  1  0
 13 12  1  0
 13 20  1  0
 13 14  1  0
 15  9  1  0
 15 14  1  0
 16  9  2  0
 17 18  2  0
 18 37  1  0
 19 18  1  0
 19 22  1  0
 20 21  1  0
 20 17  1  0
 21 19  2  0
 22 23  1  0
 23 24  2  0
 25 28  1  0
 25 24  1  0
 26 25  2  0
 27 26  1  0
 27 22  2  0
 28 29  1  0
 29 30  1  0
 30 31  2  0
 32 31  1  0
 32 36  1  0
 33 32  2  0
 34 29  2  0
 34 33  1  0
 35 34  1  0
 37 38  1  0
 38 41  1  0
 38 40  1  0
 39 37  2  0
 42 17  1  0
 42 43  1  0
 44 42  1  0
 45 46  2  0
 45  7  1  0
 47 46  1  0
 48 59  2  0
 49 47  1  0
 49 54  1  0
 50 58  1  0
 50 60  1  0
 51 57  1  0
 51 53  1  0
 52 58  1  0
 53 54  2  0
 53 52  1  0
 55 49  2  0
 56 55  1  0
 56 51  2  0
 57 50  1  0
 58 48  1  0
 60 62  2  0
 61 60  1  0
 63 61  1  0
 64 73  2  0
 64 69  1  0
 65 61  1  0
 65 69  1  0
 66 65  1  0
 67 68  1  0
 67 66  1  0
 68 64  1  0
 69 70  2  0
 70 71  1  0
 72 71  2  0
 73 72  1  0
 74 48  1  0
 74 75  1  0
 74 84  1  0
 75 78  1  0
 76 80  1  0
 76 75  1  0
 77 76  2  0
 80 79  1  0
 82 80  1  0
 82 83  1  0
 82 81  1  0
 84 87  1  1
 84 85  1  0
 86 84  1  0
M  ISO  4   2 100   9 100  46 101  47 101
M  END
>  <TORSDO>  (6) 
F 18

>  <SCORE>  (6) 
-16.261

>  <name>  (6) 
5

>  <ligand_id>  (6) 
5

>  <original_smiles>  (6) 
[H]C1=C(C(=O)N2C([H])([H])C([H])([H])C([H])([H])C([H])(n3nc(-c4c([H])c([H])c(Oc5c([H])c([H])c(F)c([H])c5F)c([H])c4[H])c(C(=O)N([H])[H])c3N([H])[H])C2([H])[H])C([H])([H])C([H])([H])[N+]([H])(C([H])([H])C([H])([H])Oc2c([H])c([H])c3c(c2[H])C([H])([H])N(C(=O)C([H])(N([H])C(=O)C([H])(N([H])C([H])([H])[H])C([H])([H])[H])C(C([H])([H])[H])(C([H])([H])[H])C([H])([H])[H])C([H])(C(=O)N([H])C2([H])c4c([H])c([H])c([H])c([H])c4C([H])([H])C([H])([H])C2([H])[H])C3([H])[H])C([H])([H])C1([H])[H]

>  <smiles>  (6) 
[H]C1=C(C(=O)N2C([H])([H])C([H])([H])C([H])([H])C([H])(n3nc(-c4c([H])c([H])c(Oc5c([H])c([H])c(F)c([H])c5F)c([H])c4[H])c(C(=O)N([H])[H])c3N([H])[H])C2([H])[H])C([H])([H])C([H])([H])[N+]([H])(C([H])([H])C([H])([H])Oc2c([H])c([H])c3c(c2[H])C([H])([H])N(C(=O)C([H])(N([H])C(=O)C([H])(N([H])C([H])([H])[H])C([H])([H])[H])C(C([H])([H])[H])(C([H])([H])[H])C([H])([H])[H])C([H])(C(=O)N([H])C2([H])c4c([H])c([H])c([H])c([H])c4C([H])([H])C([H])([H])C2([H])[H])C3([H])[H])C([H])([H])C1([H])[H]

$$$$
6:0:0
     RDKit          3D

 94102  0  0  1  0  0  0  0  0999 V2000
  -26.3340  -23.3870   22.4200 C   0  0  0  0  0  3  0  0  0  0  0  0
  -26.1900  -24.7310   22.7840 C   0  0  0  0  0  3  0  0  0  0  0  0
  -27.2290  -23.0510   21.3970 C   0  0  0  0  0  3  0  0  0  0  0  0
  -26.9040  -25.7180   22.0880 C   0  0  0  0  0  3  0  0  0  0  0  0
  -27.9750  -24.0200   20.6690 C   0  0  0  0  0  0  0  0  0  0  0  0
  -27.7390  -25.4290   20.9650 C   0  0  0  0  0  0  0  0  0  0  0  0
  -29.6260  -24.3870   18.6950 C   0  0  0  0  0  1  0  0  0  0  0  0
  -28.8950  -23.3700   19.5920 C   0  0  0  0  0  3  0  0  0  0  0  0
  -29.8660  -22.3860   20.2000 N   0  0  0  0  0  4  0  0  0  0  0  0
  -30.7600  -22.8460   20.1640 H   0  0  0  0  0  0  0  0  0  0  0  0
  -29.6530  -22.2920   21.1830 H   0  0  0  0  0  0  0  0  0  0  0  0
  -30.0680  -21.0040   19.6160 C   0  0  0  0  0  2  0  0  0  0  0  0
  -29.4700  -19.8090   20.4600 C   0  0  0  0  0  2  0  0  0  0  0  0
  -30.2550  -18.4450   20.6720 C   0  0  0  0  0  2  0  0  0  0  0  0
  -29.9970  -17.2210   19.7170 C   0  0  0  0  0  2  0  0  0  0  0  0
  -30.6850  -14.7920   20.2450 C   0  0  0  0  0  0  0  0  0  0  0  0
  -30.4640  -12.5470   19.2530 C   0  0  0  0  0  2  0  0  0  0  0  0
  -29.5220  -12.6810   18.0390 C   0  0  0  0  0  2  0  0  0  0  0  0
  -28.0470  -12.5410   18.4650 C   0  0  0  0  0  2  0  0  0  0  0  0
  -27.6870  -13.4060   19.7040 C   0  0  0  0  0  3  0  0  0  0  0  0
  -28.7500  -13.2630   20.8170 C   0  0  0  0  0  2  0  0  0  0  0  0
  -30.0640  -13.5750   20.2320 N   0  0  0  0  0  0  0  0  0  0  0  0
  -31.8600  -14.9320   19.8920 O   0  0  0  0  0  0  0  0  0  0  0  0
  -29.8720  -15.8750   20.3710 N   0  0  0  0  0  0  0  0  0  0  0  0
  -28.9410  -15.6490   20.6890 H   0  0  0  0  0  0  0  0  0  0  0  0
  -25.2840  -13.9930   20.4040 C   0  0  0  0  0  0  0  0  0  0  0  0
  -24.2210  -13.2160   20.7800 C   0  0  0  0  0  0  0  0  0  0  0  0
  -24.6940  -11.8700   20.7690 C   0  0  0  0  0  0  0  0  0  0  0  0
  -26.3370  -13.1210   20.1870 N   0  0  0  0  0  0  0  0  0  0  0  0
  -25.9870  -11.8390   20.4680 N   0  0  0  0  0  0  0  0  0  0  0  0
  -23.9790  -10.6010   20.9730 C   0  0  0  0  0  0  0  0  0  0  0  0
  -24.4110   -9.6510   21.9240 C   0  0  0  0  0  3  0  0  0  0  0  0
  -23.6930   -8.4500   22.1110 C   0  0  0  0  0  3  0  0  0  0  0  0
  -22.5290   -8.1890   21.3480 C   0  0  0  0  0  0  0  0  0  0  0  0
  -22.1200   -9.1290   20.3850 C   0  0  0  0  0  3  0  0  0  0  0  0
  -22.8380  -10.3220   20.1940 C   0  0  0  0  0  3  0  0  0  0  0  0
  -21.7840   -7.0380   21.4470 O   0  0  0  0  0  0  0  0  0  0  0  0
  -21.7360   -6.3130   22.6100 C   0  0  0  0  0  0  0  0  0  0  0  0
  -21.2860   -6.8800   23.8230 C   0  0  0  0  0  3  0  0  0  0  0  0
  -21.1810   -6.0790   24.9790 C   0  0  0  0  0  3  0  0  0  0  0  0
  -21.5140   -4.7130   24.9220 C   0  0  0  0  0  0  0  0  0  0  0  0
  -21.9510   -4.1430   23.7120 C   0  0  0  0  0  3  0  0  0  0  0  0
  -22.0560   -4.9420   22.5600 C   0  0  0  0  0  0  0  0  0  0  0  0
  -22.4610   -4.3850   21.3930 F   0  0  0  0  0  0  0  0  0  0  0  0
  -21.4040   -3.9390   26.0280 F   0  0  0  0  0  0  0  0  0  0  0  0
  -22.8170  -13.6830   21.0360 C   0  0  0  0  0  0  0  0  0  0  0  0
  -22.0860  -12.9910   21.9030 N   0  0  0  0  0  0  0  0  0  0  0  0
  -22.3730  -14.6990   20.4990 O   0  0  0  0  0  0  0  0  0  0  0  0
  -22.4520  -12.1720   22.3670 H   0  0  0  0  0  0  0  0  0  0  0  0
  -21.1410  -13.2860   22.1090 H   0  0  0  0  0  0  0  0  0  0  0  0
  -25.4330  -15.3610   20.1990 N   0  0  0  0  0  0  0  0  0  0  0  0
  -24.6540  -16.0080   20.2750 H   0  0  0  0  0  0  0  0  0  0  0  0
  -26.2650  -15.7970   19.8240 H   0  0  0  0  0  0  0  0  0  0  0  0
  -28.1490  -26.5610   20.2160 O   0  0  0  0  0  0  0  0  0  0  0  0
  -24.5530  -31.9620   23.2350 C   0  0  0  0  0  0  0  0  0  0  0  0
  -27.1470  -27.5140   20.0400 C   0  0  0  0  0  0  0  0  0  0  0  0
  -23.3370  -30.5910   21.5770 C   0  0  0  0  0  3  0  0  0  0  0  0
  -24.7830  -29.0970   20.0850 C   0  0  0  0  0  0  0  0  0  0  0  0
  -25.8680  -30.9330   21.3740 C   0  0  0  0  0  2  0  0  0  0  0  0
  -25.9520  -29.5760   20.6920 C   0  0  0  0  0  0  0  0  0  0  0  0
  -27.1400  -28.7910   20.6760 C   0  0  0  0  0  3  0  0  0  0  0  0
  -25.9730  -27.1000   19.3730 C   0  0  0  0  0  3  0  0  0  0  0  0
  -24.7940  -27.8630   19.4130 C   0  0  0  0  0  3  0  0  0  0  0  0
  -23.5400  -29.9570   20.1710 C   0  0  0  0  0  2  0  0  0  0  0  0
  -24.6060  -31.1770   22.1220 N   0  0  0  0  0  0  0  0  0  0  0  0
  -23.4750  -32.2250   23.7850 O   0  0  0  0  0  0  0  0  0  0  0  0
  -22.6920  -29.5500   22.5180 C   0  0  0  0  0  0  0  0  0  0  0  0
  -21.3660  -29.3730   22.3970 N   0  0  0  0  0  0  0  0  0  0  0  0
  -23.3790  -28.9110   23.3200 O   0  0  0  0  0  0  0  0  0  0  0  0
  -20.8730  -29.9470   21.7270 H   0  0  0  0  0  0  0  0  0  0  0  0
  -17.9970  -28.1600   22.8930 C   0  0  0  0  0  0  0  0  0  0  0  0
  -20.5550  -28.4220   23.1560 C   0  0  0  0  0  3  0  0  0  0  0  0
  -20.6570  -27.0020   22.5550 C   0  0  0  0  0  2  0  0  0  0  0  0
  -19.5520  -26.6970   21.5380 C   0  0  0  0  0  2  0  0  0  0  0  0
  -18.1730  -26.8260   22.1890 C   0  0  0  0  0  2  0  0  0  0  0  0
  -19.1140  -28.9200   23.3290 C   0  0  0  0  0  0  0  0  0  0  0  0
  -18.8880  -30.1720   23.9420 C   0  0  0  0  0  3  0  0  0  0  0  0
  -17.5830  -30.6620   24.1290 C   0  0  0  0  0  3  0  0  0  0  0  0
  -16.4800  -29.9030   23.7000 C   0  0  0  0  0  3  0  0  0  0  0  0
  -16.6890  -28.6520   23.0880 C   0  0  0  0  0  3  0  0  0  0  0  0
  -25.8430  -32.5810   23.8620 C   0  0  0  0  0  3  0  0  0  0  0  0
  -25.5490  -33.9840   24.1860 N   0  0  0  0  0  0  0  0  0  0  0  0
  -25.8970  -35.0320   23.4280 C   0  0  0  0  0  0  0  0  0  0  0  0
  -26.5740  -34.9180   22.4040 O   0  0  0  0  0  0  0  0  0  0  0  0
  -24.9700  -34.1490   24.9970 H   0  0  0  0  0  0  0  0  0  0  0  0
  -24.1990  -36.8450   23.0420 C   0  0  0  0  0  1  0  0  0  0  0  0
  -25.4200  -36.4290   23.8800 C   0  0  0  0  0  3  0  0  0  0  0  0
  -27.5540  -37.2820   24.7470 C   0  0  0  0  0  1  0  0  0  0  0  0
  -26.4680  -37.4710   23.7860 N   0  0  0  0  0  0  0  0  0  0  0  0
  -26.0710  -38.3980   23.9320 H   0  0  0  0  0  0  0  0  0  0  0  0
  -26.3430  -31.8080   25.1430 C   0  0  1  0  0  0  0  0  0  0  0  0
  -25.2460  -31.5880   26.2100 C   0  0  0  0  0  1  0  0  0  0  0  0
  -26.9120  -30.4250   24.7540 C   0  0  0  0  0  1  0  0  0  0  0  0
  -27.4960  -32.5910   25.8130 C   0  0  0  0  0  1  0  0  0  0  0  0
  1  2  1  0
  3  1  2  0
  4  2  2  0
  5  6  2  0
  5  3  1  0
  6  4  1  0
  8  7  1  0
  8  9  1  0
  8  5  1  0
  9 11  1  0
 10  9  1  0
 12  9  1  0
 12 13  1  0
 13 14  1  0
 15 24  1  0
 15 14  1  0
 16 24  1  0
 17 22  1  0
 18 19  1  0
 18 17  1  0
 20 19  1  0
 20 29  1  0
 20 21  1  0
 22 16  1  0
 22 21  1  0
 23 16  2  0
 24 25  1  0
 26 27  2  0
 27 46  1  0
 28 27  1  0
 28 31  1  0
 29 26  1  0
 29 30  1  0
 30 28  2  0
 31 32  1  0
 32 33  2  0
 34 37  1  0
 34 33  1  0
 35 34  2  0
 36 35  1  0
 36 31  2  0
 37 38  1  0
 38 39  1  0
 39 40  2  0
 41 40  1  0
 41 45  1  0
 42 41  2  0
 43 38  2  0
 43 42  1  0
 44 43  1  0
 46 47  1  0
 47 50  1  0
 47 49  1  0
 48 46  2  0
 51 52  1  0
 51 26  1  0
 53 51  1  0
 54  6  1  0
 55 66  2  0
 56 54  1  0
 56 61  1  0
 57 65  1  0
 57 67  1  0
 58 64  1  0
 58 60  1  0
 59 65  1  0
 60 59  1  0
 61 60  2  0
 62 63  1  0
 62 56  2  0
 63 58  2  0
 64 57  1  0
 65 55  1  0
 67 69  2  0
 68 67  1  0
 70 68  1  0
 71 80  2  0
 71 76  1  0
 72 68  1  0
 72 76  1  0
 73 72  1  0
 74 75  1  0
 74 73  1  0
 75 71  1  0
 76 77  2  0
 77 78  1  0
 79 78  2  0
 80 79  1  0
 81 55  1  0
 81 82  1  0
 81 91  1  0
 82 85  1  0
 83 87  1  0
 83 82  1  0
 84 83  2  0
 87 86  1  0
 89 87  1  0
 89 90  1  0
 89 88  1  0
 91 94  1  1
 91 92  1  0
 93 91  1  0
M  ISO  4   6 101  16 100  24 100  54 101
M  END
>  <TORSDO>  (7) 
F 22

>  <SCORE>  (7) 
-12.541

>  <name>  (7) 
6

>  <ligand_id>  (7) 
6

>  <original_smiles>  (7) 
[H]c1c([H])c([H])c(C([H])(C([H])([H])[H])[N+]([H])([H])C([H])([H])C([H])([H])C([H])([H])C([H])([H])N([H])C(=O)N2C([H])([H])C([H])([H])C([H])([H])C([H])(n3nc(-c4c([H])c([H])c(Oc5c([H])c([H])c(F)c([H])c5F)c([H])c4[H])c(C(=O)N([H])[H])c3N([H])[H])C2([H])[H])c(Oc2c([H])c([H])c3c(c2[H])C([H])([H])N(C(=O)C([H])(N([H])C(=O)C([H])(N([H])C([H])([H])[H])C([H])([H])[H])C(C([H])([H])[H])(C([H])([H])[H])C([H])([H])[H])C([H])(C(=O)N([H])C2([H])c4c([H])c([H])c([H])c([H])c4C([H])([H])C([H])([H])C2([H])[H])C3([H])[H])c1[H]

>  <smiles>  (7) 
[H]c1c([H])c([H])c(C([H])(C([H])([H])[H])[N+]([H])([H])C([H])([H])C([H])([H])C([H])([H])C([H])([H])N([H])C(=O)N2C([H])([H])C([H])([H])C([H])([H])C([H])(n3nc(-c4c([H])c([H])c(Oc5c([H])c([H])c(F)c([H])c5F)c([H])c4[H])c(C(=O)N([H])[H])c3N([H])[H])C2([H])[H])c(Oc2c([H])c([H])c3c(c2[H])C([H])([H])N(C(=O)C([H])(N([H])C(=O)C([H])(N([H])C([H])([H])[H])C([H])([H])[H])C(C([H])([H])[H])(C([H])([H])[H])C([H])([H])[H])C([H])(C(=O)N([H])C2([H])c4c([H])c([H])c([H])c([H])c4C([H])([H])C([H])([H])C2([H])[H])C3([H])[H])c1[H]

$$$$
7:0:0
     RDKit          3D

 94104  0  0  1  0  0  0  0  0999 V2000
  -31.5720  -23.2430   20.5380 C   0  0  0  0  0  3  0  0  0  0  0  0
  -31.3380  -21.8610   20.6930 C   0  0  0  0  0  3  0  0  0  0  0  0
  -30.5200  -24.1490   20.3190 C   0  0  0  0  0  3  0  0  0  0  0  0
  -28.9740  -22.2550   20.3930 C   0  0  0  0  0  3  0  0  0  0  0  0
  -30.0500  -21.2760   20.6120 C   0  0  0  0  0  0  0  0  0  0  0  0
  -29.1860  -23.7120   20.2530 C   0  0  0  0  0  0  0  0  0  0  0  0
  -28.8010  -18.7100   20.5190 C   0  0  0  0  0  2  0  0  0  0  0  0
  -31.3450  -16.1400   17.8270 C   0  0  0  0  0  2  0  0  0  0  0  0
  -29.0310  -17.1260   20.7970 C   0  0  0  0  0  2  0  0  0  0  0  0
  -29.9580  -16.0330   18.5300 C   0  0  0  0  0  2  0  0  0  0  0  0
  -31.3400  -18.8180   20.6320 C   0  0  0  0  0  2  0  0  0  0  0  0
  -30.0100  -19.6660   20.9010 C   0  0  0  0  0  3  0  0  0  0  0  0
  -31.1400  -17.5970   19.6600 C   0  0  0  0  0  3  0  0  0  0  0  0
  -32.2100  -17.0940   18.6890 C   0  0  0  0  0  3  0  0  0  0  0  0
  -30.2020  -16.3620   20.0300 C   0  0  1  0  0  0  0  0  0  0  0  0
  -32.9160  -18.1840   17.8660 C   0  0  0  0  0  1  0  0  0  0  0  0
  -30.8470  -14.9620   20.6680 C   0  0  0  0  0  0  0  0  0  0  0  0
  -30.7420  -12.5470   19.9870 C   0  0  0  0  0  2  0  0  0  0  0  0
  -29.9160  -12.3620   18.6940 C   0  0  0  0  0  2  0  0  0  0  0  0
  -28.4050  -12.2750   18.9980 C   0  0  0  0  0  2  0  0  0  0  0  0
  -27.9090  -13.2880   20.0660 C   0  0  0  0  0  3  0  0  0  0  0  0
  -28.8810  -13.4160   21.2530 C   0  0  0  0  0  2  0  0  0  0  0  0
  -30.2100  -13.7290   20.7120 N   0  0  0  0  0  0  0  0  0  0  0  0
  -32.0730  -14.9340   20.7770 O   0  0  0  0  0  0  0  0  0  0  0  0
  -25.4950  -13.9220   20.6290 C   0  0  0  0  0  0  0  0  0  0  0  0
  -24.3910  -13.1700   20.9200 C   0  0  0  0  0  0  0  0  0  0  0  0
  -24.8330  -11.8110   20.9400 C   0  0  0  0  0  0  0  0  0  0  0  0
  -26.5380  -13.0220   20.4810 N   0  0  0  0  0  0  0  0  0  0  0  0
  -26.1440  -11.7480   20.7370 N   0  0  0  0  0  0  0  0  0  0  0  0
  -24.0740  -10.5630   21.0790 C   0  0  0  0  0  0  0  0  0  0  0  0
  -24.4380   -9.5780   22.0250 C   0  0  0  0  0  3  0  0  0  0  0  0
  -23.6780   -8.3960   22.1550 C   0  0  0  0  0  3  0  0  0  0  0  0
  -22.5420   -8.1890   21.3380 C   0  0  0  0  0  0  0  0  0  0  0  0
  -22.1990   -9.1610   20.3810 C   0  0  0  0  0  3  0  0  0  0  0  0
  -22.9590  -10.3350   20.2480 C   0  0  0  0  0  3  0  0  0  0  0  0
  -21.7590   -7.0610   21.3770 O   0  0  0  0  0  0  0  0  0  0  0  0
  -21.6530   -6.2990   22.5140 C   0  0  0  0  0  0  0  0  0  0  0  0
  -21.2000   -6.8440   23.7360 C   0  0  0  0  0  3  0  0  0  0  0  0
  -21.0400   -6.0110   24.8600 C   0  0  0  0  0  3  0  0  0  0  0  0
  -21.3220   -4.6350   24.7650 C   0  0  0  0  0  0  0  0  0  0  0  0
  -21.7690   -4.0900   23.5480 C   0  0  0  0  0  3  0  0  0  0  0  0
  -21.9320   -4.9200   22.4250 C   0  0  0  0  0  0  0  0  0  0  0  0
  -22.3430   -4.3880   21.2490 F   0  0  0  0  0  0  0  0  0  0  0  0
  -21.1620   -3.8310   25.8420 F   0  0  0  0  0  0  0  0  0  0  0  0
  -22.9850  -13.6720   21.0700 C   0  0  0  0  0  0  0  0  0  0  0  0
  -22.1840  -13.0090   21.8960 N   0  0  0  0  0  0  0  0  0  0  0  0
  -22.6040  -14.6890   20.4920 O   0  0  0  0  0  0  0  0  0  0  0  0
  -22.5060  -12.1880   22.3870 H   0  0  0  0  0  0  0  0  0  0  0  0
  -21.2370  -13.3280   22.0430 H   0  0  0  0  0  0  0  0  0  0  0  0
  -25.6900  -15.2890   20.4480 N   0  0  0  0  0  0  0  0  0  0  0  0
  -24.9230  -15.9490   20.4790 H   0  0  0  0  0  0  0  0  0  0  0  0
  -26.5630  -15.7120   20.1600 H   0  0  0  0  0  0  0  0  0  0  0  0
  -28.0710  -24.8370   19.9710 C   0  0  0  0  0  2  0  0  0  0  0  0
  -28.3270  -26.3330   20.1440 O   0  0  0  0  0  0  0  0  0  0  0  0
  -24.6180  -31.8580   23.1750 C   0  0  0  0  0  0  0  0  0  0  0  0
  -27.2340  -27.2520   20.0910 C   0  0  0  0  0  0  0  0  0  0  0  0
  -23.4180  -30.4620   21.5340 C   0  0  0  0  0  3  0  0  0  0  0  0
  -24.8740  -28.9190   20.0930 C   0  0  0  0  0  0  0  0  0  0  0  0
  -25.9650  -30.7710   21.3530 C   0  0  0  0  0  2  0  0  0  0  0  0
  -26.0500  -29.3910   20.6900 C   0  0  0  0  0  0  0  0  0  0  0  0
  -27.2310  -28.5730   20.6750 C   0  0  0  0  0  3  0  0  0  0  0  0
  -26.0290  -26.8620   19.4630 C   0  0  0  0  0  3  0  0  0  0  0  0
  -24.8720  -27.6650   19.4670 C   0  0  0  0  0  3  0  0  0  0  0  0
  -23.6360  -29.7950   20.1510 C   0  0  0  0  0  2  0  0  0  0  0  0
  -24.6860  -31.0500   22.0760 N   0  0  0  0  0  0  0  0  0  0  0  0
  -23.5330  -32.1290   23.7120 O   0  0  0  0  0  0  0  0  0  0  0  0
  -22.7580  -29.4400   22.4920 C   0  0  0  0  0  0  0  0  0  0  0  0
  -21.4290  -29.2720   22.3810 N   0  0  0  0  0  0  0  0  0  0  0  0
  -23.4420  -28.8030   23.2970 O   0  0  0  0  0  0  0  0  0  0  0  0
  -20.9340  -29.8360   21.7050 H   0  0  0  0  0  0  0  0  0  0  0  0
  -18.0510  -28.0860   22.9230 C   0  0  0  0  0  0  0  0  0  0  0  0
  -20.6160  -28.3290   23.1530 C   0  0  0  0  0  3  0  0  0  0  0  0
  -20.6990  -26.9040   22.5570 C   0  0  0  0  0  2  0  0  0  0  0  0
  -19.5800  -26.6010   21.5580 C   0  0  0  0  0  2  0  0  0  0  0  0
  -18.2090  -26.7450   22.2250 C   0  0  0  0  0  2  0  0  0  0  0  0
  -19.1800  -28.8360   23.3450 C   0  0  0  0  0  0  0  0  0  0  0  0
  -18.9780  -30.0910   23.9580 C   0  0  0  0  0  3  0  0  0  0  0  0
  -17.6780  -30.5960   24.1540 C   0  0  0  0  0  3  0  0  0  0  0  0
  -16.5640  -29.8420   23.7500 C   0  0  0  0  0  3  0  0  0  0  0  0
  -16.7500  -28.5890   23.1390 C   0  0  0  0  0  3  0  0  0  0  0  0
  -25.8960  -32.4980   23.7990 C   0  0  0  0  0  3  0  0  0  0  0  0
  -25.5740  -33.8900   24.1460 N   0  0  0  0  0  0  0  0  0  0  0  0
  -25.8940  -34.9570   23.4020 C   0  0  0  0  0  0  0  0  0  0  0  0
  -26.5610  -34.8720   22.3660 O   0  0  0  0  0  0  0  0  0  0  0  0
  -24.9810  -34.0290   24.9510 H   0  0  0  0  0  0  0  0  0  0  0  0
  -24.1560  -36.7470   23.0770 C   0  0  0  0  0  1  0  0  0  0  0  0
  -25.4000  -36.3360   23.8810 C   0  0  0  0  0  3  0  0  0  0  0  0
  -27.5290  -37.2230   24.7240 C   0  0  0  0  0  1  0  0  0  0  0  0
  -26.4260  -37.3970   23.7820 N   0  0  0  0  0  0  0  0  0  0  0  0
  -26.0140  -38.3130   23.9440 H   0  0  0  0  0  0  0  0  0  0  0  0
  -26.4230  -31.7200   25.0660 C   0  0  1  0  0  0  0  0  0  0  0  0
  -25.3370  -31.4660   26.1370 C   0  0  0  0  0  1  0  0  0  0  0  0
  -27.0130  -30.3490   24.6650 C   0  0  0  0  0  1  0  0  0  0  0  0
  -27.5730  -32.5160   25.7290 C   0  0  0  0  0  1  0  0  0  0  0  0
  1  2  1  0
  3  1  2  0
  4  5  1  0
  5  2  2  0
  6  3  1  0
  6  4  2  0
  7  9  1  0
  7 12  1  0
  8 10  1  0
  8 14  1  0
 10 15  1  0
 11 12  1  0
 12  5  1  0
 13 15  1  0
 13 11  1  0
 14 16  1  0
 14 13  1  0
 15 17  1  1
 15  9  1  0
 17 23  1  0
 17 24  2  0
 18 23  1  0
 19 20  1  0
 19 18  1  0
 21 20  1  0
 21 28  1  0
 21 22  1  0
 23 22  1  0
 25 26  2  0
 26 27  1  0
 26 45  1  0
 27 30  1  0
 28 25  1  0
 28 29  1  0
 29 27  2  0
 30 31  1  0
 31 32  2  0
 33 36  1  0
 33 32  1  0
 34 33  2  0
 35 34  1  0
 35 30  2  0
 36 37  1  0
 37 38  1  0
 38 39  2  0
 40 39  1  0
 40 44  1  0
 41 40  2  0
 42 37  2  0
 42 41  1  0
 43 42  1  0
 45 46  1  0
 46 49  1  0
 46 48  1  0
 47 45  2  0
 50 51  1  0
 50 25  1  0
 52 50  1  0
 53 54  1  0
 53  6  1  0
 55 66  2  0
 56 54  1  0
 56 61  1  0
 57 65  1  0
 57 67  1  0
 58 64  1  0
 58 60  1  0
 59 65  1  0
 60 59  1  0
 61 60  2  0
 62 63  1  0
 62 56  2  0
 63 58  2  0
 64 57  1  0
 65 55  1  0
 67 69  2  0
 68 67  1  0
 70 68  1  0
 71 80  2  0
 71 76  1  0
 72 68  1  0
 72 76  1  0
 73 72  1  0
 74 75  1  0
 74 73  1  0
 75 71  1  0
 76 77  2  0
 77 78  1  0
 79 78  2  0
 80 79  1  0
 81 55  1  0
 81 82  1  0
 81 91  1  0
 82 85  1  0
 83 87  1  0
 83 82  1  0
 84 83  2  0
 87 86  1  0
 89 87  1  0
 89 90  1  0
 89 88  1  0
 91 94  1  1
 91 92  1  0
 93 91  1  0
M  ISO  4  15 100  17 100  53 101  54 101
M  END
>  <TORSDO>  (8) 
F 18

>  <SCORE>  (8) 
-14.080

>  <name>  (8) 
7

>  <ligand_id>  (8) 
7

>  <original_smiles>  (8) 
[H]c1c([H])c([H])c2c(c1[H])C([H])([H])C([H])([H])C([H])([H])C2([H])N([H])C(=O)C1([H])N(C(=O)C([H])(N([H])C(=O)C([H])(N([H])C([H])([H])[H])C([H])([H])[H])C(C([H])([H])[H])(C([H])([H])[H])C([H])([H])[H])C([H])([H])c2c([H])c(OC([H])([H])c3c([H])c([H])c([H])c(C4([H])C([H])([H])C([H])([H])C5(C(=O)N6C([H])([H])C([H])([H])C([H])([H])C([H])(n7nc(-c8c([H])c([H])c(Oc9c([H])c([H])c(F)c([H])c9F)c([H])c8[H])c(C(=O)N([H])[H])c7N([H])[H])C6([H])[H])C([H])([H])C([H])([H])C([H])(C([H])([H])[H])C5([H])C4([H])[H])c3[H])c([H])c([H])c2C1([H])[H]

>  <smiles>  (8) 
[H]c1c([H])c([H])c2c(c1[H])C([H])([H])C([H])([H])C([H])([H])C2([H])N([H])C(=O)C1([H])N(C(=O)C([H])(N([H])C(=O)C([H])(N([H])C([H])([H])[H])C([H])([H])[H])C(C([H])([H])[H])(C([H])([H])[H])C([H])([H])[H])C([H])([H])c2c([H])c(OC([H])([H])c3c([H])c([H])c([H])c(C4([H])C([H])([H])C([H])([H])C5(C(=O)N6C([H])([H])C([H])([H])C([H])([H])C([H])(n7nc(-c8c([H])c([H])c(Oc9c([H])c([H])c(F)c([H])c9F)c([H])c8[H])c(C(=O)N([H])[H])c7N([H])[H])C6([H])[H])C([H])([H])C([H])([H])C([H])(C([H])([H])[H])C5([H])C4([H])[H])c3[H])c([H])c([H])c2C1([H])[H]

$$$$
8:0:0
     RDKit          3D

 88 94  0  0  1  0  0  0  0  0999 V2000
  -28.0720  -18.6260   20.6750 C   0  0  0  0  0  3  0  0  0  0  0  0
  -27.6910  -20.2790   20.7250 C   0  0  0  0  0  3  0  0  0  0  0  0
  -28.8030  -21.2300   18.6330 C   0  0  0  0  0  2  0  0  0  0  0  0
  -28.5370  -19.7780   18.0580 C   0  0  0  0  0  2  0  0  0  0  0  0
  -29.8400  -19.9500   20.5320 C   0  0  0  0  0  2  0  0  0  0  0  0
  -29.4810  -18.1590   20.0460 C   0  0  0  0  0  3  0  0  0  0  0  0
  -28.7190  -21.4180   20.1710 C   0  0  0  0  0  3  0  0  0  0  0  0
  -29.3640  -18.4630   18.4740 C   0  0  2  0  0  0  0  0  0  0  0  0
  -30.7660  -18.5500   17.8260 C   0  0  0  0  0  1  0  0  0  0  0  0
  -28.6250  -17.3090   17.7470 C   0  0  0  0  0  1  0  0  0  0  0  0
  -30.2430  -16.2750   20.2240 C   0  0  0  0  0  2  0  0  0  0  0  0
  -30.5060  -13.6270   19.4770 C   0  0  0  0  0  2  0  0  0  0  0  0
  -29.6810  -13.0190   18.2920 C   0  0  0  0  0  2  0  0  0  0  0  0
  -28.2910  -12.5630   18.7500 C   0  0  0  0  0  2  0  0  0  0  0  0
  -27.6870  -13.6000   19.7140 C   0  0  0  0  0  3  0  0  0  0  0  0
  -28.6620  -14.0940   20.8170 C   0  0  0  0  0  2  0  0  0  0  0  0
  -29.7910  -14.8320   20.1680 N   0  0  0  0  0  0  0  0  0  0  0  0
  -31.4880  -16.1190   20.1770 O   0  0  0  0  0  1  0  0  0  0  0  0
  -25.3220  -14.0810   20.4660 C   0  0  0  0  0  0  0  0  0  0  0  0
  -24.2660  -13.2900   20.8180 C   0  0  0  0  0  0  0  0  0  0  0  0
  -24.7510  -11.9470   20.7930 C   0  0  0  0  0  0  0  0  0  0  0  0
  -26.3770  -13.2250   20.2310 N   0  0  0  0  0  0  0  0  0  0  0  0
  -26.0520  -11.9310   20.4960 N   0  0  0  0  0  0  0  0  0  0  0  0
  -24.0310  -10.6780   20.9710 C   0  0  0  0  0  0  0  0  0  0  0  0
  -24.4340   -9.7260   21.9330 C   0  0  0  0  0  3  0  0  0  0  0  0
  -23.7080   -8.5260   22.1030 C   0  0  0  0  0  3  0  0  0  0  0  0
  -22.5640   -8.2690   21.3120 C   0  0  0  0  0  0  0  0  0  0  0  0
  -22.1790   -9.2090   20.3400 C   0  0  0  0  0  3  0  0  0  0  0  0
  -22.9060  -10.3990   20.1680 C   0  0  0  0  0  3  0  0  0  0  0  0
  -21.8150   -7.1190   21.3890 O   0  0  0  0  0  0  0  0  0  0  0  0
  -21.7020   -6.4090   22.5580 C   0  0  0  0  0  0  0  0  0  0  0  0
  -21.1550   -6.9810   23.7290 C   0  0  0  0  0  3  0  0  0  0  0  0
  -20.9930   -6.1950   24.8870 C   0  0  0  0  0  3  0  0  0  0  0  0
  -21.3670   -4.8370   24.8760 C   0  0  0  0  0  0  0  0  0  0  0  0
  -21.9050   -4.2650   23.7100 C   0  0  0  0  0  3  0  0  0  0  0  0
  -22.0680   -5.0480   22.5540 C   0  0  0  0  0  0  0  0  0  0  0  0
  -22.5680   -4.4850   21.4270 F   0  0  0  0  0  0  0  0  0  0  0  0
  -21.2060   -4.0800   25.9860 F   0  0  0  0  0  0  0  0  0  0  0  0
  -22.8590  -13.7550   21.0540 C   0  0  0  0  0  0  0  0  0  0  0  0
  -22.1220  -13.0720   21.9210 N   0  0  0  0  0  0  0  0  0  0  0  0
  -22.4210  -14.7660   20.5030 O   0  0  0  0  0  0  0  0  0  0  0  0
  -22.4890  -12.2600   22.3960 H   0  0  0  0  0  0  0  0  0  0  0  0
  -21.1760  -13.3690   22.1180 H   0  0  0  0  0  0  0  0  0  0  0  0
  -25.4720  -15.4550   20.2930 N   0  0  0  0  0  0  0  0  0  0  0  0
  -24.7010  -16.1030   20.4120 H   0  0  0  0  0  0  0  0  0  0  0  0
  -26.3280  -15.9040   19.9970 H   0  0  0  0  0  0  0  0  0  0  0  0
  -28.1680  -23.4380   20.5560 C   0  0  0  0  0 15  0  0  0  0  0  0
  -28.2380  -25.3280   20.3730 O   0  0  0  0  0  1  0  0  0  0  0  0
  -24.6800  -31.9560   23.2380 C   0  0  0  0  0  0  0  0  0  0  0  0
  -27.2710  -26.6420   20.3720 C   0  0  0  0  0  0  0  0  0  0  0  0
  -23.5280  -30.5100   21.6220 C   0  0  0  0  0  3  0  0  0  0  0  0
  -25.0040  -28.8120   20.2610 C   0  0  0  0  0  0  0  0  0  0  0  0
  -26.1160  -30.6150   21.5380 C   0  0  0  0  0  2  0  0  0  0  0  0
  -26.1990  -29.1440   20.9070 C   0  0  0  0  0  0  0  0  0  0  0  0
  -27.3070  -28.0970   20.9180 C   0  0  0  0  0  3  0  0  0  0  0  0
  -26.0300  -26.5860   19.6660 C   0  0  0  0  0  3  0  0  0  0  0  0
  -24.9750  -27.5620   19.6130 C   0  0  0  0  0  3  0  0  0  0  0  0
  -23.7960  -29.7780   20.2720 C   0  0  0  0  0  2  0  0  0  0  0  0
  -24.8000  -31.0680   22.1830 N   0  0  0  0  0  0  0  0  0  0  0  0
  -23.5750  -32.2590   23.7270 O   0  0  0  0  0  0  0  0  0  0  0  0
  -22.7970  -29.5590   22.6100 C   0  0  0  0  0  0  0  0  0  0  0  0
  -21.4660  -29.3880   22.4750 N   0  0  0  0  0  0  0  0  0  0  0  0
  -23.4470  -28.9700   23.4790 O   0  0  0  0  0  0  0  0  0  0  0  0
  -20.9890  -29.9150   21.7570 H   0  0  0  0  0  0  0  0  0  0  0  0
  -18.0930  -28.1170   22.9850 C   0  0  0  0  0  0  0  0  0  0  0  0
  -20.6460  -28.4530   23.2580 C   0  0  0  0  0  3  0  0  0  0  0  0
  -20.7820  -27.0090   22.7170 C   0  0  0  0  0  2  0  0  0  0  0  0
  -19.6980  -26.6430   21.6990 C   0  0  0  0  0  2  0  0  0  0  0  0
  -18.3080  -26.7640   22.3280 C   0  0  0  0  0  2  0  0  0  0  0  0
  -19.1900  -28.9170   23.4060 C   0  0  0  0  0  0  0  0  0  0  0  0
  -18.9310  -30.1780   23.9880 C   0  0  0  0  0  3  0  0  0  0  0  0
  -17.6110  -30.6410   24.1460 C   0  0  0  0  0  3  0  0  0  0  0  0
  -16.5310  -29.8410   23.7360 C   0  0  0  0  0  3  0  0  0  0  0  0
  -16.7730  -28.5810   23.1620 C   0  0  0  0  0  3  0  0  0  0  0  0
  -25.9190  -32.6460   23.8850 C   0  0  0  0  0  3  0  0  0  0  0  0
  -25.5730  -34.0540   24.1810 N   0  0  0  0  0  0  0  0  0  0  0  0
  -25.9060  -35.1120   23.4290 C   0  0  0  0  0  0  0  0  0  0  0  0
  -26.5870  -35.0070   22.4060 O   0  0  0  0  0  0  0  0  0  0  0  0
  -24.9610  -34.2070   24.9700 H   0  0  0  0  0  0  0  0  0  0  0  0
  -24.1670  -36.9040   23.0610 C   0  0  0  0  0  1  0  0  0  0  0  0
  -25.4100  -36.5070   23.8750 C   0  0  0  0  0  3  0  0  0  0  0  0
  -27.5340  -37.4270   24.7060 C   0  0  0  0  0  1  0  0  0  0  0  0
  -26.4370  -37.5670   23.7530 N   0  0  0  0  0  0  0  0  0  0  0  0
  -26.0210  -38.4870   23.8810 H   0  0  0  0  0  0  0  0  0  0  0  0
  -26.3980  -31.9320   25.2110 C   0  0  1  0  0  0  0  0  0  0  0  0
  -25.2700  -31.7220   26.2500 C   0  0  0  0  0  1  0  0  0  0  0  0
  -27.0130  -30.5480   24.9110 C   0  0  0  0  0  1  0  0  0  0  0  0
  -27.5150  -32.7680   25.8810 C   0  0  0  0  0  1  0  0  0  0  0  0
  1  2  2  0
  4  8  1  0
  4  3  1  0
  6  5  1  0
  6  1  1  0
  7  3  1  0
  7  5  1  0
  7  2  1  0
  8  6  1  0
  8  9  1  6
 10  8  1  0
 12 17  1  0
 13 14  1  0
 13 12  1  0
 15 14  1  0
 15 22  1  0
 15 16  1  0
 17 11  1  0
 17 16  1  0
 18 11  1  0
 19 20  2  0
 20 39  1  0
 21 20  1  0
 21 24  1  0
 22 19  1  0
 22 23  1  0
 23 21  2  0
 24 25  1  0
 25 26  2  0
 27 30  1  0
 27 26  1  0
 28 27  2  0
 29 28  1  0
 29 24  2  0
 30 31  1  0
 31 32  1  0
 32 33  2  0
 34 33  1  0
 34 38  1  0
 35 34  2  0
 36 31  2  0
 36 35  1  0
 37 36  1  0
 39 40  1  0
 40 43  1  0
 40 42  1  0
 41 39  2  0
 44 45  1  0
 44 19  1  0
 46 44  1  0
 49 60  2  0
 50 48  1  0
 50 55  1  0
 51 59  1  0
 51 61  1  0
 52 58  1  0
 52 54  1  0
 53 59  1  0
 54 55  2  0
 54 53  1  0
 56 50  2  0
 57 56  1  0
 57 52  2  0
 58 51  1  0
 59 49  1  0
 61 63  2  0
 62 61  1  0
 64 62  1  0
 65 74  2  0
 65 70  1  0
 66 62  1  0
 66 70  1  0
 67 66  1  0
 68 69  1  0
 68 67  1  0
 69 65  1  0
 70 71  2  0
 71 72  1  0
 73 72  2  0
 74 73  1  0
 75 49  1  0
 75 76  1  0
 75 85  1  0
 76 79  1  0
 77 81  1  0
 77 76  1  0
 78 77  2  0
 81 80  1  0
 83 81  1  0
 83 84  1  0
 83 82  1  0
 85 88  1  1
 85 86  1  0
 87 85  1  0
M  ISO  4   6 100  11 100  47 101  48 101
M  END
>  <TORSDO>  (9) 
F 17

>  <SCORE>  (9) 
-15.352

>  <name>  (9) 
8

>  <ligand_id>  (9) 
8

>  <original_smiles>  (9) 
[H]c1c([H])c([H])c2c(c1[H])C([H])([H])C([H])([H])C([H])([H])C2([H])N([H])C(=O)C1([H])N(C(=O)C([H])(N([H])C(=O)C([H])(N([H])C([H])([H])[H])C([H])([H])[H])C(C([H])([H])[H])(C([H])([H])[H])C([H])([H])[H])C([H])([H])c2c([H])c(OC([H])([H])C34C([H])([H])C([H])([H])C(C(=O)N5C([H])([H])C([H])([H])C([H])([H])C([H])(n6nc(-c7c([H])c([H])c(Oc8c([H])c([H])c(F)c([H])c8F)c([H])c7[H])c(C(=O)N([H])[H])c6N([H])[H])C5([H])[H])(C3([H])[H])C(C([H])([H])[H])(C([H])([H])[H])C([H])([H])C4([H])[H])c([H])c([H])c2C1([H])[H]

>  <smiles>  (9) 
[H]c1c([H])c([H])c2c(c1[H])C([H])([H])C([H])([H])C([H])([H])C2([H])N([H])C(=O)C1([H])N(C(=O)C([H])(N([H])C(=O)C([H])(N([H])C([H])([H])[H])C([H])([H])[H])C(C([H])([H])[H])(C([H])([H])[H])C([H])([H])[H])C([H])([H])c2c([H])c(OC([H])([H])C34C([H])([H])C([H])([H])C(C(=O)N5C([H])([H])C([H])([H])C([H])([H])C([H])(n6nc(-c7c([H])c([H])c(Oc8c([H])c([H])c(F)c([H])c8F)c([H])c7[H])c(C(=O)N([H])[H])c6N([H])[H])C5([H])[H])(C3([H])[H])C(C([H])([H])[H])(C([H])([H])[H])C([H])([H])C4([H])[H])c([H])c([H])c2C1([H])[H]

$$$$
9:0:0
     RDKit          3D

 90 98  0  0  1  0  0  0  0  0999 V2000
  -29.3020  -22.8780   21.5790 C   0  0  0  0  0  3  0  0  0  0  0  0
  -28.9560  -24.2780   21.4900 C   0  0  0  0  0  3  0  0  0  0  0  0
  -28.1140  -23.9170   19.3180 C   0  0  0  0  0  3  0  0  0  0  0  0
  -29.1020  -21.9030   20.5450 C   0  0  0  0  0  0  0  0  0  0  0  0
  -28.4540  -22.4950   19.4000 C   0  0  0  0  0  0  0  0  0  0  0  0
  -28.3670  -24.8940   20.3460 C   0  0  0  0  0  0  0  0  0  0  0  0
  -28.1860  -21.6310   18.1810 C   0  0  0  0  0  1  0  0  0  0  0  0
  -29.8320  -20.4800   20.6430 C   0  0  0  0  0  0  0  0  0  0  0  0
  -29.3430  -19.1820   20.4040 N   0  0  0  0  0  0  0  0  0  0  0  0
  -31.0070  -20.5530   21.0070 O   0  0  0  0  0  0  0  0  0  0  0  0
  -28.3690  -19.1160   20.1390 H   0  0  0  0  0  0  0  0  0  0  0  0
  -30.1840  -17.8460   20.3750 C   0  0  0  0  0  3  0  0  0  0  0  0
  -29.6110  -16.3040   20.6510 C   0  0  0  0  0  3  0  0  0  0  0  0
  -30.4690  -14.9220   20.3700 C   0  0  0  0  0  0  0  0  0  0  0  0
  -30.3540  -12.5960   19.3880 C   0  0  0  0  0  2  0  0  0  0  0  0
  -29.4130  -12.6190   18.1590 C   0  0  0  0  0  2  0  0  0  0  0  0
  -27.9460  -12.4160   18.5860 C   0  0  0  0  0  2  0  0  0  0  0  0
  -27.5550  -13.3120   19.7890 C   0  0  0  0  0  3  0  0  0  0  0  0
  -28.6120  -13.2680   20.9110 C   0  0  0  0  0  2  0  0  0  0  0  0
  -29.9010  -13.6550   20.3270 N   0  0  0  0  0  0  0  0  0  0  0  0
  -31.6570  -15.0170   20.0400 O   0  0  0  0  0  0  0  0  0  0  0  0
  -25.1730  -13.8920   20.5290 C   0  0  0  0  0  0  0  0  0  0  0  0
  -24.1090  -13.1150   20.8990 C   0  0  0  0  0  0  0  0  0  0  0  0
  -24.5760  -11.7650   20.8690 C   0  0  0  0  0  0  0  0  0  0  0  0
  -26.2160  -13.0150   20.2870 N   0  0  0  0  0  0  0  0  0  0  0  0
  -25.8670  -11.7310   20.5570 N   0  0  0  0  0  0  0  0  0  0  0  0
  -23.8520  -10.5020   21.0590 C   0  0  0  0  0  0  0  0  0  0  0  0
  -24.2880   -9.5330   21.9900 C   0  0  0  0  0  3  0  0  0  0  0  0
  -23.5640   -8.3350   22.1690 C   0  0  0  0  0  3  0  0  0  0  0  0
  -22.3890   -8.0970   21.4180 C   0  0  0  0  0  0  0  0  0  0  0  0
  -21.9720   -9.0540   20.4760 C   0  0  0  0  0  3  0  0  0  0  0  0
  -22.6970  -10.2440   20.2950 C   0  0  0  0  0  3  0  0  0  0  0  0
  -21.6360   -6.9510   21.5050 O   0  0  0  0  0  0  0  0  0  0  0  0
  -21.5910   -6.2060   22.6560 C   0  0  0  0  0  0  0  0  0  0  0  0
  -21.1680   -6.7570   23.8850 C   0  0  0  0  0  3  0  0  0  0  0  0
  -21.0710   -5.9370   25.0290 C   0  0  0  0  0  3  0  0  0  0  0  0
  -21.3880   -4.5690   24.9430 C   0  0  0  0  0  0  0  0  0  0  0  0
  -21.8050   -4.0170   23.7190 C   0  0  0  0  0  3  0  0  0  0  0  0
  -21.9030   -4.8330   22.5780 C   0  0  0  0  0  0  0  0  0  0  0  0
  -22.2850   -4.2920   21.3960 F   0  0  0  0  0  0  0  0  0  0  0  0
  -21.2880   -3.7800   26.0380 F   0  0  0  0  0  0  0  0  0  0  0  0
  -22.7110  -13.5890   21.1700 C   0  0  0  0  0  0  0  0  0  0  0  0
  -21.9850  -12.8930   22.0380 N   0  0  0  0  0  0  0  0  0  0  0  0
  -22.2710  -14.6130   20.6490 O   0  0  0  0  0  0  0  0  0  0  0  0
  -22.3530  -12.0650   22.4810 H   0  0  0  0  0  0  0  0  0  0  0  0
  -21.0470  -13.1930   22.2620 H   0  0  0  0  0  0  0  0  0  0  0  0
  -25.3340  -15.2630   20.3530 N   0  0  0  0  0  0  0  0  0  0  0  0
  -24.5670  -15.9180   20.4710 H   0  0  0  0  0  0  0  0  0  0  0  0
  -26.1860  -15.7050   20.0340 H   0  0  0  0  0  0  0  0  0  0  0  0
  -28.3160  -26.3460   20.2000 O   0  0  0  0  0  0  0  0  0  0  0  0
  -24.6350  -31.9220   23.2320 C   0  0  0  0  0  0  0  0  0  0  0  0
  -27.1900  -27.2240   20.2190 C   0  0  0  0  0  0  0  0  0  0  0  0
  -23.4170  -30.5190   21.6080 C   0  0  0  0  0  3  0  0  0  0  0  0
  -24.8490  -28.9260   20.1910 C   0  0  0  0  0  0  0  0  0  0  0  0
  -25.9630  -30.7900   21.4200 C   0  0  0  0  0  2  0  0  0  0  0  0
  -26.0280  -29.3930   20.7860 C   0  0  0  0  0  0  0  0  0  0  0  0
  -27.1970  -28.5550   20.7840 C   0  0  0  0  0  3  0  0  0  0  0  0
  -25.9870  -26.8340   19.5960 C   0  0  0  0  0  3  0  0  0  0  0  0
  -24.8370  -27.6580   19.5840 C   0  0  0  0  0  3  0  0  0  0  0  0
  -23.6240  -29.8250   20.2340 C   0  0  0  0  0  2  0  0  0  0  0  0
  -24.6920  -31.0990   22.1430 N   0  0  0  0  0  0  0  0  0  0  0  0
  -23.5550  -32.2130   23.7680 O   0  0  0  0  0  0  0  0  0  0  0  0
  -22.7440  -29.5220   22.5830 C   0  0  0  0  0  0  0  0  0  0  0  0
  -21.4160  -29.3510   22.4610 N   0  0  0  0  0  0  0  0  0  0  0  0
  -23.4190  -28.9020   23.4080 O   0  0  0  0  0  0  0  0  0  0  0  0
  -20.9290  -29.9020   21.7690 H   0  0  0  0  0  0  0  0  0  0  0  0
  -18.0380  -28.1560   22.9740 C   0  0  0  0  0  0  0  0  0  0  0  0
  -20.5950  -28.4230   23.2430 C   0  0  0  0  0  3  0  0  0  0  0  0
  -20.6990  -26.9840   22.6840 C   0  0  0  0  0  2  0  0  0  0  0  0
  -19.5990  -26.6490   21.6720 C   0  0  0  0  0  2  0  0  0  0  0  0
  -18.2160  -26.8000   22.3130 C   0  0  0  0  0  2  0  0  0  0  0  0
  -19.1550  -28.9250   23.3960 C   0  0  0  0  0  0  0  0  0  0  0  0
  -18.9330  -30.1930   23.9760 C   0  0  0  0  0  3  0  0  0  0  0  0
  -17.6280  -30.6930   24.1370 C   0  0  0  0  0  3  0  0  0  0  0  0
  -16.5250  -29.9230   23.7310 C   0  0  0  0  0  3  0  0  0  0  0  0
  -16.7300  -28.6550   23.1550 C   0  0  0  0  0  3  0  0  0  0  0  0
  -25.9220  -32.5540   23.8470 C   0  0  0  0  0  3  0  0  0  0  0  0
  -26.4500  -31.7780   25.1160 C   0  0  1  0  0  0  0  0  0  0  0  0
  -25.3670  -31.5360   26.1940 C   0  0  0  0  0  1  0  0  0  0  0  0
  -27.0290  -30.4000   24.7150 C   0  0  0  0  0  1  0  0  0  0  0  0
  -27.6080  -32.5680   25.7700 C   0  0  0  0  0  1  0  0  0  0  0  0
  -25.6120  -33.9500   24.1940 N   0  0  0  0  0  0  0  0  0  0  0  0
  -25.9240  -35.0110   23.4370 C   0  0  0  0  0  0  0  0  0  0  0  0
  -26.5670  -34.9180   22.3880 O   0  0  0  0  0  0  0  0  0  0  0  0
  -25.0380  -34.0960   25.0100 H   0  0  0  0  0  0  0  0  0  0  0  0
  -24.1750  -36.7990   23.1520 C   0  0  0  0  0  1  0  0  0  0  0  0
  -25.4450  -36.3960   23.9180 C   0  0  0  0  0  3  0  0  0  0  0  0
  -27.6020  -37.2900   24.6810 C   0  0  0  0  0  1  0  0  0  0  0  0
  -26.4680  -37.4550   23.7750 N   0  0  0  0  0  0  0  0  0  0  0  0
  -26.0620  -38.3730   23.9400 H   0  0  0  0  0  0  0  0  0  0  0  0
  2  1  1  0
  3  5  2  0
  3  6  1  0
  4  8  1  0
  4  1  2  0
  5  4  1  0
  6  2  2  0
  7  5  1  0
  8 10  2  0
  9  8  1  0
 11  9  1  0
 12  9  1  0
 12 13  2  0
 14 13  1  0
 15 20  1  0
 16 17  1  0
 16 15  1  0
 18 17  1  0
 18 25  1  0
 18 19  1  0
 20 14  1  0
 20 19  1  0
 21 14  2  0
 22 23  2  0
 23 42  1  0
 24 23  1  0
 24 27  1  0
 25 22  1  0
 25 26  1  0
 26 24  2  0
 27 28  1  0
 28 29  2  0
 30 33  1  0
 30 29  1  0
 31 30  2  0
 32 31  1  0
 32 27  2  0
 33 34  1  0
 34 35  1  0
 35 36  2  0
 37 36  1  0
 37 41  1  0
 38 37  2  0
 39 34  2  0
 39 38  1  0
 40 39  1  0
 42 43  1  0
 43 46  1  0
 43 45  1  0
 44 42  2  0
 47 48  1  0
 47 22  1  0
 49 47  1  0
 50 52  1  0
 50  6  1  0
 51 62  2  0
 52 57  1  0
 53 61  1  0
 53 63  1  0
 54 60  1  0
 54 56  1  0
 55 61  1  0
 56 55  1  0
 57 56  2  0
 58 52  2  0
 59 58  1  0
 59 54  2  0
 60 53  1  0
 61 51  1  0
 63 65  2  0
 64 63  1  0
 66 64  1  0
 67 76  2  0
 67 72  1  0
 68 64  1  0
 68 72  1  0
 69 68  1  0
 70 71  1  0
 70 69  1  0
 71 67  1  0
 72 73  2  0
 73 74  1  0
 75 74  2  0
 76 75  1  0
 77 51  1  0
 77 82  1  0
 77 78  1  0
 78 81  1  1
 78 79  1  0
 80 78  1  0
 82 85  1  0
 83 87  1  0
 83 82  1  0
 84 83  2  0
 87 86  1  0
 89 87  1  0
 89 90  1  0
 89 88  1  0
M  ISO  4   6 101  13 100  14 100  50 101
M  END
>  <TORSDO>  (10) 
F 19

>  <SCORE>  (10) 
-14.307

>  <name>  (10) 
9

>  <ligand_id>  (10) 
9

>  <original_smiles>  (10) 
[H]c1c([H])c([H])c2c(c1[H])C([H])([H])C([H])([H])C([H])([H])C2([H])N([H])C(=O)C1([H])N(C(=O)C([H])(N([H])C(=O)C([H])(N([H])C([H])([H])[H])C([H])([H])[H])C(C([H])([H])[H])(C([H])([H])[H])C([H])([H])[H])C([H])([H])c2c([H])c(Oc3c([H])c([H])c(C(=O)N([H])C([H])([H])C([H])([H])C(=O)N4C([H])([H])C([H])([H])C([H])([H])C([H])(n5nc(-c6c([H])c([H])c(Oc7c([H])c([H])c(F)c([H])c7F)c([H])c6[H])c(C(=O)N([H])[H])c5N([H])[H])C4([H])[H])c(C([H])([H])[H])c3[H])c([H])c([H])c2C1([H])[H]

>  <smiles>  (10) 
[H]c1c([H])c([H])c2c(c1[H])C([H])([H])C([H])([H])C([H])([H])C2([H])N([H])C(=O)C1([H])N(C(=O)C([H])(N([H])C(=O)C([H])(N([H])C([H])([H])[H])C([H])([H])[H])C(C([H])([H])[H])(C([H])([H])[H])C([H])([H])[H])C([H])([H])c2c([H])c(Oc3c([H])c([H])c(C(=O)N([H])C([H])([H])C([H])([H])C(=O)N4C([H])([H])C([H])([H])C([H])([H])C([H])(n5nc(-c6c([H])c([H])c(Oc7c([H])c([H])c(F)c([H])c7F)c([H])c6[H])c(C(=O)N([H])[H])c5N([H])[H])C4([H])[H])c(C([H])([H])[H])c3[H])c([H])c([H])c2C1([H])[H]

$$$$
10:0:0
     RDKit          3D

 86 93  0  0  1  0  0  0  0  0999 V2000
  -29.1340  -20.7070   21.1590 C   0  0  0  0  0  0  0  0  0  0  0  0
  -28.4440  -22.3400   21.1670 C   0  0  0  0  0  2  0  0  0  0  0  0
  -28.6310  -20.6680   18.9130 C   0  0  0  0  0  2  0  0  0  0  0  0
  -28.6080  -22.4710   18.8590 C   0  0  0  0  0  2  0  0  0  0  0  0
  -29.4940  -19.5450   19.9060 C   0  0  0  0  0  3  0  0  0  0  0  0
  -28.4090  -23.7030   20.0690 C   0  0  0  0  0  2  0  0  0  0  0  0
  -29.3920  -20.3050   22.2970 O   0  0  0  0  0  0  0  0  0  0  0  0
  -30.2680  -16.2460   19.8740 C   0  0  0  0  0  0  0  0  0  0  0  0
  -30.4660  -13.6330   19.0950 C   0  0  0  0  0  2  0  0  0  0  0  0
  -29.5590  -13.0630   17.9580 C   0  0  0  0  0  2  0  0  0  0  0  0
  -28.1930  -12.6240   18.5000 C   0  0  0  0  0  2  0  0  0  0  0  0
  -27.6720  -13.6390   19.5370 C   0  0  0  0  0  3  0  0  0  0  0  0
  -28.7280  -14.0980   20.5770 C   0  0  0  0  0  2  0  0  0  0  0  0
  -29.8000  -14.8250   19.8350 N   0  0  0  0  0  0  0  0  0  0  0  0
  -31.5010  -16.1620   19.6690 O   0  0  0  0  0  0  0  0  0  0  0  0
  -29.4860  -17.6660   19.9530 N   0  0  0  0  0  0  0  0  0  0  0  0
  -28.5210  -17.4050   20.0980 H   0  0  0  0  0  0  0  0  0  0  0  0
  -25.3660  -14.1000   20.4750 C   0  0  0  0  0  0  0  0  0  0  0  0
  -24.3390  -13.2950   20.8780 C   0  0  0  0  0  0  0  0  0  0  0  0
  -24.8200  -11.9530   20.7680 C   0  0  0  0  0  0  0  0  0  0  0  0
  -26.4010  -13.2530   20.1330 N   0  0  0  0  0  0  0  0  0  0  0  0
  -26.0930  -11.9490   20.3730 N   0  0  0  0  0  0  0  0  0  0  0  0
  -24.1150  -10.6760   20.9540 C   0  0  0  0  0  0  0  0  0  0  0  0
  -24.5570   -9.7150   21.8900 C   0  0  0  0  0  3  0  0  0  0  0  0
  -23.8440   -8.5090   22.0690 C   0  0  0  0  0  3  0  0  0  0  0  0
  -22.6750   -8.2550   21.3130 C   0  0  0  0  0  0  0  0  0  0  0  0
  -22.2510   -9.2060   20.3670 C   0  0  0  0  0  3  0  0  0  0  0  0
  -22.9650  -10.4030   20.1860 C   0  0  0  0  0  3  0  0  0  0  0  0
  -21.9340   -7.1010   21.4010 O   0  0  0  0  0  0  0  0  0  0  0  0
  -21.8240   -6.4040   22.5780 C   0  0  0  0  0  0  0  0  0  0  0  0
  -21.2470   -6.9770   23.7320 C   0  0  0  0  0  3  0  0  0  0  0  0
  -21.0900   -6.2040   24.8990 C   0  0  0  0  0  3  0  0  0  0  0  0
  -21.5000   -4.8570   24.9120 C   0  0  0  0  0  0  0  0  0  0  0  0
  -22.0700   -4.2830   23.7630 C   0  0  0  0  0  3  0  0  0  0  0  0
  -22.2280   -5.0540   22.5980 C   0  0  0  0  0  0  0  0  0  0  0  0
  -22.7580   -4.4900   21.4860 F   0  0  0  0  0  0  0  0  0  0  0  0
  -21.3440   -4.1110   26.0310 F   0  0  0  0  0  0  0  0  0  0  0  0
  -22.9570  -13.7460   21.2420 C   0  0  0  0  0  0  0  0  0  0  0  0
  -22.2910  -13.0250   22.1340 N   0  0  0  0  0  0  0  0  0  0  0  0
  -22.4800  -14.7790   20.7720 O   0  0  0  0  0  0  0  0  0  0  0  0
  -22.6930  -12.1890   22.5360 H   0  0  0  0  0  0  0  0  0  0  0  0
  -21.3650  -13.3100   22.4220 H   0  0  0  0  0  0  0  0  0  0  0  0
  -25.4980  -15.4790   20.3340 N   0  0  0  0  0  0  0  0  0  0  0  0
  -24.7280  -16.1140   20.5070 H   0  0  0  0  0  0  0  0  0  0  0  0
  -26.3080  -15.9350   19.9370 H   0  0  0  0  0  0  0  0  0  0  0  0
  -28.1740  -25.5650   20.1380 O   0  0  0  0  0  1  0  0  0  0  0  0
  -24.6890  -31.9730   23.2680 C   0  0  0  0  0  0  0  0  0  0  0  0
  -27.1660  -26.8160   20.1380 C   0  0  0  0  0  0  0  0  0  0  0  0
  -23.4750  -30.5940   21.6380 C   0  0  0  0  0  3  0  0  0  0  0  0
  -24.8970  -28.9440   20.1700 C   0  0  0  0  0  0  0  0  0  0  0  0
  -26.0560  -30.7060   21.4700 C   0  0  0  0  0  2  0  0  0  0  0  0
  -26.1090  -29.2670   20.7860 C   0  0  0  0  0  0  0  0  0  0  0  0
  -27.2160  -28.2380   20.7300 C   0  0  0  0  0  3  0  0  0  0  0  0
  -25.9110  -26.7470   19.4680 C   0  0  0  0  0  3  0  0  0  0  0  0
  -24.8450  -27.7140   19.4850 C   0  0  0  0  0  3  0  0  0  0  0  0
  -23.6930  -29.9080   20.2550 C   0  0  0  0  0  2  0  0  0  0  0  0
  -24.7680  -31.1290   22.1780 N   0  0  0  0  0  0  0  0  0  0  0  0
  -23.6040  -32.2640   23.8030 O   0  0  0  0  0  0  0  0  0  0  0  0
  -22.7750  -29.6100   22.6150 C   0  0  0  0  0  0  0  0  0  0  0  0
  -21.4470  -29.4130   22.4850 N   0  0  0  0  0  0  0  0  0  0  0  0
  -23.4420  -29.0180   23.4680 O   0  0  0  0  0  0  0  0  0  0  0  0
  -20.9550  -29.9410   21.7780 H   0  0  0  0  0  0  0  0  0  0  0  0
  -18.1100  -28.0460   22.9640 C   0  0  0  0  0  0  0  0  0  0  0  0
  -20.6500  -28.4510   23.2580 C   0  0  0  0  0  3  0  0  0  0  0  0
  -20.8300  -27.0150   22.7120 C   0  0  0  0  0  2  0  0  0  0  0  0
  -19.7640  -26.6230   21.6840 C   0  0  0  0  0  2  0  0  0  0  0  0
  -18.3670  -26.7020   22.3040 C   0  0  0  0  0  2  0  0  0  0  0  0
  -19.1810  -28.8750   23.3970 C   0  0  0  0  0  0  0  0  0  0  0  0
  -18.8820  -30.1260   23.9800 C   0  0  0  0  0  3  0  0  0  0  0  0
  -17.5490  -30.5520   24.1300 C   0  0  0  0  0  3  0  0  0  0  0  0
  -16.4940  -29.7240   23.7080 C   0  0  0  0  0  3  0  0  0  0  0  0
  -16.7760  -28.4720   23.1310 C   0  0  0  0  0  3  0  0  0  0  0  0
  -25.9560  -32.6300   23.8960 C   0  0  0  0  0  3  0  0  0  0  0  0
  -25.6400  -34.0370   24.2270 N   0  0  0  0  0  0  0  0  0  0  0  0
  -25.9370  -35.0990   23.4670 C   0  0  0  0  0  0  0  0  0  0  0  0
  -26.5610  -35.0000   22.4080 O   0  0  0  0  0  0  0  0  0  0  0  0
  -25.0770  -34.1850   25.0520 H   0  0  0  0  0  0  0  0  0  0  0  0
  -24.1790  -36.8920   23.2350 C   0  0  0  0  0  1  0  0  0  0  0  0
  -25.4780  -36.4920   23.9540 C   0  0  0  0  0  3  0  0  0  0  0  0
  -27.6500  -37.4150   24.6400 C   0  0  0  0  0  1  0  0  0  0  0  0
  -26.4930  -37.5530   23.7590 N   0  0  0  0  0  0  0  0  0  0  0  0
  -26.0870  -38.4730   23.9090 H   0  0  0  0  0  0  0  0  0  0  0  0
  -26.4570  -31.8840   25.1960 C   0  0  1  0  0  0  0  0  0  0  0  0
  -25.3530  -31.6670   26.2580 C   0  0  0  0  0  1  0  0  0  0  0  0
  -27.0450  -30.4990   24.8500 C   0  0  0  0  0  1  0  0  0  0  0  0
  -27.6020  -32.6910   25.8550 C   0  0  0  0  0  1  0  0  0  0  0  0
  1  2  1  0
  1  7  2  0
  3  5  1  0
  4  3  1  0
  4  6  1  0
  5 16  1  0
  5  1  1  0
  6  2  1  0
  8 16  1  0
  9 14  1  0
 10 11  1  0
 10  9  1  0
 12 11  1  0
 12 21  1  0
 12 13  1  0
 14  8  1  0
 14 13  1  0
 15  8  2  0
 16 17  1  0
 18 19  2  0
 19 38  1  0
 20 19  1  0
 20 23  1  0
 21 22  1  0
 21 18  1  0
 22 20  2  0
 23 24  1  0
 24 25  2  0
 26 29  1  0
 26 25  1  0
 27 26  2  0
 28 27  1  0
 28 23  2  0
 29 30  1  0
 30 35  2  0
 30 31  1  0
 31 32  2  0
 32 33  1  0
 33 37  1  0
 34 33  2  0
 35 34  1  0
 36 35  1  0
 38 39  1  0
 39 42  1  0
 39 41  1  0
 40 38  2  0
 43 18  1  0
 43 44  1  0
 45 43  1  0
 46 48  1  0
 47 58  2  0
 48 53  1  0
 49 57  1  0
 49 59  1  0
 50 56  1  0
 50 52  1  0
 51 57  1  0
 52 51  1  0
 53 52  2  0
 54 55  1  0
 54 48  2  0
 55 50  2  0
 56 49  1  0
 57 47  1  0
 59 61  2  0
 60 59  1  0
 62 60  1  0
 63 72  2  0
 63 68  1  0
 64 60  1  0
 64 68  1  0
 65 64  1  0
 66 67  1  0
 66 65  1  0
 67 63  1  0
 68 69  2  0
 69 70  1  0
 71 70  2  0
 72 71  1  0
 73 47  1  0
 73 74  1  0
 73 83  1  0
 74 77  1  0
 75 79  1  0
 75 74  1  0
 76 75  2  0
 79 78  1  0
 81 82  1  0
 81 79  1  0
 81 80  1  0
 83 86  1  1
 83 84  1  0
 85 83  1  0
M  ISO  4   6 101   8 100  16 100  46 101
M  END
>  <TORSDO>  (11) 
F 16

>  <SCORE>  (11) 
-15.687

>  <name>  (11) 
10

>  <ligand_id>  (11) 
10

>  <original_smiles>  (11) 
[H]c1c([H])c([H])c2c(c1[H])C([H])([H])C([H])([H])C([H])([H])C2([H])N([H])C(=O)C1([H])N(C(=O)C([H])(N([H])C(=O)C([H])(N([H])C([H])([H])[H])C([H])([H])[H])C(C([H])([H])[H])(C([H])([H])[H])C([H])([H])[H])C([H])([H])c2c([H])c(OC3([H])C([H])([H])C(=O)C([H])(N([H])C(=O)N4C([H])([H])C([H])([H])C([H])([H])C([H])(n5nc(-c6c([H])c([H])c(Oc7c([H])c([H])c(F)c([H])c7F)c([H])c6[H])c(C(=O)N([H])[H])c5N([H])[H])C4([H])[H])C([H])([H])C3([H])[H])c([H])c([H])c2C1([H])[H]

>  <smiles>  (11) 
[H]c1c([H])c([H])c2c(c1[H])C([H])([H])C([H])([H])C([H])([H])C2([H])N([H])C(=O)C1([H])N(C(=O)C([H])(N([H])C(=O)C([H])(N([H])C([H])([H])[H])C([H])([H])[H])C(C([H])([H])[H])(C([H])([H])[H])C([H])([H])[H])C([H])([H])c2c([H])c(OC3([H])C([H])([H])C(=O)C([H])(N([H])C(=O)N4C([H])([H])C([H])([H])C([H])([H])C([H])(n5nc(-c6c([H])c([H])c(Oc7c([H])c([H])c(F)c([H])c7F)c([H])c6[H])c(C(=O)N([H])[H])c5N([H])[H])C4([H])[H])C([H])([H])C3([H])[H])c([H])c([H])c2C1([H])[H]

$$$$
11:0:0
     RDKit          3D

 95103  0  0  1  0  0  0  0  0999 V2000
  -28.6680  -22.7980   22.3850 C   0  0  0  0  0  0  0  0  0  0  0  0
  -27.6600  -23.3260   21.7010 N   0  0  0  0  0  0  0  0  0  0  0  0
  -29.2020  -23.3360   23.3580 O   0  0  0  0  0  0  0  0  0  0  0  0
  -27.2450  -22.7030   21.0250 H   0  0  0  0  0  0  0  0  0  0  0  0
  -28.4790  -20.3880   21.6930 C   0  0  0  0  0  3  0  0  0  0  0  0
  -30.4860  -21.6490   21.1000 C   0  0  0  0  0  3  0  0  0  0  0  0
  -29.0240  -19.2460   21.0800 C   0  0  0  0  0  3  0  0  0  0  0  0
  -31.0050  -20.5220   20.4390 C   0  0  0  0  0  3  0  0  0  0  0  0
  -29.2280  -21.5800   21.7370 C   0  0  0  0  0  0  0  0  0  0  0  0
  -30.2940  -19.3060   20.4650 C   0  0  0  0  0  0  0  0  0  0  0  0
  -30.9240  -18.0570   19.8810 C   0  0  0  0  0  2  0  0  0  0  0  0
  -33.4460  -17.9160   20.4970 C   0  0  0  0  0  1  0  0  0  0  0  0
  -32.0080  -17.4390   20.7960 C   0  0  0  0  0  3  0  0  0  0  0  0
  -32.3550  -15.0190   20.0250 C   0  0  0  0  0  0  0  0  0  0  0  0
  -31.8750  -12.8030   19.0650 C   0  0  0  0  0  2  0  0  0  0  0  0
  -30.9510  -12.9620   17.8390 C   0  0  0  0  0  2  0  0  0  0  0  0
  -29.4700  -13.0050   18.2580 C   0  0  0  0  0  2  0  0  0  0  0  0
  -29.2090  -13.9980   19.4180 C   0  0  0  0  0  3  0  0  0  0  0  0
  -30.2240  -13.7840   20.5600 C   0  0  0  0  0  2  0  0  0  0  0  0
  -31.5860  -13.9010   19.9970 N   0  0  0  0  0  0  0  0  0  0  0  0
  -33.3960  -15.1440   19.3770 O   0  0  0  0  0  0  0  0  0  0  0  0
  -31.8310  -15.9870   20.7910 N   0  0  0  0  0  0  0  0  0  0  0  0
  -31.0170  -15.6730   21.2940 H   0  0  0  0  0  0  0  0  0  0  0  0
  -26.9130  -14.9180   20.1430 C   0  0  0  0  0  0  0  0  0  0  0  0
  -25.7540  -14.2900   20.5140 C   0  0  0  0  0  0  0  0  0  0  0  0
  -26.0290  -12.8890   20.4570 C   0  0  0  0  0  0  0  0  0  0  0  0
  -27.8310  -13.9080   19.8950 N   0  0  0  0  0  0  0  0  0  0  0  0
  -27.3000  -12.6810   20.1350 N   0  0  0  0  0  0  0  0  0  0  0  0
  -25.1430  -11.7330   20.6370 C   0  0  0  0  0  0  0  0  0  0  0  0
  -25.4430  -10.7080   21.5620 C   0  0  0  0  0  3  0  0  0  0  0  0
  -24.5650   -9.6150   21.7290 C   0  0  0  0  0  3  0  0  0  0  0  0
  -23.3750   -9.5400   20.9690 C   0  0  0  0  0  0  0  0  0  0  0  0
  -23.0920  -10.5500   20.0330 C   0  0  0  0  0  3  0  0  0  0  0  0
  -23.9690  -11.6330   19.8640 C   0  0  0  0  0  3  0  0  0  0  0  0
  -22.4750   -8.5030   21.0480 O   0  0  0  0  0  0  0  0  0  0  0  0
  -22.2890   -7.7970   22.2090 C   0  0  0  0  0  0  0  0  0  0  0  0
  -21.9210   -8.4310   23.4160 C   0  0  0  0  0  3  0  0  0  0  0  0
  -21.6700   -7.6600   24.5680 C   0  0  0  0  0  3  0  0  0  0  0  0
  -21.7790   -6.2570   24.5150 C   0  0  0  0  0  0  0  0  0  0  0  0
  -22.1390   -5.6240   23.3120 C   0  0  0  0  0  3  0  0  0  0  0  0
  -22.3890   -6.3920   22.1620 C   0  0  0  0  0  0  0  0  0  0  0  0
  -22.7160   -5.7760   21.0000 F   0  0  0  0  0  0  0  0  0  0  0  0
  -21.5310   -5.5140   25.6180 F   0  0  0  0  0  0  0  0  0  0  0  0
  -24.4360  -14.9440   20.8090 C   0  0  0  0  0  0  0  0  0  0  0  0
  -23.6420  -14.3470   21.6910 N   0  0  0  0  0  0  0  0  0  0  0  0
  -24.1250  -16.0190   20.2960 O   0  0  0  0  0  0  0  0  0  0  0  0
  -23.9070  -13.4760   22.1260 H   0  0  0  0  0  0  0  0  0  0  0  0
  -22.7550  -14.7660   21.9340 H   0  0  0  0  0  0  0  0  0  0  0  0
  -27.2590  -16.2560   19.9760 N   0  0  0  0  0  0  0  0  0  0  0  0
  -26.5800  -17.0020   20.0720 H   0  0  0  0  0  0  0  0  0  0  0  0
  -28.1490  -16.5740   19.6150 H   0  0  0  0  0  0  0  0  0  0  0  0
  -27.6690  -24.7380   21.3520 C   0  0  0  0  0  2  0  0  0  0  0  0
  -28.2030  -24.8610   19.9040 C   0  0  0  0  0  2  0  0  0  0  0  0
  -29.1390  -26.0510   19.5810 C   0  0  0  0  0  2  0  0  0  0  0  0
  -28.8960  -27.2670   20.2790 O   0  0  0  0  0  0  0  0  0  0  0  0
  -24.6880  -31.9940   23.3980 C   0  0  0  0  0  0  0  0  0  0  0  0
  -27.6770  -27.8960   20.1950 C   0  0  0  0  0  0  0  0  0  0  0  0
  -23.6180  -30.6310   21.6310 C   0  0  0  0  0  3  0  0  0  0  0  0
  -25.2060  -29.2610   20.1870 C   0  0  0  0  0  0  0  0  0  0  0  0
  -26.1260  -31.1350   21.5610 C   0  0  0  0  0  2  0  0  0  0  0  0
  -26.3040  -29.8070   20.8610 C   0  0  0  0  0  0  0  0  0  0  0  0
  -27.5340  -29.1200   20.8750 C   0  0  0  0  0  3  0  0  0  0  0  0
  -26.5710  -27.3790   19.4830 C   0  0  0  0  0  3  0  0  0  0  0  0
  -25.3350  -28.0470   19.4980 C   0  0  0  0  0  3  0  0  0  0  0  0
  -23.9150  -30.0430   20.2260 C   0  0  0  0  0  2  0  0  0  0  0  0
  -24.8240  -31.2700   22.2540 N   0  0  0  0  0  0  0  0  0  0  0  0
  -23.5740  -32.1800   23.9080 O   0  0  0  0  0  0  0  0  0  0  0  0
  -22.9960  -29.5200   22.5070 C   0  0  0  0  0  0  0  0  0  0  0  0
  -21.6930  -29.2660   22.3060 N   0  0  0  0  0  0  0  0  0  0  0  0
  -23.6830  -28.8920   23.3180 O   0  0  0  0  0  0  0  0  0  0  0  0
  -21.2000  -29.8310   21.6300 H   0  0  0  0  0  0  0  0  0  0  0  0
  -18.3870  -27.8460   22.5600 C   0  0  0  0  0  0  0  0  0  0  0  0
  -20.9050  -28.2440   22.9880 C   0  0  0  0  0  3  0  0  0  0  0  0
  -21.1300  -26.8520   22.3550 C   0  0  0  0  0  2  0  0  0  0  0  0
  -20.1070  -26.5130   21.2650 C   0  0  0  0  0  2  0  0  0  0  0  0
  -18.6840  -26.5450   21.8310 C   0  0  0  0  0  2  0  0  0  0  0  0
  -19.4300  -28.6500   23.0880 C   0  0  0  0  0  0  0  0  0  0  0  0
  -19.1010  -29.8670   23.7240 C   0  0  0  0  0  3  0  0  0  0  0  0
  -17.7590  -30.2810   23.8370 C   0  0  0  0  0  3  0  0  0  0  0  0
  -16.7310  -29.4740   23.3240 C   0  0  0  0  0  3  0  0  0  0  0  0
  -17.0430  -28.2590   22.6920 C   0  0  0  0  0  3  0  0  0  0  0  0
  -25.9200  -32.6480   24.1040 C   0  0  0  0  0  3  0  0  0  0  0  0
  -25.5630  -34.0400   24.4090 N   0  0  0  0  0  0  0  0  0  0  0  0
  -25.9210  -35.0990   23.6730 C   0  0  0  0  0  0  0  0  0  0  0  0
  -26.6600  -35.0070   22.6880 O   0  0  0  0  0  0  0  0  0  0  0  0
  -24.9140  -34.1860   25.1690 H   0  0  0  0  0  0  0  0  0  0  0  0
  -24.1760  -36.8450   23.1970 C   0  0  0  0  0  1  0  0  0  0  0  0
  -25.3710  -36.4740   24.0900 C   0  0  0  0  0  3  0  0  0  0  0  0
  -27.4320  -37.4080   25.0430 C   0  0  0  0  0  1  0  0  0  0  0  0
  -26.3800  -37.5520   24.0390 N   0  0  0  0  0  0  0  0  0  0  0  0
  -25.9430  -38.4640   24.1550 H   0  0  0  0  0  0  0  0  0  0  0  0
  -26.3680  -31.8880   25.4140 C   0  0  1  0  0  0  0  0  0  0  0  0
  -25.2050  -31.6110   26.3960 C   0  0  0  0  0  1  0  0  0  0  0  0
  -27.0300  -30.5340   25.0660 C   0  0  0  0  0  1  0  0  0  0  0  0
  -27.4310  -32.7230   26.1670 C   0  0  0  0  0  1  0  0  0  0  0  0
  1  3  2  0
  2  1  1  0
  4  2  1  0
  5  9  1  0
  6  9  2  0
  7  5  2  0
  8 10  2  0
  8  6  1  0
  9  1  1  0
 10  7  1  0
 11 10  1  0
 11 13  1  0
 13 12  1  0
 14 22  1  0
 15 20  1  0
 16 17  1  0
 16 15  1  0
 18 17  1  0
 18 27  1  0
 18 19  1  0
 20 14  1  0
 20 19  1  0
 21 14  2  0
 22 13  1  0
 22 23  1  0
 24 25  2  0
 25 44  1  0
 26 25  1  0
 26 29  1  0
 27 28  1  0
 27 24  1  0
 28 26  2  0
 29 30  1  0
 30 31  2  0
 32 35  1  0
 32 31  1  0
 33 32  2  0
 34 33  1  0
 34 29  2  0
 35 36  1  0
 36 37  1  0
 37 38  2  0
 39 38  1  0
 39 43  1  0
 40 39  2  0
 41 36  2  0
 41 40  1  0
 42 41  1  0
 44 45  1  0
 45 48  1  0
 45 47  1  0
 46 44  2  0
 49 50  1  0
 49 24  1  0
 51 49  1  0
 52  2  1  0
 53 52  1  0
 54 53  1  0
 54 55  1  0
 56 67  2  0
 57 55  1  0
 57 62  1  0
 58 66  1  0
 58 68  1  0
 59 65  1  0
 59 61  1  0
 60 66  1  0
 61 62  2  0
 61 60  1  0
 63 64  1  0
 63 57  2  0
 64 59  2  0
 65 58  1  0
 66 56  1  0
 68 70  2  0
 69 68  1  0
 71 69  1  0
 72 81  2  0
 72 77  1  0
 73 69  1  0
 73 77  1  0
 74 73  1  0
 75 76  1  0
 75 74  1  0
 76 72  1  0
 77 78  2  0
 78 79  1  0
 80 79  2  0
 81 80  1  0
 82 56  1  0
 82 83  1  0
 82 92  1  0
 83 86  1  0
 84 88  1  0
 84 83  1  0
 85 84  2  0
 88 87  1  0
 90 88  1  0
 90 91  1  0
 90 89  1  0
 92 95  1  1
 92 93  1  0
 94 92  1  0
M  ISO  4  14 100  22 100  54 101  55 101
M  END
>  <TORSDO>  (12) 
F 22

>  <SCORE>  (12) 
-9.161

>  <name>  (12) 
11

>  <ligand_id>  (12) 
11

>  <original_smiles>  (12) 
[H]c1c([H])c([H])c2c(c1[H])C([H])([H])C([H])([H])C([H])([H])C2([H])N([H])C(=O)C1([H])N(C(=O)C([H])(N([H])C(=O)C([H])(N([H])C([H])([H])[H])C([H])([H])[H])C(C([H])([H])[H])(C([H])([H])[H])C([H])([H])[H])C([H])([H])c2c([H])c(OC([H])([H])C([H])([H])C([H])([H])N([H])C(=O)c3c([H])c([H])c(C([H])([H])C([H])(N([H])C(=O)N4C([H])([H])C([H])([H])C([H])([H])C([H])(n5nc(-c6c([H])c([H])c(Oc7c([H])c([H])c(F)c([H])c7F)c([H])c6[H])c(C(=O)N([H])[H])c5N([H])[H])C4([H])[H])C([H])([H])[H])c([H])c3[H])c([H])c([H])c2C1([H])[H]

>  <smiles>  (12) 
[H]c1c([H])c([H])c2c(c1[H])C([H])([H])C([H])([H])C([H])([H])C2([H])N([H])C(=O)C1([H])N(C(=O)C([H])(N([H])C(=O)C([H])(N([H])C([H])([H])[H])C([H])([H])[H])C(C([H])([H])[H])(C([H])([H])[H])C([H])([H])[H])C([H])([H])c2c([H])c(OC([H])([H])C([H])([H])C([H])([H])N([H])C(=O)c3c([H])c([H])c(C([H])([H])C([H])(N([H])C(=O)N4C([H])([H])C([H])([H])C([H])([H])C([H])(n5nc(-c6c([H])c([H])c(Oc7c([H])c([H])c(F)c([H])c7F)c([H])c6[H])c(C(=O)N([H])[H])c5N([H])[H])C4([H])[H])C([H])([H])[H])c([H])c3[H])c([H])c([H])c2C1([H])[H]

$$$$
12:0:0
     RDKit          3D

 91 99  0  0  1  0  0  0  0  0999 V2000
  -31.5670  -23.8350   21.1560 C   0  0  0  0  0  3  0  0  0  0  0  0
  -31.4220  -22.4510   20.9090 C   0  0  0  0  0  3  0  0  0  0  0  0
  -30.5080  -24.7310   20.8940 C   0  0  0  0  0  3  0  0  0  0  0  0
  -29.1390  -22.8480   20.1820 C   0  0  0  0  0  3  0  0  0  0  0  0
  -30.2010  -21.9350   20.4180 C   0  0  0  0  0  0  0  0  0  0  0  0
  -29.2850  -24.2460   20.3910 C   0  0  0  0  0  0  0  0  0  0  0  0
  -30.0400  -20.4480   20.0280 C   0  0  0  0  0  2  0  0  0  0  0  0
  -30.5880  -19.4280   20.9660 N   0  0  0  0  0  4  0  0  0  0  0  0
  -30.2490  -19.6340   21.8910 H   0  0  0  0  0  0  0  0  0  0  0  0
  -31.5910  -19.5140   20.9770 H   0  0  0  0  0  0  0  0  0  0  0  0
  -30.2240  -18.0200   20.6110 C   0  0  0  0  0  2  0  0  0  0  0  0
  -30.8580  -16.9290   21.5250 C   0  0  0  0  0  2  0  0  0  0  0  0
  -30.1640  -15.5240   21.4860 C   0  0  0  0  0  2  0  0  0  0  0  0
  -30.7110  -14.4560   20.5030 C   0  0  0  0  0  0  0  0  0  0  0  0
  -30.3670  -12.3340   19.2520 C   0  0  0  0  0  2  0  0  0  0  0  0
  -29.4150  -12.5560   18.0620 C   0  0  0  0  0  2  0  0  0  0  0  0
  -27.9460  -12.4120   18.5030 C   0  0  0  0  0  2  0  0  0  0  0  0
  -27.6260  -13.2440   19.7740 C   0  0  0  0  0  3  0  0  0  0  0  0
  -28.6870  -12.9980   20.8720 C   0  0  0  0  0  2  0  0  0  0  0  0
  -30.0120  -13.3000   20.3060 N   0  0  0  0  0  0  0  0  0  0  0  0
  -31.7670  -14.6870   19.9080 O   0  0  0  0  0  0  0  0  0  0  0  0
  -25.2310  -13.8750   20.4780 C   0  0  0  0  0  0  0  0  0  0  0  0
  -24.1580  -13.1130   20.8520 C   0  0  0  0  0  0  0  0  0  0  0  0
  -24.6080  -11.7560   20.8270 C   0  0  0  0  0  0  0  0  0  0  0  0
  -26.2700  -12.9840   20.2540 N   0  0  0  0  0  0  0  0  0  0  0  0
  -25.8970  -11.7060   20.5190 N   0  0  0  0  0  0  0  0  0  0  0  0
  -23.8730  -10.5010   21.0270 C   0  0  0  0  0  0  0  0  0  0  0  0
  -24.3140   -9.5280   21.9510 C   0  0  0  0  0  3  0  0  0  0  0  0
  -23.5800   -8.3370   22.1410 C   0  0  0  0  0  3  0  0  0  0  0  0
  -22.3920   -8.1110   21.4050 C   0  0  0  0  0  0  0  0  0  0  0  0
  -21.9700   -9.0730   20.4710 C   0  0  0  0  0  3  0  0  0  0  0  0
  -22.7030  -10.2550   20.2810 C   0  0  0  0  0  3  0  0  0  0  0  0
  -21.6300   -6.9710   21.5020 O   0  0  0  0  0  0  0  0  0  0  0  0
  -21.6080   -6.2140   22.6460 C   0  0  0  0  0  0  0  0  0  0  0  0
  -21.2450   -6.7640   23.8960 C   0  0  0  0  0  3  0  0  0  0  0  0
  -21.1680   -5.9370   25.0340 C   0  0  0  0  0  3  0  0  0  0  0  0
  -21.4430   -4.5620   24.9250 C   0  0  0  0  0  0  0  0  0  0  0  0
  -21.7960   -4.0100   23.6810 C   0  0  0  0  0  3  0  0  0  0  0  0
  -21.8760   -4.8340   22.5450 C   0  0  0  0  0  0  0  0  0  0  0  0
  -22.1990   -4.2950   21.3440 F   0  0  0  0  0  0  0  0  0  0  0  0
  -21.3600   -3.7640   26.0170 F   0  0  0  0  0  0  0  0  0  0  0  0
  -22.7640  -13.6010   21.1270 C   0  0  0  0  0  0  0  0  0  0  0  0
  -22.0370  -12.9160   22.0030 N   0  0  0  0  0  0  0  0  0  0  0  0
  -22.3300  -14.6240   20.6000 O   0  0  0  0  0  0  0  0  0  0  0  0
  -22.4030  -12.0880   22.4510 H   0  0  0  0  0  0  0  0  0  0  0  0
  -21.1030  -13.2250   22.2290 H   0  0  0  0  0  0  0  0  0  0  0  0
  -25.4110  -15.2430   20.2910 N   0  0  0  0  0  0  0  0  0  0  0  0
  -24.6570  -15.9130   20.3930 H   0  0  0  0  0  0  0  0  0  0  0  0
  -26.2720  -15.6630   19.9670 H   0  0  0  0  0  0  0  0  0  0  0  0
  -28.1170  -25.1810   20.0500 C   0  0  0  0  0  2  0  0  0  0  0  0
  -28.3290  -26.6100   20.1700 O   0  0  0  0  0  0  0  0  0  0  0  0
  -24.5830  -31.8710   23.2160 C   0  0  0  0  0  0  0  0  0  0  0  0
  -27.1810  -27.3930   20.1180 C   0  0  0  0  0  0  0  0  0  0  0  0
  -23.3600  -30.4760   21.5840 C   0  0  0  0  0  3  0  0  0  0  0  0
  -24.7970  -28.9430   20.1420 C   0  0  0  0  0  0  0  0  0  0  0  0
  -25.8900  -30.8190   21.3690 C   0  0  0  0  0  2  0  0  0  0  0  0
  -25.9670  -29.4500   20.7200 C   0  0  0  0  0  0  0  0  0  0  0  0
  -27.1620  -28.6860   20.7010 C   0  0  0  0  0  3  0  0  0  0  0  0
  -25.9860  -26.9210   19.5190 C   0  0  0  0  0  3  0  0  0  0  0  0
  -24.8040  -27.6790   19.5350 C   0  0  0  0  0  3  0  0  0  0  0  0
  -23.5570  -29.8060   20.2010 C   0  0  0  0  0  2  0  0  0  0  0  0
  -24.6300  -31.0700   22.1140 N   0  0  0  0  0  0  0  0  0  0  0  0
  -23.5070  -32.1460   23.7640 O   0  0  0  0  0  0  0  0  0  0  0  0
  -22.7130  -29.4540   22.5460 C   0  0  0  0  0  0  0  0  0  0  0  0
  -21.3850  -29.2790   22.4320 N   0  0  0  0  0  0  0  0  0  0  0  0
  -23.4000  -28.8220   23.3530 O   0  0  0  0  0  0  0  0  0  0  0  0
  -20.8910  -29.8420   21.7540 H   0  0  0  0  0  0  0  0  0  0  0  0
  -18.0110  -28.0920   22.9490 C   0  0  0  0  0  0  0  0  0  0  0  0
  -20.5700  -28.3430   23.2070 C   0  0  0  0  0  3  0  0  0  0  0  0
  -20.6660  -26.9120   22.6320 C   0  0  0  0  0  2  0  0  0  0  0  0
  -19.5580  -26.5910   21.6230 C   0  0  0  0  0  2  0  0  0  0  0  0
  -18.1800  -26.7410   22.2750 C   0  0  0  0  0  2  0  0  0  0  0  0
  -19.1330  -28.8510   23.3730 C   0  0  0  0  0  0  0  0  0  0  0  0
  -18.9220  -30.1160   23.9630 C   0  0  0  0  0  3  0  0  0  0  0  0
  -17.6200  -30.6220   24.1340 C   0  0  0  0  0  3  0  0  0  0  0  0
  -16.5120  -29.8590   23.7280 C   0  0  0  0  0  3  0  0  0  0  0  0
  -16.7070  -28.5960   23.1410 C   0  0  0  0  0  3  0  0  0  0  0  0
  -25.8750  -32.4960   23.8270 C   0  0  0  0  0  3  0  0  0  0  0  0
  -25.5680  -33.8900   24.1760 N   0  0  0  0  0  0  0  0  0  0  0  0
  -25.8850  -34.9510   23.4230 C   0  0  0  0  0  0  0  0  0  0  0  0
  -26.5390  -34.8600   22.3800 O   0  0  0  0  0  0  0  0  0  0  0  0
  -24.9840  -34.0350   24.9870 H   0  0  0  0  0  0  0  0  0  0  0  0
  -24.1400  -36.7370   23.1240 C   0  0  0  0  0  1  0  0  0  0  0  0
  -25.4010  -36.3330   23.9030 C   0  0  0  0  0  3  0  0  0  0  0  0
  -27.5510  -37.2190   24.6900 C   0  0  0  0  0  1  0  0  0  0  0  0
  -26.4250  -37.3920   23.7760 N   0  0  0  0  0  0  0  0  0  0  0  0
  -26.0180  -38.3080   23.9450 H   0  0  0  0  0  0  0  0  0  0  0  0
  -26.4130  -31.7090   25.0840 C   0  0  1  0  0  0  0  0  0  0  0  0
  -25.3390  -31.4570   26.1670 C   0  0  0  0  0  1  0  0  0  0  0  0
  -26.9890  -30.3360   24.6640 C   0  0  0  0  0  1  0  0  0  0  0  0
  -27.5730  -32.4960   25.7380 C   0  0  0  0  0  1  0  0  0  0  0  0
  2  1  1  0
  3  1  2  0
  4  6  2  0
  4  5  1  0
  5  2  2  0
  6  3  1  0
  7  5  1  0
  7  8  1  0
  8 10  1  0
  8  9  1  0
 11  8  1  0
 11 12  1  0
 13 12  1  0
 14 13  1  0
 15 20  1  0
 16 17  1  0
 16 15  1  0
 18 17  1  0
 18 25  1  0
 18 19  1  0
 20 14  1  0
 20 19  1  0
 21 14  2  0
 22 23  2  0
 23 42  1  0
 24 23  1  0
 24 27  1  0
 25 22  1  0
 25 26  1  0
 26 24  2  0
 27 28  1  0
 28 29  2  0
 30 33  1  0
 30 29  1  0
 31 30  2  0
 32 31  1  0
 32 27  2  0
 33 34  1  0
 34 35  1  0
 35 36  2  0
 37 36  1  0
 37 41  1  0
 38 37  2  0
 39 34  2  0
 39 38  1  0
 40 39  1  0
 42 43  1  0
 43 46  1  0
 43 45  1  0
 44 42  2  0
 47 48  1  0
 47 22  1  0
 49 47  1  0
 50 51  1  0
 50  6  1  0
 52 63  2  0
 53 51  1  0
 53 58  1  0
 54 62  1  0
 54 64  1  0
 55 61  1  0
 55 57  1  0
 56 62  1  0
 57 56  1  0
 58 57  2  0
 59 60  1  0
 59 53  2  0
 60 55  2  0
 61 54  1  0
 62 52  1  0
 64 66  2  0
 65 64  1  0
 67 65  1  0
 68 77  2  0
 68 73  1  0
 69 65  1  0
 69 73  1  0
 70 69  1  0
 71 72  1  0
 71 70  1  0
 72 68  1  0
 73 74  2  0
 74 75  1  0
 76 75  2  0
 77 76  1  0
 78 52  1  0
 78 79  1  0
 78 88  1  0
 79 82  1  0
 80 84  1  0
 80 79  1  0
 81 80  2  0
 84 83  1  0
 86 84  1  0
 86 87  1  0
 86 85  1  0
 88 91  1  1
 88 89  1  0
 90 88  1  0
M  ISO  4  13 100  14 100  50 101  51 101
M  END
>  <TORSDO>  (13) 
F 22

>  <SCORE>  (13) 
-12.840

>  <name>  (13) 
12

>  <ligand_id>  (13) 
12

>  <original_smiles>  (13) 
[H]c1c([H])c([H])c2c(c1[H])C([H])([H])C([H])([H])C([H])([H])C2([H])N([H])C(=O)C1([H])N(C(=O)C([H])(N([H])C(=O)C([H])(N([H])C([H])([H])[H])C([H])([H])[H])C(C([H])([H])[H])(C([H])([H])[H])C([H])([H])[H])C([H])([H])c2c([H])c(OC([H])([H])c3c([H])c([H])c([H])c(C([H])([H])[N+]([H])([H])C([H])([H])C([H])([H])C([H])([H])C(=O)N4C([H])([H])C([H])([H])C([H])([H])C([H])(n5nc(-c6c([H])c([H])c(Oc7c([H])c([H])c(F)c([H])c7F)c([H])c6[H])c(C(=O)N([H])[H])c5N([H])[H])C4([H])[H])c3[H])c([H])c([H])c2C1([H])[H]

>  <smiles>  (13) 
[H]c1c([H])c([H])c2c(c1[H])C([H])([H])C([H])([H])C([H])([H])C2([H])N([H])C(=O)C1([H])N(C(=O)C([H])(N([H])C(=O)C([H])(N([H])C([H])([H])[H])C([H])([H])[H])C(C([H])([H])[H])(C([H])([H])[H])C([H])([H])[H])C([H])([H])c2c([H])c(OC([H])([H])c3c([H])c([H])c([H])c(C([H])([H])[N+]([H])([H])C([H])([H])C([H])([H])C([H])([H])C(=O)N4C([H])([H])C([H])([H])C([H])([H])C([H])(n5nc(-c6c([H])c([H])c(Oc7c([H])c([H])c(F)c([H])c7F)c([H])c6[H])c(C(=O)N([H])[H])c5N([H])[H])C4([H])[H])c3[H])c([H])c([H])c2C1([H])[H]

$$$$
13:0:0
     RDKit          3D

 90 98  0  0  1  0  0  0  0  0999 V2000
  -29.0940  -23.3410   20.8450 C   0  0  0  0  0  3  0  0  0  0  0  0
  -29.1710  -21.9230   21.0510 C   0  0  0  0  0  3  0  0  0  0  0  0
  -28.1490  -22.9500   18.6770 C   0  0  0  0  0  3  0  0  0  0  0  0
  -28.5620  -23.8980   19.6520 C   0  0  0  0  0  0  0  0  0  0  0  0
  -28.7360  -20.9770   20.0760 C   0  0  0  0  0  0  0  0  0  0  0  0
  -28.2300  -21.5380   18.8680 C   0  0  0  0  0  0  0  0  0  0  0  0
  -27.7340  -20.6380   17.7460 C   0  0  0  0  0  1  0  0  0  0  0  0
  -28.6150  -19.4290   20.3890 C   0  0  0  0  0  2  0  0  0  0  0  0
  -29.8080  -18.3810   20.2250 C   0  0  0  0  0  2  0  0  0  0  0  0
  -29.3640  -16.8390   20.1030 C   0  0  0  0  0  2  0  0  0  0  0  0
  -30.7830  -14.6660   20.1110 C   0  0  0  0  0  0  0  0  0  0  0  0
  -30.4750  -12.4380   19.0400 C   0  0  0  0  0  2  0  0  0  0  0  0
  -29.4860  -12.5720   17.8640 C   0  0  0  0  0  2  0  0  0  0  0  0
  -28.0350  -12.4140   18.3560 C   0  0  0  0  0  2  0  0  0  0  0  0
  -27.7340  -13.2850   19.6040 C   0  0  0  0  0  3  0  0  0  0  0  0
  -28.8350  -13.1420   20.6770 C   0  0  0  0  0  2  0  0  0  0  0  0
  -30.1200  -13.4670   20.0420 N   0  0  0  0  0  0  0  0  0  0  0  0
  -31.8910  -14.8090   19.5840 O   0  0  0  0  0  0  0  0  0  0  0  0
  -30.6030  -16.0260   22.1050 C   0  0  0  0  0  1  0  0  0  0  0  0
  -30.1700  -15.7290   20.7410 N   0  0  0  0  0  0  0  0  0  0  0  0
  -25.3840  -13.8970   20.4400 C   0  0  0  0  0  0  0  0  0  0  0  0
  -24.3260  -13.1290   20.8440 C   0  0  0  0  0  0  0  0  0  0  0  0
  -24.7700  -11.7740   20.7720 C   0  0  0  0  0  0  0  0  0  0  0  0
  -26.4070  -13.0090   20.1460 N   0  0  0  0  0  0  0  0  0  0  0  0
  -26.0450  -11.7250   20.4050 N   0  0  0  0  0  0  0  0  0  0  0  0
  -24.0370  -10.5170   20.9740 C   0  0  0  0  0  0  0  0  0  0  0  0
  -24.4830   -9.5400   21.8920 C   0  0  0  0  0  3  0  0  0  0  0  0
  -23.7500   -8.3490   22.0820 C   0  0  0  0  0  3  0  0  0  0  0  0
  -22.5580   -8.1240   21.3550 C   0  0  0  0  0  0  0  0  0  0  0  0
  -22.1310   -9.0900   20.4250 C   0  0  0  0  0  3  0  0  0  0  0  0
  -22.8630  -10.2730   20.2330 C   0  0  0  0  0  3  0  0  0  0  0  0
  -21.7960   -6.9850   21.4550 O   0  0  0  0  0  0  0  0  0  0  0  0
  -21.7440   -6.2540   22.6130 C   0  0  0  0  0  0  0  0  0  0  0  0
  -21.3240   -6.8210   23.8360 C   0  0  0  0  0  3  0  0  0  0  0  0
  -21.2190   -6.0170   24.9880 C   0  0  0  0  0  3  0  0  0  0  0  0
  -21.5260   -4.6440   24.9180 C   0  0  0  0  0  0  0  0  0  0  0  0
  -21.9380   -4.0750   23.7000 C   0  0  0  0  0  3  0  0  0  0  0  0
  -22.0450   -4.8770   22.5510 C   0  0  0  0  0  0  0  0  0  0  0  0
  -22.4240   -4.3200   21.3760 F   0  0  0  0  0  0  0  0  0  0  0  0
  -21.4190   -3.8700   26.0230 F   0  0  0  0  0  0  0  0  0  0  0  0
  -22.9480  -13.6180   21.1850 C   0  0  0  0  0  0  0  0  0  0  0  0
  -22.2500  -12.9180   22.0720 N   0  0  0  0  0  0  0  0  0  0  0  0
  -22.5010  -14.6570   20.7020 O   0  0  0  0  0  0  0  0  0  0  0  0
  -22.6230  -12.0770   22.4850 H   0  0  0  0  0  0  0  0  0  0  0  0
  -21.3300  -13.2320   22.3430 H   0  0  0  0  0  0  0  0  0  0  0  0
  -25.5580  -15.2680   20.2790 N   0  0  0  0  0  0  0  0  0  0  0  0
  -24.8070  -15.9320   20.4350 H   0  0  0  0  0  0  0  0  0  0  0  0
  -26.4030  -15.7010   19.9300 H   0  0  0  0  0  0  0  0  0  0  0  0
  -28.5820  -25.4300   19.2650 C   0  0  0  0  0  2  0  0  0  0  0  0
  -28.3490  -26.5180   20.2340 O   0  0  0  0  0  0  0  0  0  0  0  0
  -24.6100  -31.9000   23.2400 C   0  0  0  0  0  0  0  0  0  0  0  0
  -27.2120  -27.3370   20.1730 C   0  0  0  0  0  0  0  0  0  0  0  0
  -23.3960  -30.4920   21.6140 C   0  0  0  0  0  3  0  0  0  0  0  0
  -24.8380  -28.9380   20.1830 C   0  0  0  0  0  0  0  0  0  0  0  0
  -25.9330  -30.8140   21.4120 C   0  0  0  0  0  2  0  0  0  0  0  0
  -26.0080  -29.4330   20.7700 C   0  0  0  0  0  0  0  0  0  0  0  0
  -27.1940  -28.6410   20.7610 C   0  0  0  0  0  3  0  0  0  0  0  0
  -26.0100  -26.8820   19.5850 C   0  0  0  0  0  3  0  0  0  0  0  0
  -24.8400  -27.6670   19.5870 C   0  0  0  0  0  3  0  0  0  0  0  0
  -23.6010  -29.8110   20.2350 C   0  0  0  0  0  2  0  0  0  0  0  0
  -24.6660  -31.0860   22.1450 N   0  0  0  0  0  0  0  0  0  0  0  0
  -23.5300  -32.1780   23.7810 O   0  0  0  0  0  0  0  0  0  0  0  0
  -22.7440  -29.4780   22.5840 C   0  0  0  0  0  0  0  0  0  0  0  0
  -21.4190  -29.2890   22.4620 N   0  0  0  0  0  0  0  0  0  0  0  0
  -23.4280  -28.8620   23.4060 O   0  0  0  0  0  0  0  0  0  0  0  0
  -20.9250  -29.8370   21.7720 H   0  0  0  0  0  0  0  0  0  0  0  0
  -18.0550  -28.0610   22.9630 C   0  0  0  0  0  0  0  0  0  0  0  0
  -20.6090  -28.3520   23.2420 C   0  0  0  0  0  3  0  0  0  0  0  0
  -20.7310  -26.9150   22.6880 C   0  0  0  0  0  2  0  0  0  0  0  0
  -19.6370  -26.5650   21.6740 C   0  0  0  0  0  2  0  0  0  0  0  0
  -18.2490  -26.7040   22.3080 C   0  0  0  0  0  2  0  0  0  0  0  0
  -19.1620  -28.8420   23.3880 C   0  0  0  0  0  0  0  0  0  0  0  0
  -18.9270  -30.1110   23.9600 C   0  0  0  0  0  3  0  0  0  0  0  0
  -17.6150  -30.5980   24.1150 C   0  0  0  0  0  3  0  0  0  0  0  0
  -16.5210  -29.8150   23.7060 C   0  0  0  0  0  3  0  0  0  0  0  0
  -16.7430  -28.5490   23.1360 C   0  0  0  0  0  3  0  0  0  0  0  0
  -25.8970  -32.5380   23.8490 C   0  0  0  0  0  3  0  0  0  0  0  0
  -26.4260  -31.7710   25.1240 C   0  0  1  0  0  0  0  0  0  0  0  0
  -25.3410  -31.5340   26.2000 C   0  0  0  0  0  1  0  0  0  0  0  0
  -27.0110  -30.3950   24.7310 C   0  0  0  0  0  1  0  0  0  0  0  0
  -27.5790  -32.5720   25.7750 C   0  0  0  0  0  1  0  0  0  0  0  0
  -25.5870  -33.9360   24.1810 N   0  0  0  0  0  0  0  0  0  0  0  0
  -25.9170  -34.9890   23.4230 C   0  0  0  0  0  0  0  0  0  0  0  0
  -26.5830  -34.8860   22.3900 O   0  0  0  0  0  0  0  0  0  0  0  0
  -24.9990  -34.0890   24.9870 H   0  0  0  0  0  0  0  0  0  0  0  0
  -24.1910  -36.7850   23.0670 C   0  0  0  0  0  1  0  0  0  0  0  0
  -25.4290  -36.3760   23.8820 C   0  0  0  0  0  3  0  0  0  0  0  0
  -27.5610  -37.2580   24.7250 C   0  0  0  0  0  1  0  0  0  0  0  0
  -26.4630  -37.4290   23.7760 N   0  0  0  0  0  0  0  0  0  0  0  0
  -26.0570  -38.3500   23.9250 H   0  0  0  0  0  0  0  0  0  0  0  0
  1  2  1  0
  3  6  2  0
  3  4  1  0
  4  1  2  0
  5  8  1  0
  5  2  2  0
  6  5  1  0
  7  6  1  0
  9  8  1  0
 10  9  1  0
 10 20  1  0
 11 20  1  0
 12 17  1  0
 13 14  1  0
 13 12  1  0
 15 14  1  0
 15 24  1  0
 15 16  1  0
 17 11  1  0
 17 16  1  0
 18 11  2  0
 20 19  1  0
 21 22  2  0
 22 41  1  0
 23 22  1  0
 23 26  1  0
 24 25  1  0
 24 21  1  0
 25 23  2  0
 26 27  1  0
 27 28  2  0
 29 32  1  0
 29 28  1  0
 30 29  2  0
 31 30  1  0
 31 26  2  0
 32 33  1  0
 33 34  1  0
 34 35  2  0
 36 35  1  0
 36 40  1  0
 37 36  2  0
 38 33  2  0
 38 37  1  0
 39 38  1  0
 41 42  1  0
 42 45  1  0
 42 44  1  0
 43 41  2  0
 46 47  1  0
 46 21  1  0
 48 46  1  0
 49  4  1  0
 49 50  1  0
 51 62  2  0
 52 50  1  0
 52 57  1  0
 53 61  1  0
 53 63  1  0
 54 60  1  0
 54 56  1  0
 55 61  1  0
 56 55  1  0
 57 56  2  0
 58 59  1  0
 58 52  2  0
 59 54  2  0
 60 53  1  0
 61 51  1  0
 63 65  2  0
 64 63  1  0
 66 64  1  0
 67 76  2  0
 67 72  1  0
 68 64  1  0
 68 72  1  0
 69 68  1  0
 70 71  1  0
 70 69  1  0
 71 67  1  0
 72 73  2  0
 73 74  1  0
 75 74  2  0
 76 75  1  0
 77 51  1  0
 77 82  1  0
 77 78  1  0
 78 81  1  1
 78 79  1  0
 80 78  1  0
 82 85  1  0
 83 87  1  0
 83 82  1  0
 84 83  2  0
 87 86  1  0
 89 87  1  0
 89 90  1  0
 89 88  1  0
M  ISO  4  11 100  20 100  49 101  50 101
M  END
>  <TORSDO>  (14) 
F 20

>  <SCORE>  (14) 
-13.859

>  <name>  (14) 
13

>  <ligand_id>  (14) 
13

>  <original_smiles>  (14) 
[H]c1c([H])c([H])c2c(c1[H])C([H])([H])C([H])([H])C([H])([H])C2([H])N([H])C(=O)C1([H])N(C(=O)C([H])(N([H])C(=O)C([H])(N([H])C([H])([H])[H])C([H])([H])[H])C(C([H])([H])[H])(C([H])([H])[H])C([H])([H])[H])C([H])([H])c2c([H])c(OC([H])([H])c3c([H])c([H])c(C([H])([H])C([H])([H])C([H])([H])N(C(=O)N4C([H])([H])C([H])([H])C([H])([H])C([H])(n5nc(-c6c([H])c([H])c(Oc7c([H])c([H])c(F)c([H])c7F)c([H])c6[H])c(C(=O)N([H])[H])c5N([H])[H])C4([H])[H])C([H])([H])[H])c(C([H])([H])[H])c3[H])c([H])c([H])c2C1([H])[H]

>  <smiles>  (14) 
[H]c1c([H])c([H])c2c(c1[H])C([H])([H])C([H])([H])C([H])([H])C2([H])N([H])C(=O)C1([H])N(C(=O)C([H])(N([H])C(=O)C([H])(N([H])C([H])([H])[H])C([H])([H])[H])C(C([H])([H])[H])(C([H])([H])[H])C([H])([H])[H])C([H])([H])c2c([H])c(OC([H])([H])c3c([H])c([H])c(C([H])([H])C([H])([H])C([H])([H])N(C(=O)N4C([H])([H])C([H])([H])C([H])([H])C([H])(n5nc(-c6c([H])c([H])c(Oc7c([H])c([H])c(F)c([H])c7F)c([H])c6[H])c(C(=O)N([H])[H])c5N([H])[H])C4([H])[H])C([H])([H])[H])c(C([H])([H])[H])c3[H])c([H])c([H])c2C1([H])[H]

$$$$
14:0:0
     RDKit          3D

 91 99  0  0  1  0  0  0  0  0999 V2000
  -28.9960  -22.0640   21.8890 C   0  0  0  0  0  3  0  0  0  0  0  0
  -28.9100  -24.4770   21.5150 C   0  0  0  0  0  3  0  0  0  0  0  0
  -28.6130  -22.9310   19.6510 C   0  0  0  0  0  3  0  0  0  0  0  0
  -29.0820  -23.3800   22.3820 C   0  0  0  0  0  0  0  0  0  0  0  0
  -28.7830  -21.8150   20.5150 C   0  0  0  0  0  0  0  0  0  0  0  0
  -28.6650  -24.2650   20.1410 C   0  0  0  0  0  0  0  0  0  0  0  0
  -29.3670  -23.6040   23.8510 C   0  0  0  0  0  1  0  0  0  0  0  0
  -28.6840  -20.3730   19.9770 C   0  0  0  0  0  3  0  0  0  0  0  0
  -29.6330  -19.3190   20.6250 C   0  0  0  0  0  3  0  0  0  0  0  0
  -29.4090  -17.8510   20.1680 C   0  0  0  0  0  2  0  0  0  0  0  0
  -30.2510  -16.8260   20.9760 C   0  0  0  0  0  2  0  0  0  0  0  0
  -30.5170  -14.4780   20.0860 C   0  0  0  0  0  0  0  0  0  0  0  0
  -30.1800  -12.3520   18.8780 C   0  0  0  0  0  2  0  0  0  0  0  0
  -29.1530  -12.5750   17.7470 C   0  0  0  0  0  2  0  0  0  0  0  0
  -27.7120  -12.4120   18.2690 C   0  0  0  0  0  2  0  0  0  0  0  0
  -27.4530  -13.2100   19.5760 C   0  0  0  0  0  3  0  0  0  0  0  0
  -28.5780  -12.9520   20.6020 C   0  0  0  0  0  2  0  0  0  0  0  0
  -29.8610  -13.2930   19.9610 N   0  0  0  0  0  0  0  0  0  0  0  0
  -31.5950  -14.7160   19.5320 O   0  0  0  0  0  0  0  0  0  0  0  0
  -29.8490  -15.4300   20.7590 N   0  0  0  0  0  0  0  0  0  0  0  0
  -28.9760  -15.1370   21.1730 H   0  0  0  0  0  0  0  0  0  0  0  0
  -25.1020  -13.7770   20.4570 C   0  0  0  0  0  0  0  0  0  0  0  0
  -24.0650  -12.9840   20.8730 C   0  0  0  0  0  0  0  0  0  0  0  0
  -24.5310  -11.6390   20.7660 C   0  0  0  0  0  0  0  0  0  0  0  0
  -26.1350  -12.9120   20.1320 N   0  0  0  0  0  0  0  0  0  0  0  0
  -25.7980  -11.6190   20.3740 N   0  0  0  0  0  0  0  0  0  0  0  0
  -23.8290  -10.3640   20.9630 C   0  0  0  0  0  0  0  0  0  0  0  0
  -24.3030   -9.3900   21.8690 C   0  0  0  0  0  3  0  0  0  0  0  0
  -23.6000   -8.1800   22.0530 C   0  0  0  0  0  3  0  0  0  0  0  0
  -22.4100   -7.9340   21.3310 C   0  0  0  0  0  0  0  0  0  0  0  0
  -21.9540   -8.8960   20.4120 C   0  0  0  0  0  3  0  0  0  0  0  0
  -22.6570  -10.0980   20.2260 C   0  0  0  0  0  3  0  0  0  0  0  0
  -21.6750   -6.7780   21.4260 O   0  0  0  0  0  0  0  0  0  0  0  0
  -21.6460   -6.0370   22.5800 C   0  0  0  0  0  0  0  0  0  0  0  0
  -21.1820   -6.5750   23.8000 C   0  0  0  0  0  3  0  0  0  0  0  0
  -21.1030   -5.7580   24.9450 C   0  0  0  0  0  3  0  0  0  0  0  0
  -21.4770   -4.4030   24.8710 C   0  0  0  0  0  0  0  0  0  0  0  0
  -21.9320   -3.8630   23.6570 C   0  0  0  0  0  3  0  0  0  0  0  0
  -22.0130   -4.6780   22.5130 C   0  0  0  0  0  0  0  0  0  0  0  0
  -22.4330   -4.1470   21.3390 F   0  0  0  0  0  0  0  0  0  0  0  0
  -21.3940   -3.6150   25.9700 F   0  0  0  0  0  0  0  0  0  0  0  0
  -22.6860  -13.4390   21.2530 C   0  0  0  0  0  0  0  0  0  0  0  0
  -22.0210  -12.7040   22.1370 N   0  0  0  0  0  0  0  0  0  0  0  0
  -22.2080  -14.4790   20.8010 O   0  0  0  0  0  0  0  0  0  0  0  0
  -22.4210  -11.8600   22.5200 H   0  0  0  0  0  0  0  0  0  0  0  0
  -21.0970  -12.9860   22.4340 H   0  0  0  0  0  0  0  0  0  0  0  0
  -25.2500  -15.1540   20.3110 N   0  0  0  0  0  0  0  0  0  0  0  0
  -24.4950  -15.8080   20.4870 H   0  0  0  0  0  0  0  0  0  0  0  0
  -26.0780  -15.5980   19.9330 H   0  0  0  0  0  0  0  0  0  0  0  0
  -28.5110  -25.4550   19.1820 C   0  0  0  0  0  2  0  0  0  0  0  0
  -28.3830  -26.7520   19.8050 O   0  0  0  0  0  0  0  0  0  0  0  0
  -24.6360  -31.8160   23.1420 C   0  0  0  0  0  0  0  0  0  0  0  0
  -27.1770  -27.4360   19.8570 C   0  0  0  0  0  0  0  0  0  0  0  0
  -23.3740  -30.4550   21.5050 C   0  0  0  0  0  3  0  0  0  0  0  0
  -24.7780  -28.9520   19.9950 C   0  0  0  0  0  0  0  0  0  0  0  0
  -25.8930  -30.8160   21.2320 C   0  0  0  0  0  2  0  0  0  0  0  0
  -25.9550  -29.4580   20.5580 C   0  0  0  0  0  0  0  0  0  0  0  0
  -27.1520  -28.7060   20.4840 C   0  0  0  0  0  3  0  0  0  0  0  0
  -25.9710  -26.9390   19.3070 C   0  0  0  0  0  3  0  0  0  0  0  0
  -24.7820  -27.6920   19.3690 C   0  0  0  0  0  3  0  0  0  0  0  0
  -23.5370  -29.8080   20.1030 C   0  0  0  0  0  2  0  0  0  0  0  0
  -24.6550  -31.0440   22.0170 N   0  0  0  0  0  0  0  0  0  0  0  0
  -23.5730  -32.0740   23.7240 O   0  0  0  0  0  0  0  0  0  0  0  0
  -22.7540  -29.4130   22.4620 C   0  0  0  0  0  0  0  0  0  0  0  0
  -21.4350  -29.1920   22.3360 N   0  0  0  0  0  0  0  0  0  0  0  0
  -23.4560  -28.8060   23.2740 O   0  0  0  0  0  0  0  0  0  0  0  0
  -20.9270  -29.7400   21.6560 H   0  0  0  0  0  0  0  0  0  0  0  0
  -18.1090  -27.8540   22.7880 C   0  0  0  0  0  0  0  0  0  0  0  0
  -20.6470  -28.2250   23.1000 C   0  0  0  0  0  3  0  0  0  0  0  0
  -20.8210  -26.7950   22.5380 C   0  0  0  0  0  2  0  0  0  0  0  0
  -19.7520  -26.4170   21.5090 C   0  0  0  0  0  2  0  0  0  0  0  0
  -18.3540  -26.5080   22.1280 C   0  0  0  0  0  2  0  0  0  0  0  0
  -19.1860  -28.6670   23.2300 C   0  0  0  0  0  0  0  0  0  0  0  0
  -18.9030  -29.9260   23.8040 C   0  0  0  0  0  3  0  0  0  0  0  0
  -17.5760  -30.3720   23.9430 C   0  0  0  0  0  3  0  0  0  0  0  0
  -16.5120  -29.5570   23.5160 C   0  0  0  0  0  3  0  0  0  0  0  0
  -16.7800  -28.3000   22.9440 C   0  0  0  0  0  3  0  0  0  0  0  0
  -25.9410  -32.4310   23.7350 C   0  0  0  0  0  3  0  0  0  0  0  0
  -25.6520  -33.8240   24.0990 N   0  0  0  0  0  0  0  0  0  0  0  0
  -25.9700  -34.8890   23.3510 C   0  0  0  0  0  0  0  0  0  0  0  0
  -26.6130  -34.8010   22.3010 O   0  0  0  0  0  0  0  0  0  0  0  0
  -25.0810  -33.9680   24.9210 H   0  0  0  0  0  0  0  0  0  0  0  0
  -24.2460  -36.6970   23.0670 C   0  0  0  0  0  1  0  0  0  0  0  0
  -25.5000  -36.2700   23.8460 C   0  0  0  0  0  3  0  0  0  0  0  0
  -27.6530  -37.1290   24.6560 C   0  0  0  0  0  1  0  0  0  0  0  0
  -26.5390  -37.3180   23.7320 N   0  0  0  0  0  0  0  0  0  0  0  0
  -26.1410  -38.2390   23.9000 H   0  0  0  0  0  0  0  0  0  0  0  0
  -26.4950  -31.6330   24.9800 C   0  0  1  0  0  0  0  0  0  0  0  0
  -25.4350  -31.3790   26.0770 C   0  0  0  0  0  1  0  0  0  0  0  0
  -27.0610  -30.2630   24.5390 C   0  0  0  0  0  1  0  0  0  0  0  0
  -27.6690  -32.4100   25.6210 C   0  0  0  0  0  1  0  0  0  0  0  0
  1  4  1  0
  2  4  2  0
  3  6  2  0
  3  5  1  0
  4  7  1  0
  5  1  2  0
  6  2  1  0
  8  5  1  0
  8  9  2  0
 10  9  1  0
 10 11  1  0
 12 20  1  0
 13 18  1  0
 14 15  1  0
 14 13  1  0
 16 15  1  0
 16 25  1  0
 16 17  1  0
 18 12  1  0
 18 17  1  0
 19 12  2  0
 20 11  1  0
 20 21  1  0
 22 23  2  0
 23 42  1  0
 24 23  1  0
 24 27  1  0
 25 26  1  0
 25 22  1  0
 26 24  2  0
 27 28  1  0
 28 29  2  0
 30 33  1  0
 30 29  1  0
 31 30  2  0
 32 31  1  0
 32 27  2  0
 33 34  1  0
 34 35  1  0
 35 36  2  0
 37 36  1  0
 37 41  1  0
 38 37  2  0
 39 34  2  0
 39 38  1  0
 40 39  1  0
 42 43  1  0
 43 46  1  0
 43 45  1  0
 44 42  2  0
 47 22  1  0
 47 48  1  0
 49 47  1  0
 50 51  1  0
 50  6  1  0
 51 53  1  0
 52 63  2  0
 53 58  1  0
 54 62  1  0
 54 64  1  0
 55 61  1  0
 55 57  1  0
 56 62  1  0
 57 56  1  0
 58 57  2  0
 59 60  1  0
 59 53  2  0
 60 55  2  0
 61 54  1  0
 62 52  1  0
 64 66  2  0
 65 64  1  0
 67 65  1  0
 68 77  2  0
 68 73  1  0
 69 65  1  0
 69 73  1  0
 70 69  1  0
 71 72  1  0
 71 70  1  0
 72 68  1  0
 73 74  2  0
 74 75  1  0
 76 75  2  0
 77 76  1  0
 78 52  1  0
 78 79  1  0
 78 88  1  0
 79 82  1  0
 80 84  1  0
 80 79  1  0
 81 80  2  0
 84 83  1  0
 86 84  1  0
 86 87  1  0
 86 85  1  0
 88 91  1  1
 88 89  1  0
 90 88  1  0
M  ISO  4  12 100  20 100  50 101  51 101
M  END
>  <TORSDO>  (15) 
F 21

>  <SCORE>  (15) 
-12.900

>  <name>  (15) 
14

>  <ligand_id>  (15) 
14

>  <original_smiles>  (15) 
[H]c1c([H])c([H])c2c(c1[H])C([H])([H])C([H])([H])C([H])([H])C2([H])N([H])C(=O)C1([H])N(C(=O)C([H])(N([H])C(=O)C([H])(N([H])C([H])([H])[H])C([H])([H])[H])C(C([H])([H])[H])(C([H])([H])[H])C([H])([H])[H])C([H])([H])c2c([H])c(OC([H])([H])c3c([H])c(C([H])([H])[H])c([H])c(C([H])([H])C([H])([H])C([H])([H])C([H])([H])N([H])C(=O)N4C([H])([H])C([H])([H])C([H])([H])C([H])(n5nc(-c6c([H])c([H])c(Oc7c([H])c([H])c(F)c([H])c7F)c([H])c6[H])c(C(=O)N([H])[H])c5N([H])[H])C4([H])[H])c3[H])c([H])c([H])c2C1([H])[H]

>  <smiles>  (15) 
[H]c1c([H])c([H])c2c(c1[H])C([H])([H])C([H])([H])C([H])([H])C2([H])N([H])C(=O)C1([H])N(C(=O)C([H])(N([H])C(=O)C([H])(N([H])C([H])([H])[H])C([H])([H])[H])C(C([H])([H])[H])(C([H])([H])[H])C([H])([H])[H])C([H])([H])c2c([H])c(OC([H])([H])c3c([H])c(C([H])([H])[H])c([H])c(C([H])([H])C([H])([H])C([H])([H])C([H])([H])N([H])C(=O)N4C([H])([H])C([H])([H])C([H])([H])C([H])(n5nc(-c6c([H])c([H])c(Oc7c([H])c([H])c(F)c([H])c7F)c([H])c6[H])c(C(=O)N([H])[H])c5N([H])[H])C4([H])[H])c3[H])c([H])c([H])c2C1([H])[H]

$$$$
15:0:0
     RDKit          3D

 92101  0  0  1  0  0  0  0  0999 V2000
  -24.5650  -23.8440   22.7520 C   0  0  0  0  0  3  0  0  0  0  0  0
  -25.1840  -25.0750   23.0280 C   0  0  0  0  0  3  0  0  0  0  0  0
  -25.0830  -23.0050   21.7480 C   0  0  0  0  0  3  0  0  0  0  0  0
  -26.3350  -25.4560   22.3120 C   0  0  0  0  0  3  0  0  0  0  0  0
  -26.2160  -23.3930   21.0010 C   0  0  0  0  0  0  0  0  0  0  0  0
  -26.8540  -24.6340   21.2800 C   0  0  0  0  0  0  0  0  0  0  0  0
  -28.1940  -22.1020   19.9850 C   0  0  0  0  0  0  0  0  0  0  0  0
  -26.7120  -22.4670   19.8850 C   0  0  0  0  0  2  0  0  0  0  0  0
  -28.9060  -23.6090   19.9300 C   0  0  0  0  0  2  0  0  0  0  0  0
  -28.1650  -25.0100   20.5690 C   0  0  0  0  0  3  0  0  0  0  0  0
  -28.4710  -20.7480   20.0390 N   0  0  0  0  0  0  0  0  0  0  0  0
  -28.3370  -26.5400   20.1900 O   0  0  0  0  0  0  0  0  0  0  0  0
  -24.7550  -32.1070   23.5020 C   0  0  0  0  0  0  0  0  0  0  0  0
  -27.2960  -27.5440   20.2090 C   0  0  0  0  0  0  0  0  0  0  0  0
  -23.5570  -30.8230   21.7740 C   0  0  0  0  0  3  0  0  0  0  0  0
  -24.9980  -29.3230   20.2660 C   0  0  0  0  0  0  0  0  0  0  0  0
  -26.1160  -31.0670   21.6450 C   0  0  0  0  0  2  0  0  0  0  0  0
  -26.1770  -29.7170   20.9080 C   0  0  0  0  0  0  0  0  0  0  0  0
  -27.3280  -28.8420   20.8650 C   0  0  0  0  0  3  0  0  0  0  0  0
  -26.0920  -27.2550   19.5330 C   0  0  0  0  0  3  0  0  0  0  0  0
  -24.9650  -28.1040   19.5690 C   0  0  0  0  0  3  0  0  0  0  0  0
  -23.7850  -30.2320   20.3570 C   0  0  0  0  0  2  0  0  0  0  0  0
  -24.8290  -31.3520   22.3620 N   0  0  0  0  0  0  0  0  0  0  0  0
  -23.6680  -32.3640   24.0420 O   0  0  0  0  0  0  0  0  0  0  0  0
  -22.8690  -29.7600   22.6670 C   0  0  0  0  0  0  0  0  0  0  0  0
  -21.5480  -29.5790   22.5020 N   0  0  0  0  0  0  0  0  0  0  0  0
  -23.5290  -29.1090   23.4800 O   0  0  0  0  0  0  0  0  0  0  0  0
  -21.0720  -30.1570   21.8240 H   0  0  0  0  0  0  0  0  0  0  0  0
  -18.1770  -28.2950   22.8540 C   0  0  0  0  0  0  0  0  0  0  0  0
  -20.7230  -28.5990   23.2100 C   0  0  0  0  0  3  0  0  0  0  0  0
  -20.8700  -27.1920   22.5860 C   0  0  0  0  0  2  0  0  0  0  0  0
  -19.8080  -26.8890   21.5240 C   0  0  0  0  0  2  0  0  0  0  0  0
  -18.4040  -26.9790   22.1310 C   0  0  0  0  0  2  0  0  0  0  0  0
  -19.2650  -29.0630   23.3480 C   0  0  0  0  0  0  0  0  0  0  0  0
  -18.9980  -30.2950   23.9880 C   0  0  0  0  0  3  0  0  0  0  0  0
  -17.6770  -30.7570   24.1380 C   0  0  0  0  0  3  0  0  0  0  0  0
  -16.6040  -29.9860   23.6600 C   0  0  0  0  0  3  0  0  0  0  0  0
  -16.8550  -28.7590   23.0220 C   0  0  0  0  0  3  0  0  0  0  0  0
  -26.0340  -32.6980   24.1690 C   0  0  0  0  0  3  0  0  0  0  0  0
  -25.7630  -34.1110   24.4900 N   0  0  0  0  0  0  0  0  0  0  0  0
  -26.1440  -35.1530   23.7390 C   0  0  0  0  0  0  0  0  0  0  0  0
  -26.8280  -35.0250   22.7220 O   0  0  0  0  0  0  0  0  0  0  0  0
  -25.1620  -34.2850   25.2820 H   0  0  0  0  0  0  0  0  0  0  0  0
  -24.4730  -36.9990   23.3620 C   0  0  0  0  0  1  0  0  0  0  0  0
  -25.6950  -36.5590   24.1860 C   0  0  0  0  0  3  0  0  0  0  0  0
  -27.8460  -37.3870   25.0370 C   0  0  0  0  0  1  0  0  0  0  0  0
  -26.7580  -37.5820   24.0800 N   0  0  0  0  0  0  0  0  0  0  0  0
  -26.3770  -38.5120   24.2190 H   0  0  0  0  0  0  0  0  0  0  0  0
  -26.4730  -31.9210   25.4730 C   0  0  1  0  0  0  0  0  0  0  0  0
  -25.3240  -31.7020   26.4840 C   0  0  0  0  0  1  0  0  0  0  0  0
  -27.0500  -30.5290   25.1230 C   0  0  0  0  0  1  0  0  0  0  0  0
  -27.6000  -32.6950   26.1930 C   0  0  0  0  0  1  0  0  0  0  0  0
  -29.6740  -19.7420   20.2890 C   0  0  0  0  0  2  0  0  0  0  0  0
  -29.7830  -18.1320   19.6670 C   0  0  0  0  0  2  0  0  0  0  0  0
  -30.6700  -15.5190   20.2240 C   0  0  0  0  0  0  0  0  0  0  0  0
  -30.6960  -13.1090   19.4020 C   0  0  0  0  0  2  0  0  0  0  0  0
  -29.8030  -13.0000   18.1410 C   0  0  0  0  0  2  0  0  0  0  0  0
  -28.3340  -12.7590   18.5420 C   0  0  0  0  0  2  0  0  0  0  0  0
  -27.8760  -13.6830   19.7010 C   0  0  0  0  0  3  0  0  0  0  0  0
  -28.9050  -13.7620   20.8500 C   0  0  0  0  0  2  0  0  0  0  0  0
  -30.1630  -14.2180   20.2570 N   0  0  0  0  0  0  0  0  0  0  0  0
  -31.8580  -15.6270   19.8900 O   0  0  0  0  0  0  0  0  0  0  0  0
  -29.8150  -16.6730   20.3460 N   0  0  0  0  0  0  0  0  0  0  0  0
  -28.9120  -16.4020   20.7080 H   0  0  0  0  0  0  0  0  0  0  0  0
  -25.4820  -14.2180   20.4140 C   0  0  0  0  0  0  0  0  0  0  0  0
  -24.4300  -13.4270   20.7750 C   0  0  0  0  0  0  0  0  0  0  0  0
  -24.9190  -12.0840   20.7610 C   0  0  0  0  0  0  0  0  0  0  0  0
  -26.5410  -13.3550   20.1860 N   0  0  0  0  0  0  0  0  0  0  0  0
  -26.2130  -12.0650   20.4640 N   0  0  0  0  0  0  0  0  0  0  0  0
  -24.2120  -10.8110   20.9540 C   0  0  0  0  0  0  0  0  0  0  0  0
  -24.6190   -9.8840   21.9400 C   0  0  0  0  0  3  0  0  0  0  0  0
  -23.9100   -8.6780   22.1220 C   0  0  0  0  0  3  0  0  0  0  0  0
  -22.7830   -8.3870   21.3160 C   0  0  0  0  0  0  0  0  0  0  0  0
  -22.4000   -9.3010   20.3210 C   0  0  0  0  0  3  0  0  0  0  0  0
  -23.1080  -10.5000   20.1360 C   0  0  0  0  0  3  0  0  0  0  0  0
  -22.0500   -7.2280   21.4000 O   0  0  0  0  0  0  0  0  0  0  0  0
  -21.9040   -6.5550   22.5870 C   0  0  0  0  0  0  0  0  0  0  0  0
  -21.3370   -7.1660   23.7280 C   0  0  0  0  0  3  0  0  0  0  0  0
  -21.1430   -6.4150   24.9040 C   0  0  0  0  0  3  0  0  0  0  0  0
  -21.5040   -5.0550   24.9400 C   0  0  0  0  0  0  0  0  0  0  0  0
  -22.0660   -4.4440   23.8040 C   0  0  0  0  0  3  0  0  0  0  0  0
  -22.2600   -5.1940   22.6290 C   0  0  0  0  0  0  0  0  0  0  0  0
  -22.7800   -4.5940   21.5320 F   0  0  0  0  0  0  0  0  0  0  0  0
  -21.3120   -4.3300   26.0690 F   0  0  0  0  0  0  0  0  0  0  0  0
  -23.0220  -13.8800   21.0270 C   0  0  0  0  0  0  0  0  0  0  0  0
  -22.3040  -13.2000   21.9130 N   0  0  0  0  0  0  0  0  0  0  0  0
  -22.5680  -14.8790   20.4700 O   0  0  0  0  0  0  0  0  0  0  0  0
  -22.6850  -12.3860   22.3780 H   0  0  0  0  0  0  0  0  0  0  0  0
  -21.3590  -13.4890   22.1250 H   0  0  0  0  0  0  0  0  0  0  0  0
  -25.6180  -15.5940   20.2320 N   0  0  0  0  0  0  0  0  0  0  0  0
  -24.8300  -16.2220   20.3500 H   0  0  0  0  0  0  0  0  0  0  0  0
  -26.4500  -16.0640   19.9000 H   0  0  0  0  0  0  0  0  0  0  0  0
  1  2  1  0
  3  1  2  0
  4  2  2  0
  5  6  2  0
  5  3  1  0
  6  4  1  0
  7 11  2  0
  8  7  1  0
  8  5  1  0
  9  7  1  0
  9 10  1  0
 10 12  1  0
 10  6  1  0
 11 53  1  0
 12 14  1  0
 13 24  2  0
 14 19  1  0
 15 23  1  0
 15 25  1  0
 16 22  1  0
 16 18  1  0
 17 23  1  0
 18 17  1  0
 19 18  2  0
 20 21  1  0
 20 14  2  0
 21 16  2  0
 22 15  1  0
 23 13  1  0
 25 27  2  0
 26 25  1  0
 28 26  1  0
 29 38  2  0
 29 34  1  0
 30 26  1  0
 30 34  1  0
 31 30  1  0
 32 33  1  0
 32 31  1  0
 33 29  1  0
 34 35  2  0
 35 36  1  0
 37 36  2  0
 38 37  1  0
 39 13  1  0
 39 40  1  0
 39 49  1  0
 40 43  1  0
 41 45  1  0
 41 40  1  0
 42 41  2  0
 45 44  1  0
 47 45  1  0
 47 48  1  0
 47 46  1  0
 49 52  1  1
 49 50  1  0
 51 49  1  0
 54 53  1  0
 54 63  1  0
 55 61  1  0
 55 63  1  0
 56 61  1  0
 57 58  1  0
 57 56  1  0
 59 58  1  0
 59 68  1  0
 59 60  1  0
 61 60  1  0
 62 55  2  0
 63 64  1  0
 65 66  2  0
 66 85  1  0
 67 66  1  0
 67 70  1  0
 68 65  1  0
 68 69  1  0
 69 67  2  0
 70 71  1  0
 71 72  2  0
 73 76  1  0
 73 72  1  0
 74 73  2  0
 75 74  1  0
 75 70  2  0
 76 77  1  0
 77 82  2  0
 77 78  1  0
 78 79  2  0
 79 80  1  0
 80 84  1  0
 81 80  2  0
 82 81  1  0
 83 82  1  0
 85 86  1  0
 86 89  1  0
 86 88  1  0
 87 85  2  0
 90 91  1  0
 90 65  1  0
 92 90  1  0
M  ISO  4  10 101  12 101  55 100  63 100
M  END
>  <TORSDO>  (16) 
F 18

>  <SCORE>  (16) 
-14.522

>  <name>  (16) 
15

>  <ligand_id>  (16) 
15

>  <original_smiles>  (16) 
[H]c1c([H])c([H])c2c(c1[H])C([H])([H])C(=NC([H])([H])C([H])([H])N([H])C(=O)N1C([H])([H])C([H])([H])C([H])([H])C([H])(n3nc(-c4c([H])c([H])c(Oc5c([H])c([H])c(F)c([H])c5F)c([H])c4[H])c(C(=O)N([H])[H])c3N([H])[H])C1([H])[H])C([H])([H])C2([H])Oc1c([H])c([H])c2c(c1[H])C([H])([H])N(C(=O)C([H])(N([H])C(=O)C([H])(N([H])C([H])([H])[H])C([H])([H])[H])C(C([H])([H])[H])(C([H])([H])[H])C([H])([H])[H])C([H])(C(=O)N([H])C1([H])c3c([H])c([H])c([H])c([H])c3C([H])([H])C([H])([H])C1([H])[H])C2([H])[H]

>  <smiles>  (16) 
[H]c1c([H])c([H])c2c(c1[H])C([H])([H])C(=NC([H])([H])C([H])([H])N([H])C(=O)N1C([H])([H])C([H])([H])C([H])([H])C([H])(n3nc(-c4c([H])c([H])c(Oc5c([H])c([H])c(F)c([H])c5F)c([H])c4[H])c(C(=O)N([H])[H])c3N([H])[H])C1([H])[H])C([H])([H])C2([H])Oc1c([H])c([H])c2c(c1[H])C([H])([H])N(C(=O)C([H])(N([H])C(=O)C([H])(N([H])C([H])([H])[H])C([H])([H])[H])C(C([H])([H])[H])(C([H])([H])[H])C([H])([H])[H])C([H])(C(=O)N([H])C1([H])c3c([H])c([H])c([H])c([H])c3C([H])([H])C([H])([H])C1([H])[H])C2([H])[H]

$$$$
16:0:0
     RDKit          3D

 94104  0  0  1  0  0  0  0  0999 V2000
  -30.7200  -14.6810   20.4470 C   0  0  0  0  0  0  0  0  0  0  0  0
  -30.4100  -12.4090   19.4790 C   0  0  0  0  0  2  0  0  0  0  0  0
  -29.5220  -12.4950   18.2230 C   0  0  0  0  0  2  0  0  0  0  0  0
  -28.0390  -12.3640   18.6160 C   0  0  0  0  0  2  0  0  0  0  0  0
  -27.6490  -13.2890   19.8010 C   0  0  0  0  0  3  0  0  0  0  0  0
  -28.6770  -13.2420   20.9540 C   0  0  0  0  0  2  0  0  0  0  0  0
  -30.0000  -13.5120   20.3810 N   0  0  0  0  0  0  0  0  0  0  0  0
  -31.9140  -14.6750   20.1350 O   0  0  0  0  0  0  0  0  0  0  0  0
  -26.8410  -23.6980   19.8280 C   0  0  0  0  0  3  0  0  0  0  0  0
  -26.3840  -22.4260   19.4510 C   0  0  0  0  0  3  0  0  0  0  0  0
  -28.8990  -22.6870   20.6010 C   0  0  0  0  0  3  0  0  0  0  0  0
  -28.4550  -21.3350   20.2990 C   0  0  0  0  0  0  0  0  0  0  0  0
  -28.9670  -19.9350   20.5310 C   0  0  0  0  0  0  0  0  0  0  0  0
  -28.1330  -23.8920   20.3430 C   0  0  0  0  0  0  0  0  0  0  0  0
  -27.1780  -21.2840   19.6530 C   0  0  0  0  0  0  0  0  0  0  0  0
  -28.1320  -18.9650   19.9740 C   0  0  0  0  0  0  0  0  0  0  0  0
  -28.1710  -17.4310   20.0120 C   0  0  0  0  0  2  0  0  0  0  0  0
  -30.2230  -18.1770   22.0670 C   0  0  0  0  0  2  0  0  0  0  0  0
  -29.4620  -16.6520   19.6080 C   0  0  0  0  0  2  0  0  0  0  0  0
  -30.9280  -16.9020   21.4550 C   0  0  0  0  0  2  0  0  0  0  0  0
  -30.2220  -19.5690   21.3100 C   0  0  0  0  0  3  0  0  0  0  0  0
  -31.4880  -19.8270   20.4760 C   0  0  0  0  0  1  0  0  0  0  0  0
  -30.1010  -15.8970   20.7220 N   0  0  0  0  0  0  0  0  0  0  0  0
  -26.7410  -19.6500   19.1930 S   0  0  0  0  0  0  0  0  0  0  0  0
  -25.2530  -13.9240   20.4510 C   0  0  0  0  0  0  0  0  0  0  0  0
  -24.1670  -13.1750   20.8080 C   0  0  0  0  0  0  0  0  0  0  0  0
  -24.6140  -11.8170   20.8240 C   0  0  0  0  0  0  0  0  0  0  0  0
  -26.2910  -13.0290   20.2660 N   0  0  0  0  0  0  0  0  0  0  0  0
  -25.9130  -11.7560   20.5540 N   0  0  0  0  0  0  0  0  0  0  0  0
  -23.8640  -10.5710   21.0240 C   0  0  0  0  0  0  0  0  0  0  0  0
  -24.2790   -9.6020   21.9630 C   0  0  0  0  0  3  0  0  0  0  0  0
  -23.5300   -8.4200   22.1510 C   0  0  0  0  0  3  0  0  0  0  0  0
  -22.3520   -8.2000   21.3990 C   0  0  0  0  0  0  0  0  0  0  0  0
  -21.9560   -9.1570   20.4480 C   0  0  0  0  0  3  0  0  0  0  0  0
  -22.7040  -10.3310   20.2600 C   0  0  0  0  0  3  0  0  0  0  0  0
  -21.5750   -7.0700   21.4950 O   0  0  0  0  0  0  0  0  0  0  0  0
  -21.5370   -6.3190   22.6420 C   0  0  0  0  0  0  0  0  0  0  0  0
  -21.1840   -6.8790   23.8890 C   0  0  0  0  0  3  0  0  0  0  0  0
  -21.0930   -6.0570   25.0300 C   0  0  0  0  0  3  0  0  0  0  0  0
  -21.3400   -4.6760   24.9250 C   0  0  0  0  0  0  0  0  0  0  0  0
  -21.6830   -4.1150   23.6830 C   0  0  0  0  0  3  0  0  0  0  0  0
  -21.7790   -4.9340   22.5450 C   0  0  0  0  0  0  0  0  0  0  0  0
  -22.0920   -4.3850   21.3460 F   0  0  0  0  0  0  0  0  0  0  0  0
  -21.2440   -3.8840   26.0190 F   0  0  0  0  0  0  0  0  0  0  0  0
  -22.7710  -13.6780   21.0290 C   0  0  0  0  0  0  0  0  0  0  0  0
  -22.0130  -13.0170   21.8950 N   0  0  0  0  0  0  0  0  0  0  0  0
  -22.3620  -14.6940   20.4690 O   0  0  0  0  0  0  0  0  0  0  0  0
  -22.3580  -12.1970   22.3720 H   0  0  0  0  0  0  0  0  0  0  0  0
  -21.0740  -13.3360   22.0880 H   0  0  0  0  0  0  0  0  0  0  0  0
  -25.4370  -15.2870   20.2470 N   0  0  0  0  0  0  0  0  0  0  0  0
  -24.6730  -15.9490   20.3150 H   0  0  0  0  0  0  0  0  0  0  0  0
  -26.3080  -15.7050   19.9550 H   0  0  0  0  0  0  0  0  0  0  0  0
  -28.5730  -25.3500   20.7760 C   0  0  0  0  0  2  0  0  0  0  0  0
  -28.4770  -26.5110   19.8560 O   0  0  0  0  0  0  0  0  0  0  0  0
  -24.7100  -31.7970   23.0730 C   0  0  0  0  0  0  0  0  0  0  0  0
  -27.3590  -27.3490   19.9090 C   0  0  0  0  0  0  0  0  0  0  0  0
  -23.5130  -30.4110   21.4200 C   0  0  0  0  0  3  0  0  0  0  0  0
  -24.9740  -28.9170   19.9490 C   0  0  0  0  0  0  0  0  0  0  0  0
  -26.0440  -30.7750   21.2210 C   0  0  0  0  0  2  0  0  0  0  0  0
  -26.1390  -29.4070   20.5580 C   0  0  0  0  0  0  0  0  0  0  0  0
  -27.3350  -28.6280   20.5400 C   0  0  0  0  0  3  0  0  0  0  0  0
  -26.1960  -26.9420   19.2280 C   0  0  0  0  0  3  0  0  0  0  0  0
  -25.0030  -27.6860   19.2760 C   0  0  0  0  0  3  0  0  0  0  0  0
  -23.7230  -29.7680   20.0250 C   0  0  0  0  0  2  0  0  0  0  0  0
  -24.7740  -31.0110   21.9610 N   0  0  0  0  0  0  0  0  0  0  0  0
  -23.6290  -32.0480   23.6240 O   0  0  0  0  0  0  0  0  0  0  0  0
  -22.8830  -29.3620   22.3680 C   0  0  0  0  0  0  0  0  0  0  0  0
  -21.5570  -29.1730   22.2610 N   0  0  0  0  0  0  0  0  0  0  0  0
  -23.5840  -28.7230   23.1560 O   0  0  0  0  0  0  0  0  0  0  0  0
  -21.0500  -29.7410   21.5950 H   0  0  0  0  0  0  0  0  0  0  0  0
  -18.2000  -27.9350   22.8000 C   0  0  0  0  0  0  0  0  0  0  0  0
  -20.7610  -28.2090   23.0230 C   0  0  0  0  0  3  0  0  0  0  0  0
  -20.8640  -26.7930   22.4120 C   0  0  0  0  0  2  0  0  0  0  0  0
  -19.7430  -26.4860   21.4130 C   0  0  0  0  0  2  0  0  0  0  0  0
  -18.3740  -26.6040   22.0870 C   0  0  0  0  0  2  0  0  0  0  0  0
  -19.3210  -28.6960   23.2250 C   0  0  0  0  0  0  0  0  0  0  0  0
  -19.1050  -29.9420   23.8520 C   0  0  0  0  0  3  0  0  0  0  0  0
  -17.8000  -30.4290   24.0560 C   0  0  0  0  0  3  0  0  0  0  0  0
  -16.6930  -29.6650   23.6480 C   0  0  0  0  0  3  0  0  0  0  0  0
  -16.8940  -28.4180   23.0250 C   0  0  0  0  0  3  0  0  0  0  0  0
  -25.9900  -32.4400   23.6910 C   0  0  0  0  0  3  0  0  0  0  0  0
  -25.6480  -33.8120   24.0900 N   0  0  0  0  0  0  0  0  0  0  0  0
  -25.9270  -34.9050   23.3680 C   0  0  0  0  0  0  0  0  0  0  0  0
  -26.5680  -34.8670   22.3150 O   0  0  0  0  0  0  0  0  0  0  0  0
  -25.0700  -33.9120   24.9120 H   0  0  0  0  0  0  0  0  0  0  0  0
  -24.1290  -36.6530   23.1540 C   0  0  0  0  0  1  0  0  0  0  0  0
  -25.4130  -36.2570   23.9000 C   0  0  0  0  0  3  0  0  0  0  0  0
  -27.5530  -37.1750   24.6810 C   0  0  0  0  0  1  0  0  0  0  0  0
  -26.4070  -37.3480   23.7920 N   0  0  0  0  0  0  0  0  0  0  0  0
  -25.9790  -38.2460   24.0000 H   0  0  0  0  0  0  0  0  0  0  0  0
  -26.5610  -31.6290   24.9170 C   0  0  1  0  0  0  0  0  0  0  0  0
  -25.5030  -31.3120   26.0020 C   0  0  0  0  0  1  0  0  0  0  0  0
  -27.1690  -30.2850   24.4500 C   0  0  0  0  0  1  0  0  0  0  0  0
  -27.7110  -32.4250   25.5780 C   0  0  0  0  0  1  0  0  0  0  0  0
  1 23  1  0
  2  7  1  0
  3  4  1  0
  3  2  1  0
  5  4  1  0
  5 28  1  0
  5  6  1  0
  7  1  1  0
  7  6  1  0
  8  1  2  0
  9 14  1  0
 10 15  1  0
 10  9  2  0
 12 13  1  0
 12 11  1  0
 13 21  1  0
 14 11  2  0
 14 53  1  0
 15 12  2  0
 16 17  1  0
 16 13  2  0
 19 17  1  0
 19 23  1  0
 20 18  1  0
 21 22  1  0
 21 18  1  0
 23 20  1  0
 24 15  1  0
 24 16  1  0
 25 26  2  0
 26 27  1  0
 26 45  1  0
 27 30  1  0
 28 25  1  0
 28 29  1  0
 29 27  2  0
 30 31  1  0
 31 32  2  0
 33 36  1  0
 33 32  1  0
 34 33  2  0
 35 34  1  0
 35 30  2  0
 36 37  1  0
 37 38  1  0
 38 39  2  0
 40 39  1  0
 40 44  1  0
 41 40  2  0
 42 37  2  0
 42 41  1  0
 43 42  1  0
 45 46  1  0
 46 49  1  0
 46 48  1  0
 47 45  2  0
 50 51  1  0
 50 25  1  0
 52 50  1  0
 54 56  1  0
 54 53  1  0
 55 66  2  0
 56 61  1  0
 57 65  1  0
 57 67  1  0
 58 64  1  0
 58 60  1  0
 59 65  1  0
 60 59  1  0
 61 60  2  0
 62 63  1  0
 62 56  2  0
 63 58  2  0
 64 57  1  0
 65 55  1  0
 67 69  2  0
 68 67  1  0
 70 68  1  0
 71 80  2  0
 71 76  1  0
 72 68  1  0
 72 76  1  0
 73 72  1  0
 74 75  1  0
 74 73  1  0
 75 71  1  0
 76 77  2  0
 77 78  1  0
 79 78  2  0
 80 79  1  0
 81 55  1  0
 81 82  1  0
 81 91  1  0
 82 85  1  0
 83 87  1  0
 83 82  1  0
 84 83  2  0
 87 86  1  0
 89 87  1  0
 89 90  1  0
 89 88  1  0
 91 94  1  1
 91 92  1  0
 93 91  1  0
M  ISO  4   1 100  23 100  53 101  54 101
M  END
>  <TORSDO>  (17) 
F 16

>  <SCORE>  (17) 
-14.914

>  <name>  (17) 
16

>  <ligand_id>  (17) 
16

>  <original_smiles>  (17) 
[H]c1c([H])c([H])c2c(c1[H])C([H])([H])C([H])([H])C([H])([H])C2([H])N([H])C(=O)C1([H])N(C(=O)C([H])(N([H])C(=O)C([H])(N([H])C([H])([H])[H])C([H])([H])[H])C(C([H])([H])[H])(C([H])([H])[H])C([H])([H])[H])C([H])([H])c2c([H])c(OC([H])([H])c3c([H])c([H])c4sc5c(c4c3[H])C([H])(C([H])([H])[H])C([H])([H])C([H])([H])N(C(=O)N3C([H])([H])C([H])([H])C([H])([H])C([H])(n4nc(-c6c([H])c([H])c(Oc7c([H])c([H])c(F)c([H])c7F)c([H])c6[H])c(C(=O)N([H])[H])c4N([H])[H])C3([H])[H])C([H])([H])C5([H])[H])c([H])c([H])c2C1([H])[H]

>  <smiles>  (17) 
[H]c1c([H])c([H])c2c(c1[H])C([H])([H])C([H])([H])C([H])([H])C2([H])N([H])C(=O)C1([H])N(C(=O)C([H])(N([H])C(=O)C([H])(N([H])C([H])([H])[H])C([H])([H])[H])C(C([H])([H])[H])(C([H])([H])[H])C([H])([H])[H])C([H])([H])c2c([H])c(OC([H])([H])c3c([H])c([H])c4sc5c(c4c3[H])C([H])(C([H])([H])[H])C([H])([H])C([H])([H])N(C(=O)N3C([H])([H])C([H])([H])C([H])([H])C([H])(n4nc(-c6c([H])c([H])c(Oc7c([H])c([H])c(F)c([H])c7F)c([H])c6[H])c(C(=O)N([H])[H])c4N([H])[H])C3([H])[H])C([H])([H])C5([H])[H])c([H])c([H])c2C1([H])[H]

$$$$
17:0:0
     RDKit          3D

 95104  0  0  1  0  0  0  0  0999 V2000
  -28.5420  -20.7370   21.7110 C   0  0  0  0  0  2  0  0  0  0  0  0
  -29.9380  -21.3420   19.7390 C   0  0  0  0  0  2  0  0  0  0  0  0
  -27.8100  -22.0970   21.6000 C   0  0  0  0  0  2  0  0  0  0  0  0
  -29.2530  -22.7280   19.6610 C   0  0  0  0  0  2  0  0  0  0  0  0
  -29.0400  -20.2290   20.3410 C   0  0  0  0  0  3  0  0  0  0  0  0
  -28.7000  -23.2320   21.0180 C   0  0  0  0  0  3  0  0  0  0  0  0
  -31.0560  -14.7270   19.9940 C   0  0  0  0  0  0  0  0  0  0  0  0
  -30.6890  -12.5360   18.9320 C   0  0  0  0  0  2  0  0  0  0  0  0
  -29.6890  -12.7060   17.7720 C   0  0  0  0  0  2  0  0  0  0  0  0
  -28.2410  -12.5670   18.2830 C   0  0  0  0  0  2  0  0  0  0  0  0
  -27.9610  -13.4270   19.5460 C   0  0  0  0  0  3  0  0  0  0  0  0
  -29.0800  -13.2670   20.5980 C   0  0  0  0  0  2  0  0  0  0  0  0
  -30.3570  -13.5600   19.9380 N   0  0  0  0  0  0  0  0  0  0  0  0
  -32.2190  -14.8000   19.5820 O   0  0  0  0  0  0  0  0  0  0  0  0
  -29.6340  -18.0910   19.0340 C   0  0  0  0  0  2  0  0  0  0  0  0
  -29.3710  -17.8250   21.4520 C   0  0  0  0  0  2  0  0  0  0  0  0
  -30.5250  -16.8350   18.9880 C   0  0  0  0  0  2  0  0  0  0  0  0
  -30.2490  -16.5400   21.4190 C   0  0  0  0  0  2  0  0  0  0  0  0
  -29.7830  -18.8440   20.3660 C   0  0  0  0  0  3  0  0  0  0  0  0
  -30.3230  -15.8730   20.1000 N   0  0  0  0  0  0  0  0  0  0  0  0
  -25.6270  -14.0170   20.4450 C   0  0  0  0  0  0  0  0  0  0  0  0
  -24.5770  -13.2380   20.8490 C   0  0  0  0  0  0  0  0  0  0  0  0
  -25.0220  -11.8850   20.7350 C   0  0  0  0  0  0  0  0  0  0  0  0
  -26.6440  -13.1390   20.1080 N   0  0  0  0  0  0  0  0  0  0  0  0
  -26.2880  -11.8490   20.3430 N   0  0  0  0  0  0  0  0  0  0  0  0
  -24.2950  -10.6210   20.9220 C   0  0  0  0  0  0  0  0  0  0  0  0
  -24.7070   -9.6650   21.8750 C   0  0  0  0  0  3  0  0  0  0  0  0
  -23.9820   -8.4670   22.0480 C   0  0  0  0  0  3  0  0  0  0  0  0
  -22.8290   -8.2160   21.2660 C   0  0  0  0  0  0  0  0  0  0  0  0
  -22.4370   -9.1610   20.3020 C   0  0  0  0  0  3  0  0  0  0  0  0
  -23.1640  -10.3500   20.1270 C   0  0  0  0  0  3  0  0  0  0  0  0
  -22.0770   -7.0700   21.3470 O   0  0  0  0  0  0  0  0  0  0  0  0
  -21.8980   -6.4090   22.5360 C   0  0  0  0  0  0  0  0  0  0  0  0
  -21.3040   -7.0330   23.6530 C   0  0  0  0  0  3  0  0  0  0  0  0
  -21.0760   -6.2960   24.8340 C   0  0  0  0  0  3  0  0  0  0  0  0
  -21.4310   -4.9360   24.8940 C   0  0  0  0  0  0  0  0  0  0  0  0
  -22.0180   -4.3110   23.7800 C   0  0  0  0  0  3  0  0  0  0  0  0
  -22.2480   -5.0440   22.6030 C   0  0  0  0  0  0  0  0  0  0  0  0
  -22.7940   -4.4320   21.5250 F   0  0  0  0  0  0  0  0  0  0  0  0
  -21.2050   -4.2250   26.0240 F   0  0  0  0  0  0  0  0  0  0  0  0
  -23.2060  -13.7140   21.2320 C   0  0  0  0  0  0  0  0  0  0  0  0
  -22.5330  -12.9970   22.1250 N   0  0  0  0  0  0  0  0  0  0  0  0
  -22.7410  -14.7580   20.7720 O   0  0  0  0  0  0  0  0  0  0  0  0
  -22.9230  -12.1530   22.5170 H   0  0  0  0  0  0  0  0  0  0  0  0
  -21.6160  -13.2980   22.4220 H   0  0  0  0  0  0  0  0  0  0  0  0
  -25.7960  -15.3920   20.3130 N   0  0  0  0  0  0  0  0  0  0  0  0
  -25.0530  -16.0540   20.5060 H   0  0  0  0  0  0  0  0  0  0  0  0
  -26.6460  -15.8330   19.9820 H   0  0  0  0  0  0  0  0  0  0  0  0
  -27.9840  -24.6330   20.8720 C   0  0  0  0  0  3  0  0  0  0  0  0
  -27.0250  -24.8720   21.9770 N   0  0  0  0  0  4  0  0  0  0  0  0
  -27.4920  -24.8850   22.8680 H   0  0  0  0  0  0  0  0  0  0  0  0
  -26.3260  -24.1490   21.9990 H   0  0  0  0  0  0  0  0  0  0  0  0
  -26.5490  -25.7520   21.8590 H   0  0  0  0  0  0  0  0  0  0  0  0
  -28.9620  -25.8540   20.7790 C   0  0  0  0  0  2  0  0  0  0  0  0
  -28.6430  -26.8890   19.8270 O   0  0  0  0  0  0  0  0  0  0  0  0
  -24.6850  -31.8540   23.1620 C   0  0  0  0  0  0  0  0  0  0  0  0
  -27.4570  -27.5780   19.9560 C   0  0  0  0  0  0  0  0  0  0  0  0
  -23.5230  -30.4740   21.4700 C   0  0  0  0  0  3  0  0  0  0  0  0
  -25.0250  -29.0220   20.0060 C   0  0  0  0  0  0  0  0  0  0  0  0
  -26.0390  -30.9060   21.2950 C   0  0  0  0  0  2  0  0  0  0  0  0
  -26.1670  -29.5530   20.6220 C   0  0  0  0  0  0  0  0  0  0  0  0
  -27.3870  -28.8370   20.6000 C   0  0  0  0  0  3  0  0  0  0  0  0
  -26.3050  -27.0710   19.3220 C   0  0  0  0  0  3  0  0  0  0  0  0
  -25.0890  -27.7780   19.3570 C   0  0  0  0  0  3  0  0  0  0  0  0
  -23.7590  -29.8470   20.0710 C   0  0  0  0  0  2  0  0  0  0  0  0
  -24.7680  -31.0910   22.0350 N   0  0  0  0  0  0  0  0  0  0  0  0
  -23.5950  -32.0770   23.7070 O   0  0  0  0  0  0  0  0  0  0  0  0
  -22.9010  -29.4020   22.3910 C   0  0  0  0  0  0  0  0  0  0  0  0
  -21.5770  -29.2020   22.2710 N   0  0  0  0  0  0  0  0  0  0  0  0
  -23.6030  -28.7520   23.1690 O   0  0  0  0  0  0  0  0  0  0  0  0
  -21.0710  -29.7800   21.6150 H   0  0  0  0  0  0  0  0  0  0  0  0
  -18.2230  -27.9590   22.7790 C   0  0  0  0  0  0  0  0  0  0  0  0
  -20.7850  -28.2190   23.0080 C   0  0  0  0  0  3  0  0  0  0  0  0
  -20.8830  -26.8210   22.3540 C   0  0  0  0  0  2  0  0  0  0  0  0
  -19.7600  -26.5450   21.3500 C   0  0  0  0  0  2  0  0  0  0  0  0
  -18.3930  -26.6470   22.0300 C   0  0  0  0  0  2  0  0  0  0  0  0
  -19.3470  -28.7040   23.2240 C   0  0  0  0  0  0  0  0  0  0  0  0
  -19.1350  -29.9320   23.8850 C   0  0  0  0  0  3  0  0  0  0  0  0
  -17.8310  -30.4160   24.1050 C   0  0  0  0  0  3  0  0  0  0  0  0
  -16.7220  -29.6670   23.6770 C   0  0  0  0  0  3  0  0  0  0  0  0
  -16.9190  -28.4390   23.0180 C   0  0  0  0  0  3  0  0  0  0  0  0
  -25.9510  -32.5000   23.8060 C   0  0  0  0  0  3  0  0  0  0  0  0
  -26.4650  -31.7240   25.0800 C   0  0  1  0  0  0  0  0  0  0  0  0
  -25.3610  -31.4510   26.1290 C   0  0  0  0  0  1  0  0  0  0  0  0
  -27.0820  -30.3640   24.6780 C   0  0  0  0  0  1  0  0  0  0  0  0
  -27.5890  -32.5330   25.7680 C   0  0  0  0  0  1  0  0  0  0  0  0
  -25.6150  -33.8900   24.1440 N   0  0  0  0  0  0  0  0  0  0  0  0
  -25.9400  -34.9530   23.3970 C   0  0  0  0  0  0  0  0  0  0  0  0
  -26.6250  -34.8680   22.3730 O   0  0  0  0  0  0  0  0  0  0  0  0
  -25.0080  -34.0270   24.9380 H   0  0  0  0  0  0  0  0  0  0  0  0
  -24.1900  -36.7210   23.0270 C   0  0  0  0  0  1  0  0  0  0  0  0
  -25.4230  -36.3290   23.8570 C   0  0  0  0  0  3  0  0  0  0  0  0
  -27.5240  -37.2420   24.7380 C   0  0  0  0  0  1  0  0  0  0  0  0
  -26.4410  -37.3990   23.7720 N   0  0  0  0  0  0  0  0  0  0  0  0
  -26.0180  -38.3120   23.9170 H   0  0  0  0  0  0  0  0  0  0  0  0
  3  1  1  0
  4  2  1  0
  4  6  1  0
  5  2  1  0
  5 19  1  0
  5  1  1  0
  6 49  1  0
  6  3  1  0
  7 20  1  0
  8 13  1  0
  9 10  1  0
  9  8  1  0
 11 10  1  0
 11 24  1  0
 11 12  1  0
 13  7  1  0
 13 12  1  0
 14  7  2  0
 17 15  1  0
 17 20  1  0
 18 16  1  0
 19 15  1  0
 19 16  1  0
 20 18  1  0
 21 22  2  0
 22 41  1  0
 23 22  1  0
 23 26  1  0
 24 25  1  0
 24 21  1  0
 25 23  2  0
 26 27  1  0
 27 28  2  0
 29 32  1  0
 29 28  1  0
 30 29  2  0
 31 30  1  0
 31 26  2  0
 32 33  1  0
 33 38  2  0
 33 34  1  0
 34 35  2  0
 35 36  1  0
 36 40  1  0
 37 36  2  0
 38 37  1  0
 39 38  1  0
 41 42  1  0
 42 45  1  0
 42 44  1  0
 43 41  2  0
 46 21  1  0
 46 47  1  0
 48 46  1  0
 49 54  1  0
 49 50  1  0
 50 52  1  0
 50 51  1  0
 53 50  1  0
 55 57  1  0
 55 54  1  0
 56 67  2  0
 57 62  1  0
 58 66  1  0
 58 68  1  0
 59 65  1  0
 59 61  1  0
 60 66  1  0
 61 60  1  0
 62 61  2  0
 63 64  1  0
 63 57  2  0
 64 59  2  0
 65 58  1  0
 66 56  1  0
 68 70  2  0
 69 68  1  0
 71 69  1  0
 72 81  2  0
 72 77  1  0
 73 69  1  0
 73 77  1  0
 74 73  1  0
 75 76  1  0
 75 74  1  0
 76 72  1  0
 77 78  2  0
 78 79  1  0
 80 79  2  0
 81 80  1  0
 82 56  1  0
 82 87  1  0
 82 83  1  0
 83 86  1  1
 83 84  1  0
 85 83  1  0
 87 90  1  0
 88 92  1  0
 88 87  1  0
 89 88  2  0
 92 91  1  0
 94 92  1  0
 94 95  1  0
 94 93  1  0
M  ISO  4   7 100  20 100  54 101  55 101
M  END
>  <TORSDO>  (18) 
F 19

>  <SCORE>  (18) 
-13.368

>  <name>  (18) 
17

>  <ligand_id>  (18) 
17

>  <original_smiles>  (18) 
[H]c1c([H])c([H])c2c(c1[H])C([H])([H])C([H])([H])C([H])([H])C2([H])N([H])C(=O)C1([H])N(C(=O)C([H])(N([H])C(=O)C([H])(N([H])C([H])([H])[H])C([H])([H])[H])C(C([H])([H])[H])(C([H])([H])[H])C([H])([H])[H])C([H])([H])c2c([H])c(OC([H])([H])C([H])(C3([H])C([H])([H])C([H])([H])C([H])(C4([H])C([H])([H])C([H])([H])N(C(=O)N5C([H])([H])C([H])([H])C([H])([H])C([H])(n6nc(-c7c([H])c([H])c(Oc8c([H])c([H])c(F)c([H])c8F)c([H])c7[H])c(C(=O)N([H])[H])c6N([H])[H])C5([H])[H])C([H])([H])C4([H])[H])C([H])([H])C3([H])[H])[N+]([H])([H])[H])c([H])c([H])c2C1([H])[H]

>  <smiles>  (18) 
[H]c1c([H])c([H])c2c(c1[H])C([H])([H])C([H])([H])C([H])([H])C2([H])N([H])C(=O)C1([H])N(C(=O)C([H])(N([H])C(=O)C([H])(N([H])C([H])([H])[H])C([H])([H])[H])C(C([H])([H])[H])(C([H])([H])[H])C([H])([H])[H])C([H])([H])c2c([H])c(OC([H])([H])C([H])(C3([H])C([H])([H])C([H])([H])C([H])(C4([H])C([H])([H])C([H])([H])N(C(=O)N5C([H])([H])C([H])([H])C([H])([H])C([H])(n6nc(-c7c([H])c([H])c(Oc8c([H])c([H])c(F)c([H])c8F)c([H])c7[H])c(C(=O)N([H])[H])c6N([H])[H])C5([H])[H])C([H])([H])C4([H])[H])C([H])([H])C3([H])[H])[N+]([H])([H])[H])c([H])c([H])c2C1([H])[H]

$$$$
18:0:0
     RDKit          3D

 92100  0  0  1  0  0  0  0  0999 V2000
  -30.5670  -20.0170   21.7480 C   0  0  0  0  0  3  0  0  0  0  0  0
  -30.3240  -21.3390   19.7360 C   0  0  0  0  0  3  0  0  0  0  0  0
  -30.5720  -20.0320   20.3410 C   0  0  0  0  0  0  0  0  0  0  0  0
  -30.3330  -21.1750   22.5190 C   0  0  0  0  0  0  0  0  0  0  0  0
  -30.1110  -22.5770   20.4940 C   0  0  0  0  0  0  0  0  0  0  0  0
  -30.1610  -22.4470   21.9130 C   0  0  0  0  0  0  0  0  0  0  0  0
  -30.2920  -21.0090   24.0320 C   0  0  0  0  0  1  0  0  0  0  0  0
  -30.0920  -23.6730   22.8240 C   0  0  0  0  0  1  0  0  0  0  0  0
  -30.8880  -18.6290   19.5990 C   0  0  0  0  0  2  0  0  0  0  0  0
  -29.8910  -17.3660   19.7400 C   0  0  0  0  0  0  0  0  0  0  0  0
  -29.9480  -16.0380   19.6900 N   0  0  0  0  0  0  0  0  0  0  0  0
  -30.9320  -15.0340   19.4260 C   0  0  0  0  0  0  0  0  0  0  0  0
  -30.9850  -12.5440   19.0160 C   0  0  0  0  0  2  0  0  0  0  0  0
  -30.0210  -12.2240   17.8470 C   0  0  0  0  0  2  0  0  0  0  0  0
  -28.5620  -12.0740   18.3310 C   0  0  0  0  0  2  0  0  0  0  0  0
  -28.1410  -13.2130   19.2970 C   0  0  0  0  0  3  0  0  0  0  0  0
  -29.2140  -13.4300   20.3850 C   0  0  0  0  0  2  0  0  0  0  0  0
  -30.4820  -13.7550   19.7010 N   0  0  0  0  0  0  0  0  0  0  0  0
  -32.0420  -15.1900   18.9090 O   0  0  0  0  0  0  0  0  0  0  0  0
  -25.8370  -13.9260   20.1900 C   0  0  0  0  0  0  0  0  0  0  0  0
  -24.7540  -13.2100   20.6150 C   0  0  0  0  0  0  0  0  0  0  0  0
  -25.1290  -11.8360   20.5170 C   0  0  0  0  0  0  0  0  0  0  0  0
  -26.8110  -12.9940   19.8650 N   0  0  0  0  0  0  0  0  0  0  0  0
  -26.3910  -11.7280   20.1170 N   0  0  0  0  0  0  0  0  0  0  0  0
  -24.3390  -10.6170   20.7220 C   0  0  0  0  0  0  0  0  0  0  0  0
  -24.6930   -9.6630   21.7010 C   0  0  0  0  0  3  0  0  0  0  0  0
  -23.9060   -8.5070   21.8920 C   0  0  0  0  0  3  0  0  0  0  0  0
  -22.7510   -8.2970   21.1030 C   0  0  0  0  0  0  0  0  0  0  0  0
  -22.4170   -9.2380   20.1130 C   0  0  0  0  0  3  0  0  0  0  0  0
  -23.2040  -10.3850   19.9200 C   0  0  0  0  0  3  0  0  0  0  0  0
  -21.9390   -7.1930   21.2000 O   0  0  0  0  0  0  0  0  0  0  0  0
  -21.6820   -6.5950   22.4080 C   0  0  0  0  0  0  0  0  0  0  0  0
  -21.0720   -7.2950   23.4710 C   0  0  0  0  0  3  0  0  0  0  0  0
  -20.7610   -6.6230   24.6700 C   0  0  0  0  0  3  0  0  0  0  0  0
  -21.0510   -5.2520   24.8050 C   0  0  0  0  0  0  0  0  0  0  0  0
  -21.6540   -4.5520   23.7450 C   0  0  0  0  0  3  0  0  0  0  0  0
  -21.9650   -5.2200   22.5490 C   0  0  0  0  0  0  0  0  0  0  0  0
  -22.5260   -4.5360   21.5240 F   0  0  0  0  0  0  0  0  0  0  0  0
  -20.7460   -4.6040   25.9550 F   0  0  0  0  0  0  0  0  0  0  0  0
  -23.4120  -13.7650   20.9970 C   0  0  0  0  0  0  0  0  0  0  0  0
  -22.7150  -13.1070   21.9180 N   0  0  0  0  0  0  0  0  0  0  0  0
  -22.9920  -14.8160   20.5140 O   0  0  0  0  0  0  0  0  0  0  0  0
  -23.0710  -12.2590   22.3350 H   0  0  0  0  0  0  0  0  0  0  0  0
  -21.8160  -13.4590   22.2120 H   0  0  0  0  0  0  0  0  0  0  0  0
  -26.0640  -15.2880   20.0280 N   0  0  0  0  0  0  0  0  0  0  0  0
  -25.3520  -15.9870   20.2100 H   0  0  0  0  0  0  0  0  0  0  0  0
  -26.9280  -15.6750   19.6730 H   0  0  0  0  0  0  0  0  0  0  0  0
  -27.5570  -16.9920   20.7840 C   0  0  0  0  0  1  0  0  0  0  0  0
  -28.4360  -17.8380   19.8420 C   0  0  0  0  0  2  0  0  0  0  0  0
  -30.0090  -24.0490   19.8480 C   0  0  0  0  0  2  0  0  0  0  0  0
  -28.7520  -25.0670   20.0820 C   0  0  0  0  0  2  0  0  0  0  0  0
  -28.8850  -26.5700   19.9400 O   0  0  0  0  0  0  0  0  0  0  0  0
  -24.8430  -31.6330   23.2830 C   0  0  0  0  0  0  0  0  0  0  0  0
  -27.7300  -27.3930   19.9640 C   0  0  0  0  0  0  0  0  0  0  0  0
  -23.7400  -30.3030   21.5230 C   0  0  0  0  0  3  0  0  0  0  0  0
  -25.2910  -28.9270   20.0180 C   0  0  0  0  0  0  0  0  0  0  0  0
  -26.2680  -30.7430   21.4180 C   0  0  0  0  0  2  0  0  0  0  0  0
  -26.4290  -29.4150   20.6750 C   0  0  0  0  0  0  0  0  0  0  0  0
  -27.6490  -28.6620   20.6350 C   0  0  0  0  0  3  0  0  0  0  0  0
  -26.5650  -26.9790   19.2800 C   0  0  0  0  0  3  0  0  0  0  0  0
  -25.3640  -27.7160   19.3120 C   0  0  0  0  0  3  0  0  0  0  0  0
  -24.0140  -29.7410   20.1020 C   0  0  0  0  0  2  0  0  0  0  0  0
  -24.9690  -30.9070   22.1330 N   0  0  0  0  0  0  0  0  0  0  0  0
  -23.7360  -31.8210   23.8110 O   0  0  0  0  0  0  0  0  0  0  0  0
  -23.1080  -29.1890   22.3930 C   0  0  0  0  0  0  0  0  0  0  0  0
  -21.7970  -28.9530   22.2190 N   0  0  0  0  0  0  0  0  0  0  0  0
  -23.8000  -28.5440   23.1850 O   0  0  0  0  0  0  0  0  0  0  0  0
  -21.2950  -29.5300   21.5580 H   0  0  0  0  0  0  0  0  0  0  0  0
  -18.4700  -27.5740   22.5800 C   0  0  0  0  0  0  0  0  0  0  0  0
  -21.0130  -27.9210   22.9030 C   0  0  0  0  0  3  0  0  0  0  0  0
  -21.1830  -26.5470   22.2160 C   0  0  0  0  0  2  0  0  0  0  0  0
  -20.1050  -26.2600   21.1650 C   0  0  0  0  0  2  0  0  0  0  0  0
  -18.7120  -26.2920   21.8000 C   0  0  0  0  0  2  0  0  0  0  0  0
  -19.5510  -28.3470   23.0840 C   0  0  0  0  0  0  0  0  0  0  0  0
  -19.2700  -29.5470   23.7710 C   0  0  0  0  0  3  0  0  0  0  0  0
  -17.9430  -29.9750   23.9630 C   0  0  0  0  0  3  0  0  0  0  0  0
  -16.8780  -29.1990   23.4740 C   0  0  0  0  0  3  0  0  0  0  0  0
  -17.1420  -28.0010   22.7880 C   0  0  0  0  0  3  0  0  0  0  0  0
  -26.0800  -32.2810   23.9760 C   0  0  0  0  0  3  0  0  0  0  0  0
  -25.7170  -33.6600   24.3330 N   0  0  0  0  0  0  0  0  0  0  0  0
  -26.0360  -34.7440   23.6140 C   0  0  0  0  0  0  0  0  0  0  0  0
  -26.7350  -34.6900   22.5980 O   0  0  0  0  0  0  0  0  0  0  0  0
  -25.0950  -33.7740   25.1200 H   0  0  0  0  0  0  0  0  0  0  0  0
  -24.2500  -36.4850   23.2800 C   0  0  0  0  0  1  0  0  0  0  0  0
  -25.4960  -36.1050   24.0960 C   0  0  0  0  0  3  0  0  0  0  0  0
  -27.5830  -37.0520   24.9780 C   0  0  0  0  0  1  0  0  0  0  0  0
  -26.4910  -37.1960   24.0190 N   0  0  0  0  0  0  0  0  0  0  0  0
  -26.0490  -38.0980   24.1750 H   0  0  0  0  0  0  0  0  0  0  0  0
  -26.5610  -31.4860   25.2520 C   0  0  1  0  0  0  0  0  0  0  0  0
  -25.4260  -31.1720   26.2530 C   0  0  0  0  0  1  0  0  0  0  0  0
  -27.2180  -30.1450   24.8490 C   0  0  0  0  0  1  0  0  0  0  0  0
  -27.6410  -32.3020   26.0000 C   0  0  0  0  0  1  0  0  0  0  0  0
  1  4  1  0
  2  3  1  0
  2  5  2  0
  3  1  2  0
  4  7  1  0
  5  6  1  0
  6  4  2  0
  6  8  1  0
  9 10  1  0
  9  3  1  0
 10 49  1  0
 11 10  2  0
 12 11  1  0
 12 18  1  0
 13 18  1  0
 14 15  1  0
 14 13  1  0
 16 15  1  0
 16 23  1  0
 16 17  1  0
 18 17  1  0
 19 12  2  0
 20 21  2  0
 21 40  1  0
 22 21  1  0
 22 25  1  0
 23 24  1  0
 23 20  1  0
 24 22  2  0
 25 26  1  0
 26 27  2  0
 28 31  1  0
 28 27  1  0
 29 28  2  0
 30 29  1  0
 30 25  2  0
 31 32  1  0
 32 37  2  0
 32 33  1  0
 33 34  2  0
 34 35  1  0
 35 39  1  0
 36 35  2  0
 37 36  1  0
 38 37  1  0
 40 41  1  0
 41 44  1  0
 41 43  1  0
 42 40  2  0
 45 20  1  0
 45 46  1  0
 47 45  1  0
 49 48  1  0
 50 51  1  0
 50  5  1  0
 52 54  1  0
 52 51  1  0
 53 64  2  0
 54 59  1  0
 55 63  1  0
 55 65  1  0
 56 62  1  0
 56 58  1  0
 57 63  1  0
 58 57  1  0
 59 58  2  0
 60 61  1  0
 60 54  2  0
 61 56  2  0
 62 55  1  0
 63 53  1  0
 65 67  2  0
 66 65  1  0
 68 66  1  0
 69 78  2  0
 69 74  1  0
 70 66  1  0
 70 74  1  0
 71 70  1  0
 72 73  1  0
 72 71  1  0
 73 69  1  0
 74 75  2  0
 75 76  1  0
 77 76  2  0
 78 77  1  0
 79 53  1  0
 79 80  1  0
 79 89  1  0
 80 83  1  0
 81 85  1  0
 81 80  1  0
 82 81  2  0
 85 84  1  0
 87 85  1  0
 87 88  1  0
 87 86  1  0
 89 92  1  1
 89 90  1  0
 91 89  1  0
M  ISO  4  11 100  12 100  51 101  52 101
M  END
>  <TORSDO>  (19) 
F 21

>  <SCORE>  (19) 
-11.974

>  <name>  (19) 
18

>  <ligand_id>  (19) 
18

>  <original_smiles>  (19) 
[H]c1c([H])c([H])c2c(c1[H])C([H])([H])C([H])([H])C([H])([H])C2([H])N([H])C(=O)C1([H])N(C(=O)C([H])(N([H])C(=O)C([H])(N([H])C([H])([H])[H])C([H])([H])[H])C(C([H])([H])[H])(C([H])([H])[H])C([H])([H])[H])C([H])([H])c2c([H])c(OC([H])([H])C([H])([H])c3c([H])c(C([H])([H])C(=NC(=O)N4C([H])([H])C([H])([H])C([H])([H])C([H])(n5nc(-c6c([H])c([H])c(Oc7c([H])c([H])c(F)c([H])c7F)c([H])c6[H])c(C(=O)N([H])[H])c5N([H])[H])C4([H])[H])C([H])([H])C([H])([H])[H])c([H])c(C([H])([H])[H])c3C([H])([H])[H])c([H])c([H])c2C1([H])[H]

>  <smiles>  (19) 
[H]c1c([H])c([H])c2c(c1[H])C([H])([H])C([H])([H])C([H])([H])C2([H])N([H])C(=O)C1([H])N(C(=O)C([H])(N([H])C(=O)C([H])(N([H])C([H])([H])[H])C([H])([H])[H])C(C([H])([H])[H])(C([H])([H])[H])C([H])([H])[H])C([H])([H])c2c([H])c(OC([H])([H])C([H])([H])c3c([H])c(C([H])([H])C(=NC(=O)N4C([H])([H])C([H])([H])C([H])([H])C([H])(n5nc(-c6c([H])c([H])c(Oc7c([H])c([H])c(F)c([H])c7F)c([H])c6[H])c(C(=O)N([H])[H])c5N([H])[H])C4([H])[H])C([H])([H])C([H])([H])[H])c([H])c(C([H])([H])[H])c3C([H])([H])[H])c([H])c([H])c2C1([H])[H]

$$$$
19:0:0
     RDKit          3D

 90 99  0  0  1  0  0  0  0  0999 V2000
  -27.9140  -23.5620   19.2400 C   0  0  0  0  0  2  0  0  0  0  0  0
  -29.3320  -23.8640   21.1160 C   0  0  0  0  0  2  0  0  0  0  0  0
  -27.8740  -21.9460   19.5450 C   0  0  0  0  0  2  0  0  0  0  0  0
  -29.3010  -22.2590   21.4070 C   0  0  0  0  0  2  0  0  0  0  0  0
  -28.0950  -24.6070   20.4380 C   0  0  0  0  0  3  0  0  0  0  0  0
  -29.0650  -21.2960   20.2480 N   0  0  1  0  0  4  0  0  0  0  0  0
  -29.8430  -21.4250   19.6180 H   0  0  0  0  0  0  0  0  0  0  0  0
  -30.5350  -15.0630   20.2850 C   0  0  0  0  0  0  0  0  0  0  0  0
  -30.3570  -12.7050   19.3450 C   0  0  0  0  0  2  0  0  0  0  0  0
  -29.4140  -12.6130   18.1260 C   0  0  0  0  0  2  0  0  0  0  0  0
  -27.9640  -12.3870   18.5880 C   0  0  0  0  0  2  0  0  0  0  0  0
  -27.5610  -13.3290   19.7540 C   0  0  0  0  0  3  0  0  0  0  0  0
  -28.6330  -13.4070   20.8590 C   0  0  0  0  0  2  0  0  0  0  0  0
  -29.8770  -13.8300   20.2070 N   0  0  0  0  0  0  0  0  0  0  0  0
  -31.7540  -15.0180   20.0760 O   0  0  0  0  0  0  0  0  0  0  0  0
  -30.4310  -19.0290   21.0150 C   0  0  0  0  0  2  0  0  0  0  0  0
  -28.7030  -18.6160   19.4680 C   0  0  0  0  0  2  0  0  0  0  0  0
  -30.5180  -17.4420   21.3740 C   0  0  0  0  0  2  0  0  0  0  0  0
  -28.7330  -17.0080   19.8110 C   0  0  0  0  0  2  0  0  0  0  0  0
  -29.0630  -19.7070   20.5810 C   0  0  0  0  0  3  0  0  0  0  0  0
  -29.9080  -16.3520   20.5100 N   0  0  0  0  0  0  0  0  0  0  0  0
  -25.2010  -13.8880   20.5550 C   0  0  0  0  0  0  0  0  0  0  0  0
  -24.1450  -13.1070   20.9300 C   0  0  0  0  0  0  0  0  0  0  0  0
  -24.6100  -11.7570   20.8710 C   0  0  0  0  0  0  0  0  0  0  0  0
  -26.2390  -13.0150   20.2820 N   0  0  0  0  0  0  0  0  0  0  0  0
  -25.8960  -11.7270   20.5410 N   0  0  0  0  0  0  0  0  0  0  0  0
  -23.8850  -10.4920   21.0520 C   0  0  0  0  0  0  0  0  0  0  0  0
  -24.3150   -9.5200   21.9820 C   0  0  0  0  0  3  0  0  0  0  0  0
  -23.5880   -8.3220   22.1510 C   0  0  0  0  0  3  0  0  0  0  0  0
  -22.4180   -8.0870   21.3910 C   0  0  0  0  0  0  0  0  0  0  0  0
  -22.0090   -9.0470   20.4500 C   0  0  0  0  0  3  0  0  0  0  0  0
  -22.7360  -10.2370   20.2780 C   0  0  0  0  0  3  0  0  0  0  0  0
  -21.6630   -6.9420   21.4700 O   0  0  0  0  0  0  0  0  0  0  0  0
  -21.5870   -6.2090   22.6280 C   0  0  0  0  0  0  0  0  0  0  0  0
  -21.1070   -6.7660   23.8340 C   0  0  0  0  0  3  0  0  0  0  0  0
  -20.9810   -5.9580   24.9810 C   0  0  0  0  0  3  0  0  0  0  0  0
  -21.3240   -4.5950   24.9240 C   0  0  0  0  0  0  0  0  0  0  0  0
  -21.7970   -4.0370   23.7230 C   0  0  0  0  0  3  0  0  0  0  0  0
  -21.9260   -4.8420   22.5770 C   0  0  0  0  0  0  0  0  0  0  0  0
  -22.3620   -4.2940   21.4180 F   0  0  0  0  0  0  0  0  0  0  0  0
  -21.1960   -3.8160   26.0240 F   0  0  0  0  0  0  0  0  0  0  0  0
  -22.7520  -13.5810   21.2260 C   0  0  0  0  0  0  0  0  0  0  0  0
  -22.0370  -12.8750   22.0950 N   0  0  0  0  0  0  0  0  0  0  0  0
  -22.3080  -14.6110   20.7230 O   0  0  0  0  0  0  0  0  0  0  0  0
  -22.4100  -12.0400   22.5220 H   0  0  0  0  0  0  0  0  0  0  0  0
  -21.1030  -13.1740   22.3360 H   0  0  0  0  0  0  0  0  0  0  0  0
  -25.3600  -15.2620   20.3950 N   0  0  0  0  0  0  0  0  0  0  0  0
  -24.5930  -15.9110   20.5280 H   0  0  0  0  0  0  0  0  0  0  0  0
  -26.2010  -15.7040   20.0510 H   0  0  0  0  0  0  0  0  0  0  0  0
  -28.2420  -26.1710   20.2430 O   0  0  0  0  0  0  0  0  0  0  0  0
  -24.6240  -31.8970   23.2480 C   0  0  0  0  0  0  0  0  0  0  0  0
  -27.1700  -27.1440   20.2230 C   0  0  0  0  0  0  0  0  0  0  0  0
  -23.4140  -30.5010   21.6170 C   0  0  0  0  0  3  0  0  0  0  0  0
  -24.8490  -28.9110   20.1910 C   0  0  0  0  0  0  0  0  0  0  0  0
  -25.9680  -30.7550   21.4370 C   0  0  0  0  0  2  0  0  0  0  0  0
  -26.0350  -29.3560   20.7900 C   0  0  0  0  0  0  0  0  0  0  0  0
  -27.1960  -28.4920   20.7800 C   0  0  0  0  0  3  0  0  0  0  0  0
  -25.9560  -26.7990   19.5960 C   0  0  0  0  0  3  0  0  0  0  0  0
  -24.8250  -27.6480   19.5770 C   0  0  0  0  0  3  0  0  0  0  0  0
  -23.6260  -29.8170   20.2390 C   0  0  0  0  0  2  0  0  0  0  0  0
  -24.6900  -31.0740   22.1560 N   0  0  0  0  0  0  0  0  0  0  0  0
  -23.5410  -32.1850   23.7800 O   0  0  0  0  0  0  0  0  0  0  0  0
  -22.7340  -29.5000   22.5860 C   0  0  0  0  0  0  0  0  0  0  0  0
  -21.4070  -29.3270   22.4600 N   0  0  0  0  0  0  0  0  0  0  0  0
  -23.4070  -28.8810   23.4150 O   0  0  0  0  0  0  0  0  0  0  0  0
  -20.9190  -29.8790   21.7680 H   0  0  0  0  0  0  0  0  0  0  0  0
  -18.0290  -28.1150   22.9640 C   0  0  0  0  0  0  0  0  0  0  0  0
  -20.5870  -28.3910   23.2350 C   0  0  0  0  0  3  0  0  0  0  0  0
  -20.6960  -26.9550   22.6710 C   0  0  0  0  0  2  0  0  0  0  0  0
  -19.5980  -26.6210   21.6550 C   0  0  0  0  0  2  0  0  0  0  0  0
  -18.2140  -26.7630   22.2950 C   0  0  0  0  0  2  0  0  0  0  0  0
  -19.1440  -28.8860   23.3910 C   0  0  0  0  0  0  0  0  0  0  0  0
  -18.9150  -30.1500   23.9770 C   0  0  0  0  0  3  0  0  0  0  0  0
  -17.6070  -30.6440   24.1400 C   0  0  0  0  0  3  0  0  0  0  0  0
  -16.5080  -29.8700   23.7280 C   0  0  0  0  0  3  0  0  0  0  0  0
  -16.7200  -28.6080   23.1460 C   0  0  0  0  0  3  0  0  0  0  0  0
  -25.9050  -32.5320   23.8700 C   0  0  0  0  0  3  0  0  0  0  0  0
  -25.5950  -33.9310   24.2090 N   0  0  0  0  0  0  0  0  0  0  0  0
  -25.9030  -34.9880   23.4470 C   0  0  0  0  0  0  0  0  0  0  0  0
  -26.5430  -34.8910   22.3970 O   0  0  0  0  0  0  0  0  0  0  0  0
  -25.0250  -34.0810   25.0280 H   0  0  0  0  0  0  0  0  0  0  0  0
  -24.1510  -36.7740   23.1640 C   0  0  0  0  0  1  0  0  0  0  0  0
  -25.4260  -36.3750   23.9240 C   0  0  0  0  0  3  0  0  0  0  0  0
  -27.5830  -37.2790   24.6730 C   0  0  0  0  0  1  0  0  0  0  0  0
  -26.4460  -37.4350   23.7700 N   0  0  0  0  0  0  0  0  0  0  0  0
  -26.0390  -38.3530   23.9300 H   0  0  0  0  0  0  0  0  0  0  0  0
  -26.4210  -31.7620   25.1480 C   0  0  1  0  0  0  0  0  0  0  0  0
  -25.3290  -31.5290   26.2190 C   0  0  0  0  0  1  0  0  0  0  0  0
  -27.0010  -30.3830   24.7600 C   0  0  0  0  0  1  0  0  0  0  0  0
  -27.5740  -32.5540   25.8070 C   0  0  0  0  0  1  0  0  0  0  0  0
  1  3  1  0
  1  5  1  0
  2  4  1  0
  3  6  1  0
  5 50  1  0
  5  2  1  0
  6  7  1  6
  6 20  1  0
  6  4  1  0
  8 21  1  0
  9 14  1  0
 10 11  1  0
 10  9  1  0
 12 11  1  0
 12 25  1  0
 12 13  1  0
 14  8  1  0
 14 13  1  0
 15  8  2  0
 16 18  1  0
 17 19  1  0
 19 21  1  0
 20 17  1  0
 20 16  1  0
 21 18  1  0
 22 23  2  0
 23 42  1  0
 24 23  1  0
 24 27  1  0
 25 26  1  0
 25 22  1  0
 26 24  2  0
 27 28  1  0
 28 29  2  0
 30 33  1  0
 30 29  1  0
 31 30  2  0
 32 31  1  0
 32 27  2  0
 33 34  1  0
 34 35  1  0
 35 36  2  0
 37 36  1  0
 37 41  1  0
 38 37  2  0
 39 34  2  0
 39 38  1  0
 40 39  1  0
 42 43  1  0
 43 46  1  0
 43 45  1  0
 44 42  2  0
 47 48  1  0
 47 22  1  0
 49 47  1  0
 51 62  2  0
 52 50  1  0
 52 57  1  0
 53 61  1  0
 53 63  1  0
 54 60  1  0
 54 56  1  0
 55 61  1  0
 56 55  1  0
 57 56  2  0
 58 52  2  0
 59 58  1  0
 59 54  2  0
 60 53  1  0
 61 51  1  0
 63 65  2  0
 64 63  1  0
 66 64  1  0
 67 76  2  0
 67 72  1  0
 68 64  1  0
 68 72  1  0
 69 68  1  0
 70 71  1  0
 70 69  1  0
 71 67  1  0
 72 73  2  0
 73 74  1  0
 75 74  2  0
 76 75  1  0
 77 51  1  0
 77 78  1  0
 77 87  1  0
 78 81  1  0
 79 83  1  0
 79 78  1  0
 80 79  2  0
 83 82  1  0
 85 83  1  0
 85 86  1  0
 85 84  1  0
 87 90  1  1
 87 88  1  0
 89 87  1  0
M  ISO  4   5 101   8 100  21 100  50 101
M  END
>  <TORSDO>  (20) 
F 16

>  <SCORE>  (20) 
-15.699

>  <name>  (20) 
19

>  <ligand_id>  (20) 
19

>  <original_smiles>  (20) 
[H]c1c([H])c([H])c2c(c1[H])C([H])([H])C([H])([H])C([H])([H])C2([H])N([H])C(=O)C1([H])N(C(=O)C([H])(N([H])C(=O)C([H])(N([H])C([H])([H])[H])C([H])([H])[H])C(C([H])([H])[H])(C([H])([H])[H])C([H])([H])[H])C([H])([H])c2c([H])c(OC3([H])C([H])([H])C([H])([H])[N+]([H])(C4([H])C([H])([H])C([H])([H])N(C(=O)N5C([H])([H])C([H])([H])C([H])([H])C([H])(n6nc(-c7c([H])c([H])c(Oc8c([H])c([H])c(F)c([H])c8F)c([H])c7[H])c(C(=O)N([H])[H])c6N([H])[H])C5([H])[H])C([H])([H])C4([H])[H])C([H])([H])C3([H])[H])c([H])c([H])c2C1([H])[H]

>  <smiles>  (20) 
[H]c1c([H])c([H])c2c(c1[H])C([H])([H])C([H])([H])C([H])([H])C2([H])N([H])C(=O)C1([H])N(C(=O)C([H])(N([H])C(=O)C([H])(N([H])C([H])([H])[H])C([H])([H])[H])C(C([H])([H])[H])(C([H])([H])[H])C([H])([H])[H])C([H])([H])c2c([H])c(OC3([H])C([H])([H])C([H])([H])[N+]([H])(C4([H])C([H])([H])C([H])([H])N(C(=O)N5C([H])([H])C([H])([H])C([H])([H])C([H])(n6nc(-c7c([H])c([H])c(Oc8c([H])c([H])c(F)c([H])c8F)c([H])c7[H])c(C(=O)N([H])[H])c6N([H])[H])C5([H])[H])C([H])([H])C4([H])[H])C([H])([H])C3([H])[H])c([H])c([H])c2C1([H])[H]

$$$$
20:0:0
     RDKit          3D

 95104  0  0  1  0  0  0  0  0999 V2000
  -28.6590  -25.5170   23.2910 C   0  0  0  0  0  3  0  0  0  0  0  0
  -28.6070  -26.2630   22.1020 C   0  0  0  0  0  3  0  0  0  0  0  0
  -29.3820  -23.5980   22.0190 C   0  0  0  0  0  3  0  0  0  0  0  0
  -29.3640  -24.3160   20.7870 C   0  0  0  0  0  0  0  0  0  0  0  0
  -29.0330  -24.1710   23.2500 C   0  0  0  0  0  0  0  0  0  0  0  0
  -28.9090  -25.7160   20.8250 C   0  0  0  0  0  0  0  0  0  0  0  0
  -29.0490  -23.3400   24.5230 C   0  0  0  0  0  1  0  0  0  0  0  0
  -29.8100  -23.4520   19.5900 C   0  0  0  0  0  0  0  0  0  0  0  0
  -29.8800  -23.9500   18.4610 O   0  0  0  0  0  0  0  0  0  0  0  0
  -29.2810  -20.8540   19.5610 C   0  0  0  0  0  3  0  0  0  0  0  0
  -31.4890  -21.5510   20.1670 C   0  0  0  0  0  3  0  0  0  0  0  0
  -29.6580  -19.4700   19.7100 C   0  0  0  0  0  3  0  0  0  0  0  0
  -31.8630  -20.1820   20.3080 C   0  0  0  0  0  3  0  0  0  0  0  0
  -30.1830  -21.9460   19.7840 C   0  0  0  0  0  0  0  0  0  0  0  0
  -30.9760  -19.0890   20.0870 C   0  0  0  0  0  0  0  0  0  0  0  0
  -31.5740  -17.6200   20.2430 C   0  0  0  0  0  2  0  0  0  0  0  0
  -31.4920  -15.0710   20.2040 C   0  0  0  0  0  0  0  0  0  0  0  0
  -31.1510  -12.7880   19.2730 C   0  0  0  0  0  2  0  0  0  0  0  0
  -30.2210  -12.8660   18.0460 C   0  0  0  0  0  2  0  0  0  0  0  0
  -28.7510  -12.7610   18.4870 C   0  0  0  0  0  2  0  0  0  0  0  0
  -28.4100  -13.7040   19.6700 C   0  0  0  0  0  3  0  0  0  0  0  0
  -29.4690  -13.6360   20.7910 C   0  0  0  0  0  2  0  0  0  0  0  0
  -30.7740  -13.8980   20.1750 N   0  0  0  0  0  0  0  0  0  0  0  0
  -32.6910  -15.0560   19.9160 O   0  0  0  0  0  0  0  0  0  0  0  0
  -30.8430  -16.2890   20.3260 N   0  0  0  0  0  0  0  0  0  0  0  0
  -29.8460  -16.2940   20.4840 H   0  0  0  0  0  0  0  0  0  0  0  0
  -26.0780  -14.4010   20.4820 C   0  0  0  0  0  0  0  0  0  0  0  0
  -24.9720  -13.6750   20.8290 C   0  0  0  0  0  0  0  0  0  0  0  0
  -25.3460  -12.3000   20.7140 C   0  0  0  0  0  0  0  0  0  0  0  0
  -27.0610  -13.4730   20.1750 N   0  0  0  0  0  0  0  0  0  0  0  0
  -26.6280  -12.2000   20.3800 N   0  0  0  0  0  0  0  0  0  0  0  0
  -24.5440  -11.0760   20.8430 C   0  0  0  0  0  0  0  0  0  0  0  0
  -24.8690  -10.0740   21.7830 C   0  0  0  0  0  3  0  0  0  0  0  0
  -24.0680   -8.9180   21.9020 C   0  0  0  0  0  3  0  0  0  0  0  0
  -22.9270   -8.7570   21.0800 C   0  0  0  0  0  0  0  0  0  0  0  0
  -22.6190   -9.7480   20.1310 C   0  0  0  0  0  3  0  0  0  0  0  0
  -23.4200  -10.8960   20.0100 C   0  0  0  0  0  3  0  0  0  0  0  0
  -22.1050   -7.6560   21.1070 O   0  0  0  0  0  0  0  0  0  0  0  0
  -21.8680   -6.9660   22.2680 C   0  0  0  0  0  0  0  0  0  0  0  0
  -21.2860   -7.5840   23.3970 C   0  0  0  0  0  3  0  0  0  0  0  0
  -20.9940   -6.8210   24.5450 C   0  0  0  0  0  3  0  0  0  0  0  0
  -21.2730   -5.4420   24.5650 C   0  0  0  0  0  0  0  0  0  0  0  0
  -21.8460   -4.8230   23.4400 C   0  0  0  0  0  3  0  0  0  0  0  0
  -22.1380   -5.5820   22.2940 C   0  0  0  0  0  0  0  0  0  0  0  0
  -22.6730   -4.9780   21.2060 F   0  0  0  0  0  0  0  0  0  0  0  0
  -20.9840   -4.7070   25.6650 F   0  0  0  0  0  0  0  0  0  0  0  0
  -23.6120  -14.2240   21.1510 C   0  0  0  0  0  0  0  0  0  0  0  0
  -22.8600  -13.5370   22.0030 N   0  0  0  0  0  0  0  0  0  0  0  0
  -23.2260  -15.2920   20.6800 O   0  0  0  0  0  0  0  0  0  0  0  0
  -23.1850  -12.6710   22.4070 H   0  0  0  0  0  0  0  0  0  0  0  0
  -21.9480  -13.8860   22.2620 H   0  0  0  0  0  0  0  0  0  0  0  0
  -26.3200  -15.7670   20.3710 N   0  0  0  0  0  0  0  0  0  0  0  0
  -25.5790  -16.4470   20.5000 H   0  0  0  0  0  0  0  0  0  0  0  0
  -27.1640  -16.1700   19.9840 H   0  0  0  0  0  0  0  0  0  0  0  0
  -28.7390  -26.6500   19.7670 O   0  0  0  0  0  0  0  0  0  0  0  0
  -24.6390  -31.5600   23.1430 C   0  0  0  0  0  0  0  0  0  0  0  0
  -27.5860  -27.4530   19.7780 C   0  0  0  0  0  0  0  0  0  0  0  0
  -23.5240  -30.1190   21.4790 C   0  0  0  0  0  3  0  0  0  0  0  0
  -25.0710  -28.8050   19.9200 C   0  0  0  0  0  0  0  0  0  0  0  0
  -26.0040  -30.7230   21.2160 C   0  0  0  0  0  2  0  0  0  0  0  0
  -26.2060  -29.3930   20.4960 C   0  0  0  0  0  0  0  0  0  0  0  0
  -27.4690  -28.7320   20.4120 C   0  0  0  0  0  3  0  0  0  0  0  0
  -26.4330  -26.9210   19.1730 C   0  0  0  0  0  3  0  0  0  0  0  0
  -25.1870  -27.5750   19.2470 C   0  0  0  0  0  3  0  0  0  0  0  0
  -23.7500  -29.5330   20.0610 C   0  0  0  0  0  2  0  0  0  0  0  0
  -24.7430  -30.8160   22.0050 N   0  0  0  0  0  0  0  0  0  0  0  0
  -23.5540  -31.6970   23.7280 O   0  0  0  0  0  0  0  0  0  0  0  0
  -23.0070  -28.9970   22.4100 C   0  0  0  0  0  0  0  0  0  0  0  0
  -21.7230  -28.6280   22.2590 N   0  0  0  0  0  0  0  0  0  0  0  0
  -23.7610  -28.4610   23.2270 O   0  0  0  0  0  0  0  0  0  0  0  0
  -21.1690  -29.1130   21.5670 H   0  0  0  0  0  0  0  0  0  0  0  0
  -18.5980  -26.8310   22.5800 C   0  0  0  0  0  0  0  0  0  0  0  0
  -21.0420  -27.5630   22.9990 C   0  0  0  0  0  3  0  0  0  0  0  0
  -21.4440  -26.1710   22.4610 C   0  0  0  0  0  2  0  0  0  0  0  0
  -20.4890  -25.6370   21.3900 C   0  0  0  0  0  2  0  0  0  0  0  0
  -19.0640  -25.5300   21.9450 C   0  0  0  0  0  2  0  0  0  0  0  0
  -19.5270  -27.7920   23.0590 C   0  0  0  0  0  0  0  0  0  0  0  0
  -19.0440  -28.9950   23.6140 C   0  0  0  0  0  3  0  0  0  0  0  0
  -17.6620  -29.2500   23.6910 C   0  0  0  0  0  3  0  0  0  0  0  0
  -16.7460  -28.2910   23.2290 C   0  0  0  0  0  3  0  0  0  0  0  0
  -17.2130  -27.0820   22.6810 C   0  0  0  0  0  3  0  0  0  0  0  0
  -25.8700  -32.3000   23.7520 C   0  0  0  0  0  3  0  0  0  0  0  0
  -26.4760  -31.5610   25.0090 C   0  0  1  0  0  0  0  0  0  0  0  0
  -25.4250  -31.2160   26.0900 C   0  0  0  0  0  1  0  0  0  0  0  0
  -27.1680  -30.2430   24.5910 C   0  0  0  0  0  1  0  0  0  0  0  0
  -27.5660  -32.4450   25.6610 C   0  0  0  0  0  1  0  0  0  0  0  0
  -25.4430  -33.6610   24.1040 N   0  0  0  0  0  0  0  0  0  0  0  0
  -25.7130  -34.7570   23.3790 C   0  0  0  0  0  0  0  0  0  0  0  0
  -26.4170  -34.7330   22.3660 O   0  0  0  0  0  0  0  0  0  0  0  0
  -24.8220  -33.7480   24.8950 H   0  0  0  0  0  0  0  0  0  0  0  0
  -23.8740  -36.4340   23.0090 C   0  0  0  0  0  1  0  0  0  0  0  0
  -25.1080  -36.0910   23.8580 C   0  0  0  0  0  3  0  0  0  0  0  0
  -27.1380  -37.0990   24.8030 C   0  0  0  0  0  1  0  0  0  0  0  0
  -26.0660  -37.2180   23.8190 N   0  0  0  0  0  0  0  0  0  0  0  0
  -25.5890  -38.1010   23.9790 H   0  0  0  0  0  0  0  0  0  0  0  0
  2  1  2  0
  3  5  2  0
  4  6  2  0
  4  3  1  0
  5  1  1  0
  5  7  1  0
  6  2  1  0
  8 14  1  0
  8  4  1  0
  9  8  2  0
 10 12  2  0
 10 14  1  0
 11 13  1  0
 12 15  1  0
 14 11  2  0
 15 16  1  0
 15 13  2  0
 16 25  1  0
 17 25  1  0
 18 23  1  0
 19 20  1  0
 19 18  1  0
 21 20  1  0
 21 30  1  0
 21 22  1  0
 23 17  1  0
 23 22  1  0
 24 17  2  0
 25 26  1  0
 27 28  2  0
 28 47  1  0
 29 28  1  0
 29 32  1  0
 30 31  1  0
 30 27  1  0
 31 29  2  0
 32 33  1  0
 33 34  2  0
 35 38  1  0
 35 34  1  0
 36 35  2  0
 37 36  1  0
 37 32  2  0
 38 39  1  0
 39 44  2  0
 39 40  1  0
 40 41  2  0
 41 42  1  0
 42 46  1  0
 43 42  2  0
 44 43  1  0
 45 44  1  0
 47 48  1  0
 48 51  1  0
 48 50  1  0
 49 47  2  0
 52 27  1  0
 52 53  1  0
 54 52  1  0
 55 57  1  0
 55  6  1  0
 56 67  2  0
 57 62  1  0
 58 66  1  0
 58 68  1  0
 59 65  1  0
 59 61  1  0
 60 66  1  0
 61 60  1  0
 62 61  2  0
 63 64  1  0
 63 57  2  0
 64 59  2  0
 65 58  1  0
 66 56  1  0
 68 70  2  0
 69 68  1  0
 71 69  1  0
 72 81  2  0
 72 77  1  0
 73 69  1  0
 73 77  1  0
 74 73  1  0
 75 76  1  0
 75 74  1  0
 76 72  1  0
 77 78  2  0
 78 79  1  0
 80 79  2  0
 81 80  1  0
 82 56  1  0
 82 87  1  0
 82 83  1  0
 83 86  1  1
 83 84  1  0
 85 83  1  0
 87 90  1  0
 88 92  1  0
 88 87  1  0
 89 88  2  0
 92 91  1  0
 94 92  1  0
 94 95  1  0
 94 93  1  0
M  ISO  4   6 101  17 100  25 100  55 101
M  END
>  <TORSDO>  (21) 
F 19

>  <SCORE>  (21) 
-10.829

>  <name>  (21) 
20

>  <ligand_id>  (21) 
20

>  <original_smiles>  (21) 
[H]c1c([H])c([H])c2c(c1[H])C([H])([H])C([H])([H])C([H])([H])C2([H])N([H])C(=O)C1([H])N(C(=O)C([H])(N([H])C(=O)C([H])(N([H])C([H])([H])[H])C([H])([H])[H])C(C([H])([H])[H])(C([H])([H])[H])C([H])([H])[H])C([H])([H])c2c([H])c(Oc3c([H])c([H])c(C([H])([H])[H])c([H])c3C(=O)c3c([H])c([H])c(C([H])([H])N([H])C(=O)N4C([H])([H])C([H])([H])C([H])([H])C([H])(n5nc(-c6c([H])c([H])c(Oc7c([H])c([H])c(F)c([H])c7F)c([H])c6[H])c(C(=O)N([H])[H])c5N([H])[H])C4([H])[H])c([H])c3[H])c([H])c([H])c2C1([H])[H]

>  <smiles>  (21) 
[H]c1c([H])c([H])c2c(c1[H])C([H])([H])C([H])([H])C([H])([H])C2([H])N([H])C(=O)C1([H])N(C(=O)C([H])(N([H])C(=O)C([H])(N([H])C([H])([H])[H])C([H])([H])[H])C(C([H])([H])[H])(C([H])([H])[H])C([H])([H])[H])C([H])([H])c2c([H])c(Oc3c([H])c([H])c(C([H])([H])[H])c([H])c3C(=O)c3c([H])c([H])c(C([H])([H])N([H])C(=O)N4C([H])([H])C([H])([H])C([H])([H])C([H])(n5nc(-c6c([H])c([H])c(Oc7c([H])c([H])c(F)c([H])c7F)c([H])c6[H])c(C(=O)N([H])[H])c5N([H])[H])C4([H])[H])c([H])c3[H])c([H])c([H])c2C1([H])[H]

$$$$
21:0:0
     RDKit          3D

 92101  0  0  1  0  0  0  0  0999 V2000
  -29.7640  -22.6700   23.1740 C   0  0  0  0  0  3  0  0  0  0  0  0
  -29.8460  -21.4950   22.3990 C   0  0  0  0  0  3  0  0  0  0  0  0
  -28.7580  -22.6710   20.5440 C   0  0  0  0  0  3  0  0  0  0  0  0
  -29.1700  -23.8250   22.6360 C   0  0  0  0  0  0  0  0  0  0  0  0
  -28.6910  -23.8920   21.3220 C   0  0  0  0  0  0  0  0  0  0  0  0
  -29.3280  -21.4400   21.0810 C   0  0  0  0  0  0  0  0  0  0  0  0
  -28.8100  -25.0420   23.4380 C   0  0  0  0  0  2  0  0  0  0  0  0
  -27.6890  -25.6980   22.6100 C   0  0  0  0  0  2  0  0  0  0  0  0
  -27.8330  -25.2150   21.1330 C   0  0  0  0  0  3  0  0  0  0  0  0
  -28.2550  -26.4310   20.3640 O   0  0  0  0  0  0  0  0  0  0  0  0
  -24.6160  -31.9260   23.2430 C   0  0  0  0  0  0  0  0  0  0  0  0
  -27.2090  -27.3650   20.2020 C   0  0  0  0  0  0  0  0  0  0  0  0
  -23.4050  -30.5300   21.6070 C   0  0  0  0  0  3  0  0  0  0  0  0
  -24.8520  -28.9880   20.1620 C   0  0  0  0  0  0  0  0  0  0  0  0
  -25.9450  -30.8520   21.4120 C   0  0  0  0  0  2  0  0  0  0  0  0
  -26.0210  -29.4800   20.7540 C   0  0  0  0  0  0  0  0  0  0  0  0
  -27.2080  -28.6850   20.7520 C   0  0  0  0  0  3  0  0  0  0  0  0
  -26.0240  -26.9430   19.5580 C   0  0  0  0  0  3  0  0  0  0  0  0
  -24.8540  -27.7270   19.5470 C   0  0  0  0  0  3  0  0  0  0  0  0
  -23.6160  -29.8640   20.2240 C   0  0  0  0  0  2  0  0  0  0  0  0
  -24.6740  -31.1170   22.1450 N   0  0  0  0  0  0  0  0  0  0  0  0
  -23.5350  -32.2020   23.7820 O   0  0  0  0  0  0  0  0  0  0  0  0
  -22.7470  -29.5080   22.5690 C   0  0  0  0  0  0  0  0  0  0  0  0
  -21.4200  -29.3290   22.4530 N   0  0  0  0  0  0  0  0  0  0  0  0
  -23.4280  -28.8810   23.3850 O   0  0  0  0  0  0  0  0  0  0  0  0
  -20.9230  -29.8920   21.7770 H   0  0  0  0  0  0  0  0  0  0  0  0
  -18.0510  -28.1120   22.9640 C   0  0  0  0  0  0  0  0  0  0  0  0
  -20.6090  -28.3890   23.2290 C   0  0  0  0  0  3  0  0  0  0  0  0
  -20.7200  -26.9550   22.6620 C   0  0  0  0  0  2  0  0  0  0  0  0
  -19.6160  -26.6180   21.6530 C   0  0  0  0  0  2  0  0  0  0  0  0
  -18.2370  -26.7600   22.2980 C   0  0  0  0  0  2  0  0  0  0  0  0
  -19.1660  -28.8830   23.3910 C   0  0  0  0  0  0  0  0  0  0  0  0
  -18.9370  -30.1430   23.9810 C   0  0  0  0  0  3  0  0  0  0  0  0
  -17.6290  -30.6360   24.1470 C   0  0  0  0  0  3  0  0  0  0  0  0
  -16.5290  -29.8670   23.7290 C   0  0  0  0  0  3  0  0  0  0  0  0
  -16.7420  -28.6070   23.1430 C   0  0  0  0  0  3  0  0  0  0  0  0
  -25.9000  -32.5610   23.8590 C   0  0  0  0  0  3  0  0  0  0  0  0
  -26.4250  -31.7920   25.1310 C   0  0  1  0  0  0  0  0  0  0  0  0
  -25.3380  -31.5540   26.2050 C   0  0  0  0  0  1  0  0  0  0  0  0
  -27.0080  -30.4130   24.7380 C   0  0  0  0  0  1  0  0  0  0  0  0
  -27.5790  -32.5860   25.7870 C   0  0  0  0  0  1  0  0  0  0  0  0
  -25.5930  -33.9590   24.1920 N   0  0  0  0  0  0  0  0  0  0  0  0
  -25.9060  -35.0130   23.4290 C   0  0  0  0  0  0  0  0  0  0  0  0
  -26.5600  -34.9120   22.3830 O   0  0  0  0  0  0  0  0  0  0  0  0
  -25.0280  -34.1130   25.0140 H   0  0  0  0  0  0  0  0  0  0  0  0
  -24.1680  -36.8030   23.0930 C   0  0  0  0  0  1  0  0  0  0  0  0
  -25.4190  -36.4000   23.8910 C   0  0  0  0  0  3  0  0  0  0  0  0
  -27.5600  -37.2920   24.6990 C   0  0  0  0  0  1  0  0  0  0  0  0
  -26.4460  -37.4570   23.7680 N   0  0  0  0  0  0  0  0  0  0  0  0
  -26.0390  -38.3740   23.9260 H   0  0  0  0  0  0  0  0  0  0  0  0
  -29.4330  -20.0740   20.2760 C   0  0  0  0  0  2  0  0  0  0  0  0
  -29.5440  -18.7430   21.0330 N   0  0  0  0  0  4  0  0  0  0  0  0
  -28.6460  -18.5740   21.4540 H   0  0  0  0  0  0  0  0  0  0  0  0
  -30.2070  -18.8810   21.7780 H   0  0  0  0  0  0  0  0  0  0  0  0
  -29.9720  -17.4760   20.2800 C   0  0  0  0  0  3  0  0  0  0  0  0
  -29.8520  -16.0430   21.0240 C   0  0  0  0  0  3  0  0  0  0  0  0
  -30.5840  -14.7540   20.4200 C   0  0  0  0  0  0  0  0  0  0  0  0
  -30.3940  -12.5160   19.3170 C   0  0  0  0  0  2  0  0  0  0  0  0
  -29.4700  -12.6620   18.0910 C   0  0  0  0  0  2  0  0  0  0  0  0
  -27.9890  -12.4990   18.4870 C   0  0  0  0  0  2  0  0  0  0  0  0
  -27.6200  -13.3250   19.7520 C   0  0  0  0  0  3  0  0  0  0  0  0
  -28.6670  -13.1590   20.8750 C   0  0  0  0  0  2  0  0  0  0  0  0
  -29.9750  -13.5240   20.3150 N   0  0  0  0  0  0  0  0  0  0  0  0
  -31.7290  -14.8980   19.9770 O   0  0  0  0  0  0  0  0  0  0  0  0
  -25.2140  -13.9110   20.4270 C   0  0  0  0  0  0  0  0  0  0  0  0
  -24.1460  -13.1370   20.7940 C   0  0  0  0  0  0  0  0  0  0  0  0
  -24.6170  -11.7900   20.7900 C   0  0  0  0  0  0  0  0  0  0  0  0
  -26.2680  -13.0350   20.2190 N   0  0  0  0  0  0  0  0  0  0  0  0
  -25.9110  -11.7540   20.4930 N   0  0  0  0  0  0  0  0  0  0  0  0
  -23.8930  -10.5280   20.9920 C   0  0  0  0  0  0  0  0  0  0  0  0
  -24.3270   -9.5710   21.9350 C   0  0  0  0  0  3  0  0  0  0  0  0
  -23.6060   -8.3720   22.1270 C   0  0  0  0  0  3  0  0  0  0  0  0
  -22.4350   -8.1210   21.3740 C   0  0  0  0  0  0  0  0  0  0  0  0
  -22.0200   -9.0650   20.4180 C   0  0  0  0  0  3  0  0  0  0  0  0
  -22.7420  -10.2560   20.2260 C   0  0  0  0  0  3  0  0  0  0  0  0
  -21.6840   -6.9740   21.4730 O   0  0  0  0  0  0  0  0  0  0  0  0
  -21.6480   -6.2350   22.6300 C   0  0  0  0  0  0  0  0  0  0  0  0
  -21.2400   -6.7960   23.8600 C   0  0  0  0  0  3  0  0  0  0  0  0
  -21.1520   -5.9840   25.0070 C   0  0  0  0  0  3  0  0  0  0  0  0
  -21.4580   -4.6120   24.9250 C   0  0  0  0  0  0  0  0  0  0  0  0
  -21.8580   -4.0500   23.6990 C   0  0  0  0  0  3  0  0  0  0  0  0
  -21.9500   -4.8610   22.5530 C   0  0  0  0  0  0  0  0  0  0  0  0
  -22.3150   -4.3100   21.3690 F   0  0  0  0  0  0  0  0  0  0  0  0
  -21.3670   -3.8310   26.0250 F   0  0  0  0  0  0  0  0  0  0  0  0
  -22.7440  -13.6100   21.0400 C   0  0  0  0  0  0  0  0  0  0  0  0
  -22.0050  -12.9280   21.9090 N   0  0  0  0  0  0  0  0  0  0  0  0
  -22.3080  -14.6250   20.4960 O   0  0  0  0  0  0  0  0  0  0  0  0
  -22.3620  -12.1020   22.3680 H   0  0  0  0  0  0  0  0  0  0  0  0
  -21.0630  -13.2320   22.1110 H   0  0  0  0  0  0  0  0  0  0  0  0
  -25.3710  -15.2810   20.2320 N   0  0  0  0  0  0  0  0  0  0  0  0
  -24.6120  -15.9390   20.3650 H   0  0  0  0  0  0  0  0  0  0  0  0
  -26.2190  -15.7250   19.9050 H   0  0  0  0  0  0  0  0  0  0  0  0
  2  1  2  0
  3  6  2  0
  3  5  1  0
  4  1  1  0
  4  7  1  0
  5  4  2  0
  6  2  1  0
  8  7  1  0
  9 10  1  0
  9  5  1  0
  9  8  1  0
 11 22  2  0
 12 10  1  0
 12 17  1  0
 13 21  1  0
 13 23  1  0
 14 20  1  0
 14 16  1  0
 15 21  1  0
 16 15  1  0
 17 16  2  0
 18 12  2  0
 19 18  1  0
 19 14  2  0
 20 13  1  0
 21 11  1  0
 23 25  2  0
 24 23  1  0
 26 24  1  0
 27 36  2  0
 27 32  1  0
 28 24  1  0
 28 32  1  0
 29 28  1  0
 30 31  1  0
 30 29  1  0
 31 27  1  0
 32 33  2  0
 33 34  1  0
 35 34  2  0
 36 35  1  0
 37 11  1  0
 37 42  1  0
 37 38  1  0
 38 41  1  1
 38 39  1  0
 40 38  1  0
 42 45  1  0
 43 47  1  0
 43 42  1  0
 44 43  2  0
 47 46  1  0
 49 47  1  0
 49 50  1  0
 49 48  1  0
 51 52  1  0
 51  6  1  0
 52 53  1  0
 52 54  1  0
 55 56  2  0
 55 52  1  0
 57 56  1  0
 58 63  1  0
 59 60  1  0
 59 58  1  0
 61 60  1  0
 61 68  1  0
 61 62  1  0
 63 57  1  0
 63 62  1  0
 64 57  2  0
 65 66  2  0
 66 85  1  0
 67 66  1  0
 67 70  1  0
 68 65  1  0
 68 69  1  0
 69 67  2  0
 70 71  1  0
 71 72  2  0
 73 76  1  0
 73 72  1  0
 74 73  2  0
 75 74  1  0
 75 70  2  0
 76 77  1  0
 77 78  1  0
 78 79  2  0
 80 79  1  0
 80 84  1  0
 81 80  2  0
 82 77  2  0
 82 81  1  0
 83 82  1  0
 85 86  1  0
 86 89  1  0
 86 88  1  0
 87 85  2  0
 90 91  1  0
 90 65  1  0
 92 90  1  0
M  ISO  4   9 101  10 101  56 100  57 100
M  END
>  <TORSDO>  (22) 
F 20

>  <SCORE>  (22) 
-14.072

>  <name>  (22) 
21

>  <ligand_id>  (22) 
21

>  <original_smiles>  (22) 
[H]c1c([H])c([H])c2c(c1[H])C([H])([H])C([H])([H])C([H])([H])C2([H])N([H])C(=O)C1([H])N(C(=O)C([H])(N([H])C(=O)C([H])(N([H])C([H])([H])[H])C([H])([H])[H])C(C([H])([H])[H])(C([H])([H])[H])C([H])([H])[H])C([H])([H])c2c([H])c(OC3([H])c4c([H])c(C([H])([H])[N+]([H])([H])C([H])([H])C([H])([H])C(=O)N5C([H])([H])C([H])([H])C([H])([H])C([H])(n6nc(-c7c([H])c([H])c(Oc8c([H])c([H])c(F)c([H])c8F)c([H])c7[H])c(C(=O)N([H])[H])c6N([H])[H])C5([H])[H])c([H])c([H])c4C([H])([H])C3([H])[H])c([H])c([H])c2C1([H])[H]

>  <smiles>  (22) 
[H]c1c([H])c([H])c2c(c1[H])C([H])([H])C([H])([H])C([H])([H])C2([H])N([H])C(=O)C1([H])N(C(=O)C([H])(N([H])C(=O)C([H])(N([H])C([H])([H])[H])C([H])([H])[H])C(C([H])([H])[H])(C([H])([H])[H])C([H])([H])[H])C([H])([H])c2c([H])c(OC3([H])c4c([H])c(C([H])([H])[N+]([H])([H])C([H])([H])C([H])([H])C(=O)N5C([H])([H])C([H])([H])C([H])([H])C([H])(n6nc(-c7c([H])c([H])c(Oc8c([H])c([H])c(F)c([H])c8F)c([H])c7[H])c(C(=O)N([H])[H])c6N([H])[H])C5([H])[H])c([H])c([H])c4C([H])([H])C3([H])[H])c([H])c([H])c2C1([H])[H]

$$$$
22:0:0
     RDKit          3D

 95103  0  0  1  0  0  0  0  0999 V2000
  -26.0460  -20.7120   19.7550 C   0  0  0  0  0  3  0  0  0  0  0  0
  -26.4150  -20.4370   17.3590 C   0  0  0  0  0  3  0  0  0  0  0  0
  -25.6360  -22.0400   19.5290 C   0  0  0  0  0  3  0  0  0  0  0  0
  -25.9630  -21.7450   17.1310 C   0  0  0  0  0  3  0  0  0  0  0  0
  -26.6620  -20.0320   18.6830 C   0  0  0  0  0  0  0  0  0  0  0  0
  -25.8010  -22.5960   18.2430 C   0  0  0  0  0  0  0  0  0  0  0  0
  -27.9900  -19.3570   18.9690 C   0  0  0  0  0  2  0  0  0  0  0  0
  -27.9990  -18.0500   19.7600 C   0  0  0  0  0  2  0  0  0  0  0  0
  -29.0860  -17.1400   19.2060 C   0  0  0  0  0  2  0  0  0  0  0  0
  -29.6290  -16.0800   20.1520 C   0  0  0  0  0  2  0  0  0  0  0  0
  -31.3450  -14.2720   19.4580 C   0  0  0  0  0  0  0  0  0  0  0  0
  -31.0240  -11.9070   18.9630 C   0  0  0  0  0  2  0  0  0  0  0  0
  -30.0320  -11.7710   17.7920 C   0  0  0  0  0  2  0  0  0  0  0  0
  -28.5730  -11.7630   18.2840 C   0  0  0  0  0  2  0  0  0  0  0  0
  -28.2710  -12.8940   19.3060 C   0  0  0  0  0  3  0  0  0  0  0  0
  -29.3740  -12.9190   20.3910 C   0  0  0  0  0  2  0  0  0  0  0  0
  -30.6530  -13.1270   19.6900 N   0  0  0  0  0  0  0  0  0  0  0  0
  -32.4680  -14.2840   18.9450 O   0  0  0  0  0  0  0  0  0  0  0  0
  -30.7150  -15.4430   19.4150 N   0  0  0  0  0  0  0  0  0  0  0  0
  -31.3260  -16.1070   18.9580 H   0  0  0  0  0  0  0  0  0  0  0  0
  -25.9950  -13.7200   20.1660 C   0  0  0  0  0  0  0  0  0  0  0  0
  -24.8820  -13.0520   20.5960 C   0  0  0  0  0  0  0  0  0  0  0  0
  -25.2030  -11.6640   20.5150 C   0  0  0  0  0  0  0  0  0  0  0  0
  -26.9320  -12.7460   19.8670 N   0  0  0  0  0  0  0  0  0  0  0  0
  -26.4560  -11.5010   20.1140 N   0  0  0  0  0  0  0  0  0  0  0  0
  -24.3710  -10.4770   20.7420 C   0  0  0  0  0  0  0  0  0  0  0  0
  -24.6490   -9.5630   21.7860 C   0  0  0  0  0  3  0  0  0  0  0  0
  -23.8230   -8.4360   21.9850 C   0  0  0  0  0  3  0  0  0  0  0  0
  -22.7110   -8.2130   21.1440 C   0  0  0  0  0  0  0  0  0  0  0  0
  -22.4560   -9.1070   20.0910 C   0  0  0  0  0  3  0  0  0  0  0  0
  -23.2780  -10.2270   19.8860 C   0  0  0  0  0  3  0  0  0  0  0  0
  -21.8650   -7.1390   21.2570 O   0  0  0  0  0  0  0  0  0  0  0  0
  -21.5240   -6.6130   22.4760 C   0  0  0  0  0  0  0  0  0  0  0  0
  -20.8590   -7.3800   23.4560 C   0  0  0  0  0  3  0  0  0  0  0  0
  -20.4600   -6.7840   24.6680 C   0  0  0  0  0  3  0  0  0  0  0  0
  -20.7240   -5.4200   24.9030 C   0  0  0  0  0  0  0  0  0  0  0  0
  -21.3890   -4.6540   23.9300 C   0  0  0  0  0  3  0  0  0  0  0  0
  -21.7840   -5.2480   22.7180 C   0  0  0  0  0  0  0  0  0  0  0  0
  -22.4050   -4.5000   21.7730 F   0  0  0  0  0  0  0  0  0  0  0  0
  -20.3380   -4.8430   26.0650 F   0  0  0  0  0  0  0  0  0  0  0  0
  -23.5610  -13.6590   20.9720 C   0  0  0  0  0  0  0  0  0  0  0  0
  -22.8530  -13.0380   21.9080 N   0  0  0  0  0  0  0  0  0  0  0  0
  -23.1750  -14.7150   20.4710 O   0  0  0  0  0  0  0  0  0  0  0  0
  -23.1800  -12.1770   22.3250 H   0  0  0  0  0  0  0  0  0  0  0  0
  -21.9620  -13.4140   22.1990 H   0  0  0  0  0  0  0  0  0  0  0  0
  -26.2710  -15.0670   19.9810 N   0  0  0  0  0  0  0  0  0  0  0  0
  -25.5420  -15.7680   20.0650 H   0  0  0  0  0  0  0  0  0  0  0  0
  -27.0530  -15.3890   19.4270 H   0  0  0  0  0  0  0  0  0  0  0  0
  -26.2540  -24.0400   18.1120 C   0  0  0  0  0  2  0  0  0  0  0  0
  -27.5200  -24.0960   18.8820 N   0  0  0  0  0  4  0  0  0  0  0  0
  -27.6680  -23.1270   19.1270 H   0  0  0  0  0  0  0  0  0  0  0  0
  -27.3500  -24.5990   19.7300 H   0  0  0  0  0  0  0  0  0  0  0  0
  -28.8130  -24.5350   18.2800 C   0  0  0  0  0  2  0  0  0  0  0  0
  -29.6040  -25.3900   19.3200 C   0  0  0  0  0  2  0  0  0  0  0  0
  -29.6950  -26.8260   19.1510 O   0  0  0  0  0  0  0  0  0  0  0  0
  -25.4430  -30.4400   23.6460 C   0  0  0  0  0  0  0  0  0  0  0  0
  -28.5250  -27.5270   19.3610 C   0  0  0  0  0  0  0  0  0  0  0  0
  -24.4440  -29.6770   21.5300 C   0  0  0  0  0  3  0  0  0  0  0  0
  -26.0680  -28.8790   19.7450 C   0  0  0  0  0  0  0  0  0  0  0  0
  -26.9540  -30.1770   21.6810 C   0  0  0  0  0  2  0  0  0  0  0  0
  -27.1630  -29.1630   20.5750 C   0  0  0  0  0  0  0  0  0  0  0  0
  -28.4080  -28.5150   20.3710 C   0  0  0  0  0  3  0  0  0  0  0  0
  -27.4030  -27.2670   18.5430 C   0  0  0  0  0  3  0  0  0  0  0  0
  -26.1930  -27.9490   18.7070 C   0  0  0  0  0  3  0  0  0  0  0  0
  -24.7710  -29.6130   20.0200 C   0  0  0  0  0  2  0  0  0  0  0  0
  -25.6280  -30.0920   22.3430 N   0  0  0  0  0  0  0  0  0  0  0  0
  -24.3110  -30.4540   24.1520 O   0  0  0  0  0  0  0  0  0  0  0  0
  -23.8240  -28.3390   21.9720 C   0  0  0  0  0  0  0  0  0  0  0  0
  -22.5490  -28.1290   21.6130 N   0  0  0  0  0  0  0  0  0  0  0  0
  -24.4930  -27.5140   22.6030 O   0  0  0  0  0  0  0  0  0  0  0  0
  -22.0590  -28.8730   21.1240 H   0  0  0  0  0  0  0  0  0  0  0  0
  -19.2370  -26.6780   21.3800 C   0  0  0  0  0  0  0  0  0  0  0  0
  -21.7610  -26.9240   21.8900 C   0  0  0  0  0  3  0  0  0  0  0  0
  -21.9900  -25.8110   20.8450 C   0  0  0  0  0  2  0  0  0  0  0  0
  -20.9490  -25.8310   19.7150 C   0  0  0  0  0  2  0  0  0  0  0  0
  -19.5350  -25.6570   20.2960 C   0  0  0  0  0  2  0  0  0  0  0  0
  -20.2840  -27.2760   22.1230 C   0  0  0  0  0  0  0  0  0  0  0  0
  -19.9640  -28.2480   23.0950 C   0  0  0  0  0  3  0  0  0  0  0  0
  -18.6230  -28.6270   23.3300 C   0  0  0  0  0  3  0  0  0  0  0  0
  -17.5930  -28.0120   22.5890 C   0  0  0  0  0  3  0  0  0  0  0  0
  -17.8930  -27.0250   21.6270 C   0  0  0  0  0  3  0  0  0  0  0  0
  -26.6400  -30.8430   24.5670 C   0  0  0  0  0  3  0  0  0  0  0  0
  -26.3310  -32.1540   25.1520 N   0  0  0  0  0  0  0  0  0  0  0  0
  -26.7990  -33.3250   24.6850 C   0  0  0  0  0  0  0  0  0  0  0  0
  -27.6220  -33.4010   23.7690 O   0  0  0  0  0  0  0  0  0  0  0  0
  -25.6070  -32.1770   25.8570 H   0  0  0  0  0  0  0  0  0  0  0  0
  -25.2180  -35.2660   24.4540 C   0  0  0  0  0  1  0  0  0  0  0  0
  -26.2800  -34.6110   25.3510 C   0  0  0  0  0  3  0  0  0  0  0  0
  -28.2570  -35.1420   26.7070 C   0  0  0  0  0  1  0  0  0  0  0  0
  -27.3550  -35.5870   25.6460 N   0  0  0  0  0  0  0  0  0  0  0  0
  -26.9600  -36.4820   25.9220 H   0  0  0  0  0  0  0  0  0  0  0  0
  -26.9440  -29.7880   25.7010 C   0  0  1  0  0  0  0  0  0  0  0  0
  -25.6970  -29.3590   26.5060 C   0  0  0  0  0  1  0  0  0  0  0  0
  -27.5710  -28.5070   25.1010 C   0  0  0  0  0  1  0  0  0  0  0  0
  -27.9830  -30.3720   26.6880 C   0  0  0  0  0  1  0  0  0  0  0  0
  2  5  1  0
  3  1  1  0
  4  2  2  0
  4  6  1  0
  5  7  1  0
  5  1  2  0
  6  3  2  0
  7  8  1  0
  9  8  1  0
  9 10  1  0
 11 17  1  0
 12 17  1  0
 13 14  1  0
 13 12  1  0
 15 14  1  0
 15 24  1  0
 15 16  1  0
 17 16  1  0
 18 11  2  0
 19 11  1  0
 19 10  1  0
 20 19  1  0
 21 22  2  0
 22 41  1  0
 23 22  1  0
 23 26  1  0
 24 25  1  0
 24 21  1  0
 25 23  2  0
 26 27  1  0
 27 28  2  0
 29 32  1  0
 29 28  1  0
 30 29  2  0
 31 30  1  0
 31 26  2  0
 32 33  1  0
 33 38  2  0
 33 34  1  0
 34 35  2  0
 35 36  1  0
 36 40  1  0
 37 36  2  0
 38 37  1  0
 39 38  1  0
 41 42  1  0
 42 45  1  0
 42 44  1  0
 43 41  2  0
 46 47  1  0
 46 21  1  0
 48 46  1  0
 49  6  1  0
 49 50  1  0
 50 51  1  0
 50 52  1  0
 53 50  1  0
 53 54  1  0
 55 54  1  0
 55 57  1  0
 56 67  2  0
 57 62  1  0
 58 68  1  0
 58 66  1  0
 59 65  1  0
 59 61  1  0
 60 66  1  0
 61 60  1  0
 62 61  2  0
 63 64  1  0
 63 57  2  0
 64 59  2  0
 65 58  1  0
 66 56  1  0
 68 70  2  0
 69 68  1  0
 71 69  1  0
 72 81  2  0
 72 77  1  0
 73 69  1  0
 73 77  1  0
 74 73  1  0
 75 76  1  0
 75 74  1  0
 76 72  1  0
 77 78  2  0
 78 79  1  0
 80 79  2  0
 81 80  1  0
 82 56  1  0
 82 83  1  0
 82 92  1  0
 83 86  1  0
 84 83  1  0
 84 88  1  0
 85 84  2  0
 88 87  1  0
 88 90  1  0
 90 91  1  0
 90 89  1  0
 92 93  1  1
 92 95  1  0
 94 92  1  0
M  ISO  4  11 100  19 100  54 101  55 101
M  END
>  <TORSDO>  (23) 
F 24

>  <SCORE>  (23) 
-6.782

>  <name>  (23) 
22

>  <ligand_id>  (23) 
22

>  <original_smiles>  (23) 
[H]c1c([H])c([H])c2c(c1[H])C([H])([H])C([H])([H])C([H])([H])C2([H])N([H])C(=O)C1([H])N(C(=O)C([H])(N([H])C(=O)C([H])(N([H])C([H])([H])[H])C([H])([H])[H])C(C([H])([H])[H])(C([H])([H])[H])C([H])([H])[H])C([H])([H])c2c([H])c(OC([H])([H])C([H])([H])[N+]([H])([H])C([H])([H])c3c([H])c([H])c(C([H])([H])C([H])([H])C([H])([H])C([H])([H])N([H])C(=O)N4C([H])([H])C([H])([H])C([H])([H])C([H])(n5nc(-c6c([H])c([H])c(Oc7c([H])c([H])c(F)c([H])c7F)c([H])c6[H])c(C(=O)N([H])[H])c5N([H])[H])C4([H])[H])c([H])c3[H])c([H])c([H])c2C1([H])[H]

>  <smiles>  (23) 
[H]c1c([H])c([H])c2c(c1[H])C([H])([H])C([H])([H])C([H])([H])C2([H])N([H])C(=O)C1([H])N(C(=O)C([H])(N([H])C(=O)C([H])(N([H])C([H])([H])[H])C([H])([H])[H])C(C([H])([H])[H])(C([H])([H])[H])C([H])([H])[H])C([H])([H])c2c([H])c(OC([H])([H])C([H])([H])[N+]([H])([H])C([H])([H])c3c([H])c([H])c(C([H])([H])C([H])([H])C([H])([H])C([H])([H])N([H])C(=O)N4C([H])([H])C([H])([H])C([H])([H])C([H])(n5nc(-c6c([H])c([H])c(Oc7c([H])c([H])c(F)c([H])c7F)c([H])c6[H])c(C(=O)N([H])[H])c5N([H])[H])C4([H])[H])c([H])c3[H])c([H])c([H])c2C1([H])[H]

$$$$
23:0:0
     RDKit          3D

 97105  0  0  1  0  0  0  0  0999 V2000
  -29.9280  -20.8670   23.3170 C   0  0  0  0  0  2  0  0  0  0  0  0
  -30.2080  -21.8670   22.1760 C   0  0  0  0  0  2  0  0  0  0  0  0
  -28.9900  -22.7340   21.8390 C   0  0  0  0  0  0  0  0  0  0  0  0
  -29.1730  -23.7190   20.9570 N   0  0  0  0  0  0  0  0  0  0  0  0
  -27.9040  -22.5370   22.3850 O   0  0  0  0  0  0  0  0  0  0  0  0
  -30.0840  -23.8160   20.5270 H   0  0  0  0  0  0  0  0  0  0  0  0
  -28.1860  -24.7630   20.6980 C   0  0  0  0  0  2  0  0  0  0  0  0
  -28.5800  -25.6330   19.4950 C   0  0  0  0  0  2  0  0  0  0  0  0
  -28.4460  -27.0050   19.8320 O   0  0  0  0  0  0  0  0  0  0  0  0
  -24.5230  -31.8740   23.1410 C   0  0  0  0  0  0  0  0  0  0  0  0
  -27.2050  -27.5970   19.8930 C   0  0  0  0  0  0  0  0  0  0  0  0
  -23.3070  -30.4920   21.4840 C   0  0  0  0  0  3  0  0  0  0  0  0
  -24.7630  -29.0110   20.0060 C   0  0  0  0  0  0  0  0  0  0  0  0
  -25.8190  -30.9080   21.2520 C   0  0  0  0  0  2  0  0  0  0  0  0
  -25.9150  -29.5570   20.5790 C   0  0  0  0  0  0  0  0  0  0  0  0
  -27.1340  -28.8550   20.5260 C   0  0  0  0  0  3  0  0  0  0  0  0
  -26.0290  -27.0410   19.3340 C   0  0  0  0  0  3  0  0  0  0  0  0
  -24.8100  -27.7450   19.3910 C   0  0  0  0  0  3  0  0  0  0  0  0
  -23.5030  -29.8430   20.0880 C   0  0  0  0  0  2  0  0  0  0  0  0
  -24.5660  -31.1050   22.0180 N   0  0  0  0  0  0  0  0  0  0  0  0
  -23.4470  -32.1160   23.7050 O   0  0  0  0  0  0  0  0  0  0  0  0
  -22.6930  -29.4370   22.4330 C   0  0  0  0  0  0  0  0  0  0  0  0
  -21.3760  -29.2050   22.2940 N   0  0  0  0  0  0  0  0  0  0  0  0
  -23.3960  -28.8290   23.2430 O   0  0  0  0  0  0  0  0  0  0  0  0
  -20.8670  -29.7480   21.6110 H   0  0  0  0  0  0  0  0  0  0  0  0
  -18.0600  -27.8470   22.7220 C   0  0  0  0  0  0  0  0  0  0  0  0
  -20.5950  -28.2280   23.0500 C   0  0  0  0  0  3  0  0  0  0  0  0
  -20.7810  -26.8040   22.4780 C   0  0  0  0  0  2  0  0  0  0  0  0
  -19.7190  -26.4270   21.4410 C   0  0  0  0  0  2  0  0  0  0  0  0
  -18.3170  -26.5060   22.0540 C   0  0  0  0  0  2  0  0  0  0  0  0
  -19.1300  -28.6620   23.1760 C   0  0  0  0  0  0  0  0  0  0  0  0
  -18.8370  -29.9140   23.7570 C   0  0  0  0  0  3  0  0  0  0  0  0
  -17.5070  -30.3530   23.8930 C   0  0  0  0  0  3  0  0  0  0  0  0
  -16.4500  -29.5340   23.4580 C   0  0  0  0  0  3  0  0  0  0  0  0
  -16.7290  -28.2840   22.8750 C   0  0  0  0  0  3  0  0  0  0  0  0
  -25.8100  -32.5060   23.7540 C   0  0  0  0  0  3  0  0  0  0  0  0
  -26.3580  -31.7200   25.0100 C   0  0  1  0  0  0  0  0  0  0  0  0
  -25.2850  -31.4520   26.0900 C   0  0  0  0  0  1  0  0  0  0  0  0
  -26.9580  -30.3580   24.5860 C   0  0  0  0  0  1  0  0  0  0  0  0
  -27.5040  -32.5230   25.6710 C   0  0  0  0  0  1  0  0  0  0  0  0
  -25.4900  -33.8950   24.1120 N   0  0  0  0  0  0  0  0  0  0  0  0
  -25.8060  -34.9630   23.3690 C   0  0  0  0  0  0  0  0  0  0  0  0
  -26.4730  -34.8840   22.3320 O   0  0  0  0  0  0  0  0  0  0  0  0
  -24.8960  -34.0280   24.9150 H   0  0  0  0  0  0  0  0  0  0  0  0
  -24.0590  -36.7460   23.0510 C   0  0  0  0  0  1  0  0  0  0  0  0
  -25.3050  -36.3380   23.8530 C   0  0  0  0  0  3  0  0  0  0  0  0
  -27.4340  -37.2290   24.6920 C   0  0  0  0  0  1  0  0  0  0  0  0
  -26.3260  -37.4030   23.7570 N   0  0  0  0  0  0  0  0  0  0  0  0
  -25.9110  -38.3140   23.9200 H   0  0  0  0  0  0  0  0  0  0  0  0
  -31.1460  -20.0000   23.6920 C   0  0  0  0  0  2  0  0  0  0  0  0
  -30.7640  -18.6740   24.3890 C   0  0  0  0  0  2  0  0  0  0  0  0
  -30.3960  -17.5930   23.4380 N   0  0  0  0  0  4  0  0  0  0  0  0
  -29.6450  -17.0600   23.8500 H   0  0  0  0  0  0  0  0  0  0  0  0
  -30.0320  -18.0110   22.5980 H   0  0  0  0  0  0  0  0  0  0  0  0
  -31.5050  -16.6560   23.1180 C   0  0  0  0  0  2  0  0  0  0  0  0
  -31.1330  -15.4970   22.1490 C   0  0  0  0  0  2  0  0  0  0  0  0
  -29.6190  -17.1150   18.9780 C   0  0  0  0  0  2  0  0  0  0  0  0
  -31.0770  -17.5610   18.8600 C   0  0  0  0  0  2  0  0  0  0  0  0
  -29.5220  -16.4320   20.3450 C   0  0  0  0  0  2  0  0  0  0  0  0
  -31.7740  -17.0070   20.1110 C   0  0  0  0  0  2  0  0  0  0  0  0
  -30.9110  -15.8080   20.6300 C   0  0  1  0  0  0  0  0  0  0  0  0
  -31.2530  -14.5260   19.7710 C   0  0  0  0  0  0  0  0  0  0  0  0
  -30.7430  -12.3360   18.7290 C   0  0  0  0  0  2  0  0  0  0  0  0
  -29.7500  -12.5080   17.5620 C   0  0  0  0  0  2  0  0  0  0  0  0
  -28.3030  -12.4330   18.0810 C   0  0  0  0  0  2  0  0  0  0  0  0
  -28.0700  -13.3550   19.3060 C   0  0  0  0  0  3  0  0  0  0  0  0
  -29.1860  -13.1660   20.3670 C   0  0  0  0  0  2  0  0  0  0  0  0
  -30.4790  -13.4010   19.7150 N   0  0  0  0  0  0  0  0  0  0  0  0
  -32.2900  -14.5770   19.1020 O   0  0  0  0  0  0  0  0  0  0  0  0
  -25.7740  -14.1100   20.1940 C   0  0  0  0  0  0  0  0  0  0  0  0
  -24.6870  -13.4050   20.6320 C   0  0  0  0  0  0  0  0  0  0  0  0
  -25.0550  -12.0250   20.5520 C   0  0  0  0  0  0  0  0  0  0  0  0
  -26.7400  -13.1670   19.8780 N   0  0  0  0  0  0  0  0  0  0  0  0
  -26.3140  -11.9070   20.1500 N   0  0  0  0  0  0  0  0  0  0  0  0
  -24.2630  -10.8110   20.7770 C   0  0  0  0  0  0  0  0  0  0  0  0
  -24.6800   -9.8180   21.6900 C   0  0  0  0  0  3  0  0  0  0  0  0
  -23.8940   -8.6660   21.9030 C   0  0  0  0  0  3  0  0  0  0  0  0
  -22.6750   -8.4990   21.2020 C   0  0  0  0  0  0  0  0  0  0  0  0
  -22.2760   -9.4800   20.2780 C   0  0  0  0  0  3  0  0  0  0  0  0
  -23.0620  -10.6240   20.0620 C   0  0  0  0  0  3  0  0  0  0  0  0
  -21.8580   -7.4020   21.3260 O   0  0  0  0  0  0  0  0  0  0  0  0
  -21.7920   -6.6820   22.4920 C   0  0  0  0  0  0  0  0  0  0  0  0
  -21.4550   -7.2870   23.7220 C   0  0  0  0  0  3  0  0  0  0  0  0
  -21.3310   -6.5000   24.8840 C   0  0  0  0  0  3  0  0  0  0  0  0
  -21.5290   -5.1080   24.8170 C   0  0  0  0  0  0  0  0  0  0  0  0
  -21.8590   -4.5020   23.5920 C   0  0  0  0  0  3  0  0  0  0  0  0
  -21.9870   -5.2880   22.4320 C   0  0  0  0  0  0  0  0  0  0  0  0
  -22.2830   -4.6960   21.2500 F   0  0  0  0  0  0  0  0  0  0  0  0
  -21.4020   -4.3500   25.9300 F   0  0  0  0  0  0  0  0  0  0  0  0
  -23.3480  -13.9670   21.0110 C   0  0  0  0  0  0  0  0  0  0  0  0
  -22.6520  -13.3230   21.9410 N   0  0  0  0  0  0  0  0  0  0  0  0
  -22.9320  -15.0140   20.5180 O   0  0  0  0  0  0  0  0  0  0  0  0
  -23.0010  -12.4740   22.3630 H   0  0  0  0  0  0  0  0  0  0  0  0
  -21.7550  -13.6840   22.2360 H   0  0  0  0  0  0  0  0  0  0  0  0
  -26.0120  -15.4710   20.0190 N   0  0  0  0  0  0  0  0  0  0  0  0
  -25.2880  -16.1640   20.1740 H   0  0  0  0  0  0  0  0  0  0  0  0
  -26.8610  -15.8640   19.6380 H   0  0  0  0  0  0  0  0  0  0  0  0
  1 50  1  0
  2  1  1  0
  3  2  1  0
  3  5  2  0
  4  3  1  0
  6  4  1  0
  7  4  1  0
  8  9  1  0
  8  7  1  0
  9 11  1  0
 10 21  2  0
 11 16  1  0
 12 20  1  0
 12 22  1  0
 13 19  1  0
 13 15  1  0
 14 20  1  0
 15 14  1  0
 16 15  2  0
 17 18  1  0
 17 11  2  0
 18 13  2  0
 19 12  1  0
 20 10  1  0
 22 24  2  0
 23 22  1  0
 25 23  1  0
 26 35  2  0
 26 31  1  0
 27 23  1  0
 27 31  1  0
 28 27  1  0
 29 30  1  0
 29 28  1  0
 30 26  1  0
 31 32  2  0
 32 33  1  0
 34 33  2  0
 35 34  1  0
 36 10  1  0
 36 41  1  0
 36 37  1  0
 37 40  1  1
 37 38  1  0
 39 37  1  0
 41 44  1  0
 42 46  1  0
 42 41  1  0
 43 42  2  0
 46 45  1  0
 48 46  1  0
 48 49  1  0
 48 47  1  0
 50 51  1  0
 52 53  1  0
 52 51  1  0
 54 52  1  0
 55 52  1  0
 56 55  1  0
 57 59  1  0
 58 57  1  0
 58 60  1  0
 59 61  1  0
 60 61  1  0
 61 56  1  1
 62 61  1  0
 63 68  1  0
 64 65  1  0
 64 63  1  0
 66 65  1  0
 66 73  1  0
 66 67  1  0
 68 62  1  0
 68 67  1  0
 69 62  2  0
 70 71  2  0
 71 90  1  0
 72 71  1  0
 72 75  1  0
 73 74  1  0
 73 70  1  0
 74 72  2  0
 75 76  1  0
 76 77  2  0
 78 81  1  0
 78 77  1  0
 79 78  2  0
 80 79  1  0
 80 75  2  0
 81 82  1  0
 82 83  1  0
 83 84  2  0
 85 84  1  0
 85 89  1  0
 86 85  2  0
 87 82  2  0
 87 86  1  0
 88 87  1  0
 90 91  1  0
 91 94  1  0
 91 93  1  0
 92 90  2  0
 95 96  1  0
 95 70  1  0
 97 95  1  0
M  ISO  4   8 101   9 101  61 100  62 100
M  END
>  <TORSDO>  (24) 
F 26

>  <SCORE>  (24) 
-9.245

>  <name>  (24) 
23

>  <ligand_id>  (24) 
23

>  <original_smiles>  (24) 
[H]c1c([H])c([H])c2c(c1[H])C([H])([H])C([H])([H])C([H])([H])C2([H])N([H])C(=O)C1([H])N(C(=O)C([H])(N([H])C(=O)C([H])(N([H])C([H])([H])[H])C([H])([H])[H])C(C([H])([H])[H])(C([H])([H])[H])C([H])([H])[H])C([H])([H])c2c([H])c(OC([H])([H])C([H])([H])N([H])C(=O)C([H])([H])C([H])([H])C([H])([H])C([H])([H])[N+]([H])([H])C([H])([H])C([H])([H])C3(C(=O)N4C([H])([H])C([H])([H])C([H])([H])C([H])(n5nc(-c6c([H])c([H])c(Oc7c([H])c([H])c(F)c([H])c7F)c([H])c6[H])c(C(=O)N([H])[H])c5N([H])[H])C4([H])[H])C([H])([H])C([H])([H])C([H])([H])C3([H])[H])c([H])c([H])c2C1([H])[H]

>  <smiles>  (24) 
[H]c1c([H])c([H])c2c(c1[H])C([H])([H])C([H])([H])C([H])([H])C2([H])N([H])C(=O)C1([H])N(C(=O)C([H])(N([H])C(=O)C([H])(N([H])C([H])([H])[H])C([H])([H])[H])C(C([H])([H])[H])(C([H])([H])[H])C([H])([H])[H])C([H])([H])c2c([H])c(OC([H])([H])C([H])([H])N([H])C(=O)C([H])([H])C([H])([H])C([H])([H])C([H])([H])[N+]([H])([H])C([H])([H])C([H])([H])C3(C(=O)N4C([H])([H])C([H])([H])C([H])([H])C([H])(n5nc(-c6c([H])c([H])c(Oc7c([H])c([H])c(F)c([H])c7F)c([H])c6[H])c(C(=O)N([H])[H])c5N([H])[H])C4([H])[H])C([H])([H])C([H])([H])C([H])([H])C3([H])[H])c([H])c([H])c2C1([H])[H]

$$$$
25:0:0
     RDKit          3D

 90 99  0  0  1  0  0  0  0  0999 V2000
  -31.1390  -20.8610   19.4660 C   0  0  0  0  0  2  0  0  0  0  0  0
  -31.1300  -20.8990   21.0030 C   0  0  0  0  0  2  0  0  0  0  0  0
  -29.3950  -19.0130   19.0860 C   0  0  0  0  0  2  0  0  0  0  0  0
  -29.3860  -19.0520   21.4320 C   0  0  0  0  0  2  0  0  0  0  0  0
  -29.9530  -18.0660   20.2790 C   0  0  0  0  0  3  0  0  0  0  0  0
  -29.6480  -20.6620   19.1320 C   0  0  0  0  0  3  0  0  0  0  0  0
  -29.6380  -20.6920   21.3300 C   0  0  0  0  0  3  0  0  0  0  0  0
  -28.9430  -21.5010   20.2180 N   0  0  1  0  0  4  0  0  0  0  0  0
  -27.9540  -21.2960   20.2250 H   0  0  0  0  0  0  0  0  0  0  0  0
  -30.4880  -15.2180   20.1640 C   0  0  0  0  0  0  0  0  0  0  0  0
  -30.4080  -12.8220   19.2380 C   0  0  0  0  0  2  0  0  0  0  0  0
  -29.4500  -12.6900   18.0290 C   0  0  0  0  0  2  0  0  0  0  0  0
  -28.0070  -12.4370   18.5010 C   0  0  0  0  0  2  0  0  0  0  0  0
  -27.6000  -13.3710   19.6700 C   0  0  0  0  0  3  0  0  0  0  0  0
  -28.6800  -13.4560   20.7680 C   0  0  0  0  0  2  0  0  0  0  0  0
  -29.9110  -13.9320   20.1180 N   0  0  0  0  0  0  0  0  0  0  0  0
  -31.6910  -15.2550   19.8840 O   0  0  0  0  0  0  0  0  0  0  0  0
  -29.7130  -16.4430   20.3240 N   0  0  0  0  0  0  0  0  0  0  0  0
  -28.7460  -16.2140   20.5060 H   0  0  0  0  0  0  0  0  0  0  0  0
  -25.2430  -13.9130   20.4880 C   0  0  0  0  0  0  0  0  0  0  0  0
  -24.1940  -13.1260   20.8730 C   0  0  0  0  0  0  0  0  0  0  0  0
  -24.6650  -11.7790   20.8090 C   0  0  0  0  0  0  0  0  0  0  0  0
  -26.2830  -13.0470   20.2050 N   0  0  0  0  0  0  0  0  0  0  0  0
  -25.9490  -11.7550   20.4640 N   0  0  0  0  0  0  0  0  0  0  0  0
  -23.9490  -10.5100   20.9960 C   0  0  0  0  0  0  0  0  0  0  0  0
  -24.3820   -9.5460   21.9330 C   0  0  0  0  0  3  0  0  0  0  0  0
  -23.6630   -8.3450   22.1090 C   0  0  0  0  0  3  0  0  0  0  0  0
  -22.4960   -8.0980   21.3480 C   0  0  0  0  0  0  0  0  0  0  0  0
  -22.0820   -9.0500   20.4000 C   0  0  0  0  0  3  0  0  0  0  0  0
  -22.8010  -10.2430   20.2220 C   0  0  0  0  0  3  0  0  0  0  0  0
  -21.7480   -6.9480   21.4340 O   0  0  0  0  0  0  0  0  0  0  0  0
  -21.6660   -6.2280   22.5980 C   0  0  0  0  0  0  0  0  0  0  0  0
  -21.1560   -6.7910   23.7890 C   0  0  0  0  0  3  0  0  0  0  0  0
  -21.0250   -5.9950   24.9440 C   0  0  0  0  0  3  0  0  0  0  0  0
  -21.3940   -4.6360   24.9090 C   0  0  0  0  0  0  0  0  0  0  0  0
  -21.8940   -4.0720   23.7230 C   0  0  0  0  0  3  0  0  0  0  0  0
  -22.0280   -4.8660   22.5700 C   0  0  0  0  0  0  0  0  0  0  0  0
  -22.4910   -4.3130   21.4240 F   0  0  0  0  0  0  0  0  0  0  0  0
  -21.2590   -3.8680   26.0160 F   0  0  0  0  0  0  0  0  0  0  0  0
  -22.8010  -13.5920   21.1830 C   0  0  0  0  0  0  0  0  0  0  0  0
  -22.0970  -12.8830   22.0570 N   0  0  0  0  0  0  0  0  0  0  0  0
  -22.3470  -14.6220   20.6860 O   0  0  0  0  0  0  0  0  0  0  0  0
  -22.4770  -12.0480   22.4790 H   0  0  0  0  0  0  0  0  0  0  0  0
  -21.1650  -13.1780   22.3080 H   0  0  0  0  0  0  0  0  0  0  0  0
  -25.3910  -15.2870   20.3280 N   0  0  0  0  0  0  0  0  0  0  0  0
  -24.6160  -15.9280   20.4620 H   0  0  0  0  0  0  0  0  0  0  0  0
  -26.2130  -15.7380   19.9480 H   0  0  0  0  0  0  0  0  0  0  0  0
  -29.1420  -23.1460   20.2460 C   0  0  0  0  0  3  0  0  0  0  0  0
  -28.0190  -24.4750   20.0370 C   0  0  0  0  0  3  0  0  0  0  0  0
  -28.2380  -26.0690   20.1960 O   0  0  0  0  0  0  0  0  0  0  0  0
  -24.6300  -31.8740   23.2310 C   0  0  0  0  0  0  0  0  0  0  0  0
  -27.1940  -27.1060   20.1490 C   0  0  0  0  0  0  0  0  0  0  0  0
  -23.4310  -30.4980   21.5760 C   0  0  0  0  0  3  0  0  0  0  0  0
  -24.8770  -28.9230   20.1320 C   0  0  0  0  0  0  0  0  0  0  0  0
  -25.9910  -30.7380   21.4190 C   0  0  0  0  0  2  0  0  0  0  0  0
  -26.0630  -29.3430   20.7470 C   0  0  0  0  0  0  0  0  0  0  0  0
  -27.2200  -28.4560   20.7310 C   0  0  0  0  0  3  0  0  0  0  0  0
  -25.9760  -26.8130   19.4950 C   0  0  0  0  0  3  0  0  0  0  0  0
  -24.8530  -27.6760   19.4870 C   0  0  0  0  0  3  0  0  0  0  0  0
  -23.6540  -29.8330   20.1910 C   0  0  0  0  0  2  0  0  0  0  0  0
  -24.7050  -31.0610   22.1290 N   0  0  0  0  0  0  0  0  0  0  0  0
  -23.5420  -32.1530   23.7620 O   0  0  0  0  0  0  0  0  0  0  0  0
  -22.7430  -29.4860   22.5300 C   0  0  0  0  0  0  0  0  0  0  0  0
  -21.4140  -29.3200   22.4030 N   0  0  0  0  0  0  0  0  0  0  0  0
  -23.4120  -28.8530   23.3500 O   0  0  0  0  0  0  0  0  0  0  0  0
  -20.9280  -29.8820   21.7180 H   0  0  0  0  0  0  0  0  0  0  0  0
  -18.0300  -28.1180   22.9080 C   0  0  0  0  0  0  0  0  0  0  0  0
  -20.5920  -28.3740   23.1640 C   0  0  0  0  0  3  0  0  0  0  0  0
  -20.6890  -26.9500   22.5700 C   0  0  0  0  0  2  0  0  0  0  0  0
  -19.5810  -26.6440   21.5560 C   0  0  0  0  0  2  0  0  0  0  0  0
  -18.2020  -26.7800   22.2080 C   0  0  0  0  0  2  0  0  0  0  0  0
  -19.1520  -28.8740   23.3420 C   0  0  0  0  0  0  0  0  0  0  0  0
  -18.9340  -30.1250   23.9590 C   0  0  0  0  0  3  0  0  0  0  0  0
  -17.6300  -30.6220   24.1430 C   0  0  0  0  0  3  0  0  0  0  0  0
  -16.5230  -29.8630   23.7220 C   0  0  0  0  0  3  0  0  0  0  0  0
  -16.7240  -28.6130   23.1110 C   0  0  0  0  0  3  0  0  0  0  0  0
  -25.9040  -32.5050   23.8690 C   0  0  0  0  0  3  0  0  0  0  0  0
  -25.5940  -33.9040   24.2100 N   0  0  0  0  0  0  0  0  0  0  0  0
  -25.8940  -34.9630   23.4460 C   0  0  0  0  0  0  0  0  0  0  0  0
  -26.5250  -34.8660   22.3900 O   0  0  0  0  0  0  0  0  0  0  0  0
  -25.0320  -34.0530   25.0350 H   0  0  0  0  0  0  0  0  0  0  0  0
  -24.1270  -36.7380   23.1900 C   0  0  0  0  0  1  0  0  0  0  0  0
  -25.4190  -36.3490   23.9280 C   0  0  0  0  0  3  0  0  0  0  0  0
  -27.5830  -37.2680   24.6360 C   0  0  0  0  0  1  0  0  0  0  0  0
  -26.4310  -37.4150   23.7510 N   0  0  0  0  0  0  0  0  0  0  0  0
  -26.0210  -38.3310   23.9140 H   0  0  0  0  0  0  0  0  0  0  0  0
  -26.4050  -31.7320   25.1510 C   0  0  1  0  0  0  0  0  0  0  0  0
  -25.3000  -31.4990   26.2080 C   0  0  0  0  0  1  0  0  0  0  0  0
  -26.9870  -30.3520   24.7680 C   0  0  0  0  0  1  0  0  0  0  0  0
  -27.5530  -32.5200   25.8240 C   0  0  0  0  0  1  0  0  0  0  0  0
  1  2  1  0
  3  5  1  0
  5 18  1  0
  5  4  1  0
  6  3  1  0
  6  1  1  0
  6  8  1  0
  7  2  1  0
  7  4  1  0
  8  9  1  1
  8 48  1  0
  8  7  1  0
 10 18  1  0
 11 16  1  0
 12 13  1  0
 12 11  1  0
 14 13  1  0
 14 23  1  0
 14 15  1  0
 16 10  1  0
 16 15  1  0
 17 10  2  0
 18 19  1  0
 20 21  2  0
 21 40  1  0
 22 21  1  0
 22 25  1  0
 23 24  1  0
 23 20  1  0
 24 22  2  0
 25 26  1  0
 26 27  2  0
 28 31  1  0
 28 27  1  0
 29 28  2  0
 30 29  1  0
 30 25  2  0
 31 32  1  0
 32 33  1  0
 33 34  2  0
 35 34  1  0
 35 39  1  0
 36 35  2  0
 37 32  2  0
 37 36  1  0
 38 37  1  0
 40 41  1  0
 41 44  1  0
 41 43  1  0
 42 40  2  0
 45 46  1  0
 45 20  1  0
 47 45  1  0
 49 50  1  0
 49 48  2  0
 51 62  2  0
 52 50  1  0
 52 57  1  0
 53 61  1  0
 53 63  1  0
 54 60  1  0
 54 56  1  0
 55 61  1  0
 56 55  1  0
 57 56  2  0
 58 52  2  0
 59 58  1  0
 59 54  2  0
 60 53  1  0
 61 51  1  0
 63 65  2  0
 64 63  1  0
 66 64  1  0
 67 76  2  0
 67 72  1  0
 68 64  1  0
 68 72  1  0
 69 68  1  0
 70 71  1  0
 70 69  1  0
 71 67  1  0
 72 73  2  0
 73 74  1  0
 75 74  2  0
 76 75  1  0
 77 51  1  0
 77 78  1  0
 77 87  1  0
 78 81  1  0
 79 83  1  0
 79 78  1  0
 80 79  2  0
 83 82  1  0
 85 86  1  0
 85 83  1  0
 85 84  1  0
 87 90  1  1
 87 88  1  0
 89 87  1  0
M  ISO  4  10 100  18 100  49 101  50 101
M  END
>  <TORSDO>  (25) 
F 18

>  <SCORE>  (25) 
-15.001

>  <name>  (25) 
25

>  <ligand_id>  (25) 
25

>  <original_smiles>  (25) 
[H]c1c([H])c([H])c2c(c1[H])C([H])([H])C([H])([H])C([H])([H])C2([H])N([H])C(=O)C1([H])N(C(=O)C([H])(N([H])C(=O)C([H])(N([H])C([H])([H])[H])C([H])([H])[H])C(C([H])([H])[H])(C([H])([H])[H])C([H])([H])[H])C([H])([H])c2c([H])c(OC([H])([H])C([H])([H])[N+]3([H])C4([H])C([H])([H])C([H])([H])C3([H])C([H])([H])C([H])(N([H])C(=O)N3C([H])([H])C([H])([H])C([H])([H])C([H])(n5nc(-c6c([H])c([H])c(Oc7c([H])c([H])c(F)c([H])c7F)c([H])c6[H])c(C(=O)N([H])[H])c5N([H])[H])C3([H])[H])C4([H])[H])c([H])c([H])c2C1([H])[H]

>  <smiles>  (25) 
[H]c1c([H])c([H])c2c(c1[H])C([H])([H])C([H])([H])C([H])([H])C2([H])N([H])C(=O)C1([H])N(C(=O)C([H])(N([H])C(=O)C([H])(N([H])C([H])([H])[H])C([H])([H])[H])C(C([H])([H])[H])(C([H])([H])[H])C([H])([H])[H])C([H])([H])c2c([H])c(OC([H])([H])C([H])([H])[N+]3([H])C4([H])C([H])([H])C([H])([H])C3([H])C([H])([H])C([H])(N([H])C(=O)N3C([H])([H])C([H])([H])C([H])([H])C([H])(n5nc(-c6c([H])c([H])c(Oc7c([H])c([H])c(F)c([H])c7F)c([H])c6[H])c(C(=O)N([H])[H])c5N([H])[H])C3([H])[H])C4([H])[H])c([H])c([H])c2C1([H])[H]

$$$$
26:0:0
     RDKit          3D

 92100  0  0  1  0  0  0  0  0999 V2000
  -28.6520  -23.3910   22.7550 C   0  0  0  0  0  3  0  0  0  0  0  0
  -28.6210  -22.0700   22.2670 C   0  0  0  0  0  3  0  0  0  0  0  0
  -28.6480  -24.4830   21.8650 C   0  0  0  0  0  3  0  0  0  0  0  0
  -28.6050  -22.9290   19.9880 C   0  0  0  0  0  3  0  0  0  0  0  0
  -28.6020  -21.8160   20.8780 C   0  0  0  0  0  0  0  0  0  0  0  0
  -28.6170  -24.2690   20.4720 C   0  0  0  0  0  0  0  0  0  0  0  0
  -28.4760  -20.3630   20.3720 C   0  0  0  0  0  2  0  0  0  0  0  0
  -29.5800  -19.4410   20.7720 N   0  0  0  0  0  4  0  0  0  0  0  0
  -29.7890  -19.6100   21.7410 H   0  0  0  0  0  0  0  0  0  0  0  0
  -30.3970  -19.6800   20.2360 H   0  0  0  0  0  0  0  0  0  0  0  0
  -29.2710  -17.9850   20.6030 C   0  0  0  0  0  2  0  0  0  0  0  0
  -30.4170  -17.0160   21.0380 C   0  0  0  0  0  2  0  0  0  0  0  0
  -30.7700  -14.5660   20.4490 C   0  0  0  0  0  0  0  0  0  0  0  0
  -30.4990  -12.3840   19.3180 C   0  0  0  0  0  2  0  0  0  0  0  0
  -29.5580  -12.5670   18.1090 C   0  0  0  0  0  2  0  0  0  0  0  0
  -28.0830  -12.4280   18.5360 C   0  0  0  0  0  2  0  0  0  0  0  0
  -27.7400  -13.2790   19.7880 C   0  0  0  0  0  3  0  0  0  0  0  0
  -28.7910  -13.0690   20.9010 C   0  0  0  0  0  2  0  0  0  0  0  0
  -30.1150  -13.3770   20.3350 N   0  0  0  0  0  0  0  0  0  0  0  0
  -31.9000  -14.7530   19.9880 O   0  0  0  0  0  0  0  0  0  0  0  0
  -30.0410  -15.5840   20.9570 N   0  0  0  0  0  0  0  0  0  0  0  0
  -29.1260  -15.3320   21.3020 H   0  0  0  0  0  0  0  0  0  0  0  0
  -25.3420  -13.8990   20.4850 C   0  0  0  0  0  0  0  0  0  0  0  0
  -24.2720  -13.1330   20.8580 C   0  0  0  0  0  0  0  0  0  0  0  0
  -24.7280  -11.7800   20.8380 C   0  0  0  0  0  0  0  0  0  0  0  0
  -26.3840  -13.0120   20.2640 N   0  0  0  0  0  0  0  0  0  0  0  0
  -26.0190  -11.7330   20.5350 N   0  0  0  0  0  0  0  0  0  0  0  0
  -23.9980  -10.5220   21.0360 C   0  0  0  0  0  0  0  0  0  0  0  0
  -24.4320   -9.5540   21.9700 C   0  0  0  0  0  3  0  0  0  0  0  0
  -23.7030   -8.3600   22.1550 C   0  0  0  0  0  3  0  0  0  0  0  0
  -22.5270   -8.1240   21.4060 C   0  0  0  0  0  0  0  0  0  0  0  0
  -22.1120   -9.0790   20.4600 C   0  0  0  0  0  3  0  0  0  0  0  0
  -22.8410  -10.2640   20.2740 C   0  0  0  0  0  3  0  0  0  0  0  0
  -21.7680   -6.9820   21.4990 O   0  0  0  0  0  0  0  0  0  0  0  0
  -21.7280   -6.2380   22.6510 C   0  0  0  0  0  0  0  0  0  0  0  0
  -21.3150   -6.7930   23.8820 C   0  0  0  0  0  3  0  0  0  0  0  0
  -21.2220   -5.9750   25.0270 C   0  0  0  0  0  3  0  0  0  0  0  0
  -21.5320   -4.6040   24.9410 C   0  0  0  0  0  0  0  0  0  0  0  0
  -21.9380   -4.0490   23.7140 C   0  0  0  0  0  3  0  0  0  0  0  0
  -22.0330   -4.8640   22.5730 C   0  0  0  0  0  0  0  0  0  0  0  0
  -22.4050   -4.3210   21.3880 F   0  0  0  0  0  0  0  0  0  0  0  0
  -21.4340   -3.8170   26.0370 F   0  0  0  0  0  0  0  0  0  0  0  0
  -22.8740  -13.6170   21.1220 C   0  0  0  0  0  0  0  0  0  0  0  0
  -22.1420  -12.9280   21.9910 N   0  0  0  0  0  0  0  0  0  0  0  0
  -22.4420  -14.6410   20.5950 O   0  0  0  0  0  0  0  0  0  0  0  0
  -22.5030  -12.0990   22.4390 H   0  0  0  0  0  0  0  0  0  0  0  0
  -21.2040  -13.2350   22.2100 H   0  0  0  0  0  0  0  0  0  0  0  0
  -25.5100  -15.2680   20.2930 N   0  0  0  0  0  0  0  0  0  0  0  0
  -24.7350  -15.9180   20.3710 H   0  0  0  0  0  0  0  0  0  0  0  0
  -26.3460  -15.6920   19.9120 H   0  0  0  0  0  0  0  0  0  0  0  0
  -28.6640  -25.4620   19.5000 C   0  0  0  0  0  2  0  0  0  0  0  0
  -28.5130  -26.7750   20.0920 O   0  0  0  0  0  0  0  0  0  0  0  0
  -24.6320  -31.8950   23.1940 C   0  0  0  0  0  0  0  0  0  0  0  0
  -27.3060  -27.4590   20.0900 C   0  0  0  0  0  0  0  0  0  0  0  0
  -23.4330  -30.4890   21.5510 C   0  0  0  0  0  3  0  0  0  0  0  0
  -24.8940  -28.9650   20.1170 C   0  0  0  0  0  0  0  0  0  0  0  0
  -25.9580  -30.8630   21.3480 C   0  0  0  0  0  2  0  0  0  0  0  0
  -26.0510  -29.4920   20.7030 C   0  0  0  0  0  0  0  0  0  0  0  0
  -27.2550  -28.7460   20.6850 C   0  0  0  0  0  3  0  0  0  0  0  0
  -26.1190  -26.9460   19.5140 C   0  0  0  0  0  3  0  0  0  0  0  0
  -24.9250  -27.6930   19.5210 C   0  0  0  0  0  3  0  0  0  0  0  0
  -23.6460  -29.8160   20.1680 C   0  0  0  0  0  2  0  0  0  0  0  0
  -24.6940  -31.0970   22.0890 N   0  0  0  0  0  0  0  0  0  0  0  0
  -23.5500  -32.1550   23.7380 O   0  0  0  0  0  0  0  0  0  0  0  0
  -22.7940  -29.4580   22.5090 C   0  0  0  0  0  0  0  0  0  0  0  0
  -21.4690  -29.2730   22.3920 N   0  0  0  0  0  0  0  0  0  0  0  0
  -23.4870  -28.8300   23.3140 O   0  0  0  0  0  0  0  0  0  0  0  0
  -20.9700  -29.8330   21.7140 H   0  0  0  0  0  0  0  0  0  0  0  0
  -18.1020  -28.0690   22.9140 C   0  0  0  0  0  0  0  0  0  0  0  0
  -20.6620  -28.3260   23.1620 C   0  0  0  0  0  3  0  0  0  0  0  0
  -20.7600  -26.9010   22.5700 C   0  0  0  0  0  2  0  0  0  0  0  0
  -19.6480  -26.5880   21.5640 C   0  0  0  0  0  2  0  0  0  0  0  0
  -18.2720  -26.7260   22.2240 C   0  0  0  0  0  2  0  0  0  0  0  0
  -19.2250  -28.8270   23.3410 C   0  0  0  0  0  0  0  0  0  0  0  0
  -19.0110  -30.0850   23.9450 C   0  0  0  0  0  3  0  0  0  0  0  0
  -17.7080  -30.5830   24.1300 C   0  0  0  0  0  3  0  0  0  0  0  0
  -16.6000  -29.8220   23.7200 C   0  0  0  0  0  3  0  0  0  0  0  0
  -16.7980  -28.5670   23.1170 C   0  0  0  0  0  3  0  0  0  0  0  0
  -25.9140  -32.5350   23.8120 C   0  0  0  0  0  3  0  0  0  0  0  0
  -25.5950  -33.9290   24.1480 N   0  0  0  0  0  0  0  0  0  0  0  0
  -25.9220  -34.9870   23.3940 C   0  0  0  0  0  0  0  0  0  0  0  0
  -26.5950  -34.8920   22.3630 O   0  0  0  0  0  0  0  0  0  0  0  0
  -24.9990  -34.0770   24.9490 H   0  0  0  0  0  0  0  0  0  0  0  0
  -24.1870  -36.7710   23.0340 C   0  0  0  0  0  1  0  0  0  0  0  0
  -25.4230  -36.3700   23.8540 C   0  0  0  0  0  3  0  0  0  0  0  0
  -27.5440  -37.2610   24.7100 C   0  0  0  0  0  1  0  0  0  0  0  0
  -26.4510  -37.4290   23.7570 N   0  0  0  0  0  0  0  0  0  0  0  0
  -26.0380  -38.3460   23.9050 H   0  0  0  0  0  0  0  0  0  0  0  0
  -26.4430  -31.7620   25.0820 C   0  0  1  0  0  0  0  0  0  0  0  0
  -25.3580  -31.5080   26.1540 C   0  0  0  0  0  1  0  0  0  0  0  0
  -27.0380  -30.3930   24.6790 C   0  0  0  0  0  1  0  0  0  0  0  0
  -27.5900  -32.5640   25.7440 C   0  0  0  0  0  1  0  0  0  0  0  0
  2  1  1  0
  3  1  2  0
  4  6  2  0
  4  5  1  0
  5  2  2  0
  6  3  1  0
  7  8  1  0
  7  5  1  0
  8  9  1  0
 10  8  1  0
 11  8  1  0
 11 12  1  0
 13 21  1  0
 14 19  1  0
 15 16  1  0
 15 14  1  0
 17 16  1  0
 17 26  1  0
 17 18  1  0
 19 13  1  0
 19 18  1  0
 20 13  2  0
 21 12  1  0
 21 22  1  0
 23 24  2  0
 24 43  1  0
 25 24  1  0
 25 28  1  0
 26 23  1  0
 26 27  1  0
 27 25  2  0
 28 29  1  0
 29 30  2  0
 31 34  1  0
 31 30  1  0
 32 31  2  0
 33 32  1  0
 33 28  2  0
 34 35  1  0
 35 36  1  0
 36 37  2  0
 38 37  1  0
 38 42  1  0
 39 38  2  0
 40 35  2  0
 40 39  1  0
 41 40  1  0
 43 44  1  0
 44 47  1  0
 44 46  1  0
 45 43  2  0
 48 49  1  0
 48 23  1  0
 50 48  1  0
 51 52  1  0
 51  6  1  0
 53 64  2  0
 54 52  1  0
 54 59  1  0
 55 63  1  0
 55 65  1  0
 56 62  1  0
 56 58  1  0
 57 63  1  0
 58 57  1  0
 59 58  2  0
 60 61  1  0
 60 54  2  0
 61 56  2  0
 62 55  1  0
 63 53  1  0
 65 67  2  0
 66 65  1  0
 68 66  1  0
 69 78  2  0
 69 74  1  0
 70 66  1  0
 70 74  1  0
 71 70  1  0
 72 73  1  0
 72 71  1  0
 73 69  1  0
 74 75  2  0
 75 76  1  0
 77 76  2  0
 78 77  1  0
 79 53  1  0
 79 80  1  0
 79 89  1  0
 80 83  1  0
 81 85  1  0
 81 80  1  0
 82 81  2  0
 85 84  1  0
 87 85  1  0
 87 88  1  0
 87 86  1  0
 89 92  1  1
 89 90  1  0
 91 89  1  0
M  ISO  4  13 100  21 100  51 101  52 101
M  END
>  <TORSDO>  (26) 
F 21

>  <SCORE>  (26) 
-13.318

>  <name>  (26) 
26

>  <ligand_id>  (26) 
26

>  <original_smiles>  (26) 
[H]c1c([H])c([H])c2c(c1[H])C([H])([H])C([H])([H])C([H])([H])C2([H])N([H])C(=O)C1([H])N(C(=O)C([H])(N([H])C(=O)C([H])(N([H])C([H])([H])[H])C([H])([H])[H])C(C([H])([H])[H])(C([H])([H])[H])C([H])([H])[H])C([H])([H])c2c([H])c(OC([H])([H])c3c([H])c([H])c([H])c(C([H])([H])[N+]([H])([H])C([H])([H])C([H])([H])N([H])C(=O)N4C([H])([H])C([H])([H])C([H])([H])C([H])(n5nc(-c6c([H])c([H])c(Oc7c([H])c([H])c(F)c([H])c7F)c([H])c6[H])c(C(=O)N([H])[H])c5N([H])[H])C4([H])[H])c3[H])c([H])c([H])c2C1([H])[H]

>  <smiles>  (26) 
[H]c1c([H])c([H])c2c(c1[H])C([H])([H])C([H])([H])C([H])([H])C2([H])N([H])C(=O)C1([H])N(C(=O)C([H])(N([H])C(=O)C([H])(N([H])C([H])([H])[H])C([H])([H])[H])C(C([H])([H])[H])(C([H])([H])[H])C([H])([H])[H])C([H])([H])c2c([H])c(OC([H])([H])c3c([H])c([H])c([H])c(C([H])([H])[N+]([H])([H])C([H])([H])C([H])([H])N([H])C(=O)N4C([H])([H])C([H])([H])C([H])([H])C([H])(n5nc(-c6c([H])c([H])c(Oc7c([H])c([H])c(F)c([H])c7F)c([H])c6[H])c(C(=O)N([H])[H])c5N([H])[H])C4([H])[H])c3[H])c([H])c([H])c2C1([H])[H]

$$$$
27:0:0
     RDKit          3D

 92100  0  0  1  0  0  0  0  0999 V2000
  -28.6150  -22.3290   19.9570 C   0  0  0  0  0  3  0  0  0  0  0  0
  -30.5130  -21.4900   21.2100 C   0  0  0  0  0  3  0  0  0  0  0  0
  -30.0700  -23.9170   21.0760 C   0  0  0  0  0  3  0  0  0  0  0  0
  -29.3870  -21.1900   20.4120 C   0  0  0  0  0  0  0  0  0  0  0  0
  -28.9140  -23.7100   20.2910 C   0  0  0  0  0  0  0  0  0  0  0  0
  -30.8540  -22.8270   21.5270 C   0  0  0  0  0  0  0  0  0  0  0  0
  -31.9370  -23.0570   22.3130 F   0  0  0  0  0  0  0  0  0  0  0  0
  -28.9200  -19.6840   20.2150 C   0  0  0  0  0  2  0  0  0  0  0  0
  -29.8510  -18.5720   19.7260 N   0  0  0  0  0  4  0  0  0  0  0  0
  -30.6170  -18.9990   19.2290 H   0  0  0  0  0  0  0  0  0  0  0  0
  -29.3270  -18.0800   19.0200 H   0  0  0  0  0  0  0  0  0  0  0  0
  -31.9590  -17.5800   20.6310 C   0  0  0  0  0  1  0  0  0  0  0  0
  -30.4150  -17.5080   20.6750 C   0  0  0  0  0  3  0  0  0  0  0  0
  -29.7900  -15.9970   20.6530 C   0  0  0  0  0  2  0  0  0  0  0  0
  -30.5470  -14.6720   20.1630 C   0  0  0  0  0  0  0  0  0  0  0  0
  -30.2670  -12.4300   19.0890 C   0  0  0  0  0  2  0  0  0  0  0  0
  -29.2820  -12.5760   17.9090 C   0  0  0  0  0  2  0  0  0  0  0  0
  -27.8250  -12.4110   18.3880 C   0  0  0  0  0  2  0  0  0  0  0  0
  -27.5130  -13.2500   19.6560 C   0  0  0  0  0  3  0  0  0  0  0  0
  -28.6220  -13.1120   20.7230 C   0  0  0  0  0  2  0  0  0  0  0  0
  -29.9100  -13.4510   20.0990 N   0  0  0  0  0  0  0  0  0  0  0  0
  -31.6890  -14.7710   19.7060 O   0  0  0  0  0  0  0  0  0  0  0  0
  -25.1610  -13.8390   20.5040 C   0  0  0  0  0  0  0  0  0  0  0  0
  -24.1010  -13.0670   20.8940 C   0  0  0  0  0  0  0  0  0  0  0  0
  -24.5450  -11.7150   20.7970 C   0  0  0  0  0  0  0  0  0  0  0  0
  -26.1860  -12.9600   20.1940 N   0  0  0  0  0  0  0  0  0  0  0  0
  -25.8220  -11.6710   20.4300 N   0  0  0  0  0  0  0  0  0  0  0  0
  -23.8080  -10.4540   20.9820 C   0  0  0  0  0  0  0  0  0  0  0  0
  -24.2480   -9.4690   21.8950 C   0  0  0  0  0  3  0  0  0  0  0  0
  -23.5160   -8.2750   22.0660 C   0  0  0  0  0  3  0  0  0  0  0  0
  -22.3280   -8.0580   21.3280 C   0  0  0  0  0  0  0  0  0  0  0  0
  -21.9070   -9.0310   20.4040 C   0  0  0  0  0  3  0  0  0  0  0  0
  -22.6400  -10.2170   20.2310 C   0  0  0  0  0  3  0  0  0  0  0  0
  -21.5660   -6.9180   21.4110 O   0  0  0  0  0  0  0  0  0  0  0  0
  -21.5160   -6.1660   22.5570 C   0  0  0  0  0  0  0  0  0  0  0  0
  -21.0670   -6.7040   23.7830 C   0  0  0  0  0  3  0  0  0  0  0  0
  -20.9660   -5.8780   24.9200 C   0  0  0  0  0  3  0  0  0  0  0  0
  -21.3050   -4.5150   24.8320 C   0  0  0  0  0  0  0  0  0  0  0  0
  -21.7470   -3.9760   23.6120 C   0  0  0  0  0  3  0  0  0  0  0  0
  -21.8500   -4.7990   22.4760 C   0  0  0  0  0  0  0  0  0  0  0  0
  -22.2570   -4.2700   21.2970 F   0  0  0  0  0  0  0  0  0  0  0  0
  -21.2000   -3.7180   25.9210 F   0  0  0  0  0  0  0  0  0  0  0  0
  -22.7240  -13.5530   21.2410 C   0  0  0  0  0  0  0  0  0  0  0  0
  -22.0200  -12.8370   22.1100 N   0  0  0  0  0  0  0  0  0  0  0  0
  -22.2810  -14.6030   20.7760 O   0  0  0  0  0  0  0  0  0  0  0  0
  -22.3900  -11.9870   22.5110 H   0  0  0  0  0  0  0  0  0  0  0  0
  -21.0970  -13.1430   22.3790 H   0  0  0  0  0  0  0  0  0  0  0  0
  -25.3320  -15.2150   20.3650 N   0  0  0  0  0  0  0  0  0  0  0  0
  -24.5660  -15.8630   20.5030 H   0  0  0  0  0  0  0  0  0  0  0  0
  -26.1710  -15.6570   20.0150 H   0  0  0  0  0  0  0  0  0  0  0  0
  -27.9410  -24.8960   19.8740 C   0  0  0  0  0  2  0  0  0  0  0  0
  -28.1870  -26.3410   20.2050 O   0  0  0  0  0  0  0  0  0  0  0  0
  -24.5230  -31.8500   23.2030 C   0  0  0  0  0  0  0  0  0  0  0  0
  -27.0890  -27.2370   20.1380 C   0  0  0  0  0  0  0  0  0  0  0  0
  -23.2960  -30.4550   21.5710 C   0  0  0  0  0  3  0  0  0  0  0  0
  -24.7280  -28.8870   20.1380 C   0  0  0  0  0  0  0  0  0  0  0  0
  -25.8370  -30.7420   21.3770 C   0  0  0  0  0  2  0  0  0  0  0  0
  -25.9040  -29.3560   20.7390 C   0  0  0  0  0  0  0  0  0  0  0  0
  -27.0840  -28.5430   20.7370 C   0  0  0  0  0  3  0  0  0  0  0  0
  -25.8910  -26.8460   19.4890 C   0  0  0  0  0  3  0  0  0  0  0  0
  -24.7270  -27.6370   19.5010 C   0  0  0  0  0  3  0  0  0  0  0  0
  -23.4980  -29.7680   20.1930 C   0  0  0  0  0  2  0  0  0  0  0  0
  -24.5700  -31.0350   22.1040 N   0  0  0  0  0  0  0  0  0  0  0  0
  -23.4440  -32.1420   23.7420 O   0  0  0  0  0  0  0  0  0  0  0  0
  -22.6310  -29.4520   22.5460 C   0  0  0  0  0  0  0  0  0  0  0  0
  -21.3030  -29.2770   22.4220 N   0  0  0  0  0  0  0  0  0  0  0  0
  -23.3060  -28.8400   23.3750 O   0  0  0  0  0  0  0  0  0  0  0  0
  -20.8190  -29.8250   21.7270 H   0  0  0  0  0  0  0  0  0  0  0  0
  -17.9250  -28.0820   22.9350 C   0  0  0  0  0  0  0  0  0  0  0  0
  -20.4840  -28.3470   23.2000 C   0  0  0  0  0  3  0  0  0  0  0  0
  -20.5860  -26.9100   22.6380 C   0  0  0  0  0  2  0  0  0  0  0  0
  -19.4830  -26.5770   21.6280 C   0  0  0  0  0  2  0  0  0  0  0  0
  -18.1010  -26.7260   22.2700 C   0  0  0  0  0  2  0  0  0  0  0  0
  -19.0430  -28.8490   23.3560 C   0  0  0  0  0  0  0  0  0  0  0  0
  -18.8240  -30.1170   23.9400 C   0  0  0  0  0  3  0  0  0  0  0  0
  -17.5170  -30.6170   24.1030 C   0  0  0  0  0  3  0  0  0  0  0  0
  -16.4140  -29.8490   23.6920 C   0  0  0  0  0  3  0  0  0  0  0  0
  -16.6190  -28.5820   23.1190 C   0  0  0  0  0  3  0  0  0  0  0  0
  -25.8140  -32.4740   23.8150 C   0  0  0  0  0  3  0  0  0  0  0  0
  -25.5150  -33.8730   24.1540 N   0  0  0  0  0  0  0  0  0  0  0  0
  -25.8300  -34.9280   23.3920 C   0  0  0  0  0  0  0  0  0  0  0  0
  -26.4700  -34.8270   22.3420 O   0  0  0  0  0  0  0  0  0  0  0  0
  -24.9500  -34.0310   24.9740 H   0  0  0  0  0  0  0  0  0  0  0  0
  -24.0940  -36.7200   23.0940 C   0  0  0  0  0  1  0  0  0  0  0  0
  -25.3580  -36.3150   23.8680 C   0  0  0  0  0  3  0  0  0  0  0  0
  -27.5140  -37.1970   24.6450 C   0  0  0  0  0  1  0  0  0  0  0  0
  -26.3880  -37.3680   23.7310 N   0  0  0  0  0  0  0  0  0  0  0  0
  -25.9840  -38.2880   23.8840 H   0  0  0  0  0  0  0  0  0  0  0  0
  -26.3370  -31.6990   25.0840 C   0  0  1  0  0  0  0  0  0  0  0  0
  -25.2500  -31.4710   26.1600 C   0  0  0  0  0  1  0  0  0  0  0  0
  -26.9090  -30.3190   24.6860 C   0  0  0  0  0  1  0  0  0  0  0  0
  -27.4970  -32.4830   25.7380 C   0  0  0  0  0  1  0  0  0  0  0  0
  1  5  2  0
  1  4  1  0
  2  6  1  0
  3  6  2  0
  4  2  2  0
  5  3  1  0
  6  7  1  0
  8  4  1  0
  9  8  1  0
  9 13  1  0
 10  9  1  0
 11  9  1  0
 13 12  1  0
 14 13  1  0
 15 14  1  0
 16 21  1  0
 17 18  1  0
 17 16  1  0
 19 18  1  0
 19 26  1  0
 19 20  1  0
 21 15  1  0
 21 20  1  0
 22 15  2  0
 23 24  2  0
 24 43  1  0
 25 24  1  0
 25 28  1  0
 26 27  1  0
 26 23  1  0
 27 25  2  0
 28 29  1  0
 29 30  2  0
 31 34  1  0
 31 30  1  0
 32 31  2  0
 33 32  1  0
 33 28  2  0
 34 35  1  0
 35 36  1  0
 36 37  2  0
 38 37  1  0
 38 42  1  0
 39 38  2  0
 40 35  2  0
 40 39  1  0
 41 40  1  0
 43 44  1  0
 44 47  1  0
 44 46  1  0
 45 43  2  0
 48 49  1  0
 48 23  1  0
 50 48  1  0
 51 52  1  0
 51  5  1  0
 53 64  2  0
 54 52  1  0
 54 59  1  0
 55 63  1  0
 55 65  1  0
 56 62  1  0
 56 58  1  0
 57 63  1  0
 58 57  1  0
 59 58  2  0
 60 61  1  0
 60 54  2  0
 61 56  2  0
 62 55  1  0
 63 53  1  0
 65 67  2  0
 66 65  1  0
 68 66  1  0
 69 78  2  0
 69 74  1  0
 70 66  1  0
 70 74  1  0
 71 70  1  0
 72 73  1  0
 72 71  1  0
 73 69  1  0
 74 75  2  0
 75 76  1  0
 77 76  2  0
 78 77  1  0
 79 53  1  0
 79 80  1  0
 79 89  1  0
 80 83  1  0
 81 85  1  0
 81 80  1  0
 82 81  2  0
 85 84  1  0
 87 85  1  0
 87 88  1  0
 87 86  1  0
 89 92  1  1
 89 90  1  0
 91 89  1  0
M  ISO  4  14 100  15 100  51 101  52 101
M  END
>  <TORSDO>  (27) 
F 21

>  <SCORE>  (27) 
-12.707

>  <name>  (27) 
27

>  <ligand_id>  (27) 
27

>  <original_smiles>  (27) 
[H]c1c([H])c([H])c2c(c1[H])C([H])([H])C([H])([H])C([H])([H])C2([H])N([H])C(=O)C1([H])N(C(=O)C([H])(N([H])C(=O)C([H])(N([H])C([H])([H])[H])C([H])([H])[H])C(C([H])([H])[H])(C([H])([H])[H])C([H])([H])[H])C([H])([H])c2c([H])c(OC([H])([H])c3c([H])c(F)c([H])c(C([H])([H])[N+]([H])([H])C([H])(C([H])([H])[H])C([H])([H])C(=O)N4C([H])([H])C([H])([H])C([H])([H])C([H])(n5nc(-c6c([H])c([H])c(Oc7c([H])c([H])c(F)c([H])c7F)c([H])c6[H])c(C(=O)N([H])[H])c5N([H])[H])C4([H])[H])c3[H])c([H])c([H])c2C1([H])[H]

>  <smiles>  (27) 
[H]c1c([H])c([H])c2c(c1[H])C([H])([H])C([H])([H])C([H])([H])C2([H])N([H])C(=O)C1([H])N(C(=O)C([H])(N([H])C(=O)C([H])(N([H])C([H])([H])[H])C([H])([H])[H])C(C([H])([H])[H])(C([H])([H])[H])C([H])([H])[H])C([H])([H])c2c([H])c(OC([H])([H])c3c([H])c(F)c([H])c(C([H])([H])[N+]([H])([H])C([H])(C([H])([H])[H])C([H])([H])C(=O)N4C([H])([H])C([H])([H])C([H])([H])C([H])(n5nc(-c6c([H])c([H])c(Oc7c([H])c([H])c(F)c([H])c7F)c([H])c6[H])c(C(=O)N([H])[H])c5N([H])[H])C4([H])[H])c3[H])c([H])c([H])c2C1([H])[H]

$$$$
28:0:0
     RDKit          3D

 97106  0  0  1  0  0  0  0  0999 V2000
  -29.2490  -23.2430   21.6100 C   0  0  0  0  0  0  0  0  0  0  0  0
  -28.9110  -22.9980   20.2570 C   0  0  0  0  0  0  0  0  0  0  0  0
  -28.9890  -24.4970   22.2190 C   0  0  0  0  0  0  0  0  0  0  0  0
  -28.4550  -24.1650   19.4920 C   0  0  0  0  0  0  0  0  0  0  0  0
  -28.6790  -25.6410   21.4330 C   0  0  0  0  0  0  0  0  0  0  0  0
  -28.3830  -25.5200   20.0470 C   0  0  0  0  0  0  0  0  0  0  0  0
  -30.0040  -22.1520   22.3810 C   0  0  0  0  0  2  0  0  0  0  0  0
  -31.0640  -21.3990   21.5280 C   0  0  0  0  0  2  0  0  0  0  0  0
  -30.7770  -21.3510   20.0070 C   0  0  0  0  0  2  0  0  0  0  0  0
  -29.2810  -21.5230   19.7160 C   0  0  0  0  0  3  0  0  0  0  0  0
  -29.0600  -24.6090   23.7410 C   0  0  0  0  0  1  0  0  0  0  0  0
  -28.0980  -23.9810   18.0260 C   0  0  0  0  0  1  0  0  0  0  0  0
  -28.7650  -27.0180   22.0890 C   0  0  0  0  0  1  0  0  0  0  0  0
  -28.5810  -20.2980   20.3260 N   0  0  0  0  0  4  0  0  0  0  0  0
  -27.6000  -20.4910   20.1910 H   0  0  0  0  0  0  0  0  0  0  0  0
  -28.7220  -20.3190   21.3220 H   0  0  0  0  0  0  0  0  0  0  0  0
  -28.7750  -18.8420   19.8190 C   0  0  0  0  0  3  0  0  0  0  0  0
  -29.5350  -17.7210   20.7270 C   0  0  0  0  0  3  0  0  0  0  0  0
  -30.3470  -15.1810   20.2180 C   0  0  0  0  0  0  0  0  0  0  0  0
  -30.3190  -12.8950   19.1910 C   0  0  0  0  0  2  0  0  0  0  0  0
  -29.3320  -12.8920   18.0010 C   0  0  0  0  0  2  0  0  0  0  0  0
  -27.8840  -12.6390   18.4740 C   0  0  0  0  0  2  0  0  0  0  0  0
  -27.4970  -13.5030   19.7030 C   0  0  0  0  0  3  0  0  0  0  0  0
  -28.5900  -13.4540   20.7890 C   0  0  0  0  0  2  0  0  0  0  0  0
  -29.8370  -13.9030   20.1600 N   0  0  0  0  0  0  0  0  0  0  0  0
  -31.5270  -15.3900   19.9130 O   0  0  0  0  0  0  0  0  0  0  0  0
  -29.4380  -16.2130   20.4270 N   0  0  0  0  0  0  0  0  0  0  0  0
  -28.5030  -15.8540   20.5540 H   0  0  0  0  0  0  0  0  0  0  0  0
  -25.1230  -13.9900   20.5400 C   0  0  0  0  0  0  0  0  0  0  0  0
  -24.1000  -13.1690   20.9280 C   0  0  0  0  0  0  0  0  0  0  0  0
  -24.6090  -11.8370   20.8440 C   0  0  0  0  0  0  0  0  0  0  0  0
  -26.1860  -13.1530   20.2370 N   0  0  0  0  0  0  0  0  0  0  0  0
  -25.8880  -11.8530   20.4850 N   0  0  0  0  0  0  0  0  0  0  0  0
  -23.9380  -10.5450   21.0250 C   0  0  0  0  0  0  0  0  0  0  0  0
  -24.3920   -9.6010   21.9720 C   0  0  0  0  0  3  0  0  0  0  0  0
  -23.7190   -8.3720   22.1390 C   0  0  0  0  0  3  0  0  0  0  0  0
  -22.5760   -8.0780   21.3570 C   0  0  0  0  0  0  0  0  0  0  0  0
  -22.1410   -9.0100   20.3990 C   0  0  0  0  0  3  0  0  0  0  0  0
  -22.8170  -10.2320   20.2310 C   0  0  0  0  0  3  0  0  0  0  0  0
  -21.8730   -6.9010   21.4330 O   0  0  0  0  0  0  0  0  0  0  0  0
  -21.7880   -6.1860   22.6000 C   0  0  0  0  0  0  0  0  0  0  0  0
  -21.1820   -6.7190   23.7570 C   0  0  0  0  0  3  0  0  0  0  0  0
  -21.0530   -5.9250   24.9150 C   0  0  0  0  0  3  0  0  0  0  0  0
  -21.5240   -4.5990   24.9150 C   0  0  0  0  0  0  0  0  0  0  0  0
  -22.1240   -4.0640   23.7620 C   0  0  0  0  0  3  0  0  0  0  0  0
  -22.2520   -4.8540   22.6060 C   0  0  0  0  0  0  0  0  0  0  0  0
  -22.8130   -4.3290   21.4910 F   0  0  0  0  0  0  0  0  0  0  0  0
  -21.3940   -3.8330   26.0240 F   0  0  0  0  0  0  0  0  0  0  0  0
  -22.6970  -13.5890   21.2600 C   0  0  0  0  0  0  0  0  0  0  0  0
  -22.0220  -12.8450   22.1290 N   0  0  0  0  0  0  0  0  0  0  0  0
  -22.2050  -14.6080   20.7790 O   0  0  0  0  0  0  0  0  0  0  0  0
  -22.4340  -12.0230   22.5460 H   0  0  0  0  0  0  0  0  0  0  0  0
  -21.0800  -13.1040   22.3840 H   0  0  0  0  0  0  0  0  0  0  0  0
  -25.2320  -15.3710   20.3930 N   0  0  0  0  0  0  0  0  0  0  0  0
  -24.4350  -15.9860   20.5220 H   0  0  0  0  0  0  0  0  0  0  0  0
  -26.0280  -15.8390   19.9810 H   0  0  0  0  0  0  0  0  0  0  0  0
  -28.1600  -26.7140   19.2760 O   0  0  0  0  0  0  0  0  0  0  0  0
  -24.5830  -31.7940   23.0610 C   0  0  0  0  0  0  0  0  0  0  0  0
  -27.0350  -27.5560   19.4360 C   0  0  0  0  0  0  0  0  0  0  0  0
  -23.2780  -30.4960   21.4170 C   0  0  0  0  0  3  0  0  0  0  0  0
  -24.6420  -29.1050   19.7520 C   0  0  0  0  0  0  0  0  0  0  0  0
  -25.7810  -30.9090   21.0430 C   0  0  0  0  0  2  0  0  0  0  0  0
  -25.8450  -29.5840   20.2850 C   0  0  0  0  0  0  0  0  0  0  0  0
  -27.0440  -28.8270   20.1040 C   0  0  0  0  0  3  0  0  0  0  0  0
  -25.8080  -27.1390   18.8850 C   0  0  0  0  0  3  0  0  0  0  0  0
  -24.6270  -27.8950   19.0370 C   0  0  0  0  0  3  0  0  0  0  0  0
  -23.3920  -29.9350   19.9730 C   0  0  0  0  0  2  0  0  0  0  0  0
  -24.5710  -31.0820   21.8980 N   0  0  0  0  0  0  0  0  0  0  0  0
  -23.5450  -31.9910   23.7110 O   0  0  0  0  0  0  0  0  0  0  0  0
  -22.7260  -29.3860   22.3430 C   0  0  0  0  0  0  0  0  0  0  0  0
  -21.4090  -29.1270   22.2630 N   0  0  0  0  0  0  0  0  0  0  0  0
  -23.4810  -28.7630   23.0920 O   0  0  0  0  0  0  0  0  0  0  0  0
  -20.8530  -29.6880   21.6310 H   0  0  0  0  0  0  0  0  0  0  0  0
  -18.1590  -27.6320   22.7890 C   0  0  0  0  0  0  0  0  0  0  0  0
  -20.6930  -28.0950   23.0140 C   0  0  0  0  0  3  0  0  0  0  0  0
  -20.8980  -26.7020   22.3750 C   0  0  0  0  0  2  0  0  0  0  0  0
  -19.8000  -26.3300   21.3710 C   0  0  0  0  0  2  0  0  0  0  0  0
  -18.4280  -26.3320   22.0500 C   0  0  0  0  0  2  0  0  0  0  0  0
  -19.2200  -28.4670   23.2280 C   0  0  0  0  0  0  0  0  0  0  0  0
  -18.9100  -29.6810   23.8780 C   0  0  0  0  0  3  0  0  0  0  0  0
  -17.5730  -30.0620   24.0950 C   0  0  0  0  0  3  0  0  0  0  0  0
  -16.5270  -29.2240   23.6710 C   0  0  0  0  0  3  0  0  0  0  0  0
  -16.8210  -28.0120   23.0230 C   0  0  0  0  0  3  0  0  0  0  0  0
  -25.8980  -32.4190   23.6250 C   0  0  0  0  0  3  0  0  0  0  0  0
  -26.5220  -31.5850   24.8070 C   0  0  1  0  0  0  0  0  0  0  0  0
  -25.5150  -31.2630   25.9360 C   0  0  0  0  0  1  0  0  0  0  0  0
  -27.0990  -30.2470   24.2900 C   0  0  0  0  0  1  0  0  0  0  0  0
  -27.7040  -32.3610   25.4350 C   0  0  0  0  0  1  0  0  0  0  0  0
  -25.5880  -33.7860   24.0670 N   0  0  0  0  0  0  0  0  0  0  0  0
  -25.8440  -34.8920   23.3580 C   0  0  0  0  0  0  0  0  0  0  0  0
  -26.4400  -34.8710   22.2780 O   0  0  0  0  0  0  0  0  0  0  0  0
  -25.0540  -33.8740   24.9180 H   0  0  0  0  0  0  0  0  0  0  0  0
  -24.0790  -36.6790   23.2280 C   0  0  0  0  0  1  0  0  0  0  0  0
  -25.3660  -36.2350   23.9420 C   0  0  0  0  0  3  0  0  0  0  0  0
  -27.5250  -37.0990   24.7330 C   0  0  0  0  0  1  0  0  0  0  0  0
  -26.3780  -37.3110   23.8530 N   0  0  0  0  0  0  0  0  0  0  0  0
  -25.9670  -38.2120   24.0820 H   0  0  0  0  0  0  0  0  0  0  0  0
  1  3  1  0
  1  7  1  0
  2  1  2  0
  3 11  1  0
  4  6  2  0
  4  2  1  0
  5 13  1  0
  5  3  2  0
  6  5  1  0
  8  7  1  0
  9  8  1  0
 10  9  1  0
 10  2  1  0
 10 14  1  0
 12  4  1  0
 14 16  1  0
 15 14  1  0
 17 14  1  0
 17 18  2  0
 19 27  1  0
 20 25  1  0
 21 22  1  0
 21 20  1  0
 23 22  1  0
 23 32  1  0
 23 24  1  0
 25 19  1  0
 25 24  1  0
 26 19  2  0
 27 28  1  0
 27 18  1  0
 29 30  2  0
 30 49  1  0
 31 30  1  0
 31 34  1  0
 32 33  1  0
 32 29  1  0
 33 31  2  0
 34 35  1  0
 35 36  2  0
 37 40  1  0
 37 36  1  0
 38 37  2  0
 39 38  1  0
 39 34  2  0
 40 41  1  0
 41 46  2  0
 41 42  1  0
 42 43  2  0
 44 43  1  0
 44 48  1  0
 45 44  2  0
 46 45  1  0
 47 46  1  0
 49 50  1  0
 50 53  1  0
 50 52  1  0
 51 49  2  0
 54 55  1  0
 54 29  1  0
 56 54  1  0
 57 59  1  0
 57  6  1  0
 58 69  2  0
 59 64  1  0
 60 68  1  0
 60 70  1  0
 61 67  1  0
 61 63  1  0
 62 68  1  0
 63 62  1  0
 64 63  2  0
 65 66  1  0
 65 59  2  0
 66 61  2  0
 67 60  1  0
 68 58  1  0
 70 72  2  0
 71 70  1  0
 73 71  1  0
 74 83  2  0
 74 79  1  0
 75 71  1  0
 75 79  1  0
 76 75  1  0
 77 78  1  0
 77 76  1  0
 78 74  1  0
 79 80  2  0
 80 81  1  0
 82 81  2  0
 83 82  1  0
 84 58  1  0
 84 89  1  0
 84 85  1  0
 85 88  1  1
 85 86  1  0
 87 85  1  0
 89 92  1  0
 90 94  1  0
 90 89  1  0
 91 90  2  0
 94 93  1  0
 96 94  1  0
 96 97  1  0
 96 95  1  0
M  ISO  4   6 101  19 100  27 100  57 101
M  END
>  <TORSDO>  (28) 
F 19

>  <SCORE>  (28) 
-13.819

>  <name>  (28) 
28

>  <ligand_id>  (28) 
28

>  <original_smiles>  (28) 
[H]c1c([H])c([H])c2c(c1[H])C([H])([H])C([H])([H])C([H])([H])C2([H])N([H])C(=O)C1([H])N(C(=O)C([H])(N([H])C(=O)C([H])(N([H])C([H])([H])[H])C([H])([H])[H])C(C([H])([H])[H])(C([H])([H])[H])C([H])([H])[H])C([H])([H])c2c([H])c(Oc3c(C([H])([H])[H])c(C([H])([H])[H])c4c(c3C([H])([H])[H])C([H])([N+]([H])([H])C([H])([H])C([H])([H])N([H])C(=O)N3C([H])([H])C([H])([H])C([H])([H])C([H])(n5nc(-c6c([H])c([H])c(Oc7c([H])c([H])c(F)c([H])c7F)c([H])c6[H])c(C(=O)N([H])[H])c5N([H])[H])C3([H])[H])C([H])([H])C([H])([H])C4([H])[H])c([H])c([H])c2C1([H])[H]

>  <smiles>  (28) 
[H]c1c([H])c([H])c2c(c1[H])C([H])([H])C([H])([H])C([H])([H])C2([H])N([H])C(=O)C1([H])N(C(=O)C([H])(N([H])C(=O)C([H])(N([H])C([H])([H])[H])C([H])([H])[H])C(C([H])([H])[H])(C([H])([H])[H])C([H])([H])[H])C([H])([H])c2c([H])c(Oc3c(C([H])([H])[H])c(C([H])([H])[H])c4c(c3C([H])([H])[H])C([H])([N+]([H])([H])C([H])([H])C([H])([H])N([H])C(=O)N3C([H])([H])C([H])([H])C([H])([H])C([H])(n5nc(-c6c([H])c([H])c(Oc7c([H])c([H])c(F)c([H])c7F)c([H])c6[H])c(C(=O)N([H])[H])c5N([H])[H])C3([H])[H])C([H])([H])C([H])([H])C4([H])[H])c([H])c([H])c2C1([H])[H]

$$$$
29:0:0
     RDKit          3D

 93102  0  0  1  0  0  0  0  0999 V2000
  -27.3860  -22.0090   21.3500 C   0  0  0  0  0  3  0  0  0  0  0  0
  -27.7740  -23.3520   21.2120 C   0  0  0  0  0  3  0  0  0  0  0  0
  -28.0920  -20.9640   20.7170 C   0  0  0  0  0  0  0  0  0  0  0  0
  -29.2390  -21.1340   19.9200 C   0  0  0  0  0  0  0  0  0  0  0  0
  -28.9030  -23.7440   20.4620 C   0  0  0  0  0  0  0  0  0  0  0  0
  -29.6360  -22.5860   19.8040 C   0  0  0  0  0  0  0  0  0  0  0  0
  -27.5640  -19.5680   20.7650 C   0  0  0  0  0  3  0  0  0  0  0  0
  -28.3740  -18.7770   19.7400 C   0  0  0  0  0  3  0  0  0  0  0  0
  -29.5720  -19.6340   19.1860 C   0  0  1  0  0  0  0  0  0  0  0  0
  -30.8380  -22.9190   18.9390 C   0  0  0  0  0  1  0  0  0  0  0  0
  -28.3000  -20.7580   17.1360 C   0  0  0  0  0  1  0  0  0  0  0  0
  -29.3700  -19.7680   17.6420 C   0  0  0  0  0  2  0  0  0  0  0  0
  -29.3390  -25.3260   20.7840 C   0  0  0  0  0  2  0  0  0  0  0  0
  -28.9270  -26.7400   20.2380 O   0  0  0  0  0  0  0  0  0  0  0  0
  -24.8130  -32.0760   23.4770 C   0  0  0  0  0  0  0  0  0  0  0  0
  -27.7860  -27.6060   20.4300 C   0  0  0  0  0  0  0  0  0  0  0  0
  -23.7670  -30.6680   21.7450 C   0  0  0  0  0  3  0  0  0  0  0  0
  -25.3650  -29.2300   20.3380 C   0  0  0  0  0  0  0  0  0  0  0  0
  -26.3010  -31.0910   21.6940 C   0  0  0  0  0  2  0  0  0  0  0  0
  -26.4910  -29.7200   21.0160 C   0  0  0  0  0  0  0  0  0  0  0  0
  -27.7070  -28.9300   21.0360 C   0  0  0  0  0  3  0  0  0  0  0  0
  -26.6310  -27.2180   19.7290 C   0  0  0  0  0  3  0  0  0  0  0  0
  -25.4520  -27.9960   19.6740 C   0  0  0  0  0  3  0  0  0  0  0  0
  -24.0850  -30.0540   20.3540 C   0  0  0  0  0  2  0  0  0  0  0  0
  -24.9770  -31.3010   22.3630 N   0  0  0  0  0  0  0  0  0  0  0  0
  -23.6880  -32.2740   23.9650 O   0  0  0  0  0  0  0  0  0  0  0  0
  -23.1180  -29.5880   22.6470 C   0  0  0  0  0  0  0  0  0  0  0  0
  -21.8220  -29.2990   22.4310 N   0  0  0  0  0  0  0  0  0  0  0  0
  -23.7910  -29.0140   23.5060 O   0  0  0  0  0  0  0  0  0  0  0  0
  -21.3330  -29.8210   21.7170 H   0  0  0  0  0  0  0  0  0  0  0  0
  -18.5400  -27.7740   22.6670 C   0  0  0  0  0  0  0  0  0  0  0  0
  -21.0380  -28.2730   23.1210 C   0  0  0  0  0  3  0  0  0  0  0  0
  -21.3220  -26.8770   22.5250 C   0  0  0  0  0  2  0  0  0  0  0  0
  -20.3250  -26.4820   21.4320 C   0  0  0  0  0  2  0  0  0  0  0  0
  -18.8920  -26.4680   21.9770 C   0  0  0  0  0  2  0  0  0  0  0  0
  -19.5480  -28.6310   23.1870 C   0  0  0  0  0  0  0  0  0  0  0  0
  -19.1670  -29.8520   23.7860 C   0  0  0  0  0  3  0  0  0  0  0  0
  -17.8130  -30.2190   23.8650 C   0  0  0  0  0  3  0  0  0  0  0  0
  -16.8190  -29.3620   23.3600 C   0  0  0  0  0  3  0  0  0  0  0  0
  -17.1810  -28.1400   22.7680 C   0  0  0  0  0  3  0  0  0  0  0  0
  -26.0220  -32.7670   24.1770 C   0  0  0  0  0  3  0  0  0  0  0  0
  -26.4380  -32.0680   25.5280 C   0  0  1  0  0  0  0  0  0  0  0  0
  -25.2530  -31.8190   26.4890 C   0  0  0  0  0  1  0  0  0  0  0  0
  -27.1170  -30.7060   25.2580 C   0  0  0  0  0  1  0  0  0  0  0  0
  -27.4790  -32.9390   26.2690 C   0  0  0  0  0  1  0  0  0  0  0  0
  -25.6520  -34.1740   24.4190 N   0  0  0  0  0  0  0  0  0  0  0  0
  -26.0240  -35.2030   23.6460 C   0  0  0  0  0  0  0  0  0  0  0  0
  -26.7730  -35.0780   22.6750 O   0  0  0  0  0  0  0  0  0  0  0  0
  -24.9900  -34.3500   25.1590 H   0  0  0  0  0  0  0  0  0  0  0  0
  -24.2870  -36.9450   23.1020 C   0  0  0  0  0  1  0  0  0  0  0  0
  -25.4780  -36.6000   24.0120 C   0  0  0  0  0  3  0  0  0  0  0  0
  -27.5340  -37.5660   24.9460 C   0  0  0  0  0  1  0  0  0  0  0  0
  -26.4970  -37.6700   23.9230 N   0  0  0  0  0  0  0  0  0  0  0  0
  -26.0630  -38.5870   24.0050 H   0  0  0  0  0  0  0  0  0  0  0  0
  -30.8840  -18.5260   19.3620 C   0  0  0  0  0  2  0  0  0  0  0  0
  -31.5390  -15.7590   19.5760 C   0  0  0  0  0  0  0  0  0  0  0  0
  -31.5030  -13.2590   19.0610 C   0  0  0  0  0  2  0  0  0  0  0  0
  -30.5730  -12.9830   17.8570 C   0  0  0  0  0  2  0  0  0  0  0  0
  -29.1170  -12.8110   18.3320 C   0  0  0  0  0  2  0  0  0  0  0  0
  -28.6960  -13.9120   19.3370 C   0  0  0  0  0  3  0  0  0  0  0  0
  -29.7440  -14.1440   20.4390 C   0  0  0  0  0  2  0  0  0  0  0  0
  -30.9910  -14.4820   19.7500 N   0  0  0  0  0  0  0  0  0  0  0  0
  -32.7440  -15.8020   19.2950 O   0  0  0  0  0  0  0  0  0  0  0  0
  -30.7040  -16.9300   19.5340 N   0  0  0  0  0  0  0  0  0  0  0  0
  -29.7390  -16.6820   19.6750 H   0  0  0  0  0  0  0  0  0  0  0  0
  -26.4040  -14.6250   20.2170 C   0  0  0  0  0  0  0  0  0  0  0  0
  -25.3100  -13.9160   20.6190 C   0  0  0  0  0  0  0  0  0  0  0  0
  -25.6710  -12.5360   20.5080 C   0  0  0  0  0  0  0  0  0  0  0  0
  -27.3680  -13.6880   19.8910 N   0  0  0  0  0  0  0  0  0  0  0  0
  -26.9400  -12.4210   20.1280 N   0  0  0  0  0  0  0  0  0  0  0  0
  -24.8640  -11.3230   20.6780 C   0  0  0  0  0  0  0  0  0  0  0  0
  -25.1990  -10.3440   21.6350 C   0  0  0  0  0  3  0  0  0  0  0  0
  -24.3950   -9.1940   21.7960 C   0  0  0  0  0  3  0  0  0  0  0  0
  -23.2390   -9.0200   20.9950 C   0  0  0  0  0  0  0  0  0  0  0  0
  -22.9220   -9.9920   20.0270 C   0  0  0  0  0  3  0  0  0  0  0  0
  -23.7280  -11.1310   19.8670 C   0  0  0  0  0  3  0  0  0  0  0  0
  -22.4090   -7.9280   21.0640 O   0  0  0  0  0  0  0  0  0  0  0  0
  -22.1510   -7.2940   22.2540 C   0  0  0  0  0  0  0  0  0  0  0  0
  -21.5740   -7.9720   23.3490 C   0  0  0  0  0  3  0  0  0  0  0  0
  -21.2570   -7.2680   24.5290 C   0  0  0  0  0  3  0  0  0  0  0  0
  -21.5110   -5.8860   24.6140 C   0  0  0  0  0  0  0  0  0  0  0  0
  -22.0810   -5.2080   23.5220 C   0  0  0  0  0  3  0  0  0  0  0  0
  -22.3960   -5.9090   22.3450 C   0  0  0  0  0  0  0  0  0  0  0  0
  -22.9240   -5.2440   21.2890 F   0  0  0  0  0  0  0  0  0  0  0  0
  -21.2000   -5.2080   25.7420 F   0  0  0  0  0  0  0  0  0  0  0  0
  -23.9710  -14.4810   20.9920 C   0  0  0  0  0  0  0  0  0  0  0  0
  -23.2550  -13.8130   21.8890 N   0  0  0  0  0  0  0  0  0  0  0  0
  -23.5720  -15.5430   20.5170 O   0  0  0  0  0  0  0  0  0  0  0  0
  -23.6020  -12.9510   22.2860 H   0  0  0  0  0  0  0  0  0  0  0  0
  -22.3570  -14.1690   22.1850 H   0  0  0  0  0  0  0  0  0  0  0  0
  -26.6480  -15.9900   20.0770 N   0  0  0  0  0  0  0  0  0  0  0  0
  -25.9120  -16.6730   20.2090 H   0  0  0  0  0  0  0  0  0  0  0  0
  -27.4620  -16.3670   19.6140 H   0  0  0  0  0  0  0  0  0  0  0  0
  2  1  1  0
  3  7  1  0
  3  1  2  0
  4  3  1  0
  5 13  1  0
  5  2  2  0
  6  4  2  0
  6  5  1  0
  8  7  2  0
  9 12  1  6
  9 55  1  0
  9  8  1  0
  9  4  1  0
 10  6  1  0
 11 12  1  0
 14 16  1  0
 14 13  1  0
 15 26  2  0
 16 21  1  0
 17 25  1  0
 17 27  1  0
 18 24  1  0
 18 20  1  0
 19 25  1  0
 20 21  2  0
 20 19  1  0
 22 16  2  0
 23 22  1  0
 23 18  2  0
 24 17  1  0
 25 15  1  0
 27 29  2  0
 28 27  1  0
 30 28  1  0
 31 40  2  0
 31 36  1  0
 32 28  1  0
 32 36  1  0
 33 32  1  0
 34 35  1  0
 34 33  1  0
 35 31  1  0
 36 37  2  0
 37 38  1  0
 39 38  2  0
 40 39  1  0
 41 15  1  0
 41 46  1  0
 41 42  1  0
 42 45  1  1
 42 43  1  0
 44 42  1  0
 46 49  1  0
 47 51  1  0
 47 46  1  0
 48 47  2  0
 51 50  1  0
 53 54  1  0
 53 51  1  0
 53 52  1  0
 55 64  1  0
 56 62  1  0
 57 62  1  0
 58 59  1  0
 58 57  1  0
 60 59  1  0
 60 69  1  0
 60 61  1  0
 62 61  1  0
 63 56  2  0
 64 56  1  0
 64 65  1  0
 66 67  2  0
 67 86  1  0
 68 67  1  0
 68 71  1  0
 69 70  1  0
 69 66  1  0
 70 68  2  0
 71 72  1  0
 72 73  2  0
 74 77  1  0
 74 73  1  0
 75 74  2  0
 76 75  1  0
 76 71  2  0
 77 78  1  0
 78 83  2  0
 78 79  1  0
 79 80  2  0
 80 81  1  0
 81 85  1  0
 82 81  2  0
 83 82  1  0
 84 83  1  0
 86 87  1  0
 87 90  1  0
 87 89  1  0
 88 86  2  0
 91 92  1  0
 91 66  1  0
 93 91  1  0
M  ISO  4  13 101  14 101  56 100  64 100
M  END
>  <TORSDO>  (29) 
F 19

>  <SCORE>  (29) 
-11.661

>  <name>  (29) 
29

>  <ligand_id>  (29) 
29

>  <original_smiles>  (29) 
[H]c1c([H])c([H])c2c(c1[H])C([H])([H])C([H])([H])C([H])([H])C2([H])N([H])C(=O)C1([H])N(C(=O)C([H])(N([H])C(=O)C([H])(N([H])C([H])([H])[H])C([H])([H])[H])C(C([H])([H])[H])(C([H])([H])[H])C([H])([H])[H])C([H])([H])c2c([H])c(OC([H])([H])c3c([H])c([H])c4c(c3C([H])([H])[H])C(C([H])([H])N([H])C(=O)N3C([H])([H])C([H])([H])C([H])([H])C([H])(n5nc(-c6c([H])c([H])c(Oc7c([H])c([H])c(F)c([H])c7F)c([H])c6[H])c(C(=O)N([H])[H])c5N([H])[H])C3([H])[H])(C([H])([H])C([H])([H])[H])C([H])([H])C4([H])[H])c([H])c([H])c2C1([H])[H]

>  <smiles>  (29) 
[H]c1c([H])c([H])c2c(c1[H])C([H])([H])C([H])([H])C([H])([H])C2([H])N([H])C(=O)C1([H])N(C(=O)C([H])(N([H])C(=O)C([H])(N([H])C([H])([H])[H])C([H])([H])[H])C(C([H])([H])[H])(C([H])([H])[H])C([H])([H])[H])C([H])([H])c2c([H])c(OC([H])([H])c3c([H])c([H])c4c(c3C([H])([H])[H])C(C([H])([H])N([H])C(=O)N3C([H])([H])C([H])([H])C([H])([H])C([H])(n5nc(-c6c([H])c([H])c(Oc7c([H])c([H])c(F)c([H])c7F)c([H])c6[H])c(C(=O)N([H])[H])c5N([H])[H])C3([H])[H])(C([H])([H])C([H])([H])[H])C([H])([H])C4([H])[H])c([H])c([H])c2C1([H])[H]

$$$$
30:0:0
     RDKit          3D

 91 99  0  0  1  0  0  0  0  0999 V2000
  -30.5640  -24.1310   21.8550 C   0  0  0  0  0  2  0  0  0  0  0  0
  -30.3740  -22.8700   21.0000 C   0  0  0  0  0  2  0  0  0  0  0  0
  -30.0550  -25.3990   21.1540 C   0  0  0  0  0  2  0  0  0  0  0  0
  -28.3330  -23.9500   19.9440 C   0  0  0  0  0  2  0  0  0  0  0  0
  -28.8910  -22.6180   20.6520 C   0  0  0  0  0  3  0  0  0  0  0  0
  -28.5720  -25.3220   20.7280 C   0  0  0  0  0  3  0  0  0  0  0  0
  -27.2070  -20.9100   19.6800 C   0  0  0  0  0  1  0  0  0  0  0  0
  -28.7080  -21.2020   19.9050 C   0  0  0  0  0  3  0  0  0  0  0  0
  -29.3910  -20.0050   20.5710 N   0  0  0  0  0  4  0  0  0  0  0  0
  -30.3830  -20.1850   20.5690 H   0  0  0  0  0  0  0  0  0  0  0  0
  -29.1020  -19.9830   21.5380 H   0  0  0  0  0  0  0  0  0  0  0  0
  -29.1760  -18.6010   20.0170 C   0  0  0  0  0  2  0  0  0  0  0  0
  -30.2510  -17.4630   20.3690 C   0  0  0  0  0  2  0  0  0  0  0  0
  -29.7170  -15.9860   20.6890 C   0  0  0  0  0  2  0  0  0  0  0  0
  -30.5690  -14.6890   20.3380 C   0  0  0  0  0  0  0  0  0  0  0  0
  -30.3700  -12.4210   19.3190 C   0  0  0  0  0  2  0  0  0  0  0  0
  -29.4200  -12.5190   18.1040 C   0  0  0  0  0  2  0  0  0  0  0  0
  -27.9500  -12.3600   18.5410 C   0  0  0  0  0  2  0  0  0  0  0  0
  -27.5910  -13.2610   19.7510 C   0  0  0  0  0  3  0  0  0  0  0  0
  -28.6510  -13.1480   20.8690 C   0  0  0  0  0  2  0  0  0  0  0  0
  -29.9640  -13.4580   20.2890 N   0  0  0  0  0  0  0  0  0  0  0  0
  -31.7370  -14.8220   19.9610 O   0  0  0  0  0  0  0  0  0  0  0  0
  -25.2100  -13.8970   20.4800 C   0  0  0  0  0  0  0  0  0  0  0  0
  -24.1370  -13.1400   20.8600 C   0  0  0  0  0  0  0  0  0  0  0  0
  -24.5850  -11.7830   20.8430 C   0  0  0  0  0  0  0  0  0  0  0  0
  -26.2440  -13.0010   20.2490 N   0  0  0  0  0  0  0  0  0  0  0  0
  -25.8740  -11.7280   20.5310 N   0  0  0  0  0  0  0  0  0  0  0  0
  -23.8480  -10.5320   21.0440 C   0  0  0  0  0  0  0  0  0  0  0  0
  -24.2910   -9.5550   21.9630 C   0  0  0  0  0  3  0  0  0  0  0  0
  -23.5540   -8.3660   22.1540 C   0  0  0  0  0  3  0  0  0  0  0  0
  -22.3610   -8.1460   21.4260 C   0  0  0  0  0  0  0  0  0  0  0  0
  -21.9370   -9.1120   20.4950 C   0  0  0  0  0  3  0  0  0  0  0  0
  -22.6720  -10.2930   20.3020 C   0  0  0  0  0  3  0  0  0  0  0  0
  -21.5940   -7.0090   21.5260 O   0  0  0  0  0  0  0  0  0  0  0  0
  -21.5840   -6.2490   22.6680 C   0  0  0  0  0  0  0  0  0  0  0  0
  -21.2390   -6.7930   23.9240 C   0  0  0  0  0  3  0  0  0  0  0  0
  -21.1730   -5.9590   25.0580 C   0  0  0  0  0  3  0  0  0  0  0  0
  -21.4410   -4.5820   24.9360 C   0  0  0  0  0  0  0  0  0  0  0  0
  -21.7790   -4.0370   23.6860 C   0  0  0  0  0  3  0  0  0  0  0  0
  -21.8470   -4.8680   22.5530 C   0  0  0  0  0  0  0  0  0  0  0  0
  -22.1520   -4.3360   21.3460 F   0  0  0  0  0  0  0  0  0  0  0  0
  -21.3720   -3.7780   26.0230 F   0  0  0  0  0  0  0  0  0  0  0  0
  -22.7460  -13.6340   21.1300 C   0  0  0  0  0  0  0  0  0  0  0  0
  -22.0150  -12.9560   22.0080 N   0  0  0  0  0  0  0  0  0  0  0  0
  -22.3160  -14.6600   20.6010 O   0  0  0  0  0  0  0  0  0  0  0  0
  -22.3780  -12.1270   22.4570 H   0  0  0  0  0  0  0  0  0  0  0  0
  -21.0810  -13.2670   22.2330 H   0  0  0  0  0  0  0  0  0  0  0  0
  -25.3880  -15.2640   20.2880 N   0  0  0  0  0  0  0  0  0  0  0  0
  -24.6190  -15.9170   20.3830 H   0  0  0  0  0  0  0  0  0  0  0  0
  -26.2290  -15.6930   19.9250 H   0  0  0  0  0  0  0  0  0  0  0  0
  -28.3990  -26.6040   20.0300 O   0  0  0  0  0  0  0  0  0  0  0  0
  -24.6010  -31.8790   23.1910 C   0  0  0  0  0  0  0  0  0  0  0  0
  -27.2320  -27.3550   20.1370 C   0  0  0  0  0  0  0  0  0  0  0  0
  -23.3980  -30.4780   21.5490 C   0  0  0  0  0  3  0  0  0  0  0  0
  -24.8490  -28.9220   20.1330 C   0  0  0  0  0  0  0  0  0  0  0  0
  -25.9300  -30.8130   21.3550 C   0  0  0  0  0  2  0  0  0  0  0  0
  -26.0150  -29.4320   20.7220 C   0  0  0  0  0  0  0  0  0  0  0  0
  -27.2110  -28.6620   20.7080 C   0  0  0  0  0  3  0  0  0  0  0  0
  -26.0460  -26.8740   19.5500 C   0  0  0  0  0  3  0  0  0  0  0  0
  -24.8630  -27.6450   19.5440 C   0  0  0  0  0  3  0  0  0  0  0  0
  -23.6130  -29.7980   20.1700 C   0  0  0  0  0  2  0  0  0  0  0  0
  -24.6610  -31.0730   22.0910 N   0  0  0  0  0  0  0  0  0  0  0  0
  -23.5180  -32.1500   23.7310 O   0  0  0  0  0  0  0  0  0  0  0  0
  -22.7450  -29.4590   22.5130 C   0  0  0  0  0  0  0  0  0  0  0  0
  -21.4150  -29.2890   22.4010 N   0  0  0  0  0  0  0  0  0  0  0  0
  -23.4300  -28.8240   23.3180 O   0  0  0  0  0  0  0  0  0  0  0  0
  -20.9200  -29.8550   21.7270 H   0  0  0  0  0  0  0  0  0  0  0  0
  -18.0410  -28.1080   22.9260 C   0  0  0  0  0  0  0  0  0  0  0  0
  -20.6020  -28.3490   23.1740 C   0  0  0  0  0  3  0  0  0  0  0  0
  -20.6930  -26.9200   22.5900 C   0  0  0  0  0  2  0  0  0  0  0  0
  -19.5810  -26.6090   21.5860 C   0  0  0  0  0  2  0  0  0  0  0  0
  -18.2050  -26.7600   22.2410 C   0  0  0  0  0  2  0  0  0  0  0  0
  -19.1670  -28.8590   23.3500 C   0  0  0  0  0  0  0  0  0  0  0  0
  -18.9620  -30.1220   23.9480 C   0  0  0  0  0  3  0  0  0  0  0  0
  -17.6600  -30.6280   24.1300 C   0  0  0  0  0  3  0  0  0  0  0  0
  -16.5480  -29.8730   23.7220 C   0  0  0  0  0  3  0  0  0  0  0  0
  -16.7380  -28.6150   23.1220 C   0  0  0  0  0  3  0  0  0  0  0  0
  -25.8850  -32.5150   23.8090 C   0  0  0  0  0  3  0  0  0  0  0  0
  -25.5720  -33.9070   24.1560 N   0  0  0  0  0  0  0  0  0  0  0  0
  -25.8900  -34.9700   23.4040 C   0  0  0  0  0  0  0  0  0  0  0  0
  -26.5480  -34.8820   22.3650 O   0  0  0  0  0  0  0  0  0  0  0  0
  -24.9880  -34.0510   24.9650 H   0  0  0  0  0  0  0  0  0  0  0  0
  -24.1430  -36.7500   23.0940 C   0  0  0  0  0  1  0  0  0  0  0  0
  -25.3970  -36.3480   23.8840 C   0  0  0  0  0  3  0  0  0  0  0  0
  -27.5420  -37.2400   24.6810 C   0  0  0  0  0  1  0  0  0  0  0  0
  -26.4180  -37.4120   23.7650 N   0  0  0  0  0  0  0  0  0  0  0  0
  -26.0060  -38.3260   23.9390 H   0  0  0  0  0  0  0  0  0  0  0  0
  -26.4130  -31.7330   25.0720 C   0  0  1  0  0  0  0  0  0  0  0  0
  -25.3330  -31.4850   26.1500 C   0  0  0  0  0  1  0  0  0  0  0  0
  -26.9990  -30.3650   24.6570 C   0  0  0  0  0  1  0  0  0  0  0  0
  -27.5670  -32.5250   25.7320 C   0  0  0  0  0  1  0  0  0  0  0  0
  2  1  1  0
  3  1  1  0
  4  5  1  0
  4  6  1  0
  5  8  1  0
  5  2  1  0
  6 51  1  0
  6  3  1  0
  8  7  1  0
  8  9  1  0
  9 11  1  0
 10  9  1  0
 12 13  1  0
 12  9  1  0
 13 14  1  0
 15 14  1  0
 16 21  1  0
 17 18  1  0
 17 16  1  0
 19 18  1  0
 19 26  1  0
 19 20  1  0
 21 15  1  0
 21 20  1  0
 22 15  2  0
 23 24  2  0
 24 43  1  0
 25 24  1  0
 25 28  1  0
 26 23  1  0
 26 27  1  0
 27 25  2  0
 28 29  1  0
 29 30  2  0
 31 34  1  0
 31 30  1  0
 32 31  2  0
 33 32  1  0
 33 28  2  0
 34 35  1  0
 35 36  1  0
 36 37  2  0
 38 37  1  0
 38 42  1  0
 39 38  2  0
 40 35  2  0
 40 39  1  0
 41 40  1  0
 43 44  1  0
 44 47  1  0
 44 46  1  0
 45 43  2  0
 48 49  1  0
 48 23  1  0
 50 48  1  0
 51 53  1  0
 52 63  2  0
 53 58  1  0
 54 62  1  0
 54 64  1  0
 55 61  1  0
 55 57  1  0
 56 62  1  0
 57 56  1  0
 58 57  2  0
 59 53  2  0
 60 59  1  0
 60 55  2  0
 61 54  1  0
 62 52  1  0
 64 66  2  0
 65 64  1  0
 67 65  1  0
 68 77  2  0
 68 73  1  0
 69 65  1  0
 69 73  1  0
 70 69  1  0
 71 72  1  0
 71 70  1  0
 72 68  1  0
 73 74  2  0
 74 75  1  0
 76 75  2  0
 77 76  1  0
 78 52  1  0
 78 79  1  0
 78 88  1  0
 79 82  1  0
 80 84  1  0
 80 79  1  0
 81 80  2  0
 84 83  1  0
 86 84  1  0
 86 87  1  0
 86 85  1  0
 88 91  1  1
 88 89  1  0
 90 88  1  0
M  ISO  4   6 101  14 100  15 100  51 101
M  END
>  <TORSDO>  (30) 
F 21

>  <SCORE>  (30) 
-13.135

>  <name>  (30) 
30

>  <ligand_id>  (30) 
30

>  <original_smiles>  (30) 
[H]c1c([H])c([H])c2c(c1[H])C([H])([H])C([H])([H])C([H])([H])C2([H])N([H])C(=O)C1([H])N(C(=O)C([H])(N([H])C(=O)C([H])(N([H])C([H])([H])[H])C([H])([H])[H])C(C([H])([H])[H])(C([H])([H])[H])C([H])([H])[H])C([H])([H])c2c([H])c(OC3([H])C([H])([H])C([H])([H])C([H])([H])C([H])(C([H])(C([H])([H])[H])[N+]([H])([H])C([H])([H])C([H])([H])C([H])([H])C(=O)N4C([H])([H])C([H])([H])C([H])([H])C([H])(n5nc(-c6c([H])c([H])c(Oc7c([H])c([H])c(F)c([H])c7F)c([H])c6[H])c(C(=O)N([H])[H])c5N([H])[H])C4([H])[H])C3([H])[H])c([H])c([H])c2C1([H])[H]

>  <smiles>  (30) 
[H]c1c([H])c([H])c2c(c1[H])C([H])([H])C([H])([H])C([H])([H])C2([H])N([H])C(=O)C1([H])N(C(=O)C([H])(N([H])C(=O)C([H])(N([H])C([H])([H])[H])C([H])([H])[H])C(C([H])([H])[H])(C([H])([H])[H])C([H])([H])[H])C([H])([H])c2c([H])c(OC3([H])C([H])([H])C([H])([H])C([H])([H])C([H])(C([H])(C([H])([H])[H])[N+]([H])([H])C([H])([H])C([H])([H])C([H])([H])C(=O)N4C([H])([H])C([H])([H])C([H])([H])C([H])(n5nc(-c6c([H])c([H])c(Oc7c([H])c([H])c(F)c([H])c7F)c([H])c6[H])c(C(=O)N([H])[H])c5N([H])[H])C4([H])[H])C3([H])[H])c([H])c([H])c2C1([H])[H]

$$$$
31:0:0
     RDKit          3D

 95104  0  0  1  0  0  0  0  0999 V2000
  -26.2280  -21.4270   20.0880 C   0  0  0  0  0  2  0  0  0  0  0  0
  -27.7470  -19.4430   19.3800 C   0  0  0  0  0  3  0  0  0  0  0  0
  -29.0090  -18.8520   19.7030 C   0  0  0  0  0  0  0  0  0  0  0  0
  -29.7110  -19.6020   20.6020 C   0  0  0  0  0  0  0  0  0  0  0  0
  -27.4720  -20.5860   20.0930 C   0  0  0  0  0  0  0  0  0  0  0  0
  -29.5070  -17.5330   19.1750 C   0  0  0  0  0  2  0  0  0  0  0  0
  -31.0550  -19.2560   21.1350 C   0  0  0  0  0  2  0  0  0  0  0  0
  -31.3110  -17.7400   21.0600 C   0  0  0  0  0  2  0  0  0  0  0  0
  -30.9010  -17.0810   19.7050 C   0  0  0  0  0  3  0  0  0  0  0  0
  -28.8070  -20.9900   21.1430 S   0  0  0  0  0  0  0  0  0  0  0  0
  -31.6090  -14.6160   19.3950 C   0  0  0  0  0  0  0  0  0  0  0  0
  -31.3900  -12.1790   18.9540 C   0  0  0  0  0  2  0  0  0  0  0  0
  -30.3700  -11.9580   17.8150 C   0  0  0  0  0  2  0  0  0  0  0  0
  -28.9170  -11.9860   18.3380 C   0  0  0  0  0  2  0  0  0  0  0  0
  -28.6420  -13.1910   19.2750 C   0  0  0  0  0  3  0  0  0  0  0  0
  -29.7390  -13.2530   20.3580 C   0  0  0  0  0  2  0  0  0  0  0  0
  -31.0290  -13.4150   19.6580 N   0  0  0  0  0  0  0  0  0  0  0  0
  -32.6350  -14.7540   18.7180 O   0  0  0  0  0  0  0  0  0  0  0  0
  -30.8730  -15.6330   19.8920 N   0  0  0  0  0  0  0  0  0  0  0  0
  -30.0380  -15.2960   20.3510 H   0  0  0  0  0  0  0  0  0  0  0  0
  -26.4680  -14.1750   20.2520 C   0  0  0  0  0  0  0  0  0  0  0  0
  -25.3100  -13.5810   20.6670 C   0  0  0  0  0  0  0  0  0  0  0  0
  -25.5120  -12.1740   20.5160 C   0  0  0  0  0  0  0  0  0  0  0  0
  -27.3060  -13.1400   19.8630 N   0  0  0  0  0  0  0  0  0  0  0  0
  -26.7350  -11.9290   20.0720 N   0  0  0  0  0  0  0  0  0  0  0  0
  -24.5980  -11.0450   20.7110 C   0  0  0  0  0  0  0  0  0  0  0  0
  -24.9430   -9.9410   21.5190 C   0  0  0  0  0  3  0  0  0  0  0  0
  -24.0350   -8.8770   21.7000 C   0  0  0  0  0  3  0  0  0  0  0  0
  -22.7680   -8.9120   21.0730 C   0  0  0  0  0  0  0  0  0  0  0  0
  -22.4380  -10.0060   20.2500 C   0  0  0  0  0  3  0  0  0  0  0  0
  -23.3470  -11.0620   20.0670 C   0  0  0  0  0  3  0  0  0  0  0  0
  -21.8300   -7.9140   21.1740 O   0  0  0  0  0  0  0  0  0  0  0  0
  -21.7620   -7.0970   22.2740 C   0  0  0  0  0  0  0  0  0  0  0  0
  -21.5510   -7.6150   23.5670 C   0  0  0  0  0  3  0  0  0  0  0  0
  -21.4260   -6.7410   24.6620 C   0  0  0  0  0  3  0  0  0  0  0  0
  -21.4950   -5.3480   24.4670 C   0  0  0  0  0  0  0  0  0  0  0  0
  -21.7000   -4.8300   23.1740 C   0  0  0  0  0  3  0  0  0  0  0  0
  -21.8320   -5.7030   22.0800 C   0  0  0  0  0  0  0  0  0  0  0  0
  -22.0110   -5.2000   20.8330 F   0  0  0  0  0  0  0  0  0  0  0  0
  -21.3630   -4.5040   25.5140 F   0  0  0  0  0  0  0  0  0  0  0  0
  -24.0520  -14.2730   21.1080 C   0  0  0  0  0  0  0  0  0  0  0  0
  -23.3190  -13.6860   22.0430 N   0  0  0  0  0  0  0  0  0  0  0  0
  -23.7350  -15.3730   20.6550 O   0  0  0  0  0  0  0  0  0  0  0  0
  -23.5760  -12.7900   22.4310 H   0  0  0  0  0  0  0  0  0  0  0  0
  -22.4830  -14.1390   22.3850 H   0  0  0  0  0  0  0  0  0  0  0  0
  -26.8930  -15.4980   20.1630 N   0  0  0  0  0  0  0  0  0  0  0  0
  -26.3900  -16.2500   20.6200 H   0  0  0  0  0  0  0  0  0  0  0  0
  -27.8620  -15.7310   19.9850 H   0  0  0  0  0  0  0  0  0  0  0  0
  -26.4960  -22.8080   20.5220 N   0  0  0  0  0  4  0  0  0  0  0  0
  -25.6130  -23.2280   20.7640 H   0  0  0  0  0  0  0  0  0  0  0  0
  -27.0620  -22.7640   21.3510 H   0  0  0  0  0  0  0  0  0  0  0  0
  -27.1630  -23.6570   19.5130 C   0  0  0  0  0  2  0  0  0  0  0  0
  -27.8730  -24.8630   20.1580 C   0  0  0  0  0  2  0  0  0  0  0  0
  -28.4270  -25.8350   19.0910 C   0  0  0  0  0  2  0  0  0  0  0  0
  -28.3410  -27.2050   19.4860 O   0  0  0  0  0  0  0  0  0  0  0  0
  -24.6020  -31.8360   23.3010 C   0  0  0  0  0  0  0  0  0  0  0  0
  -27.1230  -27.8460   19.5740 C   0  0  0  0  0  0  0  0  0  0  0  0
  -23.3140  -30.6220   21.5750 C   0  0  0  0  0  3  0  0  0  0  0  0
  -24.6940  -29.2740   19.8880 C   0  0  0  0  0  0  0  0  0  0  0  0
  -25.8220  -31.0240   21.2840 C   0  0  0  0  0  2  0  0  0  0  0  0
  -25.8710  -29.7410   20.4860 C   0  0  0  0  0  0  0  0  0  0  0  0
  -27.0770  -29.0260   20.3430 C   0  0  0  0  0  3  0  0  0  0  0  0
  -25.9370  -27.3980   18.9480 C   0  0  0  0  0  3  0  0  0  0  0  0
  -24.7230  -28.0960   19.1200 C   0  0  0  0  0  3  0  0  0  0  0  0
  -23.4360  -30.0880   20.1200 C   0  0  0  0  0  2  0  0  0  0  0  0
  -24.6020  -31.1660   22.1130 N   0  0  0  0  0  0  0  0  0  0  0  0
  -23.5520  -32.0350   23.9270 O   0  0  0  0  0  0  0  0  0  0  0  0
  -22.7160  -29.4990   22.4480 C   0  0  0  0  0  0  0  0  0  0  0  0
  -21.4000  -29.2830   22.3140 N   0  0  0  0  0  0  0  0  0  0  0  0
  -23.4330  -28.8190   23.1850 O   0  0  0  0  0  0  0  0  0  0  0  0
  -20.8920  -29.8730   21.6700 H   0  0  0  0  0  0  0  0  0  0  0  0
  -18.1160  -27.8230   22.6310 C   0  0  0  0  0  0  0  0  0  0  0  0
  -20.6350  -28.2490   23.0040 C   0  0  0  0  0  3  0  0  0  0  0  0
  -20.8620  -26.8660   22.3560 C   0  0  0  0  0  2  0  0  0  0  0  0
  -19.8180  -26.5170   21.2880 C   0  0  0  0  0  2  0  0  0  0  0  0
  -18.4140  -26.5220   21.9040 C   0  0  0  0  0  2  0  0  0  0  0  0
  -19.1610  -28.6390   23.1410 C   0  0  0  0  0  0  0  0  0  0  0  0
  -18.8330  -29.8530   23.7870 C   0  0  0  0  0  3  0  0  0  0  0  0
  -17.4900  -30.2460   23.9360 C   0  0  0  0  0  3  0  0  0  0  0  0
  -16.4580  -29.4210   23.4530 C   0  0  0  0  0  3  0  0  0  0  0  0
  -16.7720  -28.2160   22.7980 C   0  0  0  0  0  3  0  0  0  0  0  0
  -25.9150  -32.4110   23.9220 C   0  0  0  0  0  3  0  0  0  0  0  0
  -25.6520  -33.8030   24.3050 N   0  0  0  0  0  0  0  0  0  0  0  0
  -26.0350  -34.8740   23.5960 C   0  0  0  0  0  0  0  0  0  0  0  0
  -26.7200  -34.7870   22.5730 O   0  0  0  0  0  0  0  0  0  0  0  0
  -25.0440  -33.9430   25.0990 H   0  0  0  0  0  0  0  0  0  0  0  0
  -24.3800  -36.7400   23.2950 C   0  0  0  0  0  1  0  0  0  0  0  0
  -25.5960  -36.2600   24.1060 C   0  0  0  0  0  3  0  0  0  0  0  0
  -27.7490  -37.0250   24.9980 C   0  0  0  0  0  1  0  0  0  0  0  0
  -26.6710  -37.2760   24.0450 N   0  0  0  0  0  0  0  0  0  0  0  0
  -26.3030  -38.2080   24.2170 H   0  0  0  0  0  0  0  0  0  0  0  0
  -26.4250  -31.5770   25.1580 C   0  0  1  0  0  0  0  0  0  0  0  0
  -25.3520  -31.3400   26.2490 C   0  0  0  0  0  1  0  0  0  0  0  0
  -26.9380  -30.1960   24.6970 C   0  0  0  0  0  1  0  0  0  0  0  0
  -27.6300  -32.3010   25.8080 C   0  0  0  0  0  1  0  0  0  0  0  0
  1  5  1  0
  1 49  1  0
  2  3  1  0
  2  5  2  0
  3  4  2  0
  4  7  1  0
  4 10  1  0
  5 10  1  0
  6  3  1  0
  6  9  1  0
  8  7  1  0
  9 19  1  0
  9  8  1  0
 11 17  1  0
 11 19  1  0
 12 17  1  0
 13 14  1  0
 13 12  1  0
 15 14  1  0
 15 24  1  0
 15 16  1  0
 17 16  1  0
 18 11  2  0
 19 20  1  0
 21 22  2  0
 22 41  1  0
 23 22  1  0
 23 26  1  0
 24 25  1  0
 24 21  1  0
 25 23  2  0
 26 27  1  0
 27 28  2  0
 29 32  1  0
 29 28  1  0
 30 29  2  0
 31 30  1  0
 31 26  2  0
 32 33  1  0
 33 34  1  0
 34 35  2  0
 36 35  1  0
 36 40  1  0
 37 36  2  0
 38 33  2  0
 38 37  1  0
 39 38  1  0
 41 42  1  0
 42 45  1  0
 42 44  1  0
 43 41  2  0
 46 21  1  0
 46 47  1  0
 48 46  1  0
 49 50  1  0
 49 51  1  0
 52 53  1  0
 52 49  1  0
 54 55  1  0
 54 53  1  0
 55 57  1  0
 56 67  2  0
 57 62  1  0
 58 66  1  0
 58 68  1  0
 59 65  1  0
 59 61  1  0
 60 66  1  0
 61 60  1  0
 62 61  2  0
 63 64  1  0
 63 57  2  0
 64 59  2  0
 65 58  1  0
 66 56  1  0
 68 70  2  0
 69 68  1  0
 71 69  1  0
 72 81  2  0
 72 77  1  0
 73 69  1  0
 73 77  1  0
 74 73  1  0
 75 76  1  0
 75 74  1  0
 76 72  1  0
 77 78  2  0
 78 79  1  0
 80 79  2  0
 81 80  1  0
 82 56  1  0
 82 83  1  0
 82 92  1  0
 83 86  1  0
 84 88  1  0
 84 83  1  0
 85 84  2  0
 88 87  1  0
 90 88  1  0
 90 91  1  0
 90 89  1  0
 92 95  1  1
 92 93  1  0
 94 92  1  0
M  ISO  4  11 100  19 100  54 101  55 101
M  END
>  <TORSDO>  (31) 
F 21

>  <SCORE>  (31) 
-11.210

>  <name>  (31) 
31

>  <ligand_id>  (31) 
31

>  <original_smiles>  (31) 
[H]c1c([H])c([H])c2c(c1[H])C([H])([H])C([H])([H])C([H])([H])C2([H])N([H])C(=O)C1([H])N(C(=O)C([H])(N([H])C(=O)C([H])(N([H])C([H])([H])[H])C([H])([H])[H])C(C([H])([H])[H])(C([H])([H])[H])C([H])([H])[H])C([H])([H])c2c([H])c(OC([H])([H])C([H])([H])C([H])([H])[N+]([H])([H])C([H])([H])c3sc4c(c3[H])C([H])([H])C([H])(N([H])C(=O)N3C([H])([H])C([H])([H])C([H])([H])C([H])(n5nc(-c6c([H])c([H])c(Oc7c([H])c([H])c(F)c([H])c7F)c([H])c6[H])c(C(=O)N([H])[H])c5N([H])[H])C3([H])[H])C([H])([H])C4([H])[H])c([H])c([H])c2C1([H])[H]

>  <smiles>  (31) 
[H]c1c([H])c([H])c2c(c1[H])C([H])([H])C([H])([H])C([H])([H])C2([H])N([H])C(=O)C1([H])N(C(=O)C([H])(N([H])C(=O)C([H])(N([H])C([H])([H])[H])C([H])([H])[H])C(C([H])([H])[H])(C([H])([H])[H])C([H])([H])[H])C([H])([H])c2c([H])c(OC([H])([H])C([H])([H])C([H])([H])[N+]([H])([H])C([H])([H])c3sc4c(c3[H])C([H])([H])C([H])(N([H])C(=O)N3C([H])([H])C([H])([H])C([H])([H])C([H])(n5nc(-c6c([H])c([H])c(Oc7c([H])c([H])c(F)c([H])c7F)c([H])c6[H])c(C(=O)N([H])[H])c5N([H])[H])C3([H])[H])C([H])([H])C4([H])[H])c([H])c([H])c2C1([H])[H]

$$$$
32:0:0
     RDKit          3D

 93101  0  0  1  0  0  0  0  0999 V2000
  -28.6160  -22.8670   22.0280 C   0  0  0  0  0  3  0  0  0  0  0  0
  -26.7910  -24.0010   20.8920 C   0  0  0  0  0  3  0  0  0  0  0  0
  -29.2730  -24.0980   22.2130 C   0  0  0  0  0  3  0  0  0  0  0  0
  -27.4260  -25.2360   21.1260 C   0  0  0  0  0  3  0  0  0  0  0  0
  -27.3950  -22.8040   21.3240 C   0  0  0  0  0  0  0  0  0  0  0  0
  -28.6990  -25.2930   21.7330 C   0  0  0  0  0  0  0  0  0  0  0  0
  -26.7130  -21.4710   21.0550 C   0  0  0  0  0  2  0  0  0  0  0  0
  -27.3630  -20.6310   19.9340 C   0  0  0  0  0  2  0  0  0  0  0  0
  -28.7020  -19.9860   20.3310 C   0  0  0  0  0  2  0  0  0  0  0  0
  -28.9830  -18.6570   19.6180 C   0  0  0  0  0  2  0  0  0  0  0  0
  -30.0740  -17.9130   20.2840 N   0  0  0  0  0  4  0  0  0  0  0  0
  -30.9440  -18.3980   20.1230 H   0  0  0  0  0  0  0  0  0  0  0  0
  -29.8960  -17.9310   21.2770 H   0  0  0  0  0  0  0  0  0  0  0  0
  -30.2010  -16.5100   19.8370 C   0  0  0  0  0  2  0  0  0  0  0  0
  -31.2280  -15.6910   20.6520 C   0  0  0  0  0  2  0  0  0  0  0  0
  -31.6950  -14.4130   19.9310 C   0  0  0  0  0  0  0  0  0  0  0  0
  -31.3170  -12.0550   19.2910 C   0  0  0  0  0  2  0  0  0  0  0  0
  -30.3470  -11.9760   18.0980 C   0  0  0  0  0  2  0  0  0  0  0  0
  -28.8790  -11.9840   18.5730 C   0  0  0  0  0  2  0  0  0  0  0  0
  -28.5920  -13.1230   19.5870 C   0  0  0  0  0  3  0  0  0  0  0  0
  -29.6670  -13.1400   20.7020 C   0  0  0  0  0  2  0  0  0  0  0  0
  -30.9860  -13.2620   20.0620 N   0  0  0  0  0  0  0  0  0  0  0  0
  -32.7190  -14.4820   19.2400 O   0  0  0  0  0  0  0  0  0  0  0  0
  -26.3880  -14.0440   20.5590 C   0  0  0  0  0  0  0  0  0  0  0  0
  -25.2260  -13.4230   20.9280 C   0  0  0  0  0  0  0  0  0  0  0  0
  -25.4300  -12.0290   20.6930 C   0  0  0  0  0  0  0  0  0  0  0  0
  -27.2410  -13.0330   20.1360 N   0  0  0  0  0  0  0  0  0  0  0  0
  -26.6690  -11.8110   20.2680 N   0  0  0  0  0  0  0  0  0  0  0  0
  -24.5010  -10.8960   20.7870 C   0  0  0  0  0  0  0  0  0  0  0  0
  -24.8270   -9.7370   21.5270 C   0  0  0  0  0  3  0  0  0  0  0  0
  -23.9130   -8.6650   21.6180 C   0  0  0  0  0  3  0  0  0  0  0  0
  -22.6580   -8.7460   20.9700 C   0  0  0  0  0  0  0  0  0  0  0  0
  -22.3490   -9.8920   20.2160 C   0  0  0  0  0  3  0  0  0  0  0  0
  -23.2600  -10.9560   20.1210 C   0  0  0  0  0  3  0  0  0  0  0  0
  -21.7170   -7.7460   20.9810 O   0  0  0  0  0  0  0  0  0  0  0  0
  -21.6190   -6.8610   22.0260 C   0  0  0  0  0  0  0  0  0  0  0  0
  -21.4110   -7.2960   23.3530 C   0  0  0  0  0  3  0  0  0  0  0  0
  -21.2480   -6.3500   24.3860 C   0  0  0  0  0  3  0  0  0  0  0  0
  -21.2850   -4.9740   24.0940 C   0  0  0  0  0  0  0  0  0  0  0  0
  -21.4900   -4.5390   22.7720 C   0  0  0  0  0  3  0  0  0  0  0  0
  -21.6540   -5.4810   21.7410 C   0  0  0  0  0  0  0  0  0  0  0  0
  -21.8270   -5.0580   20.4670 F   0  0  0  0  0  0  0  0  0  0  0  0
  -21.1230   -4.0650   25.0850 F   0  0  0  0  0  0  0  0  0  0  0  0
  -23.9560  -14.0890   21.3730 C   0  0  0  0  0  0  0  0  0  0  0  0
  -23.1770  -13.4220   22.2190 N   0  0  0  0  0  0  0  0  0  0  0  0
  -23.6730  -15.2300   21.0070 O   0  0  0  0  0  0  0  0  0  0  0  0
  -23.4210  -12.4950   22.5290 H   0  0  0  0  0  0  0  0  0  0  0  0
  -22.3240  -13.8470   22.5530 H   0  0  0  0  0  0  0  0  0  0  0  0
  -26.7810  -15.3790   20.5230 N   0  0  0  0  0  0  0  0  0  0  0  0
  -26.0900  -16.1080   20.6710 H   0  0  0  0  0  0  0  0  0  0  0  0
  -27.5460  -15.6840   19.9380 H   0  0  0  0  0  0  0  0  0  0  0  0
  -29.4460  -26.6160   21.9000 C   0  0  0  0  0  2  0  0  0  0  0  0
  -29.3680  -27.4700   20.7500 O   0  0  0  0  0  0  0  0  0  0  0  0
  -24.7470  -32.0230   23.6050 C   0  0  0  0  0  0  0  0  0  0  0  0
  -28.1670  -28.1200   20.6170 C   0  0  0  0  0  0  0  0  0  0  0  0
  -23.8820  -30.6220   21.7560 C   0  0  0  0  0  3  0  0  0  0  0  0
  -25.6390  -29.3450   20.4190 C   0  0  0  0  0  0  0  0  0  0  0  0
  -26.3540  -31.2550   21.8700 C   0  0  0  0  0  2  0  0  0  0  0  0
  -26.6540  -29.9480   21.1730 C   0  0  0  0  0  0  0  0  0  0  0  0
  -27.9190  -29.3410   21.2770 C   0  0  0  0  0  3  0  0  0  0  0  0
  -27.1550  -27.5350   19.8300 C   0  0  0  0  0  3  0  0  0  0  0  0
  -25.8820  -28.1320   19.7470 C   0  0  0  0  0  3  0  0  0  0  0  0
  -24.3100  -30.0630   20.3720 C   0  0  0  0  0  2  0  0  0  0  0  0
  -25.0030  -31.3110   22.4720 N   0  0  0  0  0  0  0  0  0  0  0  0
  -23.5910  -32.1510   24.0310 O   0  0  0  0  0  0  0  0  0  0  0  0
  -23.2470  -29.4770   22.5760 C   0  0  0  0  0  0  0  0  0  0  0  0
  -21.9610  -29.1940   22.3090 N   0  0  0  0  0  0  0  0  0  0  0  0
  -23.9070  -28.8500   23.4090 O   0  0  0  0  0  0  0  0  0  0  0  0
  -21.4890  -29.7520   21.6110 H   0  0  0  0  0  0  0  0  0  0  0  0
  -18.6410  -27.7930   22.4980 C   0  0  0  0  0  0  0  0  0  0  0  0
  -21.1630  -28.1460   22.9430 C   0  0  0  0  0  3  0  0  0  0  0  0
  -21.3680  -26.7860   22.2420 C   0  0  0  0  0  2  0  0  0  0  0  0
  -20.3520  -26.5270   21.1250 C   0  0  0  0  0  2  0  0  0  0  0  0
  -18.9290  -26.5370   21.6920 C   0  0  0  0  0  2  0  0  0  0  0  0
  -19.6920  -28.5590   23.0680 C   0  0  0  0  0  0  0  0  0  0  0  0
  -19.3740  -29.7410   23.7720 C   0  0  0  0  0  3  0  0  0  0  0  0
  -18.0380  -30.1560   23.9140 C   0  0  0  0  0  3  0  0  0  0  0  0
  -17.0000  -29.3830   23.3650 C   0  0  0  0  0  3  0  0  0  0  0  0
  -17.3020  -28.2030   22.6620 C   0  0  0  0  0  3  0  0  0  0  0  0
  -25.8850  -32.7350   24.4000 C   0  0  0  0  0  3  0  0  0  0  0  0
  -25.4900  -34.1390   24.5770 N   0  0  0  0  0  0  0  0  0  0  0  0
  -25.9210  -35.1510   23.8130 C   0  0  0  0  0  0  0  0  0  0  0  0
  -26.7610  -35.0070   22.9200 O   0  0  0  0  0  0  0  0  0  0  0  0
  -24.7610  -34.3220   25.2500 H   0  0  0  0  0  0  0  0  0  0  0  0
  -24.2230  -36.8430   23.0560 C   0  0  0  0  0  1  0  0  0  0  0  0
  -25.3260  -36.5460   24.0830 C   0  0  0  0  0  3  0  0  0  0  0  0
  -27.2880  -37.5540   25.1630 C   0  0  0  0  0  1  0  0  0  0  0  0
  -26.3320  -37.6290   24.0610 N   0  0  0  0  0  0  0  0  0  0  0  0
  -25.8830  -38.5410   24.0920 H   0  0  0  0  0  0  0  0  0  0  0  0
  -26.1870  -32.0580   25.7930 C   0  0  1  0  0  0  0  0  0  0  0  0
  -24.9220  -31.7900   26.6410 C   0  0  0  0  0  1  0  0  0  0  0  0
  -26.9200  -30.7090   25.5970 C   0  0  0  0  0  1  0  0  0  0  0  0
  -27.1340  -32.9590   26.6210 C   0  0  0  0  0  1  0  0  0  0  0  0
  1  3  1  0
  2  4  2  0
  2  5  1  0
  4  6  1  0
  5  1  2  0
  6 52  1  0
  6  3  2  0
  7  5  1  0
  8  9  1  0
  8  7  1  0
 10 11  1  0
 10  9  1  0
 11 13  1  0
 12 11  1  0
 14 11  1  0
 14 15  1  0
 16 22  1  0
 16 15  1  0
 17 22  1  0
 18 19  1  0
 18 17  1  0
 20 19  1  0
 20 27  1  0
 20 21  1  0
 22 21  1  0
 23 16  2  0
 24 25  2  0
 25 44  1  0
 26 29  1  0
 26 25  1  0
 27 28  1  0
 27 24  1  0
 28 26  2  0
 29 30  1  0
 30 31  2  0
 32 35  1  0
 32 31  1  0
 33 32  2  0
 34 33  1  0
 34 29  2  0
 35 36  1  0
 36 37  1  0
 37 38  2  0
 39 38  1  0
 39 43  1  0
 40 39  2  0
 41 36  2  0
 41 40  1  0
 42 41  1  0
 44 45  1  0
 45 47  1  0
 45 48  1  0
 46 44  2  0
 49 24  1  0
 49 50  1  0
 51 49  1  0
 53 52  1  0
 54 65  2  0
 55 53  1  0
 55 60  1  0
 56 64  1  0
 56 66  1  0
 57 59  1  0
 58 64  1  0
 59 60  2  0
 59 58  1  0
 61 55  2  0
 62 61  1  0
 62 57  2  0
 63 57  1  0
 63 56  1  0
 64 54  1  0
 66 68  2  0
 67 66  1  0
 69 67  1  0
 70 79  2  0
 70 75  1  0
 71 67  1  0
 71 75  1  0
 72 71  1  0
 73 74  1  0
 73 72  1  0
 74 70  1  0
 75 76  2  0
 76 77  1  0
 78 77  2  0
 79 78  1  0
 80 54  1  0
 80 81  1  0
 80 90  1  0
 81 84  1  0
 82 86  1  0
 82 81  1  0
 83 82  2  0
 86 85  1  0
 88 86  1  0
 88 89  1  0
 88 87  1  0
 90 93  1  1
 90 91  1  0
 92 90  1  0
M  ISO  4  15 100  16 100  52 101  53 101
M  END
>  <TORSDO>  (32) 
F 24

>  <SCORE>  (32) 
-8.972

>  <name>  (32) 
32

>  <ligand_id>  (32) 
32

>  <original_smiles>  (32) 
[H]c1c([H])c([H])c2c(c1[H])C([H])([H])C([H])([H])C([H])([H])C2([H])N([H])C(=O)C1([H])N(C(=O)C([H])(N([H])C(=O)C([H])(N([H])C([H])([H])[H])C([H])([H])[H])C(C([H])([H])[H])(C([H])([H])[H])C([H])([H])[H])C([H])([H])c2c([H])c(OC([H])([H])c3c([H])c([H])c(C([H])([H])C([H])([H])C([H])([H])C([H])([H])[N+]([H])([H])C([H])([H])C([H])([H])C(=O)N4C([H])([H])C([H])([H])C([H])([H])C([H])(n5nc(-c6c([H])c([H])c(Oc7c([H])c([H])c(F)c([H])c7F)c([H])c6[H])c(C(=O)N([H])[H])c5N([H])[H])C4([H])[H])c([H])c3[H])c([H])c([H])c2C1([H])[H]

>  <smiles>  (32) 
[H]c1c([H])c([H])c2c(c1[H])C([H])([H])C([H])([H])C([H])([H])C2([H])N([H])C(=O)C1([H])N(C(=O)C([H])(N([H])C(=O)C([H])(N([H])C([H])([H])[H])C([H])([H])[H])C(C([H])([H])[H])(C([H])([H])[H])C([H])([H])[H])C([H])([H])c2c([H])c(OC([H])([H])c3c([H])c([H])c(C([H])([H])C([H])([H])C([H])([H])C([H])([H])[N+]([H])([H])C([H])([H])C([H])([H])C(=O)N4C([H])([H])C([H])([H])C([H])([H])C([H])(n5nc(-c6c([H])c([H])c(Oc7c([H])c([H])c(F)c([H])c7F)c([H])c6[H])c(C(=O)N([H])[H])c5N([H])[H])C4([H])[H])c([H])c3[H])c([H])c([H])c2C1([H])[H]

$$$$
33:0:0
     RDKit          3D

 91100  0  0  1  0  0  0  0  0999 V2000
  -30.0770  -23.5240   19.5640 C   0  0  0  0  0  3  0  0  0  0  0  0
  -28.5570  -21.8660   20.5000 C   0  0  0  0  0  3  0  0  0  0  0  0
  -30.8980  -22.4270   19.2090 C   0  0  0  0  0  0  0  0  0  0  0  0
  -30.5820  -21.0800   19.4710 C   0  0  0  0  0  0  0  0  0  0  0  0
  -28.8480  -23.3100   20.2170 C   0  0  0  0  0  0  0  0  0  0  0  0
  -29.4050  -20.6780   20.1580 C   0  0  0  0  0  0  0  0  0  0  0  0
  -32.2110  -22.5620   18.4800 C   0  0  0  0  0  2  0  0  0  0  0  0
  -31.6580  -20.1870   18.8950 C   0  0  0  0  0  2  0  0  0  0  0  0
  -32.5480  -21.1240   18.0520 C   0  0  0  0  0  2  0  0  0  0  0  0
  -29.0840  -19.0650   20.4670 C   0  0  0  0  0  3  0  0  0  0  0  0
  -30.0960  -17.7160   20.2240 C   0  0  0  0  0  3  0  0  0  0  0  0
  -30.5090  -14.9940   20.2670 C   0  0  0  0  0  0  0  0  0  0  0  0
  -30.3670  -12.6530   19.2970 C   0  0  0  0  0  2  0  0  0  0  0  0
  -29.4180  -12.6350   18.0740 C   0  0  0  0  0  2  0  0  0  0  0  0
  -27.9650  -12.4040   18.5260 C   0  0  0  0  0  2  0  0  0  0  0  0
  -27.5750  -13.3170   19.7180 C   0  0  0  0  0  3  0  0  0  0  0  0
  -28.6440  -13.3200   20.8340 C   0  0  0  0  0  2  0  0  0  0  0  0
  -29.9070  -13.7370   20.2150 N   0  0  0  0  0  0  0  0  0  0  0  0
  -31.7000  -15.0580   19.9420 O   0  0  0  0  0  0  0  0  0  0  0  0
  -29.7500  -16.1850   20.4710 N   0  0  0  0  0  0  0  0  0  0  0  0
  -28.7930  -16.0090   20.7390 H   0  0  0  0  0  0  0  0  0  0  0  0
  -25.2040  -13.8840   20.4960 C   0  0  0  0  0  0  0  0  0  0  0  0
  -24.1470  -13.1030   20.8720 C   0  0  0  0  0  0  0  0  0  0  0  0
  -24.6120  -11.7520   20.8150 C   0  0  0  0  0  0  0  0  0  0  0  0
  -26.2440  -13.0100   20.2310 N   0  0  0  0  0  0  0  0  0  0  0  0
  -25.8990  -11.7220   20.4900 N   0  0  0  0  0  0  0  0  0  0  0  0
  -23.8890  -10.4880   20.9990 C   0  0  0  0  0  0  0  0  0  0  0  0
  -24.3160   -9.5210   21.9360 C   0  0  0  0  0  3  0  0  0  0  0  0
  -23.5930   -8.3220   22.1070 C   0  0  0  0  0  3  0  0  0  0  0  0
  -22.4270   -8.0790   21.3420 C   0  0  0  0  0  0  0  0  0  0  0  0
  -22.0200   -9.0330   20.3930 C   0  0  0  0  0  3  0  0  0  0  0  0
  -22.7440  -10.2250   20.2190 C   0  0  0  0  0  3  0  0  0  0  0  0
  -21.6770   -6.9310   21.4220 O   0  0  0  0  0  0  0  0  0  0  0  0
  -21.6000   -6.2010   22.5800 C   0  0  0  0  0  0  0  0  0  0  0  0
  -21.1120   -6.7610   23.7820 C   0  0  0  0  0  3  0  0  0  0  0  0
  -20.9830   -5.9560   24.9320 C   0  0  0  0  0  3  0  0  0  0  0  0
  -21.3330   -4.5930   24.8810 C   0  0  0  0  0  0  0  0  0  0  0  0
  -21.8150   -4.0340   23.6830 C   0  0  0  0  0  3  0  0  0  0  0  0
  -21.9440   -4.8360   22.5360 C   0  0  0  0  0  0  0  0  0  0  0  0
  -22.3880   -4.2870   21.3800 F   0  0  0  0  0  0  0  0  0  0  0  0
  -21.2030   -3.8170   25.9830 F   0  0  0  0  0  0  0  0  0  0  0  0
  -22.7520  -13.5740   21.1670 C   0  0  0  0  0  0  0  0  0  0  0  0
  -22.0400  -12.8630   22.0320 N   0  0  0  0  0  0  0  0  0  0  0  0
  -22.3070  -14.6050   20.6660 O   0  0  0  0  0  0  0  0  0  0  0  0
  -22.4190  -12.0290   22.4570 H   0  0  0  0  0  0  0  0  0  0  0  0
  -21.1010  -13.1510   22.2720 H   0  0  0  0  0  0  0  0  0  0  0  0
  -25.3650  -15.2570   20.3300 N   0  0  0  0  0  0  0  0  0  0  0  0
  -24.5900  -15.9040   20.4230 H   0  0  0  0  0  0  0  0  0  0  0  0
  -26.2060  -15.6940   19.9750 H   0  0  0  0  0  0  0  0  0  0  0  0
  -27.9070  -24.6320   20.5570 C   0  0  0  0  0  2  0  0  0  0  0  0
  -28.2300  -26.1390   20.2620 O   0  0  0  0  0  0  0  0  0  0  0  0
  -24.6190  -31.8720   23.2570 C   0  0  0  0  0  0  0  0  0  0  0  0
  -27.1850  -27.1420   20.2270 C   0  0  0  0  0  0  0  0  0  0  0  0
  -23.4170  -30.4770   21.6170 C   0  0  0  0  0  3  0  0  0  0  0  0
  -24.8640  -28.9040   20.1900 C   0  0  0  0  0  0  0  0  0  0  0  0
  -25.9750  -30.7390   21.4520 C   0  0  0  0  0  2  0  0  0  0  0  0
  -26.0450  -29.3460   20.7990 C   0  0  0  0  0  0  0  0  0  0  0  0
  -27.2080  -28.4820   20.7990 C   0  0  0  0  0  3  0  0  0  0  0  0
  -25.9810  -26.8140   19.5700 C   0  0  0  0  0  3  0  0  0  0  0  0
  -24.8440  -27.6510   19.5630 C   0  0  0  0  0  3  0  0  0  0  0  0
  -23.6380  -29.8030   20.2380 C   0  0  0  0  0  2  0  0  0  0  0  0
  -24.6900  -31.0520   22.1630 N   0  0  0  0  0  0  0  0  0  0  0  0
  -23.5310  -32.1550   23.7850 O   0  0  0  0  0  0  0  0  0  0  0  0
  -22.7400  -29.4680   22.5810 C   0  0  0  0  0  0  0  0  0  0  0  0
  -21.4130  -29.2880   22.4540 N   0  0  0  0  0  0  0  0  0  0  0  0
  -23.4160  -28.8480   23.4050 O   0  0  0  0  0  0  0  0  0  0  0  0
  -20.9240  -29.8420   21.7640 H   0  0  0  0  0  0  0  0  0  0  0  0
  -18.0390  -28.0670   22.9560 C   0  0  0  0  0  0  0  0  0  0  0  0
  -20.5950  -28.3480   23.2250 C   0  0  0  0  0  3  0  0  0  0  0  0
  -20.7070  -26.9140   22.6590 C   0  0  0  0  0  2  0  0  0  0  0  0
  -19.6100  -26.5810   21.6430 C   0  0  0  0  0  2  0  0  0  0  0  0
  -18.2250  -26.7180   22.2820 C   0  0  0  0  0  2  0  0  0  0  0  0
  -19.1500  -28.8400   23.3840 C   0  0  0  0  0  0  0  0  0  0  0  0
  -18.9200  -30.1030   23.9730 C   0  0  0  0  0  3  0  0  0  0  0  0
  -17.6100  -30.5920   24.1360 C   0  0  0  0  0  3  0  0  0  0  0  0
  -16.5130  -29.8170   23.7220 C   0  0  0  0  0  3  0  0  0  0  0  0
  -16.7280  -28.5560   23.1380 C   0  0  0  0  0  3  0  0  0  0  0  0
  -25.8980  -32.5110   23.8810 C   0  0  0  0  0  3  0  0  0  0  0  0
  -26.4090  -31.7490   25.1660 C   0  0  1  0  0  0  0  0  0  0  0  0
  -25.3120  -31.5210   26.2350 C   0  0  0  0  0  1  0  0  0  0  0  0
  -26.9930  -30.3680   24.7910 C   0  0  0  0  0  1  0  0  0  0  0  0
  -27.5600  -32.5450   25.8270 C   0  0  0  0  0  1  0  0  0  0  0  0
  -25.5870  -33.9110   24.2120 N   0  0  0  0  0  0  0  0  0  0  0  0
  -25.9010  -34.9660   23.4490 C   0  0  0  0  0  0  0  0  0  0  0  0
  -26.5530  -34.8650   22.4070 O   0  0  0  0  0  0  0  0  0  0  0  0
  -25.0180  -34.0670   25.0310 H   0  0  0  0  0  0  0  0  0  0  0  0
  -24.1620  -36.7530   23.1260 C   0  0  0  0  0  1  0  0  0  0  0  0
  -25.4160  -36.3520   23.9170 C   0  0  0  0  0  3  0  0  0  0  0  0
  -27.5550  -37.2460   24.7200 C   0  0  0  0  0  1  0  0  0  0  0  0
  -26.4420  -37.4100   23.7900 N   0  0  0  0  0  0  0  0  0  0  0  0
  -26.0320  -38.3270   23.9450 H   0  0  0  0  0  0  0  0  0  0  0  0
  1  5  1  0
  3  4  1  0
  3  1  2  0
  4  6  2  0
  5  2  2  0
  5 50  1  0
  6 10  1  0
  6  2  1  0
  7  3  1  0
  8  4  1  0
  9  7  1  0
  9  8  1  0
 11 10  2  0
 11 20  1  0
 12 20  1  0
 13 18  1  0
 14 15  1  0
 14 13  1  0
 16 15  1  0
 16 25  1  0
 16 17  1  0
 18 12  1  0
 18 17  1  0
 19 12  2  0
 20 21  1  0
 22 23  2  0
 23 42  1  0
 24 23  1  0
 24 27  1  0
 25 26  1  0
 25 22  1  0
 26 24  2  0
 27 28  1  0
 28 29  2  0
 30 33  1  0
 30 29  1  0
 31 30  2  0
 32 31  1  0
 32 27  2  0
 33 34  1  0
 34 35  1  0
 35 36  2  0
 37 36  1  0
 37 41  1  0
 38 37  2  0
 39 34  2  0
 39 38  1  0
 40 39  1  0
 42 43  1  0
 43 46  1  0
 43 45  1  0
 44 42  2  0
 47 48  1  0
 47 22  1  0
 49 47  1  0
 51 50  1  0
 52 63  2  0
 53 51  1  0
 53 58  1  0
 54 62  1  0
 54 64  1  0
 55 61  1  0
 55 57  1  0
 56 62  1  0
 57 56  1  0
 58 57  2  0
 59 53  2  0
 60 59  1  0
 60 55  2  0
 61 54  1  0
 62 52  1  0
 64 66  2  0
 65 64  1  0
 67 65  1  0
 68 77  2  0
 68 73  1  0
 69 65  1  0
 69 73  1  0
 70 69  1  0
 71 72  1  0
 71 70  1  0
 72 68  1  0
 73 74  2  0
 74 75  1  0
 76 75  2  0
 77 76  1  0
 78 52  1  0
 78 83  1  0
 78 79  1  0
 79 82  1  1
 79 80  1  0
 81 79  1  0
 83 86  1  0
 84 88  1  0
 84 83  1  0
 85 84  2  0
 88 87  1  0
 90 88  1  0
 90 91  1  0
 90 89  1  0
M  ISO  4  12 100  20 100  50 101  51 101
M  END
>  <TORSDO>  (33) 
F 19

>  <SCORE>  (33) 
-14.949

>  <name>  (33) 
33

>  <ligand_id>  (33) 
33

>  <original_smiles>  (33) 
[H]c1c([H])c([H])c2c(c1[H])C([H])([H])C([H])([H])C([H])([H])C2([H])N([H])C(=O)C1([H])N(C(=O)C([H])(N([H])C(=O)C([H])(N([H])C([H])([H])[H])C([H])([H])[H])C(C([H])([H])[H])(C([H])([H])[H])C([H])([H])[H])C([H])([H])c2c([H])c(OC([H])([H])c3c([H])c(C([H])([H])C([H])([H])N([H])C(=O)N4C([H])([H])C([H])([H])C([H])([H])C([H])(n5nc(-c6c([H])c([H])c(Oc7c([H])c([H])c(F)c([H])c7F)c([H])c6[H])c(C(=O)N([H])[H])c5N([H])[H])C4([H])[H])c4c(c3[H])C([H])([H])C([H])([H])C4([H])[H])c([H])c([H])c2C1([H])[H]

>  <smiles>  (33) 
[H]c1c([H])c([H])c2c(c1[H])C([H])([H])C([H])([H])C([H])([H])C2([H])N([H])C(=O)C1([H])N(C(=O)C([H])(N([H])C(=O)C([H])(N([H])C([H])([H])[H])C([H])([H])[H])C(C([H])([H])[H])(C([H])([H])[H])C([H])([H])[H])C([H])([H])c2c([H])c(OC([H])([H])c3c([H])c(C([H])([H])C([H])([H])N([H])C(=O)N4C([H])([H])C([H])([H])C([H])([H])C([H])(n5nc(-c6c([H])c([H])c(Oc7c([H])c([H])c(F)c([H])c7F)c([H])c6[H])c(C(=O)N([H])[H])c5N([H])[H])C4([H])[H])c4c(c3[H])C([H])([H])C([H])([H])C4([H])[H])c([H])c([H])c2C1([H])[H]

$$$$
34:0:0
     RDKit          3D

 93101  0  0  1  0  0  0  0  0999 V2000
  -30.9540  -22.8290   20.9240 C   0  0  0  0  0  3  0  0  0  0  0  0
  -29.9710  -24.9660   20.2430 C   0  0  0  0  0  3  0  0  0  0  0  0
  -28.5680  -22.9850   20.4790 C   0  0  0  0  0  3  0  0  0  0  0  0
  -31.0970  -24.1980   20.6110 C   0  0  0  0  0  0  0  0  0  0  0  0
  -29.6850  -22.2150   20.8730 C   0  0  0  0  0  0  0  0  0  0  0  0
  -28.6980  -24.3650   20.1910 C   0  0  0  0  0  0  0  0  0  0  0  0
  -32.4620  -24.8460   20.7290 C   0  0  0  0  0  1  0  0  0  0  0  0
  -29.4840  -20.7740   21.3460 C   0  0  0  0  0  2  0  0  0  0  0  0
  -30.2060  -19.8200   19.0910 C   0  0  0  0  0  1  0  0  0  0  0  0
  -30.2990  -19.6690   20.6250 C   0  0  0  0  0  3  0  0  0  0  0  0
  -29.8410  -18.3270   21.0920 N   0  0  0  0  0  4  0  0  0  0  0  0
  -29.8690  -18.3340   22.1010 H   0  0  0  0  0  0  0  0  0  0  0  0
  -28.8770  -18.2060   20.8250 H   0  0  0  0  0  0  0  0  0  0  0  0
  -30.6270  -17.1490   20.6350 C   0  0  0  0  0  2  0  0  0  0  0  0
  -29.9650  -15.7850   20.9830 C   0  0  0  0  0  2  0  0  0  0  0  0
  -30.6580  -14.5770   20.3060 C   0  0  0  0  0  0  0  0  0  0  0  0
  -30.2860  -12.5190   19.0020 C   0  0  0  0  0  2  0  0  0  0  0  0
  -29.3030  -12.8390   17.8550 C   0  0  0  0  0  2  0  0  0  0  0  0
  -27.8420  -12.6860   18.3250 C   0  0  0  0  0  2  0  0  0  0  0  0
  -27.5650  -13.4320   19.6540 C   0  0  0  0  0  3  0  0  0  0  0  0
  -28.6540  -13.1180   20.7050 C   0  0  0  0  0  2  0  0  0  0  0  0
  -29.9670  -13.4220   20.1180 N   0  0  0  0  0  0  0  0  0  0  0  0
  -31.7840  -14.7480   19.8270 O   0  0  0  0  0  0  0  0  0  0  0  0
  -25.1770  -14.0270   20.4070 C   0  0  0  0  0  0  0  0  0  0  0  0
  -24.1230  -13.2470   20.8050 C   0  0  0  0  0  0  0  0  0  0  0  0
  -24.5980  -11.9000   20.7780 C   0  0  0  0  0  0  0  0  0  0  0  0
  -26.2250  -13.1520   20.1650 N   0  0  0  0  0  0  0  0  0  0  0  0
  -25.8810  -11.8700   20.4450 N   0  0  0  0  0  0  0  0  0  0  0  0
  -23.8900  -10.6320   20.9940 C   0  0  0  0  0  0  0  0  0  0  0  0
  -24.3350   -9.6950   21.9510 C   0  0  0  0  0  3  0  0  0  0  0  0
  -23.6320   -8.4890   22.1530 C   0  0  0  0  0  3  0  0  0  0  0  0
  -22.4680   -8.2120   21.3990 C   0  0  0  0  0  0  0  0  0  0  0  0
  -22.0420   -9.1390   20.4300 C   0  0  0  0  0  3  0  0  0  0  0  0
  -22.7460  -10.3380   20.2270 C   0  0  0  0  0  3  0  0  0  0  0  0
  -21.7330   -7.0550   21.5090 O   0  0  0  0  0  0  0  0  0  0  0  0
  -21.6820   -6.3450   22.6790 C   0  0  0  0  0  0  0  0  0  0  0  0
  -21.1750   -6.9070   23.8700 C   0  0  0  0  0  3  0  0  0  0  0  0
  -21.0810   -6.1220   25.0370 C   0  0  0  0  0  3  0  0  0  0  0  0
  -21.4740   -4.7700   25.0090 C   0  0  0  0  0  0  0  0  0  0  0  0
  -21.9680   -4.2040   23.8210 C   0  0  0  0  0  3  0  0  0  0  0  0
  -22.0710   -4.9900   22.6600 C   0  0  0  0  0  0  0  0  0  0  0  0
  -22.5290   -4.4350   21.5110 F   0  0  0  0  0  0  0  0  0  0  0  0
  -21.3730   -4.0120   26.1260 F   0  0  0  0  0  0  0  0  0  0  0  0
  -22.7250  -13.7100   21.0970 C   0  0  0  0  0  0  0  0  0  0  0  0
  -22.0190  -13.0090   21.9790 N   0  0  0  0  0  0  0  0  0  0  0  0
  -22.2660  -14.7280   20.5780 O   0  0  0  0  0  0  0  0  0  0  0  0
  -22.4050  -12.1890   22.4220 H   0  0  0  0  0  0  0  0  0  0  0  0
  -21.0800  -13.2940   22.2130 H   0  0  0  0  0  0  0  0  0  0  0  0
  -25.3340  -15.3960   20.2090 N   0  0  0  0  0  0  0  0  0  0  0  0
  -24.5720  -16.0590   20.3100 H   0  0  0  0  0  0  0  0  0  0  0  0
  -26.1740  -15.8200   19.8390 H   0  0  0  0  0  0  0  0  0  0  0  0
  -27.4440  -25.1670   19.8660 C   0  0  0  0  0  2  0  0  0  0  0  0
  -27.5810  -26.5810   20.0640 O   0  0  0  0  0  0  0  0  0  0  0  0
  -24.1880  -31.9710   23.2330 C   0  0  0  0  0  0  0  0  0  0  0  0
  -26.4360  -27.3620   20.0720 C   0  0  0  0  0  0  0  0  0  0  0  0
  -22.8260  -30.6110   21.6830 C   0  0  0  0  0  3  0  0  0  0  0  0
  -24.1220  -28.9950   20.2030 C   0  0  0  0  0  0  0  0  0  0  0  0
  -25.3550  -30.8390   21.3440 C   0  0  0  0  0  2  0  0  0  0  0  0
  -25.3360  -29.4580   20.7210 C   0  0  0  0  0  0  0  0  0  0  0  0
  -26.4940  -28.6480   20.6590 C   0  0  0  0  0  3  0  0  0  0  0  0
  -25.1990  -26.9260   19.5320 C   0  0  0  0  0  3  0  0  0  0  0  0
  -24.0490  -27.7270   19.6080 C   0  0  0  0  0  3  0  0  0  0  0  0
  -22.9270  -29.9120   20.3030 C   0  0  0  0  0  2  0  0  0  0  0  0
  -24.1450  -31.1540   22.1430 N   0  0  0  0  0  0  0  0  0  0  0  0
  -23.1530  -32.3030   23.8250 O   0  0  0  0  0  0  0  0  0  0  0  0
  -22.1790  -29.6330   22.6900 C   0  0  0  0  0  0  0  0  0  0  0  0
  -20.8550  -29.4390   22.5690 N   0  0  0  0  0  0  0  0  0  0  0  0
  -22.8640  -29.0480   23.5320 O   0  0  0  0  0  0  0  0  0  0  0  0
  -20.3640  -29.9550   21.8520 H   0  0  0  0  0  0  0  0  0  0  0  0
  -17.4990  -28.1890   23.0530 C   0  0  0  0  0  0  0  0  0  0  0  0
  -20.0390  -28.5420   23.3870 C   0  0  0  0  0  3  0  0  0  0  0  0
  -20.2010  -27.0740   22.9310 C   0  0  0  0  0  2  0  0  0  0  0  0
  -19.1440  -26.6410   21.9100 C   0  0  0  0  0  2  0  0  0  0  0  0
  -17.7360  -26.7970   22.4900 C   0  0  0  0  0  2  0  0  0  0  0  0
  -18.5820  -29.0130   23.4590 C   0  0  0  0  0  0  0  0  0  0  0  0
  -18.3100  -30.3130   23.9390 C   0  0  0  0  0  3  0  0  0  0  0  0
  -16.9880  -30.7890   24.0230 C   0  0  0  0  0  3  0  0  0  0  0  0
  -15.9190  -29.9610   23.6380 C   0  0  0  0  0  3  0  0  0  0  0  0
  -16.1750  -28.6640   23.1580 C   0  0  0  0  0  3  0  0  0  0  0  0
  -25.5370  -32.5440   23.7710 C   0  0  0  0  0  3  0  0  0  0  0  0
  -25.3070  -33.9530   24.1160 N   0  0  0  0  0  0  0  0  0  0  0  0
  -25.7320  -34.9920   23.3840 C   0  0  0  0  0  0  0  0  0  0  0  0
  -26.4310  -34.8610   22.3750 O   0  0  0  0  0  0  0  0  0  0  0  0
  -24.6940  -34.1330   24.8970 H   0  0  0  0  0  0  0  0  0  0  0  0
  -24.1620  -36.9160   22.9760 C   0  0  0  0  0  1  0  0  0  0  0  0
  -25.3190  -36.4030   23.8460 C   0  0  0  0  0  3  0  0  0  0  0  0
  -27.4510  -37.1190   24.8300 C   0  0  0  0  0  1  0  0  0  0  0  0
  -26.4290  -37.3790   23.8210 N   0  0  0  0  0  0  0  0  0  0  0  0
  -26.0820  -38.3250   23.9580 H   0  0  0  0  0  0  0  0  0  0  0  0
  -26.1030  -31.7450   25.0080 C   0  0  1  0  0  0  0  0  0  0  0  0
  -25.0710  -31.5440   26.1420 C   0  0  0  0  0  1  0  0  0  0  0  0
  -26.6060  -30.3450   24.5800 C   0  0  0  0  0  1  0  0  0  0  0  0
  -27.3230  -32.4890   25.5990 C   0  0  0  0  0  1  0  0  0  0  0  0
  2  4  1  0
  3  5  2  0
  4  7  1  0
  4  1  2  0
  5  1  1  0
  5  8  1  0
  6  2  2  0
  6  3  1  0
 10  9  1  0
 10 11  1  0
 10  8  1  0
 11 12  1  0
 13 11  1  0
 14 15  1  0
 14 11  1  0
 16 15  1  0
 17 22  1  0
 18 19  1  0
 18 17  1  0
 20 19  1  0
 20 27  1  0
 20 21  1  0
 22 16  1  0
 22 21  1  0
 23 16  2  0
 24 25  2  0
 25 44  1  0
 26 25  1  0
 26 29  1  0
 27 24  1  0
 27 28  1  0
 28 26  2  0
 29 30  1  0
 30 31  2  0
 32 35  1  0
 32 31  1  0
 33 32  2  0
 34 33  1  0
 34 29  2  0
 35 36  1  0
 36 37  1  0
 37 38  2  0
 39 38  1  0
 39 43  1  0
 40 39  2  0
 41 36  2  0
 41 40  1  0
 42 41  1  0
 44 45  1  0
 45 48  1  0
 45 47  1  0
 46 44  2  0
 49 50  1  0
 49 24  1  0
 51 49  1  0
 52 53  1  0
 52  6  1  0
 53 55  1  0
 54 65  2  0
 55 60  1  0
 56 64  1  0
 56 66  1  0
 57 63  1  0
 57 59  1  0
 58 64  1  0
 59 58  1  0
 60 59  2  0
 61 62  1  0
 61 55  2  0
 62 57  2  0
 63 56  1  0
 64 54  1  0
 66 68  2  0
 67 66  1  0
 69 67  1  0
 70 79  2  0
 70 75  1  0
 71 67  1  0
 71 75  1  0
 72 71  1  0
 73 74  1  0
 73 72  1  0
 74 70  1  0
 75 76  2  0
 76 77  1  0
 78 77  2  0
 79 78  1  0
 80 54  1  0
 80 81  1  0
 80 90  1  0
 81 84  1  0
 82 86  1  0
 82 81  1  0
 83 82  2  0
 86 85  1  0
 88 86  1  0
 88 89  1  0
 88 87  1  0
 90 93  1  1
 90 91  1  0
 92 90  1  0
M  ISO  4  15 100  16 100  52 101  53 101
M  END
>  <TORSDO>  (34) 
F 22

>  <SCORE>  (34) 
-12.189

>  <name>  (34) 
34

>  <ligand_id>  (34) 
34

>  <original_smiles>  (34) 
[H]c1c([H])c([H])c2c(c1[H])C([H])([H])C([H])([H])C([H])([H])C2([H])N([H])C(=O)C1([H])N(C(=O)C([H])(N([H])C(=O)C([H])(N([H])C([H])([H])[H])C([H])([H])[H])C(C([H])([H])[H])(C([H])([H])[H])C([H])([H])[H])C([H])([H])c2c([H])c(OC([H])([H])c3c([H])c(C([H])([H])[H])c([H])c(C([H])([H])C([H])(C([H])([H])[H])[N+]([H])([H])C([H])([H])C([H])([H])C(=O)N4C([H])([H])C([H])([H])C([H])([H])C([H])(n5nc(-c6c([H])c([H])c(Oc7c([H])c([H])c(F)c([H])c7F)c([H])c6[H])c(C(=O)N([H])[H])c5N([H])[H])C4([H])[H])c3[H])c([H])c([H])c2C1([H])[H]

>  <smiles>  (34) 
[H]c1c([H])c([H])c2c(c1[H])C([H])([H])C([H])([H])C([H])([H])C2([H])N([H])C(=O)C1([H])N(C(=O)C([H])(N([H])C(=O)C([H])(N([H])C([H])([H])[H])C([H])([H])[H])C(C([H])([H])[H])(C([H])([H])[H])C([H])([H])[H])C([H])([H])c2c([H])c(OC([H])([H])c3c([H])c(C([H])([H])[H])c([H])c(C([H])([H])C([H])(C([H])([H])[H])[N+]([H])([H])C([H])([H])C([H])([H])C(=O)N4C([H])([H])C([H])([H])C([H])([H])C([H])(n5nc(-c6c([H])c([H])c(Oc7c([H])c([H])c(F)c([H])c7F)c([H])c6[H])c(C(=O)N([H])[H])c5N([H])[H])C4([H])[H])c3[H])c([H])c([H])c2C1([H])[H]

$$$$
35:0:0
     RDKit          3D

 85 89  0  0  1  0  0  0  0  0999 V2000
  -28.7680  -21.6180   19.9190 C   0  0  0  0  0  1  0  0  0  0  0  0
  -29.7690  -21.9220   18.8790 N   0  0  0  0  0  4  0  0  0  0  0  0
  -30.6710  -22.0950   19.2890 H   0  0  0  0  0  0  0  0  0  0  0  0
  -29.5070  -22.7450   18.3650 H   0  0  0  0  0  0  0  0  0  0  0  0
  -29.8550  -21.1650   18.2240 H   0  0  0  0  0  0  0  0  0  0  0  0
  -29.2730  -19.7080   20.4870 C   0  0  0  0  0 15  0  0  0  0  0  0
  -29.2960  -17.7170   19.9870 C   0  0  0  0  0  1  0  0  0  0  0  0
  -30.1370  -15.9410   20.1090 C   0  0  0  0  0  0  0  0  0  0  0  0
  -30.3360  -13.3280   19.3240 C   0  0  0  0  0  2  0  0  0  0  0  0
  -29.4570  -12.8220   18.1340 C   0  0  0  0  0  2  0  0  0  0  0  0
  -28.0560  -12.4130   18.6040 C   0  0  0  0  0  2  0  0  0  0  0  0
  -27.5140  -13.4250   19.6350 C   0  0  0  0  0  3  0  0  0  0  0  0
  -28.5360  -13.8260   20.7260 C   0  0  0  0  0  2  0  0  0  0  0  0
  -29.6770  -14.5200   20.0650 N   0  0  0  0  0  0  0  0  0  0  0  0
  -31.3790  -15.8370   19.9930 O   0  0  0  0  0  0  0  0  0  0  0  0
  -25.1610  -13.9170   20.4340 C   0  0  0  0  0  0  0  0  0  0  0  0
  -24.1140  -13.1260   20.8110 C   0  0  0  0  0  0  0  0  0  0  0  0
  -24.6000  -11.7820   20.7790 C   0  0  0  0  0  0  0  0  0  0  0  0
  -26.2120  -13.0590   20.1770 N   0  0  0  0  0  0  0  0  0  0  0  0
  -25.8910  -11.7650   20.4530 N   0  0  0  0  0  0  0  0  0  0  0  0
  -23.8840  -10.5140   20.9780 C   0  0  0  0  0  0  0  0  0  0  0  0
  -24.3200   -9.5570   21.9220 C   0  0  0  0  0  3  0  0  0  0  0  0
  -23.5990   -8.3580   22.1130 C   0  0  0  0  0  3  0  0  0  0  0  0
  -22.4280   -8.1060   21.3590 C   0  0  0  0  0  0  0  0  0  0  0  0
  -22.0110   -9.0500   20.4040 C   0  0  0  0  0  3  0  0  0  0  0  0
  -22.7330  -10.2400   20.2120 C   0  0  0  0  0  3  0  0  0  0  0  0
  -21.6810   -6.9570   21.4570 O   0  0  0  0  0  0  0  0  0  0  0  0
  -21.6230   -6.2300   22.6200 C   0  0  0  0  0  0  0  0  0  0  0  0
  -21.1610   -6.7940   23.8290 C   0  0  0  0  0  3  0  0  0  0  0  0
  -21.0530   -5.9940   24.9830 C   0  0  0  0  0  3  0  0  0  0  0  0
  -21.3980   -4.6290   24.9300 C   0  0  0  0  0  0  0  0  0  0  0  0
  -21.8540   -4.0650   23.7260 C   0  0  0  0  0  3  0  0  0  0  0  0
  -21.9630   -4.8630   22.5730 C   0  0  0  0  0  0  0  0  0  0  0  0
  -22.3820   -4.3080   21.4110 F   0  0  0  0  0  0  0  0  0  0  0  0
  -21.2880   -3.8590   26.0380 F   0  0  0  0  0  0  0  0  0  0  0  0
  -22.7140  -13.5900   21.0820 C   0  0  0  0  0  0  0  0  0  0  0  0
  -21.9940  -12.8920   21.9530 N   0  0  0  0  0  0  0  0  0  0  0  0
  -22.2670  -14.6100   20.5580 O   0  0  0  0  0  0  0  0  0  0  0  0
  -22.3690  -12.0700   22.4010 H   0  0  0  0  0  0  0  0  0  0  0  0
  -21.0540  -13.1860   22.1760 H   0  0  0  0  0  0  0  0  0  0  0  0
  -25.3040  -15.2900   20.2530 N   0  0  0  0  0  0  0  0  0  0  0  0
  -24.5290  -15.9340   20.3770 H   0  0  0  0  0  0  0  0  0  0  0  0
  -26.1470  -15.7440   19.9220 H   0  0  0  0  0  0  0  0  0  0  0  0
  -28.1970  -23.4930   20.5350 C   0  0  0  0  0  1  0  0  0  0  0  0
  -28.1950  -25.3280   20.2570 O   0  0  0  0  0  0  0  0  0  0  0  0
  -24.6210  -31.8320   23.1430 C   0  0  0  0  0  0  0  0  0  0  0  0
  -27.2100  -26.5920   20.2740 C   0  0  0  0  0  0  0  0  0  0  0  0
  -23.4720  -30.4080   21.5060 C   0  0  0  0  0  3  0  0  0  0  0  0
  -24.9480  -28.7180   20.1500 C   0  0  0  0  0  0  0  0  0  0  0  0
  -26.0590  -30.5150   21.4390 C   0  0  0  0  0  2  0  0  0  0  0  0
  -26.1390  -29.0570   20.8040 C   0  0  0  0  0  0  0  0  0  0  0  0
  -27.2500  -28.0310   20.8190 C   0  0  0  0  0  3  0  0  0  0  0  0
  -25.9780  -26.5050   19.5620 C   0  0  0  0  0  3  0  0  0  0  0  0
  -24.9160  -27.4690   19.5040 C   0  0  0  0  0  3  0  0  0  0  0  0
  -23.7450  -29.6860   20.1550 C   0  0  0  0  0  2  0  0  0  0  0  0
  -24.7420  -30.9560   22.0820 N   0  0  0  0  0  0  0  0  0  0  0  0
  -23.5150  -32.1380   23.6240 O   0  0  0  0  0  0  0  0  0  0  0  0
  -22.7300  -29.4500   22.4790 C   0  0  0  0  0  0  0  0  0  0  0  0
  -21.3950  -29.3110   22.3460 N   0  0  0  0  0  0  0  0  0  0  0  0
  -23.3690  -28.8270   23.3270 O   0  0  0  0  0  0  0  0  0  0  0  0
  -20.9260  -29.8650   21.6440 H   0  0  0  0  0  0  0  0  0  0  0  0
  -17.9910  -28.1300   22.8560 C   0  0  0  0  0  0  0  0  0  0  0  0
  -20.5550  -28.3830   23.1170 C   0  0  0  0  0  3  0  0  0  0  0  0
  -20.6440  -26.9490   22.5450 C   0  0  0  0  0  2  0  0  0  0  0  0
  -19.5430  -26.6350   21.5280 C   0  0  0  0  0  2  0  0  0  0  0  0
  -18.1610  -26.7830   22.1710 C   0  0  0  0  0  2  0  0  0  0  0  0
  -19.1150  -28.8880   23.2850 C   0  0  0  0  0  0  0  0  0  0  0  0
  -18.8980  -30.1430   23.8920 C   0  0  0  0  0  3  0  0  0  0  0  0
  -17.5940  -30.6440   24.0690 C   0  0  0  0  0  3  0  0  0  0  0  0
  -16.4870  -29.8850   23.6530 C   0  0  0  0  0  3  0  0  0  0  0  0
  -16.6860  -28.6290   23.0530 C   0  0  0  0  0  3  0  0  0  0  0  0
  -25.8620  -32.5030   23.8040 C   0  0  0  0  0  3  0  0  0  0  0  0
  -26.3350  -31.7650   25.1190 C   0  0  1  0  0  0  0  0  0  0  0  0
  -25.2060  -31.5520   26.1560 C   0  0  0  0  0  1  0  0  0  0  0  0
  -26.9330  -30.3800   24.7940 C   0  0  0  0  0  1  0  0  0  0  0  0
  -27.4630  -32.5780   25.7990 C   0  0  0  0  0  1  0  0  0  0  0  0
  -25.5210  -33.9070   24.1220 N   0  0  0  0  0  0  0  0  0  0  0  0
  -25.8670  -34.9730   23.3900 C   0  0  0  0  0  0  0  0  0  0  0  0
  -26.5610  -34.8810   22.3740 O   0  0  0  0  0  0  0  0  0  0  0  0
  -24.9040  -34.0500   24.9080 H   0  0  0  0  0  0  0  0  0  0  0  0
  -24.1470  -36.7810   23.0200 C   0  0  0  0  0  1  0  0  0  0  0  0
  -25.3720  -36.3620   23.8510 C   0  0  0  0  0  3  0  0  0  0  0  0
  -27.4840  -37.2510   24.7380 C   0  0  0  0  0  1  0  0  0  0  0  0
  -26.4060  -37.4190   23.7680 N   0  0  0  0  0  0  0  0  0  0  0  0
  -25.9950  -38.3380   23.9060 H   0  0  0  0  0  0  0  0  0  0  0  0
  2  3  1  0
  2  1  1  0
  4  2  1  0
  5  2  1  0
  7  8  1  0
  9 14  1  0
 10 11  1  0
 10  9  1  0
 12 11  1  0
 12 19  1  0
 12 13  1  0
 14  8  1  0
 14 13  1  0
 15  8  2  0
 16 17  2  0
 17 36  1  0
 18 17  1  0
 18 21  1  0
 19 16  1  0
 19 20  1  0
 20 18  2  0
 21 22  1  0
 22 23  2  0
 24 27  1  0
 24 23  1  0
 25 24  2  0
 26 25  1  0
 26 21  2  0
 27 28  1  0
 28 29  1  0
 29 30  2  0
 31 30  1  0
 31 35  1  0
 32 31  2  0
 33 28  2  0
 33 32  1  0
 34 33  1  0
 36 37  1  0
 37 40  1  0
 37 39  1  0
 38 36  2  0
 41 42  1  0
 41 16  1  0
 43 41  1  0
 45 47  1  0
 45 44  1  0
 46 57  2  0
 47 52  1  0
 48 56  1  0
 48 58  1  0
 49 55  1  0
 49 51  1  0
 50 56  1  0
 51 52  2  0
 51 50  1  0
 53 47  2  0
 54 53  1  0
 54 49  2  0
 55 48  1  0
 56 46  1  0
 58 60  2  0
 59 58  1  0
 61 59  1  0
 62 71  2  0
 62 67  1  0
 63 59  1  0
 63 67  1  0
 64 63  1  0
 65 66  1  0
 65 64  1  0
 66 62  1  0
 67 68  2  0
 68 69  1  0
 70 69  2  0
 71 70  1  0
 72 46  1  0
 72 77  1  0
 72 73  1  0
 73 76  1  1
 73 74  1  0
 75 73  1  0
 77 80  1  0
 78 82  1  0
 78 77  1  0
 79 78  2  0
 82 81  1  0
 84 82  1  0
 84 85  1  0
 84 83  1  0
M  ISO  4   7 100   8 100  44 101  45 101
M  END
>  <TORSDO>  (35) 
F 20

>  <SCORE>  (35) 
-16.157

>  <name>  (35) 
35

>  <ligand_id>  (35) 
35

>  <original_smiles>  (35) 
[H]c1c([H])c([H])c2c(c1[H])C([H])([H])C([H])([H])C([H])([H])C2([H])N([H])C(=O)C1([H])N(C(=O)C([H])(N([H])C(=O)C([H])(N([H])C([H])([H])[H])C([H])([H])[H])C(C([H])([H])[H])(C([H])([H])[H])C([H])([H])[H])C([H])([H])c2c([H])c(OC([H])([H])C([H])(C([H])([H])C([H])([H])C(=O)N3C([H])([H])C([H])([H])C([H])([H])C([H])(n4nc(-c5c([H])c([H])c(Oc6c([H])c([H])c(F)c([H])c6F)c([H])c5[H])c(C(=O)N([H])[H])c4N([H])[H])C3([H])[H])[N+]([H])([H])[H])c([H])c([H])c2C1([H])[H]

>  <smiles>  (35) 
[H]c1c([H])c([H])c2c(c1[H])C([H])([H])C([H])([H])C([H])([H])C2([H])N([H])C(=O)C1([H])N(C(=O)C([H])(N([H])C(=O)C([H])(N([H])C([H])([H])[H])C([H])([H])[H])C(C([H])([H])[H])(C([H])([H])[H])C([H])([H])[H])C([H])([H])c2c([H])c(OC([H])([H])C([H])(C([H])([H])C([H])([H])C(=O)N3C([H])([H])C([H])([H])C([H])([H])C([H])(n4nc(-c5c([H])c([H])c(Oc6c([H])c([H])c(F)c([H])c6F)c([H])c5[H])c(C(=O)N([H])[H])c4N([H])[H])C3([H])[H])[N+]([H])([H])[H])c([H])c([H])c2C1([H])[H]

$$$$
36:0:0
     RDKit          3D

 93101  0  0  1  0  0  0  0  0999 V2000
  -27.4580  -24.0360   20.6060 C   0  0  0  0  0  3  0  0  0  0  0  0
  -28.0330  -21.6940   21.0780 C   0  0  0  0  0  3  0  0  0  0  0  0
  -27.1170  -22.7680   21.1200 C   0  0  0  0  0  0  0  0  0  0  0  0
  -28.7080  -24.2750   20.0040 C   0  0  0  0  0  0  0  0  0  0  0  0
  -29.3100  -21.8270   20.4850 C   0  0  0  0  0  0  0  0  0  0  0  0
  -29.6260  -23.1420   19.9280 C   0  0  0  0  0  0  0  0  0  0  0  0
  -25.7360  -22.5460   21.7110 C   0  0  0  0  0  1  0  0  0  0  0  0
  -30.9640  -23.3620   19.2270 C   0  0  0  0  0  1  0  0  0  0  0  0
  -31.4200  -20.8700   21.5520 C   0  0  0  0  0  1  0  0  0  0  0  0
  -30.3100  -20.5750   20.5200 C   0  0  0  0  0  3  0  0  0  0  0  0
  -29.7410  -19.1670   20.7400 N   0  0  0  0  0  4  0  0  0  0  0  0
  -29.3900  -19.1280   21.6830 H   0  0  0  0  0  0  0  0  0  0  0  0
  -28.9500  -19.0760   20.1230 H   0  0  0  0  0  0  0  0  0  0  0  0
  -30.6350  -17.9350   20.5180 C   0  0  0  0  0  3  0  0  0  0  0  0
  -30.0700  -16.4870   20.9400 C   0  0  0  0  0  3  0  0  0  0  0  0
  -30.8840  -15.1780   20.5340 C   0  0  0  0  0  0  0  0  0  0  0  0
  -30.7260  -12.9280   19.4720 C   0  0  0  0  0  2  0  0  0  0  0  0
  -29.8280  -13.0420   18.2200 C   0  0  0  0  0  2  0  0  0  0  0  0
  -28.3440  -12.8710   18.5950 C   0  0  0  0  0  2  0  0  0  0  0  0
  -27.9320  -13.7440   19.8090 C   0  0  0  0  0  3  0  0  0  0  0  0
  -28.9480  -13.6170   20.9660 C   0  0  0  0  0  2  0  0  0  0  0  0
  -30.2780  -13.9500   20.4410 N   0  0  0  0  0  0  0  0  0  0  0  0
  -32.0590  -15.3110   20.1770 O   0  0  0  0  0  0  0  0  0  0  0  0
  -25.5120  -14.3420   20.4250 C   0  0  0  0  0  0  0  0  0  0  0  0
  -24.4340  -13.5680   20.7640 C   0  0  0  0  0  0  0  0  0  0  0  0
  -24.9040  -12.2180   20.7740 C   0  0  0  0  0  0  0  0  0  0  0  0
  -26.5680  -13.4620   20.2470 N   0  0  0  0  0  0  0  0  0  0  0  0
  -26.2070  -12.1820   20.5190 N   0  0  0  0  0  0  0  0  0  0  0  0
  -24.1780  -10.9540   20.9540 C   0  0  0  0  0  0  0  0  0  0  0  0
  -24.5600  -10.0150   21.9360 C   0  0  0  0  0  3  0  0  0  0  0  0
  -23.8320   -8.8160   22.1010 C   0  0  0  0  0  3  0  0  0  0  0  0
  -22.7110   -8.5470   21.2810 C   0  0  0  0  0  0  0  0  0  0  0  0
  -22.3490   -9.4760   20.2900 C   0  0  0  0  0  3  0  0  0  0  0  0
  -23.0770  -10.6670   20.1230 C   0  0  0  0  0  3  0  0  0  0  0  0
  -21.9620   -7.3970   21.3520 O   0  0  0  0  0  0  0  0  0  0  0  0
  -21.8320   -6.6950   22.5230 C   0  0  0  0  0  0  0  0  0  0  0  0
  -21.2790   -7.2770   23.6840 C   0  0  0  0  0  3  0  0  0  0  0  0
  -21.0980   -6.5000   24.8440 C   0  0  0  0  0  3  0  0  0  0  0  0
  -21.4630   -5.1400   24.8450 C   0  0  0  0  0  0  0  0  0  0  0  0
  -22.0100   -4.5560   23.6900 C   0  0  0  0  0  3  0  0  0  0  0  0
  -22.1910   -5.3310   22.5310 C   0  0  0  0  0  0  0  0  0  0  0  0
  -22.6990   -4.7600   21.4120 F   0  0  0  0  0  0  0  0  0  0  0  0
  -21.2830   -4.3890   25.9580 F   0  0  0  0  0  0  0  0  0  0  0  0
  -23.0250  -14.0410   20.9710 C   0  0  0  0  0  0  0  0  0  0  0  0
  -22.2680  -13.3570   21.8220 N   0  0  0  0  0  0  0  0  0  0  0  0
  -22.6020  -15.0520   20.4130 O   0  0  0  0  0  0  0  0  0  0  0  0
  -22.6210  -12.5350   22.2900 H   0  0  0  0  0  0  0  0  0  0  0  0
  -21.3220  -13.6590   22.0080 H   0  0  0  0  0  0  0  0  0  0  0  0
  -25.6790  -15.7090   20.2320 N   0  0  0  0  0  0  0  0  0  0  0  0
  -24.9090  -16.3660   20.2960 H   0  0  0  0  0  0  0  0  0  0  0  0
  -26.5360  -16.1340   19.9000 H   0  0  0  0  0  0  0  0  0  0  0  0
  -28.9290  -25.6970   19.3280 C   0  0  0  0  0  2  0  0  0  0  0  0
  -28.6930  -26.9660   20.0610 O   0  0  0  0  0  0  0  0  0  0  0  0
  -24.6430  -32.0180   23.2370 C   0  0  0  0  0  0  0  0  0  0  0  0
  -27.5070  -27.7210   20.0060 C   0  0  0  0  0  0  0  0  0  0  0  0
  -23.5130  -30.6180   21.5430 C   0  0  0  0  0  3  0  0  0  0  0  0
  -25.0480  -29.1950   20.0610 C   0  0  0  0  0  0  0  0  0  0  0  0
  -26.0310  -31.0750   21.3770 C   0  0  0  0  0  2  0  0  0  0  0  0
  -26.1850  -29.7240   20.6820 C   0  0  0  0  0  0  0  0  0  0  0  0
  -27.4110  -28.9940   20.6510 C   0  0  0  0  0  3  0  0  0  0  0  0
  -26.3440  -27.2420   19.3640 C   0  0  0  0  0  3  0  0  0  0  0  0
  -25.1290  -27.9600   19.3960 C   0  0  0  0  0  3  0  0  0  0  0  0
  -23.7640  -29.9990   20.1400 C   0  0  0  0  0  2  0  0  0  0  0  0
  -24.7470  -31.2530   22.1110 N   0  0  0  0  0  0  0  0  0  0  0  0
  -23.5460  -32.2190   23.7810 O   0  0  0  0  0  0  0  0  0  0  0  0
  -22.9040  -29.5350   22.4650 C   0  0  0  0  0  0  0  0  0  0  0  0
  -21.5990  -29.2660   22.3020 N   0  0  0  0  0  0  0  0  0  0  0  0
  -23.6080  -28.9420   23.2870 O   0  0  0  0  0  0  0  0  0  0  0  0
  -21.0860  -29.8070   21.6190 H   0  0  0  0  0  0  0  0  0  0  0  0
  -18.3090  -27.8120   22.6870 C   0  0  0  0  0  0  0  0  0  0  0  0
  -20.8340  -28.2550   23.0320 C   0  0  0  0  0  3  0  0  0  0  0  0
  -21.0590  -26.8480   22.4320 C   0  0  0  0  0  2  0  0  0  0  0  0
  -20.0100  -26.4670   21.3820 C   0  0  0  0  0  2  0  0  0  0  0  0
  -18.6040  -26.4950   21.9890 C   0  0  0  0  0  2  0  0  0  0  0  0
  -19.3580  -28.6450   23.1620 C   0  0  0  0  0  0  0  0  0  0  0  0
  -19.0310  -29.8750   23.7720 C   0  0  0  0  0  3  0  0  0  0  0  0
  -17.6900  -30.2760   23.9160 C   0  0  0  0  0  3  0  0  0  0  0  0
  -16.6550  -29.4420   23.4570 C   0  0  0  0  0  3  0  0  0  0  0  0
  -16.9660  -28.2120   22.8490 C   0  0  0  0  0  3  0  0  0  0  0  0
  -25.8900  -32.6950   23.8820 C   0  0  0  0  0  3  0  0  0  0  0  0
  -25.5300  -34.0850   24.1970 N   0  0  0  0  0  0  0  0  0  0  0  0
  -25.8510  -35.1470   23.4460 C   0  0  0  0  0  0  0  0  0  0  0  0
  -26.5520  -35.0610   22.4350 O   0  0  0  0  0  0  0  0  0  0  0  0
  -24.9100  -34.2200   24.9820 H   0  0  0  0  0  0  0  0  0  0  0  0
  -24.0810  -36.8890   23.0400 C   0  0  0  0  0  1  0  0  0  0  0  0
  -25.3090  -36.5200   23.8880 C   0  0  0  0  0  3  0  0  0  0  0  0
  -27.3870  -37.4720   24.7860 C   0  0  0  0  0  1  0  0  0  0  0  0
  -26.3130  -37.6030   23.8050 N   0  0  0  0  0  0  0  0  0  0  0  0
  -25.8740  -38.5110   23.9360 H   0  0  0  0  0  0  0  0  0  0  0  0
  -26.4030  -31.9490   25.1740 C   0  0  1  0  0  0  0  0  0  0  0  0
  -25.2930  -31.6780   26.2160 C   0  0  0  0  0  1  0  0  0  0  0  0
  -27.0480  -30.5920   24.8070 C   0  0  0  0  0  1  0  0  0  0  0  0
  -27.5040  -32.7910   25.8610 C   0  0  0  0  0  1  0  0  0  0  0  0
  1  3  1  0
  2  3  2  0
  3  7  1  0
  4  1  2  0
  5 10  1  0
  5  2  1  0
  6  4  1  0
  6  5  2  0
  8  6  1  0
 10 11  1  0
 10  9  1  0
 11 12  1  0
 13 11  1  0
 14 11  1  0
 14 15  2  0
 16 15  1  0
 17 22  1  0
 18 19  1  0
 18 17  1  0
 20 19  1  0
 20 27  1  0
 20 21  1  0
 22 16  1  0
 22 21  1  0
 23 16  2  0
 24 25  2  0
 25 26  1  0
 25 44  1  0
 26 29  1  0
 27 24  1  0
 27 28  1  0
 28 26  2  0
 29 30  1  0
 30 31  2  0
 32 35  1  0
 32 31  1  0
 33 32  2  0
 34 33  1  0
 34 29  2  0
 35 36  1  0
 36 41  2  0
 36 37  1  0
 37 38  2  0
 38 39  1  0
 39 43  1  0
 40 39  2  0
 41 40  1  0
 42 41  1  0
 44 45  1  0
 45 48  1  0
 45 47  1  0
 46 44  2  0
 49 50  1  0
 49 24  1  0
 51 49  1  0
 52  4  1  0
 52 53  1  0
 54 65  2  0
 55 53  1  0
 55 60  1  0
 56 64  1  0
 56 66  1  0
 57 63  1  0
 57 59  1  0
 58 64  1  0
 59 58  1  0
 60 59  2  0
 61 62  1  0
 61 55  2  0
 62 57  2  0
 63 56  1  0
 64 54  1  0
 66 68  2  0
 67 66  1  0
 69 67  1  0
 70 79  2  0
 70 75  1  0
 71 67  1  0
 71 75  1  0
 72 71  1  0
 73 74  1  0
 73 72  1  0
 74 70  1  0
 75 76  2  0
 76 77  1  0
 78 77  2  0
 79 78  1  0
 80 54  1  0
 80 81  1  0
 80 90  1  0
 81 84  1  0
 82 86  1  0
 82 81  1  0
 83 82  2  0
 86 85  1  0
 88 86  1  0
 88 89  1  0
 88 87  1  0
 90 93  1  1
 90 91  1  0
 92 90  1  0
M  ISO  4  15 100  16 100  52 101  53 101
M  END
>  <TORSDO>  (36) 
F 21

>  <SCORE>  (36) 
-12.000

>  <name>  (36) 
36

>  <ligand_id>  (36) 
36

>  <original_smiles>  (36) 
[H]c1c([H])c([H])c2c(c1[H])C([H])([H])C([H])([H])C([H])([H])C2([H])N([H])C(=O)C1([H])N(C(=O)C([H])(N([H])C(=O)C([H])(N([H])C([H])([H])[H])C([H])([H])[H])C(C([H])([H])[H])(C([H])([H])[H])C([H])([H])[H])C([H])([H])c2c([H])c(OC([H])([H])c3c([H])c(C([H])([H])[H])c([H])c(C([H])(C([H])([H])[H])[N+]([H])([H])C([H])([H])C([H])([H])C(=O)N4C([H])([H])C([H])([H])C([H])([H])C([H])(n5nc(-c6c([H])c([H])c(Oc7c([H])c([H])c(F)c([H])c7F)c([H])c6[H])c(C(=O)N([H])[H])c5N([H])[H])C4([H])[H])c3C([H])([H])[H])c([H])c([H])c2C1([H])[H]

>  <smiles>  (36) 
[H]c1c([H])c([H])c2c(c1[H])C([H])([H])C([H])([H])C([H])([H])C2([H])N([H])C(=O)C1([H])N(C(=O)C([H])(N([H])C(=O)C([H])(N([H])C([H])([H])[H])C([H])([H])[H])C(C([H])([H])[H])(C([H])([H])[H])C([H])([H])[H])C([H])([H])c2c([H])c(OC([H])([H])c3c([H])c(C([H])([H])[H])c([H])c(C([H])(C([H])([H])[H])[N+]([H])([H])C([H])([H])C([H])([H])C(=O)N4C([H])([H])C([H])([H])C([H])([H])C([H])(n5nc(-c6c([H])c([H])c(Oc7c([H])c([H])c(F)c([H])c7F)c([H])c6[H])c(C(=O)N([H])[H])c5N([H])[H])C4([H])[H])c3C([H])([H])[H])c([H])c([H])c2C1([H])[H]

$$$$
37:0:0
     RDKit          3D

 96105  0  0  1  0  0  0  0  0999 V2000
  -30.7440  -14.6450   20.4460 C   0  0  0  0  0  0  0  0  0  0  0  0
  -30.3800  -12.4420   19.3580 C   0  0  0  0  0  2  0  0  0  0  0  0
  -29.4560  -12.5680   18.1320 C   0  0  0  0  0  2  0  0  0  0  0  0
  -27.9850  -12.4100   18.5550 C   0  0  0  0  0  2  0  0  0  0  0  0
  -27.6230  -13.2900   19.7770 C   0  0  0  0  0  3  0  0  0  0  0  0
  -28.6820  -13.1850   20.9080 C   0  0  0  0  0  2  0  0  0  0  0  0
  -29.9910  -13.5000   20.3200 N   0  0  0  0  0  0  0  0  0  0  0  0
  -31.9260  -14.6200   20.0940 O   0  0  0  0  0  0  0  0  0  0  0  0
  -28.5190  -17.8500   20.6540 C   0  0  0  0  0  2  0  0  0  0  0  0
  -29.2010  -21.4190   18.7720 C   0  0  0  0  0  2  0  0  0  0  0  0
  -29.0200  -20.3160   21.0810 C   0  0  0  0  0  2  0  0  0  0  0  0
  -30.2360  -19.0850   19.1960 C   0  0  0  0  0  2  0  0  0  0  0  0
  -28.9110  -16.3670   20.3740 C   0  0  0  0  0  2  0  0  0  0  0  0
  -31.1820  -16.9100   21.2710 C   0  0  0  0  0  2  0  0  0  0  0  0
  -30.6540  -18.3310   21.6470 C   0  0  0  0  0  3  0  0  0  0  0  0
  -29.4510  -21.6040   20.2880 C   0  0  0  0  0  3  0  0  0  0  0  0
  -29.3610  -19.9610   18.2740 C   0  0  0  0  0  3  0  0  0  0  0  0
  -29.6360  -18.9230   20.6240 C   0  0  2  0  0  0  0  0  0  0  0  0
  -31.8420  -19.2640   21.9520 C   0  0  0  0  0  1  0  0  0  0  0  0
  -30.2070  -15.8500   20.8750 N   0  0  0  0  0  0  0  0  0  0  0  0
  -25.2320  -13.9200   20.4610 C   0  0  0  0  0  0  0  0  0  0  0  0
  -24.1560  -13.1590   20.8270 C   0  0  0  0  0  0  0  0  0  0  0  0
  -24.6100  -11.8040   20.8220 C   0  0  0  0  0  0  0  0  0  0  0  0
  -26.2740  -13.0280   20.2590 N   0  0  0  0  0  0  0  0  0  0  0  0
  -25.9050  -11.7520   20.5400 N   0  0  0  0  0  0  0  0  0  0  0  0
  -23.8740  -10.5500   21.0160 C   0  0  0  0  0  0  0  0  0  0  0  0
  -24.2910   -9.5880   21.9610 C   0  0  0  0  0  3  0  0  0  0  0  0
  -23.5560   -8.3970   22.1410 C   0  0  0  0  0  3  0  0  0  0  0  0
  -22.3890   -8.1590   21.3750 C   0  0  0  0  0  0  0  0  0  0  0  0
  -21.9910   -9.1120   20.4210 C   0  0  0  0  0  3  0  0  0  0  0  0
  -22.7280  -10.2940   20.2390 C   0  0  0  0  0  3  0  0  0  0  0  0
  -21.6270   -7.0200   21.4650 O   0  0  0  0  0  0  0  0  0  0  0  0
  -21.5650   -6.2880   22.6230 C   0  0  0  0  0  0  0  0  0  0  0  0
  -21.1350   -6.8540   23.8420 C   0  0  0  0  0  3  0  0  0  0  0  0
  -21.0180   -6.0470   24.9910 C   0  0  0  0  0  3  0  0  0  0  0  0
  -21.3240   -4.6740   24.9220 C   0  0  0  0  0  0  0  0  0  0  0  0
  -21.7470   -4.1070   23.7070 C   0  0  0  0  0  3  0  0  0  0  0  0
  -21.8640   -4.9110   22.5600 C   0  0  0  0  0  0  0  0  0  0  0  0
  -22.2540   -4.3560   21.3880 F   0  0  0  0  0  0  0  0  0  0  0  0
  -21.2040   -3.8960   26.0230 F   0  0  0  0  0  0  0  0  0  0  0  0
  -22.7580  -13.6470   21.0680 C   0  0  0  0  0  0  0  0  0  0  0  0
  -22.0140  -12.9680   21.9340 N   0  0  0  0  0  0  0  0  0  0  0  0
  -22.3340  -14.6680   20.5270 O   0  0  0  0  0  0  0  0  0  0  0  0
  -22.3690  -12.1410   22.3900 H   0  0  0  0  0  0  0  0  0  0  0  0
  -21.0770  -13.2810   22.1440 H   0  0  0  0  0  0  0  0  0  0  0  0
  -25.4030  -15.2860   20.2610 N   0  0  0  0  0  0  0  0  0  0  0  0
  -24.6280  -15.9370   20.3270 H   0  0  0  0  0  0  0  0  0  0  0  0
  -26.2570  -15.7150   19.9280 H   0  0  0  0  0  0  0  0  0  0  0  0
  -28.8020  -22.8550   20.8230 N   0  0  0  0  0  4  0  0  0  0  0  0
  -29.1470  -22.9880   21.7630 H   0  0  0  0  0  0  0  0  0  0  0  0
  -27.8120  -22.6800   20.9060 H   0  0  0  0  0  0  0  0  0  0  0  0
  -28.9790  -24.1530   20.0770 C   0  0  0  0  0  2  0  0  0  0  0  0
  -28.3920  -25.3970   20.8300 C   0  0  0  0  0  2  0  0  0  0  0  0
  -28.4820  -26.6700   20.1300 O   0  0  0  0  0  0  0  0  0  0  0  0
  -24.6350  -31.8840   23.1780 C   0  0  0  0  0  0  0  0  0  0  0  0
  -27.3290  -27.4390   20.1200 C   0  0  0  0  0  0  0  0  0  0  0  0
  -23.4510  -30.4760   21.5220 C   0  0  0  0  0  3  0  0  0  0  0  0
  -24.9290  -28.9520   20.1030 C   0  0  0  0  0  0  0  0  0  0  0  0
  -25.9770  -30.8510   21.3430 C   0  0  0  0  0  2  0  0  0  0  0  0
  -26.0800  -29.4780   20.7020 C   0  0  0  0  0  0  0  0  0  0  0  0
  -27.2860  -28.7320   20.7020 C   0  0  0  0  0  3  0  0  0  0  0  0
  -26.1620  -26.9380   19.5060 C   0  0  0  0  0  3  0  0  0  0  0  0
  -24.9660  -27.6830   19.4970 C   0  0  0  0  0  3  0  0  0  0  0  0
  -23.6780  -29.8030   20.1420 C   0  0  0  0  0  2  0  0  0  0  0  0
  -24.7050  -31.0880   22.0710 N   0  0  0  0  0  0  0  0  0  0  0  0
  -23.5500  -32.1440   23.7120 O   0  0  0  0  0  0  0  0  0  0  0  0
  -22.8000  -29.4500   22.4770 C   0  0  0  0  0  0  0  0  0  0  0  0
  -21.4730  -29.2780   22.3590 N   0  0  0  0  0  0  0  0  0  0  0  0
  -23.4850  -28.8120   23.2800 O   0  0  0  0  0  0  0  0  0  0  0  0
  -20.9820  -29.8460   21.6830 H   0  0  0  0  0  0  0  0  0  0  0  0
  -18.0920  -28.1060   22.8800 C   0  0  0  0  0  0  0  0  0  0  0  0
  -20.6560  -28.3350   23.1230 C   0  0  0  0  0  3  0  0  0  0  0  0
  -20.7370  -26.9130   22.5220 C   0  0  0  0  0  2  0  0  0  0  0  0
  -19.6200  -26.6190   21.5160 C   0  0  0  0  0  2  0  0  0  0  0  0
  -18.2470  -26.7660   22.1790 C   0  0  0  0  0  2  0  0  0  0  0  0
  -19.2230  -28.8500   23.3090 C   0  0  0  0  0  0  0  0  0  0  0  0
  -19.0240  -30.1040   23.9240 C   0  0  0  0  0  3  0  0  0  0  0  0
  -17.7260  -30.6160   24.1130 C   0  0  0  0  0  3  0  0  0  0  0  0
  -16.6090  -29.8690   23.7000 C   0  0  0  0  0  3  0  0  0  0  0  0
  -16.7940  -28.6160   23.0880 C   0  0  0  0  0  3  0  0  0  0  0  0
  -25.9120  -32.5220   23.8080 C   0  0  0  0  0  3  0  0  0  0  0  0
  -26.4380  -31.7420   25.0750 C   0  0  1  0  0  0  0  0  0  0  0  0
  -25.3490  -31.4810   26.1400 C   0  0  0  0  0  1  0  0  0  0  0  0
  -27.0350  -30.3760   24.6640 C   0  0  0  0  0  1  0  0  0  0  0  0
  -27.5820  -32.5400   25.7460 C   0  0  0  0  0  1  0  0  0  0  0  0
  -25.5870  -33.9140   24.1530 N   0  0  0  0  0  0  0  0  0  0  0  0
  -25.9050  -34.9770   23.4040 C   0  0  0  0  0  0  0  0  0  0  0  0
  -26.5740  -34.8920   22.3700 O   0  0  0  0  0  0  0  0  0  0  0  0
  -24.9950  -34.0530   24.9580 H   0  0  0  0  0  0  0  0  0  0  0  0
  -24.1560  -36.7540   23.0700 C   0  0  0  0  0  1  0  0  0  0  0  0
  -25.4030  -36.3560   23.8760 C   0  0  0  0  0  3  0  0  0  0  0  0
  -27.5280  -37.2550   24.7150 C   0  0  0  0  0  1  0  0  0  0  0  0
  -26.4230  -37.4220   23.7730 N   0  0  0  0  0  0  0  0  0  0  0  0
  -26.0060  -38.3350   23.9300 H   0  0  0  0  0  0  0  0  0  0  0  0
  -29.8940  -19.9710   16.9610 O   0  0  0  0  0  0  0  0  0  0  0  0
  -29.7890  -19.0970   16.5900 H   0  0  0  0  0  0  0  0  0  0  0  0
  1 20  1  0
  2  7  1  0
  3  4  1  0
  3  2  1  0
  5  4  1  0
  5 24  1  0
  5  6  1  0
  7  1  1  0
  7  6  1  0
  8  1  2  0
 10 16  1  0
 13  9  1  0
 13 20  1  0
 14 15  1  0
 15 19  1  0
 16 49  1  0
 16 11  1  0
 17 95  1  0
 17 10  1  0
 17 12  1  0
 18 12  1  6
 18  9  1  0
 18 11  1  0
 18 15  1  0
 20 14  1  0
 21 22  2  0
 22 41  1  0
 23 22  1  0
 23 26  1  0
 24 21  1  0
 24 25  1  0
 25 23  2  0
 26 27  1  0
 27 28  2  0
 29 32  1  0
 29 28  1  0
 30 29  2  0
 31 30  1  0
 31 26  2  0
 32 33  1  0
 33 34  1  0
 34 35  2  0
 36 35  1  0
 36 40  1  0
 37 36  2  0
 38 33  2  0
 38 37  1  0
 39 38  1  0
 41 42  1  0
 42 45  1  0
 42 44  1  0
 43 41  2  0
 46 47  1  0
 46 21  1  0
 48 46  1  0
 49 51  1  0
 49 50  1  0
 52 49  1  0
 52 53  1  0
 54 53  1  0
 55 66  2  0
 56 54  1  0
 56 61  1  0
 57 65  1  0
 57 67  1  0
 58 64  1  0
 58 60  1  0
 59 65  1  0
 60 59  1  0
 61 60  2  0
 62 56  2  0
 63 62  1  0
 63 58  2  0
 64 57  1  0
 65 55  1  0
 67 69  2  0
 68 67  1  0
 70 68  1  0
 71 80  2  0
 71 76  1  0
 72 68  1  0
 72 76  1  0
 73 72  1  0
 74 75  1  0
 74 73  1  0
 75 71  1  0
 76 77  2  0
 77 78  1  0
 79 78  2  0
 80 79  1  0
 81 55  1  0
 81 86  1  0
 81 82  1  0
 82 85  1  1
 82 83  1  0
 84 82  1  0
 86 89  1  0
 87 91  1  0
 87 86  1  0
 88 87  2  0
 91 90  1  0
 93 91  1  0
 93 94  1  0
 93 92  1  0
 96 95  1  0
M  ISO  4   1 100  20 100  53 101  54 101
M  END
>  <TORSDO>  (37) 
F 19

>  <SCORE>  (37) 
-14.737

>  <name>  (37) 
37

>  <ligand_id>  (37) 
37

>  <original_smiles>  (37) 
[H]OC1([H])C([H])([H])C2(C([H])([H])C([H])([H])N(C(=O)N3C([H])([H])C([H])([H])C([H])([H])C([H])(n4nc(-c5c([H])c([H])c(Oc6c([H])c([H])c(F)c([H])c6F)c([H])c5[H])c(C(=O)N([H])[H])c4N([H])[H])C3([H])[H])C([H])([H])C2([H])C([H])([H])[H])C([H])([H])C([H])([N+]([H])([H])C([H])([H])C([H])([H])Oc2c([H])c([H])c3c(c2[H])C([H])([H])N(C(=O)C([H])(N([H])C(=O)C([H])(N([H])C([H])([H])[H])C([H])([H])[H])C(C([H])([H])[H])(C([H])([H])[H])C([H])([H])[H])C([H])(C(=O)N([H])C2([H])c4c([H])c([H])c([H])c([H])c4C([H])([H])C([H])([H])C2([H])[H])C3([H])[H])C1([H])[H]

>  <smiles>  (37) 
[H]OC1([H])C([H])([H])C2(C([H])([H])C([H])([H])N(C(=O)N3C([H])([H])C([H])([H])C([H])([H])C([H])(n4nc(-c5c([H])c([H])c(Oc6c([H])c([H])c(F)c([H])c6F)c([H])c5[H])c(C(=O)N([H])[H])c4N([H])[H])C3([H])[H])C([H])([H])C2([H])C([H])([H])[H])C([H])([H])C([H])([N+]([H])([H])C([H])([H])C([H])([H])Oc2c([H])c([H])c3c(c2[H])C([H])([H])N(C(=O)C([H])(N([H])C(=O)C([H])(N([H])C([H])([H])[H])C([H])([H])[H])C(C([H])([H])[H])(C([H])([H])[H])C([H])([H])[H])C([H])(C(=O)N([H])C2([H])c4c([H])c([H])c([H])c([H])c4C([H])([H])C([H])([H])C2([H])[H])C3([H])[H])C1([H])[H]

$$$$
38:0:0
     RDKit          3D

 94103  0  0  1  0  0  0  0  0999 V2000
  -30.9100  -25.1520   20.4510 C   0  0  0  0  0  3  0  0  0  0  0  0
  -31.6600  -24.0540   20.0030 C   0  0  0  0  0  3  0  0  0  0  0  0
  -29.2030  -23.6230   21.2820 C   0  0  0  0  0  3  0  0  0  0  0  0
  -29.6590  -24.9450   21.0550 C   0  0  0  0  0  0  0  0  0  0  0  0
  -31.1680  -22.7380   20.1390 C   0  0  0  0  0  0  0  0  0  0  0  0
  -29.9390  -22.5010   20.8250 C   0  0  0  0  0  0  0  0  0  0  0  0
  -31.9540  -21.6410   19.4420 C   0  0  0  0  0  1  0  0  0  0  0  0
  -29.2480  -21.1230   20.8540 C   0  0  0  0  0  2  0  0  0  0  0  0
  -30.0310  -19.8390   21.3360 C   0  0  0  0  0  2  0  0  0  0  0  0
  -28.5980  -17.2320   18.9050 C   0  0  0  0  0  2  0  0  0  0  0  0
  -29.5180  -16.0740   19.2280 C   0  0  0  0  0  2  0  0  0  0  0  0
  -29.2240  -18.5300   19.3880 C   0  0  0  0  0  2  0  0  0  0  0  0
  -30.2870  -17.3140   21.2820 C   0  0  0  0  0  2  0  0  0  0  0  0
  -29.7300  -15.9340   20.7530 C   0  0  0  0  0  3  0  0  0  0  0  0
  -29.4690  -18.5240   20.8590 N   0  0  1  0  0  4  0  0  0  0  0  0
  -28.5650  -18.4320   21.2950 H   0  0  0  0  0  0  0  0  0  0  0  0
  -30.6300  -14.6590   20.9290 C   0  0  0  0  0  0  0  0  0  0  0  0
  -30.5390  -12.4190   19.9160 C   0  0  0  0  0  2  0  0  0  0  0  0
  -29.6930  -12.5100   18.6260 C   0  0  0  0  0  2  0  0  0  0  0  0
  -28.1820  -12.3950   18.9300 C   0  0  0  0  0  2  0  0  0  0  0  0
  -27.7170  -13.2300   20.1550 C   0  0  0  0  0  3  0  0  0  0  0  0
  -28.6970  -13.0950   21.3430 C   0  0  0  0  0  2  0  0  0  0  0  0
  -30.0460  -13.4270   20.8690 N   0  0  0  0  0  0  0  0  0  0  0  0
  -31.8450  -14.8020   20.7730 O   0  0  0  0  0  0  0  0  0  0  0  0
  -25.2600  -13.7930   20.6470 C   0  0  0  0  0  0  0  0  0  0  0  0
  -24.1830  -13.0010   20.9450 C   0  0  0  0  0  0  0  0  0  0  0  0
  -24.6820  -11.6630   20.9940 C   0  0  0  0  0  0  0  0  0  0  0  0
  -26.3420  -12.9320   20.5330 N   0  0  0  0  0  0  0  0  0  0  0  0
  -25.9950  -11.6500   20.7990 N   0  0  0  0  0  0  0  0  0  0  0  0
  -23.9790  -10.3870   21.1590 C   0  0  0  0  0  0  0  0  0  0  0  0
  -24.3800   -9.4440   22.1310 C   0  0  0  0  0  3  0  0  0  0  0  0
  -23.6780   -8.2270   22.2750 C   0  0  0  0  0  3  0  0  0  0  0  0
  -22.5640   -7.9480   21.4480 C   0  0  0  0  0  0  0  0  0  0  0  0
  -22.1840   -8.8800   20.4670 C   0  0  0  0  0  3  0  0  0  0  0  0
  -22.8850  -10.0890   20.3230 C   0  0  0  0  0  3  0  0  0  0  0  0
  -21.8400   -6.7820   21.5010 O   0  0  0  0  0  0  0  0  0  0  0  0
  -21.7540   -6.0420   22.6530 C   0  0  0  0  0  0  0  0  0  0  0  0
  -21.2580   -6.5900   23.8570 C   0  0  0  0  0  3  0  0  0  0  0  0
  -21.1310   -5.7790   25.0010 C   0  0  0  0  0  3  0  0  0  0  0  0
  -21.4800   -4.4160   24.9420 C   0  0  0  0  0  0  0  0  0  0  0  0
  -21.9600   -3.8640   23.7410 C   0  0  0  0  0  3  0  0  0  0  0  0
  -22.0960   -4.6750   22.5990 C   0  0  0  0  0  0  0  0  0  0  0  0
  -22.5440   -4.1360   21.4410 F   0  0  0  0  0  0  0  0  0  0  0  0
  -21.3450   -3.6320   26.0360 F   0  0  0  0  0  0  0  0  0  0  0  0
  -22.7570  -13.4460   21.0870 C   0  0  0  0  0  0  0  0  0  0  0  0
  -21.9810  -12.7500   21.9100 N   0  0  0  0  0  0  0  0  0  0  0  0
  -22.3380  -14.4430   20.5010 O   0  0  0  0  0  0  0  0  0  0  0  0
  -22.3300  -11.9420   22.4040 H   0  0  0  0  0  0  0  0  0  0  0  0
  -21.0190  -13.0280   22.0450 H   0  0  0  0  0  0  0  0  0  0  0  0
  -25.4060  -15.1620   20.4420 N   0  0  0  0  0  0  0  0  0  0  0  0
  -24.6190  -15.8000   20.4680 H   0  0  0  0  0  0  0  0  0  0  0  0
  -26.2670  -15.6050   20.1540 H   0  0  0  0  0  0  0  0  0  0  0  0
  -28.7770  -26.1460   21.3510 C   0  0  0  0  0  2  0  0  0  0  0  0
  -28.4260  -26.8010   20.1350 O   0  0  0  0  0  0  0  0  0  0  0  0
  -24.6130  -31.9450   23.2460 C   0  0  0  0  0  0  0  0  0  0  0  0
  -27.2670  -27.5260   20.1860 C   0  0  0  0  0  0  0  0  0  0  0  0
  -23.4050  -30.5340   21.6080 C   0  0  0  0  0  3  0  0  0  0  0  0
  -24.8610  -28.9910   20.1920 C   0  0  0  0  0  0  0  0  0  0  0  0
  -25.9200  -30.9080   21.3960 C   0  0  0  0  0  2  0  0  0  0  0  0
  -26.0120  -29.5280   20.7840 C   0  0  0  0  0  0  0  0  0  0  0  0
  -27.2170  -28.7970   20.7940 C   0  0  0  0  0  3  0  0  0  0  0  0
  -26.1090  -26.9930   19.5860 C   0  0  0  0  0  3  0  0  0  0  0  0
  -24.9010  -27.7160   19.5940 C   0  0  0  0  0  3  0  0  0  0  0  0
  -23.6130  -29.8420   20.2320 C   0  0  0  0  0  2  0  0  0  0  0  0
  -24.6650  -31.1440   22.1450 N   0  0  0  0  0  0  0  0  0  0  0  0
  -23.5330  -32.2170   23.7910 O   0  0  0  0  0  0  0  0  0  0  0  0
  -22.7560  -29.5210   22.5780 C   0  0  0  0  0  0  0  0  0  0  0  0
  -21.4320  -29.3360   22.4490 N   0  0  0  0  0  0  0  0  0  0  0  0
  -23.4420  -28.9010   23.3960 O   0  0  0  0  0  0  0  0  0  0  0  0
  -20.9430  -29.8900   21.7590 H   0  0  0  0  0  0  0  0  0  0  0  0
  -18.0620  -28.1370   22.9440 C   0  0  0  0  0  0  0  0  0  0  0  0
  -20.6180  -28.4010   23.2230 C   0  0  0  0  0  3  0  0  0  0  0  0
  -20.7280  -26.9690   22.6530 C   0  0  0  0  0  2  0  0  0  0  0  0
  -19.6310  -26.6370   21.6380 C   0  0  0  0  0  2  0  0  0  0  0  0
  -18.2450  -26.7840   22.2750 C   0  0  0  0  0  2  0  0  0  0  0  0
  -19.1780  -28.9020   23.3740 C   0  0  0  0  0  0  0  0  0  0  0  0
  -18.9580  -30.1690   23.9570 C   0  0  0  0  0  3  0  0  0  0  0  0
  -17.6540  -30.6680   24.1210 C   0  0  0  0  0  3  0  0  0  0  0  0
  -16.5510  -29.9010   23.7090 C   0  0  0  0  0  3  0  0  0  0  0  0
  -16.7560  -28.6380   23.1240 C   0  0  0  0  0  3  0  0  0  0  0  0
  -25.9020  -32.5780   23.8600 C   0  0  0  0  0  3  0  0  0  0  0  0
  -26.4360  -31.7990   25.1260 C   0  0  1  0  0  0  0  0  0  0  0  0
  -25.3600  -31.5460   26.2060 C   0  0  0  0  0  1  0  0  0  0  0  0
  -27.0240  -30.4300   24.7110 C   0  0  0  0  0  1  0  0  0  0  0  0
  -27.5900  -32.5950   25.7780 C   0  0  0  0  0  1  0  0  0  0  0  0
  -25.5950  -33.9740   24.1990 N   0  0  0  0  0  0  0  0  0  0  0  0
  -25.9270  -35.0280   23.4410 C   0  0  0  0  0  0  0  0  0  0  0  0
  -26.5970  -34.9290   22.4110 O   0  0  0  0  0  0  0  0  0  0  0  0
  -25.0090  -34.1280   25.0070 H   0  0  0  0  0  0  0  0  0  0  0  0
  -24.2060  -36.8260   23.0790 C   0  0  0  0  0  1  0  0  0  0  0  0
  -25.4380  -36.4140   23.9010 C   0  0  0  0  0  3  0  0  0  0  0  0
  -27.5660  -37.2900   24.7560 C   0  0  0  0  0  1  0  0  0  0  0  0
  -26.4720  -37.4680   23.8040 N   0  0  0  0  0  0  0  0  0  0  0  0
  -26.0660  -38.3870   23.9570 H   0  0  0  0  0  0  0  0  0  0  0  0
  1  4  1  0
  2  5  1  0
  2  1  2  0
  4  3  2  0
  4 53  1  0
  5  6  2  0
  6  8  1  0
  6  3  1  0
  7  5  1  0
  8  9  1  0
 10 11  1  0
 10 12  1  0
 11 14  1  0
 12 15  1  0
 14 17  1  0
 14 13  1  0
 15 13  1  0
 15 16  1  1
 15  9  1  0
 18 23  1  0
 19 20  1  0
 19 18  1  0
 21 20  1  0
 21 28  1  0
 21 22  1  0
 23 17  1  0
 23 22  1  0
 24 17  2  0
 25 26  2  0
 26 27  1  0
 26 45  1  0
 27 30  1  0
 28 25  1  0
 28 29  1  0
 29 27  2  0
 30 31  1  0
 31 32  2  0
 33 36  1  0
 33 32  1  0
 34 33  2  0
 35 34  1  0
 35 30  2  0
 36 37  1  0
 37 38  1  0
 38 39  2  0
 40 39  1  0
 40 44  1  0
 41 40  2  0
 42 37  2  0
 42 41  1  0
 43 42  1  0
 45 46  1  0
 46 49  1  0
 46 48  1  0
 47 45  2  0
 50 51  1  0
 50 25  1  0
 52 50  1  0
 54 56  1  0
 54 53  1  0
 55 66  2  0
 56 61  1  0
 57 65  1  0
 57 67  1  0
 58 64  1  0
 58 60  1  0
 59 65  1  0
 60 61  2  0
 60 59  1  0
 62 63  1  0
 62 56  2  0
 63 58  2  0
 64 57  1  0
 65 55  1  0
 67 69  2  0
 68 67  1  0
 70 68  1  0
 71 80  2  0
 71 76  1  0
 72 68  1  0
 72 76  1  0
 73 72  1  0
 74 75  1  0
 74 73  1  0
 75 71  1  0
 76 77  2  0
 77 78  1  0
 79 78  2  0
 80 79  1  0
 81 55  1  0
 81 86  1  0
 81 82  1  0
 82 85  1  1
 82 83  1  0
 84 82  1  0
 86 89  1  0
 87 91  1  0
 87 86  1  0
 88 87  2  0
 91 90  1  0
 93 91  1  0
 93 94  1  0
 93 92  1  0
M  ISO  4  14 100  17 100  53 101  54 101
M  END
>  <TORSDO>  (38) 
F 20

>  <SCORE>  (38) 
-14.047

>  <name>  (38) 
38

>  <ligand_id>  (38) 
38

>  <original_smiles>  (38) 
[H]c1c([H])c([H])c2c(c1[H])C([H])([H])C([H])([H])C([H])([H])C2([H])N([H])C(=O)C1([H])N(C(=O)C([H])(N([H])C(=O)C([H])(N([H])C([H])([H])[H])C([H])([H])[H])C(C([H])([H])[H])(C([H])([H])[H])C([H])([H])[H])C([H])([H])c2c([H])c(OC([H])([H])c3c([H])c([H])c(C([H])([H])[H])c(C([H])([H])C([H])([H])[N+]4([H])C([H])([H])C([H])([H])C([H])([H])C([H])(C(=O)N5C([H])([H])C([H])([H])C([H])([H])C([H])(n6nc(-c7c([H])c([H])c(Oc8c([H])c([H])c(F)c([H])c8F)c([H])c7[H])c(C(=O)N([H])[H])c6N([H])[H])C5([H])[H])C4([H])[H])c3[H])c([H])c([H])c2C1([H])[H]

>  <smiles>  (38) 
[H]c1c([H])c([H])c2c(c1[H])C([H])([H])C([H])([H])C([H])([H])C2([H])N([H])C(=O)C1([H])N(C(=O)C([H])(N([H])C(=O)C([H])(N([H])C([H])([H])[H])C([H])([H])[H])C(C([H])([H])[H])(C([H])([H])[H])C([H])([H])[H])C([H])([H])c2c([H])c(OC([H])([H])c3c([H])c([H])c(C([H])([H])[H])c(C([H])([H])C([H])([H])[N+]4([H])C([H])([H])C([H])([H])C([H])([H])C([H])(C(=O)N5C([H])([H])C([H])([H])C([H])([H])C([H])(n6nc(-c7c([H])c([H])c(Oc8c([H])c([H])c(F)c([H])c8F)c([H])c7[H])c(C(=O)N([H])[H])c6N([H])[H])C5([H])[H])C4([H])[H])c3[H])c([H])c([H])c2C1([H])[H]

$$$$
39:0:0
     RDKit          3D

 88 97  0  0  1  0  0  0  0  0999 V2000
  -28.8080  -20.4420   19.1830 C   0  0  0  0  0  3  0  0  0  0  0  0
  -28.4220  -21.8900   19.1280 C   0  0  0  0  0  0  0  0  0  0  0  0
  -28.6000  -22.7520   20.1920 C   0  0  0  0  0  0  0  0  0  0  0  0
  -29.3500  -19.8950   20.3530 C   0  0  0  0  0  0  0  0  0  0  0  0
  -27.7200  -22.6020   18.0330 C   0  0  0  0  0  3  0  0  0  0  0  0
  -27.3470  -24.0330   18.5440 C   0  0  0  0  0  3  0  0  0  0  0  0
  -27.7550  -24.2620   20.0400 C   0  0  0  0  0  3  0  0  0  0  0  0
  -29.2920  -21.4880   21.4030 S   0  0  0  0  0  0  0  0  0  0  0  0
  -28.1160  -25.8710   20.2600 O   0  0  0  0  0  0  0  0  0  0  0  0
  -24.5700  -31.9060   23.2480 C   0  0  0  0  0  0  0  0  0  0  0  0
  -27.1270  -27.0100   20.2160 C   0  0  0  0  0  0  0  0  0  0  0  0
  -23.3810  -30.5180   21.6060 C   0  0  0  0  0  3  0  0  0  0  0  0
  -24.8330  -28.9260   20.1870 C   0  0  0  0  0  0  0  0  0  0  0  0
  -25.9590  -30.7180   21.4740 C   0  0  0  0  0  2  0  0  0  0  0  0
  -26.0300  -29.3150   20.8010 C   0  0  0  0  0  0  0  0  0  0  0  0
  -27.1730  -28.3830   20.7820 C   0  0  0  0  0  3  0  0  0  0  0  0
  -25.8820  -26.7940   19.5770 C   0  0  0  0  0  3  0  0  0  0  0  0
  -24.7840  -27.6800   19.5590 C   0  0  0  0  0  3  0  0  0  0  0  0
  -23.6150  -29.8480   20.2290 C   0  0  0  0  0  2  0  0  0  0  0  0
  -24.6580  -31.0720   22.1620 N   0  0  0  0  0  0  0  0  0  0  0  0
  -23.4750  -32.1970   23.7590 O   0  0  0  0  0  0  0  0  0  0  0  0
  -22.6800  -29.5160   22.5630 C   0  0  0  0  0  0  0  0  0  0  0  0
  -21.3520  -29.3420   22.4200 N   0  0  0  0  0  0  0  0  0  0  0  0
  -23.3380  -28.8950   23.3990 O   0  0  0  0  0  0  0  0  0  0  0  0
  -20.8750  -29.8900   21.7180 H   0  0  0  0  0  0  0  0  0  0  0  0
  -17.9660  -28.1300   22.9110 C   0  0  0  0  0  0  0  0  0  0  0  0
  -20.5250  -28.4030   23.1850 C   0  0  0  0  0  3  0  0  0  0  0  0
  -20.6320  -26.9710   22.6120 C   0  0  0  0  0  2  0  0  0  0  0  0
  -19.5350  -26.6440   21.5930 C   0  0  0  0  0  2  0  0  0  0  0  0
  -18.1500  -26.7850   22.2320 C   0  0  0  0  0  2  0  0  0  0  0  0
  -19.0800  -28.8990   23.3440 C   0  0  0  0  0  0  0  0  0  0  0  0
  -18.8500  -30.1560   23.9430 C   0  0  0  0  0  3  0  0  0  0  0  0
  -17.5420  -30.6470   24.1110 C   0  0  0  0  0  3  0  0  0  0  0  0
  -16.4430  -29.8760   23.6930 C   0  0  0  0  0  3  0  0  0  0  0  0
  -16.6560  -28.6200   23.0990 C   0  0  0  0  0  3  0  0  0  0  0  0
  -25.8370  -32.5490   23.8880 C   0  0  0  0  0  3  0  0  0  0  0  0
  -25.5230  -33.9560   24.1960 N   0  0  0  0  0  0  0  0  0  0  0  0
  -25.8570  -35.0030   23.4300 C   0  0  0  0  0  0  0  0  0  0  0  0
  -26.5210  -34.8840   22.3970 O   0  0  0  0  0  0  0  0  0  0  0  0
  -24.9320  -34.1240   24.9960 H   0  0  0  0  0  0  0  0  0  0  0  0
  -24.1380  -36.8090   23.0650 C   0  0  0  0  0  1  0  0  0  0  0  0
  -25.3790  -36.4000   23.8760 C   0  0  0  0  0  3  0  0  0  0  0  0
  -27.5200  -37.2840   24.6980 C   0  0  0  0  0  1  0  0  0  0  0  0
  -26.4160  -37.4490   23.7550 N   0  0  0  0  0  0  0  0  0  0  0  0
  -26.0130  -38.3700   23.9020 H   0  0  0  0  0  0  0  0  0  0  0  0
  -26.3130  -31.8040   25.1960 C   0  0  1  0  0  0  0  0  0  0  0  0
  -25.1920  -31.6000   26.2440 C   0  0  0  0  0  1  0  0  0  0  0  0
  -26.8920  -30.4120   24.8610 C   0  0  0  0  0  1  0  0  0  0  0  0
  -27.4530  -32.6060   25.8650 C   0  0  0  0  0  1  0  0  0  0  0  0
  -30.0930  -18.3330   20.6520 C   0  0  0  0  0  2  0  0  0  0  0  0
  -30.4200  -15.4270   20.3770 C   0  0  0  0  0  0  0  0  0  0  0  0
  -30.4180  -12.9830   19.4890 C   0  0  0  0  0  2  0  0  0  0  0  0
  -29.5090  -12.7000   18.2670 C   0  0  0  0  0  2  0  0  0  0  0  0
  -28.0700  -12.3950   18.7110 C   0  0  0  0  0  2  0  0  0  0  0  0
  -27.5790  -13.3800   19.7980 C   0  0  0  0  0  3  0  0  0  0  0  0
  -28.6160  -13.6040   20.9240 C   0  0  0  0  0  2  0  0  0  0  0  0
  -29.8390  -14.1260   20.2880 N   0  0  0  0  0  0  0  0  0  0  0  0
  -31.6440  -15.4080   20.1840 O   0  0  0  0  0  0  0  0  0  0  0  0
  -29.6900  -16.7200   20.4890 N   0  0  0  0  0  0  0  0  0  0  0  0
  -28.6950  -16.5740   20.5790 H   0  0  0  0  0  0  0  0  0  0  0  0
  -25.2010  -13.8920   20.5630 C   0  0  0  0  0  0  0  0  0  0  0  0
  -24.1530  -13.0990   20.9280 C   0  0  0  0  0  0  0  0  0  0  0  0
  -24.6370  -11.7550   20.8820 C   0  0  0  0  0  0  0  0  0  0  0  0
  -26.2580  -13.0350   20.3100 N   0  0  0  0  0  0  0  0  0  0  0  0
  -25.9300  -11.7430   20.5710 N   0  0  0  0  0  0  0  0  0  0  0  0
  -23.9270  -10.4810   21.0590 C   0  0  0  0  0  0  0  0  0  0  0  0
  -24.3540   -9.5220   22.0040 C   0  0  0  0  0  3  0  0  0  0  0  0
  -23.6440   -8.3140   22.1700 C   0  0  0  0  0  3  0  0  0  0  0  0
  -22.4900   -8.0560   21.3920 C   0  0  0  0  0  0  0  0  0  0  0  0
  -22.0800   -9.0020   20.4380 C   0  0  0  0  0  3  0  0  0  0  0  0
  -22.7910  -10.2030   20.2700 C   0  0  0  0  0  3  0  0  0  0  0  0
  -21.7520   -6.8990   21.4670 O   0  0  0  0  0  0  0  0  0  0  0  0
  -21.6630   -6.1750   22.6290 C   0  0  0  0  0  0  0  0  0  0  0  0
  -21.1190   -6.7250   23.8100 C   0  0  0  0  0  3  0  0  0  0  0  0
  -20.9850   -5.9250   24.9630 C   0  0  0  0  0  3  0  0  0  0  0  0
  -21.3810   -4.5740   24.9330 C   0  0  0  0  0  0  0  0  0  0  0  0
  -21.9120   -4.0230   23.7550 C   0  0  0  0  0  3  0  0  0  0  0  0
  -22.0520   -4.8220   22.6040 C   0  0  0  0  0  0  0  0  0  0  0  0
  -22.5490   -4.2790   21.4670 F   0  0  0  0  0  0  0  0  0  0  0  0
  -21.2440   -3.8030   26.0360 F   0  0  0  0  0  0  0  0  0  0  0  0
  -22.7490  -13.5540   21.2000 C   0  0  0  0  0  0  0  0  0  0  0  0
  -22.0270  -12.8410   22.0550 N   0  0  0  0  0  0  0  0  0  0  0  0
  -22.3000  -14.5780   20.6850 O   0  0  0  0  0  0  0  0  0  0  0  0
  -22.4040  -12.0150   22.4990 H   0  0  0  0  0  0  0  0  0  0  0  0
  -21.0850  -13.1290   22.2770 H   0  0  0  0  0  0  0  0  0  0  0  0
  -25.3400  -15.2670   20.3880 N   0  0  0  0  0  0  0  0  0  0  0  0
  -24.5450  -15.8930   20.4620 H   0  0  0  0  0  0  0  0  0  0  0  0
  -26.1520  -15.7050   19.9740 H   0  0  0  0  0  0  0  0  0  0  0  0
  1  4  2  0
  2  1  1  0
  2  3  2  0
  3  8  1  0
  4 50  1  0
  4  8  1  0
  5  6  2  0
  5  2  1  0
  6  7  1  0
  7  3  1  0
  7  9  1  0
 10 21  2  0
 11  9  1  0
 11 16  1  0
 12 20  1  0
 12 22  1  0
 13 19  1  0
 13 15  1  0
 14 20  1  0
 15 14  1  0
 16 15  2  0
 17 11  2  0
 18 17  1  0
 18 13  2  0
 19 12  1  0
 20 10  1  0
 22 24  2  0
 23 22  1  0
 25 23  1  0
 26 35  2  0
 26 31  1  0
 27 23  1  0
 27 31  1  0
 28 27  1  0
 29 30  1  0
 29 28  1  0
 30 26  1  0
 31 32  2  0
 32 33  1  0
 34 33  2  0
 35 34  1  0
 36 10  1  0
 36 37  1  0
 36 46  1  0
 37 40  1  0
 38 42  1  0
 38 37  1  0
 39 38  2  0
 42 41  1  0
 44 42  1  0
 44 45  1  0
 44 43  1  0
 46 49  1  1
 46 47  1  0
 48 46  1  0
 51 59  1  0
 52 57  1  0
 53 54  1  0
 53 52  1  0
 55 54  1  0
 55 64  1  0
 55 56  1  0
 57 51  1  0
 57 56  1  0
 58 51  2  0
 59 60  1  0
 59 50  1  0
 61 62  2  0
 62 81  1  0
 63 62  1  0
 63 66  1  0
 64 61  1  0
 64 65  1  0
 65 63  2  0
 66 67  1  0
 67 68  2  0
 69 72  1  0
 69 68  1  0
 70 69  2  0
 71 70  1  0
 71 66  2  0
 72 73  1  0
 73 74  1  0
 74 75  2  0
 76 75  1  0
 76 80  1  0
 77 76  2  0
 78 73  2  0
 78 77  1  0
 79 78  1  0
 81 82  1  0
 82 85  1  0
 82 84  1  0
 83 81  2  0
 86 87  1  0
 86 61  1  0
 88 86  1  0
M  ISO  4   7 101   9 101  51 100  59 100
M  END
>  <TORSDO>  (39) 
F 17

>  <SCORE>  (39) 
-16.434

>  <name>  (39) 
39

>  <ligand_id>  (39) 
39

>  <original_smiles>  (39) 
[H]c1c([H])c([H])c2c(c1[H])C([H])([H])C([H])([H])C([H])([H])C2([H])N([H])C(=O)C1([H])N(C(=O)C([H])(N([H])C(=O)C([H])(N([H])C([H])([H])[H])C([H])([H])[H])C(C([H])([H])[H])(C([H])([H])[H])C([H])([H])[H])C([H])([H])c2c([H])c(OC3([H])c4sc(C([H])([H])N([H])C(=O)N5C([H])([H])C([H])([H])C([H])([H])C([H])(n6nc(-c7c([H])c([H])c(Oc8c([H])c([H])c(F)c([H])c8F)c([H])c7[H])c(C(=O)N([H])[H])c6N([H])[H])C5([H])[H])c([H])c4C([H])([H])C3([H])[H])c([H])c([H])c2C1([H])[H]

>  <smiles>  (39) 
[H]c1c([H])c([H])c2c(c1[H])C([H])([H])C([H])([H])C([H])([H])C2([H])N([H])C(=O)C1([H])N(C(=O)C([H])(N([H])C(=O)C([H])(N([H])C([H])([H])[H])C([H])([H])[H])C(C([H])([H])[H])(C([H])([H])[H])C([H])([H])[H])C([H])([H])c2c([H])c(OC3([H])c4sc(C([H])([H])N([H])C(=O)N5C([H])([H])C([H])([H])C([H])([H])C([H])(n6nc(-c7c([H])c([H])c(Oc8c([H])c([H])c(F)c([H])c8F)c([H])c7[H])c(C(=O)N([H])[H])c6N([H])[H])C5([H])[H])c([H])c4C([H])([H])C3([H])[H])c([H])c([H])c2C1([H])[H]

$$$$
40:0:0
     RDKit          3D

 92100  0  0  1  0  0  0  0  0999 V2000
  -27.4500  -22.9440   22.8050 C   0  0  0  0  0  3  0  0  0  0  0  0
  -28.0760  -22.2680   21.7530 C   0  0  0  0  0  3  0  0  0  0  0  0
  -27.2940  -24.3250   22.7260 C   0  0  0  0  0  3  0  0  0  0  0  0
  -28.5750  -22.9140   20.5860 C   0  0  0  0  0  0  0  0  0  0  0  0
  -28.3300  -24.3800   20.4670 C   0  0  0  0  0  0  0  0  0  0  0  0
  -27.7250  -25.0190   21.5910 C   0  0  0  0  0  0  0  0  0  0  0  0
  -27.5370  -26.3550   21.6320 F   0  0  0  0  0  0  0  0  0  0  0  0
  -29.2300  -21.9180   19.5830 C   0  0  0  0  0  0  0  0  0  0  0  0
  -29.6640  -20.6860   20.0710 N   0  0  0  0  0  0  0  0  0  0  0  0
  -29.3060  -22.2050   18.3880 O   0  0  0  0  0  0  0  0  0  0  0  0
  -29.6370  -20.6360   21.0790 H   0  0  0  0  0  0  0  0  0  0  0  0
  -29.8310  -19.3250   19.3970 C   0  0  0  0  0  2  0  0  0  0  0  0
  -30.6360  -18.1210   20.1470 C   0  0  0  0  0  2  0  0  0  0  0  0
  -30.1790  -16.5770   19.9300 C   0  0  0  0  0  2  0  0  0  0  0  0
  -31.1570  -15.2890   19.9290 C   0  0  0  0  0  0  0  0  0  0  0  0
  -31.0610  -12.9370   19.0830 C   0  0  0  0  0  2  0  0  0  0  0  0
  -30.0960  -12.9210   17.8760 C   0  0  0  0  0  2  0  0  0  0  0  0
  -28.6230  -12.7860   18.3220 C   0  0  0  0  0  2  0  0  0  0  0  0
  -28.2660  -13.7190   19.5090 C   0  0  0  0  0  3  0  0  0  0  0  0
  -29.3450  -13.6680   20.6090 C   0  0  0  0  0  2  0  0  0  0  0  0
  -30.6290  -14.0190   19.9940 N   0  0  0  0  0  0  0  0  0  0  0  0
  -32.3460  -15.4320   19.6230 O   0  0  0  0  0  0  0  0  0  0  0  0
  -25.9350  -14.3460   20.3790 C   0  0  0  0  0  0  0  0  0  0  0  0
  -24.8600  -13.5840   20.7550 C   0  0  0  0  0  0  0  0  0  0  0  0
  -25.2790  -12.2240   20.6320 C   0  0  0  0  0  0  0  0  0  0  0  0
  -26.9380  -13.4480   20.0480 N   0  0  0  0  0  0  0  0  0  0  0  0
  -26.5540  -12.1650   20.2670 N   0  0  0  0  0  0  0  0  0  0  0  0
  -24.5240  -10.9750   20.7910 C   0  0  0  0  0  0  0  0  0  0  0  0
  -24.9120   -9.9920   21.7280 C   0  0  0  0  0  3  0  0  0  0  0  0
  -24.1580   -8.8070   21.8760 C   0  0  0  0  0  3  0  0  0  0  0  0
  -23.0010   -8.5990   21.0900 C   0  0  0  0  0  0  0  0  0  0  0  0
  -22.6330   -9.5700   20.1430 C   0  0  0  0  0  3  0  0  0  0  0  0
  -23.3870  -10.7460   19.9920 C   0  0  0  0  0  3  0  0  0  0  0  0
  -22.2220   -7.4680   21.1470 O   0  0  0  0  0  0  0  0  0  0  0  0
  -22.0580   -6.7640   22.3120 C   0  0  0  0  0  0  0  0  0  0  0  0
  -21.4950   -7.3530   23.4670 C   0  0  0  0  0  3  0  0  0  0  0  0
  -21.2790   -6.5720   24.6210 C   0  0  0  0  0  3  0  0  0  0  0  0
  -21.6180   -5.2040   24.6190 C   0  0  0  0  0  0  0  0  0  0  0  0
  -22.1720   -4.6180   23.4700 C   0  0  0  0  0  3  0  0  0  0  0  0
  -22.3890   -5.3950   22.3180 C   0  0  0  0  0  0  0  0  0  0  0  0
  -22.9030   -4.8170   21.2050 F   0  0  0  0  0  0  0  0  0  0  0  0
  -21.4060   -4.4530   25.7250 F   0  0  0  0  0  0  0  0  0  0  0  0
  -23.4900  -14.0840   21.1120 C   0  0  0  0  0  0  0  0  0  0  0  0
  -22.7830  -13.3680   21.9790 N   0  0  0  0  0  0  0  0  0  0  0  0
  -23.0590  -15.1430   20.6620 O   0  0  0  0  0  0  0  0  0  0  0  0
  -23.1480  -12.5130   22.3710 H   0  0  0  0  0  0  0  0  0  0  0  0
  -21.8640  -13.6820   22.2600 H   0  0  0  0  0  0  0  0  0  0  0  0
  -26.1340  -15.7190   20.2660 N   0  0  0  0  0  0  0  0  0  0  0  0
  -25.3920  -16.3870   20.4450 H   0  0  0  0  0  0  0  0  0  0  0  0
  -26.9850  -16.1550   19.9360 H   0  0  0  0  0  0  0  0  0  0  0  0
  -28.6120  -25.3460   19.2350 C   0  0  0  0  0  2  0  0  0  0  0  0
  -28.5850  -26.8540   19.3850 O   0  0  0  0  0  0  0  0  0  0  0  0
  -24.7090  -31.7680   23.0250 C   0  0  0  0  0  0  0  0  0  0  0  0
  -27.4140  -27.6480   19.4290 C   0  0  0  0  0  0  0  0  0  0  0  0
  -23.5130  -30.4800   21.2900 C   0  0  0  0  0  3  0  0  0  0  0  0
  -24.9800  -29.1550   19.6600 C   0  0  0  0  0  0  0  0  0  0  0  0
  -26.0270  -30.9410   21.0530 C   0  0  0  0  0  2  0  0  0  0  0  0
  -26.1470  -29.6380   20.2630 C   0  0  0  0  0  0  0  0  0  0  0  0
  -27.3640  -28.8980   20.1320 C   0  0  0  0  0  3  0  0  0  0  0  0
  -26.2190  -27.2250   18.8100 C   0  0  0  0  0  3  0  0  0  0  0  0
  -25.0220  -27.9620   18.9190 C   0  0  0  0  0  3  0  0  0  0  0  0
  -23.7060  -29.9570   19.8420 C   0  0  0  0  0  2  0  0  0  0  0  0
  -24.7710  -31.0760   21.8480 N   0  0  0  0  0  0  0  0  0  0  0  0
  -23.6340  -31.9340   23.6200 O   0  0  0  0  0  0  0  0  0  0  0  0
  -22.9370  -29.3420   22.1660 C   0  0  0  0  0  0  0  0  0  0  0  0
  -21.6180  -29.1070   22.0620 N   0  0  0  0  0  0  0  0  0  0  0  0
  -23.6730  -28.6780   22.9000 O   0  0  0  0  0  0  0  0  0  0  0  0
  -21.0800  -29.7000   21.4460 H   0  0  0  0  0  0  0  0  0  0  0  0
  -18.3190  -27.7020   22.5570 C   0  0  0  0  0  0  0  0  0  0  0  0
  -20.8740  -28.0540   22.7560 C   0  0  0  0  0  3  0  0  0  0  0  0
  -21.0120  -26.6990   22.0210 C   0  0  0  0  0  2  0  0  0  0  0  0
  -19.8820  -26.4350   21.0220 C   0  0  0  0  0  2  0  0  0  0  0  0
  -18.5240  -26.4440   21.7300 C   0  0  0  0  0  2  0  0  0  0  0  0
  -19.4210  -28.4660   23.0240 C   0  0  0  0  0  0  0  0  0  0  0  0
  -19.1720  -29.6450   23.7590 C   0  0  0  0  0  3  0  0  0  0  0  0
  -17.8550  -30.0620   24.0310 C   0  0  0  0  0  3  0  0  0  0  0  0
  -16.7680  -29.2920   23.5780 C   0  0  0  0  0  3  0  0  0  0  0  0
  -17.0010  -28.1140   22.8460 C   0  0  0  0  0  3  0  0  0  0  0  0
  -25.9800  -32.4000   23.6710 C   0  0  0  0  0  3  0  0  0  0  0  0
  -25.6390  -33.7700   24.0810 N   0  0  0  0  0  0  0  0  0  0  0  0
  -25.9470  -34.8730   23.3860 C   0  0  0  0  0  0  0  0  0  0  0  0
  -26.6160  -34.8440   22.3500 O   0  0  0  0  0  0  0  0  0  0  0  0
  -25.0390  -33.8640   24.8880 H   0  0  0  0  0  0  0  0  0  0  0  0
  -24.1730  -36.6420   23.1500 C   0  0  0  0  0  1  0  0  0  0  0  0
  -25.4320  -36.2220   23.9260 C   0  0  0  0  0  3  0  0  0  0  0  0
  -27.5490  -37.1150   24.7940 C   0  0  0  0  0  1  0  0  0  0  0  0
  -26.4380  -37.3030   23.8620 N   0  0  0  0  0  0  0  0  0  0  0  0
  -26.0120  -38.2060   24.0550 H   0  0  0  0  0  0  0  0  0  0  0  0
  -26.5280  -31.5750   24.9000 C   0  0  1  0  0  0  0  0  0  0  0  0
  -25.4490  -31.2440   25.9580 C   0  0  0  0  0  1  0  0  0  0  0  0
  -27.1480  -30.2400   24.4280 C   0  0  0  0  0  1  0  0  0  0  0  0
  -27.6590  -32.3650   25.5990 C   0  0  0  0  0  1  0  0  0  0  0  0
  2  1  2  0
  3  1  1  0
  4  2  1  0
  5  4  2  0
  5  6  1  0
  6  7  1  0
  6  3  2  0
  8  9  1  0
  8  4  1  0
  9 11  1  0
 10  8  2  0
 12  9  1  0
 12 13  1  0
 14 13  1  0
 15 14  1  0
 15 21  1  0
 16 21  1  0
 17 18  1  0
 17 16  1  0
 19 18  1  0
 19 26  1  0
 19 20  1  0
 21 20  1  0
 22 15  2  0
 23 24  2  0
 24 43  1  0
 25 24  1  0
 25 28  1  0
 26 27  1  0
 26 23  1  0
 27 25  2  0
 28 29  1  0
 29 30  2  0
 31 34  1  0
 31 30  1  0
 32 31  2  0
 33 32  1  0
 33 28  2  0
 34 35  1  0
 35 40  2  0
 35 36  1  0
 36 37  2  0
 38 37  1  0
 38 42  1  0
 39 38  2  0
 40 39  1  0
 41 40  1  0
 43 44  1  0
 44 47  1  0
 44 46  1  0
 45 43  2  0
 48 23  1  0
 48 49  1  0
 50 48  1  0
 51 52  1  0
 51  5  1  0
 52 54  1  0
 53 64  2  0
 54 59  1  0
 55 63  1  0
 55 65  1  0
 56 62  1  0
 56 58  1  0
 57 63  1  0
 58 57  1  0
 59 58  2  0
 60 61  1  0
 60 54  2  0
 61 56  2  0
 62 55  1  0
 63 53  1  0
 65 67  2  0
 66 65  1  0
 68 66  1  0
 69 78  2  0
 69 74  1  0
 70 66  1  0
 70 74  1  0
 71 70  1  0
 72 73  1  0
 72 71  1  0
 73 69  1  0
 74 75  2  0
 75 76  1  0
 77 76  2  0
 78 77  1  0
 79 53  1  0
 79 80  1  0
 79 89  1  0
 80 83  1  0
 81 85  1  0
 81 80  1  0
 82 81  2  0
 85 84  1  0
 87 85  1  0
 87 88  1  0
 87 86  1  0
 89 92  1  1
 89 90  1  0
 91 89  1  0
M  ISO  4  14 100  15 100  51 101  52 101
M  END
>  <TORSDO>  (40) 
F 21

>  <SCORE>  (40) 
-9.871

>  <name>  (40) 
40

>  <ligand_id>  (40) 
40

>  <original_smiles>  (40) 
[H]c1c([H])c(F)c(C([H])([H])Oc2c([H])c([H])c3c(c2[H])C([H])([H])N(C(=O)C([H])(N([H])C(=O)C([H])(N([H])C([H])([H])[H])C([H])([H])[H])C(C([H])([H])[H])(C([H])([H])[H])C([H])([H])[H])C([H])(C(=O)N([H])C2([H])c4c([H])c([H])c([H])c([H])c4C([H])([H])C([H])([H])C2([H])[H])C3([H])[H])c(C(=O)N([H])C([H])([H])C([H])([H])C([H])([H])C(=O)N2C([H])([H])C([H])([H])C([H])([H])C([H])(n3nc(-c4c([H])c([H])c(Oc5c([H])c([H])c(F)c([H])c5F)c([H])c4[H])c(C(=O)N([H])[H])c3N([H])[H])C2([H])[H])c1[H]

>  <smiles>  (40) 
[H]c1c([H])c(F)c(C([H])([H])Oc2c([H])c([H])c3c(c2[H])C([H])([H])N(C(=O)C([H])(N([H])C(=O)C([H])(N([H])C([H])([H])[H])C([H])([H])[H])C(C([H])([H])[H])(C([H])([H])[H])C([H])([H])[H])C([H])(C(=O)N([H])C2([H])c4c([H])c([H])c([H])c([H])c4C([H])([H])C([H])([H])C2([H])[H])C3([H])[H])c(C(=O)N([H])C([H])([H])C([H])([H])C([H])([H])C(=O)N2C([H])([H])C([H])([H])C([H])([H])C([H])(n3nc(-c4c([H])c([H])c(Oc5c([H])c([H])c(F)c([H])c5F)c([H])c4[H])c(C(=O)N([H])[H])c3N([H])[H])C2([H])[H])c1[H]

$$$$
41:0:0
     RDKit          3D

 94103  0  0  1  0  0  0  0  0999 V2000
  -29.2080  -23.4770   21.2680 C   0  0  0  0  0  3  0  0  0  0  0  0
  -30.0980  -22.3960   21.4400 C   0  0  0  0  0  3  0  0  0  0  0  0
  -30.2520  -23.9970   19.1400 C   0  0  0  0  0  3  0  0  0  0  0  0
  -29.2590  -24.2750   20.1040 C   0  0  0  0  0  0  0  0  0  0  0  0
  -31.0680  -22.0860   20.4590 C   0  0  0  0  0  0  0  0  0  0  0  0
  -31.1560  -22.9210   19.3100 C   0  0  0  0  0  0  0  0  0  0  0  0
  -32.1960  -22.6730   18.2260 C   0  0  0  0  0  1  0  0  0  0  0  0
  -32.0200  -20.8990   20.6850 C   0  0  0  0  0  2  0  0  0  0  0  0
  -31.7630  -19.6430   19.8030 C   0  0  0  0  0  2  0  0  0  0  0  0
  -29.2660  -16.7450   20.1700 C   0  0  0  0  0  2  0  0  0  0  0  0
  -30.9280  -16.6050   22.0640 C   0  0  0  0  0  2  0  0  0  0  0  0
  -30.2110  -17.7450   19.4720 C   0  0  0  0  0  2  0  0  0  0  0  0
  -31.7830  -17.6690   21.3270 C   0  0  0  0  0  2  0  0  0  0  0  0
  -29.9680  -15.7810   21.1610 C   0  0  0  0  0  3  0  0  0  0  0  0
  -30.9640  -18.5620   20.4580 N   0  0  1  0  0  4  0  0  0  0  0  0
  -30.2770  -19.0270   21.0330 H   0  0  0  0  0  0  0  0  0  0  0  0
  -30.6250  -14.5580   20.4500 C   0  0  0  0  0  0  0  0  0  0  0  0
  -30.3460  -12.3910   19.2870 C   0  0  0  0  0  2  0  0  0  0  0  0
  -29.3940  -12.5720   18.0850 C   0  0  0  0  0  2  0  0  0  0  0  0
  -27.9190  -12.4250   18.5120 C   0  0  0  0  0  2  0  0  0  0  0  0
  -27.5790  -13.2610   19.7720 C   0  0  0  0  0  3  0  0  0  0  0  0
  -28.6380  -13.0340   20.8730 C   0  0  0  0  0  2  0  0  0  0  0  0
  -29.9620  -13.3710   20.3200 N   0  0  0  0  0  0  0  0  0  0  0  0
  -31.7260  -14.7430   19.9250 O   0  0  0  0  0  0  0  0  0  0  0  0
  -25.1810  -13.8810   20.4730 C   0  0  0  0  0  0  0  0  0  0  0  0
  -24.1120  -13.1120   20.8490 C   0  0  0  0  0  0  0  0  0  0  0  0
  -24.5730  -11.7600   20.8310 C   0  0  0  0  0  0  0  0  0  0  0  0
  -26.2250  -12.9950   20.2520 N   0  0  0  0  0  0  0  0  0  0  0  0
  -25.8620  -11.7160   20.5220 N   0  0  0  0  0  0  0  0  0  0  0  0
  -23.8480  -10.5000   21.0320 C   0  0  0  0  0  0  0  0  0  0  0  0
  -24.2950   -9.5320   21.9590 C   0  0  0  0  0  3  0  0  0  0  0  0
  -23.5720   -8.3340   22.1470 C   0  0  0  0  0  3  0  0  0  0  0  0
  -22.3880   -8.0980   21.4090 C   0  0  0  0  0  0  0  0  0  0  0  0
  -21.9610   -9.0550   20.4710 C   0  0  0  0  0  3  0  0  0  0  0  0
  -22.6840  -10.2430   20.2810 C   0  0  0  0  0  3  0  0  0  0  0  0
  -21.6340   -6.9530   21.5070 O   0  0  0  0  0  0  0  0  0  0  0  0
  -21.6190   -6.1980   22.6520 C   0  0  0  0  0  0  0  0  0  0  0  0
  -21.2520   -6.7460   23.9020 C   0  0  0  0  0  3  0  0  0  0  0  0
  -21.1830   -5.9190   25.0400 C   0  0  0  0  0  3  0  0  0  0  0  0
  -21.4690   -4.5450   24.9320 C   0  0  0  0  0  0  0  0  0  0  0  0
  -21.8290   -3.9960   23.6890 C   0  0  0  0  0  3  0  0  0  0  0  0
  -21.9010   -4.8220   22.5520 C   0  0  0  0  0  0  0  0  0  0  0  0
  -22.2270   -4.2830   21.3520 F   0  0  0  0  0  0  0  0  0  0  0  0
  -21.3940   -3.7480   26.0230 F   0  0  0  0  0  0  0  0  0  0  0  0
  -22.7140  -13.5910   21.1170 C   0  0  0  0  0  0  0  0  0  0  0  0
  -21.9860  -12.9030   21.9880 N   0  0  0  0  0  0  0  0  0  0  0  0
  -22.2760  -14.6130   20.5880 O   0  0  0  0  0  0  0  0  0  0  0  0
  -22.3510  -12.0740   22.4360 H   0  0  0  0  0  0  0  0  0  0  0  0
  -21.0480  -13.2080   22.2100 H   0  0  0  0  0  0  0  0  0  0  0  0
  -25.3470  -15.2500   20.2840 N   0  0  0  0  0  0  0  0  0  0  0  0
  -24.5810  -15.9070   20.3900 H   0  0  0  0  0  0  0  0  0  0  0  0
  -26.2010  -15.6850   19.9590 H   0  0  0  0  0  0  0  0  0  0  0  0
  -28.1320  -25.2660   19.7990 C   0  0  0  0  0  2  0  0  0  0  0  0
  -28.3080  -26.6510   20.1710 O   0  0  0  0  0  0  0  0  0  0  0  0
  -24.5600  -31.9140   23.2430 C   0  0  0  0  0  0  0  0  0  0  0  0
  -27.1530  -27.4310   20.1380 C   0  0  0  0  0  0  0  0  0  0  0  0
  -23.3350  -30.5150   21.6160 C   0  0  0  0  0  3  0  0  0  0  0  0
  -24.7680  -28.9810   20.1730 C   0  0  0  0  0  0  0  0  0  0  0  0
  -25.8650  -30.8560   21.3980 C   0  0  0  0  0  2  0  0  0  0  0  0
  -25.9390  -29.4830   20.7550 C   0  0  0  0  0  0  0  0  0  0  0  0
  -27.1330  -28.7170   20.7380 C   0  0  0  0  0  3  0  0  0  0  0  0
  -25.9540  -26.9670   19.5350 C   0  0  0  0  0  3  0  0  0  0  0  0
  -24.7740  -27.7230   19.5600 C   0  0  0  0  0  3  0  0  0  0  0  0
  -23.5300  -29.8450   20.2320 C   0  0  0  0  0  2  0  0  0  0  0  0
  -24.6060  -31.1090   22.1440 N   0  0  0  0  0  0  0  0  0  0  0  0
  -23.4830  -32.1920   23.7890 O   0  0  0  0  0  0  0  0  0  0  0  0
  -22.6880  -29.4940   22.5800 C   0  0  0  0  0  0  0  0  0  0  0  0
  -21.3620  -29.3120   22.4600 N   0  0  0  0  0  0  0  0  0  0  0  0
  -23.3760  -28.8680   23.3920 O   0  0  0  0  0  0  0  0  0  0  0  0
  -20.8680  -29.8730   21.7820 H   0  0  0  0  0  0  0  0  0  0  0  0
  -17.9940  -28.1030   22.9630 C   0  0  0  0  0  0  0  0  0  0  0  0
  -20.5500  -28.3770   23.2370 C   0  0  0  0  0  3  0  0  0  0  0  0
  -20.6600  -26.9410   22.6760 C   0  0  0  0  0  2  0  0  0  0  0  0
  -19.5620  -26.6020   21.6620 C   0  0  0  0  0  2  0  0  0  0  0  0
  -18.1770  -26.7480   22.3010 C   0  0  0  0  0  2  0  0  0  0  0  0
  -19.1080  -28.8750   23.3880 C   0  0  0  0  0  0  0  0  0  0  0  0
  -18.8820  -30.1440   23.9630 C   0  0  0  0  0  3  0  0  0  0  0  0
  -17.5750  -30.6410   24.1220 C   0  0  0  0  0  3  0  0  0  0  0  0
  -16.4750  -29.8670   23.7130 C   0  0  0  0  0  3  0  0  0  0  0  0
  -16.6850  -28.6000   23.1400 C   0  0  0  0  0  3  0  0  0  0  0  0
  -25.8530  -32.5410   23.8500 C   0  0  0  0  0  3  0  0  0  0  0  0
  -26.3930  -31.7570   25.1080 C   0  0  1  0  0  0  0  0  0  0  0  0
  -25.3180  -31.5050   26.1910 C   0  0  0  0  0  1  0  0  0  0  0  0
  -26.9740  -30.3860   24.6880 C   0  0  0  0  0  1  0  0  0  0  0  0
  -27.5500  -32.5500   25.7600 C   0  0  0  0  0  1  0  0  0  0  0  0
  -25.5460  -33.9350   24.1980 N   0  0  0  0  0  0  0  0  0  0  0  0
  -25.8560  -34.9930   23.4360 C   0  0  0  0  0  0  0  0  0  0  0  0
  -26.5010  -34.8990   22.3890 O   0  0  0  0  0  0  0  0  0  0  0  0
  -24.9740  -34.0820   25.0150 H   0  0  0  0  0  0  0  0  0  0  0  0
  -24.1030  -36.7740   23.1460 C   0  0  0  0  0  1  0  0  0  0  0  0
  -25.3720  -36.3760   23.9150 C   0  0  0  0  0  3  0  0  0  0  0  0
  -27.5290  -37.2690   24.6780 C   0  0  0  0  0  1  0  0  0  0  0  0
  -26.3930  -37.4360   23.7740 N   0  0  0  0  0  0  0  0  0  0  0  0
  -25.9860  -38.3530   23.9440 H   0  0  0  0  0  0  0  0  0  0  0  0
  1  2  1  0
  3  6  2  0
  3  4  1  0
  4  1  2  0
  5  8  1  0
  5  2  2  0
  6  5  1  0
  7  6  1  0
  9 15  1  0
  9  8  1  0
 10 14  1  0
 12 10  1  0
 12 15  1  0
 13 11  1  0
 14 17  1  0
 14 11  1  0
 15 16  1  1
 15 13  1  0
 18 23  1  0
 19 20  1  0
 19 18  1  0
 21 20  1  0
 21 28  1  0
 21 22  1  0
 23 17  1  0
 23 22  1  0
 24 17  2  0
 25 26  2  0
 26 45  1  0
 27 26  1  0
 27 30  1  0
 28 25  1  0
 28 29  1  0
 29 27  2  0
 30 31  1  0
 31 32  2  0
 33 36  1  0
 33 32  1  0
 34 33  2  0
 35 34  1  0
 35 30  2  0
 36 37  1  0
 37 38  1  0
 38 39  2  0
 40 39  1  0
 40 44  1  0
 41 40  2  0
 42 37  2  0
 42 41  1  0
 43 42  1  0
 45 46  1  0
 46 49  1  0
 46 48  1  0
 47 45  2  0
 50 51  1  0
 50 25  1  0
 52 50  1  0
 53  4  1  0
 53 54  1  0
 55 66  2  0
 56 54  1  0
 56 61  1  0
 57 65  1  0
 57 67  1  0
 58 64  1  0
 58 60  1  0
 59 65  1  0
 60 59  1  0
 61 60  2  0
 62 63  1  0
 62 56  2  0
 63 58  2  0
 64 57  1  0
 65 55  1  0
 67 69  2  0
 68 67  1  0
 70 68  1  0
 71 80  2  0
 71 76  1  0
 72 68  1  0
 72 76  1  0
 73 72  1  0
 74 75  1  0
 74 73  1  0
 75 71  1  0
 76 77  2  0
 77 78  1  0
 79 78  2  0
 80 79  1  0
 81 55  1  0
 81 86  1  0
 81 82  1  0
 82 85  1  1
 82 83  1  0
 84 82  1  0
 86 89  1  0
 87 91  1  0
 87 86  1  0
 88 87  2  0
 91 90  1  0
 93 91  1  0
 93 94  1  0
 93 92  1  0
M  ISO  4  14 100  17 100  53 101  54 101
M  END
>  <TORSDO>  (41) 
F 20

>  <SCORE>  (41) 
-14.017

>  <name>  (41) 
41

>  <ligand_id>  (41) 
41

>  <original_smiles>  (41) 
[H]c1c([H])c([H])c2c(c1[H])C([H])([H])C([H])([H])C([H])([H])C2([H])N([H])C(=O)C1([H])N(C(=O)C([H])(N([H])C(=O)C([H])(N([H])C([H])([H])[H])C([H])([H])[H])C(C([H])([H])[H])(C([H])([H])[H])C([H])([H])[H])C([H])([H])c2c([H])c(OC([H])([H])c3c([H])c([H])c(C([H])([H])C([H])([H])[N+]4([H])C([H])([H])C([H])([H])C([H])(C(=O)N5C([H])([H])C([H])([H])C([H])([H])C([H])(n6nc(-c7c([H])c([H])c(Oc8c([H])c([H])c(F)c([H])c8F)c([H])c7[H])c(C(=O)N([H])[H])c6N([H])[H])C5([H])[H])C([H])([H])C4([H])[H])c(C([H])([H])[H])c3[H])c([H])c([H])c2C1([H])[H]

>  <smiles>  (41) 
[H]c1c([H])c([H])c2c(c1[H])C([H])([H])C([H])([H])C([H])([H])C2([H])N([H])C(=O)C1([H])N(C(=O)C([H])(N([H])C(=O)C([H])(N([H])C([H])([H])[H])C([H])([H])[H])C(C([H])([H])[H])(C([H])([H])[H])C([H])([H])[H])C([H])([H])c2c([H])c(OC([H])([H])c3c([H])c([H])c(C([H])([H])C([H])([H])[N+]4([H])C([H])([H])C([H])([H])C([H])(C(=O)N5C([H])([H])C([H])([H])C([H])([H])C([H])(n6nc(-c7c([H])c([H])c(Oc8c([H])c([H])c(F)c([H])c8F)c([H])c7[H])c(C(=O)N([H])[H])c6N([H])[H])C5([H])[H])C([H])([H])C4([H])[H])c(C([H])([H])[H])c3[H])c([H])c([H])c2C1([H])[H]

$$$$
42:0:0
     RDKit          3D

 96104  0  0  1  0  0  0  0  0999 V2000
  -27.0500  -21.5550   21.4730 C   0  0  0  0  0  3  0  0  0  0  0  0
  -27.8280  -20.5160   20.9300 C   0  0  0  0  0  3  0  0  0  0  0  0
  -27.6450  -22.7850   21.8110 C   0  0  0  0  0  3  0  0  0  0  0  0
  -29.8130  -21.9170   21.1060 C   0  0  0  0  0  3  0  0  0  0  0  0
  -29.2190  -20.6820   20.7570 C   0  0  0  0  0  0  0  0  0  0  0  0
  -29.0230  -22.9870   21.5930 C   0  0  0  0  0  0  0  0  0  0  0  0
  -30.0470  -19.5690   20.1160 C   0  0  0  0  0  2  0  0  0  0  0  0
  -30.1560  -18.3600   20.9640 N   0  0  0  0  0  4  0  0  0  0  0  0
  -29.2340  -18.1340   21.2960 H   0  0  0  0  0  0  0  0  0  0  0  0
  -30.7230  -18.5870   21.7650 H   0  0  0  0  0  0  0  0  0  0  0  0
  -30.7280  -17.1880   20.2510 C   0  0  0  0  0  2  0  0  0  0  0  0
  -30.6480  -15.8670   21.0530 C   0  0  0  0  0  2  0  0  0  0  0  0
  -31.2360  -14.6650   20.2760 C   0  0  0  0  0  0  0  0  0  0  0  0
  -30.9450  -12.4190   19.2800 C   0  0  0  0  0  2  0  0  0  0  0  0
  -29.9920  -12.5040   18.0710 C   0  0  0  0  0  2  0  0  0  0  0  0
  -28.5180  -12.4110   18.5180 C   0  0  0  0  0  2  0  0  0  0  0  0
  -28.1900  -13.3660   19.6980 C   0  0  0  0  0  3  0  0  0  0  0  0
  -29.2480  -13.2060   20.8140 C   0  0  0  0  0  2  0  0  0  0  0  0
  -30.5690  -13.4800   20.2250 N   0  0  0  0  0  0  0  0  0  0  0  0
  -32.3010  -14.8370   19.6720 O   0  0  0  0  0  0  0  0  0  0  0  0
  -25.8510  -14.0830   20.5060 C   0  0  0  0  0  0  0  0  0  0  0  0
  -24.7490  -13.3570   20.8700 C   0  0  0  0  0  0  0  0  0  0  0  0
  -25.1230  -11.9850   20.7480 C   0  0  0  0  0  0  0  0  0  0  0  0
  -26.8330  -13.1530   20.1970 N   0  0  0  0  0  0  0  0  0  0  0  0
  -26.3970  -11.8830   20.3940 N   0  0  0  0  0  0  0  0  0  0  0  0
  -24.3250  -10.7590   20.8950 C   0  0  0  0  0  0  0  0  0  0  0  0
  -24.6780   -9.7570   21.8240 C   0  0  0  0  0  3  0  0  0  0  0  0
  -23.8860   -8.5950   21.9590 C   0  0  0  0  0  3  0  0  0  0  0  0
  -22.7270   -8.4310   21.1640 C   0  0  0  0  0  0  0  0  0  0  0  0
  -22.3930   -9.4220   20.2240 C   0  0  0  0  0  3  0  0  0  0  0  0
  -23.1850  -10.5750   20.0870 C   0  0  0  0  0  3  0  0  0  0  0  0
  -21.9120   -7.3250   21.2090 O   0  0  0  0  0  0  0  0  0  0  0  0
  -21.7160   -6.6220   22.3700 C   0  0  0  0  0  0  0  0  0  0  0  0
  -21.1980   -7.2350   23.5340 C   0  0  0  0  0  3  0  0  0  0  0  0
  -20.9480   -6.4600   24.6840 C   0  0  0  0  0  3  0  0  0  0  0  0
  -21.2030   -5.0750   24.6720 C   0  0  0  0  0  0  0  0  0  0  0  0
  -21.7120   -4.4630   23.5120 C   0  0  0  0  0  3  0  0  0  0  0  0
  -21.9650   -5.2350   22.3650 C   0  0  0  0  0  0  0  0  0  0  0  0
  -22.4360   -4.6370   21.2440 F   0  0  0  0  0  0  0  0  0  0  0  0
  -20.9540   -4.3300   25.7740 F   0  0  0  0  0  0  0  0  0  0  0  0
  -23.3920  -13.9020   21.2180 C   0  0  0  0  0  0  0  0  0  0  0  0
  -22.6540  -13.2090   22.0780 N   0  0  0  0  0  0  0  0  0  0  0  0
  -22.9970  -14.9750   20.7620 O   0  0  0  0  0  0  0  0  0  0  0  0
  -22.9850  -12.3410   22.4700 H   0  0  0  0  0  0  0  0  0  0  0  0
  -21.7450  -13.5540   22.3500 H   0  0  0  0  0  0  0  0  0  0  0  0
  -26.0960  -15.4490   20.3940 N   0  0  0  0  0  0  0  0  0  0  0  0
  -25.3670  -16.1390   20.5440 H   0  0  0  0  0  0  0  0  0  0  0  0
  -26.9490  -15.8470   20.0220 H   0  0  0  0  0  0  0  0  0  0  0  0
  -29.6340  -24.3720   21.8190 C   0  0  0  0  0  2  0  0  0  0  0  0
  -29.0590  -25.4040   20.9040 N   0  0  1  0  0  4  0  0  0  0  0  0
  -28.0640  -25.3030   21.0400 H   0  0  0  0  0  0  0  0  0  0  0  0
  -30.8220  -27.2250   21.2880 C   0  0  0  0  0  1  0  0  0  0  0  0
  -29.3370  -26.8080   21.3280 C   0  0  0  0  0  2  0  0  0  0  0  0
  -29.2620  -25.1670   19.4400 C   0  0  0  0  0  2  0  0  0  0  0  0
  -28.0620  -25.6400   18.5880 C   0  0  0  0  0  2  0  0  0  0  0  0
  -27.9910  -27.0690   18.5720 O   0  0  0  0  0  0  0  0  0  0  0  0
  -24.5820  -31.4900   22.9180 C   0  0  0  0  0  0  0  0  0  0  0  0
  -26.7920  -27.7030   18.8180 C   0  0  0  0  0  0  0  0  0  0  0  0
  -23.1600  -30.3780   21.2220 C   0  0  0  0  0  3  0  0  0  0  0  0
  -24.4110  -29.1270   19.3820 C   0  0  0  0  0  0  0  0  0  0  0  0
  -25.6310  -30.8250   20.7530 C   0  0  0  0  0  2  0  0  0  0  0  0
  -25.6320  -29.5760   19.8970 C   0  0  0  0  0  0  0  0  0  0  0  0
  -26.8210  -28.8740   19.6100 C   0  0  0  0  0  3  0  0  0  0  0  0
  -25.5510  -27.2650   18.2970 C   0  0  0  0  0  3  0  0  0  0  0  0
  -24.3640  -27.9700   18.5810 C   0  0  0  0  0  3  0  0  0  0  0  0
  -23.1880  -29.9450   19.7290 C   0  0  0  0  0  2  0  0  0  0  0  0
  -24.4850  -30.9010   21.6910 N   0  0  0  0  0  0  0  0  0  0  0  0
  -23.5830  -31.6490   23.6330 O   0  0  0  0  0  0  0  0  0  0  0  0
  -22.6290  -29.1970   22.0660 C   0  0  0  0  0  0  0  0  0  0  0  0
  -21.3030  -28.9920   22.0320 N   0  0  0  0  0  0  0  0  0  0  0  0
  -23.4010  -28.4750   22.7030 O   0  0  0  0  0  0  0  0  0  0  0  0
  -20.7400  -29.6390   21.4980 H   0  0  0  0  0  0  0  0  0  0  0  0
  -18.0270  -27.5470   22.5340 C   0  0  0  0  0  0  0  0  0  0  0  0
  -20.5810  -27.9150   22.7110 C   0  0  0  0  0  3  0  0  0  0  0  0
  -20.7240  -26.5790   21.9480 C   0  0  0  0  0  2  0  0  0  0  0  0
  -19.5850  -26.3260   20.9540 C   0  0  0  0  0  2  0  0  0  0  0  0
  -18.2340  -26.3070   21.6780 C   0  0  0  0  0  2  0  0  0  0  0  0
  -19.1290  -28.3090   23.0060 C   0  0  0  0  0  0  0  0  0  0  0  0
  -18.8820  -29.4710   23.7680 C   0  0  0  0  0  3  0  0  0  0  0  0
  -17.5670  -29.8750   24.0590 C   0  0  0  0  0  3  0  0  0  0  0  0
  -16.4800  -29.1070   23.6040 C   0  0  0  0  0  3  0  0  0  0  0  0
  -16.7100  -27.9440   22.8480 C   0  0  0  0  0  3  0  0  0  0  0  0
  -25.9430  -32.0160   23.4710 C   0  0  0  0  0  3  0  0  0  0  0  0
  -26.6160  -31.0340   24.5060 C   0  0  1  0  0  0  0  0  0  0  0  0
  -25.6760  -30.6080   25.6580 C   0  0  0  0  0  1  0  0  0  0  0  0
  -27.1090  -29.7520   23.7930 C   0  0  0  0  0  1  0  0  0  0  0  0
  -27.8670  -31.7010   25.1260 C   0  0  0  0  0  1  0  0  0  0  0  0
  -25.6950  -33.3280   24.0830 N   0  0  0  0  0  0  0  0  0  0  0  0
  -25.9840  -34.5030   23.5040 C   0  0  0  0  0  0  0  0  0  0  0  0
  -26.5660  -34.5890   22.4190 O   0  0  0  0  0  0  0  0  0  0  0  0
  -25.1670  -33.3310   24.9420 H   0  0  0  0  0  0  0  0  0  0  0  0
  -24.2880  -36.3540   23.6230 C   0  0  0  0  0  1  0  0  0  0  0  0
  -25.5680  -35.7840   24.2510 C   0  0  0  0  0  3  0  0  0  0  0  0
  -27.7760  -36.4630   25.0840 C   0  0  0  0  0  1  0  0  0  0  0  0
  -26.6190  -36.8250   24.2680 N   0  0  0  0  0  0  0  0  0  0  0  0
  -26.2500  -37.7040   24.6180 H   0  0  0  0  0  0  0  0  0  0  0  0
  1  3  1  0
  2  1  2  0
  4  6  1  0
  5  2  1  0
  5  4  2  0
  6  3  2  0
  6 49  1  0
  7  5  1  0
  7  8  1  0
  8  9  1  0
  8 10  1  0
 11  8  1  0
 11 12  1  0
 13 12  1  0
 14 19  1  0
 15 16  1  0
 15 14  1  0
 17 16  1  0
 17 24  1  0
 17 18  1  0
 19 13  1  0
 19 18  1  0
 20 13  2  0
 21 22  2  0
 22 41  1  0
 23 22  1  0
 23 26  1  0
 24 25  1  0
 24 21  1  0
 25 23  2  0
 26 27  1  0
 27 28  2  0
 29 32  1  0
 29 28  1  0
 30 29  2  0
 31 30  1  0
 31 26  2  0
 32 33  1  0
 33 34  1  0
 34 35  2  0
 36 35  1  0
 36 40  1  0
 37 36  2  0
 38 33  2  0
 38 37  1  0
 39 38  1  0
 41 42  1  0
 42 45  1  0
 42 44  1  0
 43 41  2  0
 46 21  1  0
 46 47  1  0
 48 46  1  0
 50 51  1  6
 50 53  1  0
 50 49  1  0
 52 53  1  0
 54 50  1  0
 55 54  1  0
 56 55  1  0
 56 58  1  0
 57 68  2  0
 58 63  1  0
 59 67  1  0
 59 69  1  0
 60 66  1  0
 60 62  1  0
 61 67  1  0
 62 61  1  0
 63 62  2  0
 64 65  1  0
 64 58  2  0
 65 60  2  0
 66 59  1  0
 67 57  1  0
 69 71  2  0
 70 69  1  0
 72 70  1  0
 73 82  2  0
 73 78  1  0
 74 70  1  0
 74 78  1  0
 75 74  1  0
 76 77  1  0
 76 75  1  0
 77 73  1  0
 78 79  2  0
 79 80  1  0
 81 80  2  0
 82 81  1  0
 83 57  1  0
 83 88  1  0
 83 84  1  0
 84 87  1  1
 84 85  1  0
 86 84  1  0
 88 91  1  0
 89 88  1  0
 89 93  1  0
 90 89  2  0
 93 92  1  0
 93 95  1  0
 95 96  1  0
 95 94  1  0
M  ISO  4  12 100  13 100  55 101  56 101
M  END
>  <TORSDO>  (42) 
F 25

>  <SCORE>  (42) 
-9.233

>  <name>  (42) 
42

>  <ligand_id>  (42) 
42

>  <original_smiles>  (42) 
[H]c1c([H])c([H])c2c(c1[H])C([H])([H])C([H])([H])C([H])([H])C2([H])N([H])C(=O)C1([H])N(C(=O)C([H])(N([H])C(=O)C([H])(N([H])C([H])([H])[H])C([H])([H])[H])C(C([H])([H])[H])(C([H])([H])[H])C([H])([H])[H])C([H])([H])c2c([H])c(OC([H])([H])C([H])([H])[N+]([H])(C([H])([H])c3c([H])c([H])c([H])c(C([H])([H])[N+]([H])([H])C([H])([H])C([H])([H])C(=O)N4C([H])([H])C([H])([H])C([H])([H])C([H])(n5nc(-c6c([H])c([H])c(Oc7c([H])c([H])c(F)c([H])c7F)c([H])c6[H])c(C(=O)N([H])[H])c5N([H])[H])C4([H])[H])c3[H])C([H])([H])C([H])([H])[H])c([H])c([H])c2C1([H])[H]

>  <smiles>  (42) 
[H]c1c([H])c([H])c2c(c1[H])C([H])([H])C([H])([H])C([H])([H])C2([H])N([H])C(=O)C1([H])N(C(=O)C([H])(N([H])C(=O)C([H])(N([H])C([H])([H])[H])C([H])([H])[H])C(C([H])([H])[H])(C([H])([H])[H])C([H])([H])[H])C([H])([H])c2c([H])c(OC([H])([H])C([H])([H])[N+]([H])(C([H])([H])c3c([H])c([H])c([H])c(C([H])([H])[N+]([H])([H])C([H])([H])C([H])([H])C(=O)N4C([H])([H])C([H])([H])C([H])([H])C([H])(n5nc(-c6c([H])c([H])c(Oc7c([H])c([H])c(F)c([H])c7F)c([H])c6[H])c(C(=O)N([H])[H])c5N([H])[H])C4([H])[H])c3[H])C([H])([H])C([H])([H])[H])c([H])c([H])c2C1([H])[H]

$$$$
43:0:0
     RDKit          3D

 91100  0  0  1  0  0  0  0  0999 V2000
  -27.6400  -20.8600   19.0050 C   0  0  0  0  0  3  0  0  0  0  0  0
  -28.2460  -19.5960   19.3710 C   0  0  0  0  0  3  0  0  0  0  0  0
  -29.6100  -20.7920   20.9290 C   0  0  0  0  0  3  0  0  0  0  0  0
  -28.0070  -22.1150   19.5900 C   0  0  0  0  0  0  0  0  0  0  0  0
  -28.9840  -22.1080   20.5750 C   0  0  0  0  0  0  0  0  0  0  0  0
  -29.2840  -19.4520   20.3440 C   0  0  0  0  0  0  0  0  0  0  0  0
  -29.1140  -23.6320   20.9660 C   0  0  0  0  0  0  0  0  0  0  0  0
  -27.5390  -23.5620   19.3130 C   0  0  0  0  0  0  0  0  0  0  0  0
  -28.2360  -24.5370   20.2580 C   0  0  0  0  0  3  0  0  0  0  0  0
  -30.0060  -23.8420   21.8210 O   0  0  0  0  0  0  0  0  0  0  0  0
  -26.7640  -23.8630   18.4080 O   0  0  0  0  0  0  0  0  0  0  0  0
  -28.2270  -26.0570   20.2640 O   0  0  0  0  0  0  0  0  0  0  0  0
  -24.6210  -31.9020   23.2480 C   0  0  0  0  0  0  0  0  0  0  0  0
  -27.1510  -27.0640   20.2370 C   0  0  0  0  0  0  0  0  0  0  0  0
  -23.4110  -30.5040   21.6220 C   0  0  0  0  0  3  0  0  0  0  0  0
  -24.8450  -28.9020   20.2030 C   0  0  0  0  0  0  0  0  0  0  0  0
  -25.9730  -30.7250   21.4570 C   0  0  0  0  0  2  0  0  0  0  0  0
  -26.0340  -29.3190   20.8120 C   0  0  0  0  0  0  0  0  0  0  0  0
  -27.1800  -28.4180   20.8080 C   0  0  0  0  0  3  0  0  0  0  0  0
  -25.9290  -26.7830   19.5900 C   0  0  0  0  0  3  0  0  0  0  0  0
  -24.8120  -27.6490   19.5750 C   0  0  0  0  0  3  0  0  0  0  0  0
  -23.6280  -29.8180   20.2470 C   0  0  0  0  0  2  0  0  0  0  0  0
  -24.6900  -31.0690   22.1620 N   0  0  0  0  0  0  0  0  0  0  0  0
  -23.5360  -32.1960   23.7750 O   0  0  0  0  0  0  0  0  0  0  0  0
  -22.7260  -29.5090   22.5930 C   0  0  0  0  0  0  0  0  0  0  0  0
  -21.3980  -29.3340   22.4630 N   0  0  0  0  0  0  0  0  0  0  0  0
  -23.3930  -28.8950   23.4290 O   0  0  0  0  0  0  0  0  0  0  0  0
  -20.9140  -29.8790   21.7640 H   0  0  0  0  0  0  0  0  0  0  0  0
  -18.0210  -28.1090   22.9570 C   0  0  0  0  0  0  0  0  0  0  0  0
  -20.5760  -28.4000   23.2410 C   0  0  0  0  0  3  0  0  0  0  0  0
  -20.6950  -26.9610   22.6900 C   0  0  0  0  0  2  0  0  0  0  0  0
  -19.6060  -26.6120   21.6710 C   0  0  0  0  0  2  0  0  0  0  0  0
  -18.2170  -26.7520   22.3010 C   0  0  0  0  0  2  0  0  0  0  0  0
  -19.1290  -28.8890   23.3840 C   0  0  0  0  0  0  0  0  0  0  0  0
  -18.8900  -30.1560   23.9600 C   0  0  0  0  0  3  0  0  0  0  0  0
  -17.5790  -30.6430   24.1120 C   0  0  0  0  0  3  0  0  0  0  0  0
  -16.4860  -29.8610   23.7000 C   0  0  0  0  0  3  0  0  0  0  0  0
  -16.7090  -28.5950   23.1290 C   0  0  0  0  0  3  0  0  0  0  0  0
  -25.9000  -32.5400   23.8690 C   0  0  0  0  0  3  0  0  0  0  0  0
  -25.5910  -33.9430   24.1940 N   0  0  0  0  0  0  0  0  0  0  0  0
  -25.9160  -34.9960   23.4310 C   0  0  0  0  0  0  0  0  0  0  0  0
  -26.5720  -34.8870   22.3920 O   0  0  0  0  0  0  0  0  0  0  0  0
  -25.0070  -34.0990   25.0010 H   0  0  0  0  0  0  0  0  0  0  0  0
  -24.1880  -36.7980   23.1040 C   0  0  0  0  0  1  0  0  0  0  0  0
  -25.4420  -36.3890   23.8940 C   0  0  0  0  0  3  0  0  0  0  0  0
  -27.5890  -37.2740   24.6900 C   0  0  0  0  0  1  0  0  0  0  0  0
  -26.4750  -37.4390   23.7610 N   0  0  0  0  0  0  0  0  0  0  0  0
  -26.0740  -38.3610   23.9070 H   0  0  0  0  0  0  0  0  0  0  0  0
  -26.4070  -31.7810   25.1570 C   0  0  1  0  0  0  0  0  0  0  0  0
  -25.3080  -31.5620   26.2250 C   0  0  0  0  0  1  0  0  0  0  0  0
  -26.9840  -30.3950   24.7910 C   0  0  0  0  0  1  0  0  0  0  0  0
  -27.5590  -32.5770   25.8140 C   0  0  0  0  0  1  0  0  0  0  0  0
  -30.0920  -17.9770   20.6440 C   0  0  0  0  0  2  0  0  0  0  0  0
  -30.4550  -15.1700   20.4160 C   0  0  0  0  0  0  0  0  0  0  0  0
  -30.4040  -12.7670   19.5140 C   0  0  0  0  0  2  0  0  0  0  0  0
  -29.4890  -12.6190   18.2750 C   0  0  0  0  0  2  0  0  0  0  0  0
  -28.0310  -12.3690   18.7010 C   0  0  0  0  0  2  0  0  0  0  0  0
  -27.5820  -13.3210   19.8400 C   0  0  0  0  0  3  0  0  0  0  0  0
  -28.6230  -13.4240   20.9730 C   0  0  0  0  0  2  0  0  0  0  0  0
  -29.8720  -13.8890   20.3540 N   0  0  0  0  0  0  0  0  0  0  0  0
  -31.6750  -15.1920   20.2080 O   0  0  0  0  0  0  0  0  0  0  0  0
  -29.6940  -16.4060   20.5150 N   0  0  0  0  0  0  0  0  0  0  0  0
  -28.7020  -16.2450   20.5940 H   0  0  0  0  0  0  0  0  0  0  0  0
  -25.1990  -13.8730   20.5750 C   0  0  0  0  0  0  0  0  0  0  0  0
  -24.1380  -13.0900   20.9330 C   0  0  0  0  0  0  0  0  0  0  0  0
  -24.6120  -11.7420   20.9010 C   0  0  0  0  0  0  0  0  0  0  0  0
  -26.2490  -13.0030   20.3350 N   0  0  0  0  0  0  0  0  0  0  0  0
  -25.9050  -11.7160   20.6000 N   0  0  0  0  0  0  0  0  0  0  0  0
  -23.8900  -10.4750   21.0770 C   0  0  0  0  0  0  0  0  0  0  0  0
  -24.3160   -9.5050   22.0100 C   0  0  0  0  0  3  0  0  0  0  0  0
  -23.5910   -8.3040   22.1760 C   0  0  0  0  0  3  0  0  0  0  0  0
  -22.4260   -8.0660   21.4090 C   0  0  0  0  0  0  0  0  0  0  0  0
  -22.0190   -9.0260   20.4660 C   0  0  0  0  0  3  0  0  0  0  0  0
  -22.7450  -10.2160   20.2980 C   0  0  0  0  0  3  0  0  0  0  0  0
  -21.6730   -6.9190   21.4860 O   0  0  0  0  0  0  0  0  0  0  0  0
  -21.6080   -6.1760   22.6370 C   0  0  0  0  0  0  0  0  0  0  0  0
  -21.1450   -6.7240   23.8520 C   0  0  0  0  0  3  0  0  0  0  0  0
  -21.0280   -5.9070   24.9950 C   0  0  0  0  0  3  0  0  0  0  0  0
  -21.3650   -4.5430   24.9220 C   0  0  0  0  0  0  0  0  0  0  0  0
  -21.8220   -3.9930   23.7120 C   0  0  0  0  0  3  0  0  0  0  0  0
  -21.9400   -4.8070   22.5710 C   0  0  0  0  0  0  0  0  0  0  0  0
  -22.3610   -4.2690   21.4010 F   0  0  0  0  0  0  0  0  0  0  0  0
  -21.2470   -3.7550   26.0170 F   0  0  0  0  0  0  0  0  0  0  0  0
  -22.7360  -13.5590   21.1900 C   0  0  0  0  0  0  0  0  0  0  0  0
  -22.0020  -12.8570   22.0450 N   0  0  0  0  0  0  0  0  0  0  0  0
  -22.3000  -14.5840   20.6680 O   0  0  0  0  0  0  0  0  0  0  0  0
  -22.3680  -12.0280   22.4910 H   0  0  0  0  0  0  0  0  0  0  0  0
  -21.0600  -13.1520   22.2590 H   0  0  0  0  0  0  0  0  0  0  0  0
  -25.3540  -15.2450   20.4020 N   0  0  0  0  0  0  0  0  0  0  0  0
  -24.5770  -15.8890   20.5070 H   0  0  0  0  0  0  0  0  0  0  0  0
  -26.1880  -15.6900   20.0440 H   0  0  0  0  0  0  0  0  0  0  0  0
  1  2  2  0
  1  4  1  0
  2  6  1  0
  4  5  2  0
  5  3  1  0
  5  7  1  0
  6 53  1  0
  6  3  2  0
  7 10  2  0
  8  4  1  0
  8  9  1  0
  9 12  1  0
  9  7  1  0
 11  8  2  0
 13 24  2  0
 14 12  1  0
 14 19  1  0
 15 23  1  0
 15 25  1  0
 16 22  1  0
 16 18  1  0
 17 23  1  0
 18 17  1  0
 19 18  2  0
 20 14  2  0
 21 20  1  0
 21 16  2  0
 22 15  1  0
 23 13  1  0
 25 27  2  0
 26 25  1  0
 28 26  1  0
 29 38  2  0
 29 34  1  0
 30 26  1  0
 30 34  1  0
 31 30  1  0
 32 33  1  0
 32 31  1  0
 33 29  1  0
 34 35  2  0
 35 36  1  0
 37 36  2  0
 38 37  1  0
 39 13  1  0
 39 40  1  0
 39 49  1  0
 40 43  1  0
 41 45  1  0
 41 40  1  0
 42 41  2  0
 45 44  1  0
 47 45  1  0
 47 48  1  0
 47 46  1  0
 49 52  1  1
 49 50  1  0
 51 49  1  0
 54 62  1  0
 55 60  1  0
 56 57  1  0
 56 55  1  0
 58 57  1  0
 58 67  1  0
 58 59  1  0
 60 54  1  0
 60 59  1  0
 61 54  2  0
 62 63  1  0
 62 53  1  0
 64 65  2  0
 65 84  1  0
 66 65  1  0
 66 69  1  0
 67 64  1  0
 67 68  1  0
 68 66  2  0
 69 70  1  0
 70 71  2  0
 72 75  1  0
 72 71  1  0
 73 72  2  0
 74 73  1  0
 74 69  2  0
 75 76  1  0
 76 77  1  0
 77 78  2  0
 79 78  1  0
 79 83  1  0
 80 79  2  0
 81 76  2  0
 81 80  1  0
 82 81  1  0
 84 85  1  0
 85 88  1  0
 85 87  1  0
 86 84  2  0
 89 90  1  0
 89 64  1  0
 91 89  1  0
M  ISO  4   9 101  12 101  54 100  62 100
M  END
>  <TORSDO>  (43) 
F 17

>  <SCORE>  (43) 
-15.945

>  <name>  (43) 
43

>  <ligand_id>  (43) 
43

>  <original_smiles>  (43) 
[H]c1c([H])c([H])c2c(c1[H])C([H])([H])C([H])([H])C([H])([H])C2([H])N([H])C(=O)C1([H])N(C(=O)C([H])(N([H])C(=O)C([H])(N([H])C([H])([H])[H])C([H])([H])[H])C(C([H])([H])[H])(C([H])([H])[H])C([H])([H])[H])C([H])([H])c2c([H])c(OC3=C([O-])c4c([H])c(C([H])([H])N([H])C(=O)N5C([H])([H])C([H])([H])C([H])([H])C([H])(n6nc(-c7c([H])c([H])c(Oc8c([H])c([H])c(F)c([H])c8F)c([H])c7[H])c(C(=O)N([H])[H])c6N([H])[H])C5([H])[H])c([H])c([H])c4C3=O)c([H])c([H])c2C1([H])[H]

>  <smiles>  (43) 
[H]c1c([H])c([H])c2c(c1[H])C([H])([H])C([H])([H])C([H])([H])C2([H])N([H])C(=O)C1([H])N(C(=O)C([H])(N([H])C(=O)C([H])(N([H])C([H])([H])[H])C([H])([H])[H])C(C([H])([H])[H])(C([H])([H])[H])C([H])([H])[H])C([H])([H])c2c([H])c(OC3=C([O-])c4c([H])c(C([H])([H])N([H])C(=O)N5C([H])([H])C([H])([H])C([H])([H])C([H])(n6nc(-c7c([H])c([H])c(Oc8c([H])c([H])c(F)c([H])c8F)c([H])c7[H])c(C(=O)N([H])[H])c6N([H])[H])C5([H])[H])c([H])c([H])c4C3=O)c([H])c([H])c2C1([H])[H]

$$$$
44:0:0
     RDKit          3D

 91100  0  0  1  0  0  0  0  0999 V2000
  -29.9850  -22.7440   18.8660 C   0  0  0  0  0  2  0  0  0  0  0  0
  -28.0650  -22.0340   20.1730 C   0  0  0  0  0  2  0  0  0  0  0  0
  -29.8270  -24.2510   19.3960 C   0  0  0  0  0  2  0  0  0  0  0  0
  -27.8340  -23.5890   20.6050 C   0  0  0  0  0  2  0  0  0  0  0  0
  -29.5320  -21.5350   19.8010 C   0  0  0  0  0  3  0  0  0  0  0  0
  -28.3690  -24.7780   19.6840 C   0  0  0  0  0  3  0  0  0  0  0  0
  -28.3290  -26.2480   20.1710 O   0  0  0  0  0  0  0  0  0  0  0  0
  -24.5640  -31.8060   23.1880 C   0  0  0  0  0  0  0  0  0  0  0  0
  -27.2100  -27.1470   20.1320 C   0  0  0  0  0  0  0  0  0  0  0  0
  -23.3850  -30.4120   21.5330 C   0  0  0  0  0  3  0  0  0  0  0  0
  -24.8490  -28.8430   20.1240 C   0  0  0  0  0  0  0  0  0  0  0  0
  -25.9380  -30.6960   21.3880 C   0  0  0  0  0  2  0  0  0  0  0  0
  -26.0250  -29.3110   20.7220 C   0  0  0  0  0  0  0  0  0  0  0  0
  -27.2050  -28.4830   20.6990 C   0  0  0  0  0  3  0  0  0  0  0  0
  -25.9950  -26.7520   19.5330 C   0  0  0  0  0  3  0  0  0  0  0  0
  -24.8440  -27.5730   19.5230 C   0  0  0  0  0  3  0  0  0  0  0  0
  -23.6160  -29.7310   20.1600 C   0  0  0  0  0  2  0  0  0  0  0  0
  -24.6480  -30.9920   22.0910 N   0  0  0  0  0  0  0  0  0  0  0  0
  -23.4720  -32.0840   23.7070 O   0  0  0  0  0  0  0  0  0  0  0  0
  -22.6970  -29.4020   22.4870 C   0  0  0  0  0  0  0  0  0  0  0  0
  -21.3730  -29.2310   22.3430 N   0  0  0  0  0  0  0  0  0  0  0  0
  -23.3620  -28.7740   23.3160 O   0  0  0  0  0  0  0  0  0  0  0  0
  -20.8990  -29.7780   21.6380 H   0  0  0  0  0  0  0  0  0  0  0  0
  -17.9820  -28.0440   22.8100 C   0  0  0  0  0  0  0  0  0  0  0  0
  -20.5400  -28.2950   23.1020 C   0  0  0  0  0  3  0  0  0  0  0  0
  -20.6390  -26.8660   22.5180 C   0  0  0  0  0  2  0  0  0  0  0  0
  -19.5460  -26.5560   21.4900 C   0  0  0  0  0  2  0  0  0  0  0  0
  -18.1590  -26.7010   22.1230 C   0  0  0  0  0  2  0  0  0  0  0  0
  -19.1000  -28.8020   23.2540 C   0  0  0  0  0  0  0  0  0  0  0  0
  -18.8770  -30.0580   23.8590 C   0  0  0  0  0  3  0  0  0  0  0  0
  -17.5710  -30.5590   24.0170 C   0  0  0  0  0  3  0  0  0  0  0  0
  -16.4700  -29.8000   23.5850 C   0  0  0  0  0  3  0  0  0  0  0  0
  -16.6750  -28.5430   22.9900 C   0  0  0  0  0  3  0  0  0  0  0  0
  -25.8340  -32.4390   23.8330 C   0  0  0  0  0  3  0  0  0  0  0  0
  -26.3170  -31.6730   25.1280 C   0  0  1  0  0  0  0  0  0  0  0  0
  -25.1940  -31.4540   26.1710 C   0  0  0  0  0  1  0  0  0  0  0  0
  -26.8930  -30.2860   24.7670 C   0  0  0  0  0  1  0  0  0  0  0  0
  -27.4620  -32.4600   25.8060 C   0  0  0  0  0  1  0  0  0  0  0  0
  -25.5190  -33.8380   24.1560 N   0  0  0  0  0  0  0  0  0  0  0  0
  -25.8740  -34.8930   23.4110 C   0  0  0  0  0  0  0  0  0  0  0  0
  -26.5640  -34.7860   22.3930 O   0  0  0  0  0  0  0  0  0  0  0  0
  -24.8980  -33.9880   24.9380 H   0  0  0  0  0  0  0  0  0  0  0  0
  -24.1590  -36.6910   23.0210 C   0  0  0  0  0  1  0  0  0  0  0  0
  -25.3840  -36.2840   23.8570 C   0  0  0  0  0  3  0  0  0  0  0  0
  -27.5030  -37.1600   24.7360 C   0  0  0  0  0  1  0  0  0  0  0  0
  -26.4240  -37.3320   23.7660 N   0  0  0  0  0  0  0  0  0  0  0  0
  -26.0210  -38.2550   23.9010 H   0  0  0  0  0  0  0  0  0  0  0  0
  -29.8560  -20.0260   19.1220 C   0  0  0  0  0  2  0  0  0  0  0  0
  -30.5450  -17.6530   20.3790 C   0  0  0  0  0  0  0  0  0  0  0  0
  -29.6330  -16.3530   20.1270 C   0  0  0  0  0  3  0  0  0  0  0  0
  -29.0340  -17.3390   19.0360 C   0  0  0  0  0  3  0  0  0  0  0  0
  -29.7240  -18.5450   19.6480 N   0  0  0  0  0  0  0  0  0  0  0  0
  -31.5760  -17.8930   20.9780 O   0  0  0  0  0  0  0  0  0  0  0  0
  -30.3990  -14.9130   19.7990 C   0  0  0  0  0  0  0  0  0  0  0  0
  -30.2940  -12.4930   19.0610 C   0  0  0  0  0  2  0  0  0  0  0  0
  -29.2930  -12.3470   17.8910 C   0  0  0  0  0  2  0  0  0  0  0  0
  -27.8650  -12.1100   18.4180 C   0  0  0  0  0  2  0  0  0  0  0  0
  -27.4800  -13.0920   19.5550 C   0  0  0  0  0  3  0  0  0  0  0  0
  -28.6070  -13.2380   20.6020 C   0  0  0  0  0  2  0  0  0  0  0  0
  -29.8420  -13.6350   19.9080 N   0  0  0  0  0  0  0  0  0  0  0  0
  -31.5620  -14.9510   19.3800 O   0  0  0  0  0  0  0  0  0  0  0  0
  -25.1560  -13.6020   20.5170 C   0  0  0  0  0  0  0  0  0  0  0  0
  -24.1320  -12.8120   20.9480 C   0  0  0  0  0  0  0  0  0  0  0  0
  -24.6030  -11.4700   20.8270 C   0  0  0  0  0  0  0  0  0  0  0  0
  -26.1920  -12.7550   20.1620 N   0  0  0  0  0  0  0  0  0  0  0  0
  -25.8680  -11.4560   20.4110 N   0  0  0  0  0  0  0  0  0  0  0  0
  -23.8920  -10.2030   21.0260 C   0  0  0  0  0  0  0  0  0  0  0  0
  -24.3670   -9.2210   21.9210 C   0  0  0  0  0  3  0  0  0  0  0  0
  -23.6500   -8.0190   22.1060 C   0  0  0  0  0  3  0  0  0  0  0  0
  -22.4460   -7.7940   21.3950 C   0  0  0  0  0  0  0  0  0  0  0  0
  -21.9910   -8.7660   20.4880 C   0  0  0  0  0  3  0  0  0  0  0  0
  -22.7090   -9.9590   20.3010 C   0  0  0  0  0  3  0  0  0  0  0  0
  -21.6960   -6.6480   21.4930 O   0  0  0  0  0  0  0  0  0  0  0  0
  -21.6690   -5.9060   22.6460 C   0  0  0  0  0  0  0  0  0  0  0  0
  -21.2280   -6.4500   23.8720 C   0  0  0  0  0  3  0  0  0  0  0  0
  -21.1540   -5.6330   25.0170 C   0  0  0  0  0  3  0  0  0  0  0  0
  -21.5090   -4.2730   24.9370 C   0  0  0  0  0  0  0  0  0  0  0  0
  -21.9430   -3.7280   23.7150 C   0  0  0  0  0  3  0  0  0  0  0  0
  -22.0210   -4.5430   22.5720 C   0  0  0  0  0  0  0  0  0  0  0  0
  -22.4240   -4.0100   21.3930 F   0  0  0  0  0  0  0  0  0  0  0  0
  -21.4290   -3.4860   26.0360 F   0  0  0  0  0  0  0  0  0  0  0  0
  -22.7620  -13.2820   21.3480 C   0  0  0  0  0  0  0  0  0  0  0  0
  -22.0950  -12.5690   22.2490 N   0  0  0  0  0  0  0  0  0  0  0  0
  -22.2900  -14.3270   20.8990 O   0  0  0  0  0  0  0  0  0  0  0  0
  -22.4780  -11.7300   22.6590 H   0  0  0  0  0  0  0  0  0  0  0  0
  -21.1780  -12.8780   22.5400 H   0  0  0  0  0  0  0  0  0  0  0  0
  -25.2570  -14.9720   20.3810 N   0  0  0  0  0  0  0  0  0  0  0  0
  -24.4660  -15.5730   20.5810 H   0  0  0  0  0  0  0  0  0  0  0  0
  -26.0990  -15.4820   20.1590 H   0  0  0  0  0  0  0  0  0  0  0  0
  -26.8160  -17.5480   20.3050 C   0  0  0  0  0  1  0  0  0  0  0  0
  -27.5370  -17.6310   18.9500 C   0  0  0  0  0  2  0  0  0  0  0  0
  1  3  1  0
  1  5  1  0
  2  4  1  0
  3  6  1  0
  5 48  1  0
  5  2  1  0
  6  7  1  0
  6  4  1  0
  8 19  2  0
  9  7  1  0
  9 14  1  0
 10 18  1  0
 10 20  1  0
 11 17  1  0
 11 13  1  0
 12 18  1  0
 13 12  1  0
 14 13  2  0
 15  9  2  0
 16 15  1  0
 16 11  2  0
 17 10  1  0
 18  8  1  0
 20 22  2  0
 21 20  1  0
 23 21  1  0
 24 33  2  0
 24 29  1  0
 25 21  1  0
 25 29  1  0
 26 25  1  0
 27 28  1  0
 27 26  1  0
 28 24  1  0
 29 30  2  0
 30 31  1  0
 32 31  2  0
 33 32  1  0
 34  8  1  0
 34 39  1  0
 34 35  1  0
 35 38  1  1
 35 36  1  0
 37 35  1  0
 39 42  1  0
 40 44  1  0
 40 39  1  0
 41 40  2  0
 44 43  1  0
 46 44  1  0
 46 47  1  0
 46 45  1  0
 48 52  1  0
 49 53  2  0
 50 54  1  0
 50 49  1  0
 51 91  1  0
 51 52  1  0
 51 50  1  0
 52 49  1  0
 54 60  1  0
 55 60  1  0
 56 57  1  0
 56 55  1  0
 58 57  1  0
 58 65  1  0
 58 59  1  0
 60 59  1  0
 61 54  2  0
 62 63  2  0
 63 82  1  0
 64 63  1  0
 64 67  1  0
 65 66  1  0
 65 62  1  0
 66 64  2  0
 67 68  1  0
 68 69  2  0
 70 73  1  0
 70 69  1  0
 71 70  2  0
 72 71  1  0
 72 67  2  0
 73 74  1  0
 74 75  1  0
 75 76  2  0
 77 76  1  0
 77 81  1  0
 78 77  2  0
 79 74  2  0
 79 78  1  0
 80 79  1  0
 82 83  1  0
 83 86  1  0
 83 85  1  0
 84 82  2  0
 87 62  1  0
 87 88  1  0
 89 87  1  0
 91 90  1  0
M  ISO  4   6 101   7 101  50 100  54 100
M  END
>  <TORSDO>  (44) 
F 19

>  <SCORE>  (44) 
-14.062

>  <name>  (44) 
44

>  <ligand_id>  (44) 
44

>  <original_smiles>  (44) 
[H]c1c([H])c([H])c2c(c1[H])C([H])([H])C([H])([H])C([H])([H])C2([H])N([H])C(=O)C1([H])N(C(=O)C([H])(N([H])C(=O)C([H])(N([H])C([H])([H])[H])C([H])([H])[H])C(C([H])([H])[H])(C([H])([H])[H])C([H])([H])[H])C([H])([H])c2c([H])c(OC3([H])C([H])([H])C([H])([H])C([H])(C([H])([H])N4C(=O)C([H])(C(=O)N5C([H])([H])C([H])([H])C([H])([H])C([H])(n6nc(-c7c([H])c([H])c(Oc8c([H])c([H])c(F)c([H])c8F)c([H])c7[H])c(C(=O)N([H])[H])c6N([H])[H])C5([H])[H])C4([H])C([H])([H])C([H])([H])[H])C([H])([H])C3([H])[H])c([H])c([H])c2C1([H])[H]

>  <smiles>  (44) 
[H]c1c([H])c([H])c2c(c1[H])C([H])([H])C([H])([H])C([H])([H])C2([H])N([H])C(=O)C1([H])N(C(=O)C([H])(N([H])C(=O)C([H])(N([H])C([H])([H])[H])C([H])([H])[H])C(C([H])([H])[H])(C([H])([H])[H])C([H])([H])[H])C([H])([H])c2c([H])c(OC3([H])C([H])([H])C([H])([H])C([H])(C([H])([H])N4C(=O)C([H])(C(=O)N5C([H])([H])C([H])([H])C([H])([H])C([H])(n6nc(-c7c([H])c([H])c(Oc8c([H])c([H])c(F)c([H])c8F)c([H])c7[H])c(C(=O)N([H])[H])c6N([H])[H])C5([H])[H])C4([H])C([H])([H])C([H])([H])[H])C([H])([H])C3([H])[H])c([H])c([H])c2C1([H])[H]

$$$$
45:0:0
     RDKit          3D

 92101  0  0  1  0  0  0  0  0999 V2000
  -26.9220  -21.6500   19.7830 C   0  0  0  0  0  3  0  0  0  0  0  0
  -27.1500  -23.0830   19.8560 C   0  0  0  0  0  3  0  0  0  0  0  0
  -29.2510  -20.8760   19.8770 C   0  0  0  0  0  0  0  0  0  0  0  0
  -27.8790  -20.5560   19.7690 C   0  0  0  0  0  0  0  0  0  0  0  0
  -29.4350  -22.4950   19.9450 C   0  0  0  0  0  0  0  0  0  0  0  0
  -28.4080  -23.7480   19.9330 C   0  0  0  0  0  0  0  0  0  0  0  0
  -30.2380  -19.3570   19.8530 C   0  0  0  0  0  0  0  0  0  0  0  0
  -28.3910  -17.7920   19.3460 C   0  0  0  0  0  2  0  0  0  0  0  0
  -27.3810  -19.0400   19.6720 C   0  0  1  0  0  0  0  0  0  0  0  0
  -29.8100  -17.5750   20.0090 C   0  0  2  0  0  0  0  0  0  0  0  0
  -30.8850  -22.9340   20.0590 C   0  0  0  0  0  1  0  0  0  0  0  0
  -26.6160  -18.7230   20.9760 C   0  0  0  0  0  1  0  0  0  0  0  0
  -26.3430  -18.9670   18.5230 C   0  0  0  0  0  1  0  0  0  0  0  0
  -29.6520  -17.4230   21.5450 C   0  0  0  0  0  1  0  0  0  0  0  0
  -31.4540  -19.5440   19.7460 O   0  0  0  0  0  0  0  0  0  0  0  0
  -30.6460  -15.8640   19.6510 C   0  0  0  0  0  0  0  0  0  0  0  0
  -30.8460  -13.2650   18.8870 C   0  0  0  0  0  2  0  0  0  0  0  0
  -29.8830  -12.7520   17.7700 C   0  0  0  0  0  2  0  0  0  0  0  0
  -28.5440  -12.3020   18.3680 C   0  0  0  0  0  2  0  0  0  0  0  0
  -28.0590  -13.3090   19.4330 C   0  0  0  0  0  3  0  0  0  0  0  0
  -29.1570  -13.7460   20.4380 C   0  0  0  0  0  2  0  0  0  0  0  0
  -30.2320  -14.4380   19.6820 N   0  0  0  0  0  0  0  0  0  0  0  0
  -31.8390  -15.8200   19.2820 O   0  0  0  0  0  0  0  0  0  0  0  0
  -25.8590  -13.7390   20.6210 C   0  0  0  0  0  0  0  0  0  0  0  0
  -24.8390  -12.9320   21.0270 C   0  0  0  0  0  0  0  0  0  0  0  0
  -25.2490  -11.5960   20.7280 C   0  0  0  0  0  0  0  0  0  0  0  0
  -26.8230  -12.9050   20.0920 N   0  0  0  0  0  0  0  0  0  0  0  0
  -26.4800  -11.5940   20.2170 N   0  0  0  0  0  0  0  0  0  0  0  0
  -24.5070  -10.3320   20.8450 C   0  0  0  0  0  0  0  0  0  0  0  0
  -24.8940   -9.3280   21.7590 C   0  0  0  0  0  3  0  0  0  0  0  0
  -24.1490   -8.1340   21.8690 C   0  0  0  0  0  3  0  0  0  0  0  0
  -23.0040   -7.9330   21.0630 C   0  0  0  0  0  0  0  0  0  0  0  0
  -22.6350   -8.9260   20.1380 C   0  0  0  0  0  3  0  0  0  0  0  0
  -23.3810  -10.1120   20.0260 C   0  0  0  0  0  3  0  0  0  0  0  0
  -22.2360   -6.7950   21.0820 O   0  0  0  0  0  0  0  0  0  0  0  0
  -21.9350   -6.1490   22.2550 C   0  0  0  0  0  0  0  0  0  0  0  0
  -21.2360   -6.7880   23.3000 C   0  0  0  0  0  3  0  0  0  0  0  0
  -20.8870   -6.0670   24.4590 C   0  0  0  0  0  3  0  0  0  0  0  0
  -21.2280   -4.7050   24.5720 C   0  0  0  0  0  0  0  0  0  0  0  0
  -21.9200   -4.0650   23.5280 C   0  0  0  0  0  3  0  0  0  0  0  0
  -22.2700   -4.7850   22.3730 C   0  0  0  0  0  0  0  0  0  0  0  0
  -22.9200   -4.1570   21.3620 F   0  0  0  0  0  0  0  0  0  0  0  0
  -20.8860   -4.0100   25.6810 F   0  0  0  0  0  0  0  0  0  0  0  0
  -23.5160  -13.3880   21.5650 C   0  0  0  0  0  0  0  0  0  0  0  0
  -22.9010  -12.5980   22.4380 N   0  0  0  0  0  0  0  0  0  0  0  0
  -23.0420  -14.4790   21.2520 O   0  0  0  0  0  0  0  0  0  0  0  0
  -23.2990  -11.7130   22.7190 H   0  0  0  0  0  0  0  0  0  0  0  0
  -22.0170  -12.8830   22.8350 H   0  0  0  0  0  0  0  0  0  0  0  0
  -26.0290  -15.1180   20.6210 N   0  0  0  0  0  0  0  0  0  0  0  0
  -25.3030  -15.7480   20.9420 H   0  0  0  0  0  0  0  0  0  0  0  0
  -26.8200  -15.5940   20.2140 H   0  0  0  0  0  0  0  0  0  0  0  0
  -28.4660  -25.3990   20.0000 O   0  0  0  0  0  0  0  0  0  0  0  0
  -24.8140  -31.6570   23.0630 C   0  0  0  0  0  0  0  0  0  0  0  0
  -27.4740  -26.6310   19.9900 C   0  0  0  0  0  0  0  0  0  0  0  0
  -23.6910  -30.3050   21.3430 C   0  0  0  0  0  3  0  0  0  0  0  0
  -25.1970  -28.7070   19.9220 C   0  0  0  0  0  0  0  0  0  0  0  0
  -26.2740  -30.4490   21.3160 C   0  0  0  0  0  2  0  0  0  0  0  0
  -26.3690  -29.0300   20.6170 C   0  0  0  0  0  0  0  0  0  0  0  0
  -27.4840  -28.0220   20.6220 C   0  0  0  0  0  3  0  0  0  0  0  0
  -26.2700  -26.5510   19.2350 C   0  0  0  0  0  3  0  0  0  0  0  0
  -25.1930  -27.4920   19.2100 C   0  0  0  0  0  3  0  0  0  0  0  0
  -23.9820  -29.6520   19.9580 C   0  0  0  0  0  2  0  0  0  0  0  0
  -24.9500  -30.8390   21.9610 N   0  0  0  0  0  0  0  0  0  0  0  0
  -23.7030  -31.9320   23.5480 O   0  0  0  0  0  0  0  0  0  0  0  0
  -22.9510  -29.2940   22.2580 C   0  0  0  0  0  0  0  0  0  0  0  0
  -21.6160  -29.1670   22.1230 N   0  0  0  0  0  0  0  0  0  0  0  0
  -23.5920  -28.6210   23.0680 O   0  0  0  0  0  0  0  0  0  0  0  0
  -21.1470  -29.7580   21.4500 H   0  0  0  0  0  0  0  0  0  0  0  0
  -18.2000  -28.0290   22.6190 C   0  0  0  0  0  0  0  0  0  0  0  0
  -20.7740  -28.2030   22.8440 C   0  0  0  0  0  3  0  0  0  0  0  0
  -20.8180  -26.8150   22.1640 C   0  0  0  0  0  2  0  0  0  0  0  0
  -19.6880  -26.6030   21.1500 C   0  0  0  0  0  2  0  0  0  0  0  0
  -18.3240  -26.7350   21.8330 C   0  0  0  0  0  2  0  0  0  0  0  0
  -19.3490  -28.7270   23.0780 C   0  0  0  0  0  0  0  0  0  0  0  0
  -19.1730  -29.9410   23.7790 C   0  0  0  0  0  3  0  0  0  0  0  0
  -17.8850  -30.4550   24.0200 C   0  0  0  0  0  3  0  0  0  0  0  0
  -16.7520  -29.7520   23.5740 C   0  0  0  0  0  3  0  0  0  0  0  0
  -16.9110  -28.5400   22.8780 C   0  0  0  0  0  3  0  0  0  0  0  0
  -26.0480  -32.3010   23.7650 C   0  0  0  0  0  3  0  0  0  0  0  0
  -25.7030  -33.6890   24.1330 N   0  0  0  0  0  0  0  0  0  0  0  0
  -26.0210  -34.7810   23.4220 C   0  0  0  0  0  0  0  0  0  0  0  0
  -26.6910  -34.7260   22.3880 O   0  0  0  0  0  0  0  0  0  0  0  0
  -25.1080  -33.8020   24.9410 H   0  0  0  0  0  0  0  0  0  0  0  0
  -24.2520  -36.5580   23.1730 C   0  0  0  0  0  1  0  0  0  0  0  0
  -25.5220  -36.1480   23.9370 C   0  0  0  0  0  3  0  0  0  0  0  0
  -27.6520  -37.0670   24.7500 C   0  0  0  0  0  1  0  0  0  0  0  0
  -26.5300  -37.2250   23.8290 N   0  0  0  0  0  0  0  0  0  0  0  0
  -26.1070  -38.1330   23.9980 H   0  0  0  0  0  0  0  0  0  0  0  0
  -26.5080  -31.5090   25.0530 C   0  0  1  0  0  0  0  0  0  0  0  0
  -25.3680  -31.2550   26.0670 C   0  0  0  0  0  1  0  0  0  0  0  0
  -27.1100  -30.1360   24.6780 C   0  0  0  0  0  1  0  0  0  0  0  0
  -27.6280  -32.2940   25.7770 C   0  0  0  0  0  1  0  0  0  0  0  0
  1  2  1  0
  2  6  2  0
  3  5  2  0
  4  1  2  0
  4  3  1  0
  5 11  1  0
  6  5  1  0
  6 52  1  0
  7  3  1  0
  7 10  1  0
  8  9  1  0
  8 10  1  0
  9  4  1  0
  9 12  1  1
 10 14  1  1
 13  9  1  0
 15  7  2  0
 16 22  1  0
 16 10  1  0
 17 22  1  0
 18 19  1  0
 18 17  1  0
 20 19  1  0
 20 27  1  0
 20 21  1  0
 22 21  1  0
 23 16  2  0
 24 25  2  0
 25 44  1  0
 26 29  1  0
 26 25  1  0
 27 28  1  0
 27 24  1  0
 28 26  2  0
 29 30  1  0
 30 31  2  0
 32 35  1  0
 32 31  1  0
 33 32  2  0
 34 33  1  0
 34 29  2  0
 35 36  1  0
 36 41  2  0
 36 37  1  0
 37 38  2  0
 38 39  1  0
 39 43  1  0
 40 39  2  0
 41 40  1  0
 42 41  1  0
 44 45  1  0
 45 47  1  0
 45 48  1  0
 46 44  2  0
 49 24  1  0
 49 50  1  0
 51 49  1  0
 53 64  2  0
 54 52  1  0
 54 59  1  0
 55 63  1  0
 55 65  1  0
 56 62  1  0
 56 58  1  0
 57 63  1  0
 58 59  2  0
 58 57  1  0
 60 54  2  0
 61 60  1  0
 61 56  2  0
 62 55  1  0
 63 53  1  0
 65 67  2  0
 66 65  1  0
 68 66  1  0
 69 78  2  0
 69 74  1  0
 70 66  1  0
 70 74  1  0
 71 70  1  0
 72 73  1  0
 72 71  1  0
 73 69  1  0
 74 75  2  0
 75 76  1  0
 77 76  2  0
 78 77  1  0
 79 53  1  0
 79 80  1  0
 79 89  1  0
 80 83  1  0
 81 85  1  0
 81 80  1  0
 82 81  2  0
 85 84  1  0
 87 85  1  0
 87 88  1  0
 87 86  1  0
 89 92  1  1
 89 90  1  0
 91 89  1  0
M  ISO  4   6 101  10 100  16 100  52 101
M  END
>  <TORSDO>  (45) 
F 16

>  <SCORE>  (45) 
-11.564

>  <name>  (45) 
45

>  <ligand_id>  (45) 
45

>  <original_smiles>  (45) 
[H]c1c([H])c([H])c2c(c1[H])C([H])([H])C([H])([H])C([H])([H])C2([H])N([H])C(=O)C1([H])N(C(=O)C([H])(N([H])C(=O)C([H])(N([H])C([H])([H])[H])C([H])([H])[H])C(C([H])([H])[H])(C([H])([H])[H])C([H])([H])[H])C([H])([H])c2c([H])c(Oc3c([H])c([H])c4c(c3C([H])([H])[H])C(=O)C(C(=O)N3C([H])([H])C([H])([H])C([H])([H])C([H])(n5nc(-c6c([H])c([H])c(Oc7c([H])c([H])c(F)c([H])c7F)c([H])c6[H])c(C(=O)N([H])[H])c5N([H])[H])C3([H])[H])(C([H])([H])[H])C([H])([H])C4(C([H])([H])[H])C([H])([H])[H])c([H])c([H])c2C1([H])[H]

>  <smiles>  (45) 
[H]c1c([H])c([H])c2c(c1[H])C([H])([H])C([H])([H])C([H])([H])C2([H])N([H])C(=O)C1([H])N(C(=O)C([H])(N([H])C(=O)C([H])(N([H])C([H])([H])[H])C([H])([H])[H])C(C([H])([H])[H])(C([H])([H])[H])C([H])([H])[H])C([H])([H])c2c([H])c(Oc3c([H])c([H])c4c(c3C([H])([H])[H])C(=O)C(C(=O)N3C([H])([H])C([H])([H])C([H])([H])C([H])(n5nc(-c6c([H])c([H])c(Oc7c([H])c([H])c(F)c([H])c7F)c([H])c6[H])c(C(=O)N([H])[H])c5N([H])[H])C3([H])[H])(C([H])([H])[H])C([H])([H])C4(C([H])([H])[H])C([H])([H])[H])c([H])c([H])c2C1([H])[H]

$$$$
46:0:0
     RDKit          3D

 97106  0  0  1  0  0  0  0  0999 V2000
  -28.4010  -20.1570   20.3570 N   0  0  0  0  0  4  0  0  0  0  0  0
  -27.8200  -19.9790   19.5530 H   0  0  0  0  0  0  0  0  0  0  0  0
  -27.8290  -19.9320   21.1560 H   0  0  0  0  0  0  0  0  0  0  0  0
  -32.0910  -19.3960   19.7590 C   0  0  0  0  0  2  0  0  0  0  0  0
  -32.6310  -17.9820   20.0430 C   0  0  0  0  0  2  0  0  0  0  0  0
  -30.6230  -19.5210   19.2860 C   0  0  0  0  0  2  0  0  0  0  0  0
  -31.6800  -17.0720   20.8580 C   0  0  0  0  0  2  0  0  0  0  0  0
  -29.2350  -17.4930   20.3840 C   0  0  0  0  0  2  0  0  0  0  0  0
  -29.5590  -19.1310   20.3600 C   0  0  0  0  0  3  0  0  0  0  0  0
  -30.4620  -16.4470   20.0640 C   0  0  2  0  0  0  0  0  0  0  0  0
  -30.6780  -14.8130   20.1430 C   0  0  0  0  0  0  0  0  0  0  0  0
  -30.2180  -12.5340   19.2410 C   0  0  0  0  0  2  0  0  0  0  0  0
  -29.2910  -12.5780   18.0140 C   0  0  0  0  0  2  0  0  0  0  0  0
  -27.8360  -12.4250   18.4790 C   0  0  0  0  0  2  0  0  0  0  0  0
  -27.4870  -13.3470   19.6760 C   0  0  0  0  0  3  0  0  0  0  0  0
  -28.5810  -13.4100   20.7670 C   0  0  0  0  0  2  0  0  0  0  0  0
  -29.8610  -13.6950   20.1140 N   0  0  0  0  0  0  0  0  0  0  0  0
  -31.8500  -14.5740   19.8490 O   0  0  0  0  0  0  0  0  0  0  0  0
  -25.1450  -13.8940   20.5370 C   0  0  0  0  0  0  0  0  0  0  0  0
  -24.0980  -13.1060   20.9230 C   0  0  0  0  0  0  0  0  0  0  0  0
  -24.5610  -11.7580   20.8400 C   0  0  0  0  0  0  0  0  0  0  0  0
  -26.1780  -13.0260   20.2300 N   0  0  0  0  0  0  0  0  0  0  0  0
  -25.8410  -11.7340   20.4840 N   0  0  0  0  0  0  0  0  0  0  0  0
  -23.8390  -10.4900   21.0230 C   0  0  0  0  0  0  0  0  0  0  0  0
  -24.2800   -9.5150   21.9460 C   0  0  0  0  0  3  0  0  0  0  0  0
  -23.5590   -8.3130   22.1190 C   0  0  0  0  0  3  0  0  0  0  0  0
  -22.3830   -8.0770   21.3690 C   0  0  0  0  0  0  0  0  0  0  0  0
  -21.9600   -9.0410   20.4350 C   0  0  0  0  0  3  0  0  0  0  0  0
  -22.6820  -10.2330   20.2600 C   0  0  0  0  0  3  0  0  0  0  0  0
  -21.6320   -6.9290   21.4510 O   0  0  0  0  0  0  0  0  0  0  0  0
  -21.5590   -6.1970   22.6100 C   0  0  0  0  0  0  0  0  0  0  0  0
  -21.0730   -6.7560   23.8130 C   0  0  0  0  0  3  0  0  0  0  0  0
  -20.9480   -5.9510   24.9630 C   0  0  0  0  0  3  0  0  0  0  0  0
  -21.3000   -4.5880   24.9110 C   0  0  0  0  0  0  0  0  0  0  0  0
  -21.7790   -4.0300   23.7120 C   0  0  0  0  0  3  0  0  0  0  0  0
  -21.9040   -4.8320   22.5650 C   0  0  0  0  0  0  0  0  0  0  0  0
  -22.3470   -4.2840   21.4070 F   0  0  0  0  0  0  0  0  0  0  0  0
  -21.1730   -3.8120   26.0120 F   0  0  0  0  0  0  0  0  0  0  0  0
  -22.7120  -13.5730   21.2540 C   0  0  0  0  0  0  0  0  0  0  0  0
  -22.0190  -12.8570   22.1300 N   0  0  0  0  0  0  0  0  0  0  0  0
  -22.2570  -14.6100   20.7720 O   0  0  0  0  0  0  0  0  0  0  0  0
  -22.4030  -12.0140   22.5330 H   0  0  0  0  0  0  0  0  0  0  0  0
  -21.0880  -13.1500   22.3970 H   0  0  0  0  0  0  0  0  0  0  0  0
  -25.3060  -15.2690   20.3890 N   0  0  0  0  0  0  0  0  0  0  0  0
  -24.5430  -15.9200   20.5440 H   0  0  0  0  0  0  0  0  0  0  0  0
  -26.1400  -15.7130   20.0260 H   0  0  0  0  0  0  0  0  0  0  0  0
  -30.6920  -16.5340   18.6050 N   0  0  0  0  0  4  0  0  0  0  0  0
  -30.9570  -17.4550   18.3040 H   0  0  0  0  0  0  0  0  0  0  0  0
  -29.9040  -16.2000   18.0780 H   0  0  0  0  0  0  0  0  0  0  0  0
  -31.4570  -15.8910   18.4440 H   0  0  0  0  0  0  0  0  0  0  0  0
  -28.3440  -22.4870   19.1030 C   0  0  0  0  0  2  0  0  0  0  0  0
  -27.8850  -22.4920   21.5200 C   0  0  0  0  0  2  0  0  0  0  0  0
  -28.6100  -24.0520   19.1370 C   0  0  0  0  0  2  0  0  0  0  0  0
  -28.1470  -24.0660   21.5640 C   0  0  0  0  0  2  0  0  0  0  0  0
  -28.6720  -21.6910   20.4190 C   0  0  0  0  0  3  0  0  0  0  0  0
  -27.8550  -24.8590   20.2400 C   0  0  0  0  0  3  0  0  0  0  0  0
  -28.1370  -26.3550   20.2380 O   0  0  0  0  0  0  0  0  0  0  0  0
  -24.5980  -31.9290   23.2660 C   0  0  0  0  0  0  0  0  0  0  0  0
  -27.0830  -27.2970   20.1640 C   0  0  0  0  0  0  0  0  0  0  0  0
  -23.3660  -30.5600   21.6280 C   0  0  0  0  0  3  0  0  0  0  0  0
  -24.7800  -29.0100   20.1640 C   0  0  0  0  0  0  0  0  0  0  0  0
  -25.9140  -30.8290   21.4330 C   0  0  0  0  0  2  0  0  0  0  0  0
  -25.9640  -29.4530   20.7700 C   0  0  0  0  0  0  0  0  0  0  0  0
  -27.1200  -28.6060   20.7610 C   0  0  0  0  0  3  0  0  0  0  0  0
  -25.8950  -26.9570   19.4850 C   0  0  0  0  0  3  0  0  0  0  0  0
  -24.7530  -27.7740   19.5070 C   0  0  0  0  0  3  0  0  0  0  0  0
  -23.5600  -29.9050   20.2370 C   0  0  0  0  0  2  0  0  0  0  0  0
  -24.6460  -31.1250   22.1640 N   0  0  0  0  0  0  0  0  0  0  0  0
  -23.5220  -32.2150   23.8120 O   0  0  0  0  0  0  0  0  0  0  0  0
  -22.7010  -29.5380   22.5820 C   0  0  0  0  0  0  0  0  0  0  0  0
  -21.3750  -29.3610   22.4580 N   0  0  0  0  0  0  0  0  0  0  0  0
  -23.3790  -28.9090   23.4000 O   0  0  0  0  0  0  0  0  0  0  0  0
  -20.8830  -29.9220   21.7740 H   0  0  0  0  0  0  0  0  0  0  0  0
  -17.9980  -28.1570   22.9600 C   0  0  0  0  0  0  0  0  0  0  0  0
  -20.5560  -28.4220   23.2290 C   0  0  0  0  0  3  0  0  0  0  0  0
  -20.6610  -26.9900   22.6550 C   0  0  0  0  0  2  0  0  0  0  0  0
  -19.5590  -26.6660   21.6400 C   0  0  0  0  0  2  0  0  0  0  0  0
  -18.1770  -26.8090   22.2840 C   0  0  0  0  0  2  0  0  0  0  0  0
  -19.1160  -28.9210   23.3890 C   0  0  0  0  0  0  0  0  0  0  0  0
  -18.8910  -30.1850   23.9800 C   0  0  0  0  0  3  0  0  0  0  0  0
  -17.5850  -30.6820   24.1460 C   0  0  0  0  0  3  0  0  0  0  0  0
  -16.4830  -29.9130   23.7330 C   0  0  0  0  0  3  0  0  0  0  0  0
  -16.6910  -28.6530   23.1430 C   0  0  0  0  0  3  0  0  0  0  0  0
  -25.8930  -32.5470   23.8800 C   0  0  0  0  0  3  0  0  0  0  0  0
  -26.4130  -31.7650   25.1490 C   0  0  1  0  0  0  0  0  0  0  0  0
  -25.3270  -31.5280   26.2250 C   0  0  0  0  0  1  0  0  0  0  0  0
  -26.9840  -30.3840   24.7510 C   0  0  0  0  0  1  0  0  0  0  0  0
  -27.5760  -32.5480   25.8050 C   0  0  0  0  0  1  0  0  0  0  0  0
  -25.5990  -33.9450   24.2210 N   0  0  0  0  0  0  0  0  0  0  0  0
  -25.9040  -35.0010   23.4530 C   0  0  0  0  0  0  0  0  0  0  0  0
  -26.5330  -34.8960   22.3960 O   0  0  0  0  0  0  0  0  0  0  0  0
  -25.0340  -34.1010   25.0430 H   0  0  0  0  0  0  0  0  0  0  0  0
  -24.1570  -36.7930   23.1840 C   0  0  0  0  0  1  0  0  0  0  0  0
  -25.4380  -36.3890   23.9320 C   0  0  0  0  0  3  0  0  0  0  0  0
  -27.6080  -37.2790   24.6580 C   0  0  0  0  0  1  0  0  0  0  0  0
  -26.4610  -37.4450   23.7700 N   0  0  0  0  0  0  0  0  0  0  0  0
  -26.0600  -38.3630   23.9440 H   0  0  0  0  0  0  0  0  0  0  0  0
  1  3  1  0
  2  1  1  0
  4  5  1  0
  5  7  1  0
  6  4  1  0
  6  9  1  0
  9  1  1  0
  9  8  1  0
 10 11  1  0
 10  8  1  0
 10  7  1  0
 12 17  1  0
 13 14  1  0
 13 12  1  0
 15 14  1  0
 15 22  1  0
 15 16  1  0
 17 11  1  0
 17 16  1  0
 18 11  2  0
 19 20  2  0
 20 39  1  0
 21 20  1  0
 21 24  1  0
 22 23  1  0
 22 19  1  0
 23 21  2  0
 24 25  1  0
 25 26  2  0
 27 30  1  0
 27 26  1  0
 28 27  2  0
 29 28  1  0
 29 24  2  0
 30 31  1  0
 31 32  1  0
 32 33  2  0
 34 33  1  0
 34 38  1  0
 35 34  2  0
 36 31  2  0
 36 35  1  0
 37 36  1  0
 39 40  1  0
 40 43  1  0
 40 42  1  0
 41 39  2  0
 44 19  1  0
 44 45  1  0
 46 44  1  0
 10 47  1  6
 48 47  1  0
 49 47  1  0
 50 47  1  0
 51 53  1  0
 51 55  1  0
 52 54  1  0
 53 56  1  0
 55  1  1  0
 55 52  1  0
 56 57  1  0
 56 54  1  0
 58 69  2  0
 59 57  1  0
 59 64  1  0
 60 68  1  0
 60 70  1  0
 61 67  1  0
 61 63  1  0
 62 68  1  0
 63 62  1  0
 64 63  2  0
 65 66  1  0
 65 59  2  0
 66 61  2  0
 67 60  1  0
 68 58  1  0
 70 72  2  0
 71 70  1  0
 73 71  1  0
 74 83  2  0
 74 79  1  0
 75 71  1  0
 75 79  1  0
 76 75  1  0
 77 78  1  0
 77 76  1  0
 78 74  1  0
 79 80  2  0
 80 81  1  0
 82 81  2  0
 83 82  1  0
 84 58  1  0
 84 89  1  0
 84 85  1  0
 85 88  1  1
 85 86  1  0
 87 85  1  0
 89 92  1  0
 90 94  1  0
 90 89  1  0
 91 90  2  0
 94 93  1  0
 96 94  1  0
 96 97  1  0
 96 95  1  0
M  ISO  4  10 100  11 100  56 101  57 101
M  END
>  <TORSDO>  (46) 
F 19

>  <SCORE>  (46) 
-15.037

>  <name>  (46) 
46

>  <ligand_id>  (46) 
46

>  <original_smiles>  (46) 
[H]c1c([H])c([H])c2c(c1[H])C([H])([H])C([H])([H])C([H])([H])C2([H])N([H])C(=O)C1([H])N(C(=O)C([H])(N([H])C(=O)C([H])(N([H])C([H])([H])[H])C([H])([H])[H])C(C([H])([H])[H])(C([H])([H])[H])C([H])([H])[H])C([H])([H])c2c([H])c(OC3([H])C([H])([H])C([H])([H])C([H])([N+]([H])([H])C4([H])C([H])([H])C([H])([H])C([H])([H])C([H])([H])C(C(=O)N5C([H])([H])C([H])([H])C([H])([H])C([H])(n6nc(-c7c([H])c([H])c(Oc8c([H])c([H])c(F)c([H])c8F)c([H])c7[H])c(C(=O)N([H])[H])c6N([H])[H])C5([H])[H])([N+]([H])([H])[H])C4([H])[H])C([H])([H])C3([H])[H])c([H])c([H])c2C1([H])[H]

>  <smiles>  (46) 
[H]c1c([H])c([H])c2c(c1[H])C([H])([H])C([H])([H])C([H])([H])C2([H])N([H])C(=O)C1([H])N(C(=O)C([H])(N([H])C(=O)C([H])(N([H])C([H])([H])[H])C([H])([H])[H])C(C([H])([H])[H])(C([H])([H])[H])C([H])([H])[H])C([H])([H])c2c([H])c(OC3([H])C([H])([H])C([H])([H])C([H])([N+]([H])([H])C4([H])C([H])([H])C([H])([H])C([H])([H])C([H])([H])C(C(=O)N5C([H])([H])C([H])([H])C([H])([H])C([H])(n6nc(-c7c([H])c([H])c(Oc8c([H])c([H])c(F)c([H])c8F)c([H])c7[H])c(C(=O)N([H])[H])c6N([H])[H])C5([H])[H])([N+]([H])([H])[H])C4([H])[H])C([H])([H])C3([H])[H])c([H])c([H])c2C1([H])[H]

$$$$
47:0:0
     RDKit          3D

 92100  0  0  1  0  0  0  0  0999 V2000
  -29.9660  -21.2600   20.3750 C   0  0  0  0  0  0  0  0  0  0  0  0
  -29.4440  -19.9050   20.0830 C   0  0  0  0  0  0  0  0  0  0  0  0
  -29.0280  -22.3160   20.3440 C   0  0  0  0  0  0  0  0  0  0  0  0
  -28.0880  -19.9990   19.8480 C   0  0  0  0  0  0  0  0  0  0  0  0
  -31.4150  -21.5200   20.6710 C   0  0  0  0  0  1  0  0  0  0  0  0
  -27.1510  -18.9090   19.4380 C   0  0  0  0  0  1  0  0  0  0  0  0
  -27.4630  -21.6320   20.0140 S   0  0  0  0  0  0  0  0  0  0  0  0
  -30.2190  -18.5250   19.8860 C   0  0  0  0  0  2  0  0  0  0  0  0
  -31.2810  -17.3920   21.9930 C   0  0  0  0  0  1  0  0  0  0  0  0
  -30.1360  -17.3270   20.9660 C   0  0  0  0  0  3  0  0  0  0  0  0
  -30.6410  -14.8040   20.0970 C   0  0  0  0  0  0  0  0  0  0  0  0
  -30.3690  -12.5950   18.9470 C   0  0  0  0  0  2  0  0  0  0  0  0
  -29.3560  -12.7280   17.7850 C   0  0  0  0  0  2  0  0  0  0  0  0
  -27.9120  -12.5430   18.2940 C   0  0  0  0  0  2  0  0  0  0  0  0
  -27.6170  -13.3700   19.5730 C   0  0  0  0  0  3  0  0  0  0  0  0
  -28.7370  -13.2090   20.6230 C   0  0  0  0  0  2  0  0  0  0  0  0
  -30.0020  -13.5910   19.9760 N   0  0  0  0  0  0  0  0  0  0  0  0
  -31.7960  -14.9460   19.6850 O   0  0  0  0  0  0  0  0  0  0  0  0
  -29.8820  -15.8740   20.5370 N   0  0  0  0  0  0  0  0  0  0  0  0
  -28.9390  -15.5800   20.7440 H   0  0  0  0  0  0  0  0  0  0  0  0
  -25.2700  -13.9520   20.4360 C   0  0  0  0  0  0  0  0  0  0  0  0
  -24.2200  -13.1750   20.8430 C   0  0  0  0  0  0  0  0  0  0  0  0
  -24.6760  -11.8230   20.7570 C   0  0  0  0  0  0  0  0  0  0  0  0
  -26.2970  -13.0760   20.1250 N   0  0  0  0  0  0  0  0  0  0  0  0
  -25.9470  -11.7890   20.3760 N   0  0  0  0  0  0  0  0  0  0  0  0
  -23.9530  -10.5580   20.9580 C   0  0  0  0  0  0  0  0  0  0  0  0
  -24.4070   -9.5870   21.8770 C   0  0  0  0  0  3  0  0  0  0  0  0
  -23.6850   -8.3900   22.0680 C   0  0  0  0  0  3  0  0  0  0  0  0
  -22.4970   -8.1540   21.3390 C   0  0  0  0  0  0  0  0  0  0  0  0
  -22.0610   -9.1140   20.4080 C   0  0  0  0  0  3  0  0  0  0  0  0
  -22.7840  -10.3040   20.2150 C   0  0  0  0  0  3  0  0  0  0  0  0
  -21.7480   -7.0060   21.4370 O   0  0  0  0  0  0  0  0  0  0  0  0
  -21.7080   -6.2690   22.5940 C   0  0  0  0  0  0  0  0  0  0  0  0
  -21.2510   -6.8190   23.8120 C   0  0  0  0  0  3  0  0  0  0  0  0
  -21.1570   -6.0060   24.9590 C   0  0  0  0  0  3  0  0  0  0  0  0
  -21.5130   -4.6460   24.8910 C   0  0  0  0  0  0  0  0  0  0  0  0
  -21.9650   -4.0970   23.6770 C   0  0  0  0  0  3  0  0  0  0  0  0
  -22.0600   -4.9070   22.5330 C   0  0  0  0  0  0  0  0  0  0  0  0
  -22.4740   -4.3670   21.3620 F   0  0  0  0  0  0  0  0  0  0  0  0
  -21.4200   -3.8640   25.9910 F   0  0  0  0  0  0  0  0  0  0  0  0
  -22.8420  -13.6530   21.1980 C   0  0  0  0  0  0  0  0  0  0  0  0
  -22.1580  -12.9490   22.0930 N   0  0  0  0  0  0  0  0  0  0  0  0
  -22.3820  -14.6890   20.7180 O   0  0  0  0  0  0  0  0  0  0  0  0
  -22.5490  -12.1180   22.5120 H   0  0  0  0  0  0  0  0  0  0  0  0
  -21.2330  -13.2510   22.3650 H   0  0  0  0  0  0  0  0  0  0  0  0
  -25.4270  -15.3260   20.2810 N   0  0  0  0  0  0  0  0  0  0  0  0
  -24.6500  -15.9620   20.4130 H   0  0  0  0  0  0  0  0  0  0  0  0
  -26.2360  -15.7690   19.8660 H   0  0  0  0  0  0  0  0  0  0  0  0
  -29.1530  -23.8640   20.6570 C   0  0  0  0  0  2  0  0  0  0  0  0
  -28.6530  -24.9080   18.3620 C   0  0  0  0  0  1  0  0  0  0  0  0
  -28.3050  -24.9840   19.8580 C   0  0  0  0  0  3  0  0  0  0  0  0
  -28.4000  -26.4330   20.2650 O   0  0  0  0  0  0  0  0  0  0  0  0
  -24.6180  -31.8830   23.2150 C   0  0  0  0  0  0  0  0  0  0  0  0
  -27.2830  -27.3040   20.1810 C   0  0  0  0  0  0  0  0  0  0  0  0
  -23.4430  -30.4890   21.5560 C   0  0  0  0  0  3  0  0  0  0  0  0
  -24.9170  -28.9460   20.1410 C   0  0  0  0  0  0  0  0  0  0  0  0
  -25.9880  -30.8020   21.4160 C   0  0  0  0  0  2  0  0  0  0  0  0
  -26.0790  -29.4250   20.7580 C   0  0  0  0  0  0  0  0  0  0  0  0
  -27.2630  -28.6170   20.7650 C   0  0  0  0  0  3  0  0  0  0  0  0
  -26.0890  -26.8950   19.5390 C   0  0  0  0  0  3  0  0  0  0  0  0
  -24.9270  -27.6890   19.5230 C   0  0  0  0  0  3  0  0  0  0  0  0
  -23.6790  -29.8230   20.1760 C   0  0  0  0  0  2  0  0  0  0  0  0
  -24.7000  -31.0770   22.1190 N   0  0  0  0  0  0  0  0  0  0  0  0
  -23.5250  -32.1590   23.7340 O   0  0  0  0  0  0  0  0  0  0  0  0
  -22.7660  -29.4660   22.5010 C   0  0  0  0  0  0  0  0  0  0  0  0
  -21.4380  -29.3080   22.3740 N   0  0  0  0  0  0  0  0  0  0  0  0
  -23.4370  -28.8200   23.3120 O   0  0  0  0  0  0  0  0  0  0  0  0
  -20.9560  -29.8810   21.6960 H   0  0  0  0  0  0  0  0  0  0  0  0
  -18.0390  -28.1830   22.9000 C   0  0  0  0  0  0  0  0  0  0  0  0
  -20.6080  -28.3700   23.1320 C   0  0  0  0  0  3  0  0  0  0  0  0
  -20.6620  -26.9530   22.5190 C   0  0  0  0  0  2  0  0  0  0  0  0
  -19.5360  -26.6850   21.5150 C   0  0  0  0  0  2  0  0  0  0  0  0
  -18.1690  -26.8490   22.1850 C   0  0  0  0  0  2  0  0  0  0  0  0
  -19.1830  -28.9050   23.3310 C   0  0  0  0  0  0  0  0  0  0  0  0
  -19.0070  -30.1550   23.9620 C   0  0  0  0  0  3  0  0  0  0  0  0
  -17.7180  -30.6850   24.1630 C   0  0  0  0  0  3  0  0  0  0  0  0
  -16.5890  -29.9590   23.7460 C   0  0  0  0  0  3  0  0  0  0  0  0
  -16.7480  -28.7100   23.1220 C   0  0  0  0  0  3  0  0  0  0  0  0
  -25.8890  -32.5180   23.8600 C   0  0  0  0  0  3  0  0  0  0  0  0
  -26.3790  -31.7530   25.1520 C   0  0  1  0  0  0  0  0  0  0  0  0
  -25.2620  -31.5220   26.1980 C   0  0  0  0  0  1  0  0  0  0  0  0
  -26.9730  -30.3740   24.7850 C   0  0  0  0  0  1  0  0  0  0  0  0
  -27.5160  -32.5520   25.8320 C   0  0  0  0  0  1  0  0  0  0  0  0
  -25.5760  -33.9170   24.1780 N   0  0  0  0  0  0  0  0  0  0  0  0
  -25.9160  -34.9650   23.4160 C   0  0  0  0  0  0  0  0  0  0  0  0
  -26.5950  -34.8560   22.3930 O   0  0  0  0  0  0  0  0  0  0  0  0
  -24.9690  -34.0780   24.9700 H   0  0  0  0  0  0  0  0  0  0  0  0
  -24.1970  -36.7610   23.0310 C   0  0  0  0  0  1  0  0  0  0  0  0
  -25.4240  -36.3560   23.8620 C   0  0  0  0  0  3  0  0  0  0  0  0
  -27.5410  -37.2460   24.7300 C   0  0  0  0  0  1  0  0  0  0  0  0
  -26.4610  -37.4060   23.7620 N   0  0  0  0  0  0  0  0  0  0  0  0
  -26.0510  -38.3280   23.8910 H   0  0  0  0  0  0  0  0  0  0  0  0
  1  5  1  0
  2  1  1  0
  3  1  2  0
  3 49  1  0
  4  7  1  0
  4  2  2  0
  6  4  1  0
  7  3  1  0
  8  2  1  0
  8 10  1  0
 10  9  1  0
 11 19  1  0
 12 17  1  0
 13 14  1  0
 13 12  1  0
 15 14  1  0
 15 24  1  0
 15 16  1  0
 17 11  1  0
 17 16  1  0
 18 11  2  0
 19 20  1  0
 19 10  1  0
 21 22  2  0
 22 41  1  0
 23 22  1  0
 23 26  1  0
 24 25  1  0
 24 21  1  0
 25 23  2  0
 26 27  1  0
 27 28  2  0
 29 32  1  0
 29 28  1  0
 30 29  2  0
 31 30  1  0
 31 26  2  0
 32 33  1  0
 33 34  1  0
 34 35  2  0
 36 35  1  0
 36 40  1  0
 37 36  2  0
 38 33  2  0
 38 37  1  0
 39 38  1  0
 41 42  1  0
 42 45  1  0
 42 44  1  0
 43 41  2  0
 46 47  1  0
 46 21  1  0
 48 46  1  0
 51 50  1  0
 51 52  1  0
 51 49  1  0
 53 64  2  0
 54 52  1  0
 54 59  1  0
 55 63  1  0
 55 65  1  0
 56 62  1  0
 56 58  1  0
 57 63  1  0
 58 59  2  0
 58 57  1  0
 60 54  2  0
 61 60  1  0
 61 56  2  0
 62 55  1  0
 63 53  1  0
 65 67  2  0
 66 65  1  0
 68 66  1  0
 69 78  2  0
 69 74  1  0
 70 66  1  0
 70 74  1  0
 71 70  1  0
 72 73  1  0
 72 71  1  0
 73 69  1  0
 74 75  2  0
 75 76  1  0
 77 76  2  0
 78 77  1  0
 79 53  1  0
 79 84  1  0
 79 80  1  0
 80 83  1  1
 80 81  1  0
 82 80  1  0
 84 87  1  0
 85 89  1  0
 85 84  1  0
 86 85  2  0
 89 88  1  0
 91 89  1  0
 91 92  1  0
 91 90  1  0
M  ISO  4  11 100  19 100  51 101  52 101
M  END
>  <TORSDO>  (47) 
F 20

>  <SCORE>  (47) 
-13.681

>  <name>  (47) 
47

>  <ligand_id>  (47) 
47

>  <original_smiles>  (47) 
[H]c1c([H])c([H])c2c(c1[H])C([H])([H])C([H])([H])C([H])([H])C2([H])N([H])C(=O)C1([H])N(C(=O)C([H])(N([H])C(=O)C([H])(N([H])C([H])([H])[H])C([H])([H])[H])C(C([H])([H])[H])(C([H])([H])[H])C([H])([H])[H])C([H])([H])c2c([H])c(OC([H])(C([H])([H])[H])C([H])([H])c3sc(C([H])([H])[H])c(C([H])([H])C([H])(N([H])C(=O)N4C([H])([H])C([H])([H])C([H])([H])C([H])(n5nc(-c6c([H])c([H])c(Oc7c([H])c([H])c(F)c([H])c7F)c([H])c6[H])c(C(=O)N([H])[H])c5N([H])[H])C4([H])[H])C([H])([H])[H])c3C([H])([H])[H])c([H])c([H])c2C1([H])[H]

>  <smiles>  (47) 
[H]c1c([H])c([H])c2c(c1[H])C([H])([H])C([H])([H])C([H])([H])C2([H])N([H])C(=O)C1([H])N(C(=O)C([H])(N([H])C(=O)C([H])(N([H])C([H])([H])[H])C([H])([H])[H])C(C([H])([H])[H])(C([H])([H])[H])C([H])([H])[H])C([H])([H])c2c([H])c(OC([H])(C([H])([H])[H])C([H])([H])c3sc(C([H])([H])[H])c(C([H])([H])C([H])(N([H])C(=O)N4C([H])([H])C([H])([H])C([H])([H])C([H])(n5nc(-c6c([H])c([H])c(Oc7c([H])c([H])c(F)c([H])c7F)c([H])c6[H])c(C(=O)N([H])[H])c5N([H])[H])C4([H])[H])C([H])([H])[H])c3C([H])([H])[H])c([H])c([H])c2C1([H])[H]

$$$$
48:0:0
     RDKit          3D

 96105  0  0  1  0  0  0  0  0999 V2000
  -29.1270  -21.1650   21.7170 N   0  0  1  0  0  4  0  0  0  0  0  0
  -28.2460  -20.6950   21.8660 H   0  0  0  0  0  0  0  0  0  0  0  0
  -28.6230  -18.0130   18.0560 C   0  0  0  0  0  2  0  0  0  0  0  0
  -28.7440  -16.7740   18.9460 C   0  0  0  0  0  2  0  0  0  0  0  0
  -28.9640  -20.1930   19.3750 C   0  0  0  0  0  2  0  0  0  0  0  0
  -30.1220  -18.9200   21.0120 C   0  0  0  0  0  2  0  0  0  0  0  0
  -29.6200  -19.0270   18.6300 C   0  0  0  0  0  3  0  0  0  0  0  0
  -30.4780  -18.2750   19.6650 C   0  0  0  0  0  3  0  0  0  0  0  0
  -29.8060  -20.3810   20.6430 C   0  0  0  0  0  3  0  0  0  0  0  0
  -30.1890  -16.7660   19.4680 C   0  0  2  0  0  0  0  0  0  0  0  0
  -31.1130  -16.3070   18.2980 C   0  0  0  0  0  1  0  0  0  0  0  0
  -30.3220  -15.9250   20.8030 C   0  0  0  0  0  2  0  0  0  0  0  0
  -30.9500  -14.5330   20.6590 C   0  0  0  0  0  0  0  0  0  0  0  0
  -30.5960  -12.3710   19.5920 C   0  0  0  0  0  2  0  0  0  0  0  0
  -29.7030  -12.5700   18.3500 C   0  0  0  0  0  2  0  0  0  0  0  0
  -28.2200  -12.4400   18.7290 C   0  0  0  0  0  2  0  0  0  0  0  0
  -27.8360  -13.3120   19.9520 C   0  0  0  0  0  3  0  0  0  0  0  0
  -28.8580  -13.1640   21.1010 C   0  0  0  0  0  2  0  0  0  0  0  0
  -30.2130  -13.3940   20.5730 N   0  0  0  0  0  0  0  0  0  0  0  0
  -32.1590  -14.5390   20.4270 O   0  0  0  0  0  0  0  0  0  0  0  0
  -25.4050  -13.9030   20.5520 C   0  0  0  0  0  0  0  0  0  0  0  0
  -24.3310  -13.1270   20.8850 C   0  0  0  0  0  0  0  0  0  0  0  0
  -24.8080  -11.7790   20.9040 C   0  0  0  0  0  0  0  0  0  0  0  0
  -26.4710  -13.0310   20.3860 N   0  0  0  0  0  0  0  0  0  0  0  0
  -26.1120  -11.7490   20.6570 N   0  0  0  0  0  0  0  0  0  0  0  0
  -24.0900  -10.5120   21.0800 C   0  0  0  0  0  0  0  0  0  0  0  0
  -24.4990   -9.5560   22.0360 C   0  0  0  0  0  3  0  0  0  0  0  0
  -23.7750   -8.3540   22.2010 C   0  0  0  0  0  3  0  0  0  0  0  0
  -22.6300   -8.1020   21.4100 C   0  0  0  0  0  0  0  0  0  0  0  0
  -22.2450   -9.0470   20.4400 C   0  0  0  0  0  3  0  0  0  0  0  0
  -22.9690  -10.2390   20.2730 C   0  0  0  0  0  3  0  0  0  0  0  0
  -21.8840   -6.9480   21.4820 O   0  0  0  0  0  0  0  0  0  0  0  0
  -21.8150   -6.2100   22.6380 C   0  0  0  0  0  0  0  0  0  0  0  0
  -21.3460   -6.7630   23.8490 C   0  0  0  0  0  3  0  0  0  0  0  0
  -21.2230   -5.9500   24.9940 C   0  0  0  0  0  3  0  0  0  0  0  0
  -21.5600   -4.5840   24.9270 C   0  0  0  0  0  0  0  0  0  0  0  0
  -22.0210   -4.0320   23.7200 C   0  0  0  0  0  3  0  0  0  0  0  0
  -22.1470   -4.8410   22.5780 C   0  0  0  0  0  0  0  0  0  0  0  0
  -22.5710   -4.2970   21.4130 F   0  0  0  0  0  0  0  0  0  0  0  0
  -21.4360   -3.8020   26.0240 F   0  0  0  0  0  0  0  0  0  0  0  0
  -22.9150  -13.5920   21.0770 C   0  0  0  0  0  0  0  0  0  0  0  0
  -22.1520  -12.9060   21.9200 N   0  0  0  0  0  0  0  0  0  0  0  0
  -22.4920  -14.6010   20.5120 O   0  0  0  0  0  0  0  0  0  0  0  0
  -22.5070  -12.0890   22.3960 H   0  0  0  0  0  0  0  0  0  0  0  0
  -21.2020  -13.2010   22.0940 H   0  0  0  0  0  0  0  0  0  0  0  0
  -25.5690  -15.2720   20.3490 N   0  0  0  0  0  0  0  0  0  0  0  0
  -24.8070  -15.9370   20.4190 H   0  0  0  0  0  0  0  0  0  0  0  0
  -26.4340  -15.6980   20.0460 H   0  0  0  0  0  0  0  0  0  0  0  0
  -31.2490  -21.7130   23.0290 C   0  0  0  0  0  1  0  0  0  0  0  0
  -29.8320  -21.1030   23.0320 C   0  0  0  0  0  2  0  0  0  0  0  0
  -28.7580  -22.5530   21.2960 C   0  0  0  0  0  2  0  0  0  0  0  0
  -27.6690  -23.1780   22.1870 C   0  0  0  0  0  2  0  0  0  0  0  0
  -27.1420  -24.5480   21.7170 C   0  0  0  0  0  2  0  0  0  0  0  0
  -27.9430  -25.7840   22.1990 C   0  0  0  0  0  2  0  0  0  0  0  0
  -28.9310  -26.4210   21.1960 C   0  0  0  0  0  2  0  0  0  0  0  0
  -28.3510  -26.7990   19.9480 O   0  0  0  0  0  0  0  0  0  0  0  0
  -24.5640  -31.9030   23.2280 C   0  0  0  0  0  0  0  0  0  0  0  0
  -27.2250  -27.5790   20.0100 C   0  0  0  0  0  0  0  0  0  0  0  0
  -23.3650  -30.5360   21.5550 C   0  0  0  0  0  3  0  0  0  0  0  0
  -24.8250  -29.0570   20.0800 C   0  0  0  0  0  0  0  0  0  0  0  0
  -25.8920  -30.9200   21.3660 C   0  0  0  0  0  2  0  0  0  0  0  0
  -25.9820  -29.5740   20.6790 C   0  0  0  0  0  0  0  0  0  0  0  0
  -27.1890  -28.8400   20.6450 C   0  0  0  0  0  3  0  0  0  0  0  0
  -26.0590  -27.0760   19.4020 C   0  0  0  0  0  3  0  0  0  0  0  0
  -24.8570  -27.8040   19.4430 C   0  0  0  0  0  3  0  0  0  0  0  0
  -23.5720  -29.9020   20.1550 C   0  0  0  0  0  2  0  0  0  0  0  0
  -24.6260  -31.1340   22.1070 N   0  0  0  0  0  0  0  0  0  0  0  0
  -23.4810  -32.1530   23.7760 O   0  0  0  0  0  0  0  0  0  0  0  0
  -22.7250  -29.4800   22.4860 C   0  0  0  0  0  0  0  0  0  0  0  0
  -21.3990  -29.3000   22.3670 N   0  0  0  0  0  0  0  0  0  0  0  0
  -23.4170  -28.8300   23.2740 O   0  0  0  0  0  0  0  0  0  0  0  0
  -20.9040  -29.8910   21.7160 H   0  0  0  0  0  0  0  0  0  0  0  0
  -18.0230  -28.1210   22.8720 C   0  0  0  0  0  0  0  0  0  0  0  0
  -20.5880  -28.3390   23.1130 C   0  0  0  0  0  3  0  0  0  0  0  0
  -20.6620  -26.9280   22.4840 C   0  0  0  0  0  2  0  0  0  0  0  0
  -19.5400  -26.6590   21.4730 C   0  0  0  0  0  2  0  0  0  0  0  0
  -18.1740  -26.7930   22.1480 C   0  0  0  0  0  2  0  0  0  0  0  0
  -19.1570  -28.8540   23.3110 C   0  0  0  0  0  0  0  0  0  0  0  0
  -18.9620  -30.1000   23.9460 C   0  0  0  0  0  3  0  0  0  0  0  0
  -17.6650  -30.6070   24.1570 C   0  0  0  0  0  3  0  0  0  0  0  0
  -16.5480  -29.8660   23.7380 C   0  0  0  0  0  3  0  0  0  0  0  0
  -16.7270  -28.6270   23.1010 C   0  0  0  0  0  3  0  0  0  0  0  0
  -25.8450  -32.5290   23.8610 C   0  0  0  0  0  3  0  0  0  0  0  0
  -25.5440  -33.9280   24.1840 N   0  0  0  0  0  0  0  0  0  0  0  0
  -25.8990  -34.9770   23.4270 C   0  0  0  0  0  0  0  0  0  0  0  0
  -26.5870  -34.8650   22.4080 O   0  0  0  0  0  0  0  0  0  0  0  0
  -24.9320  -34.0880   24.9690 H   0  0  0  0  0  0  0  0  0  0  0  0
  -24.1970  -36.7870   23.0280 C   0  0  0  0  0  1  0  0  0  0  0  0
  -25.4120  -36.3700   23.8720 C   0  0  0  0  0  3  0  0  0  0  0  0
  -27.5320  -37.2350   24.7610 C   0  0  0  0  0  1  0  0  0  0  0  0
  -26.4580  -37.4130   23.7890 N   0  0  0  0  0  0  0  0  0  0  0  0
  -26.0560  -38.3380   23.9220 H   0  0  0  0  0  0  0  0  0  0  0  0
  -26.3500  -31.7530   25.1380 C   0  0  1  0  0  0  0  0  0  0  0  0
  -25.2500  -31.5140   26.1980 C   0  0  0  0  0  1  0  0  0  0  0  0
  -26.9320  -30.3750   24.7450 C   0  0  0  0  0  1  0  0  0  0  0  0
  -27.4960  -32.5440   25.8070 C   0  0  0  0  0  1  0  0  0  0  0  0
  1  2  1  1
  1 50  1  0
  3  4  1  0
  4 10  1  0
  5  9  1  0
  7  3  1  0
  7  5  1  0
  7  8  1  0
  8  6  1  0
  9  6  1  0
  9  1  1  0
 10 11  1  6
 10  8  1  0
 10 12  1  0
 13 12  1  0
 14 19  1  0
 15 16  1  0
 15 14  1  0
 17 16  1  0
 17 24  1  0
 17 18  1  0
 19 13  1  0
 19 18  1  0
 20 13  2  0
 21 22  2  0
 22 23  1  0
 22 41  1  0
 23 26  1  0
 24 21  1  0
 24 25  1  0
 25 23  2  0
 26 27  1  0
 27 28  2  0
 29 32  1  0
 29 28  1  0
 30 29  2  0
 31 30  1  0
 31 26  2  0
 32 33  1  0
 33 34  1  0
 34 35  2  0
 36 35  1  0
 36 40  1  0
 37 36  2  0
 38 33  2  0
 38 37  1  0
 39 38  1  0
 41 42  1  0
 42 45  1  0
 42 44  1  0
 43 41  2  0
 46 47  1  0
 46 21  1  0
 48 46  1  0
 49 50  1  0
 51  1  1  0
 51 52  1  0
 53 52  1  0
 53 54  1  0
 55 54  1  0
 56 58  1  0
 56 55  1  0
 57 68  2  0
 58 63  1  0
 59 67  1  0
 59 69  1  0
 60 66  1  0
 60 62  1  0
 61 67  1  0
 62 61  1  0
 63 62  2  0
 64 65  1  0
 64 58  2  0
 65 60  2  0
 66 59  1  0
 67 57  1  0
 69 71  2  0
 70 69  1  0
 72 70  1  0
 73 82  2  0
 73 78  1  0
 74 70  1  0
 74 78  1  0
 75 74  1  0
 76 77  1  0
 76 75  1  0
 77 73  1  0
 78 79  2  0
 79 80  1  0
 81 80  2  0
 82 81  1  0
 83 57  1  0
 83 84  1  0
 83 93  1  0
 84 87  1  0
 85 89  1  0
 85 84  1  0
 86 85  2  0
 89 88  1  0
 91 89  1  0
 91 92  1  0
 91 90  1  0
 93 96  1  1
 93 94  1  0
 95 93  1  0
M  ISO  4  12 100  13 100  55 101  56 101
M  END
>  <TORSDO>  (48) 
F 24

>  <SCORE>  (48) 
-12.517

>  <name>  (48) 
48

>  <ligand_id>  (48) 
48

>  <original_smiles>  (48) 
[H]c1c([H])c([H])c2c(c1[H])C([H])([H])C([H])([H])C([H])([H])C2([H])N([H])C(=O)C1([H])N(C(=O)C([H])(N([H])C(=O)C([H])(N([H])C([H])([H])[H])C([H])([H])[H])C(C([H])([H])[H])(C([H])([H])[H])C([H])([H])[H])C([H])([H])c2c([H])c(OC([H])([H])C([H])([H])C([H])([H])C([H])([H])C([H])([H])[N+]([H])(C([H])([H])C([H])([H])[H])C3([H])C([H])([H])C4([H])C([H])([H])C([H])([H])C(C([H])([H])[H])(C([H])([H])C(=O)N5C([H])([H])C([H])([H])C([H])([H])C([H])(n6nc(-c7c([H])c([H])c(Oc8c([H])c([H])c(F)c([H])c8F)c([H])c7[H])c(C(=O)N([H])[H])c6N([H])[H])C5([H])[H])C4([H])C3([H])[H])c([H])c([H])c2C1([H])[H]

>  <smiles>  (48) 
[H]c1c([H])c([H])c2c(c1[H])C([H])([H])C([H])([H])C([H])([H])C2([H])N([H])C(=O)C1([H])N(C(=O)C([H])(N([H])C(=O)C([H])(N([H])C([H])([H])[H])C([H])([H])[H])C(C([H])([H])[H])(C([H])([H])[H])C([H])([H])[H])C([H])([H])c2c([H])c(OC([H])([H])C([H])([H])C([H])([H])C([H])([H])C([H])([H])[N+]([H])(C([H])([H])C([H])([H])[H])C3([H])C([H])([H])C4([H])C([H])([H])C([H])([H])C(C([H])([H])[H])(C([H])([H])C(=O)N5C([H])([H])C([H])([H])C([H])([H])C([H])(n6nc(-c7c([H])c([H])c(Oc8c([H])c([H])c(F)c([H])c8F)c([H])c7[H])c(C(=O)N([H])[H])c6N([H])[H])C5([H])[H])C4([H])C3([H])[H])c([H])c([H])c2C1([H])[H]

$$$$
49:0:0
     RDKit          3D

 93101  0  0  1  0  0  0  0  0999 V2000
  -27.7900  -23.8390   21.0480 C   0  0  0  0  0  3  0  0  0  0  0  0
  -28.6380  -24.1400   20.0140 C   0  0  0  0  0  0  0  0  0  0  0  0
  -29.4450  -22.9820   19.6520 C   0  0  0  0  0  0  0  0  0  0  0  0
  -29.2100  -21.8460   20.4270 C   0  0  0  0  0  0  0  0  0  0  0  0
  -30.4520  -23.0240   18.5340 C   0  0  0  0  0  1  0  0  0  0  0  0
  -27.9850  -22.2040   21.6260 S   0  0  0  0  0  0  0  0  0  0  0  0
  -31.0190  -20.3840   21.4300 C   0  0  0  0  0  1  0  0  0  0  0  0
  -29.8830  -20.4530   20.3960 C   0  0  0  0  0  3  0  0  0  0  0  0
  -28.9200  -19.3280   20.6030 N   0  0  0  0  0  4  0  0  0  0  0  0
  -28.5920  -19.3270   21.5540 H   0  0  0  0  0  0  0  0  0  0  0  0
  -28.1250  -19.5800   20.0390 H   0  0  0  0  0  0  0  0  0  0  0  0
  -29.2430  -17.9200   20.1700 C   0  0  0  0  0  2  0  0  0  0  0  0
  -30.0790  -17.0240   21.1550 C   0  0  0  0  0  2  0  0  0  0  0  0
  -30.6360  -14.5770   20.5170 C   0  0  0  0  0  0  0  0  0  0  0  0
  -30.4300  -12.4090   19.3490 C   0  0  0  0  0  2  0  0  0  0  0  0
  -29.4850  -12.5780   18.1390 C   0  0  0  0  0  2  0  0  0  0  0  0
  -28.0050  -12.4330   18.5520 C   0  0  0  0  0  2  0  0  0  0  0  0
  -27.6500  -13.2570   19.8170 C   0  0  0  0  0  3  0  0  0  0  0  0
  -28.6940  -13.0230   20.9310 C   0  0  0  0  0  2  0  0  0  0  0  0
  -30.0170  -13.3710   20.3810 N   0  0  0  0  0  0  0  0  0  0  0  0
  -31.7750  -14.7960   20.0930 O   0  0  0  0  0  0  0  0  0  0  0  0
  -29.8410  -15.5660   20.9920 N   0  0  0  0  0  0  0  0  0  0  0  0
  -28.9350  -15.2440   21.2970 H   0  0  0  0  0  0  0  0  0  0  0  0
  -25.2390  -13.8620   20.4790 C   0  0  0  0  0  0  0  0  0  0  0  0
  -24.1700  -13.0900   20.8440 C   0  0  0  0  0  0  0  0  0  0  0  0
  -24.6370  -11.7390   20.8320 C   0  0  0  0  0  0  0  0  0  0  0  0
  -26.2920  -12.9820   20.2760 N   0  0  0  0  0  0  0  0  0  0  0  0
  -25.9310  -11.7010   20.5450 N   0  0  0  0  0  0  0  0  0  0  0  0
  -23.9150  -10.4760   21.0260 C   0  0  0  0  0  0  0  0  0  0  0  0
  -24.3430   -9.5200   21.9740 C   0  0  0  0  0  3  0  0  0  0  0  0
  -23.6250   -8.3170   22.1520 C   0  0  0  0  0  3  0  0  0  0  0  0
  -22.4650   -8.0640   21.3820 C   0  0  0  0  0  0  0  0  0  0  0  0
  -22.0580   -9.0070   20.4230 C   0  0  0  0  0  3  0  0  0  0  0  0
  -22.7760  -10.2010   20.2430 C   0  0  0  0  0  3  0  0  0  0  0  0
  -21.7180   -6.9130   21.4690 O   0  0  0  0  0  0  0  0  0  0  0  0
  -21.6620   -6.1780   22.6260 C   0  0  0  0  0  0  0  0  0  0  0  0
  -21.2070   -6.7360   23.8410 C   0  0  0  0  0  3  0  0  0  0  0  0
  -21.0990   -5.9270   24.9910 C   0  0  0  0  0  3  0  0  0  0  0  0
  -21.4340   -4.5610   24.9260 C   0  0  0  0  0  0  0  0  0  0  0  0
  -21.8800   -4.0030   23.7150 C   0  0  0  0  0  3  0  0  0  0  0  0
  -21.9900   -4.8090   22.5690 C   0  0  0  0  0  0  0  0  0  0  0  0
  -22.4010   -4.2610   21.3990 F   0  0  0  0  0  0  0  0  0  0  0  0
  -21.3240   -3.7830   26.0270 F   0  0  0  0  0  0  0  0  0  0  0  0
  -22.7660  -13.5600   21.0910 C   0  0  0  0  0  0  0  0  0  0  0  0
  -22.0260  -12.8660   21.9480 N   0  0  0  0  0  0  0  0  0  0  0  0
  -22.3300  -14.5810   20.5600 O   0  0  0  0  0  0  0  0  0  0  0  0
  -22.3890  -12.0390   22.4000 H   0  0  0  0  0  0  0  0  0  0  0  0
  -21.0840  -13.1630   22.1590 H   0  0  0  0  0  0  0  0  0  0  0  0
  -25.4070  -15.2310   20.2810 N   0  0  0  0  0  0  0  0  0  0  0  0
  -24.6410  -15.8910   20.3550 H   0  0  0  0  0  0  0  0  0  0  0  0
  -26.2480  -15.6400   19.8970 H   0  0  0  0  0  0  0  0  0  0  0  0
  -28.6650  -25.5170   19.3170 C   0  0  0  0  0  2  0  0  0  0  0  0
  -28.4570  -26.6850   20.1590 O   0  0  0  0  0  0  0  0  0  0  0  0
  -24.6280  -31.8790   23.2500 C   0  0  0  0  0  0  0  0  0  0  0  0
  -27.2740  -27.4210   20.1340 C   0  0  0  0  0  0  0  0  0  0  0  0
  -23.4190  -30.4880   21.6030 C   0  0  0  0  0  3  0  0  0  0  0  0
  -24.8710  -28.9610   20.1640 C   0  0  0  0  0  0  0  0  0  0  0  0
  -25.9480  -30.8380   21.4090 C   0  0  0  0  0  2  0  0  0  0  0  0
  -26.0340  -29.4700   20.7530 C   0  0  0  0  0  0  0  0  0  0  0  0
  -27.2330  -28.7090   20.7360 C   0  0  0  0  0  3  0  0  0  0  0  0
  -26.0790  -26.9280   19.5620 C   0  0  0  0  0  3  0  0  0  0  0  0
  -24.8910  -27.6850   19.5720 C   0  0  0  0  0  3  0  0  0  0  0  0
  -23.6300  -29.8300   20.2140 C   0  0  0  0  0  2  0  0  0  0  0  0
  -24.6830  -31.0850   22.1420 N   0  0  0  0  0  0  0  0  0  0  0  0
  -23.5490  -32.1450   23.7960 O   0  0  0  0  0  0  0  0  0  0  0  0
  -22.7710  -29.4580   22.5580 C   0  0  0  0  0  0  0  0  0  0  0  0
  -21.4450  -29.2770   22.4330 N   0  0  0  0  0  0  0  0  0  0  0  0
  -23.4570  -28.8330   23.3700 O   0  0  0  0  0  0  0  0  0  0  0  0
  -20.9540  -29.8300   21.7450 H   0  0  0  0  0  0  0  0  0  0  0  0
  -18.0700  -28.0860   22.9250 C   0  0  0  0  0  0  0  0  0  0  0  0
  -20.6290  -28.3370   23.2000 C   0  0  0  0  0  3  0  0  0  0  0  0
  -20.7310  -26.9100   22.6120 C   0  0  0  0  0  2  0  0  0  0  0  0
  -19.6240  -26.5990   21.6000 C   0  0  0  0  0  2  0  0  0  0  0  0
  -18.2420  -26.7390   22.2420 C   0  0  0  0  0  2  0  0  0  0  0  0
  -19.1910  -28.8430   23.3580 C   0  0  0  0  0  0  0  0  0  0  0  0
  -18.9710  -30.1050   23.9530 C   0  0  0  0  0  3  0  0  0  0  0  0
  -17.6670  -30.6050   24.1240 C   0  0  0  0  0  3  0  0  0  0  0  0
  -16.5630  -29.8410   23.7110 C   0  0  0  0  0  3  0  0  0  0  0  0
  -16.7650  -28.5870   23.1100 C   0  0  0  0  0  3  0  0  0  0  0  0
  -25.9130  -32.5080   23.8690 C   0  0  0  0  0  3  0  0  0  0  0  0
  -25.6090  -33.9090   24.1950 N   0  0  0  0  0  0  0  0  0  0  0  0
  -25.9510  -34.9610   23.4380 C   0  0  0  0  0  0  0  0  0  0  0  0
  -26.6290  -34.8570   22.4130 O   0  0  0  0  0  0  0  0  0  0  0  0
  -25.0130  -34.0660   24.9920 H   0  0  0  0  0  0  0  0  0  0  0  0
  -24.2370  -36.7660   23.0710 C   0  0  0  0  0  1  0  0  0  0  0  0
  -25.4640  -36.3510   23.8970 C   0  0  0  0  0  3  0  0  0  0  0  0
  -27.5870  -37.2240   24.7600 C   0  0  0  0  0  1  0  0  0  0  0  0
  -26.5020  -37.4000   23.8000 N   0  0  0  0  0  0  0  0  0  0  0  0
  -26.0980  -38.3210   23.9490 H   0  0  0  0  0  0  0  0  0  0  0  0
  -26.4300  -31.7380   25.1470 C   0  0  1  0  0  0  0  0  0  0  0  0
  -25.3410  -31.4920   26.2190 C   0  0  0  0  0  1  0  0  0  0  0  0
  -27.0120  -30.3640   24.7480 C   0  0  0  0  0  1  0  0  0  0  0  0
  -27.5840  -32.5310   25.8070 C   0  0  0  0  0  1  0  0  0  0  0  0
  1  6  1  0
  2  1  2  0
  3  2  1  0
  3  4  2  0
  4  6  1  0
  5  3  1  0
  8  4  1  0
  8  9  1  0
  8  7  1  0
  9 10  1  0
 11  9  1  0
 12  9  1  0
 12 13  1  0
 14 22  1  0
 15 20  1  0
 16 17  1  0
 16 15  1  0
 18 17  1  0
 18 27  1  0
 18 19  1  0
 20 14  1  0
 20 19  1  0
 21 14  2  0
 22 13  1  0
 22 23  1  0
 24 25  2  0
 25 44  1  0
 26 25  1  0
 26 29  1  0
 27 24  1  0
 27 28  1  0
 28 26  2  0
 29 30  1  0
 30 31  2  0
 32 35  1  0
 32 31  1  0
 33 32  2  0
 34 33  1  0
 34 29  2  0
 35 36  1  0
 36 37  1  0
 37 38  2  0
 39 38  1  0
 39 43  1  0
 40 39  2  0
 41 36  2  0
 41 40  1  0
 42 41  1  0
 44 45  1  0
 45 48  1  0
 45 47  1  0
 46 44  2  0
 49 50  1  0
 49 24  1  0
 51 49  1  0
 52  2  1  0
 52 53  1  0
 54 65  2  0
 55 53  1  0
 55 60  1  0
 56 64  1  0
 56 66  1  0
 57 63  1  0
 57 59  1  0
 58 64  1  0
 59 58  1  0
 60 59  2  0
 61 62  1  0
 61 55  2  0
 62 57  2  0
 63 56  1  0
 64 54  1  0
 66 68  2  0
 67 66  1  0
 69 67  1  0
 70 79  2  0
 70 75  1  0
 71 67  1  0
 71 75  1  0
 72 71  1  0
 73 74  1  0
 73 72  1  0
 74 70  1  0
 75 76  2  0
 76 77  1  0
 78 77  2  0
 79 78  1  0
 80 54  1  0
 80 81  1  0
 80 90  1  0
 81 84  1  0
 82 86  1  0
 82 81  1  0
 83 82  2  0
 86 85  1  0
 88 86  1  0
 88 89  1  0
 88 87  1  0
 90 93  1  1
 90 91  1  0
 92 90  1  0
M  ISO  4  14 100  22 100  52 101  53 101
M  END
>  <TORSDO>  (49) 
F 21

>  <SCORE>  (49) 
-13.678

>  <name>  (49) 
49

>  <ligand_id>  (49) 
49

>  <original_smiles>  (49) 
[H]c1sc(C([H])(C([H])([H])[H])[N+]([H])([H])C([H])([H])C([H])([H])N([H])C(=O)N2C([H])([H])C([H])([H])C([H])([H])C([H])(n3nc(-c4c([H])c([H])c(Oc5c([H])c([H])c(F)c([H])c5F)c([H])c4[H])c(C(=O)N([H])[H])c3N([H])[H])C2([H])[H])c(C([H])([H])[H])c1C([H])([H])Oc1c([H])c([H])c2c(c1[H])C([H])([H])N(C(=O)C([H])(N([H])C(=O)C([H])(N([H])C([H])([H])[H])C([H])([H])[H])C(C([H])([H])[H])(C([H])([H])[H])C([H])([H])[H])C([H])(C(=O)N([H])C1([H])c3c([H])c([H])c([H])c([H])c3C([H])([H])C([H])([H])C1([H])[H])C2([H])[H]

>  <smiles>  (49) 
[H]c1sc(C([H])(C([H])([H])[H])[N+]([H])([H])C([H])([H])C([H])([H])N([H])C(=O)N2C([H])([H])C([H])([H])C([H])([H])C([H])(n3nc(-c4c([H])c([H])c(Oc5c([H])c([H])c(F)c([H])c5F)c([H])c4[H])c(C(=O)N([H])[H])c3N([H])[H])C2([H])[H])c(C([H])([H])[H])c1C([H])([H])Oc1c([H])c([H])c2c(c1[H])C([H])([H])N(C(=O)C([H])(N([H])C(=O)C([H])(N([H])C([H])([H])[H])C([H])([H])[H])C(C([H])([H])[H])(C([H])([H])[H])C([H])([H])[H])C([H])(C(=O)N([H])C1([H])c3c([H])c([H])c([H])c([H])c3C([H])([H])C([H])([H])C1([H])[H])C2([H])[H]

$$$$
50:0:0
     RDKit          3D

 94101  0  0  1  0  0  0  0  0999 V2000
  -29.2380  -18.9930   20.1070 C   0  0  0  0  0  3  0  0  0  0  0  0
  -29.5630  -20.4840   20.5380 N   0  0  0  0  0  4  0  0  0  0  0  0
  -29.4760  -20.5310   21.5390 H   0  0  0  0  0  0  0  0  0  0  0  0
  -30.5440  -20.6180   20.3470 H   0  0  0  0  0  0  0  0  0  0  0  0
  -28.8570  -21.7650   19.9430 C   0  0  0  0  0  2  0  0  0  0  0  0
  -29.0840  -23.3110   20.5360 C   0  0  0  0  0  3  0  0  0  0  0  0
  -28.1820  -24.6160   20.0290 C   0  0  0  0  0  3  0  0  0  0  0  0
  -28.3870  -26.1010   20.3810 O   0  0  0  0  0  0  0  0  0  0  0  0
  -24.5800  -31.7010   23.2020 C   0  0  0  0  0  0  0  0  0  0  0  0
  -27.3120  -27.0430   20.2680 C   0  0  0  0  0  0  0  0  0  0  0  0
  -23.4510  -30.2950   21.5200 C   0  0  0  0  0  3  0  0  0  0  0  0
  -24.9620  -28.7370   20.1530 C   0  0  0  0  0  0  0  0  0  0  0  0
  -26.0040  -30.5890   21.4500 C   0  0  0  0  0  2  0  0  0  0  0  0
  -26.1120  -29.2010   20.8020 C   0  0  0  0  0  0  0  0  0  0  0  0
  -27.2890  -28.3700   20.8460 C   0  0  0  0  0  3  0  0  0  0  0  0
  -26.1370  -26.6690   19.5760 C   0  0  0  0  0  3  0  0  0  0  0  0
  -24.9850  -27.4820   19.5260 C   0  0  0  0  0  3  0  0  0  0  0  0
  -23.7260  -29.6180   20.1510 C   0  0  0  0  0  2  0  0  0  0  0  0
  -24.6950  -30.8820   22.1130 N   0  0  0  0  0  0  0  0  0  0  0  0
  -23.4730  -31.9790   23.6900 O   0  0  0  0  0  0  0  0  0  0  0  0
  -22.7450  -29.2830   22.4570 C   0  0  0  0  0  0  0  0  0  0  0  0
  -21.4200  -29.1190   22.2930 N   0  0  0  0  0  0  0  0  0  0  0  0
  -23.3910  -28.6480   23.2930 O   0  0  0  0  0  0  0  0  0  0  0  0
  -20.9560  -29.6820   21.5950 H   0  0  0  0  0  0  0  0  0  0  0  0
  -18.0140  -27.9640   22.7240 C   0  0  0  0  0  0  0  0  0  0  0  0
  -20.5730  -28.1830   23.0370 C   0  0  0  0  0  3  0  0  0  0  0  0
  -20.6620  -26.7590   22.4430 C   0  0  0  0  0  2  0  0  0  0  0  0
  -19.5730  -26.4660   21.4070 C   0  0  0  0  0  2  0  0  0  0  0  0
  -18.1830  -26.6230   22.0300 C   0  0  0  0  0  2  0  0  0  0  0  0
  -19.1370  -28.7040   23.1830 C   0  0  0  0  0  0  0  0  0  0  0  0
  -18.9270  -29.9590   23.7930 C   0  0  0  0  0  3  0  0  0  0  0  0
  -17.6250  -30.4760   23.9480 C   0  0  0  0  0  3  0  0  0  0  0  0
  -16.5170  -29.7330   23.5040 C   0  0  0  0  0  3  0  0  0  0  0  0
  -16.7130  -28.4790   22.8990 C   0  0  0  0  0  3  0  0  0  0  0  0
  -25.8310  -32.3430   23.8750 C   0  0  0  0  0  3  0  0  0  0  0  0
  -26.2920  -31.5840   25.1800 C   0  0  1  0  0  0  0  0  0  0  0  0
  -25.1540  -31.3510   26.2010 C   0  0  0  0  0  1  0  0  0  0  0  0
  -26.8970  -30.2050   24.8320 C   0  0  0  0  0  1  0  0  0  0  0  0
  -27.4100  -32.3870   25.8850 C   0  0  0  0  0  1  0  0  0  0  0  0
  -25.5040  -33.7440   24.1830 N   0  0  0  0  0  0  0  0  0  0  0  0
  -25.8610  -34.7950   23.4340 C   0  0  0  0  0  0  0  0  0  0  0  0
  -26.5690  -34.6880   22.4300 O   0  0  0  0  0  0  0  0  0  0  0  0
  -24.8810  -33.9010   24.9620 H   0  0  0  0  0  0  0  0  0  0  0  0
  -24.1350  -36.5790   23.0180 C   0  0  0  0  0  1  0  0  0  0  0  0
  -25.3550  -36.1860   23.8670 C   0  0  0  0  0  3  0  0  0  0  0  0
  -27.4610  -37.0910   24.7510 C   0  0  0  0  0  1  0  0  0  0  0  0
  -26.3860  -37.2440   23.7740 N   0  0  0  0  0  0  0  0  0  0  0  0
  -25.9710  -38.1630   23.9000 H   0  0  0  0  0  0  0  0  0  0  0  0
  -30.9500  -18.0520   21.8610 C   0  0  0  0  0  1  0  0  0  0  0  0
  -30.2770  -17.7290   20.5150 C   0  0  0  0  0  3  0  0  0  0  0  0
  -29.7760  -16.1250   20.5500 C   0  0  0  0  0  2  0  0  0  0  0  0
  -30.6850  -14.7630   20.3790 C   0  0  0  0  0  0  0  0  0  0  0  0
  -30.6330  -12.3680   19.5720 C   0  0  0  0  0  2  0  0  0  0  0  0
  -29.7120  -12.2880   18.3300 C   0  0  0  0  0  2  0  0  0  0  0  0
  -28.2390  -12.0910   18.7450 C   0  0  0  0  0  2  0  0  0  0  0  0
  -27.8110  -13.0580   19.8770 C   0  0  0  0  0  3  0  0  0  0  0  0
  -28.8530  -13.1090   21.0160 C   0  0  0  0  0  2  0  0  0  0  0  0
  -30.1460  -13.4830   20.4260 N   0  0  0  0  0  0  0  0  0  0  0  0
  -31.8730  -14.8670   20.0530 O   0  0  0  0  0  0  0  0  0  0  0  0
  -25.4380  -13.6600   20.6310 C   0  0  0  0  0  0  0  0  0  0  0  0
  -24.3660  -12.8920   20.9970 C   0  0  0  0  0  0  0  0  0  0  0  0
  -24.8150  -11.5360   20.9460 C   0  0  0  0  0  0  0  0  0  0  0  0
  -26.4700  -12.7710   20.3750 N   0  0  0  0  0  0  0  0  0  0  0  0
  -26.1040  -11.4890   20.6290 N   0  0  0  0  0  0  0  0  0  0  0  0
  -24.0740  -10.2810   21.1220 C   0  0  0  0  0  0  0  0  0  0  0  0
  -24.4980   -9.2930   22.0380 C   0  0  0  0  0  3  0  0  0  0  0  0
  -23.7560   -8.1030   22.2040 C   0  0  0  0  0  3  0  0  0  0  0  0
  -22.5770   -7.8930   21.4500 C   0  0  0  0  0  0  0  0  0  0  0  0
  -22.1730   -8.8670   20.5210 C   0  0  0  0  0  3  0  0  0  0  0  0
  -22.9150  -10.0480   20.3550 C   0  0  0  0  0  3  0  0  0  0  0  0
  -21.8080   -6.7560   21.5250 O   0  0  0  0  0  0  0  0  0  0  0  0
  -21.7410   -6.0060   22.6710 C   0  0  0  0  0  0  0  0  0  0  0  0
  -21.3060   -6.5560   23.8970 C   0  0  0  0  0  3  0  0  0  0  0  0
  -21.1850   -5.7340   25.0350 C   0  0  0  0  0  3  0  0  0  0  0  0
  -21.4880   -4.3630   24.9490 C   0  0  0  0  0  0  0  0  0  0  0  0
  -21.9170   -3.8110   23.7280 C   0  0  0  0  0  3  0  0  0  0  0  0
  -22.0400   -4.6310   22.5930 C   0  0  0  0  0  0  0  0  0  0  0  0
  -22.4320   -4.0900   21.4140 F   0  0  0  0  0  0  0  0  0  0  0  0
  -21.3660   -3.5700   26.0390 F   0  0  0  0  0  0  0  0  0  0  0  0
  -22.9760  -13.3830   21.2790 C   0  0  0  0  0  0  0  0  0  0  0  0
  -22.2470  -12.6890   22.1470 N   0  0  0  0  0  0  0  0  0  0  0  0
  -22.5450  -14.4140   20.7660 O   0  0  0  0  0  0  0  0  0  0  0  0
  -22.6080  -11.8560   22.5850 H   0  0  0  0  0  0  0  0  0  0  0  0
  -21.3130  -12.9970   22.3760 H   0  0  0  0  0  0  0  0  0  0  0  0
  -25.6140  -15.0310   20.4710 N   0  0  0  0  0  0  0  0  0  0  0  0
  -24.8240  -15.6650   20.5120 H   0  0  0  0  0  0  0  0  0  0  0  0
  -26.4380  -15.4460   20.0590 H   0  0  0  0  0  0  0  0  0  0  0  0
  -27.8070  -18.5670   20.5750 C   0  0  0  0  0  2  0  0  0  0  0  0
  -26.9860  -18.4570   18.1270 C   0  0  0  0  0  1  0  0  0  0  0  0
  -26.5960  -18.6710   19.6080 C   0  0  0  0  0  3  0  0  0  0  0  0
  -24.1940  -17.9610   19.4470 C   0  0  0  0  0  1  0  0  0  0  0  0
  -25.5320  -17.7220   20.0280 N   0  0  0  0  0  4  0  0  0  0  0  0
  -25.8080  -16.7730   19.8300 H   0  0  0  0  0  0  0  0  0  0  0  0
  -25.4230  -17.7920   21.0280 H   0  0  0  0  0  0  0  0  0  0  0  0
  1 50  1  0
  1  2  1  0
  1 88  1  0
  2  3  1  0
  4  2  1  0
  5  6  1  0
  5  2  1  0
  7  8  1  0
  7  6  2  0
  9 20  2  0
 10  8  1  0
 10 15  1  0
 11 19  1  0
 11 21  1  0
 12 14  1  0
 13 19  1  0
 14 15  2  0
 14 13  1  0
 16 10  2  0
 17 16  1  0
 17 12  2  0
 18 12  1  0
 18 11  1  0
 19  9  1  0
 21 23  2  0
 22 21  1  0
 24 22  1  0
 25 34  2  0
 25 30  1  0
 26 22  1  0
 26 30  1  0
 27 26  1  0
 28 29  1  0
 28 27  1  0
 29 25  1  0
 30 31  2  0
 31 32  1  0
 33 32  2  0
 34 33  1  0
 35  9  1  0
 35 40  1  0
 35 36  1  0
 36 39  1  1
 36 37  1  0
 38 36  1  0
 40 43  1  0
 41 45  1  0
 41 40  1  0
 42 41  2  0
 45 44  1  0
 47 45  1  0
 47 48  1  0
 47 46  1  0
 50 51  1  0
 50 49  1  0
 52 58  1  0
 52 51  1  0
 53 58  1  0
 54 55  1  0
 54 53  1  0
 56 55  1  0
 56 63  1  0
 56 57  1  0
 58 57  1  0
 59 52  2  0
 60 61  2  0
 61 80  1  0
 62 61  1  0
 62 65  1  0
 63 64  1  0
 63 60  1  0
 64 62  2  0
 65 66  1  0
 66 67  2  0
 68 71  1  0
 68 67  1  0
 69 68  2  0
 70 69  1  0
 70 65  2  0
 71 72  1  0
 72 73  1  0
 73 74  2  0
 75 74  1  0
 75 79  1  0
 76 75  2  0
 77 72  2  0
 77 76  1  0
 78 77  1  0
 80 81  1  0
 81 84  1  0
 81 83  1  0
 82 80  2  0
 85 86  1  0
 85 60  1  0
 87 85  1  0
 90 89  1  0
 90 92  1  0
 90 88  1  0
 91 92  1  0
 92 94  1  0
 93 92  1  0
M  ISO  4   7 101   8 101  51 100  52 100
M  END
>  <TORSDO>  (50) 
F 25

>  <SCORE>  (50) 
-10.677

>  <name>  (50) 
50

>  <ligand_id>  (50) 
50

>  <original_smiles>  (50) 
[H]c1c([H])c([H])c2c(c1[H])C([H])([H])C([H])([H])C([H])([H])C2([H])N([H])C(=O)C1([H])N(C(=O)C([H])(N([H])C(=O)C([H])(N([H])C([H])([H])[H])C([H])([H])[H])C(C([H])([H])[H])(C([H])([H])[H])C([H])([H])[H])C([H])([H])c2c([H])c(OC([H])([H])C([H])([H])C([H])([H])[N+]([H])([H])C([H])(C([H])([H])C([H])(C([H])([H])[H])[N+]([H])([H])C([H])([H])[H])C([H])(C([H])([H])[H])C([H])([H])C(=O)N3C([H])([H])C([H])([H])C([H])([H])C([H])(n4nc(-c5c([H])c([H])c(Oc6c([H])c([H])c(F)c([H])c6F)c([H])c5[H])c(C(=O)N([H])[H])c4N([H])[H])C3([H])[H])c([H])c([H])c2C1([H])[H]

>  <smiles>  (50) 
[H]c1c([H])c([H])c2c(c1[H])C([H])([H])C([H])([H])C([H])([H])C2([H])N([H])C(=O)C1([H])N(C(=O)C([H])(N([H])C(=O)C([H])(N([H])C([H])([H])[H])C([H])([H])[H])C(C([H])([H])[H])(C([H])([H])[H])C([H])([H])[H])C([H])([H])c2c([H])c(OC([H])([H])C([H])([H])C([H])([H])[N+]([H])([H])C([H])(C([H])([H])C([H])(C([H])([H])[H])[N+]([H])([H])C([H])([H])[H])C([H])(C([H])([H])[H])C([H])([H])C(=O)N3C([H])([H])C([H])([H])C([H])([H])C([H])(n4nc(-c5c([H])c([H])c(Oc6c([H])c([H])c(F)c([H])c6F)c([H])c5[H])c(C(=O)N([H])[H])c4N([H])[H])C3([H])[H])c([H])c([H])c2C1([H])[H]

$$$$
51:0:0
     RDKit          3D

 94102  0  0  1  0  0  0  0  0999 V2000
  -29.4080  -21.0530   21.4670 C   0  0  0  0  0  3  0  0  0  0  0  0
  -29.1020  -23.5060   21.1970 C   0  0  0  0  0  3  0  0  0  0  0  0
  -29.4450  -22.3740   21.9790 C   0  0  0  0  0  0  0  0  0  0  0  0
  -29.0110  -20.7540   20.1460 C   0  0  0  0  0  0  0  0  0  0  0  0
  -28.6750  -23.3940   19.8590 C   0  0  0  0  0  0  0  0  0  0  0  0
  -28.6440  -21.9770   19.3540 C   0  0  0  0  0  0  0  0  0  0  0  0
  -29.8190  -22.5800   23.4360 C   0  0  0  0  0  1  0  0  0  0  0  0
  -28.8620  -19.1310   19.7670 C   0  0  0  0  0  3  0  0  0  0  0  0
  -29.7420  -17.8150   20.3940 C   0  0  0  0  0  3  0  0  0  0  0  0
  -30.3110  -15.1030   19.9600 C   0  0  0  0  0  0  0  0  0  0  0  0
  -30.2100  -12.7510   18.9970 C   0  0  0  0  0  2  0  0  0  0  0  0
  -29.1990  -12.6620   17.8290 C   0  0  0  0  0  2  0  0  0  0  0  0
  -27.7750  -12.4030   18.3600 C   0  0  0  0  0  2  0  0  0  0  0  0
  -27.4130  -13.3170   19.5570 C   0  0  0  0  0  3  0  0  0  0  0  0
  -28.5370  -13.3690   20.6110 C   0  0  0  0  0  2  0  0  0  0  0  0
  -29.7470  -13.8280   19.9180 N   0  0  0  0  0  0  0  0  0  0  0  0
  -31.5110  -15.1970   19.6770 O   0  0  0  0  0  0  0  0  0  0  0  0
  -29.4950  -16.2640   20.1130 N   0  0  0  0  0  0  0  0  0  0  0  0
  -28.5200  -16.0160   20.1920 H   0  0  0  0  0  0  0  0  0  0  0  0
  -25.0830  -13.8330   20.4800 C   0  0  0  0  0  0  0  0  0  0  0  0
  -24.0570  -13.0270   20.8930 C   0  0  0  0  0  0  0  0  0  0  0  0
  -24.5400  -11.6860   20.7850 C   0  0  0  0  0  0  0  0  0  0  0  0
  -26.1190  -12.9810   20.1390 N   0  0  0  0  0  0  0  0  0  0  0  0
  -25.8070  -11.6820   20.3870 N   0  0  0  0  0  0  0  0  0  0  0  0
  -23.8470  -10.4050   20.9760 C   0  0  0  0  0  0  0  0  0  0  0  0
  -24.3090   -9.4460   21.9020 C   0  0  0  0  0  3  0  0  0  0  0  0
  -23.6150   -8.2300   22.0830 C   0  0  0  0  0  3  0  0  0  0  0  0
  -22.4410   -7.9660   21.3360 C   0  0  0  0  0  0  0  0  0  0  0  0
  -21.9960   -8.9160   20.3990 C   0  0  0  0  0  3  0  0  0  0  0  0
  -22.6930  -10.1220   20.2170 C   0  0  0  0  0  3  0  0  0  0  0  0
  -21.7150   -6.8040   21.4260 O   0  0  0  0  0  0  0  0  0  0  0  0
  -21.6600   -6.0770   22.5890 C   0  0  0  0  0  0  0  0  0  0  0  0
  -21.1300   -6.6190   23.7810 C   0  0  0  0  0  3  0  0  0  0  0  0
  -21.0280   -5.8160   24.9340 C   0  0  0  0  0  3  0  0  0  0  0  0
  -21.4470   -4.4720   24.8960 C   0  0  0  0  0  0  0  0  0  0  0  0
  -21.9690   -3.9300   23.7100 C   0  0  0  0  0  3  0  0  0  0  0  0
  -22.0730   -4.7310   22.5580 C   0  0  0  0  0  0  0  0  0  0  0  0
  -22.5570   -4.1970   21.4110 F   0  0  0  0  0  0  0  0  0  0  0  0
  -21.3420   -3.6980   26.0020 F   0  0  0  0  0  0  0  0  0  0  0  0
  -22.6740  -13.4710   21.2700 C   0  0  0  0  0  0  0  0  0  0  0  0
  -22.0130  -12.7320   22.1530 N   0  0  0  0  0  0  0  0  0  0  0  0
  -22.1910  -14.5060   20.8140 O   0  0  0  0  0  0  0  0  0  0  0  0
  -22.4180  -11.8920   22.5410 H   0  0  0  0  0  0  0  0  0  0  0  0
  -21.0870  -13.0100   22.4470 H   0  0  0  0  0  0  0  0  0  0  0  0
  -25.2180  -15.2110   20.3390 N   0  0  0  0  0  0  0  0  0  0  0  0
  -24.4510  -15.8520   20.5180 H   0  0  0  0  0  0  0  0  0  0  0  0
  -26.0190  -15.6660   19.9240 H   0  0  0  0  0  0  0  0  0  0  0  0
  -28.1950  -21.7610   17.9090 C   0  0  0  0  0  2  0  0  0  0  0  0
  -26.7670  -21.4250   17.8180 N   0  0  0  0  0  4  0  0  0  0  0  0
  -26.5710  -20.5770   18.3170 H   0  0  0  0  0  0  0  0  0  0  0  0
  -26.5180  -21.2880   16.8560 H   0  0  0  0  0  0  0  0  0  0  0  0
  -26.2010  -22.1610   18.1930 H   0  0  0  0  0  0  0  0  0  0  0  0
  -28.1550  -24.7860   19.1090 C   0  0  0  0  0  2  0  0  0  0  0  0
  -28.1970  -26.2630   19.6400 O   0  0  0  0  0  0  0  0  0  0  0  0
  -24.6300  -31.7270   23.0920 C   0  0  0  0  0  0  0  0  0  0  0  0
  -27.1150  -27.2300   19.6400 C   0  0  0  0  0  0  0  0  0  0  0  0
  -23.3630  -30.3990   21.4490 C   0  0  0  0  0  3  0  0  0  0  0  0
  -24.7550  -28.9400   19.8480 C   0  0  0  0  0  0  0  0  0  0  0  0
  -25.9000  -30.7220   21.1530 C   0  0  0  0  0  2  0  0  0  0  0  0
  -25.9590  -29.3700   20.4150 C   0  0  0  0  0  0  0  0  0  0  0  0
  -27.1340  -28.5310   20.2980 C   0  0  0  0  0  3  0  0  0  0  0  0
  -25.8750  -26.9130   19.0390 C   0  0  0  0  0  3  0  0  0  0  0  0
  -24.7260  -27.7270   19.1450 C   0  0  0  0  0  3  0  0  0  0  0  0
  -23.5160  -29.8050   20.0210 C   0  0  0  0  0  2  0  0  0  0  0  0
  -24.6540  -30.9700   21.9520 N   0  0  0  0  0  0  0  0  0  0  0  0
  -23.5710  -31.9600   23.6950 O   0  0  0  0  0  0  0  0  0  0  0  0
  -22.7600  -29.3270   22.3910 C   0  0  0  0  0  0  0  0  0  0  0  0
  -21.4460  -29.0710   22.2710 N   0  0  0  0  0  0  0  0  0  0  0  0
  -23.4780  -28.7270   23.1950 O   0  0  0  0  0  0  0  0  0  0  0  0
  -20.9220  -29.6060   21.5910 H   0  0  0  0  0  0  0  0  0  0  0  0
  -18.1760  -27.5710   22.6980 C   0  0  0  0  0  0  0  0  0  0  0  0
  -20.6930  -28.0680   23.0270 C   0  0  0  0  0  3  0  0  0  0  0  0
  -20.9380  -26.6490   22.4630 C   0  0  0  0  0  2  0  0  0  0  0  0
  -19.8990  -26.2270   21.4210 C   0  0  0  0  0  2  0  0  0  0  0  0
  -18.4930  -26.2450   22.0260 C   0  0  0  0  0  2  0  0  0  0  0  0
  -19.2090  -28.4350   23.1510 C   0  0  0  0  0  0  0  0  0  0  0  0
  -18.8590  -29.6710   23.7360 C   0  0  0  0  0  3  0  0  0  0  0  0
  -17.5080  -30.0470   23.8710 C   0  0  0  0  0  3  0  0  0  0  0  0
  -16.4900  -29.1810   23.4350 C   0  0  0  0  0  3  0  0  0  0  0  0
  -16.8250  -27.9440   22.8560 C   0  0  0  0  0  3  0  0  0  0  0  0
  -25.9280  -32.3570   23.6810 C   0  0  0  0  0  3  0  0  0  0  0  0
  -25.6140  -33.7360   24.0880 N   0  0  0  0  0  0  0  0  0  0  0  0
  -25.8800  -34.8280   23.3600 C   0  0  0  0  0  0  0  0  0  0  0  0
  -26.4820  -34.7810   22.2840 O   0  0  0  0  0  0  0  0  0  0  0  0
  -25.0660  -33.8420   24.9290 H   0  0  0  0  0  0  0  0  0  0  0  0
  -24.0960  -36.5980   23.2160 C   0  0  0  0  0  1  0  0  0  0  0  0
  -25.4050  -36.1880   23.9090 C   0  0  0  0  0  3  0  0  0  0  0  0
  -27.5730  -37.0980   24.6180 C   0  0  0  0  0  1  0  0  0  0  0  0
  -26.4050  -37.2670   23.7570 N   0  0  0  0  0  0  0  0  0  0  0  0
  -25.9930  -38.1750   23.9570 H   0  0  0  0  0  0  0  0  0  0  0  0
  -26.5110  -31.5440   24.9030 C   0  0  1  0  0  0  0  0  0  0  0  0
  -25.4740  -31.2540   26.0120 C   0  0  0  0  0  1  0  0  0  0  0  0
  -27.0900  -30.1900   24.4380 C   0  0  0  0  0  1  0  0  0  0  0  0
  -27.6850  -32.3270   25.5370 C   0  0  0  0  0  1  0  0  0  0  0  0
  1  3  1  0
  2  3  2  0
  3  7  1  0
  4  1  2  0
  5  2  1  0
  6  5  2  0
  6  4  1  0
  8  4  1  0
  8  9  2  0
 10 18  1  0
 11 16  1  0
 12 13  1  0
 12 11  1  0
 14 13  1  0
 14 23  1  0
 14 15  1  0
 16 10  1  0
 16 15  1  0
 17 10  2  0
 18 19  1  0
 18  9  1  0
 20 21  2  0
 21 40  1  0
 22 21  1  0
 22 25  1  0
 23 24  1  0
 23 20  1  0
 24 22  2  0
 25 26  1  0
 26 27  2  0
 28 31  1  0
 28 27  1  0
 29 28  2  0
 30 29  1  0
 30 25  2  0
 31 32  1  0
 32 33  1  0
 33 34  2  0
 35 34  1  0
 35 39  1  0
 36 35  2  0
 37 32  2  0
 37 36  1  0
 38 37  1  0
 40 41  1  0
 41 44  1  0
 41 43  1  0
 42 40  2  0
 45 20  1  0
 45 46  1  0
 47 45  1  0
 48  6  1  0
 49 48  1  0
 49 52  1  0
 49 50  1  0
 51 49  1  0
 53 54  1  0
 53  5  1  0
 55 66  2  0
 56 54  1  0
 56 61  1  0
 57 65  1  0
 57 67  1  0
 58 64  1  0
 58 60  1  0
 59 65  1  0
 60 59  1  0
 61 60  2  0
 62 63  1  0
 62 56  2  0
 63 58  2  0
 64 57  1  0
 65 55  1  0
 67 69  2  0
 68 67  1  0
 70 68  1  0
 71 80  2  0
 71 76  1  0
 72 68  1  0
 72 76  1  0
 73 72  1  0
 74 75  1  0
 74 73  1  0
 75 71  1  0
 76 77  2  0
 77 78  1  0
 79 78  2  0
 80 79  1  0
 81 55  1  0
 81 82  1  0
 81 91  1  0
 82 85  1  0
 83 87  1  0
 83 82  1  0
 84 83  2  0
 87 86  1  0
 89 87  1  0
 89 90  1  0
 89 88  1  0
 91 94  1  1
 91 92  1  0
 93 91  1  0
M  ISO  4  10 100  18 100  53 101  54 101
M  END
>  <TORSDO>  (51) 
F 21

>  <SCORE>  (51) 
-14.176

>  <name>  (51) 
51

>  <ligand_id>  (51) 
51

>  <original_smiles>  (51) 
[H]c1c([H])c([H])c2c(c1[H])C([H])([H])C([H])([H])C([H])([H])C2([H])N([H])C(=O)C1([H])N(C(=O)C([H])(N([H])C(=O)C([H])(N([H])C([H])([H])[H])C([H])([H])[H])C(C([H])([H])[H])(C([H])([H])[H])C([H])([H])[H])C([H])([H])c2c([H])c(OC([H])([H])c3c([H])c(C([H])([H])[H])c([H])c(C([H])([H])C([H])([H])N([H])C(=O)N4C([H])([H])C([H])([H])C([H])([H])C([H])(n5nc(-c6c([H])c([H])c(Oc7c([H])c([H])c(F)c([H])c7F)c([H])c6[H])c(C(=O)N([H])[H])c5N([H])[H])C4([H])[H])c3C([H])([H])[N+]([H])([H])[H])c([H])c([H])c2C1([H])[H]

>  <smiles>  (51) 
[H]c1c([H])c([H])c2c(c1[H])C([H])([H])C([H])([H])C([H])([H])C2([H])N([H])C(=O)C1([H])N(C(=O)C([H])(N([H])C(=O)C([H])(N([H])C([H])([H])[H])C([H])([H])[H])C(C([H])([H])[H])(C([H])([H])[H])C([H])([H])[H])C([H])([H])c2c([H])c(OC([H])([H])c3c([H])c(C([H])([H])[H])c([H])c(C([H])([H])C([H])([H])N([H])C(=O)N4C([H])([H])C([H])([H])C([H])([H])C([H])(n5nc(-c6c([H])c([H])c(Oc7c([H])c([H])c(F)c([H])c7F)c([H])c6[H])c(C(=O)N([H])[H])c5N([H])[H])C4([H])[H])c3C([H])([H])[N+]([H])([H])[H])c([H])c([H])c2C1([H])[H]

$$$$
52:0:0
     RDKit          3D

 93102  0  0  1  0  0  0  0  0999 V2000
  -30.3860  -18.7990   21.4440 C   0  0  0  0  0  3  0  0  0  0  0  0
  -29.5800  -20.4460   19.3580 C   0  0  0  0  0  3  0  0  0  0  0  0
  -30.0940  -18.1100   20.2200 C   0  0  0  0  0  0  0  0  0  0  0  0
  -30.1580  -20.2130   21.6510 C   0  0  0  0  0  0  0  0  0  0  0  0
  -29.6620  -21.0780   20.6210 C   0  0  0  0  0  0  0  0  0  0  0  0
  -29.7700  -19.0320   19.1510 C   0  0  0  0  0  0  0  0  0  0  0  0
  -29.1110  -16.2890   18.7050 C   0  0  0  0  0  2  0  0  0  0  0  0
  -28.4560  -17.4620   18.0030 C   0  0  0  0  0  2  0  0  0  0  0  0
  -29.6220  -16.5320   20.1670 C   0  0  2  0  0  0  0  0  0  0  0  0
  -30.3440  -20.7630   23.0540 C   0  0  0  0  0  1  0  0  0  0  0  0
  -28.4910  -16.6160   21.2230 C   0  0  0  0  0  1  0  0  0  0  0  0
  -29.3990  -19.3770   16.7070 C   0  0  0  0  0  1  0  0  0  0  0  0
  -29.4330  -18.5170   17.8880 N   0  0  0  0  0  0  0  0  0  0  0  0
  -30.5190  -15.1430   20.3770 C   0  0  0  0  0  0  0  0  0  0  0  0
  -30.4380  -12.8580   19.3040 C   0  0  0  0  0  2  0  0  0  0  0  0
  -29.4670  -12.8600   18.0950 C   0  0  0  0  0  2  0  0  0  0  0  0
  -27.9990  -12.6270   18.5240 C   0  0  0  0  0  2  0  0  0  0  0  0
  -27.6000  -13.4340   19.7830 C   0  0  0  0  0  3  0  0  0  0  0  0
  -28.7030  -13.3450   20.8730 C   0  0  0  0  0  2  0  0  0  0  0  0
  -29.9630  -13.8590   20.2970 N   0  0  0  0  0  0  0  0  0  0  0  0
  -31.7430  -15.2260   20.2300 O   0  0  0  0  0  0  0  0  0  0  0  0
  -25.1870  -13.9780   20.4890 C   0  0  0  0  0  0  0  0  0  0  0  0
  -24.1480  -13.1740   20.8580 C   0  0  0  0  0  0  0  0  0  0  0  0
  -24.6560  -11.8410   20.8330 C   0  0  0  0  0  0  0  0  0  0  0  0
  -26.2670  -13.1250   20.2760 N   0  0  0  0  0  0  0  0  0  0  0  0
  -25.9510  -11.8370   20.5430 N   0  0  0  0  0  0  0  0  0  0  0  0
  -23.9720  -10.5600   21.0080 C   0  0  0  0  0  0  0  0  0  0  0  0
  -24.3940   -9.6310   21.9830 C   0  0  0  0  0  3  0  0  0  0  0  0
  -23.7090   -8.4090   22.1450 C   0  0  0  0  0  3  0  0  0  0  0  0
  -22.5910   -8.1120   21.3300 C   0  0  0  0  0  0  0  0  0  0  0  0
  -22.1910   -9.0310   20.3440 C   0  0  0  0  0  3  0  0  0  0  0  0
  -22.8790  -10.2440   20.1810 C   0  0  0  0  0  3  0  0  0  0  0  0
  -21.8780   -6.9400   21.4020 O   0  0  0  0  0  0  0  0  0  0  0  0
  -21.7480   -6.2510   22.5810 C   0  0  0  0  0  0  0  0  0  0  0  0
  -21.1400   -6.8270   23.7170 C   0  0  0  0  0  3  0  0  0  0  0  0
  -20.9640   -6.0590   24.8860 C   0  0  0  0  0  3  0  0  0  0  0  0
  -21.3860   -4.7160   24.9170 C   0  0  0  0  0  0  0  0  0  0  0  0
  -21.9870   -4.1410   23.7850 C   0  0  0  0  0  3  0  0  0  0  0  0
  -22.1660   -4.9060   22.6190 C   0  0  0  0  0  0  0  0  0  0  0  0
  -22.7270   -4.3410   21.5230 F   0  0  0  0  0  0  0  0  0  0  0  0
  -21.2090   -3.9760   26.0360 F   0  0  0  0  0  0  0  0  0  0  0  0
  -22.7340  -13.6110   21.1170 C   0  0  0  0  0  0  0  0  0  0  0  0
  -22.0220  -12.8920   21.9760 N   0  0  0  0  0  0  0  0  0  0  0  0
  -22.2710  -14.6240   20.5950 O   0  0  0  0  0  0  0  0  0  0  0  0
  -22.4100  -12.0720   22.4200 H   0  0  0  0  0  0  0  0  0  0  0  0
  -21.0730  -13.1640   22.1940 H   0  0  0  0  0  0  0  0  0  0  0  0
  -25.2720  -15.3510   20.2880 N   0  0  0  0  0  0  0  0  0  0  0  0
  -24.4670  -15.9570   20.3910 H   0  0  0  0  0  0  0  0  0  0  0  0
  -26.0970  -15.8400   19.9680 H   0  0  0  0  0  0  0  0  0  0  0  0
  -28.9180  -22.4840   20.8800 C   0  0  0  0  0  2  0  0  0  0  0  0
  -29.3940  -23.9800   20.4630 C   0  0  0  0  0  3  0  0  0  0  0  0
  -28.2290  -25.1200   20.3690 C   0  0  0  0  0  3  0  0  0  0  0  0
  -28.4470  -26.6120   20.2910 O   0  0  0  0  0  0  0  0  0  0  0  0
  -24.6550  -32.0020   23.3880 C   0  0  0  0  0  0  0  0  0  0  0  0
  -27.3200  -27.4790   20.2600 C   0  0  0  0  0  0  0  0  0  0  0  0
  -23.4660  -30.6200   21.7240 C   0  0  0  0  0  3  0  0  0  0  0  0
  -24.9350  -29.1030   20.2730 C   0  0  0  0  0  0  0  0  0  0  0  0
  -26.0070  -30.9550   21.5500 C   0  0  0  0  0  2  0  0  0  0  0  0
  -26.1020  -29.5840   20.8780 C   0  0  0  0  0  0  0  0  0  0  0  0
  -27.2950  -28.7880   20.8560 C   0  0  0  0  0  3  0  0  0  0  0  0
  -26.1190  -27.0670   19.6320 C   0  0  0  0  0  3  0  0  0  0  0  0
  -24.9500  -27.8530   19.6390 C   0  0  0  0  0  3  0  0  0  0  0  0
  -23.6890  -29.9690   20.3340 C   0  0  0  0  0  2  0  0  0  0  0  0
  -24.7280  -31.2110   22.2770 N   0  0  0  0  0  0  0  0  0  0  0  0
  -23.5680  -32.2620   23.9260 O   0  0  0  0  0  0  0  0  0  0  0  0
  -22.8080  -29.5850   22.6680 C   0  0  0  0  0  0  0  0  0  0  0  0
  -21.4920  -29.3620   22.5030 N   0  0  0  0  0  0  0  0  0  0  0  0
  -23.4820  -28.9860   23.5090 O   0  0  0  0  0  0  0  0  0  0  0  0
  -21.0050  -29.8990   21.8000 H   0  0  0  0  0  0  0  0  0  0  0  0
  -18.1500  -28.0270   22.8930 C   0  0  0  0  0  0  0  0  0  0  0  0
  -20.6840  -28.3960   23.2530 C   0  0  0  0  0  3  0  0  0  0  0  0
  -20.8660  -26.9660   22.6940 C   0  0  0  0  0  2  0  0  0  0  0  0
  -19.8170  -26.5890   21.6440 C   0  0  0  0  0  2  0  0  0  0  0  0
  -18.4080  -26.6800   22.2370 C   0  0  0  0  0  2  0  0  0  0  0  0
  -19.2200  -28.8390   23.3550 C   0  0  0  0  0  0  0  0  0  0  0  0
  -18.9250  -30.0950   23.9280 C   0  0  0  0  0  3  0  0  0  0  0  0
  -17.5950  -30.5420   24.0450 C   0  0  0  0  0  3  0  0  0  0  0  0
  -16.5400  -29.7270   23.5980 C   0  0  0  0  0  3  0  0  0  0  0  0
  -16.8180  -28.4710   23.0280 C   0  0  0  0  0  3  0  0  0  0  0  0
  -25.9300  -32.6370   24.0220 C   0  0  0  0  0  3  0  0  0  0  0  0
  -26.4260  -31.8760   25.3140 C   0  0  1  0  0  0  0  0  0  0  0  0
  -25.3090  -31.6280   26.3560 C   0  0  0  0  0  1  0  0  0  0  0  0
  -27.0350  -30.5050   24.9430 C   0  0  0  0  0  1  0  0  0  0  0  0
  -27.5490  -32.6880   26.0000 C   0  0  0  0  0  1  0  0  0  0  0  0
  -25.6210  -34.0390   24.3360 N   0  0  0  0  0  0  0  0  0  0  0  0
  -25.9460  -35.0840   23.5630 C   0  0  0  0  0  0  0  0  0  0  0  0
  -26.6060  -34.9680   22.5270 O   0  0  0  0  0  0  0  0  0  0  0  0
  -25.0340  -34.2020   25.1410 H   0  0  0  0  0  0  0  0  0  0  0  0
  -24.2020  -36.8650   23.2180 C   0  0  0  0  0  1  0  0  0  0  0  0
  -25.4630  -36.4780   24.0080 C   0  0  0  0  0  3  0  0  0  0  0  0
  -27.6050  -37.3940   24.7880 C   0  0  0  0  0  1  0  0  0  0  0  0
  -26.4880  -37.5340   23.8560 N   0  0  0  0  0  0  0  0  0  0  0  0
  -26.0800  -38.4550   23.9870 H   0  0  0  0  0  0  0  0  0  0  0  0
  1  4  1  0
  2  5  1  0
  3  1  2  0
  4 10  1  0
  5 50  1  0
  5  4  2  0
  6  2  2  0
  6  3  1  0
  7  9  1  0
  8  7  1  0
  9  3  1  0
  9 14  1  0
  9 11  1  1
 12 13  1  0
 13  8  1  0
 13  6  1  0
 15 20  1  0
 16 17  1  0
 16 15  1  0
 18 17  1  0
 18 25  1  0
 18 19  1  0
 20 14  1  0
 20 19  1  0
 21 14  2  0
 22 23  2  0
 23 42  1  0
 24 23  1  0
 24 27  1  0
 25 22  1  0
 25 26  1  0
 26 24  2  0
 27 28  1  0
 28 29  2  0
 30 33  1  0
 30 29  1  0
 31 30  2  0
 32 31  1  0
 32 27  2  0
 33 34  1  0
 34 39  2  0
 34 35  1  0
 35 36  2  0
 36 37  1  0
 37 41  1  0
 38 37  2  0
 39 38  1  0
 40 39  1  0
 42 43  1  0
 43 46  1  0
 43 45  1  0
 44 42  2  0
 47 48  1  0
 47 22  1  0
 49 47  1  0
 51 50  1  0
 52 51  2  0
 53 52  1  0
 54 65  2  0
 55 53  1  0
 55 60  1  0
 56 64  1  0
 56 66  1  0
 57 63  1  0
 57 59  1  0
 58 64  1  0
 59 58  1  0
 60 59  2  0
 61 62  1  0
 61 55  2  0
 62 57  2  0
 63 56  1  0
 64 54  1  0
 66 68  2  0
 67 66  1  0
 69 67  1  0
 70 79  2  0
 70 75  1  0
 71 67  1  0
 71 75  1  0
 72 71  1  0
 73 74  1  0
 73 72  1  0
 74 70  1  0
 75 76  2  0
 76 77  1  0
 78 77  2  0
 79 78  1  0
 80 54  1  0
 80 85  1  0
 80 81  1  0
 81 84  1  1
 81 82  1  0
 83 81  1  0
 85 88  1  0
 86 90  1  0
 86 85  1  0
 87 86  2  0
 90 89  1  0
 92 93  1  0
 92 90  1  0
 92 91  1  0
M  ISO  4   9 100  14 100  52 101  53 101
M  END
>  <TORSDO>  (52) 
F 19

>  <SCORE>  (52) 
-13.389

>  <name>  (52) 
52

>  <ligand_id>  (52) 
52

>  <original_smiles>  (52) 
[H]c1c([H])c([H])c2c(c1[H])C([H])([H])C([H])([H])C([H])([H])C2([H])N([H])C(=O)C1([H])N(C(=O)C([H])(N([H])C(=O)C([H])(N([H])C([H])([H])[H])C([H])([H])[H])C(C([H])([H])[H])(C([H])([H])[H])C([H])([H])[H])C([H])([H])c2c([H])c(OC([H])([H])C([H])([H])C([H])([H])c3c([H])c4c(c([H])c3C([H])([H])[H])C(C(=O)N3C([H])([H])C([H])([H])C([H])([H])C([H])(n5nc(-c6c([H])c([H])c(Oc7c([H])c([H])c(F)c([H])c7F)c([H])c6[H])c(C(=O)N([H])[H])c5N([H])[H])C3([H])[H])(C([H])([H])[H])C([H])([H])C([H])([H])N4C([H])([H])[H])c([H])c([H])c2C1([H])[H]

>  <smiles>  (52) 
[H]c1c([H])c([H])c2c(c1[H])C([H])([H])C([H])([H])C([H])([H])C2([H])N([H])C(=O)C1([H])N(C(=O)C([H])(N([H])C(=O)C([H])(N([H])C([H])([H])[H])C([H])([H])[H])C(C([H])([H])[H])(C([H])([H])[H])C([H])([H])[H])C([H])([H])c2c([H])c(OC([H])([H])C([H])([H])C([H])([H])c3c([H])c4c(c([H])c3C([H])([H])[H])C(C(=O)N3C([H])([H])C([H])([H])C([H])([H])C([H])(n5nc(-c6c([H])c([H])c(Oc7c([H])c([H])c(F)c([H])c7F)c([H])c6[H])c(C(=O)N([H])[H])c5N([H])[H])C3([H])[H])(C([H])([H])[H])C([H])([H])C([H])([H])N4C([H])([H])[H])c([H])c([H])c2C1([H])[H]

$$$$
53:0:0
     RDKit          3D

 94103  0  0  1  0  0  0  0  0999 V2000
  -29.7830  -22.2370   19.1730 C   0  0  0  0  0  3  0  0  0  0  0  0
  -31.1330  -23.5360   20.7300 C   0  0  0  0  0  3  0  0  0  0  0  0
  -29.0860  -23.4050   18.8050 C   0  0  0  0  0  3  0  0  0  0  0  0
  -30.4370  -24.7050   20.3590 C   0  0  0  0  0  3  0  0  0  0  0  0
  -30.8150  -22.2980   20.1340 C   0  0  0  0  0  0  0  0  0  0  0  0
  -29.4100  -24.6460   19.3940 C   0  0  0  0  0  0  0  0  0  0  0  0
  -31.6080  -21.0530   20.5030 C   0  0  0  0  0  2  0  0  0  0  0  0
  -31.0040  -20.2420   21.6700 C   0  0  0  0  0  2  0  0  0  0  0  0
  -29.1700  -18.8760   20.6520 C   0  0  0  0  0  0  0  0  0  0  0  0
  -28.9270  -17.4400   20.2220 C   0  0  0  0  0  2  0  0  0  0  0  0
  -31.0680  -17.7230   21.3450 C   0  0  0  0  0  2  0  0  0  0  0  0
  -30.3110  -16.7890   20.3850 C   0  0  0  0  0  3  0  0  0  0  0  0
  -30.3790  -19.0020   21.2130 N   0  0  0  0  0  0  0  0  0  0  0  0
  -28.3450  -19.7780   20.4820 O   0  0  0  0  0  0  0  0  0  0  0  0
  -30.9560  -14.3880   20.3620 C   0  0  0  0  0  0  0  0  0  0  0  0
  -30.6270  -12.2320   19.2310 C   0  0  0  0  0  2  0  0  0  0  0  0
  -29.6940  -12.4760   18.0260 C   0  0  0  0  0  2  0  0  0  0  0  0
  -28.2110  -12.3920   18.4460 C   0  0  0  0  0  2  0  0  0  0  0  0
  -27.8980  -13.2350   19.7100 C   0  0  0  0  0  3  0  0  0  0  0  0
  -28.9380  -12.9560   20.8210 C   0  0  0  0  0  2  0  0  0  0  0  0
  -30.2810  -13.2140   20.2680 N   0  0  0  0  0  0  0  0  0  0  0  0
  -32.0680  -14.5830   19.8640 O   0  0  0  0  0  0  0  0  0  0  0  0
  -30.2140  -15.3990   20.8390 N   0  0  0  0  0  0  0  0  0  0  0  0
  -29.3400  -15.1190   21.2590 H   0  0  0  0  0  0  0  0  0  0  0  0
  -25.5110  -13.9270   20.3920 C   0  0  0  0  0  0  0  0  0  0  0  0
  -24.4190  -13.1920   20.7680 C   0  0  0  0  0  0  0  0  0  0  0  0
  -24.8400  -11.8260   20.7570 C   0  0  0  0  0  0  0  0  0  0  0  0
  -26.5320  -13.0110   20.1800 N   0  0  0  0  0  0  0  0  0  0  0  0
  -26.1290  -11.7440   20.4530 N   0  0  0  0  0  0  0  0  0  0  0  0
  -24.0770  -10.5890   20.9600 C   0  0  0  0  0  0  0  0  0  0  0  0
  -24.4840   -9.6190   21.9030 C   0  0  0  0  0  3  0  0  0  0  0  0
  -23.7240   -8.4440   22.0940 C   0  0  0  0  0  3  0  0  0  0  0  0
  -22.5440   -8.2330   21.3420 C   0  0  0  0  0  0  0  0  0  0  0  0
  -22.1560   -9.1910   20.3890 C   0  0  0  0  0  3  0  0  0  0  0  0
  -22.9160  -10.3570   20.1960 C   0  0  0  0  0  3  0  0  0  0  0  0
  -21.7570   -7.1110   21.4410 O   0  0  0  0  0  0  0  0  0  0  0  0
  -21.6910   -6.3780   22.6000 C   0  0  0  0  0  0  0  0  0  0  0  0
  -21.2850   -6.9540   23.8230 C   0  0  0  0  0  3  0  0  0  0  0  0
  -21.1640   -6.1500   24.9740 C   0  0  0  0  0  3  0  0  0  0  0  0
  -21.4390   -4.7720   24.9020 C   0  0  0  0  0  0  0  0  0  0  0  0
  -21.8380   -4.1950   23.6840 C   0  0  0  0  0  3  0  0  0  0  0  0
  -21.9610   -4.9970   22.5350 C   0  0  0  0  0  0  0  0  0  0  0  0
  -22.3260   -4.4330   21.3580 F   0  0  0  0  0  0  0  0  0  0  0  0
  -21.3140   -3.9970   26.0050 F   0  0  0  0  0  0  0  0  0  0  0  0
  -23.0360  -13.7140   21.0290 C   0  0  0  0  0  0  0  0  0  0  0  0
  -22.2880  -13.0570   21.9090 N   0  0  0  0  0  0  0  0  0  0  0  0
  -22.6260  -14.7400   20.4880 O   0  0  0  0  0  0  0  0  0  0  0  0
  -22.6300  -12.2270   22.3720 H   0  0  0  0  0  0  0  0  0  0  0  0
  -21.3600  -13.3910   22.1270 H   0  0  0  0  0  0  0  0  0  0  0  0
  -25.7170  -15.2890   20.1960 N   0  0  0  0  0  0  0  0  0  0  0  0
  -24.9650  -15.9630   20.2800 H   0  0  0  0  0  0  0  0  0  0  0  0
  -26.5700  -15.6890   19.8270 H   0  0  0  0  0  0  0  0  0  0  0  0
  -28.6950  -25.9160   18.9570 C   0  0  0  0  0  2  0  0  0  0  0  0
  -28.3600  -26.7520   20.0690 O   0  0  0  0  0  0  0  0  0  0  0  0
  -24.5650  -31.8630   23.2130 C   0  0  0  0  0  0  0  0  0  0  0  0
  -27.1700  -27.4460   20.0630 C   0  0  0  0  0  0  0  0  0  0  0  0
  -23.3380  -30.4810   21.5680 C   0  0  0  0  0  3  0  0  0  0  0  0
  -24.7720  -28.9460   20.1240 C   0  0  0  0  0  0  0  0  0  0  0  0
  -25.8640  -30.8280   21.3560 C   0  0  0  0  0  2  0  0  0  0  0  0
  -25.9350  -29.4620   20.7080 C   0  0  0  0  0  0  0  0  0  0  0  0
  -27.1310  -28.7140   20.6840 C   0  0  0  0  0  3  0  0  0  0  0  0
  -25.9770  -26.9250   19.5080 C   0  0  0  0  0  3  0  0  0  0  0  0
  -24.7860  -27.6740   19.5280 C   0  0  0  0  0  3  0  0  0  0  0  0
  -23.5340  -29.8090   20.1830 C   0  0  0  0  0  2  0  0  0  0  0  0
  -24.6080  -31.0710   22.1040 N   0  0  0  0  0  0  0  0  0  0  0  0
  -23.4890  -32.1380   23.7620 O   0  0  0  0  0  0  0  0  0  0  0  0
  -22.6880  -29.4560   22.5260 C   0  0  0  0  0  0  0  0  0  0  0  0
  -21.3640  -29.2740   22.3970 N   0  0  0  0  0  0  0  0  0  0  0  0
  -23.3720  -28.8270   23.3370 O   0  0  0  0  0  0  0  0  0  0  0  0
  -20.8740  -29.8350   21.7140 H   0  0  0  0  0  0  0  0  0  0  0  0
  -17.9920  -28.0690   22.8710 C   0  0  0  0  0  0  0  0  0  0  0  0
  -20.5460  -28.3350   23.1640 C   0  0  0  0  0  3  0  0  0  0  0  0
  -20.6580  -26.9040   22.5920 C   0  0  0  0  0  2  0  0  0  0  0  0
  -19.5640  -26.5750   21.5690 C   0  0  0  0  0  2  0  0  0  0  0  0
  -18.1770  -26.7180   22.2020 C   0  0  0  0  0  2  0  0  0  0  0  0
  -19.1050  -28.8360   23.3090 C   0  0  0  0  0  0  0  0  0  0  0  0
  -18.8780  -30.1000   23.8930 C   0  0  0  0  0  3  0  0  0  0  0  0
  -17.5710  -30.6000   24.0440 C   0  0  0  0  0  3  0  0  0  0  0  0
  -16.4720  -29.8310   23.6250 C   0  0  0  0  0  3  0  0  0  0  0  0
  -16.6840  -28.5670   23.0440 C   0  0  0  0  0  3  0  0  0  0  0  0
  -25.8600  -32.4800   23.8280 C   0  0  0  0  0  3  0  0  0  0  0  0
  -26.3820  -31.6970   25.0950 C   0  0  1  0  0  0  0  0  0  0  0  0
  -25.2970  -31.4590   26.1700 C   0  0  0  0  0  1  0  0  0  0  0  0
  -26.9520  -30.3180   24.6860 C   0  0  0  0  0  1  0  0  0  0  0  0
  -27.5430  -32.4780   25.7530 C   0  0  0  0  0  1  0  0  0  0  0  0
  -25.5650  -33.8780   24.1670 N   0  0  0  0  0  0  0  0  0  0  0  0
  -25.9010  -34.9310   23.4100 C   0  0  0  0  0  0  0  0  0  0  0  0
  -26.5640  -34.8270   22.3740 O   0  0  0  0  0  0  0  0  0  0  0  0
  -24.9770  -34.0350   24.9720 H   0  0  0  0  0  0  0  0  0  0  0  0
  -24.1850  -36.7370   23.0680 C   0  0  0  0  0  1  0  0  0  0  0  0
  -25.4250  -36.3210   23.8740 C   0  0  0  0  0  3  0  0  0  0  0  0
  -27.5690  -37.1850   24.7030 C   0  0  0  0  0  1  0  0  0  0  0  0
  -26.4650  -37.3660   23.7640 N   0  0  0  0  0  0  0  0  0  0  0  0
  -26.0660  -38.2890   23.9160 H   0  0  0  0  0  0  0  0  0  0  0  0
  1  5  1  0
  3  1  2  0
  3  6  1  0
  4  2  1  0
  5  7  1  0
  5  2  2  0
  6  4  2  0
  7  8  1  0
  9 13  1  0
 10 12  1  0
 10  9  1  0
 12 23  1  0
 12 11  1  0
 13 11  1  0
 13  8  1  0
 14  9  2  0
 15 23  1  0
 16 21  1  0
 17 18  1  0
 17 16  1  0
 19 18  1  0
 19 28  1  0
 19 20  1  0
 21 15  1  0
 21 20  1  0
 22 15  2  0
 23 24  1  0
 25 26  2  0
 26 45  1  0
 27 26  1  0
 27 30  1  0
 28 25  1  0
 28 29  1  0
 29 27  2  0
 30 31  1  0
 31 32  2  0
 33 36  1  0
 33 32  1  0
 34 33  2  0
 35 34  1  0
 35 30  2  0
 36 37  1  0
 37 38  1  0
 38 39  2  0
 40 39  1  0
 40 44  1  0
 41 40  2  0
 42 37  2  0
 42 41  1  0
 43 42  1  0
 45 46  1  0
 46 49  1  0
 46 48  1  0
 47 45  2  0
 50 51  1  0
 50 25  1  0
 52 50  1  0
 53  6  1  0
 53 54  1  0
 55 66  2  0
 56 54  1  0
 56 61  1  0
 57 65  1  0
 57 67  1  0
 58 64  1  0
 58 60  1  0
 59 65  1  0
 60 59  1  0
 61 60  2  0
 62 63  1  0
 62 56  2  0
 63 58  2  0
 64 57  1  0
 65 55  1  0
 67 69  2  0
 68 67  1  0
 70 68  1  0
 71 80  2  0
 71 76  1  0
 72 68  1  0
 72 76  1  0
 73 72  1  0
 74 75  1  0
 74 73  1  0
 75 71  1  0
 76 77  2  0
 77 78  1  0
 79 78  2  0
 80 79  1  0
 81 55  1  0
 81 86  1  0
 81 82  1  0
 82 85  1  1
 82 83  1  0
 84 82  1  0
 86 89  1  0
 87 91  1  0
 87 86  1  0
 88 87  2  0
 91 90  1  0
 93 91  1  0
 93 94  1  0
 93 92  1  0
M  ISO  4  15 100  23 100  53 101  54 101
M  END
>  <TORSDO>  (53) 
F 20

>  <SCORE>  (53) 
-14.108

>  <name>  (53) 
53

>  <ligand_id>  (53) 
53

>  <original_smiles>  (53) 
[H]c1c([H])c([H])c2c(c1[H])C([H])([H])C([H])([H])C([H])([H])C2([H])N([H])C(=O)C1([H])N(C(=O)C([H])(N([H])C(=O)C([H])(N([H])C([H])([H])[H])C([H])([H])[H])C(C([H])([H])[H])(C([H])([H])[H])C([H])([H])[H])C([H])([H])c2c([H])c(OC([H])([H])c3c([H])c([H])c(C([H])([H])C([H])([H])N4C(=O)C([H])([H])C([H])(N([H])C(=O)N5C([H])([H])C([H])([H])C([H])([H])C([H])(n6nc(-c7c([H])c([H])c(Oc8c([H])c([H])c(F)c([H])c8F)c([H])c7[H])c(C(=O)N([H])[H])c6N([H])[H])C5([H])[H])C4([H])[H])c([H])c3[H])c([H])c([H])c2C1([H])[H]

>  <smiles>  (53) 
[H]c1c([H])c([H])c2c(c1[H])C([H])([H])C([H])([H])C([H])([H])C2([H])N([H])C(=O)C1([H])N(C(=O)C([H])(N([H])C(=O)C([H])(N([H])C([H])([H])[H])C([H])([H])[H])C(C([H])([H])[H])(C([H])([H])[H])C([H])([H])[H])C([H])([H])c2c([H])c(OC([H])([H])c3c([H])c([H])c(C([H])([H])C([H])([H])N4C(=O)C([H])([H])C([H])(N([H])C(=O)N5C([H])([H])C([H])([H])C([H])([H])C([H])(n6nc(-c7c([H])c([H])c(Oc8c([H])c([H])c(F)c([H])c8F)c([H])c7[H])c(C(=O)N([H])[H])c6N([H])[H])C5([H])[H])C4([H])[H])c([H])c3[H])c([H])c([H])c2C1([H])[H]

$$$$
55:0:0
     RDKit          3D

 95104  0  0  1  0  0  0  0  0999 V2000
  -29.8040  -18.6470   21.3840 C   0  0  0  0  0  2  0  0  0  0  0  0
  -28.9100  -18.6000   19.1410 C   0  0  0  0  0  2  0  0  0  0  0  0
  -29.0550  -20.1200   21.3940 C   0  0  0  0  0  2  0  0  0  0  0  0
  -28.9230  -20.2630   19.0660 C   0  0  0  0  0  2  0  0  0  0  0  0
  -29.8830  -17.7190   20.0720 C   0  0  0  0  0  3  0  0  0  0  0  0
  -29.3410  -21.2650   20.2830 C   0  0  2  0  0  0  0  0  0  0  0  0
  -30.4270  -14.8940   19.9490 C   0  0  0  0  0  0  0  0  0  0  0  0
  -30.2580  -12.5100   19.0160 C   0  0  0  0  0  2  0  0  0  0  0  0
  -29.2480  -12.4220   17.8460 C   0  0  0  0  0  2  0  0  0  0  0  0
  -27.8200  -12.1960   18.3760 C   0  0  0  0  0  2  0  0  0  0  0  0
  -27.4840  -13.1410   19.5580 C   0  0  0  0  0  3  0  0  0  0  0  0
  -28.6050  -13.1820   20.6170 C   0  0  0  0  0  2  0  0  0  0  0  0
  -29.8290  -13.6200   19.9300 N   0  0  0  0  0  0  0  0  0  0  0  0
  -31.6070  -14.9280   19.5780 O   0  0  0  0  0  0  0  0  0  0  0  0
  -29.6720  -16.1080   20.1900 N   0  0  0  0  0  0  0  0  0  0  0  0
  -28.7370  -15.8770   20.4890 H   0  0  0  0  0  0  0  0  0  0  0  0
  -25.1700  -13.7400   20.4610 C   0  0  0  0  0  0  0  0  0  0  0  0
  -24.1200  -12.9750   20.8900 C   0  0  0  0  0  0  0  0  0  0  0  0
  -24.5620  -11.6180   20.8120 C   0  0  0  0  0  0  0  0  0  0  0  0
  -26.1800  -12.8500   20.1420 N   0  0  0  0  0  0  0  0  0  0  0  0
  -25.8300  -11.5680   20.4200 N   0  0  0  0  0  0  0  0  0  0  0  0
  -23.8290  -10.3650   21.0340 C   0  0  0  0  0  0  0  0  0  0  0  0
  -24.2970   -9.3800   21.9330 C   0  0  0  0  0  3  0  0  0  0  0  0
  -23.5610   -8.1950   22.1430 C   0  0  0  0  0  3  0  0  0  0  0  0
  -22.3410   -7.9850   21.4560 C   0  0  0  0  0  0  0  0  0  0  0  0
  -21.8920   -8.9560   20.5440 C   0  0  0  0  0  3  0  0  0  0  0  0
  -22.6300  -10.1330   20.3320 C   0  0  0  0  0  3  0  0  0  0  0  0
  -21.5730   -6.8520   21.5780 O   0  0  0  0  0  0  0  0  0  0  0  0
  -21.6090   -6.0750   22.7080 C   0  0  0  0  0  0  0  0  0  0  0  0
  -21.2670   -6.5910   23.9780 C   0  0  0  0  0  3  0  0  0  0  0  0
  -21.2510   -5.7420   25.1020 C   0  0  0  0  0  3  0  0  0  0  0  0
  -21.5660   -4.3770   24.9590 C   0  0  0  0  0  0  0  0  0  0  0  0
  -21.9020   -3.8610   23.6950 C   0  0  0  0  0  3  0  0  0  0  0  0
  -21.9200   -4.7080   22.5720 C   0  0  0  0  0  0  0  0  0  0  0  0
  -22.2230   -4.2000   21.3520 F   0  0  0  0  0  0  0  0  0  0  0  0
  -21.5440   -3.5590   26.0360 F   0  0  0  0  0  0  0  0  0  0  0  0
  -22.7520  -13.4690   21.2560 C   0  0  0  0  0  0  0  0  0  0  0  0
  -22.0710  -12.7740   22.1600 N   0  0  0  0  0  0  0  0  0  0  0  0
  -22.3000  -14.5080   20.7760 O   0  0  0  0  0  0  0  0  0  0  0  0
  -22.4510  -11.9310   22.5650 H   0  0  0  0  0  0  0  0  0  0  0  0
  -21.1570  -13.0900   22.4530 H   0  0  0  0  0  0  0  0  0  0  0  0
  -25.3400  -15.1110   20.2880 N   0  0  0  0  0  0  0  0  0  0  0  0
  -24.5860  -15.7690   20.4490 H   0  0  0  0  0  0  0  0  0  0  0  0
  -26.1630  -15.5430   19.8890 H   0  0  0  0  0  0  0  0  0  0  0  0
  -31.7250  -20.9340   21.2300 C   0  0  0  0  0  3  0  0  0  0  0  0
  -31.4640  -22.3450   19.2730 C   0  0  0  0  0  3  0  0  0  0  0  0
  -33.6970  -21.8560   20.1310 C   0  0  0  0  0  3  0  0  0  0  0  0
  -30.8690  -21.5240   20.2630 C   0  0  0  0  0  0  0  0  0  0  0  0
  -33.1270  -21.0780   21.1560 C   0  0  0  0  0  0  0  0  0  0  0  0
  -32.8640  -22.4930   19.1920 C   0  0  0  0  0  0  0  0  0  0  0  0
  -34.0190  -20.3780   22.1660 C   0  0  0  0  0  1  0  0  0  0  0  0
  -33.4730  -23.3210   18.0780 C   0  0  0  0  0  1  0  0  0  0  0  0
  -28.5640  -22.8260   20.5620 C   0  0  0  0  0  2  0  0  0  0  0  0
  -28.5000  -24.3730   19.7610 C   0  0  0  0  0  2  0  0  0  0  0  0
  -28.3700  -25.8920   20.2730 O   0  0  0  0  0  0  0  0  0  0  0  0
  -24.6600  -31.6330   23.1550 C   0  0  0  0  0  0  0  0  0  0  0  0
  -27.3120  -26.8930   20.1260 C   0  0  0  0  0  0  0  0  0  0  0  0
  -23.5010  -30.2580   21.4690 C   0  0  0  0  0  3  0  0  0  0  0  0
  -24.9850  -28.6900   20.0510 C   0  0  0  0  0  0  0  0  0  0  0  0
  -26.0590  -30.5070   21.3710 C   0  0  0  0  0  2  0  0  0  0  0  0
  -26.1490  -29.1130   20.7030 C   0  0  0  0  0  0  0  0  0  0  0  0
  -27.3050  -28.2330   20.7220 C   0  0  0  0  0  3  0  0  0  0  0  0
  -26.1230  -26.5920   19.4220 C   0  0  0  0  0  3  0  0  0  0  0  0
  -24.9900  -27.4470   19.3920 C   0  0  0  0  0  3  0  0  0  0  0  0
  -23.7590  -29.5970   20.0860 C   0  0  0  0  0  2  0  0  0  0  0  0
  -24.7590  -30.8230   22.0550 N   0  0  0  0  0  0  0  0  0  0  0  0
  -23.5610  -31.9090   23.6640 O   0  0  0  0  0  0  0  0  0  0  0  0
  -22.7950  -29.2430   22.4050 C   0  0  0  0  0  0  0  0  0  0  0  0
  -21.4680  -29.0850   22.2580 N   0  0  0  0  0  0  0  0  0  0  0  0
  -23.4480  -28.5990   23.2300 O   0  0  0  0  0  0  0  0  0  0  0  0
  -20.9960  -29.6650   21.5780 H   0  0  0  0  0  0  0  0  0  0  0  0
  -18.0720  -27.8900   22.6920 C   0  0  0  0  0  0  0  0  0  0  0  0
  -20.6280  -28.1370   22.9960 C   0  0  0  0  0  3  0  0  0  0  0  0
  -20.7310  -26.7160   22.3970 C   0  0  0  0  0  2  0  0  0  0  0  0
  -19.6410  -26.4180   21.3620 C   0  0  0  0  0  2  0  0  0  0  0  0
  -18.2510  -26.5570   21.9880 C   0  0  0  0  0  2  0  0  0  0  0  0
  -19.1880  -28.6390   23.1510 C   0  0  0  0  0  0  0  0  0  0  0  0
  -18.9660  -29.8880   23.7720 C   0  0  0  0  0  3  0  0  0  0  0  0
  -17.6610  -30.3910   23.9350 C   0  0  0  0  0  3  0  0  0  0  0  0
  -16.5590  -29.6400   23.4890 C   0  0  0  0  0  3  0  0  0  0  0  0
  -16.7650  -28.3900   22.8760 C   0  0  0  0  0  3  0  0  0  0  0  0
  -25.9210  -32.2660   23.8230 C   0  0  0  0  0  3  0  0  0  0  0  0
  -26.3920  -31.4900   25.1160 C   0  0  1  0  0  0  0  0  0  0  0  0
  -25.2620  -31.2600   26.1480 C   0  0  0  0  0  1  0  0  0  0  0  0
  -26.9840  -30.1110   24.7470 C   0  0  0  0  0  1  0  0  0  0  0  0
  -27.5250  -32.2790   25.8180 C   0  0  0  0  0  1  0  0  0  0  0  0
  -25.6020  -33.6630   24.1560 N   0  0  0  0  0  0  0  0  0  0  0  0
  -25.9460  -34.7260   23.4170 C   0  0  0  0  0  0  0  0  0  0  0  0
  -26.6300  -34.6310   22.3940 O   0  0  0  0  0  0  0  0  0  0  0  0
  -24.9960  -33.8080   24.9510 H   0  0  0  0  0  0  0  0  0  0  0  0
  -24.2110  -36.5190   23.0790 C   0  0  0  0  0  1  0  0  0  0  0  0
  -25.4560  -36.1100   23.8830 C   0  0  0  0  0  3  0  0  0  0  0  0
  -27.5880  -37.0040   24.7190 C   0  0  0  0  0  1  0  0  0  0  0  0
  -26.4850  -37.1680   23.7760 N   0  0  0  0  0  0  0  0  0  0  0  0
  -26.0750  -38.0860   23.9300 H   0  0  0  0  0  0  0  0  0  0  0  0
  1  3  1  0
  2  5  1  0
  4  2  1  0
  4  6  1  0
  5 15  1  0
  5  1  1  0
  6 53  1  1
  6  3  1  0
  7 15  1  0
  8 13  1  0
  9 10  1  0
  9  8  1  0
 11 10  1  0
 11 20  1  0
 11 12  1  0
 13  7  1  0
 13 12  1  0
 14  7  2  0
 15 16  1  0
 17 18  2  0
 18 37  1  0
 19 18  1  0
 19 22  1  0
 20 21  1  0
 20 17  1  0
 21 19  2  0
 22 23  1  0
 23 24  2  0
 25 28  1  0
 25 24  1  0
 26 25  2  0
 27 26  1  0
 27 22  2  0
 28 29  1  0
 29 30  1  0
 30 31  2  0
 32 31  1  0
 32 36  1  0
 33 32  2  0
 34 29  2  0
 34 33  1  0
 35 34  1  0
 37 38  1  0
 38 41  1  0
 38 40  1  0
 39 37  2  0
 42 43  1  0
 42 17  1  0
 44 42  1  0
 46 48  1  0
 47 49  2  0
 48  6  1  0
 48 45  2  0
 49 45  1  0
 49 51  1  0
 50 46  2  0
 50 47  1  0
 52 50  1  0
 54 55  1  0
 54 53  1  0
 56 67  2  0
 57 55  1  0
 57 62  1  0
 58 66  1  0
 58 68  1  0
 59 65  1  0
 59 61  1  0
 60 66  1  0
 61 62  2  0
 61 60  1  0
 63 57  2  0
 64 63  1  0
 64 59  2  0
 65 58  1  0
 66 56  1  0
 68 70  2  0
 69 68  1  0
 71 69  1  0
 72 81  2  0
 72 77  1  0
 73 69  1  0
 73 77  1  0
 74 73  1  0
 75 76  1  0
 75 74  1  0
 76 72  1  0
 77 78  2  0
 78 79  1  0
 80 79  2  0
 81 80  1  0
 82 56  1  0
 82 87  1  0
 82 83  1  0
 83 86  1  1
 83 84  1  0
 85 83  1  0
 87 90  1  0
 88 92  1  0
 88 87  1  0
 89 88  2  0
 92 91  1  0
 94 92  1  0
 94 95  1  0
 94 93  1  0
M  ISO  4   7 100  15 100  54 101  55 101
M  END
>  <TORSDO>  (54) 
F 19

>  <SCORE>  (54) 
-14.563

>  <name>  (54) 
55

>  <ligand_id>  (54) 
55

>  <original_smiles>  (54) 
[H]c1c([H])c([H])c2c(c1[H])C([H])([H])C([H])([H])C([H])([H])C2([H])N([H])C(=O)C1([H])N(C(=O)C([H])(N([H])C(=O)C([H])(N([H])C([H])([H])[H])C([H])([H])[H])C(C([H])([H])[H])(C([H])([H])[H])C([H])([H])[H])C([H])([H])c2c([H])c(OC([H])([H])C([H])([H])C3(c4c([H])c(C([H])([H])[H])c([H])c(C([H])([H])[H])c4[H])C([H])([H])C([H])([H])C([H])(N([H])C(=O)N4C([H])([H])C([H])([H])C([H])([H])C([H])(n5nc(-c6c([H])c([H])c(Oc7c([H])c([H])c(F)c([H])c7F)c([H])c6[H])c(C(=O)N([H])[H])c5N([H])[H])C4([H])[H])C([H])([H])C3([H])[H])c([H])c([H])c2C1([H])[H]

>  <smiles>  (54) 
[H]c1c([H])c([H])c2c(c1[H])C([H])([H])C([H])([H])C([H])([H])C2([H])N([H])C(=O)C1([H])N(C(=O)C([H])(N([H])C(=O)C([H])(N([H])C([H])([H])[H])C([H])([H])[H])C(C([H])([H])[H])(C([H])([H])[H])C([H])([H])[H])C([H])([H])c2c([H])c(OC([H])([H])C([H])([H])C3(c4c([H])c(C([H])([H])[H])c([H])c(C([H])([H])[H])c4[H])C([H])([H])C([H])([H])C([H])(N([H])C(=O)N4C([H])([H])C([H])([H])C([H])([H])C([H])(n5nc(-c6c([H])c([H])c(Oc7c([H])c([H])c(F)c([H])c7F)c([H])c6[H])c(C(=O)N([H])[H])c5N([H])[H])C4([H])[H])C([H])([H])C3([H])[H])c([H])c([H])c2C1([H])[H]

$$$$
56:0:0
     RDKit          3D

 95104  0  0  1  0  0  0  0  0999 V2000
  -31.5500  -20.3930   17.9300 C   0  0  0  0  0  3  0  0  0  0  0  0
  -30.8760  -21.6220   17.9760 C   0  0  0  0  0  3  0  0  0  0  0  0
  -31.1080  -19.2920   18.6850 C   0  0  0  0  0  3  0  0  0  0  0  0
  -29.1670  -23.1350   18.8380 C   0  0  0  0  0  3  0  0  0  0  0  0
  -28.3430  -21.1170   20.5780 C   0  0  0  0  0  3  0  0  0  0  0  0
  -29.7860  -21.8230   18.8460 C   0  0  0  0  0  0  0  0  0  0  0  0
  -29.3650  -20.7120   19.6720 C   0  0  0  0  0  0  0  0  0  0  0  0
  -29.9920  -19.3610   19.5470 C   0  0  0  0  0  0  0  0  0  0  0  0
  -27.8080  -22.4670   20.6630 C   0  0  0  0  0  0  0  0  0  0  0  0
  -28.1330  -23.5370   19.7380 C   0  0  0  0  0  0  0  0  0  0  0  0
  -29.5130  -17.8870   20.0390 C   0  0  0  0  0  2  0  0  0  0  0  0
  -31.8070  -17.3430   21.0360 C   0  0  0  0  0  1  0  0  0  0  0  0
  -29.8310  -16.3700   22.0910 C   0  0  0  0  0  1  0  0  0  0  0  0
  -30.4490  -16.6680   20.7050 C   0  0  1  0  0  0  0  0  0  0  0  0
  -30.8360  -15.2180   19.9600 C   0  0  0  0  0  0  0  0  0  0  0  0
  -30.6020  -12.8680   19.0280 C   0  0  0  0  0  2  0  0  0  0  0  0
  -29.6250  -12.8700   17.8280 C   0  0  0  0  0  2  0  0  0  0  0  0
  -28.1820  -12.6520   18.3190 C   0  0  0  0  0  2  0  0  0  0  0  0
  -27.8410  -13.5540   19.5330 C   0  0  0  0  0  3  0  0  0  0  0  0
  -28.9480  -13.5410   20.6090 C   0  0  0  0  0  2  0  0  0  0  0  0
  -30.2040  -13.9670   19.9680 N   0  0  0  0  0  0  0  0  0  0  0  0
  -31.9030  -15.2410   19.3360 O   0  0  0  0  0  0  0  0  0  0  0  0
  -25.5140  -14.1120   20.4420 C   0  0  0  0  0  0  0  0  0  0  0  0
  -24.4690  -13.3280   20.8450 C   0  0  0  0  0  0  0  0  0  0  0  0
  -24.9180  -11.9770   20.7230 C   0  0  0  0  0  0  0  0  0  0  0  0
  -26.5320  -13.2410   20.0950 N   0  0  0  0  0  0  0  0  0  0  0  0
  -26.1850  -11.9480   20.3220 N   0  0  0  0  0  0  0  0  0  0  0  0
  -24.1960  -10.7130   20.9100 C   0  0  0  0  0  0  0  0  0  0  0  0
  -24.6130   -9.7540   21.8590 C   0  0  0  0  0  3  0  0  0  0  0  0
  -23.8880   -8.5550   22.0320 C   0  0  0  0  0  3  0  0  0  0  0  0
  -22.7320   -8.3050   21.2560 C   0  0  0  0  0  0  0  0  0  0  0  0
  -22.3360   -9.2510   20.2940 C   0  0  0  0  0  3  0  0  0  0  0  0
  -23.0610  -10.4420   20.1190 C   0  0  0  0  0  3  0  0  0  0  0  0
  -21.9820   -7.1560   21.3370 O   0  0  0  0  0  0  0  0  0  0  0  0
  -21.8260   -6.4800   22.5210 C   0  0  0  0  0  0  0  0  0  0  0  0
  -21.2540   -7.0900   23.6590 C   0  0  0  0  0  3  0  0  0  0  0  0
  -21.0480   -6.3400   24.8340 C   0  0  0  0  0  3  0  0  0  0  0  0
  -21.4040   -4.9780   24.8700 C   0  0  0  0  0  0  0  0  0  0  0  0
  -21.9680   -4.3650   23.7360 C   0  0  0  0  0  3  0  0  0  0  0  0
  -22.1750   -5.1150   22.5650 C   0  0  0  0  0  0  0  0  0  0  0  0
  -22.7000   -4.5150   21.4700 F   0  0  0  0  0  0  0  0  0  0  0  0
  -21.1980   -4.2540   25.9940 F   0  0  0  0  0  0  0  0  0  0  0  0
  -23.0990  -13.8010   21.2320 C   0  0  0  0  0  0  0  0  0  0  0  0
  -22.4400  -13.0890   22.1400 N   0  0  0  0  0  0  0  0  0  0  0  0
  -22.6260  -14.8360   20.7670 O   0  0  0  0  0  0  0  0  0  0  0  0
  -22.8440  -12.2560   22.5420 H   0  0  0  0  0  0  0  0  0  0  0  0
  -21.5200  -13.3830   22.4350 H   0  0  0  0  0  0  0  0  0  0  0  0
  -25.6720  -15.4880   20.3170 N   0  0  0  0  0  0  0  0  0  0  0  0
  -24.9100  -16.1280   20.5160 H   0  0  0  0  0  0  0  0  0  0  0  0
  -26.4970  -15.9540   19.9630 H   0  0  0  0  0  0  0  0  0  0  0  0
  -26.9010  -22.7350   21.8650 C   0  0  0  0  0  2  0  0  0  0  0  0
  -24.8420  -24.0740   22.5710 C   0  0  0  0  0  1  0  0  0  0  0  0
  -25.4810  -23.1830   21.4930 C   0  0  0  0  0  2  0  0  0  0  0  0
  -27.2950  -24.9550   19.7100 C   0  0  0  0  0  2  0  0  0  0  0  0
  -27.5590  -26.2770   18.9750 O   0  0  0  0  0  0  0  0  0  0  0  0
  -24.8620  -31.6260   23.2270 C   0  0  0  0  0  0  0  0  0  0  0  0
  -26.6200  -27.3380   19.2070 C   0  0  0  0  0  0  0  0  0  0  0  0
  -23.3510  -30.6220   21.5560 C   0  0  0  0  0  3  0  0  0  0  0  0
  -24.4720  -29.2070   19.7290 C   0  0  0  0  0  0  0  0  0  0  0  0
  -25.8810  -30.7280   21.1060 C   0  0  0  0  0  2  0  0  0  0  0  0
  -25.7480  -29.4630   20.2480 C   0  0  0  0  0  0  0  0  0  0  0  0
  -26.8250  -28.5440   19.9800 C   0  0  0  0  0  3  0  0  0  0  0  0
  -25.3340  -27.1950   18.6450 C   0  0  0  0  0  3  0  0  0  0  0  0
  -24.2740  -28.0850   18.9100 C   0  0  0  0  0  3  0  0  0  0  0  0
  -23.3470  -30.1680   20.0710 C   0  0  0  0  0  2  0  0  0  0  0  0
  -24.7250  -31.0020   22.0170 N   0  0  0  0  0  0  0  0  0  0  0  0
  -23.8760  -31.8970   23.9280 O   0  0  0  0  0  0  0  0  0  0  0  0
  -22.6970  -29.5180   22.4280 C   0  0  0  0  0  0  0  0  0  0  0  0
  -21.3650  -29.3650   22.3250 N   0  0  0  0  0  0  0  0  0  0  0  0
  -23.3910  -28.8070   23.1600 O   0  0  0  0  0  0  0  0  0  0  0  0
  -20.8600  -29.9940   21.7170 H   0  0  0  0  0  0  0  0  0  0  0  0
  -18.0080  -28.0710   22.7290 C   0  0  0  0  0  0  0  0  0  0  0  0
  -20.5620  -28.3570   23.0210 C   0  0  0  0  0  3  0  0  0  0  0  0
  -20.6890  -26.9760   22.3360 C   0  0  0  0  0  2  0  0  0  0  0  0
  -19.5920  -26.7140   21.2980 C   0  0  0  0  0  2  0  0  0  0  0  0
  -18.2080  -26.7830   21.9500 C   0  0  0  0  0  2  0  0  0  0  0  0
  -19.1130  -28.8190   23.2180 C   0  0  0  0  0  0  0  0  0  0  0  0
  -18.8700  -30.0250   23.9100 C   0  0  0  0  0  3  0  0  0  0  0  0
  -17.5570  -30.4860   24.1180 C   0  0  0  0  0  3  0  0  0  0  0  0
  -16.4660  -29.7360   23.6420 C   0  0  0  0  0  3  0  0  0  0  0  0
  -16.6930  -28.5300   22.9550 C   0  0  0  0  0  3  0  0  0  0  0  0
  -26.2600  -32.0500   23.7710 C   0  0  0  0  0  3  0  0  0  0  0  0
  -26.1240  -33.3920   24.3580 N   0  0  0  0  0  0  0  0  0  0  0  0
  -26.4970  -34.5300   23.7580 C   0  0  0  0  0  0  0  0  0  0  0  0
  -27.0590  -34.5540   22.6600 O   0  0  0  0  0  0  0  0  0  0  0  0
  -25.6310  -33.4530   25.2370 H   0  0  0  0  0  0  0  0  0  0  0  0
  -24.9650  -36.5240   23.8660 C   0  0  0  0  0  1  0  0  0  0  0  0
  -26.2010  -35.8550   24.4910 C   0  0  0  0  0  3  0  0  0  0  0  0
  -28.4660  -36.3590   25.2920 C   0  0  0  0  0  1  0  0  0  0  0  0
  -27.3360  -36.8020   24.4800 N   0  0  0  0  0  0  0  0  0  0  0  0
  -27.0440  -37.7180   24.8120 H   0  0  0  0  0  0  0  0  0  0  0  0
  -26.8410  -31.0400   24.8360 C   0  0  1  0  0  0  0  0  0  0  0  0
  -25.8640  -30.7200   25.9890 C   0  0  0  0  0  1  0  0  0  0  0  0
  -27.2310  -29.7000   24.1670 C   0  0  0  0  0  1  0  0  0  0  0  0
  -28.1370  -31.6180   25.4550 C   0  0  0  0  0  1  0  0  0  0  0  0
  1  2  2  0
  1  3  1  0
  2  6  1  0
  3  8  2  0
  4  6  2  0
  4 10  1  0
  5  9  1  0
  6  7  1  0
  7  5  2  0
  8  7  1  0
  8 11  1  0
  9 51  1  0
 10  9  2  0
 11 14  1  0
 14 12  1  1
 14 13  1  0
 15 21  1  0
 15 14  1  0
 16 21  1  0
 17 18  1  0
 17 16  1  0
 19 18  1  0
 19 26  1  0
 19 20  1  0
 21 20  1  0
 22 15  2  0
 23 24  2  0
 24 43  1  0
 25 24  1  0
 25 28  1  0
 26 27  1  0
 26 23  1  0
 27 25  2  0
 28 29  1  0
 29 30  2  0
 31 34  1  0
 31 30  1  0
 32 31  2  0
 33 32  1  0
 33 28  2  0
 34 35  1  0
 35 40  2  0
 35 36  1  0
 36 37  2  0
 37 38  1  0
 38 42  1  0
 39 38  2  0
 40 39  1  0
 41 40  1  0
 43 44  1  0
 44 47  1  0
 44 46  1  0
 45 43  2  0
 48 23  1  0
 48 49  1  0
 50 48  1  0
 53 51  1  0
 53 52  1  0
 54 10  1  0
 55 57  1  0
 55 54  1  0
 56 67  2  0
 57 62  1  0
 58 66  1  0
 58 68  1  0
 59 65  1  0
 59 61  1  0
 60 66  1  0
 61 60  1  0
 62 61  2  0
 63 64  1  0
 63 57  2  0
 64 59  2  0
 65 58  1  0
 66 56  1  0
 68 70  2  0
 69 68  1  0
 71 69  1  0
 72 81  2  0
 72 77  1  0
 73 69  1  0
 73 77  1  0
 74 73  1  0
 75 76  1  0
 75 74  1  0
 76 72  1  0
 77 78  2  0
 78 79  1  0
 80 79  2  0
 81 80  1  0
 82 56  1  0
 82 83  1  0
 82 92  1  0
 83 86  1  0
 84 83  1  0
 84 88  1  0
 85 84  2  0
 88 87  1  0
 90 88  1  0
 90 91  1  0
 90 89  1  0
 92 95  1  1
 92 93  1  0
 94 92  1  0
M  ISO  4  14 100  15 100  54 101  55 101
M  END
>  <TORSDO>  (55) 
F 21

>  <SCORE>  (55) 
-12.005

>  <name>  (55) 
56

>  <ligand_id>  (55) 
56

>  <original_smiles>  (55) 
[H]c1c([H])c([H])c2c(c1[H])C([H])([H])C([H])([H])C([H])([H])C2([H])N([H])C(=O)C1([H])N(C(=O)C([H])(N([H])C(=O)C([H])(N([H])C([H])([H])[H])C([H])([H])[H])C(C([H])([H])[H])(C([H])([H])[H])C([H])([H])[H])C([H])([H])c2c([H])c(OC([H])([H])c3c(C([H])([H])C([H])([H])C([H])([H])[H])c([H])c4c(C([H])([H])C(C(=O)N5C([H])([H])C([H])([H])C([H])([H])C([H])(n6nc(-c7c([H])c([H])c(Oc8c([H])c([H])c(F)c([H])c8F)c([H])c7[H])c(C(=O)N([H])[H])c6N([H])[H])C5([H])[H])(C([H])([H])[H])C([H])([H])[H])c([H])c([H])c([H])c4c3[H])c([H])c([H])c2C1([H])[H]

>  <smiles>  (55) 
[H]c1c([H])c([H])c2c(c1[H])C([H])([H])C([H])([H])C([H])([H])C2([H])N([H])C(=O)C1([H])N(C(=O)C([H])(N([H])C(=O)C([H])(N([H])C([H])([H])[H])C([H])([H])[H])C(C([H])([H])[H])(C([H])([H])[H])C([H])([H])[H])C([H])([H])c2c([H])c(OC([H])([H])c3c(C([H])([H])C([H])([H])C([H])([H])[H])c([H])c4c(C([H])([H])C(C(=O)N5C([H])([H])C([H])([H])C([H])([H])C([H])(n6nc(-c7c([H])c([H])c(Oc8c([H])c([H])c(F)c([H])c8F)c([H])c7[H])c(C(=O)N([H])[H])c6N([H])[H])C5([H])[H])(C([H])([H])[H])C([H])([H])[H])c([H])c([H])c([H])c4c3[H])c([H])c([H])c2C1([H])[H]

$$$$
57:0:0
     RDKit          3D

 89 97  0  0  1  0  0  0  0  0999 V2000
  -28.8110  -20.3950   19.8520 C   0  0  0  0  0  2  0  0  0  0  0  0
  -30.9130  -18.9540   20.0400 C   0  0  0  0  0  0  0  0  0  0  0  0
  -31.4420  -17.5110   19.9240 C   0  0  0  0  0  2  0  0  0  0  0  0
  -30.2610  -16.5660   19.5710 C   0  0  0  0  0  3  0  0  0  0  0  0
  -29.0710  -17.5720   20.1020 C   0  0  1  0  0  0  0  0  0  0  0  0
  -27.8760  -17.5110   19.1350 C   0  0  0  0  0  1  0  0  0  0  0  0
  -28.6260  -17.1730   21.5210 C   0  0  0  0  0  1  0  0  0  0  0  0
  -29.5770  -19.0440   20.1590 N   0  0  0  0  0  0  0  0  0  0  0  0
  -31.6790  -19.9180   19.9700 O   0  0  0  0  0  0  0  0  0  0  0  0
  -30.7030  -14.9570   19.7650 C   0  0  0  0  0  0  0  0  0  0  0  0
  -30.3460  -12.6640   18.7800 C   0  0  0  0  0  2  0  0  0  0  0  0
  -29.3210  -12.6770   17.6280 C   0  0  0  0  0  2  0  0  0  0  0  0
  -27.9020  -12.4590   18.1820 C   0  0  0  0  0  2  0  0  0  0  0  0
  -27.6060  -13.3550   19.4120 C   0  0  0  0  0  3  0  0  0  0  0  0
  -28.7590  -13.3780   20.4340 C   0  0  0  0  0  2  0  0  0  0  0  0
  -29.9760  -13.7680   19.7150 N   0  0  0  0  0  0  0  0  0  0  0  0
  -31.9100  -14.8010   19.5690 O   0  0  0  0  0  0  0  0  0  0  0  0
  -25.3200  -13.9160   20.4090 C   0  0  0  0  0  0  0  0  0  0  0  0
  -24.2820  -13.1340   20.8310 C   0  0  0  0  0  0  0  0  0  0  0  0
  -24.7280  -11.7830   20.6990 C   0  0  0  0  0  0  0  0  0  0  0  0
  -26.3240  -13.0430   20.0290 N   0  0  0  0  0  0  0  0  0  0  0  0
  -25.9860  -11.7510   20.2750 N   0  0  0  0  0  0  0  0  0  0  0  0
  -24.0040  -10.5220   20.8930 C   0  0  0  0  0  0  0  0  0  0  0  0
  -24.4590   -9.5410   21.8020 C   0  0  0  0  0  3  0  0  0  0  0  0
  -23.7320   -8.3450   21.9860 C   0  0  0  0  0  3  0  0  0  0  0  0
  -22.5370   -8.1220   21.2620 C   0  0  0  0  0  0  0  0  0  0  0  0
  -22.1020   -9.0910   20.3410 C   0  0  0  0  0  3  0  0  0  0  0  0
  -22.8290  -10.2780   20.1540 C   0  0  0  0  0  3  0  0  0  0  0  0
  -21.7800   -6.9790   21.3580 O   0  0  0  0  0  0  0  0  0  0  0  0
  -21.6980   -6.2660   22.5270 C   0  0  0  0  0  0  0  0  0  0  0  0
  -21.2230   -6.8470   23.7230 C   0  0  0  0  0  3  0  0  0  0  0  0
  -21.0900   -6.0600   24.8840 C   0  0  0  0  0  3  0  0  0  0  0  0
  -21.4210   -4.6920   24.8500 C   0  0  0  0  0  0  0  0  0  0  0  0
  -21.8880   -4.1100   23.6580 C   0  0  0  0  0  3  0  0  0  0  0  0
  -22.0230   -4.8950   22.4990 C   0  0  0  0  0  0  0  0  0  0  0  0
  -22.4540   -4.3240   21.3480 F   0  0  0  0  0  0  0  0  0  0  0  0
  -21.2840   -3.9330   25.9620 F   0  0  0  0  0  0  0  0  0  0  0  0
  -22.9210  -13.6130   21.2390 C   0  0  0  0  0  0  0  0  0  0  0  0
  -22.2610  -12.8890   22.1370 N   0  0  0  0  0  0  0  0  0  0  0  0
  -22.4540  -14.6630   20.7990 O   0  0  0  0  0  0  0  0  0  0  0  0
  -22.6550  -12.0400   22.5140 H   0  0  0  0  0  0  0  0  0  0  0  0
  -21.3500  -13.1900   22.4520 H   0  0  0  0  0  0  0  0  0  0  0  0
  -25.4790  -15.2910   20.2920 N   0  0  0  0  0  0  0  0  0  0  0  0
  -24.7330  -15.9400   20.5200 H   0  0  0  0  0  0  0  0  0  0  0  0
  -26.3150  -15.7480   19.9580 H   0  0  0  0  0  0  0  0  0  0  0  0
  -29.0530  -21.8840   20.5850 C   0  0  0  0  0  2  0  0  0  0  0  0
  -28.6450  -23.3770   19.9250 C   0  0  0  0  0  2  0  0  0  0  0  0
  -28.3430  -24.7850   20.7810 C   0  0  0  0  0  2  0  0  0  0  0  0
  -28.4680  -26.2550   20.3220 O   0  0  0  0  0  0  0  0  0  0  0  0
  -24.6820  -31.8500   23.2430 C   0  0  0  0  0  0  0  0  0  0  0  0
  -27.3680  -27.1690   20.3110 C   0  0  0  0  0  0  0  0  0  0  0  0
  -23.5210  -30.4150   21.6070 C   0  0  0  0  0  3  0  0  0  0  0  0
  -25.0070  -28.8430   20.2250 C   0  0  0  0  0  0  0  0  0  0  0  0
  -26.0670  -30.7310   21.4600 C   0  0  0  0  0  2  0  0  0  0  0  0
  -26.1710  -29.3320   20.8340 C   0  0  0  0  0  0  0  0  0  0  0  0
  -27.3560  -28.5120   20.8550 C   0  0  0  0  0  3  0  0  0  0  0  0
  -26.1790  -26.7620   19.6770 C   0  0  0  0  0  3  0  0  0  0  0  0
  -25.0210  -27.5700   19.6320 C   0  0  0  0  0  3  0  0  0  0  0  0
  -23.7660  -29.7200   20.2400 C   0  0  0  0  0  2  0  0  0  0  0  0
  -24.7760  -31.0210   22.1590 N   0  0  0  0  0  0  0  0  0  0  0  0
  -23.5870  -32.1240   23.7570 O   0  0  0  0  0  0  0  0  0  0  0  0
  -22.8500  -29.4100   22.5750 C   0  0  0  0  0  0  0  0  0  0  0  0
  -21.5270  -29.2110   22.4310 N   0  0  0  0  0  0  0  0  0  0  0  0
  -23.5200  -28.8090   23.4180 O   0  0  0  0  0  0  0  0  0  0  0  0
  -21.0420  -29.7470   21.7250 H   0  0  0  0  0  0  0  0  0  0  0  0
  -18.1630  -27.9540   22.8950 C   0  0  0  0  0  0  0  0  0  0  0  0
  -20.7110  -28.2710   23.2030 C   0  0  0  0  0  3  0  0  0  0  0  0
  -20.8520  -26.8310   22.6540 C   0  0  0  0  0  2  0  0  0  0  0  0
  -19.7740  -26.4690   21.6270 C   0  0  0  0  0  2  0  0  0  0  0  0
  -18.3780  -26.5970   22.2430 C   0  0  0  0  0  2  0  0  0  0  0  0
  -19.2590  -28.7450   23.3310 C   0  0  0  0  0  0  0  0  0  0  0  0
  -19.0040  -30.0120   23.9000 C   0  0  0  0  0  3  0  0  0  0  0  0
  -17.6850  -30.4870   24.0370 C   0  0  0  0  0  3  0  0  0  0  0  0
  -16.6040  -29.6940   23.6170 C   0  0  0  0  0  3  0  0  0  0  0  0
  -16.8430  -28.4290   23.0510 C   0  0  0  0  0  3  0  0  0  0  0  0
  -25.9450  -32.5110   23.8750 C   0  0  0  0  0  3  0  0  0  0  0  0
  -26.4560  -31.7610   25.1670 C   0  0  1  0  0  0  0  0  0  0  0  0
  -25.3540  -31.5170   26.2230 C   0  0  0  0  0  1  0  0  0  0  0  0
  -27.0670  -30.3900   24.7990 C   0  0  0  0  0  1  0  0  0  0  0  0
  -27.5840  -32.5810   25.8360 C   0  0  0  0  0  1  0  0  0  0  0  0
  -25.6070  -33.9080   24.1930 N   0  0  0  0  0  0  0  0  0  0  0  0
  -25.9230  -34.9630   23.4320 C   0  0  0  0  0  0  0  0  0  0  0  0
  -26.5970  -34.8660   22.4040 O   0  0  0  0  0  0  0  0  0  0  0  0
  -25.0080  -34.0560   24.9920 H   0  0  0  0  0  0  0  0  0  0  0  0
  -24.1640  -36.7260   23.0690 C   0  0  0  0  0  1  0  0  0  0  0  0
  -25.4120  -36.3470   23.8820 C   0  0  0  0  0  3  0  0  0  0  0  0
  -27.5280  -37.2780   24.7100 C   0  0  0  0  0  1  0  0  0  0  0  0
  -26.4260  -37.4170   23.7620 N   0  0  0  0  0  0  0  0  0  0  0  0
  -26.0020  -38.3310   23.9000 H   0  0  0  0  0  0  0  0  0  0  0  0
  1  8  1  0
  1 46  1  0
  2  8  1  0
  3  2  1  0
  4 10  1  0
  4  3  1  0
  4  5  1  0
  5  8  1  0
  5  7  1  1
  6  5  1  0
  9  2  2  0
 11 16  1  0
 12 13  1  0
 12 11  1  0
 14 13  1  0
 14 21  1  0
 14 15  1  0
 16 10  1  0
 16 15  1  0
 17 10  2  0
 18 19  2  0
 19 38  1  0
 20 19  1  0
 20 23  1  0
 21 22  1  0
 21 18  1  0
 22 20  2  0
 23 24  1  0
 24 25  2  0
 26 29  1  0
 26 25  1  0
 27 26  2  0
 28 27  1  0
 28 23  2  0
 29 30  1  0
 30 31  1  0
 31 32  2  0
 33 32  1  0
 33 37  1  0
 34 33  2  0
 35 30  2  0
 35 34  1  0
 36 35  1  0
 38 39  1  0
 39 42  1  0
 39 41  1  0
 40 38  2  0
 43 18  1  0
 43 44  1  0
 45 43  1  0
 47 46  1  0
 47 48  1  0
 49 48  1  0
 50 61  2  0
 51 49  1  0
 51 56  1  0
 52 60  1  0
 52 62  1  0
 53 59  1  0
 53 55  1  0
 54 60  1  0
 55 56  2  0
 55 54  1  0
 57 51  2  0
 58 57  1  0
 58 53  2  0
 59 52  1  0
 60 50  1  0
 62 64  2  0
 63 62  1  0
 65 63  1  0
 66 75  2  0
 66 71  1  0
 67 63  1  0
 67 71  1  0
 68 67  1  0
 69 70  1  0
 69 68  1  0
 70 66  1  0
 71 72  2  0
 72 73  1  0
 74 73  2  0
 75 74  1  0
 76 50  1  0
 76 81  1  0
 76 77  1  0
 77 80  1  1
 77 78  1  0
 79 77  1  0
 81 84  1  0
 82 86  1  0
 82 81  1  0
 83 82  2  0
 86 85  1  0
 88 86  1  0
 88 89  1  0
 88 87  1  0
M  ISO  4   4 100  10 100  48 101  49 101
M  END
>  <TORSDO>  (56) 
F 20

>  <SCORE>  (56) 
-12.857

>  <name>  (56) 
57

>  <ligand_id>  (56) 
57

>  <original_smiles>  (56) 
[H]c1c([H])c([H])c2c(c1[H])C([H])([H])C([H])([H])C([H])([H])C2([H])N([H])C(=O)C1([H])N(C(=O)C([H])(N([H])C(=O)C([H])(N([H])C([H])([H])[H])C([H])([H])[H])C(C([H])([H])[H])(C([H])([H])[H])C([H])([H])[H])C([H])([H])c2c([H])c(OC([H])([H])C([H])([H])C([H])([H])C([H])([H])N3C(=O)C([H])([H])C([H])(C(=O)N4C([H])([H])C([H])([H])C([H])([H])C([H])(n5nc(-c6c([H])c([H])c(Oc7c([H])c([H])c(F)c([H])c7F)c([H])c6[H])c(C(=O)N([H])[H])c5N([H])[H])C4([H])[H])C3(C([H])([H])[H])C([H])([H])[H])c([H])c([H])c2C1([H])[H]

>  <smiles>  (56) 
[H]c1c([H])c([H])c2c(c1[H])C([H])([H])C([H])([H])C([H])([H])C2([H])N([H])C(=O)C1([H])N(C(=O)C([H])(N([H])C(=O)C([H])(N([H])C([H])([H])[H])C([H])([H])[H])C(C([H])([H])[H])(C([H])([H])[H])C([H])([H])[H])C([H])([H])c2c([H])c(OC([H])([H])C([H])([H])C([H])([H])C([H])([H])N3C(=O)C([H])([H])C([H])(C(=O)N4C([H])([H])C([H])([H])C([H])([H])C([H])(n5nc(-c6c([H])c([H])c(Oc7c([H])c([H])c(F)c([H])c7F)c([H])c6[H])c(C(=O)N([H])[H])c5N([H])[H])C4([H])[H])C3(C([H])([H])[H])C([H])([H])[H])c([H])c([H])c2C1([H])[H]

$$$$
58:0:0
     RDKit          3D

 92101  0  0  1  0  0  0  0  0999 V2000
  -27.9740  -20.6100   20.5890 C   0  0  0  0  0  3  0  0  0  0  0  0
  -27.9470  -22.0240   20.4380 C   0  0  0  0  0  3  0  0  0  0  0  0
  -30.3600  -20.6000   20.2410 C   0  0  0  0  0  3  0  0  0  0  0  0
  -29.1710  -19.8560   20.4580 C   0  0  0  0  0  0  0  0  0  0  0  0
  -29.1270  -22.7600   20.1630 C   0  0  0  0  0  0  0  0  0  0  0  0
  -30.3360  -22.0150   20.0970 C   0  0  0  0  0  0  0  0  0  0  0  0
  -31.4960  -22.6570   19.8150 F   0  0  0  0  0  0  0  0  0  0  0  0
  -30.8280  -14.8630   21.0660 C   0  0  0  0  0  0  0  0  0  0  0  0
  -30.7400  -12.5260   20.2580 C   0  0  0  0  0  2  0  0  0  0  0  0
  -29.9340  -12.4070   18.9430 C   0  0  0  0  0  2  0  0  0  0  0  0
  -28.4230  -12.3160   19.2160 C   0  0  0  0  0  2  0  0  0  0  0  0
  -27.9040  -13.2980   20.3010 C   0  0  0  0  0  3  0  0  0  0  0  0
  -28.8400  -13.3560   21.5250 C   0  0  0  0  0  2  0  0  0  0  0  0
  -30.1890  -13.6510   21.0310 N   0  0  0  0  0  0  0  0  0  0  0  0
  -32.0560  -14.9350   21.1470 O   0  0  0  0  0  0  0  0  0  0  0  0
  -29.1660  -16.6020   18.3430 C   0  0  0  0  0  2  0  0  0  0  0  0
  -28.9980  -18.0610   18.7600 C   0  0  0  0  0  2  0  0  0  0  0  0
  -30.4010  -16.0350   19.0390 C   0  0  0  0  0  2  0  0  0  0  0  0
  -30.1930  -17.3560   20.9760 C   0  0  0  0  0  2  0  0  0  0  0  0
  -29.1030  -18.3030   20.2850 C   0  0  0  0  0  3  0  0  0  0  0  0
  -30.1580  -15.9240   20.4890 N   0  0  0  0  0  0  0  0  0  0  0  0
  -25.4390  -13.8710   20.7450 C   0  0  0  0  0  0  0  0  0  0  0  0
  -24.3490  -13.0840   21.0110 C   0  0  0  0  0  0  0  0  0  0  0  0
  -24.8360  -11.7430   21.0770 C   0  0  0  0  0  0  0  0  0  0  0  0
  -26.5190  -13.0070   20.6630 N   0  0  0  0  0  0  0  0  0  0  0  0
  -26.1540  -11.7250   20.9300 N   0  0  0  0  0  0  0  0  0  0  0  0
  -24.1190  -10.4690   21.2150 C   0  0  0  0  0  0  0  0  0  0  0  0
  -24.4770   -9.5230   22.2000 C   0  0  0  0  0  3  0  0  0  0  0  0
  -23.7580   -8.3150   22.3290 C   0  0  0  0  0  3  0  0  0  0  0  0
  -22.6690   -8.0430   21.4690 C   0  0  0  0  0  0  0  0  0  0  0  0
  -22.3300   -8.9770   20.4740 C   0  0  0  0  0  3  0  0  0  0  0  0
  -23.0500  -10.1760   20.3450 C   0  0  0  0  0  3  0  0  0  0  0  0
  -21.9300   -6.8830   21.5040 O   0  0  0  0  0  0  0  0  0  0  0  0
  -21.7950   -6.1500   22.6540 C   0  0  0  0  0  0  0  0  0  0  0  0
  -21.2500   -6.7060   23.8330 C   0  0  0  0  0  3  0  0  0  0  0  0
  -21.0650   -5.8970   24.9720 C   0  0  0  0  0  3  0  0  0  0  0  0
  -21.4150   -4.5340   24.9340 C   0  0  0  0  0  0  0  0  0  0  0  0
  -21.9520   -3.9780   23.7590 C   0  0  0  0  0  3  0  0  0  0  0  0
  -22.1390   -4.7820   22.6220 C   0  0  0  0  0  0  0  0  0  0  0  0
  -22.6380   -4.2370   21.4870 F   0  0  0  0  0  0  0  0  0  0  0  0
  -21.2300   -3.7560   26.0260 F   0  0  0  0  0  0  0  0  0  0  0  0
  -22.9200  -13.5360   21.1020 C   0  0  0  0  0  0  0  0  0  0  0  0
  -22.1150  -12.8550   21.9090 N   0  0  0  0  0  0  0  0  0  0  0  0
  -22.5220  -14.5260   20.4890 O   0  0  0  0  0  0  0  0  0  0  0  0
  -22.4480  -12.0540   22.4240 H   0  0  0  0  0  0  0  0  0  0  0  0
  -21.1510  -13.1380   22.0150 H   0  0  0  0  0  0  0  0  0  0  0  0
  -25.6000  -15.2380   20.5400 N   0  0  0  0  0  0  0  0  0  0  0  0
  -24.8220  -15.8870   20.5360 H   0  0  0  0  0  0  0  0  0  0  0  0
  -26.4840  -15.6740   20.3110 H   0  0  0  0  0  0  0  0  0  0  0  0
  -29.1250  -24.2790   19.7970 C   0  0  0  0  0  2  0  0  0  0  0  0
  -28.1990  -25.2880   20.5650 C   0  0  0  0  0  2  0  0  0  0  0  0
  -28.3070  -26.6790   20.1020 O   0  0  0  0  0  0  0  0  0  0  0  0
  -24.5650  -31.9530   23.2100 C   0  0  0  0  0  0  0  0  0  0  0  0
  -27.1600  -27.4670   20.1050 C   0  0  0  0  0  0  0  0  0  0  0  0
  -23.3410  -30.5560   21.5800 C   0  0  0  0  0  3  0  0  0  0  0  0
  -24.7750  -29.0220   20.1280 C   0  0  0  0  0  0  0  0  0  0  0  0
  -25.8700  -30.9070   21.3510 C   0  0  0  0  0  2  0  0  0  0  0  0
  -25.9470  -29.5320   20.7030 C   0  0  0  0  0  0  0  0  0  0  0  0
  -27.1440  -28.7680   20.6770 C   0  0  0  0  0  3  0  0  0  0  0  0
  -25.9700  -26.9930   19.5050 C   0  0  0  0  0  3  0  0  0  0  0  0
  -24.7870  -27.7540   19.5180 C   0  0  0  0  0  3  0  0  0  0  0  0
  -23.5330  -29.8820   20.1950 C   0  0  0  0  0  2  0  0  0  0  0  0
  -24.6110  -31.1570   22.1040 N   0  0  0  0  0  0  0  0  0  0  0  0
  -23.4900  -32.2210   23.7640 O   0  0  0  0  0  0  0  0  0  0  0  0
  -22.6980  -29.5310   22.5450 C   0  0  0  0  0  0  0  0  0  0  0  0
  -21.3720  -29.3500   22.4330 N   0  0  0  0  0  0  0  0  0  0  0  0
  -23.3900  -28.9090   23.3540 O   0  0  0  0  0  0  0  0  0  0  0  0
  -20.8740  -29.9140   21.7580 H   0  0  0  0  0  0  0  0  0  0  0  0
  -18.0010  -28.1420   22.9520 C   0  0  0  0  0  0  0  0  0  0  0  0
  -20.5610  -28.4080   23.2040 C   0  0  0  0  0  3  0  0  0  0  0  0
  -20.6630  -26.9790   22.6240 C   0  0  0  0  0  2  0  0  0  0  0  0
  -19.5520  -26.6560   21.6180 C   0  0  0  0  0  2  0  0  0  0  0  0
  -18.1760  -26.7950   22.2720 C   0  0  0  0  0  2  0  0  0  0  0  0
  -19.1210  -28.9060   23.3750 C   0  0  0  0  0  0  0  0  0  0  0  0
  -18.9030  -30.1690   23.9700 C   0  0  0  0  0  3  0  0  0  0  0  0
  -17.5970  -30.6670   24.1450 C   0  0  0  0  0  3  0  0  0  0  0  0
  -16.4930  -29.8950   23.7420 C   0  0  0  0  0  3  0  0  0  0  0  0
  -16.6960  -28.6360   23.1510 C   0  0  0  0  0  3  0  0  0  0  0  0
  -25.8570  -32.5830   23.8200 C   0  0  0  0  0  3  0  0  0  0  0  0
  -25.5490  -33.9770   24.1690 N   0  0  0  0  0  0  0  0  0  0  0  0
  -25.8760  -35.0390   23.4200 C   0  0  0  0  0  0  0  0  0  0  0  0
  -26.5380  -34.9480   22.3820 O   0  0  0  0  0  0  0  0  0  0  0  0
  -24.9570  -34.1190   24.9740 H   0  0  0  0  0  0  0  0  0  0  0  0
  -24.1490  -36.8370   23.0920 C   0  0  0  0  0  1  0  0  0  0  0  0
  -25.3910  -36.4220   23.8940 C   0  0  0  0  0  3  0  0  0  0  0  0
  -27.5300  -37.2920   24.7280 C   0  0  0  0  0  1  0  0  0  0  0  0
  -26.4250  -37.4750   23.7900 N   0  0  0  0  0  0  0  0  0  0  0  0
  -26.0200  -38.3920   23.9540 H   0  0  0  0  0  0  0  0  0  0  0  0
  -26.3960  -31.7990   25.0790 C   0  0  1  0  0  0  0  0  0  0  0  0
  -25.3180  -31.5430   26.1610 C   0  0  0  0  0  1  0  0  0  0  0  0
  -26.9750  -30.4280   24.6590 C   0  0  0  0  0  1  0  0  0  0  0  0
  -27.5590  -32.5880   25.7280 C   0  0  0  0  0  1  0  0  0  0  0  0
  2  1  2  0
  3  4  2  0
  4  1  1  0
  5  2  1  0
  6  5  2  0
  6  3  1  0
  7  6  1  0
  8 15  2  0
  9 14  1  0
 10 11  1  0
 10  9  1  0
 12 11  1  0
 12 25  1  0
 12 13  1  0
 14  8  1  0
 14 13  1  0
 16 17  1  0
 16 18  1  0
 17 20  1  0
 18 21  1  0
 20  4  1  0
 20 19  1  0
 21 19  1  0
 21  8  1  0
 22 23  2  0
 23 24  1  0
 23 42  1  0
 24 27  1  0
 25 22  1  0
 25 26  1  0
 26 24  2  0
 27 28  1  0
 28 29  2  0
 30 33  1  0
 30 29  1  0
 31 30  2  0
 32 31  1  0
 32 27  2  0
 33 34  1  0
 34 35  1  0
 35 36  2  0
 37 36  1  0
 37 41  1  0
 38 37  2  0
 39 34  2  0
 39 38  1  0
 40 39  1  0
 42 43  1  0
 43 46  1  0
 43 45  1  0
 44 42  2  0
 47 22  1  0
 48 47  1  0
 49 47  1  0
 50  5  1  0
 50 51  1  0
 52 54  1  0
 52 51  1  0
 53 64  2  0
 54 59  1  0
 55 63  1  0
 55 65  1  0
 56 62  1  0
 56 58  1  0
 57 63  1  0
 58 57  1  0
 59 58  2  0
 60 61  1  0
 60 54  2  0
 61 56  2  0
 62 55  1  0
 63 53  1  0
 65 67  2  0
 66 65  1  0
 68 66  1  0
 69 78  2  0
 69 74  1  0
 70 66  1  0
 70 74  1  0
 71 70  1  0
 72 73  1  0
 72 71  1  0
 73 69  1  0
 74 75  2  0
 75 76  1  0
 77 76  2  0
 78 77  1  0
 79 53  1  0
 79 80  1  0
 79 89  1  0
 80 83  1  0
 81 85  1  0
 81 80  1  0
 82 81  2  0
 85 84  1  0
 87 85  1  0
 87 88  1  0
 87 86  1  0
 89 92  1  1
 89 90  1  0
 91 89  1  0
M  ISO  4   8 100  21 100  51 101  52 101
M  END
>  <TORSDO>  (57) 
F 18

>  <SCORE>  (57) 
-13.943

>  <name>  (57) 
58

>  <ligand_id>  (57) 
58

>  <original_smiles>  (57) 
[H]c1c([H])c([H])c2c(c1[H])C([H])([H])C([H])([H])C([H])([H])C2([H])N([H])C(=O)C1([H])N(C(=O)C([H])(N([H])C(=O)C([H])(N([H])C([H])([H])[H])C([H])([H])[H])C(C([H])([H])[H])(C([H])([H])[H])C([H])([H])[H])C([H])([H])c2c([H])c(OC([H])([H])C([H])([H])c3c([H])c([H])c(C4([H])C([H])([H])N(C(=O)N5C([H])([H])C([H])([H])C([H])([H])C([H])(n6nc(-c7c([H])c([H])c(Oc8c([H])c([H])c(F)c([H])c8F)c([H])c7[H])c(C(=O)N([H])[H])c6N([H])[H])C5([H])[H])C([H])([H])C([H])([H])C4([H])[H])c([H])c3F)c([H])c([H])c2C1([H])[H]

>  <smiles>  (57) 
[H]c1c([H])c([H])c2c(c1[H])C([H])([H])C([H])([H])C([H])([H])C2([H])N([H])C(=O)C1([H])N(C(=O)C([H])(N([H])C(=O)C([H])(N([H])C([H])([H])[H])C([H])([H])[H])C(C([H])([H])[H])(C([H])([H])[H])C([H])([H])[H])C([H])([H])c2c([H])c(OC([H])([H])C([H])([H])c3c([H])c([H])c(C4([H])C([H])([H])N(C(=O)N5C([H])([H])C([H])([H])C([H])([H])C([H])(n6nc(-c7c([H])c([H])c(Oc8c([H])c([H])c(F)c([H])c8F)c([H])c7[H])c(C(=O)N([H])[H])c6N([H])[H])C5([H])[H])C([H])([H])C([H])([H])C4([H])[H])c([H])c3F)c([H])c([H])c2C1([H])[H]

$$$$
59:0:0
     RDKit          3D

 91100  0  0  1  0  0  0  0  0999 V2000
  -28.5830  -19.7300   20.6510 C   0  0  0  0  0  3  0  0  0  0  0  0
  -30.4500  -18.5870   18.8950 C   0  0  0  0  0  3  0  0  0  0  0  0
  -28.9910  -18.3570   20.7480 C   0  0  0  0  0  0  0  0  0  0  0  0
  -29.9120  -17.7180   19.8930 C   0  0  0  0  0  0  0  0  0  0  0  0
  -30.0370  -19.9780   18.7690 C   0  0  0  0  0  0  0  0  0  0  0  0
  -29.0810  -20.6130   19.6460 C   0  0  0  0  0  0  0  0  0  0  0  0
  -28.5230  -17.4070   21.8110 C   0  0  0  0  0  2  0  0  0  0  0  0
  -29.0770  -16.0300   21.3740 C   0  0  0  0  0  2  0  0  0  0  0  0
  -30.2770  -16.2230   20.3990 C   0  0  2  0  0  0  0  0  0  0  0  0
  -30.6230  -20.7940   17.6320 C   0  0  0  0  0  1  0  0  0  0  0  0
  -31.5410  -16.4030   21.2730 C   0  0  0  0  0  1  0  0  0  0  0  0
  -30.6450  -14.9090   19.4560 C   0  0  0  0  0  0  0  0  0  0  0  0
  -30.2860  -12.6750   18.3080 C   0  0  0  0  0  2  0  0  0  0  0  0
  -29.1720  -12.7790   17.2390 C   0  0  0  0  0  2  0  0  0  0  0  0
  -27.7740  -12.5860   17.8610 C   0  0  0  0  0  2  0  0  0  0  0  0
  -27.6020  -13.4040   19.1670 C   0  0  0  0  0  3  0  0  0  0  0  0
  -28.8110  -13.1800   20.1020 C   0  0  0  0  0  2  0  0  0  0  0  0
  -30.0030  -13.6680   19.3860 N   0  0  0  0  0  0  0  0  0  0  0  0
  -31.6690  -15.0190   18.7670 O   0  0  0  0  0  0  0  0  0  0  0  0
  -25.3610  -14.0170   20.2580 C   0  0  0  0  0  0  0  0  0  0  0  0
  -24.3350  -13.2510   20.7390 C   0  0  0  0  0  0  0  0  0  0  0  0
  -24.7400  -11.8930   20.5640 C   0  0  0  0  0  0  0  0  0  0  0  0
  -26.3300  -13.1250   19.8260 N   0  0  0  0  0  0  0  0  0  0  0  0
  -25.9700  -11.8390   20.0670 N   0  0  0  0  0  0  0  0  0  0  0  0
  -24.0040  -10.6430   20.7860 C   0  0  0  0  0  0  0  0  0  0  0  0
  -24.4960   -9.6400   21.6490 C   0  0  0  0  0  3  0  0  0  0  0  0
  -23.7600   -8.4530   21.8610 C   0  0  0  0  0  3  0  0  0  0  0  0
  -22.5170   -8.2640   21.2110 C   0  0  0  0  0  0  0  0  0  0  0  0
  -22.0430   -9.2550   20.3350 C   0  0  0  0  0  3  0  0  0  0  0  0
  -22.7790  -10.4330   20.1200 C   0  0  0  0  0  3  0  0  0  0  0  0
  -21.7460   -7.1340   21.3370 O   0  0  0  0  0  0  0  0  0  0  0  0
  -21.7220   -6.4050   22.4990 C   0  0  0  0  0  0  0  0  0  0  0  0
  -21.3560   -6.9840   23.7350 C   0  0  0  0  0  3  0  0  0  0  0  0
  -21.2770   -6.1830   24.8920 C   0  0  0  0  0  3  0  0  0  0  0  0
  -21.5540   -4.8040   24.8150 C   0  0  0  0  0  0  0  0  0  0  0  0
  -21.9120   -4.2250   23.5850 C   0  0  0  0  0  3  0  0  0  0  0  0
  -21.9930   -5.0230   22.4300 C   0  0  0  0  0  0  0  0  0  0  0  0
  -22.3190   -4.4560   21.2430 F   0  0  0  0  0  0  0  0  0  0  0  0
  -21.4700   -4.0330   25.9240 F   0  0  0  0  0  0  0  0  0  0  0  0
  -23.0100  -13.7500   21.2420 C   0  0  0  0  0  0  0  0  0  0  0  0
  -22.4010  -13.0310   22.1790 N   0  0  0  0  0  0  0  0  0  0  0  0
  -22.5320  -14.8100   20.8410 O   0  0  0  0  0  0  0  0  0  0  0  0
  -22.8060  -12.1730   22.5230 H   0  0  0  0  0  0  0  0  0  0  0  0
  -21.5180  -13.3430   22.5560 H   0  0  0  0  0  0  0  0  0  0  0  0
  -25.5380  -15.3910   20.1290 N   0  0  0  0  0  0  0  0  0  0  0  0
  -24.8090  -16.0500   20.3800 H   0  0  0  0  0  0  0  0  0  0  0  0
  -26.3290  -15.8300   19.6780 H   0  0  0  0  0  0  0  0  0  0  0  0
  -28.3860  -22.0620   19.4000 C   0  0  0  0  0  2  0  0  0  0  0  0
  -28.8290  -23.5400   19.9600 C   0  0  0  0  0  3  0  0  0  0  0  0
  -27.8440  -24.8240   19.6470 C   0  0  0  0  0  3  0  0  0  0  0  0
  -28.0730  -26.2910   20.0050 O   0  0  0  0  0  0  0  0  0  0  0  0
  -24.4430  -31.7720   23.1840 C   0  0  0  0  0  0  0  0  0  0  0  0
  -26.9870  -27.2160   19.9710 C   0  0  0  0  0  0  0  0  0  0  0  0
  -23.2080  -30.4050   21.5450 C   0  0  0  0  0  3  0  0  0  0  0  0
  -24.6300  -28.8870   20.0440 C   0  0  0  0  0  0  0  0  0  0  0  0
  -25.7480  -30.7140   21.3140 C   0  0  0  0  0  2  0  0  0  0  0  0
  -25.8160  -29.3450   20.6320 C   0  0  0  0  0  0  0  0  0  0  0  0
  -26.9950  -28.5220   20.5850 C   0  0  0  0  0  3  0  0  0  0  0  0
  -25.7750  -26.8500   19.3410 C   0  0  0  0  0  3  0  0  0  0  0  0
  -24.6170  -27.6510   19.3850 C   0  0  0  0  0  3  0  0  0  0  0  0
  -23.3940  -29.7640   20.1440 C   0  0  0  0  0  2  0  0  0  0  0  0
  -24.4870  -30.9830   22.0700 N   0  0  0  0  0  0  0  0  0  0  0  0
  -23.3710  -32.0350   23.7480 O   0  0  0  0  0  0  0  0  0  0  0  0
  -22.5680  -29.3670   22.5000 C   0  0  0  0  0  0  0  0  0  0  0  0
  -21.2500  -29.1390   22.3580 N   0  0  0  0  0  0  0  0  0  0  0  0
  -23.2580  -28.7710   23.3310 O   0  0  0  0  0  0  0  0  0  0  0  0
  -20.7490  -29.6730   21.6640 H   0  0  0  0  0  0  0  0  0  0  0  0
  -17.9300  -27.7560   22.7760 C   0  0  0  0  0  0  0  0  0  0  0  0
  -20.4600  -28.1710   23.1220 C   0  0  0  0  0  3  0  0  0  0  0  0
  -20.6620  -26.7360   22.5810 C   0  0  0  0  0  2  0  0  0  0  0  0
  -19.6160  -26.3300   21.5390 C   0  0  0  0  0  2  0  0  0  0  0  0
  -18.2070  -26.4070   22.1350 C   0  0  0  0  0  2  0  0  0  0  0  0
  -18.9880  -28.5910   23.2250 C   0  0  0  0  0  0  0  0  0  0  0  0
  -18.6760  -29.8490   23.7840 C   0  0  0  0  0  3  0  0  0  0  0  0
  -17.3400  -30.2760   23.8980 C   0  0  0  0  0  3  0  0  0  0  0  0
  -16.2960  -29.4390   23.4650 C   0  0  0  0  0  3  0  0  0  0  0  0
  -16.5930  -28.1820   22.9100 C   0  0  0  0  0  3  0  0  0  0  0  0
  -25.7350  -32.4010   23.7890 C   0  0  0  0  0  3  0  0  0  0  0  0
  -26.2470  -31.6460   25.0780 C   0  0  1  0  0  0  0  0  0  0  0  0
  -25.1560  -31.4400   26.1530 C   0  0  0  0  0  1  0  0  0  0  0  0
  -26.8130  -30.2550   24.7110 C   0  0  0  0  0  1  0  0  0  0  0  0
  -27.4080  -32.4400   25.7220 C   0  0  0  0  0  1  0  0  0  0  0  0
  -25.4430  -33.8090   24.0980 N   0  0  0  0  0  0  0  0  0  0  0  0
  -25.7560  -34.8440   23.3080 C   0  0  0  0  0  0  0  0  0  0  0  0
  -26.3870  -34.7160   22.2560 O   0  0  0  0  0  0  0  0  0  0  0  0
  -24.8790  -33.9830   24.9170 H   0  0  0  0  0  0  0  0  0  0  0  0
  -24.0170  -36.6380   22.9960 C   0  0  0  0  0  1  0  0  0  0  0  0
  -25.2940  -36.2460   23.7560 C   0  0  0  0  0  3  0  0  0  0  0  0
  -27.4670  -37.1470   24.4640 C   0  0  0  0  0  1  0  0  0  0  0  0
  -26.3230  -37.2930   23.5680 N   0  0  0  0  0  0  0  0  0  0  0  0
  -25.9250  -38.2170   23.7090 H   0  0  0  0  0  0  0  0  0  0  0  0
  1  3  1  0
  2  4  1  0
  3  7  1  0
  4  9  1  0
  4  3  2  0
  5  2  2  0
  5  6  1  0
  6  1  2  0
  8  7  1  0
  9 11  1  1
  9  8  1  0
 10  5  1  0
 12  9  1  0
 13 18  1  0
 14 15  1  0
 14 13  1  0
 16 15  1  0
 16 23  1  0
 16 17  1  0
 18 12  1  0
 18 17  1  0
 19 12  2  0
 20 21  2  0
 21 40  1  0
 22 21  1  0
 22 25  1  0
 23 24  1  0
 23 20  1  0
 24 22  2  0
 25 26  1  0
 26 27  2  0
 28 31  1  0
 28 27  1  0
 29 28  2  0
 30 29  1  0
 30 25  2  0
 31 32  1  0
 32 33  1  0
 33 34  2  0
 35 34  1  0
 35 39  1  0
 36 35  2  0
 37 32  2  0
 37 36  1  0
 38 37  1  0
 40 41  1  0
 41 43  1  0
 41 44  1  0
 42 40  2  0
 45 20  1  0
 45 46  1  0
 47 45  1  0
 48  6  1  0
 48 49  1  0
 50 49  2  0
 50 51  1  0
 52 63  2  0
 53 51  1  0
 53 58  1  0
 54 62  1  0
 54 64  1  0
 55 61  1  0
 55 57  1  0
 56 62  1  0
 57 56  1  0
 58 57  2  0
 59 60  1  0
 59 53  2  0
 60 55  2  0
 61 54  1  0
 62 52  1  0
 64 66  2  0
 65 64  1  0
 67 65  1  0
 68 77  2  0
 68 73  1  0
 69 65  1  0
 69 73  1  0
 70 69  1  0
 71 72  1  0
 71 70  1  0
 72 68  1  0
 73 74  2  0
 74 75  1  0
 76 75  2  0
 77 76  1  0
 78 52  1  0
 78 83  1  0
 78 79  1  0
 79 82  1  1
 79 80  1  0
 81 79  1  0
 83 86  1  0
 84 88  1  0
 84 83  1  0
 85 84  2  0
 88 87  1  0
 90 91  1  0
 90 88  1  0
 90 89  1  0
M  ISO  4   9 100  12 100  50 101  51 101
M  END
>  <TORSDO>  (58) 
F 19

>  <SCORE>  (58) 
-10.551

>  <name>  (58) 
59

>  <ligand_id>  (58) 
59

>  <original_smiles>  (58) 
[H]c1c([H])c([H])c2c(c1[H])C([H])([H])C([H])([H])C([H])([H])C2([H])N([H])C(=O)C1([H])N(C(=O)C([H])(N([H])C(=O)C([H])(N([H])C([H])([H])[H])C([H])([H])[H])C(C([H])([H])[H])(C([H])([H])[H])C([H])([H])[H])C([H])([H])c2c([H])c(OC([H])([H])C([H])([H])C([H])([H])c3c([H])c4c(c([H])c3C([H])([H])[H])C(C(=O)N3C([H])([H])C([H])([H])C([H])([H])C([H])(n5nc(-c6c([H])c([H])c(Oc7c([H])c([H])c(F)c([H])c7F)c([H])c6[H])c(C(=O)N([H])[H])c5N([H])[H])C3([H])[H])(C([H])([H])[H])C([H])([H])C4([H])[H])c([H])c([H])c2C1([H])[H]

>  <smiles>  (58) 
[H]c1c([H])c([H])c2c(c1[H])C([H])([H])C([H])([H])C([H])([H])C2([H])N([H])C(=O)C1([H])N(C(=O)C([H])(N([H])C(=O)C([H])(N([H])C([H])([H])[H])C([H])([H])[H])C(C([H])([H])[H])(C([H])([H])[H])C([H])([H])[H])C([H])([H])c2c([H])c(OC([H])([H])C([H])([H])C([H])([H])c3c([H])c4c(c([H])c3C([H])([H])[H])C(C(=O)N3C([H])([H])C([H])([H])C([H])([H])C([H])(n5nc(-c6c([H])c([H])c(Oc7c([H])c([H])c(F)c([H])c7F)c([H])c6[H])c(C(=O)N([H])[H])c5N([H])[H])C3([H])[H])(C([H])([H])[H])C([H])([H])C4([H])[H])c([H])c([H])c2C1([H])[H]

$$$$
60:0:0
     RDKit          3D

 94102  0  0  1  0  0  0  0  0999 V2000
  -29.8130  -21.1810   20.0780 C   0  0  0  0  0  0  0  0  0  0  0  0
  -29.0760  -22.2840   19.7050 N   0  0  0  0  0  0  0  0  0  0  0  0
  -30.6990  -21.3020   20.9270 O   0  0  0  0  0  0  0  0  0  0  0  0
  -28.3480  -22.1240   19.0180 H   0  0  0  0  0  0  0  0  0  0  0  0
  -29.5800  -19.7510   19.4070 C   0  0  0  0  0  2  0  0  0  0  0  0
  -30.8650  -15.9600   20.0820 C   0  0  0  0  0  0  0  0  0  0  0  0
  -31.0190  -16.0560   21.4960 C   0  0  0  0  0  0  0  0  0  0  0  0
  -30.3970  -17.1740   19.4130 C   0  0  0  0  0  0  0  0  0  0  0  0
  -30.4700  -17.1550   22.2160 C   0  0  0  0  0  0  0  0  0  0  0  0
  -29.9320  -18.2850   21.5430 C   0  0  0  0  0  0  0  0  0  0  0  0
  -30.0200  -18.3890   20.1280 C   0  0  0  0  0  0  0  0  0  0  0  0
  -31.8320  -15.0180   22.2780 C   0  0  0  0  0  1  0  0  0  0  0  0
  -30.2590  -17.1880   17.8920 C   0  0  0  0  0  1  0  0  0  0  0  0
  -30.5010  -17.1470   23.7510 C   0  0  0  0  0  1  0  0  0  0  0  0
  -29.2600  -19.3930   22.3600 C   0  0  0  0  0  1  0  0  0  0  0  0
  -31.3270  -14.6710   19.3170 C   0  0  0  0  0  0  0  0  0  0  0  0
  -30.7000  -12.5940   18.0800 C   0  0  0  0  0  2  0  0  0  0  0  0
  -29.5930  -12.9120   17.0490 C   0  0  0  0  0  2  0  0  0  0  0  0
  -28.1970  -12.8250   17.6950 C   0  0  0  0  0  2  0  0  0  0  0  0
  -28.1230  -13.5790   19.0470 C   0  0  0  0  0  3  0  0  0  0  0  0
  -29.3170  -13.2270   19.9490 C   0  0  0  0  0  2  0  0  0  0  0  0
  -30.5540  -13.5340   19.2180 N   0  0  0  0  0  0  0  0  0  0  0  0
  -32.3970  -14.7290   18.7000 O   0  0  0  0  0  0  0  0  0  0  0  0
  -25.9440  -14.2880   20.2040 C   0  0  0  0  0  0  0  0  0  0  0  0
  -24.8820  -13.5690   20.6820 C   0  0  0  0  0  0  0  0  0  0  0  0
  -25.2070  -12.1950   20.4690 C   0  0  0  0  0  0  0  0  0  0  0  0
  -26.8510  -13.3550   19.7280 N   0  0  0  0  0  0  0  0  0  0  0  0
  -26.4240  -12.0850   19.9480 N   0  0  0  0  0  0  0  0  0  0  0  0
  -24.4080  -10.9800   20.6740 C   0  0  0  0  0  0  0  0  0  0  0  0
  -24.8390   -9.9460   21.5340 C   0  0  0  0  0  3  0  0  0  0  0  0
  -24.0430   -8.7970   21.7270 C   0  0  0  0  0  3  0  0  0  0  0  0
  -22.7990   -8.6760   21.0640 C   0  0  0  0  0  0  0  0  0  0  0  0
  -22.3850   -9.6980   20.1910 C   0  0  0  0  0  3  0  0  0  0  0  0
  -23.1820  -10.8380   19.9960 C   0  0  0  0  0  3  0  0  0  0  0  0
  -21.9690   -7.5860   21.1750 O   0  0  0  0  0  0  0  0  0  0  0  0
  -21.8730   -6.8710   22.3410 C   0  0  0  0  0  0  0  0  0  0  0  0
  -21.5180   -7.4820   23.5640 C   0  0  0  0  0  3  0  0  0  0  0  0
  -21.3580   -6.6960   24.7220 C   0  0  0  0  0  3  0  0  0  0  0  0
  -21.5490   -5.3020   24.6620 C   0  0  0  0  0  0  0  0  0  0  0  0
  -21.9000   -4.6930   23.4440 C   0  0  0  0  0  3  0  0  0  0  0  0
  -22.0570   -5.4740   22.2880 C   0  0  0  0  0  0  0  0  0  0  0  0
  -22.3720   -4.8780   21.1120 F   0  0  0  0  0  0  0  0  0  0  0  0
  -21.3890   -4.5480   25.7730 F   0  0  0  0  0  0  0  0  0  0  0  0
  -23.5940  -14.1240   21.2160 C   0  0  0  0  0  0  0  0  0  0  0  0
  -23.0030  -13.4580   22.2020 N   0  0  0  0  0  0  0  0  0  0  0  0
  -23.1260  -15.1800   20.7910 O   0  0  0  0  0  0  0  0  0  0  0  0
  -23.3960  -12.5990   22.5600 H   0  0  0  0  0  0  0  0  0  0  0  0
  -22.1420  -13.8050   22.6000 H   0  0  0  0  0  0  0  0  0  0  0  0
  -26.2110  -15.6520   20.1130 N   0  0  0  0  0  0  0  0  0  0  0  0
  -25.5620  -16.3600   20.4330 H   0  0  0  0  0  0  0  0  0  0  0  0
  -27.0770  -16.0430   19.7610 H   0  0  0  0  0  0  0  0  0  0  0  0
  -29.2430  -23.7250   20.1590 C   0  0  0  0  0  3  0  0  0  0  0  0
  -28.1920  -24.8070   19.6180 C   0  0  0  0  0  3  0  0  0  0  0  0
  -28.4010  -26.2780   19.8000 O   0  0  0  0  0  0  0  0  0  0  0  0
  -24.6070  -31.6070   22.9050 C   0  0  0  0  0  0  0  0  0  0  0  0
  -27.2790  -27.1320   19.7540 C   0  0  0  0  0  0  0  0  0  0  0  0
  -23.4150  -30.2020   21.2630 C   0  0  0  0  0  3  0  0  0  0  0  0
  -24.8810  -28.7060   19.7960 C   0  0  0  0  0  0  0  0  0  0  0  0
  -25.9490  -30.5740   21.0560 C   0  0  0  0  0  2  0  0  0  0  0  0
  -26.0500  -29.2060   20.3870 C   0  0  0  0  0  0  0  0  0  0  0  0
  -27.2500  -28.4300   20.3570 C   0  0  0  0  0  3  0  0  0  0  0  0
  -26.0850  -26.7010   19.1280 C   0  0  0  0  0  3  0  0  0  0  0  0
  -24.9020  -27.4580   19.1610 C   0  0  0  0  0  3  0  0  0  0  0  0
  -23.6260  -29.5550   19.8720 C   0  0  0  0  0  2  0  0  0  0  0  0
  -24.6760  -30.8140   21.7950 N   0  0  0  0  0  0  0  0  0  0  0  0
  -23.5250  -31.8510   23.4570 O   0  0  0  0  0  0  0  0  0  0  0  0
  -22.7900  -29.1540   22.2160 C   0  0  0  0  0  0  0  0  0  0  0  0
  -21.4620  -28.9700   22.1240 N   0  0  0  0  0  0  0  0  0  0  0  0
  -23.4980  -28.5150   22.9970 O   0  0  0  0  0  0  0  0  0  0  0  0
  -20.9530  -29.5320   21.4550 H   0  0  0  0  0  0  0  0  0  0  0  0
  -18.1100  -27.7570   22.7280 C   0  0  0  0  0  0  0  0  0  0  0  0
  -20.6740  -28.0150   22.9070 C   0  0  0  0  0  3  0  0  0  0  0  0
  -20.7520  -26.5960   22.2990 C   0  0  0  0  0  2  0  0  0  0  0  0
  -19.6180  -26.3020   21.3090 C   0  0  0  0  0  2  0  0  0  0  0  0
  -18.2590  -26.4300   22.0040 C   0  0  0  0  0  2  0  0  0  0  0  0
  -19.2430  -28.5100   23.1360 C   0  0  0  0  0  0  0  0  0  0  0  0
  -19.0450  -29.7530   23.7720 C   0  0  0  0  0  3  0  0  0  0  0  0
  -17.7480  -30.2470   24.0030 C   0  0  0  0  0  3  0  0  0  0  0  0
  -16.6310  -29.4920   23.6090 C   0  0  0  0  0  3  0  0  0  0  0  0
  -16.8120  -28.2490   22.9780 C   0  0  0  0  0  3  0  0  0  0  0  0
  -25.8820  -32.2620   23.5190 C   0  0  0  0  0  3  0  0  0  0  0  0
  -26.4830  -31.4430   24.7260 C   0  0  1  0  0  0  0  0  0  0  0  0
  -25.4410  -31.0750   25.8070 C   0  0  0  0  0  1  0  0  0  0  0  0
  -27.1260  -30.1260   24.2310 C   0  0  0  0  0  1  0  0  0  0  0  0
  -27.6120  -32.2560   25.4020 C   0  0  0  0  0  1  0  0  0  0  0  0
  -25.5180  -33.6200   23.9490 N   0  0  0  0  0  0  0  0  0  0  0  0
  -25.8040  -34.7390   23.2680 C   0  0  0  0  0  0  0  0  0  0  0  0
  -26.4730  -34.7360   22.2310 O   0  0  0  0  0  0  0  0  0  0  0  0
  -24.9210  -33.6930   24.7600 H   0  0  0  0  0  0  0  0  0  0  0  0
  -24.0010  -36.4790   23.0490 C   0  0  0  0  0  1  0  0  0  0  0  0
  -25.2650  -36.0700   23.8240 C   0  0  0  0  0  3  0  0  0  0  0  0
  -27.3690  -36.9810   24.7040 C   0  0  0  0  0  1  0  0  0  0  0  0
  -26.2540  -37.1710   23.7800 N   0  0  0  0  0  0  0  0  0  0  0  0
  -25.8120  -38.0620   23.9910 H   0  0  0  0  0  0  0  0  0  0  0  0
  1  3  2  0
  2  1  1  0
  2 52  1  0
  4  2  1  0
  5  1  1  0
  5 11  1  0
  6  7  1  0
  7  9  2  0
  7 12  1  0
  8  6  2  0
  8 11  1  0
  9 14  1  0
 10  9  1  0
 10 15  1  0
 11 10  2  0
 13  8  1  0
 16  6  1  0
 17 22  1  0
 18 19  1  0
 18 17  1  0
 20 19  1  0
 20 27  1  0
 20 21  1  0
 22 16  1  0
 22 21  1  0
 23 16  2  0
 24 25  2  0
 25 44  1  0
 26 29  1  0
 26 25  1  0
 27 28  1  0
 27 24  1  0
 28 26  2  0
 29 30  1  0
 30 31  2  0
 32 35  1  0
 32 31  1  0
 33 32  2  0
 34 33  1  0
 34 29  2  0
 35 36  1  0
 36 37  1  0
 37 38  2  0
 39 38  1  0
 39 43  1  0
 40 39  2  0
 41 36  2  0
 41 40  1  0
 42 41  1  0
 44 45  1  0
 45 47  1  0
 45 48  1  0
 46 44  2  0
 49 24  1  0
 49 50  1  0
 51 49  1  0
 53 54  1  0
 53 52  2  0
 55 66  2  0
 56 54  1  0
 56 61  1  0
 57 65  1  0
 57 67  1  0
 58 64  1  0
 58 60  1  0
 59 65  1  0
 60 59  1  0
 61 60  2  0
 62 63  1  0
 62 56  2  0
 63 58  2  0
 64 57  1  0
 65 55  1  0
 67 69  2  0
 68 67  1  0
 70 68  1  0
 71 80  2  0
 71 76  1  0
 72 68  1  0
 72 76  1  0
 73 72  1  0
 74 75  1  0
 74 73  1  0
 75 71  1  0
 76 77  2  0
 77 78  1  0
 79 78  2  0
 80 79  1  0
 81 55  1  0
 81 86  1  0
 81 82  1  0
 82 85  1  1
 82 83  1  0
 84 82  1  0
 86 89  1  0
 87 91  1  0
 87 86  1  0
 88 87  2  0
 91 90  1  0
 93 91  1  0
 93 94  1  0
 93 92  1  0
M  ISO  4   6 100  16 100  53 101  54 101
M  END
>  <TORSDO>  (59) 
F 20

>  <SCORE>  (59) 
-6.597

>  <name>  (59) 
60

>  <ligand_id>  (59) 
60

>  <original_smiles>  (59) 
[H]c1c([H])c([H])c2c(c1[H])C([H])([H])C([H])([H])C([H])([H])C2([H])N([H])C(=O)C1([H])N(C(=O)C([H])(N([H])C(=O)C([H])(N([H])C([H])([H])[H])C([H])([H])[H])C(C([H])([H])[H])(C([H])([H])[H])C([H])([H])[H])C([H])([H])c2c([H])c(OC([H])([H])C([H])([H])N([H])C(=O)C([H])([H])c3c(C([H])([H])[H])c(C(=O)N4C([H])([H])C([H])([H])C([H])([H])C([H])(n5nc(-c6c([H])c([H])c(Oc7c([H])c([H])c(F)c([H])c7F)c([H])c6[H])c(C(=O)N([H])[H])c5N([H])[H])C4([H])[H])c(C([H])([H])[H])c(C([H])([H])[H])c3C([H])([H])[H])c([H])c([H])c2C1([H])[H]

>  <smiles>  (59) 
[H]c1c([H])c([H])c2c(c1[H])C([H])([H])C([H])([H])C([H])([H])C2([H])N([H])C(=O)C1([H])N(C(=O)C([H])(N([H])C(=O)C([H])(N([H])C([H])([H])[H])C([H])([H])[H])C(C([H])([H])[H])(C([H])([H])[H])C([H])([H])[H])C([H])([H])c2c([H])c(OC([H])([H])C([H])([H])N([H])C(=O)C([H])([H])c3c(C([H])([H])[H])c(C(=O)N4C([H])([H])C([H])([H])C([H])([H])C([H])(n5nc(-c6c([H])c([H])c(Oc7c([H])c([H])c(F)c([H])c7F)c([H])c6[H])c(C(=O)N([H])[H])c5N([H])[H])C4([H])[H])c(C([H])([H])[H])c(C([H])([H])[H])c3C([H])([H])[H])c([H])c([H])c2C1([H])[H]

$$$$
61:0:0
     RDKit          3D

 90 98  0  0  1  0  0  0  0  0999 V2000
  -28.5350  -21.9450   20.2290 N   0  0  0  0  0  4  0  0  0  0  0  0
  -27.8940  -21.8390   21.0000 H   0  0  0  0  0  0  0  0  0  0  0  0
  -27.9750  -21.8330   19.3980 H   0  0  0  0  0  0  0  0  0  0  0  0
  -30.1120  -20.1870   18.9720 C   0  0  0  0  0  2  0  0  0  0  0  0
  -30.3080  -18.6110   18.9880 C   0  0  0  0  0  2  0  0  0  0  0  0
  -29.0010  -19.2160   20.8200 C   0  0  0  0  0  2  0  0  0  0  0  0
  -29.4950  -20.6850   20.3100 C   0  0  0  0  0  3  0  0  0  0  0  0
  -30.0320  -18.0100   20.3970 C   0  0  2  0  0  0  0  0  0  0  0  0
  -31.1660  -17.8330   22.7410 C   0  0  0  0  0  1  0  0  0  0  0  0
  -31.3280  -18.1410   21.2420 C   0  0  0  0  0  2  0  0  0  0  0  0
  -29.5610  -16.3820   20.4300 C   0  0  0  0  0  2  0  0  0  0  0  0
  -30.4360  -15.0100   20.0870 C   0  0  0  0  0  0  0  0  0  0  0  0
  -30.3150  -12.6840   19.0850 C   0  0  0  0  0  2  0  0  0  0  0  0
  -29.3240  -12.6960   17.8950 C   0  0  0  0  0  2  0  0  0  0  0  0
  -27.8790  -12.4670   18.3800 C   0  0  0  0  0  2  0  0  0  0  0  0
  -27.5230  -13.3490   19.6040 C   0  0  0  0  0  3  0  0  0  0  0  0
  -28.6260  -13.3110   20.6830 C   0  0  0  0  0  2  0  0  0  0  0  0
  -29.8830  -13.7320   20.0510 N   0  0  0  0  0  0  0  0  0  0  0  0
  -31.6080  -15.1150   19.7090 O   0  0  0  0  0  0  0  0  0  0  0  0
  -25.1690  -13.8940   20.4530 C   0  0  0  0  0  0  0  0  0  0  0  0
  -24.1270  -13.1010   20.8520 C   0  0  0  0  0  0  0  0  0  0  0  0
  -24.6020  -11.7560   20.7760 C   0  0  0  0  0  0  0  0  0  0  0  0
  -26.2080  -13.0300   20.1510 N   0  0  0  0  0  0  0  0  0  0  0  0
  -25.8790  -11.7370   20.4110 N   0  0  0  0  0  0  0  0  0  0  0  0
  -23.8960  -10.4830   20.9730 C   0  0  0  0  0  0  0  0  0  0  0  0
  -24.3470   -9.5240   21.9060 C   0  0  0  0  0  3  0  0  0  0  0  0
  -23.6380   -8.3170   22.0900 C   0  0  0  0  0  3  0  0  0  0  0  0
  -22.4650   -8.0600   21.3400 C   0  0  0  0  0  0  0  0  0  0  0  0
  -22.0340   -9.0100   20.3970 C   0  0  0  0  0  3  0  0  0  0  0  0
  -22.7430  -10.2070   20.2110 C   0  0  0  0  0  3  0  0  0  0  0  0
  -21.7270   -6.9060   21.4330 O   0  0  0  0  0  0  0  0  0  0  0  0
  -21.6620   -6.1850   22.5990 C   0  0  0  0  0  0  0  0  0  0  0  0
  -21.1690   -6.7470   23.7960 C   0  0  0  0  0  3  0  0  0  0  0  0
  -21.0530   -5.9520   24.9540 C   0  0  0  0  0  3  0  0  0  0  0  0
  -21.4220   -4.5940   24.9140 C   0  0  0  0  0  0  0  0  0  0  0  0
  -21.9080   -4.0300   23.7220 C   0  0  0  0  0  3  0  0  0  0  0  0
  -22.0240   -4.8230   22.5660 C   0  0  0  0  0  0  0  0  0  0  0  0
  -22.4730   -4.2690   21.4140 F   0  0  0  0  0  0  0  0  0  0  0  0
  -21.3050   -3.8260   26.0230 F   0  0  0  0  0  0  0  0  0  0  0  0
  -22.7380  -13.5600   21.1890 C   0  0  0  0  0  0  0  0  0  0  0  0
  -22.0540  -12.8450   22.0740 N   0  0  0  0  0  0  0  0  0  0  0  0
  -22.2690  -14.5880   20.7020 O   0  0  0  0  0  0  0  0  0  0  0  0
  -22.4480  -12.0120   22.4900 H   0  0  0  0  0  0  0  0  0  0  0  0
  -21.1240  -13.1330   22.3430 H   0  0  0  0  0  0  0  0  0  0  0  0
  -25.3140  -15.2690   20.2970 N   0  0  0  0  0  0  0  0  0  0  0  0
  -24.5480  -15.9140   20.4570 H   0  0  0  0  0  0  0  0  0  0  0  0
  -26.1500  -15.7230   19.9530 H   0  0  0  0  0  0  0  0  0  0  0  0
  -29.0050  -23.4580   20.2950 C   0  0  0  0  0  3  0  0  0  0  0  0
  -27.9390  -24.7430   20.0940 C   0  0  0  0  0  3  0  0  0  0  0  0
  -28.2170  -26.2670   20.2530 O   0  0  0  0  0  0  0  0  0  0  0  0
  -24.6080  -31.9330   23.2710 C   0  0  0  0  0  0  0  0  0  0  0  0
  -27.1550  -27.2400   20.1990 C   0  0  0  0  0  0  0  0  0  0  0  0
  -23.3940  -30.5570   21.6260 C   0  0  0  0  0  3  0  0  0  0  0  0
  -24.8300  -28.9860   20.1870 C   0  0  0  0  0  0  0  0  0  0  0  0
  -25.9490  -30.8120   21.4560 C   0  0  0  0  0  2  0  0  0  0  0  0
  -26.0140  -29.4260   20.7940 C   0  0  0  0  0  0  0  0  0  0  0  0
  -27.1770  -28.5700   20.7810 C   0  0  0  0  0  3  0  0  0  0  0  0
  -25.9430  -26.8990   19.5570 C   0  0  0  0  0  3  0  0  0  0  0  0
  -24.8080  -27.7370   19.5530 C   0  0  0  0  0  3  0  0  0  0  0  0
  -23.6080  -29.8880   20.2430 C   0  0  0  0  0  2  0  0  0  0  0  0
  -24.6710  -31.1210   22.1720 N   0  0  0  0  0  0  0  0  0  0  0  0
  -23.5250  -32.2210   23.8040 O   0  0  0  0  0  0  0  0  0  0  0  0
  -22.7140  -29.5460   22.5820 C   0  0  0  0  0  0  0  0  0  0  0  0
  -21.3870  -29.3750   22.4480 N   0  0  0  0  0  0  0  0  0  0  0  0
  -23.3820  -28.9190   23.4090 O   0  0  0  0  0  0  0  0  0  0  0  0
  -20.9060  -29.9300   21.7560 H   0  0  0  0  0  0  0  0  0  0  0  0
  -18.0030  -28.1720   22.9280 C   0  0  0  0  0  0  0  0  0  0  0  0
  -20.5610  -28.4350   23.2130 C   0  0  0  0  0  3  0  0  0  0  0  0
  -20.6660  -27.0040   22.6380 C   0  0  0  0  0  2  0  0  0  0  0  0
  -19.5710  -26.6810   21.6160 C   0  0  0  0  0  2  0  0  0  0  0  0
  -18.1860  -26.8240   22.2510 C   0  0  0  0  0  2  0  0  0  0  0  0
  -19.1190  -28.9360   23.3650 C   0  0  0  0  0  0  0  0  0  0  0  0
  -18.8940  -30.1970   23.9590 C   0  0  0  0  0  3  0  0  0  0  0  0
  -17.5870  -30.6950   24.1200 C   0  0  0  0  0  3  0  0  0  0  0  0
  -16.4870  -29.9280   23.6990 C   0  0  0  0  0  3  0  0  0  0  0  0
  -16.6960  -28.6700   23.1080 C   0  0  0  0  0  3  0  0  0  0  0  0
  -25.8920  -32.5560   23.9000 C   0  0  0  0  0  3  0  0  0  0  0  0
  -25.5930  -33.9570   24.2330 N   0  0  0  0  0  0  0  0  0  0  0  0
  -25.9060  -35.0090   23.4640 C   0  0  0  0  0  0  0  0  0  0  0  0
  -26.5440  -34.9020   22.4140 O   0  0  0  0  0  0  0  0  0  0  0  0
  -25.0250  -34.1160   25.0520 H   0  0  0  0  0  0  0  0  0  0  0  0
  -24.1580  -36.7980   23.1810 C   0  0  0  0  0  1  0  0  0  0  0  0
  -25.4380  -36.4010   23.9350 C   0  0  0  0  0  3  0  0  0  0  0  0
  -27.6050  -37.3020   24.6600 C   0  0  0  0  0  1  0  0  0  0  0  0
  -26.4610  -37.4560   23.7650 N   0  0  0  0  0  0  0  0  0  0  0  0
  -26.0590  -38.3770   23.9220 H   0  0  0  0  0  0  0  0  0  0  0  0
  -26.3930  -31.7830   25.1820 C   0  0  1  0  0  0  0  0  0  0  0  0
  -25.2890  -31.5580   26.2430 C   0  0  0  0  0  1  0  0  0  0  0  0
  -26.9670  -30.3980   24.7990 C   0  0  0  0  0  1  0  0  0  0  0  0
  -27.5470  -32.5670   25.8480 C   0  0  0  0  0  1  0  0  0  0  0  0
  1 48  1  0
  1  2  1  0
  3  1  1  0
  4  5  1  0
  4  7  1  0
  5  8  1  0
  7  1  1  0
  7  6  1  0
  8 11  1  6
  8  6  1  0
  8 10  1  0
 10  9  1  0
 12 11  1  0
 13 18  1  0
 14 15  1  0
 14 13  1  0
 16 15  1  0
 16 23  1  0
 16 17  1  0
 18 12  1  0
 18 17  1  0
 19 12  2  0
 20 21  2  0
 21 40  1  0
 22 21  1  0
 22 25  1  0
 23 24  1  0
 23 20  1  0
 24 22  2  0
 25 26  1  0
 26 27  2  0
 28 31  1  0
 28 27  1  0
 29 28  2  0
 30 29  1  0
 30 25  2  0
 31 32  1  0
 32 33  1  0
 33 34  2  0
 35 34  1  0
 35 39  1  0
 36 35  2  0
 37 32  2  0
 37 36  1  0
 38 37  1  0
 40 41  1  0
 41 44  1  0
 41 43  1  0
 42 40  2  0
 45 20  1  0
 45 46  1  0
 47 45  1  0
 49 50  1  0
 49 48  2  0
 51 62  2  0
 52 50  1  0
 52 57  1  0
 53 61  1  0
 53 63  1  0
 54 60  1  0
 54 56  1  0
 55 61  1  0
 56 55  1  0
 57 56  2  0
 58 52  2  0
 59 58  1  0
 59 54  2  0
 60 53  1  0
 61 51  1  0
 63 65  2  0
 64 63  1  0
 66 64  1  0
 67 76  2  0
 67 72  1  0
 68 64  1  0
 68 72  1  0
 69 68  1  0
 70 71  1  0
 70 69  1  0
 71 67  1  0
 72 73  2  0
 73 74  1  0
 75 74  2  0
 76 75  1  0
 77 51  1  0
 77 78  1  0
 77 87  1  0
 78 81  1  0
 79 83  1  0
 79 78  1  0
 80 79  2  0
 83 82  1  0
 85 86  1  0
 85 83  1  0
 85 84  1  0
 87 90  1  1
 87 88  1  0
 89 87  1  0
M  ISO  4  11 100  12 100  49 101  50 101
M  END
>  <TORSDO>  (60) 
F 21

>  <SCORE>  (60) 
-13.673

>  <name>  (60) 
61

>  <ligand_id>  (60) 
61

>  <original_smiles>  (60) 
[H]c1c([H])c([H])c2c(c1[H])C([H])([H])C([H])([H])C([H])([H])C2([H])N([H])C(=O)C1([H])N(C(=O)C([H])(N([H])C(=O)C([H])(N([H])C([H])([H])[H])C([H])([H])[H])C(C([H])([H])[H])(C([H])([H])[H])C([H])([H])[H])C([H])([H])c2c([H])c(OC([H])([H])C([H])([H])[N+]([H])([H])C3([H])C([H])([H])C([H])([H])C(C([H])([H])C(=O)N4C([H])([H])C([H])([H])C([H])([H])C([H])(n5nc(-c6c([H])c([H])c(Oc7c([H])c([H])c(F)c([H])c7F)c([H])c6[H])c(C(=O)N([H])[H])c5N([H])[H])C4([H])[H])(C([H])([H])C([H])([H])[H])C3([H])[H])c([H])c([H])c2C1([H])[H]

>  <smiles>  (60) 
[H]c1c([H])c([H])c2c(c1[H])C([H])([H])C([H])([H])C([H])([H])C2([H])N([H])C(=O)C1([H])N(C(=O)C([H])(N([H])C(=O)C([H])(N([H])C([H])([H])[H])C([H])([H])[H])C(C([H])([H])[H])(C([H])([H])[H])C([H])([H])[H])C([H])([H])c2c([H])c(OC([H])([H])C([H])([H])[N+]([H])([H])C3([H])C([H])([H])C([H])([H])C(C([H])([H])C(=O)N4C([H])([H])C([H])([H])C([H])([H])C([H])(n5nc(-c6c([H])c([H])c(Oc7c([H])c([H])c(F)c([H])c7F)c([H])c6[H])c(C(=O)N([H])[H])c5N([H])[H])C4([H])[H])(C([H])([H])C([H])([H])[H])C3([H])[H])c([H])c([H])c2C1([H])[H]

$$$$
62:0:0
     RDKit          3D

 95103  0  0  1  0  0  0  0  0999 V2000
  -30.0090  -24.3060   21.4110 C   0  0  0  0  0  3  0  0  0  0  0  0
  -31.1140  -23.4390   21.1130 C   0  0  0  0  0  0  0  0  0  0  0  0
  -30.1560  -25.5880   20.9430 C   0  0  0  0  0  0  0  0  0  0  0  0
  -32.1080  -24.1040   20.4270 C   0  0  0  0  0  0  0  0  0  0  0  0
  -33.4330  -23.5920   19.9510 C   0  0  0  0  0  1  0  0  0  0  0  0
  -31.6820  -25.7710   20.1300 S   0  0  0  0  0  0  0  0  0  0  0  0
  -31.4150  -21.8040   23.0160 C   0  0  0  0  0  1  0  0  0  0  0  0
  -31.1790  -21.9750   21.5040 C   0  0  0  0  0  3  0  0  0  0  0  0
  -29.9420  -21.2940   21.0620 N   0  0  0  0  0  4  0  0  0  0  0  0
  -29.2780  -21.2480   21.8180 H   0  0  0  0  0  0  0  0  0  0  0  0
  -29.5440  -21.8950   20.3590 H   0  0  0  0  0  0  0  0  0  0  0  0
  -30.0760  -19.9650   20.4230 C   0  0  0  0  0  2  0  0  0  0  0  0
  -30.6660  -18.8710   21.3370 C   0  0  0  0  0  2  0  0  0  0  0  0
  -30.3350  -17.4650   20.8180 C   0  0  0  0  0  2  0  0  0  0  0  0
  -31.0260  -16.3400   21.6030 C   0  0  0  0  0  2  0  0  0  0  0  0
  -30.8280  -14.2970   20.1860 C   0  0  0  0  0  0  0  0  0  0  0  0
  -30.3650  -12.2440   18.9030 C   0  0  0  0  0  2  0  0  0  0  0  0
  -29.3680  -12.5120   17.7590 C   0  0  0  0  0  2  0  0  0  0  0  0
  -27.9170  -12.3840   18.2650 C   0  0  0  0  0  2  0  0  0  0  0  0
  -27.6650  -13.2020   19.5580 C   0  0  0  0  0  3  0  0  0  0  0  0
  -28.7590  -12.9190   20.6110 C   0  0  0  0  0  2  0  0  0  0  0  0
  -30.0780  -13.1810   20.0000 N   0  0  0  0  0  0  0  0  0  0  0  0
  -31.7950  -14.6000   19.4830 O   0  0  0  0  0  0  0  0  0  0  0  0
  -30.4600  -15.0480   21.2320 N   0  0  0  0  0  0  0  0  0  0  0  0
  -29.6870  -14.7070   21.7820 H   0  0  0  0  0  0  0  0  0  0  0  0
  -25.3110  -13.8500   20.3910 C   0  0  0  0  0  0  0  0  0  0  0  0
  -24.2460  -13.0930   20.8020 C   0  0  0  0  0  0  0  0  0  0  0  0
  -24.6780  -11.7350   20.7260 C   0  0  0  0  0  0  0  0  0  0  0  0
  -26.3260  -12.9530   20.0920 N   0  0  0  0  0  0  0  0  0  0  0  0
  -25.9480  -11.6730   20.3470 N   0  0  0  0  0  0  0  0  0  0  0  0
  -23.9390  -10.4830   20.9350 C   0  0  0  0  0  0  0  0  0  0  0  0
  -24.3740   -9.5130   21.8660 C   0  0  0  0  0  3  0  0  0  0  0  0
  -23.6310   -8.3280   22.0600 C   0  0  0  0  0  3  0  0  0  0  0  0
  -22.4430   -8.1050   21.3260 C   0  0  0  0  0  0  0  0  0  0  0  0
  -22.0270   -9.0650   20.3850 C   0  0  0  0  0  3  0  0  0  0  0  0
  -22.7690  -10.2420   20.1880 C   0  0  0  0  0  3  0  0  0  0  0  0
  -21.6740   -6.9710   21.4290 O   0  0  0  0  0  0  0  0  0  0  0  0
  -21.6090   -6.2510   22.5950 C   0  0  0  0  0  0  0  0  0  0  0  0
  -21.1800   -6.8350   23.8070 C   0  0  0  0  0  3  0  0  0  0  0  0
  -21.0560   -6.0430   24.9660 C   0  0  0  0  0  3  0  0  0  0  0  0
  -21.3540   -4.6680   24.9140 C   0  0  0  0  0  0  0  0  0  0  0  0
  -21.7780   -4.0830   23.7060 C   0  0  0  0  0  3  0  0  0  0  0  0
  -21.9020   -4.8730   22.5490 C   0  0  0  0  0  0  0  0  0  0  0  0
  -22.2890   -4.3010   21.3840 F   0  0  0  0  0  0  0  0  0  0  0  0
  -21.2330   -3.9050   26.0240 F   0  0  0  0  0  0  0  0  0  0  0  0
  -22.8760  -13.5970   21.1600 C   0  0  0  0  0  0  0  0  0  0  0  0
  -22.1740  -12.9020   22.0480 N   0  0  0  0  0  0  0  0  0  0  0  0
  -22.4380  -14.6450   20.6840 O   0  0  0  0  0  0  0  0  0  0  0  0
  -22.5390  -12.0580   22.4630 H   0  0  0  0  0  0  0  0  0  0  0  0
  -21.2550  -13.2250   22.3190 H   0  0  0  0  0  0  0  0  0  0  0  0
  -25.4960  -15.2190   20.2320 N   0  0  0  0  0  0  0  0  0  0  0  0
  -24.7550  -15.8900   20.4090 H   0  0  0  0  0  0  0  0  0  0  0  0
  -26.3390  -15.6480   19.8700 H   0  0  0  0  0  0  0  0  0  0  0  0
  -29.2100  -26.7470   21.0750 C   0  0  0  0  0  2  0  0  0  0  0  0
  -28.2880  -26.6610   19.9900 O   0  0  0  0  0  0  0  0  0  0  0  0
  -24.5590  -31.8240   23.2390 C   0  0  0  0  0  0  0  0  0  0  0  0
  -27.1620  -27.4510   20.0530 C   0  0  0  0  0  0  0  0  0  0  0  0
  -23.3250  -30.4650   21.5760 C   0  0  0  0  0  3  0  0  0  0  0  0
  -24.7600  -28.9450   20.1090 C   0  0  0  0  0  0  0  0  0  0  0  0
  -25.8460  -30.8170   21.3640 C   0  0  0  0  0  2  0  0  0  0  0  0
  -25.9180  -29.4590   20.7020 C   0  0  0  0  0  0  0  0  0  0  0  0
  -27.1190  -28.7180   20.6830 C   0  0  0  0  0  3  0  0  0  0  0  0
  -25.9870  -26.9510   19.4490 C   0  0  0  0  0  3  0  0  0  0  0  0
  -24.7860  -27.6860   19.4820 C   0  0  0  0  0  3  0  0  0  0  0  0
  -23.5150  -29.8050   20.1830 C   0  0  0  0  0  2  0  0  0  0  0  0
  -24.5940  -31.0490   22.1190 N   0  0  0  0  0  0  0  0  0  0  0  0
  -23.4860  -32.0930   23.7980 O   0  0  0  0  0  0  0  0  0  0  0  0
  -22.6750  -29.4310   22.5230 C   0  0  0  0  0  0  0  0  0  0  0  0
  -21.3570  -29.2250   22.3690 N   0  0  0  0  0  0  0  0  0  0  0  0
  -23.3550  -28.8170   23.3490 O   0  0  0  0  0  0  0  0  0  0  0  0
  -20.8700  -29.7750   21.6740 H   0  0  0  0  0  0  0  0  0  0  0  0
  -18.0090  -27.9240   22.7460 C   0  0  0  0  0  0  0  0  0  0  0  0
  -20.5430  -28.2720   23.1200 C   0  0  0  0  0  3  0  0  0  0  0  0
  -20.7160  -26.8360   22.5700 C   0  0  0  0  0  2  0  0  0  0  0  0
  -19.6690  -26.4620   21.5170 C   0  0  0  0  0  2  0  0  0  0  0  0
  -18.2580  -26.5710   22.1000 C   0  0  0  0  0  2  0  0  0  0  0  0
  -19.0810  -28.7280   23.2100 C   0  0  0  0  0  0  0  0  0  0  0  0
  -18.7980  -29.9940   23.7690 C   0  0  0  0  0  3  0  0  0  0  0  0
  -17.4710  -30.4520   23.8740 C   0  0  0  0  0  3  0  0  0  0  0  0
  -16.4120  -29.6450   23.4280 C   0  0  0  0  0  3  0  0  0  0  0  0
  -16.6810  -28.3830   22.8690 C   0  0  0  0  0  3  0  0  0  0  0  0
  -25.8600  -32.4290   23.8590 C   0  0  0  0  0  3  0  0  0  0  0  0
  -25.5700  -33.8240   24.2160 N   0  0  0  0  0  0  0  0  0  0  0  0
  -25.8850  -34.8830   23.4580 C   0  0  0  0  0  0  0  0  0  0  0  0
  -26.5240  -34.7880   22.4060 O   0  0  0  0  0  0  0  0  0  0  0  0
  -25.0040  -33.9730   25.0370 H   0  0  0  0  0  0  0  0  0  0  0  0
  -24.1450  -36.6770   23.1870 C   0  0  0  0  0  1  0  0  0  0  0  0
  -25.4180  -36.2680   23.9440 C   0  0  0  0  0  3  0  0  0  0  0  0
  -27.5850  -37.1440   24.6960 C   0  0  0  0  0  1  0  0  0  0  0  0
  -26.4480  -37.3210   23.7970 N   0  0  0  0  0  0  0  0  0  0  0  0
  -26.0490  -38.2400   23.9660 H   0  0  0  0  0  0  0  0  0  0  0  0
  -26.3860  -31.6280   25.1130 C   0  0  1  0  0  0  0  0  0  0  0  0
  -25.3040  -31.3780   26.1880 C   0  0  0  0  0  1  0  0  0  0  0  0
  -26.9550  -30.2550   24.6880 C   0  0  0  0  0  1  0  0  0  0  0  0
  -27.5510  -32.4000   25.7760 C   0  0  0  0  0  1  0  0  0  0  0  0
  2  1  1  0
  2  8  1  0
  3 54  1  0
  3  1  2  0
  4  2  2  0
  5  4  1  0
  6  4  1  0
  6  3  1  0
  8  7  1  0
  9  8  1  0
  9 10  1  0
 11  9  1  0
 12  9  1  0
 12 13  1  0
 14 13  1  0
 14 15  1  0
 16 24  1  0
 17 22  1  0
 18 19  1  0
 18 17  1  0
 20 19  1  0
 20 29  1  0
 20 21  1  0
 22 16  1  0
 22 21  1  0
 23 16  2  0
 24 15  1  0
 24 25  1  0
 26 27  2  0
 27 46  1  0
 28 27  1  0
 28 31  1  0
 29 30  1  0
 29 26  1  0
 30 28  2  0
 31 32  1  0
 32 33  2  0
 34 37  1  0
 34 33  1  0
 35 34  2  0
 36 35  1  0
 36 31  2  0
 37 38  1  0
 38 39  1  0
 39 40  2  0
 41 40  1  0
 41 45  1  0
 42 41  2  0
 43 38  2  0
 43 42  1  0
 44 43  1  0
 46 47  1  0
 47 50  1  0
 47 49  1  0
 48 46  2  0
 51 26  1  0
 51 52  1  0
 53 51  1  0
 55 57  1  0
 55 54  1  0
 56 67  2  0
 57 62  1  0
 58 66  1  0
 58 68  1  0
 59 65  1  0
 59 61  1  0
 60 66  1  0
 61 60  1  0
 62 61  2  0
 63 64  1  0
 63 57  2  0
 64 59  2  0
 65 58  1  0
 66 56  1  0
 68 70  2  0
 69 68  1  0
 71 69  1  0
 72 81  2  0
 72 77  1  0
 73 69  1  0
 73 77  1  0
 74 73  1  0
 75 76  1  0
 75 74  1  0
 76 72  1  0
 77 78  2  0
 78 79  1  0
 80 79  2  0
 81 80  1  0
 82 56  1  0
 82 83  1  0
 82 92  1  0
 83 86  1  0
 84 88  1  0
 84 83  1  0
 85 84  2  0
 88 87  1  0
 90 88  1  0
 90 91  1  0
 90 89  1  0
 92 95  1  1
 92 93  1  0
 94 92  1  0
M  ISO  4  16 100  24 100  54 101  55 101
M  END
>  <TORSDO>  (61) 
F 23

>  <SCORE>  (61) 
-12.486

>  <name>  (61) 
62

>  <ligand_id>  (61) 
62

>  <original_smiles>  (61) 
[H]c1c([H])c([H])c2c(c1[H])C([H])([H])C([H])([H])C([H])([H])C2([H])N([H])C(=O)C1([H])N(C(=O)C([H])(N([H])C(=O)C([H])(N([H])C([H])([H])[H])C([H])([H])[H])C(C([H])([H])[H])(C([H])([H])[H])C([H])([H])[H])C([H])([H])c2c([H])c(OC([H])([H])c3sc(C([H])([H])[H])c(C([H])(C([H])([H])[H])[N+]([H])([H])C([H])([H])C([H])([H])C([H])([H])C([H])([H])N([H])C(=O)N4C([H])([H])C([H])([H])C([H])([H])C([H])(n5nc(-c6c([H])c([H])c(Oc7c([H])c([H])c(F)c([H])c7F)c([H])c6[H])c(C(=O)N([H])[H])c5N([H])[H])C4([H])[H])c3[H])c([H])c([H])c2C1([H])[H]

>  <smiles>  (61) 
[H]c1c([H])c([H])c2c(c1[H])C([H])([H])C([H])([H])C([H])([H])C2([H])N([H])C(=O)C1([H])N(C(=O)C([H])(N([H])C(=O)C([H])(N([H])C([H])([H])[H])C([H])([H])[H])C(C([H])([H])[H])(C([H])([H])[H])C([H])([H])[H])C([H])([H])c2c([H])c(OC([H])([H])c3sc(C([H])([H])[H])c(C([H])(C([H])([H])[H])[N+]([H])([H])C([H])([H])C([H])([H])C([H])([H])C([H])([H])N([H])C(=O)N4C([H])([H])C([H])([H])C([H])([H])C([H])(n5nc(-c6c([H])c([H])c(Oc7c([H])c([H])c(F)c([H])c7F)c([H])c6[H])c(C(=O)N([H])[H])c5N([H])[H])C4([H])[H])c3[H])c([H])c([H])c2C1([H])[H]

$$$$
63:0:0
     RDKit          3D

 92101  0  0  1  0  0  0  0  0999 V2000
  -30.8320  -22.3300   20.2560 C   0  0  0  0  0  3  0  0  0  0  0  0
  -30.1650  -23.5900   20.1660 C   0  0  0  0  0  3  0  0  0  0  0  0
  -28.0560  -22.4160   20.2390 C   0  0  0  0  0  3  0  0  0  0  0  0
  -30.1200  -21.0990   20.3170 C   0  0  0  0  0  0  0  0  0  0  0  0
  -28.7180  -21.1530   20.3270 C   0  0  0  0  0  0  0  0  0  0  0  0
  -28.7520  -23.6630   20.1470 C   0  0  0  0  0  0  0  0  0  0  0  0
  -30.8360  -19.7230   20.3780 C   0  0  0  0  0  2  0  0  0  0  0  0
  -27.9420  -19.8310   20.3580 C   0  0  0  0  0  2  0  0  0  0  0  0
  -29.9610  -18.4270   20.1140 C   0  0  2  0  0  0  0  0  0  0  0  0
  -29.7400  -18.2000   18.6060 C   0  0  0  0  0  1  0  0  0  0  0  0
  -28.7050  -18.6710   20.7700 O   0  0  0  0  0  0  0  0  0  0  0  0
  -27.9180  -24.9580   19.8330 C   0  0  0  0  0  2  0  0  0  0  0  0
  -28.2810  -26.3630   20.1710 O   0  0  0  0  0  0  0  0  0  0  0  0
  -24.5980  -31.8320   23.1800 C   0  0  0  0  0  0  0  0  0  0  0  0
  -27.2040  -27.2790   20.0890 C   0  0  0  0  0  0  0  0  0  0  0  0
  -23.3990  -30.4490   21.5300 C   0  0  0  0  0  3  0  0  0  0  0  0
  -24.8510  -28.9240   20.0890 C   0  0  0  0  0  0  0  0  0  0  0  0
  -25.9440  -30.7590   21.3620 C   0  0  0  0  0  2  0  0  0  0  0  0
  -26.0230  -29.3880   20.7000 C   0  0  0  0  0  0  0  0  0  0  0  0
  -27.2020  -28.5770   20.6980 C   0  0  0  0  0  3  0  0  0  0  0  0
  -26.0080  -26.9020   19.4240 C   0  0  0  0  0  3  0  0  0  0  0  0
  -24.8470  -27.6860   19.4420 C   0  0  0  0  0  3  0  0  0  0  0  0
  -23.6150  -29.7960   20.1430 C   0  0  0  0  0  2  0  0  0  0  0  0
  -24.6660  -31.0290   22.0800 N   0  0  0  0  0  0  0  0  0  0  0  0
  -23.5120  -32.1070   23.7120 O   0  0  0  0  0  0  0  0  0  0  0  0
  -22.7340  -29.4190   22.4770 C   0  0  0  0  0  0  0  0  0  0  0  0
  -21.4050  -29.2580   22.3600 N   0  0  0  0  0  0  0  0  0  0  0  0
  -23.4140  -28.7720   23.2780 O   0  0  0  0  0  0  0  0  0  0  0  0
  -20.9170  -29.8320   21.6870 H   0  0  0  0  0  0  0  0  0  0  0  0
  -18.0140  -28.1150   22.8970 C   0  0  0  0  0  0  0  0  0  0  0  0
  -20.5820  -28.3210   23.1260 C   0  0  0  0  0  3  0  0  0  0  0  0
  -20.6460  -26.8990   22.5200 C   0  0  0  0  0  2  0  0  0  0  0  0
  -19.5200  -26.6180   21.5200 C   0  0  0  0  0  2  0  0  0  0  0  0
  -18.1540  -26.7760   22.1920 C   0  0  0  0  0  2  0  0  0  0  0  0
  -19.1540  -28.8470   23.3220 C   0  0  0  0  0  0  0  0  0  0  0  0
  -18.9700  -30.1010   23.9420 C   0  0  0  0  0  3  0  0  0  0  0  0
  -17.6780  -30.6230   24.1410 C   0  0  0  0  0  3  0  0  0  0  0  0
  -16.5530  -29.8870   23.7320 C   0  0  0  0  0  3  0  0  0  0  0  0
  -16.7220  -28.6340   23.1150 C   0  0  0  0  0  3  0  0  0  0  0  0
  -25.8790  -32.4620   23.8080 C   0  0  0  0  0  3  0  0  0  0  0  0
  -25.5620  -33.8530   24.1610 N   0  0  0  0  0  0  0  0  0  0  0  0
  -25.8780  -34.9190   23.4140 C   0  0  0  0  0  0  0  0  0  0  0  0
  -26.5400  -34.8350   22.3760 O   0  0  0  0  0  0  0  0  0  0  0  0
  -24.9740  -33.9910   24.9700 H   0  0  0  0  0  0  0  0  0  0  0  0
  -24.1360  -36.7050   23.1010 C   0  0  0  0  0  1  0  0  0  0  0  0
  -25.3850  -36.2970   23.8970 C   0  0  0  0  0  3  0  0  0  0  0  0
  -27.5190  -37.1840   24.7270 C   0  0  0  0  0  1  0  0  0  0  0  0
  -26.4100  -37.3580   23.7920 N   0  0  0  0  0  0  0  0  0  0  0  0
  -25.9990  -38.2740   23.9540 H   0  0  0  0  0  0  0  0  0  0  0  0
  -26.4010  -31.6720   25.0710 C   0  0  1  0  0  0  0  0  0  0  0  0
  -25.3100  -31.4110   26.1360 C   0  0  0  0  0  1  0  0  0  0  0  0
  -26.9910  -30.3040   24.6590 C   0  0  0  0  0  1  0  0  0  0  0  0
  -27.5480  -32.4630   25.7440 C   0  0  0  0  0  1  0  0  0  0  0  0
  -30.6390  -17.1220   20.7410 C   0  0  0  0  0  2  0  0  0  0  0  0
  -30.6930  -14.6310   20.1000 C   0  0  0  0  0  0  0  0  0  0  0  0
  -30.3360  -12.4290   19.0030 C   0  0  0  0  0  2  0  0  0  0  0  0
  -29.3460  -12.5840   17.8300 C   0  0  0  0  0  2  0  0  0  0  0  0
  -27.8940  -12.4400   18.3270 C   0  0  0  0  0  2  0  0  0  0  0  0
  -27.6040  -13.2990   19.5870 C   0  0  0  0  0  3  0  0  0  0  0  0
  -28.7110  -13.1430   20.6520 C   0  0  0  0  0  2  0  0  0  0  0  0
  -29.9930  -13.4570   20.0080 N   0  0  0  0  0  0  0  0  0  0  0  0
  -31.8450  -14.7160   19.6740 O   0  0  0  0  0  0  0  0  0  0  0  0
  -30.0350  -15.7560   20.5170 N   0  0  0  0  0  0  0  0  0  0  0  0
  -29.0670  -15.6460   20.7800 H   0  0  0  0  0  0  0  0  0  0  0  0
  -25.2530  -13.9120   20.4170 C   0  0  0  0  0  0  0  0  0  0  0  0
  -24.1950  -13.1460   20.8250 C   0  0  0  0  0  0  0  0  0  0  0  0
  -24.6400  -11.7900   20.7620 C   0  0  0  0  0  0  0  0  0  0  0  0
  -26.2760  -13.0230   20.1300 N   0  0  0  0  0  0  0  0  0  0  0  0
  -25.9160  -11.7420   20.3990 N   0  0  0  0  0  0  0  0  0  0  0  0
  -23.9070  -10.5340   20.9700 C   0  0  0  0  0  0  0  0  0  0  0  0
  -24.3590   -9.5580   21.8850 C   0  0  0  0  0  3  0  0  0  0  0  0
  -23.6270   -8.3680   22.0820 C   0  0  0  0  0  3  0  0  0  0  0  0
  -22.4280   -8.1440   21.3630 C   0  0  0  0  0  0  0  0  0  0  0  0
  -21.9950   -9.1090   20.4370 C   0  0  0  0  0  3  0  0  0  0  0  0
  -22.7270  -10.2910   20.2370 C   0  0  0  0  0  3  0  0  0  0  0  0
  -21.6640   -7.0070   21.4710 O   0  0  0  0  0  0  0  0  0  0  0  0
  -21.6370   -6.2650   22.6250 C   0  0  0  0  0  0  0  0  0  0  0  0
  -21.2360   -6.8220   23.8590 C   0  0  0  0  0  3  0  0  0  0  0  0
  -21.1550   -6.0060   25.0050 C   0  0  0  0  0  3  0  0  0  0  0  0
  -21.4630   -4.6360   24.9200 C   0  0  0  0  0  0  0  0  0  0  0  0
  -21.8570   -4.0790   23.6900 C   0  0  0  0  0  3  0  0  0  0  0  0
  -21.9400   -4.8910   22.5450 C   0  0  0  0  0  0  0  0  0  0  0  0
  -22.2990   -4.3440   21.3590 F   0  0  0  0  0  0  0  0  0  0  0  0
  -21.3780   -3.8510   26.0190 F   0  0  0  0  0  0  0  0  0  0  0  0
  -22.8160  -13.6360   21.1590 C   0  0  0  0  0  0  0  0  0  0  0  0
  -22.1160  -12.9390   22.0470 N   0  0  0  0  0  0  0  0  0  0  0  0
  -22.3690  -14.6710   20.6690 O   0  0  0  0  0  0  0  0  0  0  0  0
  -22.4910  -12.1010   22.4660 H   0  0  0  0  0  0  0  0  0  0  0  0
  -21.1920  -13.2490   22.3140 H   0  0  0  0  0  0  0  0  0  0  0  0
  -25.4240  -15.2820   20.2450 N   0  0  0  0  0  0  0  0  0  0  0  0
  -24.6700  -15.9430   20.3960 H   0  0  0  0  0  0  0  0  0  0  0  0
  -26.2650  -15.7160   19.8850 H   0  0  0  0  0  0  0  0  0  0  0  0
  1  4  1  0
  2  1  2  0
  3  5  1  0
  4  5  2  0
  4  7  1  0
  5  8  1  0
  6  2  1  0
  6  3  2  0
  8 11  1  0
  9 10  1  6
  9  7  1  0
  9 54  1  0
  9 11  1  0
 12  6  1  0
 12 13  1  0
 14 25  2  0
 15 13  1  0
 15 20  1  0
 16 24  1  0
 16 26  1  0
 17 23  1  0
 17 19  1  0
 18 24  1  0
 19 18  1  0
 20 19  2  0
 21 22  1  0
 21 15  2  0
 22 17  2  0
 23 16  1  0
 24 14  1  0
 26 28  2  0
 27 26  1  0
 29 27  1  0
 30 39  2  0
 30 35  1  0
 31 27  1  0
 31 35  1  0
 32 31  1  0
 33 34  1  0
 33 32  1  0
 34 30  1  0
 35 36  2  0
 36 37  1  0
 38 37  2  0
 39 38  1  0
 40 14  1  0
 40 41  1  0
 40 50  1  0
 41 44  1  0
 42 46  1  0
 42 41  1  0
 43 42  2  0
 46 45  1  0
 48 46  1  0
 48 49  1  0
 48 47  1  0
 50 53  1  1
 50 51  1  0
 52 50  1  0
 55 63  1  0
 56 61  1  0
 57 58  1  0
 57 56  1  0
 59 58  1  0
 59 68  1  0
 59 60  1  0
 61 55  1  0
 61 60  1  0
 62 55  2  0
 63 54  1  0
 63 64  1  0
 65 66  2  0
 66 85  1  0
 67 66  1  0
 67 70  1  0
 68 69  1  0
 68 65  1  0
 69 67  2  0
 70 71  1  0
 71 72  2  0
 73 76  1  0
 73 72  1  0
 74 73  2  0
 75 74  1  0
 75 70  2  0
 76 77  1  0
 77 78  1  0
 78 79  2  0
 80 79  1  0
 80 84  1  0
 81 80  2  0
 82 77  2  0
 82 81  1  0
 83 82  1  0
 85 86  1  0
 86 89  1  0
 86 88  1  0
 87 85  2  0
 90 91  1  0
 90 65  1  0
 92 90  1  0
M  ISO  4  12 101  13 101  55 100  63 100
M  END
>  <TORSDO>  (62) 
F 18

>  <SCORE>  (62) 
-14.697

>  <name>  (62) 
63

>  <ligand_id>  (62) 
63

>  <original_smiles>  (62) 
[H]c1c([H])c([H])c2c(c1[H])C([H])([H])C([H])([H])C([H])([H])C2([H])N([H])C(=O)C1([H])N(C(=O)C([H])(N([H])C(=O)C([H])(N([H])C([H])([H])[H])C([H])([H])[H])C(C([H])([H])[H])(C([H])([H])[H])C([H])([H])[H])C([H])([H])c2c([H])c(OC([H])([H])c3c([H])c([H])c4c(c3[H])C([H])([H])OC(C([H])([H])[H])(C([H])([H])N([H])C(=O)N3C([H])([H])C([H])([H])C([H])([H])C([H])(n5nc(-c6c([H])c([H])c(Oc7c([H])c([H])c(F)c([H])c7F)c([H])c6[H])c(C(=O)N([H])[H])c5N([H])[H])C3([H])[H])C4([H])[H])c([H])c([H])c2C1([H])[H]

>  <smiles>  (62) 
[H]c1c([H])c([H])c2c(c1[H])C([H])([H])C([H])([H])C([H])([H])C2([H])N([H])C(=O)C1([H])N(C(=O)C([H])(N([H])C(=O)C([H])(N([H])C([H])([H])[H])C([H])([H])[H])C(C([H])([H])[H])(C([H])([H])[H])C([H])([H])[H])C([H])([H])c2c([H])c(OC([H])([H])c3c([H])c([H])c4c(c3[H])C([H])([H])OC(C([H])([H])[H])(C([H])([H])N([H])C(=O)N3C([H])([H])C([H])([H])C([H])([H])C([H])(n5nc(-c6c([H])c([H])c(Oc7c([H])c([H])c(F)c([H])c7F)c([H])c6[H])c(C(=O)N([H])[H])c5N([H])[H])C3([H])[H])C4([H])[H])c([H])c([H])c2C1([H])[H]

$$$$
64:0:0
     RDKit          3D

 93101  0  0  1  0  0  0  0  0999 V2000
  -28.5580  -23.0340   19.0620 C   0  0  0  0  0  3  0  0  0  0  0  0
  -28.4900  -24.4450   18.9390 C   0  0  0  0  0  3  0  0  0  0  0  0
  -28.6860  -22.3970   20.3200 C   0  0  0  0  0  0  0  0  0  0  0  0
  -28.7570  -23.2420   21.4680 C   0  0  0  0  0  0  0  0  0  0  0  0
  -28.6780  -24.6700   21.3440 C   0  0  0  0  0  0  0  0  0  0  0  0
  -28.5310  -25.2920   20.0710 C   0  0  0  0  0  0  0  0  0  0  0  0
  -28.8810  -22.6110   22.8530 C   0  0  0  0  0  1  0  0  0  0  0  0
  -28.7500  -25.5480   22.5880 C   0  0  0  0  0  1  0  0  0  0  0  0
  -28.5210  -26.6830   19.9000 O   0  0  0  0  0  0  0  0  0  0  0  0
  -24.6910  -31.8090   23.1400 C   0  0  0  0  0  0  0  0  0  0  0  0
  -27.3460  -27.4250   19.9380 C   0  0  0  0  0  0  0  0  0  0  0  0
  -23.4860  -30.4310   21.4790 C   0  0  0  0  0  3  0  0  0  0  0  0
  -24.9410  -28.9410   20.0010 C   0  0  0  0  0  0  0  0  0  0  0  0
  -26.0080  -30.8160   21.2630 C   0  0  0  0  0  2  0  0  0  0  0  0
  -26.1020  -29.4550   20.5920 C   0  0  0  0  0  0  0  0  0  0  0  0
  -27.3060  -28.7060   20.5550 C   0  0  0  0  0  3  0  0  0  0  0  0
  -26.1670  -26.9400   19.3340 C   0  0  0  0  0  3  0  0  0  0  0  0
  -24.9710  -27.6850   19.3690 C   0  0  0  0  0  3  0  0  0  0  0  0
  -23.6880  -29.7880   20.0810 C   0  0  0  0  0  2  0  0  0  0  0  0
  -24.7470  -31.0350   22.0190 N   0  0  0  0  0  0  0  0  0  0  0  0
  -23.6120  -32.0540   23.6990 O   0  0  0  0  0  0  0  0  0  0  0  0
  -22.8570  -29.3800   22.4230 C   0  0  0  0  0  0  0  0  0  0  0  0
  -21.5390  -29.1620   22.2840 N   0  0  0  0  0  0  0  0  0  0  0  0
  -23.5530  -28.7660   23.2360 O   0  0  0  0  0  0  0  0  0  0  0  0
  -21.0370  -29.7120   21.6020 H   0  0  0  0  0  0  0  0  0  0  0  0
  -18.2050  -27.8350   22.7210 C   0  0  0  0  0  0  0  0  0  0  0  0
  -20.7460  -28.1880   23.0360 C   0  0  0  0  0  3  0  0  0  0  0  0
  -20.9120  -26.7660   22.4520 C   0  0  0  0  0  2  0  0  0  0  0  0
  -19.8400  -26.4090   21.4180 C   0  0  0  0  0  2  0  0  0  0  0  0
  -18.4440  -26.4970   22.0410 C   0  0  0  0  0  2  0  0  0  0  0  0
  -19.2870  -28.6350   23.1740 C   0  0  0  0  0  0  0  0  0  0  0  0
  -19.0110  -29.8850   23.7700 C   0  0  0  0  0  3  0  0  0  0  0  0
  -17.6860  -30.3350   23.9180 C   0  0  0  0  0  3  0  0  0  0  0  0
  -16.6180  -29.5320   23.4810 C   0  0  0  0  0  3  0  0  0  0  0  0
  -16.8780  -28.2840   22.8890 C   0  0  0  0  0  3  0  0  0  0  0  0
  -25.9740  -32.4440   23.7630 C   0  0  0  0  0  3  0  0  0  0  0  0
  -25.6460  -33.8250   24.1430 N   0  0  0  0  0  0  0  0  0  0  0  0
  -25.9240  -34.9040   23.4000 C   0  0  0  0  0  0  0  0  0  0  0  0
  -26.5540  -34.8420   22.3410 O   0  0  0  0  0  0  0  0  0  0  0  0
  -25.0820  -33.9440   24.9720 H   0  0  0  0  0  0  0  0  0  0  0  0
  -24.1340  -36.6550   23.1710 C   0  0  0  0  0  1  0  0  0  0  0  0
  -25.4230  -36.2690   23.9130 C   0  0  0  0  0  3  0  0  0  0  0  0
  -27.5690  -37.1960   24.6630 C   0  0  0  0  0  1  0  0  0  0  0  0
  -26.4210  -37.3520   23.7740 N   0  0  0  0  0  0  0  0  0  0  0  0
  -25.9990  -38.2590   23.9550 H   0  0  0  0  0  0  0  0  0  0  0  0
  -26.5250  -31.6400   25.0060 C   0  0  1  0  0  0  0  0  0  0  0  0
  -25.4530  -31.3480   26.0820 C   0  0  0  0  0  1  0  0  0  0  0  0
  -27.1220  -30.2860   24.5570 C   0  0  0  0  0  1  0  0  0  0  0  0
  -27.6750  -32.4300   25.6730 C   0  0  0  0  0  1  0  0  0  0  0  0
  -28.5850  -20.8370   20.4120 C   0  0  0  0  0  2  0  0  0  0  0  0
  -30.7570  -20.1850   19.1910 C   0  0  0  0  0  1  0  0  0  0  0  0
  -29.8870  -19.9340   20.4380 C   0  0  0  0  0  3  0  0  0  0  0  0
  -29.5570  -18.4640   20.6130 N   0  0  0  0  0  4  0  0  0  0  0  0
  -29.0700  -18.3880   21.4930 H   0  0  0  0  0  0  0  0  0  0  0  0
  -28.9050  -18.2000   19.8920 H   0  0  0  0  0  0  0  0  0  0  0  0
  -30.6600  -17.4280   20.6330 C   0  0  0  0  0  2  0  0  0  0  0  0
  -30.2110  -15.9830   21.1050 C   0  0  0  0  0  2  0  0  0  0  0  0
  -30.9820  -14.7270   20.5520 C   0  0  0  0  0  0  0  0  0  0  0  0
  -30.7260  -12.5520   19.3760 C   0  0  0  0  0  2  0  0  0  0  0  0
  -29.8110  -12.7680   18.1500 C   0  0  0  0  0  2  0  0  0  0  0  0
  -28.3250  -12.6350   18.5390 C   0  0  0  0  0  2  0  0  0  0  0  0
  -27.9640  -13.4630   19.8010 C   0  0  0  0  0  3  0  0  0  0  0  0
  -28.9950  -13.2280   20.9290 C   0  0  0  0  0  2  0  0  0  0  0  0
  -30.3310  -13.5340   20.4020 N   0  0  0  0  0  0  0  0  0  0  0  0
  -32.1380  -14.8750   20.1440 O   0  0  0  0  0  0  0  0  0  0  0  0
  -25.5600  -14.1080   20.4470 C   0  0  0  0  0  0  0  0  0  0  0  0
  -24.4730  -13.3540   20.7980 C   0  0  0  0  0  0  0  0  0  0  0  0
  -24.9180  -11.9980   20.7950 C   0  0  0  0  0  0  0  0  0  0  0  0
  -26.5990  -13.2100   20.2510 N   0  0  0  0  0  0  0  0  0  0  0  0
  -26.2160  -11.9360   20.5230 N   0  0  0  0  0  0  0  0  0  0  0  0
  -24.1720  -10.7460   20.9800 C   0  0  0  0  0  0  0  0  0  0  0  0
  -24.5540   -9.7960   21.9510 C   0  0  0  0  0  3  0  0  0  0  0  0
  -23.8110   -8.6080   22.1210 C   0  0  0  0  0  3  0  0  0  0  0  0
  -22.6700   -8.3640   21.3190 C   0  0  0  0  0  0  0  0  0  0  0  0
  -22.3090   -9.3030   20.3370 C   0  0  0  0  0  3  0  0  0  0  0  0
  -23.0540  -10.4810   20.1660 C   0  0  0  0  0  3  0  0  0  0  0  0
  -21.9010   -7.2270   21.3980 O   0  0  0  0  0  0  0  0  0  0  0  0
  -21.7690   -6.5280   22.5700 C   0  0  0  0  0  0  0  0  0  0  0  0
  -21.2480   -7.1220   23.7410 C   0  0  0  0  0  3  0  0  0  0  0  0
  -21.0670   -6.3470   24.9030 C   0  0  0  0  0  3  0  0  0  0  0  0
  -21.3940   -4.9790   24.8970 C   0  0  0  0  0  0  0  0  0  0  0  0
  -21.9090   -4.3830   23.7300 C   0  0  0  0  0  3  0  0  0  0  0  0
  -22.0920   -5.1550   22.5700 C   0  0  0  0  0  0  0  0  0  0  0  0
  -22.5680   -4.5730   21.4440 F   0  0  0  0  0  0  0  0  0  0  0  0
  -21.2120   -4.2320   26.0090 F   0  0  0  0  0  0  0  0  0  0  0  0
  -23.0750  -13.8510   21.0240 C   0  0  0  0  0  0  0  0  0  0  0  0
  -22.3160  -13.1770   21.8810 N   0  0  0  0  0  0  0  0  0  0  0  0
  -22.6630  -14.8720   20.4760 O   0  0  0  0  0  0  0  0  0  0  0  0
  -22.6600  -12.3510   22.3480 H   0  0  0  0  0  0  0  0  0  0  0  0
  -21.3750  -13.4920   22.0730 H   0  0  0  0  0  0  0  0  0  0  0  0
  -25.7480  -15.4740   20.2530 N   0  0  0  0  0  0  0  0  0  0  0  0
  -24.9850  -16.1390   20.3180 H   0  0  0  0  0  0  0  0  0  0  0  0
  -26.6010  -15.8860   19.8980 H   0  0  0  0  0  0  0  0  0  0  0  0
  1  3  1  0
  2  1  2  0
  2  6  1  0
  3 50  1  0
  3  4  2  0
  4  7  1  0
  5  4  1  0
  5  8  1  0
  6  5  2  0
  9 11  1  0
  9  6  1  0
 10 21  2  0
 11 16  1  0
 12 20  1  0
 12 22  1  0
 13 19  1  0
 13 15  1  0
 14 20  1  0
 15 14  1  0
 16 15  2  0
 17 18  1  0
 17 11  2  0
 18 13  2  0
 19 12  1  0
 20 10  1  0
 22 24  2  0
 23 22  1  0
 25 23  1  0
 26 35  2  0
 26 31  1  0
 27 23  1  0
 27 31  1  0
 28 27  1  0
 29 30  1  0
 29 28  1  0
 30 26  1  0
 31 32  2  0
 32 33  1  0
 34 33  2  0
 35 34  1  0
 36 10  1  0
 36 37  1  0
 36 46  1  0
 37 40  1  0
 38 42  1  0
 38 37  1  0
 39 38  2  0
 42 41  1  0
 44 42  1  0
 44 45  1  0
 44 43  1  0
 46 49  1  1
 46 47  1  0
 48 46  1  0
 50 52  1  0
 52 51  1  0
 52 53  1  0
 53 56  1  0
 53 54  1  0
 55 53  1  0
 56 57  1  0
 58 57  1  0
 59 64  1  0
 60 61  1  0
 60 59  1  0
 62 61  1  0
 62 69  1  0
 62 63  1  0
 64 58  1  0
 64 63  1  0
 65 58  2  0
 66 67  2  0
 67 86  1  0
 68 67  1  0
 68 71  1  0
 69 66  1  0
 69 70  1  0
 70 68  2  0
 71 72  1  0
 72 73  2  0
 74 77  1  0
 74 73  1  0
 75 74  2  0
 76 75  1  0
 76 71  2  0
 77 78  1  0
 78 79  1  0
 79 80  2  0
 81 80  1  0
 81 85  1  0
 82 81  2  0
 83 78  2  0
 83 82  1  0
 84 83  1  0
 86 87  1  0
 87 90  1  0
 87 89  1  0
 88 86  2  0
 91 92  1  0
 91 66  1  0
 93 91  1  0
M  ISO  4   6 101   9 101  57 100  58 100
M  END
>  <TORSDO>  (63) 
F 21

>  <SCORE>  (63) 
-13.148

>  <name>  (63) 
64

>  <ligand_id>  (63) 
64

>  <original_smiles>  (63) 
[H]c1c([H])c([H])c2c(c1[H])C([H])([H])C([H])([H])C([H])([H])C2([H])N([H])C(=O)C1([H])N(C(=O)C([H])(N([H])C(=O)C([H])(N([H])C([H])([H])[H])C([H])([H])[H])C(C([H])([H])[H])(C([H])([H])[H])C([H])([H])[H])C([H])([H])c2c([H])c(Oc3c([H])c([H])c(C([H])([H])C([H])(C([H])([H])[H])[N+]([H])([H])C([H])([H])C([H])([H])C(=O)N4C([H])([H])C([H])([H])C([H])([H])C([H])(n5nc(-c6c([H])c([H])c(Oc7c([H])c([H])c(F)c([H])c7F)c([H])c6[H])c(C(=O)N([H])[H])c5N([H])[H])C4([H])[H])c(C([H])([H])[H])c3C([H])([H])[H])c([H])c([H])c2C1([H])[H]

>  <smiles>  (63) 
[H]c1c([H])c([H])c2c(c1[H])C([H])([H])C([H])([H])C([H])([H])C2([H])N([H])C(=O)C1([H])N(C(=O)C([H])(N([H])C(=O)C([H])(N([H])C([H])([H])[H])C([H])([H])[H])C(C([H])([H])[H])(C([H])([H])[H])C([H])([H])[H])C([H])([H])c2c([H])c(Oc3c([H])c([H])c(C([H])([H])C([H])(C([H])([H])[H])[N+]([H])([H])C([H])([H])C([H])([H])C(=O)N4C([H])([H])C([H])([H])C([H])([H])C([H])(n5nc(-c6c([H])c([H])c(Oc7c([H])c([H])c(F)c([H])c7F)c([H])c6[H])c(C(=O)N([H])[H])c5N([H])[H])C4([H])[H])c(C([H])([H])[H])c3C([H])([H])[H])c([H])c([H])c2C1([H])[H]

$$$$
65:0:0
     RDKit          3D

 90 99  0  0  1  0  0  0  0  0999 V2000
  -27.9140  -23.5620   19.2400 C   0  0  0  0  0  2  0  0  0  0  0  0
  -29.3320  -23.8640   21.1160 C   0  0  0  0  0  2  0  0  0  0  0  0
  -27.8740  -21.9460   19.5450 C   0  0  0  0  0  2  0  0  0  0  0  0
  -29.3010  -22.2590   21.4070 C   0  0  0  0  0  2  0  0  0  0  0  0
  -28.0950  -24.6070   20.4380 C   0  0  0  0  0  3  0  0  0  0  0  0
  -29.0650  -21.2960   20.2480 N   0  0  1  0  0  4  0  0  0  0  0  0
  -29.8430  -21.4250   19.6180 H   0  0  0  0  0  0  0  0  0  0  0  0
  -30.5350  -15.0630   20.2850 C   0  0  0  0  0  0  0  0  0  0  0  0
  -30.3570  -12.7050   19.3450 C   0  0  0  0  0  2  0  0  0  0  0  0
  -29.4140  -12.6130   18.1260 C   0  0  0  0  0  2  0  0  0  0  0  0
  -27.9640  -12.3870   18.5880 C   0  0  0  0  0  2  0  0  0  0  0  0
  -27.5610  -13.3290   19.7540 C   0  0  0  0  0  3  0  0  0  0  0  0
  -28.6330  -13.4070   20.8590 C   0  0  0  0  0  2  0  0  0  0  0  0
  -29.8770  -13.8300   20.2070 N   0  0  0  0  0  0  0  0  0  0  0  0
  -31.7540  -15.0180   20.0760 O   0  0  0  0  0  0  0  0  0  0  0  0
  -30.4310  -19.0290   21.0150 C   0  0  0  0  0  2  0  0  0  0  0  0
  -28.7030  -18.6160   19.4680 C   0  0  0  0  0  2  0  0  0  0  0  0
  -30.5180  -17.4420   21.3740 C   0  0  0  0  0  2  0  0  0  0  0  0
  -28.7330  -17.0080   19.8110 C   0  0  0  0  0  2  0  0  0  0  0  0
  -29.0630  -19.7070   20.5810 C   0  0  0  0  0  3  0  0  0  0  0  0
  -29.9080  -16.3520   20.5100 N   0  0  0  0  0  0  0  0  0  0  0  0
  -25.2010  -13.8880   20.5550 C   0  0  0  0  0  0  0  0  0  0  0  0
  -24.1450  -13.1070   20.9300 C   0  0  0  0  0  0  0  0  0  0  0  0
  -24.6100  -11.7570   20.8710 C   0  0  0  0  0  0  0  0  0  0  0  0
  -26.2390  -13.0150   20.2820 N   0  0  0  0  0  0  0  0  0  0  0  0
  -25.8960  -11.7270   20.5410 N   0  0  0  0  0  0  0  0  0  0  0  0
  -23.8850  -10.4920   21.0520 C   0  0  0  0  0  0  0  0  0  0  0  0
  -24.3150   -9.5200   21.9820 C   0  0  0  0  0  3  0  0  0  0  0  0
  -23.5880   -8.3220   22.1510 C   0  0  0  0  0  3  0  0  0  0  0  0
  -22.4180   -8.0870   21.3910 C   0  0  0  0  0  0  0  0  0  0  0  0
  -22.0090   -9.0470   20.4500 C   0  0  0  0  0  3  0  0  0  0  0  0
  -22.7360  -10.2370   20.2780 C   0  0  0  0  0  3  0  0  0  0  0  0
  -21.6630   -6.9420   21.4700 O   0  0  0  0  0  0  0  0  0  0  0  0
  -21.5870   -6.2090   22.6280 C   0  0  0  0  0  0  0  0  0  0  0  0
  -21.1070   -6.7660   23.8340 C   0  0  0  0  0  3  0  0  0  0  0  0
  -20.9810   -5.9580   24.9810 C   0  0  0  0  0  3  0  0  0  0  0  0
  -21.3240   -4.5950   24.9240 C   0  0  0  0  0  0  0  0  0  0  0  0
  -21.7970   -4.0370   23.7230 C   0  0  0  0  0  3  0  0  0  0  0  0
  -21.9260   -4.8420   22.5770 C   0  0  0  0  0  0  0  0  0  0  0  0
  -22.3620   -4.2940   21.4180 F   0  0  0  0  0  0  0  0  0  0  0  0
  -21.1960   -3.8160   26.0240 F   0  0  0  0  0  0  0  0  0  0  0  0
  -22.7520  -13.5810   21.2260 C   0  0  0  0  0  0  0  0  0  0  0  0
  -22.0370  -12.8750   22.0950 N   0  0  0  0  0  0  0  0  0  0  0  0
  -22.3080  -14.6110   20.7230 O   0  0  0  0  0  0  0  0  0  0  0  0
  -22.4100  -12.0400   22.5220 H   0  0  0  0  0  0  0  0  0  0  0  0
  -21.1030  -13.1740   22.3360 H   0  0  0  0  0  0  0  0  0  0  0  0
  -25.3600  -15.2620   20.3950 N   0  0  0  0  0  0  0  0  0  0  0  0
  -24.5930  -15.9110   20.5280 H   0  0  0  0  0  0  0  0  0  0  0  0
  -26.2010  -15.7040   20.0510 H   0  0  0  0  0  0  0  0  0  0  0  0
  -28.2420  -26.1710   20.2430 O   0  0  0  0  0  0  0  0  0  0  0  0
  -24.6240  -31.8970   23.2480 C   0  0  0  0  0  0  0  0  0  0  0  0
  -27.1700  -27.1440   20.2230 C   0  0  0  0  0  0  0  0  0  0  0  0
  -23.4140  -30.5010   21.6170 C   0  0  0  0  0  3  0  0  0  0  0  0
  -24.8490  -28.9110   20.1910 C   0  0  0  0  0  0  0  0  0  0  0  0
  -25.9680  -30.7550   21.4370 C   0  0  0  0  0  2  0  0  0  0  0  0
  -26.0350  -29.3560   20.7900 C   0  0  0  0  0  0  0  0  0  0  0  0
  -27.1960  -28.4920   20.7800 C   0  0  0  0  0  3  0  0  0  0  0  0
  -25.9560  -26.7990   19.5960 C   0  0  0  0  0  3  0  0  0  0  0  0
  -24.8250  -27.6480   19.5770 C   0  0  0  0  0  3  0  0  0  0  0  0
  -23.6260  -29.8170   20.2390 C   0  0  0  0  0  2  0  0  0  0  0  0
  -24.6900  -31.0740   22.1560 N   0  0  0  0  0  0  0  0  0  0  0  0
  -23.5410  -32.1850   23.7800 O   0  0  0  0  0  0  0  0  0  0  0  0
  -22.7340  -29.5000   22.5860 C   0  0  0  0  0  0  0  0  0  0  0  0
  -21.4070  -29.3270   22.4600 N   0  0  0  0  0  0  0  0  0  0  0  0
  -23.4070  -28.8810   23.4150 O   0  0  0  0  0  0  0  0  0  0  0  0
  -20.9190  -29.8790   21.7680 H   0  0  0  0  0  0  0  0  0  0  0  0
  -18.0290  -28.1150   22.9640 C   0  0  0  0  0  0  0  0  0  0  0  0
  -20.5870  -28.3910   23.2350 C   0  0  0  0  0  3  0  0  0  0  0  0
  -20.6960  -26.9550   22.6710 C   0  0  0  0  0  2  0  0  0  0  0  0
  -19.5980  -26.6210   21.6550 C   0  0  0  0  0  2  0  0  0  0  0  0
  -18.2140  -26.7630   22.2950 C   0  0  0  0  0  2  0  0  0  0  0  0
  -19.1440  -28.8860   23.3910 C   0  0  0  0  0  0  0  0  0  0  0  0
  -18.9150  -30.1500   23.9770 C   0  0  0  0  0  3  0  0  0  0  0  0
  -17.6070  -30.6440   24.1400 C   0  0  0  0  0  3  0  0  0  0  0  0
  -16.5080  -29.8700   23.7280 C   0  0  0  0  0  3  0  0  0  0  0  0
  -16.7200  -28.6080   23.1460 C   0  0  0  0  0  3  0  0  0  0  0  0
  -25.9050  -32.5320   23.8700 C   0  0  0  0  0  3  0  0  0  0  0  0
  -25.5950  -33.9310   24.2090 N   0  0  0  0  0  0  0  0  0  0  0  0
  -25.9030  -34.9880   23.4470 C   0  0  0  0  0  0  0  0  0  0  0  0
  -26.5430  -34.8910   22.3970 O   0  0  0  0  0  0  0  0  0  0  0  0
  -25.0250  -34.0810   25.0280 H   0  0  0  0  0  0  0  0  0  0  0  0
  -24.1510  -36.7740   23.1640 C   0  0  0  0  0  1  0  0  0  0  0  0
  -25.4260  -36.3750   23.9240 C   0  0  0  0  0  3  0  0  0  0  0  0
  -27.5830  -37.2790   24.6730 C   0  0  0  0  0  1  0  0  0  0  0  0
  -26.4460  -37.4350   23.7700 N   0  0  0  0  0  0  0  0  0  0  0  0
  -26.0390  -38.3530   23.9300 H   0  0  0  0  0  0  0  0  0  0  0  0
  -26.4210  -31.7620   25.1480 C   0  0  1  0  0  0  0  0  0  0  0  0
  -25.3290  -31.5290   26.2190 C   0  0  0  0  0  1  0  0  0  0  0  0
  -27.0010  -30.3830   24.7600 C   0  0  0  0  0  1  0  0  0  0  0  0
  -27.5740  -32.5540   25.8070 C   0  0  0  0  0  1  0  0  0  0  0  0
  1  3  1  0
  1  5  1  0
  2  4  1  0
  3  6  1  0
  5 50  1  0
  5  2  1  0
  6  7  1  6
  6 20  1  0
  6  4  1  0
  8 21  1  0
  9 14  1  0
 10 11  1  0
 10  9  1  0
 12 11  1  0
 12 25  1  0
 12 13  1  0
 14  8  1  0
 14 13  1  0
 15  8  2  0
 16 18  1  0
 17 19  1  0
 19 21  1  0
 20 17  1  0
 20 16  1  0
 21 18  1  0
 22 23  2  0
 23 42  1  0
 24 23  1  0
 24 27  1  0
 25 26  1  0
 25 22  1  0
 26 24  2  0
 27 28  1  0
 28 29  2  0
 30 33  1  0
 30 29  1  0
 31 30  2  0
 32 31  1  0
 32 27  2  0
 33 34  1  0
 34 35  1  0
 35 36  2  0
 37 36  1  0
 37 41  1  0
 38 37  2  0
 39 34  2  0
 39 38  1  0
 40 39  1  0
 42 43  1  0
 43 46  1  0
 43 45  1  0
 44 42  2  0
 47 48  1  0
 47 22  1  0
 49 47  1  0
 51 62  2  0
 52 50  1  0
 52 57  1  0
 53 61  1  0
 53 63  1  0
 54 60  1  0
 54 56  1  0
 55 61  1  0
 56 55  1  0
 57 56  2  0
 58 52  2  0
 59 58  1  0
 59 54  2  0
 60 53  1  0
 61 51  1  0
 63 65  2  0
 64 63  1  0
 66 64  1  0
 67 76  2  0
 67 72  1  0
 68 64  1  0
 68 72  1  0
 69 68  1  0
 70 71  1  0
 70 69  1  0
 71 67  1  0
 72 73  2  0
 73 74  1  0
 75 74  2  0
 76 75  1  0
 77 51  1  0
 77 78  1  0
 77 87  1  0
 78 81  1  0
 79 83  1  0
 79 78  1  0
 80 79  2  0
 83 82  1  0
 85 83  1  0
 85 86  1  0
 85 84  1  0
 87 90  1  1
 87 88  1  0
 89 87  1  0
M  ISO  4   5 101   8 100  21 100  50 101
M  END
>  <TORSDO>  (64) 
F 16

>  <SCORE>  (64) 
-15.699

>  <name>  (64) 
65

>  <ligand_id>  (64) 
65

>  <original_smiles>  (64) 
[H]c1c([H])c([H])c2c(c1[H])C([H])([H])C([H])([H])C([H])([H])C2([H])N([H])C(=O)C1([H])N(C(=O)C([H])(N([H])C(=O)C([H])(N([H])C([H])([H])[H])C([H])([H])[H])C(C([H])([H])[H])(C([H])([H])[H])C([H])([H])[H])C([H])([H])c2c([H])c(OC3([H])C([H])([H])C([H])([H])[N+]([H])(C4([H])C([H])([H])C([H])([H])N(C(=O)N5C([H])([H])C([H])([H])C([H])([H])C([H])(n6nc(-c7c([H])c([H])c(Oc8c([H])c([H])c(F)c([H])c8F)c([H])c7[H])c(C(=O)N([H])[H])c6N([H])[H])C5([H])[H])C([H])([H])C4([H])[H])C([H])([H])C3([H])[H])c([H])c([H])c2C1([H])[H]

>  <smiles>  (64) 
[H]c1c([H])c([H])c2c(c1[H])C([H])([H])C([H])([H])C([H])([H])C2([H])N([H])C(=O)C1([H])N(C(=O)C([H])(N([H])C(=O)C([H])(N([H])C([H])([H])[H])C([H])([H])[H])C(C([H])([H])[H])(C([H])([H])[H])C([H])([H])[H])C([H])([H])c2c([H])c(OC3([H])C([H])([H])C([H])([H])[N+]([H])(C4([H])C([H])([H])C([H])([H])N(C(=O)N5C([H])([H])C([H])([H])C([H])([H])C([H])(n6nc(-c7c([H])c([H])c(Oc8c([H])c([H])c(F)c([H])c8F)c([H])c7[H])c(C(=O)N([H])[H])c6N([H])[H])C5([H])[H])C([H])([H])C4([H])[H])C([H])([H])C3([H])[H])c([H])c([H])c2C1([H])[H]

$$$$
66:0:0
     RDKit          3D

 98108  0  0  1  0  0  0  0  0999 V2000
  -29.0540  -23.8410   16.9370 C   0  0  0  0  0  3  0  0  0  0  0  0
  -28.6750  -26.0940   17.8130 C   0  0  0  0  0  3  0  0  0  0  0  0
  -28.9610  -23.3500   18.2490 C   0  0  0  0  0  0  0  0  0  0  0  0
  -28.7310  -24.2000   19.3390 C   0  0  0  0  0  0  0  0  0  0  0  0
  -28.9140  -25.2250   16.7230 C   0  0  0  0  0  0  0  0  0  0  0  0
  -28.5600  -25.6170   19.1430 C   0  0  0  0  0  0  0  0  0  0  0  0
  -29.0720  -21.8910   18.6460 C   0  0  0  0  0  2  0  0  0  0  0  0
  -28.6920  -23.3400   20.6060 C   0  0  0  0  0  2  0  0  0  0  0  0
  -29.2900  -21.9390   20.1730 C   0  0  0  0  0  3  0  0  0  0  0  0
  -29.0150  -25.7750   15.3130 C   0  0  0  0  0  1  0  0  0  0  0  0
  -28.7970  -20.7230   20.9240 N   0  0  0  0  0  4  0  0  0  0  0  0
  -27.9280  -20.4140   20.5170 H   0  0  0  0  0  0  0  0  0  0  0  0
  -28.5430  -21.0890   21.8280 H   0  0  0  0  0  0  0  0  0  0  0  0
  -32.1190  -18.8150   20.9830 C   0  0  0  0  0  2  0  0  0  0  0  0
  -31.7930  -17.3260   21.2310 C   0  0  0  0  0  2  0  0  0  0  0  0
  -31.1300  -19.7810   21.6660 C   0  0  0  0  0  2  0  0  0  0  0  0
  -29.4810  -18.1810   20.4190 C   0  0  0  0  0  2  0  0  0  0  0  0
  -30.2820  -16.9880   21.0830 C   0  0  0  0  0  3  0  0  0  0  0  0
  -29.6520  -19.5140   21.2600 C   0  0  0  0  0  3  0  0  0  0  0  0
  -30.6110  -14.5590   20.0920 C   0  0  0  0  0  0  0  0  0  0  0  0
  -30.2510  -12.3980   18.9250 C   0  0  0  0  0  2  0  0  0  0  0  0
  -29.2410  -12.6040   17.7760 C   0  0  0  0  0  2  0  0  0  0  0  0
  -27.7930  -12.4650   18.2860 C   0  0  0  0  0  2  0  0  0  0  0  0
  -27.5320  -13.2850   19.5780 C   0  0  0  0  0  3  0  0  0  0  0  0
  -28.6480  -13.0540   20.6210 C   0  0  0  0  0  2  0  0  0  0  0  0
  -29.9310  -13.3790   19.9780 N   0  0  0  0  0  0  0  0  0  0  0  0
  -31.7240  -14.7040   19.5860 O   0  0  0  0  0  0  0  0  0  0  0  0
  -29.9260  -15.5860   20.6710 N   0  0  0  0  0  0  0  0  0  0  0  0
  -29.0040  -15.3010   20.9700 H   0  0  0  0  0  0  0  0  0  0  0  0
  -25.1890  -13.9000   20.4400 C   0  0  0  0  0  0  0  0  0  0  0  0
  -24.1340  -13.1310   20.8550 C   0  0  0  0  0  0  0  0  0  0  0  0
  -24.5770  -11.7750   20.7710 C   0  0  0  0  0  0  0  0  0  0  0  0
  -26.2070  -13.0130   20.1310 N   0  0  0  0  0  0  0  0  0  0  0  0
  -25.8470  -11.7280   20.3880 N   0  0  0  0  0  0  0  0  0  0  0  0
  -23.8480  -10.5170   20.9760 C   0  0  0  0  0  0  0  0  0  0  0  0
  -24.2960   -9.5450   21.8980 C   0  0  0  0  0  3  0  0  0  0  0  0
  -23.5660   -8.3520   22.0900 C   0  0  0  0  0  3  0  0  0  0  0  0
  -22.3750   -8.1230   21.3630 C   0  0  0  0  0  0  0  0  0  0  0  0
  -21.9460   -9.0840   20.4300 C   0  0  0  0  0  3  0  0  0  0  0  0
  -22.6760  -10.2680   20.2340 C   0  0  0  0  0  3  0  0  0  0  0  0
  -21.6150   -6.9830   21.4650 O   0  0  0  0  0  0  0  0  0  0  0  0
  -21.5720   -6.2490   22.6240 C   0  0  0  0  0  0  0  0  0  0  0  0
  -21.1350   -6.8080   23.8440 C   0  0  0  0  0  3  0  0  0  0  0  0
  -21.0410   -6.0000   24.9960 C   0  0  0  0  0  3  0  0  0  0  0  0
  -21.3720   -4.6340   24.9260 C   0  0  0  0  0  0  0  0  0  0  0  0
  -21.8020   -4.0740   23.7110 C   0  0  0  0  0  3  0  0  0  0  0  0
  -21.8990   -4.8800   22.5620 C   0  0  0  0  0  0  0  0  0  0  0  0
  -22.2930   -4.3300   21.3880 F   0  0  0  0  0  0  0  0  0  0  0  0
  -21.2740   -3.8560   26.0300 F   0  0  0  0  0  0  0  0  0  0  0  0
  -22.7610  -13.6170   21.2150 C   0  0  0  0  0  0  0  0  0  0  0  0
  -22.0710  -12.9080   22.1000 N   0  0  0  0  0  0  0  0  0  0  0  0
  -22.3090  -14.6630   20.7470 O   0  0  0  0  0  0  0  0  0  0  0  0
  -22.4490  -12.0610   22.5000 H   0  0  0  0  0  0  0  0  0  0  0  0
  -21.1500  -13.2150   22.3830 H   0  0  0  0  0  0  0  0  0  0  0  0
  -25.3590  -15.2720   20.2810 N   0  0  0  0  0  0  0  0  0  0  0  0
  -24.6050  -15.9300   20.4370 H   0  0  0  0  0  0  0  0  0  0  0  0
  -26.1870  -15.7050   19.8900 H   0  0  0  0  0  0  0  0  0  0  0  0
  -28.3190  -26.5600   20.1410 O   0  0  0  0  0  0  0  0  0  0  0  0
  -24.5820  -31.8710   23.2050 C   0  0  0  0  0  0  0  0  0  0  0  0
  -27.1850  -27.3700   20.1000 C   0  0  0  0  0  0  0  0  0  0  0  0
  -23.3640  -30.4760   21.5720 C   0  0  0  0  0  3  0  0  0  0  0  0
  -24.8030  -28.9320   20.1300 C   0  0  0  0  0  0  0  0  0  0  0  0
  -25.8960  -30.8100   21.3620 C   0  0  0  0  0  2  0  0  0  0  0  0
  -25.9720  -29.4360   20.7150 C   0  0  0  0  0  0  0  0  0  0  0  0
  -27.1650  -28.6620   20.6970 C   0  0  0  0  0  3  0  0  0  0  0  0
  -25.9890  -26.8950   19.5180 C   0  0  0  0  0  3  0  0  0  0  0  0
  -24.8090  -27.6640   19.5270 C   0  0  0  0  0  3  0  0  0  0  0  0
  -23.5630  -29.8000   20.1890 C   0  0  0  0  0  2  0  0  0  0  0  0
  -24.6330  -31.0680   22.1040 N   0  0  0  0  0  0  0  0  0  0  0  0
  -23.5040  -32.1470   23.7520 O   0  0  0  0  0  0  0  0  0  0  0  0
  -22.7120  -29.4570   22.5340 C   0  0  0  0  0  0  0  0  0  0  0  0
  -21.3850  -29.2820   22.4190 N   0  0  0  0  0  0  0  0  0  0  0  0
  -23.3980  -28.8250   23.3430 O   0  0  0  0  0  0  0  0  0  0  0  0
  -20.8920  -29.8440   21.7400 H   0  0  0  0  0  0  0  0  0  0  0  0
  -18.0060  -28.1090   22.9510 C   0  0  0  0  0  0  0  0  0  0  0  0
  -20.5700  -28.3450   23.1930 C   0  0  0  0  0  3  0  0  0  0  0  0
  -20.6530  -26.9170   22.6050 C   0  0  0  0  0  2  0  0  0  0  0  0
  -19.5350  -26.6110   21.6020 C   0  0  0  0  0  2  0  0  0  0  0  0
  -18.1640  -26.7630   22.2640 C   0  0  0  0  0  2  0  0  0  0  0  0
  -19.1360  -28.8590   23.3720 C   0  0  0  0  0  0  0  0  0  0  0  0
  -18.9350  -30.1200   23.9740 C   0  0  0  0  0  3  0  0  0  0  0  0
  -17.6370  -30.6310   24.1580 C   0  0  0  0  0  3  0  0  0  0  0  0
  -16.5210  -29.8780   23.7530 C   0  0  0  0  0  3  0  0  0  0  0  0
  -16.7070  -28.6190   23.1560 C   0  0  0  0  0  3  0  0  0  0  0  0
  -25.8720  -32.4990   23.8190 C   0  0  0  0  0  3  0  0  0  0  0  0
  -25.5650  -33.8940   24.1640 N   0  0  0  0  0  0  0  0  0  0  0  0
  -25.8940  -34.9540   23.4130 C   0  0  0  0  0  0  0  0  0  0  0  0
  -26.5590  -34.8600   22.3790 O   0  0  0  0  0  0  0  0  0  0  0  0
  -24.9710  -34.0410   24.9690 H   0  0  0  0  0  0  0  0  0  0  0  0
  -24.1730  -36.7570   23.0730 C   0  0  0  0  0  1  0  0  0  0  0  0
  -25.4080  -36.3390   23.8860 C   0  0  0  0  0  3  0  0  0  0  0  0
  -27.5390  -37.2100   24.7420 C   0  0  0  0  0  1  0  0  0  0  0  0
  -26.4450  -37.3900   23.7900 N   0  0  0  0  0  0  0  0  0  0  0  0
  -26.0410  -38.3100   23.9420 H   0  0  0  0  0  0  0  0  0  0  0  0
  -26.4030  -31.7170   25.0830 C   0  0  1  0  0  0  0  0  0  0  0  0
  -25.3230  -31.4670   26.1610 C   0  0  0  0  0  1  0  0  0  0  0  0
  -26.9840  -30.3450   24.6710 C   0  0  0  0  0  1  0  0  0  0  0  0
  -27.5590  -32.5080   25.7410 C   0  0  0  0  0  1  0  0  0  0  0  0
  1  3  1  0
  2  6  2  0
  3  7  1  0
  3  4  2  0
  4  8  1  0
  5  1  2  0
  5  2  1  0
  6  4  1  0
  6 58  1  0
  7  9  1  0
  9  8  1  0
  9 11  1  0
 10  5  1  0
 11 13  1  0
 12 11  1  0
 14 15  1  0
 14 16  1  0
 17 18  1  0
 17 19  1  0
 18 28  1  0
 18 15  1  0
 19 11  1  0
 19 16  1  0
 20 28  1  0
 21 26  1  0
 22 23  1  0
 22 21  1  0
 24 23  1  0
 24 33  1  0
 24 25  1  0
 26 20  1  0
 26 25  1  0
 27 20  2  0
 28 29  1  0
 30 31  2  0
 31 50  1  0
 32 31  1  0
 32 35  1  0
 33 34  1  0
 33 30  1  0
 34 32  2  0
 35 36  1  0
 36 37  2  0
 38 41  1  0
 38 37  1  0
 39 38  2  0
 40 39  1  0
 40 35  2  0
 41 42  1  0
 42 43  1  0
 43 44  2  0
 45 44  1  0
 45 49  1  0
 46 45  2  0
 47 42  2  0
 47 46  1  0
 48 47  1  0
 50 51  1  0
 51 54  1  0
 51 53  1  0
 52 50  2  0
 55 56  1  0
 55 30  1  0
 57 55  1  0
 59 70  2  0
 60 58  1  0
 60 65  1  0
 61 69  1  0
 61 71  1  0
 62 68  1  0
 62 64  1  0
 63 69  1  0
 64 63  1  0
 65 64  2  0
 66 67  1  0
 66 60  2  0
 67 62  2  0
 68 61  1  0
 69 59  1  0
 71 73  2  0
 72 71  1  0
 74 72  1  0
 75 84  2  0
 75 80  1  0
 76 72  1  0
 76 80  1  0
 77 76  1  0
 78 79  1  0
 78 77  1  0
 79 75  1  0
 80 81  2  0
 81 82  1  0
 83 82  2  0
 84 83  1  0
 85 59  1  0
 85 86  1  0
 85 95  1  0
 86 89  1  0
 87 91  1  0
 87 86  1  0
 88 87  2  0
 91 90  1  0
 93 91  1  0
 93 94  1  0
 93 92  1  0
 95 98  1  1
 95 96  1  0
 97 95  1  0
M  ISO  4   6 101  20 100  28 100  58 101
M  END
>  <TORSDO>  (65) 
F 18

>  <SCORE>  (65) 
-14.713

>  <name>  (65) 
66

>  <ligand_id>  (65) 
66

>  <original_smiles>  (65) 
[H]c1c([H])c([H])c2c(c1[H])C([H])([H])C([H])([H])C([H])([H])C2([H])N([H])C(=O)C1([H])N(C(=O)C([H])(N([H])C(=O)C([H])(N([H])C([H])([H])[H])C([H])([H])[H])C(C([H])([H])[H])(C([H])([H])[H])C([H])([H])[H])C([H])([H])c2c([H])c(Oc3c([H])c(C([H])([H])[H])c([H])c4c3C([H])([H])C([H])([N+]([H])([H])C3([H])C([H])([H])C([H])([H])C([H])([H])C([H])(N([H])C(=O)N5C([H])([H])C([H])([H])C([H])([H])C([H])(n6nc(-c7c([H])c([H])c(Oc8c([H])c([H])c(F)c([H])c8F)c([H])c7[H])c(C(=O)N([H])[H])c6N([H])[H])C5([H])[H])C3([H])[H])C4([H])[H])c([H])c([H])c2C1([H])[H]

>  <smiles>  (65) 
[H]c1c([H])c([H])c2c(c1[H])C([H])([H])C([H])([H])C([H])([H])C2([H])N([H])C(=O)C1([H])N(C(=O)C([H])(N([H])C(=O)C([H])(N([H])C([H])([H])[H])C([H])([H])[H])C(C([H])([H])[H])(C([H])([H])[H])C([H])([H])[H])C([H])([H])c2c([H])c(Oc3c([H])c(C([H])([H])[H])c([H])c4c3C([H])([H])C([H])([N+]([H])([H])C3([H])C([H])([H])C([H])([H])C([H])([H])C([H])(N([H])C(=O)N5C([H])([H])C([H])([H])C([H])([H])C([H])(n6nc(-c7c([H])c([H])c(Oc8c([H])c([H])c(F)c([H])c8F)c([H])c7[H])c(C(=O)N([H])[H])c6N([H])[H])C5([H])[H])C3([H])[H])C4([H])[H])c([H])c([H])c2C1([H])[H]

$$$$
67:0:0
     RDKit          3D

 88 97  0  0  1  0  0  0  0  0999 V2000
  -30.4540  -19.9620   20.3000 C   0  0  0  0  0  0  0  0  0  0  0  0
  -27.6620  -20.1460   21.0880 C   0  0  0  0  0  2  0  0  0  0  0  0
  -27.5610  -21.7520   21.0680 C   0  0  0  0  0  2  0  0  0  0  0  0
  -29.7700  -18.5340   19.7660 C   0  0  0  0  0  3  0  0  0  0  0  0
  -28.5010  -19.6270   19.8730 C   0  0  0  0  0  3  0  0  0  0  0  0
  -28.6790  -22.3790   20.1720 C   0  0  0  0  0  3  0  0  0  0  0  0
  -29.3840  -20.8780   19.8740 N   0  0  0  0  0  0  0  0  0  0  0  0
  -31.4780  -20.2250   20.8940 O   0  0  0  0  0  0  0  0  0  0  0  0
  -30.5200  -15.5620   20.0770 C   0  0  0  0  0  0  0  0  0  0  0  0
  -30.4700  -13.0590   19.2610 C   0  0  0  0  0  2  0  0  0  0  0  0
  -29.5440  -12.7930   18.0420 C   0  0  0  0  0  2  0  0  0  0  0  0
  -28.1060  -12.5210   18.5050 C   0  0  0  0  0  2  0  0  0  0  0  0
  -27.6650  -13.5300   19.5910 C   0  0  0  0  0  3  0  0  0  0  0  0
  -28.7170  -13.7210   20.7100 C   0  0  0  0  0  2  0  0  0  0  0  0
  -29.9450  -14.2370   20.0720 N   0  0  0  0  0  0  0  0  0  0  0  0
  -31.7150  -15.5140   19.7460 O   0  0  0  0  0  0  0  0  0  0  0  0
  -29.8010  -16.8830   20.2780 N   0  0  0  0  0  0  0  0  0  0  0  0
  -28.9130  -16.6730   20.7090 H   0  0  0  0  0  0  0  0  0  0  0  0
  -25.3230  -14.1540   20.3670 C   0  0  0  0  0  0  0  0  0  0  0  0
  -24.2380  -13.4100   20.7350 C   0  0  0  0  0  0  0  0  0  0  0  0
  -24.6610  -12.0450   20.6990 C   0  0  0  0  0  0  0  0  0  0  0  0
  -26.3340  -13.2470   20.1110 N   0  0  0  0  0  0  0  0  0  0  0  0
  -25.9500  -11.9720   20.3810 N   0  0  0  0  0  0  0  0  0  0  0  0
  -23.8960  -10.8080   20.8970 C   0  0  0  0  0  0  0  0  0  0  0  0
  -24.3050   -9.8260   21.8250 C   0  0  0  0  0  3  0  0  0  0  0  0
  -23.5370   -8.6540   22.0120 C   0  0  0  0  0  3  0  0  0  0  0  0
  -22.3490   -8.4570   21.2710 C   0  0  0  0  0  0  0  0  0  0  0  0
  -21.9570   -9.4290   20.3340 C   0  0  0  0  0  3  0  0  0  0  0  0
  -22.7220  -10.5920   20.1450 C   0  0  0  0  0  3  0  0  0  0  0  0
  -21.5560   -7.3380   21.3670 O   0  0  0  0  0  0  0  0  0  0  0  0
  -21.5070   -6.5870   22.5140 C   0  0  0  0  0  0  0  0  0  0  0  0
  -21.1290   -7.1440   23.7550 C   0  0  0  0  0  3  0  0  0  0  0  0
  -21.0260   -6.3200   24.8940 C   0  0  0  0  0  3  0  0  0  0  0  0
  -21.2900   -4.9420   24.7920 C   0  0  0  0  0  0  0  0  0  0  0  0
  -21.6620   -4.3840   23.5570 C   0  0  0  0  0  3  0  0  0  0  0  0
  -21.7670   -5.2050   22.4200 C   0  0  0  0  0  0  0  0  0  0  0  0
  -22.1050   -4.6590   21.2260 F   0  0  0  0  0  0  0  0  0  0  0  0
  -21.1840   -4.1480   25.8850 F   0  0  0  0  0  0  0  0  0  0  0  0
  -22.8590  -13.9330   21.0120 C   0  0  0  0  0  0  0  0  0  0  0  0
  -22.1160  -13.2710   21.8880 N   0  0  0  0  0  0  0  0  0  0  0  0
  -22.4530  -14.9660   20.4820 O   0  0  0  0  0  0  0  0  0  0  0  0
  -22.4580  -12.4310   22.3340 H   0  0  0  0  0  0  0  0  0  0  0  0
  -21.1910  -13.6080   22.1170 H   0  0  0  0  0  0  0  0  0  0  0  0
  -25.5340  -15.5200   20.2010 N   0  0  0  0  0  0  0  0  0  0  0  0
  -24.8100  -16.2080   20.3820 H   0  0  0  0  0  0  0  0  0  0  0  0
  -26.4090  -15.9340   19.9100 H   0  0  0  0  0  0  0  0  0  0  0  0
  -28.5120  -24.1740   19.5790 C   0  0  0  0  0  2  0  0  0  0  0  0
  -28.4160  -25.8140   20.0610 O   0  0  0  0  0  0  0  0  0  0  0  0
  -24.5380  -31.6980   22.9960 C   0  0  0  0  0  0  0  0  0  0  0  0
  -27.3700  -26.9180   19.9360 C   0  0  0  0  0  0  0  0  0  0  0  0
  -23.4370  -30.2730   21.3180 C   0  0  0  0  0  3  0  0  0  0  0  0
  -24.9850  -28.7540   19.8810 C   0  0  0  0  0  0  0  0  0  0  0  0
  -25.9970  -30.5890   21.2140 C   0  0  0  0  0  2  0  0  0  0  0  0
  -26.1440  -29.1850   20.5360 C   0  0  0  0  0  0  0  0  0  0  0  0
  -27.3200  -28.2890   20.5400 C   0  0  0  0  0  3  0  0  0  0  0  0
  -26.1740  -26.6740   19.2160 C   0  0  0  0  0  3  0  0  0  0  0  0
  -25.0320  -27.5260   19.1980 C   0  0  0  0  0  3  0  0  0  0  0  0
  -23.7200  -29.6190   19.9340 C   0  0  0  0  0  2  0  0  0  0  0  0
  -24.6780  -30.8840   21.8970 N   0  0  0  0  0  0  0  0  0  0  0  0
  -23.4290  -31.9250   23.5060 O   0  0  0  0  0  0  0  0  0  0  0  0
  -22.7740  -29.2360   22.2620 C   0  0  0  0  0  0  0  0  0  0  0  0
  -21.4490  -29.0320   22.1410 N   0  0  0  0  0  0  0  0  0  0  0  0
  -23.4630  -28.6100   23.0740 O   0  0  0  0  0  0  0  0  0  0  0  0
  -20.9440  -29.5860   21.4630 H   0  0  0  0  0  0  0  0  0  0  0  0
  -18.1060  -27.7200   22.6770 C   0  0  0  0  0  0  0  0  0  0  0  0
  -20.6640  -28.0450   22.8910 C   0  0  0  0  0  3  0  0  0  0  0  0
  -20.7880  -26.6400   22.2570 C   0  0  0  0  0  2  0  0  0  0  0  0
  -19.6720  -26.3320   21.2540 C   0  0  0  0  0  2  0  0  0  0  0  0
  -18.3030  -26.4090   21.9350 C   0  0  0  0  0  2  0  0  0  0  0  0
  -19.2130  -28.4960   23.1120 C   0  0  0  0  0  0  0  0  0  0  0  0
  -18.9740  -29.7200   23.7710 C   0  0  0  0  0  3  0  0  0  0  0  0
  -17.6590  -30.1710   23.9970 C   0  0  0  0  0  3  0  0  0  0  0  0
  -16.5670  -29.3950   23.5740 C   0  0  0  0  0  3  0  0  0  0  0  0
  -16.7910  -28.1700   22.9200 C   0  0  0  0  0  3  0  0  0  0  0  0
  -25.7640  -32.3990   23.6570 C   0  0  0  0  0  3  0  0  0  0  0  0
  -25.3650  -33.7700   24.0220 N   0  0  0  0  0  0  0  0  0  0  0  0
  -25.6340  -34.8690   23.3030 C   0  0  0  0  0  0  0  0  0  0  0  0
  -26.3050  -34.8380   22.2680 O   0  0  0  0  0  0  0  0  0  0  0  0
  -24.7630  -33.8640   24.8270 H   0  0  0  0  0  0  0  0  0  0  0  0
  -23.7970  -36.5720   23.0330 C   0  0  0  0  0  1  0  0  0  0  0  0
  -25.0750  -36.2170   23.8080 C   0  0  0  0  0  3  0  0  0  0  0  0
  -27.1680  -37.2140   24.6260 C   0  0  0  0  0  1  0  0  0  0  0  0
  -26.0400  -37.3340   23.7040 N   0  0  0  0  0  0  0  0  0  0  0  0
  -25.5810  -38.2240   23.8820 H   0  0  0  0  0  0  0  0  0  0  0  0
  -26.2960  -31.6370   24.9330 C   0  0  1  0  0  0  0  0  0  0  0  0
  -25.2010  -31.3290   25.9820 C   0  0  0  0  0  1  0  0  0  0  0  0
  -26.9540  -30.2950   24.5420 C   0  0  0  0  0  1  0  0  0  0  0  0
  -27.3940  -32.4790   25.6260 C   0  0  0  0  0  1  0  0  0  0  0  0
  1  8  2  0
  3  2  1  0
  4  5  1  0
  4 17  1  0
  4  1  1  0
  5  7  1  0
  5  2  1  0
  6 47  1  0
  6  3  1  0
  7  6  1  0
  7  1  1  0
  9 17  1  0
 10 15  1  0
 11 12  1  0
 11 10  1  0
 13 12  1  0
 13 22  1  0
 13 14  1  0
 15  9  1  0
 15 14  1  0
 16  9  2  0
 17 18  1  0
 19 20  2  0
 20 39  1  0
 21 20  1  0
 21 24  1  0
 22 19  1  0
 22 23  1  0
 23 21  2  0
 24 25  1  0
 25 26  2  0
 27 30  1  0
 27 26  1  0
 28 27  2  0
 29 28  1  0
 29 24  2  0
 30 31  1  0
 31 32  1  0
 32 33  2  0
 34 33  1  0
 34 38  1  0
 35 34  2  0
 36 31  2  0
 36 35  1  0
 37 36  1  0
 39 40  1  0
 40 43  1  0
 40 42  1  0
 41 39  2  0
 44 19  1  0
 44 45  1  0
 46 44  1  0
 47 48  1  0
 49 60  2  0
 50 48  1  0
 50 55  1  0
 51 59  1  0
 51 61  1  0
 52 58  1  0
 52 54  1  0
 53 59  1  0
 54 55  2  0
 54 53  1  0
 56 50  2  0
 57 56  1  0
 57 52  2  0
 58 51  1  0
 59 49  1  0
 61 63  2  0
 62 61  1  0
 64 62  1  0
 65 74  2  0
 65 70  1  0
 66 62  1  0
 66 70  1  0
 67 66  1  0
 68 69  1  0
 68 67  1  0
 69 65  1  0
 70 71  2  0
 71 72  1  0
 73 72  2  0
 74 73  1  0
 75 49  1  0
 75 76  1  0
 75 85  1  0
 76 79  1  0
 77 81  1  0
 77 76  1  0
 78 77  2  0
 81 80  1  0
 83 81  1  0
 83 84  1  0
 83 82  1  0
 85 88  1  1
 85 86  1  0
 87 85  1  0
M  ISO  4   9 100  17 100  47 101  48 101
M  END
>  <TORSDO>  (66) 
F 17

>  <SCORE>  (66) 
-14.839

>  <name>  (66) 
67

>  <ligand_id>  (66) 
67

>  <original_smiles>  (66) 
[H]c1c([H])c([H])c2c(c1[H])C([H])([H])C([H])([H])C([H])([H])C2([H])N([H])C(=O)C1([H])N(C(=O)C([H])(N([H])C(=O)C([H])(N([H])C([H])([H])[H])C([H])([H])[H])C(C([H])([H])[H])(C([H])([H])[H])C([H])([H])[H])C([H])([H])c2c([H])c(OC([H])([H])C3([H])N4C(=O)C([H])(N([H])C(=O)N5C([H])([H])C([H])([H])C([H])([H])C([H])(n6nc(-c7c([H])c([H])c(Oc8c([H])c([H])c(F)c([H])c8F)c([H])c7[H])c(C(=O)N([H])[H])c6N([H])[H])C5([H])[H])C4([H])C([H])([H])C3([H])[H])c([H])c([H])c2C1([H])[H]

>  <smiles>  (66) 
[H]c1c([H])c([H])c2c(c1[H])C([H])([H])C([H])([H])C([H])([H])C2([H])N([H])C(=O)C1([H])N(C(=O)C([H])(N([H])C(=O)C([H])(N([H])C([H])([H])[H])C([H])([H])[H])C(C([H])([H])[H])(C([H])([H])[H])C([H])([H])[H])C([H])([H])c2c([H])c(OC([H])([H])C3([H])N4C(=O)C([H])(N([H])C(=O)N5C([H])([H])C([H])([H])C([H])([H])C([H])(n6nc(-c7c([H])c([H])c(Oc8c([H])c([H])c(F)c([H])c8F)c([H])c7[H])c(C(=O)N([H])[H])c6N([H])[H])C5([H])[H])C4([H])C([H])([H])C3([H])[H])c([H])c([H])c2C1([H])[H]

$$$$
68:0:0
     RDKit          3D

 90 98  0  0  1  0  0  0  0  0999 V2000
  -28.3600  -19.9270   20.7820 C   0  0  0  0  0  3  0  0  0  0  0  0
  -27.7050  -21.0620   21.2850 C   0  0  0  0  0  3  0  0  0  0  0  0
  -29.4920  -21.3690   19.1820 C   0  0  0  0  0  3  0  0  0  0  0  0
  -29.2770  -20.0370   19.7250 C   0  0  0  0  0  0  0  0  0  0  0  0
  -27.9320  -22.3600   20.7650 C   0  0  0  0  0  0  0  0  0  0  0  0
  -28.8300  -22.5670   19.6760 C   0  0  0  0  0  0  0  0  0  0  0  0
  -27.1830  -23.4920   21.4430 C   0  0  0  0  0  1  0  0  0  0  0  0
  -29.8750  -18.7030   19.1190 C   0  0  0  0  0  2  0  0  0  0  0  0
  -30.4040  -17.4610   19.9790 C   0  0  0  0  0  3  0  0  0  0  0  0
  -31.4640  -17.8830   20.9810 C   0  0  0  0  0  1  0  0  0  0  0  0
  -30.0450  -16.2090   19.7860 N   0  0  0  0  0  2  0  0  0  0  0  0
  -30.9130  -15.0890   20.0220 C   0  0  0  0  0  0  0  0  0  0  0  0
  -30.7560  -12.7030   19.3640 C   0  0  0  0  0  2  0  0  0  0  0  0
  -29.8430  -12.6410   18.1210 C   0  0  0  0  0  2  0  0  0  0  0  0
  -28.3760  -12.4770   18.5590 C   0  0  0  0  0  2  0  0  0  0  0  0
  -27.9670  -13.5210   19.6350 C   0  0  0  0  0  3  0  0  0  0  0  0
  -29.0080  -13.6050   20.7710 C   0  0  0  0  0  2  0  0  0  0  0  0
  -30.3220  -13.8600   20.1760 N   0  0  0  0  0  0  0  0  0  0  0  0
  -32.1320  -15.1420   19.8430 O   0  0  0  0  0  0  0  0  0  0  0  0
  -25.6240  -14.1940   20.4370 C   0  0  0  0  0  0  0  0  0  0  0  0
  -24.5370  -13.4530   20.8150 C   0  0  0  0  0  0  0  0  0  0  0  0
  -24.9460  -12.0860   20.7470 C   0  0  0  0  0  0  0  0  0  0  0  0
  -26.6250  -13.2770   20.1510 N   0  0  0  0  0  0  0  0  0  0  0  0
  -26.2260  -12.0040   20.4030 N   0  0  0  0  0  0  0  0  0  0  0  0
  -24.1730  -10.8490   20.9250 C   0  0  0  0  0  0  0  0  0  0  0  0
  -24.5750   -9.8490   21.8390 C   0  0  0  0  0  3  0  0  0  0  0  0
  -23.8070   -8.6770   22.0010 C   0  0  0  0  0  3  0  0  0  0  0  0
  -22.6220   -8.4940   21.2470 C   0  0  0  0  0  0  0  0  0  0  0  0
  -22.2390   -9.4810   20.3230 C   0  0  0  0  0  3  0  0  0  0  0  0
  -23.0080  -10.6440   20.1600 C   0  0  0  0  0  3  0  0  0  0  0  0
  -21.8270   -7.3770   21.3200 O   0  0  0  0  0  0  0  0  0  0  0  0
  -21.7480   -6.6240   22.4640 C   0  0  0  0  0  0  0  0  0  0  0  0
  -21.2990   -7.1720   23.6850 C   0  0  0  0  0  3  0  0  0  0  0  0
  -21.1630   -6.3460   24.8180 C   0  0  0  0  0  3  0  0  0  0  0  0
  -21.4670   -4.9740   24.7330 C   0  0  0  0  0  0  0  0  0  0  0  0
  -21.9120   -4.4270   23.5160 C   0  0  0  0  0  3  0  0  0  0  0  0
  -22.0470   -5.2500   22.3850 C   0  0  0  0  0  0  0  0  0  0  0  0
  -22.4540   -4.7130   21.2090 F   0  0  0  0  0  0  0  0  0  0  0  0
  -21.3310   -4.1780   25.8190 F   0  0  0  0  0  0  0  0  0  0  0  0
  -23.1650  -13.9780   21.1300 C   0  0  0  0  0  0  0  0  0  0  0  0
  -22.4340  -13.2900   22.0000 N   0  0  0  0  0  0  0  0  0  0  0  0
  -22.7520  -15.0280   20.6400 O   0  0  0  0  0  0  0  0  0  0  0  0
  -22.7800  -12.4340   22.4070 H   0  0  0  0  0  0  0  0  0  0  0  0
  -21.5190  -13.6240   22.2610 H   0  0  0  0  0  0  0  0  0  0  0  0
  -25.8430  -15.5600   20.2910 N   0  0  0  0  0  0  0  0  0  0  0  0
  -25.1150  -16.2480   20.4520 H   0  0  0  0  0  0  0  0  0  0  0  0
  -26.7160  -15.9650   19.9780 H   0  0  0  0  0  0  0  0  0  0  0  0
  -29.1720  -24.0440   19.1430 C   0  0  0  0  0  2  0  0  0  0  0  0
  -28.0430  -25.1720   18.8640 C   0  0  0  0  0  2  0  0  0  0  0  0
  -28.3080  -26.6520   18.9210 O   0  0  0  0  0  0  0  0  0  0  0  0
  -24.6110  -31.4740   22.8940 C   0  0  0  0  0  0  0  0  0  0  0  0
  -27.1920  -27.5110   19.0470 C   0  0  0  0  0  0  0  0  0  0  0  0
  -23.3620  -30.2790   21.1360 C   0  0  0  0  0  3  0  0  0  0  0  0
  -24.7800  -29.0310   19.4090 C   0  0  0  0  0  0  0  0  0  0  0  0
  -25.8750  -30.7280   20.8610 C   0  0  0  0  0  2  0  0  0  0  0  0
  -25.9680  -29.4650   20.0110 C   0  0  0  0  0  0  0  0  0  0  0  0
  -27.1760  -28.7210   19.8240 C   0  0  0  0  0  3  0  0  0  0  0  0
  -25.9760  -27.1570   18.4180 C   0  0  0  0  0  3  0  0  0  0  0  0
  -24.7910  -27.8870   18.6000 C   0  0  0  0  0  3  0  0  0  0  0  0
  -23.5140  -29.8280   19.6590 C   0  0  0  0  0  2  0  0  0  0  0  0
  -24.6390  -30.8400   21.6860 N   0  0  0  0  0  0  0  0  0  0  0  0
  -23.5510  -31.6230   23.5200 O   0  0  0  0  0  0  0  0  0  0  0  0
  -22.7980  -29.1040   21.9680 C   0  0  0  0  0  0  0  0  0  0  0  0
  -21.4710  -28.8990   21.8980 N   0  0  0  0  0  0  0  0  0  0  0  0
  -23.5440  -28.3850   22.6360 O   0  0  0  0  0  0  0  0  0  0  0  0
  -20.9250  -29.5170   21.3170 H   0  0  0  0  0  0  0  0  0  0  0  0
  -18.1720  -27.5270   22.4510 C   0  0  0  0  0  0  0  0  0  0  0  0
  -20.7340  -27.8270   22.5690 C   0  0  0  0  0  3  0  0  0  0  0  0
  -20.8270  -26.5070   21.7730 C   0  0  0  0  0  2  0  0  0  0  0  0
  -19.6570  -26.3060   20.8060 C   0  0  0  0  0  2  0  0  0  0  0  0
  -18.3290  -26.3010   21.5660 C   0  0  0  0  0  2  0  0  0  0  0  0
  -19.3030  -28.2510   22.9130 C   0  0  0  0  0  0  0  0  0  0  0  0
  -19.1020  -29.3960   23.7140 C   0  0  0  0  0  3  0  0  0  0  0  0
  -17.8040  -29.8140   24.0590 C   0  0  0  0  0  3  0  0  0  0  0  0
  -16.6880  -29.0860   23.6080 C   0  0  0  0  0  3  0  0  0  0  0  0
  -16.8740  -27.9450   22.8060 C   0  0  0  0  0  3  0  0  0  0  0  0
  -25.9070  -32.0670   23.5340 C   0  0  0  0  0  3  0  0  0  0  0  0
  -26.4940  -31.1720   24.6930 C   0  0  1  0  0  0  0  0  0  0  0  0
  -25.4530  -30.7960   25.7730 C   0  0  0  0  0  1  0  0  0  0  0  0
  -27.0840  -29.8580   24.1270 C   0  0  0  0  0  1  0  0  0  0  0  0
  -27.6570  -31.9130   25.3910 C   0  0  0  0  0  1  0  0  0  0  0  0
  -25.5780  -33.4090   24.0360 N   0  0  0  0  0  0  0  0  0  0  0  0
  -25.8470  -34.5490   23.3880 C   0  0  0  0  0  0  0  0  0  0  0  0
  -26.4620  -34.5850   22.3200 O   0  0  0  0  0  0  0  0  0  0  0  0
  -25.0310  -33.4570   24.8840 H   0  0  0  0  0  0  0  0  0  0  0  0
  -24.0510  -36.3130   23.3380 C   0  0  0  0  0  1  0  0  0  0  0  0
  -25.3490  -35.8620   24.0260 C   0  0  0  0  0  3  0  0  0  0  0  0
  -27.5010  -36.7290   24.8370 C   0  0  0  0  0  1  0  0  0  0  0  0
  -26.3450  -36.9560   23.9730 N   0  0  0  0  0  0  0  0  0  0  0  0
  -25.9200  -37.8400   24.2410 H   0  0  0  0  0  0  0  0  0  0  0  0
  1  2  1  0
  3  6  2  0
  3  4  1  0
  4  1  2  0
  5  2  2  0
  5  7  1  0
  6  5  1  0
  8  4  1  0
  8  9  1  0
  9 10  1  0
 11  9  1  0
 11 12  1  0
 12 18  1  0
 13 18  1  0
 14 15  1  0
 14 13  1  0
 16 15  1  0
 16 23  1  0
 16 17  1  0
 18 17  1  0
 19 12  2  0
 20 21  2  0
 21 40  1  0
 22 21  1  0
 22 25  1  0
 23 24  1  0
 23 20  1  0
 24 22  2  0
 25 26  1  0
 26 27  2  0
 28 31  1  0
 28 27  1  0
 29 28  2  0
 30 29  1  0
 30 25  2  0
 31 32  1  0
 32 33  1  0
 33 34  2  0
 35 34  1  0
 35 39  1  0
 36 35  2  0
 37 32  2  0
 37 36  1  0
 38 37  1  0
 40 41  1  0
 41 44  1  0
 41 43  1  0
 42 40  2  0
 45 20  1  0
 45 46  1  0
 47 45  1  0
 48  6  1  0
 49 50  1  0
 49 48  1  0
 50 52  1  0
 51 62  2  0
 52 57  1  0
 53 61  1  0
 53 63  1  0
 54 60  1  0
 54 56  1  0
 55 61  1  0
 56 55  1  0
 57 56  2  0
 58 59  1  0
 58 52  2  0
 59 54  2  0
 60 53  1  0
 61 51  1  0
 63 65  2  0
 64 63  1  0
 66 64  1  0
 67 76  2  0
 67 72  1  0
 68 64  1  0
 68 72  1  0
 69 68  1  0
 70 71  1  0
 70 69  1  0
 71 67  1  0
 72 73  2  0
 73 74  1  0
 75 74  2  0
 76 75  1  0
 77 51  1  0
 77 82  1  0
 77 78  1  0
 78 81  1  1
 78 79  1  0
 80 78  1  0
 82 85  1  0
 83 87  1  0
 83 82  1  0
 84 83  2  0
 87 86  1  0
 89 87  1  0
 89 90  1  0
 89 88  1  0
M  ISO  4  11 100  12 100  49 101  50 101
M  END
>  <TORSDO>  (67) 
F 20

>  <SCORE>  (67) 
-11.545

>  <name>  (67) 
68

>  <ligand_id>  (67) 
68

>  <original_smiles>  (67) 
[H]c1c([H])c([H])c2c(c1[H])C([H])([H])C([H])([H])C([H])([H])C2([H])N([H])C(=O)C1([H])N(C(=O)C([H])(N([H])C(=O)C([H])(N([H])C([H])([H])[H])C([H])([H])[H])C(C([H])([H])[H])(C([H])([H])[H])C([H])([H])[H])C([H])([H])c2c([H])c(OC([H])([H])C([H])([H])c3c([H])c(C([H])([H])C(=NC(=O)N4C([H])([H])C([H])([H])C([H])([H])C([H])(n5nc(-c6c([H])c([H])c(Oc7c([H])c([H])c(F)c([H])c7F)c([H])c6[H])c(C(=O)N([H])[H])c5N([H])[H])C4([H])[H])C([H])([H])[H])c([H])c([H])c3C([H])([H])[H])c([H])c([H])c2C1([H])[H]

>  <smiles>  (67) 
[H]c1c([H])c([H])c2c(c1[H])C([H])([H])C([H])([H])C([H])([H])C2([H])N([H])C(=O)C1([H])N(C(=O)C([H])(N([H])C(=O)C([H])(N([H])C([H])([H])[H])C([H])([H])[H])C(C([H])([H])[H])(C([H])([H])[H])C([H])([H])[H])C([H])([H])c2c([H])c(OC([H])([H])C([H])([H])c3c([H])c(C([H])([H])C(=NC(=O)N4C([H])([H])C([H])([H])C([H])([H])C([H])(n5nc(-c6c([H])c([H])c(Oc7c([H])c([H])c(F)c([H])c7F)c([H])c6[H])c(C(=O)N([H])[H])c5N([H])[H])C4([H])[H])C([H])([H])[H])c([H])c([H])c3C([H])([H])[H])c([H])c([H])c2C1([H])[H]

$$$$
69:0:0
     RDKit          3D

 94102  0  0  1  0  0  0  0  0999 V2000
  -33.0820  -21.6780   21.1470 C   0  0  0  0  0  3  0  0  0  0  0  0
  -32.6620  -20.3370   21.1650 C   0  0  0  0  0  3  0  0  0  0  0  0
  -32.4520  -22.6050   20.3010 C   0  0  0  0  0  3  0  0  0  0  0  0
  -30.9340  -20.8540   19.5330 C   0  0  0  0  0  3  0  0  0  0  0  0
  -31.5840  -19.9030   20.3630 C   0  0  0  0  0  0  0  0  0  0  0  0
  -31.3680  -22.2080   19.4920 C   0  0  0  0  0  0  0  0  0  0  0  0
  -31.1810  -18.4170   20.3630 C   0  0  0  0  0  2  0  0  0  0  0  0
  -31.0070  -17.8090   21.7810 C   0  0  0  0  0  2  0  0  0  0  0  0
  -30.9760  -16.2560   21.9440 C   0  0  0  0  0  2  0  0  0  0  0  0
  -30.6210  -14.5130   20.2050 C   0  0  0  0  0  0  0  0  0  0  0  0
  -30.2630  -12.4150   18.9120 C   0  0  0  0  0  2  0  0  0  0  0  0
  -29.2620  -12.6720   17.7620 C   0  0  0  0  0  2  0  0  0  0  0  0
  -27.8040  -12.4940   18.2350 C   0  0  0  0  0  2  0  0  0  0  0  0
  -27.5340  -13.2490   19.5690 C   0  0  0  0  0  3  0  0  0  0  0  0
  -28.6460  -12.9420   20.6100 C   0  0  0  0  0  2  0  0  0  0  0  0
  -29.9260  -13.3460   20.0100 N   0  0  0  0  0  0  0  0  0  0  0  0
  -31.7300  -14.6840   19.6810 O   0  0  0  0  0  0  0  0  0  0  0  0
  -28.7320  -16.0110   20.9660 C   0  0  0  0  0  1  0  0  0  0  0  0
  -30.1030  -15.4710   21.0430 N   0  0  0  0  0  0  0  0  0  0  0  0
  -25.1640  -13.8810   20.3420 C   0  0  0  0  0  0  0  0  0  0  0  0
  -24.1040  -13.1160   20.7410 C   0  0  0  0  0  0  0  0  0  0  0  0
  -24.5580  -11.7630   20.7030 C   0  0  0  0  0  0  0  0  0  0  0  0
  -26.1980  -12.9920   20.0900 N   0  0  0  0  0  0  0  0  0  0  0  0
  -25.8380  -11.7170   20.3620 N   0  0  0  0  0  0  0  0  0  0  0  0
  -23.8420  -10.5010   20.9260 C   0  0  0  0  0  0  0  0  0  0  0  0
  -24.2980   -9.5460   21.8620 C   0  0  0  0  0  3  0  0  0  0  0  0
  -23.5740   -8.3500   22.0610 C   0  0  0  0  0  3  0  0  0  0  0  0
  -22.3900   -8.1000   21.3280 C   0  0  0  0  0  0  0  0  0  0  0  0
  -21.9500   -9.0480   20.3860 C   0  0  0  0  0  3  0  0  0  0  0  0
  -22.6740  -10.2370   20.1850 C   0  0  0  0  0  3  0  0  0  0  0  0
  -21.6400   -6.9530   21.4360 O   0  0  0  0  0  0  0  0  0  0  0  0
  -21.6120   -6.2240   22.5970 C   0  0  0  0  0  0  0  0  0  0  0  0
  -21.2180   -6.7910   23.8280 C   0  0  0  0  0  3  0  0  0  0  0  0
  -21.1420   -5.9860   24.9810 C   0  0  0  0  0  3  0  0  0  0  0  0
  -21.4540   -4.6130   24.9040 C   0  0  0  0  0  0  0  0  0  0  0  0
  -21.8450   -4.0470   23.6780 C   0  0  0  0  0  3  0  0  0  0  0  0
  -21.9220   -4.8480   22.5270 C   0  0  0  0  0  0  0  0  0  0  0  0
  -22.2830   -4.2990   21.3430 F   0  0  0  0  0  0  0  0  0  0  0  0
  -21.3640   -3.8370   26.0080 F   0  0  0  0  0  0  0  0  0  0  0  0
  -22.7140  -13.5980   21.0450 C   0  0  0  0  0  0  0  0  0  0  0  0
  -22.0080  -12.9050   21.9310 N   0  0  0  0  0  0  0  0  0  0  0  0
  -22.2670  -14.6220   20.5280 O   0  0  0  0  0  0  0  0  0  0  0  0
  -22.3820  -12.0720   22.3620 H   0  0  0  0  0  0  0  0  0  0  0  0
  -21.0750  -13.2040   22.1750 H   0  0  0  0  0  0  0  0  0  0  0  0
  -25.3220  -15.2490   20.1450 N   0  0  0  0  0  0  0  0  0  0  0  0
  -24.5410  -15.8870   20.2570 H   0  0  0  0  0  0  0  0  0  0  0  0
  -26.1600  -15.7000   19.8020 H   0  0  0  0  0  0  0  0  0  0  0  0
  -30.7420  -23.2360   18.5440 C   0  0  0  0  0  2  0  0  0  0  0  0
  -30.0970  -24.3700   19.2600 N   0  0  0  0  0  4  0  0  0  0  0  0
  -30.7860  -24.7790   19.8700 H   0  0  0  0  0  0  0  0  0  0  0  0
  -29.3620  -23.9990   19.8400 H   0  0  0  0  0  0  0  0  0  0  0  0
  -29.5400  -25.4260   18.3670 C   0  0  0  0  0  2  0  0  0  0  0  0
  -29.3120  -26.7990   19.0550 C   0  0  0  0  0  2  0  0  0  0  0  0
  -28.4190  -26.7290   20.1700 O   0  0  0  0  0  0  0  0  0  0  0  0
  -24.5620  -31.8950   23.2360 C   0  0  0  0  0  0  0  0  0  0  0  0
  -27.2790  -27.5020   20.1200 C   0  0  0  0  0  0  0  0  0  0  0  0
  -23.3780  -30.4860   21.5810 C   0  0  0  0  0  3  0  0  0  0  0  0
  -24.8570  -28.9660   20.1550 C   0  0  0  0  0  0  0  0  0  0  0  0
  -25.9020  -30.8670   21.4030 C   0  0  0  0  0  2  0  0  0  0  0  0
  -26.0060  -29.5040   20.7470 C   0  0  0  0  0  0  0  0  0  0  0  0
  -27.2210  -28.7770   20.7290 C   0  0  0  0  0  3  0  0  0  0  0  0
  -26.1110  -26.9730   19.5330 C   0  0  0  0  0  3  0  0  0  0  0  0
  -24.9030  -27.6990   19.5480 C   0  0  0  0  0  3  0  0  0  0  0  0
  -23.6020  -29.8130   20.1990 C   0  0  0  0  0  2  0  0  0  0  0  0
  -24.6310  -31.0960   22.1310 N   0  0  0  0  0  0  0  0  0  0  0  0
  -23.4760  -32.1590   23.7720 O   0  0  0  0  0  0  0  0  0  0  0  0
  -22.7280  -29.4570   22.5370 C   0  0  0  0  0  0  0  0  0  0  0  0
  -21.4020  -29.2790   22.4160 N   0  0  0  0  0  0  0  0  0  0  0  0
  -23.4140  -28.8270   23.3450 O   0  0  0  0  0  0  0  0  0  0  0  0
  -20.9070  -29.8420   21.7400 H   0  0  0  0  0  0  0  0  0  0  0  0
  -18.0300  -28.0850   22.9250 C   0  0  0  0  0  0  0  0  0  0  0  0
  -20.5900  -28.3330   23.1820 C   0  0  0  0  0  3  0  0  0  0  0  0
  -20.6840  -26.9070   22.5890 C   0  0  0  0  0  2  0  0  0  0  0  0
  -19.5750  -26.5990   21.5790 C   0  0  0  0  0  2  0  0  0  0  0  0
  -18.1980  -26.7420   22.2350 C   0  0  0  0  0  2  0  0  0  0  0  0
  -19.1550  -28.8390   23.3560 C   0  0  0  0  0  0  0  0  0  0  0  0
  -18.9440  -30.0970   23.9620 C   0  0  0  0  0  3  0  0  0  0  0  0
  -17.6430  -30.6020   24.1410 C   0  0  0  0  0  3  0  0  0  0  0  0
  -16.5340  -29.8450   23.7270 C   0  0  0  0  0  3  0  0  0  0  0  0
  -16.7280  -28.5890   23.1260 C   0  0  0  0  0  3  0  0  0  0  0  0
  -25.8440  -32.5340   23.8590 C   0  0  0  0  0  3  0  0  0  0  0  0
  -25.5260  -33.9310   24.1850 N   0  0  0  0  0  0  0  0  0  0  0  0
  -25.8570  -34.9830   23.4280 C   0  0  0  0  0  0  0  0  0  0  0  0
  -26.5310  -34.8810   22.3980 O   0  0  0  0  0  0  0  0  0  0  0  0
  -24.9260  -34.0840   24.9840 H   0  0  0  0  0  0  0  0  0  0  0  0
  -24.1180  -36.7630   23.0610 C   0  0  0  0  0  1  0  0  0  0  0  0
  -25.3570  -36.3680   23.8800 C   0  0  0  0  0  3  0  0  0  0  0  0
  -27.4790  -37.2660   24.7280 C   0  0  0  0  0  1  0  0  0  0  0  0
  -26.3810  -37.4270   23.7750 N   0  0  0  0  0  0  0  0  0  0  0  0
  -25.9670  -38.3430   23.9230 H   0  0  0  0  0  0  0  0  0  0  0  0
  -26.3620  -31.7680   25.1380 C   0  0  1  0  0  0  0  0  0  0  0  0
  -25.2660  -31.5250   26.2000 C   0  0  0  0  0  1  0  0  0  0  0  0
  -26.9600  -30.3940   24.7530 C   0  0  0  0  0  1  0  0  0  0  0  0
  -27.4990  -32.5730   25.8100 C   0  0  0  0  0  1  0  0  0  0  0  0
  1  2  1  0
  3  1  2  0
  4  5  1  0
  5  7  1  0
  5  2  2  0
  6  4  2  0
  6  3  1  0
  7  8  1  0
  8  9  1  0
 10 19  1  0
 11 16  1  0
 12 13  1  0
 12 11  1  0
 14 13  1  0
 14 23  1  0
 14 15  1  0
 16 10  1  0
 16 15  1  0
 17 10  2  0
 18 19  1  0
 19  9  1  0
 20 21  2  0
 21 40  1  0
 22 21  1  0
 22 25  1  0
 23 20  1  0
 23 24  1  0
 24 22  2  0
 25 26  1  0
 26 27  2  0
 28 31  1  0
 28 27  1  0
 29 28  2  0
 30 29  1  0
 30 25  2  0
 31 32  1  0
 32 33  1  0
 33 34  2  0
 35 34  1  0
 35 39  1  0
 36 35  2  0
 37 32  2  0
 37 36  1  0
 38 37  1  0
 40 41  1  0
 41 44  1  0
 41 43  1  0
 42 40  2  0
 45 46  1  0
 45 20  1  0
 47 45  1  0
 48 49  1  0
 48  6  1  0
 49 51  1  0
 49 50  1  0
 52 53  1  0
 52 49  1  0
 53 54  1  0
 55 66  2  0
 56 54  1  0
 56 61  1  0
 57 65  1  0
 57 67  1  0
 58 64  1  0
 58 60  1  0
 59 65  1  0
 60 59  1  0
 61 60  2  0
 62 63  1  0
 62 56  2  0
 63 58  2  0
 64 57  1  0
 65 55  1  0
 67 69  2  0
 68 67  1  0
 70 68  1  0
 71 80  2  0
 71 76  1  0
 72 68  1  0
 72 76  1  0
 73 72  1  0
 74 75  1  0
 74 73  1  0
 75 71  1  0
 76 77  2  0
 77 78  1  0
 79 78  2  0
 80 79  1  0
 81 55  1  0
 81 82  1  0
 81 91  1  0
 82 85  1  0
 83 87  1  0
 83 82  1  0
 84 83  2  0
 87 86  1  0
 89 87  1  0
 89 90  1  0
 89 88  1  0
 91 94  1  1
 91 92  1  0
 93 91  1  0
M  ISO  4  10 100  19 100  53 101  54 101
M  END
>  <TORSDO>  (68) 
F 23

>  <SCORE>  (68) 
-12.443

>  <name>  (68) 
69

>  <ligand_id>  (68) 
69

>  <original_smiles>  (68) 
[H]c1c([H])c([H])c2c(c1[H])C([H])([H])C([H])([H])C([H])([H])C2([H])N([H])C(=O)C1([H])N(C(=O)C([H])(N([H])C(=O)C([H])(N([H])C([H])([H])[H])C([H])([H])[H])C(C([H])([H])[H])(C([H])([H])[H])C([H])([H])[H])C([H])([H])c2c([H])c(OC([H])([H])C([H])([H])[N+]([H])([H])C([H])([H])c3c([H])c([H])c([H])c(C([H])([H])C([H])([H])C([H])([H])N(C(=O)N4C([H])([H])C([H])([H])C([H])([H])C([H])(n5nc(-c6c([H])c([H])c(Oc7c([H])c([H])c(F)c([H])c7F)c([H])c6[H])c(C(=O)N([H])[H])c5N([H])[H])C4([H])[H])C([H])([H])[H])c3[H])c([H])c([H])c2C1([H])[H]

>  <smiles>  (68) 
[H]c1c([H])c([H])c2c(c1[H])C([H])([H])C([H])([H])C([H])([H])C2([H])N([H])C(=O)C1([H])N(C(=O)C([H])(N([H])C(=O)C([H])(N([H])C([H])([H])[H])C([H])([H])[H])C(C([H])([H])[H])(C([H])([H])[H])C([H])([H])[H])C([H])([H])c2c([H])c(OC([H])([H])C([H])([H])[N+]([H])([H])C([H])([H])c3c([H])c([H])c([H])c(C([H])([H])C([H])([H])C([H])([H])N(C(=O)N4C([H])([H])C([H])([H])C([H])([H])C([H])(n5nc(-c6c([H])c([H])c(Oc7c([H])c([H])c(F)c([H])c7F)c([H])c6[H])c(C(=O)N([H])[H])c5N([H])[H])C4([H])[H])C([H])([H])[H])c3[H])c([H])c([H])c2C1([H])[H]

$$$$
70:0:0
     RDKit          3D

100109  0  0  1  0  0  0  0  0999 V2000
  -31.9930  -24.4790   20.3150 C   0  0  0  0  0  3  0  0  0  0  0  0
  -30.1330  -25.2190   18.3690 C   0  0  0  0  0  3  0  0  0  0  0  0
  -31.6930  -23.5750   19.2680 C   0  0  0  0  0  0  0  0  0  0  0  0
  -30.7690  -23.9680   18.2680 C   0  0  0  0  0  0  0  0  0  0  0  0
  -30.3600  -26.0780   19.4660 C   0  0  0  0  0  0  0  0  0  0  0  0
  -31.3280  -25.7300   20.4360 C   0  0  0  0  0  0  0  0  0  0  0  0
  -30.3880  -23.0650   17.1060 C   0  0  0  0  0  1  0  0  0  0  0  0
  -33.7050  -19.8120   20.3630 C   0  0  0  0  0  0  0  0  0  0  0  0
  -34.4540  -20.7770   19.4430 C   0  0  0  0  0  2  0  0  0  0  0  0
  -33.8480  -22.1960   19.5040 C   0  0  0  0  0  2  0  0  0  0  0  0
  -31.6260  -21.2440   20.2890 C   0  0  0  0  0  2  0  0  0  0  0  0
  -32.3230  -22.1760   19.2710 C   0  0  0  0  0  3  0  0  0  0  0  0
  -32.1760  -19.8010   20.2200 C   0  0  0  0  0  3  0  0  0  0  0  0
  -34.3190  -19.0880   21.1540 O   0  0  0  0  0  0  0  0  0  0  0  0
  -31.6690  -18.9420   21.3120 N   0  0  0  0  0  4  0  0  0  0  0  0
  -31.3160  -19.5130   22.0620 H   0  0  0  0  0  0  0  0  0  0  0  0
  -32.5060  -18.4810   21.6490 H   0  0  0  0  0  0  0  0  0  0  0  0
  -30.6770  -17.9230   20.9080 C   0  0  0  0  0  2  0  0  0  0  0  0
  -30.4520  -16.8660   22.0150 C   0  0  0  0  0  2  0  0  0  0  0  0
  -29.5040  -15.7000   21.6350 C   0  0  0  0  0  2  0  0  0  0  0  0
  -30.0310  -14.7680   20.5270 C   0  0  0  0  0  0  0  0  0  0  0  0
  -29.7780  -12.7180   19.1710 C   0  0  0  0  0  2  0  0  0  0  0  0
  -28.7680  -12.9330   18.0300 C   0  0  0  0  0  2  0  0  0  0  0  0
  -27.3320  -12.6610   18.5160 C   0  0  0  0  0  2  0  0  0  0  0  0
  -27.0000  -13.3980   19.8400 C   0  0  0  0  0  3  0  0  0  0  0  0
  -28.1160  -13.1810   20.8870 C   0  0  0  0  0  2  0  0  0  0  0  0
  -29.3960  -13.5930   20.2870 N   0  0  0  0  0  0  0  0  0  0  0  0
  -31.0190  -15.1250   19.8780 O   0  0  0  0  0  0  0  0  0  0  0  0
  -24.5750  -13.7850   20.6170 C   0  0  0  0  0  0  0  0  0  0  0  0
  -23.5940  -12.9170   21.0160 C   0  0  0  0  0  0  0  0  0  0  0  0
  -24.1760  -11.6130   20.9670 C   0  0  0  0  0  0  0  0  0  0  0  0
  -25.6910  -13.0040   20.3560 N   0  0  0  0  0  0  0  0  0  0  0  0
  -25.4550  -11.6930   20.6200 N   0  0  0  0  0  0  0  0  0  0  0  0
  -23.5760  -10.2890   21.1770 C   0  0  0  0  0  0  0  0  0  0  0  0
  -24.1060   -9.3780   22.1170 C   0  0  0  0  0  3  0  0  0  0  0  0
  -23.5000   -8.1190   22.3130 C   0  0  0  0  0  3  0  0  0  0  0  0
  -22.3500   -7.7610   21.5700 C   0  0  0  0  0  0  0  0  0  0  0  0
  -21.8400   -8.6640   20.6180 C   0  0  0  0  0  3  0  0  0  0  0  0
  -22.4490   -9.9140   20.4190 C   0  0  0  0  0  3  0  0  0  0  0  0
  -21.7100   -6.5500   21.6740 O   0  0  0  0  0  0  0  0  0  0  0  0
  -21.7230   -5.8280   22.8410 C   0  0  0  0  0  0  0  0  0  0  0  0
  -21.2210   -6.3590   24.0500 C   0  0  0  0  0  3  0  0  0  0  0  0
  -21.1870   -5.5600   25.2090 C   0  0  0  0  0  3  0  0  0  0  0  0
  -21.6460   -4.2290   25.1620 C   0  0  0  0  0  0  0  0  0  0  0  0
  -22.1390   -3.6960   23.9580 C   0  0  0  0  0  3  0  0  0  0  0  0
  -22.1740   -4.4940   22.8000 C   0  0  0  0  0  0  0  0  0  0  0  0
  -22.6320   -3.9710   21.6370 F   0  0  0  0  0  0  0  0  0  0  0  0
  -21.6060   -3.4570   26.2730 F   0  0  0  0  0  0  0  0  0  0  0  0
  -22.1680  -13.2620   21.3320 C   0  0  0  0  0  0  0  0  0  0  0  0
  -21.5400  -12.5070   22.2260 N   0  0  0  0  0  0  0  0  0  0  0  0
  -21.6160  -14.2360   20.8230 O   0  0  0  0  0  0  0  0  0  0  0  0
  -22.0010  -11.7200   22.6580 H   0  0  0  0  0  0  0  0  0  0  0  0
  -20.5850  -12.7150   22.4800 H   0  0  0  0  0  0  0  0  0  0  0  0
  -24.6050  -15.1640   20.4390 N   0  0  0  0  0  0  0  0  0  0  0  0
  -23.7820  -15.7420   20.5740 H   0  0  0  0  0  0  0  0  0  0  0  0
  -25.4020  -15.6850   20.0970 H   0  0  0  0  0  0  0  0  0  0  0  0
  -32.5540  -26.2970   22.4300 C   0  0  0  0  0  1  0  0  0  0  0  0
  -31.5490  -26.6140   21.4730 O   0  0  0  0  0  0  0  0  0  0  0  0
  -29.4560  -27.3000   19.5980 C   0  0  0  0  0  2  0  0  0  0  0  0
  -28.1350  -26.8540   19.3320 O   0  0  0  0  0  0  0  0  0  0  0  0
  -24.4100  -31.7790   22.9820 C   0  0  0  0  0  0  0  0  0  0  0  0
  -27.0230  -27.6320   19.5210 C   0  0  0  0  0  0  0  0  0  0  0  0
  -23.1560  -30.4210   21.3380 C   0  0  0  0  0  3  0  0  0  0  0  0
  -24.5790  -29.0170   19.7580 C   0  0  0  0  0  0  0  0  0  0  0  0
  -25.6500  -30.8920   21.0140 C   0  0  0  0  0  2  0  0  0  0  0  0
  -25.7510  -29.5600   20.3040 C   0  0  0  0  0  0  0  0  0  0  0  0
  -26.9820  -28.8760   20.1890 C   0  0  0  0  0  3  0  0  0  0  0  0
  -25.8350  -27.0960   18.9870 C   0  0  0  0  0  3  0  0  0  0  0  0
  -24.6130  -27.7780   19.0980 C   0  0  0  0  0  3  0  0  0  0  0  0
  -23.3070  -29.8200   19.9160 C   0  0  0  0  0  2  0  0  0  0  0  0
  -24.4260  -31.0410   21.8360 N   0  0  0  0  0  0  0  0  0  0  0  0
  -23.3540  -31.9840   23.5960 O   0  0  0  0  0  0  0  0  0  0  0  0
  -22.5960  -29.3280   22.2770 C   0  0  0  0  0  0  0  0  0  0  0  0
  -21.2710  -29.1160   22.2240 N   0  0  0  0  0  0  0  0  0  0  0  0
  -23.3470  -28.6760   23.0070 O   0  0  0  0  0  0  0  0  0  0  0  0
  -20.7230  -29.6980   21.6070 H   0  0  0  0  0  0  0  0  0  0  0  0
  -17.9630  -27.8190   22.8790 C   0  0  0  0  0  0  0  0  0  0  0  0
  -20.5290  -28.1140   22.9890 C   0  0  0  0  0  3  0  0  0  0  0  0
  -20.6140  -26.7240   22.3170 C   0  0  0  0  0  2  0  0  0  0  0  0
  -19.4490  -26.4410   21.3640 C   0  0  0  0  0  2  0  0  0  0  0  0
  -18.1140  -26.5170   22.1090 C   0  0  0  0  0  2  0  0  0  0  0  0
  -19.0960  -28.5760   23.2780 C   0  0  0  0  0  0  0  0  0  0  0  0
  -18.8970  -29.7980   23.9580 C   0  0  0  0  0  3  0  0  0  0  0  0
  -17.5990  -30.2610   24.2440 C   0  0  0  0  0  3  0  0  0  0  0  0
  -16.4830  -29.4980   23.8620 C   0  0  0  0  0  3  0  0  0  0  0  0
  -16.6660  -28.2780   23.1850 C   0  0  0  0  0  3  0  0  0  0  0  0
  -25.7100  -32.4200   23.5590 C   0  0  0  0  0  3  0  0  0  0  0  0
  -25.3720  -33.7760   24.0100 N   0  0  0  0  0  0  0  0  0  0  0  0
  -25.6660  -34.8950   23.3340 C   0  0  0  0  0  0  0  0  0  0  0  0
  -26.3240  -34.8950   22.2900 O   0  0  0  0  0  0  0  0  0  0  0  0
  -24.7870  -33.8480   24.8290 H   0  0  0  0  0  0  0  0  0  0  0  0
  -23.8900  -36.6640   23.1420 C   0  0  0  0  0  1  0  0  0  0  0  0
  -25.1470  -36.2260   23.9100 C   0  0  0  0  0  3  0  0  0  0  0  0
  -27.2670  -37.0930   24.7970 C   0  0  0  0  0  1  0  0  0  0  0  0
  -26.1510  -37.3120   23.8800 N   0  0  0  0  0  0  0  0  0  0  0  0
  -25.7230  -38.2050   24.1110 H   0  0  0  0  0  0  0  0  0  0  0  0
  -26.3470  -31.5810   24.7350 C   0  0  1  0  0  0  0  0  0  0  0  0
  -25.3370  -31.1980   25.8410 C   0  0  0  0  0  1  0  0  0  0  0  0
  -26.9760  -30.2750   24.1950 C   0  0  0  0  0  1  0  0  0  0  0  0
  -27.4940  -32.3870   25.3920 C   0  0  0  0  0  1  0  0  0  0  0  0
  1  6  1  0
  2  5  1  0
  3  1  2  0
  4  2  2  0
  4  3  1  0
  5 59  1  0
  5  6  2  0
  6 58  1  0
  7  4  1  0
  8 14  2  0
  9 10  1  0
  9  8  1  0
 12  3  1  0
 12 10  1  0
 12 11  1  0
 13 11  1  0
 13  8  1  0
 13 15  1  0
 15 17  1  0
 15 16  1  0
 18 15  1  0
 18 19  1  0
 20 19  1  0
 21 20  1  0
 22 27  1  0
 23 24  1  0
 23 22  1  0
 25 24  1  0
 25 32  1  0
 25 26  1  0
 27 21  1  0
 27 26  1  0
 28 21  2  0
 29 30  2  0
 30 49  1  0
 31 30  1  0
 31 34  1  0
 32 29  1  0
 32 33  1  0
 33 31  2  0
 34 35  1  0
 35 36  2  0
 37 40  1  0
 37 36  1  0
 38 37  2  0
 39 38  1  0
 39 34  2  0
 40 41  1  0
 41 42  1  0
 42 43  2  0
 44 43  1  0
 44 48  1  0
 45 44  2  0
 46 41  2  0
 46 45  1  0
 47 46  1  0
 49 50  1  0
 50 53  1  0
 50 52  1  0
 51 49  2  0
 54 55  1  0
 54 29  1  0
 56 54  1  0
 58 57  1  0
 60 62  1  0
 60 59  1  0
 61 72  2  0
 62 67  1  0
 63 71  1  0
 63 73  1  0
 64 70  1  0
 64 66  1  0
 65 71  1  0
 66 65  1  0
 67 66  2  0
 68 69  1  0
 68 62  2  0
 69 64  2  0
 70 63  1  0
 71 61  1  0
 73 75  2  0
 74 73  1  0
 76 74  1  0
 77 86  2  0
 77 82  1  0
 78 74  1  0
 78 82  1  0
 79 78  1  0
 80 81  1  0
 80 79  1  0
 81 77  1  0
 82 83  2  0
 83 84  1  0
 85 84  2  0
 86 85  1  0
 87 61  1  0
 87 88  1  0
 87 97  1  0
 88 91  1  0
 89 93  1  0
 89 88  1  0
 90 89  2  0
 93 92  1  0
 95 93  1  0
 95 96  1  0
 95 94  1  0
 97100  1  1
 97 98  1  0
 99 97  1  0
M  ISO  4  20 100  21 100  59 101  60 101
M  END
>  <TORSDO>  (69) 
F 23

>  <SCORE>  (69) 
-10.370

>  <name>  (69) 
70

>  <ligand_id>  (69) 
70

>  <original_smiles>  (69) 
[H]c1c([H])c([H])c2c(c1[H])C([H])([H])C([H])([H])C([H])([H])C2([H])N([H])C(=O)C1([H])N(C(=O)C([H])(N([H])C(=O)C([H])(N([H])C([H])([H])[H])C([H])([H])[H])C(C([H])([H])[H])(C([H])([H])[H])C([H])([H])[H])C([H])([H])c2c([H])c(OC([H])([H])c3c([H])c(C([H])([H])[H])c(C4([H])C([H])([H])C([H])([H])C(=O)C([H])([N+]([H])([H])C([H])([H])C([H])([H])C([H])([H])C(=O)N5C([H])([H])C([H])([H])C([H])([H])C([H])(n6nc(-c7c([H])c([H])c(Oc8c([H])c([H])c(F)c([H])c8F)c([H])c7[H])c(C(=O)N([H])[H])c6N([H])[H])C5([H])[H])C4([H])[H])c([H])c3OC([H])([H])[H])c([H])c([H])c2C1([H])[H]

>  <smiles>  (69) 
[H]c1c([H])c([H])c2c(c1[H])C([H])([H])C([H])([H])C([H])([H])C2([H])N([H])C(=O)C1([H])N(C(=O)C([H])(N([H])C(=O)C([H])(N([H])C([H])([H])[H])C([H])([H])[H])C(C([H])([H])[H])(C([H])([H])[H])C([H])([H])[H])C([H])([H])c2c([H])c(OC([H])([H])c3c([H])c(C([H])([H])[H])c(C4([H])C([H])([H])C([H])([H])C(=O)C([H])([N+]([H])([H])C([H])([H])C([H])([H])C([H])([H])C(=O)N5C([H])([H])C([H])([H])C([H])([H])C([H])(n6nc(-c7c([H])c([H])c(Oc8c([H])c([H])c(F)c([H])c8F)c([H])c7[H])c(C(=O)N([H])[H])c6N([H])[H])C5([H])[H])C4([H])[H])c([H])c3OC([H])([H])[H])c([H])c([H])c2C1([H])[H]

$$$$
71:0:0
     RDKit          3D

 89 97  0  0  1  0  0  0  0  0999 V2000
  -29.1490  -21.3040   19.8320 N   0  0  0  0  0  4  0  0  0  0  0  0
  -28.3860  -21.1530   19.1910 H   0  0  0  0  0  0  0  0  0  0  0  0
  -29.9470  -21.4770   19.2400 H   0  0  0  0  0  0  0  0  0  0  0  0
  -30.3780  -19.8480   21.7010 C   0  0  0  0  0  2  0  0  0  0  0  0
  -30.3890  -18.5020   22.4960 C   0  0  0  0  0  2  0  0  0  0  0  0
  -29.8610  -18.3030   19.7160 C   0  0  0  0  0  2  0  0  0  0  0  0
  -30.1410  -16.7660   20.5200 C   0  0  0  0  0  3  0  0  0  0  0  0
  -29.4140  -19.8110   20.5040 C   0  0  0  0  0  3  0  0  0  0  0  0
  -30.9490  -17.2430   21.7600 C   0  0  0  0  0  3  0  0  0  0  0  0
  -32.2100  -17.5080   21.4140 F   0  0  0  0  0  0  0  0  0  0  0  0
  -30.8140  -15.2470   19.9730 C   0  0  0  0  0  0  0  0  0  0  0  0
  -30.6520  -12.8670   18.9560 C   0  0  0  0  0  2  0  0  0  0  0  0
  -29.6550  -12.8110   17.7710 C   0  0  0  0  0  2  0  0  0  0  0  0
  -28.2220  -12.5700   18.2760 C   0  0  0  0  0  2  0  0  0  0  0  0
  -27.8810  -13.4640   19.4930 C   0  0  0  0  0  3  0  0  0  0  0  0
  -28.9960  -13.4780   20.5600 C   0  0  0  0  0  2  0  0  0  0  0  0
  -30.2230  -13.9560   19.9060 N   0  0  0  0  0  0  0  0  0  0  0  0
  -31.9770  -15.2440   19.5420 O   0  0  0  0  0  0  0  0  0  0  0  0
  -25.5610  -14.0420   20.3860 C   0  0  0  0  0  0  0  0  0  0  0  0
  -24.5060  -13.2730   20.7890 C   0  0  0  0  0  0  0  0  0  0  0  0
  -24.9450  -11.9160   20.6920 C   0  0  0  0  0  0  0  0  0  0  0  0
  -26.5730  -13.1570   20.0600 N   0  0  0  0  0  0  0  0  0  0  0  0
  -26.2180  -11.8700   20.3110 N   0  0  0  0  0  0  0  0  0  0  0  0
  -24.2050  -10.6610   20.8830 C   0  0  0  0  0  0  0  0  0  0  0  0
  -24.6130   -9.6980   21.8330 C   0  0  0  0  0  3  0  0  0  0  0  0
  -23.8710   -8.5100   22.0120 C   0  0  0  0  0  3  0  0  0  0  0  0
  -22.7080   -8.2760   21.2420 C   0  0  0  0  0  0  0  0  0  0  0  0
  -22.3190   -9.2260   20.2820 C   0  0  0  0  0  3  0  0  0  0  0  0
  -23.0610  -10.4060   20.1000 C   0  0  0  0  0  3  0  0  0  0  0  0
  -21.9400   -7.1400   21.3290 O   0  0  0  0  0  0  0  0  0  0  0  0
  -21.7890   -6.4620   22.5130 C   0  0  0  0  0  0  0  0  0  0  0  0
  -21.2610   -7.0830   23.6650 C   0  0  0  0  0  3  0  0  0  0  0  0
  -21.0590   -6.3320   24.8400 C   0  0  0  0  0  3  0  0  0  0  0  0
  -21.3730   -4.9600   24.8620 C   0  0  0  0  0  0  0  0  0  0  0  0
  -21.8940   -4.3380   23.7140 C   0  0  0  0  0  3  0  0  0  0  0  0
  -22.0980   -5.0870   22.5410 C   0  0  0  0  0  0  0  0  0  0  0  0
  -22.5800   -4.4780   21.4310 F   0  0  0  0  0  0  0  0  0  0  0  0
  -21.1720   -4.2360   25.9890 F   0  0  0  0  0  0  0  0  0  0  0  0
  -23.1340  -13.7650   21.1450 C   0  0  0  0  0  0  0  0  0  0  0  0
  -22.4490  -13.0710   22.0470 N   0  0  0  0  0  0  0  0  0  0  0  0
  -22.6810  -14.8000   20.6590 O   0  0  0  0  0  0  0  0  0  0  0  0
  -22.8300  -12.2320   22.4600 H   0  0  0  0  0  0  0  0  0  0  0  0
  -21.5300  -13.3820   22.3280 H   0  0  0  0  0  0  0  0  0  0  0  0
  -25.7390  -15.4150   20.2420 N   0  0  0  0  0  0  0  0  0  0  0  0
  -24.9900  -16.0760   20.4160 H   0  0  0  0  0  0  0  0  0  0  0  0
  -26.5720  -15.8510   19.8690 H   0  0  0  0  0  0  0  0  0  0  0  0
  -28.8260  -22.7670   20.5470 C   0  0  0  0  0  2  0  0  0  0  0  0
  -28.1860  -24.2730   19.8350 C   0  0  0  0  0  2  0  0  0  0  0  0
  -28.2340  -25.8610   20.2420 O   0  0  0  0  0  0  0  0  0  0  0  0
  -24.6010  -31.7930   23.0500 C   0  0  0  0  0  0  0  0  0  0  0  0
  -27.2040  -26.9200   20.1080 C   0  0  0  0  0  0  0  0  0  0  0  0
  -23.4200  -30.3640   21.4290 C   0  0  0  0  0  3  0  0  0  0  0  0
  -24.8850  -28.7570   20.0280 C   0  0  0  0  0  0  0  0  0  0  0  0
  -25.9820  -30.6010   21.2840 C   0  0  0  0  0  2  0  0  0  0  0  0
  -26.0640  -29.1870   20.6480 C   0  0  0  0  0  0  0  0  0  0  0  0
  -27.2150  -28.2870   20.6690 C   0  0  0  0  0  3  0  0  0  0  0  0
  -25.9980  -26.6380   19.4260 C   0  0  0  0  0  3  0  0  0  0  0  0
  -24.8740  -27.5030   19.3970 C   0  0  0  0  0  3  0  0  0  0  0  0
  -23.6570  -29.6640   20.0620 C   0  0  0  0  0  2  0  0  0  0  0  0
  -24.6890  -30.9470   21.9740 N   0  0  0  0  0  0  0  0  0  0  0  0
  -23.5090  -32.0820   23.5660 O   0  0  0  0  0  0  0  0  0  0  0  0
  -22.7350  -29.3750   22.4080 C   0  0  0  0  0  0  0  0  0  0  0  0
  -21.4060  -29.2010   22.2860 N   0  0  0  0  0  0  0  0  0  0  0  0
  -23.4040  -28.7650   23.2440 O   0  0  0  0  0  0  0  0  0  0  0  0
  -20.9190  -29.7440   21.5860 H   0  0  0  0  0  0  0  0  0  0  0  0
  -18.0320  -27.9740   22.7990 C   0  0  0  0  0  0  0  0  0  0  0  0
  -20.5880  -28.2710   23.0700 C   0  0  0  0  0  3  0  0  0  0  0  0
  -20.7070  -26.8290   22.5220 C   0  0  0  0  0  2  0  0  0  0  0  0
  -19.6120  -26.4760   21.5090 C   0  0  0  0  0  2  0  0  0  0  0  0
  -18.2260  -26.6160   22.1450 C   0  0  0  0  0  2  0  0  0  0  0  0
  -19.1400  -28.7570   23.2190 C   0  0  0  0  0  0  0  0  0  0  0  0
  -18.9020  -30.0240   23.7930 C   0  0  0  0  0  3  0  0  0  0  0  0
  -17.5900  -30.5100   23.9520 C   0  0  0  0  0  3  0  0  0  0  0  0
  -16.4970  -29.7250   23.5450 C   0  0  0  0  0  3  0  0  0  0  0  0
  -16.7190  -28.4580   22.9760 C   0  0  0  0  0  3  0  0  0  0  0  0
  -25.8690  -32.4530   23.6750 C   0  0  0  0  0  3  0  0  0  0  0  0
  -26.4190  -31.6700   24.9310 C   0  0  1  0  0  0  0  0  0  0  0  0
  -25.3450  -31.3810   26.0060 C   0  0  0  0  0  1  0  0  0  0  0  0
  -27.0350  -30.3160   24.5120 C   0  0  0  0  0  1  0  0  0  0  0  0
  -27.5560  -32.4820   25.5960 C   0  0  0  0  0  1  0  0  0  0  0  0
  -25.5190  -33.8340   24.0510 N   0  0  0  0  0  0  0  0  0  0  0  0
  -25.8090  -34.9240   23.3290 C   0  0  0  0  0  0  0  0  0  0  0  0
  -26.4610  -34.8740   22.2820 O   0  0  0  0  0  0  0  0  0  0  0  0
  -24.9360  -33.9440   24.8670 H   0  0  0  0  0  0  0  0  0  0  0  0
  -24.0320  -36.6900   23.0710 C   0  0  0  0  0  1  0  0  0  0  0  0
  -25.2970  -36.2840   23.8450 C   0  0  0  0  0  3  0  0  0  0  0  0
  -27.4210  -37.1970   24.6760 C   0  0  0  0  0  1  0  0  0  0  0  0
  -26.3020  -37.3670   23.7530 N   0  0  0  0  0  0  0  0  0  0  0  0
  -25.8740  -38.2700   23.9350 H   0  0  0  0  0  0  0  0  0  0  0  0
  1 47  1  0
  2  1  1  0
  3  1  1  0
  4  5  1  0
  6  8  1  0
  6  7  1  0
  7 11  1  0
  7  9  1  0
  8  1  1  0
  8  4  1  0
  9 10  1  0
  9  5  1  0
 12 17  1  0
 13 14  1  0
 13 12  1  0
 15 14  1  0
 15 22  1  0
 15 16  1  0
 17 11  1  0
 17 16  1  0
 18 11  2  0
 19 20  2  0
 20 39  1  0
 21 20  1  0
 21 24  1  0
 22 23  1  0
 22 19  1  0
 23 21  2  0
 24 25  1  0
 25 26  2  0
 27 30  1  0
 27 26  1  0
 28 27  2  0
 29 28  1  0
 29 24  2  0
 30 31  1  0
 31 36  2  0
 31 32  1  0
 32 33  2  0
 33 34  1  0
 34 38  1  0
 35 34  2  0
 36 35  1  0
 37 36  1  0
 39 40  1  0
 40 43  1  0
 40 42  1  0
 41 39  2  0
 44 19  1  0
 44 45  1  0
 46 44  1  0
 48 49  1  0
 48 47  1  0
 50 61  2  0
 51 49  1  0
 51 56  1  0
 52 60  1  0
 52 62  1  0
 53 59  1  0
 53 55  1  0
 54 60  1  0
 55 56  2  0
 55 54  1  0
 57 51  2  0
 58 57  1  0
 58 53  2  0
 59 52  1  0
 60 50  1  0
 62 64  2  0
 63 62  1  0
 65 63  1  0
 66 75  2  0
 66 71  1  0
 67 63  1  0
 67 71  1  0
 68 67  1  0
 69 70  1  0
 69 68  1  0
 70 66  1  0
 71 72  2  0
 72 73  1  0
 74 73  2  0
 75 74  1  0
 76 50  1  0
 76 81  1  0
 76 77  1  0
 77 80  1  1
 77 78  1  0
 79 77  1  0
 81 84  1  0
 82 86  1  0
 82 81  1  0
 83 82  2  0
 86 85  1  0
 88 86  1  0
 88 89  1  0
 88 87  1  0
M  ISO  4   7 100  11 100  48 101  49 101
M  END
>  <TORSDO>  (70) 
F 19

>  <SCORE>  (70) 
-14.509

>  <name>  (70) 
71

>  <ligand_id>  (70) 
71

>  <original_smiles>  (70) 
[H]c1c([H])c([H])c2c(c1[H])C([H])([H])C([H])([H])C([H])([H])C2([H])N([H])C(=O)C1([H])N(C(=O)C([H])(N([H])C(=O)C([H])(N([H])C([H])([H])[H])C([H])([H])[H])C(C([H])([H])[H])(C([H])([H])[H])C([H])([H])[H])C([H])([H])c2c([H])c(OC([H])([H])C([H])([H])[N+]([H])([H])C3([H])C([H])([H])C([H])([H])C([H])(F)C([H])(C(=O)N4C([H])([H])C([H])([H])C([H])([H])C([H])(n5nc(-c6c([H])c([H])c(Oc7c([H])c([H])c(F)c([H])c7F)c([H])c6[H])c(C(=O)N([H])[H])c5N([H])[H])C4([H])[H])C3([H])[H])c([H])c([H])c2C1([H])[H]

>  <smiles>  (70) 
[H]c1c([H])c([H])c2c(c1[H])C([H])([H])C([H])([H])C([H])([H])C2([H])N([H])C(=O)C1([H])N(C(=O)C([H])(N([H])C(=O)C([H])(N([H])C([H])([H])[H])C([H])([H])[H])C(C([H])([H])[H])(C([H])([H])[H])C([H])([H])[H])C([H])([H])c2c([H])c(OC([H])([H])C([H])([H])[N+]([H])([H])C3([H])C([H])([H])C([H])([H])C([H])(F)C([H])(C(=O)N4C([H])([H])C([H])([H])C([H])([H])C([H])(n5nc(-c6c([H])c([H])c(Oc7c([H])c([H])c(F)c([H])c7F)c([H])c6[H])c(C(=O)N([H])[H])c5N([H])[H])C4([H])[H])C3([H])[H])c([H])c([H])c2C1([H])[H]

$$$$
72:0:0
     RDKit          3D

 99108  0  0  1  0  0  0  0  0999 V2000
  -26.5550  -21.8590   19.7690 C   0  0  0  0  0  2  0  0  0  0  0  0
  -27.4350  -21.1210   18.8160 N   0  0  2  0  0  4  0  0  0  0  0  0
  -28.3090  -21.6240   18.8420 H   0  0  0  0  0  0  0  0  0  0  0  0
  -25.5710  -20.7660   17.1070 C   0  0  0  0  0  1  0  0  0  0  0  0
  -27.0140  -21.2300   17.3900 C   0  0  0  0  0  2  0  0  0  0  0  0
  -27.8180  -19.7350   19.2100 C   0  0  0  0  0  2  0  0  0  0  0  0
  -29.8690  -18.4600   18.2930 C   0  0  0  0  0  2  0  0  0  0  0  0
  -29.9400  -19.3320   20.6690 C   0  0  0  0  0  2  0  0  0  0  0  0
  -29.6250  -17.0510   18.8510 C   0  0  0  0  0  2  0  0  0  0  0  0
  -29.6900  -17.9210   21.2170 C   0  0  0  0  0  2  0  0  0  0  0  0
  -29.3640  -19.5660   19.2460 C   0  0  0  0  0  3  0  0  0  0  0  0
  -30.2630  -16.8930   20.2470 C   0  0  0  0  0  3  0  0  0  0  0  0
  -30.8420  -14.5220   20.4740 C   0  0  0  0  0  0  0  0  0  0  0  0
  -30.5440  -12.3680   19.3740 C   0  0  0  0  0  2  0  0  0  0  0  0
  -29.5890  -12.6020   18.1850 C   0  0  0  0  0  2  0  0  0  0  0  0
  -28.1200  -12.4630   18.6340 C   0  0  0  0  0  2  0  0  0  0  0  0
  -27.7940  -13.2870   19.9100 C   0  0  0  0  0  3  0  0  0  0  0  0
  -28.8690  -13.0590   21.0030 C   0  0  0  0  0  2  0  0  0  0  0  0
  -30.1900  -13.3390   20.4140 N   0  0  0  0  0  0  0  0  0  0  0  0
  -31.9810  -14.7090   20.0440 O   0  0  0  0  0  0  0  0  0  0  0  0
  -30.0370  -15.5500   20.7540 N   0  0  0  0  0  0  0  0  0  0  0  0
  -29.1100  -15.3170   21.0730 H   0  0  0  0  0  0  0  0  0  0  0  0
  -25.4100  -13.8720   20.6940 C   0  0  0  0  0  0  0  0  0  0  0  0
  -24.3500  -13.0870   21.0600 C   0  0  0  0  0  0  0  0  0  0  0  0
  -24.8110  -11.7380   20.9710 C   0  0  0  0  0  0  0  0  0  0  0  0
  -26.4500  -13.0010   20.4090 N   0  0  0  0  0  0  0  0  0  0  0  0
  -26.0930  -11.7110   20.6280 N   0  0  0  0  0  0  0  0  0  0  0  0
  -24.0930  -10.4680   21.1320 C   0  0  0  0  0  0  0  0  0  0  0  0
  -24.5230   -9.4870   22.0520 C   0  0  0  0  0  3  0  0  0  0  0  0
  -23.8050   -8.2800   22.2020 C   0  0  0  0  0  3  0  0  0  0  0  0
  -22.6440   -8.0460   21.4270 C   0  0  0  0  0  0  0  0  0  0  0  0
  -22.2310   -9.0160   20.4970 C   0  0  0  0  0  3  0  0  0  0  0  0
  -22.9500  -10.2150   20.3470 C   0  0  0  0  0  3  0  0  0  0  0  0
  -21.9010   -6.8930   21.4850 O   0  0  0  0  0  0  0  0  0  0  0  0
  -21.8110   -6.1490   22.6340 C   0  0  0  0  0  0  0  0  0  0  0  0
  -21.2750   -6.6820   23.8270 C   0  0  0  0  0  3  0  0  0  0  0  0
  -21.1380   -5.8620   24.9650 C   0  0  0  0  0  3  0  0  0  0  0  0
  -21.5270   -4.5090   24.9090 C   0  0  0  0  0  0  0  0  0  0  0  0
  -22.0550   -3.9760   23.7220 C   0  0  0  0  0  3  0  0  0  0  0  0
  -22.1930   -4.7930   22.5850 C   0  0  0  0  0  0  0  0  0  0  0  0
  -22.6840   -4.2690   21.4360 F   0  0  0  0  0  0  0  0  0  0  0  0
  -21.3880   -3.7200   26.0000 F   0  0  0  0  0  0  0  0  0  0  0  0
  -22.9600  -13.5540   21.3840 C   0  0  0  0  0  0  0  0  0  0  0  0
  -22.2520  -12.8260   22.2410 N   0  0  0  0  0  0  0  0  0  0  0  0
  -22.5090  -14.5960   20.9140 O   0  0  0  0  0  0  0  0  0  0  0  0
  -22.6290  -11.9820   22.6450 H   0  0  0  0  0  0  0  0  0  0  0  0
  -21.3190  -13.1190   22.5000 H   0  0  0  0  0  0  0  0  0  0  0  0
  -25.5720  -15.2480   20.5640 N   0  0  0  0  0  0  0  0  0  0  0  0
  -24.8070  -15.8950   20.7150 H   0  0  0  0  0  0  0  0  0  0  0  0
  -26.4110  -15.6960   20.2210 H   0  0  0  0  0  0  0  0  0  0  0  0
  -27.1680  -22.0820   21.1730 C   0  0  0  0  0  2  0  0  0  0  0  0
  -28.5620  -22.7380   21.2140 C   0  0  0  0  0  2  0  0  0  0  0  0
  -28.8960  -26.1640   22.8570 C   0  0  0  0  0  3  0  0  0  0  0  0
  -28.7930  -24.7730   22.6860 C   0  0  0  0  0  3  0  0  0  0  0  0
  -28.7830  -27.0160   21.7410 C   0  0  0  0  0  3  0  0  0  0  0  0
  -28.4540  -25.0880   20.2870 C   0  0  0  0  0  3  0  0  0  0  0  0
  -28.5800  -24.2350   21.4010 C   0  0  0  0  0  0  0  0  0  0  0  0
  -28.5420  -26.4810   20.4560 C   0  0  0  0  0  0  0  0  0  0  0  0
  -28.3210  -27.2990   19.3810 O   0  0  0  0  0  0  0  0  0  0  0  0
  -24.4930  -31.8440   23.2040 C   0  0  0  0  0  0  0  0  0  0  0  0
  -27.1430  -27.9840   19.4710 C   0  0  0  0  0  0  0  0  0  0  0  0
  -23.2470  -30.5660   21.4880 C   0  0  0  0  0  3  0  0  0  0  0  0
  -24.6770  -29.2910   19.8020 C   0  0  0  0  0  0  0  0  0  0  0  0
  -25.7240  -31.1070   21.1730 C   0  0  0  0  0  2  0  0  0  0  0  0
  -25.8380  -29.8320   20.3700 C   0  0  0  0  0  0  0  0  0  0  0  0
  -27.0770  -29.1860   20.2010 C   0  0  0  0  0  3  0  0  0  0  0  0
  -25.9760  -27.4450   18.8940 C   0  0  0  0  0  3  0  0  0  0  0  0
  -24.7380  -28.0950   19.0600 C   0  0  0  0  0  3  0  0  0  0  0  0
  -23.3940  -30.0570   20.0270 C   0  0  0  0  0  2  0  0  0  0  0  0
  -24.5100  -31.1780   22.0140 N   0  0  0  0  0  0  0  0  0  0  0  0
  -23.4420  -31.9900   23.8400 O   0  0  0  0  0  0  0  0  0  0  0  0
  -22.7170  -29.4070   22.3620 C   0  0  0  0  0  0  0  0  0  0  0  0
  -21.4080  -29.1260   22.2530 N   0  0  0  0  0  0  0  0  0  0  0  0
  -23.4780  -28.7700   23.0960 O   0  0  0  0  0  0  0  0  0  0  0  0
  -20.8490  -29.6990   21.6370 H   0  0  0  0  0  0  0  0  0  0  0  0
  -18.1930  -27.5310   22.6110 C   0  0  0  0  0  0  0  0  0  0  0  0
  -20.6980  -28.0620   22.9590 C   0  0  0  0  0  3  0  0  0  0  0  0
  -20.9750  -26.6810   22.3250 C   0  0  0  0  0  2  0  0  0  0  0  0
  -19.9410  -26.2850   21.2640 C   0  0  0  0  0  2  0  0  0  0  0  0
  -18.5350  -26.2470   21.8730 C   0  0  0  0  0  2  0  0  0  0  0  0
  -19.2070  -28.3880   23.1120 C   0  0  0  0  0  0  0  0  0  0  0  0
  -18.8360  -29.5820   23.7690 C   0  0  0  0  0  3  0  0  0  0  0  0
  -17.4800  -29.9230   23.9270 C   0  0  0  0  0  3  0  0  0  0  0  0
  -16.4780  -29.0600   23.4450 C   0  0  0  0  0  3  0  0  0  0  0  0
  -16.8350  -27.8670   22.7940 C   0  0  0  0  0  3  0  0  0  0  0  0
  -25.7890  -32.4700   23.8080 C   0  0  0  0  0  3  0  0  0  0  0  0
  -25.4650  -33.8380   24.2300 N   0  0  0  0  0  0  0  0  0  0  0  0
  -25.7510  -34.9380   23.5240 C   0  0  0  0  0  0  0  0  0  0  0  0
  -26.3910  -34.9120   22.4680 O   0  0  0  0  0  0  0  0  0  0  0  0
  -24.8890  -33.9300   25.0540 H   0  0  0  0  0  0  0  0  0  0  0  0
  -23.9710  -36.7050   23.3200 C   0  0  0  0  0  1  0  0  0  0  0  0
  -25.2430  -36.2860   24.0730 C   0  0  0  0  0  3  0  0  0  0  0  0
  -27.3760  -37.1800   24.9000 C   0  0  0  0  0  1  0  0  0  0  0  0
  -26.2460  -37.3700   23.9930 N   0  0  0  0  0  0  0  0  0  0  0  0
  -25.8210  -38.2690   24.1970 H   0  0  0  0  0  0  0  0  0  0  0  0
  -26.3800  -31.6400   25.0130 C   0  0  1  0  0  0  0  0  0  0  0  0
  -25.3440  -31.3280   26.1190 C   0  0  0  0  0  1  0  0  0  0  0  0
  -26.9620  -30.2960   24.5150 C   0  0  0  0  0  1  0  0  0  0  0  0
  -27.5500  -32.4170   25.6630 C   0  0  0  0  0  1  0  0  0  0  0  0
  1 51  1  0
  2  3  1  6
  2  6  1  0
  2  1  1  0
  4  5  1  0
  5  2  1  0
  7  9  1  0
  7 11  1  0
  8 10  1  0
  9 12  1  0
 11  6  1  0
 11  8  1  0
 12 21  1  0
 12 10  1  0
 13 21  1  0
 14 19  1  0
 15 16  1  0
 15 14  1  0
 17 16  1  0
 17 26  1  0
 17 18  1  0
 19 13  1  0
 19 18  1  0
 20 13  2  0
 21 22  1  0
 23 24  2  0
 24 43  1  0
 25 24  1  0
 25 28  1  0
 26 27  1  0
 26 23  1  0
 27 25  2  0
 28 29  1  0
 29 30  2  0
 31 34  1  0
 31 30  1  0
 32 31  2  0
 33 32  1  0
 33 28  2  0
 34 35  1  0
 35 36  1  0
 36 37  2  0
 38 37  1  0
 38 42  1  0
 39 38  2  0
 40 35  2  0
 40 39  1  0
 41 40  1  0
 43 44  1  0
 44 47  1  0
 44 46  1  0
 45 43  2  0
 48 23  1  0
 48 49  1  0
 50 48  1  0
 51 52  1  0
 52 57  1  0
 54 53  1  0
 55 53  2  0
 56 58  2  0
 56 57  1  0
 57 54  2  0
 58 55  1  0
 59 61  1  0
 59 58  1  0
 60 71  2  0
 61 66  1  0
 62 70  1  0
 62 72  1  0
 63 69  1  0
 63 65  1  0
 64 70  1  0
 65 64  1  0
 66 65  2  0
 67 68  1  0
 67 61  2  0
 68 63  2  0
 69 62  1  0
 70 60  1  0
 72 74  2  0
 73 72  1  0
 75 73  1  0
 76 85  2  0
 76 81  1  0
 77 73  1  0
 77 81  1  0
 78 77  1  0
 79 80  1  0
 79 78  1  0
 80 76  1  0
 81 82  2  0
 82 83  1  0
 84 83  2  0
 85 84  1  0
 86 60  1  0
 86 87  1  0
 86 96  1  0
 87 90  1  0
 88 92  1  0
 88 87  1  0
 89 88  2  0
 92 91  1  0
 94 92  1  0
 94 95  1  0
 94 93  1  0
 96 99  1  1
 96 97  1  0
 98 96  1  0
M  ISO  4  13 100  21 100  58 101  59 101
M  END
>  <TORSDO>  (71) 
F 23

>  <SCORE>  (71) 
-11.413

>  <name>  (71) 
72

>  <ligand_id>  (71) 
72

>  <original_smiles>  (71) 
[H]c1c([H])c([H])c2c(c1[H])C([H])([H])C([H])([H])C([H])([H])C2([H])N([H])C(=O)C1([H])N(C(=O)C([H])(N([H])C(=O)C([H])(N([H])C([H])([H])[H])C([H])([H])[H])C(C([H])([H])[H])(C([H])([H])[H])C([H])([H])[H])C([H])([H])c2c([H])c(Oc3c([H])c([H])c([H])c(C([H])([H])C([H])([H])C([H])([H])[N+]([H])(C([H])([H])C([H])([H])[H])C([H])([H])C4([H])C([H])([H])C([H])([H])C([H])(N([H])C(=O)N5C([H])([H])C([H])([H])C([H])([H])C([H])(n6nc(-c7c([H])c([H])c(Oc8c([H])c([H])c(F)c([H])c8F)c([H])c7[H])c(C(=O)N([H])[H])c6N([H])[H])C5([H])[H])C([H])([H])C4([H])[H])c3[H])c([H])c([H])c2C1([H])[H]

>  <smiles>  (71) 
[H]c1c([H])c([H])c2c(c1[H])C([H])([H])C([H])([H])C([H])([H])C2([H])N([H])C(=O)C1([H])N(C(=O)C([H])(N([H])C(=O)C([H])(N([H])C([H])([H])[H])C([H])([H])[H])C(C([H])([H])[H])(C([H])([H])[H])C([H])([H])[H])C([H])([H])c2c([H])c(Oc3c([H])c([H])c([H])c(C([H])([H])C([H])([H])C([H])([H])[N+]([H])(C([H])([H])C([H])([H])[H])C([H])([H])C4([H])C([H])([H])C([H])([H])C([H])(N([H])C(=O)N5C([H])([H])C([H])([H])C([H])([H])C([H])(n6nc(-c7c([H])c([H])c(Oc8c([H])c([H])c(F)c([H])c8F)c([H])c7[H])c(C(=O)N([H])[H])c6N([H])[H])C5([H])[H])C([H])([H])C4([H])[H])c3[H])c([H])c([H])c2C1([H])[H]

$$$$
73:0:0
     RDKit          3D

 93103  0  0  1  0  0  0  0  0999 V2000
  -29.6990  -22.9240   19.2770 C   0  0  0  0  0  2  0  0  0  0  0  0
  -27.6860  -22.5760   20.7220 C   0  0  0  0  0  2  0  0  0  0  0  0
  -29.7300  -24.4310   19.7270 C   0  0  0  0  0  2  0  0  0  0  0  0
  -27.7210  -24.1250   21.0630 C   0  0  0  0  0  2  0  0  0  0  0  0
  -29.0160  -21.8720   20.2270 C   0  0  0  0  0  3  0  0  0  0  0  0
  -28.3260  -25.0520   19.9610 C   0  0  0  0  0  3  0  0  0  0  0  0
  -30.4940  -17.3040   21.3200 C   0  0  0  0  0  3  0  0  0  0  0  0
  -30.0600  -18.6520   21.0600 C   0  0  0  0  0  3  0  0  0  0  0  0
  -29.1520  -16.5120   19.5190 C   0  0  0  0  0  3  0  0  0  0  0  0
  -30.0750  -16.1820   20.5390 C   0  0  0  0  0  0  0  0  0  0  0  0
  -29.1540  -18.9720   20.0090 C   0  0  0  0  0  0  0  0  0  0  0  0
  -28.6590  -17.8310   19.2950 C   0  0  0  0  0  0  0  0  0  0  0  0
  -27.5960  -17.9710   18.2170 C   0  0  0  0  0  2  0  0  0  0  0  0
  -27.6340  -19.3150   17.4990 C   0  0  0  0  0  2  0  0  0  0  0  0
  -27.6300  -20.4610   18.5080 C   0  0  0  0  0  2  0  0  0  0  0  0
  -28.8580  -20.4450   19.4520 C   0  0  0  0  0  3  0  0  0  0  0  0
  -30.7940  -14.8000   20.5570 C   0  0  0  0  0  0  0  0  0  0  0  0
  -30.5940  -12.5210   19.5850 C   0  0  0  0  0  2  0  0  0  0  0  0
  -29.7070  -12.5760   18.3220 C   0  0  0  0  0  2  0  0  0  0  0  0
  -28.2250  -12.3890   18.7080 C   0  0  0  0  0  2  0  0  0  0  0  0
  -27.7910  -13.2990   19.8850 C   0  0  0  0  0  3  0  0  0  0  0  0
  -28.8120  -13.2810   21.0420 C   0  0  0  0  0  2  0  0  0  0  0  0
  -30.1330  -13.5960   20.4890 N   0  0  0  0  0  0  0  0  0  0  0  0
  -32.0120  -14.8360   20.3680 O   0  0  0  0  0  0  0  0  0  0  0  0
  -25.3840  -13.8940   20.5210 C   0  0  0  0  0  0  0  0  0  0  0  0
  -24.3070  -13.1180   20.8520 C   0  0  0  0  0  0  0  0  0  0  0  0
  -24.7820  -11.7700   20.8640 C   0  0  0  0  0  0  0  0  0  0  0  0
  -26.4380  -13.0150   20.3380 N   0  0  0  0  0  0  0  0  0  0  0  0
  -26.0830  -11.7350   20.6120 N   0  0  0  0  0  0  0  0  0  0  0  0
  -24.0640  -10.5050   21.0440 C   0  0  0  0  0  0  0  0  0  0  0  0
  -24.4730   -9.5560   22.0070 C   0  0  0  0  0  3  0  0  0  0  0  0
  -23.7530   -8.3530   22.1740 C   0  0  0  0  0  3  0  0  0  0  0  0
  -22.6120   -8.0910   21.3790 C   0  0  0  0  0  0  0  0  0  0  0  0
  -22.2260   -9.0280   20.4050 C   0  0  0  0  0  3  0  0  0  0  0  0
  -22.9450  -10.2210   20.2350 C   0  0  0  0  0  3  0  0  0  0  0  0
  -21.8680   -6.9390   21.4500 O   0  0  0  0  0  0  0  0  0  0  0  0
  -21.7740   -6.2170   22.6120 C   0  0  0  0  0  0  0  0  0  0  0  0
  -21.2690   -6.7820   23.8020 C   0  0  0  0  0  3  0  0  0  0  0  0
  -21.1260   -5.9840   24.9550 C   0  0  0  0  0  3  0  0  0  0  0  0
  -21.4790   -4.6220   24.9190 C   0  0  0  0  0  0  0  0  0  0  0  0
  -21.9790   -4.0560   23.7300 C   0  0  0  0  0  3  0  0  0  0  0  0
  -22.1250   -4.8520   22.5810 C   0  0  0  0  0  0  0  0  0  0  0  0
  -22.5860   -4.2980   21.4340 F   0  0  0  0  0  0  0  0  0  0  0  0
  -21.3360   -3.8530   26.0240 F   0  0  0  0  0  0  0  0  0  0  0  0
  -22.8960  -13.5870   21.0560 C   0  0  0  0  0  0  0  0  0  0  0  0
  -22.1390  -12.8970   21.9010 N   0  0  0  0  0  0  0  0  0  0  0  0
  -22.4730  -14.5990   20.5020 O   0  0  0  0  0  0  0  0  0  0  0  0
  -22.4940  -12.0810   22.3770 H   0  0  0  0  0  0  0  0  0  0  0  0
  -21.1900  -13.1940   22.0800 H   0  0  0  0  0  0  0  0  0  0  0  0
  -25.5520  -15.2640   20.3340 N   0  0  0  0  0  0  0  0  0  0  0  0
  -24.7920  -15.9290   20.4320 H   0  0  0  0  0  0  0  0  0  0  0  0
  -26.4370  -15.7020   20.1060 H   0  0  0  0  0  0  0  0  0  0  0  0
  -28.3900  -26.5190   20.2520 O   0  0  0  0  0  0  0  0  0  0  0  0
  -24.6200  -31.9120   23.2520 C   0  0  0  0  0  0  0  0  0  0  0  0
  -27.2540  -27.3490   20.2000 C   0  0  0  0  0  0  0  0  0  0  0  0
  -23.4270  -30.5070   21.6090 C   0  0  0  0  0  3  0  0  0  0  0  0
  -24.8850  -28.9660   20.1850 C   0  0  0  0  0  0  0  0  0  0  0  0
  -25.9650  -30.8390   21.4260 C   0  0  0  0  0  2  0  0  0  0  0  0
  -26.0530  -29.4600   20.7790 C   0  0  0  0  0  0  0  0  0  0  0  0
  -27.2380  -28.6630   20.7740 C   0  0  0  0  0  3  0  0  0  0  0  0
  -26.0560  -26.9100   19.5920 C   0  0  0  0  0  3  0  0  0  0  0  0
  -24.8900  -27.6990   19.5860 C   0  0  0  0  0  3  0  0  0  0  0  0
  -23.6440  -29.8320   20.2300 C   0  0  0  0  0  2  0  0  0  0  0  0
  -24.6900  -31.1050   22.1530 N   0  0  0  0  0  0  0  0  0  0  0  0
  -23.5340  -32.1820   23.7860 O   0  0  0  0  0  0  0  0  0  0  0  0
  -22.7670  -29.4880   22.5680 C   0  0  0  0  0  0  0  0  0  0  0  0
  -21.4430  -29.2970   22.4340 N   0  0  0  0  0  0  0  0  0  0  0  0
  -23.4450  -28.8690   23.3920 O   0  0  0  0  0  0  0  0  0  0  0  0
  -20.9500  -29.8470   21.7460 H   0  0  0  0  0  0  0  0  0  0  0  0
  -18.0770  -28.0620   22.9090 C   0  0  0  0  0  0  0  0  0  0  0  0
  -20.6290  -28.3530   23.2030 C   0  0  0  0  0  3  0  0  0  0  0  0
  -20.7540  -26.9190   22.6380 C   0  0  0  0  0  2  0  0  0  0  0  0
  -19.6660  -26.5780   21.6130 C   0  0  0  0  0  2  0  0  0  0  0  0
  -18.2760  -26.7100   22.2420 C   0  0  0  0  0  2  0  0  0  0  0  0
  -19.1820  -28.8400   23.3440 C   0  0  0  0  0  0  0  0  0  0  0  0
  -18.9400  -30.1030   23.9260 C   0  0  0  0  0  3  0  0  0  0  0  0
  -17.6280  -30.5890   24.0760 C   0  0  0  0  0  3  0  0  0  0  0  0
  -16.5370  -29.8080   23.6580 C   0  0  0  0  0  3  0  0  0  0  0  0
  -16.7630  -28.5450   23.0780 C   0  0  0  0  0  3  0  0  0  0  0  0
  -25.8980  -32.5520   23.8760 C   0  0  0  0  0  3  0  0  0  0  0  0
  -25.5860  -33.9540   24.1880 N   0  0  0  0  0  0  0  0  0  0  0  0
  -25.9330  -35.0010   23.4260 C   0  0  0  0  0  0  0  0  0  0  0  0
  -26.6160  -34.8870   22.4040 O   0  0  0  0  0  0  0  0  0  0  0  0
  -24.9800  -34.1170   24.9800 H   0  0  0  0  0  0  0  0  0  0  0  0
  -24.2260  -36.8020   23.0200 C   0  0  0  0  0  1  0  0  0  0  0  0
  -25.4430  -36.3940   23.8640 C   0  0  0  0  0  3  0  0  0  0  0  0
  -27.5610  -37.2730   24.7440 C   0  0  0  0  0  1  0  0  0  0  0  0
  -26.4850  -37.4400   23.7720 N   0  0  0  0  0  0  0  0  0  0  0  0
  -26.0800  -38.3630   23.9070 H   0  0  0  0  0  0  0  0  0  0  0  0
  -26.4030  -31.7980   25.1670 C   0  0  1  0  0  0  0  0  0  0  0  0
  -25.3010  -31.5770   26.2300 C   0  0  0  0  0  1  0  0  0  0  0  0
  -26.9870  -30.4140   24.8010 C   0  0  0  0  0  1  0  0  0  0  0  0
  -27.5480  -32.5990   25.8290 C   0  0  0  0  0  1  0  0  0  0  0  0
  1  3  1  0
  2  4  1  0
  3  6  1  0
  5  1  1  0
  5  2  1  0
  6 53  1  0
  6  4  1  0
  8  7  1  0
  9 10  1  0
 10 17  1  0
 10  7  2  0
 11  8  2  0
 12  9  2  0
 12 11  1  0
 13 12  1  0
 14 13  1  0
 14 15  1  0
 16 15  1  0
 16 11  1  0
 16  5  1  0
 18 23  1  0
 19 20  1  0
 19 18  1  0
 21 20  1  0
 21 28  1  0
 21 22  1  0
 23 17  1  0
 23 22  1  0
 24 17  2  0
 25 26  2  0
 26 27  1  0
 26 45  1  0
 27 30  1  0
 28 25  1  0
 28 29  1  0
 29 27  2  0
 30 31  1  0
 31 32  2  0
 33 36  1  0
 33 32  1  0
 34 33  2  0
 35 34  1  0
 35 30  2  0
 36 37  1  0
 37 38  1  0
 38 39  2  0
 40 39  1  0
 40 44  1  0
 41 40  2  0
 42 37  2  0
 42 41  1  0
 43 42  1  0
 45 46  1  0
 46 49  1  0
 46 48  1  0
 47 45  2  0
 50 51  1  0
 50 25  1  0
 52 50  1  0
 54 65  2  0
 55 53  1  0
 55 60  1  0
 56 64  1  0
 56 66  1  0
 57 63  1  0
 57 59  1  0
 58 64  1  0
 59 58  1  0
 60 59  2  0
 61 55  2  0
 62 61  1  0
 62 57  2  0
 63 56  1  0
 64 54  1  0
 66 68  2  0
 67 66  1  0
 69 67  1  0
 70 79  2  0
 70 75  1  0
 71 67  1  0
 71 75  1  0
 72 71  1  0
 73 74  1  0
 73 72  1  0
 74 70  1  0
 75 76  2  0
 76 77  1  0
 78 77  2  0
 79 78  1  0
 80 54  1  0
 80 81  1  0
 80 90  1  0
 81 84  1  0
 82 86  1  0
 82 81  1  0
 83 82  2  0
 86 85  1  0
 88 86  1  0
 88 89  1  0
 88 87  1  0
 90 93  1  1
 90 91  1  0
 92 90  1  0
M  ISO  4   6 101  10 100  17 100  53 101
M  END
>  <TORSDO>  (72) 
F 17

>  <SCORE>  (72) 
-15.398

>  <name>  (72) 
73

>  <ligand_id>  (72) 
73

>  <original_smiles>  (72) 
[H]c1c([H])c([H])c2c(c1[H])C([H])([H])C([H])([H])C([H])([H])C2([H])N([H])C(=O)C1([H])N(C(=O)C([H])(N([H])C(=O)C([H])(N([H])C([H])([H])[H])C([H])([H])[H])C(C([H])([H])[H])(C([H])([H])[H])C([H])([H])[H])C([H])([H])c2c([H])c(OC3([H])C([H])([H])C([H])([H])C([H])(C4([H])c5c([H])c([H])c(C(=O)N6C([H])([H])C([H])([H])C([H])([H])C([H])(n7nc(-c8c([H])c([H])c(Oc9c([H])c([H])c(F)c([H])c9F)c([H])c8[H])c(C(=O)N([H])[H])c7N([H])[H])C6([H])[H])c([H])c5C([H])([H])C([H])([H])C4([H])[H])C([H])([H])C3([H])[H])c([H])c([H])c2C1([H])[H]

>  <smiles>  (72) 
[H]c1c([H])c([H])c2c(c1[H])C([H])([H])C([H])([H])C([H])([H])C2([H])N([H])C(=O)C1([H])N(C(=O)C([H])(N([H])C(=O)C([H])(N([H])C([H])([H])[H])C([H])([H])[H])C(C([H])([H])[H])(C([H])([H])[H])C([H])([H])[H])C([H])([H])c2c([H])c(OC3([H])C([H])([H])C([H])([H])C([H])(C4([H])c5c([H])c([H])c(C(=O)N6C([H])([H])C([H])([H])C([H])([H])C([H])(n7nc(-c8c([H])c([H])c(Oc9c([H])c([H])c(F)c([H])c9F)c([H])c8[H])c(C(=O)N([H])[H])c7N([H])[H])C6([H])[H])c([H])c5C([H])([H])C([H])([H])C4([H])[H])C([H])([H])C3([H])[H])c([H])c([H])c2C1([H])[H]

$$$$
74:0:0
     RDKit          3D

100108  0  0  1  0  0  0  0  0999 V2000
  -32.8310  -17.8470   20.7940 C   0  0  0  0  0  3  0  0  0  0  0  0
  -32.4990  -19.1980   20.9180 C   0  0  0  0  0  0  0  0  0  0  0  0
  -33.2070  -17.2900   19.5600 C   0  0  0  0  0  0  0  0  0  0  0  0
  -33.3200  -18.1360   18.4130 C   0  0  0  0  0  0  0  0  0  0  0  0
  -32.9990  -19.5220   18.5310 C   0  0  0  0  0  0  0  0  0  0  0  0
  -32.5810  -20.0510   19.7900 C   0  0  0  0  0  0  0  0  0  0  0  0
  -32.0760  -19.6790   22.3000 C   0  0  0  0  0  1  0  0  0  0  0  0
  -33.7590  -17.6010   17.0410 C   0  0  0  0  0  1  0  0  0  0  0  0
  -33.0760  -20.4100   17.2770 C   0  0  0  0  0  1  0  0  0  0  0  0
  -33.5180  -15.7890   19.5870 C   0  0  0  0  0  2  0  0  0  0  0  0
  -32.6040  -14.9140   20.4990 C   0  0  0  0  0  2  0  0  0  0  0  0
  -30.9870  -13.6890   19.0880 C   0  0  0  0  0  0  0  0  0  0  0  0
  -30.5040  -11.3080   18.7920 C   0  0  0  0  0  2  0  0  0  0  0  0
  -29.4750  -11.0920   17.6700 C   0  0  0  0  0  2  0  0  0  0  0  0
  -28.0510  -11.1350   18.2430 C   0  0  0  0  0  2  0  0  0  0  0  0
  -27.8070  -12.3910   19.1180 C   0  0  0  0  0  3  0  0  0  0  0  0
  -28.9470  -12.5910   20.1470 C   0  0  0  0  0  2  0  0  0  0  0  0
  -30.2430  -12.6030   19.4440 N   0  0  0  0  0  0  0  0  0  0  0  0
  -31.7210  -13.6510   18.1050 O   0  0  0  0  0  0  0  0  0  0  0  0
  -31.2190  -14.6020   20.0560 N   0  0  0  0  0  0  0  0  0  0  0  0
  -25.6150  -13.3530   20.0710 C   0  0  0  0  0  0  0  0  0  0  0  0
  -24.5150  -12.7500   20.6130 C   0  0  0  0  0  0  0  0  0  0  0  0
  -24.7890  -11.3470   20.6140 C   0  0  0  0  0  0  0  0  0  0  0  0
  -26.5020  -12.3290   19.7720 N   0  0  0  0  0  0  0  0  0  0  0  0
  -26.0120  -11.1200   20.1540 N   0  0  0  0  0  0  0  0  0  0  0  0
  -23.9410  -10.2040   20.9680 C   0  0  0  0  0  0  0  0  0  0  0  0
  -24.3900   -9.1960   21.8500 C   0  0  0  0  0  3  0  0  0  0  0  0
  -23.5450   -8.1160   22.1870 C   0  0  0  0  0  3  0  0  0  0  0  0
  -22.2400   -8.0370   21.6440 C   0  0  0  0  0  0  0  0  0  0  0  0
  -21.8090   -9.0330   20.7490 C   0  0  0  0  0  3  0  0  0  0  0  0
  -22.6510  -10.1040   20.4100 C   0  0  0  0  0  3  0  0  0  0  0  0
  -21.3590   -7.0140   21.8970 O   0  0  0  0  0  0  0  0  0  0  0  0
  -21.4760   -6.2250   23.0140 C   0  0  0  0  0  0  0  0  0  0  0  0
  -21.4490   -6.7680   24.3160 C   0  0  0  0  0  3  0  0  0  0  0  0
  -21.5010   -5.9160   25.4360 C   0  0  0  0  0  3  0  0  0  0  0  0
  -21.5730   -4.5210   25.2570 C   0  0  0  0  0  0  0  0  0  0  0  0
  -21.5930   -3.9780   23.9610 C   0  0  0  0  0  3  0  0  0  0  0  0
  -21.5420   -4.8280   22.8430 C   0  0  0  0  0  0  0  0  0  0  0  0
  -21.5410   -4.2990   21.5950 F   0  0  0  0  0  0  0  0  0  0  0  0
  -21.6150   -3.7000   26.3320 F   0  0  0  0  0  0  0  0  0  0  0  0
  -23.2350  -13.4200   21.0240 C   0  0  0  0  0  0  0  0  0  0  0  0
  -22.5520  -12.8880   22.0290 N   0  0  0  0  0  0  0  0  0  0  0  0
  -22.8600  -14.4610   20.4810 O   0  0  0  0  0  0  0  0  0  0  0  0
  -22.8690  -12.0520   22.5000 H   0  0  0  0  0  0  0  0  0  0  0  0
  -21.6950  -13.3240   22.3390 H   0  0  0  0  0  0  0  0  0  0  0  0
  -25.9280  -14.6820   19.7900 N   0  0  0  0  0  0  0  0  0  0  0  0
  -25.2670  -15.4380   19.9470 H   0  0  0  0  0  0  0  0  0  0  0  0
  -26.7910  -14.9950   19.3640 H   0  0  0  0  0  0  0  0  0  0  0  0
  -30.1530  -15.8500   21.9200 C   0  0  0  0  0  1  0  0  0  0  0  0
  -30.2160  -15.6190   20.4000 C   0  0  0  0  0  2  0  0  0  0  0  0
  -32.2090  -21.5150   19.9700 C   0  0  0  0  0  2  0  0  0  0  0  0
  -30.8330  -21.8730   19.3880 C   0  0  0  0  0  2  0  0  0  0  0  0
  -31.4240  -23.2600   17.3460 C   0  0  0  0  0  1  0  0  0  0  0  0
  -30.8680  -23.2800   18.7810 C   0  0  0  0  0  3  0  0  0  0  0  0
  -29.5310  -23.9020   18.8340 N   0  0  0  0  0  4  0  0  0  0  0  0
  -29.0290  -23.7170   17.9770 H   0  0  0  0  0  0  0  0  0  0  0  0
  -29.0140  -23.4420   19.5730 H   0  0  0  0  0  0  0  0  0  0  0  0
  -29.5900  -25.3580   19.1240 C   0  0  0  0  0  2  0  0  0  0  0  0
  -28.2210  -26.0180   19.0400 C   0  0  0  0  0  2  0  0  0  0  0  0
  -28.3040  -27.3720   19.5000 O   0  0  0  0  0  0  0  0  0  0  0  0
  -24.7410  -32.0380   23.5630 C   0  0  0  0  0  0  0  0  0  0  0  0
  -27.1120  -28.0290   19.7370 C   0  0  0  0  0  0  0  0  0  0  0  0
  -23.3950  -30.7780   21.9250 C   0  0  0  0  0  3  0  0  0  0  0  0
  -24.7080  -29.4490   20.1970 C   0  0  0  0  0  0  0  0  0  0  0  0
  -25.8720  -31.2350   21.4910 C   0  0  0  0  0  2  0  0  0  0  0  0
  -25.9150  -29.9360   20.7110 C   0  0  0  0  0  0  0  0  0  0  0  0
  -27.1180  -29.2320   20.4810 C   0  0  0  0  0  3  0  0  0  0  0  0
  -25.8730  -27.5430   19.2510 C   0  0  0  0  0  3  0  0  0  0  0  0
  -24.6800  -28.2480   19.4780 C   0  0  0  0  0  3  0  0  0  0  0  0
  -23.4670  -30.2680   20.4620 C   0  0  0  0  0  2  0  0  0  0  0  0
  -24.6990  -31.3510   22.3880 N   0  0  0  0  0  0  0  0  0  0  0  0
  -23.7160  -32.2280   24.2320 O   0  0  0  0  0  0  0  0  0  0  0  0
  -22.8700  -29.6370   22.8230 C   0  0  0  0  0  0  0  0  0  0  0  0
  -21.6020  -29.2500   22.6140 N   0  0  0  0  0  0  0  0  0  0  0  0
  -23.5990  -29.1110   23.6670 O   0  0  0  0  0  0  0  0  0  0  0  0
  -21.0670  -29.7450   21.9130 H   0  0  0  0  0  0  0  0  0  0  0  0
  -18.5330  -27.3500   22.7200 C   0  0  0  0  0  0  0  0  0  0  0  0
  -20.9070  -28.1730   23.3200 C   0  0  0  0  0  3  0  0  0  0  0  0
  -21.4000  -26.7860   22.8460 C   0  0  0  0  0  2  0  0  0  0  0  0
  -20.5510  -26.1980   21.7120 C   0  0  0  0  0  2  0  0  0  0  0  0
  -19.0920  -26.0530   22.1540 C   0  0  0  0  0  2  0  0  0  0  0  0
  -19.3880  -28.3520   23.2520 C   0  0  0  0  0  0  0  0  0  0  0  0
  -18.8230  -29.5500   23.7330 C   0  0  0  0  0  3  0  0  0  0  0  0
  -17.4320  -29.7550   23.7030 C   0  0  0  0  0  3  0  0  0  0  0  0
  -16.5880  -28.7570   23.1880 C   0  0  0  0  0  3  0  0  0  0  0  0
  -17.1380  -27.5580   22.6980 C   0  0  0  0  0  3  0  0  0  0  0  0
  -26.0730  -32.6410   24.1070 C   0  0  0  0  0  3  0  0  0  0  0  0
  -26.6440  -31.8500   25.3480 C   0  0  1  0  0  0  0  0  0  0  0  0
  -25.5910  -31.5470   26.4410 C   0  0  0  0  0  1  0  0  0  0  0  0
  -27.2610  -30.5050   24.8950 C   0  0  0  0  0  1  0  0  0  0  0  0
  -27.7760  -32.6650   26.0090 C   0  0  0  0  0  1  0  0  0  0  0  0
  -25.8120  -34.0420   24.4600 N   0  0  0  0  0  0  0  0  0  0  0  0
  -26.1600  -35.0930   23.7050 C   0  0  0  0  0  0  0  0  0  0  0  0
  -26.8080  -34.9800   22.6620 O   0  0  0  0  0  0  0  0  0  0  0  0
  -25.2390  -34.2050   25.2720 H   0  0  0  0  0  0  0  0  0  0  0  0
  -24.4980  -36.9570   23.3640 C   0  0  0  0  0  1  0  0  0  0  0  0
  -25.7120  -36.4890   24.1820 C   0  0  0  0  0  3  0  0  0  0  0  0
  -27.8750  -37.2680   25.0400 C   0  0  0  0  0  1  0  0  0  0  0  0
  -26.7810  -37.5080   24.1030 N   0  0  0  0  0  0  0  0  0  0  0  0
  -26.4070  -38.4340   24.2860 H   0  0  0  0  0  0  0  0  0  0  0  0
  1  2  1  0
  2  7  1  0
  3 10  1  0
  3  1  2  0
  4  5  2  0
  4  3  1  0
  5  6  1  0
  6 51  1  0
  6  2  2  0
  8  4  1  0
  9  5  1  0
 10 11  1  0
 12 18  1  0
 12 20  1  0
 13 18  1  0
 14 15  1  0
 14 13  1  0
 16 15  1  0
 16 24  1  0
 16 17  1  0
 18 17  1  0
 19 12  2  0
 20 50  1  0
 20 11  1  0
 21 22  2  0
 22 23  1  0
 22 41  1  0
 23 26  1  0
 24 21  1  0
 24 25  1  0
 25 23  2  0
 26 27  1  0
 27 28  2  0
 29 32  1  0
 29 28  1  0
 30 29  2  0
 31 30  1  0
 31 26  2  0
 32 33  1  0
 33 34  1  0
 34 35  2  0
 36 35  1  0
 36 40  1  0
 37 36  2  0
 38 33  2  0
 38 37  1  0
 39 38  1  0
 41 42  1  0
 42 45  1  0
 42 44  1  0
 43 41  2  0
 46 47  1  0
 46 21  1  0
 48 46  1  0
 50 49  1  0
 52 51  1  0
 54 53  1  0
 54 55  1  0
 54 52  1  0
 55 58  1  0
 55 57  1  0
 56 55  1  0
 59 58  1  0
 59 60  1  0
 60 62  1  0
 61 72  2  0
 62 67  1  0
 63 71  1  0
 63 73  1  0
 64 70  1  0
 64 66  1  0
 65 71  1  0
 66 65  1  0
 67 66  2  0
 68 69  1  0
 68 62  2  0
 69 64  2  0
 70 63  1  0
 71 61  1  0
 73 75  2  0
 74 73  1  0
 76 74  1  0
 77 82  1  0
 78 74  1  0
 79 78  1  0
 80 81  1  0
 80 79  1  0
 81 77  1  0
 82 78  1  0
 82 83  2  0
 84 83  1  0
 85 84  2  0
 86 77  2  0
 86 85  1  0
 87 61  1  0
 87 92  1  0
 87 88  1  0
 88 91  1  1
 88 89  1  0
 90 88  1  0
 92 95  1  0
 93 97  1  0
 93 92  1  0
 94 93  2  0
 97 96  1  0
 99 97  1  0
 99100  1  0
 99 98  1  0
M  ISO  4  12 100  20 100  59 101  60 101
M  END
>  <TORSDO>  (73) 
F 25

>  <SCORE>  (73) 
-9.663

>  <name>  (73) 
74

>  <ligand_id>  (73) 
74

>  <original_smiles>  (73) 
[H]c1c([H])c([H])c2c(c1[H])C([H])([H])C([H])([H])C([H])([H])C2([H])N([H])C(=O)C1([H])N(C(=O)C([H])(N([H])C(=O)C([H])(N([H])C([H])([H])[H])C([H])([H])[H])C(C([H])([H])[H])(C([H])([H])[H])C([H])([H])[H])C([H])([H])c2c([H])c(OC([H])([H])C([H])([H])[N+]([H])([H])C([H])(C([H])([H])[H])C([H])([H])C([H])([H])c3c(C([H])([H])[H])c([H])c(C([H])([H])C([H])([H])N(C(=O)N4C([H])([H])C([H])([H])C([H])([H])C([H])(n5nc(-c6c([H])c([H])c(Oc7c([H])c([H])c(F)c([H])c7F)c([H])c6[H])c(C(=O)N([H])[H])c5N([H])[H])C4([H])[H])C([H])([H])C([H])([H])[H])c(C([H])([H])[H])c3C([H])([H])[H])c([H])c([H])c2C1([H])[H]

>  <smiles>  (73) 
[H]c1c([H])c([H])c2c(c1[H])C([H])([H])C([H])([H])C([H])([H])C2([H])N([H])C(=O)C1([H])N(C(=O)C([H])(N([H])C(=O)C([H])(N([H])C([H])([H])[H])C([H])([H])[H])C(C([H])([H])[H])(C([H])([H])[H])C([H])([H])[H])C([H])([H])c2c([H])c(OC([H])([H])C([H])([H])[N+]([H])([H])C([H])(C([H])([H])[H])C([H])([H])C([H])([H])c3c(C([H])([H])[H])c([H])c(C([H])([H])C([H])([H])N(C(=O)N4C([H])([H])C([H])([H])C([H])([H])C([H])(n5nc(-c6c([H])c([H])c(Oc7c([H])c([H])c(F)c([H])c7F)c([H])c6[H])c(C(=O)N([H])[H])c5N([H])[H])C4([H])[H])C([H])([H])C([H])([H])[H])c(C([H])([H])[H])c3C([H])([H])[H])c([H])c([H])c2C1([H])[H]

$$$$
75:0:0
     RDKit          3D

 96104  0  0  1  0  0  0  0  0999 V2000
  -26.8810  -21.1200   18.4110 C   0  0  0  0  0  1  0  0  0  0  0  0
  -28.0690  -20.4660   19.1570 C   0  0  0  0  0  3  0  0  0  0  0  0
  -27.7860  -16.2830   20.4460 C   0  0  0  0  0  3  0  0  0  0  0  0
  -29.0480  -18.3140   20.0500 C   0  0  0  0  0  3  0  0  0  0  0  0
  -29.0180  -16.9530   20.4210 C   0  0  0  0  0  0  0  0  0  0  0  0
  -26.5970  -16.9380   20.0760 C   0  0  0  0  0  0  0  0  0  0  0  0
  -27.8750  -18.9990   19.6260 C   0  0  0  0  0  0  0  0  0  0  0  0
  -26.6290  -18.2950   19.6310 C   0  0  0  0  0  0  0  0  0  0  0  0
  -25.3250  -16.1010   20.1760 C   0  0  0  0  0  1  0  0  0  0  0  0
  -25.3430  -18.9600   19.1370 C   0  0  0  0  0  1  0  0  0  0  0  0
  -30.2930  -16.2060   20.8060 C   0  0  0  0  0  2  0  0  0  0  0  0
  -30.9130  -13.7700   20.8200 C   0  0  0  0  0  0  0  0  0  0  0  0
  -30.9600  -11.3310   20.4770 C   0  0  0  0  0  2  0  0  0  0  0  0
  -30.1780  -10.9850   19.1920 C   0  0  0  0  0  2  0  0  0  0  0  0
  -28.6650  -10.8710   19.4750 C   0  0  0  0  0  2  0  0  0  0  0  0
  -28.1070  -12.0670   20.2950 C   0  0  0  0  0  3  0  0  0  0  0  0
  -28.9970  -12.3040   21.5270 C   0  0  0  0  0  2  0  0  0  0  0  0
  -30.3700  -12.5450   21.0500 N   0  0  0  0  0  0  0  0  0  0  0  0
  -32.0480  -13.9360   20.3660 O   0  0  0  0  0  0  0  0  0  0  0  0
  -30.0660  -14.7830   21.0300 N   0  0  0  0  0  0  0  0  0  0  0  0
  -29.1320  -14.5220   21.2960 H   0  0  0  0  0  0  0  0  0  0  0  0
  -25.6710  -12.7720   20.7750 C   0  0  0  0  0  0  0  0  0  0  0  0
  -24.5590  -12.0330   21.0960 C   0  0  0  0  0  0  0  0  0  0  0  0
  -24.9990  -10.6770   21.1800 C   0  0  0  0  0  0  0  0  0  0  0  0
  -26.7140  -11.8590   20.6790 N   0  0  0  0  0  0  0  0  0  0  0  0
  -26.3060  -10.6010   20.9860 N   0  0  0  0  0  0  0  0  0  0  0  0
  -24.2440   -9.4340   21.3900 C   0  0  0  0  0  0  0  0  0  0  0  0
  -24.5980   -8.5120   22.4000 C   0  0  0  0  0  3  0  0  0  0  0  0
  -23.8450   -7.3340   22.5940 C   0  0  0  0  0  3  0  0  0  0  0  0
  -22.7240   -7.0680   21.7730 C   0  0  0  0  0  0  0  0  0  0  0  0
  -22.3860   -7.9750   20.7550 C   0  0  0  0  0  3  0  0  0  0  0  0
  -23.1400   -9.1450   20.5610 C   0  0  0  0  0  3  0  0  0  0  0  0
  -21.9510   -5.9360   21.8720 O   0  0  0  0  0  0  0  0  0  0  0  0
  -21.8300   -5.2460   23.0520 C   0  0  0  0  0  0  0  0  0  0  0  0
  -21.3290   -5.8560   24.2220 C   0  0  0  0  0  3  0  0  0  0  0  0
  -21.1530   -5.0920   25.3930 C   0  0  0  0  0  3  0  0  0  0  0  0
  -21.4690   -3.7210   25.3940 C   0  0  0  0  0  0  0  0  0  0  0  0
  -21.9640   -3.1110   24.2270 C   0  0  0  0  0  3  0  0  0  0  0  0
  -22.1380   -3.8710   23.0570 C   0  0  0  0  0  0  0  0  0  0  0  0
  -22.5960   -3.2770   21.9290 F   0  0  0  0  0  0  0  0  0  0  0  0
  -21.2960   -2.9840   26.5150 F   0  0  0  0  0  0  0  0  0  0  0  0
  -23.1540  -12.5430   21.2230 C   0  0  0  0  0  0  0  0  0  0  0  0
  -22.3470  -11.9030   22.0640 N   0  0  0  0  0  0  0  0  0  0  0  0
  -22.7760  -13.5390   20.6150 O   0  0  0  0  0  0  0  0  0  0  0  0
  -22.6660  -11.0940   22.5740 H   0  0  0  0  0  0  0  0  0  0  0  0
  -21.3980  -12.2220   22.1940 H   0  0  0  0  0  0  0  0  0  0  0  0
  -25.8810  -14.1290   20.5410 N   0  0  0  0  0  0  0  0  0  0  0  0
  -25.1300  -14.8050   20.6260 H   0  0  0  0  0  0  0  0  0  0  0  0
  -26.7880  -14.5590   20.4050 H   0  0  0  0  0  0  0  0  0  0  0  0
  -28.5750  -21.3510   20.2370 N   0  0  0  0  0  4  0  0  0  0  0  0
  -27.7930  -21.8670   20.6170 H   0  0  0  0  0  0  0  0  0  0  0  0
  -28.9210  -20.7520   20.9700 H   0  0  0  0  0  0  0  0  0  0  0  0
  -29.6730  -22.2730   19.8370 C   0  0  0  0  0  2  0  0  0  0  0  0
  -29.6730  -23.6620   20.5360 C   0  0  0  0  0  2  0  0  0  0  0  0
  -28.6150  -24.6260   19.9790 C   0  0  0  0  0  2  0  0  0  0  0  0
  -28.7330  -25.9660   20.4820 O   0  0  0  0  0  0  0  0  0  0  0  0
  -24.9890  -31.2440   23.4570 C   0  0  0  0  0  0  0  0  0  0  0  0
  -27.6020  -26.7590   20.3990 C   0  0  0  0  0  0  0  0  0  0  0  0
  -23.8200  -29.9420   21.7110 C   0  0  0  0  0  3  0  0  0  0  0  0
  -25.2800  -28.3700   20.3300 C   0  0  0  0  0  0  0  0  0  0  0  0
  -26.3620  -30.1820   21.6680 C   0  0  0  0  0  2  0  0  0  0  0  0
  -26.4240  -28.8210   21.0000 C   0  0  0  0  0  0  0  0  0  0  0  0
  -27.5900  -28.0190   21.0340 C   0  0  0  0  0  3  0  0  0  0  0  0
  -26.4400  -26.3430   19.7030 C   0  0  0  0  0  3  0  0  0  0  0  0
  -25.2820  -27.1310   19.6770 C   0  0  0  0  0  3  0  0  0  0  0  0
  -24.0790  -29.2820   20.3300 C   0  0  0  0  0  2  0  0  0  0  0  0
  -25.0730  -30.4690   22.3380 N   0  0  0  0  0  0  0  0  0  0  0  0
  -23.8910  -31.5540   23.9410 O   0  0  0  0  0  0  0  0  0  0  0  0
  -23.0690  -28.9340   22.6080 C   0  0  0  0  0  0  0  0  0  0  0  0
  -21.7550  -28.7950   22.3810 N   0  0  0  0  0  0  0  0  0  0  0  0
  -23.6680  -28.2740   23.4630 O   0  0  0  0  0  0  0  0  0  0  0  0
  -21.3420  -29.3860   21.6670 H   0  0  0  0  0  0  0  0  0  0  0  0
  -18.3150  -27.7030   22.6630 C   0  0  0  0  0  0  0  0  0  0  0  0
  -20.8610  -27.8630   23.0720 C   0  0  0  0  0  3  0  0  0  0  0  0
  -20.9550  -26.4460   22.4640 C   0  0  0  0  0  2  0  0  0  0  0  0
  -19.8830  -26.1650   21.4110 C   0  0  0  0  0  2  0  0  0  0  0  0
  -18.4820  -26.3490   22.0000 C   0  0  0  0  0  2  0  0  0  0  0  0
  -19.4340  -28.4160   23.1650 C   0  0  0  0  0  0  0  0  0  0  0  0
  -19.2360  -29.6830   23.7550 C   0  0  0  0  0  3  0  0  0  0  0  0
  -17.9500  -30.2320   23.8690 C   0  0  0  0  0  3  0  0  0  0  0  0
  -16.8380  -29.5210   23.3840 C   0  0  0  0  0  3  0  0  0  0  0  0
  -17.0190  -28.2620   22.7790 C   0  0  0  0  0  3  0  0  0  0  0  0
  -26.2630  -31.8000   24.1600 C   0  0  0  0  0  3  0  0  0  0  0  0
  -26.0200  -33.2190   24.4490 N   0  0  0  0  0  0  0  0  0  0  0  0
  -26.4760  -34.2350   23.7060 C   0  0  0  0  0  0  0  0  0  0  0  0
  -27.2140  -34.0770   22.7300 O   0  0  0  0  0  0  0  0  0  0  0  0
  -25.3750  -33.4240   25.1970 H   0  0  0  0  0  0  0  0  0  0  0  0
  -24.9070  -36.1330   23.1850 C   0  0  0  0  0  1  0  0  0  0  0  0
  -26.0420  -35.6560   24.1050 C   0  0  0  0  0  3  0  0  0  0  0  0
  -28.1550  -36.4100   25.1070 C   0  0  0  0  0  1  0  0  0  0  0  0
  -27.1490  -36.6370   24.0740 N   0  0  0  0  0  0  0  0  0  0  0  0
  -26.7910  -37.5820   24.1800 H   0  0  0  0  0  0  0  0  0  0  0  0
  -26.6430  -31.0150   25.4760 C   0  0  1  0  0  0  0  0  0  0  0  0
  -25.4720  -30.8700   26.4750 C   0  0  0  0  0  1  0  0  0  0  0  0
  -27.1490  -29.5930   25.1330 C   0  0  0  0  0  1  0  0  0  0  0  0
  -27.7990  -31.7390   26.2030 C   0  0  0  0  0  1  0  0  0  0  0  0
  2  1  1  0
  2  7  1  0
  2 50  1  0
  4  5  2  0
  5  3  1  0
  5 11  1  0
  6  9  1  0
  6  3  2  0
  7  8  2  0
  7  4  1  0
  8  6  1  0
 10  8  1  0
 11 20  1  0
 12 20  1  0
 12 18  1  0
 13 18  1  0
 14 15  1  0
 14 13  1  0
 16 15  1  0
 16 25  1  0
 16 17  1  0
 18 17  1  0
 19 12  2  0
 20 21  1  0
 22 23  2  0
 23 24  1  0
 23 42  1  0
 24 27  1  0
 25 22  1  0
 25 26  1  0
 26 24  2  0
 27 28  1  0
 28 29  2  0
 30 33  1  0
 30 29  1  0
 31 30  2  0
 32 31  1  0
 32 27  2  0
 33 34  1  0
 34 39  2  0
 34 35  1  0
 35 36  2  0
 36 37  1  0
 37 41  1  0
 38 37  2  0
 39 38  1  0
 40 39  1  0
 42 43  1  0
 43 46  1  0
 43 45  1  0
 44 42  2  0
 47 48  1  0
 47 22  1  0
 49 47  1  0
 50 51  1  0
 50 52  1  0
 53 50  1  0
 53 54  1  0
 55 56  1  0
 55 54  1  0
 57 68  2  0
 58 56  1  0
 58 63  1  0
 59 67  1  0
 59 69  1  0
 60 66  1  0
 60 62  1  0
 61 67  1  0
 62 63  2  0
 62 61  1  0
 64 58  2  0
 65 64  1  0
 65 60  2  0
 66 59  1  0
 67 57  1  0
 69 71  2  0
 70 69  1  0
 72 70  1  0
 73 82  2  0
 73 78  1  0
 74 70  1  0
 74 78  1  0
 75 74  1  0
 76 77  1  0
 76 75  1  0
 77 73  1  0
 78 79  2  0
 79 80  1  0
 81 80  2  0
 82 81  1  0
 83 57  1  0
 83 84  1  0
 83 93  1  0
 84 87  1  0
 85 89  1  0
 85 84  1  0
 86 85  2  0
 89 88  1  0
 91 89  1  0
 91 92  1  0
 91 90  1  0
 93 96  1  1
 93 94  1  0
 95 93  1  0
M  ISO  4  12 100  20 100  55 101  56 101
M  END
>  <TORSDO>  (74) 
F 22

>  <SCORE>  (74) 
-9.320

>  <name>  (74) 
75

>  <ligand_id>  (74) 
75

>  <original_smiles>  (74) 
[H]c1c([H])c([H])c2c(c1[H])C([H])([H])C([H])([H])C([H])([H])C2([H])N([H])C(=O)C1([H])N(C(=O)C([H])(N([H])C(=O)C([H])(N([H])C([H])([H])[H])C([H])([H])[H])C(C([H])([H])[H])(C([H])([H])[H])C([H])([H])[H])C([H])([H])c2c([H])c(OC([H])([H])C([H])([H])C([H])([H])[N+]([H])([H])C([H])(c3c([H])c(C([H])([H])N([H])C(=O)N4C([H])([H])C([H])([H])C([H])([H])C([H])(n5nc(-c6c([H])c([H])c(Oc7c([H])c([H])c(F)c([H])c7F)c([H])c6[H])c(C(=O)N([H])[H])c5N([H])[H])C4([H])[H])c([H])c(C([H])([H])[H])c3C([H])([H])[H])C([H])([H])[H])c([H])c([H])c2C1([H])[H]

>  <smiles>  (74) 
[H]c1c([H])c([H])c2c(c1[H])C([H])([H])C([H])([H])C([H])([H])C2([H])N([H])C(=O)C1([H])N(C(=O)C([H])(N([H])C(=O)C([H])(N([H])C([H])([H])[H])C([H])([H])[H])C(C([H])([H])[H])(C([H])([H])[H])C([H])([H])[H])C([H])([H])c2c([H])c(OC([H])([H])C([H])([H])C([H])([H])[N+]([H])([H])C([H])(c3c([H])c(C([H])([H])N([H])C(=O)N4C([H])([H])C([H])([H])C([H])([H])C([H])(n5nc(-c6c([H])c([H])c(Oc7c([H])c([H])c(F)c([H])c7F)c([H])c6[H])c(C(=O)N([H])[H])c5N([H])[H])C4([H])[H])c([H])c(C([H])([H])[H])c3C([H])([H])[H])C([H])([H])[H])c([H])c([H])c2C1([H])[H]

$$$$
76:0:0
     RDKit          3D

 96104  0  0  1  0  0  0  0  0999 V2000
  -31.1820  -18.9320   15.3210 C   0  0  0  0  0  2  0  0  0  0  0  0
  -33.1430  -18.6380   16.9720 C   0  0  0  0  0  1  0  0  0  0  0  0
  -32.7020  -18.6690   15.4950 C   0  0  0  0  0  3  0  0  0  0  0  0
  -33.2040  -17.5030   14.7180 N   0  0  0  0  0  4  0  0  0  0  0  0
  -33.4020  -17.8030   13.7750 H   0  0  0  0  0  0  0  0  0  0  0  0
  -34.0990  -17.2680   15.1240 H   0  0  0  0  0  0  0  0  0  0  0  0
  -32.3740  -16.2670   14.6830 C   0  0  0  0  0  2  0  0  0  0  0  0
  -33.2210  -15.0220   15.0450 C   0  0  0  0  0  2  0  0  0  0  0  0
  -33.2620  -14.0240   14.0180 O   0  0  0  0  0  0  0  0  0  0  0  0
  -32.6900  -12.5700    7.0840 C   0  0  0  0  0  0  0  0  0  0  0  0
  -33.6860  -14.3630   12.7450 C   0  0  0  0  0  0  0  0  0  0  0  0
  -34.5160  -14.1200    7.7000 C   0  0  0  0  0  3  0  0  0  0  0  0
  -34.4630  -14.9980   10.0920 C   0  0  0  0  0  0  0  0  0  0  0  0
  -32.4040  -13.9570    9.1320 C   0  0  0  0  0  2  0  0  0  0  0  0
  -33.2560  -14.3270   10.3280 C   0  0  0  0  0  0  0  0  0  0  0  0
  -32.8680  -14.0080   11.6480 C   0  0  0  0  0  3  0  0  0  0  0  0
  -34.9000  -15.0430   12.4840 C   0  0  0  0  0  3  0  0  0  0  0  0
  -35.2930  -15.3510   11.1690 C   0  0  0  0  0  3  0  0  0  0  0  0
  -34.8100  -15.3060    8.6550 C   0  0  0  0  0  2  0  0  0  0  0  0
  -33.1800  -13.4920    7.9600 N   0  0  0  0  0  0  0  0  0  0  0  0
  -33.3120  -12.2660    6.0570 O   0  0  0  0  0  0  0  0  0  0  0  0
  -35.6870  -13.1150    7.7870 C   0  0  0  0  0  0  0  0  0  0  0  0
  -36.6710  -13.2660    6.8840 N   0  0  0  0  0  0  0  0  0  0  0  0
  -35.7140  -12.2490    8.6640 O   0  0  0  0  0  0  0  0  0  0  0  0
  -36.5680  -13.9920    6.1900 H   0  0  0  0  0  0  0  0  0  0  0  0
  -39.0420  -11.7980    4.5890 C   0  0  0  0  0  0  0  0  0  0  0  0
  -37.8920  -12.4640    6.8050 C   0  0  0  0  0  3  0  0  0  0  0  0
  -39.1430  -13.3310    7.0790 C   0  0  0  0  0  2  0  0  0  0  0  0
  -39.7790  -13.8930    5.8050 C   0  0  0  0  0  2  0  0  0  0  0  0
  -40.1860  -12.7630    4.8570 C   0  0  0  0  0  2  0  0  0  0  0  0
  -37.9580  -11.6710    5.4950 C   0  0  0  0  0  0  0  0  0  0  0  0
  -36.9010  -10.7900    5.1800 C   0  0  0  0  0  3  0  0  0  0  0  0
  -36.9170  -10.0460    3.9860 C   0  0  0  0  0  3  0  0  0  0  0  0
  -38.0020  -10.1620    3.1000 C   0  0  0  0  0  3  0  0  0  0  0  0
  -39.0620  -11.0350    3.4030 C   0  0  0  0  0  3  0  0  0  0  0  0
  -31.3150  -11.8690    7.3200 C   0  0  0  0  0  3  0  0  0  0  0  0
  -30.5080  -12.0630    6.1080 N   0  0  0  0  0  0  0  0  0  0  0  0
  -29.8950  -13.2080    5.7790 C   0  0  0  0  0  0  0  0  0  0  0  0
  -29.8930  -14.2030    6.5100 O   0  0  0  0  0  0  0  0  0  0  0  0
  -30.5110  -11.3080    5.4380 H   0  0  0  0  0  0  0  0  0  0  0  0
  -29.9080  -14.2240    3.4780 C   0  0  0  0  0  1  0  0  0  0  0  0
  -29.1700  -13.2590    4.4200 C   0  0  0  0  0  3  0  0  0  0  0  0
  -26.8760  -12.5670    4.9560 C   0  0  0  0  0  1  0  0  0  0  0  0
  -27.7500  -13.6570    4.5280 N   0  0  0  0  0  0  0  0  0  0  0  0
  -27.4060  -14.0050    3.6380 H   0  0  0  0  0  0  0  0  0  0  0  0
  -31.4490  -10.3340    7.6630 C   0  0  1  0  0  0  0  0  0  0  0  0
  -31.6960   -9.4430    6.4240 C   0  0  0  0  0  1  0  0  0  0  0  0
  -32.6090  -10.0930    8.6570 C   0  0  0  0  0  1  0  0  0  0  0  0
  -30.1610   -9.8370    8.3590 C   0  0  0  0  0  1  0  0  0  0  0  0
  -30.7950  -20.3700   15.7260 C   0  0  0  0  0  2  0  0  0  0  0  0
  -30.6950  -22.3850   12.4750 C   0  0  0  0  0  3  0  0  0  0  0  0
  -30.4410  -21.3950   13.4420 C   0  0  0  0  0  3  0  0  0  0  0  0
  -31.6240  -23.4100   12.7380 C   0  0  0  0  0  3  0  0  0  0  0  0
  -32.0410  -22.4580   14.9430 C   0  0  0  0  0  3  0  0  0  0  0  0
  -31.1150  -21.4250   14.6780 C   0  0  0  0  0  0  0  0  0  0  0  0
  -32.2960  -23.4580   13.9750 C   0  0  0  0  0  0  0  0  0  0  0  0
  -34.3660  -24.1220   15.2580 C   0  0  0  0  0  1  0  0  0  0  0  0
  -33.2940  -24.5770   14.2530 C   0  0  0  0  0  3  0  0  0  0  0  0
  -31.4950  -25.7390   15.5120 C   0  0  0  0  0  0  0  0  0  0  0  0
  -30.8270  -26.5270   17.7370 C   0  0  0  0  0  2  0  0  0  0  0  0
  -31.5500  -27.8560   18.0330 C   0  0  0  0  0  2  0  0  0  0  0  0
  -32.9390  -27.6000   18.6530 C   0  0  0  0  0  2  0  0  0  0  0  0
  -33.7630  -26.5460   17.8650 C   0  0  0  0  0  3  0  0  0  0  0  0
  -32.9090  -25.2960   17.5620 C   0  0  0  0  0  2  0  0  0  0  0  0
  -31.6960  -25.7370   16.8540 N   0  0  0  0  0  0  0  0  0  0  0  0
  -30.4380  -26.0880   14.9850 O   0  0  0  0  0  0  0  0  0  0  0  0
  -32.5980  -25.7540   14.7580 N   0  0  0  0  0  0  0  0  0  0  0  0
  -32.5010  -26.4360   14.0210 H   0  0  0  0  0  0  0  0  0  0  0  0
  -36.2270  -26.8450   18.5560 C   0  0  0  0  0  0  0  0  0  0  0  0
  -37.0170  -26.1640   19.4420 C   0  0  0  0  0  0  0  0  0  0  0  0
  -36.2040  -25.1160   19.9720 C   0  0  0  0  0  0  0  0  0  0  0  0
  -34.9990  -26.2030   18.5690 N   0  0  0  0  0  0  0  0  0  0  0  0
  -35.0090  -25.1220   19.3930 N   0  0  0  0  0  0  0  0  0  0  0  0
  -36.4740  -24.1440   21.0390 C   0  0  0  0  0  0  0  0  0  0  0  0
  -36.1700  -22.7730   20.8850 C   0  0  0  0  0  3  0  0  0  0  0  0
  -36.4560  -21.8550   21.9170 C   0  0  0  0  0  3  0  0  0  0  0  0
  -37.0540  -22.3030   23.1190 C   0  0  0  0  0  0  0  0  0  0  0  0
  -37.3310  -23.6720   23.2780 C   0  0  0  0  0  3  0  0  0  0  0  0
  -37.0410  -24.5850   22.2520 C   0  0  0  0  0  3  0  0  0  0  0  0
  -37.3410  -21.4890   24.1870 O   0  0  0  0  0  0  0  0  0  0  0  0
  -38.3120  -20.5240   24.1140 C   0  0  0  0  0  0  0  0  0  0  0  0
  -39.6550  -20.7900   24.4560 C   0  0  0  0  0  3  0  0  0  0  0  0
  -40.6080  -19.7510   24.4330 C   0  0  0  0  0  3  0  0  0  0  0  0
  -40.2180  -18.4450   24.0790 C   0  0  0  0  0  0  0  0  0  0  0  0
  -38.8790  -18.1780   23.7420 C   0  0  0  0  0  3  0  0  0  0  0  0
  -37.9290  -19.2140   23.7630 C   0  0  0  0  0  0  0  0  0  0  0  0
  -36.6370  -18.9450   23.4600 F   0  0  0  0  0  0  0  0  0  0  0  0
  -41.1300  -17.4450   24.0630 F   0  0  0  0  0  0  0  0  0  0  0  0
  -38.4190  -26.5210   19.8480 C   0  0  0  0  0  0  0  0  0  0  0  0
  -39.3630  -25.6050   19.6620 N   0  0  0  0  0  0  0  0  0  0  0  0
  -38.6960  -27.6350   20.2890 O   0  0  0  0  0  0  0  0  0  0  0  0
  -39.1390  -24.6980   19.2820 H   0  0  0  0  0  0  0  0  0  0  0  0
  -40.3200  -25.8150   19.9070 H   0  0  0  0  0  0  0  0  0  0  0  0
  -36.4450  -27.9630   17.7580 N   0  0  0  0  0  0  0  0  0  0  0  0
  -37.3520  -28.4120   17.7050 H   0  0  0  0  0  0  0  0  0  0  0  0
  -35.8120  -28.2810   17.0340 H   0  0  0  0  0  0  0  0  0  0  0  0
  1  3  1  0
  1 50  1  0
  3  2  1  0
  4  6  1  0
  4  3  1  0
  5  4  1  0
  7  4  1  0
  7  8  1  0
  9  8  1  0
 10 20  1  0
 11  9  1  0
 12 22  1  0
 12 20  1  0
 12 19  1  0
 13 15  2  0
 13 18  1  0
 14 15  1  0
 15 16  1  0
 16 11  2  0
 17 11  1  0
 18 17  2  0
 19 13  1  0
 20 14  1  0
 21 10  2  0
 22 24  2  0
 23 22  1  0
 25 23  1  0
 26 30  1  0
 26 31  1  0
 27 23  1  0
 27 28  1  0
 29 28  1  0
 30 29  1  0
 31 27  1  0
 32 31  2  0
 33 32  1  0
 34 35  1  0
 34 33  2  0
 35 26  2  0
 36 10  1  0
 36 46  1  0
 37 36  1  0
 38 37  1  0
 38 39  2  0
 40 37  1  0
 42 41  1  0
 42 44  1  0
 42 38  1  0
 44 43  1  0
 45 44  1  0
 46 49  1  1
 46 48  1  0
 47 46  1  0
 51 53  2  0
 51 52  1  0
 52 55  2  0
 53 56  1  0
 55 54  1  0
 55 50  1  0
 56 58  1  0
 56 54  2  0
 58 67  1  0
 58 57  1  0
 59 65  1  0
 60 61  1  0
 61 62  1  0
 63 64  1  0
 63 72  1  0
 63 62  1  0
 65 64  1  0
 65 60  1  0
 66 59  2  0
 67 59  1  0
 68 67  1  0
 69 72  1  0
 69 70  2  0
 70 89  1  0
 70 71  1  0
 71 74  1  0
 72 73  1  0
 73 71  2  0
 74 79  1  0
 75 74  2  0
 75 76  1  0
 76 77  2  0
 77 78  1  0
 77 80  1  0
 79 78  2  0
 81 80  1  0
 81 82  1  0
 83 82  2  0
 84 83  1  0
 85 86  1  0
 85 84  2  0
 86 81  2  0
 87 86  1  0
 88 84  1  0
 89 91  2  0
 90 89  1  0
 90 93  1  0
 92 90  1  0
 94 69  1  0
 95 94  1  0
 96 94  1  0
M  ISO  4   8 101   9 101  59 100  67 100
M  END
>  <TORSDO>  (75) 
F 23

>  <SCORE>  (75) 
-3.341

>  <name>  (75) 
76

>  <ligand_id>  (75) 
76

>  <original_smiles>  (75) 
[H]c1c([H])c([H])c2c(c1[H])C([H])([H])C([H])([H])C([H])([H])C2([H])N([H])C(=O)C1([H])N(C(=O)C([H])(N([H])C(=O)C([H])(N([H])C([H])([H])[H])C([H])([H])[H])C(C([H])([H])[H])(C([H])([H])[H])C([H])([H])[H])C([H])([H])c2c([H])c(OC([H])([H])C([H])([H])[N+]([H])([H])C([H])(C([H])([H])[H])C([H])([H])C([H])([H])c3c([H])c([H])c([H])c(C([H])(N([H])C(=O)N4C([H])([H])C([H])([H])C([H])([H])C([H])(n5nc(-c6c([H])c([H])c(Oc7c([H])c([H])c(F)c([H])c7F)c([H])c6[H])c(C(=O)N([H])[H])c5N([H])[H])C4([H])[H])C([H])([H])[H])c3[H])c([H])c([H])c2C1([H])[H]

>  <smiles>  (75) 
[H]c1c([H])c([H])c2c(c1[H])C([H])([H])C([H])([H])C([H])([H])C2([H])N([H])C(=O)C1([H])N(C(=O)C([H])(N([H])C(=O)C([H])(N([H])C([H])([H])[H])C([H])([H])[H])C(C([H])([H])[H])(C([H])([H])[H])C([H])([H])[H])C([H])([H])c2c([H])c(OC([H])([H])C([H])([H])[N+]([H])([H])C([H])(C([H])([H])[H])C([H])([H])C([H])([H])c3c([H])c([H])c([H])c(C([H])(N([H])C(=O)N4C([H])([H])C([H])([H])C([H])([H])C([H])(n5nc(-c6c([H])c([H])c(Oc7c([H])c([H])c(F)c([H])c7F)c([H])c6[H])c(C(=O)N([H])[H])c5N([H])[H])C4([H])[H])C([H])([H])[H])c3[H])c([H])c([H])c2C1([H])[H]

$$$$
77:0:0
     RDKit          3D

 93101  0  0  1  0  0  0  0  0999 V2000
  -29.7410  -22.1230   22.4260 C   0  0  0  0  0  1  0  0  0  0  0  0
  -28.7290  -21.9060   21.2760 C   0  0  0  0  0  3  0  0  0  0  0  0
  -27.7340  -18.8010   19.2110 C   0  0  0  0  0  3  0  0  0  0  0  0
  -28.7010  -17.8450   19.5740 C   0  0  0  0  0  3  0  0  0  0  0  0
  -27.7730  -20.0970   19.7600 C   0  0  0  0  0  3  0  0  0  0  0  0
  -29.7430  -19.4760   21.0500 C   0  0  0  0  0  3  0  0  0  0  0  0
  -29.7230  -18.1630   20.4930 C   0  0  0  0  0  0  0  0  0  0  0  0
  -28.7770  -20.4670   20.6840 C   0  0  0  0  0  0  0  0  0  0  0  0
  -30.8160  -17.1160   20.8230 C   0  0  0  0  0  2  0  0  0  0  0  0
  -31.1070  -14.6210   20.4280 C   0  0  0  0  0  0  0  0  0  0  0  0
  -30.8090  -12.4020   19.3860 C   0  0  0  0  0  2  0  0  0  0  0  0
  -29.9110  -12.5530   18.1410 C   0  0  0  0  0  2  0  0  0  0  0  0
  -28.4210  -12.4560   18.5340 C   0  0  0  0  0  2  0  0  0  0  0  0
  -28.0570  -13.3570   19.7470 C   0  0  0  0  0  3  0  0  0  0  0  0
  -29.0820  -13.1850   20.8910 C   0  0  0  0  0  2  0  0  0  0  0  0
  -30.4220  -13.4480   20.3440 N   0  0  0  0  0  0  0  0  0  0  0  0
  -32.2620  -14.7450   20.0110 O   0  0  0  0  0  0  0  0  0  0  0  0
  -30.3870  -15.6930   20.8380 N   0  0  0  0  0  0  0  0  0  0  0  0
  -29.4410  -15.5010   21.1190 H   0  0  0  0  0  0  0  0  0  0  0  0
  -25.6650  -14.0400   20.4070 C   0  0  0  0  0  0  0  0  0  0  0  0
  -24.5690  -13.3030   20.7740 C   0  0  0  0  0  0  0  0  0  0  0  0
  -24.9890  -11.9370   20.7590 C   0  0  0  0  0  0  0  0  0  0  0  0
  -26.6870  -13.1240   20.2040 N   0  0  0  0  0  0  0  0  0  0  0  0
  -26.2830  -11.8560   20.4740 N   0  0  0  0  0  0  0  0  0  0  0  0
  -24.2140  -10.7040   20.9460 C   0  0  0  0  0  0  0  0  0  0  0  0
  -24.5950   -9.7300   21.8950 C   0  0  0  0  0  3  0  0  0  0  0  0
  -23.8240   -8.5600   22.0670 C   0  0  0  0  0  3  0  0  0  0  0  0
  -22.6580   -8.3570   21.2920 C   0  0  0  0  0  0  0  0  0  0  0  0
  -22.3000   -9.3180   20.3280 C   0  0  0  0  0  3  0  0  0  0  0  0
  -23.0700  -10.4780   20.1530 C   0  0  0  0  0  3  0  0  0  0  0  0
  -21.8640   -7.2380   21.3740 O   0  0  0  0  0  0  0  0  0  0  0  0
  -21.7530   -6.5180   22.5370 C   0  0  0  0  0  0  0  0  0  0  0  0
  -21.3110   -7.1080   23.7420 C   0  0  0  0  0  3  0  0  0  0  0  0
  -21.1400   -6.3140   24.8930 C   0  0  0  0  0  3  0  0  0  0  0  0
  -21.4060   -4.9320   24.8430 C   0  0  0  0  0  0  0  0  0  0  0  0
  -21.8450   -4.3420   23.6460 C   0  0  0  0  0  3  0  0  0  0  0  0
  -22.0140   -5.1330   22.4950 C   0  0  0  0  0  0  0  0  0  0  0  0
  -22.4130   -4.5530   21.3370 F   0  0  0  0  0  0  0  0  0  0  0  0
  -21.2370   -4.1700   25.9490 F   0  0  0  0  0  0  0  0  0  0  0  0
  -23.1850  -13.8290   21.0210 C   0  0  0  0  0  0  0  0  0  0  0  0
  -22.4190  -13.1780   21.8950 N   0  0  0  0  0  0  0  0  0  0  0  0
  -22.7860  -14.8560   20.4740 O   0  0  0  0  0  0  0  0  0  0  0  0
  -22.7450  -12.3470   22.3670 H   0  0  0  0  0  0  0  0  0  0  0  0
  -21.4940  -13.5280   22.1000 H   0  0  0  0  0  0  0  0  0  0  0  0
  -25.8710  -15.4020   20.2160 N   0  0  0  0  0  0  0  0  0  0  0  0
  -25.1180  -16.0770   20.2920 H   0  0  0  0  0  0  0  0  0  0  0  0
  -26.7400  -15.8180   19.9120 H   0  0  0  0  0  0  0  0  0  0  0  0
  -28.8550  -22.9700   20.2270 N   0  0  0  0  0  4  0  0  0  0  0  0
  -29.8020  -22.9770   19.8880 H   0  0  0  0  0  0  0  0  0  0  0  0
  -28.2770  -22.6850   19.4520 H   0  0  0  0  0  0  0  0  0  0  0  0
  -28.4370  -24.3620   20.6210 C   0  0  0  0  0  2  0  0  0  0  0  0
  -28.9230  -25.4760   19.6440 C   0  0  0  0  0  2  0  0  0  0  0  0
  -28.7670  -26.8320   20.1460 O   0  0  0  0  0  0  0  0  0  0  0  0
  -24.5950  -31.7860   23.1690 C   0  0  0  0  0  0  0  0  0  0  0  0
  -27.5490  -27.4950   20.1000 C   0  0  0  0  0  0  0  0  0  0  0  0
  -23.5170  -30.3580   21.4650 C   0  0  0  0  0  3  0  0  0  0  0  0
  -25.0910  -28.9160   20.0630 C   0  0  0  0  0  0  0  0  0  0  0  0
  -26.0360  -30.8300   21.3670 C   0  0  0  0  0  2  0  0  0  0  0  0
  -26.2060  -29.4770   20.6920 C   0  0  0  0  0  0  0  0  0  0  0  0
  -27.4400  -28.7790   20.6900 C   0  0  0  0  0  3  0  0  0  0  0  0
  -26.4010  -26.9470   19.4800 C   0  0  0  0  0  3  0  0  0  0  0  0
  -25.1860  -27.6560   19.4520 C   0  0  0  0  0  3  0  0  0  0  0  0
  -23.8070  -29.7150   20.0830 C   0  0  0  0  0  2  0  0  0  0  0  0
  -24.7320  -31.0060   22.0580 N   0  0  0  0  0  0  0  0  0  0  0  0
  -23.4820  -31.9960   23.6740 O   0  0  0  0  0  0  0  0  0  0  0  0
  -22.8750  -29.2920   22.3810 C   0  0  0  0  0  0  0  0  0  0  0  0
  -21.5580  -29.0800   22.2270 N   0  0  0  0  0  0  0  0  0  0  0  0
  -23.5620  -28.6590   23.1840 O   0  0  0  0  0  0  0  0  0  0  0  0
  -21.0630  -29.6430   21.5500 H   0  0  0  0  0  0  0  0  0  0  0  0
  -18.2020  -27.8140   22.6650 C   0  0  0  0  0  0  0  0  0  0  0  0
  -20.7540  -28.0960   22.9540 C   0  0  0  0  0  3  0  0  0  0  0  0
  -20.8800  -26.6950   22.3100 C   0  0  0  0  0  2  0  0  0  0  0  0
  -19.7840  -26.4050   21.2800 C   0  0  0  0  0  2  0  0  0  0  0  0
  -18.4000  -26.5010   21.9270 C   0  0  0  0  0  2  0  0  0  0  0  0
  -19.3080  -28.5720   23.1300 C   0  0  0  0  0  0  0  0  0  0  0  0
  -19.0660  -29.8070   23.7730 C   0  0  0  0  0  3  0  0  0  0  0  0
  -17.7530  -30.2790   23.9580 C   0  0  0  0  0  3  0  0  0  0  0  0
  -16.6620  -29.5120   23.5130 C   0  0  0  0  0  3  0  0  0  0  0  0
  -16.8870  -28.2830   22.8700 C   0  0  0  0  0  3  0  0  0  0  0  0
  -25.8230  -32.4670   23.8480 C   0  0  0  0  0  3  0  0  0  0  0  0
  -25.4480  -33.8510   24.1640 N   0  0  0  0  0  0  0  0  0  0  0  0
  -25.7720  -34.9150   23.4190 C   0  0  0  0  0  0  0  0  0  0  0  0
  -26.4850  -34.8370   22.4150 O   0  0  0  0  0  0  0  0  0  0  0  0
  -24.8220  -33.9850   24.9450 H   0  0  0  0  0  0  0  0  0  0  0  0
  -23.9850  -36.6330   22.9960 C   0  0  0  0  0  1  0  0  0  0  0  0
  -25.2140  -36.2840   23.8530 C   0  0  0  0  0  3  0  0  0  0  0  0
  -27.2830  -37.2530   24.7530 C   0  0  0  0  0  1  0  0  0  0  0  0
  -26.2080  -37.3770   23.7720 N   0  0  0  0  0  0  0  0  0  0  0  0
  -25.7640  -38.2810   23.9030 H   0  0  0  0  0  0  0  0  0  0  0  0
  -26.3100  -31.7150   25.1470 C   0  0  1  0  0  0  0  0  0  0  0  0
  -25.1800  -31.4320   26.1640 C   0  0  0  0  0  1  0  0  0  0  0  0
  -26.9640  -30.3620   24.7840 C   0  0  0  0  0  1  0  0  0  0  0  0
  -27.4010  -32.5510   25.8570 C   0  0  0  0  0  1  0  0  0  0  0  0
  2  1  1  0
  3  4  2  0
  3  5  1  0
  4  7  1  0
  5  8  2  0
  7  9  1  0
  7  6  2  0
  8  6  1  0
  8  2  1  0
  9 18  1  0
 10 18  1  0
 11 16  1  0
 12 13  1  0
 12 11  1  0
 14 13  1  0
 14 23  1  0
 14 15  1  0
 16 10  1  0
 16 15  1  0
 17 10  2  0
 18 19  1  0
 20 21  2  0
 21 40  1  0
 22 21  1  0
 22 25  1  0
 23 20  1  0
 23 24  1  0
 24 22  2  0
 25 26  1  0
 26 27  2  0
 28 31  1  0
 28 27  1  0
 29 28  2  0
 30 29  1  0
 30 25  2  0
 31 32  1  0
 32 33  1  0
 33 34  2  0
 35 34  1  0
 35 39  1  0
 36 35  2  0
 37 32  2  0
 37 36  1  0
 38 37  1  0
 40 41  1  0
 41 44  1  0
 41 43  1  0
 42 40  2  0
 45 46  1  0
 45 20  1  0
 47 45  1  0
 48 51  1  0
 48  2  1  0
 49 48  1  0
 50 48  1  0
 52 53  1  0
 52 51  1  0
 54 65  2  0
 55 53  1  0
 55 60  1  0
 56 64  1  0
 56 66  1  0
 57 63  1  0
 57 59  1  0
 58 64  1  0
 59 58  1  0
 60 59  2  0
 61 55  2  0
 62 61  1  0
 62 57  2  0
 63 56  1  0
 64 54  1  0
 66 68  2  0
 67 66  1  0
 69 67  1  0
 70 79  2  0
 70 75  1  0
 71 67  1  0
 71 75  1  0
 72 71  1  0
 73 74  1  0
 73 72  1  0
 74 70  1  0
 75 76  2  0
 76 77  1  0
 78 77  2  0
 79 78  1  0
 80 54  1  0
 80 81  1  0
 80 90  1  0
 81 84  1  0
 82 86  1  0
 82 81  1  0
 83 82  2  0
 86 85  1  0
 88 86  1  0
 88 89  1  0
 88 87  1  0
 90 93  1  1
 90 91  1  0
 92 90  1  0
M  ISO  4  10 100  18 100  52 101  53 101
M  END
>  <TORSDO>  (76) 
F 21

>  <SCORE>  (76) 
-13.424

>  <name>  (76) 
77

>  <ligand_id>  (76) 
77

>  <original_smiles>  (76) 
[H]c1c([H])c([H])c2c(c1[H])C([H])([H])C([H])([H])C([H])([H])C2([H])N([H])C(=O)C1([H])N(C(=O)C([H])(N([H])C(=O)C([H])(N([H])C([H])([H])[H])C([H])([H])[H])C(C([H])([H])[H])(C([H])([H])[H])C([H])([H])[H])C([H])([H])c2c([H])c(OC([H])([H])C([H])([H])[N+]([H])([H])C([H])(c3c([H])c([H])c([H])c(C([H])([H])N([H])C(=O)N4C([H])([H])C([H])([H])C([H])([H])C([H])(n5nc(-c6c([H])c([H])c(Oc7c([H])c([H])c(F)c([H])c7F)c([H])c6[H])c(C(=O)N([H])[H])c5N([H])[H])C4([H])[H])c3[H])C([H])([H])[H])c([H])c([H])c2C1([H])[H]

>  <smiles>  (76) 
[H]c1c([H])c([H])c2c(c1[H])C([H])([H])C([H])([H])C([H])([H])C2([H])N([H])C(=O)C1([H])N(C(=O)C([H])(N([H])C(=O)C([H])(N([H])C([H])([H])[H])C([H])([H])[H])C(C([H])([H])[H])(C([H])([H])[H])C([H])([H])[H])C([H])([H])c2c([H])c(OC([H])([H])C([H])([H])[N+]([H])([H])C([H])(c3c([H])c([H])c([H])c(C([H])([H])N([H])C(=O)N4C([H])([H])C([H])([H])C([H])([H])C([H])(n5nc(-c6c([H])c([H])c(Oc7c([H])c([H])c(F)c([H])c7F)c([H])c6[H])c(C(=O)N([H])[H])c5N([H])[H])C4([H])[H])c3[H])C([H])([H])[H])c([H])c([H])c2C1([H])[H]

$$$$
78:0:0
     RDKit          3D

 94102  0  0  1  0  0  0  0  0999 V2000
  -27.2970  -21.3460   19.3750 C   0  0  0  0  0  3  0  0  0  0  0  0
  -26.0170  -21.6590   18.9100 C   0  0  0  0  0  3  0  0  0  0  0  0
  -26.2570  -23.8530   19.8650 C   0  0  0  0  0  3  0  0  0  0  0  0
  -28.1160  -22.2630   20.0800 C   0  0  0  0  0  0  0  0  0  0  0  0
  -27.6230  -23.6690   20.1900 C   0  0  0  0  0  0  0  0  0  0  0  0
  -25.4540  -22.8960   19.2110 C   0  0  0  0  0  0  0  0  0  0  0  0
  -23.4910  -24.2910   19.2090 C   0  0  0  0  0  1  0  0  0  0  0  0
  -24.1320  -23.0690   18.8670 O   0  0  0  0  0  0  0  0  0  0  0  0
  -29.3380  -21.5200   20.7880 C   0  0  0  0  0  2  0  0  0  0  0  0
  -30.4240  -20.2580   18.8810 C   0  0  0  0  0  1  0  0  0  0  0  0
  -29.9420  -20.1670   20.2810 N   0  0  2  0  0  4  0  0  0  0  0  0
  -30.8050  -20.1690   20.8050 H   0  0  0  0  0  0  0  0  0  0  0  0
  -29.3880  -18.7570   20.6530 C   0  0  0  0  0  3  0  0  0  0  0  0
  -30.3320  -17.4480   20.3540 C   0  0  0  0  0  3  0  0  0  0  0  0
  -30.6200  -14.8370   20.3270 C   0  0  0  0  0  0  0  0  0  0  0  0
  -30.4030  -12.5690   19.2890 C   0  0  0  0  0  2  0  0  0  0  0  0
  -29.4660  -12.6520   18.0630 C   0  0  0  0  0  2  0  0  0  0  0  0
  -27.9980  -12.4690   18.4910 C   0  0  0  0  0  2  0  0  0  0  0  0
  -27.6220  -13.3450   19.7160 C   0  0  0  0  0  3  0  0  0  0  0  0
  -28.6820  -13.2580   20.8380 C   0  0  0  0  0  2  0  0  0  0  0  0
  -29.9770  -13.6190   20.2480 N   0  0  0  0  0  0  0  0  0  0  0  0
  -31.7960  -14.9260   19.9650 O   0  0  0  0  0  0  0  0  0  0  0  0
  -29.8900  -15.9900   20.5960 N   0  0  0  0  0  0  0  0  0  0  0  0
  -28.9290  -15.8470   20.8680 H   0  0  0  0  0  0  0  0  0  0  0  0
  -25.2280  -13.9220   20.4450 C   0  0  0  0  0  0  0  0  0  0  0  0
  -24.1700  -13.1430   20.8230 C   0  0  0  0  0  0  0  0  0  0  0  0
  -24.6420  -11.7950   20.8000 C   0  0  0  0  0  0  0  0  0  0  0  0
  -26.2800  -13.0490   20.2100 N   0  0  0  0  0  0  0  0  0  0  0  0
  -25.9320  -11.7650   20.4880 N   0  0  0  0  0  0  0  0  0  0  0  0
  -23.9230  -10.5300   21.0000 C   0  0  0  0  0  0  0  0  0  0  0  0
  -24.3620   -9.5710   21.9390 C   0  0  0  0  0  3  0  0  0  0  0  0
  -23.6430   -8.3710   22.1270 C   0  0  0  0  0  3  0  0  0  0  0  0
  -22.4700   -8.1220   21.3740 C   0  0  0  0  0  0  0  0  0  0  0  0
  -22.0490   -9.0700   20.4250 C   0  0  0  0  0  3  0  0  0  0  0  0
  -22.7710  -10.2600   20.2350 C   0  0  0  0  0  3  0  0  0  0  0  0
  -21.7240   -6.9710   21.4700 O   0  0  0  0  0  0  0  0  0  0  0  0
  -21.6810   -6.2340   22.6250 C   0  0  0  0  0  0  0  0  0  0  0  0
  -21.2480   -6.7890   23.8490 C   0  0  0  0  0  3  0  0  0  0  0  0
  -21.1520   -5.9770   24.9970 C   0  0  0  0  0  3  0  0  0  0  0  0
  -21.4810   -4.6090   24.9230 C   0  0  0  0  0  0  0  0  0  0  0  0
  -21.9070   -4.0530   23.7040 C   0  0  0  0  0  3  0  0  0  0  0  0
  -22.0030   -4.8620   22.5570 C   0  0  0  0  0  0  0  0  0  0  0  0
  -22.3930   -4.3150   21.3810 F   0  0  0  0  0  0  0  0  0  0  0  0
  -21.3830   -3.8290   26.0230 F   0  0  0  0  0  0  0  0  0  0  0  0
  -22.7690  -13.6130   21.0940 C   0  0  0  0  0  0  0  0  0  0  0  0
  -22.0440  -12.9220   21.9650 N   0  0  0  0  0  0  0  0  0  0  0  0
  -22.3250  -14.6320   20.5650 O   0  0  0  0  0  0  0  0  0  0  0  0
  -22.4150  -12.1010   22.4190 H   0  0  0  0  0  0  0  0  0  0  0  0
  -21.1030  -13.2200   22.1810 H   0  0  0  0  0  0  0  0  0  0  0  0
  -25.3760  -15.2940   20.2570 N   0  0  0  0  0  0  0  0  0  0  0  0
  -24.5900  -15.9280   20.3580 H   0  0  0  0  0  0  0  0  0  0  0  0
  -26.2040  -15.7450   19.8930 H   0  0  0  0  0  0  0  0  0  0  0  0
  -28.2710  -25.0120   20.7930 C   0  0  0  0  0  2  0  0  0  0  0  0
  -28.2280  -26.3820   20.1050 O   0  0  0  0  0  0  0  0  0  0  0  0
  -24.5940  -31.9090   23.2400 C   0  0  0  0  0  0  0  0  0  0  0  0
  -27.1400  -27.2920   20.1430 C   0  0  0  0  0  0  0  0  0  0  0  0
  -23.3690  -30.5230   21.6060 C   0  0  0  0  0  3  0  0  0  0  0  0
  -24.8040  -28.9810   20.1460 C   0  0  0  0  0  0  0  0  0  0  0  0
  -25.9140  -30.8050   21.4190 C   0  0  0  0  0  2  0  0  0  0  0  0
  -25.9760  -29.4220   20.7730 C   0  0  0  0  0  0  0  0  0  0  0  0
  -27.1420  -28.5830   20.7810 C   0  0  0  0  0  3  0  0  0  0  0  0
  -25.9890  -26.9930   19.3900 C   0  0  0  0  0  3  0  0  0  0  0  0
  -24.8200  -27.7730   19.4350 C   0  0  0  0  0  3  0  0  0  0  0  0
  -23.5700  -29.8610   20.2190 C   0  0  0  0  0  2  0  0  0  0  0  0
  -24.6440  -31.1010   22.1420 N   0  0  0  0  0  0  0  0  0  0  0  0
  -23.5170  -32.1910   23.7840 O   0  0  0  0  0  0  0  0  0  0  0  0
  -22.7130  -29.5010   22.5660 C   0  0  0  0  0  0  0  0  0  0  0  0
  -21.3870  -29.3210   22.4490 N   0  0  0  0  0  0  0  0  0  0  0  0
  -23.3960  -28.8760   23.3820 O   0  0  0  0  0  0  0  0  0  0  0  0
  -20.8930  -29.8790   21.7640 H   0  0  0  0  0  0  0  0  0  0  0  0
  -18.0160  -28.1010   22.9570 C   0  0  0  0  0  0  0  0  0  0  0  0
  -20.5730  -28.3810   23.2210 C   0  0  0  0  0  3  0  0  0  0  0  0
  -20.6840  -26.9470   22.6520 C   0  0  0  0  0  2  0  0  0  0  0  0
  -19.5830  -26.6120   21.6410 C   0  0  0  0  0  2  0  0  0  0  0  0
  -18.2010  -26.7510   22.2860 C   0  0  0  0  0  2  0  0  0  0  0  0
  -19.1290  -28.8730   23.3820 C   0  0  0  0  0  0  0  0  0  0  0  0
  -18.9010  -30.1360   23.9710 C   0  0  0  0  0  3  0  0  0  0  0  0
  -17.5930  -30.6280   24.1380 C   0  0  0  0  0  3  0  0  0  0  0  0
  -16.4940  -29.8530   23.7280 C   0  0  0  0  0  3  0  0  0  0  0  0
  -16.7060  -28.5920   23.1440 C   0  0  0  0  0  3  0  0  0  0  0  0
  -25.8860  -32.5350   23.8490 C   0  0  0  0  0  3  0  0  0  0  0  0
  -25.5870  -33.9350   24.1830 N   0  0  0  0  0  0  0  0  0  0  0  0
  -25.9160  -34.9870   23.4210 C   0  0  0  0  0  0  0  0  0  0  0  0
  -26.5730  -34.8810   22.3820 O   0  0  0  0  0  0  0  0  0  0  0  0
  -25.0030  -34.0910   24.9910 H   0  0  0  0  0  0  0  0  0  0  0  0
  -24.1930  -36.7910   23.0890 C   0  0  0  0  0  1  0  0  0  0  0  0
  -25.4410  -36.3770   23.8860 C   0  0  0  0  0  3  0  0  0  0  0  0
  -27.5890  -37.2480   24.6970 C   0  0  0  0  0  1  0  0  0  0  0  0
  -26.4780  -37.4240   23.7640 N   0  0  0  0  0  0  0  0  0  0  0  0
  -26.0790  -38.3470   23.9180 H   0  0  0  0  0  0  0  0  0  0  0  0
  -26.4100  -31.7610   25.1210 C   0  0  1  0  0  0  0  0  0  0  0  0
  -25.3260  -31.5320   26.2000 C   0  0  0  0  0  1  0  0  0  0  0  0
  -26.9810  -30.3780   24.7300 C   0  0  0  0  0  1  0  0  0  0  0  0
  -27.5720  -32.5500   25.7710 C   0  0  0  0  0  1  0  0  0  0  0  0
  1  4  1  0
  2  6  1  0
  2  1  2  0
  3  5  1  0
  4  5  2  0
  4  9  1  0
  5 53  1  0
  6  3  2  0
  8  7  1  0
  8  6  1  0
 10 11  1  0
 11 13  1  0
 11  9  1  0
 11 12  1  1
 14 23  1  0
 14 13  2  0
 15 23  1  0
 16 21  1  0
 17 18  1  0
 17 16  1  0
 19 18  1  0
 19 28  1  0
 19 20  1  0
 21 15  1  0
 21 20  1  0
 22 15  2  0
 23 24  1  0
 25 26  2  0
 26 45  1  0
 27 26  1  0
 27 30  1  0
 28 25  1  0
 28 29  1  0
 29 27  2  0
 30 31  1  0
 31 32  2  0
 33 36  1  0
 33 32  1  0
 34 33  2  0
 35 34  1  0
 35 30  2  0
 36 37  1  0
 37 38  1  0
 38 39  2  0
 40 39  1  0
 40 44  1  0
 41 40  2  0
 42 37  2  0
 42 41  1  0
 43 42  1  0
 45 46  1  0
 46 49  1  0
 46 48  1  0
 47 45  2  0
 50 51  1  0
 50 25  1  0
 52 50  1  0
 54 56  1  0
 54 53  1  0
 55 66  2  0
 56 61  1  0
 57 65  1  0
 57 67  1  0
 58 64  1  0
 58 60  1  0
 59 65  1  0
 60 61  2  0
 60 59  1  0
 62 63  1  0
 62 56  2  0
 63 58  2  0
 64 57  1  0
 65 55  1  0
 67 69  2  0
 68 67  1  0
 70 68  1  0
 71 80  2  0
 71 76  1  0
 72 68  1  0
 72 76  1  0
 73 72  1  0
 74 75  1  0
 74 73  1  0
 75 71  1  0
 76 77  2  0
 77 78  1  0
 79 78  2  0
 80 79  1  0
 81 55  1  0
 81 82  1  0
 81 91  1  0
 82 85  1  0
 83 87  1  0
 83 82  1  0
 84 83  2  0
 87 86  1  0
 89 87  1  0
 89 90  1  0
 89 88  1  0
 91 94  1  1
 91 92  1  0
 93 91  1  0
M  ISO  4  15 100  23 100  53 101  54 101
M  END
>  <TORSDO>  (77) 
F 22

>  <SCORE>  (77) 
-13.188

>  <name>  (77) 
78

>  <ligand_id>  (77) 
78

>  <original_smiles>  (77) 
[H]c1c([H])c([H])c2c(c1[H])C([H])([H])C([H])([H])C([H])([H])C2([H])N([H])C(=O)C1([H])N(C(=O)C([H])(N([H])C(=O)C([H])(N([H])C([H])([H])[H])C([H])([H])[H])C(C([H])([H])[H])(C([H])([H])[H])C([H])([H])[H])C([H])([H])c2c([H])c(OC([H])([H])c3c([H])c(OC([H])([H])[H])c([H])c([H])c3C([H])([H])[N+]([H])(C([H])([H])[H])C([H])([H])C([H])([H])N([H])C(=O)N3C([H])([H])C([H])([H])C([H])([H])C([H])(n4nc(-c5c([H])c([H])c(Oc6c([H])c([H])c(F)c([H])c6F)c([H])c5[H])c(C(=O)N([H])[H])c4N([H])[H])C3([H])[H])c([H])c([H])c2C1([H])[H]

>  <smiles>  (77) 
[H]c1c([H])c([H])c2c(c1[H])C([H])([H])C([H])([H])C([H])([H])C2([H])N([H])C(=O)C1([H])N(C(=O)C([H])(N([H])C(=O)C([H])(N([H])C([H])([H])[H])C([H])([H])[H])C(C([H])([H])[H])(C([H])([H])[H])C([H])([H])[H])C([H])([H])c2c([H])c(OC([H])([H])c3c([H])c(OC([H])([H])[H])c([H])c([H])c3C([H])([H])[N+]([H])(C([H])([H])[H])C([H])([H])C([H])([H])N([H])C(=O)N3C([H])([H])C([H])([H])C([H])([H])C([H])(n4nc(-c5c([H])c([H])c(Oc6c([H])c([H])c(F)c([H])c6F)c([H])c5[H])c(C(=O)N([H])[H])c4N([H])[H])C3([H])[H])c([H])c([H])c2C1([H])[H]

$$$$
79:0:0
     RDKit          3D

 98107  0  0  1  0  0  0  0  0999 V2000
  -29.9980  -23.3590   22.4890 C   0  0  0  0  0  3  0  0  0  0  0  0
  -29.4220  -24.6330   22.3710 C   0  0  0  0  0  3  0  0  0  0  0  0
  -30.9940  -22.9330   21.5890 C   0  0  0  0  0  0  0  0  0  0  0  0
  -31.4130  -23.8080   20.5480 C   0  0  0  0  0  0  0  0  0  0  0  0
  -29.8380  -25.5200   21.3580 C   0  0  0  0  0  0  0  0  0  0  0  0
  -30.8460  -25.1130   20.4420 C   0  0  0  0  0  0  0  0  0  0  0  0
  -32.4970  -23.3720   19.5630 C   0  0  0  0  0  2  0  0  0  0  0  0
  -32.8120  -21.8720   19.5900 C   0  0  0  0  0  2  0  0  0  0  0  0
  -32.9300  -21.3680   21.0280 C   0  0  0  0  0  2  0  0  0  0  0  0
  -31.6110  -21.5440   21.8050 C   0  0  0  0  0  3  0  0  0  0  0  0
  -31.3040  -26.0660   19.3390 C   0  0  0  0  0  1  0  0  0  0  0  0
  -29.1680  -26.8890   21.2860 C   0  0  0  0  0  2  0  0  0  0  0  0
  -28.4280  -27.0370   20.0750 O   0  0  0  0  0  0  0  0  0  0  0  0
  -24.5950  -32.0790   23.3630 C   0  0  0  0  0  0  0  0  0  0  0  0
  -27.2790  -27.7860   20.1460 C   0  0  0  0  0  0  0  0  0  0  0  0
  -23.3820  -30.6840   21.7160 C   0  0  0  0  0  3  0  0  0  0  0  0
  -24.8400  -29.2090   20.2300 C   0  0  0  0  0  0  0  0  0  0  0  0
  -25.8880  -31.1120   21.4700 C   0  0  0  0  0  2  0  0  0  0  0  0
  -25.9920  -29.7550   20.8100 C   0  0  0  0  0  0  0  0  0  0  0  0
  -27.2130  -29.0510   20.7750 C   0  0  0  0  0  3  0  0  0  0  0  0
  -26.1160  -27.2530   19.5540 C   0  0  0  0  0  3  0  0  0  0  0  0
  -24.8950  -27.9510   19.6020 C   0  0  0  0  0  3  0  0  0  0  0  0
  -23.5760  -30.0340   20.3200 C   0  0  0  0  0  2  0  0  0  0  0  0
  -24.6400  -31.3040   22.2420 N   0  0  0  0  0  0  0  0  0  0  0  0
  -23.5200  -32.3170   23.9320 O   0  0  0  0  0  0  0  0  0  0  0  0
  -22.7770  -29.6290   22.6700 C   0  0  0  0  0  0  0  0  0  0  0  0
  -21.4650  -29.3810   22.5280 N   0  0  0  0  0  0  0  0  0  0  0  0
  -23.4850  -29.0370   23.4890 O   0  0  0  0  0  0  0  0  0  0  0  0
  -20.9550  -29.9110   21.8350 H   0  0  0  0  0  0  0  0  0  0  0  0
  -18.1640  -27.9790   22.9420 C   0  0  0  0  0  0  0  0  0  0  0  0
  -20.6890  -28.4050   23.2910 C   0  0  0  0  0  3  0  0  0  0  0  0
  -20.9040  -26.9760   22.7440 C   0  0  0  0  0  2  0  0  0  0  0  0
  -19.8590  -26.5660   21.7020 C   0  0  0  0  0  2  0  0  0  0  0  0
  -18.4500  -26.6330   22.2970 C   0  0  0  0  0  2  0  0  0  0  0  0
  -19.2160  -28.8180   23.3940 C   0  0  0  0  0  0  0  0  0  0  0  0
  -18.8980  -30.0770   23.9510 C   0  0  0  0  0  3  0  0  0  0  0  0
  -17.5580  -30.4950   24.0660 C   0  0  0  0  0  3  0  0  0  0  0  0
  -16.5190  -29.6540   23.6320 C   0  0  0  0  0  3  0  0  0  0  0  0
  -16.8230  -28.3990   23.0750 C   0  0  0  0  0  3  0  0  0  0  0  0
  -25.8830  -32.7240   23.9650 C   0  0  0  0  0  3  0  0  0  0  0  0
  -25.5810  -34.1300   24.2560 N   0  0  0  0  0  0  0  0  0  0  0  0
  -25.9010  -35.1570   23.4560 C   0  0  0  0  0  0  0  0  0  0  0  0
  -26.5570  -35.0190   22.4200 O   0  0  0  0  0  0  0  0  0  0  0  0
  -25.0070  -34.3120   25.0660 H   0  0  0  0  0  0  0  0  0  0  0  0
  -24.1660  -36.9270   23.0620 C   0  0  0  0  0  1  0  0  0  0  0  0
  -25.4170  -36.5580   23.8730 C   0  0  0  0  0  3  0  0  0  0  0  0
  -27.5600  -37.4730   24.6500 C   0  0  0  0  0  1  0  0  0  0  0  0
  -26.4480  -37.6070   23.7130 N   0  0  0  0  0  0  0  0  0  0  0  0
  -26.0400  -38.5310   23.8350 H   0  0  0  0  0  0  0  0  0  0  0  0
  -26.4010  -31.9840   25.2590 C   0  0  1  0  0  0  0  0  0  0  0  0
  -25.3050  -31.7620   26.3270 C   0  0  0  0  0  1  0  0  0  0  0  0
  -26.9980  -30.6050   24.8960 C   0  0  0  0  0  1  0  0  0  0  0  0
  -27.5420  -32.8020   25.9110 C   0  0  0  0  0  1  0  0  0  0  0  0
  -30.5950  -20.3950   21.5330 C   0  0  0  0  0  2  0  0  0  0  0  0
  -30.8530  -19.0710   22.3080 C   0  0  0  0  0  3  0  0  0  0  0  0
  -29.9950  -17.9760   21.7910 N   0  0  0  0  0  4  0  0  0  0  0  0
  -29.5180  -17.5840   22.5880 H   0  0  0  0  0  0  0  0  0  0  0  0
  -29.2900  -18.3620   21.1830 H   0  0  0  0  0  0  0  0  0  0  0  0
  -30.7100  -16.8740   21.0960 C   0  0  0  0  0  2  0  0  0  0  0  0
  -29.8820  -15.5670   21.0430 C   0  0  0  0  0  2  0  0  0  0  0  0
  -30.4450  -14.4980   20.0830 C   0  0  0  0  0  0  0  0  0  0  0  0
  -30.1190  -12.3540   18.8900 C   0  0  0  0  0  2  0  0  0  0  0  0
  -29.0770  -12.5060   17.7650 C   0  0  0  0  0  2  0  0  0  0  0  0
  -27.6450  -12.3250   18.3080 C   0  0  0  0  0  2  0  0  0  0  0  0
  -27.3780  -13.1670   19.5830 C   0  0  0  0  0  3  0  0  0  0  0  0
  -28.5160  -12.9780   20.6080 C   0  0  0  0  0  2  0  0  0  0  0  0
  -29.7880  -13.3170   19.9500 N   0  0  0  0  0  0  0  0  0  0  0  0
  -31.4560  -14.7640   19.4240 O   0  0  0  0  0  0  0  0  0  0  0  0
  -25.0400  -13.7180   20.5150 C   0  0  0  0  0  0  0  0  0  0  0  0
  -24.0150  -12.9180   20.9440 C   0  0  0  0  0  0  0  0  0  0  0  0
  -24.4850  -11.5750   20.8190 C   0  0  0  0  0  0  0  0  0  0  0  0
  -26.0710  -12.8600   20.1620 N   0  0  0  0  0  0  0  0  0  0  0  0
  -25.7440  -11.5650   20.4010 N   0  0  0  0  0  0  0  0  0  0  0  0
  -23.7910  -10.2970   21.0200 C   0  0  0  0  0  0  0  0  0  0  0  0
  -24.2870   -9.3200   21.9100 C   0  0  0  0  0  3  0  0  0  0  0  0
  -23.5940   -8.1060   22.1000 C   0  0  0  0  0  3  0  0  0  0  0  0
  -22.3890   -7.8600   21.3990 C   0  0  0  0  0  0  0  0  0  0  0  0
  -21.9110   -8.8270   20.4970 C   0  0  0  0  0  3  0  0  0  0  0  0
  -22.6050  -10.0320   20.3060 C   0  0  0  0  0  3  0  0  0  0  0  0
  -21.6610   -6.6990   21.5010 O   0  0  0  0  0  0  0  0  0  0  0  0
  -21.6570   -5.9500   22.6500 C   0  0  0  0  0  0  0  0  0  0  0  0
  -21.2410   -6.4880   23.8880 C   0  0  0  0  0  3  0  0  0  0  0  0
  -21.1850   -5.6640   25.0300 C   0  0  0  0  0  3  0  0  0  0  0  0
  -21.5350   -4.3030   24.9360 C   0  0  0  0  0  0  0  0  0  0  0  0
  -21.9440   -3.7650   23.7020 C   0  0  0  0  0  3  0  0  0  0  0  0
  -22.0020   -4.5860   22.5630 C   0  0  0  0  0  0  0  0  0  0  0  0
  -22.3760   -4.0580   21.3720 F   0  0  0  0  0  0  0  0  0  0  0  0
  -21.4760   -3.5090   26.0300 F   0  0  0  0  0  0  0  0  0  0  0  0
  -22.6420  -13.3660   21.3550 C   0  0  0  0  0  0  0  0  0  0  0  0
  -21.9990  -12.6260   22.2520 N   0  0  0  0  0  0  0  0  0  0  0  0
  -22.1500  -14.4050   20.9160 O   0  0  0  0  0  0  0  0  0  0  0  0
  -22.4110  -11.7850   22.6260 H   0  0  0  0  0  0  0  0  0  0  0  0
  -21.0800  -12.9050   22.5680 H   0  0  0  0  0  0  0  0  0  0  0  0
  -25.1770  -15.0970   20.3780 N   0  0  0  0  0  0  0  0  0  0  0  0
  -24.4120  -15.7360   20.5690 H   0  0  0  0  0  0  0  0  0  0  0  0
  -25.9890  -15.5550   19.9850 H   0  0  0  0  0  0  0  0  0  0  0  0
  -30.7440  -17.9150   24.6170 C   0  0  0  0  0  1  0  0  0  0  0  0
  -30.6030  -19.2270   23.8270 C   0  0  0  0  0  2  0  0  0  0  0  0
  2  1  1  0
  3 10  1  0
  3  1  2  0
  4  3  1  0
  5  2  2  0
  6  4  2  0
  6  5  1  0
  7  8  1  0
  7  4  1  0
  8  9  1  0
  9 10  1  0
 10 54  1  0
 11  6  1  0
 12  5  1  0
 13 15  1  0
 13 12  1  0
 14 25  2  0
 15 20  1  0
 16 24  1  0
 16 26  1  0
 17 23  1  0
 17 19  1  0
 18 24  1  0
 19 18  1  0
 20 19  2  0
 21 22  1  0
 21 15  2  0
 22 17  2  0
 23 16  1  0
 24 14  1  0
 26 28  2  0
 27 26  1  0
 29 27  1  0
 30 39  2  0
 30 35  1  0
 31 27  1  0
 31 35  1  0
 32 31  1  0
 33 34  1  0
 33 32  1  0
 34 30  1  0
 35 36  2  0
 36 37  1  0
 38 37  2  0
 39 38  1  0
 40 14  1  0
 40 41  1  0
 40 50  1  0
 41 44  1  0
 42 46  1  0
 42 41  1  0
 43 42  2  0
 46 45  1  0
 48 49  1  0
 48 46  1  0
 48 47  1  0
 50 53  1  1
 50 51  1  0
 52 50  1  0
 55 54  1  0
 55 98  1  0
 56 55  1  0
 56 57  1  0
 58 56  1  0
 59 56  1  0
 60 59  1  0
 61 60  1  0
 62 67  1  0
 63 64  1  0
 63 62  1  0
 65 64  1  0
 65 72  1  0
 65 66  1  0
 67 61  1  0
 67 66  1  0
 68 61  2  0
 69 70  2  0
 70 89  1  0
 71 70  1  0
 71 74  1  0
 72 73  1  0
 72 69  1  0
 73 71  2  0
 74 75  1  0
 75 76  2  0
 77 80  1  0
 77 76  1  0
 78 77  2  0
 79 78  1  0
 79 74  2  0
 80 81  1  0
 81 82  1  0
 82 83  2  0
 84 83  1  0
 84 88  1  0
 85 84  2  0
 86 81  2  0
 86 85  1  0
 87 86  1  0
 89 90  1  0
 90 93  1  0
 90 92  1  0
 91 89  2  0
 94 69  1  0
 94 95  1  0
 96 94  1  0
 98 97  1  0
M  ISO  4  12 101  13 101  60 100  61 100
M  END
>  <TORSDO>  (78) 
F 23

>  <SCORE>  (78) 
-10.987

>  <name>  (78) 
79

>  <ligand_id>  (78) 
79

>  <original_smiles>  (78) 
[H]c1c([H])c([H])c2c(c1[H])C([H])([H])C([H])([H])C([H])([H])C2([H])N([H])C(=O)C1([H])N(C(=O)C([H])(N([H])C(=O)C([H])(N([H])C([H])([H])[H])C([H])([H])[H])C(C([H])([H])[H])(C([H])([H])[H])C([H])([H])[H])C([H])([H])c2c([H])c(OC([H])([H])c3c([H])c([H])c4c(c3C([H])([H])[H])C([H])([H])C([H])([H])C([H])([H])C4([H])C([H])([H])C([H])(C([H])([H])C([H])([H])[H])[N+]([H])([H])C([H])([H])C([H])([H])C(=O)N3C([H])([H])C([H])([H])C([H])([H])C([H])(n4nc(-c5c([H])c([H])c(Oc6c([H])c([H])c(F)c([H])c6F)c([H])c5[H])c(C(=O)N([H])[H])c4N([H])[H])C3([H])[H])c([H])c([H])c2C1([H])[H]

>  <smiles>  (78) 
[H]c1c([H])c([H])c2c(c1[H])C([H])([H])C([H])([H])C([H])([H])C2([H])N([H])C(=O)C1([H])N(C(=O)C([H])(N([H])C(=O)C([H])(N([H])C([H])([H])[H])C([H])([H])[H])C(C([H])([H])[H])(C([H])([H])[H])C([H])([H])[H])C([H])([H])c2c([H])c(OC([H])([H])c3c([H])c([H])c4c(c3C([H])([H])[H])C([H])([H])C([H])([H])C([H])([H])C4([H])C([H])([H])C([H])(C([H])([H])C([H])([H])[H])[N+]([H])([H])C([H])([H])C([H])([H])C(=O)N3C([H])([H])C([H])([H])C([H])([H])C([H])(n4nc(-c5c([H])c([H])c(Oc6c([H])c([H])c(F)c([H])c6F)c([H])c5[H])c(C(=O)N([H])[H])c4N([H])[H])C3([H])[H])c([H])c([H])c2C1([H])[H]

$$$$
80:0:0
     RDKit          3D

 94102  0  0  1  0  0  0  0  0999 V2000
  -31.3460  -21.2860   20.2620 C   0  0  0  0  0  2  0  0  0  0  0  0
  -30.9510  -20.9850   21.7290 C   0  0  0  0  0  2  0  0  0  0  0  0
  -28.5050  -20.6170   20.9700 C   0  0  0  0  0  2  0  0  0  0  0  0
  -30.3550  -22.1000   19.3860 C   0  0  0  0  0  2  0  0  0  0  0  0
  -28.2710  -22.1520   20.7710 C   0  0  0  0  0  2  0  0  0  0  0  0
  -29.6240  -20.2210   21.9670 C   0  0  0  0  0  3  0  0  0  0  0  0
  -29.4090  -22.9350   20.1810 N   0  0  2  0  0  4  0  0  0  0  0  0
  -29.9690  -23.2550   20.9570 H   0  0  0  0  0  0  0  0  0  0  0  0
  -29.7910  -18.7430   22.1440 N   0  0  0  0  0  4  0  0  0  0  0  0
  -28.8950  -18.3630   22.4140 H   0  0  0  0  0  0  0  0  0  0  0  0
  -30.4010  -18.5930   22.9330 H   0  0  0  0  0  0  0  0  0  0  0  0
  -30.3180  -17.9500   20.9980 C   0  0  0  0  0  2  0  0  0  0  0  0
  -30.3240  -16.4090   21.2350 C   0  0  0  0  0  2  0  0  0  0  0  0
  -31.3980  -14.5740   19.8850 C   0  0  0  0  0  0  0  0  0  0  0  0
  -30.9360  -12.4530   18.7270 C   0  0  0  0  0  2  0  0  0  0  0  0
  -29.9110  -12.7150   17.6030 C   0  0  0  0  0  2  0  0  0  0  0  0
  -28.4710  -12.6240   18.1470 C   0  0  0  0  0  2  0  0  0  0  0  0
  -28.2650  -13.4470   19.4490 C   0  0  0  0  0  3  0  0  0  0  0  0
  -29.3940  -13.1680   20.4670 C   0  0  0  0  0  2  0  0  0  0  0  0
  -30.6720  -13.4320   19.7940 N   0  0  0  0  0  0  0  0  0  0  0  0
  -32.5320  -14.6860   19.4210 O   0  0  0  0  0  0  0  0  0  0  0  0
  -30.6760  -15.7020   19.9990 N   0  0  0  0  0  0  0  0  0  0  0  0
  -31.0090  -16.3660   19.3140 H   0  0  0  0  0  0  0  0  0  0  0  0
  -25.9690  -14.1290   20.3810 C   0  0  0  0  0  0  0  0  0  0  0  0
  -24.8950  -13.3910   20.8000 C   0  0  0  0  0  0  0  0  0  0  0  0
  -25.2850  -12.0220   20.6750 C   0  0  0  0  0  0  0  0  0  0  0  0
  -26.9450  -13.2120   20.0270 N   0  0  0  0  0  0  0  0  0  0  0  0
  -26.5420  -11.9370   20.2620 N   0  0  0  0  0  0  0  0  0  0  0  0
  -24.5140  -10.7870   20.8690 C   0  0  0  0  0  0  0  0  0  0  0  0
  -24.8960   -9.8210   21.8260 C   0  0  0  0  0  3  0  0  0  0  0  0
  -24.1280   -8.6500   22.0050 C   0  0  0  0  0  3  0  0  0  0  0  0
  -22.9660   -8.4380   21.2260 C   0  0  0  0  0  0  0  0  0  0  0  0
  -22.6050   -9.3930   20.2600 C   0  0  0  0  0  3  0  0  0  0  0  0
  -23.3720  -10.5540   20.0780 C   0  0  0  0  0  3  0  0  0  0  0  0
  -22.1710   -7.3210   21.3150 O   0  0  0  0  0  0  0  0  0  0  0  0
  -21.9640   -6.6770   22.5090 C   0  0  0  0  0  0  0  0  0  0  0  0
  -21.3900   -7.3320   23.6200 C   0  0  0  0  0  3  0  0  0  0  0  0
  -21.1310   -6.6150   24.8050 C   0  0  0  0  0  3  0  0  0  0  0  0
  -21.4370   -5.2430   24.8800 C   0  0  0  0  0  0  0  0  0  0  0  0
  -22.0050   -4.5870   23.7720 C   0  0  0  0  0  3  0  0  0  0  0  0
  -22.2650   -5.3020   22.5900 C   0  0  0  0  0  0  0  0  0  0  0  0
  -22.7920   -4.6600   21.5200 F   0  0  0  0  0  0  0  0  0  0  0  0
  -21.1810   -4.5510   26.0140 F   0  0  0  0  0  0  0  0  0  0  0  0
  -23.5490  -13.9210   21.2010 C   0  0  0  0  0  0  0  0  0  0  0  0
  -22.8600  -13.2300   22.1030 N   0  0  0  0  0  0  0  0  0  0  0  0
  -23.1200  -14.9820   20.7480 O   0  0  0  0  0  0  0  0  0  0  0  0
  -23.2210  -12.3710   22.4900 H   0  0  0  0  0  0  0  0  0  0  0  0
  -21.9570  -13.5640   22.4100 H   0  0  0  0  0  0  0  0  0  0  0  0
  -26.1870  -15.4990   20.2530 N   0  0  0  0  0  0  0  0  0  0  0  0
  -25.4540  -16.1750   20.4370 H   0  0  0  0  0  0  0  0  0  0  0  0
  -27.0300  -15.9110   19.8760 H   0  0  0  0  0  0  0  0  0  0  0  0
  -28.9990  -24.1900   19.4580 C   0  0  0  0  0  2  0  0  0  0  0  0
  -28.4620  -25.3270   20.3690 C   0  0  0  0  0  2  0  0  0  0  0  0
  -28.5280  -26.6270   19.7340 O   0  0  0  0  0  0  0  0  0  0  0  0
  -24.5870  -31.6040   22.9590 C   0  0  0  0  0  0  0  0  0  0  0  0
  -27.3540  -27.3490   19.7380 C   0  0  0  0  0  0  0  0  0  0  0  0
  -23.4290  -30.2360   21.2540 C   0  0  0  0  0  3  0  0  0  0  0  0
  -24.9290  -28.8000   19.7720 C   0  0  0  0  0  0  0  0  0  0  0  0
  -25.9430  -30.6710   21.0870 C   0  0  0  0  0  2  0  0  0  0  0  0
  -26.0680  -29.3300   20.3920 C   0  0  0  0  0  0  0  0  0  0  0  0
  -27.2880  -28.6120   20.3660 C   0  0  0  0  0  3  0  0  0  0  0  0
  -26.2020  -26.8360   19.1040 C   0  0  0  0  0  3  0  0  0  0  0  0
  -24.9920  -27.5540   19.1210 C   0  0  0  0  0  3  0  0  0  0  0  0
  -23.6630  -29.6240   19.8480 C   0  0  0  0  0  2  0  0  0  0  0  0
  -24.6700  -30.8510   21.8240 N   0  0  0  0  0  0  0  0  0  0  0  0
  -23.4950  -31.8210   23.5050 O   0  0  0  0  0  0  0  0  0  0  0  0
  -22.8040  -29.1590   22.1700 C   0  0  0  0  0  0  0  0  0  0  0  0
  -21.4770  -28.9830   22.0680 N   0  0  0  0  0  0  0  0  0  0  0  0
  -23.5120  -28.4860   22.9260 O   0  0  0  0  0  0  0  0  0  0  0  0
  -20.9680  -29.5810   21.4310 H   0  0  0  0  0  0  0  0  0  0  0  0
  -18.1090  -27.8080   22.6450 C   0  0  0  0  0  0  0  0  0  0  0  0
  -20.6810  -28.0010   22.8040 C   0  0  0  0  0  3  0  0  0  0  0  0
  -20.7270  -26.6200   22.1130 C   0  0  0  0  0  2  0  0  0  0  0  0
  -19.5690  -26.3970   21.1340 C   0  0  0  0  0  2  0  0  0  0  0  0
  -18.2250  -26.5140   21.8580 C   0  0  0  0  0  2  0  0  0  0  0  0
  -19.2630  -28.5160   23.0760 C   0  0  0  0  0  0  0  0  0  0  0  0
  -19.0980  -29.7310   23.7730 C   0  0  0  0  0  3  0  0  0  0  0  0
  -17.8130  -30.2380   24.0440 C   0  0  0  0  0  3  0  0  0  0  0  0
  -16.6740  -29.5270   23.6280 C   0  0  0  0  0  3  0  0  0  0  0  0
  -16.8240  -28.3150   22.9310 C   0  0  0  0  0  3  0  0  0  0  0  0
  -25.8510  -32.2450   23.6090 C   0  0  0  0  0  3  0  0  0  0  0  0
  -25.4930  -33.6110   24.0210 N   0  0  0  0  0  0  0  0  0  0  0  0
  -25.7750  -34.7160   23.3160 C   0  0  0  0  0  0  0  0  0  0  0  0
  -26.4360  -34.6970   22.2750 O   0  0  0  0  0  0  0  0  0  0  0  0
  -24.9070  -33.6960   24.8360 H   0  0  0  0  0  0  0  0  0  0  0  0
  -23.9700  -36.4510   23.0810 C   0  0  0  0  0  1  0  0  0  0  0  0
  -25.2370  -36.0540   23.8550 C   0  0  0  0  0  3  0  0  0  0  0  0
  -27.3400  -36.9840   24.7170 C   0  0  0  0  0  1  0  0  0  0  0  0
  -26.2250  -37.1530   23.7900 N   0  0  0  0  0  0  0  0  0  0  0  0
  -25.7830  -38.0470   23.9870 H   0  0  0  0  0  0  0  0  0  0  0  0
  -26.4070  -31.4230   24.8360 C   0  0  1  0  0  0  0  0  0  0  0  0
  -25.3330  -31.0820   25.8950 C   0  0  0  0  0  1  0  0  0  0  0  0
  -27.0420  -30.0960   24.3620 C   0  0  0  0  0  1  0  0  0  0  0  0
  -27.5290  -32.2240   25.5410 C   0  0  0  0  0  1  0  0  0  0  0  0
  1  2  1  0
  2  6  1  0
  3  6  1  0
  4  7  1  0
  4  1  1  0
  5  3  1  0
  6  9  1  0
  7  5  1  0
  7  8  1  1
  9 10  1  0
  9 11  1  0
 12 13  1  0
 12  9  1  0
 14 22  1  0
 15 20  1  0
 16 17  1  0
 16 15  1  0
 18 17  1  0
 18 27  1  0
 18 19  1  0
 20 14  1  0
 20 19  1  0
 21 14  2  0
 22 13  1  0
 23 22  1  0
 24 25  2  0
 25 44  1  0
 26 25  1  0
 26 29  1  0
 27 28  1  0
 27 24  1  0
 28 26  2  0
 29 30  1  0
 30 31  2  0
 32 35  1  0
 32 31  1  0
 33 32  2  0
 34 33  1  0
 34 29  2  0
 35 36  1  0
 36 41  2  0
 36 37  1  0
 37 38  2  0
 38 39  1  0
 39 43  1  0
 40 39  2  0
 41 40  1  0
 42 41  1  0
 44 45  1  0
 45 48  1  0
 45 47  1  0
 46 44  2  0
 49 24  1  0
 49 50  1  0
 51 49  1  0
 52  7  1  0
 52 53  1  0
 54 56  1  0
 54 53  1  0
 55 66  2  0
 56 61  1  0
 57 65  1  0
 57 67  1  0
 58 64  1  0
 58 60  1  0
 59 65  1  0
 60 59  1  0
 61 60  2  0
 62 63  1  0
 62 56  2  0
 63 58  2  0
 64 57  1  0
 65 55  1  0
 67 69  2  0
 68 67  1  0
 70 68  1  0
 71 80  2  0
 71 76  1  0
 72 68  1  0
 72 76  1  0
 73 72  1  0
 74 75  1  0
 74 73  1  0
 75 71  1  0
 76 77  2  0
 77 78  1  0
 79 78  2  0
 80 79  1  0
 81 55  1  0
 81 82  1  0
 81 91  1  0
 82 85  1  0
 83 87  1  0
 83 82  1  0
 84 83  2  0
 87 86  1  0
 89 87  1  0
 89 90  1  0
 89 88  1  0
 91 94  1  1
 91 92  1  0
 93 91  1  0
M  ISO  4  14 100  22 100  53 101  54 101
M  END
>  <TORSDO>  (79) 
F 21

>  <SCORE>  (79) 
-11.402

>  <name>  (79) 
80

>  <ligand_id>  (79) 
80

>  <original_smiles>  (79) 
[H]c1c([H])c([H])c2c(c1[H])C([H])([H])C([H])([H])C([H])([H])C2([H])N([H])C(=O)C1([H])N(C(=O)C([H])(N([H])C(=O)C([H])(N([H])C([H])([H])[H])C([H])([H])[H])C(C([H])([H])[H])(C([H])([H])[H])C([H])([H])[H])C([H])([H])c2c([H])c(OC([H])([H])C([H])([H])[N+]3([H])C([H])([H])C([H])([H])C([H])([H])C([H])([N+]([H])([H])C([H])([H])C([H])([H])N([H])C(=O)N4C([H])([H])C([H])([H])C([H])([H])C([H])(n5nc(-c6c([H])c([H])c(Oc7c([H])c([H])c(F)c([H])c7F)c([H])c6[H])c(C(=O)N([H])[H])c5N([H])[H])C4([H])[H])C([H])([H])C3([H])[H])c([H])c([H])c2C1([H])[H]

>  <smiles>  (79) 
[H]c1c([H])c([H])c2c(c1[H])C([H])([H])C([H])([H])C([H])([H])C2([H])N([H])C(=O)C1([H])N(C(=O)C([H])(N([H])C(=O)C([H])(N([H])C([H])([H])[H])C([H])([H])[H])C(C([H])([H])[H])(C([H])([H])[H])C([H])([H])[H])C([H])([H])c2c([H])c(OC([H])([H])C([H])([H])[N+]3([H])C([H])([H])C([H])([H])C([H])([H])C([H])([N+]([H])([H])C([H])([H])C([H])([H])N([H])C(=O)N4C([H])([H])C([H])([H])C([H])([H])C([H])(n5nc(-c6c([H])c([H])c(Oc7c([H])c([H])c(F)c([H])c7F)c([H])c6[H])c(C(=O)N([H])[H])c5N([H])[H])C4([H])[H])C([H])([H])C3([H])[H])c([H])c([H])c2C1([H])[H]

$$$$
81:0:0
     RDKit          3D

 91 99  0  0  1  0  0  0  0  0999 V2000
  -29.2800  -21.9120   20.7510 C   0  0  0  0  0  0  0  0  0  0  0  0
  -28.5950  -23.0550   20.9690 N   0  0  0  0  0  0  0  0  0  0  0  0
  -30.0530  -21.7930   19.8000 O   0  0  0  0  0  0  0  0  0  0  0  0
  -27.9720  -23.0720   21.7660 H   0  0  0  0  0  0  0  0  0  0  0  0
  -29.0620  -20.7400   21.7410 C   0  0  0  0  0  2  0  0  0  0  0  0
  -30.0430  -19.5180   21.6580 C   0  0  0  0  0  2  0  0  0  0  0  0
  -28.4970  -17.5030   18.7650 C   0  0  0  0  0  3  0  0  0  0  0  0
  -29.1530  -16.2680   18.8930 C   0  0  0  0  0  3  0  0  0  0  0  0
  -28.7550  -18.5340   19.6800 C   0  0  0  0  0  3  0  0  0  0  0  0
  -30.3030  -17.0680   20.8730 C   0  0  0  0  0  3  0  0  0  0  0  0
  -30.0320  -16.0000   19.9680 C   0  0  0  0  0  0  0  0  0  0  0  0
  -29.6800  -18.3460   20.7270 C   0  0  0  0  0  0  0  0  0  0  0  0
  -30.8120  -14.6900   19.9590 C   0  0  0  0  0  0  0  0  0  0  0  0
  -30.4670  -12.4880   18.9130 C   0  0  0  0  0  2  0  0  0  0  0  0
  -29.4490  -12.6170   17.7590 C   0  0  0  0  0  2  0  0  0  0  0  0
  -28.0040  -12.4730   18.2810 C   0  0  0  0  0  2  0  0  0  0  0  0
  -27.7190  -13.3340   19.5390 C   0  0  0  0  0  3  0  0  0  0  0  0
  -28.8540  -13.2270   20.5820 C   0  0  0  0  0  2  0  0  0  0  0  0
  -30.1340  -13.5080   19.9200 N   0  0  0  0  0  0  0  0  0  0  0  0
  -31.9980  -14.7770   19.6410 O   0  0  0  0  0  0  0  0  0  0  0  0
  -25.3990  -13.9360   20.4500 C   0  0  0  0  0  0  0  0  0  0  0  0
  -24.3500  -13.1590   20.8600 C   0  0  0  0  0  0  0  0  0  0  0  0
  -24.7990  -11.8070   20.7580 C   0  0  0  0  0  0  0  0  0  0  0  0
  -26.4140  -13.0530   20.1170 N   0  0  0  0  0  0  0  0  0  0  0  0
  -26.0660  -11.7670   20.3660 N   0  0  0  0  0  0  0  0  0  0  0  0
  -24.0830  -10.5420   20.9550 C   0  0  0  0  0  0  0  0  0  0  0  0
  -24.5390   -9.5740   21.8760 C   0  0  0  0  0  3  0  0  0  0  0  0
  -23.8240   -8.3710   22.0610 C   0  0  0  0  0  3  0  0  0  0  0  0
  -22.6390   -8.1300   21.3260 C   0  0  0  0  0  0  0  0  0  0  0  0
  -22.2030   -9.0880   20.3930 C   0  0  0  0  0  3  0  0  0  0  0  0
  -22.9190  -10.2820   20.2060 C   0  0  0  0  0  3  0  0  0  0  0  0
  -21.8940   -6.9810   21.4200 O   0  0  0  0  0  0  0  0  0  0  0  0
  -21.8310   -6.2580   22.5840 C   0  0  0  0  0  0  0  0  0  0  0  0
  -21.3370   -6.8170   23.7830 C   0  0  0  0  0  3  0  0  0  0  0  0
  -21.2250   -6.0190   24.9390 C   0  0  0  0  0  3  0  0  0  0  0  0
  -21.5960   -4.6610   24.8950 C   0  0  0  0  0  0  0  0  0  0  0  0
  -22.0830   -4.1020   23.7020 C   0  0  0  0  0  3  0  0  0  0  0  0
  -22.1980   -4.8980   22.5490 C   0  0  0  0  0  0  0  0  0  0  0  0
  -22.6480   -4.3470   21.3950 F   0  0  0  0  0  0  0  0  0  0  0  0
  -21.4810   -3.8920   26.0030 F   0  0  0  0  0  0  0  0  0  0  0  0
  -22.9770  -13.6340   21.2380 C   0  0  0  0  0  0  0  0  0  0  0  0
  -22.3000  -12.9070   22.1210 N   0  0  0  0  0  0  0  0  0  0  0  0
  -22.5160  -14.6810   20.7870 O   0  0  0  0  0  0  0  0  0  0  0  0
  -22.6870  -12.0610   22.5100 H   0  0  0  0  0  0  0  0  0  0  0  0
  -21.3790  -13.2020   22.4130 H   0  0  0  0  0  0  0  0  0  0  0  0
  -25.5720  -15.3110   20.3150 N   0  0  0  0  0  0  0  0  0  0  0  0
  -24.8530  -15.9830   20.5590 H   0  0  0  0  0  0  0  0  0  0  0  0
  -26.4460  -15.7440   20.0440 H   0  0  0  0  0  0  0  0  0  0  0  0
  -28.6260  -24.2760   20.1360 C   0  0  0  0  0  2  0  0  0  0  0  0
  -28.2840  -25.5520   20.9510 C   0  0  0  0  0  2  0  0  0  0  0  0
  -28.4080  -26.7870   20.2120 O   0  0  0  0  0  0  0  0  0  0  0  0
  -24.5620  -31.9520   23.2710 C   0  0  0  0  0  0  0  0  0  0  0  0
  -27.2600  -27.5510   20.1830 C   0  0  0  0  0  0  0  0  0  0  0  0
  -23.3830  -30.5630   21.5970 C   0  0  0  0  0  3  0  0  0  0  0  0
  -24.8640  -29.0520   20.1700 C   0  0  0  0  0  0  0  0  0  0  0  0
  -25.9070  -30.9420   21.4290 C   0  0  0  0  0  2  0  0  0  0  0  0
  -26.0120  -29.5770   20.7770 C   0  0  0  0  0  0  0  0  0  0  0  0
  -27.2180  -28.8350   20.7770 C   0  0  0  0  0  3  0  0  0  0  0  0
  -26.1000  -27.0440   19.5640 C   0  0  0  0  0  3  0  0  0  0  0  0
  -24.9030  -27.7880   19.5580 C   0  0  0  0  0  3  0  0  0  0  0  0
  -23.6130  -29.9020   20.2110 C   0  0  0  0  0  2  0  0  0  0  0  0
  -24.6350  -31.1660   22.1590 N   0  0  0  0  0  0  0  0  0  0  0  0
  -23.4730  -32.2090   23.8030 O   0  0  0  0  0  0  0  0  0  0  0  0
  -22.7250  -29.5270   22.5370 C   0  0  0  0  0  0  0  0  0  0  0  0
  -21.4060  -29.3310   22.3840 N   0  0  0  0  0  0  0  0  0  0  0  0
  -23.4000  -28.9000   23.3590 O   0  0  0  0  0  0  0  0  0  0  0  0
  -20.9190  -29.8890   21.6950 H   0  0  0  0  0  0  0  0  0  0  0  0
  -18.0380  -28.0930   22.8070 C   0  0  0  0  0  0  0  0  0  0  0  0
  -20.5870  -28.3780   23.1320 C   0  0  0  0  0  3  0  0  0  0  0  0
  -20.7180  -26.9520   22.5480 C   0  0  0  0  0  2  0  0  0  0  0  0
  -19.6410  -26.6250   21.5090 C   0  0  0  0  0  2  0  0  0  0  0  0
  -18.2440  -26.7500   22.1260 C   0  0  0  0  0  2  0  0  0  0  0  0
  -19.1390  -28.8630   23.2660 C   0  0  0  0  0  0  0  0  0  0  0  0
  -18.8940  -30.1210   23.8600 C   0  0  0  0  0  3  0  0  0  0  0  0
  -17.5820  -30.6060   24.0020 C   0  0  0  0  0  3  0  0  0  0  0  0
  -16.4940  -29.8320   23.5620 C   0  0  0  0  0  3  0  0  0  0  0  0
  -16.7240  -28.5780   22.9680 C   0  0  0  0  0  3  0  0  0  0  0  0
  -25.8380  -32.5820   23.9140 C   0  0  0  0  0  3  0  0  0  0  0  0
  -25.5320  -33.9860   24.2250 N   0  0  0  0  0  0  0  0  0  0  0  0
  -25.8950  -35.0300   23.4650 C   0  0  0  0  0  0  0  0  0  0  0  0
  -26.5970  -34.9120   22.4580 O   0  0  0  0  0  0  0  0  0  0  0  0
  -24.9170  -34.1530   25.0080 H   0  0  0  0  0  0  0  0  0  0  0  0
  -24.2060  -36.8400   23.0250 C   0  0  0  0  0  1  0  0  0  0  0  0
  -25.4030  -36.4250   23.8960 C   0  0  0  0  0  3  0  0  0  0  0  0
  -27.5070  -37.2860   24.8230 C   0  0  0  0  0  1  0  0  0  0  0  0
  -26.4500  -37.4680   23.8320 N   0  0  0  0  0  0  0  0  0  0  0  0
  -26.0450  -38.3900   23.9700 H   0  0  0  0  0  0  0  0  0  0  0  0
  -26.3270  -31.8180   25.2040 C   0  0  1  0  0  0  0  0  0  0  0  0
  -25.2140  -31.5900   26.2530 C   0  0  0  0  0  1  0  0  0  0  0  0
  -26.9140  -30.4370   24.8280 C   0  0  0  0  0  1  0  0  0  0  0  0
  -27.4660  -32.6130   25.8840 C   0  0  0  0  0  1  0  0  0  0  0  0
  1  2  1  0
  1  5  1  0
  2  4  1  0
  3  1  2  0
  6  5  1  0
  7  8  2  0
  7  9  1  0
  8 11  1  0
  9 12  2  0
 11 10  2  0
 12 10  1  0
 12  6  1  0
 13 11  1  0
 14 19  1  0
 15 16  1  0
 15 14  1  0
 17 16  1  0
 17 24  1  0
 17 18  1  0
 19 13  1  0
 19 18  1  0
 20 13  2  0
 21 22  2  0
 22 41  1  0
 23 22  1  0
 23 26  1  0
 24 25  1  0
 24 21  1  0
 25 23  2  0
 26 27  1  0
 27 28  2  0
 29 32  1  0
 29 28  1  0
 30 29  2  0
 31 30  1  0
 31 26  2  0
 32 33  1  0
 33 34  1  0
 34 35  2  0
 36 35  1  0
 36 40  1  0
 37 36  2  0
 38 33  2  0
 38 37  1  0
 39 38  1  0
 41 42  1  0
 42 45  1  0
 42 44  1  0
 43 41  2  0
 46 21  1  0
 46 47  1  0
 48 46  1  0
 49 50  1  0
 49  2  1  0
 51 50  1  0
 52 63  2  0
 53 51  1  0
 53 58  1  0
 54 62  1  0
 54 64  1  0
 55 61  1  0
 55 57  1  0
 56 62  1  0
 57 58  2  0
 57 56  1  0
 59 53  2  0
 60 59  1  0
 60 55  2  0
 61 54  1  0
 62 52  1  0
 64 66  2  0
 65 64  1  0
 67 65  1  0
 68 77  2  0
 68 73  1  0
 69 65  1  0
 69 73  1  0
 70 69  1  0
 71 72  1  0
 71 70  1  0
 72 68  1  0
 73 74  2  0
 74 75  1  0
 76 75  2  0
 77 76  1  0
 78 52  1  0
 78 79  1  0
 78 88  1  0
 79 82  1  0
 80 84  1  0
 80 79  1  0
 81 80  2  0
 84 83  1  0
 86 84  1  0
 86 87  1  0
 86 85  1  0
 88 91  1  1
 88 89  1  0
 90 88  1  0
M  ISO  4  11 100  13 100  50 101  51 101
M  END
>  <TORSDO>  (80) 
F 21

>  <SCORE>  (80) 
-12.859

>  <name>  (80) 
81

>  <ligand_id>  (80) 
81

>  <original_smiles>  (80) 
[H]c1c([H])c(C(=O)N2C([H])([H])C([H])([H])C([H])([H])C([H])(n3nc(-c4c([H])c([H])c(Oc5c([H])c([H])c(F)c([H])c5F)c([H])c4[H])c(C(=O)N([H])[H])c3N([H])[H])C2([H])[H])c([H])c(C([H])([H])C([H])([H])C(=O)N([H])C([H])([H])C([H])([H])Oc2c([H])c([H])c3c(c2[H])C([H])([H])N(C(=O)C([H])(N([H])C(=O)C([H])(N([H])C([H])([H])[H])C([H])([H])[H])C(C([H])([H])[H])(C([H])([H])[H])C([H])([H])[H])C([H])(C(=O)N([H])C2([H])c4c([H])c([H])c([H])c([H])c4C([H])([H])C([H])([H])C2([H])[H])C3([H])[H])c1[H]

>  <smiles>  (80) 
[H]c1c([H])c(C(=O)N2C([H])([H])C([H])([H])C([H])([H])C([H])(n3nc(-c4c([H])c([H])c(Oc5c([H])c([H])c(F)c([H])c5F)c([H])c4[H])c(C(=O)N([H])[H])c3N([H])[H])C2([H])[H])c([H])c(C([H])([H])C([H])([H])C(=O)N([H])C([H])([H])C([H])([H])Oc2c([H])c([H])c3c(c2[H])C([H])([H])N(C(=O)C([H])(N([H])C(=O)C([H])(N([H])C([H])([H])[H])C([H])([H])[H])C(C([H])([H])[H])(C([H])([H])[H])C([H])([H])[H])C([H])(C(=O)N([H])C2([H])c4c([H])c([H])c([H])c([H])c4C([H])([H])C([H])([H])C2([H])[H])C3([H])[H])c1[H]

$$$$
82:0:0
     RDKit          3D

 93101  0  0  1  0  0  0  0  0999 V2000
  -28.6000  -21.4850   21.5720 N   0  0  0  0  0  4  0  0  0  0  0  0
  -29.2060  -21.7650   22.3290 H   0  0  0  0  0  0  0  0  0  0  0  0
  -27.7030  -21.2880   21.9860 H   0  0  0  0  0  0  0  0  0  0  0  0
  -28.7940  -18.0640   19.7080 C   0  0  0  0  0  2  0  0  0  0  0  0
  -30.1940  -17.8700   21.8630 C   0  0  0  0  0  2  0  0  0  0  0  0
  -28.0800  -19.2100   20.4630 C   0  0  0  0  0  2  0  0  0  0  0  0
  -30.1120  -19.4410   21.9570 C   0  0  0  0  0  2  0  0  0  0  0  0
  -29.6810  -17.1120   20.5790 C   0  0  0  0  0  3  0  0  0  0  0  0
  -29.1430  -20.1940   21.0050 C   0  0  0  0  0  3  0  0  0  0  0  0
  -30.5680  -16.3710   18.1970 C   0  0  0  0  0  1  0  0  0  0  0  0
  -30.7720  -16.3020   19.7300 C   0  0  2  0  0  0  0  0  0  0  0  0
  -31.2680  -14.8140   20.0870 C   0  0  0  0  0  0  0  0  0  0  0  0
  -30.8000  -12.6310   19.0390 C   0  0  0  0  0  2  0  0  0  0  0  0
  -29.8430  -12.8110   17.8390 C   0  0  0  0  0  2  0  0  0  0  0  0
  -28.3840  -12.7080   18.3130 C   0  0  0  0  0  2  0  0  0  0  0  0
  -28.0860  -13.5800   19.5620 C   0  0  0  0  0  3  0  0  0  0  0  0
  -29.1770  -13.4560   20.6450 C   0  0  0  0  0  2  0  0  0  0  0  0
  -30.4850  -13.6880   20.0230 N   0  0  0  0  0  0  0  0  0  0  0  0
  -32.4890  -14.6990   19.9750 O   0  0  0  0  0  0  0  0  0  0  0  0
  -25.7340  -14.2260   20.3460 C   0  0  0  0  0  0  0  0  0  0  0  0
  -24.6550  -13.4730   20.7220 C   0  0  0  0  0  0  0  0  0  0  0  0
  -25.0840  -12.1110   20.6720 C   0  0  0  0  0  0  0  0  0  0  0  0
  -26.7510  -13.3210   20.0890 N   0  0  0  0  0  0  0  0  0  0  0  0
  -26.3690  -12.0440   20.3500 N   0  0  0  0  0  0  0  0  0  0  0  0
  -24.3290  -10.8650   20.8570 C   0  0  0  0  0  0  0  0  0  0  0  0
  -24.7160   -9.8990   21.8110 C   0  0  0  0  0  3  0  0  0  0  0  0
  -23.9570   -8.7230   21.9850 C   0  0  0  0  0  3  0  0  0  0  0  0
  -22.7960   -8.5020   21.2070 C   0  0  0  0  0  0  0  0  0  0  0  0
  -22.4330   -9.4540   20.2400 C   0  0  0  0  0  3  0  0  0  0  0  0
  -23.1920  -10.6230   20.0630 C   0  0  0  0  0  3  0  0  0  0  0  0
  -22.0140   -7.3780   21.2870 O   0  0  0  0  0  0  0  0  0  0  0  0
  -21.8670   -6.6890   22.4660 C   0  0  0  0  0  0  0  0  0  0  0  0
  -21.3680   -7.3030   23.6330 C   0  0  0  0  0  3  0  0  0  0  0  0
  -21.1660   -6.5380   24.8010 C   0  0  0  0  0  3  0  0  0  0  0  0
  -21.4570   -5.1620   24.8020 C   0  0  0  0  0  0  0  0  0  0  0  0
  -21.9480   -4.5460   23.6360 C   0  0  0  0  0  3  0  0  0  0  0  0
  -22.1510   -5.3070   22.4730 C   0  0  0  0  0  0  0  0  0  0  0  0
  -22.6040   -4.7030   21.3470 F   0  0  0  0  0  0  0  0  0  0  0  0
  -21.2590   -4.4260   25.9200 F   0  0  0  0  0  0  0  0  0  0  0  0
  -23.2750  -13.9810   21.0180 C   0  0  0  0  0  0  0  0  0  0  0  0
  -22.5510  -13.2970   21.8960 N   0  0  0  0  0  0  0  0  0  0  0  0
  -22.8510  -15.0160   20.5050 O   0  0  0  0  0  0  0  0  0  0  0  0
  -22.9100  -12.4530   22.3180 H   0  0  0  0  0  0  0  0  0  0  0  0
  -21.6240  -13.6140   22.1460 H   0  0  0  0  0  0  0  0  0  0  0  0
  -25.9340  -15.5940   20.1810 N   0  0  0  0  0  0  0  0  0  0  0  0
  -25.1880  -16.2680   20.3120 H   0  0  0  0  0  0  0  0  0  0  0  0
  -26.7880  -16.0170   19.8420 H   0  0  0  0  0  0  0  0  0  0  0  0
  -31.9180  -17.1410   19.8390 O   0  0  0  0  0  0  0  0  0  0  0  0
  -32.6340  -16.5180   19.9570 H   0  0  0  0  0  0  0  0  0  0  0  0
  -28.4200  -22.6170   20.5930 C   0  0  0  0  0  2  0  0  0  0  0  0
  -28.5390  -24.1110   21.1110 C   0  0  0  0  0  2  0  0  0  0  0  0
  -28.3600  -25.1520   19.9410 C   0  0  0  0  0  2  0  0  0  0  0  0
  -28.4050  -26.5940   20.2320 O   0  0  0  0  0  0  0  0  0  0  0  0
  -24.6470  -31.8820   23.1970 C   0  0  0  0  0  0  0  0  0  0  0  0
  -27.2640  -27.3910   20.1250 C   0  0  0  0  0  0  0  0  0  0  0  0
  -23.4470  -30.4880   21.5530 C   0  0  0  0  0  3  0  0  0  0  0  0
  -24.8960  -28.9870   20.0950 C   0  0  0  0  0  0  0  0  0  0  0  0
  -25.9820  -30.8420   21.3590 C   0  0  0  0  0  2  0  0  0  0  0  0
  -26.0640  -29.4800   20.6900 C   0  0  0  0  0  0  0  0  0  0  0  0
  -27.2480  -28.6990   20.6920 C   0  0  0  0  0  3  0  0  0  0  0  0
  -26.0630  -26.9480   19.5050 C   0  0  0  0  0  3  0  0  0  0  0  0
  -24.8990  -27.7280   19.4920 C   0  0  0  0  0  3  0  0  0  0  0  0
  -23.6630  -29.8580   20.1560 C   0  0  0  0  0  2  0  0  0  0  0  0
  -24.7110  -31.0860   22.0910 N   0  0  0  0  0  0  0  0  0  0  0  0
  -23.5640  -32.1440   23.7410 O   0  0  0  0  0  0  0  0  0  0  0  0
  -22.8110  -29.4400   22.4940 C   0  0  0  0  0  0  0  0  0  0  0  0
  -21.4900  -29.2300   22.3600 N   0  0  0  0  0  0  0  0  0  0  0  0
  -23.4980  -28.8200   23.3100 O   0  0  0  0  0  0  0  0  0  0  0  0
  -20.9880  -29.7890   21.6850 H   0  0  0  0  0  0  0  0  0  0  0  0
  -18.1410  -27.9540   22.8110 C   0  0  0  0  0  0  0  0  0  0  0  0
  -20.6850  -28.2740   23.1190 C   0  0  0  0  0  3  0  0  0  0  0  0
  -20.8270  -26.8430   22.5480 C   0  0  0  0  0  2  0  0  0  0  0  0
  -19.7500  -26.4920   21.5170 C   0  0  0  0  0  2  0  0  0  0  0  0
  -18.3570  -26.6080   22.1390 C   0  0  0  0  0  2  0  0  0  0  0  0
  -19.2330  -28.7460   23.2540 C   0  0  0  0  0  0  0  0  0  0  0  0
  -18.9760  -30.0080   23.8300 C   0  0  0  0  0  3  0  0  0  0  0  0
  -17.6550  -30.4760   23.9760 C   0  0  0  0  0  3  0  0  0  0  0  0
  -16.5780  -29.6770   23.5540 C   0  0  0  0  0  3  0  0  0  0  0  0
  -16.8210  -28.4190   22.9760 C   0  0  0  0  0  3  0  0  0  0  0  0
  -25.9350  -32.5180   23.8130 C   0  0  0  0  0  3  0  0  0  0  0  0
  -25.6170  -33.9090   24.1580 N   0  0  0  0  0  0  0  0  0  0  0  0
  -25.9210  -34.9710   23.4030 C   0  0  0  0  0  0  0  0  0  0  0  0
  -26.5730  -34.8890   22.3580 O   0  0  0  0  0  0  0  0  0  0  0  0
  -25.0530  -34.0500   24.9850 H   0  0  0  0  0  0  0  0  0  0  0  0
  -24.1640  -36.7410   23.0850 C   0  0  0  0  0  1  0  0  0  0  0  0
  -25.4170  -36.3470   23.8780 C   0  0  0  0  0  3  0  0  0  0  0  0
  -27.5450  -37.2540   24.7020 C   0  0  0  0  0  1  0  0  0  0  0  0
  -26.4330  -37.4150   23.7690 N   0  0  0  0  0  0  0  0  0  0  0  0
  -26.0130  -38.3270   23.9250 H   0  0  0  0  0  0  0  0  0  0  0  0
  -26.4680  -31.7420   25.0790 C   0  0  1  0  0  0  0  0  0  0  0  0
  -25.3850  -31.4770   26.1490 C   0  0  0  0  0  1  0  0  0  0  0  0
  -27.0700  -30.3760   24.6740 C   0  0  0  0  0  1  0  0  0  0  0  0
  -27.6060  -32.5490   25.7500 C   0  0  0  0  0  1  0  0  0  0  0  0
  1  3  1  0
  1  2  1  0
  4  6  1  0
  4  8  1  0
  5  7  1  0
  6  9  1  0
  8 11  1  0
  8  5  1  0
  9  1  1  0
  9  7  1  0
 11 10  1  6
 11 48  1  0
 11 12  1  0
 13 18  1  0
 14 15  1  0
 14 13  1  0
 16 15  1  0
 16 23  1  0
 16 17  1  0
 18 12  1  0
 18 17  1  0
 19 12  2  0
 20 21  2  0
 21 40  1  0
 22 21  1  0
 22 25  1  0
 23 20  1  0
 23 24  1  0
 24 22  2  0
 25 26  1  0
 26 27  2  0
 28 31  1  0
 28 27  1  0
 29 28  2  0
 30 29  1  0
 30 25  2  0
 31 32  1  0
 32 37  2  0
 32 33  1  0
 33 34  2  0
 34 35  1  0
 35 39  1  0
 36 35  2  0
 37 36  1  0
 38 37  1  0
 40 41  1  0
 41 44  1  0
 41 43  1  0
 42 40  2  0
 45 46  1  0
 45 20  1  0
 47 45  1  0
 48 49  1  0
 50 51  1  0
 50  1  1  0
 52 53  1  0
 52 51  1  0
 54 65  2  0
 55 53  1  0
 55 60  1  0
 56 64  1  0
 56 66  1  0
 57 63  1  0
 57 59  1  0
 58 64  1  0
 59 60  2  0
 59 58  1  0
 61 55  2  0
 62 61  1  0
 62 57  2  0
 63 56  1  0
 64 54  1  0
 66 68  2  0
 67 66  1  0
 69 67  1  0
 70 79  2  0
 70 75  1  0
 71 67  1  0
 71 75  1  0
 72 71  1  0
 73 74  1  0
 73 72  1  0
 74 70  1  0
 75 76  2  0
 76 77  1  0
 78 77  2  0
 79 78  1  0
 80 54  1  0
 80 81  1  0
 80 90  1  0
 81 84  1  0
 82 86  1  0
 82 81  1  0
 83 82  2  0
 86 85  1  0
 88 86  1  0
 88 89  1  0
 88 87  1  0
 90 93  1  1
 90 91  1  0
 92 90  1  0
M  ISO  4  11 100  12 100  52 101  53 101
M  END
>  <TORSDO>  (81) 
F 22

>  <SCORE>  (81) 
-12.265

>  <name>  (81) 
82

>  <ligand_id>  (81) 
82

>  <original_smiles>  (81) 
[H]OC(C(=O)N1C([H])([H])C([H])([H])C([H])([H])C([H])(n2nc(-c3c([H])c([H])c(Oc4c([H])c([H])c(F)c([H])c4F)c([H])c3[H])c(C(=O)N([H])[H])c2N([H])[H])C1([H])[H])(C([H])([H])[H])C1([H])C([H])([H])C([H])([H])C([H])([N+]([H])([H])C([H])([H])C([H])([H])C([H])([H])Oc2c([H])c([H])c3c(c2[H])C([H])([H])N(C(=O)C([H])(N([H])C(=O)C([H])(N([H])C([H])([H])[H])C([H])([H])[H])C(C([H])([H])[H])(C([H])([H])[H])C([H])([H])[H])C([H])(C(=O)N([H])C2([H])c4c([H])c([H])c([H])c([H])c4C([H])([H])C([H])([H])C2([H])[H])C3([H])[H])C([H])([H])C1([H])[H]

>  <smiles>  (81) 
[H]OC(C(=O)N1C([H])([H])C([H])([H])C([H])([H])C([H])(n2nc(-c3c([H])c([H])c(Oc4c([H])c([H])c(F)c([H])c4F)c([H])c3[H])c(C(=O)N([H])[H])c2N([H])[H])C1([H])[H])(C([H])([H])[H])C1([H])C([H])([H])C([H])([H])C([H])([N+]([H])([H])C([H])([H])C([H])([H])C([H])([H])Oc2c([H])c([H])c3c(c2[H])C([H])([H])N(C(=O)C([H])(N([H])C(=O)C([H])(N([H])C([H])([H])[H])C([H])([H])[H])C(C([H])([H])[H])(C([H])([H])[H])C([H])([H])[H])C([H])(C(=O)N([H])C2([H])c4c([H])c([H])c([H])c([H])c4C([H])([H])C([H])([H])C2([H])[H])C3([H])[H])C([H])([H])C1([H])[H]

$$$$
83:0:0
     RDKit          3D

 96105  0  0  1  0  0  0  0  0999 V2000
  -29.1960  -24.2730   21.3580 C   0  0  0  0  0  3  0  0  0  0  0  0
  -28.3870  -21.8050   20.3040 C   0  0  0  0  0  3  0  0  0  0  0  0
  -29.4910  -23.0760   22.0500 C   0  0  0  0  0  0  0  0  0  0  0  0
  -29.0820  -21.8140   21.5340 C   0  0  0  0  0  0  0  0  0  0  0  0
  -28.1390  -23.0010   19.5810 C   0  0  0  0  0  0  0  0  0  0  0  0
  -28.5440  -24.2540   20.1070 C   0  0  0  0  0  0  0  0  0  0  0  0
  -30.2760  -23.1600   23.3460 C   0  0  0  0  0  2  0  0  0  0  0  0
  -31.1290  -21.9020   23.5260 C   0  0  0  0  0  2  0  0  0  0  0  0
  -30.1850  -20.6980   23.5920 C   0  0  0  0  0  2  0  0  0  0  0  0
  -29.3770  -20.4820   22.2800 C   0  0  0  0  0  3  0  0  0  0  0  0
  -27.4730  -22.9010   18.2200 C   0  0  0  0  0  1  0  0  0  0  0  0
  -30.0860  -19.5140   21.3930 N   0  0  0  0  0  4  0  0  0  0  0  0
  -29.8430  -19.7750   20.4530 H   0  0  0  0  0  0  0  0  0  0  0  0
  -31.0780  -19.6550   21.5060 H   0  0  0  0  0  0  0  0  0  0  0  0
  -29.7490  -18.0630   21.5530 C   0  0  0  0  0  2  0  0  0  0  0  0
  -30.6340  -17.1060   20.6950 C   0  0  0  0  0  2  0  0  0  0  0  0
  -31.0080  -14.6530   20.3360 C   0  0  0  0  0  0  0  0  0  0  0  0
  -30.6780  -12.5340   19.1230 C   0  0  0  0  0  2  0  0  0  0  0  0
  -29.7170  -12.7700   17.9390 C   0  0  0  0  0  2  0  0  0  0  0  0
  -28.2490  -12.6580   18.3900 C   0  0  0  0  0  2  0  0  0  0  0  0
  -27.9440  -13.4600   19.6840 C   0  0  0  0  0  3  0  0  0  0  0  0
  -29.0070  -13.1850   20.7710 C   0  0  0  0  0  2  0  0  0  0  0  0
  -30.3270  -13.4830   20.1920 N   0  0  0  0  0  0  0  0  0  0  0  0
  -32.1320  -14.8420   19.8640 O   0  0  0  0  0  0  0  0  0  0  0  0
  -30.2910  -15.6770   20.8450 N   0  0  0  0  0  0  0  0  0  0  0  0
  -29.3670  -15.4530   21.1850 H   0  0  0  0  0  0  0  0  0  0  0  0
  -25.5600  -14.0930   20.4050 C   0  0  0  0  0  0  0  0  0  0  0  0
  -24.4860  -13.3360   20.7800 C   0  0  0  0  0  0  0  0  0  0  0  0
  -24.9300  -11.9770   20.7470 C   0  0  0  0  0  0  0  0  0  0  0  0
  -26.5920  -13.1990   20.1670 N   0  0  0  0  0  0  0  0  0  0  0  0
  -26.2180  -11.9200   20.4270 N   0  0  0  0  0  0  0  0  0  0  0  0
  -24.1900  -10.7240   20.9370 C   0  0  0  0  0  0  0  0  0  0  0  0
  -24.5910   -9.7660   21.8930 C   0  0  0  0  0  3  0  0  0  0  0  0
  -23.8520   -8.5780   22.0710 C   0  0  0  0  0  3  0  0  0  0  0  0
  -22.6980   -8.3370   21.2900 C   0  0  0  0  0  0  0  0  0  0  0  0
  -22.3140   -9.2830   20.3220 C   0  0  0  0  0  3  0  0  0  0  0  0
  -23.0540  -10.4640   20.1430 C   0  0  0  0  0  3  0  0  0  0  0  0
  -21.9320   -7.2020   21.3740 O   0  0  0  0  0  0  0  0  0  0  0  0
  -21.8040   -6.5060   22.5500 C   0  0  0  0  0  0  0  0  0  0  0  0
  -21.3200   -7.1160   23.7280 C   0  0  0  0  0  3  0  0  0  0  0  0
  -21.1360   -6.3470   24.8940 C   0  0  0  0  0  3  0  0  0  0  0  0
  -21.4290   -4.9700   24.8850 C   0  0  0  0  0  0  0  0  0  0  0  0
  -21.9110   -4.3610   23.7130 C   0  0  0  0  0  3  0  0  0  0  0  0
  -22.0950   -5.1260   22.5480 C   0  0  0  0  0  0  0  0  0  0  0  0
  -22.5350   -4.5280   21.4170 F   0  0  0  0  0  0  0  0  0  0  0  0
  -21.2470   -4.2310   26.0060 F   0  0  0  0  0  0  0  0  0  0  0  0
  -23.0950  -13.8300   21.0640 C   0  0  0  0  0  0  0  0  0  0  0  0
  -22.3710  -13.1490   21.9420 N   0  0  0  0  0  0  0  0  0  0  0  0
  -22.6610  -14.8550   20.5400 O   0  0  0  0  0  0  0  0  0  0  0  0
  -22.7380  -12.3210   22.3840 H   0  0  0  0  0  0  0  0  0  0  0  0
  -21.4400  -13.4630   22.1760 H   0  0  0  0  0  0  0  0  0  0  0  0
  -25.7450  -15.4630   20.2250 N   0  0  0  0  0  0  0  0  0  0  0  0
  -24.9780  -16.1230   20.3110 H   0  0  0  0  0  0  0  0  0  0  0  0
  -26.5740  -15.8720   19.8130 H   0  0  0  0  0  0  0  0  0  0  0  0
  -28.4380  -25.5500   19.2880 C   0  0  0  0  0  2  0  0  0  0  0  0
  -28.2890  -26.7580   20.0460 O   0  0  0  0  0  0  0  0  0  0  0  0
  -24.5470  -31.8990   23.2030 C   0  0  0  0  0  0  0  0  0  0  0  0
  -27.0880  -27.4430   20.0490 C   0  0  0  0  0  0  0  0  0  0  0  0
  -23.2950  -30.5200   21.5800 C   0  0  0  0  0  3  0  0  0  0  0  0
  -24.6970  -28.9710   20.1220 C   0  0  0  0  0  0  0  0  0  0  0  0
  -25.8200  -30.8480   21.3310 C   0  0  0  0  0  2  0  0  0  0  0  0
  -25.8760  -29.4790   20.6820 C   0  0  0  0  0  0  0  0  0  0  0  0
  -27.0670  -28.7250   20.6360 C   0  0  0  0  0  3  0  0  0  0  0  0
  -25.8860  -26.9330   19.5070 C   0  0  0  0  0  3  0  0  0  0  0  0
  -24.6990  -27.6920   19.5350 C   0  0  0  0  0  3  0  0  0  0  0  0
  -23.4700  -29.8470   20.1950 C   0  0  0  0  0  2  0  0  0  0  0  0
  -24.5770  -31.1010   22.0980 N   0  0  0  0  0  0  0  0  0  0  0  0
  -23.4820  -32.1790   23.7680 O   0  0  0  0  0  0  0  0  0  0  0  0
  -22.6500  -29.5000   22.5440 C   0  0  0  0  0  0  0  0  0  0  0  0
  -21.3290  -29.2950   22.4150 N   0  0  0  0  0  0  0  0  0  0  0  0
  -23.3400  -28.8890   23.3650 O   0  0  0  0  0  0  0  0  0  0  0  0
  -20.8350  -29.8200   21.7060 H   0  0  0  0  0  0  0  0  0  0  0  0
  -17.9790  -28.0320   22.8980 C   0  0  0  0  0  0  0  0  0  0  0  0
  -20.5260  -28.3550   23.1980 C   0  0  0  0  0  3  0  0  0  0  0  0
  -20.6770  -26.9110   22.6620 C   0  0  0  0  0  2  0  0  0  0  0  0
  -19.5930  -26.5300   21.6540 C   0  0  0  0  0  2  0  0  0  0  0  0
  -18.1970  -26.6670   22.2680 C   0  0  0  0  0  2  0  0  0  0  0  0
  -19.0750  -28.8300   23.3240 C   0  0  0  0  0  0  0  0  0  0  0  0
  -18.8190  -30.1010   23.8790 C   0  0  0  0  0  3  0  0  0  0  0  0
  -17.5020  -30.5770   24.0070 C   0  0  0  0  0  3  0  0  0  0  0  0
  -16.4220  -29.7760   23.6030 C   0  0  0  0  0  3  0  0  0  0  0  0
  -16.6600  -28.5060   23.0510 C   0  0  0  0  0  3  0  0  0  0  0  0
  -25.8540  -32.5170   23.7930 C   0  0  0  0  0  3  0  0  0  0  0  0
  -26.4060  -31.7250   25.0430 C   0  0  1  0  0  0  0  0  0  0  0  0
  -25.3380  -31.4760   26.1330 C   0  0  0  0  0  1  0  0  0  0  0  0
  -26.9710  -30.3520   24.6100 C   0  0  0  0  0  1  0  0  0  0  0  0
  -27.5760  -32.5090   25.6840 C   0  0  0  0  0  1  0  0  0  0  0  0
  -25.5610  -33.9120   24.1500 N   0  0  0  0  0  0  0  0  0  0  0  0
  -25.8890  -34.9740   23.4010 C   0  0  0  0  0  0  0  0  0  0  0  0
  -26.5450  -34.8840   22.3580 O   0  0  0  0  0  0  0  0  0  0  0  0
  -24.9880  -34.0620   24.9700 H   0  0  0  0  0  0  0  0  0  0  0  0
  -24.1730  -36.7850   23.0950 C   0  0  0  0  0  1  0  0  0  0  0  0
  -25.4180  -36.3560   23.8890 C   0  0  0  0  0  3  0  0  0  0  0  0
  -27.5660  -37.2110   24.7140 C   0  0  0  0  0  1  0  0  0  0  0  0
  -26.4590  -37.4020   23.7820 N   0  0  0  0  0  0  0  0  0  0  0  0
  -26.0600  -38.3210   23.9520 H   0  0  0  0  0  0  0  0  0  0  0  0
  1  3  1  0
  2  4  1  0
  3  7  1  0
  4  3  2  0
  4 10  1  0
  5  6  1  0
  5  2  2  0
  6  1  2  0
  7  8  1  0
  8  9  1  0
 10 12  1  0
 10  9  1  0
 11  5  1  0
 12 14  1  0
 12 15  1  0
 13 12  1  0
 16 25  1  0
 16 15  1  0
 17 25  1  0
 18 23  1  0
 19 20  1  0
 19 18  1  0
 21 20  1  0
 21 30  1  0
 21 22  1  0
 23 17  1  0
 23 22  1  0
 24 17  2  0
 25 26  1  0
 27 28  2  0
 28 47  1  0
 29 28  1  0
 29 32  1  0
 30 27  1  0
 30 31  1  0
 31 29  2  0
 32 33  1  0
 33 34  2  0
 35 38  1  0
 35 34  1  0
 36 35  2  0
 37 36  1  0
 37 32  2  0
 38 39  1  0
 39 40  1  0
 40 41  2  0
 42 41  1  0
 42 46  1  0
 43 42  2  0
 44 39  2  0
 44 43  1  0
 45 44  1  0
 47 48  1  0
 48 51  1  0
 48 50  1  0
 49 47  2  0
 52 53  1  0
 52 27  1  0
 54 52  1  0
 55 56  1  0
 55  6  1  0
 56 58  1  0
 57 68  2  0
 58 63  1  0
 59 67  1  0
 59 69  1  0
 60 66  1  0
 60 62  1  0
 61 67  1  0
 62 61  1  0
 63 62  2  0
 64 65  1  0
 64 58  2  0
 65 60  2  0
 66 59  1  0
 67 57  1  0
 69 71  2  0
 70 69  1  0
 72 70  1  0
 73 82  2  0
 73 78  1  0
 74 70  1  0
 74 78  1  0
 75 74  1  0
 76 77  1  0
 76 75  1  0
 77 73  1  0
 78 79  2  0
 79 80  1  0
 81 80  2  0
 82 81  1  0
 83 57  1  0
 83 88  1  0
 83 84  1  0
 84 87  1  1
 84 85  1  0
 86 84  1  0
 88 91  1  0
 89 93  1  0
 89 88  1  0
 90 89  2  0
 93 92  1  0
 95 93  1  0
 95 96  1  0
 95 94  1  0
M  ISO  4  17 100  25 100  55 101  56 101
M  END
>  <TORSDO>  (82) 
F 20

>  <SCORE>  (82) 
-12.800

>  <name>  (82) 
83

>  <ligand_id>  (82) 
83

>  <original_smiles>  (82) 
[H]c1c([H])c([H])c2c(c1[H])C([H])([H])C([H])([H])C([H])([H])C2([H])N([H])C(=O)C1([H])N(C(=O)C([H])(N([H])C(=O)C([H])(N([H])C([H])([H])[H])C([H])([H])[H])C(C([H])([H])[H])(C([H])([H])[H])C([H])([H])[H])C([H])([H])c2c([H])c(OC([H])([H])c3c([H])c4c(c([H])c3C([H])([H])[H])C([H])([N+]([H])([H])C([H])([H])C([H])([H])N([H])C(=O)N3C([H])([H])C([H])([H])C([H])([H])C([H])(n5nc(-c6c([H])c([H])c(Oc7c([H])c([H])c(F)c([H])c7F)c([H])c6[H])c(C(=O)N([H])[H])c5N([H])[H])C3([H])[H])C([H])([H])C([H])([H])C4([H])[H])c([H])c([H])c2C1([H])[H]

>  <smiles>  (82) 
[H]c1c([H])c([H])c2c(c1[H])C([H])([H])C([H])([H])C([H])([H])C2([H])N([H])C(=O)C1([H])N(C(=O)C([H])(N([H])C(=O)C([H])(N([H])C([H])([H])[H])C([H])([H])[H])C(C([H])([H])[H])(C([H])([H])[H])C([H])([H])[H])C([H])([H])c2c([H])c(OC([H])([H])c3c([H])c4c(c([H])c3C([H])([H])[H])C([H])([N+]([H])([H])C([H])([H])C([H])([H])N([H])C(=O)N3C([H])([H])C([H])([H])C([H])([H])C([H])(n5nc(-c6c([H])c([H])c(Oc7c([H])c([H])c(F)c([H])c7F)c([H])c6[H])c(C(=O)N([H])[H])c5N([H])[H])C3([H])[H])C([H])([H])C([H])([H])C4([H])[H])c([H])c([H])c2C1([H])[H]

$$$$
84:0:0
     RDKit          3D

 95 92  0  0  1  0  0  0  0  0999 V2000
  -17.2770  -28.4420   24.1640 C   0  0  0  0  0  3  0  0  0  0  0  0
  -18.1460  -30.0410   24.3180 C   0  0  0  0  0  3  0  0  0  0  0  0
  -17.8920  -26.9160   23.3860 C   0  0  0  0  0  3  0  0  0  0  0  0
  -19.8150  -30.4550   23.7290 C   0  0  0  0  0  3  0  0  0  0  0  0
  -19.5270  -26.7700   22.6230 C   0  0  0  0  0  1  0  0  0  0  0  0
  -20.9040  -29.2810   22.8740 C   0  0  0  0  0  1  0  0  0  0  0  0
  -20.6650  -25.0980   21.7550 C   0  0  0  0  0 15  0  0  0  0  0  0
  -21.3260  -23.7450   19.2540 C   0  0  0  0  0  1  0  0  0  0  0  0
  -22.2650  -24.2610   20.3540 C   0  0  0  0  0  1  0  0  0  0  0  0
  -23.8320  -23.0790   20.0700 N   0  0  0  0  0  2  0  0  0  0  0  0
  -24.2270  -23.0700   20.9970 H   0  0  0  0  0  0  0  0  0  0  0  0
  -23.3790  -22.1830   20.0010 H   0  0  0  0  0  0  0  0  0  0  0  0
  -25.4740  -22.7280   19.0130 C   0  0  0  0  0 15  0  0  0  0  0  0
  -26.8660  -21.2740   18.0180 C   0  0  0  0  0 15  0  0  0  0  0  0
  -28.8800  -20.6830   17.2260 C   0  0  0  0  0 15  0  0  0  0  0  0
  -31.4670  -18.9750   15.2660 C   0  0  0  0  0  0  0  0  0  0  0  0
  -33.5550  -18.6190   13.3540 C   0  0  0  0  0  2  0  0  0  0  0  0
  -34.3370  -19.8880   12.8250 C   0  0  0  0  0  2  0  0  0  0  0  0
  -33.4310  -20.7870   11.9710 C   0  0  0  0  0  2  0  0  0  0  0  0
  -32.0210  -20.7300   12.5750 C   0  0  0  0  0  3  0  0  0  0  0  0
  -31.4600  -19.3200   12.7070 C   0  0  0  0  0  2  0  0  0  0  0  0
  -32.0970  -18.9120   13.9080 N   0  0  0  0  0  0  0  0  0  0  0  0
  -32.3510  -18.2530   15.8540 O   0  0  0  0  0  0  0  0  0  0  0  0
  -30.0820  -19.8200   15.8530 N   0  0  0  0  0  2  0  0  0  0  0  0
  -29.7130  -20.1910   14.9830 H   0  0  0  0  0  0  0  0  0  0  0  0
  -30.4070  -22.6070   12.4430 C   0  0  0  0  0  0  0  0  0  0  0  0
  -29.5010  -22.9540   11.4950 C   0  0  0  0  0  0  0  0  0  0  0  0
  -29.5990  -21.9620   10.4690 C   0  0  0  0  0  0  0  0  0  0  0  0
  -31.0220  -21.4870   11.9330 N   0  0  0  0  0  0  0  0  0  0  0  0
  -30.4810  -21.0330   10.7890 N   0  0  0  0  0  0  0  0  0  0  0  0
  -28.9720  -21.8830    9.1590 C   0  0  0  0  0  0  0  0  0  0  0  0
  -28.0360  -20.8750    8.8450 C   0  0  0  0  0  3  0  0  0  0  0  0
  -27.4390  -20.8390    7.5690 C   0  0  0  0  0  3  0  0  0  0  0  0
  -27.7780  -21.8170    6.6040 C   0  0  0  0  0  0  0  0  0  0  0  0
  -28.7330  -22.7980    6.9170 C   0  0  0  0  0  3  0  0  0  0  0  0
  -29.3310  -22.8310    8.1840 C   0  0  0  0  0  3  0  0  0  0  0  0
  -27.2650  -21.8510    5.3330 O   0  0  0  0  0  0  0  0  0  0  0  0
  -25.9550  -21.5360    5.0820 C   0  0  0  0  0  0  0  0  0  0  0  0
  -24.8890  -22.2840    5.6270 C   0  0  0  0  0  3  0  0  0  0  0  0
  -23.5600  -21.9670    5.2840 C   0  0  0  0  0  3  0  0  0  0  0  0
  -23.2950  -20.9110    4.3910 C   0  0  0  0  0  0  0  0  0  0  0  0
  -24.3560  -20.1680    3.8450 C   0  0  0  0  0  3  0  0  0  0  0  0
  -25.6830  -20.4820    4.1870 C   0  0  0  0  0  0  0  0  0  0  0  0
  -26.7040  -19.7780    3.6420 F   0  0  0  0  0  0  0  0  0  0  0  0
  -22.0200  -20.6110    4.0540 F   0  0  0  0  0  0  0  0  0  0  0  0
  -28.6760  -24.2000   11.4950 C   0  0  0  0  0  0  0  0  0  0  0  0
  -27.4540  -24.1220   10.9850 N   0  0  0  0  0  0  0  0  0  0  0  0
  -29.1030  -25.2400   11.9960 O   0  0  0  0  0  0  0  0  0  0  0  0
  -27.1050  -23.2580   10.5980 H   0  0  0  0  0  0  0  0  0  0  0  0
  -26.8590  -24.9380   10.9830 H   0  0  0  0  0  0  0  0  0  0  0  0
  -30.7790  -23.1560   13.6700 N   0  0  0  0  0  0  0  0  0  0  0  0
  -30.4300  -24.0800   13.9040 H   0  0  0  0  0  0  0  0  0  0  0  0
  -31.6920  -22.9830   14.0680 H   0  0  0  0  0  0  0  0  0  0  0  0
  -23.0290  -29.5620   22.2200 C   0  0  0  0  0 15  0  0  0  0  0  0
  -25.1270  -28.8950   22.2890 O   0  0  0  0  0  1  0  0  0  0  0  0
  -24.4760  -27.9800   27.2540 C   0  0  0  0  0  0  0  0  0  0  0  0
  -26.6800  -28.7140   22.7820 C   0  0  0  0  0  3  0  0  0  0  0  0
  -24.1900  -28.9340   25.0530 C   0  0  0  0  0  3  0  0  0  0  0  0
  -26.1150  -30.6100   24.1360 C   0  0  0  0  0  3  0  0  0  0  0  0
  -26.3070  -29.4030   26.3130 C   0  0  0  0  0  2  0  0  0  0  0  0
  -26.8120  -29.7050   24.9230 C   0  0  0  0  0  3  0  0  0  0  0  0
  -27.3200  -28.6980   24.1120 C   0  0  0  0  0  2  0  0  0  0  0  0
  -27.3830  -29.7880   22.2200 C   0  0  0  0  0  2  0  0  0  0  0  0
  -26.6440  -30.8340   22.8040 C   0  0  0  0  0  2  0  0  0  0  0  0
  -24.6240  -30.3630   24.3720 C   0  0  0  0  0  2  0  0  0  0  0  0
  -24.9560  -28.8000   26.2910 N   0  0  0  0  0  0  0  0  0  0  0  0
  -23.3420  -27.4780   27.1790 O   0  0  0  0  0  0  0  0  0  0  0  0
  -24.3980  -27.4940   24.3890 C   0  0  0  0  0  0  0  0  0  0  0  0
  -24.2180  -27.2720   23.1560 N   0  0  0  0  0  0  0  0  0  0  0  0
  -24.7310  -26.4760   24.9490 O   0  0  0  0  0  0  0  0  0  0  0  0
  -23.6400  -27.9410   22.6700 H   0  0  0  0  0  0  0  0  0  0  0  0
  -25.2750  -27.8800   19.7030 C   0  0  0  0  0  0  0  0  0  0  0  0
  -25.0370  -26.4750   22.2070 C   0  0  0  0  0  3  0  0  0  0  0  0
  -26.4940  -26.7080   21.7330 C   0  0  0  0  0  2  0  0  0  0  0  0
  -27.1010  -27.7210   20.6200 C   0  0  0  0  0  2  0  0  0  0  0  0
  -26.5520  -27.8430   19.2550 C   0  0  0  0  0  2  0  0  0  0  0  0
  -24.4870  -26.8830   21.0900 C   0  0  0  0  0  0  0  0  0  0  0  0
  -22.7820  -26.7640   21.3100 C   0  0  0  0  0  3  0  0  0  0  0  0
  -21.8890  -27.5750   20.3390 C   0  0  0  0  0  1  0  0  0  0  0  0
  -22.8920  -28.7630   18.7070 C   0  0  0  0  0  1  0  0  0  0  0  0
  -24.4250  -28.7560   18.5800 C   0  0  0  0  0  3  0  0  0  0  0  0
  -25.3450  -27.6610   28.4840 C   0  0  0  0  0  3  0  0  0  0  0  0
  -24.4020  -27.3140   29.5430 N   0  0  0  0  0  0  0  0  0  0  0  0
  -24.1600  -28.0910   30.6040 C   0  0  0  0  0  0  0  0  0  0  0  0
  -24.7890  -29.1290   30.8320 O   0  0  0  0  0  0  0  0  0  0  0  0
  -23.8160  -26.5060   29.3910 H   0  0  0  0  0  0  0  0  0  0  0  0
  -21.8030  -28.5030   31.3740 C   0  0  0  0  0  1  0  0  0  0  0  0
  -23.0550  -27.6330   31.5680 C   0  0  0  0  0  3  0  0  0  0  0  0
  -24.5240  -26.6900   33.2920 C   0  0  0  0  0  1  0  0  0  0  0  0
  -23.4740  -27.6600   32.9850 N   0  0  0  0  0  0  0  0  0  0  0  0
  -22.6840  -27.4750   33.5970 H   0  0  0  0  0  0  0  0  0  0  0  0
  -26.3830  -26.5050   28.2360 C   0  0  1  0  0  0  0  0  0  0  0  0
  -25.7450  -25.1710   27.7820 C   0  0  0  0  0  1  0  0  0  0  0  0
  -27.4420  -26.9070   27.1830 C   0  0  0  0  0  1  0  0  0  0  0  0
  -27.1670  -26.2520   29.5410 C   0  0  0  0  0  1  0  0  0  0  0  0
  1  2  1  0
  3  1  2  0
  4  2  2  0
  5  3  1  0
  6  4  1  0
  8  9  1  0
 10 11  1  0
 12 10  1  0
 16 24  1  0
 16 23  2  0
 17 22  1  0
 18 17  1  0
 19 20  1  0
 19 18  1  0
 20 29  1  0
 20 21  1  0
 21 22  1  0
 22 16  1  0
 25 24  1  0
 26 51  1  0
 27 46  1  0
 27 26  2  0
 28 30  2  0
 28 27  1  0
 29 26  1  0
 30 29  1  0
 31 28  1  0
 32 31  1  0
 33 32  2  0
 34 35  2  0
 34 33  1  0
 35 36  1  0
 36 31  2  0
 37 34  1  0
 38 37  1  0
 38 39  1  0
 40 39  2  0
 41 40  1  0
 42 43  1  0
 42 41  2  0
 43 38  2  0
 44 43  1  0
 45 41  1  0
 46 48  2  0
 47 46  1  0
 49 47  1  0
 50 47  1  0
 51 52  1  0
 51 53  1  0
 57 55  1  0
 57 62  1  0
 58 68  1  0
 58 66  1  0
 59 64  1  0
 59 65  1  0
 59 61  1  0
 61 62  1  0
 61 60  1  0
 63 57  1  0
 63 64  1  0
 65 58  1  0
 66 60  1  0
 66 56  1  0
 67 56  2  0
 68 70  2  0
 69 68  1  0
 71 69  1  0
 72 77  1  0
 73 69  1  0
 74 73  1  0
 75 74  1  0
 76 72  1  0
 76 75  1  0
 77 78  2  0
 77 73  1  0
 79 78  1  0
 81 80  1  0
 81 72  2  0
 82 56  1  0
 82 83  1  0
 83 84  1  0
 84 85  2  0
 84 88  1  0
 86 83  1  0
 88 87  1  0
 88 90  1  0
 90 89  1  0
 90 91  1  0
 92 82  1  0
 92 95  1  1
 93 92  1  0
 94 92  1  0
M  ISO  4  16 100  24 100  54 101  55 101
M  END
>  <TORSDO>  (83) 
F 23

>  <SCORE>  (83) 
-5.839

>  <name>  (83) 
84

>  <ligand_id>  (83) 
84

>  <original_smiles>  (83) 
[H]c1c([H])c([H])c(C([H])([H])C([H])(C([H])([H])[H])[N+]([H])([H])C([H])([H])C([H])([H])C([H])([H])N([H])C(=O)N2C([H])([H])C([H])([H])C([H])([H])C([H])(n3nc(-c4c([H])c([H])c(Oc5c([H])c([H])c(F)c([H])c5F)c([H])c4[H])c(C(=O)N([H])[H])c3N([H])[H])C2([H])[H])c(C([H])([H])Oc2c([H])c([H])c3c(c2[H])C([H])([H])N(C(=O)C([H])(N([H])C(=O)C([H])(N([H])C([H])([H])[H])C([H])([H])[H])C(C([H])([H])[H])(C([H])([H])[H])C([H])([H])[H])C([H])(C(=O)N([H])C2([H])c4c([H])c([H])c([H])c([H])c4C([H])([H])C([H])([H])C2([H])[H])C3([H])[H])c1[H]

>  <smiles>  (83) 
[H]c1c([H])c([H])c(C([H])([H])C([H])(C([H])([H])[H])[N+]([H])([H])C([H])([H])C([H])([H])C([H])([H])N([H])C(=O)N2C([H])([H])C([H])([H])C([H])([H])C([H])(n3nc(-c4c([H])c([H])c(Oc5c([H])c([H])c(F)c([H])c5F)c([H])c4[H])c(C(=O)N([H])[H])c3N([H])[H])C2([H])[H])c(C([H])([H])Oc2c([H])c([H])c3c(c2[H])C([H])([H])N(C(=O)C([H])(N([H])C(=O)C([H])(N([H])C([H])([H])[H])C([H])([H])[H])C(C([H])([H])[H])(C([H])([H])[H])C([H])([H])[H])C([H])(C(=O)N([H])C2([H])c4c([H])c([H])c([H])c([H])c4C([H])([H])C([H])([H])C2([H])[H])C3([H])[H])c1[H]

$$$$
85:0:0
     RDKit          3D

 96 94  0  0  1  0  0  0  0  0999 V2000
  -27.1740  -21.5590   20.4370 C   0  0  0  0  0  0  0  0  0  0  0  0
  -27.2840  -20.3010   19.9370 N   0  0  0  0  0  0  0  0  0  0  0  0
  -26.8320  -21.7310   21.6100 O   0  0  0  0  0  0  0  0  0  0  0  0
  -27.5480  -20.1710   18.9710 H   0  0  0  0  0  0  0  0  0  0  0  0
  -27.3300  -24.0690   20.2140 C   0  0  0  0  0  3  0  0  0  0  0  0
  -27.7210  -22.7890   18.1980 C   0  0  0  0  0  3  0  0  0  0  0  0
  -27.5980  -25.2670   19.5180 C   0  0  0  0  0  3  0  0  0  0  0  0
  -27.9800  -24.0010   17.4910 C   0  0  0  0  0  3  0  0  0  0  0  0
  -27.3800  -22.8050   19.5780 C   0  0  0  0  0  0  0  0  0  0  0  0
  -27.9100  -25.2640   18.1400 C   0  0  0  0  0  0  0  0  0  0  0  0
  -27.9920  -26.4760   17.4440 O   0  0  0  0  0  0  0  0  0  0  0  0
  -25.7670  -29.8590   23.3330 C   0  0  0  0  0  0  0  0  0  0  0  0
  -27.1960  -27.4680   17.9850 C   0  0  0  0  0  0  0  0  0  0  0  0
  -24.2460  -29.8580   21.3900 C   0  0  0  0  0  3  0  0  0  0  0  0
  -25.2780  -29.1690   19.1650 C   0  0  0  0  0  0  0  0  0  0  0  0
  -26.7860  -29.7700   21.0600 C   0  0  0  0  0  2  0  0  0  0  0  0
  -26.5350  -29.0140   19.7690 C   0  0  0  0  0  0  0  0  0  0  0  0
  -27.5050  -28.1570   19.1870 C   0  0  0  0  0  3  0  0  0  0  0  0
  -25.9510  -27.7040   17.3650 C   0  0  0  0  0  3  0  0  0  0  0  0
  -24.9840  -28.5190   17.9600 C   0  0  0  0  0  3  0  0  0  0  0  0
  -24.2720  -30.0560   19.8540 C   0  0  0  0  0  2  0  0  0  0  0  0
  -25.6230  -29.8040   21.9800 N   0  0  0  0  0  0  0  0  0  0  0  0
  -24.7860  -29.9850   24.0790 O   0  0  0  0  0  0  0  0  0  0  0  0
  -23.3910  -28.6120   21.7210 C   0  0  0  0  0  0  0  0  0  0  0  0
  -22.0580  -28.7600   21.6390 N   0  0  0  0  0  0  0  0  0  0  0  0
  -23.9240  -27.5410   22.0220 O   0  0  0  0  0  0  0  0  0  0  0  0
  -21.6940  -29.6700   21.3960 H   0  0  0  0  0  0  0  0  0  0  0  0
  -18.5070  -28.0910   21.7310 C   0  0  0  0  0  0  0  0  0  0  0  0
  -21.0600  -27.7160   21.8780 C   0  0  0  0  0  3  0  0  0  0  0  0
  -20.8950  -26.8080   20.6380 C   0  0  0  0  0  2  0  0  0  0  0  0
  -19.7730  -27.2630   19.7020 C   0  0  0  0  0  2  0  0  0  0  0  0
  -18.4330  -27.2890   20.4430 C   0  0  0  0  0  2  0  0  0  0  0  0
  -19.7440  -28.3040   22.3980 C   0  0  0  0  0  0  0  0  0  0  0  0
  -19.7620  -29.0870   23.5710 C   0  0  0  0  0  3  0  0  0  0  0  0
  -18.5760  -29.6480   24.0810 C   0  0  0  0  0  3  0  0  0  0  0  0
  -17.3530  -29.4220   23.4250 C   0  0  0  0  0  3  0  0  0  0  0  0
  -17.3200  -28.6410   22.2560 C   0  0  0  0  0  3  0  0  0  0  0  0
  -27.1740  -29.7900   24.0050 C   0  0  0  0  0  3  0  0  0  0  0  0
  -27.5090  -28.3690   24.6020 C   0  0  1  0  0  0  0  0  0  0  0  0
  -26.3950  -27.8010   25.5090 C   0  0  0  0  0  1  0  0  0  0  0  0
  -27.7630  -27.3450   23.4710 C   0  0  0  0  0  1  0  0  0  0  0  0
  -28.8120  -28.4450   25.4310 C   0  0  0  0  0  1  0  0  0  0  0  0
  -27.2120  -30.8190   25.0520 N   0  0  0  0  0  0  0  0  0  0  0  0
  -27.7890  -32.0210   24.9160 C   0  0  0  0  0  0  0  0  0  0  0  0
  -28.4150  -32.3530   23.9050 O   0  0  0  0  0  0  0  0  0  0  0  0
  -26.6740  -30.6380   25.8860 H   0  0  0  0  0  0  0  0  0  0  0  0
  -26.5540  -34.0400   25.7640 C   0  0  0  0  0  1  0  0  0  0  0  0
  -27.6490  -33.0110   26.0870 C   0  0  0  0  0  3  0  0  0  0  0  0
  -29.9200  -32.8370   27.0050 C   0  0  0  0  0  1  0  0  0  0  0  0
  -28.9080  -33.7120   26.4180 N   0  0  0  0  0  0  0  0  0  0  0  0
  -28.7360  -34.4760   27.0660 H   0  0  0  0  0  0  0  0  0  0  0  0
  -26.9410  -19.1160   20.7780 C   0  0  0  0  0  2  0  0  0  0  0  0
  -27.6120  -17.7270   20.4780 C   0  0  0  0  0  2  0  0  0  0  0  0
  -26.8580  -16.5700   21.2660 C   0  0  0  0  0  2  0  0  0  0  0  0
  -31.7790  -11.8730   20.1340 C   0  0  0  0  0  0  0  0  0  0  0  0
  -32.2440  -10.5440   19.4430 C   0  0  0  0  0  1  0  0  0  0  0  0
  -31.7050  -11.3600   17.8400 C   0  0  0  0  0  1  0  0  0  0  0  0
  -31.0870  -13.0050   17.9840 C   0  0  0  0  0  2  0  0  0  0  0  0
  -30.6210  -13.7520   19.5970 C   0  0  0  0  0  2  0  0  0  0  0  0
  -31.4660  -13.0140   21.1060 C   0  0  0  0  0  1  0  0  0  0  0  0
  -32.1130  -11.4080   20.9520 N   0  0  0  0  0  1  0  0  0  0  0  0
  -32.9830  -12.6000   19.6300 O   0  0  0  0  0  1  0  0  0  0  0  0
  -27.8640  -13.7220   22.4540 C   0  0  0  0  0 15  0  0  0  0  0  0
  -26.9800  -13.9830   18.3920 C   0  0  0  0  0 15  0  0  0  0  0  0
  -29.3030  -11.8950   21.9670 C   0  0  0  0  0 15  0  0  0  0  0  0
  -28.7160  -12.1540   18.2880 C   0  0  0  0  0 15  0  0  0  0  0  0
  -26.6000  -15.0160   20.8650 C   0  0  0  0  0  1  0  0  0  0  0  0
  -30.0520  -11.4390   20.0040 N   0  0  0  0  0 15  0  0  0  0  0  0
  -28.2560  -13.6140   20.0970 C   0  0  0  0  0  0  0  0  0  0  0  0
  -26.9850  -12.4900   20.4860 C   0  0  0  0  0  2  0  0  0  0  0  0
  -27.5220  -11.2060   20.7270 C   0  0  0  0  0  1  0  0  0  0  0  0
  -29.2000  -13.4930   20.2550 N   0  0  0  0  0  2  0  0  0  0  0  0
  -27.9160  -12.4950   20.4690 N   0  0  0  0  0  0  0  0  0  0  0  0
  -26.4480  -10.1030   20.8980 C   0  0  0  0  0  3  0  0  0  0  0  0
  -26.2930   -9.5570   22.1950 C   0  0  0  0  0  3  0  0  0  0  0  0
  -25.3980   -8.4970   22.4840 C   0  0  0  0  0  3  0  0  0  0  0  0
  -24.5750   -7.9440   21.4760 C   0  0  0  0  0  0  0  0  0  0  0  0
  -24.7020   -8.4630   20.1730 C   0  0  0  0  0  3  0  0  0  0  0  0
  -25.6520   -9.4760   19.8830 C   0  0  0  0  0  3  0  0  0  0  0  0
  -23.7130   -6.8810   21.6740 O   0  0  0  0  0  0  0  0  0  0  0  0
  -22.8590   -6.8160   22.7520 C   0  0  0  0  0  0  0  0  0  0  0  0
  -22.0840   -7.9300   23.1430 C   0  0  0  0  0  3  0  0  0  0  0  0
  -21.1690   -7.8200   24.2100 C   0  0  0  0  0  3  0  0  0  0  0  0
  -21.0180   -6.5950   24.8870 C   0  0  0  0  0  0  0  0  0  0  0  0
  -21.7770   -5.4790   24.4970 C   0  0  0  0  0  3  0  0  0  0  0  0
  -22.6910   -5.5860   23.4300 C   0  0  0  0  0  0  0  0  0  0  0  0
  -23.3990   -4.4960   23.0510 F   0  0  0  0  0  0  0  0  0  0  0  0
  -20.1340   -6.4910   25.9080 F   0  0  0  0  0  0  0  0  0  0  0  0
  -25.3090  -12.6070   20.4310 C   0  0  0  0  0  0  0  0  0  0  0  0
  -24.6020  -12.4060   21.5370 N   0  0  0  0  0  0  0  0  0  0  0  0
  -24.6620  -13.1920   19.5360 O   0  0  0  0  0  0  0  0  0  0  0  0
  -25.0510  -12.0400   22.3630 H   0  0  0  0  0  0  0  0  0  0  0  0
  -23.6180  -12.6100   21.5520 H   0  0  0  0  0  0  0  0  0  0  0  0
  -28.5930  -14.9420   19.4760 N   0  0  0  0  0  4  0  0  0  0  0  0
  -27.8270  -15.5440   19.2130 H   0  0  0  0  0  0  0  0  0  0  0  0
  -29.5020  -15.3740   19.4280 H   0  0  0  0  0  0  0  0  0  0  0  0
  1  3  2  0
  2  1  1  0
  2 52  1  0
  4  2  1  0
  6  9  2  0
  7  5  2  0
  8 10  2  0
  8  6  1  0
  9  5  1  0
  9  1  1  0
 10  7  1  0
 11 13  1  0
 11 10  1  0
 12 23  2  0
 13 18  1  0
 14 24  1  0
 14 22  1  0
 15 17  1  0
 15 21  1  0
 16 22  1  0
 17 16  1  0
 18 17  2  0
 19 20  1  0
 19 13  2  0
 20 15  2  0
 21 14  1  0
 22 12  1  0
 24 26  2  0
 25 24  1  0
 27 25  1  0
 28 37  2  0
 28 33  1  0
 29 25  1  0
 29 33  1  0
 30 29  1  0
 31 32  1  0
 31 30  1  0
 32 28  1  0
 33 34  2  0
 34 35  1  0
 36 35  2  0
 37 36  1  0
 38 12  1  0
 38 39  1  0
 38 43  1  0
 39 42  1  1
 39 40  1  0
 41 39  1  0
 43 46  1  0
 44 43  1  0
 44 48  1  0
 45 44  2  0
 48 47  1  0
 48 50  1  0
 50 49  1  0
 50 51  1  0
 53 52  1  0
 53 54  1  0
 55 61  1  0
 55 60  1  0
 56 55  1  0
 57 58  1  0
 58 59  1  0
 59 72  1  0
 62 55  1  0
 67 54  1  0
 69 72  1  0
 69 73  1  0
 73 70  1  0
 73 71  1  0
 74 75  1  0
 75 76  2  0
 77 80  1  0
 77 76  1  0
 78 77  2  0
 79 78  1  0
 79 74  2  0
 80 81  1  0
 81 82  2  0
 81 86  1  0
 82 83  1  0
 83 84  2  0
 84 88  1  0
 85 84  1  0
 86 85  2  0
 87 86  1  0
 89 70  1  0
 89 90  1  0
 90 93  1  0
 90 92  1  0
 91 89  2  0
 94 69  2  0
 95 94  1  0
 96 94  1  0
M  ISO  4  10 101  11 101  55 100  68 100
M  END
>  <TORSDO>  (84) 
F 20

>  <SCORE>  (84) 
-0.919

>  <name>  (84) 
85

>  <ligand_id>  (84) 
85

>  <original_smiles>  (84) 
[H]c1c([H])c([H])c2c(c1[H])C([H])([H])C([H])([H])C([H])([H])C2([H])N([H])C(=O)C1([H])N(C(=O)C([H])(N([H])C(=O)C([H])(N([H])C([H])([H])[H])C([H])([H])[H])C(C([H])([H])[H])(C([H])([H])[H])C([H])([H])[H])C([H])([H])c2c([H])c(Oc3c([H])c([H])c(C(=O)N([H])C([H])([H])C([H])([H])C([H])([H])C4([H])C([H])([H])C([H])([H])N(C(=O)N5C([H])([H])C([H])([H])C([H])([H])C([H])(n6nc(-c7c([H])c([H])c(Oc8c([H])c([H])c(F)c([H])c8F)c([H])c7[H])c(C(=O)N([H])[H])c6N([H])[H])C5([H])[H])C([H])([H])C4([H])[H])c([H])c3[H])c([H])c([H])c2C1([H])[H]

>  <smiles>  (84) 
[H]c1c([H])c([H])c2c(c1[H])C([H])([H])C([H])([H])C([H])([H])C2([H])N([H])C(=O)C1([H])N(C(=O)C([H])(N([H])C(=O)C([H])(N([H])C([H])([H])[H])C([H])([H])[H])C(C([H])([H])[H])(C([H])([H])[H])C([H])([H])[H])C([H])([H])c2c([H])c(Oc3c([H])c([H])c(C(=O)N([H])C([H])([H])C([H])([H])C([H])([H])C4([H])C([H])([H])C([H])([H])N(C(=O)N5C([H])([H])C([H])([H])C([H])([H])C([H])(n6nc(-c7c([H])c([H])c(Oc8c([H])c([H])c(F)c([H])c8F)c([H])c7[H])c(C(=O)N([H])[H])c6N([H])[H])C5([H])[H])C([H])([H])C4([H])[H])c([H])c3[H])c([H])c([H])c2C1([H])[H]

$$$$
86:0:0
     RDKit          3D

 99109  0  0  1  0  0  0  0  0999 V2000
  -32.3880  -18.9600   21.6790 C   0  0  0  0  0  3  0  0  0  0  0  0
  -32.4470  -17.5780   21.4180 C   0  0  0  0  0  3  0  0  0  0  0  0
  -30.9040  -17.1710   23.2530 C   0  0  0  0  0  3  0  0  0  0  0  0
  -31.5910  -19.4930   22.7190 C   0  0  0  0  0  0  0  0  0  0  0  0
  -31.3410  -20.8630   23.1260 C   0  0  0  0  0  0  0  0  0  0  0  0
  -31.7000  -16.6820   22.2020 C   0  0  0  0  0  0  0  0  0  0  0  0
  -30.8520  -18.5530   23.5070 C   0  0  0  0  0  0  0  0  0  0  0  0
  -30.4710  -20.9210   24.1850 C   0  0  0  0  0  0  0  0  0  0  0  0
  -31.8600  -22.0970   22.4570 C   0  0  0  0  0  2  0  0  0  0  0  0
  -29.9150  -22.1820   24.7470 C   0  0  0  0  0  2  0  0  0  0  0  0
  -30.7320  -22.8440   21.7260 C   0  0  0  0  0  2  0  0  0  0  0  0
  -29.0180  -22.8940   23.7230 C   0  0  0  0  0  2  0  0  0  0  0  0
  -29.7660  -23.6790   22.6140 C   0  0  0  0  0  3  0  0  0  0  0  0
  -29.9120  -19.3720   24.7410 S   0  0  0  0  0  0  0  0  0  0  0  0
  -28.7560  -24.3130   21.7390 N   0  0  0  0  0  4  0  0  0  0  0  0
  -27.9250  -24.4890   22.2840 H   0  0  0  0  0  0  0  0  0  0  0  0
  -28.5040  -23.6460   21.0270 H   0  0  0  0  0  0  0  0  0  0  0  0
  -29.1580  -25.5890   21.1050 C   0  0  0  0  0  2  0  0  0  0  0  0
  -28.3340  -25.8550   19.8400 C   0  0  0  0  0  2  0  0  0  0  0  0
  -28.3260  -27.2600   19.5970 O   0  0  0  0  0  0  0  0  0  0  0  0
  -24.4140  -31.9230   23.2520 C   0  0  0  0  0  0  0  0  0  0  0  0
  -27.1080  -27.8830   19.7240 C   0  0  0  0  0  0  0  0  0  0  0  0
  -23.1910  -30.5740   21.5770 C   0  0  0  0  0  3  0  0  0  0  0  0
  -24.6400  -29.2230   19.9750 C   0  0  0  0  0  0  0  0  0  0  0  0
  -25.6780  -31.0890   21.2770 C   0  0  0  0  0  2  0  0  0  0  0  0
  -25.7980  -29.7740   20.5370 C   0  0  0  0  0  0  0  0  0  0  0  0
  -27.0350  -29.1110   20.4100 C   0  0  0  0  0  3  0  0  0  0  0  0
  -25.9350  -27.3400   19.1500 C   0  0  0  0  0  3  0  0  0  0  0  0
  -24.7020  -28.0010   19.2820 C   0  0  0  0  0  3  0  0  0  0  0  0
  -23.3580  -30.0030   20.1430 C   0  0  0  0  0  2  0  0  0  0  0  0
  -24.4480  -31.2050   22.0940 N   0  0  0  0  0  0  0  0  0  0  0  0
  -23.3520  -32.0980   23.8650 O   0  0  0  0  0  0  0  0  0  0  0  0
  -22.6480  -29.4540   22.4920 C   0  0  0  0  0  0  0  0  0  0  0  0
  -21.3340  -29.1950   22.4010 N   0  0  0  0  0  0  0  0  0  0  0  0
  -23.4020  -28.8230   23.2370 O   0  0  0  0  0  0  0  0  0  0  0  0
  -20.7830  -29.7590   21.7690 H   0  0  0  0  0  0  0  0  0  0  0  0
  -18.0760  -27.7120   22.8790 C   0  0  0  0  0  0  0  0  0  0  0  0
  -20.6070  -28.1620   23.1370 C   0  0  0  0  0  3  0  0  0  0  0  0
  -20.8170  -26.7700   22.4970 C   0  0  0  0  0  2  0  0  0  0  0  0
  -19.7310  -26.4040   21.4810 C   0  0  0  0  0  2  0  0  0  0  0  0
  -18.3510  -26.4110   22.1450 C   0  0  0  0  0  2  0  0  0  0  0  0
  -19.1350  -28.5420   23.3300 C   0  0  0  0  0  0  0  0  0  0  0  0
  -18.8250  -29.7580   23.9760 C   0  0  0  0  0  3  0  0  0  0  0  0
  -17.4880  -30.1470   24.1750 C   0  0  0  0  0  3  0  0  0  0  0  0
  -16.4430  -29.3140   23.7420 C   0  0  0  0  0  3  0  0  0  0  0  0
  -16.7370  -28.0980   23.0990 C   0  0  0  0  0  3  0  0  0  0  0  0
  -25.7010  -32.5750   23.8480 C   0  0  0  0  0  3  0  0  0  0  0  0
  -26.2010  -31.8710   25.1700 C   0  0  1  0  0  0  0  0  0  0  0  0
  -25.1010  -31.7130   26.2430 C   0  0  0  0  0  1  0  0  0  0  0  0
  -26.7630  -30.4650   24.8570 C   0  0  0  0  0  1  0  0  0  0  0  0
  -27.3590  -32.6860   25.7910 C   0  0  0  0  0  1  0  0  0  0  0  0
  -25.4050  -33.9910   24.0930 N   0  0  0  0  0  0  0  0  0  0  0  0
  -25.7630  -34.9940   23.2800 C   0  0  0  0  0  0  0  0  0  0  0  0
  -26.4500  -34.8250   22.2700 O   0  0  0  0  0  0  0  0  0  0  0  0
  -24.8000  -34.1990   24.8730 H   0  0  0  0  0  0  0  0  0  0  0  0
  -24.0550  -36.7740   22.7950 C   0  0  0  0  0  1  0  0  0  0  0  0
  -25.2810  -36.4110   23.6470 C   0  0  0  0  0  3  0  0  0  0  0  0
  -27.4100  -37.3270   24.4550 C   0  0  0  0  0  1  0  0  0  0  0  0
  -26.3240  -37.4470   23.4860 N   0  0  0  0  0  0  0  0  0  0  0  0
  -25.9250  -38.3780   23.5720 H   0  0  0  0  0  0  0  0  0  0  0  0
  -31.7500  -15.1940   21.9180 C   0  0  0  0  0  2  0  0  0  0  0  0
  -30.2970  -14.6650   19.9790 C   0  0  0  0  0  0  0  0  0  0  0  0
  -29.6740  -12.9280   18.3580 C   0  0  0  0  0  2  0  0  0  0  0  0
  -28.5230  -13.2790   17.4080 C   0  0  0  0  0  2  0  0  0  0  0  0
  -27.1710  -12.9430   18.0560 C   0  0  0  0  0  2  0  0  0  0  0  0
  -27.0320  -13.5480   19.4760 C   0  0  0  0  0  3  0  0  0  0  0  0
  -28.2690  -13.2300   20.3460 C   0  0  0  0  0  2  0  0  0  0  0  0
  -29.4860  -13.6430   19.6260 N   0  0  0  0  0  0  0  0  0  0  0  0
  -30.9940  -15.3010   19.1820 O   0  0  0  0  0  0  0  0  0  0  0  0
  -30.5290  -14.6950   21.2960 N   0  0  0  0  0  0  0  0  0  0  0  0
  -29.9490  -14.0910   21.8580 H   0  0  0  0  0  0  0  0  0  0  0  0
  -24.7580  -13.8670   20.6450 C   0  0  0  0  0  0  0  0  0  0  0  0
  -23.8050  -12.9710   21.0510 C   0  0  0  0  0  0  0  0  0  0  0  0
  -24.3190  -11.6770   20.7330 C   0  0  0  0  0  0  0  0  0  0  0  0
  -25.7920  -13.1090   20.1160 N   0  0  0  0  0  0  0  0  0  0  0  0
  -25.5390  -11.7790   20.2210 N   0  0  0  0  0  0  0  0  0  0  0  0
  -23.6970  -10.3500   20.8330 C   0  0  0  0  0  0  0  0  0  0  0  0
  -24.2610   -9.3270   21.6270 C   0  0  0  0  0  3  0  0  0  0  0  0
  -23.6350   -8.0660   21.7210 C   0  0  0  0  0  3  0  0  0  0  0  0
  -22.4310   -7.8170   21.0210 C   0  0  0  0  0  0  0  0  0  0  0  0
  -21.8860   -8.8300   20.2130 C   0  0  0  0  0  3  0  0  0  0  0  0
  -22.5120  -10.0840   20.1160 C   0  0  0  0  0  3  0  0  0  0  0  0
  -21.7660   -6.6150   21.0330 O   0  0  0  0  0  0  0  0  0  0  0  0
  -21.7840   -5.7930   22.1310 C   0  0  0  0  0  0  0  0  0  0  0  0
  -21.3160   -6.2230   23.3920 C   0  0  0  0  0  3  0  0  0  0  0  0
  -21.2880   -5.3240   24.4770 C   0  0  0  0  0  3  0  0  0  0  0  0
  -21.7180   -3.9950   24.3030 C   0  0  0  0  0  0  0  0  0  0  0  0
  -22.1800   -3.5640   23.0470 C   0  0  0  0  0  3  0  0  0  0  0  0
  -22.2100   -4.4600   21.9630 C   0  0  0  0  0  0  0  0  0  0  0  0
  -22.6360   -4.0330   20.7500 F   0  0  0  0  0  0  0  0  0  0  0  0
  -21.6850   -3.1290   25.3420 F   0  0  0  0  0  0  0  0  0  0  0  0
  -22.4520  -13.2970   21.6170 C   0  0  0  0  0  0  0  0  0  0  0  0
  -21.9320  -12.4440   22.4930 N   0  0  0  0  0  0  0  0  0  0  0  0
  -21.8690  -14.3380   21.3190 O   0  0  0  0  0  0  0  0  0  0  0  0
  -22.4200  -11.5990   22.7520 H   0  0  0  0  0  0  0  0  0  0  0  0
  -21.0330  -12.6390   22.9120 H   0  0  0  0  0  0  0  0  0  0  0  0
  -24.8240  -15.2570   20.6630 N   0  0  0  0  0  0  0  0  0  0  0  0
  -24.0620  -15.8350   20.9980 H   0  0  0  0  0  0  0  0  0  0  0  0
  -25.5990  -15.7960   20.2970 H   0  0  0  0  0  0  0  0  0  0  0  0
  1  4  1  0
  2  1  2  0
  2  6  1  0
  3  7  1  0
  4  5  1  0
  4  7  2  0
  5  8  2  0
  6  3  2  0
  7 14  1  0
  8 14  1  0
  8 10  1  0
  9  5  1  0
 11  9  1  0
 11 13  1  0
 12 10  1  0
 13 15  1  0
 13 12  1  0
 15 16  1  0
 17 15  1  0
 18 15  1  0
 19 18  1  0
 20 22  1  0
 20 19  1  0
 21 32  2  0
 22 27  1  0
 23 31  1  0
 23 33  1  0
 24 30  1  0
 24 26  1  0
 25 31  1  0
 26 25  1  0
 27 26  2  0
 28 29  1  0
 28 22  2  0
 29 24  2  0
 30 23  1  0
 31 21  1  0
 33 35  2  0
 34 33  1  0
 36 34  1  0
 37 46  2  0
 37 42  1  0
 38 34  1  0
 38 42  1  0
 39 38  1  0
 40 41  1  0
 40 39  1  0
 41 37  1  0
 42 43  2  0
 43 44  1  0
 45 44  2  0
 46 45  1  0
 47 21  1  0
 47 52  1  0
 47 48  1  0
 48 51  1  1
 48 49  1  0
 50 48  1  0
 52 55  1  0
 53 57  1  0
 53 52  1  0
 54 53  2  0
 57 56  1  0
 59 60  1  0
 59 57  1  0
 59 58  1  0
 61  6  1  0
 62 70  1  0
 63 68  1  0
 64 65  1  0
 64 63  1  0
 66 65  1  0
 66 75  1  0
 66 67  1  0
 68 62  1  0
 68 67  1  0
 69 62  2  0
 70 71  1  0
 70 61  1  0
 72 97  1  0
 72 73  2  0
 73 92  1  0
 74 77  1  0
 74 73  1  0
 75 76  1  0
 75 72  1  0
 76 74  2  0
 77 78  1  0
 78 79  2  0
 80 83  1  0
 80 79  1  0
 81 80  2  0
 82 81  1  0
 82 77  2  0
 83 84  1  0
 84 85  1  0
 85 86  2  0
 87 86  1  0
 87 91  1  0
 88 87  2  0
 89 84  2  0
 89 88  1  0
 90 89  1  0
 92 93  1  0
 93 95  1  0
 93 96  1  0
 94 92  2  0
 97 98  1  0
 99 97  1  0
M  ISO  4  19 101  20 101  62 100  70 100
M  END
>  <TORSDO>  (85) 
F 20

>  <SCORE>  (85) 
-5.812

>  <name>  (85) 
86

>  <ligand_id>  (85) 
86

>  <original_smiles>  (85) 
[H]c1c([H])c([H])c2c(c1[H])C([H])([H])C([H])([H])C([H])([H])C2([H])N([H])C(=O)C1([H])N(C(=O)C([H])(N([H])C(=O)C([H])(N([H])C([H])([H])[H])C([H])([H])[H])C(C([H])([H])[H])(C([H])([H])[H])C([H])([H])[H])C([H])([H])c2c([H])c(OC([H])([H])C([H])([H])[N+]([H])([H])C3([H])C([H])([H])C([H])([H])c4sc5c([H])c(C([H])([H])N([H])C(=O)N6C([H])([H])C([H])([H])C([H])([H])C([H])(n7nc(-c8c([H])c([H])c(Oc9c([H])c([H])c(F)c([H])c9F)c([H])c8[H])c(C(=O)N([H])[H])c7N([H])[H])C6([H])[H])c([H])c([H])c5c4C([H])([H])C3([H])[H])c([H])c([H])c2C1([H])[H]

>  <smiles>  (85) 
[H]c1c([H])c([H])c2c(c1[H])C([H])([H])C([H])([H])C([H])([H])C2([H])N([H])C(=O)C1([H])N(C(=O)C([H])(N([H])C(=O)C([H])(N([H])C([H])([H])[H])C([H])([H])[H])C(C([H])([H])[H])(C([H])([H])[H])C([H])([H])[H])C([H])([H])c2c([H])c(OC([H])([H])C([H])([H])[N+]([H])([H])C3([H])C([H])([H])C([H])([H])c4sc5c([H])c(C([H])([H])N([H])C(=O)N6C([H])([H])C([H])([H])C([H])([H])C([H])(n7nc(-c8c([H])c([H])c(Oc9c([H])c([H])c(F)c([H])c9F)c([H])c8[H])c(C(=O)N([H])[H])c7N([H])[H])C6([H])[H])c([H])c([H])c5c4C([H])([H])C3([H])[H])c([H])c([H])c2C1([H])[H]

$$$$
87:0:0
     RDKit          3D

 96104  0  0  1  0  0  0  0  0999 V2000
  -28.2330  -20.2630   20.7180 C   0  0  0  0  0  0  0  0  0  0  0  0
  -30.6560  -20.0790   20.1110 C   0  0  0  0  0  2  0  0  0  0  0  0
  -31.0190  -18.4440   20.5180 C   0  0  0  0  0  2  0  0  0  0  0  0
  -28.8160  -17.4490   20.6930 C   0  0  0  0  0  2  0  0  0  0  0  0
  -29.5220  -21.1680   20.7380 C   0  0  0  0  0  3  0  0  0  0  0  0
  -28.1910  -18.7860   20.0160 C   0  0  0  0  0  3  0  0  0  0  0  0
  -30.2220  -17.0080   20.1280 C   0  0  0  0  0  3  0  0  0  0  0  0
  -27.2170  -20.7220   21.2500 O   0  0  0  0  0  0  0  0  0  0  0  0
  -30.8810  -15.3760   20.2120 C   0  0  0  0  0  0  0  0  0  0  0  0
  -30.7630  -12.9430   19.3320 C   0  0  0  0  0  2  0  0  0  0  0  0
  -29.8540  -12.8040   18.0860 C   0  0  0  0  0  2  0  0  0  0  0  0
  -28.3860  -12.5860   18.4940 C   0  0  0  0  0  2  0  0  0  0  0  0
  -27.9540  -13.5370   19.6380 C   0  0  0  0  0  3  0  0  0  0  0  0
  -28.9960  -13.6400   20.7690 C   0  0  0  0  0  2  0  0  0  0  0  0
  -30.2610  -14.0940   20.1680 N   0  0  0  0  0  0  0  0  0  0  0  0
  -32.1030  -15.2890   20.0420 O   0  0  0  0  0  0  0  0  0  0  0  0
  -25.6000  -14.1290   20.4100 C   0  0  0  0  0  0  0  0  0  0  0  0
  -24.5200  -13.3670   20.7590 C   0  0  0  0  0  0  0  0  0  0  0  0
  -24.9530  -12.0080   20.6950 C   0  0  0  0  0  0  0  0  0  0  0  0
  -26.6180  -13.2350   20.1350 N   0  0  0  0  0  0  0  0  0  0  0  0
  -26.2440  -11.9510   20.3800 N   0  0  0  0  0  0  0  0  0  0  0  0
  -24.1950  -10.7590   20.8540 C   0  0  0  0  0  0  0  0  0  0  0  0
  -24.5650   -9.7860   21.8060 C   0  0  0  0  0  3  0  0  0  0  0  0
  -23.8060   -8.6050   21.9570 C   0  0  0  0  0  3  0  0  0  0  0  0
  -22.6620   -8.3910   21.1540 C   0  0  0  0  0  0  0  0  0  0  0  0
  -22.3090   -9.3520   20.1900 C   0  0  0  0  0  3  0  0  0  0  0  0
  -23.0690  -10.5240   20.0380 C   0  0  0  0  0  3  0  0  0  0  0  0
  -21.8750   -7.2650   21.2160 O   0  0  0  0  0  0  0  0  0  0  0  0
  -21.7200   -6.5550   22.3790 C   0  0  0  0  0  0  0  0  0  0  0  0
  -21.2110   -7.1510   23.5530 C   0  0  0  0  0  3  0  0  0  0  0  0
  -21.0040   -6.3690   24.7060 C   0  0  0  0  0  3  0  0  0  0  0  0
  -21.2910   -4.9910   24.6860 C   0  0  0  0  0  0  0  0  0  0  0  0
  -21.7890   -4.3940   23.5140 C   0  0  0  0  0  3  0  0  0  0  0  0
  -21.9990   -5.1730   22.3630 C   0  0  0  0  0  0  0  0  0  0  0  0
  -22.4580   -4.5880   21.2320 F   0  0  0  0  0  0  0  0  0  0  0  0
  -21.0830   -4.2370   25.7910 F   0  0  0  0  0  0  0  0  0  0  0  0
  -23.1340  -13.8730   21.0180 C   0  0  0  0  0  0  0  0  0  0  0  0
  -22.3870  -13.1950   21.8830 N   0  0  0  0  0  0  0  0  0  0  0  0
  -22.7240  -14.9050   20.4890 O   0  0  0  0  0  0  0  0  0  0  0  0
  -22.7350  -12.3590   22.3280 H   0  0  0  0  0  0  0  0  0  0  0  0
  -21.4520  -13.5090   22.0970 H   0  0  0  0  0  0  0  0  0  0  0  0
  -25.7880  -15.5000   20.2490 N   0  0  0  0  0  0  0  0  0  0  0  0
  -24.8770  -15.9460   20.2380 H   0  0  0  0  0  0  0  0  0  0  0  0
  -26.2840  -15.6530   19.3820 H   0  0  0  0  0  0  0  0  0  0  0  0
  -26.7580  -18.5310   19.7740 N   0  0  0  0  0  4  0  0  0  0  0  0
  -26.3880  -18.2800   20.6810 H   0  0  0  0  0  0  0  0  0  0  0  0
  -26.6470  -17.7350   19.1600 H   0  0  0  0  0  0  0  0  0  0  0  0
  -25.9790  -19.6790   19.2510 C   0  0  0  0  0  2  0  0  0  0  0  0
  -26.4540  -20.1730   17.8630 C   0  0  0  0  0  2  0  0  0  0  0  0
  -25.4850  -21.1740   17.2130 C   0  0  0  0  0  2  0  0  0  0  0  0
  -25.4030  -22.5610   17.8730 C   0  0  0  0  0  2  0  0  0  0  0  0
  -24.1820  -24.8040   17.5760 C   0  0  0  0  0  1  0  0  0  0  0  0
  -24.1490  -23.2900   17.3680 C   0  0  0  0  0  2  0  0  0  0  0  0
  -29.4790  -22.9480   20.3810 C   0  0  0  0  0  3  0  0  0  0  0  0
  -28.5110  -24.4040   20.8040 C   0  0  0  0  0  3  0  0  0  0  0  0
  -28.6800  -26.0240   20.5720 O   0  0  0  0  0  0  0  0  0  0  0  0
  -24.8170  -31.9430   23.2230 C   0  0  0  0  0  0  0  0  0  0  0  0
  -27.6180  -27.0610   20.4840 C   0  0  0  0  0  0  0  0  0  0  0  0
  -23.7190  -30.4550   21.6000 C   0  0  0  0  0  3  0  0  0  0  0  0
  -25.2600  -28.8470   20.2870 C   0  0  0  0  0  0  0  0  0  0  0  0
  -26.2770  -30.7480   21.5220 C   0  0  0  0  0  2  0  0  0  0  0  0
  -26.4120  -29.3180   20.9270 C   0  0  0  0  0  0  0  0  0  0  0  0
  -27.5880  -28.4470   21.0000 C   0  0  0  0  0  3  0  0  0  0  0  0
  -26.4310  -26.7310   19.7930 C   0  0  0  0  0  3  0  0  0  0  0  0
  -25.2910  -27.5710   19.7000 C   0  0  0  0  0  3  0  0  0  0  0  0
  -24.0160  -29.7330   20.2570 C   0  0  0  0  0  2  0  0  0  0  0  0
  -24.9560  -31.0780   22.1690 N   0  0  0  0  0  0  0  0  0  0  0  0
  -23.7060  -32.2170   23.7000 O   0  0  0  0  0  0  0  0  0  0  0  0
  -23.0240  -29.4700   22.5780 C   0  0  0  0  0  0  0  0  0  0  0  0
  -21.7050  -29.2570   22.4150 N   0  0  0  0  0  0  0  0  0  0  0  0
  -23.6800  -28.8970   23.4510 O   0  0  0  0  0  0  0  0  0  0  0  0
  -21.2280  -29.7690   21.6870 H   0  0  0  0  0  0  0  0  0  0  0  0
  -18.3410  -27.9830   22.8770 C   0  0  0  0  0  0  0  0  0  0  0  0
  -20.8870  -28.3220   23.1950 C   0  0  0  0  0  3  0  0  0  0  0  0
  -21.0390  -26.8760   22.6670 C   0  0  0  0  0  2  0  0  0  0  0  0
  -19.9700  -26.4950   21.6380 C   0  0  0  0  0  2  0  0  0  0  0  0
  -18.5690  -26.6220   22.2440 C   0  0  0  0  0  2  0  0  0  0  0  0
  -19.4290  -28.7870   23.3100 C   0  0  0  0  0  0  0  0  0  0  0  0
  -19.1620  -30.0570   23.8690 C   0  0  0  0  0  3  0  0  0  0  0  0
  -17.8400  -30.5220   23.9980 C   0  0  0  0  0  3  0  0  0  0  0  0
  -16.7660  -29.7170   23.5800 C   0  0  0  0  0  3  0  0  0  0  0  0
  -17.0180  -28.4510   23.0240 C   0  0  0  0  0  3  0  0  0  0  0  0
  -26.0480  -32.6460   23.8710 C   0  0  0  0  0  3  0  0  0  0  0  0
  -25.6650  -34.0330   24.1880 N   0  0  0  0  0  0  0  0  0  0  0  0
  -25.9650  -35.1010   23.4360 C   0  0  0  0  0  0  0  0  0  0  0  0
  -26.6510  -35.0230   22.4130 O   0  0  0  0  0  0  0  0  0  0  0  0
  -25.0540  -34.1660   24.9810 H   0  0  0  0  0  0  0  0  0  0  0  0
  -24.1610  -36.8200   23.0700 C   0  0  0  0  0  1  0  0  0  0  0  0
  -25.4180  -36.4710   23.8870 C   0  0  0  0  0  3  0  0  0  0  0  0
  -27.5150  -37.4480   24.7090 C   0  0  0  0  0  1  0  0  0  0  0  0
  -26.4030  -37.5680   23.7680 N   0  0  0  0  0  0  0  0  0  0  0  0
  -25.9610  -38.4710   23.9160 H   0  0  0  0  0  0  0  0  0  0  0  0
  -26.5670  -31.9120   25.1700 C   0  0  1  0  0  0  0  0  0  0  0  0
  -25.4470  -31.6000   26.1930 C   0  0  0  0  0  1  0  0  0  0  0  0
  -27.2620  -30.5790   24.8120 C   0  0  0  0  0  1  0  0  0  0  0  0
  -27.6400  -32.7820   25.8690 C   0  0  0  0  0  1  0  0  0  0  0  0
  1  5  1  0
  1  8  2  0
  2  3  1  0
  2  5  1  0
  5 54  1  0
  6 45  1  0
  6  4  1  0
  6  1  1  0
  7  9  1  0
  7  3  1  0
  7  4  1  0
 10 15  1  0
 11 12  1  0
 11 10  1  0
 13 12  1  0
 13 20  1  0
 13 14  1  0
 15  9  1  0
 15 14  1  0
 16  9  2  0
 17 18  2  0
 18 37  1  0
 19 18  1  0
 19 22  1  0
 20 21  1  0
 20 17  1  0
 21 19  2  0
 22 23  1  0
 23 24  2  0
 25 28  1  0
 25 24  1  0
 26 25  2  0
 27 26  1  0
 27 22  2  0
 28 29  1  0
 29 30  1  0
 30 31  2  0
 32 31  1  0
 32 36  1  0
 33 32  2  0
 34 29  2  0
 34 33  1  0
 35 34  1  0
 37 38  1  0
 38 41  1  0
 38 40  1  0
 39 37  2  0
 42 17  1  0
 43 42  1  0
 44 42  1  0
 45 46  1  0
 47 45  1  0
 48 45  1  0
 49 48  1  0
 50 49  1  0
 50 51  1  0
 53 52  1  0
 53 51  1  0
 54 55  2  0
 56 55  1  0
 57 68  2  0
 58 56  1  0
 58 63  1  0
 59 67  1  0
 59 69  1  0
 60 62  1  0
 61 67  1  0
 62 63  2  0
 62 61  1  0
 64 58  2  0
 65 64  1  0
 65 60  2  0
 66 60  1  0
 66 59  1  0
 67 57  1  0
 69 71  2  0
 70 69  1  0
 72 70  1  0
 73 82  2  0
 73 78  1  0
 74 70  1  0
 74 78  1  0
 75 74  1  0
 76 77  1  0
 76 75  1  0
 77 73  1  0
 78 79  2  0
 79 80  1  0
 81 80  2  0
 82 81  1  0
 83 57  1  0
 83 84  1  0
 83 93  1  0
 84 87  1  0
 85 89  1  0
 85 84  1  0
 86 85  2  0
 89 88  1  0
 91 89  1  0
 91 92  1  0
 91 90  1  0
 93 96  1  1
 93 94  1  0
 95 93  1  0
M  ISO  4   7 100   9 100  55 101  56 101
M  END
>  <TORSDO>  (86) 
F 24

>  <SCORE>  (86) 
-12.416

>  <name>  (86) 
87

>  <ligand_id>  (86) 
87

>  <original_smiles>  (86) 
[H]c1c([H])c([H])c2c(c1[H])C([H])([H])C([H])([H])C([H])([H])C2([H])N([H])C(=O)C1([H])N(C(=O)C([H])(N([H])C(=O)C([H])(N([H])C([H])([H])[H])C([H])([H])[H])C(C([H])([H])[H])(C([H])([H])[H])C([H])([H])[H])C([H])([H])c2c([H])c(OC([H])([H])C([H])([H])C3([H])C(=O)C([H])([N+]([H])([H])C([H])([H])C([H])([H])C([H])([H])C([H])([H])C([H])([H])C([H])([H])[H])C([H])([H])C([H])(C(=O)N4C([H])([H])C([H])([H])C([H])([H])C([H])(n5nc(-c6c([H])c([H])c(Oc7c([H])c([H])c(F)c([H])c7F)c([H])c6[H])c(C(=O)N([H])[H])c5N([H])[H])C4([H])[H])C([H])([H])C3([H])[H])c([H])c([H])c2C1([H])[H]

>  <smiles>  (86) 
[H]c1c([H])c([H])c2c(c1[H])C([H])([H])C([H])([H])C([H])([H])C2([H])N([H])C(=O)C1([H])N(C(=O)C([H])(N([H])C(=O)C([H])(N([H])C([H])([H])[H])C([H])([H])[H])C(C([H])([H])[H])(C([H])([H])[H])C([H])([H])[H])C([H])([H])c2c([H])c(OC([H])([H])C([H])([H])C3([H])C(=O)C([H])([N+]([H])([H])C([H])([H])C([H])([H])C([H])([H])C([H])([H])C([H])([H])C([H])([H])[H])C([H])([H])C([H])(C(=O)N4C([H])([H])C([H])([H])C([H])([H])C([H])(n5nc(-c6c([H])c([H])c(Oc7c([H])c([H])c(F)c([H])c7F)c([H])c6[H])c(C(=O)N([H])[H])c5N([H])[H])C4([H])[H])C([H])([H])C3([H])[H])c([H])c([H])c2C1([H])[H]

$$$$
88:0:0
     RDKit          3D

 90 99  0  0  1  0  0  0  0  0999 V2000
  -29.4400  -18.0730   19.1320 C   0  0  0  0  0  2  0  0  0  0  0  0
  -29.4130  -19.7210   18.7090 C   0  0  0  0  0  2  0  0  0  0  0  0
  -31.7740  -21.1860   21.0050 C   0  0  0  0  0  2  0  0  0  0  0  0
  -31.3140  -18.7110   20.3830 C   0  0  0  0  0  2  0  0  0  0  0  0
  -31.9590  -21.0170   22.4920 C   0  0  0  0  0  2  0  0  0  0  0  0
  -30.5070  -17.3090   20.1410 C   0  0  0  0  0  3  0  0  0  0  0  0
  -29.4570  -21.0060   19.7360 C   0  0  0  0  0  3  0  0  0  0  0  0
  -30.6120  -20.2420   20.6770 C   0  0  2  0  0  0  0  0  0  0  0  0
  -30.4020  -20.3410   24.1850 C   0  0  0  0  0  1  0  0  0  0  0  0
  -30.5660  -20.9760   22.8880 N   0  0  0  0  0  0  0  0  0  0  0  0
  -29.9590  -20.0690   21.9400 O   0  0  0  0  0  0  0  0  0  0  0  0
  -31.2450  -15.6970   19.8670 C   0  0  0  0  0  0  0  0  0  0  0  0
  -31.1280  -13.2590   18.9200 C   0  0  0  0  0  2  0  0  0  0  0  0
  -30.1200  -13.1190   17.7470 C   0  0  0  0  0  2  0  0  0  0  0  0
  -28.7030  -12.8480   18.2800 C   0  0  0  0  0  2  0  0  0  0  0  0
  -28.3540  -13.7770   19.4670 C   0  0  0  0  0  3  0  0  0  0  0  0
  -29.4780  -13.8680   20.5180 C   0  0  0  0  0  2  0  0  0  0  0  0
  -30.6770  -14.3800   19.8340 N   0  0  0  0  0  0  0  0  0  0  0  0
  -32.4410  -15.6520   19.5330 O   0  0  0  0  0  0  0  0  0  0  0  0
  -26.0740  -14.3570   20.4450 C   0  0  0  0  0  0  0  0  0  0  0  0
  -25.0140  -13.5910   20.8400 C   0  0  0  0  0  0  0  0  0  0  0  0
  -25.4230  -12.2320   20.6800 C   0  0  0  0  0  0  0  0  0  0  0  0
  -27.0600  -13.4670   20.0590 N   0  0  0  0  0  0  0  0  0  0  0  0
  -26.6860  -12.1770   20.2680 N   0  0  0  0  0  0  0  0  0  0  0  0
  -24.6650  -10.9850   20.8370 C   0  0  0  0  0  0  0  0  0  0  0  0
  -25.0370  -10.0040   21.7830 C   0  0  0  0  0  3  0  0  0  0  0  0
  -24.2750   -8.8240   21.9290 C   0  0  0  0  0  3  0  0  0  0  0  0
  -23.1270   -8.6150   21.1280 C   0  0  0  0  0  0  0  0  0  0  0  0
  -22.7730   -9.5850   20.1740 C   0  0  0  0  0  3  0  0  0  0  0  0
  -23.5360  -10.7560   20.0250 C   0  0  0  0  0  3  0  0  0  0  0  0
  -22.3440   -7.4880   21.1820 O   0  0  0  0  0  0  0  0  0  0  0  0
  -22.0390   -6.8800   22.3730 C   0  0  0  0  0  0  0  0  0  0  0  0
  -21.4490   -7.5880   23.4430 C   0  0  0  0  0  3  0  0  0  0  0  0
  -21.0880   -6.9090   24.6230 C   0  0  0  0  0  3  0  0  0  0  0  0
  -21.3060   -5.5220   24.7340 C   0  0  0  0  0  0  0  0  0  0  0  0
  -21.8890   -4.8140   23.6680 C   0  0  0  0  0  3  0  0  0  0  0  0
  -22.2510   -5.4900   22.4900 C   0  0  0  0  0  0  0  0  0  0  0  0
  -22.7910   -4.8000   21.4580 F   0  0  0  0  0  0  0  0  0  0  0  0
  -20.9530   -4.8680   25.8650 F   0  0  0  0  0  0  0  0  0  0  0  0
  -23.6610  -14.0960   21.2500 C   0  0  0  0  0  0  0  0  0  0  0  0
  -23.0060  -13.4090   22.1780 N   0  0  0  0  0  0  0  0  0  0  0  0
  -23.2010  -15.1350   20.7800 O   0  0  0  0  0  0  0  0  0  0  0  0
  -23.3920  -12.5650   22.5720 H   0  0  0  0  0  0  0  0  0  0  0  0
  -22.1060  -13.7360   22.5010 H   0  0  0  0  0  0  0  0  0  0  0  0
  -26.2770  -15.7300   20.3520 N   0  0  0  0  0  0  0  0  0  0  0  0
  -25.5470  -16.4000   20.5720 H   0  0  0  0  0  0  0  0  0  0  0  0
  -27.1200  -16.1670   19.9990 H   0  0  0  0  0  0  0  0  0  0  0  0
  -29.3800  -22.7880   19.2250 C   0  0  0  0  0  2  0  0  0  0  0  0
  -28.2600  -24.2390   19.3700 C   0  0  0  0  0  2  0  0  0  0  0  0
  -28.3880  -25.9090   19.2500 O   0  0  0  0  0  0  0  0  0  0  0  0
  -24.5890  -31.4070   22.8890 C   0  0  0  0  0  0  0  0  0  0  0  0
  -27.3200  -26.9710   19.3350 C   0  0  0  0  0  0  0  0  0  0  0  0
  -23.4380  -30.1350   21.1290 C   0  0  0  0  0  3  0  0  0  0  0  0
  -24.9330  -28.7570   19.5210 C   0  0  0  0  0  0  0  0  0  0  0  0
  -25.9890  -30.4770   20.9700 C   0  0  0  0  0  2  0  0  0  0  0  0
  -26.1140  -29.1460   20.1650 C   0  0  0  0  0  0  0  0  0  0  0  0
  -27.3000  -28.2800   20.0450 C   0  0  0  0  0  3  0  0  0  0  0  0
  -26.0970  -26.7480   18.6610 C   0  0  0  0  0  3  0  0  0  0  0  0
  -24.9520  -27.5840   18.7490 C   0  0  0  0  0  3  0  0  0  0  0  0
  -23.6720  -29.6100   19.6860 C   0  0  0  0  0  2  0  0  0  0  0  0
  -24.6950  -30.6980   21.7180 N   0  0  0  0  0  0  0  0  0  0  0  0
  -23.4980  -31.5860   23.4510 O   0  0  0  0  0  0  0  0  0  0  0  0
  -22.8070  -29.0110   21.9930 C   0  0  0  0  0  0  0  0  0  0  0  0
  -21.4820  -28.8100   21.8820 N   0  0  0  0  0  0  0  0  0  0  0  0
  -23.5170  -28.3240   22.7310 O   0  0  0  0  0  0  0  0  0  0  0  0
  -20.9590  -29.4160   21.2650 H   0  0  0  0  0  0  0  0  0  0  0  0
  -18.1600  -27.4240   22.3470 C   0  0  0  0  0  0  0  0  0  0  0  0
  -20.7160  -27.7590   22.5610 C   0  0  0  0  0  3  0  0  0  0  0  0
  -20.8500  -26.4100   21.8180 C   0  0  0  0  0  2  0  0  0  0  0  0
  -19.7250  -26.1660   20.8070 C   0  0  0  0  0  2  0  0  0  0  0  0
  -18.3610  -26.1750   21.5040 C   0  0  0  0  0  2  0  0  0  0  0  0
  -19.2640  -28.1760   22.8270 C   0  0  0  0  0  0  0  0  0  0  0  0
  -19.0190  -29.3450   23.5790 C   0  0  0  0  0  3  0  0  0  0  0  0
  -17.7040  -29.7620   23.8570 C   0  0  0  0  0  3  0  0  0  0  0  0
  -16.6140  -29.0070   23.3890 C   0  0  0  0  0  3  0  0  0  0  0  0
  -16.8430  -27.8400   22.6390 C   0  0  0  0  0  3  0  0  0  0  0  0
  -25.8370  -32.0440   23.5730 C   0  0  0  0  0  3  0  0  0  0  0  0
  -25.4840  -33.4170   23.9780 N   0  0  0  0  0  0  0  0  0  0  0  0
  -25.7910  -34.5260   23.2910 C   0  0  0  0  0  0  0  0  0  0  0  0
  -26.4660  -34.5020   22.2600 O   0  0  0  0  0  0  0  0  0  0  0  0
  -24.8840  -33.5060   24.7850 H   0  0  0  0  0  0  0  0  0  0  0  0
  -24.0300  -36.3090   23.0390 C   0  0  0  0  0  1  0  0  0  0  0  0
  -25.2720  -35.8740   23.8350 C   0  0  0  0  0  3  0  0  0  0  0  0
  -27.3760  -36.7510   24.7490 C   0  0  0  0  0  1  0  0  0  0  0  0
  -26.2830  -36.9550   23.8010 N   0  0  0  0  0  0  0  0  0  0  0  0
  -25.8550  -37.8550   23.9990 H   0  0  0  0  0  0  0  0  0  0  0  0
  -26.3390  -31.2260   24.8270 C   0  0  1  0  0  0  0  0  0  0  0  0
  -25.2290  -30.9320   25.8650 C   0  0  0  0  0  1  0  0  0  0  0  0
  -26.9470  -29.8730   24.3960 C   0  0  0  0  0  1  0  0  0  0  0  0
  -27.4690  -32.0050   25.5410 C   0  0  0  0  0  1  0  0  0  0  0  0
  1  6  1  0
  2  1  1  0
  2  7  1  0
  3  5  1  0
  5 10  1  0
  6 12  1  0
  6  4  1  0
  7 48  1  0
  7  8  1  0
  8  4  1  6
  8  3  1  0
  8 11  1  0
 10  9  1  0
 11 10  1  0
 13 18  1  0
 14 15  1  0
 14 13  1  0
 16 15  1  0
 16 23  1  0
 16 17  1  0
 18 12  1  0
 18 17  1  0
 19 12  2  0
 20 21  2  0
 21 40  1  0
 22 25  1  0
 22 21  1  0
 23 24  1  0
 23 20  1  0
 24 22  2  0
 25 26  1  0
 26 27  2  0
 28 31  1  0
 28 27  1  0
 29 28  2  0
 30 29  1  0
 30 25  2  0
 31 32  1  0
 32 37  2  0
 32 33  1  0
 33 34  2  0
 34 35  1  0
 35 39  1  0
 36 35  2  0
 37 36  1  0
 38 37  1  0
 40 41  1  0
 41 44  1  0
 41 43  1  0
 42 40  2  0
 45 20  1  0
 45 46  1  0
 47 45  1  0
 48 49  1  0
 50 52  1  0
 50 49  1  0
 51 62  2  0
 52 57  1  0
 53 61  1  0
 53 63  1  0
 54 60  1  0
 54 56  1  0
 55 61  1  0
 56 55  1  0
 57 56  2  0
 58 59  1  0
 58 52  2  0
 59 54  2  0
 60 53  1  0
 61 51  1  0
 63 65  2  0
 64 63  1  0
 66 64  1  0
 67 76  2  0
 67 72  1  0
 68 64  1  0
 68 72  1  0
 69 68  1  0
 70 71  1  0
 70 69  1  0
 71 67  1  0
 72 73  2  0
 73 74  1  0
 75 74  2  0
 76 75  1  0
 77 51  1  0
 77 78  1  0
 77 87  1  0
 78 81  1  0
 79 83  1  0
 79 78  1  0
 80 79  2  0
 83 82  1  0
 85 83  1  0
 85 86  1  0
 85 84  1  0
 87 90  1  1
 87 88  1  0
 89 87  1  0
M  ISO  4   6 100  12 100  49 101  50 101
M  END
>  <TORSDO>  (87) 
F 18

>  <SCORE>  (87) 
-13.664

>  <name>  (87) 
88

>  <ligand_id>  (87) 
88

>  <original_smiles>  (87) 
[H]c1c([H])c([H])c2c(c1[H])C([H])([H])C([H])([H])C([H])([H])C2([H])N([H])C(=O)C1([H])N(C(=O)C([H])(N([H])C(=O)C([H])(N([H])C([H])([H])[H])C([H])([H])[H])C(C([H])([H])[H])(C([H])([H])[H])C([H])([H])[H])C([H])([H])c2c([H])c(OC([H])([H])C([H])([H])C3([H])C([H])([H])C([H])([H])C([H])(C(=O)N4C([H])([H])C([H])([H])C([H])([H])C([H])(n5nc(-c6c([H])c([H])c(Oc7c([H])c([H])c(F)c([H])c7F)c([H])c6[H])c(C(=O)N([H])[H])c5N([H])[H])C4([H])[H])C([H])([H])C34ON(C([H])([H])[H])C([H])([H])C4([H])[H])c([H])c([H])c2C1([H])[H]

>  <smiles>  (87) 
[H]c1c([H])c([H])c2c(c1[H])C([H])([H])C([H])([H])C([H])([H])C2([H])N([H])C(=O)C1([H])N(C(=O)C([H])(N([H])C(=O)C([H])(N([H])C([H])([H])[H])C([H])([H])[H])C(C([H])([H])[H])(C([H])([H])[H])C([H])([H])[H])C([H])([H])c2c([H])c(OC([H])([H])C([H])([H])C3([H])C([H])([H])C([H])([H])C([H])(C(=O)N4C([H])([H])C([H])([H])C([H])([H])C([H])(n5nc(-c6c([H])c([H])c(Oc7c([H])c([H])c(F)c([H])c7F)c([H])c6[H])c(C(=O)N([H])[H])c5N([H])[H])C4([H])[H])C([H])([H])C34ON(C([H])([H])[H])C([H])([H])C4([H])[H])c([H])c([H])c2C1([H])[H]

$$$$
89:0:0
     RDKit          3D

 86 91  0  0  1  0  0  0  0  0999 V2000
  -28.5960  -21.6510   20.6560 C   0  0  0  0  0  0  0  0  0  0  0  0
  -29.5190  -21.8100   18.0770 C   0  0  0  0  0  2  0  0  0  0  0  0
  -29.3130  -23.2340   18.7790 C   0  0  0  0  0  2  0  0  0  0  0  0
  -30.0030  -20.5080   18.8840 C   0  0  0  0  0  2  0  0  0  0  0  0
  -28.2190  -23.3890   19.8920 C   0  0  0  0  0  2  0  0  0  0  0  0
  -29.0150  -19.8940   19.9390 C   0  0  0  0  0  3  0  0  0  0  0  0
  -27.7080  -19.5520   19.1930 C   0  0  0  0  0  1  0  0  0  0  0  0
  -28.5590  -21.6520   21.8890 O   0  0  0  0  0  0  0  0  0  0  0  0
  -28.1030  -25.2130   20.3700 O   0  0  0  0  0  1  0  0  0  0  0  0
  -24.6470  -31.8360   23.1660 C   0  0  0  0  0  0  0  0  0  0  0  0
  -27.1760  -26.5400   20.2330 C   0  0  0  0  0  0  0  0  0  0  0  0
  -23.4710  -30.4170   21.5410 C   0  0  0  0  0  3  0  0  0  0  0  0
  -24.9270  -28.7180   20.1480 C   0  0  0  0  0  0  0  0  0  0  0  0
  -26.0590  -30.4950   21.4500 C   0  0  0  0  0  2  0  0  0  0  0  0
  -26.1220  -29.0340   20.8020 C   0  0  0  0  0  0  0  0  0  0  0  0
  -27.2140  -27.9780   20.8130 C   0  0  0  0  0  3  0  0  0  0  0  0
  -25.9510  -26.5010   19.5030 C   0  0  0  0  0  3  0  0  0  0  0  0
  -24.8950  -27.4820   19.4730 C   0  0  0  0  0  3  0  0  0  0  0  0
  -23.7260  -29.6930   20.1830 C   0  0  0  0  0  2  0  0  0  0  0  0
  -24.7520  -30.9560   22.1040 N   0  0  0  0  0  0  0  0  0  0  0  0
  -23.5490  -32.1470   23.6610 O   0  0  0  0  0  0  0  0  0  0  0  0
  -22.7350  -29.4660   22.5260 C   0  0  0  0  0  0  0  0  0  0  0  0
  -21.4000  -29.3270   22.4090 N   0  0  0  0  0  0  0  0  0  0  0  0
  -23.3830  -28.8490   23.3740 O   0  0  0  0  0  0  0  0  0  0  0  0
  -20.9230  -29.8750   21.7060 H   0  0  0  0  0  0  0  0  0  0  0  0
  -18.0050  -28.1260   22.9490 C   0  0  0  0  0  0  0  0  0  0  0  0
  -20.5690  -28.3990   23.1920 C   0  0  0  0  0  3  0  0  0  0  0  0
  -20.6650  -26.9620   22.6280 C   0  0  0  0  0  2  0  0  0  0  0  0
  -19.5580  -26.6350   21.6200 C   0  0  0  0  0  2  0  0  0  0  0  0
  -18.1800  -26.7790   22.2710 C   0  0  0  0  0  2  0  0  0  0  0  0
  -19.1270  -28.8950   23.3660 C   0  0  0  0  0  0  0  0  0  0  0  0
  -18.9050  -30.1530   23.9690 C   0  0  0  0  0  3  0  0  0  0  0  0
  -17.5970  -30.6440   24.1530 C   0  0  0  0  0  3  0  0  0  0  0  0
  -16.4930  -29.8750   23.7470 C   0  0  0  0  0  3  0  0  0  0  0  0
  -16.6980  -28.6170   23.1510 C   0  0  0  0  0  3  0  0  0  0  0  0
  -25.8990  -32.5050   23.8110 C   0  0  0  0  0  3  0  0  0  0  0  0
  -25.5690  -33.9130   24.1250 N   0  0  0  0  0  0  0  0  0  0  0  0
  -25.9030  -34.9760   23.3800 C   0  0  0  0  0  0  0  0  0  0  0  0
  -26.5730  -34.8740   22.3490 O   0  0  0  0  0  0  0  0  0  0  0  0
  -24.9700  -34.0630   24.9240 H   0  0  0  0  0  0  0  0  0  0  0  0
  -24.1750  -36.7830   23.0530 C   0  0  0  0  0  1  0  0  0  0  0  0
  -25.4250  -36.3690   23.8460 C   0  0  0  0  0  3  0  0  0  0  0  0
  -27.5660  -37.2660   24.6550 C   0  0  0  0  0  1  0  0  0  0  0  0
  -26.4560  -37.4240   23.7190 N   0  0  0  0  0  0  0  0  0  0  0  0
  -26.0510  -38.3450   23.8600 H   0  0  0  0  0  0  0  0  0  0  0  0
  -26.3810  -31.7730   25.1260 C   0  0  1  0  0  0  0  0  0  0  0  0
  -25.2620  -31.5720   26.1770 C   0  0  0  0  0  1  0  0  0  0  0  0
  -26.9690  -30.3810   24.8080 C   0  0  0  0  0  1  0  0  0  0  0  0
  -27.5190  -32.5840   25.7900 C   0  0  0  0  0  1  0  0  0  0  0  0
  -29.5030  -17.9350   20.5220 C   0  0  0  0  0 15  0  0  0  0  0  0
  -30.1740  -16.0850   20.1250 C   0  0  0  0  0  2  0  0  0  0  0  0
  -30.3670  -13.4330   19.3660 C   0  0  0  0  0  2  0  0  0  0  0  0
  -29.4990  -12.8960   18.1790 C   0  0  0  0  0  2  0  0  0  0  0  0
  -28.1040  -12.4710   18.6510 C   0  0  0  0  0  2  0  0  0  0  0  0
  -27.5610  -13.4880   19.6750 C   0  0  0  0  0  3  0  0  0  0  0  0
  -28.5780  -13.9270   20.7660 C   0  0  0  0  0  2  0  0  0  0  0  0
  -29.7140  -14.6440   20.1080 N   0  0  0  0  0  0  0  0  0  0  0  0
  -31.3870  -15.9450   19.8340 O   0  0  0  0  0  1  0  0  0  0  0  0
  -25.2160  -13.9830   20.4850 C   0  0  0  0  0  0  0  0  0  0  0  0
  -24.1650  -13.1970   20.8600 C   0  0  0  0  0  0  0  0  0  0  0  0
  -24.6380  -11.8490   20.8110 C   0  0  0  0  0  0  0  0  0  0  0  0
  -26.2600  -13.1200   20.2180 N   0  0  0  0  0  0  0  0  0  0  0  0
  -25.9290  -11.8250   20.4780 N   0  0  0  0  0  0  0  0  0  0  0  0
  -23.9120  -10.5840   21.0030 C   0  0  0  0  0  0  0  0  0  0  0  0
  -24.3460   -9.6120   21.9310 C   0  0  0  0  0  3  0  0  0  0  0  0
  -23.6130   -8.4180   22.1160 C   0  0  0  0  0  3  0  0  0  0  0  0
  -22.4310   -8.1880   21.3720 C   0  0  0  0  0  0  0  0  0  0  0  0
  -22.0150   -9.1490   20.4340 C   0  0  0  0  0  3  0  0  0  0  0  0
  -22.7490  -10.3330   20.2470 C   0  0  0  0  0  3  0  0  0  0  0  0
  -21.6710   -7.0470   21.4660 O   0  0  0  0  0  0  0  0  0  0  0  0
  -21.6240   -6.3040   22.6180 C   0  0  0  0  0  0  0  0  0  0  0  0
  -21.1820   -6.8550   23.8410 C   0  0  0  0  0  3  0  0  0  0  0  0
  -21.0830   -6.0390   24.9850 C   0  0  0  0  0  3  0  0  0  0  0  0
  -21.4150   -4.6730   24.9080 C   0  0  0  0  0  0  0  0  0  0  0  0
  -21.8480   -4.1210   23.6900 C   0  0  0  0  0  3  0  0  0  0  0  0
  -21.9500   -4.9340   22.5480 C   0  0  0  0  0  0  0  0  0  0  0  0
  -22.3470   -4.3930   21.3710 F   0  0  0  0  0  0  0  0  0  0  0  0
  -21.3130   -3.8870   26.0050 F   0  0  0  0  0  0  0  0  0  0  0  0
  -22.7710  -13.6700   21.1450 C   0  0  0  0  0  0  0  0  0  0  0  0
  -22.0530  -12.9740   22.0190 N   0  0  0  0  0  0  0  0  0  0  0  0
  -22.3290  -14.6970   20.6300 O   0  0  0  0  0  0  0  0  0  0  0  0
  -22.4260  -12.1440   22.4580 H   0  0  0  0  0  0  0  0  0  0  0  0
  -21.1180  -13.2740   22.2520 H   0  0  0  0  0  0  0  0  0  0  0  0
  -25.3700  -15.3560   20.3150 N   0  0  0  0  0  0  0  0  0  0  0  0
  -24.6010  -16.0060   20.4450 H   0  0  0  0  0  0  0  0  0  0  0  0
  -26.2150  -15.8030   19.9830 H   0  0  0  0  0  0  0  0  0  0  0  0
  1  8  2  0
  2  3  1  0
  2  4  1  0
  3  5  1  0
  4  6  1  0
  5  1  1  0
  6  7  1  0
  6  1  1  0
 10 21  2  0
 11  9  1  0
 11 16  1  0
 12 20  1  0
 12 22  1  0
 13 19  1  0
 13 15  1  0
 14 20  1  0
 15 16  2  0
 15 14  1  0
 17 11  2  0
 18 17  1  0
 18 13  2  0
 19 12  1  0
 20 10  1  0
 22 24  2  0
 23 22  1  0
 25 23  1  0
 26 35  2  0
 26 31  1  0
 27 23  1  0
 27 31  1  0
 28 27  1  0
 29 30  1  0
 29 28  1  0
 30 26  1  0
 31 32  2  0
 32 33  1  0
 34 33  2  0
 35 34  1  0
 36 10  1  0
 36 37  1  0
 36 46  1  0
 37 40  1  0
 38 42  1  0
 38 37  1  0
 39 38  2  0
 42 41  1  0
 44 42  1  0
 44 45  1  0
 44 43  1  0
 46 49  1  1
 46 47  1  0
 48 46  1  0
 52 57  1  0
 53 54  1  0
 53 52  1  0
 55 54  1  0
 55 62  1  0
 55 56  1  0
 57 51  1  0
 57 56  1  0
 58 51  1  0
 59 60  2  0
 60 79  1  0
 61 60  1  0
 61 64  1  0
 62 63  1  0
 62 59  1  0
 63 61  2  0
 64 65  1  0
 65 66  2  0
 67 70  1  0
 67 66  1  0
 68 67  2  0
 69 68  1  0
 69 64  2  0
 70 71  1  0
 71 72  1  0
 72 73  2  0
 74 73  1  0
 74 78  1  0
 75 74  2  0
 76 71  2  0
 76 75  1  0
 77 76  1  0
 79 80  1  0
 80 83  1  0
 80 82  1  0
 81 79  2  0
 84 85  1  0
 84 59  1  0
 86 84  1  0
M  ISO  4   5 101   9 101  50 100  51 100
M  END
>  <TORSDO>  (88) 
F 17

>  <SCORE>  (88) 
-16.609

>  <name>  (88) 
89

>  <ligand_id>  (88) 
89

>  <original_smiles>  (88) 
[H]c1c([H])c([H])c2c(c1[H])C([H])([H])C([H])([H])C([H])([H])C2([H])N([H])C(=O)C1([H])N(C(=O)C([H])(N([H])C(=O)C([H])(N([H])C([H])([H])[H])C([H])([H])[H])C(C([H])([H])[H])(C([H])([H])[H])C([H])([H])[H])C([H])([H])c2c([H])c(OC3([H])C(=O)C(C([H])([H])[H])(C([H])([H])C(=O)N4C([H])([H])C([H])([H])C([H])([H])C([H])(n5nc(-c6c([H])c([H])c(Oc7c([H])c([H])c(F)c([H])c7F)c([H])c6[H])c(C(=O)N([H])[H])c5N([H])[H])C4([H])[H])C([H])([H])C([H])([H])C3([H])[H])c([H])c([H])c2C1([H])[H]

>  <smiles>  (88) 
[H]c1c([H])c([H])c2c(c1[H])C([H])([H])C([H])([H])C([H])([H])C2([H])N([H])C(=O)C1([H])N(C(=O)C([H])(N([H])C(=O)C([H])(N([H])C([H])([H])[H])C([H])([H])[H])C(C([H])([H])[H])(C([H])([H])[H])C([H])([H])[H])C([H])([H])c2c([H])c(OC3([H])C(=O)C(C([H])([H])[H])(C([H])([H])C(=O)N4C([H])([H])C([H])([H])C([H])([H])C([H])(n5nc(-c6c([H])c([H])c(Oc7c([H])c([H])c(F)c([H])c7F)c([H])c6[H])c(C(=O)N([H])[H])c5N([H])[H])C4([H])[H])C([H])([H])C([H])([H])C3([H])[H])c([H])c([H])c2C1([H])[H]

$$$$
90:0:0
     RDKit          3D

 94103  0  0  1  0  0  0  0  0999 V2000
  -30.7120  -14.5320   20.4660 C   0  0  0  0  0  0  0  0  0  0  0  0
  -30.4200  -12.3650   19.3400 C   0  0  0  0  0  2  0  0  0  0  0  0
  -29.4870  -12.5710   18.1270 C   0  0  0  0  0  2  0  0  0  0  0  0
  -28.0080  -12.4530   18.5480 C   0  0  0  0  0  2  0  0  0  0  0  0
  -27.6630  -13.2860   19.8120 C   0  0  0  0  0  3  0  0  0  0  0  0
  -28.7140  -13.0740   20.9260 C   0  0  0  0  0  2  0  0  0  0  0  0
  -30.0410  -13.3550   20.3570 N   0  0  0  0  0  0  0  0  0  0  0  0
  -31.8880  -14.6710   20.1140 O   0  0  0  0  0  0  0  0  0  0  0  0
  -28.5340  -19.8960   19.2180 C   0  0  0  0  0  3  0  0  0  0  0  0
  -28.9840  -21.1900   19.5340 C   0  0  0  0  0  3  0  0  0  0  0  0
  -30.3710  -20.2490   21.2950 C   0  0  0  0  0  3  0  0  0  0  0  0
  -29.0160  -18.7650   19.9120 C   0  0  0  0  0  0  0  0  0  0  0  0
  -29.9460  -18.9340   20.9730 C   0  0  0  0  0  0  0  0  0  0  0  0
  -29.9130  -21.3800   20.5760 C   0  0  0  0  0  0  0  0  0  0  0  0
  -28.5370  -17.4000   19.4420 C   0  0  0  0  0  2  0  0  0  0  0  0
  -30.5730  -17.7700   21.7610 C   0  0  0  0  0  2  0  0  0  0  0  0
  -29.6680  -16.3700   19.3240 C   0  0  0  0  0  2  0  0  0  0  0  0
  -29.8250  -16.4100   21.8060 C   0  0  0  0  0  2  0  0  0  0  0  0
  -29.9130  -15.6230   20.5650 N   0  0  0  0  0  0  0  0  0  0  0  0
  -25.2610  -13.9010   20.4940 C   0  0  0  0  0  0  0  0  0  0  0  0
  -24.1880  -13.1320   20.8550 C   0  0  0  0  0  0  0  0  0  0  0  0
  -24.6490  -11.7810   20.8390 C   0  0  0  0  0  0  0  0  0  0  0  0
  -26.3070  -13.0170   20.2820 N   0  0  0  0  0  0  0  0  0  0  0  0
  -25.9420  -11.7380   20.5460 N   0  0  0  0  0  0  0  0  0  0  0  0
  -23.9210  -10.5200   21.0280 C   0  0  0  0  0  0  0  0  0  0  0  0
  -24.3450   -9.5580   21.9690 C   0  0  0  0  0  3  0  0  0  0  0  0
  -23.6190   -8.3600   22.1450 C   0  0  0  0  0  3  0  0  0  0  0  0
  -22.4540   -8.1170   21.3790 C   0  0  0  0  0  0  0  0  0  0  0  0
  -22.0490   -9.0700   20.4270 C   0  0  0  0  0  3  0  0  0  0  0  0
  -22.7770  -10.2580   20.2490 C   0  0  0  0  0  3  0  0  0  0  0  0
  -21.7010   -6.9710   21.4640 O   0  0  0  0  0  0  0  0  0  0  0  0
  -21.6360   -6.2370   22.6220 C   0  0  0  0  0  0  0  0  0  0  0  0
  -21.1860   -6.8000   23.8360 C   0  0  0  0  0  3  0  0  0  0  0  0
  -21.0690   -5.9910   24.9840 C   0  0  0  0  0  3  0  0  0  0  0  0
  -21.3900   -4.6220   24.9200 C   0  0  0  0  0  0  0  0  0  0  0  0
  -21.8330   -4.0610   23.7090 C   0  0  0  0  0  3  0  0  0  0  0  0
  -21.9520   -4.8650   22.5640 C   0  0  0  0  0  0  0  0  0  0  0  0
  -22.3590   -4.3140   21.3940 F   0  0  0  0  0  0  0  0  0  0  0  0
  -21.2700   -3.8440   26.0200 F   0  0  0  0  0  0  0  0  0  0  0  0
  -22.7880  -13.6130   21.1070 C   0  0  0  0  0  0  0  0  0  0  0  0
  -22.0490  -12.9230   21.9680 N   0  0  0  0  0  0  0  0  0  0  0  0
  -22.3580  -14.6360   20.5760 O   0  0  0  0  0  0  0  0  0  0  0  0
  -22.4090  -12.0970   22.4230 H   0  0  0  0  0  0  0  0  0  0  0  0
  -21.1090  -13.2280   22.1780 H   0  0  0  0  0  0  0  0  0  0  0  0
  -25.4280  -15.2700   20.3110 N   0  0  0  0  0  0  0  0  0  0  0  0
  -24.6640  -15.9280   20.4110 H   0  0  0  0  0  0  0  0  0  0  0  0
  -26.2890  -15.7010   20.0060 H   0  0  0  0  0  0  0  0  0  0  0  0
  -30.4850  -22.7740   20.8560 C   0  0  0  0  0  2  0  0  0  0  0  0
  -29.4600  -23.8240   21.0770 N   0  0  0  0  0  4  0  0  0  0  0  0
  -28.8710  -23.5290   21.8390 H   0  0  0  0  0  0  0  0  0  0  0  0
  -28.8850  -23.8880   20.2520 H   0  0  0  0  0  0  0  0  0  0  0  0
  -30.0320  -25.1690   21.3690 C   0  0  0  0  0  2  0  0  0  0  0  0
  -28.9750  -26.2900   21.5030 C   0  0  0  0  0  2  0  0  0  0  0  0
  -28.5260  -26.7200   20.2160 O   0  0  0  0  0  0  0  0  0  0  0  0
  -24.6580  -31.8990   23.2630 C   0  0  0  0  0  0  0  0  0  0  0  0
  -27.3800  -27.4800   20.2340 C   0  0  0  0  0  0  0  0  0  0  0  0
  -23.4810  -30.4790   21.6140 C   0  0  0  0  0  3  0  0  0  0  0  0
  -24.9670  -28.9490   20.2110 C   0  0  0  0  0  0  0  0  0  0  0  0
  -26.0030  -30.8650   21.4390 C   0  0  0  0  0  2  0  0  0  0  0  0
  -26.1100  -29.4890   20.8150 C   0  0  0  0  0  0  0  0  0  0  0  0
  -27.3200  -28.7600   20.8350 C   0  0  0  0  0  3  0  0  0  0  0  0
  -26.2290  -26.9560   19.6130 C   0  0  0  0  0  3  0  0  0  0  0  0
  -25.0200  -27.6790   19.6100 C   0  0  0  0  0  3  0  0  0  0  0  0
  -23.7120  -29.7920   20.2400 C   0  0  0  0  0  2  0  0  0  0  0  0
  -24.7310  -31.0960   22.1640 N   0  0  0  0  0  0  0  0  0  0  0  0
  -23.5700  -32.1630   23.7930 O   0  0  0  0  0  0  0  0  0  0  0  0
  -22.8310  -29.4560   22.5730 C   0  0  0  0  0  0  0  0  0  0  0  0
  -21.5070  -29.2720   22.4450 N   0  0  0  0  0  0  0  0  0  0  0  0
  -23.5150  -28.8290   23.3860 O   0  0  0  0  0  0  0  0  0  0  0  0
  -21.0160  -29.8310   21.7590 H   0  0  0  0  0  0  0  0  0  0  0  0
  -18.1330  -28.0800   22.9390 C   0  0  0  0  0  0  0  0  0  0  0  0
  -20.6910  -28.3330   23.2120 C   0  0  0  0  0  3  0  0  0  0  0  0
  -20.7910  -26.9040   22.6300 C   0  0  0  0  0  2  0  0  0  0  0  0
  -19.6880  -26.5880   21.6150 C   0  0  0  0  0  2  0  0  0  0  0  0
  -18.3070  -26.7330   22.2600 C   0  0  0  0  0  2  0  0  0  0  0  0
  -19.2530  -28.8390   23.3730 C   0  0  0  0  0  0  0  0  0  0  0  0
  -19.0370  -30.1010   23.9660 C   0  0  0  0  0  3  0  0  0  0  0  0
  -17.7330  -30.6050   24.1340 C   0  0  0  0  0  3  0  0  0  0  0  0
  -16.6270  -29.8440   23.7170 C   0  0  0  0  0  3  0  0  0  0  0  0
  -16.8280  -28.5830   23.1270 C   0  0  0  0  0  3  0  0  0  0  0  0
  -25.9330  -32.5440   23.8920 C   0  0  0  0  0  3  0  0  0  0  0  0
  -26.4540  -31.7750   25.1680 C   0  0  1  0  0  0  0  0  0  0  0  0
  -25.3600  -31.5240   26.2320 C   0  0  0  0  0  1  0  0  0  0  0  0
  -27.0530  -30.4050   24.7730 C   0  0  0  0  0  1  0  0  0  0  0  0
  -27.5950  -32.5800   25.8350 C   0  0  0  0  0  1  0  0  0  0  0  0
  -25.6080  -33.9380   24.2200 N   0  0  0  0  0  0  0  0  0  0  0  0
  -25.9230  -34.9910   23.4540 C   0  0  0  0  0  0  0  0  0  0  0  0
  -26.5870  -34.8930   22.4190 O   0  0  0  0  0  0  0  0  0  0  0  0
  -25.0160  -34.0880   25.0240 H   0  0  0  0  0  0  0  0  0  0  0  0
  -24.1630  -36.7550   23.1060 C   0  0  0  0  0  1  0  0  0  0  0  0
  -25.4180  -36.3740   23.9080 C   0  0  0  0  0  3  0  0  0  0  0  0
  -27.5460  -37.2970   24.7150 C   0  0  0  0  0  1  0  0  0  0  0  0
  -26.4340  -37.4420   23.7790 N   0  0  0  0  0  0  0  0  0  0  0  0
  -26.0160  -38.3570   23.9220 H   0  0  0  0  0  0  0  0  0  0  0  0
  1 19  1  0
  2  7  1  0
  3  4  1  0
  3  2  1  0
  5  4  1  0
  5 23  1  0
  5  6  1  0
  7  1  1  0
  7  6  1  0
  8  1  2  0
  9 10  2  0
  9 12  1  0
 10 14  1  0
 12 13  2  0
 13 11  1  0
 13 16  1  0
 14 48  1  0
 14 11  2  0
 15 12  1  0
 16 18  1  0
 17 15  1  0
 17 19  1  0
 19 18  1  0
 20 21  2  0
 21 40  1  0
 22 21  1  0
 22 25  1  0
 23 20  1  0
 23 24  1  0
 24 22  2  0
 25 26  1  0
 26 27  2  0
 28 31  1  0
 28 27  1  0
 29 28  2  0
 30 29  1  0
 30 25  2  0
 31 32  1  0
 32 33  1  0
 33 34  2  0
 35 34  1  0
 35 39  1  0
 36 35  2  0
 37 32  2  0
 37 36  1  0
 38 37  1  0
 40 41  1  0
 41 44  1  0
 41 43  1  0
 42 40  2  0
 45 46  1  0
 45 20  1  0
 47 45  1  0
 48 49  1  0
 49 52  1  0
 49 50  1  0
 51 49  1  0
 52 53  1  0
 54 56  1  0
 54 53  1  0
 55 66  2  0
 56 61  1  0
 57 65  1  0
 57 67  1  0
 58 64  1  0
 58 60  1  0
 59 65  1  0
 60 61  2  0
 60 59  1  0
 62 56  2  0
 63 62  1  0
 63 58  2  0
 64 57  1  0
 65 55  1  0
 67 69  2  0
 68 67  1  0
 70 68  1  0
 71 80  2  0
 71 76  1  0
 72 68  1  0
 72 76  1  0
 73 72  1  0
 74 75  1  0
 74 73  1  0
 75 71  1  0
 76 77  2  0
 77 78  1  0
 79 78  2  0
 80 79  1  0
 81 55  1  0
 81 86  1  0
 81 82  1  0
 82 85  1  1
 82 83  1  0
 84 82  1  0
 86 89  1  0
 87 91  1  0
 87 86  1  0
 88 87  2  0
 91 90  1  0
 93 91  1  0
 93 94  1  0
 93 92  1  0
M  ISO  4   1 100  19 100  53 101  54 101
M  END
>  <TORSDO>  (89) 
F 19

>  <SCORE>  (89) 
-14.512

>  <name>  (89) 
90

>  <ligand_id>  (89) 
90

>  <original_smiles>  (89) 
[H]c1c([H])c([H])c2c(c1[H])C([H])([H])C([H])([H])C([H])([H])C2([H])N([H])C(=O)C1([H])N(C(=O)C([H])(N([H])C(=O)C([H])(N([H])C([H])([H])[H])C([H])([H])[H])C(C([H])([H])[H])(C([H])([H])[H])C([H])([H])[H])C([H])([H])c2c([H])c(OC([H])([H])C([H])([H])[N+]([H])([H])C([H])([H])c3c([H])c([H])c4c(c3[H])C([H])([H])C([H])([H])N(C(=O)N3C([H])([H])C([H])([H])C([H])([H])C([H])(n5nc(-c6c([H])c([H])c(Oc7c([H])c([H])c(F)c([H])c7F)c([H])c6[H])c(C(=O)N([H])[H])c5N([H])[H])C3([H])[H])C([H])([H])C4([H])[H])c([H])c([H])c2C1([H])[H]

>  <smiles>  (89) 
[H]c1c([H])c([H])c2c(c1[H])C([H])([H])C([H])([H])C([H])([H])C2([H])N([H])C(=O)C1([H])N(C(=O)C([H])(N([H])C(=O)C([H])(N([H])C([H])([H])[H])C([H])([H])[H])C(C([H])([H])[H])(C([H])([H])[H])C([H])([H])[H])C([H])([H])c2c([H])c(OC([H])([H])C([H])([H])[N+]([H])([H])C([H])([H])c3c([H])c([H])c4c(c3[H])C([H])([H])C([H])([H])N(C(=O)N3C([H])([H])C([H])([H])C([H])([H])C([H])(n5nc(-c6c([H])c([H])c(Oc7c([H])c([H])c(F)c([H])c7F)c([H])c6[H])c(C(=O)N([H])[H])c5N([H])[H])C3([H])[H])C([H])([H])C4([H])[H])c([H])c([H])c2C1([H])[H]

$$$$
91:0:0
     RDKit          3D

 96104  0  0  1  0  0  0  0  0999 V2000
  -31.6120  -23.3670   20.0520 C   0  0  0  0  0  3  0  0  0  0  0  0
  -30.5350  -24.0620   20.6340 C   0  0  0  0  0  3  0  0  0  0  0  0
  -30.8010  -23.9710   17.8330 C   0  0  0  0  0  3  0  0  0  0  0  0
  -31.7490  -23.3230   18.6490 C   0  0  0  0  0  0  0  0  0  0  0  0
  -29.5800  -24.7030   19.8180 C   0  0  0  0  0  0  0  0  0  0  0  0
  -29.7100  -24.6530   18.4080 C   0  0  0  0  0  0  0  0  0  0  0  0
  -28.6860  -25.3020   17.4910 C   0  0  0  0  0  1  0  0  0  0  0  0
  -32.8390  -22.4840   18.0100 C   0  0  0  0  0  2  0  0  0  0  0  0
  -32.2680  -20.1750   18.6520 C   0  0  0  0  0  0  0  0  0  0  0  0
  -32.3130  -21.1540   17.7430 N   0  0  0  0  0  0  0  0  0  0  0  0
  -32.9900  -20.1500   19.6520 O   0  0  0  0  0  0  0  0  0  0  0  0
  -31.7220  -21.0660   16.9260 H   0  0  0  0  0  0  0  0  0  0  0  0
  -31.1980  -19.1010   18.4540 C   0  0  0  0  0  2  0  0  0  0  0  0
  -30.1450  -19.1160   19.5890 C   0  0  0  0  0  2  0  0  0  0  0  0
  -30.2690  -17.9330   20.5700 C   0  0  0  0  0  2  0  0  0  0  0  0
  -29.6580  -16.6600   19.9710 C   0  0  0  0  0  2  0  0  0  0  0  0
  -30.6140  -14.4620   20.4730 C   0  0  0  0  0  0  0  0  0  0  0  0
  -30.3560  -12.3040   19.3550 C   0  0  0  0  0  2  0  0  0  0  0  0
  -29.4100  -12.5320   18.1570 C   0  0  0  0  0  2  0  0  0  0  0  0
  -27.9350  -12.3920   18.5830 C   0  0  0  0  0  2  0  0  0  0  0  0
  -27.6010  -13.2200   19.8530 C   0  0  0  0  0  3  0  0  0  0  0  0
  -28.6510  -12.9690   20.9610 C   0  0  0  0  0  2  0  0  0  0  0  0
  -29.9850  -13.2660   20.4020 N   0  0  0  0  0  0  0  0  0  0  0  0
  -31.7370  -14.6760   20.0060 O   0  0  0  0  0  0  0  0  0  0  0  0
  -29.7970  -15.4700   20.8070 N   0  0  0  0  0  0  0  0  0  0  0  0
  -28.9550  -15.1810   21.2860 H   0  0  0  0  0  0  0  0  0  0  0  0
  -25.1950  -13.8320   20.5490 C   0  0  0  0  0  0  0  0  0  0  0  0
  -24.1280  -13.0600   20.9220 C   0  0  0  0  0  0  0  0  0  0  0  0
  -24.5910  -11.7100   20.8940 C   0  0  0  0  0  0  0  0  0  0  0  0
  -26.2440  -12.9510   20.3260 N   0  0  0  0  0  0  0  0  0  0  0  0
  -25.8810  -11.6700   20.5880 N   0  0  0  0  0  0  0  0  0  0  0  0
  -23.8680  -10.4460   21.0890 C   0  0  0  0  0  0  0  0  0  0  0  0
  -24.3210   -9.4710   22.0030 C   0  0  0  0  0  3  0  0  0  0  0  0
  -23.6020   -8.2700   22.1860 C   0  0  0  0  0  3  0  0  0  0  0  0
  -22.4140   -8.0380   21.4530 C   0  0  0  0  0  0  0  0  0  0  0  0
  -21.9790   -9.0030   20.5270 C   0  0  0  0  0  3  0  0  0  0  0  0
  -22.6990  -10.1950   20.3430 C   0  0  0  0  0  3  0  0  0  0  0  0
  -21.6620   -6.8910   21.5440 O   0  0  0  0  0  0  0  0  0  0  0  0
  -21.6550   -6.1250   22.6820 C   0  0  0  0  0  0  0  0  0  0  0  0
  -21.2950   -6.6570   23.9390 C   0  0  0  0  0  3  0  0  0  0  0  0
  -21.2350   -5.8150   25.0670 C   0  0  0  0  0  3  0  0  0  0  0  0
  -21.5250   -4.4450   24.9410 C   0  0  0  0  0  0  0  0  0  0  0  0
  -21.8790   -3.9120   23.6890 C   0  0  0  0  0  3  0  0  0  0  0  0
  -21.9410   -4.7500   22.5620 C   0  0  0  0  0  0  0  0  0  0  0  0
  -22.2590   -4.2270   21.3540 F   0  0  0  0  0  0  0  0  0  0  0  0
  -21.4630   -3.6330   26.0240 F   0  0  0  0  0  0  0  0  0  0  0  0
  -22.7290  -13.5360   21.1950 C   0  0  0  0  0  0  0  0  0  0  0  0
  -22.0050  -12.8420   22.0670 N   0  0  0  0  0  0  0  0  0  0  0  0
  -22.2850  -14.5570   20.6720 O   0  0  0  0  0  0  0  0  0  0  0  0
  -22.3760  -12.0160   22.5130 H   0  0  0  0  0  0  0  0  0  0  0  0
  -21.0650  -13.1430   22.2890 H   0  0  0  0  0  0  0  0  0  0  0  0
  -25.3590  -15.2020   20.3620 N   0  0  0  0  0  0  0  0  0  0  0  0
  -24.5940  -15.8590   20.4600 H   0  0  0  0  0  0  0  0  0  0  0  0
  -26.2090  -15.6380   20.0300 H   0  0  0  0  0  0  0  0  0  0  0  0
  -28.4070  -25.4200   20.4630 C   0  0  0  0  0  2  0  0  0  0  0  0
  -28.4240  -26.8030   20.1300 O   0  0  0  0  0  0  0  0  0  0  0  0
  -24.5990  -31.8970   23.2320 C   0  0  0  0  0  0  0  0  0  0  0  0
  -27.2250  -27.4710   20.1590 C   0  0  0  0  0  0  0  0  0  0  0  0
  -23.3820  -30.4930   21.5990 C   0  0  0  0  0  3  0  0  0  0  0  0
  -24.8250  -28.9530   20.1770 C   0  0  0  0  0  0  0  0  0  0  0  0
  -25.9040  -30.8610   21.3820 C   0  0  0  0  0  2  0  0  0  0  0  0
  -25.9840  -29.4890   20.7520 C   0  0  0  0  0  0  0  0  0  0  0  0
  -27.1880  -28.7570   20.7360 C   0  0  0  0  0  3  0  0  0  0  0  0
  -26.0510  -26.9420   19.5780 C   0  0  0  0  0  3  0  0  0  0  0  0
  -24.8510  -27.6780   19.5860 C   0  0  0  0  0  3  0  0  0  0  0  0
  -23.5820  -29.8090   20.2200 C   0  0  0  0  0  2  0  0  0  0  0  0
  -24.6470  -31.0980   22.1300 N   0  0  0  0  0  0  0  0  0  0  0  0
  -23.5220  -32.1710   23.7780 O   0  0  0  0  0  0  0  0  0  0  0  0
  -22.7370  -29.4730   22.5640 C   0  0  0  0  0  0  0  0  0  0  0  0
  -21.4130  -29.2890   22.4380 N   0  0  0  0  0  0  0  0  0  0  0  0
  -23.4240  -28.8510   23.3780 O   0  0  0  0  0  0  0  0  0  0  0  0
  -20.9230  -29.8440   21.7520 H   0  0  0  0  0  0  0  0  0  0  0  0
  -18.0420  -28.0880   22.9300 C   0  0  0  0  0  0  0  0  0  0  0  0
  -20.5970  -28.3540   23.2110 C   0  0  0  0  0  3  0  0  0  0  0  0
  -20.7050  -26.9190   22.6450 C   0  0  0  0  0  2  0  0  0  0  0  0
  -19.6090  -26.5870   21.6280 C   0  0  0  0  0  2  0  0  0  0  0  0
  -18.2250  -26.7340   22.2650 C   0  0  0  0  0  2  0  0  0  0  0  0
  -19.1560  -28.8560   23.3590 C   0  0  0  0  0  0  0  0  0  0  0  0
  -18.9330  -30.1240   23.9380 C   0  0  0  0  0  3  0  0  0  0  0  0
  -17.6270  -30.6250   24.0910 C   0  0  0  0  0  3  0  0  0  0  0  0
  -16.5270  -29.8540   23.6780 C   0  0  0  0  0  3  0  0  0  0  0  0
  -16.7350  -28.5870   23.1060 C   0  0  0  0  0  3  0  0  0  0  0  0
  -25.8900  -32.5250   23.8450 C   0  0  0  0  0  3  0  0  0  0  0  0
  -25.5860  -33.9210   24.1810 N   0  0  0  0  0  0  0  0  0  0  0  0
  -25.9170  -34.9750   23.4210 C   0  0  0  0  0  0  0  0  0  0  0  0
  -26.5830  -34.8720   22.3870 O   0  0  0  0  0  0  0  0  0  0  0  0
  -24.9950  -34.0740   24.9840 H   0  0  0  0  0  0  0  0  0  0  0  0
  -24.1880  -36.7660   23.0710 C   0  0  0  0  0  1  0  0  0  0  0  0
  -25.4310  -36.3630   23.8800 C   0  0  0  0  0  3  0  0  0  0  0  0
  -27.5710  -37.2410   24.7030 C   0  0  0  0  0  1  0  0  0  0  0  0
  -26.4650  -37.4150   23.7660 N   0  0  0  0  0  0  0  0  0  0  0  0
  -26.0610  -38.3350   23.9200 H   0  0  0  0  0  0  0  0  0  0  0  0
  -26.4200  -31.7470   25.1110 C   0  0  1  0  0  0  0  0  0  0  0  0
  -25.3370  -31.5030   26.1900 C   0  0  0  0  0  1  0  0  0  0  0  0
  -26.9960  -30.3720   24.7010 C   0  0  0  0  0  1  0  0  0  0  0  0
  -27.5800  -32.5350   25.7640 C   0  0  0  0  0  1  0  0  0  0  0  0
  1  2  1  0
  3  6  2  0
  3  4  1  0
  4  1  2  0
  5 55  1  0
  5  2  2  0
  6  5  1  0
  7  6  1  0
  8  4  1  0
  9 11  2  0
 10  8  1  0
 10  9  1  0
 12 10  1  0
 13  9  1  0
 13 14  1  0
 14 15  1  0
 16 15  1  0
 16 25  1  0
 17 25  1  0
 18 23  1  0
 19 20  1  0
 19 18  1  0
 21 20  1  0
 21 30  1  0
 21 22  1  0
 23 17  1  0
 23 22  1  0
 24 17  2  0
 25 26  1  0
 27 28  2  0
 28 47  1  0
 29 28  1  0
 29 32  1  0
 30 27  1  0
 30 31  1  0
 31 29  2  0
 32 33  1  0
 33 34  2  0
 35 38  1  0
 35 34  1  0
 36 35  2  0
 37 36  1  0
 37 32  2  0
 38 39  1  0
 39 40  1  0
 40 41  2  0
 42 41  1  0
 42 46  1  0
 43 42  2  0
 44 39  2  0
 44 43  1  0
 45 44  1  0
 47 48  1  0
 48 51  1  0
 48 50  1  0
 49 47  2  0
 52 53  1  0
 52 27  1  0
 54 52  1  0
 56 58  1  0
 56 55  1  0
 57 68  2  0
 58 63  1  0
 59 67  1  0
 59 69  1  0
 60 66  1  0
 60 62  1  0
 61 67  1  0
 62 61  1  0
 63 62  2  0
 64 65  1  0
 64 58  2  0
 65 60  2  0
 66 59  1  0
 67 57  1  0
 69 71  2  0
 70 69  1  0
 72 70  1  0
 73 82  2  0
 73 78  1  0
 74 70  1  0
 74 78  1  0
 75 74  1  0
 76 77  1  0
 76 75  1  0
 77 73  1  0
 78 79  2  0
 79 80  1  0
 81 80  2  0
 82 81  1  0
 83 57  1  0
 83 84  1  0
 83 93  1  0
 84 87  1  0
 85 89  1  0
 85 84  1  0
 86 85  2  0
 89 88  1  0
 91 89  1  0
 91 92  1  0
 91 90  1  0
 93 96  1  1
 93 94  1  0
 95 93  1  0
M  ISO  4  17 100  25 100  55 101  56 101
M  END
>  <TORSDO>  (90) 
F 23

>  <SCORE>  (90) 
-12.725

>  <name>  (90) 
91

>  <ligand_id>  (90) 
91

>  <original_smiles>  (90) 
[H]c1c([H])c([H])c2c(c1[H])C([H])([H])C([H])([H])C([H])([H])C2([H])N([H])C(=O)C1([H])N(C(=O)C([H])(N([H])C(=O)C([H])(N([H])C([H])([H])[H])C([H])([H])[H])C(C([H])([H])[H])(C([H])([H])[H])C([H])([H])[H])C([H])([H])c2c([H])c(OC([H])([H])c3c([H])c([H])c(C([H])([H])N([H])C(=O)C([H])([H])C([H])([H])C([H])([H])C([H])([H])N([H])C(=O)N4C([H])([H])C([H])([H])C([H])([H])C([H])(n5nc(-c6c([H])c([H])c(Oc7c([H])c([H])c(F)c([H])c7F)c([H])c6[H])c(C(=O)N([H])[H])c5N([H])[H])C4([H])[H])c([H])c3C([H])([H])[H])c([H])c([H])c2C1([H])[H]

>  <smiles>  (90) 
[H]c1c([H])c([H])c2c(c1[H])C([H])([H])C([H])([H])C([H])([H])C2([H])N([H])C(=O)C1([H])N(C(=O)C([H])(N([H])C(=O)C([H])(N([H])C([H])([H])[H])C([H])([H])[H])C(C([H])([H])[H])(C([H])([H])[H])C([H])([H])[H])C([H])([H])c2c([H])c(OC([H])([H])c3c([H])c([H])c(C([H])([H])N([H])C(=O)C([H])([H])C([H])([H])C([H])([H])C([H])([H])N([H])C(=O)N4C([H])([H])C([H])([H])C([H])([H])C([H])(n5nc(-c6c([H])c([H])c(Oc7c([H])c([H])c(F)c([H])c7F)c([H])c6[H])c(C(=O)N([H])[H])c5N([H])[H])C4([H])[H])c([H])c3C([H])([H])[H])c([H])c([H])c2C1([H])[H]

$$$$
92:0:0
     RDKit          3D

100111  0  0  1  0  0  0  0  0999 V2000
  -27.1880  -23.4770   19.8640 C   0  0  0  0  0  0  0  0  0  0  0  0
  -27.3710  -22.1760   20.5930 C   0  0  0  0  0  2  0  0  0  0  0  0
  -27.8860  -23.5140   18.4530 C   0  0  0  0  0  2  0  0  0  0  0  0
  -28.8710  -21.9800   20.7990 C   0  0  0  0  0  2  0  0  0  0  0  0
  -31.6060  -22.1180   13.9500 C   0  0  0  0  0  2  0  0  0  0  0  0
  -30.7900  -21.8550   15.2170 C   0  0  0  0  0  2  0  0  0  0  0  0
  -30.9840  -24.4930   14.6000 C   0  0  0  0  0  2  0  0  0  0  0  0
  -30.6230  -24.9710   17.2380 C   0  0  0  0  0  2  0  0  0  0  0  0
  -31.8100  -23.6170   13.5720 C   0  0  0  0  0  3  0  0  0  0  0  0
  -29.6050  -21.9450   19.4660 C   0  0  0  0  0  3  0  0  0  0  0  0
  -31.3300  -24.1670   16.1130 C   0  0  0  0  0  3  0  0  0  0  0  0
  -30.7820  -22.8920   18.9830 C   0  0  0  0  0  3  0  0  0  0  0  0
  -30.4460  -22.2420   17.6680 C   0  0  0  0  0  3  0  0  0  0  0  0
  -30.8870  -24.4340   18.7230 C   0  0  0  0  0  3  0  0  0  0  0  0
  -28.8920  -22.2940   18.1380 C   0  0  2  0  0  0  0  0  0  0  0  0
  -31.2890  -22.6440   16.4280 C   0  0  1  0  0  0  0  0  0  0  0  0
  -28.0530  -21.2340   17.4090 C   0  0  0  0  0  1  0  0  0  0  0  0
  -32.7500  -22.2160   16.7690 C   0  0  0  0  0  1  0  0  0  0  0  0
  -26.6070  -24.4120   20.5300 N   0  0  0  0  0  0  0  0  0  0  0  0
  -31.8010  -24.0990   12.0450 C   0  0  0  0  0  0  0  0  0  0  0  0
  -31.8920  -23.7130    9.5760 C   0  0  0  0  0  2  0  0  0  0  0  0
  -30.6620  -22.8760    9.1440 C   0  0  0  0  0  2  0  0  0  0  0  0
  -30.8840  -21.3620    9.3540 C   0  0  0  0  0  2  0  0  0  0  0  0
  -31.4700  -21.0690   10.7650 C   0  0  0  0  0  3  0  0  0  0  0  0
  -32.7150  -21.9690   10.9650 C   0  0  0  0  0  2  0  0  0  0  0  0
  -32.2240  -23.3480   10.9700 N   0  0  0  0  0  0  0  0  0  0  0  0
  -31.3830  -25.2470   11.8380 O   0  0  0  0  0  0  0  0  0  0  0  0
  -31.1120  -18.7050   11.7310 C   0  0  0  0  0  0  0  0  0  0  0  0
  -31.7590  -17.5250   11.5110 C   0  0  0  0  0  0  0  0  0  0  0  0
  -32.7850  -17.8160   10.5560 C   0  0  0  0  0  0  0  0  0  0  0  0
  -31.7670  -19.6530   10.9590 N   0  0  0  0  0  0  0  0  0  0  0  0
  -32.8050  -19.1090   10.2730 N   0  0  0  0  0  0  0  0  0  0  0  0
  -33.7080  -16.9280    9.8510 C   0  0  0  0  0  0  0  0  0  0  0  0
  -35.1030  -17.1550    9.8700 C   0  0  0  0  0  3  0  0  0  0  0  0
  -35.9760  -16.2800    9.1910 C   0  0  0  0  0  3  0  0  0  0  0  0
  -35.4600  -15.1650    8.4870 C   0  0  0  0  0  0  0  0  0  0  0  0
  -34.0670  -14.9620    8.4500 C   0  0  0  0  0  3  0  0  0  0  0  0
  -33.1980  -15.8360    9.1210 C   0  0  0  0  0  3  0  0  0  0  0  0
  -36.2310  -14.2770    7.7790 O   0  0  0  0  0  0  0  0  0  0  0  0
  -37.5470  -14.0540    8.0980 C   0  0  0  0  0  0  0  0  0  0  0  0
  -37.9340  -13.5780    9.3700 C   0  0  0  0  0  3  0  0  0  0  0  0
  -39.2900  -13.2960    9.6310 C   0  0  0  0  0  3  0  0  0  0  0  0
  -40.2550  -13.4800    8.6240 C   0  0  0  0  0  0  0  0  0  0  0  0
  -39.8710  -13.9500    7.3570 C   0  0  0  0  0  3  0  0  0  0  0  0
  -38.5190  -14.2330    7.0940 C   0  0  0  0  0  0  0  0  0  0  0  0
  -38.1490  -14.6650    5.8650 F   0  0  0  0  0  0  0  0  0  0  0  0
  -41.5560  -13.2020    8.8730 F   0  0  0  0  0  0  0  0  0  0  0  0
  -31.3940  -16.1770   12.0670 C   0  0  0  0  0  0  0  0  0  0  0  0
  -32.3810  -15.3360   12.3310 N   0  0  0  0  0  0  0  0  0  0  0  0
  -30.2210  -15.8850   12.3170 O   0  0  0  0  0  0  0  0  0  0  0  0
  -33.3420  -15.5870   12.1440 H   0  0  0  0  0  0  0  0  0  0  0  0
  -32.1810  -14.4260   12.7220 H   0  0  0  0  0  0  0  0  0  0  0  0
  -30.0140  -19.0600   12.5160 N   0  0  0  0  0  0  0  0  0  0  0  0
  -29.4800  -18.3810   13.0430 H   0  0  0  0  0  0  0  0  0  0  0  0
  -29.6060  -19.9820   12.5290 H   0  0  0  0  0  0  0  0  0  0  0  0
  -30.2240  -25.1620   19.7360 O   0  0  0  0  0  0  0  0  0  0  0  0
  -29.9780  -24.5490   20.4300 H   0  0  0  0  0  0  0  0  0  0  0  0
  -26.6570  -25.8150   20.1550 C   0  0  0  0  0  3  0  0  0  0  0  0
  -25.3330  -26.6300   20.4200 C   0  0  0  0  0  3  0  0  0  0  0  0
  -24.1440  -25.9960   20.9890 O   0  0  0  0  0  0  0  0  0  0  0  0
  -17.0870  -24.5680   20.7090 C   0  0  0  0  0  0  0  0  0  0  0  0
  -22.8910  -26.3010   20.4620 C   0  0  0  0  0  0  0  0  0  0  0  0
  -18.0090  -26.0000   18.9210 C   0  0  0  0  0  3  0  0  0  0  0  0
  -20.3550  -26.8950   19.3140 C   0  0  0  0  0  0  0  0  0  0  0  0
  -19.0930  -25.9670   21.2470 C   0  0  0  0  0  2  0  0  0  0  0  0
  -20.4180  -26.2820   20.5690 C   0  0  0  0  0  0  0  0  0  0  0  0
  -21.6840  -25.9910   21.1550 C   0  0  0  0  0  3  0  0  0  0  0  0
  -22.7750  -26.9060   19.1920 C   0  0  0  0  0  3  0  0  0  0  0  0
  -21.5330  -27.2170   18.6250 C   0  0  0  0  0  3  0  0  0  0  0  0
  -18.9870  -27.1890   18.7410 C   0  0  0  0  0  2  0  0  0  0  0  0
  -18.0500  -25.4500   20.3150 N   0  0  0  0  0  0  0  0  0  0  0  0
  -16.1670  -24.2380   19.9470 O   0  0  0  0  0  0  0  0  0  0  0  0
  -18.2980  -24.9340   17.8370 C   0  0  0  0  0  0  0  0  0  0  0  0
  -18.0690  -25.2860   16.5600 N   0  0  0  0  0  0  0  0  0  0  0  0
  -18.7260  -23.8190   18.1420 O   0  0  0  0  0  0  0  0  0  0  0  0
  -17.6640  -26.1940   16.3940 H   0  0  0  0  0  0  0  0  0  0  0  0
  -18.0760  -25.3410   12.9520 C   0  0  0  0  0  0  0  0  0  0  0  0
  -18.3050  -24.4610   15.3750 C   0  0  0  0  0  3  0  0  0  0  0  0
  -19.8180  -24.3410   15.0640 C   0  0  0  0  0  2  0  0  0  0  0  0
  -20.3210  -25.4360   14.1130 C   0  0  0  0  0  2  0  0  0  0  0  0
  -19.5900  -25.3340   12.7730 C   0  0  0  0  0  2  0  0  0  0  0  0
  -17.4750  -24.9610   14.1810 C   0  0  0  0  0  0  0  0  0  0  0  0
  -16.0740  -25.0590   14.3140 C   0  0  0  0  0  3  0  0  0  0  0  0
  -15.2720  -25.5170   13.2510 C   0  0  0  0  0  3  0  0  0  0  0  0
  -15.8730  -25.8580   12.0300 C   0  0  0  0  0  3  0  0  0  0  0  0
  -17.2690  -25.7750   11.8780 C   0  0  0  0  0  3  0  0  0  0  0  0
  -17.0810  -23.9530   22.1380 C   0  0  0  0  0  3  0  0  0  0  0  0
  -17.6640  -22.4880   22.1830 C   0  0  1  0  0  0  0  0  0  0  0  0
  -17.0310  -21.5360   21.1400 C   0  0  0  0  0  1  0  0  0  0  0  0
  -19.1930  -22.5070   21.9580 C   0  0  0  0  0  1  0  0  0  0  0  0
  -17.4380  -21.8750   23.5840 C   0  0  0  0  0  1  0  0  0  0  0  0
  -15.6950  -23.9830   22.6200 N   0  0  0  0  0  0  0  0  0  0  0  0
  -15.2040  -24.8890   23.4760 C   0  0  0  0  0  0  0  0  0  0  0  0
  -15.9030  -25.7590   24.0020 O   0  0  0  0  0  0  0  0  0  0  0  0
  -15.0540  -23.3290   22.1980 H   0  0  0  0  0  0  0  0  0  0  0  0
  -12.9520  -25.9230   23.0430 C   0  0  0  0  0  1  0  0  0  0  0  0
  -13.7000  -24.8140   23.8010 C   0  0  0  0  0  3  0  0  0  0  0  0
  -13.8060  -23.7400   26.0100 C   0  0  0  0  0  1  0  0  0  0  0  0
  -13.4030  -24.9190   25.2470 N   0  0  0  0  0  0  0  0  0  0  0  0
  -12.4090  -25.0710   25.4000 H   0  0  0  0  0  0  0  0  0  0  0  0
  1 19  2  0
  1  2  1  0
  2  4  1  0
  3  1  1  0
  5  6  1  0
  6 16  1  0
  8 14  1  0
  9 20  1  0
  9  5  1  0
  9  7  1  0
 10  4  1  0
 11  7  1  0
 11 16  1  0
 11  8  1  0
 12 10  1  0
 13 15  1  0
 13 12  1  0
 14 12  1  0
 14 56  1  0
 15  3  1  0
 15 10  1  0
 16 18  1  1
 16 13  1  0
 15 17  1  6
 21 26  1  0
 22 23  1  0
 22 21  1  0
 23 24  1  0
 24 31  1  0
 24 25  1  0
 25 26  1  0
 26 20  1  0
 27 20  2  0
 28 53  1  0
 29 28  2  0
 29 48  1  0
 30 29  1  0
 31 28  1  0
 32 30  2  0
 32 31  1  0
 33 34  1  0
 33 30  1  0
 35 34  2  0
 36 35  1  0
 37 36  2  0
 37 38  1  0
 38 33  2  0
 39 40  1  0
 39 36  1  0
 40 41  1  0
 41 42  2  0
 43 47  1  0
 43 42  1  0
 44 43  2  0
 45 44  1  0
 45 40  2  0
 46 45  1  0
 48 50  2  0
 48 49  1  0
 49 52  1  0
 51 49  1  0
 53 55  1  0
 53 54  1  0
 56 57  1  0
 58 59  2  0
 58 19  1  0
 59 60  1  0
 61 87  1  0
 62 60  1  0
 62 67  1  0
 63 71  1  0
 64 66  1  0
 66 67  2  0
 66 65  1  0
 68 62  2  0
 69 68  1  0
 69 64  2  0
 70 63  1  0
 70 64  1  0
 71 61  1  0
 71 65  1  0
 72 61  2  0
 73 75  2  0
 73 63  1  0
 74 73  1  0
 76 74  1  0
 77 82  1  0
 78 74  1  0
 79 78  1  0
 80 79  1  0
 81 77  1  0
 81 80  1  0
 82 83  2  0
 82 78  1  0
 84 83  1  0
 85 84  2  0
 86 85  1  0
 86 77  2  0
 87 88  1  0
 87 92  1  0
 88 91  1  1
 89 88  1  0
 90 88  1  0
 92 93  1  0
 93 97  1  0
 93 94  2  0
 95 92  1  0
 96 97  1  0
 97 99  1  0
 99100  1  0
 99 98  1  0
M  ISO  4   9 100  20 100  59 101  60 101
M  END
>  <TORSDO>  (91) 
F 19

>  <SCORE>  (91) 
-4.754

>  <name>  (91) 
92

>  <ligand_id>  (91) 
92

>  <original_smiles>  (91) 
[H]OC1([H])C([H])([H])C2([H])C([H])([H])C([H])(C(=O)N3C([H])([H])C([H])([H])C([H])([H])C([H])(n4nc(-c5c([H])c([H])c(Oc6c([H])c([H])c(F)c([H])c6F)c([H])c5[H])c(C(=O)N([H])[H])c4N([H])[H])C3([H])[H])C([H])([H])C([H])([H])C2(C([H])([H])[H])C2([H])C1([H])C1([H])C([H])([H])C([H])([H])C(=NC([H])([H])C([H])([H])Oc3c([H])c([H])c4c(c3[H])C([H])([H])N(C(=O)C([H])(N([H])C(=O)C([H])(N([H])C([H])([H])[H])C([H])([H])[H])C(C([H])([H])[H])(C([H])([H])[H])C([H])([H])[H])C([H])(C(=O)N([H])C3([H])c5c([H])c([H])c([H])c([H])c5C([H])([H])C([H])([H])C3([H])[H])C4([H])[H])C([H])([H])C12C([H])([H])[H]

>  <smiles>  (91) 
[H]OC1([H])C([H])([H])C2([H])C([H])([H])C([H])(C(=O)N3C([H])([H])C([H])([H])C([H])([H])C([H])(n4nc(-c5c([H])c([H])c(Oc6c([H])c([H])c(F)c([H])c6F)c([H])c5[H])c(C(=O)N([H])[H])c4N([H])[H])C3([H])[H])C([H])([H])C([H])([H])C2(C([H])([H])[H])C2([H])C1([H])C1([H])C([H])([H])C([H])([H])C(=NC([H])([H])C([H])([H])Oc3c([H])c([H])c4c(c3[H])C([H])([H])N(C(=O)C([H])(N([H])C(=O)C([H])(N([H])C([H])([H])[H])C([H])([H])[H])C(C([H])([H])[H])(C([H])([H])[H])C([H])([H])[H])C([H])(C(=O)N([H])C3([H])c5c([H])c([H])c([H])c([H])c5C([H])([H])C([H])([H])C3([H])[H])C4([H])[H])C([H])([H])C12C([H])([H])[H]

$$$$
93:0:0
     RDKit          3D

 89 97  0  0  1  0  0  0  0  0999 V2000
  -31.0870  -21.9210   17.8620 C   0  0  0  0  0  3  0  0  0  0  0  0
  -30.9660  -23.2870   18.0650 C   0  0  0  0  0  3  0  0  0  0  0  0
  -30.3240  -21.0380   18.6290 C   0  0  0  0  0  3  0  0  0  0  0  0
  -30.0060  -23.7620   18.9600 C   0  0  0  0  0  3  0  0  0  0  0  0
  -29.4150  -21.3820   19.6650 C   0  0  0  0  0  0  0  0  0  0  0  0
  -29.1270  -22.9640   19.7430 C   0  0  0  0  0  0  0  0  0  0  0  0
  -28.9880  -19.7900   20.2650 C   0  0  0  0  0  2  0  0  0  0  0  0
  -31.4440  -18.4430   19.9940 C   0  0  0  0  0  1  0  0  0  0  0  0
  -29.9790  -18.2440   20.4270 C   0  0  0  0  0  0  0  0  0  0  0  0
  -30.3770  -15.2910   20.2530 C   0  0  0  0  0  0  0  0  0  0  0  0
  -30.3280  -12.8460   19.3630 C   0  0  0  0  0  2  0  0  0  0  0  0
  -29.3950  -12.6310   18.1460 C   0  0  0  0  0  2  0  0  0  0  0  0
  -27.9580  -12.3480   18.6100 C   0  0  0  0  0  2  0  0  0  0  0  0
  -27.5140  -13.3150   19.7370 C   0  0  0  0  0  3  0  0  0  0  0  0
  -28.5760  -13.4790   20.8440 C   0  0  0  0  0  2  0  0  0  0  0  0
  -29.7900  -13.9920   20.1870 N   0  0  0  0  0  0  0  0  0  0  0  0
  -31.6010  -15.2510   20.0580 O   0  0  0  0  0  0  0  0  0  0  0  0
  -29.6430  -16.5910   20.3320 N   0  0  0  0  0  4  0  0  0  0  0  0
  -28.6510  -16.4190   20.3920 H   0  0  0  0  0  0  0  0  0  0  0  0
  -25.1550  -13.8650   20.5240 C   0  0  0  0  0  0  0  0  0  0  0  0
  -24.0990  -13.0860   20.9040 C   0  0  0  0  0  0  0  0  0  0  0  0
  -24.5700  -11.7370   20.8680 C   0  0  0  0  0  0  0  0  0  0  0  0
  -26.1960  -12.9930   20.2660 N   0  0  0  0  0  0  0  0  0  0  0  0
  -25.8590  -11.7060   20.5440 N   0  0  0  0  0  0  0  0  0  0  0  0
  -23.8480  -10.4730   21.0620 C   0  0  0  0  0  0  0  0  0  0  0  0
  -24.2990   -9.4980   21.9780 C   0  0  0  0  0  3  0  0  0  0  0  0
  -23.5750   -8.3000   22.1640 C   0  0  0  0  0  3  0  0  0  0  0  0
  -22.3850   -8.0690   21.4340 C   0  0  0  0  0  0  0  0  0  0  0  0
  -21.9520   -9.0340   20.5070 C   0  0  0  0  0  3  0  0  0  0  0  0
  -22.6760  -10.2220   20.3200 C   0  0  0  0  0  3  0  0  0  0  0  0
  -21.6290   -6.9260   21.5320 O   0  0  0  0  0  0  0  0  0  0  0  0
  -21.6180   -6.1640   22.6720 C   0  0  0  0  0  0  0  0  0  0  0  0
  -21.2460   -6.7020   23.9240 C   0  0  0  0  0  3  0  0  0  0  0  0
  -21.1820   -5.8680   25.0580 C   0  0  0  0  0  3  0  0  0  0  0  0
  -21.4780   -4.4960   24.9420 C   0  0  0  0  0  0  0  0  0  0  0  0
  -21.8440   -3.9580   23.6950 C   0  0  0  0  0  3  0  0  0  0  0  0
  -21.9100   -4.7890   22.5640 C   0  0  0  0  0  0  0  0  0  0  0  0
  -22.2410   -4.2610   21.3600 F   0  0  0  0  0  0  0  0  0  0  0  0
  -21.4100   -3.6920   26.0280 F   0  0  0  0  0  0  0  0  0  0  0  0
  -22.7040  -13.5590   21.1830 C   0  0  0  0  0  0  0  0  0  0  0  0
  -21.9830  -12.8670   22.0570 N   0  0  0  0  0  0  0  0  0  0  0  0
  -22.2600  -14.5810   20.6600 O   0  0  0  0  0  0  0  0  0  0  0  0
  -22.3550  -12.0440   22.5060 H   0  0  0  0  0  0  0  0  0  0  0  0
  -21.0460  -13.1680   22.2840 H   0  0  0  0  0  0  0  0  0  0  0  0
  -25.3100  -15.2360   20.3420 N   0  0  0  0  0  0  0  0  0  0  0  0
  -24.5420  -15.8880   20.4610 H   0  0  0  0  0  0  0  0  0  0  0  0
  -26.1430  -15.6730   19.9670 H   0  0  0  0  0  0  0  0  0  0  0  0
  -28.0580  -24.1890   20.3560 C   0  0  0  0  0  2  0  0  0  0  0  0
  -28.2260  -25.8440   20.2150 O   0  0  0  0  0  0  0  0  0  0  0  0
  -24.6490  -31.8420   23.1810 C   0  0  0  0  0  0  0  0  0  0  0  0
  -27.1920  -26.9250   20.2040 C   0  0  0  0  0  0  0  0  0  0  0  0
  -23.4480  -30.4290   21.5630 C   0  0  0  0  0  3  0  0  0  0  0  0
  -24.8880  -28.8060   20.1530 C   0  0  0  0  0  0  0  0  0  0  0  0
  -26.0140  -30.6380   21.4010 C   0  0  0  0  0  2  0  0  0  0  0  0
  -26.0820  -29.2190   20.7600 C   0  0  0  0  0  0  0  0  0  0  0  0
  -27.2290  -28.3020   20.7550 C   0  0  0  0  0  3  0  0  0  0  0  0
  -25.9660  -26.6620   19.5560 C   0  0  0  0  0  3  0  0  0  0  0  0
  -24.8560  -27.5480   19.5300 C   0  0  0  0  0  3  0  0  0  0  0  0
  -23.6700  -29.7280   20.1930 C   0  0  0  0  0  2  0  0  0  0  0  0
  -24.7260  -30.9970   22.1010 N   0  0  0  0  0  0  0  0  0  0  0  0
  -23.5610  -32.1350   23.7040 O   0  0  0  0  0  0  0  0  0  0  0  0
  -22.7580  -29.4430   22.5420 C   0  0  0  0  0  0  0  0  0  0  0  0
  -21.4270  -29.2780   22.4260 N   0  0  0  0  0  0  0  0  0  0  0  0
  -23.4280  -28.8270   23.3740 O   0  0  0  0  0  0  0  0  0  0  0  0
  -20.9380  -29.8270   21.7330 H   0  0  0  0  0  0  0  0  0  0  0  0
  -18.0510  -28.0600   22.9550 C   0  0  0  0  0  0  0  0  0  0  0  0
  -20.6090  -28.3470   23.2110 C   0  0  0  0  0  3  0  0  0  0  0  0
  -20.7180  -26.9070   22.6590 C   0  0  0  0  0  2  0  0  0  0  0  0
  -19.6170  -26.5620   21.6490 C   0  0  0  0  0  2  0  0  0  0  0  0
  -18.2360  -26.7040   22.2940 C   0  0  0  0  0  2  0  0  0  0  0  0
  -19.1640  -28.8370   23.3710 C   0  0  0  0  0  0  0  0  0  0  0  0
  -18.9340  -30.1030   23.9530 C   0  0  0  0  0  3  0  0  0  0  0  0
  -17.6240  -30.5910   24.1220 C   0  0  0  0  0  3  0  0  0  0  0  0
  -16.5260  -29.8110   23.7190 C   0  0  0  0  0  3  0  0  0  0  0  0
  -16.7400  -28.5480   23.1410 C   0  0  0  0  0  3  0  0  0  0  0  0
  -25.9210  -32.4930   23.8020 C   0  0  0  0  0  3  0  0  0  0  0  0
  -26.4500  -31.7240   25.0760 C   0  0  1  0  0  0  0  0  0  0  0  0
  -25.3660  -31.4830   26.1530 C   0  0  0  0  0  1  0  0  0  0  0  0
  -27.0380  -30.3470   24.6910 C   0  0  0  0  0  1  0  0  0  0  0  0
  -27.6020  -32.5250   25.7290 C   0  0  0  0  0  1  0  0  0  0  0  0
  -25.5950  -33.8860   24.1520 N   0  0  0  0  0  0  0  0  0  0  0  0
  -25.9020  -34.9590   23.4090 C   0  0  0  0  0  0  0  0  0  0  0  0
  -26.5550  -34.8780   22.3650 O   0  0  0  0  0  0  0  0  0  0  0  0
  -25.0120  -34.0210   24.9660 H   0  0  0  0  0  0  0  0  0  0  0  0
  -24.1480  -36.7440   23.1270 C   0  0  0  0  0  1  0  0  0  0  0  0
  -25.4140  -36.3370   23.9000 C   0  0  0  0  0  3  0  0  0  0  0  0
  -27.5600  -37.2390   24.6870 C   0  0  0  0  0  1  0  0  0  0  0  0
  -26.4340  -37.4030   23.7720 N   0  0  0  0  0  0  0  0  0  0  0  0
  -26.0210  -38.3170   23.9370 H   0  0  0  0  0  0  0  0  0  0  0  0
  1  2  2  0
  1  3  1  0
  2  4  1  0
  3  5  2  0
  4  6  2  0
  5  6  1  0
  5  7  1  0
  6 48  1  0
  7  9  1  0
  8  9  1  0
 10 18  1  0
 11 16  1  0
 12 13  1  0
 12 11  1  0
 14 13  1  0
 14 23  1  0
 14 15  1  0
 16 10  1  0
 16 15  1  0
 17 10  2  0
 18 19  1  0
 18  9  2  0
 20 21  2  0
 21 40  1  0
 22 21  1  0
 22 25  1  0
 23 20  1  0
 23 24  1  0
 24 22  2  0
 25 26  1  0
 26 27  2  0
 28 31  1  0
 28 27  1  0
 29 28  2  0
 30 29  1  0
 30 25  2  0
 31 32  1  0
 32 33  1  0
 33 34  2  0
 35 34  1  0
 35 39  1  0
 36 35  2  0
 37 32  2  0
 37 36  1  0
 38 37  1  0
 40 41  1  0
 41 44  1  0
 41 43  1  0
 42 40  2  0
 45 46  1  0
 45 20  1  0
 47 45  1  0
 49 48  1  0
 50 61  2  0
 51 49  1  0
 51 56  1  0
 52 60  1  0
 52 62  1  0
 53 59  1  0
 53 55  1  0
 54 60  1  0
 55 54  1  0
 56 55  2  0
 57 51  2  0
 58 57  1  0
 58 53  2  0
 59 52  1  0
 60 50  1  0
 62 64  2  0
 63 62  1  0
 65 63  1  0
 66 75  2  0
 66 71  1  0
 67 63  1  0
 67 71  1  0
 68 67  1  0
 69 70  1  0
 69 68  1  0
 70 66  1  0
 71 72  2  0
 72 73  1  0
 74 73  2  0
 75 74  1  0
 76 50  1  0
 76 81  1  0
 76 77  1  0
 77 80  1  1
 77 78  1  0
 79 77  1  0
 81 84  1  0
 82 86  1  0
 82 81  1  0
 83 82  2  0
 86 85  1  0
 88 86  1  0
 88 89  1  0
 88 87  1  0
M  ISO  4  10 100  18 100  48 101  49 101
M  END
>  <TORSDO>  (92) 
F 19

>  <SCORE>  (92) 
-16.558

>  <name>  (92) 
93

>  <ligand_id>  (92) 
93

>  <original_smiles>  (92) 
[H]c1c([H])c([H])c(C([H])([H])C([H])(N([H])C(=O)N2C([H])([H])C([H])([H])C([H])([H])C([H])(n3nc(-c4c([H])c([H])c(Oc5c([H])c([H])c(F)c([H])c5F)c([H])c4[H])c(C(=O)N([H])[H])c3N([H])[H])C2([H])[H])C([H])([H])[H])c(C([H])([H])Oc2c([H])c([H])c3c(c2[H])C([H])([H])N(C(=O)C([H])(N([H])C(=O)C([H])(N([H])C([H])([H])[H])C([H])([H])[H])C(C([H])([H])[H])(C([H])([H])[H])C([H])([H])[H])C([H])(C(=O)N([H])C2([H])c4c([H])c([H])c([H])c([H])c4C([H])([H])C([H])([H])C2([H])[H])C3([H])[H])c1[H]

>  <smiles>  (92) 
[H]c1c([H])c([H])c(C([H])([H])C([H])(N([H])C(=O)N2C([H])([H])C([H])([H])C([H])([H])C([H])(n3nc(-c4c([H])c([H])c(Oc5c([H])c([H])c(F)c([H])c5F)c([H])c4[H])c(C(=O)N([H])[H])c3N([H])[H])C2([H])[H])C([H])([H])[H])c(C([H])([H])Oc2c([H])c([H])c3c(c2[H])C([H])([H])N(C(=O)C([H])(N([H])C(=O)C([H])(N([H])C([H])([H])[H])C([H])([H])[H])C(C([H])([H])[H])(C([H])([H])[H])C([H])([H])[H])C([H])(C(=O)N([H])C2([H])c4c([H])c([H])c([H])c([H])c4C([H])([H])C([H])([H])C2([H])[H])C3([H])[H])c1[H]

$$$$
94:0:0
     RDKit          3D

 94103  0  0  1  0  0  0  0  0999 V2000
  -30.1100  -24.3410   20.1230 C   0  0  0  0  0  3  0  0  0  0  0  0
  -30.5390  -22.9960   20.1010 C   0  0  0  0  0  3  0  0  0  0  0  0
  -29.5920  -22.6610   22.3100 C   0  0  0  0  0  3  0  0  0  0  0  0
  -29.4320  -24.8720   21.2430 C   0  0  0  0  0  0  0  0  0  0  0  0
  -29.1810  -24.0100   22.3470 C   0  0  0  0  0  0  0  0  0  0  0  0
  -30.2940  -22.1450   21.2030 C   0  0  0  0  0  0  0  0  0  0  0  0
  -28.5010  -24.5080   23.6130 C   0  0  0  0  0  2  0  0  0  0  0  0
  -28.6210  -26.0230   23.7760 C   0  0  0  0  0  2  0  0  0  0  0  0
  -28.1730  -26.7300   22.4950 C   0  0  0  0  0  2  0  0  0  0  0  0
  -29.0730  -26.3750   21.2790 C   0  0  0  0  0  3  0  0  0  0  0  0
  -28.6340  -26.8790   19.9880 O   0  0  0  0  0  0  0  0  0  0  0  0
  -24.6680  -31.8640   23.1310 C   0  0  0  0  0  0  0  0  0  0  0  0
  -27.4780  -27.6280   19.9580 C   0  0  0  0  0  0  0  0  0  0  0  0
  -23.5080  -30.4390   21.4730 C   0  0  0  0  0  3  0  0  0  0  0  0
  -25.0180  -29.0140   19.9910 C   0  0  0  0  0  0  0  0  0  0  0  0
  -26.0070  -30.9420   21.2410 C   0  0  0  0  0  2  0  0  0  0  0  0
  -26.1560  -29.5910   20.5730 C   0  0  0  0  0  0  0  0  0  0  0  0
  -27.3910  -28.9120   20.5440 C   0  0  0  0  0  3  0  0  0  0  0  0
  -26.3360  -27.0700   19.3510 C   0  0  0  0  0  3  0  0  0  0  0  0
  -25.1050  -27.7540   19.3700 C   0  0  0  0  0  3  0  0  0  0  0  0
  -23.7300  -29.8030   20.0750 C   0  0  0  0  0  2  0  0  0  0  0  0
  -24.7470  -31.0960   22.0070 N   0  0  0  0  0  0  0  0  0  0  0  0
  -23.5810  -32.0670   23.6920 O   0  0  0  0  0  0  0  0  0  0  0  0
  -22.9240  -29.3640   22.4210 C   0  0  0  0  0  0  0  0  0  0  0  0
  -21.6140  -29.0950   22.2880 N   0  0  0  0  0  0  0  0  0  0  0  0
  -23.6450  -28.7800   23.2330 O   0  0  0  0  0  0  0  0  0  0  0  0
  -21.0870  -29.6240   21.6070 H   0  0  0  0  0  0  0  0  0  0  0  0
  -18.3350  -27.6490   22.7290 C   0  0  0  0  0  0  0  0  0  0  0  0
  -20.8600  -28.0960   23.0440 C   0  0  0  0  0  3  0  0  0  0  0  0
  -21.0810  -26.6780   22.4690 C   0  0  0  0  0  2  0  0  0  0  0  0
  -20.0230  -26.2760   21.4380 C   0  0  0  0  0  2  0  0  0  0  0  0
  -18.6220  -26.3160   22.0540 C   0  0  0  0  0  2  0  0  0  0  0  0
  -19.3850  -28.4910   23.1790 C   0  0  0  0  0  0  0  0  0  0  0  0
  -19.0630  -29.7330   23.7650 C   0  0  0  0  0  3  0  0  0  0  0  0
  -17.7210  -30.1370   23.9080 C   0  0  0  0  0  3  0  0  0  0  0  0
  -16.6850  -29.2920   23.4760 C   0  0  0  0  0  3  0  0  0  0  0  0
  -16.9920  -28.0490   22.8930 C   0  0  0  0  0  3  0  0  0  0  0  0
  -25.9310  -32.5430   23.7480 C   0  0  0  0  0  3  0  0  0  0  0  0
  -26.5060  -31.7730   25.0000 C   0  0  1  0  0  0  0  0  0  0  0  0
  -25.4440  -31.4620   26.0810 C   0  0  0  0  0  1  0  0  0  0  0  0
  -27.1460  -30.4340   24.5660 C   0  0  0  0  0  1  0  0  0  0  0  0
  -27.6280  -32.6080   25.6600 C   0  0  0  0  0  1  0  0  0  0  0  0
  -25.5630  -33.9190   24.1080 N   0  0  0  0  0  0  0  0  0  0  0  0
  -25.8410  -34.9980   23.3650 C   0  0  0  0  0  0  0  0  0  0  0  0
  -26.5060  -34.9420   22.3280 O   0  0  0  0  0  0  0  0  0  0  0  0
  -24.9790  -34.0340   24.9250 H   0  0  0  0  0  0  0  0  0  0  0  0
  -24.0330  -36.7190   23.0510 C   0  0  0  0  0  1  0  0  0  0  0  0
  -25.2930  -36.3550   23.8520 C   0  0  0  0  0  3  0  0  0  0  0  0
  -27.3860  -37.3200   24.7000 C   0  0  0  0  0  1  0  0  0  0  0  0
  -26.2770  -37.4560   23.7580 N   0  0  0  0  0  0  0  0  0  0  0  0
  -25.8290  -38.3540   23.9230 H   0  0  0  0  0  0  0  0  0  0  0  0
  -30.8830  -20.7310   21.2670 C   0  0  0  0  0  2  0  0  0  0  0  0
  -30.0070  -19.6060   20.6740 C   0  0  0  0  0  0  0  0  0  0  0  0
  -30.2160  -18.3720   21.1660 N   0  0  0  0  0  0  0  0  0  0  0  0
  -29.1940  -19.8310   19.7730 O   0  0  0  0  0  0  0  0  0  0  0  0
  -30.8920  -18.3020   21.9170 H   0  0  0  0  0  0  0  0  0  0  0  0
  -29.6120  -17.1160   20.6980 C   0  0  0  0  0  2  0  0  0  0  0  0
  -30.1270  -15.8770   21.4910 C   0  0  0  0  0  2  0  0  0  0  0  0
  -30.7060  -14.7440   20.6080 C   0  0  0  0  0  0  0  0  0  0  0  0
  -30.4180  -12.6760   19.2850 C   0  0  0  0  0  2  0  0  0  0  0  0
  -29.4750  -12.9490   18.0950 C   0  0  0  0  0  2  0  0  0  0  0  0
  -28.0020  -12.7730   18.5110 C   0  0  0  0  0  2  0  0  0  0  0  0
  -27.6590  -13.5220   19.8260 C   0  0  0  0  0  3  0  0  0  0  0  0
  -28.7100  -13.2190   20.9160 C   0  0  0  0  0  2  0  0  0  0  0  0
  -30.0340  -13.5800   20.3840 N   0  0  0  0  0  0  0  0  0  0  0  0
  -31.7950  -14.9740   20.0730 O   0  0  0  0  0  0  0  0  0  0  0  0
  -25.2240  -14.0560   20.4730 C   0  0  0  0  0  0  0  0  0  0  0  0
  -24.1750  -13.2520   20.8310 C   0  0  0  0  0  0  0  0  0  0  0  0
  -24.6840  -11.9170   20.8330 C   0  0  0  0  0  0  0  0  0  0  0  0
  -26.3050  -13.2080   20.2790 N   0  0  0  0  0  0  0  0  0  0  0  0
  -25.9820  -11.9190   20.5550 N   0  0  0  0  0  0  0  0  0  0  0  0
  -24.0000  -10.6330   21.0290 C   0  0  0  0  0  0  0  0  0  0  0  0
  -24.4240   -9.7090   22.0090 C   0  0  0  0  0  3  0  0  0  0  0  0
  -23.7360   -8.4900   22.1890 C   0  0  0  0  0  3  0  0  0  0  0  0
  -22.6100   -8.1860   21.3890 C   0  0  0  0  0  0  0  0  0  0  0  0
  -22.2060   -9.0980   20.3990 C   0  0  0  0  0  3  0  0  0  0  0  0
  -22.8960  -10.3080   20.2170 C   0  0  0  0  0  3  0  0  0  0  0  0
  -21.8960   -7.0150   21.4750 O   0  0  0  0  0  0  0  0  0  0  0  0
  -21.7970   -6.3180   22.6530 C   0  0  0  0  0  0  0  0  0  0  0  0
  -21.2440   -6.8970   23.8160 C   0  0  0  0  0  3  0  0  0  0  0  0
  -21.0960   -6.1240   24.9850 C   0  0  0  0  0  3  0  0  0  0  0  0
  -21.4900   -4.7720   24.9910 C   0  0  0  0  0  0  0  0  0  0  0  0
  -22.0350   -4.1930   23.8320 C   0  0  0  0  0  3  0  0  0  0  0  0
  -22.1840   -4.9630   22.6660 C   0  0  0  0  0  0  0  0  0  0  0  0
  -22.6910   -4.3940   21.5460 F   0  0  0  0  0  0  0  0  0  0  0  0
  -21.3410   -4.0280   26.1110 F   0  0  0  0  0  0  0  0  0  0  0  0
  -22.7570  -13.6840   21.0670 C   0  0  0  0  0  0  0  0  0  0  0  0
  -22.0360  -12.9730   21.9280 N   0  0  0  0  0  0  0  0  0  0  0  0
  -22.2950  -14.6870   20.5260 O   0  0  0  0  0  0  0  0  0  0  0  0
  -22.4240  -12.1620   22.3870 H   0  0  0  0  0  0  0  0  0  0  0  0
  -21.0840  -13.2450   22.1290 H   0  0  0  0  0  0  0  0  0  0  0  0
  -25.3460  -15.4290   20.2780 N   0  0  0  0  0  0  0  0  0  0  0  0
  -24.5540  -16.0570   20.3610 H   0  0  0  0  0  0  0  0  0  0  0  0
  -26.1900  -15.8940   19.9700 H   0  0  0  0  0  0  0  0  0  0  0  0
  1  4  1  0
  2  1  2  0
  2  6  1  0
  3  5  1  0
  4 10  1  0
  4  5  2  0
  5  7  1  0
  6 52  1  0
  6  3  2  0
  7  8  1  0
  9  8  1  0
 10 11  1  0
 10  9  1  0
 12 23  2  0
 13 11  1  0
 13 18  1  0
 14 22  1  0
 14 24  1  0
 15 21  1  0
 15 17  1  0
 16 22  1  0
 17 16  1  0
 18 17  2  0
 19 20  1  0
 19 13  2  0
 20 15  2  0
 21 14  1  0
 22 12  1  0
 24 26  2  0
 25 24  1  0
 27 25  1  0
 28 37  2  0
 28 33  1  0
 29 25  1  0
 29 33  1  0
 30 29  1  0
 31 32  1  0
 31 30  1  0
 32 28  1  0
 33 34  2  0
 34 35  1  0
 36 35  2  0
 37 36  1  0
 38 12  1  0
 38 43  1  0
 38 39  1  0
 39 42  1  1
 39 40  1  0
 41 39  1  0
 43 46  1  0
 44 48  1  0
 44 43  1  0
 45 44  2  0
 48 47  1  0
 50 48  1  0
 50 51  1  0
 50 49  1  0
 53 54  1  0
 53 52  1  0
 54 56  1  0
 55 53  2  0
 57 54  1  0
 57 58  1  0
 59 58  1  0
 60 65  1  0
 61 62  1  0
 61 60  1  0
 63 62  1  0
 63 70  1  0
 63 64  1  0
 65 59  1  0
 65 64  1  0
 66 59  2  0
 67 68  2  0
 68 69  1  0
 68 87  1  0
 69 72  1  0
 70 67  1  0
 70 71  1  0
 71 69  2  0
 72 73  1  0
 73 74  2  0
 75 78  1  0
 75 74  1  0
 76 75  2  0
 77 76  1  0
 77 72  2  0
 78 79  1  0
 79 84  2  0
 79 80  1  0
 80 81  2  0
 81 82  1  0
 82 86  1  0
 83 82  2  0
 84 83  1  0
 85 84  1  0
 87 88  1  0
 88 91  1  0
 88 90  1  0
 89 87  2  0
 92 93  1  0
 92 67  1  0
 94 92  1  0
M  ISO  4  10 101  11 101  58 100  59 100
M  END
>  <TORSDO>  (93) 
F 20

>  <SCORE>  (93) 
-13.446

>  <name>  (93) 
94

>  <ligand_id>  (93) 
94

>  <original_smiles>  (93) 
[H]c1c([H])c([H])c2c(c1[H])C([H])([H])C([H])([H])C([H])([H])C2([H])N([H])C(=O)C1([H])N(C(=O)C([H])(N([H])C(=O)C([H])(N([H])C([H])([H])[H])C([H])([H])[H])C(C([H])([H])[H])(C([H])([H])[H])C([H])([H])[H])C([H])([H])c2c([H])c(OC3([H])c4c([H])c([H])c(C([H])([H])C(=O)N([H])C([H])([H])C([H])([H])C(=O)N5C([H])([H])C([H])([H])C([H])([H])C([H])(n6nc(-c7c([H])c([H])c(Oc8c([H])c([H])c(F)c([H])c8F)c([H])c7[H])c(C(=O)N([H])[H])c6N([H])[H])C5([H])[H])c([H])c4C([H])([H])C([H])([H])C3([H])[H])c([H])c([H])c2C1([H])[H]

>  <smiles>  (93) 
[H]c1c([H])c([H])c2c(c1[H])C([H])([H])C([H])([H])C([H])([H])C2([H])N([H])C(=O)C1([H])N(C(=O)C([H])(N([H])C(=O)C([H])(N([H])C([H])([H])[H])C([H])([H])[H])C(C([H])([H])[H])(C([H])([H])[H])C([H])([H])[H])C([H])([H])c2c([H])c(OC3([H])c4c([H])c([H])c(C([H])([H])C(=O)N([H])C([H])([H])C([H])([H])C(=O)N5C([H])([H])C([H])([H])C([H])([H])C([H])(n6nc(-c7c([H])c([H])c(Oc8c([H])c([H])c(F)c([H])c8F)c([H])c7[H])c(C(=O)N([H])[H])c6N([H])[H])C5([H])[H])c([H])c4C([H])([H])C([H])([H])C3([H])[H])c([H])c([H])c2C1([H])[H]

$$$$
95:0:0
     RDKit          3D

 96105  0  0  1  0  0  0  0  0999 V2000
  -30.5850  -24.8370   20.0140 C   0  0  0  0  0  3  0  0  0  0  0  0
  -31.2640  -23.6280   20.2480 C   0  0  0  0  0  3  0  0  0  0  0  0
  -29.3460  -23.7850   18.2010 C   0  0  0  0  0  3  0  0  0  0  0  0
  -29.6060  -24.9120   19.0070 C   0  0  0  0  0  0  0  0  0  0  0  0
  -30.9620  -22.4800   19.4850 C   0  0  0  0  0  0  0  0  0  0  0  0
  -30.0080  -22.5600   18.4390 C   0  0  0  0  0  0  0  0  0  0  0  0
  -30.5710  -21.2140   16.3500 C   0  0  0  0  0  1  0  0  0  0  0  0
  -29.6480  -21.3600   17.5690 C   0  0  0  0  0  2  0  0  0  0  0  0
  -31.6790  -21.1920   19.8460 C   0  0  0  0  0  2  0  0  0  0  0  0
  -31.0030  -20.4410   21.0110 C   0  0  0  0  0  2  0  0  0  0  0  0
  -32.6210  -18.4690   20.7060 C   0  0  0  0  0  2  0  0  0  0  0  0
  -31.2230  -18.6330   22.8290 C   0  0  0  0  0  2  0  0  0  0  0  0
  -31.6340  -17.4290   20.1780 C   0  0  0  0  0  2  0  0  0  0  0  0
  -30.3310  -17.4880   22.3110 C   0  0  0  0  0  2  0  0  0  0  0  0
  -31.9370  -19.4260   21.7040 C   0  0  0  0  0  3  0  0  0  0  0  0
  -31.1510  -16.5810   21.3790 C   0  0  0  0  0  3  0  0  0  0  0  0
  -30.9800  -14.3530   20.3400 C   0  0  0  0  0  0  0  0  0  0  0  0
  -30.5370  -12.2540   19.1590 C   0  0  0  0  0  2  0  0  0  0  0  0
  -29.6040  -12.5190   17.9640 C   0  0  0  0  0  2  0  0  0  0  0  0
  -28.1310  -12.4360   18.4050 C   0  0  0  0  0  2  0  0  0  0  0  0
  -27.8310  -13.2820   19.6730 C   0  0  0  0  0  3  0  0  0  0  0  0
  -28.8830  -13.0140   20.7720 C   0  0  0  0  0  2  0  0  0  0  0  0
  -30.2150  -13.2460   20.1920 N   0  0  0  0  0  0  0  0  0  0  0  0
  -32.0940  -14.4620   19.8300 O   0  0  0  0  0  0  0  0  0  0  0  0
  -30.4310  -15.3650   21.0170 N   0  0  0  0  0  0  0  0  0  0  0  0
  -29.5010  -15.2260   21.3860 H   0  0  0  0  0  0  0  0  0  0  0  0
  -25.4420  -13.9380   20.3870 C   0  0  0  0  0  0  0  0  0  0  0  0
  -24.3640  -13.1810   20.7660 C   0  0  0  0  0  0  0  0  0  0  0  0
  -24.8090  -11.8250   20.7510 C   0  0  0  0  0  0  0  0  0  0  0  0
  -26.4740  -13.0390   20.1610 N   0  0  0  0  0  0  0  0  0  0  0  0
  -26.0940  -11.7660   20.4350 N   0  0  0  0  0  0  0  0  0  0  0  0
  -24.0680  -10.5740   20.9590 C   0  0  0  0  0  0  0  0  0  0  0  0
  -24.4940   -9.6090   21.8980 C   0  0  0  0  0  3  0  0  0  0  0  0
  -23.7540   -8.4220   22.0910 C   0  0  0  0  0  3  0  0  0  0  0  0
  -22.5760   -8.1920   21.3420 C   0  0  0  0  0  0  0  0  0  0  0  0
  -22.1710   -9.1430   20.3890 C   0  0  0  0  0  3  0  0  0  0  0  0
  -22.9110  -10.3210   20.1940 C   0  0  0  0  0  3  0  0  0  0  0  0
  -21.8050   -7.0590   21.4440 O   0  0  0  0  0  0  0  0  0  0  0  0
  -21.7470   -6.3280   22.6030 C   0  0  0  0  0  0  0  0  0  0  0  0
  -21.3420   -6.9050   23.8250 C   0  0  0  0  0  3  0  0  0  0  0  0
  -21.2330   -6.1050   24.9790 C   0  0  0  0  0  3  0  0  0  0  0  0
  -21.5170   -4.7270   24.9140 C   0  0  0  0  0  0  0  0  0  0  0  0
  -21.9140   -4.1490   23.6940 C   0  0  0  0  0  3  0  0  0  0  0  0
  -22.0280   -4.9470   22.5420 C   0  0  0  0  0  0  0  0  0  0  0  0
  -22.3900   -4.3800   21.3660 F   0  0  0  0  0  0  0  0  0  0  0  0
  -21.4060   -3.9570   26.0190 F   0  0  0  0  0  0  0  0  0  0  0  0
  -22.9730  -13.6760   21.0370 C   0  0  0  0  0  0  0  0  0  0  0  0
  -22.2400  -13.0000   21.9180 N   0  0  0  0  0  0  0  0  0  0  0  0
  -22.5460  -14.6990   20.5040 O   0  0  0  0  0  0  0  0  0  0  0  0
  -22.5900  -12.1650   22.3630 H   0  0  0  0  0  0  0  0  0  0  0  0
  -21.3080  -13.3170   22.1460 H   0  0  0  0  0  0  0  0  0  0  0  0
  -25.6220  -15.3020   20.1950 N   0  0  0  0  0  0  0  0  0  0  0  0
  -24.8700  -15.9750   20.2970 H   0  0  0  0  0  0  0  0  0  0  0  0
  -26.4770  -15.7150   19.8450 H   0  0  0  0  0  0  0  0  0  0  0  0
  -28.8310  -26.2000   18.8080 C   0  0  0  0  0  2  0  0  0  0  0  0
  -28.3780  -26.7140   20.0620 O   0  0  0  0  0  0  0  0  0  0  0  0
  -24.5900  -31.8200   23.2310 C   0  0  0  0  0  0  0  0  0  0  0  0
  -27.1910  -27.4070   20.0770 C   0  0  0  0  0  0  0  0  0  0  0  0
  -23.3590  -30.4290   21.5950 C   0  0  0  0  0  3  0  0  0  0  0  0
  -24.7890  -28.8850   20.1530 C   0  0  0  0  0  0  0  0  0  0  0  0
  -25.8810  -30.7760   21.3760 C   0  0  0  0  0  2  0  0  0  0  0  0
  -25.9510  -29.4080   20.7320 C   0  0  0  0  0  0  0  0  0  0  0  0
  -27.1530  -28.6690   20.7030 C   0  0  0  0  0  3  0  0  0  0  0  0
  -26.0060  -26.8750   19.5200 C   0  0  0  0  0  3  0  0  0  0  0  0
  -24.8060  -27.6120   19.5540 C   0  0  0  0  0  3  0  0  0  0  0  0
  -23.5480  -29.7470   20.2140 C   0  0  0  0  0  2  0  0  0  0  0  0
  -24.6280  -31.0210   22.1260 N   0  0  0  0  0  0  0  0  0  0  0  0
  -23.5160  -32.1010   23.7800 O   0  0  0  0  0  0  0  0  0  0  0  0
  -22.7080  -29.4120   22.5590 C   0  0  0  0  0  0  0  0  0  0  0  0
  -21.3800  -29.2490   22.4470 N   0  0  0  0  0  0  0  0  0  0  0  0
  -23.3920  -28.7740   23.3640 O   0  0  0  0  0  0  0  0  0  0  0  0
  -20.8900  -29.8170   21.7710 H   0  0  0  0  0  0  0  0  0  0  0  0
  -17.9970  -28.0890   22.9620 C   0  0  0  0  0  0  0  0  0  0  0  0
  -20.5590  -28.3160   23.2170 C   0  0  0  0  0  3  0  0  0  0  0  0
  -20.6430  -26.8880   22.6340 C   0  0  0  0  0  2  0  0  0  0  0  0
  -19.5280  -26.5770   21.6310 C   0  0  0  0  0  2  0  0  0  0  0  0
  -18.1520  -26.7380   22.2850 C   0  0  0  0  0  2  0  0  0  0  0  0
  -19.1270  -28.8380   23.3860 C   0  0  0  0  0  0  0  0  0  0  0  0
  -18.9280  -30.1050   23.9760 C   0  0  0  0  0  3  0  0  0  0  0  0
  -17.6310  -30.6210   24.1530 C   0  0  0  0  0  3  0  0  0  0  0  0
  -16.5140  -29.8680   23.7490 C   0  0  0  0  0  3  0  0  0  0  0  0
  -16.6980  -28.6050   23.1580 C   0  0  0  0  0  3  0  0  0  0  0  0
  -25.8870  -32.4370   23.8400 C   0  0  0  0  0  3  0  0  0  0  0  0
  -25.5920  -33.8320   24.1880 N   0  0  0  0  0  0  0  0  0  0  0  0
  -25.9150  -34.8890   23.4300 C   0  0  0  0  0  0  0  0  0  0  0  0
  -26.5650  -34.7910   22.3860 O   0  0  0  0  0  0  0  0  0  0  0  0
  -25.0140  -33.9850   25.0020 H   0  0  0  0  0  0  0  0  0  0  0  0
  -24.1810  -36.6840   23.1230 C   0  0  0  0  0  1  0  0  0  0  0  0
  -25.4400  -36.2750   23.9050 C   0  0  0  0  0  3  0  0  0  0  0  0
  -27.5900  -37.1530   24.7000 C   0  0  0  0  0  1  0  0  0  0  0  0
  -26.4730  -37.3260   23.7740 N   0  0  0  0  0  0  0  0  0  0  0  0
  -26.0730  -38.2480   23.9290 H   0  0  0  0  0  0  0  0  0  0  0  0
  -26.4210  -31.6500   25.1000 C   0  0  1  0  0  0  0  0  0  0  0  0
  -25.3400  -31.3930   26.1750 C   0  0  0  0  0  1  0  0  0  0  0  0
  -27.0010  -30.2790   24.6790 C   0  0  0  0  0  1  0  0  0  0  0  0
  -27.5780  -32.4340   25.7610 C   0  0  0  0  0  1  0  0  0  0  0  0
  1  2  1  0
  3  6  2  0
  3  4  1  0
  4  1  2  0
  5  9  1  0
  5  2  2  0
  6  5  1  0
  7  8  1  0
  8  6  1  0
  9 10  1  0
 11 15  1  0
 13 11  1  0
 13 16  1  0
 14 12  1  0
 15 10  1  0
 15 12  1  0
 16 25  1  0
 16 14  1  0
 17 25  1  0
 18 23  1  0
 19 20  1  0
 19 18  1  0
 21 20  1  0
 21 30  1  0
 21 22  1  0
 23 17  1  0
 23 22  1  0
 24 17  2  0
 25 26  1  0
 27 28  2  0
 28 47  1  0
 29 28  1  0
 29 32  1  0
 30 27  1  0
 30 31  1  0
 31 29  2  0
 32 33  1  0
 33 34  2  0
 35 38  1  0
 35 34  1  0
 36 35  2  0
 37 36  1  0
 37 32  2  0
 38 39  1  0
 39 40  1  0
 40 41  2  0
 42 41  1  0
 42 46  1  0
 43 42  2  0
 44 39  2  0
 44 43  1  0
 45 44  1  0
 47 48  1  0
 48 51  1  0
 48 50  1  0
 49 47  2  0
 52 53  1  0
 52 27  1  0
 54 52  1  0
 55  4  1  0
 55 56  1  0
 56 58  1  0
 57 68  2  0
 58 63  1  0
 59 67  1  0
 59 69  1  0
 60 66  1  0
 60 62  1  0
 61 67  1  0
 62 61  1  0
 63 62  2  0
 64 65  1  0
 64 58  2  0
 65 60  2  0
 66 59  1  0
 67 57  1  0
 69 71  2  0
 70 69  1  0
 72 70  1  0
 73 82  2  0
 73 78  1  0
 74 70  1  0
 74 78  1  0
 75 74  1  0
 76 77  1  0
 76 75  1  0
 77 73  1  0
 78 79  2  0
 79 80  1  0
 81 80  2  0
 82 81  1  0
 83 57  1  0
 83 84  1  0
 83 93  1  0
 84 87  1  0
 85 89  1  0
 85 84  1  0
 86 85  2  0
 89 88  1  0
 91 89  1  0
 91 92  1  0
 91 90  1  0
 93 96  1  1
 93 94  1  0
 95 93  1  0
M  ISO  4  17 100  25 100  55 101  56 101
M  END
>  <TORSDO>  (94) 
F 21

>  <SCORE>  (94) 
-13.441

>  <name>  (94) 
95

>  <ligand_id>  (94) 
95

>  <original_smiles>  (94) 
[H]c1c([H])c([H])c2c(c1[H])C([H])([H])C([H])([H])C([H])([H])C2([H])N([H])C(=O)C1([H])N(C(=O)C([H])(N([H])C(=O)C([H])(N([H])C([H])([H])[H])C([H])([H])[H])C(C([H])([H])[H])(C([H])([H])[H])C([H])([H])[H])C([H])([H])c2c([H])c(OC([H])([H])c3c([H])c([H])c(C([H])([H])C([H])([H])C4([H])C([H])([H])C([H])([H])C([H])(N([H])C(=O)N5C([H])([H])C([H])([H])C([H])([H])C([H])(n6nc(-c7c([H])c([H])c(Oc8c([H])c([H])c(F)c([H])c8F)c([H])c7[H])c(C(=O)N([H])[H])c6N([H])[H])C5([H])[H])C([H])([H])C4([H])[H])c(C([H])([H])C([H])([H])[H])c3[H])c([H])c([H])c2C1([H])[H]

>  <smiles>  (94) 
[H]c1c([H])c([H])c2c(c1[H])C([H])([H])C([H])([H])C([H])([H])C2([H])N([H])C(=O)C1([H])N(C(=O)C([H])(N([H])C(=O)C([H])(N([H])C([H])([H])[H])C([H])([H])[H])C(C([H])([H])[H])(C([H])([H])[H])C([H])([H])[H])C([H])([H])c2c([H])c(OC([H])([H])c3c([H])c([H])c(C([H])([H])C([H])([H])C4([H])C([H])([H])C([H])([H])C([H])(N([H])C(=O)N5C([H])([H])C([H])([H])C([H])([H])C([H])(n6nc(-c7c([H])c([H])c(Oc8c([H])c([H])c(F)c([H])c8F)c([H])c7[H])c(C(=O)N([H])[H])c6N([H])[H])C5([H])[H])C([H])([H])C4([H])[H])c(C([H])([H])C([H])([H])[H])c3[H])c([H])c([H])c2C1([H])[H]

$$$$
96:0:0
     RDKit          3D

 95103  0  0  1  0  0  0  0  0999 V2000
  -31.0310  -21.9510   21.6540 C   0  0  0  0  0  3  0  0  0  0  0  0
  -31.5090  -20.8280   20.9570 C   0  0  0  0  0  3  0  0  0  0  0  0
  -29.3100  -20.5320   19.9450 C   0  0  0  0  0  3  0  0  0  0  0  0
  -29.6990  -22.3890   21.4870 C   0  0  0  0  0  0  0  0  0  0  0  0
  -30.6580  -20.1390   20.0740 C   0  0  0  0  0  0  0  0  0  0  0  0
  -28.8170  -21.6490   20.6530 C   0  0  0  0  0  0  0  0  0  0  0  0
  -27.3590  -22.0450   20.4730 C   0  0  0  0  0  1  0  0  0  0  0  0
  -29.2760  -23.6620   22.1620 C   0  0  0  0  0  0  0  0  0  0  0  0
  -29.5880  -24.8160   21.5540 N   0  0  0  0  0  0  0  0  0  0  0  0
  -28.7000  -23.6330   23.2490 O   0  0  0  0  0  0  0  0  0  0  0  0
  -29.3510  -25.6610   22.0540 H   0  0  0  0  0  0  0  0  0  0  0  0
  -30.0150  -25.0060   20.1640 C   0  0  0  0  0  2  0  0  0  0  0  0
  -28.9070  -25.7110   19.3740 C   0  0  0  0  0  2  0  0  0  0  0  0
  -28.7350  -27.0060   19.9490 O   0  0  0  0  0  0  0  0  0  0  0  0
  -24.6640  -31.8050   23.2050 C   0  0  0  0  0  0  0  0  0  0  0  0
  -27.5010  -27.6180   19.9480 C   0  0  0  0  0  0  0  0  0  0  0  0
  -23.5160  -30.4190   21.5080 C   0  0  0  0  0  3  0  0  0  0  0  0
  -25.0330  -29.0000   20.0270 C   0  0  0  0  0  0  0  0  0  0  0  0
  -26.0230  -30.8910   21.3320 C   0  0  0  0  0  2  0  0  0  0  0  0
  -26.1630  -29.5520   20.6390 C   0  0  0  0  0  0  0  0  0  0  0  0
  -27.3930  -28.8620   20.6070 C   0  0  0  0  0  3  0  0  0  0  0  0
  -26.3500  -27.0780   19.3260 C   0  0  0  0  0  3  0  0  0  0  0  0
  -25.1200  -27.7580   19.3740 C   0  0  0  0  0  3  0  0  0  0  0  0
  -23.7520  -29.8020   20.1040 C   0  0  0  0  0  2  0  0  0  0  0  0
  -24.7510  -31.0520   22.0730 N   0  0  0  0  0  0  0  0  0  0  0  0
  -23.5730  -32.0130   23.7530 O   0  0  0  0  0  0  0  0  0  0  0  0
  -22.9090  -29.3360   22.4260 C   0  0  0  0  0  0  0  0  0  0  0  0
  -21.5980  -29.0930   22.2740 N   0  0  0  0  0  0  0  0  0  0  0  0
  -23.6150  -28.7180   23.2280 O   0  0  0  0  0  0  0  0  0  0  0  0
  -21.0890  -29.6450   21.5980 H   0  0  0  0  0  0  0  0  0  0  0  0
  -18.2830  -27.7190   22.6790 C   0  0  0  0  0  0  0  0  0  0  0  0
  -20.8190  -28.0920   23.0010 C   0  0  0  0  0  3  0  0  0  0  0  0
  -21.0020  -26.6880   22.3810 C   0  0  0  0  0  2  0  0  0  0  0  0
  -19.9320  -26.3450   21.3390 C   0  0  0  0  0  2  0  0  0  0  0  0
  -18.5360  -26.4020   21.9640 C   0  0  0  0  0  2  0  0  0  0  0  0
  -19.3560  -28.5200   23.1510 C   0  0  0  0  0  0  0  0  0  0  0  0
  -19.0660  -29.7530   23.7760 C   0  0  0  0  0  3  0  0  0  0  0  0
  -17.7360  -30.1860   23.9330 C   0  0  0  0  0  3  0  0  0  0  0  0
  -16.6770  -29.3800   23.4780 C   0  0  0  0  0  3  0  0  0  0  0  0
  -16.9510  -28.1490   22.8580 C   0  0  0  0  0  3  0  0  0  0  0  0
  -25.9260  -32.4590   23.8520 C   0  0  0  0  0  3  0  0  0  0  0  0
  -25.5790  -33.8470   24.1850 N   0  0  0  0  0  0  0  0  0  0  0  0
  -25.8940  -34.9100   23.4320 C   0  0  0  0  0  0  0  0  0  0  0  0
  -26.5790  -34.8260   22.4090 O   0  0  0  0  0  0  0  0  0  0  0  0
  -24.9690  -33.9860   24.9770 H   0  0  0  0  0  0  0  0  0  0  0  0
  -24.1210  -36.6540   23.0650 C   0  0  0  0  0  1  0  0  0  0  0  0
  -25.3660  -36.2830   23.8880 C   0  0  0  0  0  3  0  0  0  0  0  0
  -27.4660  -37.2250   24.7460 C   0  0  0  0  0  1  0  0  0  0  0  0
  -26.3720  -37.3630   23.7880 N   0  0  0  0  0  0  0  0  0  0  0  0
  -25.9390  -38.2720   23.9280 H   0  0  0  0  0  0  0  0  0  0  0  0
  -26.4400  -31.6910   25.1310 C   0  0  1  0  0  0  0  0  0  0  0  0
  -25.3340  -31.4190   26.1770 C   0  0  0  0  0  1  0  0  0  0  0  0
  -27.0610  -30.3300   24.7390 C   0  0  0  0  0  1  0  0  0  0  0  0
  -27.5580  -32.5070   25.8200 C   0  0  0  0  0  1  0  0  0  0  0  0
  -31.2170  -19.0240   19.2100 C   0  0  0  0  0  2  0  0  0  0  0  0
  -31.4560  -17.6870   19.9270 C   0  0  0  0  0  2  0  0  0  0  0  0
  -30.1950  -17.0880   20.6000 C   0  0  0  0  0  2  0  0  0  0  0  0
  -30.9110  -14.6380   20.3750 C   0  0  0  0  0  0  0  0  0  0  0  0
  -30.6150  -12.4820   19.2330 C   0  0  0  0  0  2  0  0  0  0  0  0
  -29.6760  -12.6940   18.0270 C   0  0  0  0  0  2  0  0  0  0  0  0
  -28.2020  -12.5560   18.4560 C   0  0  0  0  0  2  0  0  0  0  0  0
  -27.8620  -13.4060   19.7090 C   0  0  0  0  0  3  0  0  0  0  0  0
  -28.9100  -13.1750   20.8230 C   0  0  0  0  0  2  0  0  0  0  0  0
  -30.2440  -13.4610   20.2670 N   0  0  0  0  0  0  0  0  0  0  0  0
  -32.0320  -14.8140   19.8960 O   0  0  0  0  0  0  0  0  0  0  0  0
  -30.1740  -15.6400   20.8840 N   0  0  0  0  0  0  0  0  0  0  0  0
  -29.3230  -15.3180   21.3190 H   0  0  0  0  0  0  0  0  0  0  0  0
  -25.4580  -14.0250   20.3970 C   0  0  0  0  0  0  0  0  0  0  0  0
  -24.3860  -13.2550   20.7640 C   0  0  0  0  0  0  0  0  0  0  0  0
  -24.8460  -11.9030   20.7410 C   0  0  0  0  0  0  0  0  0  0  0  0
  -26.5030  -13.1410   20.1780 N   0  0  0  0  0  0  0  0  0  0  0  0
  -26.1380  -11.8600   20.4400 N   0  0  0  0  0  0  0  0  0  0  0  0
  -24.1180  -10.6420   20.9310 C   0  0  0  0  0  0  0  0  0  0  0  0
  -24.5380   -9.6840   21.8810 C   0  0  0  0  0  3  0  0  0  0  0  0
  -23.8130   -8.4860   22.0600 C   0  0  0  0  0  3  0  0  0  0  0  0
  -22.6530   -8.2380   21.2890 C   0  0  0  0  0  0  0  0  0  0  0  0
  -22.2510   -9.1820   20.3290 C   0  0  0  0  0  3  0  0  0  0  0  0
  -22.9780  -10.3710   20.1480 C   0  0  0  0  0  3  0  0  0  0  0  0
  -21.9020   -7.0900   21.3740 O   0  0  0  0  0  0  0  0  0  0  0  0
  -21.8310   -6.3610   22.5330 C   0  0  0  0  0  0  0  0  0  0  0  0
  -21.3640   -6.9250   23.7400 C   0  0  0  0  0  3  0  0  0  0  0  0
  -21.2430   -6.1210   24.8910 C   0  0  0  0  0  3  0  0  0  0  0  0
  -21.5790   -4.7550   24.8350 C   0  0  0  0  0  0  0  0  0  0  0  0
  -22.0390   -4.1910   23.6330 C   0  0  0  0  0  3  0  0  0  0  0  0
  -22.1620   -4.9920   22.4840 C   0  0  0  0  0  0  0  0  0  0  0  0
  -22.5860   -4.4400   21.3220 F   0  0  0  0  0  0  0  0  0  0  0  0
  -21.4540   -3.9800   25.9380 F   0  0  0  0  0  0  0  0  0  0  0  0
  -22.9880  -13.7330   21.0270 C   0  0  0  0  0  0  0  0  0  0  0  0
  -22.2600  -13.0470   21.9020 N   0  0  0  0  0  0  0  0  0  0  0  0
  -22.5500  -14.7520   20.4950 O   0  0  0  0  0  0  0  0  0  0  0  0
  -22.6290  -12.2230   22.3530 H   0  0  0  0  0  0  0  0  0  0  0  0
  -21.3230  -13.3500   22.1230 H   0  0  0  0  0  0  0  0  0  0  0  0
  -25.6270  -15.3950   20.2190 N   0  0  0  0  0  0  0  0  0  0  0  0
  -24.8620  -16.0510   20.3390 H   0  0  0  0  0  0  0  0  0  0  0  0
  -26.4810  -15.8320   19.9000 H   0  0  0  0  0  0  0  0  0  0  0  0
  2  1  2  0
  3  5  2  0
  3  6  1  0
  4  1  1  0
  4  8  1  0
  5  2  1  0
  6  4  2  0
  7  6  1  0
  8 10  2  0
  9 11  1  0
  9  8  1  0
 12  9  1  0
 13 14  1  0
 13 12  1  0
 15 26  2  0
 16 14  1  0
 16 21  1  0
 17 25  1  0
 17 27  1  0
 18 24  1  0
 18 20  1  0
 19 25  1  0
 20 19  1  0
 21 20  2  0
 22 23  1  0
 22 16  2  0
 23 18  2  0
 24 17  1  0
 25 15  1  0
 27 29  2  0
 28 27  1  0
 30 28  1  0
 31 40  2  0
 31 36  1  0
 32 28  1  0
 32 36  1  0
 33 32  1  0
 34 35  1  0
 34 33  1  0
 35 31  1  0
 36 37  2  0
 37 38  1  0
 39 38  2  0
 40 39  1  0
 41 15  1  0
 41 42  1  0
 41 51  1  0
 42 45  1  0
 43 47  1  0
 43 42  1  0
 44 43  2  0
 47 46  1  0
 49 47  1  0
 49 50  1  0
 49 48  1  0
 51 54  1  1
 51 52  1  0
 53 51  1  0
 55 56  1  0
 55  5  1  0
 56 57  1  0
 57 66  1  0
 58 66  1  0
 59 64  1  0
 60 61  1  0
 60 59  1  0
 62 61  1  0
 62 71  1  0
 62 63  1  0
 64 58  1  0
 64 63  1  0
 65 58  2  0
 66 67  1  0
 68 69  2  0
 69 88  1  0
 70 69  1  0
 70 73  1  0
 71 68  1  0
 71 72  1  0
 72 70  2  0
 73 74  1  0
 74 75  2  0
 76 79  1  0
 76 75  1  0
 77 76  2  0
 78 77  1  0
 78 73  2  0
 79 80  1  0
 80 81  1  0
 81 82  2  0
 83 82  1  0
 83 87  1  0
 84 83  2  0
 85 80  2  0
 85 84  1  0
 86 85  1  0
 88 89  1  0
 89 92  1  0
 89 91  1  0
 90 88  2  0
 93 94  1  0
 93 68  1  0
 95 93  1  0
M  ISO  4  13 101  14 101  58 100  66 100
M  END
>  <TORSDO>  (95) 
F 22

>  <SCORE>  (95) 
-12.623

>  <name>  (95) 
96

>  <ligand_id>  (95) 
96

>  <original_smiles>  (95) 
[H]c1c([H])c([H])c2c(c1[H])C([H])([H])C([H])([H])C([H])([H])C2([H])N([H])C(=O)C1([H])N(C(=O)C([H])(N([H])C(=O)C([H])(N([H])C([H])([H])[H])C([H])([H])[H])C(C([H])([H])[H])(C([H])([H])[H])C([H])([H])[H])C([H])([H])c2c([H])c(OC([H])([H])C([H])([H])N([H])C(=O)c3c([H])c([H])c(C([H])([H])C([H])([H])C([H])([H])N([H])C(=O)N4C([H])([H])C([H])([H])C([H])([H])C([H])(n5nc(-c6c([H])c([H])c(Oc7c([H])c([H])c(F)c([H])c7F)c([H])c6[H])c(C(=O)N([H])[H])c5N([H])[H])C4([H])[H])c([H])c3C([H])([H])[H])c([H])c([H])c2C1([H])[H]

>  <smiles>  (95) 
[H]c1c([H])c([H])c2c(c1[H])C([H])([H])C([H])([H])C([H])([H])C2([H])N([H])C(=O)C1([H])N(C(=O)C([H])(N([H])C(=O)C([H])(N([H])C([H])([H])[H])C([H])([H])[H])C(C([H])([H])[H])(C([H])([H])[H])C([H])([H])[H])C([H])([H])c2c([H])c(OC([H])([H])C([H])([H])N([H])C(=O)c3c([H])c([H])c(C([H])([H])C([H])([H])C([H])([H])N([H])C(=O)N4C([H])([H])C([H])([H])C([H])([H])C([H])(n5nc(-c6c([H])c([H])c(Oc7c([H])c([H])c(F)c([H])c7F)c([H])c6[H])c(C(=O)N([H])[H])c5N([H])[H])C4([H])[H])c([H])c3C([H])([H])[H])c([H])c([H])c2C1([H])[H]

$$$$
97:0:0
     RDKit          3D

 90 98  0  0  1  0  0  0  0  0999 V2000
  -31.1550  -22.4010   20.7130 C   0  0  0  0  0  3  0  0  0  0  0  0
  -30.7710  -21.0420   20.5800 C   0  0  0  0  0  3  0  0  0  0  0  0
  -30.2550  -23.4870   20.5570 C   0  0  0  0  0  3  0  0  0  0  0  0
  -28.5370  -21.8360   20.1200 C   0  0  0  0  0  3  0  0  0  0  0  0
  -29.4420  -20.6550   20.2890 C   0  0  0  0  0  0  0  0  0  0  0  0
  -28.8950  -23.2830   20.2510 C   0  0  0  0  0  0  0  0  0  0  0  0
  -29.1240  -19.0560   20.1310 C   0  0  0  0  0  0  0  0  0  0  0  0
  -28.0250  -18.7540   19.6630 O   0  0  0  0  0  0  0  0  0  0  0  0
  -30.5560  -17.9110   22.0360 C   0  0  0  0  0  1  0  0  0  0  0  0
  -30.1240  -17.7430   20.5660 C   0  0  0  0  0  3  0  0  0  0  0  0
  -30.5160  -15.0030   20.2650 C   0  0  0  0  0  0  0  0  0  0  0  0
  -30.3920  -12.6370   19.3450 C   0  0  0  0  0  2  0  0  0  0  0  0
  -29.4570  -12.5710   18.1170 C   0  0  0  0  0  2  0  0  0  0  0  0
  -27.9930  -12.3660   18.5530 C   0  0  0  0  0  2  0  0  0  0  0  0
  -27.5840  -13.3030   19.7210 C   0  0  0  0  0  3  0  0  0  0  0  0
  -28.6450  -13.3380   20.8410 C   0  0  0  0  0  2  0  0  0  0  0  0
  -29.9090  -13.7470   20.2160 N   0  0  0  0  0  0  0  0  0  0  0  0
  -31.7280  -15.0430   20.0330 O   0  0  0  0  0  0  0  0  0  0  0  0
  -29.7500  -16.2040   20.3830 N   0  0  0  0  0  0  0  0  0  0  0  0
  -28.7560  -16.0360   20.4310 H   0  0  0  0  0  0  0  0  0  0  0  0
  -25.2140  -13.8890   20.4820 C   0  0  0  0  0  0  0  0  0  0  0  0
  -24.1490  -13.1200   20.8600 C   0  0  0  0  0  0  0  0  0  0  0  0
  -24.6050  -11.7650   20.8240 C   0  0  0  0  0  0  0  0  0  0  0  0
  -26.2500  -13.0060   20.2330 N   0  0  0  0  0  0  0  0  0  0  0  0
  -25.8940  -11.7230   20.5070 N   0  0  0  0  0  0  0  0  0  0  0  0
  -23.8690  -10.5080   21.0140 C   0  0  0  0  0  0  0  0  0  0  0  0
  -24.2930   -9.5390   21.9520 C   0  0  0  0  0  3  0  0  0  0  0  0
  -23.5570   -8.3480   22.1330 C   0  0  0  0  0  3  0  0  0  0  0  0
  -22.3830   -8.1170   21.3750 C   0  0  0  0  0  0  0  0  0  0  0  0
  -21.9800   -9.0740   20.4270 C   0  0  0  0  0  3  0  0  0  0  0  0
  -22.7160  -10.2550   20.2440 C   0  0  0  0  0  3  0  0  0  0  0  0
  -21.6190   -6.9770   21.4630 O   0  0  0  0  0  0  0  0  0  0  0  0
  -21.5530   -6.2430   22.6200 C   0  0  0  0  0  0  0  0  0  0  0  0
  -21.1090   -6.8080   23.8360 C   0  0  0  0  0  3  0  0  0  0  0  0
  -20.9920   -6.0010   24.9850 C   0  0  0  0  0  3  0  0  0  0  0  0
  -21.3070   -4.6300   24.9180 C   0  0  0  0  0  0  0  0  0  0  0  0
  -21.7440   -4.0650   23.7080 C   0  0  0  0  0  3  0  0  0  0  0  0
  -21.8640   -4.8700   22.5600 C   0  0  0  0  0  0  0  0  0  0  0  0
  -22.2650   -4.3170   21.3900 F   0  0  0  0  0  0  0  0  0  0  0  0
  -21.1870   -3.8510   26.0190 F   0  0  0  0  0  0  0  0  0  0  0  0
  -22.7560  -13.6050   21.1340 C   0  0  0  0  0  0  0  0  0  0  0  0
  -22.0220  -12.9200   22.0050 N   0  0  0  0  0  0  0  0  0  0  0  0
  -22.3200  -14.6290   20.6080 O   0  0  0  0  0  0  0  0  0  0  0  0
  -22.3820  -12.0930   22.4560 H   0  0  0  0  0  0  0  0  0  0  0  0
  -21.0880  -13.2320   22.2280 H   0  0  0  0  0  0  0  0  0  0  0  0
  -25.3770  -15.2600   20.3020 N   0  0  0  0  0  0  0  0  0  0  0  0
  -24.6000  -15.9040   20.4030 H   0  0  0  0  0  0  0  0  0  0  0  0
  -26.2050  -15.7020   19.9240 H   0  0  0  0  0  0  0  0  0  0  0  0
  -27.9080  -24.6050   20.0480 C   0  0  0  0  0  2  0  0  0  0  0  0
  -28.2330  -26.1220   20.2920 O   0  0  0  0  0  0  0  0  0  0  0  0
  -24.6430  -31.8970   23.2520 C   0  0  0  0  0  0  0  0  0  0  0  0
  -27.1970  -27.1380   20.2260 C   0  0  0  0  0  0  0  0  0  0  0  0
  -23.4380  -30.5050   21.6140 C   0  0  0  0  0  3  0  0  0  0  0  0
  -24.8780  -28.9140   20.1970 C   0  0  0  0  0  0  0  0  0  0  0  0
  -25.9960  -30.7420   21.4590 C   0  0  0  0  0  2  0  0  0  0  0  0
  -26.0620  -29.3470   20.8070 C   0  0  0  0  0  0  0  0  0  0  0  0
  -27.2210  -28.4760   20.8060 C   0  0  0  0  0  3  0  0  0  0  0  0
  -25.9830  -26.8160   19.5760 C   0  0  0  0  0  3  0  0  0  0  0  0
  -24.8540  -27.6630   19.5650 C   0  0  0  0  0  3  0  0  0  0  0  0
  -23.6570  -29.8210   20.2390 C   0  0  0  0  0  2  0  0  0  0  0  0
  -24.7130  -31.0710   22.1630 N   0  0  0  0  0  0  0  0  0  0  0  0
  -23.5580  -32.1920   23.7760 O   0  0  0  0  0  0  0  0  0  0  0  0
  -22.7470  -29.5090   22.5790 C   0  0  0  0  0  0  0  0  0  0  0  0
  -21.4180  -29.3450   22.4480 N   0  0  0  0  0  0  0  0  0  0  0  0
  -23.4110  -28.8820   23.4080 O   0  0  0  0  0  0  0  0  0  0  0  0
  -20.9380  -29.9020   21.7540 H   0  0  0  0  0  0  0  0  0  0  0  0
  -18.0270  -28.1660   22.9440 C   0  0  0  0  0  0  0  0  0  0  0  0
  -20.5860  -28.4180   23.2210 C   0  0  0  0  0  3  0  0  0  0  0  0
  -20.6830  -26.9820   22.6560 C   0  0  0  0  0  2  0  0  0  0  0  0
  -19.5850  -26.6580   21.6380 C   0  0  0  0  0  2  0  0  0  0  0  0
  -18.2010  -26.8130   22.2750 C   0  0  0  0  0  2  0  0  0  0  0  0
  -19.1480  -28.9270   23.3730 C   0  0  0  0  0  0  0  0  0  0  0  0
  -18.9310  -30.1930   23.9610 C   0  0  0  0  0  3  0  0  0  0  0  0
  -17.6280  -30.6980   24.1230 C   0  0  0  0  0  3  0  0  0  0  0  0
  -16.5220  -29.9360   23.7090 C   0  0  0  0  0  3  0  0  0  0  0  0
  -16.7220  -28.6720   23.1250 C   0  0  0  0  0  3  0  0  0  0  0  0
  -25.9240  -32.5260   23.8800 C   0  0  0  0  0  3  0  0  0  0  0  0
  -26.4270  -31.7550   25.1630 C   0  0  1  0  0  0  0  0  0  0  0  0
  -25.3280  -31.5290   26.2280 C   0  0  0  0  0  1  0  0  0  0  0  0
  -27.0030  -30.3720   24.7860 C   0  0  0  0  0  1  0  0  0  0  0  0
  -27.5800  -32.5440   25.8290 C   0  0  0  0  0  1  0  0  0  0  0  0
  -25.6190  -33.9270   24.2140 N   0  0  0  0  0  0  0  0  0  0  0  0
  -25.9320  -34.9810   23.4490 C   0  0  0  0  0  0  0  0  0  0  0  0
  -26.5740  -34.8780   22.4010 O   0  0  0  0  0  0  0  0  0  0  0  0
  -25.0430  -34.0810   25.0290 H   0  0  0  0  0  0  0  0  0  0  0  0
  -24.1820  -36.7700   23.1610 C   0  0  0  0  0  1  0  0  0  0  0  0
  -25.4580  -36.3720   23.9200 C   0  0  0  0  0  3  0  0  0  0  0  0
  -27.6210  -37.2740   24.6560 C   0  0  0  0  0  1  0  0  0  0  0  0
  -26.4810  -37.4300   23.7560 N   0  0  0  0  0  0  0  0  0  0  0  0
  -26.0750  -38.3480   23.9130 H   0  0  0  0  0  0  0  0  0  0  0  0
  2  1  1  0
  3  1  2  0
  4  6  2  0
  4  5  1  0
  5  2  2  0
  6  3  1  0
  7  5  1  0
  7 10  1  0
  8  7  2  0
 10  9  1  0
 11 19  1  0
 12 17  1  0
 13 14  1  0
 13 12  1  0
 15 14  1  0
 15 24  1  0
 15 16  1  0
 17 11  1  0
 17 16  1  0
 18 11  2  0
 19 20  1  0
 19 10  1  0
 21 22  2  0
 22 41  1  0
 23 22  1  0
 23 26  1  0
 24 21  1  0
 24 25  1  0
 25 23  2  0
 26 27  1  0
 27 28  2  0
 29 32  1  0
 29 28  1  0
 30 29  2  0
 31 30  1  0
 31 26  2  0
 32 33  1  0
 33 34  1  0
 34 35  2  0
 36 35  1  0
 36 40  1  0
 37 36  2  0
 38 33  2  0
 38 37  1  0
 39 38  1  0
 41 42  1  0
 42 45  1  0
 42 44  1  0
 43 41  2  0
 46 47  1  0
 46 21  1  0
 48 46  1  0
 49  6  1  0
 49 50  1  0
 51 62  2  0
 52 50  1  0
 52 57  1  0
 53 61  1  0
 53 63  1  0
 54 60  1  0
 54 56  1  0
 55 61  1  0
 56 55  1  0
 57 56  2  0
 58 52  2  0
 59 58  1  0
 59 54  2  0
 60 53  1  0
 61 51  1  0
 63 65  2  0
 64 63  1  0
 66 64  1  0
 67 76  2  0
 67 72  1  0
 68 64  1  0
 68 72  1  0
 69 68  1  0
 70 71  1  0
 70 69  1  0
 71 67  1  0
 72 73  2  0
 73 74  1  0
 75 74  2  0
 76 75  1  0
 77 51  1  0
 77 82  1  0
 77 78  1  0
 78 81  1  1
 78 79  1  0
 80 78  1  0
 82 85  1  0
 83 87  1  0
 83 82  1  0
 84 83  2  0
 87 86  1  0
 89 90  1  0
 89 87  1  0
 89 88  1  0
M  ISO  4  11 100  19 100  49 101  50 101
M  END
>  <TORSDO>  (96) 
F 19

>  <SCORE>  (96) 
-14.638

>  <name>  (96) 
97

>  <ligand_id>  (96) 
97

>  <original_smiles>  (96) 
[H]c1c([H])c(C(=O)C([H])(N([H])C(=O)N2C([H])([H])C([H])([H])C([H])([H])C([H])(n3nc(-c4c([H])c([H])c(Oc5c([H])c([H])c(F)c([H])c5F)c([H])c4[H])c(C(=O)N([H])[H])c3N([H])[H])C2([H])[H])C([H])([H])[H])c([H])c(C([H])([H])Oc2c([H])c([H])c3c(c2[H])C([H])([H])N(C(=O)C([H])(N([H])C(=O)C([H])(N([H])C([H])([H])[H])C([H])([H])[H])C(C([H])([H])[H])(C([H])([H])[H])C([H])([H])[H])C([H])(C(=O)N([H])C2([H])c4c([H])c([H])c([H])c([H])c4C([H])([H])C([H])([H])C2([H])[H])C3([H])[H])c1[H]

>  <smiles>  (96) 
[H]c1c([H])c(C(=O)C([H])(N([H])C(=O)N2C([H])([H])C([H])([H])C([H])([H])C([H])(n3nc(-c4c([H])c([H])c(Oc5c([H])c([H])c(F)c([H])c5F)c([H])c4[H])c(C(=O)N([H])[H])c3N([H])[H])C2([H])[H])C([H])([H])[H])c([H])c(C([H])([H])Oc2c([H])c([H])c3c(c2[H])C([H])([H])N(C(=O)C([H])(N([H])C(=O)C([H])(N([H])C([H])([H])[H])C([H])([H])[H])C(C([H])([H])[H])(C([H])([H])[H])C([H])([H])[H])C([H])(C(=O)N([H])C2([H])c4c([H])c([H])c([H])c([H])c4C([H])([H])C([H])([H])C2([H])[H])C3([H])[H])c1[H]

$$$$
98:0:0
     RDKit          3D

 96104  0  0  1  0  0  0  0  0999 V2000
  -29.2280  -21.2170   18.2920 C   0  0  0  0  0  3  0  0  0  0  0  0
  -29.6020  -20.1790   20.4500 C   0  0  0  0  0  3  0  0  0  0  0  0
  -29.0840  -21.2620   19.6930 C   0  0  0  0  0  0  0  0  0  0  0  0
  -29.8850  -20.1490   17.6520 C   0  0  0  0  0  0  0  0  0  0  0  0
  -30.2140  -19.0630   19.8230 C   0  0  0  0  0  0  0  0  0  0  0  0
  -30.3710  -19.0560   18.4080 C   0  0  0  0  0  0  0  0  0  0  0  0
  -30.0220  -20.1890   16.1400 C   0  0  0  0  0  1  0  0  0  0  0  0
  -31.0180  -17.8880   17.6650 C   0  0  0  0  0  1  0  0  0  0  0  0
  -27.9720  -22.2290   21.8150 C   0  0  0  0  0  1  0  0  0  0  0  0
  -28.2960  -22.4280   20.3260 C   0  0  0  0  0  3  0  0  0  0  0  0
  -28.9440  -23.7540   20.1270 N   0  0  0  0  0  4  0  0  0  0  0  0
  -28.7630  -24.2930   20.9590 H   0  0  0  0  0  0  0  0  0  0  0  0
  -29.9420  -23.6270   20.0620 H   0  0  0  0  0  0  0  0  0  0  0  0
  -28.4250  -24.5540   18.9810 C   0  0  0  0  0  2  0  0  0  0  0  0
  -28.8570  -26.0390   18.9880 C   0  0  0  0  0  2  0  0  0  0  0  0
  -28.4430  -26.7970   20.1310 O   0  0  0  0  0  0  0  0  0  0  0  0
  -24.6080  -31.9210   23.2290 C   0  0  0  0  0  0  0  0  0  0  0  0
  -27.2610  -27.5080   20.0940 C   0  0  0  0  0  0  0  0  0  0  0  0
  -23.4020  -30.5260   21.5820 C   0  0  0  0  0  3  0  0  0  0  0  0
  -24.8540  -29.0050   20.1410 C   0  0  0  0  0  0  0  0  0  0  0  0
  -25.9270  -30.8880   21.3830 C   0  0  0  0  0  2  0  0  0  0  0  0
  -26.0090  -29.5210   20.7350 C   0  0  0  0  0  0  0  0  0  0  0  0
  -27.2100  -28.7730   20.7230 C   0  0  0  0  0  3  0  0  0  0  0  0
  -26.0790  -27.0060   19.4990 C   0  0  0  0  0  3  0  0  0  0  0  0
  -24.8820  -27.7450   19.5240 C   0  0  0  0  0  3  0  0  0  0  0  0
  -23.6050  -29.8540   20.1990 C   0  0  0  0  0  2  0  0  0  0  0  0
  -24.6640  -31.1260   22.1240 N   0  0  0  0  0  0  0  0  0  0  0  0
  -23.5270  -32.1880   23.7720 O   0  0  0  0  0  0  0  0  0  0  0  0
  -22.7560  -29.4970   22.5370 C   0  0  0  0  0  0  0  0  0  0  0  0
  -21.4290  -29.3190   22.4150 N   0  0  0  0  0  0  0  0  0  0  0  0
  -23.4430  -28.8610   23.3390 O   0  0  0  0  0  0  0  0  0  0  0  0
  -20.9390  -29.8860   21.7380 H   0  0  0  0  0  0  0  0  0  0  0  0
  -18.0520  -28.1410   22.9240 C   0  0  0  0  0  0  0  0  0  0  0  0
  -20.6130  -28.3780   23.1810 C   0  0  0  0  0  3  0  0  0  0  0  0
  -20.7030  -26.9550   22.5830 C   0  0  0  0  0  2  0  0  0  0  0  0
  -19.5910  -26.6520   21.5750 C   0  0  0  0  0  2  0  0  0  0  0  0
  -18.2160  -26.7990   22.2320 C   0  0  0  0  0  2  0  0  0  0  0  0
  -19.1780  -28.8900   23.3560 C   0  0  0  0  0  0  0  0  0  0  0  0
  -18.9730  -30.1480   23.9640 C   0  0  0  0  0  3  0  0  0  0  0  0
  -17.6730  -30.6560   24.1420 C   0  0  0  0  0  3  0  0  0  0  0  0
  -16.5610  -29.9030   23.7290 C   0  0  0  0  0  3  0  0  0  0  0  0
  -16.7510  -28.6480   23.1270 C   0  0  0  0  0  3  0  0  0  0  0  0
  -25.8950  -32.5490   23.8520 C   0  0  0  0  0  3  0  0  0  0  0  0
  -25.5870  -33.9470   24.1850 N   0  0  0  0  0  0  0  0  0  0  0  0
  -25.9210  -35.0000   23.4260 C   0  0  0  0  0  0  0  0  0  0  0  0
  -26.5900  -34.8970   22.3940 O   0  0  0  0  0  0  0  0  0  0  0  0
  -24.9880  -34.1020   24.9820 H   0  0  0  0  0  0  0  0  0  0  0  0
  -24.1960  -36.7950   23.0730 C   0  0  0  0  0  1  0  0  0  0  0  0
  -25.4350  -36.3870   23.8860 C   0  0  0  0  0  3  0  0  0  0  0  0
  -27.5680  -37.2670   24.7250 C   0  0  0  0  0  1  0  0  0  0  0  0
  -26.4700  -37.4380   23.7760 N   0  0  0  0  0  0  0  0  0  0  0  0
  -26.0650  -38.3590   23.9210 H   0  0  0  0  0  0  0  0  0  0  0  0
  -26.4120  -31.7730   25.1250 C   0  0  1  0  0  0  0  0  0  0  0  0
  -25.3170  -31.5320   26.1910 C   0  0  0  0  0  1  0  0  0  0  0  0
  -26.9930  -30.3970   24.7230 C   0  0  0  0  0  1  0  0  0  0  0  0
  -27.5650  -32.5630   25.7870 C   0  0  0  0  0  1  0  0  0  0  0  0
  -30.6170  -17.8550   20.6790 C   0  0  0  0  0  2  0  0  0  0  0  0
  -29.5600  -16.7360   20.5540 C   0  0  0  0  0  2  0  0  0  0  0  0
  -30.6440  -14.5080   20.5540 C   0  0  0  0  0  0  0  0  0  0  0  0
  -30.3980  -12.3810   19.3440 C   0  0  0  0  0  2  0  0  0  0  0  0
  -29.4560  -12.6440   18.1500 C   0  0  0  0  0  2  0  0  0  0  0  0
  -27.9810  -12.4770   18.5660 C   0  0  0  0  0  2  0  0  0  0  0  0
  -27.6430  -13.2720   19.8550 C   0  0  0  0  0  3  0  0  0  0  0  0
  -28.6870  -12.9770   20.9560 C   0  0  0  0  0  2  0  0  0  0  0  0
  -30.0240  -13.3060   20.4240 N   0  0  0  0  0  0  0  0  0  0  0  0
  -31.7190  -14.7840   20.0090 O   0  0  0  0  0  0  0  0  0  0  0  0
  -29.8920  -15.4410   21.1570 N   0  0  0  0  0  0  0  0  0  0  0  0
  -29.1430  -15.0440   21.7050 H   0  0  0  0  0  0  0  0  0  0  0  0
  -25.2310  -13.8710   20.5320 C   0  0  0  0  0  0  0  0  0  0  0  0
  -24.1630  -13.0930   20.8910 C   0  0  0  0  0  0  0  0  0  0  0  0
  -24.6330  -11.7440   20.8610 C   0  0  0  0  0  0  0  0  0  0  0  0
  -26.2840  -12.9950   20.3140 N   0  0  0  0  0  0  0  0  0  0  0  0
  -25.9240  -11.7100   20.5640 N   0  0  0  0  0  0  0  0  0  0  0  0
  -23.9150  -10.4780   21.0440 C   0  0  0  0  0  0  0  0  0  0  0  0
  -24.3410   -9.5170   21.9880 C   0  0  0  0  0  3  0  0  0  0  0  0
  -23.6230   -8.3150   22.1590 C   0  0  0  0  0  3  0  0  0  0  0  0
  -22.4650   -8.0640   21.3870 C   0  0  0  0  0  0  0  0  0  0  0  0
  -22.0580   -9.0140   20.4340 C   0  0  0  0  0  3  0  0  0  0  0  0
  -22.7760  -10.2080   20.2610 C   0  0  0  0  0  3  0  0  0  0  0  0
  -21.7210   -6.9120   21.4650 O   0  0  0  0  0  0  0  0  0  0  0  0
  -21.6540   -6.1760   22.6210 C   0  0  0  0  0  0  0  0  0  0  0  0
  -21.1780   -6.7290   23.8290 C   0  0  0  0  0  3  0  0  0  0  0  0
  -21.0600   -5.9200   24.9760 C   0  0  0  0  0  3  0  0  0  0  0  0
  -21.4040   -4.5560   24.9140 C   0  0  0  0  0  0  0  0  0  0  0  0
  -21.8730   -4.0020   23.7100 C   0  0  0  0  0  3  0  0  0  0  0  0
  -21.9940   -4.8090   22.5660 C   0  0  0  0  0  0  0  0  0  0  0  0
  -22.4260   -4.2650   21.4030 F   0  0  0  0  0  0  0  0  0  0  0  0
  -21.2840   -3.7750   26.0130 F   0  0  0  0  0  0  0  0  0  0  0  0
  -22.7630  -13.5620   21.1570 C   0  0  0  0  0  0  0  0  0  0  0  0
  -22.0360  -12.8530   22.0110 N   0  0  0  0  0  0  0  0  0  0  0  0
  -22.3220  -14.5910   20.6440 O   0  0  0  0  0  0  0  0  0  0  0  0
  -22.4100  -12.0190   22.4400 H   0  0  0  0  0  0  0  0  0  0  0  0
  -21.0950  -13.1450   22.2370 H   0  0  0  0  0  0  0  0  0  0  0  0
  -25.3840  -15.2440   20.3610 N   0  0  0  0  0  0  0  0  0  0  0  0
  -24.6040  -15.8830   20.4660 H   0  0  0  0  0  0  0  0  0  0  0  0
  -26.2270  -15.6990   20.0360 H   0  0  0  0  0  0  0  0  0  0  0  0
  1  3  1  0
  3 10  1  0
  3  2  2  0
  4  1  2  0
  4  6  1  0
  5  2  1  0
  5 57  1  0
  6  5  2  0
  7  4  1  0
  8  6  1  0
 10  9  1  0
 11 10  1  0
 11 12  1  0
 13 11  1  0
 14 15  1  0
 14 11  1  0
 15 16  1  0
 17 28  2  0
 18 16  1  0
 18 23  1  0
 19 27  1  0
 19 29  1  0
 20 26  1  0
 20 22  1  0
 21 27  1  0
 22 21  1  0
 23 22  2  0
 24 25  1  0
 24 18  2  0
 25 20  2  0
 26 19  1  0
 27 17  1  0
 29 31  2  0
 30 29  1  0
 32 30  1  0
 33 42  2  0
 33 38  1  0
 34 30  1  0
 34 38  1  0
 35 34  1  0
 36 37  1  0
 36 35  1  0
 37 33  1  0
 38 39  2  0
 39 40  1  0
 41 40  2  0
 42 41  1  0
 43 17  1  0
 43 44  1  0
 43 53  1  0
 44 47  1  0
 45 49  1  0
 45 44  1  0
 46 45  2  0
 49 48  1  0
 51 49  1  0
 51 52  1  0
 51 50  1  0
 53 56  1  1
 53 54  1  0
 55 53  1  0
 58 57  1  0
 58 67  1  0
 59 67  1  0
 60 65  1  0
 61 62  1  0
 61 60  1  0
 63 62  1  0
 63 72  1  0
 63 64  1  0
 65 59  1  0
 65 64  1  0
 66 59  2  0
 67 68  1  0
 69 70  2  0
 70 89  1  0
 71 70  1  0
 71 74  1  0
 72 69  1  0
 72 73  1  0
 73 71  2  0
 74 75  1  0
 75 76  2  0
 77 80  1  0
 77 76  1  0
 78 77  2  0
 79 78  1  0
 79 74  2  0
 80 81  1  0
 81 82  1  0
 82 83  2  0
 84 83  1  0
 84 88  1  0
 85 84  2  0
 86 81  2  0
 86 85  1  0
 87 86  1  0
 89 90  1  0
 90 93  1  0
 90 92  1  0
 91 89  2  0
 94 95  1  0
 94 69  1  0
 96 94  1  0
M  ISO  4  15 101  16 101  59 100  67 100
M  END
>  <TORSDO>  (97) 
F 22

>  <SCORE>  (97) 
-13.367

>  <name>  (97) 
98

>  <ligand_id>  (97) 
98

>  <original_smiles>  (97) 
[H]c1c([H])c([H])c2c(c1[H])C([H])([H])C([H])([H])C([H])([H])C2([H])N([H])C(=O)C1([H])N(C(=O)C([H])(N([H])C(=O)C([H])(N([H])C([H])([H])[H])C([H])([H])[H])C(C([H])([H])[H])(C([H])([H])[H])C([H])([H])[H])C([H])([H])c2c([H])c(OC([H])([H])C([H])([H])[N+]([H])([H])C([H])(c3c([H])c(C([H])([H])[H])c(C([H])([H])[H])c(C([H])([H])C([H])([H])N([H])C(=O)N4C([H])([H])C([H])([H])C([H])([H])C([H])(n5nc(-c6c([H])c([H])c(Oc7c([H])c([H])c(F)c([H])c7F)c([H])c6[H])c(C(=O)N([H])[H])c5N([H])[H])C4([H])[H])c3[H])C([H])([H])[H])c([H])c([H])c2C1([H])[H]

>  <smiles>  (97) 
[H]c1c([H])c([H])c2c(c1[H])C([H])([H])C([H])([H])C([H])([H])C2([H])N([H])C(=O)C1([H])N(C(=O)C([H])(N([H])C(=O)C([H])(N([H])C([H])([H])[H])C([H])([H])[H])C(C([H])([H])[H])(C([H])([H])[H])C([H])([H])[H])C([H])([H])c2c([H])c(OC([H])([H])C([H])([H])[N+]([H])([H])C([H])(c3c([H])c(C([H])([H])[H])c(C([H])([H])[H])c(C([H])([H])C([H])([H])N([H])C(=O)N4C([H])([H])C([H])([H])C([H])([H])C([H])(n5nc(-c6c([H])c([H])c(Oc7c([H])c([H])c(F)c([H])c7F)c([H])c6[H])c(C(=O)N([H])[H])c5N([H])[H])C4([H])[H])c3[H])C([H])([H])[H])c([H])c([H])c2C1([H])[H]

$$$$
99:0:0
     RDKit          3D

 88 94  0  0  1  0  0  0  0  0999 V2000
  -29.3660  -17.9070   20.1620 C   0  0  0  0  0  0  0  0  0  0  0  0
  -29.5480  -19.4440   20.5580 C   0  0  0  0  0  0  0  0  0  0  0  0
  -27.3020  -19.3210   18.9940 C   0  0  0  0  0  0  0  0  0  0  0  0
  -28.2040  -18.0160   19.1590 C   0  0  0  0  0  2  0  0  0  0  0  0
  -28.7780  -21.1890   20.0760 C   0  0  0  0  0  2  0  0  0  0  0  0
  -27.6200  -20.6080   19.3600 N   0  0  0  0  0  0  0  0  0  0  0  0
  -26.2110  -19.1530   18.4530 O   0  0  0  0  0  0  0  0  0  0  0  0
  -26.9090  -21.2870   19.1250 H   0  0  0  0  0  0  0  0  0  0  0  0
  -30.1080  -16.2080   20.2600 C   0  0  0  0  0  0  0  0  0  0  0  0
  -30.3150  -13.5460   19.4670 C   0  0  0  0  0  2  0  0  0  0  0  0
  -29.4840  -12.9260   18.2900 C   0  0  0  0  0  2  0  0  0  0  0  0
  -28.0950  -12.4720   18.7550 C   0  0  0  0  0  2  0  0  0  0  0  0
  -27.5110  -13.5000   19.7410 C   0  0  0  0  0  3  0  0  0  0  0  0
  -28.5020  -14.0130   20.8240 C   0  0  0  0  0  2  0  0  0  0  0  0
  -29.6120  -14.7700   20.1520 N   0  0  0  0  0  0  0  0  0  0  0  0
  -31.3480  -16.0010   20.2120 O   0  0  0  0  0  0  0  0  0  0  0  0
  -25.1560  -13.9820   20.5190 C   0  0  0  0  0  0  0  0  0  0  0  0
  -24.1010  -13.1930   20.8770 C   0  0  0  0  0  0  0  0  0  0  0  0
  -24.5800  -11.8470   20.8400 C   0  0  0  0  0  0  0  0  0  0  0  0
  -26.2080  -13.1240   20.2730 N   0  0  0  0  0  0  0  0  0  0  0  0
  -25.8770  -11.8270   20.5300 N   0  0  0  0  0  0  0  0  0  0  0  0
  -23.8520  -10.5810   21.0200 C   0  0  0  0  0  0  0  0  0  0  0  0
  -24.2720   -9.6090   21.9540 C   0  0  0  0  0  3  0  0  0  0  0  0
  -23.5370   -8.4150   22.1280 C   0  0  0  0  0  3  0  0  0  0  0  0
  -22.3660   -8.1860   21.3670 C   0  0  0  0  0  0  0  0  0  0  0  0
  -21.9640   -9.1460   20.4230 C   0  0  0  0  0  3  0  0  0  0  0  0
  -22.7000  -10.3300   20.2470 C   0  0  0  0  0  3  0  0  0  0  0  0
  -21.6040   -7.0440   21.4490 O   0  0  0  0  0  0  0  0  0  0  0  0
  -21.5440   -6.2980   22.5990 C   0  0  0  0  0  0  0  0  0  0  0  0
  -21.0970   -6.8490   23.8200 C   0  0  0  0  0  3  0  0  0  0  0  0
  -20.9830   -6.0310   24.9620 C   0  0  0  0  0  3  0  0  0  0  0  0
  -21.3070   -4.6620   24.8840 C   0  0  0  0  0  0  0  0  0  0  0  0
  -21.7470   -4.1120   23.6670 C   0  0  0  0  0  3  0  0  0  0  0  0
  -21.8620   -4.9270   22.5280 C   0  0  0  0  0  0  0  0  0  0  0  0
  -22.2650   -4.3850   21.3530 F   0  0  0  0  0  0  0  0  0  0  0  0
  -21.1930   -3.8740   25.9780 F   0  0  0  0  0  0  0  0  0  0  0  0
  -22.7010  -13.6650   21.1310 C   0  0  0  0  0  0  0  0  0  0  0  0
  -21.9680  -12.9700   21.9920 N   0  0  0  0  0  0  0  0  0  0  0  0
  -22.2670  -14.6890   20.6040 O   0  0  0  0  0  0  0  0  0  0  0  0
  -22.3330  -12.1430   22.4420 H   0  0  0  0  0  0  0  0  0  0  0  0
  -21.0260  -13.2690   22.2070 H   0  0  0  0  0  0  0  0  0  0  0  0
  -25.3050  -15.3540   20.3450 N   0  0  0  0  0  0  0  0  0  0  0  0
  -24.5270  -15.9970   20.4430 H   0  0  0  0  0  0  0  0  0  0  0  0
  -26.1460  -15.7990   20.0040 H   0  0  0  0  0  0  0  0  0  0  0  0
  -30.5400  -19.7400   21.4070 O   0  0  0  0  0  0  0  0  0  0  0  0
  -30.9730  -18.9290   21.6440 H   0  0  0  0  0  0  0  0  0  0  0  0
  -28.2950  -23.2130   20.6400 C   0  0  0  0  0 15  0  0  0  0  0  0
  -28.2340  -25.1320   20.3650 O   0  0  0  0  0  1  0  0  0  0  0  0
  -24.6990  -31.8630   23.2130 C   0  0  0  0  0  0  0  0  0  0  0  0
  -27.2650  -26.4690   20.3850 C   0  0  0  0  0  0  0  0  0  0  0  0
  -23.5470  -30.4230   21.5950 C   0  0  0  0  0  3  0  0  0  0  0  0
  -25.0170  -28.6920   20.2540 C   0  0  0  0  0  0  0  0  0  0  0  0
  -26.1400  -30.4860   21.5320 C   0  0  0  0  0  2  0  0  0  0  0  0
  -26.2140  -29.0060   20.9080 C   0  0  0  0  0  0  0  0  0  0  0  0
  -27.3080  -27.9360   20.9230 C   0  0  0  0  0  3  0  0  0  0  0  0
  -26.0260  -26.4480   19.6690 C   0  0  0  0  0  3  0  0  0  0  0  0
  -24.9810  -27.4420   19.6080 C   0  0  0  0  0  3  0  0  0  0  0  0
  -23.8200  -29.6770   20.2530 C   0  0  0  0  0  2  0  0  0  0  0  0
  -24.8230  -30.9670   22.1640 N   0  0  0  0  0  0  0  0  0  0  0  0
  -23.5950  -32.1770   23.6910 O   0  0  0  0  0  0  0  0  0  0  0  0
  -22.7980  -29.4850   22.5840 C   0  0  0  0  0  0  0  0  0  0  0  0
  -21.4640  -29.3390   22.4510 N   0  0  0  0  0  0  0  0  0  0  0  0
  -23.4340  -28.8830   23.4500 O   0  0  0  0  0  0  0  0  0  0  0  0
  -20.9930  -29.8750   21.7360 H   0  0  0  0  0  0  0  0  0  0  0  0
  -18.0690  -28.1240   22.9680 C   0  0  0  0  0  0  0  0  0  0  0  0
  -20.6280  -28.4160   23.2340 C   0  0  0  0  0  3  0  0  0  0  0  0
  -20.7380  -26.9730   22.6890 C   0  0  0  0  0  2  0  0  0  0  0  0
  -19.6440  -26.6270   21.6720 C   0  0  0  0  0  2  0  0  0  0  0  0
  -18.2590  -26.7690   22.3060 C   0  0  0  0  0  2  0  0  0  0  0  0
  -19.1800  -28.9050   23.3880 C   0  0  0  0  0  0  0  0  0  0  0  0
  -18.9430  -30.1660   23.9740 C   0  0  0  0  0  3  0  0  0  0  0  0
  -17.6320  -30.6500   24.1400 C   0  0  0  0  0  3  0  0  0  0  0  0
  -16.5370  -29.8700   23.7300 C   0  0  0  0  0  3  0  0  0  0  0  0
  -16.7560  -28.6070   23.1510 C   0  0  0  0  0  3  0  0  0  0  0  0
  -25.9390  -32.5480   23.8670 C   0  0  0  0  0  3  0  0  0  0  0  0
  -25.5930  -33.9550   24.1740 N   0  0  0  0  0  0  0  0  0  0  0  0
  -25.9250  -35.0190   23.4290 C   0  0  0  0  0  0  0  0  0  0  0  0
  -26.6030  -34.9220   22.4050 O   0  0  0  0  0  0  0  0  0  0  0  0
  -24.9870  -34.1010   24.9680 H   0  0  0  0  0  0  0  0  0  0  0  0
  -24.1840  -36.8140   23.0880 C   0  0  0  0  0  1  0  0  0  0  0  0
  -25.4340  -36.4120   23.8890 C   0  0  0  0  0  3  0  0  0  0  0  0
  -27.5640  -37.3270   24.7070 C   0  0  0  0  0  1  0  0  0  0  0  0
  -26.4580  -37.4740   23.7650 N   0  0  0  0  0  0  0  0  0  0  0  0
  -26.0440  -38.3930   23.9010 H   0  0  0  0  0  0  0  0  0  0  0  0
  -26.4130  -31.8270   25.1910 C   0  0  1  0  0  0  0  0  0  0  0  0
  -25.2870  -31.6240   26.2330 C   0  0  0  0  0  1  0  0  0  0  0  0
  -27.0140  -30.4390   24.8860 C   0  0  0  0  0  1  0  0  0  0  0  0
  -27.5390  -32.6500   25.8620 C   0  0  0  0  0  1  0  0  0  0  0  0
  1  9  1  0
  1  2  2  0
  2 45  1  0
  3  4  1  0
  3  6  1  0
  4  1  1  0
  5  2  1  0
  6  5  1  0
  7  3  2  0
  8  6  1  0
 10 15  1  0
 11 12  1  0
 11 10  1  0
 13 12  1  0
 13 20  1  0
 13 14  1  0
 15  9  1  0
 15 14  1  0
 16  9  2  0
 17 18  2  0
 18 37  1  0
 19 18  1  0
 19 22  1  0
 20 17  1  0
 20 21  1  0
 21 19  2  0
 22 23  1  0
 23 24  2  0
 25 28  1  0
 25 24  1  0
 26 25  2  0
 27 26  1  0
 27 22  2  0
 28 29  1  0
 29 30  1  0
 30 31  2  0
 32 31  1  0
 32 36  1  0
 33 32  2  0
 34 29  2  0
 34 33  1  0
 35 34  1  0
 37 38  1  0
 38 41  1  0
 38 40  1  0
 39 37  2  0
 42 43  1  0
 42 17  1  0
 44 42  1  0
 45 46  1  0
 48 50  1  0
 49 60  2  0
 50 55  1  0
 51 59  1  0
 51 61  1  0
 52 54  1  0
 53 59  1  0
 54 55  2  0
 54 53  1  0
 56 50  2  0
 57 56  1  0
 57 52  2  0
 58 52  1  0
 58 51  1  0
 59 49  1  0
 61 63  2  0
 62 61  1  0
 64 62  1  0
 65 74  2  0
 65 70  1  0
 66 62  1  0
 66 70  1  0
 67 66  1  0
 68 69  1  0
 68 67  1  0
 69 65  1  0
 70 71  2  0
 71 72  1  0
 73 72  2  0
 74 73  1  0
 75 49  1  0
 75 76  1  0
 75 85  1  0
 76 79  1  0
 77 81  1  0
 77 76  1  0
 78 77  2  0
 81 80  1  0
 83 81  1  0
 83 84  1  0
 83 82  1  0
 85 88  1  1
 85 86  1  0
 87 85  1  0
M  ISO  4   1 100   9 100  47 101  48 101
M  END
>  <TORSDO>  (98) 
F 18

>  <SCORE>  (98) 
-16.379

>  <name>  (98) 
99

>  <ligand_id>  (98) 
99

>  <original_smiles>  (98) 
[H]OC1=C(C(=O)N2C([H])([H])C([H])([H])C([H])([H])C([H])(n3nc(-c4c([H])c([H])c(Oc5c([H])c([H])c(F)c([H])c5F)c([H])c4[H])c(C(=O)N([H])[H])c3N([H])[H])C2([H])[H])C([H])([H])C(=O)N([H])C1([H])C([H])([H])Oc1c([H])c([H])c2c(c1[H])C([H])([H])N(C(=O)C([H])(N([H])C(=O)C([H])(N([H])C([H])([H])[H])C([H])([H])[H])C(C([H])([H])[H])(C([H])([H])[H])C([H])([H])[H])C([H])(C(=O)N([H])C1([H])c3c([H])c([H])c([H])c([H])c3C([H])([H])C([H])([H])C1([H])[H])C2([H])[H]

>  <smiles>  (98) 
[H]OC1=C(C(=O)N2C([H])([H])C([H])([H])C([H])([H])C([H])(n3nc(-c4c([H])c([H])c(Oc5c([H])c([H])c(F)c([H])c5F)c([H])c4[H])c(C(=O)N([H])[H])c3N([H])[H])C2([H])[H])C([H])([H])C(=O)N([H])C1([H])C([H])([H])Oc1c([H])c([H])c2c(c1[H])C([H])([H])N(C(=O)C([H])(N([H])C(=O)C([H])(N([H])C([H])([H])[H])C([H])([H])[H])C(C([H])([H])[H])(C([H])([H])[H])C([H])([H])[H])C([H])(C(=O)N([H])C1([H])c3c([H])c([H])c([H])c([H])c3C([H])([H])C([H])([H])C1([H])[H])C2([H])[H]

$$$$
