0:0:0
     RDKit          3D

 89 97  0  0  1  0  0  0  0  0999 V2000
  -27.2270  -22.8370   21.3840 C   0  0  0  0  0  3  0  0  0  0  0  0
  -27.4840  -24.2000   21.0860 C   0  0  0  0  0  3  0  0  0  0  0  0
  -29.3920  -23.3790   19.8620 C   0  0  0  0  0  3  0  0  0  0  0  0
  -28.0000  -21.7240   20.9450 C   0  0  0  0  0  0  0  0  0  0  0  0
  -29.1710  -21.8560   20.1460 C   0  0  0  0  0  0  0  0  0  0  0  0
  -28.5690  -24.6340   20.3010 C   0  0  0  0  0  0  0  0  0  0  0  0
  -27.4820  -20.3470   21.3260 C   0  0  0  0  0  1  0  0  0  0  0  0
  -28.6970  -26.1750   20.1540 O   0  0  0  0  0  0  0  0  0  0  0  0
  -24.8910  -31.9710   23.3500 C   0  0  0  0  0  0  0  0  0  0  0  0
  -27.6550  -27.2610   20.2000 C   0  0  0  0  0  0  0  0  0  0  0  0
  -23.7780  -30.6130   21.6240 C   0  0  0  0  0  3  0  0  0  0  0  0
  -25.3070  -29.1020   20.1770 C   0  0  0  0  0  0  0  0  0  0  0  0
  -26.3420  -30.8860   21.5560 C   0  0  0  0  0  2  0  0  0  0  0  0
  -26.4680  -29.5030   20.8490 C   0  0  0  0  0  0  0  0  0  0  0  0
  -27.6360  -28.6040   20.8370 C   0  0  0  0  0  3  0  0  0  0  0  0
  -26.4600  -27.0270   19.4810 C   0  0  0  0  0  3  0  0  0  0  0  0
  -25.3280  -27.8850   19.4760 C   0  0  0  0  0  3  0  0  0  0  0  0
  -24.0670  -29.9940   20.2280 C   0  0  0  0  0  2  0  0  0  0  0  0
  -25.0240  -31.1830   22.2320 N   0  0  0  0  0  0  0  0  0  0  0  0
  -23.7820  -32.2100   23.8540 O   0  0  0  0  0  0  0  0  0  0  0  0
  -23.0870  -29.5600   22.5290 C   0  0  0  0  0  0  0  0  0  0  0  0
  -21.7680  -29.3530   22.3520 N   0  0  0  0  0  0  0  0  0  0  0  0
  -23.7460  -28.9320   23.3620 O   0  0  0  0  0  0  0  0  0  0  0  0
  -21.2880  -29.9070   21.6550 H   0  0  0  0  0  0  0  0  0  0  0  0
  -18.4230  -27.9810   22.6910 C   0  0  0  0  0  0  0  0  0  0  0  0
  -20.9560  -28.3570   23.0610 C   0  0  0  0  0  3  0  0  0  0  0  0
  -21.1500  -26.9490   22.4500 C   0  0  0  0  0  2  0  0  0  0  0  0
  -20.1000  -26.6000   21.3890 C   0  0  0  0  0  2  0  0  0  0  0  0
  -18.6900  -26.6640   21.9830 C   0  0  0  0  0  2  0  0  0  0  0  0
  -19.4870  -28.7830   23.1840 C   0  0  0  0  0  0  0  0  0  0  0  0
  -19.1820  -30.0120   23.8090 C   0  0  0  0  0  3  0  0  0  0  0  0
  -17.8480  -30.4410   23.9420 C   0  0  0  0  0  3  0  0  0  0  0  0
  -16.7990  -29.6360   23.4640 C   0  0  0  0  0  3  0  0  0  0  0  0
  -17.0870  -28.4080   22.8460 C   0  0  0  0  0  3  0  0  0  0  0  0
  -26.1260  -32.6240   24.0390 C   0  0  0  0  0  3  0  0  0  0  0  0
  -25.7770  -34.0160   24.3740 N   0  0  0  0  0  0  0  0  0  0  0  0
  -26.1430  -35.0930   23.6650 C   0  0  0  0  0  0  0  0  0  0  0  0
  -26.8680  -35.0190   22.6720 O   0  0  0  0  0  0  0  0  0  0  0  0
  -25.1330  -34.1470   25.1400 H   0  0  0  0  0  0  0  0  0  0  0  0
  -24.4190  -36.8890   23.2680 C   0  0  0  0  0  1  0  0  0  0  0  0
  -25.6220  -36.4710   24.1290 C   0  0  0  0  0  3  0  0  0  0  0  0
  -27.7050  -37.3590   25.0830 C   0  0  0  0  0  1  0  0  0  0  0  0
  -26.6510  -37.5330   24.0870 N   0  0  0  0  0  0  0  0  0  0  0  0
  -26.2310  -38.4480   24.2310 H   0  0  0  0  0  0  0  0  0  0  0  0
  -26.5850  -31.8540   25.3400 C   0  0  1  0  0  0  0  0  0  0  0  0
  -25.4360  -31.5830   26.3400 C   0  0  0  0  0  1  0  0  0  0  0  0
  -27.2240  -30.4930   24.9840 C   0  0  0  0  0  1  0  0  0  0  0  0
  -27.6750  -32.6700   26.0750 C   0  0  0  0  0  1  0  0  0  0  0  0
  -29.8810  -20.3350   19.5410 C   0  0  0  0  0  2  0  0  0  0  0  0
  -31.9340  -19.0170   20.6810 C   0  0  0  0  0  1  0  0  0  0  0  0
  -30.4830  -18.7550   20.2550 C   0  0  0  0  0  0  0  0  0  0  0  0
  -31.1000  -15.8040   19.8000 C   0  0  0  0  0  0  0  0  0  0  0  0
  -31.0190  -13.3430   18.9120 C   0  0  0  0  0  2  0  0  0  0  0  0
  -30.0440  -13.0820   17.7370 C   0  0  0  0  0  2  0  0  0  0  0  0
  -28.6180  -12.8290   18.2510 C   0  0  0  0  0  2  0  0  0  0  0  0
  -28.2190  -13.8260   19.3660 C   0  0  0  0  0  3  0  0  0  0  0  0
  -29.3170  -13.9970   20.4350 C   0  0  0  0  0  2  0  0  0  0  0  0
  -30.5050  -14.5060   19.7280 N   0  0  0  0  0  0  0  0  0  0  0  0
  -32.3310  -15.7530   19.6420 O   0  0  0  0  0  0  0  0  0  0  0  0
  -30.3520  -17.1070   19.8460 N   0  0  0  0  0  4  0  0  0  0  0  0
  -29.3750  -16.8850   19.7220 H   0  0  0  0  0  0  0  0  0  0  0  0
  -25.9020  -14.4340   20.2330 C   0  0  0  0  0  0  0  0  0  0  0  0
  -24.8380  -13.6770   20.6390 C   0  0  0  0  0  0  0  0  0  0  0  0
  -25.2720  -12.3170   20.5780 C   0  0  0  0  0  0  0  0  0  0  0  0
  -26.9120  -13.5360   19.9370 N   0  0  0  0  0  0  0  0  0  0  0  0
  -26.5480  -12.2560   20.2140 N   0  0  0  0  0  0  0  0  0  0  0  0
  -24.5220  -11.0700   20.7820 C   0  0  0  0  0  0  0  0  0  0  0  0
  -24.9100  -10.1240   21.7560 C   0  0  0  0  0  3  0  0  0  0  0  0
  -24.1560   -8.9450   21.9490 C   0  0  0  0  0  3  0  0  0  0  0  0
  -23.0020   -8.7050   21.1670 C   0  0  0  0  0  0  0  0  0  0  0  0
  -22.6350   -9.6380   20.1810 C   0  0  0  0  0  3  0  0  0  0  0  0
  -23.3900  -10.8070   19.9870 C   0  0  0  0  0  3  0  0  0  0  0  0
  -22.2240   -7.5770   21.2680 O   0  0  0  0  0  0  0  0  0  0  0  0
  -22.0460   -6.9300   22.4640 C   0  0  0  0  0  0  0  0  0  0  0  0
  -21.4920   -7.5800   23.5890 C   0  0  0  0  0  3  0  0  0  0  0  0
  -21.2620   -6.8590   24.7770 C   0  0  0  0  0  3  0  0  0  0  0  0
  -21.5770   -5.4890   24.8430 C   0  0  0  0  0  0  0  0  0  0  0  0
  -22.1250   -4.8380   23.7230 C   0  0  0  0  0  3  0  0  0  0  0  0
  -22.3560   -5.5570   22.5360 C   0  0  0  0  0  0  0  0  0  0  0  0
  -22.8640   -4.9200   21.4540 F   0  0  0  0  0  0  0  0  0  0  0  0
  -21.3500   -4.7930   25.9810 F   0  0  0  0  0  0  0  0  0  0  0  0
  -23.4640  -14.1830   20.9650 C   0  0  0  0  0  0  0  0  0  0  0  0
  -22.7610  -13.5030   21.8630 N   0  0  0  0  0  0  0  0  0  0  0  0
  -23.0280  -15.2160   20.4590 O   0  0  0  0  0  0  0  0  0  0  0  0
  -23.1300  -12.6660   22.2900 H   0  0  0  0  0  0  0  0  0  0  0  0
  -21.8390  -13.8210   22.1280 H   0  0  0  0  0  0  0  0  0  0  0  0
  -26.0870  -15.8030   20.0570 N   0  0  0  0  0  0  0  0  0  0  0  0
  -25.3390  -16.4720   20.2020 H   0  0  0  0  0  0  0  0  0  0  0  0
  -26.9160  -16.2220   19.6570 H   0  0  0  0  0  0  0  0  0  0  0  0
  2  1  1  0
  3  5  2  0
  3  6  1  0
  4  7  1  0
  4  1  2  0
  5  4  1  0
  6  2  2  0
  8 10  1  0
  8  6  1  0
  9 20  2  0
 10 15  1  0
 11 19  1  0
 11 21  1  0
 12 18  1  0
 12 14  1  0
 13 19  1  0
 14 13  1  0
 15 14  2  0
 16 10  2  0
 17 16  1  0
 17 12  2  0
 18 11  1  0
 19  9  1  0
 21 23  2  0
 22 21  1  0
 24 22  1  0
 25 34  2  0
 25 30  1  0
 26 22  1  0
 26 30  1  0
 27 26  1  0
 28 29  1  0
 28 27  1  0
 29 25  1  0
 30 31  2  0
 31 32  1  0
 33 32  2  0
 34 33  1  0
 35  9  1  0
 35 36  1  0
 35 45  1  0
 36 39  1  0
 37 41  1  0
 37 36  1  0
 38 37  2  0
 41 40  1  0
 43 41  1  0
 43 44  1  0
 43 42  1  0
 45 48  1  1
 45 46  1  0
 47 45  1  0
 49  5  1  0
 49 51  1  0
 51 50  1  0
 52 60  1  0
 53 58  1  0
 54 55  1  0
 54 53  1  0
 56 55  1  0
 56 65  1  0
 56 57  1  0
 58 52  1  0
 58 57  1  0
 59 52  2  0
 60 51  2  0
 61 60  1  0
 62 63  2  0
 63 82  1  0
 64 63  1  0
 64 67  1  0
 65 66  1  0
 65 62  1  0
 66 64  2  0
 67 68  1  0
 68 69  2  0
 70 73  1  0
 70 69  1  0
 71 70  2  0
 72 71  1  0
 72 67  2  0
 73 74  1  0
 74 79  2  0
 74 75  1  0
 75 76  2  0
 76 77  1  0
 77 81  1  0
 78 77  2  0
 79 78  1  0
 80 79  1  0
 82 83  1  0
 83 86  1  0
 83 85  1  0
 84 82  2  0
 87 88  1  0
 87 62  1  0
 89 87  1  0
M  ISO  4   6 101   8 101  52 100  60 100
M  END
>  <TORSDO>  (1) 
F 18

>  <SCORE>  (1) 
-12.678

>  <name>  (1) 
0

>  <ligand_id>  (1) 
0

>  <original_smiles>  (1) 
[H]c1c([H])c([H])c2c(c1[H])C([H])([H])C([H])([H])C([H])([H])C2([H])N([H])C(=O)C1([H])N(C(=O)C([H])(N([H])C(=O)C([H])(N([H])C([H])([H])[H])C([H])([H])[H])C(C([H])([H])[H])(C([H])([H])[H])C([H])([H])[H])C([H])([H])c2c([H])c(Oc3c([H])c([H])c(C([H])([H])[H])c(C([H])([H])C([H])(N([H])C(=O)N4C([H])([H])C([H])([H])C([H])([H])C([H])(n5nc(-c6c([H])c([H])c(Oc7c([H])c([H])c(F)c([H])c7F)c([H])c6[H])c(C(=O)N([H])[H])c5N([H])[H])C4([H])[H])C([H])([H])[H])c3[H])c([H])c([H])c2C1([H])[H]

>  <smiles>  (1) 
[H]c1c([H])c([H])c2c(c1[H])C([H])([H])C([H])([H])C([H])([H])C2([H])N([H])C(=O)C1([H])N(C(=O)C([H])(N([H])C(=O)C([H])(N([H])C([H])([H])[H])C([H])([H])[H])C(C([H])([H])[H])(C([H])([H])[H])C([H])([H])[H])C([H])([H])c2c([H])c(Oc3c([H])c([H])c(C([H])([H])[H])c(C([H])([H])C([H])(N([H])C(=O)N4C([H])([H])C([H])([H])C([H])([H])C([H])(n5nc(-c6c([H])c([H])c(Oc7c([H])c([H])c(F)c([H])c7F)c([H])c6[H])c(C(=O)N([H])[H])c5N([H])[H])C4([H])[H])C([H])([H])[H])c3[H])c([H])c([H])c2C1([H])[H]

$$$$
1:0:0
     RDKit          3D

 91100  0  0  1  0  0  0  0  0999 V2000
  -27.9390  -21.2320   21.6650 C   0  0  0  0  0  3  0  0  0  0  0  0
  -28.7870  -20.1900   21.2440 C   0  0  0  0  0  3  0  0  0  0  0  0
  -29.3840  -21.6960   19.4190 C   0  0  0  0  0  3  0  0  0  0  0  0
  -27.7730  -22.4760   20.9910 C   0  0  0  0  0  0  0  0  0  0  0  0
  -28.5070  -22.9180   19.8310 C   0  0  0  0  0  0  0  0  0  0  0  0
  -29.5560  -20.2820   20.0730 C   0  0  0  0  0  0  0  0  0  0  0  0
  -26.6110  -23.2390   21.4660 C   0  0  0  0  0  0  0  0  0  0  0  0
  -25.6810  -23.5670   20.3300 C   0  0  0  0  0  2  0  0  0  0  0  0
  -26.3710  -24.5610   19.3850 C   0  0  0  0  0  2  0  0  0  0  0  0
  -27.9290  -24.4670   19.0830 C   0  0  0  0  0  3  0  0  0  0  0  0
  -26.3110  -23.4600   22.6460 O   0  0  0  0  0  0  0  0  0  0  0  0
  -28.3360  -26.1190   19.1110 O   0  0  0  0  0  0  0  0  0  0  0  0
  -24.7240  -31.6300   22.8210 C   0  0  0  0  0  0  0  0  0  0  0  0
  -27.3900  -27.3050   19.1230 C   0  0  0  0  0  0  0  0  0  0  0  0
  -23.5500  -30.3770   21.0590 C   0  0  0  0  0  3  0  0  0  0  0  0
  -25.0300  -29.1040   19.3650 C   0  0  0  0  0  0  0  0  0  0  0  0
  -26.0880  -30.7740   20.8540 C   0  0  0  0  0  2  0  0  0  0  0  0
  -26.2130  -29.4640   20.0170 C   0  0  0  0  0  0  0  0  0  0  0  0
  -27.3870  -28.5860   19.8850 C   0  0  0  0  0  3  0  0  0  0  0  0
  -26.2110  -27.1900   18.3530 C   0  0  0  0  0  3  0  0  0  0  0  0
  -25.0580  -27.9950   18.5040 C   0  0  0  0  0  3  0  0  0  0  0  0
  -23.7580  -29.9180   19.5900 C   0  0  0  0  0  2  0  0  0  0  0  0
  -24.8070  -30.9570   21.6300 N   0  0  0  0  0  0  0  0  0  0  0  0
  -23.6450  -31.7570   23.4210 O   0  0  0  0  0  0  0  0  0  0  0  0
  -22.9860  -29.2020   21.9090 C   0  0  0  0  0  0  0  0  0  0  0  0
  -21.6590  -28.9720   21.8560 N   0  0  0  0  0  0  0  0  0  0  0  0
  -23.7460  -28.5050   22.5860 O   0  0  0  0  0  0  0  0  0  0  0  0
  -21.0930  -29.5930   21.2940 H   0  0  0  0  0  0  0  0  0  0  0  0
  -18.3920  -27.5190   22.4750 C   0  0  0  0  0  0  0  0  0  0  0  0
  -20.9530  -27.8820   22.5390 C   0  0  0  0  0  3  0  0  0  0  0  0
  -21.0480  -26.5660   21.7310 C   0  0  0  0  0  2  0  0  0  0  0  0
  -19.8640  -26.3460   20.7830 C   0  0  0  0  0  2  0  0  0  0  0  0
  -18.5510  -26.3080   21.5680 C   0  0  0  0  0  2  0  0  0  0  0  0
  -19.5160  -28.2660   22.9150 C   0  0  0  0  0  0  0  0  0  0  0  0
  -19.3060  -29.3980   23.7340 C   0  0  0  0  0  3  0  0  0  0  0  0
  -18.0040  -29.7840   24.1080 C   0  0  0  0  0  3  0  0  0  0  0  0
  -16.8960  -29.0380   23.6750 C   0  0  0  0  0  3  0  0  0  0  0  0
  -17.0920  -27.9040   22.8650 C   0  0  0  0  0  3  0  0  0  0  0  0
  -25.9750  -32.2880   23.4760 C   0  0  0  0  0  3  0  0  0  0  0  0
  -25.5750  -33.6200   23.9670 N   0  0  0  0  0  0  0  0  0  0  0  0
  -25.8190  -34.7800   23.3370 C   0  0  0  0  0  0  0  0  0  0  0  0
  -26.4650  -34.8440   22.2890 O   0  0  0  0  0  0  0  0  0  0  0  0
  -24.9920  -33.6340   24.7910 H   0  0  0  0  0  0  0  0  0  0  0  0
  -23.9720  -36.4930   23.2600 C   0  0  0  0  0  1  0  0  0  0  0  0
  -25.2660  -36.0690   23.9740 C   0  0  0  0  0  3  0  0  0  0  0  0
  -27.3660  -37.0010   24.8470 C   0  0  0  0  0  1  0  0  0  0  0  0
  -26.2260  -37.1960   23.9590 N   0  0  0  0  0  0  0  0  0  0  0  0
  -25.7610  -38.0620   24.2200 H   0  0  0  0  0  0  0  0  0  0  0  0
  -26.5750  -31.4320   24.6620 C   0  0  1  0  0  0  0  0  0  0  0  0
  -25.5330  -31.0350   25.7330 C   0  0  0  0  0  1  0  0  0  0  0  0
  -27.2260  -30.1320   24.1370 C   0  0  0  0  0  1  0  0  0  0  0  0
  -27.6930  -32.2330   25.3710 C   0  0  0  0  0  1  0  0  0  0  0  0
  -30.4690  -18.8280   19.7110 C   0  0  0  0  0  2  0  0  0  0  0  0
  -31.1480  -15.9520   20.0510 C   0  0  0  0  0  0  0  0  0  0  0  0
  -31.1460  -13.4490   19.3250 C   0  0  0  0  0  2  0  0  0  0  0  0
  -30.2580  -13.2100   18.0740 C   0  0  0  0  0  2  0  0  0  0  0  0
  -28.7970  -12.9670   18.4930 C   0  0  0  0  0  2  0  0  0  0  0  0
  -28.3300  -13.9830   19.5700 C   0  0  0  0  0  3  0  0  0  0  0  0
  -29.3550  -14.1650   20.7090 C   0  0  0  0  0  2  0  0  0  0  0  0
  -30.6030  -14.6360   20.0900 N   0  0  0  0  0  0  0  0  0  0  0  0
  -32.3500  -15.9550   19.7340 O   0  0  0  0  0  0  0  0  0  0  0  0
  -30.3680  -17.2170   20.1770 N   0  0  0  0  0  0  0  0  0  0  0  0
  -29.4380  -17.0080   20.5090 H   0  0  0  0  0  0  0  0  0  0  0  0
  -25.9910  -14.6120   20.3740 C   0  0  0  0  0  0  0  0  0  0  0  0
  -24.9000  -13.8670   20.7230 C   0  0  0  0  0  0  0  0  0  0  0  0
  -25.3120  -12.5020   20.6380 C   0  0  0  0  0  0  0  0  0  0  0  0
  -26.9940  -13.7050   20.0780 N   0  0  0  0  0  0  0  0  0  0  0  0
  -26.5970  -12.4270   20.3040 N   0  0  0  0  0  0  0  0  0  0  0  0
  -24.5340  -11.2640   20.7920 C   0  0  0  0  0  0  0  0  0  0  0  0
  -24.8970  -10.2660   21.7220 C   0  0  0  0  0  3  0  0  0  0  0  0
  -24.1190   -9.0990   21.8620 C   0  0  0  0  0  3  0  0  0  0  0  0
  -22.9630   -8.9190   21.0670 C   0  0  0  0  0  0  0  0  0  0  0  0
  -22.6170   -9.9050   20.1270 C   0  0  0  0  0  3  0  0  0  0  0  0
  -23.3960  -11.0660   19.9840 C   0  0  0  0  0  3  0  0  0  0  0  0
  -22.1600   -7.8080   21.1160 O   0  0  0  0  0  0  0  0  0  0  0  0
  -21.9510   -7.1220   22.2850 C   0  0  0  0  0  0  0  0  0  0  0  0
  -21.3970   -7.7450   23.4250 C   0  0  0  0  0  3  0  0  0  0  0  0
  -21.1310   -6.9860   24.5810 C   0  0  0  0  0  3  0  0  0  0  0  0
  -21.4110   -5.6060   24.6000 C   0  0  0  0  0  0  0  0  0  0  0  0
  -21.9560   -4.9860   23.4650 C   0  0  0  0  0  3  0  0  0  0  0  0
  -22.2230   -5.7400   22.3100 C   0  0  0  0  0  0  0  0  0  0  0  0
  -22.7290   -5.1300   21.2110 F   0  0  0  0  0  0  0  0  0  0  0  0
  -21.1470   -4.8760   25.7100 F   0  0  0  0  0  0  0  0  0  0  0  0
  -23.5270  -14.4000   21.0190 C   0  0  0  0  0  0  0  0  0  0  0  0
  -22.7820  -13.7290   21.8900 N   0  0  0  0  0  0  0  0  0  0  0  0
  -23.1260  -15.4490   20.5140 O   0  0  0  0  0  0  0  0  0  0  0  0
  -23.1240  -12.8870   22.3270 H   0  0  0  0  0  0  0  0  0  0  0  0
  -21.8600  -14.0640   22.1240 H   0  0  0  0  0  0  0  0  0  0  0  0
  -26.1970  -15.9830   20.2500 N   0  0  0  0  0  0  0  0  0  0  0  0
  -25.4220  -16.6290   20.3650 H   0  0  0  0  0  0  0  0  0  0  0  0
  -27.0190  -16.4170   19.8480 H   0  0  0  0  0  0  0  0  0  0  0  0
  2  1  1  0
  3  5  2  0
  3  6  1  0
  4  7  1  0
  4  1  2  0
  5  4  1  0
  6  2  2  0
  7 11  2  0
  8  7  1  0
  9  8  1  0
 10 12  1  0
 10  9  1  0
 10  5  1  0
 12 14  1  0
 13 24  2  0
 14 19  1  0
 15 23  1  0
 15 25  1  0
 16 22  1  0
 16 18  1  0
 17 23  1  0
 18 17  1  0
 19 18  2  0
 20 21  1  0
 20 14  2  0
 21 16  2  0
 22 15  1  0
 23 13  1  0
 25 27  2  0
 26 25  1  0
 28 26  1  0
 29 38  2  0
 29 34  1  0
 30 26  1  0
 30 34  1  0
 31 30  1  0
 32 33  1  0
 32 31  1  0
 33 29  1  0
 34 35  2  0
 35 36  1  0
 37 36  2  0
 38 37  1  0
 39 13  1  0
 39 40  1  0
 39 49  1  0
 40 43  1  0
 41 40  1  0
 41 45  1  0
 42 41  2  0
 45 44  1  0
 47 45  1  0
 47 48  1  0
 47 46  1  0
 49 52  1  1
 49 50  1  0
 51 49  1  0
 53  6  1  0
 53 62  1  0
 54 60  1  0
 54 62  1  0
 55 60  1  0
 56 57  1  0
 56 55  1  0
 58 57  1  0
 58 67  1  0
 58 59  1  0
 60 59  1  0
 61 54  2  0
 62 63  1  0
 64 65  2  0
 65 84  1  0
 66 65  1  0
 66 69  1  0
 67 68  1  0
 67 64  1  0
 68 66  2  0
 69 70  1  0
 70 71  2  0
 72 75  1  0
 72 71  1  0
 73 72  2  0
 74 73  1  0
 74 69  2  0
 75 76  1  0
 76 81  2  0
 76 77  1  0
 77 78  2  0
 78 79  1  0
 79 83  1  0
 80 79  2  0
 81 80  1  0
 82 81  1  0
 84 85  1  0
 85 88  1  0
 85 87  1  0
 86 84  2  0
 89 90  1  0
 89 64  1  0
 91 89  1  0
M  ISO  4  10 101  12 101  54 100  62 100
M  END
>  <TORSDO>  (2) 
F 17

>  <SCORE>  (2) 
-12.003

>  <name>  (2) 
1

>  <ligand_id>  (2) 
1

>  <original_smiles>  (2) 
[H]c1c([H])c([H])c2c(c1[H])C([H])([H])C([H])([H])C([H])([H])C2([H])N([H])C(=O)C1([H])N(C(=O)C([H])(N([H])C(=O)C([H])(N([H])C([H])([H])[H])C([H])([H])[H])C(C([H])([H])[H])(C([H])([H])[H])C([H])([H])[H])C([H])([H])c2c([H])c(OC3([H])c4c([H])c(C([H])([H])N([H])C(=O)N5C([H])([H])C([H])([H])C([H])([H])C([H])(n6nc(-c7c([H])c([H])c(Oc8c([H])c([H])c(F)c([H])c8F)c([H])c7[H])c(C(=O)N([H])[H])c6N([H])[H])C5([H])[H])c([H])c([H])c4C(=O)C([H])([H])C3([H])[H])c([H])c([H])c2C1([H])[H]

>  <smiles>  (2) 
[H]c1c([H])c([H])c2c(c1[H])C([H])([H])C([H])([H])C([H])([H])C2([H])N([H])C(=O)C1([H])N(C(=O)C([H])(N([H])C(=O)C([H])(N([H])C([H])([H])[H])C([H])([H])[H])C(C([H])([H])[H])(C([H])([H])[H])C([H])([H])[H])C([H])([H])c2c([H])c(OC3([H])c4c([H])c(C([H])([H])N([H])C(=O)N5C([H])([H])C([H])([H])C([H])([H])C([H])(n6nc(-c7c([H])c([H])c(Oc8c([H])c([H])c(F)c([H])c8F)c([H])c7[H])c(C(=O)N([H])[H])c6N([H])[H])C5([H])[H])c([H])c([H])c4C(=O)C([H])([H])C3([H])[H])c([H])c([H])c2C1([H])[H]

$$$$
2:0:0
     RDKit          3D

 89 98  0  0  1  0  0  0  0  0999 V2000
  -29.6100  -21.5900   22.5710 C   0  0  0  0  0  3  0  0  0  0  0  0
  -29.7740  -20.2750   22.0440 C   0  0  0  0  0  3  0  0  0  0  0  0
  -29.1440  -22.7250   21.8350 C   0  0  0  0  0  3  0  0  0  0  0  0
  -29.4720  -19.9980   20.7000 C   0  0  0  0  0  0  0  0  0  0  0  0
  -28.9690  -21.2170   19.9670 C   0  0  0  0  0  0  0  0  0  0  0  0
  -28.7660  -22.6980   20.4690 C   0  0  0  0  0  0  0  0  0  0  0  0
  -28.7300  -20.5920   18.5900 C   0  0  0  0  0  2  0  0  0  0  0  0
  -28.9640  -18.9890   18.6540 C   0  0  0  0  0  2  0  0  0  0  0  0
  -29.7860  -18.5130   19.9130 C   0  0  0  0  0  3  0  0  0  0  0  0
  -30.4600  -15.5490   20.1360 C   0  0  0  0  0  0  0  0  0  0  0  0
  -30.4720  -13.0660   19.2970 C   0  0  0  0  0  2  0  0  0  0  0  0
  -29.5450  -12.8050   18.0800 C   0  0  0  0  0  2  0  0  0  0  0  0
  -28.1110  -12.5030   18.5420 C   0  0  0  0  0  2  0  0  0  0  0  0
  -27.6560  -13.4710   19.6600 C   0  0  0  0  0  3  0  0  0  0  0  0
  -28.7130  -13.6720   20.7690 C   0  0  0  0  0  2  0  0  0  0  0  0
  -29.9180  -14.2170   20.1170 N   0  0  0  0  0  0  0  0  0  0  0  0
  -31.6670  -15.5390   19.8450 O   0  0  0  0  0  0  0  0  0  0  0  0
  -29.6950  -16.8430   20.2860 N   0  0  0  0  0  0  0  0  0  0  0  0
  -28.7600  -16.6210   20.5940 H   0  0  0  0  0  0  0  0  0  0  0  0
  -25.3000  -14.0050   20.4650 C   0  0  0  0  0  0  0  0  0  0  0  0
  -24.2480  -13.2210   20.8430 C   0  0  0  0  0  0  0  0  0  0  0  0
  -24.7190  -11.8720   20.7870 C   0  0  0  0  0  0  0  0  0  0  0  0
  -26.3410  -13.1380   20.1910 N   0  0  0  0  0  0  0  0  0  0  0  0
  -26.0050  -11.8460   20.4530 N   0  0  0  0  0  0  0  0  0  0  0  0
  -23.9970  -10.6050   20.9730 C   0  0  0  0  0  0  0  0  0  0  0  0
  -24.4160   -9.6470   21.9220 C   0  0  0  0  0  3  0  0  0  0  0  0
  -23.6910   -8.4490   22.0970 C   0  0  0  0  0  3  0  0  0  0  0  0
  -22.5320   -8.2000   21.3250 C   0  0  0  0  0  0  0  0  0  0  0  0
  -22.1320   -9.1470   20.3660 C   0  0  0  0  0  3  0  0  0  0  0  0
  -22.8580  -10.3360   20.1880 C   0  0  0  0  0  3  0  0  0  0  0  0
  -21.7800   -7.0530   21.4080 O   0  0  0  0  0  0  0  0  0  0  0  0
  -21.6800   -6.3410   22.5770 C   0  0  0  0  0  0  0  0  0  0  0  0
  -21.1630   -6.9170   23.7580 C   0  0  0  0  0  3  0  0  0  0  0  0
  -21.0130   -6.1300   24.9170 C   0  0  0  0  0  3  0  0  0  0  0  0
  -21.3700   -4.7690   24.8960 C   0  0  0  0  0  0  0  0  0  0  0  0
  -21.8800   -4.1930   23.7190 C   0  0  0  0  0  3  0  0  0  0  0  0
  -22.0310   -4.9770   22.5620 C   0  0  0  0  0  0  0  0  0  0  0  0
  -22.5030   -4.4110   21.4250 F   0  0  0  0  0  0  0  0  0  0  0  0
  -21.2200   -4.0110   26.0080 F   0  0  0  0  0  0  0  0  0  0  0  0
  -22.8550  -13.6910   21.1390 C   0  0  0  0  0  0  0  0  0  0  0  0
  -22.1410  -12.9850   22.0070 N   0  0  0  0  0  0  0  0  0  0  0  0
  -22.4090  -14.7220   20.6350 O   0  0  0  0  0  0  0  0  0  0  0  0
  -22.5160  -12.1510   22.4370 H   0  0  0  0  0  0  0  0  0  0  0  0
  -21.2060  -13.2820   22.2480 H   0  0  0  0  0  0  0  0  0  0  0  0
  -25.4530  -15.3790   20.3000 N   0  0  0  0  0  0  0  0  0  0  0  0
  -24.6810  -16.0240   20.4260 H   0  0  0  0  0  0  0  0  0  0  0  0
  -26.2800  -15.8220   19.9210 H   0  0  0  0  0  0  0  0  0  0  0  0
  -28.0980  -24.2340   19.8470 C   0  0  0  0  0  2  0  0  0  0  0  0
  -28.2200  -25.8580   20.2930 O   0  0  0  0  0  0  0  0  0  0  0  0
  -24.6520  -31.9180   23.2110 C   0  0  0  0  0  0  0  0  0  0  0  0
  -27.2240  -26.9940   20.1870 C   0  0  0  0  0  0  0  0  0  0  0  0
  -23.4600  -30.5050   21.5860 C   0  0  0  0  0  3  0  0  0  0  0  0
  -24.9140  -28.9020   20.1510 C   0  0  0  0  0  0  0  0  0  0  0  0
  -26.0280  -30.7190   21.4270 C   0  0  0  0  0  2  0  0  0  0  0  0
  -26.1040  -29.3020   20.7710 C   0  0  0  0  0  0  0  0  0  0  0  0
  -27.2470  -28.3700   20.7650 C   0  0  0  0  0  3  0  0  0  0  0  0
  -26.0040  -26.7700   19.5060 C   0  0  0  0  0  3  0  0  0  0  0  0
  -24.8940  -27.6590   19.4960 C   0  0  0  0  0  3  0  0  0  0  0  0
  -23.6880  -29.8180   20.2090 C   0  0  0  0  0  2  0  0  0  0  0  0
  -24.7360  -31.0770   22.1270 N   0  0  0  0  0  0  0  0  0  0  0  0
  -23.5630  -32.2010   23.7380 O   0  0  0  0  0  0  0  0  0  0  0  0
  -22.7780  -29.5110   22.5620 C   0  0  0  0  0  0  0  0  0  0  0  0
  -21.4490  -29.3260   22.4410 N   0  0  0  0  0  0  0  0  0  0  0  0
  -23.4510  -28.9040   23.3980 O   0  0  0  0  0  0  0  0  0  0  0  0
  -20.9570  -29.8670   21.7440 H   0  0  0  0  0  0  0  0  0  0  0  0
  -18.0890  -28.0560   22.9610 C   0  0  0  0  0  0  0  0  0  0  0  0
  -20.6430  -28.3800   23.2210 C   0  0  0  0  0  3  0  0  0  0  0  0
  -20.7740  -26.9450   22.6600 C   0  0  0  0  0  2  0  0  0  0  0  0
  -19.6800  -26.5890   21.6490 C   0  0  0  0  0  2  0  0  0  0  0  0
  -18.2950  -26.7070   22.2930 C   0  0  0  0  0  2  0  0  0  0  0  0
  -19.1900  -28.8480   23.3820 C   0  0  0  0  0  0  0  0  0  0  0  0
  -18.9410  -30.1070   23.9720 C   0  0  0  0  0  3  0  0  0  0  0  0
  -17.6240  -30.5750   24.1410 C   0  0  0  0  0  3  0  0  0  0  0  0
  -16.5370  -29.7810   23.7340 C   0  0  0  0  0  3  0  0  0  0  0  0
  -16.7710  -28.5240   23.1500 C   0  0  0  0  0  3  0  0  0  0  0  0
  -25.9190  -32.5770   23.8350 C   0  0  0  0  0  3  0  0  0  0  0  0
  -25.5900  -33.9760   24.1650 N   0  0  0  0  0  0  0  0  0  0  0  0
  -25.8950  -35.0380   23.4080 C   0  0  0  0  0  0  0  0  0  0  0  0
  -26.5440  -34.9460   22.3630 O   0  0  0  0  0  0  0  0  0  0  0  0
  -25.0080  -34.1210   24.9770 H   0  0  0  0  0  0  0  0  0  0  0  0
  -24.1350  -36.8180   23.1120 C   0  0  0  0  0  1  0  0  0  0  0  0
  -25.4060  -36.4240   23.8820 C   0  0  0  0  0  3  0  0  0  0  0  0
  -27.5490  -37.3460   24.6530 C   0  0  0  0  0  1  0  0  0  0  0  0
  -26.4220  -37.4910   23.7370 N   0  0  0  0  0  0  0  0  0  0  0  0
  -26.0070  -38.4060   23.8870 H   0  0  0  0  0  0  0  0  0  0  0  0
  -26.4370  -31.8260   25.1240 C   0  0  1  0  0  0  0  0  0  0  0  0
  -25.3390  -31.5840   26.1880 C   0  0  0  0  0  1  0  0  0  0  0  0
  -27.0440  -30.4530   24.7610 C   0  0  0  0  0  1  0  0  0  0  0  0
  -27.5700  -32.6450   25.7860 C   0  0  0  0  0  1  0  0  0  0  0  0
  2  1  1  0
  3  1  2  0
  4  2  2  0
  5  6  2  0
  5  4  1  0
  6  3  1  0
  7  8  1  0
  7  5  1  0
  8  9  1  0
  9 18  1  0
  9  4  1  0
 10 18  1  0
 11 16  1  0
 12 13  1  0
 12 11  1  0
 14 13  1  0
 14 23  1  0
 14 15  1  0
 16 10  1  0
 16 15  1  0
 17 10  2  0
 18 19  1  0
 20 21  2  0
 21 40  1  0
 22 21  1  0
 22 25  1  0
 23 24  1  0
 23 20  1  0
 24 22  2  0
 25 26  1  0
 26 27  2  0
 28 31  1  0
 28 27  1  0
 29 28  2  0
 30 29  1  0
 30 25  2  0
 31 32  1  0
 32 33  1  0
 33 34  2  0
 35 34  1  0
 35 39  1  0
 36 35  2  0
 37 32  2  0
 37 36  1  0
 38 37  1  0
 40 41  1  0
 41 44  1  0
 41 43  1  0
 42 40  2  0
 45 46  1  0
 45 20  1  0
 47 45  1  0
 48 49  1  0
 48  6  1  0
 50 61  2  0
 51 49  1  0
 51 56  1  0
 52 60  1  0
 52 62  1  0
 53 59  1  0
 53 55  1  0
 54 60  1  0
 55 54  1  0
 56 55  2  0
 57 51  2  0
 58 57  1  0
 58 53  2  0
 59 52  1  0
 60 50  1  0
 62 64  2  0
 63 62  1  0
 65 63  1  0
 66 75  2  0
 66 71  1  0
 67 63  1  0
 67 71  1  0
 68 67  1  0
 69 70  1  0
 69 68  1  0
 70 66  1  0
 71 72  2  0
 72 73  1  0
 74 73  2  0
 75 74  1  0
 76 50  1  0
 76 77  1  0
 76 86  1  0
 77 80  1  0
 78 82  1  0
 78 77  1  0
 79 78  2  0
 82 81  1  0
 84 82  1  0
 84 85  1  0
 84 83  1  0
 86 89  1  1
 86 87  1  0
 88 86  1  0
M  ISO  4  10 100  18 100  48 101  49 101
M  END
>  <TORSDO>  (3) 
F 17

>  <SCORE>  (3) 
-16.503

>  <name>  (3) 
2

>  <ligand_id>  (3) 
2

>  <original_smiles>  (3) 
[H]c1c([H])c([H])c2c(c1[H])C([H])([H])C([H])([H])C([H])([H])C2([H])N([H])C(=O)C1([H])N(C(=O)C([H])(N([H])C(=O)C([H])(N([H])C([H])([H])[H])C([H])([H])[H])C(C([H])([H])[H])(C([H])([H])[H])C([H])([H])[H])C([H])([H])c2c([H])c(OC([H])([H])c3c([H])c([H])c([H])c4c3C([H])([H])C([H])([H])C4([H])N([H])C(=O)N3C([H])([H])C([H])([H])C([H])([H])C([H])(n4nc(-c5c([H])c([H])c(Oc6c([H])c([H])c(F)c([H])c6F)c([H])c5[H])c(C(=O)N([H])[H])c4N([H])[H])C3([H])[H])c([H])c([H])c2C1([H])[H]

>  <smiles>  (3) 
[H]c1c([H])c([H])c2c(c1[H])C([H])([H])C([H])([H])C([H])([H])C2([H])N([H])C(=O)C1([H])N(C(=O)C([H])(N([H])C(=O)C([H])(N([H])C([H])([H])[H])C([H])([H])[H])C(C([H])([H])[H])(C([H])([H])[H])C([H])([H])[H])C([H])([H])c2c([H])c(OC([H])([H])c3c([H])c([H])c([H])c4c3C([H])([H])C([H])([H])C4([H])N([H])C(=O)N3C([H])([H])C([H])([H])C([H])([H])C([H])(n4nc(-c5c([H])c([H])c(Oc6c([H])c([H])c(F)c([H])c6F)c([H])c5[H])c(C(=O)N([H])[H])c4N([H])[H])C3([H])[H])c([H])c([H])c2C1([H])[H]

$$$$
3:0:0
     RDKit          3D

 89 97  0  0  1  0  0  0  0  0999 V2000
  -27.8290  -22.0670   20.9280 C   0  0  0  0  0  3  0  0  0  0  0  0
  -27.5970  -23.5280   20.8960 C   0  0  0  0  0  3  0  0  0  0  0  0
  -28.8650  -21.2840   20.2620 C   0  0  0  0  0  0  0  0  0  0  0  0
  -29.6450  -22.2600   19.5120 C   0  0  0  0  0  0  0  0  0  0  0  0
  -29.4120  -23.7430   19.4780 C   0  0  0  0  0  0  0  0  0  0  0  0
  -28.3680  -24.5140   20.1690 C   0  0  0  0  0  0  0  0  0  0  0  0
  -30.8100  -21.6960   18.7120 C   0  0  0  0  0  1  0  0  0  0  0  0
  -30.3790  -24.5750   18.6430 C   0  0  0  0  0  1  0  0  0  0  0  0
  -28.2960  -26.0410   20.2130 O   0  0  0  0  0  0  0  0  0  0  0  0
  -24.6250  -31.8830   23.1930 C   0  0  0  0  0  0  0  0  0  0  0  0
  -27.2090  -27.0410   20.2050 C   0  0  0  0  0  0  0  0  0  0  0  0
  -23.4330  -30.4710   21.5620 C   0  0  0  0  0  3  0  0  0  0  0  0
  -24.8860  -28.8650   20.1510 C   0  0  0  0  0  0  0  0  0  0  0  0
  -25.9920  -30.7070   21.4080 C   0  0  0  0  0  2  0  0  0  0  0  0
  -26.0680  -29.2950   20.7670 C   0  0  0  0  0  0  0  0  0  0  0  0
  -27.2220  -28.4020   20.7700 C   0  0  0  0  0  3  0  0  0  0  0  0
  -25.9990  -26.7430   19.5440 C   0  0  0  0  0  3  0  0  0  0  0  0
  -24.8720  -27.6060   19.5230 C   0  0  0  0  0  3  0  0  0  0  0  0
  -23.6620  -29.7770   20.1900 C   0  0  0  0  0  2  0  0  0  0  0  0
  -24.7040  -31.0470   22.1080 N   0  0  0  0  0  0  0  0  0  0  0  0
  -23.5360  -32.1700   23.7160 O   0  0  0  0  0  0  0  0  0  0  0  0
  -22.7480  -29.4780   22.5350 C   0  0  0  0  0  0  0  0  0  0  0  0
  -21.4180  -29.3120   22.4160 N   0  0  0  0  0  0  0  0  0  0  0  0
  -23.4180  -28.8560   23.3630 O   0  0  0  0  0  0  0  0  0  0  0  0
  -20.9300  -29.8640   21.7250 H   0  0  0  0  0  0  0  0  0  0  0  0
  -18.0390  -28.1070   22.9440 C   0  0  0  0  0  0  0  0  0  0  0  0
  -20.5990  -28.3760   23.1940 C   0  0  0  0  0  3  0  0  0  0  0  0
  -20.6980  -26.9420   22.6230 C   0  0  0  0  0  2  0  0  0  0  0  0
  -19.5920  -26.6160   21.6140 C   0  0  0  0  0  2  0  0  0  0  0  0
  -18.2130  -26.7580   22.2660 C   0  0  0  0  0  2  0  0  0  0  0  0
  -19.1570  -28.8730   23.3650 C   0  0  0  0  0  0  0  0  0  0  0  0
  -18.9380  -30.1330   23.9620 C   0  0  0  0  0  3  0  0  0  0  0  0
  -17.6320  -30.6290   24.1400 C   0  0  0  0  0  3  0  0  0  0  0  0
  -16.5270  -29.8600   23.7330 C   0  0  0  0  0  3  0  0  0  0  0  0
  -16.7320  -28.6020   23.1410 C   0  0  0  0  0  3  0  0  0  0  0  0
  -25.8950  -32.5320   23.8210 C   0  0  0  0  0  3  0  0  0  0  0  0
  -25.5720  -33.9300   24.1540 N   0  0  0  0  0  0  0  0  0  0  0  0
  -25.9030  -34.9930   23.4090 C   0  0  0  0  0  0  0  0  0  0  0  0
  -26.5760  -34.9000   22.3790 O   0  0  0  0  0  0  0  0  0  0  0  0
  -24.9730  -34.0750   24.9530 H   0  0  0  0  0  0  0  0  0  0  0  0
  -24.1740  -36.7920   23.0670 C   0  0  0  0  0  1  0  0  0  0  0  0
  -25.4130  -36.3780   23.8780 C   0  0  0  0  0  3  0  0  0  0  0  0
  -27.5410  -37.2640   24.7280 C   0  0  0  0  0  1  0  0  0  0  0  0
  -26.4450  -37.4350   23.7780 N   0  0  0  0  0  0  0  0  0  0  0  0
  -26.0350  -38.3530   23.9270 H   0  0  0  0  0  0  0  0  0  0  0  0
  -26.4100  -31.7720   25.1060 C   0  0  1  0  0  0  0  0  0  0  0  0
  -25.3120  -31.5370   26.1720 C   0  0  0  0  0  1  0  0  0  0  0  0
  -27.0010  -30.3930   24.7340 C   0  0  0  0  0  1  0  0  0  0  0  0
  -27.5530  -32.5760   25.7680 C   0  0  0  0  0  1  0  0  0  0  0  0
  -28.9880  -19.5590   20.4810 C   0  0  0  0  0  3  0  0  0  0  0  0
  -29.9270  -18.1620   19.8920 C   0  0  0  0  0  3  0  0  0  0  0  0
  -30.4970  -15.2910   19.9480 C   0  0  0  0  0  0  0  0  0  0  0  0
  -30.4160  -12.9000   18.9450 C   0  0  0  0  0  2  0  0  0  0  0  0
  -29.4050  -12.7620   17.7750 C   0  0  0  0  0  2  0  0  0  0  0  0
  -27.9830  -12.4810   18.2950 C   0  0  0  0  0  2  0  0  0  0  0  0
  -27.6270  -13.3750   19.5090 C   0  0  0  0  0  3  0  0  0  0  0  0
  -28.7570  -13.3900   20.5570 C   0  0  0  0  0  2  0  0  0  0  0  0
  -29.9370  -13.9770   19.8900 N   0  0  0  0  0  0  0  0  0  0  0  0
  -31.6550  -15.3330   19.5030 O   0  0  0  0  0  0  0  0  0  0  0  0
  -28.8400  -16.4550   21.4010 C   0  0  0  0  0  1  0  0  0  0  0  0
  -29.7630  -16.5490   20.2700 N   0  0  0  0  0  0  0  0  0  0  0  0
  -25.2980  -13.9040   20.4150 C   0  0  0  0  0  0  0  0  0  0  0  0
  -24.2690  -13.1120   20.8380 C   0  0  0  0  0  0  0  0  0  0  0  0
  -24.7410  -11.7670   20.7400 C   0  0  0  0  0  0  0  0  0  0  0  0
  -26.3310  -13.0430   20.0860 N   0  0  0  0  0  0  0  0  0  0  0  0
  -26.0090  -11.7490   20.3450 N   0  0  0  0  0  0  0  0  0  0  0  0
  -24.0330  -10.4960   20.9430 C   0  0  0  0  0  0  0  0  0  0  0  0
  -24.4870   -9.5380   21.8760 C   0  0  0  0  0  3  0  0  0  0  0  0
  -23.7760   -8.3320   22.0680 C   0  0  0  0  0  3  0  0  0  0  0  0
  -22.5980   -8.0770   21.3260 C   0  0  0  0  0  0  0  0  0  0  0  0
  -22.1640   -9.0250   20.3820 C   0  0  0  0  0  3  0  0  0  0  0  0
  -22.8750  -10.2200   20.1890 C   0  0  0  0  0  3  0  0  0  0  0  0
  -21.8580   -6.9250   21.4260 O   0  0  0  0  0  0  0  0  0  0  0  0
  -21.7730   -6.2250   22.6030 C   0  0  0  0  0  0  0  0  0  0  0  0
  -21.2880   -6.8180   23.7890 C   0  0  0  0  0  3  0  0  0  0  0  0
  -21.1520   -6.0430   24.9580 C   0  0  0  0  0  3  0  0  0  0  0  0
  -21.4900   -4.6760   24.9430 C   0  0  0  0  0  0  0  0  0  0  0  0
  -21.9680   -4.0830   23.7610 C   0  0  0  0  0  3  0  0  0  0  0  0
  -22.1060   -4.8550   22.5930 C   0  0  0  0  0  0  0  0  0  0  0  0
  -22.5460   -4.2740   21.4520 F   0  0  0  0  0  0  0  0  0  0  0  0
  -21.3530   -3.9300   26.0630 F   0  0  0  0  0  0  0  0  0  0  0  0
  -22.8920  -13.5740   21.2110 C   0  0  0  0  0  0  0  0  0  0  0  0
  -22.2260  -12.8540   22.1070 N   0  0  0  0  0  0  0  0  0  0  0  0
  -22.4160  -14.6080   20.7440 O   0  0  0  0  0  0  0  0  0  0  0  0
  -22.6250  -12.0180   22.5060 H   0  0  0  0  0  0  0  0  0  0  0  0
  -21.3040  -13.1460   22.4000 H   0  0  0  0  0  0  0  0  0  0  0  0
  -25.4300  -15.2800   20.2530 N   0  0  0  0  0  0  0  0  0  0  0  0
  -24.6590  -15.9150   20.4240 H   0  0  0  0  0  0  0  0  0  0  0  0
  -26.2380  -15.7350   19.8500 H   0  0  0  0  0  0  0  0  0  0  0  0
  2  1  1  0
  3 50  1  0
  3  1  2  0
  4  3  1  0
  5  4  2  0
  5  6  1  0
  6  9  1  0
  6  2  2  0
  7  4  1  0
  8  5  1  0
 10 21  2  0
 11  9  1  0
 11 16  1  0
 12 20  1  0
 12 22  1  0
 13 19  1  0
 13 15  1  0
 14 20  1  0
 15 16  2  0
 15 14  1  0
 17 11  2  0
 18 17  1  0
 18 13  2  0
 19 12  1  0
 20 10  1  0
 22 24  2  0
 23 22  1  0
 25 23  1  0
 26 35  2  0
 26 31  1  0
 27 23  1  0
 27 31  1  0
 28 27  1  0
 29 30  1  0
 29 28  1  0
 30 26  1  0
 31 32  2  0
 32 33  1  0
 34 33  2  0
 35 34  1  0
 36 10  1  0
 36 37  1  0
 36 46  1  0
 37 40  1  0
 38 42  1  0
 38 37  1  0
 39 38  2  0
 42 41  1  0
 44 42  1  0
 44 45  1  0
 44 43  1  0
 46 49  1  1
 46 47  1  0
 48 46  1  0
 51 61  1  0
 51 50  2  0
 52 61  1  0
 53 58  1  0
 54 55  1  0
 54 53  1  0
 56 55  1  0
 56 65  1  0
 56 57  1  0
 58 52  1  0
 58 57  1  0
 59 52  2  0
 61 60  1  0
 62 63  2  0
 63 82  1  0
 64 63  1  0
 64 67  1  0
 65 66  1  0
 65 62  1  0
 66 64  2  0
 67 68  1  0
 68 69  2  0
 70 73  1  0
 70 69  1  0
 71 70  2  0
 72 71  1  0
 72 67  2  0
 73 74  1  0
 74 75  1  0
 75 76  2  0
 77 76  1  0
 77 81  1  0
 78 77  2  0
 79 74  2  0
 79 78  1  0
 80 79  1  0
 82 83  1  0
 83 86  1  0
 83 85  1  0
 84 82  2  0
 87 62  1  0
 87 88  1  0
 89 87  1  0
M  ISO  4   6 101   9 101  52 100  61 100
M  END
>  <TORSDO>  (4) 
F 18

>  <SCORE>  (4) 
-15.162

>  <name>  (4) 
3

>  <ligand_id>  (4) 
3

>  <original_smiles>  (4) 
[H]c1c([H])c([H])c2c(c1[H])C([H])([H])C([H])([H])C([H])([H])C2([H])N([H])C(=O)C1([H])N(C(=O)C([H])(N([H])C(=O)C([H])(N([H])C([H])([H])[H])C([H])([H])[H])C(C([H])([H])[H])(C([H])([H])[H])C([H])([H])[H])C([H])([H])c2c([H])c(Oc3c([H])c([H])c(C([H])([H])C([H])([H])N(C(=O)N4C([H])([H])C([H])([H])C([H])([H])C([H])(n5nc(-c6c([H])c([H])c(Oc7c([H])c([H])c(F)c([H])c7F)c([H])c6[H])c(C(=O)N([H])[H])c5N([H])[H])C4([H])[H])C([H])([H])[H])c(C([H])([H])[H])c3C([H])([H])[H])c([H])c([H])c2C1([H])[H]

>  <smiles>  (4) 
[H]c1c([H])c([H])c2c(c1[H])C([H])([H])C([H])([H])C([H])([H])C2([H])N([H])C(=O)C1([H])N(C(=O)C([H])(N([H])C(=O)C([H])(N([H])C([H])([H])[H])C([H])([H])[H])C(C([H])([H])[H])(C([H])([H])[H])C([H])([H])[H])C([H])([H])c2c([H])c(Oc3c([H])c([H])c(C([H])([H])C([H])([H])N(C(=O)N4C([H])([H])C([H])([H])C([H])([H])C([H])(n5nc(-c6c([H])c([H])c(Oc7c([H])c([H])c(F)c([H])c7F)c([H])c6[H])c(C(=O)N([H])[H])c5N([H])[H])C4([H])[H])C([H])([H])[H])c(C([H])([H])[H])c3C([H])([H])[H])c([H])c([H])c2C1([H])[H]

$$$$
4:0:0
     RDKit          3D

 93101  0  0  1  0  0  0  0  0999 V2000
  -28.5290  -24.8220   21.2540 C   0  0  0  0  0  3  0  0  0  0  0  0
  -28.7160  -23.2850   19.3760 C   0  0  0  0  0  3  0  0  0  0  0  0
  -28.5380  -24.6090   19.8620 C   0  0  0  0  0  0  0  0  0  0  0  0
  -28.6720  -23.7410   22.1480 C   0  0  0  0  0  0  0  0  0  0  0  0
  -28.8660  -22.1800   20.2590 C   0  0  0  0  0  0  0  0  0  0  0  0
  -28.8300  -22.4260   21.6540 C   0  0  0  0  0  0  0  0  0  0  0  0
  -28.6420  -24.0070   23.6440 C   0  0  0  0  0  1  0  0  0  0  0  0
  -28.9230  -21.3870   22.5350 O   0  0  0  0  0  0  0  0  0  0  0  0
  -28.8700  -21.6740   23.4400 H   0  0  0  0  0  0  0  0  0  0  0  0
  -28.9570  -20.7400   19.7130 C   0  0  0  0  0  2  0  0  0  0  0  0
  -30.1890  -19.8870   20.1440 C   0  0  0  0  0  2  0  0  0  0  0  0
  -29.9700  -18.3480   20.0040 C   0  0  0  0  0  2  0  0  0  0  0  0
  -31.0840  -17.4560   20.6260 C   0  0  0  0  0  2  0  0  0  0  0  0
  -31.4480  -14.9590   20.3160 C   0  0  0  0  0  0  0  0  0  0  0  0
  -31.2070  -12.6530   19.4620 C   0  0  0  0  0  2  0  0  0  0  0  0
  -30.3050  -12.6820   18.2100 C   0  0  0  0  0  2  0  0  0  0  0  0
  -28.8170  -12.5970   18.6020 C   0  0  0  0  0  2  0  0  0  0  0  0
  -28.4350  -13.5970   19.7270 C   0  0  0  0  0  3  0  0  0  0  0  0
  -29.4500  -13.5290   20.8910 C   0  0  0  0  0  2  0  0  0  0  0  0
  -30.7930  -13.7650   20.3330 N   0  0  0  0  0  0  0  0  0  0  0  0
  -32.5890  -15.0900   19.8630 O   0  0  0  0  0  0  0  0  0  0  0  0
  -30.7120  -16.0270   20.6910 N   0  0  0  0  0  0  0  0  0  0  0  0
  -29.7890  -15.8150   21.0420 H   0  0  0  0  0  0  0  0  0  0  0  0
  -26.0750  -14.3250   20.4530 C   0  0  0  0  0  0  0  0  0  0  0  0
  -24.9580  -13.6070   20.7870 C   0  0  0  0  0  0  0  0  0  0  0  0
  -25.3330  -12.2310   20.6990 C   0  0  0  0  0  0  0  0  0  0  0  0
  -27.0640  -13.3890   20.1880 N   0  0  0  0  0  0  0  0  0  0  0  0
  -26.6200  -12.1230   20.3930 N   0  0  0  0  0  0  0  0  0  0  0  0
  -24.5280  -11.0100   20.8340 C   0  0  0  0  0  0  0  0  0  0  0  0
  -24.8510  -10.0120   21.7790 C   0  0  0  0  0  3  0  0  0  0  0  0
  -24.0510   -8.8570   21.9020 C   0  0  0  0  0  3  0  0  0  0  0  0
  -22.9120   -8.6900   21.0780 C   0  0  0  0  0  0  0  0  0  0  0  0
  -22.6080   -9.6760   20.1220 C   0  0  0  0  0  3  0  0  0  0  0  0
  -23.4090  -10.8230   19.9980 C   0  0  0  0  0  3  0  0  0  0  0  0
  -22.0920   -7.5890   21.1090 O   0  0  0  0  0  0  0  0  0  0  0  0
  -21.8650   -6.8930   22.2700 C   0  0  0  0  0  0  0  0  0  0  0  0
  -21.3050   -7.5080   23.4100 C   0  0  0  0  0  3  0  0  0  0  0  0
  -21.0230   -6.7410   24.5570 C   0  0  0  0  0  3  0  0  0  0  0  0
  -21.2930   -5.3590   24.5650 C   0  0  0  0  0  0  0  0  0  0  0  0
  -21.8470   -4.7440   23.4290 C   0  0  0  0  0  3  0  0  0  0  0  0
  -22.1290   -5.5080   22.2830 C   0  0  0  0  0  0  0  0  0  0  0  0
  -22.6430   -4.9070   21.1840 F   0  0  0  0  0  0  0  0  0  0  0  0
  -21.0160   -4.6200   25.6640 F   0  0  0  0  0  0  0  0  0  0  0  0
  -23.5930  -14.1600   21.0780 C   0  0  0  0  0  0  0  0  0  0  0  0
  -22.8230  -13.4810   21.9210 N   0  0  0  0  0  0  0  0  0  0  0  0
  -23.2180  -15.2270   20.5930 O   0  0  0  0  0  0  0  0  0  0  0  0
  -23.1380  -12.6150   22.3350 H   0  0  0  0  0  0  0  0  0  0  0  0
  -21.9060  -13.8320   22.1580 H   0  0  0  0  0  0  0  0  0  0  0  0
  -26.3270  -15.6890   20.3340 N   0  0  0  0  0  0  0  0  0  0  0  0
  -25.6010  -16.3850   20.4650 H   0  0  0  0  0  0  0  0  0  0  0  0
  -27.2060  -16.0850   20.0250 H   0  0  0  0  0  0  0  0  0  0  0  0
  -28.3960  -25.7880   18.8860 C   0  0  0  0  0  2  0  0  0  0  0  0
  -28.2930  -27.1010   19.4820 O   0  0  0  0  0  0  0  0  0  0  0  0
  -24.5650  -31.9200   23.1790 C   0  0  0  0  0  0  0  0  0  0  0  0
  -27.0780  -27.7580   19.6060 C   0  0  0  0  0  0  0  0  0  0  0  0
  -23.2760  -30.6120   21.5220 C   0  0  0  0  0  3  0  0  0  0  0  0
  -24.6560  -29.2120   19.8960 C   0  0  0  0  0  0  0  0  0  0  0  0
  -25.7760  -31.0400   21.1830 C   0  0  0  0  0  2  0  0  0  0  0  0
  -25.8420  -29.7180   20.4410 C   0  0  0  0  0  0  0  0  0  0  0  0
  -27.0510  -28.9980   20.2920 C   0  0  0  0  0  3  0  0  0  0  0  0
  -25.8650  -27.2620   19.0750 C   0  0  0  0  0  3  0  0  0  0  0  0
  -24.6640  -27.9840   19.2140 C   0  0  0  0  0  3  0  0  0  0  0  0
  -23.4030  -30.0380   20.0870 C   0  0  0  0  0  2  0  0  0  0  0  0
  -24.5610  -31.2020   22.0190 N   0  0  0  0  0  0  0  0  0  0  0  0
  -23.5180  -32.1270   23.8080 O   0  0  0  0  0  0  0  0  0  0  0  0
  -22.7120  -29.5100   22.4470 C   0  0  0  0  0  0  0  0  0  0  0  0
  -21.3990  -29.2530   22.3410 N   0  0  0  0  0  0  0  0  0  0  0  0
  -23.4520  -28.8900   23.2160 O   0  0  0  0  0  0  0  0  0  0  0  0
  -20.8590  -29.8100   21.6930 H   0  0  0  0  0  0  0  0  0  0  0  0
  -18.1350  -27.7620   22.7730 C   0  0  0  0  0  0  0  0  0  0  0  0
  -20.6590  -28.2320   23.0810 C   0  0  0  0  0  3  0  0  0  0  0  0
  -20.8900  -26.8280   22.4750 C   0  0  0  0  0  2  0  0  0  0  0  0
  -19.8300  -26.4360   21.4420 C   0  0  0  0  0  2  0  0  0  0  0  0
  -18.4340  -26.4480   22.0720 C   0  0  0  0  0  2  0  0  0  0  0  0
  -19.1800  -28.6070   23.2330 C   0  0  0  0  0  0  0  0  0  0  0  0
  -18.8480  -29.8340   23.8470 C   0  0  0  0  0  3  0  0  0  0  0  0
  -17.5030  -30.2190   24.0080 C   0  0  0  0  0  3  0  0  0  0  0  0
  -16.4730  -29.3710   23.5640 C   0  0  0  0  0  3  0  0  0  0  0  0
  -16.7900  -28.1450   22.9540 C   0  0  0  0  0  3  0  0  0  0  0  0
  -25.8770  -32.5370   23.7560 C   0  0  0  0  0  3  0  0  0  0  0  0
  -25.5870  -33.9280   24.1280 N   0  0  0  0  0  0  0  0  0  0  0  0
  -25.8960  -34.9950   23.3800 C   0  0  0  0  0  0  0  0  0  0  0  0
  -26.5250  -34.9110   22.3210 O   0  0  0  0  0  0  0  0  0  0  0  0
  -25.0250  -34.0670   24.9550 H   0  0  0  0  0  0  0  0  0  0  0  0
  -24.1550  -36.7940   23.1350 C   0  0  0  0  0  1  0  0  0  0  0  0
  -25.4310  -36.3750   23.8840 C   0  0  0  0  0  3  0  0  0  0  0  0
  -27.5990  -37.2450   24.6410 C   0  0  0  0  0  1  0  0  0  0  0  0
  -26.4600  -37.4290   23.7450 N   0  0  0  0  0  0  0  0  0  0  0  0
  -26.0610  -38.3470   23.9230 H   0  0  0  0  0  0  0  0  0  0  0  0
  -26.4480  -31.7370   24.9920 C   0  0  1  0  0  0  0  0  0  0  0  0
  -25.3980  -31.4620   26.0930 C   0  0  0  0  0  1  0  0  0  0  0  0
  -27.0240  -30.3760   24.5380 C   0  0  0  0  0  1  0  0  0  0  0  0
  -27.6170  -32.5230   25.6300 C   0  0  0  0  0  1  0  0  0  0  0  0
  1  4  1  0
  2  3  1  0
  2  5  2  0
  3  1  2  0
  4  7  1  0
  5  6  1  0
  6  4  2  0
  6  8  1  0
  8  9  1  0
 10 11  1  0
 10  5  1  0
 12 11  1  0
 12 13  1  0
 13 22  1  0
 14 20  1  0
 14 22  1  0
 15 20  1  0
 16 17  1  0
 16 15  1  0
 18 17  1  0
 18 27  1  0
 18 19  1  0
 20 19  1  0
 21 14  2  0
 22 23  1  0
 24 25  2  0
 25 44  1  0
 26 25  1  0
 26 29  1  0
 27 28  1  0
 27 24  1  0
 28 26  2  0
 29 30  1  0
 30 31  2  0
 32 35  1  0
 32 31  1  0
 33 32  2  0
 34 33  1  0
 34 29  2  0
 35 36  1  0
 36 41  2  0
 36 37  1  0
 37 38  2  0
 38 39  1  0
 39 43  1  0
 40 39  2  0
 41 40  1  0
 42 41  1  0
 44 45  1  0
 45 48  1  0
 45 47  1  0
 46 44  2  0
 49 24  1  0
 49 50  1  0
 51 49  1  0
 52 53  1  0
 52  3  1  0
 53 55  1  0
 54 65  2  0
 55 60  1  0
 56 64  1  0
 56 66  1  0
 57 63  1  0
 57 59  1  0
 58 64  1  0
 59 58  1  0
 60 59  2  0
 61 62  1  0
 61 55  2  0
 62 57  2  0
 63 56  1  0
 64 54  1  0
 66 68  2  0
 67 66  1  0
 69 67  1  0
 70 79  2  0
 70 75  1  0
 71 67  1  0
 71 75  1  0
 72 71  1  0
 73 74  1  0
 73 72  1  0
 74 70  1  0
 75 76  2  0
 76 77  1  0
 78 77  2  0
 79 78  1  0
 80 54  1  0
 80 81  1  0
 80 90  1  0
 81 84  1  0
 82 86  1  0
 82 81  1  0
 83 82  2  0
 86 85  1  0
 88 86  1  0
 88 89  1  0
 88 87  1  0
 90 93  1  1
 90 91  1  0
 92 90  1  0
M  ISO  4  14 100  22 100  52 101  53 101
M  END
>  <TORSDO>  (5) 
F 22

>  <SCORE>  (5) 
-11.368

>  <name>  (5) 
4

>  <ligand_id>  (5) 
4

>  <original_smiles>  (5) 
[H]Oc1c(C([H])([H])[H])c([H])c(C([H])([H])Oc2c([H])c([H])c3c(c2[H])C([H])([H])N(C(=O)C([H])(N([H])C(=O)C([H])(N([H])C([H])([H])[H])C([H])([H])[H])C(C([H])([H])[H])(C([H])([H])[H])C([H])([H])[H])C([H])(C(=O)N([H])C2([H])c4c([H])c([H])c([H])c([H])c4C([H])([H])C([H])([H])C2([H])[H])C3([H])[H])c([H])c1C([H])([H])C([H])([H])C([H])([H])C([H])([H])N([H])C(=O)N1C([H])([H])C([H])([H])C([H])([H])C([H])(n2nc(-c3c([H])c([H])c(Oc4c([H])c([H])c(F)c([H])c4F)c([H])c3[H])c(C(=O)N([H])[H])c2N([H])[H])C1([H])[H]

>  <smiles>  (5) 
[H]Oc1c(C([H])([H])[H])c([H])c(C([H])([H])Oc2c([H])c([H])c3c(c2[H])C([H])([H])N(C(=O)C([H])(N([H])C(=O)C([H])(N([H])C([H])([H])[H])C([H])([H])[H])C(C([H])([H])[H])(C([H])([H])[H])C([H])([H])[H])C([H])(C(=O)N([H])C2([H])c4c([H])c([H])c([H])c([H])c4C([H])([H])C([H])([H])C2([H])[H])C3([H])[H])c([H])c1C([H])([H])C([H])([H])C([H])([H])C([H])([H])N([H])C(=O)N1C([H])([H])C([H])([H])C([H])([H])C([H])(n2nc(-c3c([H])c([H])c(Oc4c([H])c([H])c(F)c([H])c4F)c([H])c3[H])c(C(=O)N([H])[H])c2N([H])[H])C1([H])[H]

$$$$
5:0:0
     RDKit          3D

 90 98  0  0  1  0  0  0  0  0999 V2000
  -27.5620  -21.9680   20.0320 C   0  0  0  0  0  3  0  0  0  0  0  0
  -27.3400  -23.4410   20.0370 C   0  0  0  0  0  3  0  0  0  0  0  0
  -29.5560  -23.7130   20.5330 C   0  0  0  0  0  3  0  0  0  0  0  0
  -28.7870  -21.1970   20.2740 C   0  0  0  0  0  0  0  0  0  0  0  0
  -28.3270  -24.4760   20.2940 C   0  0  0  0  0  0  0  0  0  0  0  0
  -29.7880  -22.2360   20.5340 C   0  0  0  0  0  0  0  0  0  0  0  0
  -28.7930  -19.4700   20.2170 C   0  0  0  0  0  0  0  0  0  0  0  0
  -27.6770  -18.9800   20.0130 O   0  0  0  0  0  0  0  0  0  0  0  0
  -29.9490  -18.1900   20.3510 C   0  0  0  0  0  2  0  0  0  0  0  0
  -30.4300  -15.3000   20.2230 C   0  0  0  0  0  0  0  0  0  0  0  0
  -30.3920  -12.8720   19.3240 C   0  0  0  0  0  2  0  0  0  0  0  0
  -29.4520  -12.6990   18.1060 C   0  0  0  0  0  2  0  0  0  0  0  0
  -28.0140  -12.4150   18.5720 C   0  0  0  0  0  2  0  0  0  0  0  0
  -27.5790  -13.3600   19.7190 C   0  0  0  0  0  3  0  0  0  0  0  0
  -28.6490  -13.4970   20.8240 C   0  0  0  0  0  2  0  0  0  0  0  0
  -29.8660  -14.0000   20.1710 N   0  0  0  0  0  0  0  0  0  0  0  0
  -31.6450  -15.3180   19.9800 O   0  0  0  0  0  0  0  0  0  0  0  0
  -29.6600  -16.5510   20.3460 N   0  0  0  0  0  0  0  0  0  0  0  0
  -28.6770  -16.3580   20.4600 H   0  0  0  0  0  0  0  0  0  0  0  0
  -25.2230  -13.8920   20.5340 C   0  0  0  0  0  0  0  0  0  0  0  0
  -24.1770  -13.1000   20.9160 C   0  0  0  0  0  0  0  0  0  0  0  0
  -24.6540  -11.7540   20.8550 C   0  0  0  0  0  0  0  0  0  0  0  0
  -26.2660  -13.0270   20.2540 N   0  0  0  0  0  0  0  0  0  0  0  0
  -25.9400  -11.7350   20.5160 N   0  0  0  0  0  0  0  0  0  0  0  0
  -23.9410  -10.4840   21.0410 C   0  0  0  0  0  0  0  0  0  0  0  0
  -24.3870   -9.5120   21.9640 C   0  0  0  0  0  3  0  0  0  0  0  0
  -23.6680   -8.3090   22.1400 C   0  0  0  0  0  3  0  0  0  0  0  0
  -22.4890   -8.0690   21.3910 C   0  0  0  0  0  0  0  0  0  0  0  0
  -22.0660   -9.0290   20.4550 C   0  0  0  0  0  3  0  0  0  0  0  0
  -22.7840  -10.2220   20.2780 C   0  0  0  0  0  3  0  0  0  0  0  0
  -21.7440   -6.9180   21.4740 O   0  0  0  0  0  0  0  0  0  0  0  0
  -21.6880   -6.1820   22.6290 C   0  0  0  0  0  0  0  0  0  0  0  0
  -21.2140   -6.7290   23.8420 C   0  0  0  0  0  3  0  0  0  0  0  0
  -21.1060   -5.9140   24.9870 C   0  0  0  0  0  3  0  0  0  0  0  0
  -21.4620   -4.5540   24.9200 C   0  0  0  0  0  0  0  0  0  0  0  0
  -21.9290   -4.0070   23.7130 C   0  0  0  0  0  3  0  0  0  0  0  0
  -22.0390   -4.8180   22.5700 C   0  0  0  0  0  0  0  0  0  0  0  0
  -22.4680   -4.2790   21.4030 F   0  0  0  0  0  0  0  0  0  0  0  0
  -21.3500   -3.7710   26.0190 F   0  0  0  0  0  0  0  0  0  0  0  0
  -22.7810  -13.5640   21.2150 C   0  0  0  0  0  0  0  0  0  0  0  0
  -22.0760  -12.8540   22.0890 N   0  0  0  0  0  0  0  0  0  0  0  0
  -22.3270  -14.5910   20.7130 O   0  0  0  0  0  0  0  0  0  0  0  0
  -22.4600  -12.0230   22.5130 H   0  0  0  0  0  0  0  0  0  0  0  0
  -21.1410  -13.1450   22.3360 H   0  0  0  0  0  0  0  0  0  0  0  0
  -25.3680  -15.2660   20.3720 N   0  0  0  0  0  0  0  0  0  0  0  0
  -24.5890  -15.9030   20.4990 H   0  0  0  0  0  0  0  0  0  0  0  0
  -26.1900  -15.7180   19.9930 H   0  0  0  0  0  0  0  0  0  0  0  0
  -31.0720  -21.8610   20.8180 O   0  0  0  0  0  0  0  0  0  0  0  0
  -31.2190  -20.9290   20.9300 H   0  0  0  0  0  0  0  0  0  0  0  0
  -28.2550  -26.0100   20.2990 O   0  0  0  0  0  0  0  0  0  0  0  0
  -24.6340  -31.9190   23.2570 C   0  0  0  0  0  0  0  0  0  0  0  0
  -27.1850  -27.0350   20.2740 C   0  0  0  0  0  0  0  0  0  0  0  0
  -23.4380  -30.5140   21.6240 C   0  0  0  0  0  3  0  0  0  0  0  0
  -24.8830  -28.8970   20.2160 C   0  0  0  0  0  0  0  0  0  0  0  0
  -25.9990  -30.7220   21.4820 C   0  0  0  0  0  2  0  0  0  0  0  0
  -26.0640  -29.3090   20.8410 C   0  0  0  0  0  0  0  0  0  0  0  0
  -27.2070  -28.3960   20.8490 C   0  0  0  0  0  3  0  0  0  0  0  0
  -25.9760  -26.7680   19.5920 C   0  0  0  0  0  3  0  0  0  0  0  0
  -24.8610  -27.6460   19.5740 C   0  0  0  0  0  3  0  0  0  0  0  0
  -23.6650  -29.8190   20.2530 C   0  0  0  0  0  2  0  0  0  0  0  0
  -24.7110  -31.0780   22.1760 N   0  0  0  0  0  0  0  0  0  0  0  0
  -23.5450  -32.2160   23.7740 O   0  0  0  0  0  0  0  0  0  0  0  0
  -22.7400  -29.5300   22.5950 C   0  0  0  0  0  0  0  0  0  0  0  0
  -21.4110  -29.3650   22.4630 N   0  0  0  0  0  0  0  0  0  0  0  0
  -23.4000  -28.9120   23.4350 O   0  0  0  0  0  0  0  0  0  0  0  0
  -20.9350  -29.9040   21.7530 H   0  0  0  0  0  0  0  0  0  0  0  0
  -18.0230  -28.1680   22.9660 C   0  0  0  0  0  0  0  0  0  0  0  0
  -20.5820  -28.4360   23.2390 C   0  0  0  0  0  3  0  0  0  0  0  0
  -20.6880  -27.0000   22.6750 C   0  0  0  0  0  2  0  0  0  0  0  0
  -19.5910  -26.6690   21.6600 C   0  0  0  0  0  2  0  0  0  0  0  0
  -18.2050  -26.8170   22.2960 C   0  0  0  0  0  2  0  0  0  0  0  0
  -19.1410  -28.9360   23.3930 C   0  0  0  0  0  0  0  0  0  0  0  0
  -18.9160  -30.1980   23.9830 C   0  0  0  0  0  3  0  0  0  0  0  0
  -17.6090  -30.6960   24.1470 C   0  0  0  0  0  3  0  0  0  0  0  0
  -16.5080  -29.9280   23.7310 C   0  0  0  0  0  3  0  0  0  0  0  0
  -16.7160  -28.6650   23.1480 C   0  0  0  0  0  3  0  0  0  0  0  0
  -25.9090  -32.5590   23.8880 C   0  0  0  0  0  3  0  0  0  0  0  0
  -26.4070  -31.7980   25.1790 C   0  0  1  0  0  0  0  0  0  0  0  0
  -25.2990  -31.5800   26.2370 C   0  0  0  0  0  1  0  0  0  0  0  0
  -26.9850  -30.4140   24.8160 C   0  0  0  0  0  1  0  0  0  0  0  0
  -27.5590  -32.5900   25.8430 C   0  0  0  0  0  1  0  0  0  0  0  0
  -25.5990  -33.9610   24.2130 N   0  0  0  0  0  0  0  0  0  0  0  0
  -25.9200  -35.0140   23.4500 C   0  0  0  0  0  0  0  0  0  0  0  0
  -26.5690  -34.9070   22.4070 O   0  0  0  0  0  0  0  0  0  0  0  0
  -25.0170  -34.1190   25.0230 H   0  0  0  0  0  0  0  0  0  0  0  0
  -24.1820  -36.8100   23.1360 C   0  0  0  0  0  1  0  0  0  0  0  0
  -25.4470  -36.4080   23.9130 C   0  0  0  0  0  3  0  0  0  0  0  0
  -27.5990  -37.3050   24.6840 C   0  0  0  0  0  1  0  0  0  0  0  0
  -26.4750  -37.4610   23.7640 N   0  0  0  0  0  0  0  0  0  0  0  0
  -26.0720  -38.3830   23.9090 H   0  0  0  0  0  0  0  0  0  0  0  0
  1  2  2  0
  1  4  1  0
  2  5  1  0
  3  6  1  0
  4  6  2  0
  5 50  1  0
  5  3  2  0
  6 48  1  0
  7  4  1  0
  7  9  1  0
  8  7  2  0
 10 18  1  0
 11 16  1  0
 12 13  1  0
 12 11  1  0
 14 13  1  0
 14 23  1  0
 14 15  1  0
 16 10  1  0
 16 15  1  0
 17 10  2  0
 18  9  1  0
 18 19  1  0
 20 21  2  0
 21 40  1  0
 22 21  1  0
 22 25  1  0
 23 24  1  0
 23 20  1  0
 24 22  2  0
 25 26  1  0
 26 27  2  0
 28 31  1  0
 28 27  1  0
 29 28  2  0
 30 29  1  0
 30 25  2  0
 31 32  1  0
 32 33  1  0
 33 34  2  0
 35 34  1  0
 35 39  1  0
 36 35  2  0
 37 32  2  0
 37 36  1  0
 38 37  1  0
 40 41  1  0
 41 44  1  0
 41 43  1  0
 42 40  2  0
 45 46  1  0
 45 20  1  0
 47 45  1  0
 48 49  1  0
 51 62  2  0
 52 50  1  0
 52 57  1  0
 53 61  1  0
 53 63  1  0
 54 60  1  0
 54 56  1  0
 55 61  1  0
 56 57  2  0
 56 55  1  0
 58 52  2  0
 59 58  1  0
 59 54  2  0
 60 53  1  0
 61 51  1  0
 63 65  2  0
 64 63  1  0
 66 64  1  0
 67 76  2  0
 67 72  1  0
 68 64  1  0
 68 72  1  0
 69 68  1  0
 70 71  1  0
 70 69  1  0
 71 67  1  0
 72 73  2  0
 73 74  1  0
 75 74  2  0
 76 75  1  0
 77 51  1  0
 77 82  1  0
 77 78  1  0
 78 81  1  1
 78 79  1  0
 80 78  1  0
 82 85  1  0
 83 87  1  0
 83 82  1  0
 84 83  2  0
 87 86  1  0
 89 90  1  0
 89 87  1  0
 89 88  1  0
M  ISO  4   5 101  10 100  18 100  50 101
M  END
>  <TORSDO>  (6) 
F 19

>  <SCORE>  (6) 
-15.566

>  <name>  (6) 
5

>  <ligand_id>  (6) 
5

>  <original_smiles>  (6) 
[H]Oc1c([H])c(Oc2c([H])c([H])c3c(c2[H])C([H])([H])N(C(=O)C([H])(N([H])C(=O)C([H])(N([H])C([H])([H])[H])C([H])([H])[H])C(C([H])([H])[H])(C([H])([H])[H])C([H])([H])[H])C([H])(C(=O)N([H])C2([H])c4c([H])c([H])c([H])c([H])c4C([H])([H])C([H])([H])C2([H])[H])C3([H])[H])c([H])c([H])c1C(=O)C([H])([H])N([H])C(=O)N1C([H])([H])C([H])([H])C([H])([H])C([H])(n2nc(-c3c([H])c([H])c(Oc4c([H])c([H])c(F)c([H])c4F)c([H])c3[H])c(C(=O)N([H])[H])c2N([H])[H])C1([H])[H]

>  <smiles>  (6) 
[H]Oc1c([H])c(Oc2c([H])c([H])c3c(c2[H])C([H])([H])N(C(=O)C([H])(N([H])C(=O)C([H])(N([H])C([H])([H])[H])C([H])([H])[H])C(C([H])([H])[H])(C([H])([H])[H])C([H])([H])[H])C([H])(C(=O)N([H])C2([H])c4c([H])c([H])c([H])c([H])c4C([H])([H])C([H])([H])C2([H])[H])C3([H])[H])c([H])c([H])c1C(=O)C([H])([H])N([H])C(=O)N1C([H])([H])C([H])([H])C([H])([H])C([H])(n2nc(-c3c([H])c([H])c(Oc4c([H])c([H])c(F)c([H])c4F)c([H])c3[H])c(C(=O)N([H])[H])c2N([H])[H])C1([H])[H]

$$$$
6:0:0
     RDKit          3D

 91 99  0  0  1  0  0  0  0  0999 V2000
  -27.4810  -22.3260   21.0990 C   0  0  0  0  0  3  0  0  0  0  0  0
  -29.0530  -24.0040   20.2770 C   0  0  0  0  0  3  0  0  0  0  0  0
  -26.9110  -24.7080   21.1400 C   0  0  0  0  0  3  0  0  0  0  0  0
  -28.7710  -22.6100   20.6060 C   0  0  0  0  0  0  0  0  0  0  0  0
  -26.5720  -23.3620   21.3720 C   0  0  0  0  0  0  0  0  0  0  0  0
  -28.1120  -25.0990   20.5020 C   0  0  0  0  0  0  0  0  0  0  0  0
  -25.2010  -23.0580   21.9280 C   0  0  0  0  0  1  0  0  0  0  0  0
  -29.8160  -21.4560   20.6380 C   0  0  0  0  0  0  0  0  0  0  0  0
  -29.4140  -20.1410   20.4950 N   0  0  0  0  0  0  0  0  0  0  0  0
  -30.9890  -21.7300   20.8800 O   0  0  0  0  0  0  0  0  0  0  0  0
  -28.4840  -20.0380   20.1200 H   0  0  0  0  0  0  0  0  0  0  0  0
  -29.9510  -18.8860   21.1710 C   0  0  0  0  0  2  0  0  0  0  0  0
  -30.2760  -17.5610   20.3160 C   0  0  0  0  0  3  0  0  0  0  0  0
  -30.0130  -16.1040   20.9700 C   0  0  0  0  0  3  0  0  0  0  0  0
  -30.6900  -14.8150   20.3280 C   0  0  0  0  0  0  0  0  0  0  0  0
  -30.4570  -12.6030   19.1970 C   0  0  0  0  0  2  0  0  0  0  0  0
  -29.4900  -12.7460   17.9990 C   0  0  0  0  0  2  0  0  0  0  0  0
  -28.0240  -12.5790   18.4420 C   0  0  0  0  0  2  0  0  0  0  0  0
  -27.6820  -13.4050   19.7100 C   0  0  0  0  0  3  0  0  0  0  0  0
  -28.7580  -13.2270   20.8030 C   0  0  0  0  0  2  0  0  0  0  0  0
  -30.0550  -13.5990   20.2160 N   0  0  0  0  0  0  0  0  0  0  0  0
  -31.8180  -14.9540   19.8460 O   0  0  0  0  0  0  0  0  0  0  0  0
  -25.2810  -13.9800   20.4320 C   0  0  0  0  0  0  0  0  0  0  0  0
  -24.2220  -13.1970   20.8100 C   0  0  0  0  0  0  0  0  0  0  0  0
  -24.6940  -11.8500   20.7760 C   0  0  0  0  0  0  0  0  0  0  0  0
  -26.3360  -13.1110   20.1980 N   0  0  0  0  0  0  0  0  0  0  0  0
  -25.9850  -11.8240   20.4600 N   0  0  0  0  0  0  0  0  0  0  0  0
  -23.9770  -10.5830   20.9740 C   0  0  0  0  0  0  0  0  0  0  0  0
  -24.4180   -9.6190   21.9080 C   0  0  0  0  0  3  0  0  0  0  0  0
  -23.6960   -8.4190   22.0950 C   0  0  0  0  0  3  0  0  0  0  0  0
  -22.5200   -8.1750   21.3470 C   0  0  0  0  0  0  0  0  0  0  0  0
  -22.0980   -9.1290   20.4050 C   0  0  0  0  0  3  0  0  0  0  0  0
  -22.8200  -10.3190   20.2170 C   0  0  0  0  0  3  0  0  0  0  0  0
  -21.7730   -7.0250   21.4400 O   0  0  0  0  0  0  0  0  0  0  0  0
  -21.7370   -6.2820   22.5920 C   0  0  0  0  0  0  0  0  0  0  0  0
  -21.3170   -6.8350   23.8220 C   0  0  0  0  0  3  0  0  0  0  0  0
  -21.2280   -6.0190   24.9670 C   0  0  0  0  0  3  0  0  0  0  0  0
  -21.5500   -4.6520   24.8850 C   0  0  0  0  0  0  0  0  0  0  0  0
  -21.9630   -4.0970   23.6600 C   0  0  0  0  0  3  0  0  0  0  0  0
  -22.0530   -4.9090   22.5170 C   0  0  0  0  0  0  0  0  0  0  0  0
  -22.4320   -4.3660   21.3350 F   0  0  0  0  0  0  0  0  0  0  0  0
  -21.4560   -3.8660   25.9830 F   0  0  0  0  0  0  0  0  0  0  0  0
  -22.8220  -13.6670   21.0890 C   0  0  0  0  0  0  0  0  0  0  0  0
  -22.1030  -12.9740   21.9650 N   0  0  0  0  0  0  0  0  0  0  0  0
  -22.3790  -14.6880   20.5650 O   0  0  0  0  0  0  0  0  0  0  0  0
  -22.4730  -12.1500   22.4130 H   0  0  0  0  0  0  0  0  0  0  0  0
  -21.1630  -13.2740   22.1890 H   0  0  0  0  0  0  0  0  0  0  0  0
  -25.4250  -15.3520   20.2490 N   0  0  0  0  0  0  0  0  0  0  0  0
  -24.6410  -15.9870   20.3520 H   0  0  0  0  0  0  0  0  0  0  0  0
  -26.2560  -15.8080   19.8940 H   0  0  0  0  0  0  0  0  0  0  0  0
  -28.3120  -26.4890   20.1720 O   0  0  0  0  0  0  0  0  0  0  0  0
  -24.6410  -31.9580   23.2550 C   0  0  0  0  0  0  0  0  0  0  0  0
  -27.2340  -27.4120   20.1180 C   0  0  0  0  0  0  0  0  0  0  0  0
  -23.4300  -30.5870   21.6000 C   0  0  0  0  0  3  0  0  0  0  0  0
  -24.8750  -29.0540   20.1380 C   0  0  0  0  0  0  0  0  0  0  0  0
  -25.9730  -30.8940   21.4130 C   0  0  0  0  0  2  0  0  0  0  0  0
  -26.0480  -29.5200   20.7500 C   0  0  0  0  0  0  0  0  0  0  0  0
  -27.2260  -28.7050   20.7420 C   0  0  0  0  0  3  0  0  0  0  0  0
  -26.0560  -27.0420   19.4310 C   0  0  0  0  0  3  0  0  0  0  0  0
  -24.8830  -27.8180   19.4710 C   0  0  0  0  0  3  0  0  0  0  0  0
  -23.6400  -29.9250   20.2070 C   0  0  0  0  0  2  0  0  0  0  0  0
  -24.7010  -31.1650   22.1450 N   0  0  0  0  0  0  0  0  0  0  0  0
  -23.5590  -32.2240   23.8000 O   0  0  0  0  0  0  0  0  0  0  0  0
  -22.7720  -29.5610   22.5530 C   0  0  0  0  0  0  0  0  0  0  0  0
  -21.4420  -29.4030   22.4500 N   0  0  0  0  0  0  0  0  0  0  0  0
  -23.4540  -28.9160   23.3520 O   0  0  0  0  0  0  0  0  0  0  0  0
  -20.9450  -30.0100   21.8080 H   0  0  0  0  0  0  0  0  0  0  0  0
  -18.0760  -28.1530   22.9010 C   0  0  0  0  0  0  0  0  0  0  0  0
  -20.6280  -28.4400   23.2010 C   0  0  0  0  0  3  0  0  0  0  0  0
  -20.7610  -27.0190   22.6050 C   0  0  0  0  0  2  0  0  0  0  0  0
  -19.6730  -26.7030   21.5730 C   0  0  0  0  0  2  0  0  0  0  0  0
  -18.2770  -26.8220   22.1920 C   0  0  0  0  0  2  0  0  0  0  0  0
  -19.1800  -28.9140   23.3650 C   0  0  0  0  0  0  0  0  0  0  0  0
  -18.9410  -30.1590   23.9890 C   0  0  0  0  0  3  0  0  0  0  0  0
  -17.6300  -30.6470   24.1420 C   0  0  0  0  0  3  0  0  0  0  0  0
  -16.5420  -29.8900   23.6760 C   0  0  0  0  0  3  0  0  0  0  0  0
  -16.7650  -28.6440   23.0680 C   0  0  0  0  0  3  0  0  0  0  0  0
  -25.9260  -32.5810   23.8810 C   0  0  0  0  0  3  0  0  0  0  0  0
  -26.4340  -31.8060   25.1590 C   0  0  1  0  0  0  0  0  0  0  0  0
  -25.3380  -31.5780   26.2270 C   0  0  0  0  0  1  0  0  0  0  0  0
  -27.0080  -30.4230   24.7700 C   0  0  0  0  0  1  0  0  0  0  0  0
  -27.5870  -32.5910   25.8240 C   0  0  0  0  0  1  0  0  0  0  0  0
  -25.6220  -33.9820   24.2160 N   0  0  0  0  0  0  0  0  0  0  0  0
  -25.9430  -35.0340   23.4490 C   0  0  0  0  0  0  0  0  0  0  0  0
  -26.5940  -34.9290   22.4060 O   0  0  0  0  0  0  0  0  0  0  0  0
  -25.0460  -34.1370   25.0300 H   0  0  0  0  0  0  0  0  0  0  0  0
  -24.2030  -36.8290   23.1390 C   0  0  0  0  0  1  0  0  0  0  0  0
  -25.4660  -36.4240   23.9150 C   0  0  0  0  0  3  0  0  0  0  0  0
  -27.6240  -37.3160   24.6840 C   0  0  0  0  0  1  0  0  0  0  0  0
  -26.4950  -37.4780   23.7690 N   0  0  0  0  0  0  0  0  0  0  0  0
  -26.0910  -38.3970   23.9260 H   0  0  0  0  0  0  0  0  0  0  0  0
  1  5  1  0
  2  6  2  0
  2  4  1  0
  3  5  2  0
  4  8  1  0
  4  1  2  0
  5  7  1  0
  6  3  1  0
  8 10  2  0
  9  8  1  0
  9 12  1  0
 11  9  1  0
 13 14  2  0
 13 12  1  0
 15 14  1  0
 16 21  1  0
 17 18  1  0
 17 16  1  0
 19 18  1  0
 19 26  1  0
 19 20  1  0
 21 15  1  0
 21 20  1  0
 22 15  2  0
 23 24  2  0
 24 43  1  0
 25 24  1  0
 25 28  1  0
 26 23  1  0
 26 27  1  0
 27 25  2  0
 28 29  1  0
 29 30  2  0
 31 34  1  0
 31 30  1  0
 32 31  2  0
 33 32  1  0
 33 28  2  0
 34 35  1  0
 35 36  1  0
 36 37  2  0
 38 37  1  0
 38 42  1  0
 39 38  2  0
 40 35  2  0
 40 39  1  0
 41 40  1  0
 43 44  1  0
 44 47  1  0
 44 46  1  0
 45 43  2  0
 48 49  1  0
 48 23  1  0
 50 48  1  0
 51  6  1  0
 52 63  2  0
 53 51  1  0
 53 58  1  0
 54 62  1  0
 54 64  1  0
 55 61  1  0
 55 57  1  0
 56 62  1  0
 57 56  1  0
 58 57  2  0
 59 60  1  0
 59 53  2  0
 60 55  2  0
 61 54  1  0
 62 52  1  0
 64 66  2  0
 65 64  1  0
 67 65  1  0
 68 77  2  0
 68 73  1  0
 69 65  1  0
 69 73  1  0
 70 69  1  0
 71 72  1  0
 71 70  1  0
 72 68  1  0
 73 74  2  0
 74 75  1  0
 76 75  2  0
 77 76  1  0
 78 52  1  0
 78 83  1  0
 78 79  1  0
 79 82  1  1
 79 80  1  0
 81 79  1  0
 83 86  1  0
 84 88  1  0
 84 83  1  0
 85 84  2  0
 88 87  1  0
 90 88  1  0
 90 91  1  0
 90 89  1  0
M  ISO  4   6 101  14 100  15 100  51 101
M  END
>  <TORSDO>  (7) 
F 20

>  <SCORE>  (7) 
-13.533

>  <name>  (7) 
6

>  <ligand_id>  (7) 
6

>  <original_smiles>  (7) 
[H]c1c([H])c([H])c2c(c1[H])C([H])([H])C([H])([H])C([H])([H])C2([H])N([H])C(=O)C1([H])N(C(=O)C([H])(N([H])C(=O)C([H])(N([H])C([H])([H])[H])C([H])([H])[H])C(C([H])([H])[H])(C([H])([H])[H])C([H])([H])[H])C([H])([H])c2c([H])c(Oc3c([H])c(C(=O)N([H])C([H])([H])C([H])([H])C([H])([H])C(=O)N4C([H])([H])C([H])([H])C([H])([H])C([H])(n5nc(-c6c([H])c([H])c(Oc7c([H])c([H])c(F)c([H])c7F)c([H])c6[H])c(C(=O)N([H])[H])c5N([H])[H])C4([H])[H])c([H])c(C([H])([H])[H])c3[H])c([H])c([H])c2C1([H])[H]

>  <smiles>  (7) 
[H]c1c([H])c([H])c2c(c1[H])C([H])([H])C([H])([H])C([H])([H])C2([H])N([H])C(=O)C1([H])N(C(=O)C([H])(N([H])C(=O)C([H])(N([H])C([H])([H])[H])C([H])([H])[H])C(C([H])([H])[H])(C([H])([H])[H])C([H])([H])[H])C([H])([H])c2c([H])c(Oc3c([H])c(C(=O)N([H])C([H])([H])C([H])([H])C([H])([H])C(=O)N4C([H])([H])C([H])([H])C([H])([H])C([H])(n5nc(-c6c([H])c([H])c(Oc7c([H])c([H])c(F)c([H])c7F)c([H])c6[H])c(C(=O)N([H])[H])c5N([H])[H])C4([H])[H])c([H])c(C([H])([H])[H])c3[H])c([H])c([H])c2C1([H])[H]

$$$$
7:0:0
     RDKit          3D

 88 96  0  0  1  0  0  0  0  0999 V2000
  -27.7060  -22.6290   18.0430 C   0  0  0  0  0  3  0  0  0  0  0  0
  -28.2140  -21.4650   18.6830 C   0  0  0  0  0  3  0  0  0  0  0  0
  -27.7090  -23.9410   18.6000 C   0  0  0  0  0  3  0  0  0  0  0  0
  -28.7340  -22.9390   20.5260 C   0  0  0  0  0  3  0  0  0  0  0  0
  -28.7760  -21.4720   19.9750 C   0  0  0  0  0  0  0  0  0  0  0  0
  -28.1920  -24.2620   19.8920 C   0  0  0  0  0  0  0  0  0  0  0  0
  -28.1980  -25.7760   20.2760 O   0  0  0  0  0  0  0  0  0  0  0  0
  -24.6440  -31.8450   23.1820 C   0  0  0  0  0  0  0  0  0  0  0  0
  -27.1860  -26.8940   20.1810 C   0  0  0  0  0  0  0  0  0  0  0  0
  -23.4460  -30.4370   21.5630 C   0  0  0  0  0  3  0  0  0  0  0  0
  -24.8870  -28.8150   20.1420 C   0  0  0  0  0  0  0  0  0  0  0  0
  -26.0190  -30.6270   21.4110 C   0  0  0  0  0  2  0  0  0  0  0  0
  -26.0830  -29.2100   20.7550 C   0  0  0  0  0  0  0  0  0  0  0  0
  -27.2190  -28.2730   20.7480 C   0  0  0  0  0  3  0  0  0  0  0  0
  -25.9460  -26.6610   19.5360 C   0  0  0  0  0  3  0  0  0  0  0  0
  -24.8490  -27.5620   19.5110 C   0  0  0  0  0  3  0  0  0  0  0  0
  -23.6720  -29.7460   20.1890 C   0  0  0  0  0  2  0  0  0  0  0  0
  -24.7260  -30.9980   22.1040 N   0  0  0  0  0  0  0  0  0  0  0  0
  -23.5550  -32.1390   23.7030 O   0  0  0  0  0  0  0  0  0  0  0  0
  -22.7520  -29.4490   22.5370 C   0  0  0  0  0  0  0  0  0  0  0  0
  -21.4200  -29.2890   22.4210 N   0  0  0  0  0  0  0  0  0  0  0  0
  -23.4210  -28.8240   23.3640 O   0  0  0  0  0  0  0  0  0  0  0  0
  -20.9350  -29.8400   21.7270 H   0  0  0  0  0  0  0  0  0  0  0  0
  -18.0360  -28.0870   22.9550 C   0  0  0  0  0  0  0  0  0  0  0  0
  -20.5980  -28.3600   23.2040 C   0  0  0  0  0  3  0  0  0  0  0  0
  -20.6980  -26.9230   22.6400 C   0  0  0  0  0  2  0  0  0  0  0  0
  -19.5920  -26.5900   21.6340 C   0  0  0  0  0  2  0  0  0  0  0  0
  -18.2130  -26.7340   22.2840 C   0  0  0  0  0  2  0  0  0  0  0  0
  -19.1550  -28.8550   23.3730 C   0  0  0  0  0  0  0  0  0  0  0  0
  -18.9330  -30.1190   23.9630 C   0  0  0  0  0  3  0  0  0  0  0  0
  -17.6260  -30.6110   24.1390 C   0  0  0  0  0  3  0  0  0  0  0  0
  -16.5220  -29.8400   23.7370 C   0  0  0  0  0  3  0  0  0  0  0  0
  -16.7290  -28.5800   23.1490 C   0  0  0  0  0  3  0  0  0  0  0  0
  -25.9140  -32.4950   23.8080 C   0  0  0  0  0  3  0  0  0  0  0  0
  -25.5920  -33.8940   24.1430 N   0  0  0  0  0  0  0  0  0  0  0  0
  -25.9190  -34.9590   23.3970 C   0  0  0  0  0  0  0  0  0  0  0  0
  -26.5840  -34.8670   22.3630 O   0  0  0  0  0  0  0  0  0  0  0  0
  -25.0030  -34.0400   24.9490 H   0  0  0  0  0  0  0  0  0  0  0  0
  -24.1870  -36.7580   23.0700 C   0  0  0  0  0  1  0  0  0  0  0  0
  -25.4320  -36.3440   23.8710 C   0  0  0  0  0  3  0  0  0  0  0  0
  -27.5670  -37.2290   24.7030 C   0  0  0  0  0  1  0  0  0  0  0  0
  -26.4620  -37.4010   23.7630 N   0  0  0  0  0  0  0  0  0  0  0  0
  -26.0550  -38.3190   23.9160 H   0  0  0  0  0  0  0  0  0  0  0  0
  -26.4260  -31.7390   25.0960 C   0  0  1  0  0  0  0  0  0  0  0  0
  -25.3280  -31.5160   26.1620 C   0  0  0  0  0  1  0  0  0  0  0  0
  -27.0110  -30.3560   24.7310 C   0  0  0  0  0  1  0  0  0  0  0  0
  -27.5740  -32.5410   25.7520 C   0  0  0  0  0  1  0  0  0  0  0  0
  -29.2400  -19.8780   20.6080 C   0  0  0  0  0  2  0  0  0  0  0  0
  -31.0590  -18.4470   19.1390 C   0  0  0  0  0  1  0  0  0  0  0  0
  -29.7160  -18.2670   19.8720 C   0  0  0  0  0  0  0  0  0  0  0  0
  -30.4030  -15.3550   20.2980 C   0  0  0  0  0  0  0  0  0  0  0  0
  -30.3950  -12.8700   19.5050 C   0  0  0  0  0  2  0  0  0  0  0  0
  -29.5120  -12.6430   18.2510 C   0  0  0  0  0  2  0  0  0  0  0  0
  -28.0560  -12.3640   18.6600 C   0  0  0  0  0  2  0  0  0  0  0  0
  -27.5730  -13.3500   19.7500 C   0  0  0  0  0  3  0  0  0  0  0  0
  -28.5910  -13.5430   20.8970 C   0  0  0  0  0  2  0  0  0  0  0  0
  -29.8390  -14.0410   20.2890 N   0  0  0  0  0  0  0  0  0  0  0  0
  -31.6160  -15.3320   20.0420 O   0  0  0  0  0  0  0  0  0  0  0  0
  -29.6530  -16.6480   20.3930 N   0  0  0  0  0  4  0  0  0  0  0  0
  -28.7150  -16.4410   20.7060 H   0  0  0  0  0  0  0  0  0  0  0  0
  -25.1910  -13.9120   20.4510 C   0  0  0  0  0  0  0  0  0  0  0  0
  -24.1230  -13.1390   20.8100 C   0  0  0  0  0  0  0  0  0  0  0  0
  -24.5910  -11.7880   20.8050 C   0  0  0  0  0  0  0  0  0  0  0  0
  -26.2380  -13.0340   20.2390 N   0  0  0  0  0  0  0  0  0  0  0  0
  -25.8870  -11.7520   20.5170 N   0  0  0  0  0  0  0  0  0  0  0  0
  -23.8610  -10.5280   20.9950 C   0  0  0  0  0  0  0  0  0  0  0  0
  -24.2740   -9.5680   21.9450 C   0  0  0  0  0  3  0  0  0  0  0  0
  -23.5420   -8.3740   22.1200 C   0  0  0  0  0  3  0  0  0  0  0  0
  -22.3790   -8.1320   21.3510 C   0  0  0  0  0  0  0  0  0  0  0  0
  -21.9850   -9.0820   20.3910 C   0  0  0  0  0  3  0  0  0  0  0  0
  -22.7180  -10.2680   20.2140 C   0  0  0  0  0  3  0  0  0  0  0  0
  -21.6180   -6.9900   21.4370 O   0  0  0  0  0  0  0  0  0  0  0  0
  -21.5510   -6.2570   22.5940 C   0  0  0  0  0  0  0  0  0  0  0  0
  -21.1170   -6.8230   23.8130 C   0  0  0  0  0  3  0  0  0  0  0  0
  -20.9960   -6.0150   24.9610 C   0  0  0  0  0  3  0  0  0  0  0  0
  -21.3020   -4.6430   24.8920 C   0  0  0  0  0  0  0  0  0  0  0  0
  -21.7290   -4.0750   23.6780 C   0  0  0  0  0  3  0  0  0  0  0  0
  -21.8520   -4.8810   22.5320 C   0  0  0  0  0  0  0  0  0  0  0  0
  -22.2430   -4.3260   21.3600 F   0  0  0  0  0  0  0  0  0  0  0  0
  -21.1790   -3.8640   25.9930 F   0  0  0  0  0  0  0  0  0  0  0  0
  -22.7210  -13.6150   21.0420 C   0  0  0  0  0  0  0  0  0  0  0  0
  -21.9730  -12.9330   21.9030 N   0  0  0  0  0  0  0  0  0  0  0  0
  -22.2990  -14.6370   20.4990 O   0  0  0  0  0  0  0  0  0  0  0  0
  -22.3230  -12.1080   22.3670 H   0  0  0  0  0  0  0  0  0  0  0  0
  -21.0300  -13.2420   22.1010 H   0  0  0  0  0  0  0  0  0  0  0  0
  -25.3600  -15.2800   20.2600 N   0  0  0  0  0  0  0  0  0  0  0  0
  -24.5920  -15.9390   20.3380 H   0  0  0  0  0  0  0  0  0  0  0  0
  -26.2140  -15.7080   19.9310 H   0  0  0  0  0  0  0  0  0  0  0  0
  1  3  2  0
  1  2  1  0
  2  5  2  0
  3  6  1  0
  5  4  1  0
  5 48  1  0
  6  7  1  0
  6  4  2  0
  8 19  2  0
  9  7  1  0
  9 14  1  0
 10 18  1  0
 10 20  1  0
 11 17  1  0
 11 13  1  0
 12 18  1  0
 13 12  1  0
 14 13  2  0
 15  9  2  0
 16 15  1  0
 16 11  2  0
 17 10  1  0
 18  8  1  0
 20 22  2  0
 21 20  1  0
 23 21  1  0
 24 33  2  0
 24 29  1  0
 25 21  1  0
 25 29  1  0
 26 25  1  0
 27 28  1  0
 27 26  1  0
 28 24  1  0
 29 30  2  0
 30 31  1  0
 32 31  2  0
 33 32  1  0
 34  8  1  0
 34 35  1  0
 34 44  1  0
 35 38  1  0
 36 40  1  0
 36 35  1  0
 37 36  2  0
 40 39  1  0
 42 40  1  0
 42 43  1  0
 42 41  1  0
 44 47  1  1
 44 45  1  0
 46 44  1  0
 49 50  1  0
 50 59  2  0
 50 48  1  0
 51 59  1  0
 52 57  1  0
 53 54  1  0
 53 52  1  0
 55 54  1  0
 55 64  1  0
 55 56  1  0
 57 51  1  0
 57 56  1  0
 58 51  2  0
 59 60  1  0
 61 62  2  0
 62 81  1  0
 63 62  1  0
 63 66  1  0
 64 61  1  0
 64 65  1  0
 65 63  2  0
 66 67  1  0
 67 68  2  0
 69 72  1  0
 69 68  1  0
 70 69  2  0
 71 70  1  0
 71 66  2  0
 72 73  1  0
 73 74  1  0
 74 75  2  0
 76 75  1  0
 76 80  1  0
 77 76  2  0
 78 73  2  0
 78 77  1  0
 79 78  1  0
 81 82  1  0
 82 85  1  0
 82 84  1  0
 83 81  2  0
 86 87  1  0
 86 61  1  0
 88 86  1  0
M  ISO  4   6 101   7 101  51 100  59 100
M  END
>  <TORSDO>  (8) 
F 18

>  <SCORE>  (8) 
-15.686

>  <name>  (8) 
7

>  <ligand_id>  (8) 
7

>  <original_smiles>  (8) 
[H]c1c([H])c([H])c2c(c1[H])C([H])([H])C([H])([H])C([H])([H])C2([H])N([H])C(=O)C1([H])N(C(=O)C([H])(N([H])C(=O)C([H])(N([H])C([H])([H])[H])C([H])([H])[H])C(C([H])([H])[H])(C([H])([H])[H])C([H])([H])[H])C([H])([H])c2c([H])c(Oc3c([H])c([H])c([H])c(C([H])([H])C([H])(N([H])C(=O)N4C([H])([H])C([H])([H])C([H])([H])C([H])(n5nc(-c6c([H])c([H])c(Oc7c([H])c([H])c(F)c([H])c7F)c([H])c6[H])c(C(=O)N([H])[H])c5N([H])[H])C4([H])[H])C([H])([H])[H])c3[H])c([H])c([H])c2C1([H])[H]

>  <smiles>  (8) 
[H]c1c([H])c([H])c2c(c1[H])C([H])([H])C([H])([H])C([H])([H])C2([H])N([H])C(=O)C1([H])N(C(=O)C([H])(N([H])C(=O)C([H])(N([H])C([H])([H])[H])C([H])([H])[H])C(C([H])([H])[H])(C([H])([H])[H])C([H])([H])[H])C([H])([H])c2c([H])c(Oc3c([H])c([H])c([H])c(C([H])([H])C([H])(N([H])C(=O)N4C([H])([H])C([H])([H])C([H])([H])C([H])(n5nc(-c6c([H])c([H])c(Oc7c([H])c([H])c(F)c([H])c7F)c([H])c6[H])c(C(=O)N([H])[H])c5N([H])[H])C4([H])[H])C([H])([H])[H])c3[H])c([H])c([H])c2C1([H])[H]

$$$$
8:0:0
     RDKit          3D

 90100  0  0  1  0  0  0  0  0999 V2000
  -27.3080  -17.3280   18.3670 C   0  0  0  0  0  3  0  0  0  0  0  0
  -28.5590  -16.8380   18.7470 C   0  0  0  0  0  3  0  0  0  0  0  0
  -26.8670  -18.5490   18.8450 C   0  0  0  0  0  3  0  0  0  0  0  0
  -29.5160  -17.4540   19.6020 C   0  0  0  0  0  0  0  0  0  0  0  0
  -27.7620  -19.3950   19.4980 C   0  0  0  0  0  0  0  0  0  0  0  0
  -29.1500  -19.1090   19.6960 C   0  0  0  0  0  0  0  0  0  0  0  0
  -27.1860  -20.7130   20.0500 C   0  0  0  0  0  2  0  0  0  0  0  0
  -29.3600  -22.4890   19.1620 C   0  0  0  0  0  2  0  0  0  0  0  0
  -28.0590  -23.1270   20.8830 C   0  0  0  0  0  2  0  0  0  0  0  0
  -29.5000  -20.8860   20.0560 C   0  0  0  0  0  3  0  0  0  0  0  0
  -28.3470  -23.9600   19.5660 C   0  0  0  0  0  3  0  0  0  0  0  0
  -28.2660  -21.4750   20.8370 C   0  0  2  0  0  0  0  0  0  0  0  0
  -28.2850  -20.9730   22.2950 C   0  0  0  0  0  1  0  0  0  0  0  0
  -30.5600  -16.0360   19.9360 C   0  0  0  0  0  0  0  0  0  0  0  0
  -30.8170  -13.4430   19.2450 C   0  0  0  0  0  2  0  0  0  0  0  0
  -29.8930  -12.9430   18.0920 C   0  0  0  0  0  2  0  0  0  0  0  0
  -28.5060  -12.5300   18.6140 C   0  0  0  0  0  2  0  0  0  0  0  0
  -27.9830  -13.5380   19.6580 C   0  0  0  0  0  3  0  0  0  0  0  0
  -29.0430  -13.9580   20.7040 C   0  0  0  0  0  2  0  0  0  0  0  0
  -30.1680  -14.6140   19.9900 N   0  0  0  0  0  0  0  0  0  0  0  0
  -31.8010  -16.0710   19.8160 O   0  0  0  0  0  0  0  0  0  0  0  0
  -25.6910  -14.0210   20.6330 C   0  0  0  0  0  0  0  0  0  0  0  0
  -24.6520  -13.2200   21.0100 C   0  0  0  0  0  0  0  0  0  0  0  0
  -25.1110  -11.8760   20.8450 C   0  0  0  0  0  0  0  0  0  0  0  0
  -26.7080  -13.1670   20.2500 N   0  0  0  0  0  0  0  0  0  0  0  0
  -26.3790  -11.8640   20.4430 N   0  0  0  0  0  0  0  0  0  0  0  0
  -24.3900  -10.6050   20.9870 C   0  0  0  0  0  0  0  0  0  0  0  0
  -24.8300   -9.6010   21.8780 C   0  0  0  0  0  3  0  0  0  0  0  0
  -24.1060   -8.3980   22.0140 C   0  0  0  0  0  3  0  0  0  0  0  0
  -22.9280   -8.1890   21.2600 C   0  0  0  0  0  0  0  0  0  0  0  0
  -22.5060   -9.1820   20.3570 C   0  0  0  0  0  3  0  0  0  0  0  0
  -23.2310  -10.3770   20.2190 C   0  0  0  0  0  3  0  0  0  0  0  0
  -22.1740   -7.0410   21.3080 O   0  0  0  0  0  0  0  0  0  0  0  0
  -22.0600   -6.3030   22.4600 C   0  0  0  0  0  0  0  0  0  0  0  0
  -21.5650   -6.8650   23.6570 C   0  0  0  0  0  3  0  0  0  0  0  0
  -21.3980   -6.0540   24.7980 C   0  0  0  0  0  3  0  0  0  0  0  0
  -21.7150   -4.6830   24.7410 C   0  0  0  0  0  0  0  0  0  0  0  0
  -22.2030   -4.1220   23.5480 C   0  0  0  0  0  3  0  0  0  0  0  0
  -22.3720   -4.9300   22.4090 C   0  0  0  0  0  0  0  0  0  0  0  0
  -22.8220   -4.3800   21.2560 F   0  0  0  0  0  0  0  0  0  0  0  0
  -21.5480   -3.9020   25.8340 F   0  0  0  0  0  0  0  0  0  0  0  0
  -23.2790  -13.6780   21.4000 C   0  0  0  0  0  0  0  0  0  0  0  0
  -22.6110  -12.9350   22.2740 N   0  0  0  0  0  0  0  0  0  0  0  0
  -22.8090  -14.7300   20.9690 O   0  0  0  0  0  0  0  0  0  0  0  0
  -23.0060  -12.0820   22.6450 H   0  0  0  0  0  0  0  0  0  0  0  0
  -21.6910  -13.2220   22.5790 H   0  0  0  0  0  0  0  0  0  0  0  0
  -25.8460  -15.4020   20.5540 N   0  0  0  0  0  0  0  0  0  0  0  0
  -25.0890  -16.0390   20.7770 H   0  0  0  0  0  0  0  0  0  0  0  0
  -26.6740  -15.8790   20.2150 H   0  0  0  0  0  0  0  0  0  0  0  0
  -28.4170  -25.7460   19.5270 O   0  0  0  0  0  0  0  0  0  0  0  0
  -24.8810  -31.7560   23.0390 C   0  0  0  0  0  0  0  0  0  0  0  0
  -27.4150  -26.9480   19.5970 C   0  0  0  0  0  0  0  0  0  0  0  0
  -23.6840  -30.4940   21.3010 C   0  0  0  0  0  3  0  0  0  0  0  0
  -25.1280  -28.9760   19.7390 C   0  0  0  0  0  0  0  0  0  0  0  0
  -26.2620  -30.6580   21.1660 C   0  0  0  0  0  2  0  0  0  0  0  0
  -26.3290  -29.2840   20.3880 C   0  0  0  0  0  0  0  0  0  0  0  0
  -27.4540  -28.3040   20.2850 C   0  0  0  0  0  3  0  0  0  0  0  0
  -26.1740  -26.8600   18.9140 C   0  0  0  0  0  3  0  0  0  0  0  0
  -25.0900  -27.7930   18.9800 C   0  0  0  0  0  3  0  0  0  0  0  0
  -23.9160  -29.9140   19.8740 C   0  0  0  0  0  2  0  0  0  0  0  0
  -24.9670  -30.9990   21.8900 N   0  0  0  0  0  0  0  0  0  0  0  0
  -23.7910  -32.0040   23.5840 O   0  0  0  0  0  0  0  0  0  0  0  0
  -22.9830  -29.4350   22.1940 C   0  0  0  0  0  0  0  0  0  0  0  0
  -21.6480  -29.2880   22.0750 N   0  0  0  0  0  0  0  0  0  0  0  0
  -23.6510  -28.7440   22.9670 O   0  0  0  0  0  0  0  0  0  0  0  0
  -21.1570  -29.8970   21.4350 H   0  0  0  0  0  0  0  0  0  0  0  0
  -18.2700  -28.0290   22.5400 C   0  0  0  0  0  0  0  0  0  0  0  0
  -20.8350  -28.2840   22.7740 C   0  0  0  0  0  3  0  0  0  0  0  0
  -20.9270  -26.9090   22.0720 C   0  0  0  0  0  2  0  0  0  0  0  0
  -19.8060  -26.6760   21.0530 C   0  0  0  0  0  2  0  0  0  0  0  0
  -18.4380  -26.7520   21.7340 C   0  0  0  0  0  2  0  0  0  0  0  0
  -19.3950  -28.7570   23.0140 C   0  0  0  0  0  0  0  0  0  0  0  0
  -19.1790  -29.9510   23.7350 C   0  0  0  0  0  3  0  0  0  0  0  0
  -17.8750  -30.4200   23.9810 C   0  0  0  0  0  3  0  0  0  0  0  0
  -16.7660  -29.6910   23.5180 C   0  0  0  0  0  3  0  0  0  0  0  0
  -16.9650  -28.4960   22.8040 C   0  0  0  0  0  3  0  0  0  0  0  0
  -26.1450  -32.3600   23.7220 C   0  0  0  0  0  3  0  0  0  0  0  0
  -25.7860  -33.6830   24.2720 N   0  0  0  0  0  0  0  0  0  0  0  0
  -26.0500  -34.8610   23.6910 C   0  0  0  0  0  0  0  0  0  0  0  0
  -26.6780  -34.9510   22.6330 O   0  0  0  0  0  0  0  0  0  0  0  0
  -25.2180  -33.6810   25.1070 H   0  0  0  0  0  0  0  0  0  0  0  0
  -24.2450  -36.6200   23.7160 C   0  0  0  0  0  1  0  0  0  0  0  0
  -25.5420  -36.1410   24.3890 C   0  0  0  0  0  3  0  0  0  0  0  0
  -27.6850  -36.9840   25.2470 C   0  0  0  0  0  1  0  0  0  0  0  0
  -26.5290  -37.2450   24.3940 N   0  0  0  0  0  0  0  0  0  0  0  0
  -26.0980  -38.1120   24.7000 H   0  0  0  0  0  0  0  0  0  0  0  0
  -26.7220  -31.4440   24.8720 C   0  0  1  0  0  0  0  0  0  0  0  0
  -25.6760  -31.0460   25.9390 C   0  0  0  0  0  1  0  0  0  0  0  0
  -27.3170  -30.1400   24.2970 C   0  0  0  0  0  1  0  0  0  0  0  0
  -27.8820  -32.1740   25.5900 C   0  0  0  0  0  1  0  0  0  0  0  0
  1  2  2  0
  1  3  1  0
  2  4  1  0
  3  5  2  0
  4  6  2  0
  4 14  1  0
  5  6  1  0
  5  7  1  0
  6 10  1  0
  7 12  1  0
  8 11  1  0
 10  8  1  0
 10 12  1  0
 11 50  1  0
 11  9  1  0
 12  9  1  0
 12 13  1  1
 14 20  1  0
 15 20  1  0
 16 17  1  0
 16 15  1  0
 18 17  1  0
 18 25  1  0
 18 19  1  0
 20 19  1  0
 21 14  2  0
 22 23  2  0
 23 42  1  0
 24 27  1  0
 24 23  1  0
 25 26  1  0
 25 22  1  0
 26 24  2  0
 27 28  1  0
 28 29  2  0
 30 33  1  0
 30 29  1  0
 31 30  2  0
 32 31  1  0
 32 27  2  0
 33 34  1  0
 34 35  1  0
 35 36  2  0
 37 36  1  0
 37 41  1  0
 38 37  2  0
 39 34  2  0
 39 38  1  0
 40 39  1  0
 42 43  1  0
 43 46  1  0
 43 45  1  0
 44 42  2  0
 47 22  1  0
 47 48  1  0
 49 47  1  0
 50 52  1  0
 51 62  2  0
 52 57  1  0
 53 61  1  0
 53 63  1  0
 54 60  1  0
 54 56  1  0
 55 61  1  0
 56 55  1  0
 57 56  2  0
 58 59  1  0
 58 52  2  0
 59 54  2  0
 60 53  1  0
 61 51  1  0
 63 65  2  0
 64 63  1  0
 66 64  1  0
 67 76  2  0
 67 72  1  0
 68 64  1  0
 68 72  1  0
 69 68  1  0
 70 71  1  0
 70 69  1  0
 71 67  1  0
 72 73  2  0
 73 74  1  0
 75 74  2  0
 76 75  1  0
 77 51  1  0
 77 78  1  0
 77 87  1  0
 78 81  1  0
 79 78  1  0
 79 83  1  0
 80 79  2  0
 83 82  1  0
 83 85  1  0
 85 86  1  0
 85 84  1  0
 87 90  1  1
 87 88  1  0
 89 87  1  0
M  ISO  4   4 100  11 101  14 100  50 101
M  END
>  <TORSDO>  (9) 
F 16

>  <SCORE>  (9) 
-12.559

>  <name>  (9) 
8

>  <ligand_id>  (9) 
8

>  <original_smiles>  (9) 
[H]c1c([H])c([H])c2c(c1[H])C([H])([H])C([H])([H])C([H])([H])C2([H])N([H])C(=O)C1([H])N(C(=O)C([H])(N([H])C(=O)C([H])(N([H])C([H])([H])[H])C([H])([H])[H])C(C([H])([H])[H])(C([H])([H])[H])C([H])([H])[H])C([H])([H])c2c([H])c(OC3([H])C([H])([H])C4([H])c5c(C(=O)N6C([H])([H])C([H])([H])C([H])([H])C([H])(n7nc(-c8c([H])c([H])c(Oc9c([H])c([H])c(F)c([H])c9F)c([H])c8[H])c(C(=O)N([H])[H])c7N([H])[H])C6([H])[H])c([H])c([H])c([H])c5C([H])([H])C4(C([H])([H])[H])C3([H])[H])c([H])c([H])c2C1([H])[H]

>  <smiles>  (9) 
[H]c1c([H])c([H])c2c(c1[H])C([H])([H])C([H])([H])C([H])([H])C2([H])N([H])C(=O)C1([H])N(C(=O)C([H])(N([H])C(=O)C([H])(N([H])C([H])([H])[H])C([H])([H])[H])C(C([H])([H])[H])(C([H])([H])[H])C([H])([H])[H])C([H])([H])c2c([H])c(OC3([H])C([H])([H])C4([H])c5c(C(=O)N6C([H])([H])C([H])([H])C([H])([H])C([H])(n7nc(-c8c([H])c([H])c(Oc9c([H])c([H])c(F)c([H])c9F)c([H])c8[H])c(C(=O)N([H])[H])c7N([H])[H])C6([H])[H])c([H])c([H])c([H])c5C([H])([H])C4(C([H])([H])[H])C3([H])[H])c([H])c([H])c2C1([H])[H]

$$$$
9:0:0
     RDKit          3D

 89 98  0  0  1  0  0  0  0  0999 V2000
  -28.7070  -21.5170   21.4800 C   0  0  0  0  0  3  0  0  0  0  0  0
  -28.3710  -23.0170   21.4490 C   0  0  0  0  0  3  0  0  0  0  0  0
  -28.6410  -23.0270   19.2450 C   0  0  0  0  0  3  0  0  0  0  0  0
  -29.0660  -20.5620   20.3890 C   0  0  0  0  0  0  0  0  0  0  0  0
  -28.9720  -21.5230   19.2960 C   0  0  0  0  0  0  0  0  0  0  0  0
  -28.2800  -24.0060   20.3280 C   0  0  0  0  0  0  0  0  0  0  0  0
  -29.5900  -19.1940   18.5310 C   0  0  0  0  0  0  0  0  0  0  0  0
  -29.3860  -20.6910   18.0940 C   0  0  0  0  0  2  0  0  0  0  0  0
  -29.7730  -18.8770   20.0560 C   0  0  0  0  0  3  0  0  0  0  0  0
  -29.6030  -18.3090   17.6670 O   0  0  0  0  0  0  0  0  0  0  0  0
  -30.3060  -15.7590   20.2020 C   0  0  0  0  0  0  0  0  0  0  0  0
  -30.4010  -13.2230   19.3530 C   0  0  0  0  0  2  0  0  0  0  0  0
  -29.4960  -12.8340   18.1490 C   0  0  0  0  0  2  0  0  0  0  0  0
  -28.0800  -12.4680   18.6210 C   0  0  0  0  0  2  0  0  0  0  0  0
  -27.5820  -13.4500   19.7050 C   0  0  0  0  0  3  0  0  0  0  0  0
  -28.6270  -13.7540   20.8050 C   0  0  0  0  0  2  0  0  0  0  0  0
  -29.7860  -14.3910   20.1360 N   0  0  0  0  0  0  0  0  0  0  0  0
  -31.5340  -15.6990   19.9950 O   0  0  0  0  0  0  0  0  0  0  0  0
  -29.5510  -17.1220   20.2830 N   0  0  0  0  0  0  0  0  0  0  0  0
  -28.5710  -16.9350   20.4290 H   0  0  0  0  0  0  0  0  0  0  0  0
  -25.2290  -13.9510   20.5130 C   0  0  0  0  0  0  0  0  0  0  0  0
  -24.1830  -13.1570   20.8880 C   0  0  0  0  0  0  0  0  0  0  0  0
  -24.6660  -11.8120   20.8310 C   0  0  0  0  0  0  0  0  0  0  0  0
  -26.2770  -13.0930   20.2410 N   0  0  0  0  0  0  0  0  0  0  0  0
  -25.9550  -11.7990   20.4990 N   0  0  0  0  0  0  0  0  0  0  0  0
  -23.9530  -10.5390   21.0110 C   0  0  0  0  0  0  0  0  0  0  0  0
  -24.3800   -9.5780   21.9520 C   0  0  0  0  0  3  0  0  0  0  0  0
  -23.6610   -8.3750   22.1240 C   0  0  0  0  0  3  0  0  0  0  0  0
  -22.5010   -8.1250   21.3540 C   0  0  0  0  0  0  0  0  0  0  0  0
  -22.0930   -9.0750   20.4020 C   0  0  0  0  0  3  0  0  0  0  0  0
  -22.8120  -10.2690   20.2280 C   0  0  0  0  0  3  0  0  0  0  0  0
  -21.7560   -6.9720   21.4340 O   0  0  0  0  0  0  0  0  0  0  0  0
  -21.6650   -6.2530   22.5990 C   0  0  0  0  0  0  0  0  0  0  0  0
  -21.1400   -6.8150   23.7830 C   0  0  0  0  0  3  0  0  0  0  0  0
  -21.0010   -6.0210   24.9370 C   0  0  0  0  0  3  0  0  0  0  0  0
  -21.3760   -4.6640   24.9090 C   0  0  0  0  0  0  0  0  0  0  0  0
  -21.8940   -4.1010   23.7300 C   0  0  0  0  0  3  0  0  0  0  0  0
  -22.0340   -4.8930   22.5770 C   0  0  0  0  0  0  0  0  0  0  0  0
  -22.5140   -4.3400   21.4370 F   0  0  0  0  0  0  0  0  0  0  0  0
  -21.2350   -3.8970   26.0160 F   0  0  0  0  0  0  0  0  0  0  0  0
  -22.7850  -13.6150   21.1780 C   0  0  0  0  0  0  0  0  0  0  0  0
  -22.0730  -12.9020   22.0420 N   0  0  0  0  0  0  0  0  0  0  0  0
  -22.3350  -14.6440   20.6740 O   0  0  0  0  0  0  0  0  0  0  0  0
  -22.4510  -12.0690   22.4690 H   0  0  0  0  0  0  0  0  0  0  0  0
  -21.1370  -13.1940   22.2820 H   0  0  0  0  0  0  0  0  0  0  0  0
  -25.3700  -15.3260   20.3460 N   0  0  0  0  0  0  0  0  0  0  0  0
  -24.5840  -15.9600   20.4480 H   0  0  0  0  0  0  0  0  0  0  0  0
  -26.1830  -15.7680   19.9380 H   0  0  0  0  0  0  0  0  0  0  0  0
  -28.2060  -25.6320   20.3340 O   0  0  0  0  0  0  0  0  0  0  0  0
  -24.6500  -31.9220   23.2330 C   0  0  0  0  0  0  0  0  0  0  0  0
  -27.1880  -26.8070   20.3100 C   0  0  0  0  0  0  0  0  0  0  0  0
  -23.4680  -30.5100   21.6040 C   0  0  0  0  0  3  0  0  0  0  0  0
  -24.9180  -28.8420   20.2170 C   0  0  0  0  0  0  0  0  0  0  0  0
  -26.0450  -30.6460   21.4930 C   0  0  0  0  0  2  0  0  0  0  0  0
  -26.1080  -29.2040   20.8570 C   0  0  0  0  0  0  0  0  0  0  0  0
  -27.2240  -28.2140   20.8730 C   0  0  0  0  0  3  0  0  0  0  0  0
  -25.9650  -26.6570   19.6070 C   0  0  0  0  0  3  0  0  0  0  0  0
  -24.8830  -27.5920   19.5700 C   0  0  0  0  0  3  0  0  0  0  0  0
  -23.7120  -29.7960   20.2420 C   0  0  0  0  0  2  0  0  0  0  0  0
  -24.7450  -31.0610   22.1630 N   0  0  0  0  0  0  0  0  0  0  0  0
  -23.5560  -32.2280   23.7360 O   0  0  0  0  0  0  0  0  0  0  0  0
  -22.7470  -29.5430   22.5830 C   0  0  0  0  0  0  0  0  0  0  0  0
  -21.4160  -29.3850   22.4510 N   0  0  0  0  0  0  0  0  0  0  0  0
  -23.3970  -28.9330   23.4340 O   0  0  0  0  0  0  0  0  0  0  0  0
  -20.9400  -29.9270   21.7430 H   0  0  0  0  0  0  0  0  0  0  0  0
  -18.0250  -28.1800   22.9620 C   0  0  0  0  0  0  0  0  0  0  0  0
  -20.5850  -28.4560   23.2290 C   0  0  0  0  0  3  0  0  0  0  0  0
  -20.6900  -27.0180   22.6700 C   0  0  0  0  0  2  0  0  0  0  0  0
  -19.5920  -26.6840   21.6540 C   0  0  0  0  0  2  0  0  0  0  0  0
  -18.2080  -26.8280   22.2930 C   0  0  0  0  0  2  0  0  0  0  0  0
  -19.1410  -28.9520   23.3870 C   0  0  0  0  0  0  0  0  0  0  0  0
  -18.9130  -30.2130   23.9790 C   0  0  0  0  0  3  0  0  0  0  0  0
  -17.6050  -30.7050   24.1470 C   0  0  0  0  0  3  0  0  0  0  0  0
  -16.5040  -29.9320   23.7340 C   0  0  0  0  0  3  0  0  0  0  0  0
  -16.7160  -28.6720   23.1490 C   0  0  0  0  0  3  0  0  0  0  0  0
  -25.9110  -32.5770   23.8750 C   0  0  0  0  0  3  0  0  0  0  0  0
  -25.5890  -33.9820   24.1970 N   0  0  0  0  0  0  0  0  0  0  0  0
  -25.9140  -35.0410   23.4440 C   0  0  0  0  0  0  0  0  0  0  0  0
  -26.5760  -34.9400   22.4080 O   0  0  0  0  0  0  0  0  0  0  0  0
  -24.9990  -34.1340   25.0010 H   0  0  0  0  0  0  0  0  0  0  0  0
  -24.1790  -36.8410   23.1260 C   0  0  0  0  0  1  0  0  0  0  0  0
  -25.4360  -36.4330   23.9120 C   0  0  0  0  0  3  0  0  0  0  0  0
  -27.5800  -37.3350   24.7080 C   0  0  0  0  0  1  0  0  0  0  0  0
  -26.4660  -37.4890   23.7760 N   0  0  0  0  0  0  0  0  0  0  0  0
  -26.0580  -38.4090   23.9180 H   0  0  0  0  0  0  0  0  0  0  0  0
  -26.4000  -31.8300   25.1780 C   0  0  1  0  0  0  0  0  0  0  0  0
  -25.2820  -31.6070   26.2260 C   0  0  0  0  0  1  0  0  0  0  0  0
  -26.9980  -30.4480   24.8350 C   0  0  0  0  0  1  0  0  0  0  0  0
  -27.5330  -32.6400   25.8530 C   0  0  0  0  0  1  0  0  0  0  0  0
  2  1  1  0
  3  5  2  0
  3  6  1  0
  4  1  2  0
  5  4  1  0
  6 49  1  0
  6  2  2  0
  7  9  1  0
  8  7  1  0
  8  5  1  0
  9 19  1  0
  9  4  1  0
 10  7  2  0
 11 19  1  0
 12 17  1  0
 13 14  1  0
 13 12  1  0
 15 14  1  0
 15 24  1  0
 15 16  1  0
 17 11  1  0
 17 16  1  0
 18 11  2  0
 19 20  1  0
 21 22  2  0
 22 41  1  0
 23 22  1  0
 23 26  1  0
 24 25  1  0
 24 21  1  0
 25 23  2  0
 26 27  1  0
 27 28  2  0
 29 32  1  0
 29 28  1  0
 30 29  2  0
 31 30  1  0
 31 26  2  0
 32 33  1  0
 33 34  1  0
 34 35  2  0
 36 35  1  0
 36 40  1  0
 37 36  2  0
 38 33  2  0
 38 37  1  0
 39 38  1  0
 41 42  1  0
 42 45  1  0
 42 44  1  0
 43 41  2  0
 46 47  1  0
 46 21  1  0
 48 46  1  0
 50 61  2  0
 51 49  1  0
 51 56  1  0
 52 60  1  0
 52 62  1  0
 53 59  1  0
 53 55  1  0
 54 60  1  0
 55 56  2  0
 55 54  1  0
 57 51  2  0
 58 57  1  0
 58 53  2  0
 59 52  1  0
 60 50  1  0
 62 64  2  0
 63 62  1  0
 65 63  1  0
 66 75  2  0
 66 71  1  0
 67 63  1  0
 67 71  1  0
 68 67  1  0
 69 70  1  0
 69 68  1  0
 70 66  1  0
 71 72  2  0
 72 73  1  0
 74 73  2  0
 75 74  1  0
 76 50  1  0
 76 77  1  0
 76 86  1  0
 77 80  1  0
 78 82  1  0
 78 77  1  0
 79 78  2  0
 82 81  1  0
 84 82  1  0
 84 85  1  0
 84 83  1  0
 86 89  1  1
 86 87  1  0
 88 86  1  0
M  ISO  4   6 101  11 100  19 100  49 101
M  END
>  <TORSDO>  (10) 
F 16

>  <SCORE>  (10) 
-16.064

>  <name>  (10) 
9

>  <ligand_id>  (10) 
9

>  <original_smiles>  (10) 
[H]c1c([H])c([H])c2c(c1[H])C([H])([H])C([H])([H])C([H])([H])C2([H])N([H])C(=O)C1([H])N(C(=O)C([H])(N([H])C(=O)C([H])(N([H])C([H])([H])[H])C([H])([H])[H])C(C([H])([H])[H])(C([H])([H])[H])C([H])([H])[H])C([H])([H])c2c([H])c(Oc3c([H])c([H])c4c(c3[H])C([H])([H])C(=O)C4([H])N([H])C(=O)N3C([H])([H])C([H])([H])C([H])([H])C([H])(n4nc(-c5c([H])c([H])c(Oc6c([H])c([H])c(F)c([H])c6F)c([H])c5[H])c(C(=O)N([H])[H])c4N([H])[H])C3([H])[H])c([H])c([H])c2C1([H])[H]

>  <smiles>  (10) 
[H]c1c([H])c([H])c2c(c1[H])C([H])([H])C([H])([H])C([H])([H])C2([H])N([H])C(=O)C1([H])N(C(=O)C([H])(N([H])C(=O)C([H])(N([H])C([H])([H])[H])C([H])([H])[H])C(C([H])([H])[H])(C([H])([H])[H])C([H])([H])[H])C([H])([H])c2c([H])c(Oc3c([H])c([H])c4c(c3[H])C([H])([H])C(=O)C4([H])N([H])C(=O)N3C([H])([H])C([H])([H])C([H])([H])C([H])(n4nc(-c5c([H])c([H])c(Oc6c([H])c([H])c(F)c([H])c6F)c([H])c5[H])c(C(=O)N([H])[H])c4N([H])[H])C3([H])[H])c([H])c([H])c2C1([H])[H]

$$$$
10:0:0
     RDKit          3D

 91 99  0  0  1  0  0  0  0  0999 V2000
  -29.6010  -20.8300   18.5380 C   0  0  0  0  0  3  0  0  0  0  0  0
  -29.6040  -22.0940   17.8980 C   0  0  0  0  0  3  0  0  0  0  0  0
  -28.6530  -21.9160   20.4690 C   0  0  0  0  0  3  0  0  0  0  0  0
  -29.1150  -20.6390   19.8470 C   0  0  0  0  0  0  0  0  0  0  0  0
  -28.6590  -23.2830   19.8560 C   0  0  0  0  0  0  0  0  0  0  0  0
  -29.1490  -23.2860   18.5210 C   0  0  0  0  0  0  0  0  0  0  0  0
  -29.1520  -24.4520   17.7490 N   0  0  0  0  0  0  0  0  0  0  0  0
  -28.7320  -24.3630   16.8310 H   0  0  0  0  0  0  0  0  0  0  0  0
  -28.8210  -25.3000   18.1990 H   0  0  0  0  0  0  0  0  0  0  0  0
  -28.9540  -19.0600   20.3710 C   0  0  0  0  0  3  0  0  0  0  0  0
  -30.0150  -17.7530   20.1040 C   0  0  0  0  0  3  0  0  0  0  0  0
  -30.5280  -15.0180   20.2920 C   0  0  0  0  0  0  0  0  0  0  0  0
  -30.4280  -12.6520   19.3890 C   0  0  0  0  0  2  0  0  0  0  0  0
  -29.5050  -12.6300   18.1460 C   0  0  0  0  0  2  0  0  0  0  0  0
  -28.0310  -12.4250   18.5550 C   0  0  0  0  0  2  0  0  0  0  0  0
  -27.6230  -13.3250   19.7490 C   0  0  0  0  0  3  0  0  0  0  0  0
  -28.6730  -13.3220   20.8770 C   0  0  0  0  0  2  0  0  0  0  0  0
  -29.9430  -13.7510   20.2740 N   0  0  0  0  0  0  0  0  0  0  0  0
  -31.7310  -15.0780   20.0170 O   0  0  0  0  0  0  0  0  0  0  0  0
  -29.7390  -16.2050   20.4010 N   0  0  0  0  0  0  0  0  0  0  0  0
  -28.7770  -15.9880   20.6130 H   0  0  0  0  0  0  0  0  0  0  0  0
  -25.2340  -13.8810   20.4540 C   0  0  0  0  0  0  0  0  0  0  0  0
  -24.1740  -13.0980   20.8240 C   0  0  0  0  0  0  0  0  0  0  0  0
  -24.6510  -11.7510   20.8080 C   0  0  0  0  0  0  0  0  0  0  0  0
  -26.2890  -13.0100   20.2410 N   0  0  0  0  0  0  0  0  0  0  0  0
  -25.9460  -11.7220   20.5150 N   0  0  0  0  0  0  0  0  0  0  0  0
  -23.9280  -10.4830   21.0000 C   0  0  0  0  0  0  0  0  0  0  0  0
  -24.3500   -9.5270   21.9500 C   0  0  0  0  0  3  0  0  0  0  0  0
  -23.6280   -8.3270   22.1270 C   0  0  0  0  0  3  0  0  0  0  0  0
  -22.4710   -8.0760   21.3540 C   0  0  0  0  0  0  0  0  0  0  0  0
  -22.0680   -9.0170   20.3910 C   0  0  0  0  0  3  0  0  0  0  0  0
  -22.7910  -10.2080   20.2110 C   0  0  0  0  0  3  0  0  0  0  0  0
  -21.7270   -6.9220   21.4380 O   0  0  0  0  0  0  0  0  0  0  0  0
  -21.6550   -6.1950   22.5970 C   0  0  0  0  0  0  0  0  0  0  0  0
  -21.1890   -6.7610   23.8040 C   0  0  0  0  0  3  0  0  0  0  0  0
  -21.0660   -5.9590   24.9560 C   0  0  0  0  0  3  0  0  0  0  0  0
  -21.4020   -4.5950   24.9060 C   0  0  0  0  0  0  0  0  0  0  0  0
  -21.8680   -4.0280   23.7070 C   0  0  0  0  0  3  0  0  0  0  0  0
  -21.9900   -4.8260   22.5550 C   0  0  0  0  0  0  0  0  0  0  0  0
  -22.4180   -4.2710   21.3950 F   0  0  0  0  0  0  0  0  0  0  0  0
  -21.2760   -3.8230   26.0130 F   0  0  0  0  0  0  0  0  0  0  0  0
  -22.7750  -13.5670   21.0890 C   0  0  0  0  0  0  0  0  0  0  0  0
  -22.0530  -12.8650   21.9590 N   0  0  0  0  0  0  0  0  0  0  0  0
  -22.3270  -14.5810   20.5620 O   0  0  0  0  0  0  0  0  0  0  0  0
  -22.4330  -12.0350   22.3900 H   0  0  0  0  0  0  0  0  0  0  0  0
  -21.1150  -13.1600   22.1850 H   0  0  0  0  0  0  0  0  0  0  0  0
  -25.3890  -15.2480   20.2600 N   0  0  0  0  0  0  0  0  0  0  0  0
  -24.6050  -15.8950   20.2700 H   0  0  0  0  0  0  0  0  0  0  0  0
  -26.2380  -15.6620   19.8980 H   0  0  0  0  0  0  0  0  0  0  0  0
  -27.9730  -24.6590   20.4960 C   0  0  0  0  0  2  0  0  0  0  0  0
  -28.2700  -26.1620   20.1730 O   0  0  0  0  0  0  0  0  0  0  0  0
  -24.6340  -31.8780   23.2310 C   0  0  0  0  0  0  0  0  0  0  0  0
  -27.2190  -27.1530   20.1860 C   0  0  0  0  0  0  0  0  0  0  0  0
  -23.4380  -30.4790   21.5950 C   0  0  0  0  0  3  0  0  0  0  0  0
  -24.8960  -28.9130   20.1610 C   0  0  0  0  0  0  0  0  0  0  0  0
  -25.9950  -30.7350   21.4460 C   0  0  0  0  0  2  0  0  0  0  0  0
  -26.0690  -29.3440   20.7920 C   0  0  0  0  0  0  0  0  0  0  0  0
  -27.2310  -28.4790   20.7900 C   0  0  0  0  0  3  0  0  0  0  0  0
  -26.0300  -26.8450   19.4920 C   0  0  0  0  0  3  0  0  0  0  0  0
  -24.8940  -27.6830   19.4890 C   0  0  0  0  0  3  0  0  0  0  0  0
  -23.6650  -29.8120   20.2120 C   0  0  0  0  0  2  0  0  0  0  0  0
  -24.7060  -31.0550   22.1420 N   0  0  0  0  0  0  0  0  0  0  0  0
  -23.5500  -32.1620   23.7620 O   0  0  0  0  0  0  0  0  0  0  0  0
  -22.7660  -29.4670   22.5570 C   0  0  0  0  0  0  0  0  0  0  0  0
  -21.4380  -29.2980   22.4400 N   0  0  0  0  0  0  0  0  0  0  0  0
  -23.4450  -28.8400   23.3760 O   0  0  0  0  0  0  0  0  0  0  0  0
  -20.9510  -29.8540   21.7540 H   0  0  0  0  0  0  0  0  0  0  0  0
  -18.0530  -28.1040   22.9560 C   0  0  0  0  0  0  0  0  0  0  0  0
  -20.6160  -28.3630   23.2120 C   0  0  0  0  0  3  0  0  0  0  0  0
  -20.7130  -26.9310   22.6360 C   0  0  0  0  0  2  0  0  0  0  0  0
  -19.6050  -26.6090   21.6280 C   0  0  0  0  0  2  0  0  0  0  0  0
  -18.2240  -26.7540   22.2770 C   0  0  0  0  0  2  0  0  0  0  0  0
  -19.1750  -28.8660   23.3800 C   0  0  0  0  0  0  0  0  0  0  0  0
  -18.9580  -30.1280   23.9760 C   0  0  0  0  0  3  0  0  0  0  0  0
  -17.6540  -30.6270   24.1490 C   0  0  0  0  0  3  0  0  0  0  0  0
  -16.5490  -29.8610   23.7410 C   0  0  0  0  0  3  0  0  0  0  0  0
  -16.7470  -28.6020   23.1480 C   0  0  0  0  0  3  0  0  0  0  0  0
  -25.9100  -32.5220   23.8550 C   0  0  0  0  0  3  0  0  0  0  0  0
  -26.4240  -31.7590   25.1380 C   0  0  1  0  0  0  0  0  0  0  0  0
  -25.3300  -31.5280   26.2060 C   0  0  0  0  0  1  0  0  0  0  0  0
  -27.0150  -30.3800   24.7690 C   0  0  0  0  0  1  0  0  0  0  0  0
  -27.5700  -32.5650   25.7960 C   0  0  0  0  0  1  0  0  0  0  0  0
  -25.5960  -33.9210   24.1820 N   0  0  0  0  0  0  0  0  0  0  0  0
  -25.9260  -34.9770   23.4250 C   0  0  0  0  0  0  0  0  0  0  0  0
  -26.5930  -34.8750   22.3930 O   0  0  0  0  0  0  0  0  0  0  0  0
  -25.0020  -34.0720   24.9850 H   0  0  0  0  0  0  0  0  0  0  0  0
  -24.1960  -36.7780   23.0790 C   0  0  0  0  0  1  0  0  0  0  0  0
  -25.4390  -36.3660   23.8870 C   0  0  0  0  0  3  0  0  0  0  0  0
  -27.5740  -37.2530   24.7210 C   0  0  0  0  0  1  0  0  0  0  0  0
  -26.4730  -37.4200   23.7740 N   0  0  0  0  0  0  0  0  0  0  0  0
  -26.0670  -38.3430   23.9150 H   0  0  0  0  0  0  0  0  0  0  0  0
  1  4  1  0
  2  6  1  0
  2  1  2  0
  4 10  1  0
  4  3  2  0
  5  3  1  0
  5 50  1  0
  6  5  2  0
  7  9  1  0
  7  6  1  0
  8  7  1  0
 11 10  2  0
 11 20  1  0
 12 20  1  0
 13 18  1  0
 14 15  1  0
 14 13  1  0
 16 15  1  0
 16 25  1  0
 16 17  1  0
 18 12  1  0
 18 17  1  0
 19 12  2  0
 20 21  1  0
 22 23  2  0
 23 42  1  0
 24 23  1  0
 24 27  1  0
 25 22  1  0
 25 26  1  0
 26 24  2  0
 27 28  1  0
 28 29  2  0
 30 33  1  0
 30 29  1  0
 31 30  2  0
 32 31  1  0
 32 27  2  0
 33 34  1  0
 34 35  1  0
 35 36  2  0
 37 36  1  0
 37 41  1  0
 38 37  2  0
 39 34  2  0
 39 38  1  0
 40 39  1  0
 42 43  1  0
 43 46  1  0
 43 45  1  0
 44 42  2  0
 47 48  1  0
 47 22  1  0
 49 47  1  0
 51 53  1  0
 51 50  1  0
 52 63  2  0
 53 58  1  0
 54 62  1  0
 54 64  1  0
 55 61  1  0
 55 57  1  0
 56 62  1  0
 57 56  1  0
 58 57  2  0
 59 53  2  0
 60 59  1  0
 60 55  2  0
 61 54  1  0
 62 52  1  0
 64 66  2  0
 65 64  1  0
 67 65  1  0
 68 77  2  0
 68 73  1  0
 69 65  1  0
 69 73  1  0
 70 69  1  0
 71 72  1  0
 71 70  1  0
 72 68  1  0
 73 74  2  0
 74 75  1  0
 76 75  2  0
 77 76  1  0
 78 52  1  0
 78 83  1  0
 78 79  1  0
 79 82  1  1
 79 80  1  0
 81 79  1  0
 83 86  1  0
 84 88  1  0
 84 83  1  0
 85 84  2  0
 88 87  1  0
 90 88  1  0
 90 91  1  0
 90 89  1  0
M  ISO  4  12 100  20 100  50 101  51 101
M  END
>  <TORSDO>  (11) 
F 20

>  <SCORE>  (11) 
-14.653

>  <name>  (11) 
10

>  <ligand_id>  (11) 
10

>  <original_smiles>  (11) 
[H]c1c([H])c([H])c2c(c1[H])C([H])([H])C([H])([H])C([H])([H])C2([H])N([H])C(=O)C1([H])N(C(=O)C([H])(N([H])C(=O)C([H])(N([H])C([H])([H])[H])C([H])([H])[H])C(C([H])([H])[H])(C([H])([H])[H])C([H])([H])[H])C([H])([H])c2c([H])c(OC([H])([H])c3c([H])c(C([H])([H])C([H])([H])N([H])C(=O)N4C([H])([H])C([H])([H])C([H])([H])C([H])(n5nc(-c6c([H])c([H])c(Oc7c([H])c([H])c(F)c([H])c7F)c([H])c6[H])c(C(=O)N([H])[H])c5N([H])[H])C4([H])[H])c([H])c([H])c3N([H])[H])c([H])c([H])c2C1([H])[H]

>  <smiles>  (11) 
[H]c1c([H])c([H])c2c(c1[H])C([H])([H])C([H])([H])C([H])([H])C2([H])N([H])C(=O)C1([H])N(C(=O)C([H])(N([H])C(=O)C([H])(N([H])C([H])([H])[H])C([H])([H])[H])C(C([H])([H])[H])(C([H])([H])[H])C([H])([H])[H])C([H])([H])c2c([H])c(OC([H])([H])c3c([H])c(C([H])([H])C([H])([H])N([H])C(=O)N4C([H])([H])C([H])([H])C([H])([H])C([H])(n5nc(-c6c([H])c([H])c(Oc7c([H])c([H])c(F)c([H])c7F)c([H])c6[H])c(C(=O)N([H])[H])c5N([H])[H])C4([H])[H])c([H])c([H])c3N([H])[H])c([H])c([H])c2C1([H])[H]

$$$$
11:0:0
     RDKit          3D

 88 96  0  0  1  0  0  0  0  0999 V2000
  -30.1600  -21.1070   20.5250 C   0  0  0  0  0  3  0  0  0  0  0  0
  -29.7930  -22.6370   20.5520 C   0  0  0  0  0  3  0  0  0  0  0  0
  -27.8930  -22.2270   19.6120 C   0  0  0  0  0  3  0  0  0  0  0  0
  -28.2690  -20.6730   19.5750 C   0  0  0  0  0  0  0  0  0  0  0  0
  -29.4450  -19.8760   20.0000 C   0  0  0  0  0  0  0  0  0  0  0  0
  -28.6060  -23.5080   20.1260 C   0  0  0  0  0  0  0  0  0  0  0  0
  -27.4280  -19.5150   19.1050 C   0  0  0  0  0  0  0  0  0  0  0  0
  -28.0730  -18.0500   19.1960 C   0  0  0  0  0  2  0  0  0  0  0  0
  -29.4080  -17.9360   20.0330 C   0  0  0  0  0  3  0  0  0  0  0  0
  -29.0750  -17.7370   21.5250 C   0  0  0  0  0  1  0  0  0  0  0  0
  -26.2880  -19.6550   18.6540 O   0  0  0  0  0  0  0  0  0  0  0  0
  -30.2830  -16.1380   19.6990 C   0  0  0  0  0  2  0  0  0  0  0  0
  -30.5520  -13.4730   18.9540 C   0  0  0  0  0  2  0  0  0  0  0  0
  -29.6340  -12.8630   17.8370 C   0  0  0  0  0  2  0  0  0  0  0  0
  -28.2890  -12.3920   18.4050 C   0  0  0  0  0  2  0  0  0  0  0  0
  -27.7680  -13.4080   19.4380 C   0  0  0  0  0  3  0  0  0  0  0  0
  -28.8330  -13.9110   20.4510 C   0  0  0  0  0  2  0  0  0  0  0  0
  -29.8920  -14.6710   19.7110 N   0  0  0  0  0  0  0  0  0  0  0  0
  -31.4960  -16.0540   19.3840 O   0  0  0  0  0  1  0  0  0  0  0  0
  -25.4970  -13.8510   20.4620 C   0  0  0  0  0  0  0  0  0  0  0  0
  -24.4810  -13.0450   20.8830 C   0  0  0  0  0  0  0  0  0  0  0  0
  -24.9460  -11.7020   20.7260 C   0  0  0  0  0  0  0  0  0  0  0  0
  -26.5150  -13.0070   20.0670 N   0  0  0  0  0  0  0  0  0  0  0  0
  -26.2050  -11.7000   20.2860 N   0  0  0  0  0  0  0  0  0  0  0  0
  -24.2350  -10.4280   20.9100 C   0  0  0  0  0  0  0  0  0  0  0  0
  -24.6720   -9.4620   21.8420 C   0  0  0  0  0  3  0  0  0  0  0  0
  -23.9540   -8.2600   22.0190 C   0  0  0  0  0  3  0  0  0  0  0  0
  -22.7830   -8.0130   21.2640 C   0  0  0  0  0  0  0  0  0  0  0  0
  -22.3630   -8.9680   20.3210 C   0  0  0  0  0  3  0  0  0  0  0  0
  -23.0820  -10.1620   20.1430 C   0  0  0  0  0  3  0  0  0  0  0  0
  -22.0370   -6.8620   21.3490 O   0  0  0  0  0  0  0  0  0  0  0  0
  -21.8710   -6.1970   22.5370 C   0  0  0  0  0  0  0  0  0  0  0  0
  -21.2720   -6.8150   23.6580 C   0  0  0  0  0  3  0  0  0  0  0  0
  -21.0580   -6.0760   24.8380 C   0  0  0  0  0  3  0  0  0  0  0  0
  -21.4290   -4.7190   24.8980 C   0  0  0  0  0  0  0  0  0  0  0  0
  -22.0180   -4.1010   23.7810 C   0  0  0  0  0  3  0  0  0  0  0  0
  -22.2340   -4.8370   22.6040 C   0  0  0  0  0  0  0  0  0  0  0  0
  -22.7840   -4.2300   21.5230 F   0  0  0  0  0  0  0  0  0  0  0  0
  -21.2150   -4.0060   26.0280 F   0  0  0  0  0  0  0  0  0  0  0  0
  -23.1150  -13.5000   21.3050 C   0  0  0  0  0  0  0  0  0  0  0  0
  -22.4780  -12.7680   22.2110 N   0  0  0  0  0  0  0  0  0  0  0  0
  -22.6280  -14.5430   20.8690 O   0  0  0  0  0  0  0  0  0  0  0  0
  -22.8890  -11.9240   22.5840 H   0  0  0  0  0  0  0  0  0  0  0  0
  -21.5670  -13.0550   22.5380 H   0  0  0  0  0  0  0  0  0  0  0  0
  -25.6330  -15.2300   20.3460 N   0  0  0  0  0  0  0  0  0  0  0  0
  -24.8670  -15.8630   20.5480 H   0  0  0  0  0  0  0  0  0  0  0  0
  -26.4220  -15.6830   19.9060 H   0  0  0  0  0  0  0  0  0  0  0  0
  -28.4380  -25.2230   20.2180 O   0  0  0  0  0  0  0  0  0  0  0  0
  -24.9300  -31.7740   23.2940 C   0  0  0  0  0  0  0  0  0  0  0  0
  -27.4610  -26.5320   20.2330 C   0  0  0  0  0  0  0  0  0  0  0  0
  -23.7790  -30.4360   21.5860 C   0  0  0  0  0  3  0  0  0  0  0  0
  -25.2440  -28.7590   20.1780 C   0  0  0  0  0  0  0  0  0  0  0  0
  -26.3690  -30.4720   21.5660 C   0  0  0  0  0  2  0  0  0  0  0  0
  -26.4280  -29.0290   20.8700 C   0  0  0  0  0  0  0  0  0  0  0  0
  -27.5050  -27.9540   20.8600 C   0  0  0  0  0  3  0  0  0  0  0  0
  -26.2450  -26.5460   19.4810 C   0  0  0  0  0  3  0  0  0  0  0  0
  -25.2080  -27.5470   19.4600 C   0  0  0  0  0  3  0  0  0  0  0  0
  -24.0590  -29.7550   20.2110 C   0  0  0  0  0  2  0  0  0  0  0  0
  -25.0520  -30.9330   22.2020 N   0  0  0  0  0  0  0  0  0  0  0  0
  -23.8230  -32.0840   23.7720 O   0  0  0  0  0  0  0  0  0  0  0  0
  -23.0000  -29.4640   22.5170 C   0  0  0  0  0  0  0  0  0  0  0  0
  -21.6700  -29.3300   22.3420 N   0  0  0  0  0  0  0  0  0  0  0  0
  -23.6120  -28.8210   23.3730 O   0  0  0  0  0  0  0  0  0  0  0  0
  -21.2240  -29.8980   21.6340 H   0  0  0  0  0  0  0  0  0  0  0  0
  -18.2550  -28.1320   22.7280 C   0  0  0  0  0  0  0  0  0  0  0  0
  -20.8090  -28.3820   23.0620 C   0  0  0  0  0  3  0  0  0  0  0  0
  -20.9160  -26.9630   22.4530 C   0  0  0  0  0  2  0  0  0  0  0  0
  -19.8410  -26.6770   21.3990 C   0  0  0  0  0  2  0  0  0  0  0  0
  -18.4440  -26.8060   22.0090 C   0  0  0  0  0  2  0  0  0  0  0  0
  -19.3640  -28.8790   23.2070 C   0  0  0  0  0  0  0  0  0  0  0  0
  -19.1290  -30.1160   23.8460 C   0  0  0  0  0  3  0  0  0  0  0  0
  -17.8180  -30.6080   24.0040 C   0  0  0  0  0  3  0  0  0  0  0  0
  -16.7250  -29.8600   23.5350 C   0  0  0  0  0  3  0  0  0  0  0  0
  -16.9430  -28.6220   22.9030 C   0  0  0  0  0  3  0  0  0  0  0  0
  -26.1710  -32.4010   24.0000 C   0  0  0  0  0  3  0  0  0  0  0  0
  -25.8530  -33.8020   24.3580 N   0  0  0  0  0  0  0  0  0  0  0  0
  -26.1910  -34.8840   23.6460 C   0  0  0  0  0  0  0  0  0  0  0  0
  -26.8550  -34.8110   22.6090 O   0  0  0  0  0  0  0  0  0  0  0  0
  -25.2580  -33.9320   25.1640 H   0  0  0  0  0  0  0  0  0  0  0  0
  -24.4510  -36.6970   23.4130 C   0  0  0  0  0  1  0  0  0  0  0  0
  -25.7260  -36.2670   24.1570 C   0  0  0  0  0  3  0  0  0  0  0  0
  -27.8850  -37.1540   24.9260 C   0  0  0  0  0  1  0  0  0  0  0  0
  -26.7510  -37.3250   24.0210 N   0  0  0  0  0  0  0  0  0  0  0  0
  -26.3480  -38.2430   24.1910 H   0  0  0  0  0  0  0  0  0  0  0  0
  -26.6070  -31.6130   25.2980 C   0  0  1  0  0  0  0  0  0  0  0  0
  -25.4550  -31.3860   26.3060 C   0  0  0  0  0  1  0  0  0  0  0  0
  -27.1880  -30.2280   24.9420 C   0  0  0  0  0  1  0  0  0  0  0  0
  -27.7330  -32.3830   26.0270 C   0  0  0  0  0  1  0  0  0  0  0  0
  1  2  1  0
  3  6  1  0
  4  3  2  0
  4  5  1  0
  5  9  1  0
  5  1  2  0
  6 48  1  0
  6  2  2  0
  7  8  1  0
  7  4  1  0
  8  9  1  0
  9 10  1  0
 11  7  2  0
 12 18  1  0
 13 18  1  0
 14 15  1  0
 14 13  1  0
 16 15  1  0
 16 23  1  0
 16 17  1  0
 18 17  1  0
 19 12  1  0
 20 21  2  0
 21 40  1  0
 22 21  1  0
 22 25  1  0
 23 24  1  0
 23 20  1  0
 24 22  2  0
 25 26  1  0
 26 27  2  0
 28 31  1  0
 28 27  1  0
 29 28  2  0
 30 29  1  0
 30 25  2  0
 31 32  1  0
 32 37  2  0
 32 33  1  0
 33 34  2  0
 34 35  1  0
 35 39  1  0
 36 35  2  0
 37 36  1  0
 38 37  1  0
 40 41  1  0
 41 44  1  0
 41 43  1  0
 42 40  2  0
 45 20  1  0
 45 46  1  0
 47 45  1  0
 48 50  1  0
 49 60  2  0
 50 55  1  0
 51 59  1  0
 51 61  1  0
 52 58  1  0
 52 54  1  0
 53 59  1  0
 54 53  1  0
 55 54  2  0
 56 50  2  0
 57 56  1  0
 57 52  2  0
 58 51  1  0
 59 49  1  0
 61 63  2  0
 62 61  1  0
 64 62  1  0
 65 74  2  0
 65 70  1  0
 66 62  1  0
 66 70  1  0
 67 66  1  0
 68 69  1  0
 68 67  1  0
 69 65  1  0
 70 71  2  0
 71 72  1  0
 73 72  2  0
 74 73  1  0
 75 49  1  0
 75 76  1  0
 75 85  1  0
 76 79  1  0
 77 81  1  0
 77 76  1  0
 78 77  2  0
 81 80  1  0
 83 81  1  0
 83 84  1  0
 83 82  1  0
 85 88  1  1
 85 86  1  0
 87 85  1  0
M  ISO  4   6 101   9 100  12 100  48 101
M  END
>  <TORSDO>  (12) 
F 16

>  <SCORE>  (12) 
-15.196

>  <name>  (12) 
11

>  <ligand_id>  (12) 
11

>  <original_smiles>  (12) 
[H]c1c([H])c([H])c2c(c1[H])C([H])([H])C([H])([H])C([H])([H])C2([H])N([H])C(=O)C1([H])N(C(=O)C([H])(N([H])C(=O)C([H])(N([H])C([H])([H])[H])C([H])([H])[H])C(C([H])([H])[H])(C([H])([H])[H])C([H])([H])[H])C([H])([H])c2c([H])c(Oc3c([H])c([H])c4c(c3[H])C(=O)C([H])([H])C4(C(=O)N3C([H])([H])C([H])([H])C([H])([H])C([H])(n4nc(-c5c([H])c([H])c(Oc6c([H])c([H])c(F)c([H])c6F)c([H])c5[H])c(C(=O)N([H])[H])c4N([H])[H])C3([H])[H])C([H])([H])[H])c([H])c([H])c2C1([H])[H]

>  <smiles>  (12) 
[H]c1c([H])c([H])c2c(c1[H])C([H])([H])C([H])([H])C([H])([H])C2([H])N([H])C(=O)C1([H])N(C(=O)C([H])(N([H])C(=O)C([H])(N([H])C([H])([H])[H])C([H])([H])[H])C(C([H])([H])[H])(C([H])([H])[H])C([H])([H])[H])C([H])([H])c2c([H])c(Oc3c([H])c([H])c4c(c3[H])C(=O)C([H])([H])C4(C(=O)N3C([H])([H])C([H])([H])C([H])([H])C([H])(n4nc(-c5c([H])c([H])c(Oc6c([H])c([H])c(F)c([H])c6F)c([H])c5[H])c(C(=O)N([H])[H])c4N([H])[H])C3([H])[H])C([H])([H])[H])c([H])c([H])c2C1([H])[H]

$$$$
12:0:0
     RDKit          3D

 89 97  0  0  1  0  0  0  0  0999 V2000
  -29.7310  -20.8620   18.6150 C   0  0  0  0  0  3  0  0  0  0  0  0
  -29.1670  -23.2910   18.6900 C   0  0  0  0  0  3  0  0  0  0  0  0
  -28.8630  -21.8770   20.6320 C   0  0  0  0  0  3  0  0  0  0  0  0
  -29.6360  -22.1420   18.0020 C   0  0  0  0  0  0  0  0  0  0  0  0
  -29.3460  -20.6360   19.9540 C   0  0  0  0  0  0  0  0  0  0  0  0
  -28.7600  -23.2440   20.0380 C   0  0  0  0  0  0  0  0  0  0  0  0
  -30.0100  -22.2960   16.5390 C   0  0  0  0  0  1  0  0  0  0  0  0
  -29.4040  -19.0850   20.5590 C   0  0  0  0  0  3  0  0  0  0  0  0
  -30.0780  -17.6770   19.8600 C   0  0  0  0  0  3  0  0  0  0  0  0
  -30.6040  -14.9580   20.0140 C   0  0  0  0  0  0  0  0  0  0  0  0
  -30.3880  -12.6490   18.9430 C   0  0  0  0  0  2  0  0  0  0  0  0
  -29.3720  -12.6740   17.7740 C   0  0  0  0  0  2  0  0  0  0  0  0
  -27.9290  -12.4750   18.2830 C   0  0  0  0  0  2  0  0  0  0  0  0
  -27.6290  -13.3210   19.5470 C   0  0  0  0  0  3  0  0  0  0  0  0
  -28.7590  -13.1990   20.5870 C   0  0  0  0  0  2  0  0  0  0  0  0
  -29.9860  -13.6950   19.9390 N   0  0  0  0  0  0  0  0  0  0  0  0
  -31.7380  -15.0220   19.5210 O   0  0  0  0  0  0  0  0  0  0  0  0
  -29.1560  -16.1710   21.6470 C   0  0  0  0  0  1  0  0  0  0  0  0
  -29.9110  -16.1730   20.3890 N   0  0  0  0  0  0  0  0  0  0  0  0
  -25.3070  -13.9060   20.4510 C   0  0  0  0  0  0  0  0  0  0  0  0
  -24.2610  -13.1310   20.8690 C   0  0  0  0  0  0  0  0  0  0  0  0
  -24.7060  -11.7770   20.7710 C   0  0  0  0  0  0  0  0  0  0  0  0
  -26.3210  -13.0240   20.1170 N   0  0  0  0  0  0  0  0  0  0  0  0
  -25.9730  -11.7360   20.3760 N   0  0  0  0  0  0  0  0  0  0  0  0
  -23.9750  -10.5180   20.9750 C   0  0  0  0  0  0  0  0  0  0  0  0
  -24.4410   -9.5340   21.8740 C   0  0  0  0  0  3  0  0  0  0  0  0
  -23.7100   -8.3430   22.0710 C   0  0  0  0  0  3  0  0  0  0  0  0
  -22.5010   -8.1260   21.3670 C   0  0  0  0  0  0  0  0  0  0  0  0
  -22.0530   -9.1000   20.4580 C   0  0  0  0  0  3  0  0  0  0  0  0
  -22.7850  -10.2840   20.2590 C   0  0  0  0  0  3  0  0  0  0  0  0
  -21.7380   -6.9890   21.4740 O   0  0  0  0  0  0  0  0  0  0  0  0
  -21.7190   -6.2410   22.6240 C   0  0  0  0  0  0  0  0  0  0  0  0
  -21.3330   -6.7940   23.8650 C   0  0  0  0  0  3  0  0  0  0  0  0
  -21.2570   -5.9740   25.0080 C   0  0  0  0  0  3  0  0  0  0  0  0
  -21.5580   -4.6020   24.9120 C   0  0  0  0  0  0  0  0  0  0  0  0
  -21.9380   -4.0480   23.6770 C   0  0  0  0  0  3  0  0  0  0  0  0
  -22.0160   -4.8660   22.5360 C   0  0  0  0  0  0  0  0  0  0  0  0
  -22.3610   -4.3240   21.3430 F   0  0  0  0  0  0  0  0  0  0  0  0
  -21.4770   -3.8110   26.0090 F   0  0  0  0  0  0  0  0  0  0  0  0
  -22.8910  -13.6190   21.2430 C   0  0  0  0  0  0  0  0  0  0  0  0
  -22.2100  -12.9160   22.1390 N   0  0  0  0  0  0  0  0  0  0  0  0
  -22.4360  -14.6630   20.7750 O   0  0  0  0  0  0  0  0  0  0  0  0
  -22.5860  -12.0680   22.5400 H   0  0  0  0  0  0  0  0  0  0  0  0
  -21.2980  -13.2330   22.4340 H   0  0  0  0  0  0  0  0  0  0  0  0
  -25.4720  -15.2800   20.3010 N   0  0  0  0  0  0  0  0  0  0  0  0
  -24.7250  -15.9360   20.5000 H   0  0  0  0  0  0  0  0  0  0  0  0
  -26.3000  -15.7230   19.9240 H   0  0  0  0  0  0  0  0  0  0  0  0
  -28.0980  -24.6090   20.7070 C   0  0  0  0  0  2  0  0  0  0  0  0
  -28.3860  -26.1040   20.3430 O   0  0  0  0  0  0  0  0  0  0  0  0
  -24.6200  -31.8020   23.2240 C   0  0  0  0  0  0  0  0  0  0  0  0
  -27.3260  -27.0840   20.3030 C   0  0  0  0  0  0  0  0  0  0  0  0
  -23.4820  -30.3830   21.5630 C   0  0  0  0  0  3  0  0  0  0  0  0
  -24.9840  -28.8080   20.1950 C   0  0  0  0  0  0  0  0  0  0  0  0
  -26.0370  -30.6700   21.4640 C   0  0  0  0  0  2  0  0  0  0  0  0
  -26.1430  -29.2700   20.8320 C   0  0  0  0  0  0  0  0  0  0  0  0
  -27.3160  -28.4250   20.8670 C   0  0  0  0  0  3  0  0  0  0  0  0
  -26.1420  -26.7270   19.6230 C   0  0  0  0  0  3  0  0  0  0  0  0
  -24.9960  -27.5490   19.5750 C   0  0  0  0  0  3  0  0  0  0  0  0
  -23.7520  -29.7000   20.1960 C   0  0  0  0  0  2  0  0  0  0  0  0
  -24.7330  -30.9740   22.1400 N   0  0  0  0  0  0  0  0  0  0  0  0
  -23.5170  -32.0790   23.7180 O   0  0  0  0  0  0  0  0  0  0  0  0
  -22.7860  -29.3750   22.5110 C   0  0  0  0  0  0  0  0  0  0  0  0
  -21.4620  -29.1940   22.3510 N   0  0  0  0  0  0  0  0  0  0  0  0
  -23.4400  -28.7580   23.3570 O   0  0  0  0  0  0  0  0  0  0  0  0
  -20.9900  -29.7450   21.6480 H   0  0  0  0  0  0  0  0  0  0  0  0
  -18.0820  -27.9610   22.7640 C   0  0  0  0  0  0  0  0  0  0  0  0
  -20.6280  -28.2560   23.1060 C   0  0  0  0  0  3  0  0  0  0  0  0
  -20.7640  -26.8190   22.5500 C   0  0  0  0  0  2  0  0  0  0  0  0
  -19.6980  -26.4720   21.5070 C   0  0  0  0  0  2  0  0  0  0  0  0
  -18.2950  -26.6070   22.1070 C   0  0  0  0  0  2  0  0  0  0  0  0
  -19.1780  -28.7400   23.2200 C   0  0  0  0  0  0  0  0  0  0  0  0
  -18.9250  -30.0050   23.7960 C   0  0  0  0  0  3  0  0  0  0  0  0
  -17.6100  -30.4910   23.9180 C   0  0  0  0  0  3  0  0  0  0  0  0
  -16.5280  -29.7090   23.4770 C   0  0  0  0  0  3  0  0  0  0  0  0
  -16.7650  -28.4450   22.9070 C   0  0  0  0  0  3  0  0  0  0  0  0
  -25.8740  -32.4570   23.8800 C   0  0  0  0  0  3  0  0  0  0  0  0
  -26.3490  -31.7060   25.1850 C   0  0  1  0  0  0  0  0  0  0  0  0
  -25.2220  -31.4780   26.2200 C   0  0  0  0  0  1  0  0  0  0  0  0
  -26.9520  -30.3270   24.8320 C   0  0  0  0  0  1  0  0  0  0  0  0
  -27.4720  -32.5160   25.8760 C   0  0  0  0  0  1  0  0  0  0  0  0
  -25.5400  -33.8570   24.1890 N   0  0  0  0  0  0  0  0  0  0  0  0
  -25.8840  -34.9090   23.4330 C   0  0  0  0  0  0  0  0  0  0  0  0
  -26.5800  -34.8030   22.4230 O   0  0  0  0  0  0  0  0  0  0  0  0
  -24.9220  -34.0080   24.9720 H   0  0  0  0  0  0  0  0  0  0  0  0
  -24.1470  -36.6860   23.0280 C   0  0  0  0  0  1  0  0  0  0  0  0
  -25.3740  -36.2980   23.8690 C   0  0  0  0  0  3  0  0  0  0  0  0
  -27.4830  -37.2110   24.7370 C   0  0  0  0  0  1  0  0  0  0  0  0
  -26.3990  -37.3600   23.7680 N   0  0  0  0  0  0  0  0  0  0  0  0
  -25.9820  -38.2780   23.9000 H   0  0  0  0  0  0  0  0  0  0  0  0
  1  5  1  0
  2  6  2  0
  4  1  2  0
  4  2  1  0
  5  8  1  0
  5  3  2  0
  6  3  1  0
  6 48  1  0
  7  4  1  0
  9 19  1  0
  9  8  2  0
 10 19  1  0
 11 16  1  0
 12 13  1  0
 12 11  1  0
 14 13  1  0
 14 23  1  0
 14 15  1  0
 16 10  1  0
 16 15  1  0
 17 10  2  0
 19 18  1  0
 20 21  2  0
 21 40  1  0
 22 21  1  0
 22 25  1  0
 23 24  1  0
 23 20  1  0
 24 22  2  0
 25 26  1  0
 26 27  2  0
 28 31  1  0
 28 27  1  0
 29 28  2  0
 30 29  1  0
 30 25  2  0
 31 32  1  0
 32 33  1  0
 33 34  2  0
 35 34  1  0
 35 39  1  0
 36 35  2  0
 37 32  2  0
 37 36  1  0
 38 37  1  0
 40 41  1  0
 41 44  1  0
 41 43  1  0
 42 40  2  0
 45 20  1  0
 45 46  1  0
 47 45  1  0
 49 48  1  0
 50 61  2  0
 51 49  1  0
 51 56  1  0
 52 60  1  0
 52 62  1  0
 53 59  1  0
 53 55  1  0
 54 60  1  0
 55 56  2  0
 55 54  1  0
 57 51  2  0
 58 57  1  0
 58 53  2  0
 59 52  1  0
 60 50  1  0
 62 64  2  0
 63 62  1  0
 65 63  1  0
 66 75  2  0
 66 71  1  0
 67 63  1  0
 67 71  1  0
 68 67  1  0
 69 70  1  0
 69 68  1  0
 70 66  1  0
 71 72  2  0
 72 73  1  0
 74 73  2  0
 75 74  1  0
 76 50  1  0
 76 81  1  0
 76 77  1  0
 77 80  1  1
 77 78  1  0
 79 77  1  0
 81 84  1  0
 82 86  1  0
 82 81  1  0
 83 82  2  0
 86 85  1  0
 88 86  1  0
 88 89  1  0
 88 87  1  0
M  ISO  4  10 100  19 100  48 101  49 101
M  END
>  <TORSDO>  (13) 
F 19

>  <SCORE>  (13) 
-14.314

>  <name>  (13) 
12

>  <ligand_id>  (13) 
12

>  <original_smiles>  (13) 
[H]c1c([H])c([H])c2c(c1[H])C([H])([H])C([H])([H])C([H])([H])C2([H])N([H])C(=O)C1([H])N(C(=O)C([H])(N([H])C(=O)C([H])(N([H])C([H])([H])[H])C([H])([H])[H])C(C([H])([H])[H])(C([H])([H])[H])C([H])([H])[H])C([H])([H])c2c([H])c(OC([H])([H])c3c([H])c(C([H])([H])[H])c([H])c(C([H])([H])C([H])([H])N(C(=O)N4C([H])([H])C([H])([H])C([H])([H])C([H])(n5nc(-c6c([H])c([H])c(Oc7c([H])c([H])c(F)c([H])c7F)c([H])c6[H])c(C(=O)N([H])[H])c5N([H])[H])C4([H])[H])C([H])([H])[H])c3[H])c([H])c([H])c2C1([H])[H]

>  <smiles>  (13) 
[H]c1c([H])c([H])c2c(c1[H])C([H])([H])C([H])([H])C([H])([H])C2([H])N([H])C(=O)C1([H])N(C(=O)C([H])(N([H])C(=O)C([H])(N([H])C([H])([H])[H])C([H])([H])[H])C(C([H])([H])[H])(C([H])([H])[H])C([H])([H])[H])C([H])([H])c2c([H])c(OC([H])([H])c3c([H])c(C([H])([H])[H])c([H])c(C([H])([H])C([H])([H])N(C(=O)N4C([H])([H])C([H])([H])C([H])([H])C([H])(n5nc(-c6c([H])c([H])c(Oc7c([H])c([H])c(F)c([H])c7F)c([H])c6[H])c(C(=O)N([H])[H])c5N([H])[H])C4([H])[H])C([H])([H])[H])c3[H])c([H])c([H])c2C1([H])[H]

$$$$
13:0:0
     RDKit          3D

 91 99  0  0  1  0  0  0  0  0999 V2000
  -28.6160  -22.5720   20.3440 C   0  0  0  0  0  0  0  0  0  0  0  0
  -30.1500  -21.6650   22.1060 C   0  0  0  0  0  1  0  0  0  0  0  0
  -29.2610  -21.4760   20.9570 N   0  0  0  0  0  0  0  0  0  0  0  0
  -27.9960  -22.3690   19.2990 O   0  0  0  0  0  0  0  0  0  0  0  0
  -28.8060  -23.9990   20.8000 C   0  0  0  0  0  2  0  0  0  0  0  0
  -27.9410  -25.0200   20.4940 C   0  0  0  0  0  2  0  0  0  0  0  0
  -28.2310  -26.3860   20.2400 O   0  0  0  0  0  0  0  0  0  0  0  0
  -24.6660  -31.8870   23.0600 C   0  0  0  0  0  0  0  0  0  0  0  0
  -27.1870  -27.3140   20.0190 C   0  0  0  0  0  0  0  0  0  0  0  0
  -23.4150  -30.4930   21.4470 C   0  0  0  0  0  3  0  0  0  0  0  0
  -24.8390  -28.9430   19.9800 C   0  0  0  0  0  0  0  0  0  0  0  0
  -25.9500  -30.8010   21.2070 C   0  0  0  0  0  2  0  0  0  0  0  0
  -26.0150  -29.4260   20.5670 C   0  0  0  0  0  0  0  0  0  0  0  0
  -27.1890  -28.6150   20.5930 C   0  0  0  0  0  3  0  0  0  0  0  0
  -26.0150  -26.9100   19.3340 C   0  0  0  0  0  3  0  0  0  0  0  0
  -24.8380  -27.6830   19.3640 C   0  0  0  0  0  3  0  0  0  0  0  0
  -23.5960  -29.8110   20.0640 C   0  0  0  0  0  2  0  0  0  0  0  0
  -24.6970  -31.0790   21.9640 N   0  0  0  0  0  0  0  0  0  0  0  0
  -23.6030  -32.1630   23.6280 O   0  0  0  0  0  0  0  0  0  0  0  0
  -22.7780  -29.4770   22.4210 C   0  0  0  0  0  0  0  0  0  0  0  0
  -21.4480  -29.3030   22.3400 N   0  0  0  0  0  0  0  0  0  0  0  0
  -23.4840  -28.8380   23.2040 O   0  0  0  0  0  0  0  0  0  0  0  0
  -20.9150  -29.8680   21.6920 H   0  0  0  0  0  0  0  0  0  0  0  0
  -18.1150  -28.0700   22.9520 C   0  0  0  0  0  0  0  0  0  0  0  0
  -20.6760  -28.3550   23.1370 C   0  0  0  0  0  3  0  0  0  0  0  0
  -20.7760  -26.9270   22.5530 C   0  0  0  0  0  2  0  0  0  0  0  0
  -19.6460  -26.5870   21.5740 C   0  0  0  0  0  2  0  0  0  0  0  0
  -18.2790  -26.7260   22.2620 C   0  0  0  0  0  2  0  0  0  0  0  0
  -19.2420  -28.8420   23.3480 C   0  0  0  0  0  0  0  0  0  0  0  0
  -19.0350  -30.1070   23.9430 C   0  0  0  0  0  3  0  0  0  0  0  0
  -17.7350  -30.6040   24.1440 C   0  0  0  0  0  3  0  0  0  0  0  0
  -16.6250  -29.8310   23.7700 C   0  0  0  0  0  3  0  0  0  0  0  0
  -16.8120  -28.5700   23.1760 C   0  0  0  0  0  3  0  0  0  0  0  0
  -25.9720  -32.5220   23.6380 C   0  0  0  0  0  3  0  0  0  0  0  0
  -26.5700  -31.7110   24.8540 C   0  0  1  0  0  0  0  0  0  0  0  0
  -25.5440  -31.4190   25.9710 C   0  0  0  0  0  1  0  0  0  0  0  0
  -27.1550  -30.3570   24.3860 C   0  0  0  0  0  1  0  0  0  0  0  0
  -27.7310  -32.5060   25.5000 C   0  0  0  0  0  1  0  0  0  0  0  0
  -25.6470  -33.8980   24.0430 N   0  0  0  0  0  0  0  0  0  0  0  0
  -25.9380  -34.9930   23.3320 C   0  0  0  0  0  0  0  0  0  0  0  0
  -26.5790  -34.9580   22.2780 O   0  0  0  0  0  0  0  0  0  0  0  0
  -25.0770  -34.0010   24.8690 H   0  0  0  0  0  0  0  0  0  0  0  0
  -24.1710  -36.7800   23.1230 C   0  0  0  0  0  1  0  0  0  0  0  0
  -25.4380  -36.3470   23.8760 C   0  0  0  0  0  3  0  0  0  0  0  0
  -27.5770  -37.2330   24.6940 C   0  0  0  0  0  1  0  0  0  0  0  0
  -26.4440  -37.4240   23.7940 N   0  0  0  0  0  0  0  0  0  0  0  0
  -26.0220  -38.3240   24.0030 H   0  0  0  0  0  0  0  0  0  0  0  0
  -29.3230  -20.0320   20.3730 C   0  0  0  0  0  3  0  0  0  0  0  0
  -29.3140  -18.6280   21.2730 C   0  0  0  0  0  3  0  0  0  0  0  0
  -28.7050  -15.7150   18.1610 C   0  0  0  0  0  3  0  0  0  0  0  0
  -27.7010  -16.6310   18.4840 C   0  0  0  0  0  3  0  0  0  0  0  0
  -29.7100  -15.4530   19.1000 C   0  0  0  0  0  3  0  0  0  0  0  0
  -27.8840  -17.4430   19.6170 C   0  0  0  0  0  3  0  0  0  0  0  0
  -29.6970  -15.9620   20.4130 C   0  0  0  0  0  0  0  0  0  0  0  0
  -28.9790  -17.2630   20.5180 C   0  0  0  0  0  0  0  0  0  0  0  0
  -30.4880  -14.9810   21.3710 C   0  0  0  0  0  0  0  0  0  0  0  0
  -30.6840  -12.5610   20.6950 C   0  0  0  0  0  2  0  0  0  0  0  0
  -29.9440  -12.2790   19.3620 C   0  0  0  0  0  2  0  0  0  0  0  0
  -28.4210  -12.1600   19.5590 C   0  0  0  0  0  2  0  0  0  0  0  0
  -27.8190  -13.1480   20.5940 C   0  0  0  0  0  3  0  0  0  0  0  0
  -28.6860  -13.2760   21.8620 C   0  0  0  0  0  2  0  0  0  0  0  0
  -30.0240  -13.6770   21.4180 N   0  0  0  0  0  0  0  0  0  0  0  0
  -31.7060  -15.1660   21.4640 O   0  0  0  0  0  0  0  0  0  0  0  0
  -25.3420  -13.6930   20.9100 C   0  0  0  0  0  0  0  0  0  0  0  0
  -24.2510  -12.8990   21.1190 C   0  0  0  0  0  0  0  0  0  0  0  0
  -24.7450  -11.5620   21.2080 C   0  0  0  0  0  0  0  0  0  0  0  0
  -26.4260  -12.8390   20.8860 N   0  0  0  0  0  0  0  0  0  0  0  0
  -26.0680  -11.5570   21.1270 N   0  0  0  0  0  0  0  0  0  0  0  0
  -24.0340  -10.2890   21.3230 C   0  0  0  0  0  0  0  0  0  0  0  0
  -24.3910   -9.3550   22.3170 C   0  0  0  0  0  3  0  0  0  0  0  0
  -23.6890   -8.1350   22.4360 C   0  0  0  0  0  3  0  0  0  0  0  0
  -22.6150   -7.8500   21.5560 C   0  0  0  0  0  0  0  0  0  0  0  0
  -22.2810   -8.7760   20.5540 C   0  0  0  0  0  3  0  0  0  0  0  0
  -22.9820   -9.9880   20.4360 C   0  0  0  0  0  3  0  0  0  0  0  0
  -21.8920   -6.6870   21.5700 O   0  0  0  0  0  0  0  0  0  0  0  0
  -21.7670   -5.9320   22.7100 C   0  0  0  0  0  0  0  0  0  0  0  0
  -21.2410   -6.4650   23.9060 C   0  0  0  0  0  3  0  0  0  0  0  0
  -21.0600   -5.6310   25.0220 C   0  0  0  0  0  3  0  0  0  0  0  0
  -21.4010   -4.2670   24.9510 C   0  0  0  0  0  0  0  0  0  0  0  0
  -21.9270   -3.7360   23.7560 C   0  0  0  0  0  3  0  0  0  0  0  0
  -22.1080   -4.5690   22.6390 C   0  0  0  0  0  0  0  0  0  0  0  0
  -22.5910   -4.0490   21.4840 F   0  0  0  0  0  0  0  0  0  0  0  0
  -21.2250   -3.4630   26.0210 F   0  0  0  0  0  0  0  0  0  0  0  0
  -22.8190  -13.3420   21.1390 C   0  0  0  0  0  0  0  0  0  0  0  0
  -21.9910  -12.6530   21.9140 N   0  0  0  0  0  0  0  0  0  0  0  0
  -22.4400  -14.3270   20.5050 O   0  0  0  0  0  0  0  0  0  0  0  0
  -22.3280  -11.8750   22.4600 H   0  0  0  0  0  0  0  0  0  0  0  0
  -21.0120  -12.9140   21.9600 H   0  0  0  0  0  0  0  0  0  0  0  0
  -25.4690  -15.0610   20.7150 N   0  0  0  0  0  0  0  0  0  0  0  0
  -24.6260  -15.6010   20.5690 H   0  0  0  0  0  0  0  0  0  0  0  0
  -26.3230  -15.5630   20.4860 H   0  0  0  0  0  0  0  0  0  0  0  0
  1  5  1  0
  1  3  1  0
  3  2  1  0
  4  1  2  0
  6  5  1  0
  7  6  1  0
  8 19  2  0
  9  7  1  0
  9 14  1  0
 10 18  1  0
 10 20  1  0
 11 17  1  0
 11 13  1  0
 12 18  1  0
 13 14  2  0
 13 12  1  0
 15 16  1  0
 15  9  2  0
 16 11  2  0
 17 10  1  0
 18  8  1  0
 20 22  2  0
 21 20  1  0
 23 21  1  0
 24 33  2  0
 24 29  1  0
 25 21  1  0
 25 29  1  0
 26 25  1  0
 27 28  1  0
 27 26  1  0
 28 24  1  0
 29 30  2  0
 30 31  1  0
 32 31  2  0
 33 32  1  0
 34  8  1  0
 34 39  1  0
 34 35  1  0
 35 38  1  1
 35 36  1  0
 37 35  1  0
 39 42  1  0
 40 44  1  0
 40 39  1  0
 41 40  2  0
 44 43  1  0
 46 44  1  0
 46 47  1  0
 46 45  1  0
 48  3  1  0
 48 49  2  0
 50 51  2  0
 50 52  1  0
 51 53  1  0
 52 54  2  0
 53 55  2  0
 54 55  1  0
 54 56  1  0
 55 49  1  0
 56 62  1  0
 56 63  2  0
 57 62  1  0
 58 59  1  0
 58 57  1  0
 60 59  1  0
 60 67  1  0
 60 61  1  0
 62 61  1  0
 64 65  2  0
 65 84  1  0
 65 66  1  0
 66 69  1  0
 67 64  1  0
 67 68  1  0
 68 66  2  0
 69 70  1  0
 70 71  2  0
 72 75  1  0
 72 71  1  0
 73 72  2  0
 74 73  1  0
 74 69  2  0
 75 76  1  0
 76 77  1  0
 77 78  2  0
 79 78  1  0
 79 83  1  0
 80 79  2  0
 81 76  2  0
 81 80  1  0
 82 81  1  0
 84 85  1  0
 85 88  1  0
 85 87  1  0
 86 84  2  0
 89 64  1  0
 90 89  1  0
 91 89  1  0
M  ISO  4   6 101   7 101  54 100  56 100
M  END
>  <TORSDO>  (14) 
F 20

>  <SCORE>  (14) 
-11.074

>  <name>  (14) 
13

>  <ligand_id>  (14) 
13

>  <original_smiles>  (14) 
[H]C(Oc1c([H])c([H])c2c(c1[H])C([H])([H])N(C(=O)C([H])(N([H])C(=O)C([H])(N([H])C([H])([H])[H])C([H])([H])[H])C(C([H])([H])[H])(C([H])([H])[H])C([H])([H])[H])C([H])(C(=O)N([H])C1([H])c3c([H])c([H])c([H])c([H])c3C([H])([H])C([H])([H])C1([H])[H])C2([H])[H])=C([H])C(=O)N(C([H])([H])[H])C([H])([H])C([H])([H])c1c([H])c([H])c([H])c([H])c1C(=O)N1C([H])([H])C([H])([H])C([H])([H])C([H])(n2nc(-c3c([H])c([H])c(Oc4c([H])c([H])c(F)c([H])c4F)c([H])c3[H])c(C(=O)N([H])[H])c2N([H])[H])C1([H])[H]

>  <smiles>  (14) 
[H]C(Oc1c([H])c([H])c2c(c1[H])C([H])([H])N(C(=O)C([H])(N([H])C(=O)C([H])(N([H])C([H])([H])[H])C([H])([H])[H])C(C([H])([H])[H])(C([H])([H])[H])C([H])([H])[H])C([H])(C(=O)N([H])C1([H])c3c([H])c([H])c([H])c([H])c3C([H])([H])C([H])([H])C1([H])[H])C2([H])[H])=C([H])C(=O)N(C([H])([H])[H])C([H])([H])C([H])([H])c1c([H])c([H])c([H])c([H])c1C(=O)N1C([H])([H])C([H])([H])C([H])([H])C([H])(n2nc(-c3c([H])c([H])c(Oc4c([H])c([H])c(F)c([H])c4F)c([H])c3[H])c(C(=O)N([H])[H])c2N([H])[H])C1([H])[H]

$$$$
14:0:0
     RDKit          3D

 87 96  0  0  1  0  0  0  0  0999 V2000
  -30.4700  -15.5300   20.2090 C   0  0  0  0  0  0  0  0  0  0  0  0
  -30.4630  -12.9850   19.5060 C   0  0  0  0  0  2  0  0  0  0  0  0
  -29.5690  -12.6090   18.2940 C   0  0  0  0  0  2  0  0  0  0  0  0
  -28.1290  -12.3340   18.7480 C   0  0  0  0  0  2  0  0  0  0  0  0
  -27.6460  -13.3850   19.7770 C   0  0  0  0  0  3  0  0  0  0  0  0
  -28.6770  -13.6890   20.8880 C   0  0  0  0  0  2  0  0  0  0  0  0
  -29.8850  -14.2060   20.2160 N   0  0  0  0  0  0  0  0  0  0  0  0
  -31.6880  -15.4300   19.9710 O   0  0  0  0  0  0  0  0  0  0  0  0
  -28.7810  -20.5640   21.7860 C   0  0  0  0  0  3  0  0  0  0  0  0
  -28.5890  -21.9340   21.2850 C   0  0  0  0  0  3  0  0  0  0  0  0
  -29.1930  -21.1350   19.1630 C   0  0  0  0  0  3  0  0  0  0  0  0
  -29.1820  -19.4190   21.0010 C   0  0  0  0  0  0  0  0  0  0  0  0
  -29.4170  -19.6910   19.6820 C   0  0  0  0  0  0  0  0  0  0  0  0
  -28.7550  -22.4060   19.9260 C   0  0  0  0  0  0  0  0  0  0  0  0
  -29.4080  -17.8430   21.3480 C   0  0  0  0  0  3  0  0  0  0  0  0
  -29.8780  -18.1690   19.1560 C   0  0  0  0  0  3  0  0  0  0  0  0
  -29.7880  -16.9040   20.1680 N   0  0  0  0  0  0  0  0  0  0  0  0
  -25.3020  -13.9890   20.5520 C   0  0  0  0  0  0  0  0  0  0  0  0
  -24.2230  -13.2390   20.9220 C   0  0  0  0  0  0  0  0  0  0  0  0
  -24.6560  -11.8770   20.8890 C   0  0  0  0  0  0  0  0  0  0  0  0
  -26.3200  -13.0900   20.3010 N   0  0  0  0  0  0  0  0  0  0  0  0
  -25.9460  -11.8110   20.5730 N   0  0  0  0  0  0  0  0  0  0  0  0
  -23.8960  -10.6340   21.0810 C   0  0  0  0  0  0  0  0  0  0  0  0
  -24.3190   -9.6400   21.9900 C   0  0  0  0  0  3  0  0  0  0  0  0
  -23.5570   -8.4650   22.1730 C   0  0  0  0  0  3  0  0  0  0  0  0
  -22.3580   -8.2770   21.4460 C   0  0  0  0  0  0  0  0  0  0  0  0
  -21.9530   -9.2580   20.5250 C   0  0  0  0  0  3  0  0  0  0  0  0
  -22.7150  -10.4240   20.3400 C   0  0  0  0  0  3  0  0  0  0  0  0
  -21.5670   -7.1570   21.5400 O   0  0  0  0  0  0  0  0  0  0  0  0
  -21.5430   -6.3850   22.6750 C   0  0  0  0  0  0  0  0  0  0  0  0
  -21.2050   -6.9230   23.9350 C   0  0  0  0  0  3  0  0  0  0  0  0
  -21.1250   -6.0800   25.0620 C   0  0  0  0  0  3  0  0  0  0  0  0
  -21.3740   -4.7010   24.9300 C   0  0  0  0  0  0  0  0  0  0  0  0
  -21.7050   -4.1630   23.6750 C   0  0  0  0  0  3  0  0  0  0  0  0
  -21.7860   -5.0010   22.5500 C   0  0  0  0  0  0  0  0  0  0  0  0
  -22.0850   -4.4740   21.3380 F   0  0  0  0  0  0  0  0  0  0  0  0
  -21.2890   -3.8900   26.0110 F   0  0  0  0  0  0  0  0  0  0  0  0
  -22.8400  -13.7520   21.1920 C   0  0  0  0  0  0  0  0  0  0  0  0
  -22.1000  -13.0850   22.0700 N   0  0  0  0  0  0  0  0  0  0  0  0
  -22.4270  -14.7820   20.6600 O   0  0  0  0  0  0  0  0  0  0  0  0
  -22.4490  -12.2530   22.5220 H   0  0  0  0  0  0  0  0  0  0  0  0
  -21.1710  -13.4130   22.2950 H   0  0  0  0  0  0  0  0  0  0  0  0
  -25.5010  -15.3560   20.3760 N   0  0  0  0  0  0  0  0  0  0  0  0
  -24.7540  -16.0320   20.4990 H   0  0  0  0  0  0  0  0  0  0  0  0
  -26.3650  -15.7750   20.0560 H   0  0  0  0  0  0  0  0  0  0  0  0
  -28.2030  -24.0490   19.3660 C   0  0  0  0  0  2  0  0  0  0  0  0
  -28.3310  -25.6970   19.7940 O   0  0  0  0  0  0  0  0  0  0  0  0
  -24.5700  -31.6000   22.9060 C   0  0  0  0  0  0  0  0  0  0  0  0
  -27.3150  -26.8370   19.7230 C   0  0  0  0  0  0  0  0  0  0  0  0
  -23.4360  -30.2090   21.2240 C   0  0  0  0  0  3  0  0  0  0  0  0
  -24.9500  -28.7010   19.7410 C   0  0  0  0  0  0  0  0  0  0  0  0
  -25.9990  -30.5000   21.0930 C   0  0  0  0  0  2  0  0  0  0  0  0
  -26.1250  -29.1060   20.3870 C   0  0  0  0  0  0  0  0  0  0  0  0
  -27.2920  -28.1960   20.3550 C   0  0  0  0  0  3  0  0  0  0  0  0
  -26.1060  -26.6240   19.0190 C   0  0  0  0  0  3  0  0  0  0  0  0
  -24.9730  -27.4860   19.0360 C   0  0  0  0  0  3  0  0  0  0  0  0
  -23.6950  -29.5790   19.8260 C   0  0  0  0  0  2  0  0  0  0  0  0
  -24.6900  -30.7990   21.7950 N   0  0  0  0  0  0  0  0  0  0  0  0
  -23.4680  -31.8300   23.4340 O   0  0  0  0  0  0  0  0  0  0  0  0
  -22.7790  -29.1600   22.1600 C   0  0  0  0  0  0  0  0  0  0  0  0
  -21.4480  -28.9750   22.0620 N   0  0  0  0  0  0  0  0  0  0  0  0
  -23.4740  -28.5120   22.9450 O   0  0  0  0  0  0  0  0  0  0  0  0
  -20.9360  -29.5520   21.4080 H   0  0  0  0  0  0  0  0  0  0  0  0
  -18.1000  -27.6860   22.6290 C   0  0  0  0  0  0  0  0  0  0  0  0
  -20.6660  -27.9830   22.8080 C   0  0  0  0  0  3  0  0  0  0  0  0
  -20.7640  -26.5880   22.1480 C   0  0  0  0  0  2  0  0  0  0  0  0
  -19.6290  -26.3060   21.1590 C   0  0  0  0  0  2  0  0  0  0  0  0
  -18.2720  -26.3850   21.8620 C   0  0  0  0  0  2  0  0  0  0  0  0
  -19.2230  -28.4440   23.0580 C   0  0  0  0  0  0  0  0  0  0  0  0
  -19.0050  -29.6600   23.7420 C   0  0  0  0  0  3  0  0  0  0  0  0
  -17.6980  -30.1210   23.9950 C   0  0  0  0  0  3  0  0  0  0  0  0
  -16.5920  -29.3600   23.5770 C   0  0  0  0  0  3  0  0  0  0  0  0
  -16.7940  -28.1440   22.9010 C   0  0  0  0  0  3  0  0  0  0  0  0
  -25.8090  -32.2820   23.5620 C   0  0  0  0  0  3  0  0  0  0  0  0
  -25.4160  -33.6390   23.9840 N   0  0  0  0  0  0  0  0  0  0  0  0
  -25.6800  -34.7640   23.3060 C   0  0  0  0  0  0  0  0  0  0  0  0
  -26.3400  -34.7710   22.2630 O   0  0  0  0  0  0  0  0  0  0  0  0
  -24.8260  -33.7020   24.8000 H   0  0  0  0  0  0  0  0  0  0  0  0
  -23.8440  -36.4800   23.1200 C   0  0  0  0  0  1  0  0  0  0  0  0
  -25.1290  -36.0910   23.8690 C   0  0  0  0  0  3  0  0  0  0  0  0
  -27.2320  -37.0470   24.7050 C   0  0  0  0  0  1  0  0  0  0  0  0
  -26.0960  -37.2090   23.8010 N   0  0  0  0  0  0  0  0  0  0  0  0
  -25.6420  -38.0920   24.0180 H   0  0  0  0  0  0  0  0  0  0  0  0
  -26.3750  -31.4770   24.7980 C   0  0  1  0  0  0  0  0  0  0  0  0
  -25.3060  -31.1390   25.8650 C   0  0  0  0  0  1  0  0  0  0  0  0
  -27.0190  -30.1470   24.3490 C   0  0  0  0  0  1  0  0  0  0  0  0
  -27.4940  -32.2940   25.4870 C   0  0  0  0  0  1  0  0  0  0  0  0
  1  7  1  0
  2  7  1  0
  3  4  1  0
  3  2  1  0
  5  4  1  0
  5 21  1  0
  5  6  1  0
  7  6  1  0
  8  1  2  0
 10  9  2  0
 11 13  1  0
 11 14  2  0
 12 15  2  0
 12  9  1  0
 13 12  1  0
 14 10  1  0
 16 13  2  0
 16 17  1  0
 17  1  1  0
 17 15  1  0
 18 19  2  0
 19 38  1  0
 20 19  1  0
 20 23  1  0
 21 18  1  0
 21 22  1  0
 22 20  2  0
 23 24  1  0
 24 25  2  0
 26 29  1  0
 26 25  1  0
 27 26  2  0
 28 27  1  0
 28 23  2  0
 29 30  1  0
 30 31  1  0
 31 32  2  0
 33 32  1  0
 33 37  1  0
 34 33  2  0
 35 30  2  0
 35 34  1  0
 36 35  1  0
 38 39  1  0
 39 42  1  0
 39 41  1  0
 40 38  2  0
 43 44  1  0
 43 18  1  0
 45 43  1  0
 46 47  1  0
 46 14  1  0
 48 59  2  0
 49 47  1  0
 49 54  1  0
 50 58  1  0
 50 60  1  0
 51 57  1  0
 51 53  1  0
 52 58  1  0
 53 52  1  0
 54 53  2  0
 55 56  1  0
 55 49  2  0
 56 51  2  0
 57 50  1  0
 58 48  1  0
 60 62  2  0
 61 60  1  0
 63 61  1  0
 64 73  2  0
 64 69  1  0
 65 61  1  0
 65 69  1  0
 66 65  1  0
 67 68  1  0
 67 66  1  0
 68 64  1  0
 69 70  2  0
 70 71  1  0
 72 71  2  0
 73 72  1  0
 74 48  1  0
 74 75  1  0
 74 84  1  0
 75 78  1  0
 76 80  1  0
 76 75  1  0
 77 76  2  0
 80 79  1  0
 82 80  1  0
 82 83  1  0
 82 81  1  0
 84 87  1  1
 84 85  1  0
 86 84  1  0
M  ISO  4   1 100  17 100  46 101  47 101
M  END
>  <TORSDO>  (15) 
F 16

>  <SCORE>  (15) 
-14.845

>  <name>  (15) 
14

>  <ligand_id>  (15) 
14

>  <original_smiles>  (15) 
[H]c1c([H])c([H])c2c(c1[H])C([H])([H])C([H])([H])C([H])([H])C2([H])N([H])C(=O)C1([H])N(C(=O)C([H])(N([H])C(=O)C([H])(N([H])C([H])([H])[H])C([H])([H])[H])C(C([H])([H])[H])(C([H])([H])[H])C([H])([H])[H])C([H])([H])c2c([H])c(OC([H])([H])c3c([H])c([H])c4c(c3[H])C([H])([H])N(C(=O)N3C([H])([H])C([H])([H])C([H])([H])C([H])(n5nc(-c6c([H])c([H])c(Oc7c([H])c([H])c(F)c([H])c7F)c([H])c6[H])c(C(=O)N([H])[H])c5N([H])[H])C3([H])[H])C4([H])[H])c([H])c([H])c2C1([H])[H]

>  <smiles>  (15) 
[H]c1c([H])c([H])c2c(c1[H])C([H])([H])C([H])([H])C([H])([H])C2([H])N([H])C(=O)C1([H])N(C(=O)C([H])(N([H])C(=O)C([H])(N([H])C([H])([H])[H])C([H])([H])[H])C(C([H])([H])[H])(C([H])([H])[H])C([H])([H])[H])C([H])([H])c2c([H])c(OC([H])([H])c3c([H])c([H])c4c(c3[H])C([H])([H])N(C(=O)N3C([H])([H])C([H])([H])C([H])([H])C([H])(n5nc(-c6c([H])c([H])c(Oc7c([H])c([H])c(F)c([H])c7F)c([H])c6[H])c(C(=O)N([H])[H])c5N([H])[H])C3([H])[H])C4([H])[H])c([H])c([H])c2C1([H])[H]

$$$$
15:0:0
     RDKit          3D

 89 98  0  0  1  0  0  0  0  0999 V2000
  -28.5380  -21.2570   20.7790 C   0  0  0  0  0  3  0  0  0  0  0  0
  -29.4020  -20.0360   20.2670 C   0  0  0  0  0  0  0  0  0  0  0  0
  -30.1920  -20.6580   19.3440 C   0  0  0  0  0  0  0  0  0  0  0  0
  -28.6630  -22.6610   20.2750 C   0  0  0  0  0  0  0  0  0  0  0  0
  -31.3900  -18.6860   19.8800 C   0  0  0  0  0  0  0  0  0  0  0  0
  -31.3000  -19.8120   18.8310 C   0  0  0  0  0  2  0  0  0  0  0  0
  -30.0350  -18.3980   20.5840 C   0  0  0  0  0  3  0  0  0  0  0  0
  -32.4690  -18.1540   20.1560 O   0  0  0  0  0  0  0  0  0  0  0  0
  -29.9190  -22.4240   19.0480 S   0  0  0  0  0  0  0  0  0  0  0  0
  -30.3670  -15.4360   20.2130 C   0  0  0  0  0  0  0  0  0  0  0  0
  -30.3230  -12.9770   19.3200 C   0  0  0  0  0  2  0  0  0  0  0  0
  -29.3880  -12.7280   18.1080 C   0  0  0  0  0  2  0  0  0  0  0  0
  -27.9540  -12.4330   18.5820 C   0  0  0  0  0  2  0  0  0  0  0  0
  -27.5100  -13.3930   19.7100 C   0  0  0  0  0  3  0  0  0  0  0  0
  -28.5810  -13.5930   20.8080 C   0  0  0  0  0  2  0  0  0  0  0  0
  -29.7800  -14.1290   20.1400 N   0  0  0  0  0  0  0  0  0  0  0  0
  -31.5820  -15.3790   19.9780 O   0  0  0  0  0  0  0  0  0  0  0  0
  -29.6540  -16.7520   20.3930 N   0  0  0  0  0  0  0  0  0  0  0  0
  -28.6620  -16.6050   20.4930 H   0  0  0  0  0  0  0  0  0  0  0  0
  -25.1660  -13.9190   20.5520 C   0  0  0  0  0  0  0  0  0  0  0  0
  -24.1170  -13.1310   20.9340 C   0  0  0  0  0  0  0  0  0  0  0  0
  -24.5880  -11.7840   20.8650 C   0  0  0  0  0  0  0  0  0  0  0  0
  -26.2030  -13.0540   20.2570 N   0  0  0  0  0  0  0  0  0  0  0  0
  -25.8720  -11.7620   20.5180 N   0  0  0  0  0  0  0  0  0  0  0  0
  -23.8700  -10.5160   21.0510 C   0  0  0  0  0  0  0  0  0  0  0  0
  -24.3140   -9.5380   21.9690 C   0  0  0  0  0  3  0  0  0  0  0  0
  -23.5890   -8.3390   22.1430 C   0  0  0  0  0  3  0  0  0  0  0  0
  -22.4050   -8.1090   21.4020 C   0  0  0  0  0  0  0  0  0  0  0  0
  -21.9790   -9.0750   20.4740 C   0  0  0  0  0  3  0  0  0  0  0  0
  -22.7050  -10.2640   20.2970 C   0  0  0  0  0  3  0  0  0  0  0  0
  -21.6520   -6.9610   21.4880 O   0  0  0  0  0  0  0  0  0  0  0  0
  -21.6020   -6.2180   22.6410 C   0  0  0  0  0  0  0  0  0  0  0  0
  -21.1450   -6.7640   23.8610 C   0  0  0  0  0  3  0  0  0  0  0  0
  -21.0440   -5.9460   25.0030 C   0  0  0  0  0  3  0  0  0  0  0  0
  -21.3870   -4.5830   24.9280 C   0  0  0  0  0  0  0  0  0  0  0  0
  -21.8390   -4.0370   23.7130 C   0  0  0  0  0  3  0  0  0  0  0  0
  -21.9410   -4.8530   22.5710 C   0  0  0  0  0  0  0  0  0  0  0  0
  -22.3550   -4.3170   21.3980 F   0  0  0  0  0  0  0  0  0  0  0  0
  -21.2830   -3.7930   26.0220 F   0  0  0  0  0  0  0  0  0  0  0  0
  -22.7260  -13.6000   21.2430 C   0  0  0  0  0  0  0  0  0  0  0  0
  -22.0170  -12.8880   22.1130 N   0  0  0  0  0  0  0  0  0  0  0  0
  -22.2750  -14.6320   20.7480 O   0  0  0  0  0  0  0  0  0  0  0  0
  -22.3920  -12.0560   22.5400 H   0  0  0  0  0  0  0  0  0  0  0  0
  -21.0840  -13.1860   22.3600 H   0  0  0  0  0  0  0  0  0  0  0  0
  -25.3170  -15.2950   20.3970 N   0  0  0  0  0  0  0  0  0  0  0  0
  -24.5470  -15.9400   20.5380 H   0  0  0  0  0  0  0  0  0  0  0  0
  -26.1450  -15.7430   20.0310 H   0  0  0  0  0  0  0  0  0  0  0  0
  -27.8050  -24.2000   20.5380 C   0  0  0  0  0  2  0  0  0  0  0  0
  -28.1750  -25.8150   20.3150 O   0  0  0  0  0  0  0  0  0  0  0  0
  -24.6140  -31.9000   23.2390 C   0  0  0  0  0  0  0  0  0  0  0  0
  -27.1830  -26.9540   20.2830 C   0  0  0  0  0  0  0  0  0  0  0  0
  -23.4330  -30.4920   21.6050 C   0  0  0  0  0  3  0  0  0  0  0  0
  -24.8920  -28.8730   20.2050 C   0  0  0  0  0  0  0  0  0  0  0  0
  -26.0030  -30.6910   21.4750 C   0  0  0  0  0  2  0  0  0  0  0  0
  -26.0800  -29.2690   20.8320 C   0  0  0  0  0  0  0  0  0  0  0  0
  -27.2210  -28.3350   20.8400 C   0  0  0  0  0  3  0  0  0  0  0  0
  -25.9640  -26.7270   19.6020 C   0  0  0  0  0  3  0  0  0  0  0  0
  -24.8630  -27.6230   19.5670 C   0  0  0  0  0  3  0  0  0  0  0  0
  -23.6750  -29.8010   20.2340 C   0  0  0  0  0  2  0  0  0  0  0  0
  -24.7060  -31.0560   22.1600 N   0  0  0  0  0  0  0  0  0  0  0  0
  -23.5210  -32.1940   23.7500 O   0  0  0  0  0  0  0  0  0  0  0  0
  -22.7280  -29.5060   22.5740 C   0  0  0  0  0  0  0  0  0  0  0  0
  -21.3990  -29.3340   22.4350 N   0  0  0  0  0  0  0  0  0  0  0  0
  -23.3840  -28.8930   23.4190 O   0  0  0  0  0  0  0  0  0  0  0  0
  -20.9220  -29.8770   21.7290 H   0  0  0  0  0  0  0  0  0  0  0  0
  -18.0130  -28.1200   22.9240 C   0  0  0  0  0  0  0  0  0  0  0  0
  -20.5710  -28.4030   23.2080 C   0  0  0  0  0  3  0  0  0  0  0  0
  -20.6860  -26.9660   22.6480 C   0  0  0  0  0  2  0  0  0  0  0  0
  -19.5940  -26.6280   21.6270 C   0  0  0  0  0  2  0  0  0  0  0  0
  -18.2050  -26.7680   22.2590 C   0  0  0  0  0  2  0  0  0  0  0  0
  -19.1240  -28.8950   23.3550 C   0  0  0  0  0  0  0  0  0  0  0  0
  -18.8880  -30.1580   23.9390 C   0  0  0  0  0  3  0  0  0  0  0  0
  -17.5770  -30.6450   24.0980 C   0  0  0  0  0  3  0  0  0  0  0  0
  -16.4830  -29.8700   23.6800 C   0  0  0  0  0  3  0  0  0  0  0  0
  -16.7020  -28.6090   23.0970 C   0  0  0  0  0  3  0  0  0  0  0  0
  -25.8800  -32.5480   23.8770 C   0  0  0  0  0  3  0  0  0  0  0  0
  -25.5590  -33.9530   24.1960 N   0  0  0  0  0  0  0  0  0  0  0  0
  -25.8900  -35.0070   23.4400 C   0  0  0  0  0  0  0  0  0  0  0  0
  -26.5580  -34.9010   22.4070 O   0  0  0  0  0  0  0  0  0  0  0  0
  -24.9640  -34.1060   24.9970 H   0  0  0  0  0  0  0  0  0  0  0  0
  -24.1670  -36.8090   23.0850 C   0  0  0  0  0  1  0  0  0  0  0  0
  -25.4080  -36.4010   23.8940 C   0  0  0  0  0  3  0  0  0  0  0  0
  -27.5370  -37.2950   24.7300 C   0  0  0  0  0  1  0  0  0  0  0  0
  -26.4440  -37.4500   23.7740 N   0  0  0  0  0  0  0  0  0  0  0  0
  -26.0400  -38.3750   23.8980 H   0  0  0  0  0  0  0  0  0  0  0  0
  -26.3690  -31.7980   25.1770 C   0  0  1  0  0  0  0  0  0  0  0  0
  -25.2550  -31.5810   26.2280 C   0  0  0  0  0  1  0  0  0  0  0  0
  -26.9540  -30.4100   24.8260 C   0  0  0  0  0  1  0  0  0  0  0  0
  -27.5080  -32.6000   25.8450 C   0  0  0  0  0  1  0  0  0  0  0  0
  2  7  1  0
  2  1  1  0
  3  2  2  0
  4 48  1  0
  4  1  2  0
  5  8  2  0
  5  7  1  0
  6  3  1  0
  6  5  1  0
  7 18  1  0
  9  3  1  0
  9  4  1  0
 10 18  1  0
 11 16  1  0
 12 13  1  0
 12 11  1  0
 14 13  1  0
 14 23  1  0
 14 15  1  0
 16 10  1  0
 16 15  1  0
 17 10  2  0
 18 19  1  0
 20 21  2  0
 21 40  1  0
 22 21  1  0
 22 25  1  0
 23 24  1  0
 23 20  1  0
 24 22  2  0
 25 26  1  0
 26 27  2  0
 28 31  1  0
 28 27  1  0
 29 28  2  0
 30 29  1  0
 30 25  2  0
 31 32  1  0
 32 33  1  0
 33 34  2  0
 35 34  1  0
 35 39  1  0
 36 35  2  0
 37 32  2  0
 37 36  1  0
 38 37  1  0
 40 41  1  0
 41 44  1  0
 41 43  1  0
 42 40  2  0
 45 46  1  0
 45 20  1  0
 47 45  1  0
 49 48  1  0
 50 61  2  0
 51 49  1  0
 51 56  1  0
 52 60  1  0
 52 62  1  0
 53 59  1  0
 53 55  1  0
 54 60  1  0
 55 56  2  0
 55 54  1  0
 57 51  2  0
 58 57  1  0
 58 53  2  0
 59 52  1  0
 60 50  1  0
 62 64  2  0
 63 62  1  0
 65 63  1  0
 66 75  2  0
 66 71  1  0
 67 63  1  0
 67 71  1  0
 68 67  1  0
 69 70  1  0
 69 68  1  0
 70 66  1  0
 71 72  2  0
 72 73  1  0
 74 73  2  0
 75 74  1  0
 76 50  1  0
 76 77  1  0
 76 86  1  0
 77 80  1  0
 78 82  1  0
 78 77  1  0
 79 78  2  0
 82 81  1  0
 84 82  1  0
 84 85  1  0
 84 83  1  0
 86 89  1  1
 86 87  1  0
 88 86  1  0
M  ISO  4  10 100  18 100  48 101  49 101
M  END
>  <TORSDO>  (16) 
F 17

>  <SCORE>  (16) 
-16.857

>  <name>  (16) 
15

>  <ligand_id>  (16) 
15

>  <original_smiles>  (16) 
[H]c1c([H])c([H])c2c(c1[H])C([H])([H])C([H])([H])C([H])([H])C2([H])N([H])C(=O)C1([H])N(C(=O)C([H])(N([H])C(=O)C([H])(N([H])C([H])([H])[H])C([H])([H])[H])C(C([H])([H])[H])(C([H])([H])[H])C([H])([H])[H])C([H])([H])c2c([H])c(OC([H])([H])c3sc4c(c3[H])C([H])(N([H])C(=O)N3C([H])([H])C([H])([H])C([H])([H])C([H])(n5nc(-c6c([H])c([H])c(Oc7c([H])c([H])c(F)c([H])c7F)c([H])c6[H])c(C(=O)N([H])[H])c5N([H])[H])C3([H])[H])C(=O)C4([H])[H])c([H])c([H])c2C1([H])[H]

>  <smiles>  (16) 
[H]c1c([H])c([H])c2c(c1[H])C([H])([H])C([H])([H])C([H])([H])C2([H])N([H])C(=O)C1([H])N(C(=O)C([H])(N([H])C(=O)C([H])(N([H])C([H])([H])[H])C([H])([H])[H])C(C([H])([H])[H])(C([H])([H])[H])C([H])([H])[H])C([H])([H])c2c([H])c(OC([H])([H])c3sc4c(c3[H])C([H])(N([H])C(=O)N3C([H])([H])C([H])([H])C([H])([H])C([H])(n5nc(-c6c([H])c([H])c(Oc7c([H])c([H])c(F)c([H])c7F)c([H])c6[H])c(C(=O)N([H])[H])c5N([H])[H])C3([H])[H])C(=O)C4([H])[H])c([H])c([H])c2C1([H])[H]

$$$$
16:0:0
     RDKit          3D

 93102  0  0  1  0  0  0  0  0999 V2000
  -27.8220  -18.3100   19.2150 C   0  0  0  0  0  3  0  0  0  0  0  0
  -28.3670  -17.0610   19.5950 C   0  0  0  0  0  3  0  0  0  0  0  0
  -30.4590  -18.1170   20.2410 C   0  0  0  0  0  3  0  0  0  0  0  0
  -28.6040  -19.4680   19.3540 C   0  0  0  0  0  0  0  0  0  0  0  0
  -29.9100  -19.3760   19.8330 C   0  0  0  0  0  0  0  0  0  0  0  0
  -29.6790  -16.9130   20.1210 C   0  0  0  0  0  0  0  0  0  0  0  0
  -28.2020  -20.9030   19.0290 C   0  0  0  0  0  2  0  0  0  0  0  0
  -30.5510  -20.7670   19.8510 C   0  0  0  0  0  2  0  0  0  0  0  0
  -29.5620  -21.6300   18.9950 C   0  0  0  0  0  3  0  0  0  0  0  0
  -30.7040  -14.5990   20.0230 C   0  0  0  0  0  0  0  0  0  0  0  0
  -30.3790  -12.4310   18.8510 C   0  0  0  0  0  2  0  0  0  0  0  0
  -29.3430  -12.6100   17.7220 C   0  0  0  0  0  2  0  0  0  0  0  0
  -27.9070  -12.4120   18.2510 C   0  0  0  0  0  2  0  0  0  0  0  0
  -27.6490  -13.2330   19.5400 C   0  0  0  0  0  3  0  0  0  0  0  0
  -28.7860  -13.0130   20.5570 C   0  0  0  0  0  2  0  0  0  0  0  0
  -30.0530  -13.3990   19.9140 N   0  0  0  0  0  0  0  0  0  0  0  0
  -31.7870  -14.7870   19.4630 O   0  0  0  0  0  0  0  0  0  0  0  0
  -29.9910  -15.5390   22.1530 C   0  0  0  0  0  1  0  0  0  0  0  0
  -30.0730  -15.6300   20.6920 N   0  0  0  0  0  0  0  0  0  0  0  0
  -25.3170  -13.8520   20.4490 C   0  0  0  0  0  0  0  0  0  0  0  0
  -24.2700  -13.0820   20.8720 C   0  0  0  0  0  0  0  0  0  0  0  0
  -24.7160  -11.7290   20.7730 C   0  0  0  0  0  0  0  0  0  0  0  0
  -26.3350  -12.9670   20.1230 N   0  0  0  0  0  0  0  0  0  0  0  0
  -25.9810  -11.6860   20.3810 N   0  0  0  0  0  0  0  0  0  0  0  0
  -23.9990  -10.4710   20.9900 C   0  0  0  0  0  0  0  0  0  0  0  0
  -24.4650   -9.5080   21.9130 C   0  0  0  0  0  3  0  0  0  0  0  0
  -23.7490   -8.3080   22.1080 C   0  0  0  0  0  3  0  0  0  0  0  0
  -22.5560   -8.0670   21.3890 C   0  0  0  0  0  0  0  0  0  0  0  0
  -22.1110   -9.0200   20.4590 C   0  0  0  0  0  3  0  0  0  0  0  0
  -22.8240  -10.2120   20.2590 C   0  0  0  0  0  3  0  0  0  0  0  0
  -21.8060   -6.9210   21.5020 O   0  0  0  0  0  0  0  0  0  0  0  0
  -21.7500   -6.2100   22.6740 C   0  0  0  0  0  0  0  0  0  0  0  0
  -21.3000   -6.7930   23.8780 C   0  0  0  0  0  3  0  0  0  0  0  0
  -21.1900   -6.0080   25.0420 C   0  0  0  0  0  3  0  0  0  0  0  0
  -21.5230   -4.6400   25.0040 C   0  0  0  0  0  0  0  0  0  0  0  0
  -21.9660   -4.0560   23.8050 C   0  0  0  0  0  3  0  0  0  0  0  0
  -22.0770   -4.8390   22.6420 C   0  0  0  0  0  0  0  0  0  0  0  0
  -22.4850   -4.2670   21.4820 F   0  0  0  0  0  0  0  0  0  0  0  0
  -21.4090   -3.8830   26.1200 F   0  0  0  0  0  0  0  0  0  0  0  0
  -22.9000  -13.5630   21.2460 C   0  0  0  0  0  0  0  0  0  0  0  0
  -22.2340  -12.8640   22.1590 N   0  0  0  0  0  0  0  0  0  0  0  0
  -22.4300  -14.5970   20.7700 O   0  0  0  0  0  0  0  0  0  0  0  0
  -22.6210  -12.0260   22.5660 H   0  0  0  0  0  0  0  0  0  0  0  0
  -21.3170  -13.1670   22.4510 H   0  0  0  0  0  0  0  0  0  0  0  0
  -25.4670  -15.2250   20.2990 N   0  0  0  0  0  0  0  0  0  0  0  0
  -24.7210  -15.8760   20.5230 H   0  0  0  0  0  0  0  0  0  0  0  0
  -26.3240  -15.6870   20.0380 H   0  0  0  0  0  0  0  0  0  0  0  0
  -29.6060  -23.1420   18.9770 N   0  0  0  0  0  4  0  0  0  0  0  0
  -30.5580  -23.3750   18.7420 H   0  0  0  0  0  0  0  0  0  0  0  0
  -29.0570  -23.4490   18.1890 H   0  0  0  0  0  0  0  0  0  0  0  0
  -29.2430  -24.0260   20.1430 C   0  0  0  0  0  2  0  0  0  0  0  0
  -28.1320  -25.0980   19.8020 C   0  0  0  0  0  2  0  0  0  0  0  0
  -28.3260  -26.4970   20.2070 O   0  0  0  0  0  0  0  0  0  0  0  0
  -24.6130  -31.8800   23.2250 C   0  0  0  0  0  0  0  0  0  0  0  0
  -27.2090  -27.3410   20.1560 C   0  0  0  0  0  0  0  0  0  0  0  0
  -23.4100  -30.4870   21.5730 C   0  0  0  0  0  3  0  0  0  0  0  0
  -24.8620  -28.9540   20.1520 C   0  0  0  0  0  0  0  0  0  0  0  0
  -25.9540  -30.8050   21.4090 C   0  0  0  0  0  2  0  0  0  0  0  0
  -26.0320  -29.4320   20.7580 C   0  0  0  0  0  0  0  0  0  0  0  0
  -27.2100  -28.6320   20.7650 C   0  0  0  0  0  3  0  0  0  0  0  0
  -26.0100  -26.9150   19.5250 C   0  0  0  0  0  3  0  0  0  0  0  0
  -24.8500  -27.7040   19.5260 C   0  0  0  0  0  3  0  0  0  0  0  0
  -23.6340  -29.8290   20.1890 C   0  0  0  0  0  2  0  0  0  0  0  0
  -24.6760  -31.0750   22.1230 N   0  0  0  0  0  0  0  0  0  0  0  0
  -23.5260  -32.1540   23.7530 O   0  0  0  0  0  0  0  0  0  0  0  0
  -22.7500  -29.4650   22.5260 C   0  0  0  0  0  0  0  0  0  0  0  0
  -21.4260  -29.2780   22.3870 N   0  0  0  0  0  0  0  0  0  0  0  0
  -23.4290  -28.8360   23.3430 O   0  0  0  0  0  0  0  0  0  0  0  0
  -20.9400  -29.8410   21.7040 H   0  0  0  0  0  0  0  0  0  0  0  0
  -18.0460  -28.0570   22.8340 C   0  0  0  0  0  0  0  0  0  0  0  0
  -20.5990  -28.3450   23.1550 C   0  0  0  0  0  3  0  0  0  0  0  0
  -20.7250  -26.9080   22.5990 C   0  0  0  0  0  2  0  0  0  0  0  0
  -19.6450  -26.5610   21.5670 C   0  0  0  0  0  2  0  0  0  0  0  0
  -18.2480  -26.7000   22.1800 C   0  0  0  0  0  2  0  0  0  0  0  0
  -19.1500  -28.8340   23.2780 C   0  0  0  0  0  0  0  0  0  0  0  0
  -18.9070  -30.1020   23.8520 C   0  0  0  0  0  3  0  0  0  0  0  0
  -17.5940  -30.5920   23.9850 C   0  0  0  0  0  3  0  0  0  0  0  0
  -16.5060  -29.8120   23.5600 C   0  0  0  0  0  3  0  0  0  0  0  0
  -16.7330  -28.5480   22.9890 C   0  0  0  0  0  3  0  0  0  0  0  0
  -25.8970  -32.5090   23.8490 C   0  0  0  0  0  3  0  0  0  0  0  0
  -26.4140  -31.7300   25.1190 C   0  0  1  0  0  0  0  0  0  0  0  0
  -25.3170  -31.4830   26.1830 C   0  0  0  0  0  1  0  0  0  0  0  0
  -26.9990  -30.3540   24.7170 C   0  0  0  0  0  1  0  0  0  0  0  0
  -27.5680  -32.5190   25.7850 C   0  0  0  0  0  1  0  0  0  0  0  0
  -25.5870  -33.9060   24.1850 N   0  0  0  0  0  0  0  0  0  0  0  0
  -25.9120  -34.9610   23.4280 C   0  0  0  0  0  0  0  0  0  0  0  0
  -26.5760  -34.8650   22.3920 O   0  0  0  0  0  0  0  0  0  0  0  0
  -25.0040  -34.0560   24.9940 H   0  0  0  0  0  0  0  0  0  0  0  0
  -24.1800  -36.7530   23.0910 C   0  0  0  0  0  1  0  0  0  0  0  0
  -25.4260  -36.3490   23.8940 C   0  0  0  0  0  3  0  0  0  0  0  0
  -27.5620  -37.2360   24.7160 C   0  0  0  0  0  1  0  0  0  0  0  0
  -26.4570  -37.4030   23.7780 N   0  0  0  0  0  0  0  0  0  0  0  0
  -26.0520  -38.3210   23.9320 H   0  0  0  0  0  0  0  0  0  0  0  0
  1  4  2  0
  1  2  1  0
  2  6  2  0
  4  5  1  0
  5  8  1  0
  5  3  2  0
  6  3  1  0
  6 19  1  0
  7  4  1  0
  9 48  1  0
  9  7  1  0
  9  8  1  0
 10 19  1  0
 11 16  1  0
 12 13  1  0
 12 11  1  0
 14 13  1  0
 14 23  1  0
 14 15  1  0
 16 10  1  0
 16 15  1  0
 17 10  2  0
 19 18  1  0
 20 21  2  0
 21 40  1  0
 22 21  1  0
 22 25  1  0
 23 24  1  0
 23 20  1  0
 24 22  2  0
 25 26  1  0
 26 27  2  0
 28 31  1  0
 28 27  1  0
 29 28  2  0
 30 29  1  0
 30 25  2  0
 31 32  1  0
 32 33  1  0
 33 34  2  0
 35 34  1  0
 35 39  1  0
 36 35  2  0
 37 32  2  0
 37 36  1  0
 38 37  1  0
 40 41  1  0
 41 44  1  0
 41 43  1  0
 42 40  2  0
 45 20  1  0
 45 46  1  0
 47 45  1  0
 48 51  1  0
 49 48  1  0
 50 48  1  0
 52 51  1  0
 52 53  1  0
 54 65  2  0
 55 53  1  0
 55 60  1  0
 56 64  1  0
 56 66  1  0
 57 63  1  0
 57 59  1  0
 58 64  1  0
 59 60  2  0
 59 58  1  0
 61 62  1  0
 61 55  2  0
 62 57  2  0
 63 56  1  0
 64 54  1  0
 66 68  2  0
 67 66  1  0
 69 67  1  0
 70 79  2  0
 70 75  1  0
 71 67  1  0
 71 75  1  0
 72 71  1  0
 73 74  1  0
 73 72  1  0
 74 70  1  0
 75 76  2  0
 76 77  1  0
 78 77  2  0
 79 78  1  0
 80 54  1  0
 80 85  1  0
 80 81  1  0
 81 84  1  1
 81 82  1  0
 83 81  1  0
 85 88  1  0
 86 90  1  0
 86 85  1  0
 87 86  2  0
 90 89  1  0
 92 90  1  0
 92 93  1  0
 92 91  1  0
M  ISO  4  10 100  19 100  52 101  53 101
M  END
>  <TORSDO>  (17) 
F 19

>  <SCORE>  (17) 
-13.636

>  <name>  (17) 
16

>  <ligand_id>  (17) 
16

>  <original_smiles>  (17) 
[H]c1c([H])c([H])c2c(c1[H])C([H])([H])C([H])([H])C([H])([H])C2([H])N([H])C(=O)C1([H])N(C(=O)C([H])(N([H])C(=O)C([H])(N([H])C([H])([H])[H])C([H])([H])[H])C(C([H])([H])[H])(C([H])([H])[H])C([H])([H])[H])C([H])([H])c2c([H])c(OC([H])([H])C([H])([H])[N+]([H])([H])C3([H])C([H])([H])c4c([H])c([H])c(N(C(=O)N5C([H])([H])C([H])([H])C([H])([H])C([H])(n6nc(-c7c([H])c([H])c(Oc8c([H])c([H])c(F)c([H])c8F)c([H])c7[H])c(C(=O)N([H])[H])c6N([H])[H])C5([H])[H])C([H])([H])[H])c([H])c4C3([H])[H])c([H])c([H])c2C1([H])[H]

>  <smiles>  (17) 
[H]c1c([H])c([H])c2c(c1[H])C([H])([H])C([H])([H])C([H])([H])C2([H])N([H])C(=O)C1([H])N(C(=O)C([H])(N([H])C(=O)C([H])(N([H])C([H])([H])[H])C([H])([H])[H])C(C([H])([H])[H])(C([H])([H])[H])C([H])([H])[H])C([H])([H])c2c([H])c(OC([H])([H])C([H])([H])[N+]([H])([H])C3([H])C([H])([H])c4c([H])c([H])c(N(C(=O)N5C([H])([H])C([H])([H])C([H])([H])C([H])(n6nc(-c7c([H])c([H])c(Oc8c([H])c([H])c(F)c([H])c8F)c([H])c7[H])c(C(=O)N([H])[H])c6N([H])[H])C5([H])[H])C([H])([H])[H])c([H])c4C3([H])[H])c([H])c([H])c2C1([H])[H]

$$$$
17:0:0
     RDKit          3D

 91 99  0  0  1  0  0  0  0  0999 V2000
  -29.2090  -22.7720   20.3970 C   0  0  0  0  0  3  0  0  0  0  0  0
  -26.5130  -22.1550   20.4150 C   0  0  0  0  0  3  0  0  0  0  0  0
  -28.2710  -23.8700   20.5960 C   0  0  0  0  0  0  0  0  0  0  0  0
  -28.8310  -21.3730   20.2340 C   0  0  0  0  0  0  0  0  0  0  0  0
  -26.8990  -23.4910   20.6530 C   0  0  0  0  0  0  0  0  0  0  0  0
  -27.4410  -21.1190   20.2140 C   0  0  0  0  0  0  0  0  0  0  0  0
  -25.7810  -24.4420   21.0490 C   0  0  0  0  0  1  0  0  0  0  0  0
  -26.9560  -19.8700   20.0220 F   0  0  0  0  0  0  0  0  0  0  0  0
  -29.8710  -20.1680   20.0750 C   0  0  0  0  0  2  0  0  0  0  0  0
  -29.4510  -18.6110   20.2790 C   0  0  0  0  0  3  0  0  0  0  0  0
  -30.5290  -17.4110   20.0870 C   0  0  0  0  0  3  0  0  0  0  0  0
  -30.8270  -14.8300   20.0240 C   0  0  0  0  0  0  0  0  0  0  0  0
  -30.5110  -12.5990   18.9170 C   0  0  0  0  0  2  0  0  0  0  0  0
  -29.4970  -12.7080   17.7560 C   0  0  0  0  0  2  0  0  0  0  0  0
  -28.0560  -12.5270   18.2720 C   0  0  0  0  0  2  0  0  0  0  0  0
  -27.7700  -13.3820   19.5330 C   0  0  0  0  0  3  0  0  0  0  0  0
  -28.8910  -13.2180   20.5780 C   0  0  0  0  0  2  0  0  0  0  0  0
  -30.1560  -13.6200   19.9370 N   0  0  0  0  0  0  0  0  0  0  0  0
  -31.9240  -14.9390   19.4650 O   0  0  0  0  0  0  0  0  0  0  0  0
  -29.7570  -15.9760   21.9220 C   0  0  0  0  0  1  0  0  0  0  0  0
  -30.1880  -15.9760   20.5180 N   0  0  0  0  0  0  0  0  0  0  0  0
  -25.4470  -13.9830   20.4440 C   0  0  0  0  0  0  0  0  0  0  0  0
  -24.3940  -13.2110   20.8550 C   0  0  0  0  0  0  0  0  0  0  0  0
  -24.8270  -11.8560   20.7360 C   0  0  0  0  0  0  0  0  0  0  0  0
  -26.4550  -13.0970   20.0990 N   0  0  0  0  0  0  0  0  0  0  0  0
  -26.0920  -11.8100   20.3360 N   0  0  0  0  0  0  0  0  0  0  0  0
  -24.0920  -10.5980   20.9260 C   0  0  0  0  0  0  0  0  0  0  0  0
  -24.5320   -9.6180   21.8420 C   0  0  0  0  0  3  0  0  0  0  0  0
  -23.7970   -8.4260   22.0240 C   0  0  0  0  0  3  0  0  0  0  0  0
  -22.6100   -8.2060   21.2870 C   0  0  0  0  0  0  0  0  0  0  0  0
  -22.1880   -9.1750   20.3600 C   0  0  0  0  0  3  0  0  0  0  0  0
  -22.9220  -10.3590   20.1780 C   0  0  0  0  0  3  0  0  0  0  0  0
  -21.8470   -7.0660   21.3740 O   0  0  0  0  0  0  0  0  0  0  0  0
  -21.7550   -6.3490   22.5400 C   0  0  0  0  0  0  0  0  0  0  0  0
  -21.2920   -6.9340   23.7380 C   0  0  0  0  0  3  0  0  0  0  0  0
  -21.1490   -6.1450   24.8970 C   0  0  0  0  0  3  0  0  0  0  0  0
  -21.4560   -4.7710   24.8570 C   0  0  0  0  0  0  0  0  0  0  0  0
  -21.9100   -4.1860   23.6620 C   0  0  0  0  0  3  0  0  0  0  0  0
  -22.0570   -4.9730   22.5060 C   0  0  0  0  0  0  0  0  0  0  0  0
  -22.4770   -4.3990   21.3530 F   0  0  0  0  0  0  0  0  0  0  0  0
  -21.3100   -4.0110   25.9680 F   0  0  0  0  0  0  0  0  0  0  0  0
  -23.0300  -13.7000   21.2440 C   0  0  0  0  0  0  0  0  0  0  0  0
  -22.3590  -12.9920   22.1470 N   0  0  0  0  0  0  0  0  0  0  0  0
  -22.5680  -14.7430   20.7850 O   0  0  0  0  0  0  0  0  0  0  0  0
  -22.7480  -12.1470   22.5400 H   0  0  0  0  0  0  0  0  0  0  0  0
  -21.4460  -13.3000   22.4490 H   0  0  0  0  0  0  0  0  0  0  0  0
  -25.6260  -15.3570   20.3160 N   0  0  0  0  0  0  0  0  0  0  0  0
  -24.8860  -16.0200   20.5200 H   0  0  0  0  0  0  0  0  0  0  0  0
  -26.4720  -15.7980   19.9750 H   0  0  0  0  0  0  0  0  0  0  0  0
  -28.7200  -25.3530   20.9960 C   0  0  0  0  0  2  0  0  0  0  0  0
  -28.5360  -26.5630   20.1450 O   0  0  0  0  0  0  0  0  0  0  0  0
  -24.6800  -31.9050   23.2640 C   0  0  0  0  0  0  0  0  0  0  0  0
  -27.4040  -27.3870   20.2260 C   0  0  0  0  0  0  0  0  0  0  0  0
  -23.5160  -30.4790   21.6170 C   0  0  0  0  0  3  0  0  0  0  0  0
  -25.0110  -28.9570   20.1990 C   0  0  0  0  0  0  0  0  0  0  0  0
  -26.0480  -30.8480   21.4470 C   0  0  0  0  0  2  0  0  0  0  0  0
  -26.1630  -29.4650   20.8150 C   0  0  0  0  0  0  0  0  0  0  0  0
  -27.3640  -28.6870   20.8260 C   0  0  0  0  0  3  0  0  0  0  0  0
  -26.2440  -26.9540   19.5570 C   0  0  0  0  0  3  0  0  0  0  0  0
  -25.0530  -27.7070   19.5610 C   0  0  0  0  0  3  0  0  0  0  0  0
  -23.7540  -29.8040   20.2400 C   0  0  0  0  0  2  0  0  0  0  0  0
  -24.7680  -31.0970   22.1660 N   0  0  0  0  0  0  0  0  0  0  0  0
  -23.5890  -32.1580   23.7930 O   0  0  0  0  0  0  0  0  0  0  0  0
  -22.8720  -29.4480   22.5760 C   0  0  0  0  0  0  0  0  0  0  0  0
  -21.5510  -29.2470   22.4460 N   0  0  0  0  0  0  0  0  0  0  0  0
  -23.5630  -28.8330   23.3940 O   0  0  0  0  0  0  0  0  0  0  0  0
  -21.0540  -29.7980   21.7620 H   0  0  0  0  0  0  0  0  0  0  0  0
  -18.1910  -28.0070   22.9670 C   0  0  0  0  0  0  0  0  0  0  0  0
  -20.7500  -28.2890   23.2120 C   0  0  0  0  0  3  0  0  0  0  0  0
  -20.8600  -26.8680   22.6140 C   0  0  0  0  0  2  0  0  0  0  0  0
  -19.7490  -26.5480   21.6090 C   0  0  0  0  0  2  0  0  0  0  0  0
  -18.3720  -26.6700   22.2690 C   0  0  0  0  0  2  0  0  0  0  0  0
  -19.3070  -28.7750   23.3940 C   0  0  0  0  0  0  0  0  0  0  0  0
  -19.0820  -30.0260   24.0080 C   0  0  0  0  0  3  0  0  0  0  0  0
  -17.7750  -30.5130   24.1960 C   0  0  0  0  0  3  0  0  0  0  0  0
  -16.6730  -29.7430   23.7830 C   0  0  0  0  0  3  0  0  0  0  0  0
  -16.8820  -28.4920   23.1760 C   0  0  0  0  0  3  0  0  0  0  0  0
  -25.9450  -32.5650   23.8920 C   0  0  0  0  0  3  0  0  0  0  0  0
  -26.4470  -31.8320   25.1980 C   0  0  1  0  0  0  0  0  0  0  0  0
  -25.3340  -31.6050   26.2500 C   0  0  0  0  0  1  0  0  0  0  0  0
  -27.0550  -30.4530   24.8510 C   0  0  0  0  0  1  0  0  0  0  0  0
  -27.5760  -32.6560   25.8610 C   0  0  0  0  0  1  0  0  0  0  0  0
  -25.6190  -33.9700   24.1820 N   0  0  0  0  0  0  0  0  0  0  0  0
  -25.9450  -35.0040   23.3970 C   0  0  0  0  0  0  0  0  0  0  0  0
  -26.6230  -34.8800   22.3730 O   0  0  0  0  0  0  0  0  0  0  0  0
  -25.0180  -34.1390   24.9750 H   0  0  0  0  0  0  0  0  0  0  0  0
  -24.1930  -36.7640   22.9900 C   0  0  0  0  0  1  0  0  0  0  0  0
  -25.4410  -36.4010   23.8120 C   0  0  0  0  0  3  0  0  0  0  0  0
  -27.5640  -37.3360   24.6130 C   0  0  0  0  0  1  0  0  0  0  0  0
  -26.4600  -37.4620   23.6660 N   0  0  0  0  0  0  0  0  0  0  0  0
  -26.0420  -38.3810   23.7890 H   0  0  0  0  0  0  0  0  0  0  0  0
  1  3  1  0
  2  5  1  0
  3  5  2  0
  3 50  1  0
  4  1  2  0
  5  7  1  0
  6  4  1  0
  6  2  2  0
  8  6  1  0
  9  4  1  0
  9 10  1  0
 11 10  2  0
 11 21  1  0
 12 21  1  0
 13 18  1  0
 14 15  1  0
 14 13  1  0
 16 15  1  0
 16 25  1  0
 16 17  1  0
 18 12  1  0
 18 17  1  0
 19 12  2  0
 21 20  1  0
 22 23  2  0
 23 42  1  0
 24 23  1  0
 24 27  1  0
 25 26  1  0
 25 22  1  0
 26 24  2  0
 27 28  1  0
 28 29  2  0
 30 33  1  0
 30 29  1  0
 31 30  2  0
 32 31  1  0
 32 27  2  0
 33 34  1  0
 34 35  1  0
 35 36  2  0
 37 36  1  0
 37 41  1  0
 38 37  2  0
 39 34  2  0
 39 38  1  0
 40 39  1  0
 42 43  1  0
 43 46  1  0
 43 45  1  0
 44 42  2  0
 47 22  1  0
 47 48  1  0
 49 47  1  0
 51 53  1  0
 51 50  1  0
 52 63  2  0
 53 58  1  0
 54 62  1  0
 54 64  1  0
 55 61  1  0
 55 57  1  0
 56 62  1  0
 57 58  2  0
 57 56  1  0
 59 60  1  0
 59 53  2  0
 60 55  2  0
 61 54  1  0
 62 52  1  0
 64 66  2  0
 65 64  1  0
 67 65  1  0
 68 77  2  0
 68 73  1  0
 69 65  1  0
 69 73  1  0
 70 69  1  0
 71 72  1  0
 71 70  1  0
 72 68  1  0
 73 74  2  0
 74 75  1  0
 76 75  2  0
 77 76  1  0
 78 52  1  0
 78 83  1  0
 78 79  1  0
 79 82  1  1
 79 80  1  0
 81 79  1  0
 83 86  1  0
 84 88  1  0
 84 83  1  0
 85 84  2  0
 88 87  1  0
 90 91  1  0
 90 88  1  0
 90 89  1  0
M  ISO  4  12 100  21 100  50 101  51 101
M  END
>  <TORSDO>  (18) 
F 20

>  <SCORE>  (18) 
-12.368

>  <name>  (18) 
17

>  <ligand_id>  (18) 
17

>  <original_smiles>  (18) 
[H]c1c([H])c([H])c2c(c1[H])C([H])([H])C([H])([H])C([H])([H])C2([H])N([H])C(=O)C1([H])N(C(=O)C([H])(N([H])C(=O)C([H])(N([H])C([H])([H])[H])C([H])([H])[H])C(C([H])([H])[H])(C([H])([H])[H])C([H])([H])[H])C([H])([H])c2c([H])c(OC([H])([H])c3c([H])c(C([H])([H])C([H])([H])C([H])([H])N(C(=O)N4C([H])([H])C([H])([H])C([H])([H])C([H])(n5nc(-c6c([H])c([H])c(Oc7c([H])c([H])c(F)c([H])c7F)c([H])c6[H])c(C(=O)N([H])[H])c5N([H])[H])C4([H])[H])C([H])([H])[H])c(F)c([H])c3C([H])([H])[H])c([H])c([H])c2C1([H])[H]

>  <smiles>  (18) 
[H]c1c([H])c([H])c2c(c1[H])C([H])([H])C([H])([H])C([H])([H])C2([H])N([H])C(=O)C1([H])N(C(=O)C([H])(N([H])C(=O)C([H])(N([H])C([H])([H])[H])C([H])([H])[H])C(C([H])([H])[H])(C([H])([H])[H])C([H])([H])[H])C([H])([H])c2c([H])c(OC([H])([H])c3c([H])c(C([H])([H])C([H])([H])C([H])([H])N(C(=O)N4C([H])([H])C([H])([H])C([H])([H])C([H])(n5nc(-c6c([H])c([H])c(Oc7c([H])c([H])c(F)c([H])c7F)c([H])c6[H])c(C(=O)N([H])[H])c5N([H])[H])C4([H])[H])C([H])([H])[H])c(F)c([H])c3C([H])([H])[H])c([H])c([H])c2C1([H])[H]

$$$$
18:0:0
     RDKit          3D

 87 96  0  0  1  0  0  0  0  0999 V2000
  -30.6350  -20.2340   19.5530 C   0  0  0  0  0  3  0  0  0  0  0  0
  -30.7400  -18.7340   19.6340 C   0  0  0  0  0  3  0  0  0  0  0  0
  -29.4160  -22.7130   19.8470 C   0  0  0  0  0  3  0  0  0  0  0  0
  -28.6500  -18.6860   20.4740 C   0  0  0  0  0  3  0  0  0  0  0  0
  -27.3570  -22.6510   20.6700 C   0  0  0  0  0  3  0  0  0  0  0  0
  -29.5330  -21.1400   19.9160 C   0  0  0  0  0  0  0  0  0  0  0  0
  -29.8030  -17.6870   20.0890 C   0  0  0  0  0  0  0  0  0  0  0  0
  -28.4980  -20.2820   20.3970 C   0  0  0  0  0  0  0  0  0  0  0  0
  -28.2910  -23.7220   20.2130 C   0  0  0  0  0  0  0  0  0  0  0  0
  -27.4420  -21.1850   20.7480 N   0  0  0  0  0  0  0  0  0  0  0  0
  -30.2970  -15.9100   20.1210 C   0  0  0  0  0  0  0  0  0  0  0  0
  -30.3990  -13.3080   19.3530 C   0  0  0  0  0  2  0  0  0  0  0  0
  -29.5390  -12.8070   18.1540 C   0  0  0  0  0  2  0  0  0  0  0  0
  -28.1330  -12.4070   18.6170 C   0  0  0  0  0  2  0  0  0  0  0  0
  -27.5870  -13.4280   19.6370 C   0  0  0  0  0  3  0  0  0  0  0  0
  -28.5960  -13.8580   20.7320 C   0  0  0  0  0  2  0  0  0  0  0  0
  -29.7470  -14.5250   20.0650 N   0  0  0  0  0  0  0  0  0  0  0  0
  -31.5270  -15.7150   19.9830 O   0  0  0  0  0  0  0  0  0  0  0  0
  -25.2310  -13.9150   20.4180 C   0  0  0  0  0  0  0  0  0  0  0  0
  -24.1850  -13.1210   20.7910 C   0  0  0  0  0  0  0  0  0  0  0  0
  -24.6750  -11.7790   20.7680 C   0  0  0  0  0  0  0  0  0  0  0  0
  -26.2860  -13.0600   20.1740 N   0  0  0  0  0  0  0  0  0  0  0  0
  -25.9690  -11.7660   20.4520 N   0  0  0  0  0  0  0  0  0  0  0  0
  -23.9640  -10.5070   20.9660 C   0  0  0  0  0  0  0  0  0  0  0  0
  -24.3970   -9.5540   21.9140 C   0  0  0  0  0  3  0  0  0  0  0  0
  -23.6790   -8.3540   22.1040 C   0  0  0  0  0  3  0  0  0  0  0  0
  -22.5120   -8.0960   21.3440 C   0  0  0  0  0  0  0  0  0  0  0  0
  -22.0980   -9.0370   20.3850 C   0  0  0  0  0  3  0  0  0  0  0  0
  -22.8170  -10.2290   20.1950 C   0  0  0  0  0  3  0  0  0  0  0  0
  -21.7670   -6.9460   21.4410 O   0  0  0  0  0  0  0  0  0  0  0  0
  -21.7090   -6.2200   22.6050 C   0  0  0  0  0  0  0  0  0  0  0  0
  -21.2510   -6.7870   23.8140 C   0  0  0  0  0  3  0  0  0  0  0  0
  -21.1430   -5.9870   24.9690 C   0  0  0  0  0  3  0  0  0  0  0  0
  -21.4820   -4.6220   24.9160 C   0  0  0  0  0  0  0  0  0  0  0  0
  -21.9340   -4.0540   23.7120 C   0  0  0  0  0  3  0  0  0  0  0  0
  -22.0440   -4.8510   22.5590 C   0  0  0  0  0  0  0  0  0  0  0  0
  -22.4580   -4.2950   21.3950 F   0  0  0  0  0  0  0  0  0  0  0  0
  -21.3710   -3.8510   26.0240 F   0  0  0  0  0  0  0  0  0  0  0  0
  -22.7800  -13.5800   21.0490 C   0  0  0  0  0  0  0  0  0  0  0  0
  -22.0630  -12.8910   21.9280 N   0  0  0  0  0  0  0  0  0  0  0  0
  -22.3300  -14.5890   20.5070 O   0  0  0  0  0  0  0  0  0  0  0  0
  -22.4420  -12.0770   22.3880 H   0  0  0  0  0  0  0  0  0  0  0  0
  -21.1210  -13.1830   22.1460 H   0  0  0  0  0  0  0  0  0  0  0  0
  -25.3710  -15.2870   20.2310 N   0  0  0  0  0  0  0  0  0  0  0  0
  -24.5940  -15.9290   20.3410 H   0  0  0  0  0  0  0  0  0  0  0  0
  -26.2130  -15.7380   19.8960 H   0  0  0  0  0  0  0  0  0  0  0  0
  -28.2300  -25.3940   20.2230 O   0  0  0  0  0  0  0  0  0  0  0  0
  -24.7040  -31.8220   23.1960 C   0  0  0  0  0  0  0  0  0  0  0  0
  -27.2430  -26.6420   20.2220 C   0  0  0  0  0  0  0  0  0  0  0  0
  -23.5420  -30.4440   21.5260 C   0  0  0  0  0  3  0  0  0  0  0  0
  -25.0050  -28.7730   20.1350 C   0  0  0  0  0  0  0  0  0  0  0  0
  -26.1280  -30.5320   21.4700 C   0  0  0  0  0  2  0  0  0  0  0  0
  -26.1910  -29.0900   20.8060 C   0  0  0  0  0  0  0  0  0  0  0  0
  -27.2870  -28.0560   20.8150 C   0  0  0  0  0  3  0  0  0  0  0  0
  -26.0280  -26.5720   19.4880 C   0  0  0  0  0  3  0  0  0  0  0  0
  -24.9690  -27.5410   19.4530 C   0  0  0  0  0  3  0  0  0  0  0  0
  -23.8100  -29.7480   20.1580 C   0  0  0  0  0  2  0  0  0  0  0  0
  -24.8170  -30.9700   22.1160 N   0  0  0  0  0  0  0  0  0  0  0  0
  -23.6010  -32.1300   23.6830 O   0  0  0  0  0  0  0  0  0  0  0  0
  -22.7910  -29.4730   22.4780 C   0  0  0  0  0  0  0  0  0  0  0  0
  -21.4560  -29.3540   22.3450 N   0  0  0  0  0  0  0  0  0  0  0  0
  -23.4270  -28.8210   23.3100 O   0  0  0  0  0  0  0  0  0  0  0  0
  -20.9930  -29.9290   21.6560 H   0  0  0  0  0  0  0  0  0  0  0  0
  -18.0350  -28.2300   22.8560 C   0  0  0  0  0  0  0  0  0  0  0  0
  -20.6060  -28.4200   23.0970 C   0  0  0  0  0  3  0  0  0  0  0  0
  -20.6590  -27.0030   22.4800 C   0  0  0  0  0  2  0  0  0  0  0  0
  -19.5400  -26.7440   21.4670 C   0  0  0  0  0  2  0  0  0  0  0  0
  -18.1680  -26.9020   22.1290 C   0  0  0  0  0  2  0  0  0  0  0  0
  -19.1780  -28.9510   23.2950 C   0  0  0  0  0  0  0  0  0  0  0  0
  -18.9950  -30.1920   23.9420 C   0  0  0  0  0  3  0  0  0  0  0  0
  -17.7040  -30.7140   24.1480 C   0  0  0  0  0  3  0  0  0  0  0  0
  -16.5770  -29.9910   23.7200 C   0  0  0  0  0  3  0  0  0  0  0  0
  -16.7430  -28.7500   23.0800 C   0  0  0  0  0  3  0  0  0  0  0  0
  -25.9530  -32.4650   23.8720 C   0  0  0  0  0  3  0  0  0  0  0  0
  -25.6210  -33.8590   24.2350 N   0  0  0  0  0  0  0  0  0  0  0  0
  -25.9380  -34.9450   23.5170 C   0  0  0  0  0  0  0  0  0  0  0  0
  -26.5960  -34.8800   22.4770 O   0  0  0  0  0  0  0  0  0  0  0  0
  -25.0320  -33.9800   25.0460 H   0  0  0  0  0  0  0  0  0  0  0  0
  -24.1810  -36.7380   23.2770 C   0  0  0  0  0  1  0  0  0  0  0  0
  -25.4540  -36.3200   24.0300 C   0  0  0  0  0  3  0  0  0  0  0  0
  -27.6030  -37.2180   24.8130 C   0  0  0  0  0  1  0  0  0  0  0  0
  -26.4700  -37.3880   23.9080 N   0  0  0  0  0  0  0  0  0  0  0  0
  -26.0580  -38.3000   24.0860 H   0  0  0  0  0  0  0  0  0  0  0  0
  -26.4310  -31.6830   25.1590 C   0  0  1  0  0  0  0  0  0  0  0  0
  -25.3080  -31.4400   26.1950 C   0  0  0  0  0  1  0  0  0  0  0  0
  -27.0220  -30.3060   24.7860 C   0  0  0  0  0  1  0  0  0  0  0  0
  -27.5650  -32.4690   25.8590 C   0  0  0  0  0  1  0  0  0  0  0  0
  1  2  2  0
  1  6  1  0
  2  7  1  0
  3  6  2  0
  3  9  1  0
  5 10  1  0
  6  8  1  0
  7 11  1  0
  7  4  2  0
  8  4  1  0
  8 10  2  0
  9 47  1  0
  9  5  2  0
 12 17  1  0
 13 14  1  0
 13 12  1  0
 15 14  1  0
 15 22  1  0
 15 16  1  0
 17 11  1  0
 17 16  1  0
 18 11  2  0
 19 20  2  0
 20 39  1  0
 21 20  1  0
 21 24  1  0
 22 19  1  0
 22 23  1  0
 23 21  2  0
 24 25  1  0
 25 26  2  0
 27 30  1  0
 27 26  1  0
 28 27  2  0
 29 28  1  0
 29 24  2  0
 30 31  1  0
 31 32  1  0
 32 33  2  0
 34 33  1  0
 34 38  1  0
 35 34  2  0
 36 31  2  0
 36 35  1  0
 37 36  1  0
 39 40  1  0
 40 43  1  0
 40 42  1  0
 41 39  2  0
 44 45  1  0
 44 19  1  0
 46 44  1  0
 48 59  2  0
 49 47  1  0
 49 54  1  0
 50 58  1  0
 50 60  1  0
 51 57  1  0
 51 53  1  0
 52 58  1  0
 53 54  2  0
 53 52  1  0
 55 49  2  0
 56 55  1  0
 56 51  2  0
 57 50  1  0
 58 48  1  0
 60 62  2  0
 61 60  1  0
 63 61  1  0
 64 73  2  0
 64 69  1  0
 65 61  1  0
 65 69  1  0
 66 65  1  0
 67 68  1  0
 67 66  1  0
 68 64  1  0
 69 70  2  0
 70 71  1  0
 72 71  2  0
 73 72  1  0
 74 48  1  0
 74 75  1  0
 74 84  1  0
 75 78  1  0
 76 80  1  0
 76 75  1  0
 77 76  2  0
 80 79  1  0
 82 80  1  0
 82 83  1  0
 82 81  1  0
 84 87  1  1
 84 85  1  0
 86 84  1  0
M  ISO  4   7 100   9 101  11 100  47 101
M  END
>  <TORSDO>  (19) 
F 16

>  <SCORE>  (19) 
-16.300

>  <name>  (19) 
18

>  <ligand_id>  (19) 
18

>  <original_smiles>  (19) 
[H]c1nc2c([H])c(C(=O)N3C([H])([H])C([H])([H])C([H])([H])C([H])(n4nc(-c5c([H])c([H])c(Oc6c([H])c([H])c(F)c([H])c6F)c([H])c5[H])c(C(=O)N([H])[H])c4N([H])[H])C3([H])[H])c([H])c([H])c2c([H])c1Oc1c([H])c([H])c2c(c1[H])C([H])([H])N(C(=O)C([H])(N([H])C(=O)C([H])(N([H])C([H])([H])[H])C([H])([H])[H])C(C([H])([H])[H])(C([H])([H])[H])C([H])([H])[H])C([H])(C(=O)N([H])C1([H])c3c([H])c([H])c([H])c([H])c3C([H])([H])C([H])([H])C1([H])[H])C2([H])[H]

>  <smiles>  (19) 
[H]c1nc2c([H])c(C(=O)N3C([H])([H])C([H])([H])C([H])([H])C([H])(n4nc(-c5c([H])c([H])c(Oc6c([H])c([H])c(F)c([H])c6F)c([H])c5[H])c(C(=O)N([H])[H])c4N([H])[H])C3([H])[H])c([H])c([H])c2c([H])c1Oc1c([H])c([H])c2c(c1[H])C([H])([H])N(C(=O)C([H])(N([H])C(=O)C([H])(N([H])C([H])([H])[H])C([H])([H])[H])C(C([H])([H])[H])(C([H])([H])[H])C([H])([H])[H])C([H])(C(=O)N([H])C1([H])c3c([H])c([H])c([H])c([H])c3C([H])([H])C([H])([H])C1([H])[H])C2([H])[H]

$$$$
19:0:0
     RDKit          3D

 88 97  0  0  1  0  0  0  0  0999 V2000
  -27.8600  -19.5280   20.7600 C   0  0  0  0  0  3  0  0  0  0  0  0
  -28.4880  -18.1840   20.5320 C   0  0  0  0  0  3  0  0  0  0  0  0
  -30.1000  -19.2940   19.3220 C   0  0  0  0  0  3  0  0  0  0  0  0
  -28.2770  -20.8550   20.2830 C   0  0  0  0  0  0  0  0  0  0  0  0
  -29.6980  -17.8180   19.7840 C   0  0  0  0  0  0  0  0  0  0  0  0
  -29.4340  -20.7480   19.5360 C   0  0  0  0  0  0  0  0  0  0  0  0
  -27.7390  -22.4220   20.4750 C   0  0  0  0  0  0  0  0  0  0  0  0
  -29.6360  -22.4430   19.2070 C   0  0  0  0  0  2  0  0  0  0  0  0
  -28.3410  -23.6640   19.5210 C   0  0  1  0  0  0  0  0  0  0  0  0
  -27.5090  -23.6380   18.2280 C   0  0  0  0  0  1  0  0  0  0  0  0
  -26.8590  -22.6910   21.2990 O   0  0  0  0  0  0  0  0  0  0  0  0
  -30.4200  -16.1240   19.6440 C   0  0  0  0  0  0  0  0  0  0  0  0
  -30.5750  -13.5010   18.9160 C   0  0  0  0  0  2  0  0  0  0  0  0
  -29.6410  -12.9690   17.7820 C   0  0  0  0  0  2  0  0  0  0  0  0
  -28.2750  -12.5510   18.3390 C   0  0  0  0  0  2  0  0  0  0  0  0
  -27.7820  -13.5720   19.3840 C   0  0  0  0  0  3  0  0  0  0  0  0
  -28.8560  -14.0190   20.4090 C   0  0  0  0  0  2  0  0  0  0  0  0
  -29.9510  -14.7060   19.6700 N   0  0  0  0  0  0  0  0  0  0  0  0
  -31.6310  -16.0190   19.3470 O   0  0  0  0  0  0  0  0  0  0  0  0
  -25.5070  -14.0480   20.3870 C   0  0  0  0  0  0  0  0  0  0  0  0
  -24.4840  -13.2510   20.8110 C   0  0  0  0  0  0  0  0  0  0  0  0
  -24.9470  -11.9050   20.6780 C   0  0  0  0  0  0  0  0  0  0  0  0
  -26.5230  -13.1940   20.0090 N   0  0  0  0  0  0  0  0  0  0  0  0
  -26.2080  -11.8920   20.2490 N   0  0  0  0  0  0  0  0  0  0  0  0
  -24.2340  -10.6340   20.8760 C   0  0  0  0  0  0  0  0  0  0  0  0
  -24.6730   -9.6740   21.8140 C   0  0  0  0  0  3  0  0  0  0  0  0
  -23.9530   -8.4740   22.0020 C   0  0  0  0  0  3  0  0  0  0  0  0
  -22.7780   -8.2250   21.2530 C   0  0  0  0  0  0  0  0  0  0  0  0
  -22.3560   -9.1730   20.3050 C   0  0  0  0  0  3  0  0  0  0  0  0
  -23.0770  -10.3640   20.1150 C   0  0  0  0  0  3  0  0  0  0  0  0
  -22.0300   -7.0760   21.3510 O   0  0  0  0  0  0  0  0  0  0  0  0
  -21.8970   -6.4000   22.5380 C   0  0  0  0  0  0  0  0  0  0  0  0
  -21.3240   -7.0040   23.6780 C   0  0  0  0  0  3  0  0  0  0  0  0
  -21.1430   -6.2520   24.8560 C   0  0  0  0  0  3  0  0  0  0  0  0
  -21.5260   -4.8980   24.8950 C   0  0  0  0  0  0  0  0  0  0  0  0
  -22.0930   -4.2940   23.7590 C   0  0  0  0  0  3  0  0  0  0  0  0
  -22.2750   -5.0420   22.5830 C   0  0  0  0  0  0  0  0  0  0  0  0
  -22.8010   -4.4490   21.4840 F   0  0  0  0  0  0  0  0  0  0  0  0
  -21.3460   -4.1740   26.0240 F   0  0  0  0  0  0  0  0  0  0  0  0
  -23.1150  -13.7130   21.2170 C   0  0  0  0  0  0  0  0  0  0  0  0
  -22.4660  -12.9910   22.1210 N   0  0  0  0  0  0  0  0  0  0  0  0
  -22.6370  -14.7550   20.7670 O   0  0  0  0  0  0  0  0  0  0  0  0
  -22.8710  -12.1490   22.5050 H   0  0  0  0  0  0  0  0  0  0  0  0
  -21.5520  -13.2830   22.4350 H   0  0  0  0  0  0  0  0  0  0  0  0
  -25.6530  -15.4270   20.2580 N   0  0  0  0  0  0  0  0  0  0  0  0
  -24.8960  -16.0700   20.4660 H   0  0  0  0  0  0  0  0  0  0  0  0
  -26.4610  -15.8840   19.8570 H   0  0  0  0  0  0  0  0  0  0  0  0
  -28.2750  -25.4960   19.8450 O   0  0  0  0  0  0  0  0  0  0  0  0
  -24.7700  -31.8100   23.0920 C   0  0  0  0  0  0  0  0  0  0  0  0
  -27.2940  -26.7660   19.8370 C   0  0  0  0  0  0  0  0  0  0  0  0
  -23.5730  -30.4630   21.4240 C   0  0  0  0  0  3  0  0  0  0  0  0
  -25.0140  -28.8720   19.9150 C   0  0  0  0  0  0  0  0  0  0  0  0
  -26.1540  -30.6020   21.2710 C   0  0  0  0  0  2  0  0  0  0  0  0
  -26.2210  -29.1830   20.5510 C   0  0  0  0  0  0  0  0  0  0  0  0
  -27.3320  -28.1630   20.4810 C   0  0  0  0  0  3  0  0  0  0  0  0
  -26.0490  -26.7200   19.1460 C   0  0  0  0  0  3  0  0  0  0  0  0
  -24.9770  -27.6710   19.1880 C   0  0  0  0  0  3  0  0  0  0  0  0
  -23.8010  -29.8210   20.0220 C   0  0  0  0  0  2  0  0  0  0  0  0
  -24.8590  -30.9940   21.9810 N   0  0  0  0  0  0  0  0  0  0  0  0
  -23.6810  -32.0780   23.6300 O   0  0  0  0  0  0  0  0  0  0  0  0
  -22.8790  -29.4450   22.3700 C   0  0  0  0  0  0  0  0  0  0  0  0
  -21.5510  -29.2510   22.2380 N   0  0  0  0  0  0  0  0  0  0  0  0
  -23.5490  -28.8270   23.2010 O   0  0  0  0  0  0  0  0  0  0  0  0
  -21.0550  -29.8010   21.5520 H   0  0  0  0  0  0  0  0  0  0  0  0
  -18.2120  -27.8800   22.6980 C   0  0  0  0  0  0  0  0  0  0  0  0
  -20.7560  -28.2660   22.9860 C   0  0  0  0  0  3  0  0  0  0  0  0
  -20.9280  -26.8480   22.3910 C   0  0  0  0  0  2  0  0  0  0  0  0
  -19.8510  -26.4940   21.3590 C   0  0  0  0  0  2  0  0  0  0  0  0
  -18.4600  -26.5580   21.9920 C   0  0  0  0  0  2  0  0  0  0  0  0
  -19.2890  -28.6900   23.1500 C   0  0  0  0  0  0  0  0  0  0  0  0
  -19.0000  -29.9210   23.7760 C   0  0  0  0  0  3  0  0  0  0  0  0
  -17.6700  -30.3480   23.9500 C   0  0  0  0  0  3  0  0  0  0  0  0
  -16.6090  -29.5380   23.5100 C   0  0  0  0  0  3  0  0  0  0  0  0
  -16.8810  -28.3050   22.8900 C   0  0  0  0  0  3  0  0  0  0  0  0
  -26.0310  -32.4590   23.7390 C   0  0  0  0  0  3  0  0  0  0  0  0
  -25.6950  -33.8480   24.1210 N   0  0  0  0  0  0  0  0  0  0  0  0
  -25.9740  -34.9400   23.3970 C   0  0  0  0  0  0  0  0  0  0  0  0
  -26.5950  -34.8880   22.3330 O   0  0  0  0  0  0  0  0  0  0  0  0
  -25.1360  -33.9590   24.9540 H   0  0  0  0  0  0  0  0  0  0  0  0
  -24.1860  -36.7110   23.2400 C   0  0  0  0  0  1  0  0  0  0  0  0
  -25.4970  -36.3080   23.9350 C   0  0  0  0  0  3  0  0  0  0  0  0
  -27.6600  -37.2410   24.6310 C   0  0  0  0  0  1  0  0  0  0  0  0
  -26.4920  -37.3910   23.7690 N   0  0  0  0  0  0  0  0  0  0  0  0
  -26.0730  -38.2980   23.9580 H   0  0  0  0  0  0  0  0  0  0  0  0
  -26.5460  -31.6730   25.0090 C   0  0  1  0  0  0  0  0  0  0  0  0
  -25.4500  -31.4130   26.0710 C   0  0  0  0  0  1  0  0  0  0  0  0
  -27.1390  -30.3030   24.6140 C   0  0  0  0  0  1  0  0  0  0  0  0
  -27.6900  -32.4640   25.6860 C   0  0  0  0  0  1  0  0  0  0  0  0
  2  1  1  0
  3  6  2  0
  3  5  1  0
  4  7  1  0
  4  1  2  0
  5  2  2  0
  6  4  1  0
  7 11  2  0
  8  9  1  0
  8  6  1  0
  9 10  1  6
  9 48  1  0
  9  7  1  0
 12 18  1  0
 12  5  1  0
 13 18  1  0
 14 15  1  0
 14 13  1  0
 16 15  1  0
 16 23  1  0
 16 17  1  0
 18 17  1  0
 19 12  2  0
 20 21  2  0
 21 40  1  0
 22 21  1  0
 22 25  1  0
 23 24  1  0
 23 20  1  0
 24 22  2  0
 25 26  1  0
 26 27  2  0
 28 31  1  0
 28 27  1  0
 29 28  2  0
 30 29  1  0
 30 25  2  0
 31 32  1  0
 32 37  2  0
 32 33  1  0
 33 34  2  0
 34 35  1  0
 35 39  1  0
 36 35  2  0
 37 36  1  0
 38 37  1  0
 40 41  1  0
 41 44  1  0
 41 43  1  0
 42 40  2  0
 45 20  1  0
 45 46  1  0
 47 45  1  0
 49 60  2  0
 50 48  1  0
 50 55  1  0
 51 59  1  0
 51 61  1  0
 52 58  1  0
 52 54  1  0
 53 59  1  0
 54 53  1  0
 55 54  2  0
 56 57  1  0
 56 50  2  0
 57 52  2  0
 58 51  1  0
 59 49  1  0
 61 63  2  0
 62 61  1  0
 64 62  1  0
 65 74  2  0
 65 70  1  0
 66 62  1  0
 66 70  1  0
 67 66  1  0
 68 69  1  0
 68 67  1  0
 69 65  1  0
 70 71  2  0
 71 72  1  0
 73 72  2  0
 74 73  1  0
 75 49  1  0
 75 76  1  0
 75 85  1  0
 76 79  1  0
 77 81  1  0
 77 76  1  0
 78 77  2  0
 81 80  1  0
 83 81  1  0
 83 84  1  0
 83 82  1  0
 85 88  1  1
 85 86  1  0
 87 85  1  0
M  ISO  4   5 100   9 101  12 100  48 101
M  END
>  <TORSDO>  (20) 
F 16

>  <SCORE>  (20) 
-15.747

>  <name>  (20) 
19

>  <ligand_id>  (20) 
19

>  <original_smiles>  (20) 
[H]c1c([H])c([H])c2c(c1[H])C([H])([H])C([H])([H])C([H])([H])C2([H])N([H])C(=O)C1([H])N(C(=O)C([H])(N([H])C(=O)C([H])(N([H])C([H])([H])[H])C([H])([H])[H])C(C([H])([H])[H])(C([H])([H])[H])C([H])([H])[H])C([H])([H])c2c([H])c(OC3(C([H])([H])[H])C(=O)c4c([H])c([H])c(C(=O)N5C([H])([H])C([H])([H])C([H])([H])C([H])(n6nc(-c7c([H])c([H])c(Oc8c([H])c([H])c(F)c([H])c8F)c([H])c7[H])c(C(=O)N([H])[H])c6N([H])[H])C5([H])[H])c([H])c4C3([H])[H])c([H])c([H])c2C1([H])[H]

>  <smiles>  (20) 
[H]c1c([H])c([H])c2c(c1[H])C([H])([H])C([H])([H])C([H])([H])C2([H])N([H])C(=O)C1([H])N(C(=O)C([H])(N([H])C(=O)C([H])(N([H])C([H])([H])[H])C([H])([H])[H])C(C([H])([H])[H])(C([H])([H])[H])C([H])([H])[H])C([H])([H])c2c([H])c(OC3(C([H])([H])[H])C(=O)c4c([H])c([H])c(C(=O)N5C([H])([H])C([H])([H])C([H])([H])C([H])(n6nc(-c7c([H])c([H])c(Oc8c([H])c([H])c(F)c([H])c8F)c([H])c7[H])c(C(=O)N([H])[H])c6N([H])[H])C5([H])[H])c([H])c4C3([H])[H])c([H])c([H])c2C1([H])[H]

$$$$
20:0:0
     RDKit          3D

 85 90  0  0  1  0  0  0  0  0999 V2000
  -28.0230  -18.7610   20.5980 C   0  0  0  0  0  0  0  0  0  0  0  0
  -28.3670  -20.0820   21.4110 C   0  0  0  0  0  2  0  0  0  0  0  0
  -28.4740  -21.5660   18.2900 C   0  0  0  0  0  3  0  0  0  0  0  0
  -28.7360  -19.7960   18.2750 C   0  0  0  0  0  3  0  0  0  0  0  0
  -29.1050  -20.7700   20.2380 C   0  0  0  0  0  1  0  0  0  0  0  0
  -28.2870  -22.5960   19.6190 C   0  0  0  0  0  1  0  0  0  0  0  0
  -29.1880  -18.8370   19.5840 C   0  0  0  0  0  2  0  0  0  0  0  0
  -27.0890  -17.9650   20.7070 O   0  0  0  0  0  0  0  0  0  0  0  0
  -30.0140  -16.7610   19.5550 C   0  0  0  0  0  2  0  0  0  0  0  0
  -30.4100  -13.9650   18.8730 C   0  0  0  0  0  2  0  0  0  0  0  0
  -29.5780  -13.1040   17.8280 C   0  0  0  0  0  2  0  0  0  0  0  0
  -28.2880  -12.5320   18.4220 C   0  0  0  0  0  2  0  0  0  0  0  0
  -27.6900  -13.5750   19.3760 C   0  0  0  0  0  3  0  0  0  0  0  0
  -28.7050  -14.2980   20.3360 C   0  0  0  0  0  2  0  0  0  0  0  0
  -29.6640  -15.2060   19.5650 N   0  0  0  0  0  0  0  0  0  0  0  0
  -31.2540  -16.5540   19.3580 O   0  0  0  0  0  1  0  0  0  0  0  0
  -25.4310  -13.9760   20.4110 C   0  0  0  0  0  0  0  0  0  0  0  0
  -24.4150  -13.1690   20.8310 C   0  0  0  0  0  0  0  0  0  0  0  0
  -24.8840  -11.8260   20.6810 C   0  0  0  0  0  0  0  0  0  0  0  0
  -26.4540  -13.1390   20.0230 N   0  0  0  0  0  0  0  0  0  0  0  0
  -26.1460  -11.8270   20.2380 N   0  0  0  0  0  0  0  0  0  0  0  0
  -24.1660  -10.5550   20.8820 C   0  0  0  0  0  0  0  0  0  0  0  0
  -24.6170   -9.5820   21.8020 C   0  0  0  0  0  3  0  0  0  0  0  0
  -23.8890   -8.3870   21.9990 C   0  0  0  0  0  3  0  0  0  0  0  0
  -22.6930   -8.1540   21.2790 C   0  0  0  0  0  0  0  0  0  0  0  0
  -22.2580   -9.1150   20.3500 C   0  0  0  0  0  3  0  0  0  0  0  0
  -22.9860  -10.3010   20.1510 C   0  0  0  0  0  3  0  0  0  0  0  0
  -21.9380   -7.0110   21.3820 O   0  0  0  0  0  0  0  0  0  0  0  0
  -21.8420   -6.3140   22.5610 C   0  0  0  0  0  0  0  0  0  0  0  0
  -21.3320   -6.9060   23.7370 C   0  0  0  0  0  3  0  0  0  0  0  0
  -21.1880   -6.1350   24.9070 C   0  0  0  0  0  3  0  0  0  0  0  0
  -21.5420   -4.7720   24.9030 C   0  0  0  0  0  0  0  0  0  0  0  0
  -22.0420   -4.1790   23.7310 C   0  0  0  0  0  3  0  0  0  0  0  0
  -22.1900   -4.9480   22.5630 C   0  0  0  0  0  0  0  0  0  0  0  0
  -22.6550   -4.3650   21.4310 F   0  0  0  0  0  0  0  0  0  0  0  0
  -21.3940   -4.0310   26.0250 F   0  0  0  0  0  0  0  0  0  0  0  0
  -23.0520  -13.6310   21.2510 C   0  0  0  0  0  0  0  0  0  0  0  0
  -22.4080  -12.9020   22.1560 N   0  0  0  0  0  0  0  0  0  0  0  0
  -22.5730  -14.6790   20.8150 O   0  0  0  0  0  0  0  0  0  0  0  0
  -22.8100  -12.0550   22.5260 H   0  0  0  0  0  0  0  0  0  0  0  0
  -21.4960  -13.1940   22.4790 H   0  0  0  0  0  0  0  0  0  0  0  0
  -25.5610  -15.3570   20.2970 N   0  0  0  0  0  0  0  0  0  0  0  0
  -24.8350  -15.9910   20.6110 H   0  0  0  0  0  0  0  0  0  0  0  0
  -26.4210  -15.8430   20.0670 H   0  0  0  0  0  0  0  0  0  0  0  0
  -28.1750  -24.7030   19.7050 O   0  0  0  0  0  1  0  0  0  0  0  0
  -24.7430  -31.6900   22.8800 C   0  0  0  0  0  0  0  0  0  0  0  0
  -27.2450  -26.1860   19.7320 C   0  0  0  0  0  0  0  0  0  0  0  0
  -23.5640  -30.3090   21.2320 C   0  0  0  0  0  3  0  0  0  0  0  0
  -25.0070  -28.5910   19.7780 C   0  0  0  0  0  0  0  0  0  0  0  0
  -26.1620  -30.2990   21.1320 C   0  0  0  0  0  2  0  0  0  0  0  0
  -26.2220  -28.8190   20.4320 C   0  0  0  0  0  0  0  0  0  0  0  0
  -27.2870  -27.6710   20.3610 C   0  0  0  0  0  3  0  0  0  0  0  0
  -25.9840  -26.3350   19.0300 C   0  0  0  0  0  3  0  0  0  0  0  0
  -24.9640  -27.3810   19.0490 C   0  0  0  0  0  3  0  0  0  0  0  0
  -23.8170  -29.6040   19.8560 C   0  0  0  0  0  2  0  0  0  0  0  0
  -24.8560  -30.8140   21.8000 N   0  0  0  0  0  0  0  0  0  0  0  0
  -23.6420  -31.9900   23.3850 O   0  0  0  0  0  0  0  0  0  0  0  0
  -22.8170  -29.3540   22.2060 C   0  0  0  0  0  0  0  0  0  0  0  0
  -21.4740  -29.2440   22.1230 N   0  0  0  0  0  0  0  0  0  0  0  0
  -23.4700  -28.7020   23.0230 O   0  0  0  0  0  0  0  0  0  0  0  0
  -20.9850  -29.8210   21.4530 H   0  0  0  0  0  0  0  0  0  0  0  0
  -18.0830  -28.0530   22.7490 C   0  0  0  0  0  0  0  0  0  0  0  0
  -20.6590  -28.2860   22.8890 C   0  0  0  0  0  3  0  0  0  0  0  0
  -20.7060  -26.8790   22.2420 C   0  0  0  0  0  2  0  0  0  0  0  0
  -19.5540  -26.6250   21.2660 C   0  0  0  0  0  2  0  0  0  0  0  0
  -18.2080  -26.7450   21.9830 C   0  0  0  0  0  2  0  0  0  0  0  0
  -19.2300  -28.7830   23.1590 C   0  0  0  0  0  0  0  0  0  0  0  0
  -19.0500  -30.0040   23.8470 C   0  0  0  0  0  3  0  0  0  0  0  0
  -17.7590  -30.4920   24.1230 C   0  0  0  0  0  3  0  0  0  0  0  0
  -16.6280  -29.7600   23.7220 C   0  0  0  0  0  3  0  0  0  0  0  0
  -16.7910  -28.5420   23.0400 C   0  0  0  0  0  3  0  0  0  0  0  0
  -25.9810  -32.3700   23.5450 C   0  0  0  0  0  3  0  0  0  0  0  0
  -25.6140  -33.7490   23.9590 N   0  0  0  0  0  0  0  0  0  0  0  0
  -25.9030  -34.8750   23.2910 C   0  0  0  0  0  0  0  0  0  0  0  0
  -26.5450  -34.8670   22.2390 O   0  0  0  0  0  0  0  0  0  0  0  0
  -25.0300  -33.8230   24.7790 H   0  0  0  0  0  0  0  0  0  0  0  0
  -24.1170  -36.6600   23.1670 C   0  0  0  0  0  1  0  0  0  0  0  0
  -25.4110  -36.2220   23.8730 C   0  0  0  0  0  3  0  0  0  0  0  0
  -27.5590  -37.1340   24.6540 C   0  0  0  0  0  1  0  0  0  0  0  0
  -26.4100  -37.3130   23.7730 N   0  0  0  0  0  0  0  0  0  0  0  0
  -25.9830  -38.2110   23.9840 H   0  0  0  0  0  0  0  0  0  0  0  0
  -26.5110  -31.5810   24.8070 C   0  0  1  0  0  0  0  0  0  0  0  0
  -25.4220  -31.2960   25.8700 C   0  0  0  0  0  1  0  0  0  0  0  0
  -27.1220  -30.2230   24.4060 C   0  0  0  0  0  1  0  0  0  0  0  0
  -27.6470  -32.3820   25.4870 C   0  0  0  0  0  1  0  0  0  0  0  0
  1  8  2  0
  1  2  1  0
  3  6  1  0
  4  3  2  0
  4  7  1  0
  5  2  1  0
  7  1  1  0
  9 15  1  0
 10 15  1  0
 11 12  1  0
 11 10  1  0
 13 12  1  0
 13 20  1  0
 13 14  1  0
 15 14  1  0
 16  9  1  0
 17 18  2  0
 18 37  1  0
 19 18  1  0
 19 22  1  0
 20 21  1  0
 20 17  1  0
 21 19  2  0
 22 23  1  0
 23 24  2  0
 25 28  1  0
 25 24  1  0
 26 25  2  0
 27 26  1  0
 27 22  2  0
 28 29  1  0
 29 34  2  0
 29 30  1  0
 30 31  2  0
 32 31  1  0
 32 36  1  0
 33 32  2  0
 34 33  1  0
 35 34  1  0
 37 38  1  0
 38 41  1  0
 38 40  1  0
 39 37  2  0
 42 17  1  0
 42 43  1  0
 44 42  1  0
 45 47  1  0
 46 57  2  0
 47 52  1  0
 48 56  1  0
 48 58  1  0
 49 55  1  0
 49 51  1  0
 50 56  1  0
 51 50  1  0
 52 51  2  0
 53 54  1  0
 53 47  2  0
 54 49  2  0
 55 48  1  0
 56 46  1  0
 58 60  2  0
 59 58  1  0
 61 59  1  0
 62 71  2  0
 62 67  1  0
 63 59  1  0
 63 67  1  0
 64 63  1  0
 65 66  1  0
 65 64  1  0
 66 62  1  0
 67 68  2  0
 68 69  1  0
 70 69  2  0
 71 70  1  0
 72 46  1  0
 72 73  1  0
 72 82  1  0
 73 76  1  0
 74 78  1  0
 74 73  1  0
 75 74  2  0
 78 77  1  0
 80 78  1  0
 80 81  1  0
 80 79  1  0
 82 85  1  1
 82 83  1  0
 84 82  1  0
M  ISO  4   6 101   7 100   9 100  45 101
M  END
>  <TORSDO>  (21) 
F 16

>  <SCORE>  (21) 
-15.014

>  <name>  (21) 
20

>  <ligand_id>  (21) 
20

>  <original_smiles>  (21) 
[H]c1c([H])c([H])c2c(c1[H])C([H])([H])C([H])([H])C([H])([H])C2([H])N([H])C(=O)C1([H])N(C(=O)C([H])(N([H])C(=O)C([H])(N([H])C([H])([H])[H])C([H])([H])[H])C(C([H])([H])[H])(C([H])([H])[H])C([H])([H])[H])C([H])([H])c2c([H])c(OC3([H])C([H])([H])C([H])([H])C4(C(=O)N5C([H])([H])C([H])([H])C([H])([H])C([H])(n6nc(-c7c([H])c([H])c(Oc8c([H])c([H])c(F)c([H])c8F)c([H])c7[H])c(C(=O)N([H])[H])c6N([H])[H])C5([H])[H])C(=O)C([H])([H])C34[H])c([H])c([H])c2C1([H])[H]

>  <smiles>  (21) 
[H]c1c([H])c([H])c2c(c1[H])C([H])([H])C([H])([H])C([H])([H])C2([H])N([H])C(=O)C1([H])N(C(=O)C([H])(N([H])C(=O)C([H])(N([H])C([H])([H])[H])C([H])([H])[H])C(C([H])([H])[H])(C([H])([H])[H])C([H])([H])[H])C([H])([H])c2c([H])c(OC3([H])C([H])([H])C([H])([H])C4(C(=O)N5C([H])([H])C([H])([H])C([H])([H])C([H])(n6nc(-c7c([H])c([H])c(Oc8c([H])c([H])c(F)c([H])c8F)c([H])c7[H])c(C(=O)N([H])[H])c6N([H])[H])C5([H])[H])C(=O)C([H])([H])C34[H])c([H])c([H])c2C1([H])[H]

$$$$
21:0:0
     RDKit          3D

 90 98  0  0  1  0  0  0  0  0999 V2000
  -27.3180  -21.2040   19.7120 C   0  0  0  0  0  3  0  0  0  0  0  0
  -26.7710  -23.5820   20.0260 C   0  0  0  0  0  3  0  0  0  0  0  0
  -29.0320  -22.7850   20.4010 C   0  0  0  0  0  3  0  0  0  0  0  0
  -26.3850  -22.2650   19.6740 C   0  0  0  0  0  0  0  0  0  0  0  0
  -28.6670  -21.4160   20.0750 C   0  0  0  0  0  0  0  0  0  0  0  0
  -28.1050  -23.8990   20.3840 C   0  0  0  0  0  0  0  0  0  0  0  0
  -24.9440  -21.9810   19.2620 C   0  0  0  0  0  1  0  0  0  0  0  0
  -29.7020  -20.2030   20.0580 C   0  0  0  0  0  2  0  0  0  0  0  0
  -29.2390  -18.6510   20.1420 C   0  0  0  0  0  3  0  0  0  0  0  0
  -30.3570  -17.4710   20.0370 C   0  0  0  0  0  3  0  0  0  0  0  0
  -30.7530  -14.8980   20.0420 C   0  0  0  0  0  0  0  0  0  0  0  0
  -30.5160  -12.6440   18.9620 C   0  0  0  0  0  2  0  0  0  0  0  0
  -29.5190  -12.7500   17.7870 C   0  0  0  0  0  2  0  0  0  0  0  0
  -28.0690  -12.5530   18.2810 C   0  0  0  0  0  2  0  0  0  0  0  0
  -27.7590  -13.4060   19.5400 C   0  0  0  0  0  3  0  0  0  0  0  0
  -28.8670  -13.2310   20.5970 C   0  0  0  0  0  2  0  0  0  0  0  0
  -30.1300  -13.6610   19.9730 N   0  0  0  0  0  0  0  0  0  0  0  0
  -31.8620  -15.0320   19.5090 O   0  0  0  0  0  0  0  0  0  0  0  0
  -29.4980  -16.0450   21.8320 C   0  0  0  0  0  1  0  0  0  0  0  0
  -30.0430  -16.0320   20.4690 N   0  0  0  0  0  0  0  0  0  0  0  0
  -25.4200  -14.0010   20.4170 C   0  0  0  0  0  0  0  0  0  0  0  0
  -24.3710  -13.2240   20.8300 C   0  0  0  0  0  0  0  0  0  0  0  0
  -24.8170  -11.8720   20.7250 C   0  0  0  0  0  0  0  0  0  0  0  0
  -26.4380  -13.1200   20.0910 N   0  0  0  0  0  0  0  0  0  0  0  0
  -26.0840  -11.8330   20.3340 N   0  0  0  0  0  0  0  0  0  0  0  0
  -24.0920  -10.6090   20.9170 C   0  0  0  0  0  0  0  0  0  0  0  0
  -24.5020   -9.6570   21.8750 C   0  0  0  0  0  3  0  0  0  0  0  0
  -23.7760   -8.4610   22.0550 C   0  0  0  0  0  3  0  0  0  0  0  0
  -22.6240   -8.2070   21.2720 C   0  0  0  0  0  0  0  0  0  0  0  0
  -22.2320   -9.1470   20.3040 C   0  0  0  0  0  3  0  0  0  0  0  0
  -22.9600  -10.3350   20.1240 C   0  0  0  0  0  3  0  0  0  0  0  0
  -21.8720   -7.0600   21.3540 O   0  0  0  0  0  0  0  0  0  0  0  0
  -21.7090   -6.3890   22.5400 C   0  0  0  0  0  0  0  0  0  0  0  0
  -21.1340   -7.0090   23.6700 C   0  0  0  0  0  3  0  0  0  0  0  0
  -20.9220   -6.2660   24.8490 C   0  0  0  0  0  3  0  0  0  0  0  0
  -21.2740   -4.9030   24.8960 C   0  0  0  0  0  0  0  0  0  0  0  0
  -21.8390   -4.2830   23.7680 C   0  0  0  0  0  3  0  0  0  0  0  0
  -22.0530   -5.0240   22.5930 C   0  0  0  0  0  0  0  0  0  0  0  0
  -22.5810   -4.4150   21.5020 F   0  0  0  0  0  0  0  0  0  0  0  0
  -21.0620   -4.1870   26.0250 F   0  0  0  0  0  0  0  0  0  0  0  0
  -22.9980  -13.7030   21.2060 C   0  0  0  0  0  0  0  0  0  0  0  0
  -22.3180  -12.9860   22.0930 N   0  0  0  0  0  0  0  0  0  0  0  0
  -22.5390  -14.7480   20.7480 O   0  0  0  0  0  0  0  0  0  0  0  0
  -22.7030  -12.1360   22.4790 H   0  0  0  0  0  0  0  0  0  0  0  0
  -21.4030  -13.2920   22.3900 H   0  0  0  0  0  0  0  0  0  0  0  0
  -25.5890  -15.3770   20.2780 N   0  0  0  0  0  0  0  0  0  0  0  0
  -24.8350  -16.0360   20.4460 H   0  0  0  0  0  0  0  0  0  0  0  0
  -26.4260  -15.8220   19.9180 H   0  0  0  0  0  0  0  0  0  0  0  0
  -28.4390  -25.3450   20.9640 C   0  0  0  0  0  2  0  0  0  0  0  0
  -28.4520  -26.6030   20.1660 O   0  0  0  0  0  0  0  0  0  0  0  0
  -24.5720  -31.9190   23.2550 C   0  0  0  0  0  0  0  0  0  0  0  0
  -27.3330  -27.4480   20.1920 C   0  0  0  0  0  0  0  0  0  0  0  0
  -23.4400  -30.5260   21.5670 C   0  0  0  0  0  3  0  0  0  0  0  0
  -24.9520  -29.0230   20.1520 C   0  0  0  0  0  0  0  0  0  0  0  0
  -25.9740  -30.8960   21.4460 C   0  0  0  0  0  2  0  0  0  0  0  0
  -26.0980  -29.5240   20.7860 C   0  0  0  0  0  0  0  0  0  0  0  0
  -27.2980  -28.7450   20.7950 C   0  0  0  0  0  3  0  0  0  0  0  0
  -26.1760  -27.0100   19.5250 C   0  0  0  0  0  3  0  0  0  0  0  0
  -24.9930  -27.7740   19.5120 C   0  0  0  0  0  3  0  0  0  0  0  0
  -23.6950  -29.8740   20.1830 C   0  0  0  0  0  2  0  0  0  0  0  0
  -24.6780  -31.1290   22.1460 N   0  0  0  0  0  0  0  0  0  0  0  0
  -23.4710  -32.1670   23.7670 O   0  0  0  0  0  0  0  0  0  0  0  0
  -22.7770  -29.4790   22.4970 C   0  0  0  0  0  0  0  0  0  0  0  0
  -21.4630  -29.2690   22.3260 N   0  0  0  0  0  0  0  0  0  0  0  0
  -23.4460  -28.8620   23.3280 O   0  0  0  0  0  0  0  0  0  0  0  0
  -20.9860  -29.8140   21.6240 H   0  0  0  0  0  0  0  0  0  0  0  0
  -18.1010  -27.9880   22.7320 C   0  0  0  0  0  0  0  0  0  0  0  0
  -20.6460  -28.3000   23.0610 C   0  0  0  0  0  3  0  0  0  0  0  0
  -20.7940  -26.8840   22.4580 C   0  0  0  0  0  2  0  0  0  0  0  0
  -19.7200  -26.5560   21.4170 C   0  0  0  0  0  2  0  0  0  0  0  0
  -18.3200  -26.6560   22.0330 C   0  0  0  0  0  2  0  0  0  0  0  0
  -19.1940  -28.7660   23.1980 C   0  0  0  0  0  0  0  0  0  0  0  0
  -18.9360  -30.0110   23.8120 C   0  0  0  0  0  3  0  0  0  0  0  0
  -17.6170  -30.4790   23.9630 C   0  0  0  0  0  3  0  0  0  0  0  0
  -16.5380  -29.6990   23.5100 C   0  0  0  0  0  3  0  0  0  0  0  0
  -16.7820  -28.4560   22.9010 C   0  0  0  0  0  3  0  0  0  0  0  0
  -25.8250  -32.5660   23.9210 C   0  0  0  0  0  3  0  0  0  0  0  0
  -26.3060  -31.8040   25.2180 C   0  0  1  0  0  0  0  0  0  0  0  0
  -25.1760  -31.5390   26.2410 C   0  0  0  0  0  1  0  0  0  0  0  0
  -26.9310  -30.4370   24.8480 C   0  0  0  0  0  1  0  0  0  0  0  0
  -27.4170  -32.6200   25.9170 C   0  0  0  0  0  1  0  0  0  0  0  0
  -25.4880  -33.9600   24.2370 N   0  0  0  0  0  0  0  0  0  0  0  0
  -25.8260  -35.0160   23.4820 C   0  0  0  0  0  0  0  0  0  0  0  0
  -26.5260  -34.9140   22.4710 O   0  0  0  0  0  0  0  0  0  0  0  0
  -24.8730  -34.1120   25.0230 H   0  0  0  0  0  0  0  0  0  0  0  0
  -24.0810  -36.7820   23.0750 C   0  0  0  0  0  1  0  0  0  0  0  0
  -25.3050  -36.3970   23.9200 C   0  0  0  0  0  3  0  0  0  0  0  0
  -27.4000  -37.3180   24.8090 C   0  0  0  0  0  1  0  0  0  0  0  0
  -26.3240  -37.4660   23.8330 N   0  0  0  0  0  0  0  0  0  0  0  0
  -25.8980  -38.3800   23.9670 H   0  0  0  0  0  0  0  0  0  0  0  0
  1  5  1  0
  2  6  2  0
  4  1  2  0
  4  2  1  0
  5  3  2  0
  6  3  1  0
  6 49  1  0
  7  4  1  0
  8  5  1  0
  8  9  1  0
 10  9  2  0
 10 20  1  0
 11 20  1  0
 12 17  1  0
 13 14  1  0
 13 12  1  0
 15 14  1  0
 15 24  1  0
 15 16  1  0
 17 11  1  0
 17 16  1  0
 18 11  2  0
 20 19  1  0
 21 22  2  0
 22 41  1  0
 23 22  1  0
 23 26  1  0
 24 25  1  0
 24 21  1  0
 25 23  2  0
 26 27  1  0
 27 28  2  0
 29 32  1  0
 29 28  1  0
 30 29  2  0
 31 30  1  0
 31 26  2  0
 32 33  1  0
 33 38  2  0
 33 34  1  0
 34 35  2  0
 35 36  1  0
 36 40  1  0
 37 36  2  0
 38 37  1  0
 39 38  1  0
 41 42  1  0
 42 45  1  0
 42 44  1  0
 43 41  2  0
 46 21  1  0
 46 47  1  0
 48 46  1  0
 50 52  1  0
 50 49  1  0
 51 62  2  0
 52 57  1  0
 53 61  1  0
 53 63  1  0
 54 60  1  0
 54 56  1  0
 55 61  1  0
 56 57  2  0
 56 55  1  0
 58 52  2  0
 59 58  1  0
 59 54  2  0
 60 53  1  0
 61 51  1  0
 63 65  2  0
 64 63  1  0
 66 64  1  0
 67 76  2  0
 67 72  1  0
 68 64  1  0
 68 72  1  0
 69 68  1  0
 70 71  1  0
 70 69  1  0
 71 67  1  0
 72 73  2  0
 73 74  1  0
 75 74  2  0
 76 75  1  0
 77 51  1  0
 77 82  1  0
 77 78  1  0
 78 81  1  1
 78 79  1  0
 80 78  1  0
 82 85  1  0
 83 87  1  0
 83 82  1  0
 84 83  2  0
 87 86  1  0
 89 87  1  0
 89 90  1  0
 89 88  1  0
M  ISO  4  11 100  20 100  49 101  50 101
M  END
>  <TORSDO>  (22) 
F 20

>  <SCORE>  (22) 
-12.662

>  <name>  (22) 
21

>  <ligand_id>  (22) 
21

>  <original_smiles>  (22) 
[H]c1c([H])c([H])c2c(c1[H])C([H])([H])C([H])([H])C([H])([H])C2([H])N([H])C(=O)C1([H])N(C(=O)C([H])(N([H])C(=O)C([H])(N([H])C([H])([H])[H])C([H])([H])[H])C(C([H])([H])[H])(C([H])([H])[H])C([H])([H])[H])C([H])([H])c2c([H])c(OC([H])([H])c3c([H])c(C([H])([H])[H])c([H])c(C([H])([H])C([H])([H])C([H])([H])N(C(=O)N4C([H])([H])C([H])([H])C([H])([H])C([H])(n5nc(-c6c([H])c([H])c(Oc7c([H])c([H])c(F)c([H])c7F)c([H])c6[H])c(C(=O)N([H])[H])c5N([H])[H])C4([H])[H])C([H])([H])[H])c3[H])c([H])c([H])c2C1([H])[H]

>  <smiles>  (22) 
[H]c1c([H])c([H])c2c(c1[H])C([H])([H])C([H])([H])C([H])([H])C2([H])N([H])C(=O)C1([H])N(C(=O)C([H])(N([H])C(=O)C([H])(N([H])C([H])([H])[H])C([H])([H])[H])C(C([H])([H])[H])(C([H])([H])[H])C([H])([H])[H])C([H])([H])c2c([H])c(OC([H])([H])c3c([H])c(C([H])([H])[H])c([H])c(C([H])([H])C([H])([H])C([H])([H])N(C(=O)N4C([H])([H])C([H])([H])C([H])([H])C([H])(n5nc(-c6c([H])c([H])c(Oc7c([H])c([H])c(F)c([H])c7F)c([H])c6[H])c(C(=O)N([H])[H])c5N([H])[H])C4([H])[H])C([H])([H])[H])c3[H])c([H])c([H])c2C1([H])[H]

$$$$
22:0:0
     RDKit          3D

 94102  0  0  1  0  0  0  0  0999 V2000
  -29.5990  -24.4090   23.6250 C   0  0  0  0  0  3  0  0  0  0  0  0
  -29.5630  -25.7980   23.4870 C   0  0  0  0  0  3  0  0  0  0  0  0
  -29.2340  -23.5960   22.5420 C   0  0  0  0  0  3  0  0  0  0  0  0
  -29.1200  -26.3620   22.2820 C   0  0  0  0  0  3  0  0  0  0  0  0
  -28.8290  -24.1150   21.2890 C   0  0  0  0  0  0  0  0  0  0  0  0
  -28.6980  -25.5900   21.1720 C   0  0  0  0  0  0  0  0  0  0  0  0
  -28.2920  -26.4090   20.0890 O   0  0  0  0  0  0  0  0  0  0  0  0
  -24.5960  -31.8900   23.2240 C   0  0  0  0  0  0  0  0  0  0  0  0
  -27.2000  -27.3070   20.1660 C   0  0  0  0  0  0  0  0  0  0  0  0
  -23.3820  -30.4830   21.5970 C   0  0  0  0  0  3  0  0  0  0  0  0
  -24.8260  -28.9270   20.1660 C   0  0  0  0  0  0  0  0  0  0  0  0
  -25.9200  -30.8050   21.3890 C   0  0  0  0  0  2  0  0  0  0  0  0
  -26.0010  -29.4210   20.7480 C   0  0  0  0  0  0  0  0  0  0  0  0
  -27.1930  -28.6300   20.7270 C   0  0  0  0  0  3  0  0  0  0  0  0
  -26.0010  -26.8720   19.5660 C   0  0  0  0  0  3  0  0  0  0  0  0
  -24.8300  -27.6580   19.5640 C   0  0  0  0  0  3  0  0  0  0  0  0
  -23.5880  -29.8010   20.2190 C   0  0  0  0  0  2  0  0  0  0  0  0
  -24.6520  -31.0790   22.1260 N   0  0  0  0  0  0  0  0  0  0  0  0
  -23.5160  -32.1640   23.7700 O   0  0  0  0  0  0  0  0  0  0  0  0
  -22.7300  -29.4690   22.5670 C   0  0  0  0  0  0  0  0  0  0  0  0
  -21.4030  -29.2880   22.4550 N   0  0  0  0  0  0  0  0  0  0  0  0
  -23.4180  -28.8450   23.3790 O   0  0  0  0  0  0  0  0  0  0  0  0
  -20.9050  -29.8450   21.7730 H   0  0  0  0  0  0  0  0  0  0  0  0
  -18.0370  -28.0660   22.9770 C   0  0  0  0  0  0  0  0  0  0  0  0
  -20.5940  -28.3480   23.2340 C   0  0  0  0  0  3  0  0  0  0  0  0
  -20.7050  -26.9140   22.6650 C   0  0  0  0  0  2  0  0  0  0  0  0
  -19.6020  -26.5770   21.6580 C   0  0  0  0  0  2  0  0  0  0  0  0
  -18.2210  -26.7150   22.3070 C   0  0  0  0  0  2  0  0  0  0  0  0
  -19.1500  -28.8400   23.3970 C   0  0  0  0  0  0  0  0  0  0  0  0
  -18.9230  -30.1040   23.9830 C   0  0  0  0  0  3  0  0  0  0  0  0
  -17.6150  -30.5960   24.1520 C   0  0  0  0  0  3  0  0  0  0  0  0
  -16.5150  -29.8190   23.7480 C   0  0  0  0  0  3  0  0  0  0  0  0
  -16.7270  -28.5560   23.1670 C   0  0  0  0  0  3  0  0  0  0  0  0
  -25.8820  -32.5280   23.8330 C   0  0  0  0  0  3  0  0  0  0  0  0
  -25.5700  -33.9220   24.1780 N   0  0  0  0  0  0  0  0  0  0  0  0
  -25.8820  -34.9830   23.4220 C   0  0  0  0  0  0  0  0  0  0  0  0
  -26.5330  -34.8910   22.3790 O   0  0  0  0  0  0  0  0  0  0  0  0
  -24.9910  -34.0680   24.9930 H   0  0  0  0  0  0  0  0  0  0  0  0
  -24.1330  -36.7650   23.1160 C   0  0  0  0  0  1  0  0  0  0  0  0
  -25.3940  -36.3650   23.8980 C   0  0  0  0  0  3  0  0  0  0  0  0
  -27.5410  -37.2600   24.6880 C   0  0  0  0  0  1  0  0  0  0  0  0
  -26.4150  -37.4270   23.7710 N   0  0  0  0  0  0  0  0  0  0  0  0
  -26.0060  -38.3430   23.9370 H   0  0  0  0  0  0  0  0  0  0  0  0
  -26.4210  -31.7530   25.0990 C   0  0  1  0  0  0  0  0  0  0  0  0
  -25.3450  -31.5050   26.1820 C   0  0  0  0  0  1  0  0  0  0  0  0
  -27.0050  -30.3790   24.6930 C   0  0  0  0  0  1  0  0  0  0  0  0
  -27.5780  -32.5480   25.7480 C   0  0  0  0  0  1  0  0  0  0  0  0
  -28.5040  -22.9460   20.2710 C   0  0  0  0  0  2  0  0  0  0  0  0
  -29.5440  -21.6970   19.9950 C   0  0  0  0  0  3  0  0  0  0  0  0
  -30.0320  -22.4310   17.5400 C   0  0  0  0  0  1  0  0  0  0  0  0
  -29.5310  -21.3270   18.4880 C   0  0  0  0  0  2  0  0  0  0  0  0
  -30.9190  -20.3860   21.7610 C   0  0  0  0  0  1  0  0  0  0  0  0
  -29.6280  -20.3220   20.9100 C   0  0  0  0  0  3  0  0  0  0  0  0
  -29.5090  -18.9220   20.2340 N   0  0  0  0  0  4  0  0  0  0  0  0
  -28.5210  -18.7410   20.1510 H   0  0  0  0  0  0  0  0  0  0  0  0
  -29.8510  -19.0240   19.2920 H   0  0  0  0  0  0  0  0  0  0  0  0
  -30.1840  -17.6410   20.8060 C   0  0  0  0  0  2  0  0  0  0  0  0
  -29.6090  -16.1610   20.4200 C   0  0  0  0  0  2  0  0  0  0  0  0
  -30.5100  -14.8190   20.3260 C   0  0  0  0  0  0  0  0  0  0  0  0
  -30.3600  -12.5210   19.3470 C   0  0  0  0  0  2  0  0  0  0  0  0
  -29.4030  -12.5910   18.1340 C   0  0  0  0  0  2  0  0  0  0  0  0
  -27.9360  -12.4100   18.5740 C   0  0  0  0  0  2  0  0  0  0  0  0
  -27.5720  -13.2960   19.7940 C   0  0  0  0  0  3  0  0  0  0  0  0
  -28.6430  -13.2010   20.9000 C   0  0  0  0  0  2  0  0  0  0  0  0
  -29.9370  -13.5640   20.3110 N   0  0  0  0  0  0  0  0  0  0  0  0
  -31.7020  -14.9310   20.0230 O   0  0  0  0  0  0  0  0  0  0  0  0
  -25.1970  -13.8930   20.5590 C   0  0  0  0  0  0  0  0  0  0  0  0
  -24.1330  -13.1230   20.9420 C   0  0  0  0  0  0  0  0  0  0  0  0
  -24.5910  -11.7700   20.9010 C   0  0  0  0  0  0  0  0  0  0  0  0
  -26.2340  -13.0100   20.3030 N   0  0  0  0  0  0  0  0  0  0  0  0
  -25.8770  -11.7280   20.5720 N   0  0  0  0  0  0  0  0  0  0  0  0
  -23.8620  -10.5100   21.0970 C   0  0  0  0  0  0  0  0  0  0  0  0
  -24.3210   -9.5250   21.9990 C   0  0  0  0  0  3  0  0  0  0  0  0
  -23.5940   -8.3290   22.1850 C   0  0  0  0  0  3  0  0  0  0  0  0
  -22.3920   -8.1110   21.4690 C   0  0  0  0  0  0  0  0  0  0  0  0
  -21.9520   -9.0860   20.5550 C   0  0  0  0  0  3  0  0  0  0  0  0
  -22.6800  -10.2730   20.3680 C   0  0  0  0  0  3  0  0  0  0  0  0
  -21.6320   -6.9720   21.5650 O   0  0  0  0  0  0  0  0  0  0  0  0
  -21.6400   -6.1940   22.6960 C   0  0  0  0  0  0  0  0  0  0  0  0
  -21.3080   -6.7190   23.9630 C   0  0  0  0  0  3  0  0  0  0  0  0
  -21.2630   -5.8700   25.0870 C   0  0  0  0  0  3  0  0  0  0  0  0
  -21.5370   -4.4970   24.9460 C   0  0  0  0  0  0  0  0  0  0  0  0
  -21.8610   -3.9710   23.6820 C   0  0  0  0  0  3  0  0  0  0  0  0
  -21.9100   -4.8180   22.5610 C   0  0  0  0  0  0  0  0  0  0  0  0
  -22.2030   -4.3020   21.3430 F   0  0  0  0  0  0  0  0  0  0  0  0
  -21.4860   -3.6800   26.0220 F   0  0  0  0  0  0  0  0  0  0  0  0
  -22.7420  -13.6050   21.2340 C   0  0  0  0  0  0  0  0  0  0  0  0
  -22.0230  -12.9120   22.1100 N   0  0  0  0  0  0  0  0  0  0  0  0
  -22.3000  -14.6310   20.7200 O   0  0  0  0  0  0  0  0  0  0  0  0
  -22.3920  -12.0820   22.5500 H   0  0  0  0  0  0  0  0  0  0  0  0
  -21.0880  -13.2160   22.3440 H   0  0  0  0  0  0  0  0  0  0  0  0
  -25.3640  -15.2640   20.3830 N   0  0  0  0  0  0  0  0  0  0  0  0
  -24.5970  -15.9180   20.4970 H   0  0  0  0  0  0  0  0  0  0  0  0
  -26.2060  -15.6990   20.0300 H   0  0  0  0  0  0  0  0  0  0  0  0
  2  1  1  0
  3  1  2  0
  4  2  2  0
  5  3  1  0
  6  5  2  0
  6  4  1  0
  7  9  1  0
  7  6  1  0
  8 19  2  0
  9 14  1  0
 10 18  1  0
 10 20  1  0
 11 17  1  0
 11 13  1  0
 12 18  1  0
 13 12  1  0
 14 13  2  0
 15  9  2  0
 16 15  1  0
 16 11  2  0
 17 10  1  0
 18  8  1  0
 20 22  2  0
 21 20  1  0
 23 21  1  0
 24 33  2  0
 24 29  1  0
 25 21  1  0
 25 29  1  0
 26 25  1  0
 27 28  1  0
 27 26  1  0
 28 24  1  0
 29 30  2  0
 30 31  1  0
 32 31  2  0
 33 32  1  0
 34  8  1  0
 34 35  1  0
 34 44  1  0
 35 38  1  0
 36 40  1  0
 36 35  1  0
 37 36  2  0
 40 39  1  0
 42 40  1  0
 42 43  1  0
 42 41  1  0
 44 47  1  1
 44 45  1  0
 46 44  1  0
 48  5  1  0
 49 51  1  0
 49 48  1  0
 49 53  1  0
 50 51  1  0
 53 52  1  0
 54 57  1  0
 54 53  1  0
 55 54  1  0
 56 54  1  0
 58 57  1  0
 59 58  1  0
 60 65  1  0
 61 62  1  0
 61 60  1  0
 63 62  1  0
 63 70  1  0
 63 64  1  0
 65 59  1  0
 65 64  1  0
 66 59  2  0
 67 68  2  0
 68 87  1  0
 69 68  1  0
 69 72  1  0
 70 67  1  0
 70 71  1  0
 71 69  2  0
 72 73  1  0
 73 74  2  0
 75 78  1  0
 75 74  1  0
 76 75  2  0
 77 76  1  0
 77 72  2  0
 78 79  1  0
 79 80  1  0
 80 81  2  0
 82 81  1  0
 82 86  1  0
 83 82  2  0
 84 79  2  0
 84 83  1  0
 85 84  1  0
 87 88  1  0
 88 91  1  0
 88 90  1  0
 89 87  2  0
 92 93  1  0
 92 67  1  0
 94 92  1  0
M  ISO  4   6 101   7 101  58 100  59 100
M  END
>  <TORSDO>  (23) 
F 23

>  <SCORE>  (23) 
-12.639

>  <name>  (23) 
22

>  <ligand_id>  (23) 
22

>  <original_smiles>  (23) 
[H]c1c([H])c([H])c(C([H])([H])C([H])(C([H])([H])C([H])([H])[H])C([H])(C([H])([H])[H])[N+]([H])([H])C([H])([H])C([H])([H])C(=O)N2C([H])([H])C([H])([H])C([H])([H])C([H])(n3nc(-c4c([H])c([H])c(Oc5c([H])c([H])c(F)c([H])c5F)c([H])c4[H])c(C(=O)N([H])[H])c3N([H])[H])C2([H])[H])c(Oc2c([H])c([H])c3c(c2[H])C([H])([H])N(C(=O)C([H])(N([H])C(=O)C([H])(N([H])C([H])([H])[H])C([H])([H])[H])C(C([H])([H])[H])(C([H])([H])[H])C([H])([H])[H])C([H])(C(=O)N([H])C2([H])c4c([H])c([H])c([H])c([H])c4C([H])([H])C([H])([H])C2([H])[H])C3([H])[H])c1[H]

>  <smiles>  (23) 
[H]c1c([H])c([H])c(C([H])([H])C([H])(C([H])([H])C([H])([H])[H])C([H])(C([H])([H])[H])[N+]([H])([H])C([H])([H])C([H])([H])C(=O)N2C([H])([H])C([H])([H])C([H])([H])C([H])(n3nc(-c4c([H])c([H])c(Oc5c([H])c([H])c(F)c([H])c5F)c([H])c4[H])c(C(=O)N([H])[H])c3N([H])[H])C2([H])[H])c(Oc2c([H])c([H])c3c(c2[H])C([H])([H])N(C(=O)C([H])(N([H])C(=O)C([H])(N([H])C([H])([H])[H])C([H])([H])[H])C(C([H])([H])[H])(C([H])([H])[H])C([H])([H])[H])C([H])(C(=O)N([H])C2([H])c4c([H])c([H])c([H])c([H])c4C([H])([H])C([H])([H])C2([H])[H])C3([H])[H])c1[H]

$$$$
23:0:0
     RDKit          3D

 92100  0  0  1  0  0  0  0  0999 V2000
  -28.5400  -25.1920   18.2610 C   0  0  0  0  0  3  0  0  0  0  0  0
  -28.6370  -23.9670   20.3450 C   0  0  0  0  0  3  0  0  0  0  0  0
  -28.7330  -23.9900   17.5600 C   0  0  0  0  0  0  0  0  0  0  0  0
  -28.8540  -22.6950   19.6770 C   0  0  0  0  0  0  0  0  0  0  0  0
  -28.8910  -22.7460   18.2420 C   0  0  0  0  0  0  0  0  0  0  0  0
  -28.4680  -25.2270   19.6580 C   0  0  0  0  0  0  0  0  0  0  0  0
  -28.7460  -24.1000   16.0420 C   0  0  0  0  0  1  0  0  0  0  0  0
  -29.0650  -21.4890   17.3950 C   0  0  0  0  0  1  0  0  0  0  0  0
  -28.3410  -26.5020   20.2580 O   0  0  0  0  0  0  0  0  0  0  0  0
  -24.5770  -31.8790   23.1930 C   0  0  0  0  0  0  0  0  0  0  0  0
  -27.2050  -27.3240   20.1540 C   0  0  0  0  0  0  0  0  0  0  0  0
  -23.3690  -30.4640   21.5670 C   0  0  0  0  0  3  0  0  0  0  0  0
  -24.8220  -28.9130   20.1370 C   0  0  0  0  0  0  0  0  0  0  0  0
  -25.9020  -30.8010   21.3600 C   0  0  0  0  0  2  0  0  0  0  0  0
  -25.9870  -29.4180   20.7260 C   0  0  0  0  0  0  0  0  0  0  0  0
  -27.1770  -28.6330   20.7280 C   0  0  0  0  0  3  0  0  0  0  0  0
  -26.0140  -26.8650   19.5470 C   0  0  0  0  0  3  0  0  0  0  0  0
  -24.8360  -27.6410   19.5370 C   0  0  0  0  0  3  0  0  0  0  0  0
  -23.5760  -29.7760   20.1900 C   0  0  0  0  0  2  0  0  0  0  0  0
  -24.6360  -31.0660   22.0980 N   0  0  0  0  0  0  0  0  0  0  0  0
  -23.4950  -32.1560   23.7330 O   0  0  0  0  0  0  0  0  0  0  0  0
  -22.7160  -29.4530   22.5380 C   0  0  0  0  0  0  0  0  0  0  0  0
  -21.3890  -29.2730   22.4230 N   0  0  0  0  0  0  0  0  0  0  0  0
  -23.4010  -28.8320   23.3560 O   0  0  0  0  0  0  0  0  0  0  0  0
  -20.8960  -29.8240   21.7340 H   0  0  0  0  0  0  0  0  0  0  0  0
  -18.0200  -28.0660   22.9420 C   0  0  0  0  0  0  0  0  0  0  0  0
  -20.5780  -28.3400   23.2030 C   0  0  0  0  0  3  0  0  0  0  0  0
  -20.6860  -26.9040   22.6370 C   0  0  0  0  0  2  0  0  0  0  0  0
  -19.5820  -26.5690   21.6290 C   0  0  0  0  0  2  0  0  0  0  0  0
  -18.2010  -26.7120   22.2760 C   0  0  0  0  0  2  0  0  0  0  0  0
  -19.1360  -28.8360   23.3640 C   0  0  0  0  0  0  0  0  0  0  0  0
  -18.9120  -30.1020   23.9470 C   0  0  0  0  0  3  0  0  0  0  0  0
  -17.6060  -30.5980   24.1120 C   0  0  0  0  0  3  0  0  0  0  0  0
  -16.5040  -29.8250   23.7070 C   0  0  0  0  0  3  0  0  0  0  0  0
  -16.7120  -28.5600   23.1280 C   0  0  0  0  0  3  0  0  0  0  0  0
  -25.8610  -32.5180   23.8060 C   0  0  0  0  0  3  0  0  0  0  0  0
  -25.5430  -33.9120   24.1510 N   0  0  0  0  0  0  0  0  0  0  0  0
  -25.8630  -34.9740   23.4000 C   0  0  0  0  0  0  0  0  0  0  0  0
  -26.5270  -34.8850   22.3640 O   0  0  0  0  0  0  0  0  0  0  0  0
  -24.9460  -34.0550   24.9530 H   0  0  0  0  0  0  0  0  0  0  0  0
  -24.1170  -36.7570   23.0790 C   0  0  0  0  0  1  0  0  0  0  0  0
  -25.3690  -36.3560   23.8740 C   0  0  0  0  0  3  0  0  0  0  0  0
  -27.5070  -37.2460   24.6900 C   0  0  0  0  0  1  0  0  0  0  0  0
  -26.3940  -37.4170   23.7610 N   0  0  0  0  0  0  0  0  0  0  0  0
  -25.9820  -38.3320   23.9250 H   0  0  0  0  0  0  0  0  0  0  0  0
  -26.4000  -31.7430   25.0710 C   0  0  1  0  0  0  0  0  0  0  0  0
  -25.3200  -31.4910   26.1510 C   0  0  0  0  0  1  0  0  0  0  0  0
  -26.9860  -30.3720   24.6630 C   0  0  0  0  0  1  0  0  0  0  0  0
  -27.5540  -32.5410   25.7230 C   0  0  0  0  0  1  0  0  0  0  0  0
  -28.9610  -21.3410   20.5360 C   0  0  0  0  0  3  0  0  0  0  0  0
  -29.5640  -19.9360   19.9960 C   0  0  0  0  0  3  0  0  0  0  0  0
  -29.5580  -18.7010   20.8990 N   0  0  0  0  0  4  0  0  0  0  0  0
  -28.6050  -18.5270   21.1760 H   0  0  0  0  0  0  0  0  0  0  0  0
  -30.0720  -18.9250   21.7370 H   0  0  0  0  0  0  0  0  0  0  0  0
  -30.1410  -17.4020   20.3280 C   0  0  0  0  0  3  0  0  0  0  0  0
  -29.8140  -16.0030   21.0560 C   0  0  0  0  0  3  0  0  0  0  0  0
  -30.5730  -14.6900   20.5610 C   0  0  0  0  0  0  0  0  0  0  0  0
  -30.3850  -12.4350   19.4990 C   0  0  0  0  0  2  0  0  0  0  0  0
  -29.4710  -12.5540   18.2580 C   0  0  0  0  0  2  0  0  0  0  0  0
  -27.9850  -12.4040   18.6500 C   0  0  0  0  0  2  0  0  0  0  0  0
  -27.6020  -13.2700   19.8800 C   0  0  0  0  0  3  0  0  0  0  0  0
  -28.6350  -13.1250   21.0180 C   0  0  0  0  0  2  0  0  0  0  0  0
  -29.9550  -13.4640   20.4720 N   0  0  0  0  0  0  0  0  0  0  0  0
  -31.7320  -14.8150   20.1530 O   0  0  0  0  0  0  0  0  0  0  0  0
  -25.1950  -13.8810   20.5400 C   0  0  0  0  0  0  0  0  0  0  0  0
  -24.1190  -13.1120   20.8980 C   0  0  0  0  0  0  0  0  0  0  0  0
  -24.5810  -11.7610   20.8930 C   0  0  0  0  0  0  0  0  0  0  0  0
  -26.2430  -12.9960   20.3390 N   0  0  0  0  0  0  0  0  0  0  0  0
  -25.8760  -11.7180   20.6110 N   0  0  0  0  0  0  0  0  0  0  0  0
  -23.8470  -10.5020   21.0850 C   0  0  0  0  0  0  0  0  0  0  0  0
  -24.2760   -9.5290   22.0140 C   0  0  0  0  0  3  0  0  0  0  0  0
  -23.5440   -8.3360   22.1920 C   0  0  0  0  0  3  0  0  0  0  0  0
  -22.3670   -8.1070   21.4400 C   0  0  0  0  0  0  0  0  0  0  0  0
  -21.9590   -9.0660   20.4970 C   0  0  0  0  0  3  0  0  0  0  0  0
  -22.6940  -10.2500   20.3170 C   0  0  0  0  0  3  0  0  0  0  0  0
  -21.6070   -6.9650   21.5260 O   0  0  0  0  0  0  0  0  0  0  0  0
  -21.5760   -6.2070   22.6690 C   0  0  0  0  0  0  0  0  0  0  0  0
  -21.2000   -6.7540   23.9160 C   0  0  0  0  0  3  0  0  0  0  0  0
  -21.1140   -5.9210   25.0500 C   0  0  0  0  0  3  0  0  0  0  0  0
  -21.3930   -4.5460   24.9390 C   0  0  0  0  0  0  0  0  0  0  0  0
  -21.7610   -4.0010   23.6970 C   0  0  0  0  0  3  0  0  0  0  0  0
  -21.8490   -4.8290   22.5650 C   0  0  0  0  0  0  0  0  0  0  0  0
  -22.1840   -4.2940   21.3660 F   0  0  0  0  0  0  0  0  0  0  0  0
  -21.3020   -3.7460   26.0270 F   0  0  0  0  0  0  0  0  0  0  0  0
  -22.7170  -13.5940   21.1360 C   0  0  0  0  0  0  0  0  0  0  0  0
  -21.9710  -12.9080   21.9960 N   0  0  0  0  0  0  0  0  0  0  0  0
  -22.2900  -14.6140   20.5970 O   0  0  0  0  0  0  0  0  0  0  0  0
  -22.3320  -12.0830   22.4540 H   0  0  0  0  0  0  0  0  0  0  0  0
  -21.0300  -13.2110   22.2000 H   0  0  0  0  0  0  0  0  0  0  0  0
  -25.3640  -15.2470   20.3450 N   0  0  0  0  0  0  0  0  0  0  0  0
  -24.5950  -15.9040   20.4330 H   0  0  0  0  0  0  0  0  0  0  0  0
  -26.2160  -15.6820   20.0160 H   0  0  0  0  0  0  0  0  0  0  0  0
  1  6  1  0
  3  5  1  0
  3  1  2  0
  4  2  1  0
  4 50  1  0
  5  4  2  0
  6  9  1  0
  6  2  2  0
  7  3  1  0
  8  5  1  0
 10 21  2  0
 11  9  1  0
 11 16  1  0
 12 20  1  0
 12 22  1  0
 13 19  1  0
 13 15  1  0
 14 20  1  0
 15 16  2  0
 15 14  1  0
 17 11  2  0
 18 17  1  0
 18 13  2  0
 19 12  1  0
 20 10  1  0
 22 24  2  0
 23 22  1  0
 25 23  1  0
 26 35  2  0
 26 31  1  0
 27 23  1  0
 27 31  1  0
 28 27  1  0
 29 30  1  0
 29 28  1  0
 30 26  1  0
 31 32  2  0
 32 33  1  0
 34 33  2  0
 35 34  1  0
 36 10  1  0
 36 37  1  0
 36 46  1  0
 37 40  1  0
 38 42  1  0
 38 37  1  0
 39 38  2  0
 42 41  1  0
 44 42  1  0
 44 45  1  0
 44 43  1  0
 46 49  1  1
 46 47  1  0
 48 46  1  0
 51 50  2  0
 51 52  1  0
 52 53  1  0
 52 54  1  0
 55 52  1  0
 55 56  2  0
 57 56  1  0
 58 63  1  0
 59 60  1  0
 59 58  1  0
 61 60  1  0
 61 68  1  0
 61 62  1  0
 63 57  1  0
 63 62  1  0
 64 57  2  0
 65 66  2  0
 66 85  1  0
 67 66  1  0
 67 70  1  0
 68 65  1  0
 68 69  1  0
 69 67  2  0
 70 71  1  0
 71 72  2  0
 73 76  1  0
 73 72  1  0
 74 73  2  0
 75 74  1  0
 75 70  2  0
 76 77  1  0
 77 78  1  0
 78 79  2  0
 80 79  1  0
 80 84  1  0
 81 80  2  0
 82 77  2  0
 82 81  1  0
 83 82  1  0
 85 86  1  0
 86 89  1  0
 86 88  1  0
 87 85  2  0
 90 91  1  0
 90 65  1  0
 92 90  1  0
M  ISO  4   6 101   9 101  56 100  57 100
M  END
>  <TORSDO>  (24) 
F 21

>  <SCORE>  (24) 
-13.295

>  <name>  (24) 
23

>  <ligand_id>  (24) 
23

>  <original_smiles>  (24) 
[H]c1c([H])c([H])c2c(c1[H])C([H])([H])C([H])([H])C([H])([H])C2([H])N([H])C(=O)C1([H])N(C(=O)C([H])(N([H])C(=O)C([H])(N([H])C([H])([H])[H])C([H])([H])[H])C(C([H])([H])[H])(C([H])([H])[H])C([H])([H])[H])C([H])([H])c2c([H])c(Oc3c([H])c(C([H])([H])[H])c(C([H])([H])[H])c(C([H])([H])C([H])([H])[N+]([H])([H])C([H])([H])C([H])([H])C(=O)N4C([H])([H])C([H])([H])C([H])([H])C([H])(n5nc(-c6c([H])c([H])c(Oc7c([H])c([H])c(F)c([H])c7F)c([H])c6[H])c(C(=O)N([H])[H])c5N([H])[H])C4([H])[H])c3[H])c([H])c([H])c2C1([H])[H]

>  <smiles>  (24) 
[H]c1c([H])c([H])c2c(c1[H])C([H])([H])C([H])([H])C([H])([H])C2([H])N([H])C(=O)C1([H])N(C(=O)C([H])(N([H])C(=O)C([H])(N([H])C([H])([H])[H])C([H])([H])[H])C(C([H])([H])[H])(C([H])([H])[H])C([H])([H])[H])C([H])([H])c2c([H])c(Oc3c([H])c(C([H])([H])[H])c(C([H])([H])[H])c(C([H])([H])C([H])([H])[N+]([H])([H])C([H])([H])C([H])([H])C(=O)N4C([H])([H])C([H])([H])C([H])([H])C([H])(n5nc(-c6c([H])c([H])c(Oc7c([H])c([H])c(F)c([H])c7F)c([H])c6[H])c(C(=O)N([H])[H])c5N([H])[H])C4([H])[H])c3[H])c([H])c([H])c2C1([H])[H]

$$$$
24:0:0
     RDKit          3D

 90 99  0  0  1  0  0  0  0  0999 V2000
  -28.2840  -22.0660   19.2020 C   0  0  0  0  0  3  0  0  0  0  0  0
  -28.0540  -23.5390   19.1490 C   0  0  0  0  0  3  0  0  0  0  0  0
  -29.2150  -22.2810   21.2790 C   0  0  0  0  0  0  0  0  0  0  0  0
  -28.9860  -23.7390   21.2260 C   0  0  0  0  0  0  0  0  0  0  0  0
  -28.8970  -21.2780   20.2710 C   0  0  0  0  0  0  0  0  0  0  0  0
  -28.3620  -24.5310   20.1720 C   0  0  0  0  0  0  0  0  0  0  0  0
  -29.8470  -21.9150   22.5990 C   0  0  0  0  0  2  0  0  0  0  0  0
  -29.5120  -24.3800   22.4840 C   0  0  0  0  0  2  0  0  0  0  0  0
  -29.7940  -23.2050   23.4430 C   0  0  0  0  0  2  0  0  0  0  0  0
  -28.3310  -26.0570   20.0870 O   0  0  0  0  0  0  0  0  0  0  0  0
  -24.6890  -31.8680   23.1650 C   0  0  0  0  0  0  0  0  0  0  0  0
  -27.2560  -27.0710   20.0860 C   0  0  0  0  0  0  0  0  0  0  0  0
  -23.4900  -30.4850   21.5140 C   0  0  0  0  0  3  0  0  0  0  0  0
  -24.9370  -28.9040   20.0690 C   0  0  0  0  0  0  0  0  0  0  0  0
  -26.0500  -30.7210   21.3550 C   0  0  0  0  0  2  0  0  0  0  0  0
  -26.1210  -29.3210   20.6890 C   0  0  0  0  0  0  0  0  0  0  0  0
  -27.2740  -28.4230   20.6750 C   0  0  0  0  0  3  0  0  0  0  0  0
  -26.0430  -26.7900   19.4220 C   0  0  0  0  0  3  0  0  0  0  0  0
  -24.9190  -27.6570   19.4180 C   0  0  0  0  0  3  0  0  0  0  0  0
  -23.7140  -29.8160   20.1290 C   0  0  0  0  0  2  0  0  0  0  0  0
  -24.7650  -31.0510   22.0650 N   0  0  0  0  0  0  0  0  0  0  0  0
  -23.6020  -32.1460   23.6970 O   0  0  0  0  0  0  0  0  0  0  0  0
  -22.8080  -29.4760   22.4710 C   0  0  0  0  0  0  0  0  0  0  0  0
  -21.4770  -29.3130   22.3560 N   0  0  0  0  0  0  0  0  0  0  0  0
  -23.4810  -28.8380   23.2840 O   0  0  0  0  0  0  0  0  0  0  0  0
  -20.9880  -29.8780   21.6770 H   0  0  0  0  0  0  0  0  0  0  0  0
  -18.0960  -28.1170   22.8910 C   0  0  0  0  0  0  0  0  0  0  0  0
  -20.6600  -28.3650   23.1200 C   0  0  0  0  0  3  0  0  0  0  0  0
  -20.7450  -26.9440   22.5150 C   0  0  0  0  0  2  0  0  0  0  0  0
  -19.6260  -26.6490   21.5110 C   0  0  0  0  0  2  0  0  0  0  0  0
  -18.2550  -26.7840   22.1800 C   0  0  0  0  0  2  0  0  0  0  0  0
  -19.2240  -28.8670   23.3170 C   0  0  0  0  0  0  0  0  0  0  0  0
  -19.0190  -30.1140   23.9470 C   0  0  0  0  0  3  0  0  0  0  0  0
  -17.7180  -30.6140   24.1500 C   0  0  0  0  0  3  0  0  0  0  0  0
  -16.6040  -29.8610   23.7360 C   0  0  0  0  0  3  0  0  0  0  0  0
  -16.7940  -28.6150   23.1130 C   0  0  0  0  0  3  0  0  0  0  0  0
  -25.9630  -32.5050   23.7990 C   0  0  0  0  0  3  0  0  0  0  0  0
  -25.6380  -33.8950   24.1640 N   0  0  0  0  0  0  0  0  0  0  0  0
  -25.9220  -34.9710   23.4180 C   0  0  0  0  0  0  0  0  0  0  0  0
  -26.5470  -34.8980   22.3560 O   0  0  0  0  0  0  0  0  0  0  0  0
  -25.0760  -34.0230   24.9920 H   0  0  0  0  0  0  0  0  0  0  0  0
  -24.1350  -36.7340   23.2090 C   0  0  0  0  0  1  0  0  0  0  0  0
  -25.4380  -36.3450   23.9260 C   0  0  0  0  0  3  0  0  0  0  0  0
  -27.6010  -37.2750   24.6260 C   0  0  0  0  0  1  0  0  0  0  0  0
  -26.4370  -37.4230   23.7560 N   0  0  0  0  0  0  0  0  0  0  0  0
  -26.0200  -38.3320   23.9350 H   0  0  0  0  0  0  0  0  0  0  0  0
  -26.4850  -31.7190   25.0650 C   0  0  1  0  0  0  0  0  0  0  0  0
  -25.3950  -31.4630   26.1330 C   0  0  0  0  0  1  0  0  0  0  0  0
  -27.0730  -30.3480   24.6610 C   0  0  0  0  0  1  0  0  0  0  0  0
  -27.6330  -32.5080   25.7350 C   0  0  0  0  0  1  0  0  0  0  0  0
  -28.8960  -19.5420   20.4260 C   0  0  0  0  0  3  0  0  0  0  0  0
  -30.0480  -18.2000   20.2710 C   0  0  0  0  0  3  0  0  0  0  0  0
  -30.5820  -15.3240   20.2620 C   0  0  0  0  0  0  0  0  0  0  0  0
  -30.5660  -12.8960   19.3790 C   0  0  0  0  0  2  0  0  0  0  0  0
  -29.6360  -12.7120   18.1540 C   0  0  0  0  0  2  0  0  0  0  0  0
  -28.1910  -12.4380   18.6040 C   0  0  0  0  0  2  0  0  0  0  0  0
  -27.7460  -13.3880   19.7450 C   0  0  0  0  0  3  0  0  0  0  0  0
  -28.8020  -13.5200   20.8620 C   0  0  0  0  0  2  0  0  0  0  0  0
  -30.0280  -14.0200   20.2230 N   0  0  0  0  0  0  0  0  0  0  0  0
  -31.7940  -15.3560   20.0090 O   0  0  0  0  0  0  0  0  0  0  0  0
  -29.7970  -16.5640   20.3820 N   0  0  0  0  0  0  0  0  0  0  0  0
  -28.8250  -16.3470   20.5510 H   0  0  0  0  0  0  0  0  0  0  0  0
  -25.3810  -13.9230   20.5380 C   0  0  0  0  0  0  0  0  0  0  0  0
  -24.3280  -13.1330   20.9060 C   0  0  0  0  0  0  0  0  0  0  0  0
  -24.8030  -11.7860   20.8430 C   0  0  0  0  0  0  0  0  0  0  0  0
  -26.4250  -13.0580   20.2640 N   0  0  0  0  0  0  0  0  0  0  0  0
  -26.0910  -11.7650   20.5150 N   0  0  0  0  0  0  0  0  0  0  0  0
  -24.0860  -10.5150   21.0160 C   0  0  0  0  0  0  0  0  0  0  0  0
  -24.5000   -9.5550   21.9640 C   0  0  0  0  0  3  0  0  0  0  0  0
  -23.7790   -8.3510   22.1260 C   0  0  0  0  0  3  0  0  0  0  0  0
  -22.6290   -8.1010   21.3400 C   0  0  0  0  0  0  0  0  0  0  0  0
  -22.2340   -9.0510   20.3820 C   0  0  0  0  0  3  0  0  0  0  0  0
  -22.9560  -10.2450   20.2180 C   0  0  0  0  0  3  0  0  0  0  0  0
  -21.8820   -6.9490   21.4100 O   0  0  0  0  0  0  0  0  0  0  0  0
  -21.7560   -6.2450   22.5810 C   0  0  0  0  0  0  0  0  0  0  0  0
  -21.2140   -6.8270   23.7460 C   0  0  0  0  0  3  0  0  0  0  0  0
  -21.0360   -6.0470   24.9060 C   0  0  0  0  0  3  0  0  0  0  0  0
  -21.3910   -4.6860   24.9010 C   0  0  0  0  0  0  0  0  0  0  0  0
  -21.9270   -4.1020   23.7400 C   0  0  0  0  0  3  0  0  0  0  0  0
  -22.1050   -4.8790   22.5810 C   0  0  0  0  0  0  0  0  0  0  0  0
  -22.6020   -4.3070   21.4580 F   0  0  0  0  0  0  0  0  0  0  0  0
  -21.2150   -3.9330   26.0130 F   0  0  0  0  0  0  0  0  0  0  0  0
  -22.9320  -13.5960   21.1990 C   0  0  0  0  0  0  0  0  0  0  0  0
  -22.2180  -12.8840   22.0620 N   0  0  0  0  0  0  0  0  0  0  0  0
  -22.4830  -14.6270   20.6980 O   0  0  0  0  0  0  0  0  0  0  0  0
  -22.5940  -12.0500   22.4890 H   0  0  0  0  0  0  0  0  0  0  0  0
  -21.2810  -13.1760   22.3010 H   0  0  0  0  0  0  0  0  0  0  0  0
  -25.5310  -15.2970   20.3830 N   0  0  0  0  0  0  0  0  0  0  0  0
  -24.7550  -15.9380   20.5090 H   0  0  0  0  0  0  0  0  0  0  0  0
  -26.3560  -15.7460   20.0070 H   0  0  0  0  0  0  0  0  0  0  0  0
  1  5  1  0
  2  1  2  0
  2  6  1  0
  3  7  1  0
  4  3  1  0
  4  8  1  0
  5 51  1  0
  5  3  2  0
  6  4  2  0
  7  9  1  0
  8  9  1  0
 10  6  1  0
 11 22  2  0
 12 10  1  0
 12 17  1  0
 13 21  1  0
 13 23  1  0
 14 20  1  0
 14 16  1  0
 15 21  1  0
 16 15  1  0
 17 16  2  0
 18 12  2  0
 19 18  1  0
 19 14  2  0
 20 13  1  0
 21 11  1  0
 23 25  2  0
 24 23  1  0
 26 24  1  0
 27 36  2  0
 27 32  1  0
 28 24  1  0
 28 32  1  0
 29 28  1  0
 30 31  1  0
 30 29  1  0
 31 27  1  0
 32 33  2  0
 33 34  1  0
 35 34  2  0
 36 35  1  0
 37 11  1  0
 37 38  1  0
 37 47  1  0
 38 41  1  0
 39 43  1  0
 39 38  1  0
 40 39  2  0
 43 42  1  0
 45 43  1  0
 45 46  1  0
 45 44  1  0
 47 50  1  1
 47 48  1  0
 49 47  1  0
 52 61  1  0
 52 51  2  0
 53 61  1  0
 54 59  1  0
 55 56  1  0
 55 54  1  0
 57 56  1  0
 57 66  1  0
 57 58  1  0
 59 53  1  0
 59 58  1  0
 60 53  2  0
 61 62  1  0
 63 64  2  0
 64 83  1  0
 65 64  1  0
 65 68  1  0
 66 67  1  0
 66 63  1  0
 67 65  2  0
 68 69  1  0
 69 70  2  0
 71 74  1  0
 71 70  1  0
 72 71  2  0
 73 72  1  0
 73 68  2  0
 74 75  1  0
 75 80  2  0
 75 76  1  0
 76 77  2  0
 78 77  1  0
 78 82  1  0
 79 78  2  0
 80 79  1  0
 81 80  1  0
 83 84  1  0
 84 87  1  0
 84 86  1  0
 85 83  2  0
 88 89  1  0
 88 63  1  0
 90 88  1  0
M  ISO  4   6 101  10 101  53 100  61 100
M  END
>  <TORSDO>  (25) 
F 18

>  <SCORE>  (25) 
-15.849

>  <name>  (25) 
24

>  <ligand_id>  (25) 
24

>  <original_smiles>  (25) 
[H]c1c([H])c([H])c2c(c1[H])C([H])([H])C([H])([H])C([H])([H])C2([H])N([H])C(=O)C1([H])N(C(=O)C([H])(N([H])C(=O)C([H])(N([H])C([H])([H])[H])C([H])([H])[H])C(C([H])([H])[H])(C([H])([H])[H])C([H])([H])[H])C([H])([H])c2c([H])c(Oc3c([H])c([H])c(C([H])([H])C([H])([H])N([H])C(=O)N4C([H])([H])C([H])([H])C([H])([H])C([H])(n5nc(-c6c([H])c([H])c(Oc7c([H])c([H])c(F)c([H])c7F)c([H])c6[H])c(C(=O)N([H])[H])c5N([H])[H])C4([H])[H])c4c3C([H])([H])C([H])([H])C4([H])[H])c([H])c([H])c2C1([H])[H]

>  <smiles>  (25) 
[H]c1c([H])c([H])c2c(c1[H])C([H])([H])C([H])([H])C([H])([H])C2([H])N([H])C(=O)C1([H])N(C(=O)C([H])(N([H])C(=O)C([H])(N([H])C([H])([H])[H])C([H])([H])[H])C(C([H])([H])[H])(C([H])([H])[H])C([H])([H])[H])C([H])([H])c2c([H])c(Oc3c([H])c([H])c(C([H])([H])C([H])([H])N([H])C(=O)N4C([H])([H])C([H])([H])C([H])([H])C([H])(n5nc(-c6c([H])c([H])c(Oc7c([H])c([H])c(F)c([H])c7F)c([H])c6[H])c(C(=O)N([H])[H])c5N([H])[H])C4([H])[H])c4c3C([H])([H])C([H])([H])C4([H])[H])c([H])c([H])c2C1([H])[H]

$$$$
25:0:0
     RDKit          3D

 92100  0  0  1  0  0  0  0  0999 V2000
  -28.7540  -23.0770   21.7510 C   0  0  0  0  0  3  0  0  0  0  0  0
  -28.5050  -25.5060   21.4620 C   0  0  0  0  0  3  0  0  0  0  0  0
  -28.3270  -24.0150   19.5510 C   0  0  0  0  0  3  0  0  0  0  0  0
  -28.7420  -24.3840   22.2860 C   0  0  0  0  0  0  0  0  0  0  0  0
  -28.5510  -22.8380   20.3740 C   0  0  0  0  0  0  0  0  0  0  0  0
  -28.2850  -25.3630   20.0780 C   0  0  0  0  0  0  0  0  0  0  0  0
  -28.9640  -24.5900   23.7720 C   0  0  0  0  0  1  0  0  0  0  0  0
  -28.2600  -21.2420   18.3520 C   0  0  0  0  0  1  0  0  0  0  0  0
  -28.4350  -21.3270   19.8820 C   0  0  0  0  0  3  0  0  0  0  0  0
  -29.4690  -20.2940   20.3390 N   0  0  0  0  0  4  0  0  0  0  0  0
  -30.2890  -20.4180   19.7700 H   0  0  0  0  0  0  0  0  0  0  0  0
  -29.7370  -20.5250   21.2800 H   0  0  0  0  0  0  0  0  0  0  0  0
  -29.0640  -18.8130   20.3390 C   0  0  0  0  0  3  0  0  0  0  0  0
  -30.1930  -17.6580   20.3560 C   0  0  0  0  0  3  0  0  0  0  0  0
  -29.7320  -16.1450   20.6650 C   0  0  0  0  0  2  0  0  0  0  0  0
  -30.5750  -14.8750   20.1850 C   0  0  0  0  0  0  0  0  0  0  0  0
  -30.3780  -12.6440   19.0770 C   0  0  0  0  0  2  0  0  0  0  0  0
  -29.3660  -12.7620   17.9150 C   0  0  0  0  0  2  0  0  0  0  0  0
  -27.9230  -12.5480   18.4160 C   0  0  0  0  0  2  0  0  0  0  0  0
  -27.6080  -13.3800   19.6860 C   0  0  0  0  0  3  0  0  0  0  0  0
  -28.7280  -13.2470   20.7410 C   0  0  0  0  0  2  0  0  0  0  0  0
  -29.9970  -13.6310   20.1100 N   0  0  0  0  0  0  0  0  0  0  0  0
  -31.7120  -15.0530   19.7390 O   0  0  0  0  0  0  0  0  0  0  0  0
  -25.2600  -13.9180   20.5740 C   0  0  0  0  0  0  0  0  0  0  0  0
  -24.2240  -13.1180   20.9750 C   0  0  0  0  0  0  0  0  0  0  0  0
  -24.6990  -11.7750   20.8620 C   0  0  0  0  0  0  0  0  0  0  0  0
  -26.2950  -13.0610   20.2400 N   0  0  0  0  0  0  0  0  0  0  0  0
  -25.9680  -11.7650   20.4760 N   0  0  0  0  0  0  0  0  0  0  0  0
  -23.9980  -10.4970   21.0430 C   0  0  0  0  0  0  0  0  0  0  0  0
  -24.4520   -9.5330   21.9690 C   0  0  0  0  0  3  0  0  0  0  0  0
  -23.7520   -8.3190   22.1390 C   0  0  0  0  0  3  0  0  0  0  0  0
  -22.5820   -8.0620   21.3840 C   0  0  0  0  0  0  0  0  0  0  0  0
  -22.1490   -9.0160   20.4480 C   0  0  0  0  0  3  0  0  0  0  0  0
  -22.8490  -10.2220   20.2750 C   0  0  0  0  0  3  0  0  0  0  0  0
  -21.8540   -6.9010   21.4640 O   0  0  0  0  0  0  0  0  0  0  0  0
  -21.7820   -6.1740   22.6250 C   0  0  0  0  0  0  0  0  0  0  0  0
  -21.2290   -6.7100   23.8080 C   0  0  0  0  0  3  0  0  0  0  0  0
  -21.1130   -5.9040   24.9590 C   0  0  0  0  0  3  0  0  0  0  0  0
  -21.5400   -4.5630   24.9250 C   0  0  0  0  0  0  0  0  0  0  0  0
  -22.0840   -4.0260   23.7450 C   0  0  0  0  0  3  0  0  0  0  0  0
  -22.2030   -4.8290   22.5980 C   0  0  0  0  0  0  0  0  0  0  0  0
  -22.7100   -4.3000   21.4580 F   0  0  0  0  0  0  0  0  0  0  0  0
  -21.4200   -3.7870   26.0280 F   0  0  0  0  0  0  0  0  0  0  0  0
  -22.8410  -13.5660   21.3470 C   0  0  0  0  0  0  0  0  0  0  0  0
  -22.1710  -12.8210   22.2210 N   0  0  0  0  0  0  0  0  0  0  0  0
  -22.3630  -14.6060   20.8990 O   0  0  0  0  0  0  0  0  0  0  0  0
  -22.5730  -11.9800   22.6070 H   0  0  0  0  0  0  0  0  0  0  0  0
  -21.2430  -13.0980   22.5100 H   0  0  0  0  0  0  0  0  0  0  0  0
  -25.3970  -15.2970   20.4420 N   0  0  0  0  0  0  0  0  0  0  0  0
  -24.6290  -15.9340   20.6220 H   0  0  0  0  0  0  0  0  0  0  0  0
  -26.2200  -15.7620   20.0780 H   0  0  0  0  0  0  0  0  0  0  0  0
  -28.1060  -26.5330   19.3030 O   0  0  0  0  0  0  0  0  0  0  0  0
  -24.6500  -31.6520   23.1010 C   0  0  0  0  0  0  0  0  0  0  0  0
  -26.9950  -27.3670   19.4920 C   0  0  0  0  0  0  0  0  0  0  0  0
  -23.3160  -30.3980   21.4440 C   0  0  0  0  0  3  0  0  0  0  0  0
  -24.6430  -28.9640   19.7940 C   0  0  0  0  0  0  0  0  0  0  0  0
  -25.8350  -30.7280   21.0970 C   0  0  0  0  0  2  0  0  0  0  0  0
  -25.8560  -29.4030   20.3420 C   0  0  0  0  0  0  0  0  0  0  0  0
  -27.0360  -28.6160   20.1830 C   0  0  0  0  0  3  0  0  0  0  0  0
  -25.7620  -26.9730   18.9310 C   0  0  0  0  0  3  0  0  0  0  0  0
  -24.5960  -27.7520   19.0820 C   0  0  0  0  0  3  0  0  0  0  0  0
  -23.4210  -29.8360   20.0010 C   0  0  0  0  0  2  0  0  0  0  0  0
  -24.6240  -30.9390   21.9380 N   0  0  0  0  0  0  0  0  0  0  0  0
  -23.6120  -31.8850   23.7380 O   0  0  0  0  0  0  0  0  0  0  0  0
  -22.7160  -29.3080   22.3630 C   0  0  0  0  0  0  0  0  0  0  0  0
  -21.3950  -29.0860   22.2590 N   0  0  0  0  0  0  0  0  0  0  0  0
  -23.4380  -28.6680   23.1310 O   0  0  0  0  0  0  0  0  0  0  0  0
  -20.8680  -29.6620   21.6150 H   0  0  0  0  0  0  0  0  0  0  0  0
  -18.0980  -27.6650   22.6960 C   0  0  0  0  0  0  0  0  0  0  0  0
  -20.6330  -28.0760   22.9950 C   0  0  0  0  0  3  0  0  0  0  0  0
  -20.8290  -26.6730   22.3760 C   0  0  0  0  0  2  0  0  0  0  0  0
  -19.7540  -26.3080   21.3480 C   0  0  0  0  0  2  0  0  0  0  0  0
  -18.3630  -26.3480   21.9870 C   0  0  0  0  0  2  0  0  0  0  0  0
  -19.1640  -28.4830   23.1570 C   0  0  0  0  0  0  0  0  0  0  0  0
  -18.8640  -29.7120   23.7830 C   0  0  0  0  0  3  0  0  0  0  0  0
  -17.5300  -30.1270   23.9530 C   0  0  0  0  0  3  0  0  0  0  0  0
  -16.4770  -29.3080   23.5080 C   0  0  0  0  0  3  0  0  0  0  0  0
  -16.7620  -28.0790   22.8860 C   0  0  0  0  0  3  0  0  0  0  0  0
  -25.9820  -32.2250   23.6780 C   0  0  0  0  0  3  0  0  0  0  0  0
  -25.7290  -33.6160   24.0810 N   0  0  0  0  0  0  0  0  0  0  0  0
  -26.0700  -34.6920   23.3590 C   0  0  0  0  0  0  0  0  0  0  0  0
  -26.6970  -34.6150   22.3000 O   0  0  0  0  0  0  0  0  0  0  0  0
  -25.1700  -33.7540   24.9100 H   0  0  0  0  0  0  0  0  0  0  0  0
  -24.3950  -36.5570   23.1430 C   0  0  0  0  0  1  0  0  0  0  0  0
  -25.6460  -36.0730   23.8950 C   0  0  0  0  0  3  0  0  0  0  0  0
  -27.8240  -36.8560   24.7120 C   0  0  0  0  0  1  0  0  0  0  0  0
  -26.7100  -37.0960   23.7990 N   0  0  0  0  0  0  0  0  0  0  0  0
  -26.3380  -38.0220   23.9880 H   0  0  0  0  0  0  0  0  0  0  0  0
  -26.5440  -31.3890   24.8930 C   0  0  1  0  0  0  0  0  0  0  0  0
  -25.5030  -31.1250   26.0030 C   0  0  0  0  0  1  0  0  0  0  0  0
  -27.0750  -30.0190   24.4110 C   0  0  0  0  0  1  0  0  0  0  0  0
  -27.7450  -32.1310   25.5280 C   0  0  0  0  0  1  0  0  0  0  0  0
  1  4  1  0
  2  4  2  0
  3  6  2  0
  3  5  1  0
  4  7  1  0
  5  1  2  0
  6  2  1  0
  9  8  1  0
  9 10  1  0
  9  5  1  0
 10 13  1  0
 10 12  1  0
 11 10  1  0
 13 14  2  0
 14 15  1  0
 16 15  1  0
 17 22  1  0
 18 19  1  0
 18 17  1  0
 20 19  1  0
 20 27  1  0
 20 21  1  0
 22 16  1  0
 22 21  1  0
 23 16  2  0
 24 25  2  0
 25 44  1  0
 26 25  1  0
 26 29  1  0
 27 28  1  0
 27 24  1  0
 28 26  2  0
 29 30  1  0
 30 31  2  0
 32 35  1  0
 32 31  1  0
 33 32  2  0
 34 33  1  0
 34 29  2  0
 35 36  1  0
 36 37  1  0
 37 38  2  0
 39 38  1  0
 39 43  1  0
 40 39  2  0
 41 36  2  0
 41 40  1  0
 42 41  1  0
 44 45  1  0
 45 48  1  0
 45 47  1  0
 46 44  2  0
 49 24  1  0
 49 50  1  0
 51 49  1  0
 52 54  1  0
 52  6  1  0
 53 64  2  0
 54 59  1  0
 55 63  1  0
 55 65  1  0
 56 62  1  0
 56 58  1  0
 57 63  1  0
 58 57  1  0
 59 58  2  0
 60 61  1  0
 60 54  2  0
 61 56  2  0
 62 55  1  0
 63 53  1  0
 65 67  2  0
 66 65  1  0
 68 66  1  0
 69 78  2  0
 69 74  1  0
 70 66  1  0
 70 74  1  0
 71 70  1  0
 72 73  1  0
 72 71  1  0
 73 69  1  0
 74 75  2  0
 75 76  1  0
 77 76  2  0
 78 77  1  0
 79 53  1  0
 79 80  1  0
 79 89  1  0
 80 83  1  0
 81 85  1  0
 81 80  1  0
 82 81  2  0
 85 84  1  0
 87 85  1  0
 87 88  1  0
 87 86  1  0
 89 92  1  1
 89 90  1  0
 91 89  1  0
M  ISO  4   6 101  15 100  16 100  52 101
M  END
>  <TORSDO>  (26) 
F 21

>  <SCORE>  (26) 
-12.651

>  <name>  (26) 
25

>  <ligand_id>  (26) 
25

>  <original_smiles>  (26) 
[H]c1c([H])c([H])c2c(c1[H])C([H])([H])C([H])([H])C([H])([H])C2([H])N([H])C(=O)C1([H])N(C(=O)C([H])(N([H])C(=O)C([H])(N([H])C([H])([H])[H])C([H])([H])[H])C(C([H])([H])[H])(C([H])([H])[H])C([H])([H])[H])C([H])([H])c2c([H])c(Oc3c([H])c(C([H])([H])[H])c([H])c(C([H])(C([H])([H])[H])[N+]([H])([H])C([H])([H])C([H])([H])C([H])([H])C(=O)N4C([H])([H])C([H])([H])C([H])([H])C([H])(n5nc(-c6c([H])c([H])c(Oc7c([H])c([H])c(F)c([H])c7F)c([H])c6[H])c(C(=O)N([H])[H])c5N([H])[H])C4([H])[H])c3[H])c([H])c([H])c2C1([H])[H]

>  <smiles>  (26) 
[H]c1c([H])c([H])c2c(c1[H])C([H])([H])C([H])([H])C([H])([H])C2([H])N([H])C(=O)C1([H])N(C(=O)C([H])(N([H])C(=O)C([H])(N([H])C([H])([H])[H])C([H])([H])[H])C(C([H])([H])[H])(C([H])([H])[H])C([H])([H])[H])C([H])([H])c2c([H])c(Oc3c([H])c(C([H])([H])[H])c([H])c(C([H])(C([H])([H])[H])[N+]([H])([H])C([H])([H])C([H])([H])C([H])([H])C(=O)N4C([H])([H])C([H])([H])C([H])([H])C([H])(n5nc(-c6c([H])c([H])c(Oc7c([H])c([H])c(F)c([H])c7F)c([H])c6[H])c(C(=O)N([H])[H])c5N([H])[H])C4([H])[H])c3[H])c([H])c([H])c2C1([H])[H]

$$$$
26:0:0
     RDKit          3D

 91100  0  0  1  0  0  0  0  0999 V2000
  -29.3460  -22.2300   19.0960 C   0  0  0  0  0  3  0  0  0  0  0  0
  -29.7790  -20.7810   19.0640 C   0  0  0  0  0  0  0  0  0  0  0  0
  -29.4210  -19.8930   20.0950 C   0  0  0  0  0  0  0  0  0  0  0  0
  -28.6500  -22.7720   20.1850 C   0  0  0  0  0  0  0  0  0  0  0  0
  -30.6890  -20.3010   17.9590 C   0  0  0  0  0  2  0  0  0  0  0  0
  -31.5450  -18.5430   19.7230 C   0  0  0  0  0  2  0  0  0  0  0  0
  -30.1570  -18.3240   20.3710 C   0  0  0  0  0  3  0  0  0  0  0  0
  -31.4740  -18.9870   18.2390 C   0  0  0  0  0  3  0  0  0  0  0  0
  -28.5570  -21.1650   21.1860 S   0  0  0  0  0  0  0  0  0  0  0  0
  -30.4710  -15.3840   20.0950 C   0  0  0  0  0  0  0  0  0  0  0  0
  -30.3960  -12.9480   19.1860 C   0  0  0  0  0  2  0  0  0  0  0  0
  -29.4440  -12.7340   17.9840 C   0  0  0  0  0  2  0  0  0  0  0  0
  -28.0140  -12.4440   18.4720 C   0  0  0  0  0  2  0  0  0  0  0  0
  -27.5870  -13.4030   19.6110 C   0  0  0  0  0  3  0  0  0  0  0  0
  -28.6680  -13.5770   20.6990 C   0  0  0  0  0  2  0  0  0  0  0  0
  -29.8680  -14.0940   20.0180 N   0  0  0  0  0  0  0  0  0  0  0  0
  -31.6950  -15.3200   19.9140 O   0  0  0  0  0  0  0  0  0  0  0  0
  -29.7600  -16.6980   20.1780 N   0  0  0  0  0  0  0  0  0  0  0  0
  -28.7620  -16.5550   20.2180 H   0  0  0  0  0  0  0  0  0  0  0  0
  -25.2450  -13.9390   20.4570 C   0  0  0  0  0  0  0  0  0  0  0  0
  -24.1980  -13.1530   20.8470 C   0  0  0  0  0  0  0  0  0  0  0  0
  -24.6680  -11.8060   20.7840 C   0  0  0  0  0  0  0  0  0  0  0  0
  -26.2810  -13.0720   20.1660 N   0  0  0  0  0  0  0  0  0  0  0  0
  -25.9510  -11.7820   20.4340 N   0  0  0  0  0  0  0  0  0  0  0  0
  -23.9520  -10.5380   20.9790 C   0  0  0  0  0  0  0  0  0  0  0  0
  -24.3960   -9.5700   21.9060 C   0  0  0  0  0  3  0  0  0  0  0  0
  -23.6770   -8.3700   22.0890 C   0  0  0  0  0  3  0  0  0  0  0  0
  -22.4990   -8.1280   21.3430 C   0  0  0  0  0  0  0  0  0  0  0  0
  -22.0740   -9.0830   20.4030 C   0  0  0  0  0  3  0  0  0  0  0  0
  -22.7940  -10.2750   20.2190 C   0  0  0  0  0  3  0  0  0  0  0  0
  -21.7490   -6.9790   21.4360 O   0  0  0  0  0  0  0  0  0  0  0  0
  -21.6900   -6.2480   22.5950 C   0  0  0  0  0  0  0  0  0  0  0  0
  -21.1980   -6.7980   23.7980 C   0  0  0  0  0  3  0  0  0  0  0  0
  -21.0910   -5.9930   24.9490 C   0  0  0  0  0  3  0  0  0  0  0  0
  -21.4660   -4.6370   24.8980 C   0  0  0  0  0  0  0  0  0  0  0  0
  -21.9500   -4.0850   23.6980 C   0  0  0  0  0  3  0  0  0  0  0  0
  -22.0600   -4.8890   22.5500 C   0  0  0  0  0  0  0  0  0  0  0  0
  -22.5070   -4.3470   21.3910 F   0  0  0  0  0  0  0  0  0  0  0  0
  -21.3550   -3.8600   26.0000 F   0  0  0  0  0  0  0  0  0  0  0  0
  -22.8070  -13.6200   21.1580 C   0  0  0  0  0  0  0  0  0  0  0  0
  -22.1040  -12.9160   22.0390 N   0  0  0  0  0  0  0  0  0  0  0  0
  -22.3520  -14.6450   20.6540 O   0  0  0  0  0  0  0  0  0  0  0  0
  -22.4890  -12.0890   22.4710 H   0  0  0  0  0  0  0  0  0  0  0  0
  -21.1700  -13.2110   22.2840 H   0  0  0  0  0  0  0  0  0  0  0  0
  -25.3950  -15.3140   20.2950 N   0  0  0  0  0  0  0  0  0  0  0  0
  -24.6290  -15.9620   20.4420 H   0  0  0  0  0  0  0  0  0  0  0  0
  -26.2260  -15.7620   19.9310 H   0  0  0  0  0  0  0  0  0  0  0  0
  -30.9370  -17.9310   17.4560 O   0  0  0  0  0  0  0  0  0  0  0  0
  -30.0510  -17.7630   17.7660 H   0  0  0  0  0  0  0  0  0  0  0  0
  -27.8160  -24.2970   20.4520 C   0  0  0  0  0  2  0  0  0  0  0  0
  -28.2170  -25.8890   20.2510 O   0  0  0  0  0  0  0  0  0  0  0  0
  -24.6790  -31.8930   23.2720 C   0  0  0  0  0  0  0  0  0  0  0  0
  -27.2240  -27.0130   20.2330 C   0  0  0  0  0  0  0  0  0  0  0  0
  -23.4810  -30.5000   21.6370 C   0  0  0  0  0  3  0  0  0  0  0  0
  -24.9270  -28.9040   20.2060 C   0  0  0  0  0  0  0  0  0  0  0  0
  -26.0500  -30.7120   21.4830 C   0  0  0  0  0  2  0  0  0  0  0  0
  -26.1200  -29.3020   20.8230 C   0  0  0  0  0  0  0  0  0  0  0  0
  -27.2660  -28.3790   20.8110 C   0  0  0  0  0  3  0  0  0  0  0  0
  -26.0020  -26.7810   19.5600 C   0  0  0  0  0  3  0  0  0  0  0  0
  -24.8950  -27.6650   19.5520 C   0  0  0  0  0  3  0  0  0  0  0  0
  -23.7080  -29.8230   20.2590 C   0  0  0  0  0  2  0  0  0  0  0  0
  -24.7590  -31.0620   22.1830 N   0  0  0  0  0  0  0  0  0  0  0  0
  -23.5910  -32.1800   23.7960 O   0  0  0  0  0  0  0  0  0  0  0  0
  -22.7930  -29.4990   22.6020 C   0  0  0  0  0  0  0  0  0  0  0  0
  -21.4660  -29.3180   22.4700 N   0  0  0  0  0  0  0  0  0  0  0  0
  -23.4620  -28.8860   23.4370 O   0  0  0  0  0  0  0  0  0  0  0  0
  -20.9780  -29.8660   21.7760 H   0  0  0  0  0  0  0  0  0  0  0  0
  -18.0950  -28.0670   22.9660 C   0  0  0  0  0  0  0  0  0  0  0  0
  -20.6490  -28.3730   23.2420 C   0  0  0  0  0  3  0  0  0  0  0  0
  -20.7750  -26.9390   22.6770 C   0  0  0  0  0  2  0  0  0  0  0  0
  -19.6830  -26.5930   21.6600 C   0  0  0  0  0  2  0  0  0  0  0  0
  -18.2960  -26.7180   22.2950 C   0  0  0  0  0  2  0  0  0  0  0  0
  -19.1990  -28.8500   23.3950 C   0  0  0  0  0  0  0  0  0  0  0  0
  -18.9530  -30.1100   23.9850 C   0  0  0  0  0  3  0  0  0  0  0  0
  -17.6380  -30.5860   24.1480 C   0  0  0  0  0  3  0  0  0  0  0  0
  -16.5500  -29.7990   23.7310 C   0  0  0  0  0  3  0  0  0  0  0  0
  -16.7790  -28.5410   23.1450 C   0  0  0  0  0  3  0  0  0  0  0  0
  -25.9500  -32.5390   23.9020 C   0  0  0  0  0  3  0  0  0  0  0  0
  -25.6340  -33.9400   24.2280 N   0  0  0  0  0  0  0  0  0  0  0  0
  -25.9380  -34.9960   23.4610 C   0  0  0  0  0  0  0  0  0  0  0  0
  -26.5770  -34.8910   22.4110 O   0  0  0  0  0  0  0  0  0  0  0  0
  -25.0630  -34.0930   25.0470 H   0  0  0  0  0  0  0  0  0  0  0  0
  -24.1820  -36.7780   23.1720 C   0  0  0  0  0  1  0  0  0  0  0  0
  -25.4610  -36.3860   23.9300 C   0  0  0  0  0  3  0  0  0  0  0  0
  -27.6170  -37.3030   24.6690 C   0  0  0  0  0  1  0  0  0  0  0  0
  -26.4790  -37.4460   23.7640 N   0  0  0  0  0  0  0  0  0  0  0  0
  -26.0690  -38.3660   23.9140 H   0  0  0  0  0  0  0  0  0  0  0  0
  -26.4520  -31.7810   25.1930 C   0  0  1  0  0  0  0  0  0  0  0  0
  -25.3490  -31.5600   26.2560 C   0  0  0  0  0  1  0  0  0  0  0  0
  -27.0360  -30.3970   24.8320 C   0  0  0  0  0  1  0  0  0  0  0  0
  -27.5980  -32.5810   25.8560 C   0  0  0  0  0  1  0  0  0  0  0  0
  1  4  2  0
  2  1  1  0
  2  3  2  0
  3  7  1  0
  3  9  1  0
  4 50  1  0
  4  9  1  0
  5  8  1  0
  5  2  1  0
  6  7  1  0
  7 18  1  0
  8 48  1  0
  8  6  1  0
 10 18  1  0
 11 16  1  0
 12 13  1  0
 12 11  1  0
 14 13  1  0
 14 23  1  0
 14 15  1  0
 16 10  1  0
 16 15  1  0
 17 10  2  0
 18 19  1  0
 20 21  2  0
 21 40  1  0
 22 21  1  0
 22 25  1  0
 23 24  1  0
 23 20  1  0
 24 22  2  0
 25 26  1  0
 26 27  2  0
 28 31  1  0
 28 27  1  0
 29 28  2  0
 30 29  1  0
 30 25  2  0
 31 32  1  0
 32 33  1  0
 33 34  2  0
 35 34  1  0
 35 39  1  0
 36 35  2  0
 37 32  2  0
 37 36  1  0
 38 37  1  0
 40 41  1  0
 41 44  1  0
 41 43  1  0
 42 40  2  0
 45 46  1  0
 45 20  1  0
 47 45  1  0
 48 49  1  0
 51 50  1  0
 52 63  2  0
 53 51  1  0
 53 58  1  0
 54 62  1  0
 54 64  1  0
 55 61  1  0
 55 57  1  0
 56 62  1  0
 57 56  1  0
 58 57  2  0
 59 53  2  0
 60 59  1  0
 60 55  2  0
 61 54  1  0
 62 52  1  0
 64 66  2  0
 65 64  1  0
 67 65  1  0
 68 77  2  0
 68 73  1  0
 69 65  1  0
 69 73  1  0
 70 69  1  0
 71 72  1  0
 71 70  1  0
 72 68  1  0
 73 74  2  0
 74 75  1  0
 76 75  2  0
 77 76  1  0
 78 52  1  0
 78 79  1  0
 78 88  1  0
 79 82  1  0
 80 84  1  0
 80 79  1  0
 81 80  2  0
 84 83  1  0
 86 87  1  0
 86 84  1  0
 86 85  1  0
 88 91  1  1
 88 89  1  0
 90 88  1  0
M  ISO  4  10 100  18 100  50 101  51 101
M  END
>  <TORSDO>  (27) 
F 18

>  <SCORE>  (27) 
-16.565

>  <name>  (27) 
26

>  <ligand_id>  (27) 
26

>  <original_smiles>  (27) 
[H]OC1([H])C([H])([H])c2c(sc(C([H])([H])Oc3c([H])c([H])c4c(c3[H])C([H])([H])N(C(=O)C([H])(N([H])C(=O)C([H])(N([H])C([H])([H])[H])C([H])([H])[H])C(C([H])([H])[H])(C([H])([H])[H])C([H])([H])[H])C([H])(C(=O)N([H])C3([H])c5c([H])c([H])c([H])c([H])c5C([H])([H])C([H])([H])C3([H])[H])C4([H])[H])c2[H])C([H])(N([H])C(=O)N2C([H])([H])C([H])([H])C([H])([H])C([H])(n3nc(-c4c([H])c([H])c(Oc5c([H])c([H])c(F)c([H])c5F)c([H])c4[H])c(C(=O)N([H])[H])c3N([H])[H])C2([H])[H])C1([H])[H]

>  <smiles>  (27) 
[H]OC1([H])C([H])([H])c2c(sc(C([H])([H])Oc3c([H])c([H])c4c(c3[H])C([H])([H])N(C(=O)C([H])(N([H])C(=O)C([H])(N([H])C([H])([H])[H])C([H])([H])[H])C(C([H])([H])[H])(C([H])([H])[H])C([H])([H])[H])C([H])(C(=O)N([H])C3([H])c5c([H])c([H])c([H])c([H])c5C([H])([H])C([H])([H])C3([H])[H])C4([H])[H])c2[H])C([H])(N([H])C(=O)N2C([H])([H])C([H])([H])C([H])([H])C([H])(n3nc(-c4c([H])c([H])c(Oc5c([H])c([H])c(F)c([H])c5F)c([H])c4[H])c(C(=O)N([H])[H])c3N([H])[H])C2([H])[H])C1([H])[H]

$$$$
27:0:0
     RDKit          3D

 90 98  0  0  1  0  0  0  0  0999 V2000
  -29.3800  -24.0170   21.8730 C   0  0  0  0  0  3  0  0  0  0  0  0
  -29.9750  -22.9550   22.5880 C   0  0  0  0  0  3  0  0  0  0  0  0
  -29.0120  -22.4820   20.0220 C   0  0  0  0  0  3  0  0  0  0  0  0
  -28.8870  -23.8180   20.5700 C   0  0  0  0  0  0  0  0  0  0  0  0
  -29.6210  -21.3770   20.7330 C   0  0  0  0  0  0  0  0  0  0  0  0
  -30.1030  -21.6630   22.0310 C   0  0  0  0  0  0  0  0  0  0  0  0
  -30.7300  -20.7020   22.7490 F   0  0  0  0  0  0  0  0  0  0  0  0
  -29.9230  -19.9630   20.0820 C   0  0  0  0  0  2  0  0  0  0  0  0
  -29.5680  -18.5550   20.7840 C   0  0  0  0  0  3  0  0  0  0  0  0
  -30.3210  -17.2550   20.2080 C   0  0  0  0  0  3  0  0  0  0  0  0
  -30.6230  -14.6970   20.3370 C   0  0  0  0  0  0  0  0  0  0  0  0
  -30.3420  -12.4530   19.3000 C   0  0  0  0  0  2  0  0  0  0  0  0
  -29.3960  -12.5780   18.0860 C   0  0  0  0  0  2  0  0  0  0  0  0
  -27.9280  -12.4300   18.5280 C   0  0  0  0  0  2  0  0  0  0  0  0
  -27.5850  -13.2980   19.7690 C   0  0  0  0  0  3  0  0  0  0  0  0
  -28.6550  -13.1760   20.8770 C   0  0  0  0  0  2  0  0  0  0  0  0
  -29.9550  -13.4970   20.2760 N   0  0  0  0  0  0  0  0  0  0  0  0
  -31.7880  -14.7810   19.9450 O   0  0  0  0  0  0  0  0  0  0  0  0
  -29.9090  -15.8470   20.6060 N   0  0  0  0  0  0  0  0  0  0  0  0
  -28.9550  -15.7160   20.9080 H   0  0  0  0  0  0  0  0  0  0  0  0
  -25.2040  -13.8960   20.5170 C   0  0  0  0  0  0  0  0  0  0  0  0
  -24.1390  -13.1260   20.8970 C   0  0  0  0  0  0  0  0  0  0  0  0
  -24.5960  -11.7730   20.8600 C   0  0  0  0  0  0  0  0  0  0  0  0
  -26.2430  -13.0140   20.2700 N   0  0  0  0  0  0  0  0  0  0  0  0
  -25.8840  -11.7310   20.5380 N   0  0  0  0  0  0  0  0  0  0  0  0
  -23.8670  -10.5140   21.0570 C   0  0  0  0  0  0  0  0  0  0  0  0
  -24.3130   -9.5350   21.9720 C   0  0  0  0  0  3  0  0  0  0  0  0
  -23.5840   -8.3420   22.1580 C   0  0  0  0  0  3  0  0  0  0  0  0
  -22.3920   -8.1170   21.4280 C   0  0  0  0  0  0  0  0  0  0  0  0
  -21.9640   -9.0830   20.5010 C   0  0  0  0  0  3  0  0  0  0  0  0
  -22.6930  -10.2690   20.3130 C   0  0  0  0  0  3  0  0  0  0  0  0
  -21.6330   -6.9760   21.5240 O   0  0  0  0  0  0  0  0  0  0  0  0
  -21.6180   -6.2150   22.6650 C   0  0  0  0  0  0  0  0  0  0  0  0
  -21.2530   -6.7560   23.9180 C   0  0  0  0  0  3  0  0  0  0  0  0
  -21.1830   -5.9220   25.0520 C   0  0  0  0  0  3  0  0  0  0  0  0
  -21.4680   -4.5490   24.9350 C   0  0  0  0  0  0  0  0  0  0  0  0
  -21.8270   -4.0070   23.6880 C   0  0  0  0  0  3  0  0  0  0  0  0
  -21.8970   -4.8380   22.5550 C   0  0  0  0  0  0  0  0  0  0  0  0
  -22.2230   -4.3070   21.3520 F   0  0  0  0  0  0  0  0  0  0  0  0
  -21.3940   -3.7460   26.0220 F   0  0  0  0  0  0  0  0  0  0  0  0
  -22.7470  -13.6090   21.1820 C   0  0  0  0  0  0  0  0  0  0  0  0
  -22.0250  -12.9180   22.0560 N   0  0  0  0  0  0  0  0  0  0  0  0
  -22.3070  -14.6350   20.6640 O   0  0  0  0  0  0  0  0  0  0  0  0
  -22.3930  -12.0870   22.4970 H   0  0  0  0  0  0  0  0  0  0  0  0
  -21.0900  -13.2220   22.2880 H   0  0  0  0  0  0  0  0  0  0  0  0
  -25.3690  -15.2670   20.3390 N   0  0  0  0  0  0  0  0  0  0  0  0
  -24.6030  -15.9200   20.4570 H   0  0  0  0  0  0  0  0  0  0  0  0
  -26.2090  -15.7050   19.9810 H   0  0  0  0  0  0  0  0  0  0  0  0
  -28.1180  -24.9860   19.8400 C   0  0  0  0  0  2  0  0  0  0  0  0
  -28.2960  -26.4190   20.2380 O   0  0  0  0  0  0  0  0  0  0  0  0
  -24.6070  -31.8790   23.2250 C   0  0  0  0  0  0  0  0  0  0  0  0
  -27.1970  -27.3040   20.1450 C   0  0  0  0  0  0  0  0  0  0  0  0
  -23.3960  -30.4850   21.5880 C   0  0  0  0  0  3  0  0  0  0  0  0
  -24.8390  -28.9430   20.1450 C   0  0  0  0  0  0  0  0  0  0  0  0
  -25.9380  -30.7940   21.4010 C   0  0  0  0  0  2  0  0  0  0  0  0
  -26.0100  -29.4160   20.7480 C   0  0  0  0  0  0  0  0  0  0  0  0
  -27.1900  -28.6060   20.7470 C   0  0  0  0  0  3  0  0  0  0  0  0
  -26.0080  -26.9140   19.4840 C   0  0  0  0  0  3  0  0  0  0  0  0
  -24.8420  -27.6990   19.5030 C   0  0  0  0  0  3  0  0  0  0  0  0
  -23.6030  -29.8180   20.2040 C   0  0  0  0  0  2  0  0  0  0  0  0
  -24.6660  -31.0710   22.1270 N   0  0  0  0  0  0  0  0  0  0  0  0
  -23.5260  -32.1560   23.7640 O   0  0  0  0  0  0  0  0  0  0  0  0
  -22.7370  -29.4640   22.5470 C   0  0  0  0  0  0  0  0  0  0  0  0
  -21.4090  -29.2880   22.4270 N   0  0  0  0  0  0  0  0  0  0  0  0
  -23.4180  -28.8370   23.3630 O   0  0  0  0  0  0  0  0  0  0  0  0
  -20.9180  -29.8430   21.7410 H   0  0  0  0  0  0  0  0  0  0  0  0
  -18.0350  -28.0850   22.9340 C   0  0  0  0  0  0  0  0  0  0  0  0
  -20.5940  -28.3500   23.2010 C   0  0  0  0  0  3  0  0  0  0  0  0
  -20.6980  -26.9180   22.6290 C   0  0  0  0  0  2  0  0  0  0  0  0
  -19.5960  -26.5910   21.6160 C   0  0  0  0  0  2  0  0  0  0  0  0
  -18.2150  -26.7340   22.2600 C   0  0  0  0  0  2  0  0  0  0  0  0
  -19.1530  -28.8500   23.3620 C   0  0  0  0  0  0  0  0  0  0  0  0
  -18.9320  -30.1140   23.9520 C   0  0  0  0  0  3  0  0  0  0  0  0
  -17.6260  -30.6120   24.1190 C   0  0  0  0  0  3  0  0  0  0  0  0
  -16.5230  -29.8440   23.7060 C   0  0  0  0  0  3  0  0  0  0  0  0
  -16.7290  -28.5830   23.1200 C   0  0  0  0  0  3  0  0  0  0  0  0
  -25.8920  -32.5100   23.8430 C   0  0  0  0  0  3  0  0  0  0  0  0
  -26.4190  -31.7320   25.1100 C   0  0  1  0  0  0  0  0  0  0  0  0
  -25.3330  -31.4870   26.1840 C   0  0  0  0  0  1  0  0  0  0  0  0
  -27.0000  -30.3570   24.7060 C   0  0  0  0  0  1  0  0  0  0  0  0
  -27.5740  -32.5220   25.7680 C   0  0  0  0  0  1  0  0  0  0  0  0
  -25.5810  -33.9060   24.1840 N   0  0  0  0  0  0  0  0  0  0  0  0
  -25.8980  -34.9650   23.4270 C   0  0  0  0  0  0  0  0  0  0  0  0
  -26.5520  -34.8710   22.3860 O   0  0  0  0  0  0  0  0  0  0  0  0
  -25.0000  -34.0520   24.9960 H   0  0  0  0  0  0  0  0  0  0  0  0
  -24.1500  -36.7480   23.1180 C   0  0  0  0  0  1  0  0  0  0  0  0
  -25.4120  -36.3490   23.9010 C   0  0  0  0  0  3  0  0  0  0  0  0
  -27.5590  -37.2400   24.6900 C   0  0  0  0  0  1  0  0  0  0  0  0
  -26.4350  -37.4080   23.7720 N   0  0  0  0  0  0  0  0  0  0  0  0
  -26.0260  -38.3250   23.9320 H   0  0  0  0  0  0  0  0  0  0  0  0
  1  2  1  0
  3  4  1  0
  3  5  2  0
  4  1  2  0
  5  6  1  0
  6  2  2  0
  6  7  1  0
  8  5  1  0
  8  9  1  0
 10 19  1  0
 10  9  2  0
 11 19  1  0
 12 17  1  0
 13 14  1  0
 13 12  1  0
 15 14  1  0
 15 24  1  0
 15 16  1  0
 17 11  1  0
 17 16  1  0
 18 11  2  0
 19 20  1  0
 21 22  2  0
 22 41  1  0
 23 22  1  0
 23 26  1  0
 24 21  1  0
 24 25  1  0
 25 23  2  0
 26 27  1  0
 27 28  2  0
 29 32  1  0
 29 28  1  0
 30 29  2  0
 31 30  1  0
 31 26  2  0
 32 33  1  0
 33 34  1  0
 34 35  2  0
 36 35  1  0
 36 40  1  0
 37 36  2  0
 38 33  2  0
 38 37  1  0
 39 38  1  0
 41 42  1  0
 42 45  1  0
 42 44  1  0
 43 41  2  0
 46 47  1  0
 46 21  1  0
 48 46  1  0
 49 50  1  0
 49  4  1  0
 51 62  2  0
 52 50  1  0
 52 57  1  0
 53 61  1  0
 53 63  1  0
 54 60  1  0
 54 56  1  0
 55 61  1  0
 56 55  1  0
 57 56  2  0
 58 59  1  0
 58 52  2  0
 59 54  2  0
 60 53  1  0
 61 51  1  0
 63 65  2  0
 64 63  1  0
 66 64  1  0
 67 76  2  0
 67 72  1  0
 68 64  1  0
 68 72  1  0
 69 68  1  0
 70 71  1  0
 70 69  1  0
 71 67  1  0
 72 73  2  0
 73 74  1  0
 75 74  2  0
 76 75  1  0
 77 51  1  0
 77 82  1  0
 77 78  1  0
 78 81  1  1
 78 79  1  0
 80 78  1  0
 82 85  1  0
 83 87  1  0
 83 82  1  0
 84 83  2  0
 87 86  1  0
 89 87  1  0
 89 90  1  0
 89 88  1  0
M  ISO  4  11 100  19 100  49 101  50 101
M  END
>  <TORSDO>  (28) 
F 20

>  <SCORE>  (28) 
-13.992

>  <name>  (28) 
27

>  <ligand_id>  (28) 
27

>  <original_smiles>  (28) 
[H]c1c([H])c([H])c2c(c1[H])C([H])([H])C([H])([H])C([H])([H])C2([H])N([H])C(=O)C1([H])N(C(=O)C([H])(N([H])C(=O)C([H])(N([H])C([H])([H])[H])C([H])([H])[H])C(C([H])([H])[H])(C([H])([H])[H])C([H])([H])[H])C([H])([H])c2c([H])c(OC([H])([H])c3c([H])c([H])c(F)c(C([H])([H])C([H])([H])C([H])([H])N([H])C(=O)N4C([H])([H])C([H])([H])C([H])([H])C([H])(n5nc(-c6c([H])c([H])c(Oc7c([H])c([H])c(F)c([H])c7F)c([H])c6[H])c(C(=O)N([H])[H])c5N([H])[H])C4([H])[H])c3[H])c([H])c([H])c2C1([H])[H]

>  <smiles>  (28) 
[H]c1c([H])c([H])c2c(c1[H])C([H])([H])C([H])([H])C([H])([H])C2([H])N([H])C(=O)C1([H])N(C(=O)C([H])(N([H])C(=O)C([H])(N([H])C([H])([H])[H])C([H])([H])[H])C(C([H])([H])[H])(C([H])([H])[H])C([H])([H])[H])C([H])([H])c2c([H])c(OC([H])([H])c3c([H])c([H])c(F)c(C([H])([H])C([H])([H])C([H])([H])N([H])C(=O)N4C([H])([H])C([H])([H])C([H])([H])C([H])(n5nc(-c6c([H])c([H])c(Oc7c([H])c([H])c(F)c([H])c7F)c([H])c6[H])c(C(=O)N([H])[H])c5N([H])[H])C4([H])[H])c3[H])c([H])c([H])c2C1([H])[H]

$$$$
28:0:0
     RDKit          3D

 94103  0  0  1  0  0  0  0  0999 V2000
  -28.1520  -17.8160   18.9950 C   0  0  0  0  0  3  0  0  0  0  0  0
  -27.3370  -18.6040   18.1700 C   0  0  0  0  0  3  0  0  0  0  0  0
  -28.8240  -20.0300   20.1310 C   0  0  0  0  0  0  0  0  0  0  0  0
  -27.8200  -20.7400   19.2940 C   0  0  0  0  0  0  0  0  0  0  0  0
  -29.1000  -18.2290   19.9620 C   0  0  0  0  0  0  0  0  0  0  0  0
  -27.2120  -19.9960   18.2360 C   0  0  0  0  0  0  0  0  0  0  0  0
  -29.0570  -21.8020   20.7350 C   0  0  0  0  0  0  0  0  0  0  0  0
  -27.4260  -22.3350   19.4600 C   0  0  0  0  0  0  0  0  0  0  0  0
  -28.2530  -23.2110   20.3830 C   0  0  0  0  0  3  0  0  0  0  0  0
  -30.0450  -21.7740   21.4990 O   0  0  0  0  0  0  0  0  0  0  0  0
  -26.4540  -22.8470   18.9060 O   0  0  0  0  0  0  0  0  0  0  0  0
  -30.0080  -16.5010   20.2100 C   0  0  0  0  0  0  0  0  0  0  0  0
  -30.3720  -13.7980   19.4160 C   0  0  0  0  0  2  0  0  0  0  0  0
  -29.5650  -13.1290   18.2430 C   0  0  0  0  0  2  0  0  0  0  0  0
  -28.1990  -12.5940   18.7050 C   0  0  0  0  0  2  0  0  0  0  0  0
  -27.5860  -13.5820   19.7120 C   0  0  0  0  0  3  0  0  0  0  0  0
  -28.5640  -14.1560   20.7830 C   0  0  0  0  0  2  0  0  0  0  0  0
  -29.6220  -15.0010   20.1130 N   0  0  0  0  0  0  0  0  0  0  0  0
  -31.2650  -16.3750   20.1830 O   0  0  0  0  0  0  0  0  0  0  0  0
  -25.2410  -13.9830   20.5550 C   0  0  0  0  0  0  0  0  0  0  0  0
  -24.2110  -13.1650   20.9180 C   0  0  0  0  0  0  0  0  0  0  0  0
  -24.7210  -11.8340   20.8540 C   0  0  0  0  0  0  0  0  0  0  0  0
  -26.3080  -13.1550   20.2700 N   0  0  0  0  0  0  0  0  0  0  0  0
  -26.0120  -11.8480   20.5120 N   0  0  0  0  0  0  0  0  0  0  0  0
  -24.0200  -10.5500   21.0260 C   0  0  0  0  0  0  0  0  0  0  0  0
  -24.4440   -9.5900   21.9730 C   0  0  0  0  0  3  0  0  0  0  0  0
  -23.7330   -8.3830   22.1410 C   0  0  0  0  0  3  0  0  0  0  0  0
  -22.5820   -8.1220   21.3590 C   0  0  0  0  0  0  0  0  0  0  0  0
  -22.1740   -9.0690   20.4010 C   0  0  0  0  0  3  0  0  0  0  0  0
  -22.8880  -10.2690   20.2320 C   0  0  0  0  0  3  0  0  0  0  0  0
  -21.8480   -6.9630   21.4310 O   0  0  0  0  0  0  0  0  0  0  0  0
  -21.7450   -6.2480   22.5970 C   0  0  0  0  0  0  0  0  0  0  0  0
  -21.1900   -6.8050   23.7690 C   0  0  0  0  0  3  0  0  0  0  0  0
  -21.0420   -6.0120   24.9270 C   0  0  0  0  0  3  0  0  0  0  0  0
  -21.4380   -4.6610   24.9080 C   0  0  0  0  0  0  0  0  0  0  0  0
  -21.9860   -4.1030   23.7410 C   0  0  0  0  0  3  0  0  0  0  0  0
  -22.1370   -4.8940   22.5900 C   0  0  0  0  0  0  0  0  0  0  0  0
  -22.6460   -4.3460   21.4600 F   0  0  0  0  0  0  0  0  0  0  0  0
  -21.2890   -3.8970   26.0140 F   0  0  0  0  0  0  0  0  0  0  0  0
  -22.8060  -13.6060   21.2030 C   0  0  0  0  0  0  0  0  0  0  0  0
  -22.0990  -12.8870   22.0680 N   0  0  0  0  0  0  0  0  0  0  0  0
  -22.3420  -14.6270   20.6950 O   0  0  0  0  0  0  0  0  0  0  0  0
  -22.4930  -12.0660   22.5010 H   0  0  0  0  0  0  0  0  0  0  0  0
  -21.1530  -13.1590   22.3000 H   0  0  0  0  0  0  0  0  0  0  0  0
  -25.3490  -15.3630   20.4050 N   0  0  0  0  0  0  0  0  0  0  0  0
  -24.5360  -15.9520   20.5600 H   0  0  0  0  0  0  0  0  0  0  0  0
  -26.1720  -15.8750   20.1210 H   0  0  0  0  0  0  0  0  0  0  0  0
  -28.1920  -24.9960   20.5980 O   0  0  0  0  0  0  0  0  0  0  0  0
  -24.7770  -31.9490   23.3900 C   0  0  0  0  0  0  0  0  0  0  0  0
  -27.2710  -26.4190   20.5270 C   0  0  0  0  0  0  0  0  0  0  0  0
  -23.6260  -30.5480   21.7430 C   0  0  0  0  0  3  0  0  0  0  0  0
  -25.0840  -28.7720   20.4030 C   0  0  0  0  0  0  0  0  0  0  0  0
  -26.2260  -30.5110   21.7440 C   0  0  0  0  0  2  0  0  0  0  0  0
  -26.2740  -29.0270   21.0960 C   0  0  0  0  0  0  0  0  0  0  0  0
  -27.3250  -27.8900   21.1140 C   0  0  0  0  0  3  0  0  0  0  0  0
  -26.0510  -26.5010   19.7680 C   0  0  0  0  0  3  0  0  0  0  0  0
  -25.0380  -27.5430   19.7180 C   0  0  0  0  0  3  0  0  0  0  0  0
  -23.9090  -29.7970   20.4000 C   0  0  0  0  0  2  0  0  0  0  0  0
  -24.9060  -31.0440   22.3440 N   0  0  0  0  0  0  0  0  0  0  0  0
  -23.6670  -32.2890   23.8450 O   0  0  0  0  0  0  0  0  0  0  0  0
  -22.8280  -29.6300   22.7120 C   0  0  0  0  0  0  0  0  0  0  0  0
  -21.4950  -29.5030   22.5450 N   0  0  0  0  0  0  0  0  0  0  0  0
  -23.4320  -29.0210   23.6000 O   0  0  0  0  0  0  0  0  0  0  0  0
  -21.0570  -30.0400   21.8110 H   0  0  0  0  0  0  0  0  0  0  0  0
  -18.0710  -28.3250   22.9680 C   0  0  0  0  0  0  0  0  0  0  0  0
  -20.6250  -28.5910   23.3020 C   0  0  0  0  0  3  0  0  0  0  0  0
  -20.7350  -27.1460   22.7610 C   0  0  0  0  0  2  0  0  0  0  0  0
  -19.6680  -26.8140   21.7150 C   0  0  0  0  0  2  0  0  0  0  0  0
  -18.2660  -26.9680   22.3120 C   0  0  0  0  0  2  0  0  0  0  0  0
  -19.1770  -29.0950   23.4180 C   0  0  0  0  0  0  0  0  0  0  0  0
  -18.9380  -30.3570   24.0010 C   0  0  0  0  0  3  0  0  0  0  0  0
  -17.6270  -30.8540   24.1370 C   0  0  0  0  0  3  0  0  0  0  0  0
  -16.5360  -30.0830   23.6990 C   0  0  0  0  0  3  0  0  0  0  0  0
  -16.7590  -28.8210   23.1200 C   0  0  0  0  0  3  0  0  0  0  0  0
  -26.0100  -32.6110   24.0740 C   0  0  0  0  0  3  0  0  0  0  0  0
  -26.4450  -31.8770   25.4070 C   0  0  1  0  0  0  0  0  0  0  0  0
  -25.2850  -31.6580   26.4070 C   0  0  0  0  0  1  0  0  0  0  0  0
  -27.0580  -30.4930   25.1080 C   0  0  0  0  0  1  0  0  0  0  0  0
  -27.5440  -32.6910   26.1280 C   0  0  0  0  0  1  0  0  0  0  0  0
  -25.6820  -34.0220   24.3900 N   0  0  0  0  0  0  0  0  0  0  0  0
  -26.0080  -35.0850   23.6440 C   0  0  0  0  0  0  0  0  0  0  0  0
  -26.6620  -34.9860   22.6050 O   0  0  0  0  0  0  0  0  0  0  0  0
  -25.0880  -34.1680   25.1920 H   0  0  0  0  0  0  0  0  0  0  0  0
  -24.2570  -36.8840   23.3940 C   0  0  0  0  0  1  0  0  0  0  0  0
  -25.5450  -36.4790   24.1260 C   0  0  0  0  0  3  0  0  0  0  0  0
  -27.7120  -37.4070   24.8280 C   0  0  0  0  0  1  0  0  0  0  0  0
  -26.5590  -37.5420   23.9420 N   0  0  0  0  0  0  0  0  0  0  0  0
  -26.1470  -38.4590   24.0920 H   0  0  0  0  0  0  0  0  0  0  0  0
  -26.5010  -20.6490   17.0350 C   0  0  0  0  0  2  0  0  0  0  0  0
  -25.0210  -21.0360   17.2510 C   0  0  0  0  0  2  0  0  0  0  0  0
  -24.0740  -19.9400   16.9620 N   0  0  0  0  0  4  0  0  0  0  0  0
  -24.0070  -19.7820   15.9710 H   0  0  0  0  0  0  0  0  0  0  0  0
  -23.1570  -20.1800   17.2850 H   0  0  0  0  0  0  0  0  0  0  0  0
  -24.3440  -19.0890   17.4170 H   0  0  0  0  0  0  0  0  0  0  0  0
  1  5  1  0
  2  6  1  0
  2  1  2  0
  3  7  1  0
  4  8  1  0
  4  3  1  0
  5  3  2  0
  5 12  1  0
  6  4  2  0
  7 10  2  0
  8  9  1  0
  9 48  1  0
  9  7  1  0
 11  8  2  0
 13 18  1  0
 14 15  1  0
 14 13  1  0
 16 15  1  0
 16 23  1  0
 16 17  1  0
 18 12  1  0
 18 17  1  0
 19 12  2  0
 20 21  2  0
 21 40  1  0
 22 21  1  0
 22 25  1  0
 23 24  1  0
 23 20  1  0
 24 22  2  0
 25 26  1  0
 26 27  2  0
 28 31  1  0
 28 27  1  0
 29 28  2  0
 30 29  1  0
 30 25  2  0
 31 32  1  0
 32 33  1  0
 33 34  2  0
 35 34  1  0
 35 39  1  0
 36 35  2  0
 37 32  2  0
 37 36  1  0
 38 37  1  0
 40 41  1  0
 41 44  1  0
 41 43  1  0
 42 40  2  0
 45 20  1  0
 45 46  1  0
 47 45  1  0
 49 60  2  0
 50 48  1  0
 50 55  1  0
 51 59  1  0
 51 61  1  0
 52 54  1  0
 53 59  1  0
 54 55  2  0
 54 53  1  0
 56 50  2  0
 57 56  1  0
 57 52  2  0
 58 52  1  0
 58 51  1  0
 59 49  1  0
 61 63  2  0
 62 61  1  0
 64 62  1  0
 65 74  2  0
 65 70  1  0
 66 62  1  0
 66 70  1  0
 67 66  1  0
 68 69  1  0
 68 67  1  0
 69 65  1  0
 70 71  2  0
 71 72  1  0
 73 72  2  0
 74 73  1  0
 75 49  1  0
 75 80  1  0
 75 76  1  0
 76 79  1  1
 76 77  1  0
 78 76  1  0
 80 83  1  0
 81 85  1  0
 81 80  1  0
 82 81  2  0
 85 84  1  0
 87 88  1  0
 87 85  1  0
 87 86  1  0
 89 90  1  0
 89  6  1  0
 91 90  1  0
 91 93  1  0
 91 94  1  0
 92 91  1  0
M  ISO  4   5 100   9 101  12 100  48 101
M  END
>  <TORSDO>  (29) 
F 19

>  <SCORE>  (29) 
-14.966

>  <name>  (29) 
28

>  <ligand_id>  (29) 
28

>  <original_smiles>  (29) 
[H]c1c([H])c([H])c2c(c1[H])C([H])([H])C([H])([H])C([H])([H])C2([H])N([H])C(=O)C1([H])N(C(=O)C([H])(N([H])C(=O)C([H])(N([H])C([H])([H])[H])C([H])([H])[H])C(C([H])([H])[H])(C([H])([H])[H])C([H])([H])[H])C([H])([H])c2c([H])c(OC3=C([O-])c4c(C(=O)N5C([H])([H])C([H])([H])C([H])([H])C([H])(n6nc(-c7c([H])c([H])c(Oc8c([H])c([H])c(F)c([H])c8F)c([H])c7[H])c(C(=O)N([H])[H])c6N([H])[H])C5([H])[H])c([H])c([H])c(C([H])([H])C([H])([H])[N+]([H])([H])[H])c4C3=O)c([H])c([H])c2C1([H])[H]

>  <smiles>  (29) 
[H]c1c([H])c([H])c2c(c1[H])C([H])([H])C([H])([H])C([H])([H])C2([H])N([H])C(=O)C1([H])N(C(=O)C([H])(N([H])C(=O)C([H])(N([H])C([H])([H])[H])C([H])([H])[H])C(C([H])([H])[H])(C([H])([H])[H])C([H])([H])[H])C([H])([H])c2c([H])c(OC3=C([O-])c4c(C(=O)N5C([H])([H])C([H])([H])C([H])([H])C([H])(n6nc(-c7c([H])c([H])c(Oc8c([H])c([H])c(F)c([H])c8F)c([H])c7[H])c(C(=O)N([H])[H])c6N([H])[H])C5([H])[H])c([H])c([H])c(C([H])([H])C([H])([H])[N+]([H])([H])[H])c4C3=O)c([H])c([H])c2C1([H])[H]

$$$$
29:0:0
     RDKit          3D

 93101  0  0  1  0  0  0  0  0999 V2000
  -27.8140  -22.0520   21.5790 C   0  0  0  0  0  3  0  0  0  0  0  0
  -27.0740  -23.1470   22.0720 C   0  0  0  0  0  3  0  0  0  0  0  0
  -28.8870  -23.6050   20.0580 C   0  0  0  0  0  3  0  0  0  0  0  0
  -28.7660  -22.1940   20.5510 C   0  0  0  0  0  0  0  0  0  0  0  0
  -27.2330  -24.4720   21.6030 C   0  0  0  0  0  0  0  0  0  0  0  0
  -28.1290  -24.7990   20.5440 C   0  0  0  0  0  0  0  0  0  0  0  0
  -31.0780  -21.0690   20.6950 C   0  0  0  0  0  1  0  0  0  0  0  0
  -29.6610  -20.8510   20.1380 C   0  0  0  0  0  3  0  0  0  0  0  0
  -29.2090  -19.3310   20.3990 N   0  0  1  0  0  4  0  0  0  0  0  0
  -28.9840  -19.3400   21.3830 H   0  0  0  0  0  0  0  0  0  0  0  0
  -28.0080  -18.7950   18.2230 C   0  0  0  0  0  1  0  0  0  0  0  0
  -27.9040  -19.0470   19.7400 C   0  0  0  0  0  2  0  0  0  0  0  0
  -30.1930  -18.0670   20.2780 C   0  0  0  0  0  3  0  0  0  0  0  0
  -29.7490  -16.4660   20.6300 C   0  0  0  0  0  3  0  0  0  0  0  0
  -30.6290  -15.0720   20.3700 C   0  0  0  0  0  0  0  0  0  0  0  0
  -30.5710  -12.7040   19.4450 C   0  0  0  0  0  2  0  0  0  0  0  0
  -29.6470  -12.6600   18.2040 C   0  0  0  0  0  2  0  0  0  0  0  0
  -28.1780  -12.4370   18.6180 C   0  0  0  0  0  2  0  0  0  0  0  0
  -27.7540  -13.3580   19.7910 C   0  0  0  0  0  3  0  0  0  0  0  0
  -28.8000  -13.3740   20.9260 C   0  0  0  0  0  2  0  0  0  0  0  0
  -30.0830  -13.7870   20.3450 N   0  0  0  0  0  0  0  0  0  0  0  0
  -31.8210  -15.1650   20.0550 O   0  0  0  0  0  0  0  0  0  0  0  0
  -25.3640  -13.9230   20.5160 C   0  0  0  0  0  0  0  0  0  0  0  0
  -24.3020  -13.1410   20.8810 C   0  0  0  0  0  0  0  0  0  0  0  0
  -24.7770  -11.7940   20.8560 C   0  0  0  0  0  0  0  0  0  0  0  0
  -26.4140  -13.0510   20.2810 N   0  0  0  0  0  0  0  0  0  0  0  0
  -26.0700  -11.7660   20.5530 N   0  0  0  0  0  0  0  0  0  0  0  0
  -24.0570  -10.5270   21.0430 C   0  0  0  0  0  0  0  0  0  0  0  0
  -24.4720   -9.5760   22.0020 C   0  0  0  0  0  3  0  0  0  0  0  0
  -23.7510   -8.3750   22.1770 C   0  0  0  0  0  3  0  0  0  0  0  0
  -22.6020   -8.1160   21.3930 C   0  0  0  0  0  0  0  0  0  0  0  0
  -22.2070   -9.0550   20.4240 C   0  0  0  0  0  3  0  0  0  0  0  0
  -22.9290  -10.2480   20.2470 C   0  0  0  0  0  3  0  0  0  0  0  0
  -21.8550   -6.9650   21.4750 O   0  0  0  0  0  0  0  0  0  0  0  0
  -21.7580   -6.2530   22.6430 C   0  0  0  0  0  0  0  0  0  0  0  0
  -21.2410   -6.8270   23.8250 C   0  0  0  0  0  3  0  0  0  0  0  0
  -21.0950   -6.0380   24.9850 C   0  0  0  0  0  3  0  0  0  0  0  0
  -21.4530   -4.6780   24.9620 C   0  0  0  0  0  0  0  0  0  0  0  0
  -21.9610   -4.1030   23.7830 C   0  0  0  0  0  3  0  0  0  0  0  0
  -22.1100   -4.8880   22.6270 C   0  0  0  0  0  0  0  0  0  0  0  0
  -22.5810   -4.3240   21.4880 F   0  0  0  0  0  0  0  0  0  0  0  0
  -21.3040   -3.9180   26.0720 F   0  0  0  0  0  0  0  0  0  0  0  0
  -22.9000  -13.6090   21.1390 C   0  0  0  0  0  0  0  0  0  0  0  0
  -22.1680  -12.9100   21.9990 N   0  0  0  0  0  0  0  0  0  0  0  0
  -22.4610  -14.6320   20.6130 O   0  0  0  0  0  0  0  0  0  0  0  0
  -22.5350  -12.0830   22.4470 H   0  0  0  0  0  0  0  0  0  0  0  0
  -21.2260  -13.2060   22.2130 H   0  0  0  0  0  0  0  0  0  0  0  0
  -25.5190  -15.2950   20.3360 N   0  0  0  0  0  0  0  0  0  0  0  0
  -24.7410  -15.9380   20.4320 H   0  0  0  0  0  0  0  0  0  0  0  0
  -26.3560  -15.7320   19.9780 H   0  0  0  0  0  0  0  0  0  0  0  0
  -26.5150  -25.4370   22.2470 O   0  0  0  0  0  0  0  0  0  0  0  0
  -25.9450  -25.0920   22.9240 H   0  0  0  0  0  0  0  0  0  0  0  0
  -28.2850  -26.2190   20.1470 O   0  0  0  0  0  0  0  0  0  0  0  0
  -24.6200  -31.8760   23.1920 C   0  0  0  0  0  0  0  0  0  0  0  0
  -27.2350  -27.2140   20.1150 C   0  0  0  0  0  0  0  0  0  0  0  0
  -23.4350  -30.4980   21.5250 C   0  0  0  0  0  3  0  0  0  0  0  0
  -24.9000  -28.9490   20.0840 C   0  0  0  0  0  0  0  0  0  0  0  0
  -25.9880  -30.7750   21.3820 C   0  0  0  0  0  2  0  0  0  0  0  0
  -26.0720  -29.3910   20.7120 C   0  0  0  0  0  0  0  0  0  0  0  0
  -27.2410  -28.5380   20.7150 C   0  0  0  0  0  3  0  0  0  0  0  0
  -26.0450  -26.8790   19.4370 C   0  0  0  0  0  3  0  0  0  0  0  0
  -24.8990  -27.7070   19.4300 C   0  0  0  0  0  3  0  0  0  0  0  0
  -23.6680  -29.8390   20.1390 C   0  0  0  0  0  2  0  0  0  0  0  0
  -24.7010  -31.0710   22.0880 N   0  0  0  0  0  0  0  0  0  0  0  0
  -23.5300  -32.1500   23.7170 O   0  0  0  0  0  0  0  0  0  0  0  0
  -22.7540  -29.4780   22.4690 C   0  0  0  0  0  0  0  0  0  0  0  0
  -21.4260  -29.3110   22.3370 N   0  0  0  0  0  0  0  0  0  0  0  0
  -23.4210  -28.8390   23.2860 O   0  0  0  0  0  0  0  0  0  0  0  0
  -20.9430  -29.8760   21.6520 H   0  0  0  0  0  0  0  0  0  0  0  0
  -18.0350  -28.1350   22.8440 C   0  0  0  0  0  0  0  0  0  0  0  0
  -20.6010  -28.3630   23.0890 C   0  0  0  0  0  3  0  0  0  0  0  0
  -20.6780  -26.9460   22.4750 C   0  0  0  0  0  2  0  0  0  0  0  0
  -19.5630  -26.6630   21.4640 C   0  0  0  0  0  2  0  0  0  0  0  0
  -18.1890  -26.8040   22.1270 C   0  0  0  0  0  2  0  0  0  0  0  0
  -19.1670  -28.8740   23.2820 C   0  0  0  0  0  0  0  0  0  0  0  0
  -18.9670  -30.1200   23.9150 C   0  0  0  0  0  3  0  0  0  0  0  0
  -17.6690  -30.6280   24.1120 C   0  0  0  0  0  3  0  0  0  0  0  0
  -16.5520  -29.8860   23.6880 C   0  0  0  0  0  3  0  0  0  0  0  0
  -16.7370  -28.6420   23.0600 C   0  0  0  0  0  3  0  0  0  0  0  0
  -25.8930  -32.5060   23.8350 C   0  0  0  0  0  3  0  0  0  0  0  0
  -25.5800  -33.9050   24.1680 N   0  0  0  0  0  0  0  0  0  0  0  0
  -25.9210  -34.9640   23.4200 C   0  0  0  0  0  0  0  0  0  0  0  0
  -26.5970  -34.8640   22.3930 O   0  0  0  0  0  0  0  0  0  0  0  0
  -24.9800  -34.0560   24.9640 H   0  0  0  0  0  0  0  0  0  0  0  0
  -24.2060  -36.7710   23.0640 C   0  0  0  0  0  1  0  0  0  0  0  0
  -25.4350  -36.3510   23.8840 C   0  0  0  0  0  3  0  0  0  0  0  0
  -27.5620  -37.2240   24.7480 C   0  0  0  0  0  1  0  0  0  0  0  0
  -26.4740  -37.4010   23.7890 N   0  0  0  0  0  0  0  0  0  0  0  0
  -26.0720  -38.3230   23.9340 H   0  0  0  0  0  0  0  0  0  0  0  0
  -26.3840  -31.7330   25.1210 C   0  0  1  0  0  0  0  0  0  0  0  0
  -25.2730  -31.4970   26.1700 C   0  0  0  0  0  1  0  0  0  0  0  0
  -26.9710  -30.3520   24.7450 C   0  0  0  0  0  1  0  0  0  0  0  0
  -27.5260  -32.5230   25.8050 C   0  0  0  0  0  1  0  0  0  0  0  0
  1  2  1  0
  3  6  2  0
  3  4  1  0
  4  1  2  0
  5  2  2  0
  5 51  1  0
  6  5  1  0
  8  9  1  0
  8  4  1  0
  8  7  1  0
  9 10  1  1
 11 12  1  0
 12  9  1  0
 13  9  1  0
 13 14  2  0
 15 14  1  0
 16 21  1  0
 17 18  1  0
 17 16  1  0
 19 18  1  0
 19 26  1  0
 19 20  1  0
 21 15  1  0
 21 20  1  0
 22 15  2  0
 23 24  2  0
 24 43  1  0
 25 24  1  0
 25 28  1  0
 26 23  1  0
 26 27  1  0
 27 25  2  0
 28 29  1  0
 29 30  2  0
 31 34  1  0
 31 30  1  0
 32 31  2  0
 33 32  1  0
 33 28  2  0
 34 35  1  0
 35 36  1  0
 36 37  2  0
 38 37  1  0
 38 42  1  0
 39 38  2  0
 40 35  2  0
 40 39  1  0
 41 40  1  0
 43 44  1  0
 44 47  1  0
 44 46  1  0
 45 43  2  0
 48 49  1  0
 48 23  1  0
 50 48  1  0
 51 52  1  0
 53  6  1  0
 54 65  2  0
 55 53  1  0
 55 60  1  0
 56 64  1  0
 56 66  1  0
 57 63  1  0
 57 59  1  0
 58 64  1  0
 59 60  2  0
 59 58  1  0
 61 55  2  0
 62 61  1  0
 62 57  2  0
 63 56  1  0
 64 54  1  0
 66 68  2  0
 67 66  1  0
 69 67  1  0
 70 79  2  0
 70 75  1  0
 71 67  1  0
 71 75  1  0
 72 71  1  0
 73 74  1  0
 73 72  1  0
 74 70  1  0
 75 76  2  0
 76 77  1  0
 78 77  2  0
 79 78  1  0
 80 54  1  0
 80 81  1  0
 80 90  1  0
 81 84  1  0
 82 86  1  0
 82 81  1  0
 83 82  2  0
 86 85  1  0
 88 86  1  0
 88 89  1  0
 88 87  1  0
 90 93  1  1
 90 91  1  0
 92 90  1  0
M  ISO  4   6 101  14 100  15 100  53 101
M  END
>  <TORSDO>  (30) 
F 22

>  <SCORE>  (30) 
-14.076

>  <name>  (30) 
29

>  <ligand_id>  (30) 
29

>  <original_smiles>  (30) 
[H]Oc1c([H])c([H])c(C([H])(C([H])([H])[H])[N+]([H])(C([H])([H])C([H])([H])[H])C([H])([H])C([H])([H])C(=O)N2C([H])([H])C([H])([H])C([H])([H])C([H])(n3nc(-c4c([H])c([H])c(Oc5c([H])c([H])c(F)c([H])c5F)c([H])c4[H])c(C(=O)N([H])[H])c3N([H])[H])C2([H])[H])c([H])c1Oc1c([H])c([H])c2c(c1[H])C([H])([H])N(C(=O)C([H])(N([H])C(=O)C([H])(N([H])C([H])([H])[H])C([H])([H])[H])C(C([H])([H])[H])(C([H])([H])[H])C([H])([H])[H])C([H])(C(=O)N([H])C1([H])c3c([H])c([H])c([H])c([H])c3C([H])([H])C([H])([H])C1([H])[H])C2([H])[H]

>  <smiles>  (30) 
[H]Oc1c([H])c([H])c(C([H])(C([H])([H])[H])[N+]([H])(C([H])([H])C([H])([H])[H])C([H])([H])C([H])([H])C(=O)N2C([H])([H])C([H])([H])C([H])([H])C([H])(n3nc(-c4c([H])c([H])c(Oc5c([H])c([H])c(F)c([H])c5F)c([H])c4[H])c(C(=O)N([H])[H])c3N([H])[H])C2([H])[H])c([H])c1Oc1c([H])c([H])c2c(c1[H])C([H])([H])N(C(=O)C([H])(N([H])C(=O)C([H])(N([H])C([H])([H])[H])C([H])([H])[H])C(C([H])([H])[H])(C([H])([H])[H])C([H])([H])[H])C([H])(C(=O)N([H])C1([H])c3c([H])c([H])c([H])c([H])c3C([H])([H])C([H])([H])C1([H])[H])C2([H])[H]

$$$$
30:0:0
     RDKit          3D

 91100  0  0  1  0  0  0  0  0999 V2000
  -29.9000  -22.9480   19.1080 C   0  0  0  0  0  3  0  0  0  0  0  0
  -29.6360  -24.3870   18.9710 C   0  0  0  0  0  3  0  0  0  0  0  0
  -28.0320  -24.2710   20.6450 C   0  0  0  0  0  3  0  0  0  0  0  0
  -29.2630  -22.0430   20.0360 C   0  0  0  0  0  0  0  0  0  0  0  0
  -28.2900  -22.8210   20.7950 C   0  0  0  0  0  0  0  0  0  0  0  0
  -28.6880  -25.1760   19.7260 C   0  0  0  0  0  0  0  0  0  0  0  0
  -31.1580  -15.6930   20.0880 C   0  0  0  0  0  0  0  0  0  0  0  0
  -31.0110  -13.2860   19.2400 C   0  0  0  0  0  2  0  0  0  0  0  0
  -30.0840  -13.1160   18.0180 C   0  0  0  0  0  2  0  0  0  0  0  0
  -28.6340  -12.8760   18.4760 C   0  0  0  0  0  2  0  0  0  0  0  0
  -28.2060  -13.8350   19.6180 C   0  0  0  0  0  3  0  0  0  0  0  0
  -29.2770  -14.0030   20.7190 C   0  0  0  0  0  2  0  0  0  0  0  0
  -30.5010  -14.4490   20.0420 N   0  0  0  0  0  0  0  0  0  0  0  0
  -32.3730  -15.6090   19.8570 O   0  0  0  0  0  0  0  0  0  0  0  0
  -28.7370  -19.1510   20.1960 C   0  0  0  0  0  2  0  0  0  0  0  0
  -30.9220  -19.7500   19.5490 C   0  0  0  0  0  2  0  0  0  0  0  0
  -29.2260  -17.6010   20.5370 C   0  0  0  0  0  2  0  0  0  0  0  0
  -31.4590  -18.2750   20.0000 C   0  0  0  0  0  2  0  0  0  0  0  0
  -29.7150  -20.4210   20.3160 C   0  0  0  0  0  3  0  0  0  0  0  0
  -30.5710  -17.0370   20.1050 N   0  0  0  0  0  0  0  0  0  0  0  0
  -25.8660  -14.3690   20.4840 C   0  0  0  0  0  0  0  0  0  0  0  0
  -24.8130  -13.5790   20.8550 C   0  0  0  0  0  0  0  0  0  0  0  0
  -25.2710  -12.2290   20.7370 C   0  0  0  0  0  0  0  0  0  0  0  0
  -26.8960  -13.5020   20.1600 N   0  0  0  0  0  0  0  0  0  0  0  0
  -26.5500  -12.2060   20.3780 N   0  0  0  0  0  0  0  0  0  0  0  0
  -24.5410  -10.9640   20.8880 C   0  0  0  0  0  0  0  0  0  0  0  0
  -24.9450   -9.9830   21.8220 C   0  0  0  0  0  3  0  0  0  0  0  0
  -24.2140   -8.7850   21.9650 C   0  0  0  0  0  3  0  0  0  0  0  0
  -23.0630   -8.5570   21.1730 C   0  0  0  0  0  0  0  0  0  0  0  0
  -22.6770   -9.5250   20.2300 C   0  0  0  0  0  3  0  0  0  0  0  0
  -23.4090  -10.7160   20.0860 C   0  0  0  0  0  3  0  0  0  0  0  0
  -22.3050   -7.4120   21.2240 O   0  0  0  0  0  0  0  0  0  0  0  0
  -22.1500   -6.7020   22.3880 C   0  0  0  0  0  0  0  0  0  0  0  0
  -21.5780   -7.2810   23.5420 C   0  0  0  0  0  3  0  0  0  0  0  0
  -21.3720   -6.4970   24.6950 C   0  0  0  0  0  3  0  0  0  0  0  0
  -21.7270   -5.1340   24.6930 C   0  0  0  0  0  0  0  0  0  0  0  0
  -22.2910   -4.5550   23.5420 C   0  0  0  0  0  3  0  0  0  0  0  0
  -22.4980   -5.3360   22.3920 C   0  0  0  0  0  0  0  0  0  0  0  0
  -23.0220   -4.7660   21.2790 F   0  0  0  0  0  0  0  0  0  0  0  0
  -21.5240   -4.3790   25.7970 F   0  0  0  0  0  0  0  0  0  0  0  0
  -23.4300  -14.0510   21.1950 C   0  0  0  0  0  0  0  0  0  0  0  0
  -22.7230  -13.3190   22.0470 N   0  0  0  0  0  0  0  0  0  0  0  0
  -22.9870  -15.1050   20.7420 O   0  0  0  0  0  0  0  0  0  0  0  0
  -23.0910  -12.4670   22.4390 H   0  0  0  0  0  0  0  0  0  0  0  0
  -21.7950  -13.6190   22.3120 H   0  0  0  0  0  0  0  0  0  0  0  0
  -26.0210  -15.7460   20.3660 N   0  0  0  0  0  0  0  0  0  0  0  0
  -25.2540  -16.3870   20.5380 H   0  0  0  0  0  0  0  0  0  0  0  0
  -26.8490  -16.2020   20.0060 H   0  0  0  0  0  0  0  0  0  0  0  0
  -25.9760  -22.3800   21.7270 C   0  0  0  0  0  1  0  0  0  0  0  0
  -27.4800  -22.1110   21.8690 C   0  0  0  0  0  2  0  0  0  0  0  0
  -28.6290  -26.6710   19.6510 O   0  0  0  0  0  0  0  0  0  0  0  0
  -24.9500  -31.9160   23.4070 C   0  0  0  0  0  0  0  0  0  0  0  0
  -27.5340  -27.6210   19.7680 C   0  0  0  0  0  0  0  0  0  0  0  0
  -23.7540  -30.7550   21.5890 C   0  0  0  0  0  3  0  0  0  0  0  0
  -25.2060  -29.3810   19.9600 C   0  0  0  0  0  0  0  0  0  0  0  0
  -26.3080  -31.0350   21.4630 C   0  0  0  0  0  2  0  0  0  0  0  0
  -26.3830  -29.7380   20.6290 C   0  0  0  0  0  0  0  0  0  0  0  0
  -27.5440  -28.8770   20.5160 C   0  0  0  0  0  3  0  0  0  0  0  0
  -26.3320  -27.3800   19.0700 C   0  0  0  0  0  3  0  0  0  0  0  0
  -25.1960  -28.2200   19.1660 C   0  0  0  0  0  3  0  0  0  0  0  0
  -23.9780  -30.2680   20.1300 C   0  0  0  0  0  2  0  0  0  0  0  0
  -25.0240  -31.2530   22.2110 N   0  0  0  0  0  0  0  0  0  0  0  0
  -23.8640  -32.1210   23.9700 O   0  0  0  0  0  0  0  0  0  0  0  0
  -23.0780  -29.6260   22.4070 C   0  0  0  0  0  0  0  0  0  0  0  0
  -21.7540  -29.4550   22.2440 N   0  0  0  0  0  0  0  0  0  0  0  0
  -23.7500  -28.9090   23.1520 O   0  0  0  0  0  0  0  0  0  0  0  0
  -21.2670  -30.0880   21.6260 H   0  0  0  0  0  0  0  0  0  0  0  0
  -18.3760  -28.1910   22.6060 C   0  0  0  0  0  0  0  0  0  0  0  0
  -20.9390  -28.4130   22.8770 C   0  0  0  0  0  3  0  0  0  0  0  0
  -21.0310  -27.0830   22.0940 C   0  0  0  0  0  2  0  0  0  0  0  0
  -19.9160  -26.9140   21.0570 C   0  0  0  0  0  2  0  0  0  0  0  0
  -18.5430  -26.9600   21.7320 C   0  0  0  0  0  2  0  0  0  0  0  0
  -19.5010  -28.8830   23.1310 C   0  0  0  0  0  0  0  0  0  0  0  0
  -19.2890  -30.0390   23.9120 C   0  0  0  0  0  3  0  0  0  0  0  0
  -17.9860  -30.5060   24.1700 C   0  0  0  0  0  3  0  0  0  0  0  0
  -16.8770  -29.8100   23.6600 C   0  0  0  0  0  3  0  0  0  0  0  0
  -17.0720  -28.6540   22.8850 C   0  0  0  0  0  3  0  0  0  0  0  0
  -26.2270  -32.4660   24.1150 C   0  0  0  0  0  3  0  0  0  0  0  0
  -25.9210  -33.8210   24.6020 N   0  0  0  0  0  0  0  0  0  0  0  0
  -26.2320  -34.9550   23.9600 C   0  0  0  0  0  0  0  0  0  0  0  0
  -26.8730  -34.9690   22.9060 O   0  0  0  0  0  0  0  0  0  0  0  0
  -25.3470  -33.8820   25.4300 H   0  0  0  0  0  0  0  0  0  0  0  0
  -24.4790  -36.7610   23.8820 C   0  0  0  0  0  1  0  0  0  0  0  0
  -25.7610  -36.2840   24.5840 C   0  0  0  0  0  3  0  0  0  0  0  0
  -27.9240  -37.1090   25.4060 C   0  0  0  0  0  1  0  0  0  0  0  0
  -26.7790  -37.3550   24.5330 N   0  0  0  0  0  0  0  0  0  0  0  0
  -26.3730  -38.2520   24.7880 H   0  0  0  0  0  0  0  0  0  0  0  0
  -26.7150  -31.5540   25.3080 C   0  0  1  0  0  0  0  0  0  0  0  0
  -25.6050  -31.2150   26.3290 C   0  0  0  0  0  1  0  0  0  0  0  0
  -27.2890  -30.2180   24.7820 C   0  0  0  0  0  1  0  0  0  0  0  0
  -27.8660  -32.2550   26.0670 C   0  0  0  0  0  1  0  0  0  0  0  0
  1  4  1  0
  2  1  2  0
  2  6  1  0
  3  5  1  0
  4  5  2  0
  5 50  1  0
  6  3  2  0
  7 20  1  0
  8 13  1  0
  9 10  1  0
  9  8  1  0
 11 10  1  0
 11 24  1  0
 11 12  1  0
 13  7  1  0
 13 12  1  0
 14  7  2  0
 15 19  1  0
 15 17  1  0
 16 18  1  0
 16 19  1  0
 18 20  1  0
 19  4  1  0
 20 17  1  0
 21 22  2  0
 22 41  1  0
 23 22  1  0
 23 26  1  0
 24 25  1  0
 24 21  1  0
 25 23  2  0
 26 27  1  0
 27 28  2  0
 29 32  1  0
 29 28  1  0
 30 29  2  0
 31 30  1  0
 31 26  2  0
 32 33  1  0
 33 38  2  0
 33 34  1  0
 34 35  2  0
 36 35  1  0
 36 40  1  0
 37 36  2  0
 38 37  1  0
 39 38  1  0
 41 42  1  0
 42 45  1  0
 42 44  1  0
 43 41  2  0
 46 21  1  0
 46 47  1  0
 48 46  1  0
 49 50  1  0
 51  6  1  0
 51 53  1  0
 52 63  2  0
 53 58  1  0
 54 62  1  0
 54 64  1  0
 55 61  1  0
 55 57  1  0
 56 62  1  0
 57 56  1  0
 58 57  2  0
 59 60  1  0
 59 53  2  0
 60 55  2  0
 61 54  1  0
 62 52  1  0
 64 66  2  0
 65 64  1  0
 67 65  1  0
 68 77  2  0
 68 73  1  0
 69 65  1  0
 69 73  1  0
 70 69  1  0
 71 72  1  0
 71 70  1  0
 72 68  1  0
 73 74  2  0
 74 75  1  0
 76 75  2  0
 77 76  1  0
 78 52  1  0
 78 79  1  0
 78 88  1  0
 79 82  1  0
 80 84  1  0
 80 79  1  0
 81 80  2  0
 84 83  1  0
 86 84  1  0
 86 87  1  0
 86 85  1  0
 88 91  1  1
 88 89  1  0
 90 88  1  0
M  ISO  4   6 101   7 100  20 100  51 101
M  END
>  <TORSDO>  (31) 
F 17

>  <SCORE>  (31) 
-11.848

>  <name>  (31) 
30

>  <ligand_id>  (31) 
30

>  <original_smiles>  (31) 
[H]c1c([H])c([H])c2c(c1[H])C([H])([H])C([H])([H])C([H])([H])C2([H])N([H])C(=O)C1([H])N(C(=O)C([H])(N([H])C(=O)C([H])(N([H])C([H])([H])[H])C([H])([H])[H])C(C([H])([H])[H])(C([H])([H])[H])C([H])([H])[H])C([H])([H])c2c([H])c(Oc3c([H])c([H])c(C4([H])C([H])([H])C([H])([H])N(C(=O)N5C([H])([H])C([H])([H])C([H])([H])C([H])(n6nc(-c7c([H])c([H])c(Oc8c([H])c([H])c(F)c([H])c8F)c([H])c7[H])c(C(=O)N([H])[H])c6N([H])[H])C5([H])[H])C([H])([H])C4([H])[H])c(C([H])([H])C([H])([H])[H])c3[H])c([H])c([H])c2C1([H])[H]

>  <smiles>  (31) 
[H]c1c([H])c([H])c2c(c1[H])C([H])([H])C([H])([H])C([H])([H])C2([H])N([H])C(=O)C1([H])N(C(=O)C([H])(N([H])C(=O)C([H])(N([H])C([H])([H])[H])C([H])([H])[H])C(C([H])([H])[H])(C([H])([H])[H])C([H])([H])[H])C([H])([H])c2c([H])c(Oc3c([H])c([H])c(C4([H])C([H])([H])C([H])([H])N(C(=O)N5C([H])([H])C([H])([H])C([H])([H])C([H])(n6nc(-c7c([H])c([H])c(Oc8c([H])c([H])c(F)c([H])c8F)c([H])c7[H])c(C(=O)N([H])[H])c6N([H])[H])C5([H])[H])C([H])([H])C4([H])[H])c(C([H])([H])C([H])([H])[H])c3[H])c([H])c([H])c2C1([H])[H]

$$$$
31:0:0
     RDKit          3D

 88 96  0  0  1  0  0  0  0  0999 V2000
  -26.9860  -23.1000   21.8210 C   0  0  0  0  0  3  0  0  0  0  0  0
  -27.7300  -22.0120   21.3070 C   0  0  0  0  0  3  0  0  0  0  0  0
  -27.1930  -24.4400   21.4110 C   0  0  0  0  0  3  0  0  0  0  0  0
  -28.9230  -23.6220   19.9350 C   0  0  0  0  0  3  0  0  0  0  0  0
  -28.7400  -22.1900   20.3410 C   0  0  0  0  0  0  0  0  0  0  0  0
  -28.1590  -24.8020   20.4440 C   0  0  0  0  0  0  0  0  0  0  0  0
  -28.3180  -26.2440   20.1440 O   0  0  0  0  0  0  0  0  0  0  0  0
  -24.6380  -31.9040   23.2100 C   0  0  0  0  0  0  0  0  0  0  0  0
  -27.2550  -27.2260   20.1470 C   0  0  0  0  0  0  0  0  0  0  0  0
  -23.4500  -30.5120   21.5580 C   0  0  0  0  0  3  0  0  0  0  0  0
  -24.9120  -28.9560   20.1230 C   0  0  0  0  0  0  0  0  0  0  0  0
  -26.0020  -30.7950   21.4000 C   0  0  0  0  0  2  0  0  0  0  0  0
  -26.0870  -29.4050   20.7410 C   0  0  0  0  0  0  0  0  0  0  0  0
  -27.2580  -28.5550   20.7390 C   0  0  0  0  0  3  0  0  0  0  0  0
  -26.0590  -26.8850   19.4830 C   0  0  0  0  0  3  0  0  0  0  0  0
  -24.9100  -27.7080   19.4800 C   0  0  0  0  0  3  0  0  0  0  0  0
  -23.6780  -29.8460   20.1750 C   0  0  0  0  0  2  0  0  0  0  0  0
  -24.7170  -31.0930   22.1110 N   0  0  0  0  0  0  0  0  0  0  0  0
  -23.5500  -32.1760   23.7390 O   0  0  0  0  0  0  0  0  0  0  0  0
  -22.7790  -29.4930   22.5140 C   0  0  0  0  0  0  0  0  0  0  0  0
  -21.4530  -29.3050   22.3790 N   0  0  0  0  0  0  0  0  0  0  0  0
  -23.4540  -28.8750   23.3400 O   0  0  0  0  0  0  0  0  0  0  0  0
  -20.9630  -29.8580   21.6890 H   0  0  0  0  0  0  0  0  0  0  0  0
  -18.0940  -28.0240   22.8330 C   0  0  0  0  0  0  0  0  0  0  0  0
  -20.6400  -28.3510   23.1410 C   0  0  0  0  0  3  0  0  0  0  0  0
  -20.7860  -26.9170   22.5810 C   0  0  0  0  0  2  0  0  0  0  0  0
  -19.7090  -26.5570   21.5520 C   0  0  0  0  0  2  0  0  0  0  0  0
  -18.3150  -26.6730   22.1750 C   0  0  0  0  0  2  0  0  0  0  0  0
  -19.1860  -28.8180   23.2750 C   0  0  0  0  0  0  0  0  0  0  0  0
  -18.9240  -30.0780   23.8560 C   0  0  0  0  0  3  0  0  0  0  0  0
  -17.6040  -30.5450   23.9980 C   0  0  0  0  0  3  0  0  0  0  0  0
  -16.5270  -29.7500   23.5690 C   0  0  0  0  0  3  0  0  0  0  0  0
  -16.7730  -28.4900   22.9940 C   0  0  0  0  0  3  0  0  0  0  0  0
  -25.9110  -32.5450   23.8420 C   0  0  0  0  0  3  0  0  0  0  0  0
  -26.4230  -31.7730   25.1200 C   0  0  1  0  0  0  0  0  0  0  0  0
  -25.3240  -31.5290   26.1800 C   0  0  0  0  0  1  0  0  0  0  0  0
  -27.0150  -30.3990   24.7320 C   0  0  0  0  0  1  0  0  0  0  0  0
  -27.5670  -32.5710   25.7890 C   0  0  0  0  0  1  0  0  0  0  0  0
  -25.5880  -33.9400   24.1840 N   0  0  0  0  0  0  0  0  0  0  0  0
  -25.9150  -35.0060   23.4400 C   0  0  0  0  0  0  0  0  0  0  0  0
  -26.5870  -34.9190   22.4090 O   0  0  0  0  0  0  0  0  0  0  0  0
  -24.9910  -34.0800   24.9850 H   0  0  0  0  0  0  0  0  0  0  0  0
  -24.1770  -36.7950   23.1100 C   0  0  0  0  0  1  0  0  0  0  0  0
  -25.4210  -36.3880   23.9140 C   0  0  0  0  0  3  0  0  0  0  0  0
  -27.5530  -37.2770   24.7500 C   0  0  0  0  0  1  0  0  0  0  0  0
  -26.4480  -37.4480   23.8100 N   0  0  0  0  0  0  0  0  0  0  0  0
  -26.0370  -38.3640   23.9660 H   0  0  0  0  0  0  0  0  0  0  0  0
  -29.5360  -20.8290   19.8150 C   0  0  0  0  0  2  0  0  0  0  0  0
  -29.3410  -19.2330   20.3770 C   0  0  0  0  0  3  0  0  0  0  0  0
  -30.1440  -17.8250   19.8250 C   0  0  0  0  0  3  0  0  0  0  0  0
  -30.6180  -15.1050   19.9530 C   0  0  0  0  0  0  0  0  0  0  0  0
  -30.4510  -12.7880   18.8970 C   0  0  0  0  0  2  0  0  0  0  0  0
  -29.4270  -12.7610   17.7360 C   0  0  0  0  0  2  0  0  0  0  0  0
  -27.9940  -12.5240   18.2530 C   0  0  0  0  0  2  0  0  0  0  0  0
  -27.6750  -13.3890   19.4980 C   0  0  0  0  0  3  0  0  0  0  0  0
  -28.8090  -13.3020   20.5390 C   0  0  0  0  0  2  0  0  0  0  0  0
  -30.0210  -13.8310   19.8840 N   0  0  0  0  0  0  0  0  0  0  0  0
  -31.7570  -15.1820   19.4750 O   0  0  0  0  0  0  0  0  0  0  0  0
  -29.0370  -16.2900   21.4800 C   0  0  0  0  0  1  0  0  0  0  0  0
  -29.9040  -16.3170   20.3000 N   0  0  0  0  0  0  0  0  0  0  0  0
  -25.3420  -13.9410   20.3960 C   0  0  0  0  0  0  0  0  0  0  0  0
  -24.3060  -13.1520   20.8140 C   0  0  0  0  0  0  0  0  0  0  0  0
  -24.7710  -11.8040   20.7150 C   0  0  0  0  0  0  0  0  0  0  0  0
  -26.3710  -13.0740   20.0680 N   0  0  0  0  0  0  0  0  0  0  0  0
  -26.0400  -11.7810   20.3210 N   0  0  0  0  0  0  0  0  0  0  0  0
  -24.0610  -10.5330   20.9150 C   0  0  0  0  0  0  0  0  0  0  0  0
  -24.5140   -9.5730   21.8440 C   0  0  0  0  0  3  0  0  0  0  0  0
  -23.8010   -8.3680   22.0330 C   0  0  0  0  0  3  0  0  0  0  0  0
  -22.6230   -8.1180   21.2900 C   0  0  0  0  0  0  0  0  0  0  0  0
  -22.1900   -9.0680   20.3490 C   0  0  0  0  0  3  0  0  0  0  0  0
  -22.9030  -10.2630   20.1580 C   0  0  0  0  0  3  0  0  0  0  0  0
  -21.8800   -6.9650   21.3880 O   0  0  0  0  0  0  0  0  0  0  0  0
  -21.7920   -6.2650   22.5640 C   0  0  0  0  0  0  0  0  0  0  0  0
  -21.3120   -6.8580   23.7520 C   0  0  0  0  0  3  0  0  0  0  0  0
  -21.1720   -6.0830   24.9200 C   0  0  0  0  0  3  0  0  0  0  0  0
  -21.5020   -4.7140   24.9010 C   0  0  0  0  0  0  0  0  0  0  0  0
  -21.9750   -4.1200   23.7180 C   0  0  0  0  0  3  0  0  0  0  0  0
  -22.1170   -4.8930   22.5530 C   0  0  0  0  0  0  0  0  0  0  0  0
  -22.5530   -4.3110   21.4100 F   0  0  0  0  0  0  0  0  0  0  0  0
  -21.3610   -3.9680   26.0210 F   0  0  0  0  0  0  0  0  0  0  0  0
  -22.9290  -13.6170   21.1880 C   0  0  0  0  0  0  0  0  0  0  0  0
  -22.2620  -12.8990   22.0840 N   0  0  0  0  0  0  0  0  0  0  0  0
  -22.4550  -14.6520   20.7220 O   0  0  0  0  0  0  0  0  0  0  0  0
  -22.6600  -12.0610   22.4820 H   0  0  0  0  0  0  0  0  0  0  0  0
  -21.3420  -13.1920   22.3780 H   0  0  0  0  0  0  0  0  0  0  0  0
  -25.4860  -15.3160   20.2420 N   0  0  0  0  0  0  0  0  0  0  0  0
  -24.7220  -15.9610   20.4150 H   0  0  0  0  0  0  0  0  0  0  0  0
  -26.3050  -15.7670   19.8550 H   0  0  0  0  0  0  0  0  0  0  0  0
  2  1  2  0
  3  1  1  0
  4  5  2  0
  4  6  1  0
  5  2  1  0
  6  3  2  0
  7  9  1  0
  7  6  1  0
  8 19  2  0
  9 14  1  0
 10 18  1  0
 10 20  1  0
 11 17  1  0
 11 13  1  0
 12 18  1  0
 13 12  1  0
 14 13  2  0
 15  9  2  0
 16 15  1  0
 16 11  2  0
 17 10  1  0
 18  8  1  0
 20 22  2  0
 21 20  1  0
 23 21  1  0
 24 33  2  0
 24 29  1  0
 25 21  1  0
 25 29  1  0
 26 25  1  0
 27 28  1  0
 27 26  1  0
 28 24  1  0
 29 30  2  0
 30 31  1  0
 32 31  2  0
 33 32  1  0
 34  8  1  0
 34 39  1  0
 34 35  1  0
 35 38  1  1
 35 36  1  0
 37 35  1  0
 39 42  1  0
 40 44  1  0
 40 39  1  0
 41 40  2  0
 44 43  1  0
 46 44  1  0
 46 47  1  0
 46 45  1  0
 48  5  1  0
 48 49  1  0
 50 60  1  0
 50 49  2  0
 51 60  1  0
 52 57  1  0
 53 54  1  0
 53 52  1  0
 55 54  1  0
 55 64  1  0
 55 56  1  0
 57 51  1  0
 57 56  1  0
 58 51  2  0
 60 59  1  0
 61 62  2  0
 62 81  1  0
 63 62  1  0
 63 66  1  0
 64 65  1  0
 64 61  1  0
 65 63  2  0
 66 67  1  0
 67 68  2  0
 69 72  1  0
 69 68  1  0
 70 69  2  0
 71 70  1  0
 71 66  2  0
 72 73  1  0
 73 74  1  0
 74 75  2  0
 76 75  1  0
 76 80  1  0
 77 76  2  0
 78 73  2  0
 78 77  1  0
 79 78  1  0
 81 82  1  0
 82 85  1  0
 82 84  1  0
 83 81  2  0
 86 61  1  0
 86 87  1  0
 88 86  1  0
M  ISO  4   6 101   7 101  51 100  60 100
M  END
>  <TORSDO>  (32) 
F 19

>  <SCORE>  (32) 
-14.800

>  <name>  (32) 
31

>  <ligand_id>  (32) 
31

>  <original_smiles>  (32) 
[H]c1c([H])c(Oc2c([H])c([H])c3c(c2[H])C([H])([H])N(C(=O)C([H])(N([H])C(=O)C([H])(N([H])C([H])([H])[H])C([H])([H])[H])C(C([H])([H])[H])(C([H])([H])[H])C([H])([H])[H])C([H])(C(=O)N([H])C2([H])c4c([H])c([H])c([H])c([H])c4C([H])([H])C([H])([H])C2([H])[H])C3([H])[H])c([H])c(C([H])([H])C([H])([H])C([H])([H])N(C(=O)N2C([H])([H])C([H])([H])C([H])([H])C([H])(n3nc(-c4c([H])c([H])c(Oc5c([H])c([H])c(F)c([H])c5F)c([H])c4[H])c(C(=O)N([H])[H])c3N([H])[H])C2([H])[H])C([H])([H])[H])c1[H]

>  <smiles>  (32) 
[H]c1c([H])c(Oc2c([H])c([H])c3c(c2[H])C([H])([H])N(C(=O)C([H])(N([H])C(=O)C([H])(N([H])C([H])([H])[H])C([H])([H])[H])C(C([H])([H])[H])(C([H])([H])[H])C([H])([H])[H])C([H])(C(=O)N([H])C2([H])c4c([H])c([H])c([H])c([H])c4C([H])([H])C([H])([H])C2([H])[H])C3([H])[H])c([H])c(C([H])([H])C([H])([H])C([H])([H])N(C(=O)N2C([H])([H])C([H])([H])C([H])([H])C([H])(n3nc(-c4c([H])c([H])c(Oc5c([H])c([H])c(F)c([H])c5F)c([H])c4[H])c(C(=O)N([H])[H])c3N([H])[H])C2([H])[H])C([H])([H])[H])c1[H]

$$$$
32:0:0
     RDKit          3D

 91 99  0  0  1  0  0  0  0  0999 V2000
  -30.7370  -24.2770   20.4620 C   0  0  0  0  0  0  0  0  0  0  0  0
  -30.3310  -22.8440   20.8310 C   0  0  0  0  0  2  0  0  0  0  0  0
  -30.0300  -24.9210   19.2710 C   0  0  0  0  0  2  0  0  0  0  0  0
  -27.9350  -23.7980   20.2260 C   0  0  0  0  0  2  0  0  0  0  0  0
  -28.8520  -22.4840   20.5240 C   0  0  0  0  0  3  0  0  0  0  0  0
  -28.5230  -25.1210   19.5200 C   0  0  0  0  0  3  0  0  0  0  0  0
  -31.6290  -24.8640   21.0800 O   0  0  0  0  0  0  0  0  0  0  0  0
  -28.3780  -26.4770   20.1370 O   0  0  0  0  0  0  0  0  0  0  0  0
  -24.5790  -31.8300   23.1280 C   0  0  0  0  0  0  0  0  0  0  0  0
  -27.2340  -27.2930   20.0490 C   0  0  0  0  0  0  0  0  0  0  0  0
  -23.3900  -30.4300   21.4770 C   0  0  0  0  0  3  0  0  0  0  0  0
  -24.8540  -28.8930   20.0400 C   0  0  0  0  0  0  0  0  0  0  0  0
  -25.9250  -30.7650   21.2990 C   0  0  0  0  0  2  0  0  0  0  0  0
  -26.0150  -29.3900   20.6440 C   0  0  0  0  0  0  0  0  0  0  0  0
  -27.2030  -28.5980   20.6380 C   0  0  0  0  0  3  0  0  0  0  0  0
  -26.0500  -26.8510   19.4200 C   0  0  0  0  0  3  0  0  0  0  0  0
  -24.8750  -27.6330   19.4170 C   0  0  0  0  0  3  0  0  0  0  0  0
  -23.6090  -29.7580   20.0940 C   0  0  0  0  0  2  0  0  0  0  0  0
  -24.6500  -31.0290   22.0240 N   0  0  0  0  0  0  0  0  0  0  0  0
  -23.4930  -32.0960   23.6620 O   0  0  0  0  0  0  0  0  0  0  0  0
  -22.7330  -29.4060   22.4330 C   0  0  0  0  0  0  0  0  0  0  0  0
  -21.4020  -29.2480   22.3290 N   0  0  0  0  0  0  0  0  0  0  0  0
  -23.4190  -28.7580   23.2270 O   0  0  0  0  0  0  0  0  0  0  0  0
  -20.9080  -29.8260   21.6640 H   0  0  0  0  0  0  0  0  0  0  0  0
  -18.0170  -28.1000   22.8900 C   0  0  0  0  0  0  0  0  0  0  0  0
  -20.5870  -28.3030   23.0950 C   0  0  0  0  0  3  0  0  0  0  0  0
  -20.6450  -26.8870   22.4780 C   0  0  0  0  0  2  0  0  0  0  0  0
  -19.5090  -26.6130   21.4850 C   0  0  0  0  0  2  0  0  0  0  0  0
  -18.1480  -26.7660   22.1720 C   0  0  0  0  0  2  0  0  0  0  0  0
  -19.1610  -28.8290   23.3100 C   0  0  0  0  0  0  0  0  0  0  0  0
  -18.9830  -30.0790   23.9390 C   0  0  0  0  0  3  0  0  0  0  0  0
  -17.6930  -30.5990   24.1550 C   0  0  0  0  0  3  0  0  0  0  0  0
  -16.5640  -29.8650   23.7540 C   0  0  0  0  0  3  0  0  0  0  0  0
  -16.7270  -28.6180   23.1260 C   0  0  0  0  0  3  0  0  0  0  0  0
  -25.8530  -32.4710   23.7570 C   0  0  0  0  0  3  0  0  0  0  0  0
  -26.3830  -31.6850   25.0210 C   0  0  1  0  0  0  0  0  0  0  0  0
  -25.2980  -31.4100   26.0870 C   0  0  0  0  0  1  0  0  0  0  0  0
  -26.9830  -30.3210   24.6030 C   0  0  0  0  0  1  0  0  0  0  0  0
  -27.5270  -32.4810   25.6920 C   0  0  0  0  0  1  0  0  0  0  0  0
  -25.5260  -33.8600   24.1160 N   0  0  0  0  0  0  0  0  0  0  0  0
  -25.8470  -34.9320   23.3780 C   0  0  0  0  0  0  0  0  0  0  0  0
  -26.5210  -34.8560   22.3480 O   0  0  0  0  0  0  0  0  0  0  0  0
  -24.9250  -33.9890   24.9150 H   0  0  0  0  0  0  0  0  0  0  0  0
  -24.1010  -36.7150   23.0570 C   0  0  0  0  0  1  0  0  0  0  0  0
  -25.3440  -36.3070   23.8630 C   0  0  0  0  0  3  0  0  0  0  0  0
  -27.4670  -37.2000   24.7160 C   0  0  0  0  0  1  0  0  0  0  0  0
  -26.3650  -37.3740   23.7730 N   0  0  0  0  0  0  0  0  0  0  0  0
  -25.9500  -38.2870   23.9360 H   0  0  0  0  0  0  0  0  0  0  0  0
  -28.7570  -21.1430   19.6210 C   0  0  0  0  0  2  0  0  0  0  0  0
  -28.8180  -19.6760   20.2710 C   0  0  0  0  0  0  0  0  0  0  0  0
  -29.6280  -18.6730   19.7780 N   0  0  0  0  0  0  0  0  0  0  0  0
  -28.0190  -19.4170   21.1730 O   0  0  0  0  0  0  0  0  0  0  0  0
  -30.3150  -19.0050   19.1100 H   0  0  0  0  0  0  0  0  0  0  0  0
  -29.3830  -17.1640   19.6950 C   0  0  0  0  0  2  0  0  0  0  0  0
  -30.1240  -16.0740   20.6280 C   0  0  0  0  0  2  0  0  0  0  0  0
  -30.7300  -14.7200   20.0160 C   0  0  0  0  0  0  0  0  0  0  0  0
  -30.4790  -12.4330   19.0320 C   0  0  0  0  0  2  0  0  0  0  0  0
  -29.5210  -12.5260   17.8240 C   0  0  0  0  0  2  0  0  0  0  0  0
  -28.0570  -12.3740   18.2830 C   0  0  0  0  0  2  0  0  0  0  0  0
  -27.7240  -13.2630   19.5080 C   0  0  0  0  0  3  0  0  0  0  0  0
  -28.8040  -13.1690   20.6060 C   0  0  0  0  0  2  0  0  0  0  0  0
  -30.0970  -13.4960   19.9930 N   0  0  0  0  0  0  0  0  0  0  0  0
  -31.8510  -14.8100   19.5050 O   0  0  0  0  0  0  0  0  0  0  0  0
  -25.3600  -13.8660   20.3010 C   0  0  0  0  0  0  0  0  0  0  0  0
  -24.3000  -13.0980   20.7020 C   0  0  0  0  0  0  0  0  0  0  0  0
  -24.7550  -11.7430   20.6600 C   0  0  0  0  0  0  0  0  0  0  0  0
  -26.3900  -12.9800   20.0330 N   0  0  0  0  0  0  0  0  0  0  0  0
  -26.0360  -11.6980   20.3080 N   0  0  0  0  0  0  0  0  0  0  0  0
  -24.0240  -10.4860   20.8740 C   0  0  0  0  0  0  0  0  0  0  0  0
  -24.4650   -9.5230   21.8100 C   0  0  0  0  0  3  0  0  0  0  0  0
  -23.7360   -8.3300   22.0070 C   0  0  0  0  0  3  0  0  0  0  0  0
  -22.5500   -8.0940   21.2690 C   0  0  0  0  0  0  0  0  0  0  0  0
  -22.1310   -9.0440   20.3200 C   0  0  0  0  0  3  0  0  0  0  0  0
  -22.8610  -10.2270   20.1220 C   0  0  0  0  0  3  0  0  0  0  0  0
  -21.7870   -6.9560   21.3790 O   0  0  0  0  0  0  0  0  0  0  0  0
  -21.7380   -6.2320   22.5430 C   0  0  0  0  0  0  0  0  0  0  0  0
  -21.3230   -6.8120   23.7630 C   0  0  0  0  0  3  0  0  0  0  0  0
  -21.2220   -6.0170   24.9220 C   0  0  0  0  0  3  0  0  0  0  0  0
  -21.5220   -4.6430   24.8630 C   0  0  0  0  0  0  0  0  0  0  0  0
  -21.9280   -4.0610   23.6480 C   0  0  0  0  0  3  0  0  0  0  0  0
  -22.0340   -4.8540   22.4920 C   0  0  0  0  0  0  0  0  0  0  0  0
  -22.4080   -4.2860   21.3200 F   0  0  0  0  0  0  0  0  0  0  0  0
  -21.4160   -3.8780   25.9740 F   0  0  0  0  0  0  0  0  0  0  0  0
  -22.9160  -13.5850   21.0190 C   0  0  0  0  0  0  0  0  0  0  0  0
  -22.2110  -12.8900   21.9070 N   0  0  0  0  0  0  0  0  0  0  0  0
  -22.4680  -14.6140   20.5170 O   0  0  0  0  0  0  0  0  0  0  0  0
  -22.5910  -12.0570   22.3300 H   0  0  0  0  0  0  0  0  0  0  0  0
  -21.2840  -13.1930   22.1680 H   0  0  0  0  0  0  0  0  0  0  0  0
  -25.5240  -15.2360   20.1210 N   0  0  0  0  0  0  0  0  0  0  0  0
  -24.7580  -15.8910   20.2370 H   0  0  0  0  0  0  0  0  0  0  0  0
  -26.3650  -15.6670   19.7610 H   0  0  0  0  0  0  0  0  0  0  0  0
  1  2  1  0
  1  7  2  0
  3  6  1  0
  3  1  1  0
  4  5  1  0
  5 49  1  0
  5  2  1  0
  6  8  1  0
  6  4  1  0
  9 20  2  0
 10  8  1  0
 10 15  1  0
 11 19  1  0
 11 21  1  0
 12 18  1  0
 12 14  1  0
 13 19  1  0
 14 13  1  0
 15 14  2  0
 16 10  2  0
 17 16  1  0
 17 12  2  0
 18 11  1  0
 19  9  1  0
 21 23  2  0
 22 21  1  0
 24 22  1  0
 25 34  2  0
 25 30  1  0
 26 22  1  0
 26 30  1  0
 27 26  1  0
 28 29  1  0
 28 27  1  0
 29 25  1  0
 30 31  2  0
 31 32  1  0
 33 32  2  0
 34 33  1  0
 35  9  1  0
 35 40  1  0
 35 36  1  0
 36 39  1  1
 36 37  1  0
 38 36  1  0
 40 43  1  0
 41 45  1  0
 41 40  1  0
 42 41  2  0
 45 44  1  0
 47 45  1  0
 47 48  1  0
 47 46  1  0
 49 50  1  0
 50 52  2  0
 51 50  1  0
 53 51  1  0
 54 51  1  0
 54 55  1  0
 56 55  1  0
 57 62  1  0
 58 59  1  0
 58 57  1  0
 60 59  1  0
 60 67  1  0
 60 61  1  0
 62 56  1  0
 62 61  1  0
 63 56  2  0
 64 65  2  0
 65 84  1  0
 66 65  1  0
 66 69  1  0
 67 64  1  0
 67 68  1  0
 68 66  2  0
 69 70  1  0
 70 71  2  0
 72 75  1  0
 72 71  1  0
 73 72  2  0
 74 73  1  0
 74 69  2  0
 75 76  1  0
 76 77  1  0
 77 78  2  0
 79 78  1  0
 79 83  1  0
 80 79  2  0
 81 76  2  0
 81 80  1  0
 82 81  1  0
 84 85  1  0
 85 88  1  0
 85 87  1  0
 86 84  2  0
 89 90  1  0
 89 64  1  0
 91 89  1  0
M  ISO  4   6 101   8 101  55 100  56 100
M  END
>  <TORSDO>  (33) 
F 20

>  <SCORE>  (33) 
-13.218

>  <name>  (33) 
32

>  <ligand_id>  (33) 
32

>  <original_smiles>  (33) 
[H]c1c([H])c([H])c2c(c1[H])C([H])([H])C([H])([H])C([H])([H])C2([H])N([H])C(=O)C1([H])N(C(=O)C([H])(N([H])C(=O)C([H])(N([H])C([H])([H])[H])C([H])([H])[H])C(C([H])([H])[H])(C([H])([H])[H])C([H])([H])[H])C([H])([H])c2c([H])c(OC3([H])C([H])([H])C(=O)C([H])([H])C([H])(C([H])([H])C(=O)N([H])C([H])([H])C([H])([H])C(=O)N4C([H])([H])C([H])([H])C([H])([H])C([H])(n5nc(-c6c([H])c([H])c(Oc7c([H])c([H])c(F)c([H])c7F)c([H])c6[H])c(C(=O)N([H])[H])c5N([H])[H])C4([H])[H])C3([H])[H])c([H])c([H])c2C1([H])[H]

>  <smiles>  (33) 
[H]c1c([H])c([H])c2c(c1[H])C([H])([H])C([H])([H])C([H])([H])C2([H])N([H])C(=O)C1([H])N(C(=O)C([H])(N([H])C(=O)C([H])(N([H])C([H])([H])[H])C([H])([H])[H])C(C([H])([H])[H])(C([H])([H])[H])C([H])([H])[H])C([H])([H])c2c([H])c(OC3([H])C([H])([H])C(=O)C([H])([H])C([H])(C([H])([H])C(=O)N([H])C([H])([H])C([H])([H])C(=O)N4C([H])([H])C([H])([H])C([H])([H])C([H])(n5nc(-c6c([H])c([H])c(Oc7c([H])c([H])c(F)c([H])c7F)c([H])c6[H])c(C(=O)N([H])[H])c5N([H])[H])C4([H])[H])C3([H])[H])c([H])c([H])c2C1([H])[H]

$$$$
33:0:0
     RDKit          3D

 94103  0  0  1  0  0  0  0  0999 V2000
  -28.8990  -17.6880   19.1470 C   0  0  0  0  0  3  0  0  0  0  0  0
  -29.4520  -19.3790   21.2630 C   0  0  0  0  0  3  0  0  0  0  0  0
  -29.6990  -17.0810   20.2100 C   0  0  0  0  0  0  0  0  0  0  0  0
  -28.4040  -19.0750   19.1490 C   0  0  0  0  0  0  0  0  0  0  0  0
  -28.6880  -19.9550   20.2060 C   0  0  0  0  0  0  0  0  0  0  0  0
  -29.9490  -18.0230   21.2720 C   0  0  0  0  0  0  0  0  0  0  0  0
  -27.4570  -19.7110   18.1000 C   0  0  0  0  0  2  0  0  0  0  0  0
  -28.0690  -21.4360   20.2420 C   0  0  0  0  0  2  0  0  0  0  0  0
  -27.5470  -21.2910   17.8110 C   0  0  0  0  0  2  0  0  0  0  0  0
  -27.8680  -22.2400   18.9440 N   0  0  1  0  0  4  0  0  0  0  0  0
  -28.8190  -22.5000   18.7230 H   0  0  0  0  0  0  0  0  0  0  0  0
  -30.4850  -15.6760   20.1060 C   0  0  0  0  0  0  0  0  0  0  0  0
  -30.5830  -13.2110   19.5450 C   0  0  0  0  0  2  0  0  0  0  0  0
  -29.7110  -12.9060   18.3060 C   0  0  0  0  0  2  0  0  0  0  0  0
  -28.2590  -12.6240   18.7280 C   0  0  0  0  0  2  0  0  0  0  0  0
  -27.7300  -13.6640   19.7510 C   0  0  0  0  0  3  0  0  0  0  0  0
  -28.7340  -13.9610   20.8820 C   0  0  0  0  0  2  0  0  0  0  0  0
  -29.9850  -14.3850   20.2490 N   0  0  0  0  0  0  0  0  0  0  0  0
  -31.6720  -15.7580   19.7680 O   0  0  0  0  0  0  0  0  0  0  0  0
  -25.3520  -14.1320   20.5610 C   0  0  0  0  0  0  0  0  0  0  0  0
  -24.3270  -13.3090   20.9320 C   0  0  0  0  0  0  0  0  0  0  0  0
  -24.8390  -11.9780   20.8550 C   0  0  0  0  0  0  0  0  0  0  0  0
  -26.4190  -13.3000   20.2730 N   0  0  0  0  0  0  0  0  0  0  0  0
  -26.1240  -11.9980   20.5170 N   0  0  0  0  0  0  0  0  0  0  0  0
  -24.1610  -10.6850   21.0290 C   0  0  0  0  0  0  0  0  0  0  0  0
  -24.6040   -9.7390   21.9810 C   0  0  0  0  0  3  0  0  0  0  0  0
  -23.9230   -8.5130   22.1420 C   0  0  0  0  0  3  0  0  0  0  0  0
  -22.7850   -8.2240   21.3510 C   0  0  0  0  0  0  0  0  0  0  0  0
  -22.3620   -9.1590   20.3910 C   0  0  0  0  0  3  0  0  0  0  0  0
  -23.0440  -10.3770   20.2270 C   0  0  0  0  0  3  0  0  0  0  0  0
  -22.0780   -7.0480   21.4200 O   0  0  0  0  0  0  0  0  0  0  0  0
  -21.9430   -6.3580   22.5970 C   0  0  0  0  0  0  0  0  0  0  0  0
  -21.3540   -6.9430   23.7400 C   0  0  0  0  0  3  0  0  0  0  0  0
  -21.1710   -6.1770   24.9080 C   0  0  0  0  0  3  0  0  0  0  0  0
  -21.5620   -4.8240   24.9330 C   0  0  0  0  0  0  0  0  0  0  0  0
  -22.1420   -4.2380   23.7940 C   0  0  0  0  0  3  0  0  0  0  0  0
  -22.3270   -5.0020   22.6280 C   0  0  0  0  0  0  0  0  0  0  0  0
  -22.8650   -4.4260   21.5260 F   0  0  0  0  0  0  0  0  0  0  0  0
  -21.3770   -4.0850   26.0510 F   0  0  0  0  0  0  0  0  0  0  0  0
  -22.9200  -13.7300   21.2440 C   0  0  0  0  0  0  0  0  0  0  0  0
  -22.2430  -12.9960   22.1190 N   0  0  0  0  0  0  0  0  0  0  0  0
  -22.4320  -14.7450   20.7520 O   0  0  0  0  0  0  0  0  0  0  0  0
  -22.6530  -12.1730   22.5370 H   0  0  0  0  0  0  0  0  0  0  0  0
  -21.3020  -13.2610   22.3750 H   0  0  0  0  0  0  0  0  0  0  0  0
  -25.4650  -15.5140   20.4200 N   0  0  0  0  0  0  0  0  0  0  0  0
  -24.6820  -16.1380   20.5770 H   0  0  0  0  0  0  0  0  0  0  0  0
  -26.3080  -15.9970   20.1320 H   0  0  0  0  0  0  0  0  0  0  0  0
  -30.7820  -17.6100   22.4790 C   0  0  0  0  0  2  0  0  0  0  0  0
  -32.1020  -18.3990   22.6220 C   0  0  0  0  0  2  0  0  0  0  0  0
  -32.0870  -20.6650   21.3800 C   0  0  0  0  0  1  0  0  0  0  0  0
  -31.9450  -19.9340   22.7230 C   0  0  0  0  0  2  0  0  0  0  0  0
  -27.1200  -23.6530   19.0600 C   0  0  0  0  0  2  0  0  0  0  0  0
  -27.1550  -24.9110   17.9480 C   0  0  0  0  0  2  0  0  0  0  0  0
  -27.3490  -26.4370   18.2170 O   0  0  0  0  0  0  0  0  0  0  0  0
  -24.6820  -31.4450   22.8630 C   0  0  0  0  0  0  0  0  0  0  0  0
  -26.3490  -27.4300   18.4960 C   0  0  0  0  0  0  0  0  0  0  0  0
  -23.1290  -30.5110   21.1930 C   0  0  0  0  0  3  0  0  0  0  0  0
  -24.1980  -29.2360   19.2330 C   0  0  0  0  0  0  0  0  0  0  0  0
  -25.6380  -30.6890   20.6570 C   0  0  0  0  0  2  0  0  0  0  0  0
  -25.4880  -29.4820   19.7180 C   0  0  0  0  0  0  0  0  0  0  0  0
  -26.5600  -28.5960   19.3370 C   0  0  0  0  0  3  0  0  0  0  0  0
  -25.0380  -27.2930   17.9930 C   0  0  0  0  0  3  0  0  0  0  0  0
  -23.9840  -28.1570   18.3590 C   0  0  0  0  0  3  0  0  0  0  0  0
  -23.0740  -30.1550   19.6820 C   0  0  0  0  0  2  0  0  0  0  0  0
  -24.5140  -30.8910   21.6240 N   0  0  0  0  0  0  0  0  0  0  0  0
  -23.7190  -31.6520   23.6180 O   0  0  0  0  0  0  0  0  0  0  0  0
  -22.5300  -29.3440   22.0180 C   0  0  0  0  0  0  0  0  0  0  0  0
  -21.1910  -29.2100   22.0090 N   0  0  0  0  0  0  0  0  0  0  0  0
  -23.2680  -28.5680   22.6310 O   0  0  0  0  0  0  0  0  0  0  0  0
  -20.6530  -29.8940   21.4960 H   0  0  0  0  0  0  0  0  0  0  0  0
  -17.8590  -27.8940   22.5510 C   0  0  0  0  0  0  0  0  0  0  0  0
  -20.4300  -28.1510   22.6760 C   0  0  0  0  0  3  0  0  0  0  0  0
  -20.4960  -26.8320   21.8750 C   0  0  0  0  0  2  0  0  0  0  0  0
  -19.3250  -26.6550   20.9030 C   0  0  0  0  0  2  0  0  0  0  0  0
  -17.9920  -26.6730   21.6570 C   0  0  0  0  0  2  0  0  0  0  0  0
  -19.0040  -28.5970   23.0160 C   0  0  0  0  0  0  0  0  0  0  0  0
  -18.8240  -29.7430   23.8210 C   0  0  0  0  0  3  0  0  0  0  0  0
  -17.5330  -30.1920   24.1570 C   0  0  0  0  0  3  0  0  0  0  0  0
  -16.4040  -29.4860   23.7080 C   0  0  0  0  0  3  0  0  0  0  0  0
  -16.5700  -28.3370   22.9130 C   0  0  0  0  0  3  0  0  0  0  0  0
  -26.0910  -31.8620   23.3870 C   0  0  0  0  0  3  0  0  0  0  0  0
  -25.9310  -33.0990   24.1710 N   0  0  0  0  0  0  0  0  0  0  0  0
  -26.2660  -34.3230   23.7440 C   0  0  0  0  0  0  0  0  0  0  0  0
  -26.8110  -34.5220   22.6560 O   0  0  0  0  0  0  0  0  0  0  0  0
  -25.4370  -33.0140   25.0480 H   0  0  0  0  0  0  0  0  0  0  0  0
  -24.6890  -36.2400   24.1650 C   0  0  0  0  0  1  0  0  0  0  0  0
  -25.9480  -35.5150   24.6690 C   0  0  0  0  0  3  0  0  0  0  0  0
  -28.2140  -35.9430   25.5100 C   0  0  0  0  0  1  0  0  0  0  0  0
  -27.0620  -36.4820   24.7930 N   0  0  0  0  0  0  0  0  0  0  0  0
  -26.7560  -37.3240   25.2720 H   0  0  0  0  0  0  0  0  0  0  0  0
  -26.7870  -30.7450   24.2600 C   0  0  1  0  0  0  0  0  0  0  0  0
  -25.9020  -30.2060   25.4080 C   0  0  0  0  0  1  0  0  0  0  0  0
  -27.2020  -29.5380   23.3870 C   0  0  0  0  0  1  0  0  0  0  0  0
  -28.0880  -31.3070   24.8790 C   0  0  0  0  0  1  0  0  0  0  0  0
  1  4  2  0
  1  3  1  0
  2  6  1  0
  3  6  2  0
  4  5  1  0
  5  8  1  0
  5  2  2  0
  6 48  1  0
  7  4  1  0
  9  7  1  0
  9 10  1  0
 10 52  1  0
 10  8  1  0
 10 11  1  6
 12  3  1  0
 12 18  1  0
 13 18  1  0
 14 15  1  0
 14 13  1  0
 16 15  1  0
 16 23  1  0
 16 17  1  0
 18 17  1  0
 19 12  2  0
 20 21  2  0
 21 40  1  0
 22 21  1  0
 22 25  1  0
 23 24  1  0
 23 20  1  0
 24 22  2  0
 25 26  1  0
 26 27  2  0
 28 31  1  0
 28 27  1  0
 29 28  2  0
 30 29  1  0
 30 25  2  0
 31 32  1  0
 32 37  2  0
 32 33  1  0
 33 34  2  0
 34 35  1  0
 35 39  1  0
 36 35  2  0
 37 36  1  0
 38 37  1  0
 40 41  1  0
 41 44  1  0
 41 43  1  0
 42 40  2  0
 45 20  1  0
 45 46  1  0
 47 45  1  0
 48 49  1  0
 49 51  1  0
 50 51  1  0
 53 54  1  0
 53 52  1  0
 54 56  1  0
 55 66  2  0
 56 61  1  0
 57 65  1  0
 57 67  1  0
 58 64  1  0
 58 60  1  0
 59 65  1  0
 60 59  1  0
 61 60  2  0
 62 63  1  0
 62 56  2  0
 63 58  2  0
 64 57  1  0
 65 55  1  0
 67 69  2  0
 68 67  1  0
 70 68  1  0
 71 80  2  0
 71 76  1  0
 72 68  1  0
 72 76  1  0
 73 72  1  0
 74 75  1  0
 74 73  1  0
 75 71  1  0
 76 77  2  0
 77 78  1  0
 79 78  2  0
 80 79  1  0
 81 55  1  0
 81 82  1  0
 81 91  1  0
 82 85  1  0
 83 82  1  0
 83 87  1  0
 84 83  2  0
 87 86  1  0
 87 89  1  0
 89 90  1  0
 89 88  1  0
 91 94  1  1
 91 92  1  0
 93 91  1  0
M  ISO  4   3 100  12 100  53 101  54 101
M  END
>  <TORSDO>  (34) 
F 21

>  <SCORE>  (34) 
-10.919

>  <name>  (34) 
33

>  <ligand_id>  (34) 
33

>  <original_smiles>  (34) 
[H]c1c([H])c([H])c2c(c1[H])C([H])([H])C([H])([H])C([H])([H])C2([H])N([H])C(=O)C1([H])N(C(=O)C([H])(N([H])C(=O)C([H])(N([H])C([H])([H])[H])C([H])([H])[H])C(C([H])([H])[H])(C([H])([H])[H])C([H])([H])[H])C([H])([H])c2c([H])c(OC([H])([H])C([H])([H])[N+]3([H])C([H])([H])c4c([H])c(C([H])([H])C([H])([H])C([H])([H])C([H])([H])[H])c(C(=O)N5C([H])([H])C([H])([H])C([H])([H])C([H])(n6nc(-c7c([H])c([H])c(Oc8c([H])c([H])c(F)c([H])c8F)c([H])c7[H])c(C(=O)N([H])[H])c6N([H])[H])C5([H])[H])c([H])c4C([H])([H])C3([H])[H])c([H])c([H])c2C1([H])[H]

>  <smiles>  (34) 
[H]c1c([H])c([H])c2c(c1[H])C([H])([H])C([H])([H])C([H])([H])C2([H])N([H])C(=O)C1([H])N(C(=O)C([H])(N([H])C(=O)C([H])(N([H])C([H])([H])[H])C([H])([H])[H])C(C([H])([H])[H])(C([H])([H])[H])C([H])([H])[H])C([H])([H])c2c([H])c(OC([H])([H])C([H])([H])[N+]3([H])C([H])([H])c4c([H])c(C([H])([H])C([H])([H])C([H])([H])C([H])([H])[H])c(C(=O)N5C([H])([H])C([H])([H])C([H])([H])C([H])(n6nc(-c7c([H])c([H])c(Oc8c([H])c([H])c(F)c([H])c8F)c([H])c7[H])c(C(=O)N([H])[H])c6N([H])[H])C5([H])[H])c([H])c4C([H])([H])C3([H])[H])c([H])c([H])c2C1([H])[H]

$$$$
34:0:0
     RDKit          3D

 91100  0  0  1  0  0  0  0  0999 V2000
  -31.9050  -20.9020   21.2800 C   0  0  0  0  0  2  0  0  0  0  0  0
  -28.4980  -23.0980   19.0810 C   0  0  0  0  0  2  0  0  0  0  0  0
  -28.8300  -23.2550   21.3630 C   0  0  0  0  0  2  0  0  0  0  0  0
  -30.9520  -21.0680   20.0700 C   0  0  0  0  0  2  0  0  0  0  0  0
  -28.5900  -21.3720   19.1900 C   0  0  0  0  0  2  0  0  0  0  0  0
  -28.8760  -21.5460   21.4490 C   0  0  0  0  0  2  0  0  0  0  0  0
  -30.7690  -18.6920   21.8530 C   0  0  0  0  0  2  0  0  0  0  0  0
  -32.1110  -19.4400   21.7230 C   0  0  0  0  0  3  0  0  0  0  0  0
  -29.9790  -18.6780   20.5230 C   0  0  0  0  0  3  0  0  0  0  0  0
  -28.0230  -24.1920   20.2620 C   0  0  0  0  0  3  0  0  0  0  0  0
  -29.5020  -20.5200   20.2910 C   0  0  2  0  0  0  0  0  0  0  0  0
  -32.9360  -19.3630   23.0200 C   0  0  0  0  0  1  0  0  0  0  0  0
  -30.3250  -15.6840   20.1140 C   0  0  0  0  0  0  0  0  0  0  0  0
  -30.3380  -13.2060   19.2140 C   0  0  0  0  0  2  0  0  0  0  0  0
  -29.3880  -12.8820   18.0300 C   0  0  0  0  0  2  0  0  0  0  0  0
  -27.9800  -12.5350   18.5390 C   0  0  0  0  0  2  0  0  0  0  0  0
  -27.5230  -13.5090   19.6510 C   0  0  0  0  0  3  0  0  0  0  0  0
  -28.6020  -13.7640   20.7260 C   0  0  0  0  0  2  0  0  0  0  0  0
  -29.7650  -14.3540   20.0310 N   0  0  0  0  0  0  0  0  0  0  0  0
  -31.5480  -15.6400   19.9020 O   0  0  0  0  0  0  0  0  0  0  0  0
  -29.5990  -17.0220   20.2440 N   0  0  0  0  0  0  0  0  0  0  0  0
  -28.6010  -16.8700   20.2720 H   0  0  0  0  0  0  0  0  0  0  0  0
  -25.1850  -14.0000   20.5260 C   0  0  0  0  0  0  0  0  0  0  0  0
  -24.1500  -13.1980   20.9150 C   0  0  0  0  0  0  0  0  0  0  0  0
  -24.6360  -11.8570   20.8310 C   0  0  0  0  0  0  0  0  0  0  0  0
  -26.2290  -13.1490   20.2150 N   0  0  0  0  0  0  0  0  0  0  0  0
  -25.9140  -11.8510   20.4660 N   0  0  0  0  0  0  0  0  0  0  0  0
  -23.9320  -10.5810   21.0170 C   0  0  0  0  0  0  0  0  0  0  0  0
  -24.3950   -9.6040   21.9260 C   0  0  0  0  0  3  0  0  0  0  0  0
  -23.6870   -8.3960   22.1030 C   0  0  0  0  0  3  0  0  0  0  0  0
  -22.4990   -8.1550   21.3690 C   0  0  0  0  0  0  0  0  0  0  0  0
  -22.0560   -9.1200   20.4480 C   0  0  0  0  0  3  0  0  0  0  0  0
  -22.7660  -10.3190   20.2690 C   0  0  0  0  0  3  0  0  0  0  0  0
  -21.7600   -7.0000   21.4560 O   0  0  0  0  0  0  0  0  0  0  0  0
  -21.7290   -6.2500   22.6050 C   0  0  0  0  0  0  0  0  0  0  0  0
  -21.2820   -6.7860   23.8320 C   0  0  0  0  0  3  0  0  0  0  0  0
  -21.2000   -5.9610   24.9720 C   0  0  0  0  0  3  0  0  0  0  0  0
  -21.5550   -4.6020   24.8860 C   0  0  0  0  0  0  0  0  0  0  0  0
  -21.9950   -4.0650   23.6620 C   0  0  0  0  0  3  0  0  0  0  0  0
  -22.0770   -4.8870   22.5250 C   0  0  0  0  0  0  0  0  0  0  0  0
  -22.4810   -4.3600   21.3430 F   0  0  0  0  0  0  0  0  0  0  0  0
  -21.4710   -3.8060   25.9770 F   0  0  0  0  0  0  0  0  0  0  0  0
  -22.7590  -13.6490   21.2500 C   0  0  0  0  0  0  0  0  0  0  0  0
  -22.0720  -12.9230   22.1250 N   0  0  0  0  0  0  0  0  0  0  0  0
  -22.2910  -14.6810   20.7710 O   0  0  0  0  0  0  0  0  0  0  0  0
  -22.4650  -12.0880   22.5340 H   0  0  0  0  0  0  0  0  0  0  0  0
  -21.1400  -13.2080   22.3910 H   0  0  0  0  0  0  0  0  0  0  0  0
  -25.3190  -15.3780   20.3770 N   0  0  0  0  0  0  0  0  0  0  0  0
  -24.5500  -16.0170   20.5460 H   0  0  0  0  0  0  0  0  0  0  0  0
  -26.1460  -15.8400   20.0210 H   0  0  0  0  0  0  0  0  0  0  0  0
  -28.1080  -25.9020   20.2340 O   0  0  0  0  0  0  0  0  0  0  0  0
  -24.5890  -31.9940   23.2480 C   0  0  0  0  0  0  0  0  0  0  0  0
  -27.0810  -27.0240   20.2100 C   0  0  0  0  0  0  0  0  0  0  0  0
  -23.3660  -30.6050   21.6240 C   0  0  0  0  0  3  0  0  0  0  0  0
  -24.7880  -28.9750   20.1860 C   0  0  0  0  0  0  0  0  0  0  0  0
  -25.9380  -30.7770   21.4520 C   0  0  0  0  0  2  0  0  0  0  0  0
  -25.9920  -29.3590   20.7920 C   0  0  0  0  0  0  0  0  0  0  0  0
  -27.1240  -28.4120   20.7720 C   0  0  0  0  0  3  0  0  0  0  0  0
  -25.8400  -26.8120   19.5590 C   0  0  0  0  0  3  0  0  0  0  0  0
  -24.7450  -27.7230   19.5460 C   0  0  0  0  0  3  0  0  0  0  0  0
  -23.5780  -29.9140   20.2450 C   0  0  0  0  0  2  0  0  0  0  0  0
  -24.6540  -31.1570   22.1590 N   0  0  0  0  0  0  0  0  0  0  0  0
  -23.5050  -32.2910   23.7830 O   0  0  0  0  0  0  0  0  0  0  0  0
  -22.6770  -29.6160   22.6040 C   0  0  0  0  0  0  0  0  0  0  0  0
  -21.3510  -29.4330   22.4790 N   0  0  0  0  0  0  0  0  0  0  0  0
  -23.3480  -29.0150   23.4470 O   0  0  0  0  0  0  0  0  0  0  0  0
  -20.8620  -29.9630   21.7720 H   0  0  0  0  0  0  0  0  0  0  0  0
  -17.9940  -28.1450   22.9730 C   0  0  0  0  0  0  0  0  0  0  0  0
  -20.5430  -28.4910   23.2630 C   0  0  0  0  0  3  0  0  0  0  0  0
  -20.6930  -27.0500   22.7230 C   0  0  0  0  0  2  0  0  0  0  0  0
  -19.6150  -26.6720   21.7040 C   0  0  0  0  0  2  0  0  0  0  0  0
  -18.2190  -26.7900   22.3240 C   0  0  0  0  0  2  0  0  0  0  0  0
  -19.0850  -28.9500   23.3990 C   0  0  0  0  0  0  0  0  0  0  0  0
  -18.8180  -30.2150   23.9680 C   0  0  0  0  0  3  0  0  0  0  0  0
  -17.4950  -30.6740   24.1180 C   0  0  0  0  0  3  0  0  0  0  0  0
  -16.4210  -29.8660   23.7070 C   0  0  0  0  0  3  0  0  0  0  0  0
  -16.6700  -28.6050   23.1370 C   0  0  0  0  0  3  0  0  0  0  0  0
  -25.8670  -32.6360   23.8660 C   0  0  0  0  0  3  0  0  0  0  0  0
  -25.5590  -34.0430   24.1880 N   0  0  0  0  0  0  0  0  0  0  0  0
  -25.8740  -35.0970   23.4250 C   0  0  0  0  0  0  0  0  0  0  0  0
  -26.5170  -34.9930   22.3790 O   0  0  0  0  0  0  0  0  0  0  0  0
  -24.9940  -34.2000   25.0090 H   0  0  0  0  0  0  0  0  0  0  0  0
  -24.1340  -36.8960   23.1410 C   0  0  0  0  0  1  0  0  0  0  0  0
  -25.4050  -36.4900   23.9010 C   0  0  0  0  0  3  0  0  0  0  0  0
  -27.5650  -37.3910   24.6450 C   0  0  0  0  0  1  0  0  0  0  0  0
  -26.4280  -37.5440   23.7410 N   0  0  0  0  0  0  0  0  0  0  0  0
  -26.0230  -38.4640   23.8980 H   0  0  0  0  0  0  0  0  0  0  0  0
  -26.3740  -31.8890   25.1630 C   0  0  1  0  0  0  0  0  0  0  0  0
  -25.2770  -31.6820   26.2330 C   0  0  0  0  0  1  0  0  0  0  0  0
  -26.9550  -30.5010   24.8120 C   0  0  0  0  0  1  0  0  0  0  0  0
  -27.5260  -32.6920   25.8130 C   0  0  0  0  0  1  0  0  0  0  0  0
  1  8  1  0
  2  5  1  0
  2 10  1  0
  3  6  1  0
 11  4  1  6
  4  1  1  0
  8  7  1  0
  8 12  1  0
  9 21  1  0
  9  7  1  0
 10 51  1  0
 10  3  1  0
 11  5  1  0
 11  9  1  0
 11  6  1  0
 13 21  1  0
 14 19  1  0
 15 16  1  0
 15 14  1  0
 17 16  1  0
 17 26  1  0
 17 18  1  0
 19 13  1  0
 19 18  1  0
 20 13  2  0
 21 22  1  0
 23 24  2  0
 24 43  1  0
 25 24  1  0
 25 28  1  0
 26 27  1  0
 26 23  1  0
 27 25  2  0
 28 29  1  0
 29 30  2  0
 31 34  1  0
 31 30  1  0
 32 31  2  0
 33 32  1  0
 33 28  2  0
 34 35  1  0
 35 36  1  0
 36 37  2  0
 38 37  1  0
 38 42  1  0
 39 38  2  0
 40 35  2  0
 40 39  1  0
 41 40  1  0
 43 44  1  0
 44 47  1  0
 44 46  1  0
 45 43  2  0
 48 23  1  0
 48 49  1  0
 50 48  1  0
 52 63  2  0
 53 51  1  0
 53 58  1  0
 54 62  1  0
 54 64  1  0
 55 61  1  0
 55 57  1  0
 56 62  1  0
 57 56  1  0
 58 57  2  0
 59 53  2  0
 60 59  1  0
 60 55  2  0
 61 54  1  0
 62 52  1  0
 64 66  2  0
 65 64  1  0
 67 65  1  0
 68 77  2  0
 68 73  1  0
 69 65  1  0
 69 73  1  0
 70 69  1  0
 71 72  1  0
 71 70  1  0
 72 68  1  0
 73 74  2  0
 74 75  1  0
 76 75  2  0
 77 76  1  0
 78 52  1  0
 78 79  1  0
 78 88  1  0
 79 82  1  0
 80 84  1  0
 80 79  1  0
 81 80  2  0
 84 83  1  0
 86 87  1  0
 86 84  1  0
 86 85  1  0
 88 91  1  1
 88 89  1  0
 90 88  1  0
M  ISO  4  10 101  13 100  21 100  51 101
M  END
>  <TORSDO>  (35) 
F 16

>  <SCORE>  (35) 
-16.186

>  <name>  (35) 
34

>  <ligand_id>  (35) 
34

>  <original_smiles>  (35) 
[H]c1c([H])c([H])c2c(c1[H])C([H])([H])C([H])([H])C([H])([H])C2([H])N([H])C(=O)C1([H])N(C(=O)C([H])(N([H])C(=O)C([H])(N([H])C([H])([H])[H])C([H])([H])[H])C(C([H])([H])[H])(C([H])([H])[H])C([H])([H])[H])C([H])([H])c2c([H])c(OC3([H])C([H])([H])C([H])([H])C4(C([H])([H])C3([H])[H])C([H])([H])C([H])([H])C([H])(C([H])([H])[H])C([H])([H])C4([H])N([H])C(=O)N3C([H])([H])C([H])([H])C([H])([H])C([H])(n4nc(-c5c([H])c([H])c(Oc6c([H])c([H])c(F)c([H])c6F)c([H])c5[H])c(C(=O)N([H])[H])c4N([H])[H])C3([H])[H])c([H])c([H])c2C1([H])[H]

>  <smiles>  (35) 
[H]c1c([H])c([H])c2c(c1[H])C([H])([H])C([H])([H])C([H])([H])C2([H])N([H])C(=O)C1([H])N(C(=O)C([H])(N([H])C(=O)C([H])(N([H])C([H])([H])[H])C([H])([H])[H])C(C([H])([H])[H])(C([H])([H])[H])C([H])([H])[H])C([H])([H])c2c([H])c(OC3([H])C([H])([H])C([H])([H])C4(C([H])([H])C3([H])[H])C([H])([H])C([H])([H])C([H])(C([H])([H])[H])C([H])([H])C4([H])N([H])C(=O)N3C([H])([H])C([H])([H])C([H])([H])C([H])(n4nc(-c5c([H])c([H])c(Oc6c([H])c([H])c(F)c([H])c6F)c([H])c5[H])c(C(=O)N([H])[H])c4N([H])[H])C3([H])[H])c([H])c([H])c2C1([H])[H]

$$$$
35:0:0
     RDKit          3D

 91100  0  0  1  0  0  0  0  0999 V2000
  -28.8280  -22.7360   22.2170 C   0  0  0  0  0  3  0  0  0  0  0  0
  -28.7570  -21.5200   21.5050 C   0  0  0  0  0  3  0  0  0  0  0  0
  -28.7550  -23.9820   21.5550 C   0  0  0  0  0  3  0  0  0  0  0  0
  -28.5430  -22.7930   19.4440 C   0  0  0  0  0  3  0  0  0  0  0  0
  -28.6100  -21.5200   20.1050 C   0  0  0  0  0  0  0  0  0  0  0  0
  -28.6180  -24.0400   20.1520 C   0  0  0  0  0  0  0  0  0  0  0  0
  -28.3860  -20.1850   19.3320 C   0  0  0  0  0  2  0  0  0  0  0  0
  -29.0880  -16.6090   20.8420 C   0  0  0  0  0  3  0  0  0  0  0  0
  -30.6490  -17.0280   19.0630 C   0  0  0  0  0  3  0  0  0  0  0  0
  -28.5800  -17.9380   20.6860 C   0  0  0  0  0  3  0  0  0  0  0  0
  -30.1460  -18.3450   18.9050 C   0  0  0  0  0  3  0  0  0  0  0  0
  -30.1230  -16.1000   20.0060 C   0  0  0  0  0  0  0  0  0  0  0  0
  -29.0850  -18.8310   19.7010 C   0  0  0  0  0  0  0  0  0  0  0  0
  -30.7810  -14.7020   20.0950 C   0  0  0  0  0  0  0  0  0  0  0  0
  -30.4450  -12.4540   19.1500 C   0  0  0  0  0  2  0  0  0  0  0  0
  -29.4980  -12.5800   17.9370 C   0  0  0  0  0  2  0  0  0  0  0  0
  -28.0330  -12.4480   18.3950 C   0  0  0  0  0  2  0  0  0  0  0  0
  -27.7020  -13.3430   19.6190 C   0  0  0  0  0  3  0  0  0  0  0  0
  -28.7810  -13.2400   20.7140 C   0  0  0  0  0  2  0  0  0  0  0  0
  -30.0790  -13.5250   20.1000 N   0  0  0  0  0  0  0  0  0  0  0  0
  -31.9830  -14.6910   19.8220 O   0  0  0  0  0  0  0  0  0  0  0  0
  -25.3430  -13.9510   20.4220 C   0  0  0  0  0  0  0  0  0  0  0  0
  -24.2780  -13.1840   20.8130 C   0  0  0  0  0  0  0  0  0  0  0  0
  -24.7290  -11.8290   20.7630 C   0  0  0  0  0  0  0  0  0  0  0  0
  -26.3700  -13.0630   20.1480 N   0  0  0  0  0  0  0  0  0  0  0  0
  -26.0110  -11.7810   20.4190 N   0  0  0  0  0  0  0  0  0  0  0  0
  -23.9990  -10.5710   20.9660 C   0  0  0  0  0  0  0  0  0  0  0  0
  -24.4410   -9.5980   21.8910 C   0  0  0  0  0  3  0  0  0  0  0  0
  -23.7070   -8.4070   22.0820 C   0  0  0  0  0  3  0  0  0  0  0  0
  -22.5190   -8.1790   21.3480 C   0  0  0  0  0  0  0  0  0  0  0  0
  -22.0960   -9.1400   20.4130 C   0  0  0  0  0  3  0  0  0  0  0  0
  -22.8290  -10.3220   20.2200 C   0  0  0  0  0  3  0  0  0  0  0  0
  -21.7580   -7.0390   21.4490 O   0  0  0  0  0  0  0  0  0  0  0  0
  -21.7130   -6.3010   22.6050 C   0  0  0  0  0  0  0  0  0  0  0  0
  -21.3100   -6.8670   23.8340 C   0  0  0  0  0  3  0  0  0  0  0  0
  -21.2120   -6.0570   24.9840 C   0  0  0  0  0  3  0  0  0  0  0  0
  -21.5060   -4.6830   24.9030 C   0  0  0  0  0  0  0  0  0  0  0  0
  -21.9030   -4.1170   23.6790 C   0  0  0  0  0  3  0  0  0  0  0  0
  -22.0030   -4.9240   22.5320 C   0  0  0  0  0  0  0  0  0  0  0  0
  -22.3650   -4.3700   21.3500 F   0  0  0  0  0  0  0  0  0  0  0  0
  -21.4060   -3.9030   26.0050 F   0  0  0  0  0  0  0  0  0  0  0  0
  -22.8940  -13.6700   21.1260 C   0  0  0  0  0  0  0  0  0  0  0  0
  -22.1860  -12.9740   22.0080 N   0  0  0  0  0  0  0  0  0  0  0  0
  -22.4510  -14.7020   20.6230 O   0  0  0  0  0  0  0  0  0  0  0  0
  -22.5610  -12.1390   22.4320 H   0  0  0  0  0  0  0  0  0  0  0  0
  -21.2590  -13.2790   22.2680 H   0  0  0  0  0  0  0  0  0  0  0  0
  -25.5220  -15.3190   20.2530 N   0  0  0  0  0  0  0  0  0  0  0  0
  -24.7820  -15.9950   20.4030 H   0  0  0  0  0  0  0  0  0  0  0  0
  -26.3920  -15.7410   19.9470 H   0  0  0  0  0  0  0  0  0  0  0  0
  -28.6280  -25.4130   19.4110 C   0  0  0  0  0  2  0  0  0  0  0  0
  -28.4770  -26.6470   20.1930 O   0  0  0  0  0  0  0  0  0  0  0  0
  -24.6400  -31.9090   23.2350 C   0  0  0  0  0  0  0  0  0  0  0  0
  -27.3090  -27.4110   20.1620 C   0  0  0  0  0  0  0  0  0  0  0  0
  -23.4550  -30.5010   21.5910 C   0  0  0  0  0  3  0  0  0  0  0  0
  -24.9200  -28.9710   20.1680 C   0  0  0  0  0  0  0  0  0  0  0  0
  -25.9870  -30.8540   21.4120 C   0  0  0  0  0  2  0  0  0  0  0  0
  -26.0800  -29.4790   20.7630 C   0  0  0  0  0  0  0  0  0  0  0  0
  -27.2740  -28.7080   20.7550 C   0  0  0  0  0  3  0  0  0  0  0  0
  -26.1140  -26.9310   19.5800 C   0  0  0  0  0  3  0  0  0  0  0  0
  -24.9350  -27.6990   19.5730 C   0  0  0  0  0  3  0  0  0  0  0  0
  -23.6760  -29.8300   20.2100 C   0  0  0  0  0  2  0  0  0  0  0  0
  -24.7130  -31.1050   22.1350 N   0  0  0  0  0  0  0  0  0  0  0  0
  -23.5520  -32.1750   23.7660 O   0  0  0  0  0  0  0  0  0  0  0  0
  -22.8030  -29.4750   22.5460 C   0  0  0  0  0  0  0  0  0  0  0  0
  -21.4780  -29.2910   22.4210 N   0  0  0  0  0  0  0  0  0  0  0  0
  -23.4870  -28.8480   23.3600 O   0  0  0  0  0  0  0  0  0  0  0  0
  -20.9860  -29.8460   21.7330 H   0  0  0  0  0  0  0  0  0  0  0  0
  -18.1030  -28.0910   22.9180 C   0  0  0  0  0  0  0  0  0  0  0  0
  -20.6620  -28.3460   23.1860 C   0  0  0  0  0  3  0  0  0  0  0  0
  -20.7620  -26.9190   22.6000 C   0  0  0  0  0  2  0  0  0  0  0  0
  -19.6580  -26.6030   21.5850 C   0  0  0  0  0  2  0  0  0  0  0  0
  -18.2780  -26.7450   22.2330 C   0  0  0  0  0  2  0  0  0  0  0  0
  -19.2240  -28.8500   23.3500 C   0  0  0  0  0  0  0  0  0  0  0  0
  -19.0070  -30.1100   23.9480 C   0  0  0  0  0  3  0  0  0  0  0  0
  -17.7030  -30.6100   24.1200 C   0  0  0  0  0  3  0  0  0  0  0  0
  -16.5960  -29.8480   23.7050 C   0  0  0  0  0  3  0  0  0  0  0  0
  -16.7980  -28.5890   23.1080 C   0  0  0  0  0  3  0  0  0  0  0  0
  -25.9150  -32.5530   23.8620 C   0  0  0  0  0  3  0  0  0  0  0  0
  -26.4300  -31.7900   25.1450 C   0  0  1  0  0  0  0  0  0  0  0  0
  -25.3350  -31.5440   26.2080 C   0  0  0  0  0  1  0  0  0  0  0  0
  -27.0260  -30.4160   24.7580 C   0  0  0  0  0  1  0  0  0  0  0  0
  -27.5680  -32.5970   25.8110 C   0  0  0  0  0  1  0  0  0  0  0  0
  -25.5900  -33.9500   24.1860 N   0  0  0  0  0  0  0  0  0  0  0  0
  -25.9200  -35.0050   23.4280 C   0  0  0  0  0  0  0  0  0  0  0  0
  -26.5990  -34.9040   22.4020 O   0  0  0  0  0  0  0  0  0  0  0  0
  -24.9880  -34.1010   24.9830 H   0  0  0  0  0  0  0  0  0  0  0  0
  -24.1780  -36.7810   23.0650 C   0  0  0  0  0  1  0  0  0  0  0  0
  -25.4200  -36.3890   23.8810 C   0  0  0  0  0  3  0  0  0  0  0  0
  -27.5450  -37.2940   24.7160 C   0  0  0  0  0  1  0  0  0  0  0  0
  -26.4450  -37.4500   23.7690 N   0  0  0  0  0  0  0  0  0  0  0  0
  -26.0310  -38.3670   23.9110 H   0  0  0  0  0  0  0  0  0  0  0  0
  2  1  2  0
  3  1  1  0
  4  5  2  0
  4  6  1  0
  5  2  1  0
  6  3  2  0
  7 13  1  0
  7  5  1  0
  9 12  1  0
 10  8  1  0
 11  9  2  0
 11 13  1  0
 12 14  1  0
 12  8  2  0
 13 10  2  0
 14 20  1  0
 15 20  1  0
 16 17  1  0
 16 15  1  0
 18 17  1  0
 18 25  1  0
 18 19  1  0
 20 19  1  0
 21 14  2  0
 22 23  2  0
 23 42  1  0
 24 23  1  0
 24 27  1  0
 25 26  1  0
 25 22  1  0
 26 24  2  0
 27 28  1  0
 28 29  2  0
 30 33  1  0
 30 29  1  0
 31 30  2  0
 32 31  1  0
 32 27  2  0
 33 34  1  0
 34 35  1  0
 35 36  2  0
 37 36  1  0
 37 41  1  0
 38 37  2  0
 39 34  2  0
 39 38  1  0
 40 39  1  0
 42 43  1  0
 43 46  1  0
 43 45  1  0
 44 42  2  0
 47 48  1  0
 47 22  1  0
 49 47  1  0
 50  6  1  0
 50 51  1  0
 52 63  2  0
 53 51  1  0
 53 58  1  0
 54 62  1  0
 54 64  1  0
 55 61  1  0
 55 57  1  0
 56 62  1  0
 57 56  1  0
 58 57  2  0
 59 53  2  0
 60 59  1  0
 60 55  2  0
 61 54  1  0
 62 52  1  0
 64 66  2  0
 65 64  1  0
 67 65  1  0
 68 77  2  0
 68 73  1  0
 69 65  1  0
 69 73  1  0
 70 69  1  0
 71 72  1  0
 71 70  1  0
 72 68  1  0
 73 74  2  0
 74 75  1  0
 76 75  2  0
 77 76  1  0
 78 52  1  0
 78 83  1  0
 78 79  1  0
 79 82  1  1
 79 80  1  0
 81 79  1  0
 83 86  1  0
 84 88  1  0
 84 83  1  0
 85 84  2  0
 88 87  1  0
 90 88  1  0
 90 91  1  0
 90 89  1  0
M  ISO  4  12 100  14 100  50 101  51 101
M  END
>  <TORSDO>  (36) 
F 19

>  <SCORE>  (36) 
-14.485

>  <name>  (36) 
35

>  <ligand_id>  (36) 
35

>  <original_smiles>  (36) 
[H]c1c([H])c(C([H])([H])Oc2c([H])c([H])c3c(c2[H])C([H])([H])N(C(=O)C([H])(N([H])C(=O)C([H])(N([H])C([H])([H])[H])C([H])([H])[H])C(C([H])([H])[H])(C([H])([H])[H])C([H])([H])[H])C([H])(C(=O)N([H])C2([H])c4c([H])c([H])c([H])c([H])c4C([H])([H])C([H])([H])C2([H])[H])C3([H])[H])c([H])c(C([H])([H])c2c([H])c([H])c(C(=O)N3C([H])([H])C([H])([H])C([H])([H])C([H])(n4nc(-c5c([H])c([H])c(Oc6c([H])c([H])c(F)c([H])c6F)c([H])c5[H])c(C(=O)N([H])[H])c4N([H])[H])C3([H])[H])c([H])c2[H])c1[H]

>  <smiles>  (36) 
[H]c1c([H])c(C([H])([H])Oc2c([H])c([H])c3c(c2[H])C([H])([H])N(C(=O)C([H])(N([H])C(=O)C([H])(N([H])C([H])([H])[H])C([H])([H])[H])C(C([H])([H])[H])(C([H])([H])[H])C([H])([H])[H])C([H])(C(=O)N([H])C2([H])c4c([H])c([H])c([H])c([H])c4C([H])([H])C([H])([H])C2([H])[H])C3([H])[H])c([H])c(C([H])([H])c2c([H])c([H])c(C(=O)N3C([H])([H])C([H])([H])C([H])([H])C([H])(n4nc(-c5c([H])c([H])c(Oc6c([H])c([H])c(F)c([H])c6F)c([H])c5[H])c(C(=O)N([H])[H])c4N([H])[H])C3([H])[H])c([H])c2[H])c1[H]

$$$$
36:0:0
     RDKit          3D

 93102  0  0  1  0  0  0  0  0999 V2000
  -28.5640  -25.1350   18.2490 C   0  0  0  0  0  3  0  0  0  0  0  0
  -28.7380  -23.8560   17.6870 C   0  0  0  0  0  3  0  0  0  0  0  0
  -28.6530  -24.1340   20.4610 C   0  0  0  0  0  3  0  0  0  0  0  0
  -28.8420  -22.8180   19.9090 C   0  0  0  0  0  0  0  0  0  0  0  0
  -28.5060  -25.3040   19.6460 C   0  0  0  0  0  0  0  0  0  0  0  0
  -28.8760  -22.7120   18.4980 C   0  0  0  0  0  0  0  0  0  0  0  0
  -29.0400  -21.5190   17.8870 F   0  0  0  0  0  0  0  0  0  0  0  0
  -28.4160  -26.6020   20.1650 O   0  0  0  0  0  0  0  0  0  0  0  0
  -24.6370  -31.8780   23.2090 C   0  0  0  0  0  0  0  0  0  0  0  0
  -27.2540  -27.3730   20.1210 C   0  0  0  0  0  0  0  0  0  0  0  0
  -23.4240  -30.4840   21.5670 C   0  0  0  0  0  3  0  0  0  0  0  0
  -24.8690  -28.9360   20.1350 C   0  0  0  0  0  0  0  0  0  0  0  0
  -25.9560  -30.8170   21.3700 C   0  0  0  0  0  2  0  0  0  0  0  0
  -26.0340  -29.4410   20.7230 C   0  0  0  0  0  0  0  0  0  0  0  0
  -27.2250  -28.6670   20.7110 C   0  0  0  0  0  3  0  0  0  0  0  0
  -26.0630  -26.8970   19.5260 C   0  0  0  0  0  3  0  0  0  0  0  0
  -24.8810  -27.6660   19.5330 C   0  0  0  0  0  3  0  0  0  0  0  0
  -23.6310  -29.8060   20.1860 C   0  0  0  0  0  2  0  0  0  0  0  0
  -24.6910  -31.0760   22.1060 N   0  0  0  0  0  0  0  0  0  0  0  0
  -23.5570  -32.1530   23.7510 O   0  0  0  0  0  0  0  0  0  0  0  0
  -22.7660  -29.4660   22.5280 C   0  0  0  0  0  0  0  0  0  0  0  0
  -21.4410  -29.2890   22.4020 N   0  0  0  0  0  0  0  0  0  0  0  0
  -23.4470  -28.8400   23.3450 O   0  0  0  0  0  0  0  0  0  0  0  0
  -20.9520  -29.8470   21.7150 H   0  0  0  0  0  0  0  0  0  0  0  0
  -18.0630  -28.0980   22.8980 C   0  0  0  0  0  0  0  0  0  0  0  0
  -20.6210  -28.3510   23.1700 C   0  0  0  0  0  3  0  0  0  0  0  0
  -20.7210  -26.9210   22.5900 C   0  0  0  0  0  2  0  0  0  0  0  0
  -19.6190  -26.6030   21.5760 C   0  0  0  0  0  2  0  0  0  0  0  0
  -18.2370  -26.7500   22.2200 C   0  0  0  0  0  2  0  0  0  0  0  0
  -19.1830  -28.8580   23.3300 C   0  0  0  0  0  0  0  0  0  0  0  0
  -18.9670  -30.1200   23.9230 C   0  0  0  0  0  3  0  0  0  0  0  0
  -17.6640  -30.6240   24.0910 C   0  0  0  0  0  3  0  0  0  0  0  0
  -16.5580  -29.8610   23.6760 C   0  0  0  0  0  3  0  0  0  0  0  0
  -16.7590  -28.6020   23.0850 C   0  0  0  0  0  3  0  0  0  0  0  0
  -25.9250  -32.5040   23.8290 C   0  0  0  0  0  3  0  0  0  0  0  0
  -25.6200  -33.9020   24.1660 N   0  0  0  0  0  0  0  0  0  0  0  0
  -25.9550  -34.9560   23.4110 C   0  0  0  0  0  0  0  0  0  0  0  0
  -26.6220  -34.8540   22.3780 O   0  0  0  0  0  0  0  0  0  0  0  0
  -25.0260  -34.0540   24.9690 H   0  0  0  0  0  0  0  0  0  0  0  0
  -24.2360  -36.7600   23.0640 C   0  0  0  0  0  1  0  0  0  0  0  0
  -25.4740  -36.3440   23.8760 C   0  0  0  0  0  3  0  0  0  0  0  0
  -27.6090  -37.2170   24.7180 C   0  0  0  0  0  1  0  0  0  0  0  0
  -26.5120  -37.3930   23.7700 N   0  0  0  0  0  0  0  0  0  0  0  0
  -26.1090  -38.3140   23.9180 H   0  0  0  0  0  0  0  0  0  0  0  0
  -26.4440  -31.7270   25.1010 C   0  0  1  0  0  0  0  0  0  0  0  0
  -25.3530  -31.4900   26.1730 C   0  0  0  0  0  1  0  0  0  0  0  0
  -27.0210  -30.3490   24.7020 C   0  0  0  0  0  1  0  0  0  0  0  0
  -27.5990  -32.5150   25.7640 C   0  0  0  0  0  1  0  0  0  0  0  0
  -28.9580  -21.5670   20.8450 C   0  0  0  0  0  2  0  0  0  0  0  0
  -28.5950  -19.2230   19.6160 C   0  0  0  0  0  2  0  0  0  0  0  0
  -30.2060  -19.3800   21.5530 C   0  0  0  0  0  2  0  0  0  0  0  0
  -28.5540  -17.7360   20.0930 C   0  0  0  0  0  2  0  0  0  0  0  0
  -30.8090  -17.9760   21.2030 C   0  0  0  0  0  2  0  0  0  0  0  0
  -29.5800  -20.1770   20.3670 C   0  0  0  0  0  3  0  0  0  0  0  0
  -29.9470  -17.0780   20.2670 C   0  0  0  0  0  3  0  0  0  0  0  0
  -30.6120  -14.5900   20.3580 C   0  0  0  0  0  0  0  0  0  0  0  0
  -30.3780  -12.3630   19.3010 C   0  0  0  0  0  2  0  0  0  0  0  0
  -29.4310  -12.5130   18.0890 C   0  0  0  0  0  2  0  0  0  0  0  0
  -27.9580  -12.3660   18.5240 C   0  0  0  0  0  2  0  0  0  0  0  0
  -27.6120  -13.2300   19.7660 C   0  0  0  0  0  3  0  0  0  0  0  0
  -28.6720  -13.0570   20.8780 C   0  0  0  0  0  2  0  0  0  0  0  0
  -29.9870  -13.3760   20.3010 N   0  0  0  0  0  0  0  0  0  0  0  0
  -31.7570  -14.7540   19.9280 O   0  0  0  0  0  0  0  0  0  0  0  0
  -29.8200  -15.6470   20.6890 N   0  0  0  0  0  0  0  0  0  0  0  0
  -28.9170  -15.3850   21.0530 H   0  0  0  0  0  0  0  0  0  0  0  0
  -25.2230  -13.8430   20.4950 C   0  0  0  0  0  0  0  0  0  0  0  0
  -24.1550  -13.0750   20.8710 C   0  0  0  0  0  0  0  0  0  0  0  0
  -24.6100  -11.7220   20.8350 C   0  0  0  0  0  0  0  0  0  0  0  0
  -26.2620  -12.9570   20.2550 N   0  0  0  0  0  0  0  0  0  0  0  0
  -25.8970  -11.6760   20.5190 N   0  0  0  0  0  0  0  0  0  0  0  0
  -23.8780  -10.4630   21.0290 C   0  0  0  0  0  0  0  0  0  0  0  0
  -24.3070   -9.4960   21.9650 C   0  0  0  0  0  3  0  0  0  0  0  0
  -23.5770   -8.3010   22.1460 C   0  0  0  0  0  3  0  0  0  0  0  0
  -22.4040   -8.0650   21.3900 C   0  0  0  0  0  0  0  0  0  0  0  0
  -21.9950   -9.0200   20.4420 C   0  0  0  0  0  3  0  0  0  0  0  0
  -22.7260  -10.2070   20.2610 C   0  0  0  0  0  3  0  0  0  0  0  0
  -21.6480   -6.9230   21.4800 O   0  0  0  0  0  0  0  0  0  0  0  0
  -21.5860   -6.1880   22.6370 C   0  0  0  0  0  0  0  0  0  0  0  0
  -21.1340   -6.7480   23.8510 C   0  0  0  0  0  3  0  0  0  0  0  0
  -21.0220   -5.9390   25.0000 C   0  0  0  0  0  3  0  0  0  0  0  0
  -21.3510   -4.5710   24.9340 C   0  0  0  0  0  0  0  0  0  0  0  0
  -21.7960   -4.0110   23.7240 C   0  0  0  0  0  3  0  0  0  0  0  0
  -21.9110   -4.8180   22.5770 C   0  0  0  0  0  0  0  0  0  0  0  0
  -22.3200   -4.2680   21.4080 F   0  0  0  0  0  0  0  0  0  0  0  0
  -21.2350   -3.7920   26.0350 F   0  0  0  0  0  0  0  0  0  0  0  0
  -22.7610  -13.5590   21.1520 C   0  0  0  0  0  0  0  0  0  0  0  0
  -22.0340  -12.8670   22.0220 N   0  0  0  0  0  0  0  0  0  0  0  0
  -22.3250  -14.5870   20.6340 O   0  0  0  0  0  0  0  0  0  0  0  0
  -22.3990  -12.0370   22.4650 H   0  0  0  0  0  0  0  0  0  0  0  0
  -21.0990  -13.1730   22.2490 H   0  0  0  0  0  0  0  0  0  0  0  0
  -25.3920  -15.2130   20.3180 N   0  0  0  0  0  0  0  0  0  0  0  0
  -24.6240  -15.8670   20.4300 H   0  0  0  0  0  0  0  0  0  0  0  0
  -26.2350  -15.6490   19.9680 H   0  0  0  0  0  0  0  0  0  0  0  0
  1  5  1  0
  2  1  2  0
  2  6  1  0
  4  3  1  0
  4 49  1  0
  5  8  1  0
  5  3  2  0
  6  4  2  0
  7  6  1  0
  9 20  2  0
 10  8  1  0
 10 15  1  0
 11 19  1  0
 11 21  1  0
 12 18  1  0
 12 14  1  0
 13 19  1  0
 14 13  1  0
 15 14  2  0
 16 17  1  0
 16 10  2  0
 17 12  2  0
 18 11  1  0
 19  9  1  0
 21 23  2  0
 22 21  1  0
 24 22  1  0
 25 34  2  0
 25 30  1  0
 26 22  1  0
 26 30  1  0
 27 26  1  0
 28 29  1  0
 28 27  1  0
 29 25  1  0
 30 31  2  0
 31 32  1  0
 33 32  2  0
 34 33  1  0
 35  9  1  0
 35 36  1  0
 35 45  1  0
 36 39  1  0
 37 41  1  0
 37 36  1  0
 38 37  2  0
 41 40  1  0
 43 41  1  0
 43 44  1  0
 43 42  1  0
 45 48  1  1
 45 46  1  0
 47 45  1  0
 50 52  1  0
 50 54  1  0
 52 55  1  0
 53 51  1  0
 54 49  1  0
 54 51  1  0
 55 64  1  0
 55 53  1  0
 56 64  1  0
 57 62  1  0
 58 59  1  0
 58 57  1  0
 60 59  1  0
 60 69  1  0
 60 61  1  0
 62 56  1  0
 62 61  1  0
 63 56  2  0
 64 65  1  0
 66 67  2  0
 67 86  1  0
 68 67  1  0
 68 71  1  0
 69 66  1  0
 69 70  1  0
 70 68  2  0
 71 72  1  0
 72 73  2  0
 74 77  1  0
 74 73  1  0
 75 74  2  0
 76 75  1  0
 76 71  2  0
 77 78  1  0
 78 79  1  0
 79 80  2  0
 81 80  1  0
 81 85  1  0
 82 81  2  0
 83 78  2  0
 83 82  1  0
 84 83  1  0
 86 87  1  0
 87 90  1  0
 87 89  1  0
 88 86  2  0
 91 92  1  0
 91 66  1  0
 93 91  1  0
M  ISO  4   5 101   8 101  56 100  64 100
M  END
>  <TORSDO>  (37) 
F 18

>  <SCORE>  (37) 
-14.767

>  <name>  (37) 
36

>  <ligand_id>  (37) 
36

>  <original_smiles>  (37) 
[H]c1c([H])c([H])c2c(c1[H])C([H])([H])C([H])([H])C([H])([H])C2([H])N([H])C(=O)C1([H])N(C(=O)C([H])(N([H])C(=O)C([H])(N([H])C([H])([H])[H])C([H])([H])[H])C(C([H])([H])[H])(C([H])([H])[H])C([H])([H])[H])C([H])([H])c2c([H])c(Oc3c([H])c([H])c(F)c(C([H])([H])C4([H])C([H])([H])C([H])([H])C([H])(N([H])C(=O)N5C([H])([H])C([H])([H])C([H])([H])C([H])(n6nc(-c7c([H])c([H])c(Oc8c([H])c([H])c(F)c([H])c8F)c([H])c7[H])c(C(=O)N([H])[H])c6N([H])[H])C5([H])[H])C([H])([H])C4([H])[H])c3[H])c([H])c([H])c2C1([H])[H]

>  <smiles>  (37) 
[H]c1c([H])c([H])c2c(c1[H])C([H])([H])C([H])([H])C([H])([H])C2([H])N([H])C(=O)C1([H])N(C(=O)C([H])(N([H])C(=O)C([H])(N([H])C([H])([H])[H])C([H])([H])[H])C(C([H])([H])[H])(C([H])([H])[H])C([H])([H])[H])C([H])([H])c2c([H])c(Oc3c([H])c([H])c(F)c(C([H])([H])C4([H])C([H])([H])C([H])([H])C([H])(N([H])C(=O)N5C([H])([H])C([H])([H])C([H])([H])C([H])(n6nc(-c7c([H])c([H])c(Oc8c([H])c([H])c(F)c([H])c8F)c([H])c7[H])c(C(=O)N([H])[H])c6N([H])[H])C5([H])[H])C([H])([H])C4([H])[H])c3[H])c([H])c([H])c2C1([H])[H]

$$$$
37:0:0
     RDKit          3D

 95104  0  0  1  0  0  0  0  0999 V2000
  -31.6770  -23.7240   21.6330 C   0  0  0  0  0  3  0  0  0  0  0  0
  -31.0590  -22.5170   21.2560 C   0  0  0  0  0  3  0  0  0  0  0  0
  -29.1710  -23.7860   20.3720 C   0  0  0  0  0  3  0  0  0  0  0  0
  -31.0430  -24.9560   21.3970 C   0  0  0  0  0  0  0  0  0  0  0  0
  -29.7940  -25.0230   20.7370 C   0  0  0  0  0  0  0  0  0  0  0  0
  -29.7860  -22.5090   20.6360 C   0  0  0  0  0  0  0  0  0  0  0  0
  -31.6270  -26.2340   21.9710 C   0  0  0  0  0  2  0  0  0  0  0  0
  -30.5090  -26.9710   22.7220 C   0  0  0  0  0  2  0  0  0  0  0  0
  -29.3160  -27.3240   21.8030 C   0  0  0  0  0  2  0  0  0  0  0  0
  -29.2040  -26.4580   20.5170 C   0  0  0  0  0  3  0  0  0  0  0  0
  -28.2590  -21.2090   19.0260 C   0  0  0  0  0  1  0  0  0  0  0  0
  -29.0810  -21.1400   20.3310 C   0  0  0  0  0  3  0  0  0  0  0  0
  -29.9900  -19.9300   20.3220 N   0  0  0  0  0  4  0  0  0  0  0  0
  -30.5150  -19.9440   19.4620 H   0  0  0  0  0  0  0  0  0  0  0  0
  -30.6460  -20.0660   21.0710 H   0  0  0  0  0  0  0  0  0  0  0  0
  -29.3630  -18.5670   20.5190 C   0  0  0  0  0  3  0  0  0  0  0  0
  -30.3350  -17.3310   20.3590 C   0  0  0  0  0  3  0  0  0  0  0  0
  -29.7470  -15.9080   20.7390 C   0  0  0  0  0  2  0  0  0  0  0  0
  -30.4500  -14.6500   20.1160 C   0  0  0  0  0  0  0  0  0  0  0  0
  -30.1080  -12.5040   18.9170 C   0  0  0  0  0  2  0  0  0  0  0  0
  -29.0920  -12.7400   17.7770 C   0  0  0  0  0  2  0  0  0  0  0  0
  -27.6470  -12.5670   18.2870 C   0  0  0  0  0  2  0  0  0  0  0  0
  -27.3830  -13.3500   19.6010 C   0  0  0  0  0  3  0  0  0  0  0  0
  -28.5100  -13.1230   20.6340 C   0  0  0  0  0  2  0  0  0  0  0  0
  -29.7920  -13.4560   19.9970 N   0  0  0  0  0  0  0  0  0  0  0  0
  -31.5640  -14.8090   19.6120 O   0  0  0  0  0  0  0  0  0  0  0  0
  -25.0250  -13.9120   20.4550 C   0  0  0  0  0  0  0  0  0  0  0  0
  -23.9860  -13.1210   20.8710 C   0  0  0  0  0  0  0  0  0  0  0  0
  -24.4600  -11.7760   20.7980 C   0  0  0  0  0  0  0  0  0  0  0  0
  -26.0640  -13.0470   20.1530 N   0  0  0  0  0  0  0  0  0  0  0  0
  -25.7320  -11.7570   20.4180 N   0  0  0  0  0  0  0  0  0  0  0  0
  -23.7570  -10.5030   21.0120 C   0  0  0  0  0  0  0  0  0  0  0  0
  -24.2500   -9.5340   21.9120 C   0  0  0  0  0  3  0  0  0  0  0  0
  -23.5550   -8.3220   22.1100 C   0  0  0  0  0  3  0  0  0  0  0  0
  -22.3510   -8.0730   21.4100 C   0  0  0  0  0  0  0  0  0  0  0  0
  -21.8750   -9.0330   20.4990 C   0  0  0  0  0  3  0  0  0  0  0  0
  -22.5710  -10.2350   20.2990 C   0  0  0  0  0  3  0  0  0  0  0  0
  -21.6150   -6.9180   21.5240 O   0  0  0  0  0  0  0  0  0  0  0  0
  -21.6320   -6.1630   22.6700 C   0  0  0  0  0  0  0  0  0  0  0  0
  -21.2460   -6.6980   23.9190 C   0  0  0  0  0  3  0  0  0  0  0  0
  -21.2120   -5.8710   25.0590 C   0  0  0  0  0  3  0  0  0  0  0  0
  -21.5540   -4.5080   24.9520 C   0  0  0  0  0  0  0  0  0  0  0  0
  -21.9320   -3.9720   23.7080 C   0  0  0  0  0  3  0  0  0  0  0  0
  -21.9700   -4.7980   22.5710 C   0  0  0  0  0  0  0  0  0  0  0  0
  -22.3160   -4.2720   21.3720 F   0  0  0  0  0  0  0  0  0  0  0  0
  -21.5130   -3.7110   26.0450 F   0  0  0  0  0  0  0  0  0  0  0  0
  -22.6000  -13.5760   21.2260 C   0  0  0  0  0  0  0  0  0  0  0  0
  -21.9330  -12.8600   22.1250 N   0  0  0  0  0  0  0  0  0  0  0  0
  -22.1190  -14.6010   20.7440 O   0  0  0  0  0  0  0  0  0  0  0  0
  -22.3410  -12.0320   22.5350 H   0  0  0  0  0  0  0  0  0  0  0  0
  -21.0040  -13.1380   22.4040 H   0  0  0  0  0  0  0  0  0  0  0  0
  -25.1690  -15.2860   20.2890 N   0  0  0  0  0  0  0  0  0  0  0  0
  -24.4110  -15.9430   20.4430 H   0  0  0  0  0  0  0  0  0  0  0  0
  -26.0030  -15.7180   19.9090 H   0  0  0  0  0  0  0  0  0  0  0  0
  -27.9670  -26.4950   19.7710 O   0  0  0  0  0  0  0  0  0  0  0  0
  -24.2510  -31.7860   23.0450 C   0  0  0  0  0  0  0  0  0  0  0  0
  -26.9060  -27.3940   19.8740 C   0  0  0  0  0  0  0  0  0  0  0  0
  -23.0320  -30.3910   21.4090 C   0  0  0  0  0  3  0  0  0  0  0  0
  -24.4820  -28.8960   19.9350 C   0  0  0  0  0  0  0  0  0  0  0  0
  -25.5500  -30.7880   21.1620 C   0  0  0  0  0  2  0  0  0  0  0  0
  -25.6500  -29.4260   20.5000 C   0  0  0  0  0  0  0  0  0  0  0  0
  -26.8660  -28.6950   20.4550 C   0  0  0  0  0  3  0  0  0  0  0  0
  -25.7180  -26.9070   19.2920 C   0  0  0  0  0  3  0  0  0  0  0  0
  -24.5130  -27.6360   19.3210 C   0  0  0  0  0  3  0  0  0  0  0  0
  -23.2270  -29.7390   20.0160 C   0  0  0  0  0  2  0  0  0  0  0  0
  -24.2970  -31.0030   21.9300 N   0  0  0  0  0  0  0  0  0  0  0  0
  -23.1760  -32.0350   23.6090 O   0  0  0  0  0  0  0  0  0  0  0  0
  -22.4070  -29.3490   22.3690 C   0  0  0  0  0  0  0  0  0  0  0  0
  -21.0790  -29.1690   22.2770 N   0  0  0  0  0  0  0  0  0  0  0  0
  -23.1160  -28.7110   23.1510 O   0  0  0  0  0  0  0  0  0  0  0  0
  -20.5690  -29.7370   21.6160 H   0  0  0  0  0  0  0  0  0  0  0  0
  -17.7210  -27.9690   22.8650 C   0  0  0  0  0  0  0  0  0  0  0  0
  -20.2880  -28.2110   23.0500 C   0  0  0  0  0  3  0  0  0  0  0  0
  -20.3650  -26.7960   22.4320 C   0  0  0  0  0  2  0  0  0  0  0  0
  -19.2260  -26.5050   21.4500 C   0  0  0  0  0  2  0  0  0  0  0  0
  -17.8680  -26.6370   22.1480 C   0  0  0  0  0  2  0  0  0  0  0  0
  -18.8570  -28.7150   23.2740 C   0  0  0  0  0  0  0  0  0  0  0  0
  -18.6640  -29.9620   23.9070 C   0  0  0  0  0  3  0  0  0  0  0  0
  -17.3690  -30.4620   24.1340 C   0  0  0  0  0  3  0  0  0  0  0  0
  -16.2470  -29.7120   23.7420 C   0  0  0  0  0  3  0  0  0  0  0  0
  -16.4240  -28.4680   23.1110 C   0  0  0  0  0  3  0  0  0  0  0  0
  -25.5390  -32.4230   23.6520 C   0  0  0  0  0  3  0  0  0  0  0  0
  -25.2160  -33.8070   24.0250 N   0  0  0  0  0  0  0  0  0  0  0  0
  -25.5450  -34.8860   23.3030 C   0  0  0  0  0  0  0  0  0  0  0  0
  -26.2270  -34.8200   22.2750 O   0  0  0  0  0  0  0  0  0  0  0  0
  -24.6150  -33.9300   24.8270 H   0  0  0  0  0  0  0  0  0  0  0  0
  -23.8140  -36.6810   22.9800 C   0  0  0  0  0  1  0  0  0  0  0  0
  -25.0420  -36.2560   23.7990 C   0  0  0  0  0  3  0  0  0  0  0  0
  -27.1550  -37.1250   24.6990 C   0  0  0  0  0  1  0  0  0  0  0  0
  -26.0690  -37.3170   23.7400 N   0  0  0  0  0  0  0  0  0  0  0  0
  -25.6530  -38.2290   23.9110 H   0  0  0  0  0  0  0  0  0  0  0  0
  -26.0980  -31.6260   24.8920 C   0  0  1  0  0  0  0  0  0  0  0  0
  -25.0430  -31.3650   25.9940 C   0  0  0  0  0  1  0  0  0  0  0  0
  -26.6680  -30.2580   24.4480 C   0  0  0  0  0  1  0  0  0  0  0  0
  -27.2690  -32.4050   25.5340 C   0  0  0  0  0  1  0  0  0  0  0  0
  2  1  2  0
  3  6  2  0
  3  5  1  0
  4  1  1  0
  4  7  1  0
  5  4  2  0
  6  2  1  0
  7  8  1  0
  9  8  1  0
 10 55  1  0
 10  5  1  0
 10  9  1  0
 12 11  1  0
 12  6  1  0
 13 12  1  0
 13 16  1  0
 13 15  1  0
 14 13  1  0
 17 16  2  0
 17 18  1  0
 19 18  1  0
 20 25  1  0
 21 22  1  0
 21 20  1  0
 23 22  1  0
 23 30  1  0
 23 24  1  0
 25 19  1  0
 25 24  1  0
 26 19  2  0
 27 28  2  0
 28 47  1  0
 29 28  1  0
 29 32  1  0
 30 31  1  0
 30 27  1  0
 31 29  2  0
 32 33  1  0
 33 34  2  0
 35 38  1  0
 35 34  1  0
 36 35  2  0
 37 36  1  0
 37 32  2  0
 38 39  1  0
 39 40  1  0
 40 41  2  0
 42 41  1  0
 42 46  1  0
 43 42  2  0
 44 39  2  0
 44 43  1  0
 45 44  1  0
 47 48  1  0
 48 51  1  0
 48 50  1  0
 49 47  2  0
 52 53  1  0
 52 27  1  0
 54 52  1  0
 55 57  1  0
 56 67  2  0
 57 62  1  0
 58 66  1  0
 58 68  1  0
 59 65  1  0
 59 61  1  0
 60 66  1  0
 61 60  1  0
 62 61  2  0
 63 64  1  0
 63 57  2  0
 64 59  2  0
 65 58  1  0
 66 56  1  0
 68 70  2  0
 69 68  1  0
 71 69  1  0
 72 81  2  0
 72 77  1  0
 73 69  1  0
 73 77  1  0
 74 73  1  0
 75 76  1  0
 75 74  1  0
 76 72  1  0
 77 78  2  0
 78 79  1  0
 80 79  2  0
 81 80  1  0
 82 56  1  0
 82 83  1  0
 82 92  1  0
 83 86  1  0
 84 88  1  0
 84 83  1  0
 85 84  2  0
 88 87  1  0
 90 88  1  0
 90 91  1  0
 90 89  1  0
 92 95  1  1
 92 93  1  0
 94 92  1  0
M  ISO  4  10 101  18 100  19 100  55 101
M  END
>  <TORSDO>  (38) 
F 21

>  <SCORE>  (38) 
-11.697

>  <name>  (38) 
37

>  <ligand_id>  (38) 
37

>  <original_smiles>  (38) 
[H]c1c([H])c([H])c2c(c1[H])C([H])([H])C([H])([H])C([H])([H])C2([H])N([H])C(=O)C1([H])N(C(=O)C([H])(N([H])C(=O)C([H])(N([H])C([H])([H])[H])C([H])([H])[H])C(C([H])([H])[H])(C([H])([H])[H])C([H])([H])[H])C([H])([H])c2c([H])c(OC3([H])c4c([H])c(C([H])(C([H])([H])[H])[N+]([H])([H])C([H])([H])C([H])([H])C([H])([H])C(=O)N5C([H])([H])C([H])([H])C([H])([H])C([H])(n6nc(-c7c([H])c([H])c(Oc8c([H])c([H])c(F)c([H])c8F)c([H])c7[H])c(C(=O)N([H])[H])c6N([H])[H])C5([H])[H])c([H])c([H])c4C([H])([H])C([H])([H])C3([H])[H])c([H])c([H])c2C1([H])[H]

>  <smiles>  (38) 
[H]c1c([H])c([H])c2c(c1[H])C([H])([H])C([H])([H])C([H])([H])C2([H])N([H])C(=O)C1([H])N(C(=O)C([H])(N([H])C(=O)C([H])(N([H])C([H])([H])[H])C([H])([H])[H])C(C([H])([H])[H])(C([H])([H])[H])C([H])([H])[H])C([H])([H])c2c([H])c(OC3([H])c4c([H])c(C([H])(C([H])([H])[H])[N+]([H])([H])C([H])([H])C([H])([H])C([H])([H])C(=O)N5C([H])([H])C([H])([H])C([H])([H])C([H])(n6nc(-c7c([H])c([H])c(Oc8c([H])c([H])c(F)c([H])c8F)c([H])c7[H])c(C(=O)N([H])[H])c6N([H])[H])C5([H])[H])c([H])c([H])c4C([H])([H])C([H])([H])C3([H])[H])c([H])c([H])c2C1([H])[H]

$$$$
38:0:0
     RDKit          3D

 94104  0  0  1  0  0  0  0  0999 V2000
  -31.5920  -20.2320   16.4570 C   0  0  0  0  0  3  0  0  0  0  0  0
  -31.3060  -21.4200   17.1250 C   0  0  0  0  0  3  0  0  0  0  0  0
  -31.1890  -19.0070   17.0120 C   0  0  0  0  0  3  0  0  0  0  0  0
  -30.5950  -21.3730   18.3260 C   0  0  0  0  0  3  0  0  0  0  0  0
  -30.4460  -18.9030   18.2320 C   0  0  0  0  0  0  0  0  0  0  0  0
  -30.1220  -20.1630   18.8910 C   0  0  0  0  0  0  0  0  0  0  0  0
  -30.2270  -17.4720   18.7410 C   0  0  0  0  0  3  0  0  0  0  0  0
  -29.8400  -17.0860   19.9910 C   0  0  0  0  0  3  0  0  0  0  0  0
  -29.3570  -18.5720   20.7970 C   0  0  0  0  0  2  0  0  0  0  0  0
  -27.8920  -21.2060   19.8080 C   0  0  0  0  0  2  0  0  0  0  0  0
  -29.6390  -21.6100   21.1730 C   0  0  0  0  0  2  0  0  0  0  0  0
  -27.7980  -22.9110   19.5060 C   0  0  0  0  0  2  0  0  0  0  0  0
  -29.3860  -23.3050   20.9370 C   0  0  0  0  0  2  0  0  0  0  0  0
  -29.2630  -20.3000   20.1750 C   0  0  2  0  0  0  0  0  0  0  0  0
  -28.0540  -23.9930   20.5800 N   0  0  0  0  0  0  0  0  0  0  0  0
  -30.4020  -15.5200   20.3570 C   0  0  0  0  0  0  0  0  0  0  0  0
  -30.3940  -13.0170   19.5160 C   0  0  0  0  0  2  0  0  0  0  0  0
  -29.5150  -12.6560   18.2920 C   0  0  0  0  0  2  0  0  0  0  0  0
  -28.0770  -12.3300   18.7250 C   0  0  0  0  0  2  0  0  0  0  0  0
  -27.5650  -13.3340   19.7860 C   0  0  0  0  0  3  0  0  0  0  0  0
  -28.5880  -13.6470   20.8970 C   0  0  0  0  0  2  0  0  0  0  0  0
  -29.7870  -14.2140   20.2390 N   0  0  0  0  0  0  0  0  0  0  0  0
  -31.6340  -15.3350   20.3960 O   0  0  0  0  0  0  0  0  0  0  0  0
  -25.1970  -13.8600   20.5410 C   0  0  0  0  0  0  0  0  0  0  0  0
  -24.1360  -13.0750   20.9020 C   0  0  0  0  0  0  0  0  0  0  0  0
  -24.6160  -11.7290   20.8770 C   0  0  0  0  0  0  0  0  0  0  0  0
  -26.2470  -12.9920   20.3040 N   0  0  0  0  0  0  0  0  0  0  0  0
  -25.9110  -11.7020   20.5750 N   0  0  0  0  0  0  0  0  0  0  0  0
  -23.8940  -10.4600   21.0630 C   0  0  0  0  0  0  0  0  0  0  0  0
  -24.3210   -9.4920   21.9990 C   0  0  0  0  0  3  0  0  0  0  0  0
  -23.5920   -8.2950   22.1730 C   0  0  0  0  0  3  0  0  0  0  0  0
  -22.4210   -8.0590   21.4120 C   0  0  0  0  0  0  0  0  0  0  0  0
  -22.0140   -9.0150   20.4640 C   0  0  0  0  0  3  0  0  0  0  0  0
  -22.7430  -10.2040   20.2910 C   0  0  0  0  0  3  0  0  0  0  0  0
  -21.6690   -6.9120   21.4940 O   0  0  0  0  0  0  0  0  0  0  0  0
  -21.6170   -6.1630   22.6420 C   0  0  0  0  0  0  0  0  0  0  0  0
  -21.1990   -6.7140   23.8710 C   0  0  0  0  0  3  0  0  0  0  0  0
  -21.0960   -5.8940   25.0130 C   0  0  0  0  0  3  0  0  0  0  0  0
  -21.3980   -4.5220   24.9240 C   0  0  0  0  0  0  0  0  0  0  0  0
  -21.8060   -3.9690   23.6980 C   0  0  0  0  0  3  0  0  0  0  0  0
  -21.9130   -4.7860   22.5600 C   0  0  0  0  0  0  0  0  0  0  0  0
  -22.2880   -4.2440   21.3750 F   0  0  0  0  0  0  0  0  0  0  0  0
  -21.2900   -3.7320   26.0180 F   0  0  0  0  0  0  0  0  0  0  0  0
  -22.7340  -13.5450   21.1490 C   0  0  0  0  0  0  0  0  0  0  0  0
  -22.0000  -12.8530   22.0150 N   0  0  0  0  0  0  0  0  0  0  0  0
  -22.2960  -14.5600   20.6100 O   0  0  0  0  0  0  0  0  0  0  0  0
  -22.3710  -12.0370   22.4780 H   0  0  0  0  0  0  0  0  0  0  0  0
  -21.0550  -13.1470   22.2170 H   0  0  0  0  0  0  0  0  0  0  0  0
  -25.3520  -15.2310   20.3650 N   0  0  0  0  0  0  0  0  0  0  0  0
  -24.5860  -15.8830   20.4790 H   0  0  0  0  0  0  0  0  0  0  0  0
  -26.2050  -15.6770   20.0490 H   0  0  0  0  0  0  0  0  0  0  0  0
  -30.5460  -16.5400   17.8270 O   0  0  0  0  0  0  0  0  0  0  0  0
  -30.7470  -16.9990   17.0220 H   0  0  0  0  0  0  0  0  0  0  0  0
  -28.1920  -25.7080   20.1430 O   0  0  0  0  0  0  0  0  0  0  0  0
  -24.6380  -31.8680   23.1220 C   0  0  0  0  0  0  0  0  0  0  0  0
  -27.1590  -26.8240   20.2090 C   0  0  0  0  0  0  0  0  0  0  0  0
  -23.4440  -30.4510   21.5020 C   0  0  0  0  0  3  0  0  0  0  0  0
  -24.8840  -28.7900   20.1170 C   0  0  0  0  0  0  0  0  0  0  0  0
  -26.0170  -30.6050   21.3780 C   0  0  0  0  0  2  0  0  0  0  0  0
  -26.0730  -29.1720   20.7520 C   0  0  0  0  0  0  0  0  0  0  0  0
  -27.1980  -28.2110   20.7750 C   0  0  0  0  0  3  0  0  0  0  0  0
  -25.9450  -26.6270   19.5140 C   0  0  0  0  0  3  0  0  0  0  0  0
  -24.8510  -27.5380   19.4810 C   0  0  0  0  0  3  0  0  0  0  0  0
  -23.6780  -29.7370   20.1410 C   0  0  0  0  0  2  0  0  0  0  0  0
  -24.7220  -31.0100   22.0510 N   0  0  0  0  0  0  0  0  0  0  0  0
  -23.5470  -32.1760   23.6320 O   0  0  0  0  0  0  0  0  0  0  0  0
  -22.7330  -29.4830   22.4840 C   0  0  0  0  0  0  0  0  0  0  0  0
  -21.3990  -29.3470   22.3740 N   0  0  0  0  0  0  0  0  0  0  0  0
  -23.3910  -28.8530   23.3150 O   0  0  0  0  0  0  0  0  0  0  0  0
  -20.9230  -29.9030   21.6770 H   0  0  0  0  0  0  0  0  0  0  0  0
  -17.9940  -28.2120   22.9370 C   0  0  0  0  0  0  0  0  0  0  0  0
  -20.5640  -28.4270   23.1560 C   0  0  0  0  0  3  0  0  0  0  0  0
  -20.6240  -26.9950   22.5750 C   0  0  0  0  0  2  0  0  0  0  0  0
  -19.4980  -26.6970   21.5810 C   0  0  0  0  0  2  0  0  0  0  0  0
  -18.1310  -26.8640   22.2480 C   0  0  0  0  0  2  0  0  0  0  0  0
  -19.1350  -28.9540   23.3450 C   0  0  0  0  0  0  0  0  0  0  0  0
  -18.9470  -30.2130   23.9550 C   0  0  0  0  0  3  0  0  0  0  0  0
  -17.6540  -30.7350   24.1510 C   0  0  0  0  0  3  0  0  0  0  0  0
  -16.5290  -29.9910   23.7530 C   0  0  0  0  0  3  0  0  0  0  0  0
  -16.7010  -28.7310   23.1550 C   0  0  0  0  0  3  0  0  0  0  0  0
  -25.9070  -32.5160   23.7550 C   0  0  0  0  0  3  0  0  0  0  0  0
  -25.5800  -33.9100   24.1170 N   0  0  0  0  0  0  0  0  0  0  0  0
  -25.8950  -34.9890   23.3880 C   0  0  0  0  0  0  0  0  0  0  0  0
  -26.5490  -34.9150   22.3440 O   0  0  0  0  0  0  0  0  0  0  0  0
  -24.9940  -34.0390   24.9290 H   0  0  0  0  0  0  0  0  0  0  0  0
  -24.1410  -36.7760   23.1160 C   0  0  0  0  0  1  0  0  0  0  0  0
  -25.4070  -36.3660   23.8880 C   0  0  0  0  0  3  0  0  0  0  0  0
  -27.5590  -37.2480   24.6830 C   0  0  0  0  0  1  0  0  0  0  0  0
  -26.4300  -37.4310   23.7730 N   0  0  0  0  0  0  0  0  0  0  0  0
  -26.0230  -38.3460   23.9510 H   0  0  0  0  0  0  0  0  0  0  0  0
  -26.4270  -31.7400   25.0290 C   0  0  1  0  0  0  0  0  0  0  0  0
  -25.3340  -31.4930   26.0960 C   0  0  0  0  0  1  0  0  0  0  0  0
  -27.0140  -30.3660   24.6380 C   0  0  0  0  0  1  0  0  0  0  0  0
  -27.5830  -32.5310   25.6850 C   0  0  0  0  0  1  0  0  0  0  0  0
  1  3  2  0
  1  2  1  0
  2  4  2  0
  3  5  1  0
  4  6  1  0
  5  7  1  0
  5  6  2  0
  6 14  1  0
  7 52  1  0
  7  8  1  0
  8 16  1  0
  8  9  1  0
 12 10  1  0
 12 15  1  0
 13 11  1  0
 14 10  1  6
 14  9  1  0
 14 11  1  0
 15 13  1  0
 16 23  2  0
 17 22  1  0
 18 19  1  0
 18 17  1  0
 20 19  1  0
 20 27  1  0
 20 21  1  0
 22 16  1  0
 22 21  1  0
 24 25  2  0
 25 44  1  0
 26 25  1  0
 26 29  1  0
 27 24  1  0
 27 28  1  0
 28 26  2  0
 29 30  1  0
 30 31  2  0
 32 35  1  0
 32 31  1  0
 33 32  2  0
 34 33  1  0
 34 29  2  0
 35 36  1  0
 36 37  1  0
 37 38  2  0
 39 38  1  0
 39 43  1  0
 40 39  2  0
 41 36  2  0
 41 40  1  0
 42 41  1  0
 44 45  1  0
 45 48  1  0
 45 47  1  0
 46 44  2  0
 49 50  1  0
 49 24  1  0
 51 49  1  0
 53 52  1  0
 54 56  1  0
 54 15  1  0
 55 66  2  0
 56 61  1  0
 57 65  1  0
 57 67  1  0
 58 64  1  0
 58 60  1  0
 59 65  1  0
 60 61  2  0
 60 59  1  0
 62 56  2  0
 63 62  1  0
 63 58  2  0
 64 57  1  0
 65 55  1  0
 67 69  2  0
 68 67  1  0
 70 68  1  0
 71 80  2  0
 71 76  1  0
 72 68  1  0
 72 76  1  0
 73 72  1  0
 74 75  1  0
 74 73  1  0
 75 71  1  0
 76 77  2  0
 77 78  1  0
 79 78  2  0
 80 79  1  0
 81 55  1  0
 81 82  1  0
 81 91  1  0
 82 85  1  0
 83 87  1  0
 83 82  1  0
 84 83  2  0
 87 86  1  0
 89 87  1  0
 89 90  1  0
 89 88  1  0
 91 94  1  1
 91 92  1  0
 93 91  1  0
M  ISO  4   8 100  15 101  16 100  54 101
M  END
>  <TORSDO>  (39) 
F 17

>  <SCORE>  (39) 
-16.516

>  <name>  (39) 
38

>  <ligand_id>  (39) 
38

>  <original_smiles>  (39) 
[H]OC1=C(C(=O)N2C([H])([H])C([H])([H])C([H])([H])C([H])(n3nc(-c4c([H])c([H])c(Oc5c([H])c([H])c(F)c([H])c5F)c([H])c4[H])c(C(=O)N([H])[H])c3N([H])[H])C2([H])[H])C([H])([H])C2(c3c([H])c([H])c([H])c([H])c31)C([H])([H])C([H])([H])N(Oc1c([H])c([H])c3c(c1[H])C([H])([H])N(C(=O)C([H])(N([H])C(=O)C([H])(N([H])C([H])([H])[H])C([H])([H])[H])C(C([H])([H])[H])(C([H])([H])[H])C([H])([H])[H])C([H])(C(=O)N([H])C1([H])c4c([H])c([H])c([H])c([H])c4C([H])([H])C([H])([H])C1([H])[H])C3([H])[H])C([H])([H])C2([H])[H]

>  <smiles>  (39) 
[H]OC1=C(C(=O)N2C([H])([H])C([H])([H])C([H])([H])C([H])(n3nc(-c4c([H])c([H])c(Oc5c([H])c([H])c(F)c([H])c5F)c([H])c4[H])c(C(=O)N([H])[H])c3N([H])[H])C2([H])[H])C([H])([H])C2(c3c([H])c([H])c([H])c([H])c31)C([H])([H])C([H])([H])N(Oc1c([H])c([H])c3c(c1[H])C([H])([H])N(C(=O)C([H])(N([H])C(=O)C([H])(N([H])C([H])([H])[H])C([H])([H])[H])C(C([H])([H])[H])(C([H])([H])[H])C([H])([H])[H])C([H])(C(=O)N([H])C1([H])c4c([H])c([H])c([H])c([H])c4C([H])([H])C([H])([H])C1([H])[H])C3([H])[H])C([H])([H])C2([H])[H]

$$$$
39:0:0
     RDKit          3D

 91 99  0  0  1  0  0  0  0  0999 V2000
  -27.4740  -23.6350   21.9160 C   0  0  0  0  0  3  0  0  0  0  0  0
  -27.5930  -24.9460   21.3970 C   0  0  0  0  0  3  0  0  0  0  0  0
  -29.0630  -24.0320   19.7170 C   0  0  0  0  0  3  0  0  0  0  0  0
  -28.9820  -22.6190   20.2230 C   0  0  0  0  0  0  0  0  0  0  0  0
  -28.1270  -22.4990   21.3640 C   0  0  0  0  0  0  0  0  0  0  0  0
  -28.3710  -25.2430   20.2570 C   0  0  0  0  0  0  0  0  0  0  0  0
  -27.9190  -21.1730   22.0890 C   0  0  0  0  0  1  0  0  0  0  0  0
  -29.8720  -21.3690   19.7010 C   0  0  0  0  0  0  0  0  0  0  0  0
  -29.6500  -19.9660   19.8980 N   0  0  0  0  0  0  0  0  0  0  0  0
  -30.8870  -21.6800   19.0760 O   0  0  0  0  0  0  0  0  0  0  0  0
  -28.7720  -19.7680   20.3560 H   0  0  0  0  0  0  0  0  0  0  0  0
  -30.6010  -18.6890   19.7140 C   0  0  0  0  0  2  0  0  0  0  0  0
  -29.2860  -17.0220   18.3090 C   0  0  0  0  0  1  0  0  0  0  0  0
  -30.1130  -17.0580   19.6150 C   0  0  0  0  0  3  0  0  0  0  0  0
  -31.0730  -15.6590   19.6920 C   0  0  0  0  0  0  0  0  0  0  0  0
  -31.1030  -13.1810   19.0870 C   0  0  0  0  0  2  0  0  0  0  0  0
  -30.1480  -12.9400   17.8900 C   0  0  0  0  0  2  0  0  0  0  0  0
  -28.7100  -12.6870   18.3830 C   0  0  0  0  0  2  0  0  0  0  0  0
  -28.2730  -13.7280   19.4440 C   0  0  0  0  0  3  0  0  0  0  0  0
  -29.3460  -13.9560   20.5290 C   0  0  0  0  0  2  0  0  0  0  0  0
  -30.5880  -14.3550   19.8570 N   0  0  0  0  0  0  0  0  0  0  0  0
  -32.2750  -15.7370   19.4030 O   0  0  0  0  0  0  0  0  0  0  0  0
  -25.9840  -14.3390   20.3990 C   0  0  0  0  0  0  0  0  0  0  0  0
  -24.9160  -13.5780   20.7860 C   0  0  0  0  0  0  0  0  0  0  0  0
  -25.3250  -12.2180   20.6320 C   0  0  0  0  0  0  0  0  0  0  0  0
  -26.9680  -13.4420   20.0180 N   0  0  0  0  0  0  0  0  0  0  0  0
  -26.5880  -12.1560   20.2260 N   0  0  0  0  0  0  0  0  0  0  0  0
  -24.5650  -10.9730   20.7850 C   0  0  0  0  0  0  0  0  0  0  0  0
  -24.9330   -9.9960   21.7370 C   0  0  0  0  0  3  0  0  0  0  0  0
  -24.1720   -8.8160   21.8800 C   0  0  0  0  0  3  0  0  0  0  0  0
  -23.0310   -8.6040   21.0690 C   0  0  0  0  0  0  0  0  0  0  0  0
  -22.6840   -9.5700   20.1060 C   0  0  0  0  0  3  0  0  0  0  0  0
  -23.4470  -10.7410   19.9620 C   0  0  0  0  0  3  0  0  0  0  0  0
  -22.2470   -7.4770   21.1190 O   0  0  0  0  0  0  0  0  0  0  0  0
  -21.9970   -6.8280   22.3010 C   0  0  0  0  0  0  0  0  0  0  0  0
  -21.3440   -7.4640   23.3800 C   0  0  0  0  0  3  0  0  0  0  0  0
  -21.0410   -6.7370   24.5470 C   0  0  0  0  0  3  0  0  0  0  0  0
  -21.3840   -5.3750   24.6380 C   0  0  0  0  0  0  0  0  0  0  0  0
  -22.0310   -4.7390   23.5650 C   0  0  0  0  0  3  0  0  0  0  0  0
  -22.3320   -5.4620   22.3980 C   0  0  0  0  0  0  0  0  0  0  0  0
  -22.9350   -4.8380   21.3570 F   0  0  0  0  0  0  0  0  0  0  0  0
  -21.0870   -4.6740   25.7580 F   0  0  0  0  0  0  0  0  0  0  0  0
  -23.5610  -14.0860   21.1800 C   0  0  0  0  0  0  0  0  0  0  0  0
  -22.8730  -13.3700   22.0600 N   0  0  0  0  0  0  0  0  0  0  0  0
  -23.1230  -15.1500   20.7420 O   0  0  0  0  0  0  0  0  0  0  0  0
  -23.2440  -12.5090   22.4330 H   0  0  0  0  0  0  0  0  0  0  0  0
  -21.9610  -13.6850   22.3630 H   0  0  0  0  0  0  0  0  0  0  0  0
  -26.1920  -15.7130   20.3110 N   0  0  0  0  0  0  0  0  0  0  0  0
  -25.4620  -16.3830   20.5240 H   0  0  0  0  0  0  0  0  0  0  0  0
  -27.0370  -16.1430   19.9570 H   0  0  0  0  0  0  0  0  0  0  0  0
  -28.4640  -26.6640   19.8470 O   0  0  0  0  0  0  0  0  0  0  0  0
  -24.7350  -32.0290   23.2890 C   0  0  0  0  0  0  0  0  0  0  0  0
  -27.3870  -27.6300   19.9050 C   0  0  0  0  0  0  0  0  0  0  0  0
  -23.5450  -30.7290   21.5610 C   0  0  0  0  0  3  0  0  0  0  0  0
  -25.0130  -29.3140   19.9950 C   0  0  0  0  0  0  0  0  0  0  0  0
  -26.0800  -31.0970   21.3700 C   0  0  0  0  0  2  0  0  0  0  0  0
  -26.1880  -29.7520   20.6270 C   0  0  0  0  0  0  0  0  0  0  0  0
  -27.3740  -28.9270   20.5660 C   0  0  0  0  0  3  0  0  0  0  0  0
  -26.1920  -27.3040   19.2310 C   0  0  0  0  0  3  0  0  0  0  0  0
  -25.0300  -28.1080   19.2770 C   0  0  0  0  0  3  0  0  0  0  0  0
  -23.7590  -30.1620   20.1310 C   0  0  0  0  0  2  0  0  0  0  0  0
  -24.8060  -31.3030   22.1320 N   0  0  0  0  0  0  0  0  0  0  0  0
  -23.6510  -32.2370   23.8540 O   0  0  0  0  0  0  0  0  0  0  0  0
  -22.9100  -29.6340   22.4570 C   0  0  0  0  0  0  0  0  0  0  0  0
  -21.5970  -29.3960   22.2960 N   0  0  0  0  0  0  0  0  0  0  0  0
  -23.6050  -29.0010   23.2540 O   0  0  0  0  0  0  0  0  0  0  0  0
  -21.0950  -29.9560   21.6210 H   0  0  0  0  0  0  0  0  0  0  0  0
  -18.2990  -27.9300   22.6410 C   0  0  0  0  0  0  0  0  0  0  0  0
  -20.8220  -28.3700   22.9970 C   0  0  0  0  0  3  0  0  0  0  0  0
  -21.0470  -26.9750   22.3660 C   0  0  0  0  0  2  0  0  0  0  0  0
  -20.0050  -26.6220   21.3020 C   0  0  0  0  0  2  0  0  0  0  0  0
  -18.5960  -26.6310   21.9060 C   0  0  0  0  0  2  0  0  0  0  0  0
  -19.3440  -28.7520   23.1400 C   0  0  0  0  0  0  0  0  0  0  0  0
  -19.0160  -29.9630   23.7890 C   0  0  0  0  0  3  0  0  0  0  0  0
  -17.6750  -30.3580   23.9340 C   0  0  0  0  0  3  0  0  0  0  0  0
  -16.6430  -29.5380   23.4490 C   0  0  0  0  0  3  0  0  0  0  0  0
  -16.9530  -28.3230   22.8100 C   0  0  0  0  0  3  0  0  0  0  0  0
  -26.0050  -32.6520   23.9450 C   0  0  0  0  0  3  0  0  0  0  0  0
  -26.4980  -31.8550   25.2160 C   0  0  1  0  0  0  0  0  0  0  0  0
  -25.3780  -31.5840   26.2490 C   0  0  0  0  0  1  0  0  0  0  0  0
  -27.1040  -30.4900   24.8130 C   0  0  0  0  0  1  0  0  0  0  0  0
  -27.6250  -32.6430   25.9290 C   0  0  0  0  0  1  0  0  0  0  0  0
  -25.6860  -34.0430   24.3070 N   0  0  0  0  0  0  0  0  0  0  0  0
  -26.0280  -35.1190   23.5830 C   0  0  0  0  0  0  0  0  0  0  0  0
  -26.7100  -35.0420   22.5600 O   0  0  0  0  0  0  0  0  0  0  0  0
  -25.0770  -34.1760   25.1010 H   0  0  0  0  0  0  0  0  0  0  0  0
  -24.3020  -36.9230   23.2660 C   0  0  0  0  0  1  0  0  0  0  0  0
  -25.5390  -36.4980   24.0740 C   0  0  0  0  0  3  0  0  0  0  0  0
  -27.6630  -37.3600   24.9480 C   0  0  0  0  0  1  0  0  0  0  0  0
  -26.5750  -37.5510   23.9950 N   0  0  0  0  0  0  0  0  0  0  0  0
  -26.1690  -38.4700   24.1570 H   0  0  0  0  0  0  0  0  0  0  0  0
  2  1  1  0
  3  4  2  0
  3  6  1  0
  4  5  1  0
  5  1  2  0
  5  7  1  0
  6  2  2  0
  8  9  1  0
  8  4  1  0
  9 11  1  0
 10  8  2  0
 12  9  1  0
 14 13  1  0
 14 15  1  0
 14 12  1  0
 15 21  1  0
 16 21  1  0
 17 18  1  0
 17 16  1  0
 19 18  1  0
 19 26  1  0
 19 20  1  0
 21 20  1  0
 22 15  2  0
 23 24  2  0
 24 43  1  0
 25 28  1  0
 25 24  1  0
 26 27  1  0
 26 23  1  0
 27 25  2  0
 28 29  1  0
 29 30  2  0
 31 34  1  0
 31 30  1  0
 32 31  2  0
 33 32  1  0
 33 28  2  0
 34 35  1  0
 35 40  2  0
 35 36  1  0
 36 37  2  0
 37 38  1  0
 38 42  1  0
 39 38  2  0
 40 39  1  0
 41 40  1  0
 43 44  1  0
 44 47  1  0
 44 46  1  0
 45 43  2  0
 48 23  1  0
 48 49  1  0
 50 48  1  0
 51 53  1  0
 51  6  1  0
 52 63  2  0
 53 58  1  0
 54 62  1  0
 54 64  1  0
 55 61  1  0
 55 57  1  0
 56 62  1  0
 57 56  1  0
 58 57  2  0
 59 60  1  0
 59 53  2  0
 60 55  2  0
 61 54  1  0
 62 52  1  0
 64 66  2  0
 65 64  1  0
 67 65  1  0
 68 77  2  0
 68 73  1  0
 69 65  1  0
 69 73  1  0
 70 69  1  0
 71 72  1  0
 71 70  1  0
 72 68  1  0
 73 74  2  0
 74 75  1  0
 76 75  2  0
 77 76  1  0
 78 52  1  0
 78 83  1  0
 78 79  1  0
 79 82  1  1
 79 80  1  0
 81 79  1  0
 83 86  1  0
 84 88  1  0
 84 83  1  0
 85 84  2  0
 88 87  1  0
 90 88  1  0
 90 91  1  0
 90 89  1  0
M  ISO  4   6 101  14 100  15 100  51 101
M  END
>  <TORSDO>  (40) 
F 19

>  <SCORE>  (40) 
-12.159

>  <name>  (40) 
39

>  <ligand_id>  (40) 
39

>  <original_smiles>  (40) 
[H]c1c([H])c([H])c2c(c1[H])C([H])([H])C([H])([H])C([H])([H])C2([H])N([H])C(=O)C1([H])N(C(=O)C([H])(N([H])C(=O)C([H])(N([H])C([H])([H])[H])C([H])([H])[H])C(C([H])([H])[H])(C([H])([H])[H])C([H])([H])[H])C([H])([H])c2c([H])c(Oc3c([H])c([H])c(C([H])([H])[H])c(C(=O)N([H])C([H])([H])C([H])(C(=O)N4C([H])([H])C([H])([H])C([H])([H])C([H])(n5nc(-c6c([H])c([H])c(Oc7c([H])c([H])c(F)c([H])c7F)c([H])c6[H])c(C(=O)N([H])[H])c5N([H])[H])C4([H])[H])C([H])([H])[H])c3[H])c([H])c([H])c2C1([H])[H]

>  <smiles>  (40) 
[H]c1c([H])c([H])c2c(c1[H])C([H])([H])C([H])([H])C([H])([H])C2([H])N([H])C(=O)C1([H])N(C(=O)C([H])(N([H])C(=O)C([H])(N([H])C([H])([H])[H])C([H])([H])[H])C(C([H])([H])[H])(C([H])([H])[H])C([H])([H])[H])C([H])([H])c2c([H])c(Oc3c([H])c([H])c(C([H])([H])[H])c(C(=O)N([H])C([H])([H])C([H])(C(=O)N4C([H])([H])C([H])([H])C([H])([H])C([H])(n5nc(-c6c([H])c([H])c(Oc7c([H])c([H])c(F)c([H])c7F)c([H])c6[H])c(C(=O)N([H])[H])c5N([H])[H])C4([H])[H])C([H])([H])[H])c3[H])c([H])c([H])c2C1([H])[H]

$$$$
40:0:0
     RDKit          3D

 87 95  0  0  1  0  0  0  0  0999 V2000
  -26.5470  -21.8220   20.2520 C   0  0  0  0  0  3  0  0  0  0  0  0
  -27.4460  -20.6960   20.1970 C   0  0  0  0  0  3  0  0  0  0  0  0
  -26.8580  -23.2300   20.2330 C   0  0  0  0  0  3  0  0  0  0  0  0
  -29.1030  -22.4310   20.0960 C   0  0  0  0  0  3  0  0  0  0  0  0
  -28.8580  -20.7880   20.1140 C   0  0  0  0  0  0  0  0  0  0  0  0
  -28.1570  -23.7970   20.1480 C   0  0  0  0  0  0  0  0  0  0  0  0
  -30.4160  -16.1550   20.0360 C   0  0  0  0  0  0  0  0  0  0  0  0
  -30.5780  -13.5500   19.2490 C   0  0  0  0  0  2  0  0  0  0  0  0
  -29.6910  -12.9920   18.0920 C   0  0  0  0  0  2  0  0  0  0  0  0
  -28.3130  -12.5620   18.6090 C   0  0  0  0  0  2  0  0  0  0  0  0
  -27.7780  -13.5780   19.6380 C   0  0  0  0  0  3  0  0  0  0  0  0
  -28.8170  -14.0370   20.6970 C   0  0  0  0  0  2  0  0  0  0  0  0
  -29.9080  -14.7510   19.9720 N   0  0  0  0  0  0  0  0  0  0  0  0
  -31.6500  -16.0220   19.8760 O   0  0  0  0  0  0  0  0  0  0  0  0
  -29.8360  -19.2310   20.0670 C   0  0  0  0  0  0  0  0  0  0  0  0
  -29.7290  -17.6210   20.0900 N   0  0  0  0  0  0  0  0  0  0  0  0
  -31.0220  -19.5500   19.9890 O   0  0  0  0  0  0  0  0  0  0  0  0
  -30.7190  -17.8240   20.0560 H   0  0  0  0  0  0  0  0  0  0  0  0
  -25.4570  -14.0470   20.5320 C   0  0  0  0  0  0  0  0  0  0  0  0
  -24.4200  -13.2440   20.9110 C   0  0  0  0  0  0  0  0  0  0  0  0
  -24.8980  -11.9020   20.8090 C   0  0  0  0  0  0  0  0  0  0  0  0
  -26.4960  -13.1960   20.2110 N   0  0  0  0  0  0  0  0  0  0  0  0
  -26.1790  -11.8940   20.4430 N   0  0  0  0  0  0  0  0  0  0  0  0
  -24.1850  -10.6270   20.9820 C   0  0  0  0  0  0  0  0  0  0  0  0
  -24.6010   -9.6660   21.9290 C   0  0  0  0  0  3  0  0  0  0  0  0
  -23.8810   -8.4630   22.0930 C   0  0  0  0  0  3  0  0  0  0  0  0
  -22.7300   -8.2100   21.3080 C   0  0  0  0  0  0  0  0  0  0  0  0
  -22.3330   -9.1600   20.3510 C   0  0  0  0  0  3  0  0  0  0  0  0
  -23.0540  -10.3550   20.1850 C   0  0  0  0  0  3  0  0  0  0  0  0
  -21.9840   -7.0590   21.3800 O   0  0  0  0  0  0  0  0  0  0  0  0
  -21.8260   -6.3740   22.5600 C   0  0  0  0  0  0  0  0  0  0  0  0
  -21.2240   -6.9680   23.6900 C   0  0  0  0  0  3  0  0  0  0  0  0
  -21.0180   -6.2090   24.8590 C   0  0  0  0  0  3  0  0  0  0  0  0
  -21.4050   -4.8560   24.8970 C   0  0  0  0  0  0  0  0  0  0  0  0
  -22.0000   -4.2610   23.7710 C   0  0  0  0  0  3  0  0  0  0  0  0
  -22.2070   -5.0180   22.6050 C   0  0  0  0  0  0  0  0  0  0  0  0
  -22.7610   -4.4350   21.5150 F   0  0  0  0  0  0  0  0  0  0  0  0
  -21.2010   -4.1240   26.0170 F   0  0  0  0  0  0  0  0  0  0  0  0
  -23.0320  -13.7010   21.2470 C   0  0  0  0  0  0  0  0  0  0  0  0
  -22.3460  -12.9810   22.1260 N   0  0  0  0  0  0  0  0  0  0  0  0
  -22.5670  -14.7350   20.7660 O   0  0  0  0  0  0  0  0  0  0  0  0
  -22.7380  -12.1460   22.5360 H   0  0  0  0  0  0  0  0  0  0  0  0
  -21.4170  -13.2690   22.3960 H   0  0  0  0  0  0  0  0  0  0  0  0
  -25.6010  -15.4250   20.3990 N   0  0  0  0  0  0  0  0  0  0  0  0
  -24.8390  -16.0710   20.5740 H   0  0  0  0  0  0  0  0  0  0  0  0
  -26.4440  -15.8840   20.0750 H   0  0  0  0  0  0  0  0  0  0  0  0
  -28.2470  -25.4750   20.1540 O   0  0  0  0  0  0  0  0  0  0  0  0
  -24.7610  -31.9390   23.2150 C   0  0  0  0  0  0  0  0  0  0  0  0
  -27.2800  -26.7580   20.1680 C   0  0  0  0  0  0  0  0  0  0  0  0
  -23.5710  -30.5450   21.5790 C   0  0  0  0  0  3  0  0  0  0  0  0
  -25.0170  -28.8880   20.1460 C   0  0  0  0  0  0  0  0  0  0  0  0
  -26.1560  -30.6550   21.4550 C   0  0  0  0  0  2  0  0  0  0  0  0
  -26.2180  -29.2090   20.7880 C   0  0  0  0  0  0  0  0  0  0  0  0
  -27.3220  -28.1760   20.7670 C   0  0  0  0  0  3  0  0  0  0  0  0
  -26.0470  -26.7030   19.4550 C   0  0  0  0  0  3  0  0  0  0  0  0
  -24.9790  -27.6640   19.4560 C   0  0  0  0  0  3  0  0  0  0  0  0
  -23.8110  -29.8510   20.2050 C   0  0  0  0  0  2  0  0  0  0  0  0
  -24.8560  -31.0830   22.1340 N   0  0  0  0  0  0  0  0  0  0  0  0
  -23.6670  -32.2340   23.7300 O   0  0  0  0  0  0  0  0  0  0  0  0
  -22.8570  -29.5670   22.5520 C   0  0  0  0  0  0  0  0  0  0  0  0
  -21.5260  -29.3920   22.4230 N   0  0  0  0  0  0  0  0  0  0  0  0
  -23.5150  -28.9610   23.4010 O   0  0  0  0  0  0  0  0  0  0  0  0
  -21.0420  -29.9320   21.7200 H   0  0  0  0  0  0  0  0  0  0  0  0
  -18.1590  -28.1150   22.9370 C   0  0  0  0  0  0  0  0  0  0  0  0
  -20.7140  -28.4420   23.1950 C   0  0  0  0  0  3  0  0  0  0  0  0
  -20.8440  -27.0090   22.6240 C   0  0  0  0  0  2  0  0  0  0  0  0
  -19.7500  -26.6640   21.6090 C   0  0  0  0  0  2  0  0  0  0  0  0
  -18.3660  -26.7730   22.2530 C   0  0  0  0  0  2  0  0  0  0  0  0
  -19.2600  -28.9050   23.3640 C   0  0  0  0  0  0  0  0  0  0  0  0
  -19.0080  -30.1540   23.9710 C   0  0  0  0  0  3  0  0  0  0  0  0
  -17.6900  -30.6170   24.1490 C   0  0  0  0  0  3  0  0  0  0  0  0
  -16.6050  -29.8270   23.7340 C   0  0  0  0  0  3  0  0  0  0  0  0
  -16.8400  -28.5770   23.1330 C   0  0  0  0  0  3  0  0  0  0  0  0
  -26.0190  -32.6010   23.8550 C   0  0  0  0  0  3  0  0  0  0  0  0
  -25.6850  -33.9980   24.2030 N   0  0  0  0  0  0  0  0  0  0  0  0
  -25.9730  -35.0740   23.4580 C   0  0  0  0  0  0  0  0  0  0  0  0
  -26.6010  -34.9960   22.3990 O   0  0  0  0  0  0  0  0  0  0  0  0
  -25.1180  -34.1290   25.0280 H   0  0  0  0  0  0  0  0  0  0  0  0
  -24.2000  -36.8540   23.2360 C   0  0  0  0  0  1  0  0  0  0  0  0
  -25.4940  -36.4550   23.9620 C   0  0  0  0  0  3  0  0  0  0  0  0
  -27.6540  -37.3830   24.6800 C   0  0  0  0  0  1  0  0  0  0  0  0
  -26.5010  -37.5270   23.7950 N   0  0  0  0  0  0  0  0  0  0  0  0
  -26.0860  -38.4410   23.9620 H   0  0  0  0  0  0  0  0  0  0  0  0
  -26.5250  -31.8420   25.1450 C   0  0  1  0  0  0  0  0  0  0  0  0
  -25.4220  -31.6060   26.2040 C   0  0  0  0  0  1  0  0  0  0  0  0
  -27.1210  -30.4640   24.7840 C   0  0  0  0  0  1  0  0  0  0  0  0
  -27.6640  -32.6480   25.8130 C   0  0  0  0  0  1  0  0  0  0  0  0
  2  1  2  0
  3  1  1  0
  4  5  2  0
  4  6  1  0
  5  2  1  0
  6 47  1  0
  6  3  2  0
  7 16  1  0
  8 13  1  0
  9 10  1  0
  9  8  1  0
 11 10  1  0
 11 22  1  0
 11 12  1  0
 13  7  1  0
 13 12  1  0
 14  7  2  0
 15 16  1  0
 15  5  1  0
 17 15  2  0
 18 16  1  0
 19 20  2  0
 20 39  1  0
 21 20  1  0
 21 24  1  0
 22 23  1  0
 22 19  1  0
 23 21  2  0
 24 25  1  0
 25 26  2  0
 27 30  1  0
 27 26  1  0
 28 27  2  0
 29 28  1  0
 29 24  2  0
 30 31  1  0
 31 36  2  0
 31 32  1  0
 32 33  2  0
 33 34  1  0
 34 38  1  0
 35 34  2  0
 36 35  1  0
 37 36  1  0
 39 40  1  0
 40 43  1  0
 40 42  1  0
 41 39  2  0
 44 19  1  0
 44 45  1  0
 46 44  1  0
 47 49  1  0
 48 59  2  0
 49 54  1  0
 50 58  1  0
 50 60  1  0
 51 57  1  0
 51 53  1  0
 52 58  1  0
 53 52  1  0
 54 53  2  0
 55 56  1  0
 55 49  2  0
 56 51  2  0
 57 50  1  0
 58 48  1  0
 60 62  2  0
 61 60  1  0
 63 61  1  0
 64 73  2  0
 64 69  1  0
 65 61  1  0
 65 69  1  0
 66 65  1  0
 67 68  1  0
 67 66  1  0
 68 64  1  0
 69 70  2  0
 70 71  1  0
 72 71  2  0
 73 72  1  0
 74 48  1  0
 74 75  1  0
 74 84  1  0
 75 78  1  0
 76 80  1  0
 76 75  1  0
 77 76  2  0
 80 79  1  0
 82 80  1  0
 82 83  1  0
 82 81  1  0
 84 87  1  1
 84 85  1  0
 86 84  1  0
M  ISO  4   6 101   7 100  16 100  47 101
M  END
>  <TORSDO>  (41) 
F 16

>  <SCORE>  (41) 
-15.285

>  <name>  (41) 
40

>  <ligand_id>  (41) 
40

>  <original_smiles>  (41) 
[H]c1c([H])c(Oc2c([H])c([H])c3c(c2[H])C([H])([H])N(C(=O)C([H])(N([H])C(=O)C([H])(N([H])C([H])([H])[H])C([H])([H])[H])C(C([H])([H])[H])(C([H])([H])[H])C([H])([H])[H])C([H])(C(=O)N([H])C2([H])c4c([H])c([H])c([H])c([H])c4C([H])([H])C([H])([H])C2([H])[H])C3([H])[H])c([H])c(C(=O)N([H])C(=O)N2C([H])([H])C([H])([H])C([H])([H])C([H])(n3nc(-c4c([H])c([H])c(Oc5c([H])c([H])c(F)c([H])c5F)c([H])c4[H])c(C(=O)N([H])[H])c3N([H])[H])C2([H])[H])c1[H]

>  <smiles>  (41) 
[H]c1c([H])c(Oc2c([H])c([H])c3c(c2[H])C([H])([H])N(C(=O)C([H])(N([H])C(=O)C([H])(N([H])C([H])([H])[H])C([H])([H])[H])C(C([H])([H])[H])(C([H])([H])[H])C([H])([H])[H])C([H])(C(=O)N([H])C2([H])c4c([H])c([H])c([H])c([H])c4C([H])([H])C([H])([H])C2([H])[H])C3([H])[H])c([H])c(C(=O)N([H])C(=O)N2C([H])([H])C([H])([H])C([H])([H])C([H])(n3nc(-c4c([H])c([H])c(Oc5c([H])c([H])c(F)c([H])c5F)c([H])c4[H])c(C(=O)N([H])[H])c3N([H])[H])C2([H])[H])c1[H]

$$$$
41:0:0
     RDKit          3D

 90 98  0  0  1  0  0  0  0  0999 V2000
  -29.1350  -22.2940   19.0480 C   0  0  0  0  0  3  0  0  0  0  0  0
  -28.6120  -23.8650   21.2290 C   0  0  0  0  0  3  0  0  0  0  0  0
  -29.1280  -21.4610   20.2430 C   0  0  0  0  0  0  0  0  0  0  0  0
  -28.9170  -23.7670   18.9490 C   0  0  0  0  0  0  0  0  0  0  0  0
  -28.8420  -22.3960   21.3330 C   0  0  0  0  0  0  0  0  0  0  0  0
  -28.6050  -24.6940   20.0350 C   0  0  0  0  0  0  0  0  0  0  0  0
  -29.0470  -24.3860   17.5720 C   0  0  0  0  0  1  0  0  0  0  0  0
  -28.7480  -21.8070   22.7290 C   0  0  0  0  0  1  0  0  0  0  0  0
  -28.5770  -26.2210   19.9360 O   0  0  0  0  0  0  0  0  0  0  0  0
  -25.0440  -31.9230   23.3370 C   0  0  0  0  0  0  0  0  0  0  0  0
  -27.5130  -27.2440   20.0050 C   0  0  0  0  0  0  0  0  0  0  0  0
  -23.8060  -30.6260   21.6490 C   0  0  0  0  0  3  0  0  0  0  0  0
  -25.2120  -29.0960   20.1110 C   0  0  0  0  0  0  0  0  0  0  0  0
  -26.3640  -30.8450   21.4560 C   0  0  0  0  0  2  0  0  0  0  0  0
  -26.4100  -29.4750   20.7280 C   0  0  0  0  0  0  0  0  0  0  0  0
  -27.5540  -28.5680   20.6540 C   0  0  0  0  0  3  0  0  0  0  0  0
  -26.2870  -27.0040   19.3490 C   0  0  0  0  0  3  0  0  0  0  0  0
  -25.1710  -27.8800   19.4060 C   0  0  0  0  0  3  0  0  0  0  0  0
  -23.9990  -30.0160   20.2320 C   0  0  0  0  0  2  0  0  0  0  0  0
  -25.0940  -31.1550   22.2010 N   0  0  0  0  0  0  0  0  0  0  0  0
  -23.9690  -32.1870   23.8980 O   0  0  0  0  0  0  0  0  0  0  0  0
  -23.1300  -29.5790   22.5730 C   0  0  0  0  0  0  0  0  0  0  0  0
  -21.8030  -29.3970   22.4380 N   0  0  0  0  0  0  0  0  0  0  0  0
  -23.8050  -28.9340   23.3780 O   0  0  0  0  0  0  0  0  0  0  0  0
  -21.3110  -29.9710   21.7670 H   0  0  0  0  0  0  0  0  0  0  0  0
  -18.4460  -28.0940   22.8680 C   0  0  0  0  0  0  0  0  0  0  0  0
  -20.9950  -28.4160   23.1700 C   0  0  0  0  0  3  0  0  0  0  0  0
  -21.1390  -27.0060   22.5510 C   0  0  0  0  0  2  0  0  0  0  0  0
  -20.0580  -26.6880   21.5140 C   0  0  0  0  0  2  0  0  0  0  0  0
  -18.6660  -26.7740   22.1470 C   0  0  0  0  0  2  0  0  0  0  0  0
  -19.5390  -28.8720   23.3330 C   0  0  0  0  0  0  0  0  0  0  0  0
  -19.2790  -30.1050   23.9690 C   0  0  0  0  0  3  0  0  0  0  0  0
  -17.9580  -30.5620   24.1420 C   0  0  0  0  0  3  0  0  0  0  0  0
  -16.8800  -29.7820   23.6900 C   0  0  0  0  0  3  0  0  0  0  0  0
  -17.1250  -28.5490   23.0590 C   0  0  0  0  0  3  0  0  0  0  0  0
  -26.3340  -32.5220   23.9760 C   0  0  0  0  0  3  0  0  0  0  0  0
  -26.0260  -33.8950   24.4120 N   0  0  0  0  0  0  0  0  0  0  0  0
  -26.3190  -35.0040   23.7190 C   0  0  0  0  0  0  0  0  0  0  0  0
  -26.9370  -34.9800   22.6520 O   0  0  0  0  0  0  0  0  0  0  0  0
  -25.4690  -33.9880   25.2480 H   0  0  0  0  0  0  0  0  0  0  0  0
  -24.5640  -36.8070   23.5930 C   0  0  0  0  0  1  0  0  0  0  0  0
  -25.8520  -36.3560   24.3000 C   0  0  0  0  0  3  0  0  0  0  0  0
  -28.0210  -37.2090   25.0740 C   0  0  0  0  0  1  0  0  0  0  0  0
  -26.8700  -37.4250   24.2010 N   0  0  0  0  0  0  0  0  0  0  0  0
  -26.4660  -38.3290   24.4270 H   0  0  0  0  0  0  0  0  0  0  0  0
  -26.8740  -31.6740   25.1940 C   0  0  1  0  0  0  0  0  0  0  0  0
  -25.8030  -31.3740   26.2690 C   0  0  0  0  0  1  0  0  0  0  0  0
  -27.4450  -30.3200   24.7150 C   0  0  0  0  0  1  0  0  0  0  0  0
  -28.0400  -32.4250   25.8790 C   0  0  0  0  0  1  0  0  0  0  0  0
  -29.1240  -19.7170   20.3500 C   0  0  0  0  0  2  0  0  0  0  0  0
  -31.1810  -18.6890   19.0150 C   0  0  0  0  0  1  0  0  0  0  0  0
  -30.3000  -18.3910   20.2370 C   0  0  0  0  0  3  0  0  0  0  0  0
  -30.8120  -15.4980   20.1960 C   0  0  0  0  0  0  0  0  0  0  0  0
  -30.7770  -13.0670   19.3160 C   0  0  0  0  0  2  0  0  0  0  0  0
  -29.8400  -12.8800   18.0980 C   0  0  0  0  0  2  0  0  0  0  0  0
  -28.3970  -12.6080   18.5600 C   0  0  0  0  0  2  0  0  0  0  0  0
  -27.9610  -13.5650   19.6990 C   0  0  0  0  0  3  0  0  0  0  0  0
  -29.0250  -13.7040   20.8070 C   0  0  0  0  0  2  0  0  0  0  0  0
  -30.2460  -14.1980   20.1560 N   0  0  0  0  0  0  0  0  0  0  0  0
  -32.0280  -15.5090   19.9590 O   0  0  0  0  0  0  0  0  0  0  0  0
  -30.0370  -16.7500   20.2960 N   0  0  0  0  0  0  0  0  0  0  0  0
  -29.0600  -16.5410   20.4420 H   0  0  0  0  0  0  0  0  0  0  0  0
  -25.6040  -14.1100   20.5070 C   0  0  0  0  0  0  0  0  0  0  0  0
  -24.5510  -13.3240   20.8820 C   0  0  0  0  0  0  0  0  0  0  0  0
  -25.0180  -11.9760   20.8150 C   0  0  0  0  0  0  0  0  0  0  0  0
  -26.6430  -13.2400   20.2250 N   0  0  0  0  0  0  0  0  0  0  0  0
  -26.3030  -11.9490   20.4790 N   0  0  0  0  0  0  0  0  0  0  0  0
  -24.2950  -10.7090   20.9920 C   0  0  0  0  0  0  0  0  0  0  0  0
  -24.7070   -9.7490   21.9440 C   0  0  0  0  0  3  0  0  0  0  0  0
  -23.9800   -8.5500   22.1100 C   0  0  0  0  0  3  0  0  0  0  0  0
  -22.8300   -8.3010   21.3240 C   0  0  0  0  0  0  0  0  0  0  0  0
  -22.4380   -9.2500   20.3620 C   0  0  0  0  0  3  0  0  0  0  0  0
  -23.1650  -10.4410   20.1950 C   0  0  0  0  0  3  0  0  0  0  0  0
  -22.0790   -7.1530   21.3980 O   0  0  0  0  0  0  0  0  0  0  0  0
  -21.9370   -6.4620   22.5740 C   0  0  0  0  0  0  0  0  0  0  0  0
  -21.3700   -7.0540   23.7230 C   0  0  0  0  0  3  0  0  0  0  0  0
  -21.1780   -6.2860   24.8890 C   0  0  0  0  0  3  0  0  0  0  0  0
  -21.5420   -4.9270   24.9050 C   0  0  0  0  0  0  0  0  0  0  0  0
  -22.1020   -4.3330   23.7600 C   0  0  0  0  0  3  0  0  0  0  0  0
  -22.2950   -5.0980   22.5970 C   0  0  0  0  0  0  0  0  0  0  0  0
  -22.8160   -4.5160   21.4900 F   0  0  0  0  0  0  0  0  0  0  0  0
  -21.3500   -4.1870   26.0230 F   0  0  0  0  0  0  0  0  0  0  0  0
  -23.1580  -13.7960   21.1840 C   0  0  0  0  0  0  0  0  0  0  0  0
  -22.4480  -13.0900   22.0570 N   0  0  0  0  0  0  0  0  0  0  0  0
  -22.7100  -14.8250   20.6810 O   0  0  0  0  0  0  0  0  0  0  0  0
  -22.8250  -12.2580   22.4860 H   0  0  0  0  0  0  0  0  0  0  0  0
  -21.5140  -13.3890   22.3020 H   0  0  0  0  0  0  0  0  0  0  0  0
  -25.7610  -15.4840   20.3510 N   0  0  0  0  0  0  0  0  0  0  0  0
  -24.9860  -16.1270   20.4710 H   0  0  0  0  0  0  0  0  0  0  0  0
  -26.5840  -15.9270   19.9650 H   0  0  0  0  0  0  0  0  0  0  0  0
  1  3  1  0
  2  5  1  0
  3 50  1  0
  3  5  2  0
  4  1  2  0
  4  6  1  0
  5  8  1  0
  6  2  2  0
  7  4  1  0
  9 11  1  0
  9  6  1  0
 10 21  2  0
 11 16  1  0
 12 20  1  0
 12 22  1  0
 13 19  1  0
 13 15  1  0
 14 20  1  0
 15 14  1  0
 16 15  2  0
 17 18  1  0
 17 11  2  0
 18 13  2  0
 19 12  1  0
 20 10  1  0
 22 24  2  0
 23 22  1  0
 25 23  1  0
 26 35  2  0
 26 31  1  0
 27 23  1  0
 27 31  1  0
 28 27  1  0
 29 30  1  0
 29 28  1  0
 30 26  1  0
 31 32  2  0
 32 33  1  0
 34 33  2  0
 35 34  1  0
 36 10  1  0
 36 37  1  0
 36 46  1  0
 37 40  1  0
 38 42  1  0
 38 37  1  0
 39 38  2  0
 42 41  1  0
 44 42  1  0
 44 45  1  0
 44 43  1  0
 46 49  1  1
 46 47  1  0
 48 46  1  0
 52 51  1  0
 52 61  1  0
 52 50  1  0
 53 61  1  0
 54 59  1  0
 55 56  1  0
 55 54  1  0
 57 56  1  0
 57 66  1  0
 57 58  1  0
 59 53  1  0
 59 58  1  0
 60 53  2  0
 61 62  1  0
 63 64  2  0
 64 83  1  0
 65 64  1  0
 65 68  1  0
 66 67  1  0
 66 63  1  0
 67 65  2  0
 68 69  1  0
 69 70  2  0
 71 74  1  0
 71 70  1  0
 72 71  2  0
 73 72  1  0
 73 68  2  0
 74 75  1  0
 75 80  2  0
 75 76  1  0
 76 77  2  0
 77 78  1  0
 78 82  1  0
 79 78  2  0
 80 79  1  0
 81 80  1  0
 83 84  1  0
 84 87  1  0
 84 86  1  0
 85 83  2  0
 88 89  1  0
 88 63  1  0
 90 88  1  0
M  ISO  4   6 101   9 101  53 100  61 100
M  END
>  <TORSDO>  (42) 
F 18

>  <SCORE>  (42) 
-14.202

>  <name>  (42) 
41

>  <ligand_id>  (42) 
41

>  <original_smiles>  (42) 
[H]c1c([H])c([H])c2c(c1[H])C([H])([H])C([H])([H])C([H])([H])C2([H])N([H])C(=O)C1([H])N(C(=O)C([H])(N([H])C(=O)C([H])(N([H])C([H])([H])[H])C([H])([H])[H])C(C([H])([H])[H])(C([H])([H])[H])C([H])([H])[H])C([H])([H])c2c([H])c(Oc3c([H])c(C([H])([H])[H])c(C([H])([H])C([H])(N([H])C(=O)N4C([H])([H])C([H])([H])C([H])([H])C([H])(n5nc(-c6c([H])c([H])c(Oc7c([H])c([H])c(F)c([H])c7F)c([H])c6[H])c(C(=O)N([H])[H])c5N([H])[H])C4([H])[H])C([H])([H])[H])c([H])c3C([H])([H])[H])c([H])c([H])c2C1([H])[H]

>  <smiles>  (42) 
[H]c1c([H])c([H])c2c(c1[H])C([H])([H])C([H])([H])C([H])([H])C2([H])N([H])C(=O)C1([H])N(C(=O)C([H])(N([H])C(=O)C([H])(N([H])C([H])([H])[H])C([H])([H])[H])C(C([H])([H])[H])(C([H])([H])[H])C([H])([H])[H])C([H])([H])c2c([H])c(Oc3c([H])c(C([H])([H])[H])c(C([H])([H])C([H])(N([H])C(=O)N4C([H])([H])C([H])([H])C([H])([H])C([H])(n5nc(-c6c([H])c([H])c(Oc7c([H])c([H])c(F)c([H])c7F)c([H])c6[H])c(C(=O)N([H])[H])c5N([H])[H])C4([H])[H])C([H])([H])[H])c([H])c3C([H])([H])[H])c([H])c([H])c2C1([H])[H]

$$$$
42:0:0
     RDKit          3D

 90 98  0  0  1  0  0  0  0  0999 V2000
  -26.6620  -22.9980   21.2840 C   0  0  0  0  0  3  0  0  0  0  0  0
  -27.5650  -21.9530   21.0010 C   0  0  0  0  0  3  0  0  0  0  0  0
  -26.9520  -24.3560   21.0380 C   0  0  0  0  0  3  0  0  0  0  0  0
  -29.1090  -23.6590   20.2100 C   0  0  0  0  0  3  0  0  0  0  0  0
  -28.8480  -22.2010   20.4800 C   0  0  0  0  0  0  0  0  0  0  0  0
  -28.1610  -24.7990   20.4560 C   0  0  0  0  0  0  0  0  0  0  0  0
  -28.3330  -26.2590   20.2460 O   0  0  0  0  0  0  0  0  0  0  0  0
  -24.6300  -31.9450   23.2610 C   0  0  0  0  0  0  0  0  0  0  0  0
  -27.2700  -27.2530   20.2140 C   0  0  0  0  0  0  0  0  0  0  0  0
  -23.4470  -30.5450   21.6130 C   0  0  0  0  0  3  0  0  0  0  0  0
  -24.9190  -28.9820   20.1890 C   0  0  0  0  0  0  0  0  0  0  0  0
  -26.0020  -30.8250   21.4620 C   0  0  0  0  0  2  0  0  0  0  0  0
  -26.0900  -29.4320   20.8090 C   0  0  0  0  0  0  0  0  0  0  0  0
  -27.2640  -28.5820   20.8120 C   0  0  0  0  0  3  0  0  0  0  0  0
  -26.0850  -26.9300   19.5220 C   0  0  0  0  0  3  0  0  0  0  0  0
  -24.9280  -27.7430   19.5320 C   0  0  0  0  0  3  0  0  0  0  0  0
  -23.6810  -29.8670   20.2350 C   0  0  0  0  0  2  0  0  0  0  0  0
  -24.7110  -31.1270   22.1670 N   0  0  0  0  0  0  0  0  0  0  0  0
  -23.5410  -32.2230   23.7840 O   0  0  0  0  0  0  0  0  0  0  0  0
  -22.7700  -29.5310   22.5710 C   0  0  0  0  0  0  0  0  0  0  0  0
  -21.4420  -29.3580   22.4470 N   0  0  0  0  0  0  0  0  0  0  0  0
  -23.4410  -28.9010   23.3910 O   0  0  0  0  0  0  0  0  0  0  0  0
  -20.9540  -29.9270   21.7680 H   0  0  0  0  0  0  0  0  0  0  0  0
  -18.0700  -28.1300   22.9270 C   0  0  0  0  0  0  0  0  0  0  0  0
  -20.6280  -28.4040   23.2060 C   0  0  0  0  0  3  0  0  0  0  0  0
  -20.7400  -26.9760   22.6190 C   0  0  0  0  0  2  0  0  0  0  0  0
  -19.6390  -26.6580   21.5980 C   0  0  0  0  0  2  0  0  0  0  0  0
  -18.2510  -26.7930   22.2310 C   0  0  0  0  0  2  0  0  0  0  0  0
  -19.1840  -28.8950   23.3680 C   0  0  0  0  0  0  0  0  0  0  0  0
  -18.9520  -30.1500   23.9760 C   0  0  0  0  0  3  0  0  0  0  0  0
  -17.6440  -30.6380   24.1440 C   0  0  0  0  0  3  0  0  0  0  0  0
  -16.5460  -29.8720   23.7210 C   0  0  0  0  0  3  0  0  0  0  0  0
  -16.7600  -28.6190   23.1160 C   0  0  0  0  0  3  0  0  0  0  0  0
  -25.9010  -32.5910   23.8940 C   0  0  0  0  0  3  0  0  0  0  0  0
  -26.4040  -31.8320   25.1830 C   0  0  1  0  0  0  0  0  0  0  0  0
  -25.2980  -31.5940   26.2360 C   0  0  0  0  0  1  0  0  0  0  0  0
  -27.0050  -30.4560   24.8160 C   0  0  0  0  0  1  0  0  0  0  0  0
  -27.5360  -32.6410   25.8580 C   0  0  0  0  0  1  0  0  0  0  0  0
  -25.5810  -33.9930   24.2200 N   0  0  0  0  0  0  0  0  0  0  0  0
  -25.9140  -35.0490   23.4660 C   0  0  0  0  0  0  0  0  0  0  0  0
  -26.5910  -34.9470   22.4390 O   0  0  0  0  0  0  0  0  0  0  0  0
  -24.9810  -34.1460   25.0180 H   0  0  0  0  0  0  0  0  0  0  0  0
  -24.1920  -36.8480   23.1070 C   0  0  0  0  0  1  0  0  0  0  0  0
  -25.4250  -36.4370   23.9270 C   0  0  0  0  0  3  0  0  0  0  0  0
  -27.5500  -37.3210   24.7850 C   0  0  0  0  0  1  0  0  0  0  0  0
  -26.4600  -37.4890   23.8280 N   0  0  0  0  0  0  0  0  0  0  0  0
  -26.0510  -38.4070   23.9700 H   0  0  0  0  0  0  0  0  0  0  0  0
  -29.8610  -20.8850   20.4250 C   0  0  0  0  0  2  0  0  0  0  0  0
  -29.4780  -19.1010   18.5360 C   0  0  0  0  0  1  0  0  0  0  0  0
  -29.4950  -19.2480   20.0710 C   0  0  0  0  0  3  0  0  0  0  0  0
  -31.8400  -18.1120   20.5260 C   0  0  0  0  0  1  0  0  0  0  0  0
  -30.3260  -17.8930   20.6870 C   0  0  0  0  0  0  0  0  0  0  0  0
  -30.6830  -15.1290   20.2990 C   0  0  0  0  0  0  0  0  0  0  0  0
  -30.5400  -12.7650   19.3870 C   0  0  0  0  0  2  0  0  0  0  0  0
  -29.6160  -12.6840   18.1530 C   0  0  0  0  0  2  0  0  0  0  0  0
  -28.1590  -12.4530   18.5870 C   0  0  0  0  0  2  0  0  0  0  0  0
  -27.7300  -13.4130   19.7240 C   0  0  0  0  0  3  0  0  0  0  0  0
  -28.7760  -13.4750   20.8520 C   0  0  0  0  0  2  0  0  0  0  0  0
  -30.0490  -13.8860   20.2370 N   0  0  0  0  0  0  0  0  0  0  0  0
  -31.8970  -15.1360   20.0670 O   0  0  0  0  0  0  0  0  0  0  0  0
  -29.9520  -16.3530   20.4270 N   0  0  0  0  0  4  0  0  0  0  0  0
  -28.9560  -16.1760   20.4350 H   0  0  0  0  0  0  0  0  0  0  0  0
  -25.3520  -13.9840   20.4770 C   0  0  0  0  0  0  0  0  0  0  0  0
  -24.2910  -13.2010   20.8400 C   0  0  0  0  0  0  0  0  0  0  0  0
  -24.7630  -11.8530   20.8070 C   0  0  0  0  0  0  0  0  0  0  0  0
  -26.3970  -13.1110   20.2330 N   0  0  0  0  0  0  0  0  0  0  0  0
  -26.0560  -11.8230   20.5030 N   0  0  0  0  0  0  0  0  0  0  0  0
  -24.0450  -10.5850   20.9940 C   0  0  0  0  0  0  0  0  0  0  0  0
  -24.4780   -9.6210   21.9300 C   0  0  0  0  0  3  0  0  0  0  0  0
  -23.7600   -8.4180   22.1020 C   0  0  0  0  0  3  0  0  0  0  0  0
  -22.5910   -8.1730   21.3410 C   0  0  0  0  0  0  0  0  0  0  0  0
  -22.1750   -9.1280   20.3970 C   0  0  0  0  0  3  0  0  0  0  0  0
  -22.8950  -10.3220   20.2230 C   0  0  0  0  0  3  0  0  0  0  0  0
  -21.8430   -7.0240   21.4260 O   0  0  0  0  0  0  0  0  0  0  0  0
  -21.7920   -6.2820   22.5790 C   0  0  0  0  0  0  0  0  0  0  0  0
  -21.3330   -6.8290   23.7960 C   0  0  0  0  0  3  0  0  0  0  0  0
  -21.2280   -6.0130   24.9400 C   0  0  0  0  0  3  0  0  0  0  0  0
  -21.5700   -4.6490   24.8650 C   0  0  0  0  0  0  0  0  0  0  0  0
  -22.0270   -4.1020   23.6530 C   0  0  0  0  0  3  0  0  0  0  0  0
  -22.1320   -4.9150   22.5120 C   0  0  0  0  0  0  0  0  0  0  0  0
  -22.5500   -4.3800   21.3390 F   0  0  0  0  0  0  0  0  0  0  0  0
  -21.4630   -3.8600   25.9600 F   0  0  0  0  0  0  0  0  0  0  0  0
  -22.8930  -13.6720   21.1100 C   0  0  0  0  0  0  0  0  0  0  0  0
  -22.1680  -12.9680   21.9710 N   0  0  0  0  0  0  0  0  0  0  0  0
  -22.4480  -14.6940   20.5900 O   0  0  0  0  0  0  0  0  0  0  0  0
  -22.5350  -12.1440   22.4210 H   0  0  0  0  0  0  0  0  0  0  0  0
  -21.2280  -13.2650   22.1860 H   0  0  0  0  0  0  0  0  0  0  0  0
  -25.5070  -15.3560   20.3020 N   0  0  0  0  0  0  0  0  0  0  0  0
  -24.7280  -15.9970   20.3940 H   0  0  0  0  0  0  0  0  0  0  0  0
  -26.3360  -15.7900   19.9150 H   0  0  0  0  0  0  0  0  0  0  0  0
  2  1  2  0
  3  1  1  0
  4  6  1  0
  4  5  2  0
  5  2  1  0
  6  3  2  0
  7  6  1  0
  8 19  2  0
  9  7  1  0
  9 14  1  0
 10 18  1  0
 10 20  1  0
 11 17  1  0
 11 13  1  0
 12 18  1  0
 13 14  2  0
 13 12  1  0
 15 16  1  0
 15  9  2  0
 16 11  2  0
 17 10  1  0
 18  8  1  0
 20 22  2  0
 21 20  1  0
 23 21  1  0
 24 33  2  0
 24 29  1  0
 25 21  1  0
 25 29  1  0
 26 25  1  0
 27 28  1  0
 27 26  1  0
 28 24  1  0
 29 30  2  0
 30 31  1  0
 32 31  2  0
 33 32  1  0
 34  8  1  0
 34 39  1  0
 34 35  1  0
 35 38  1  1
 35 36  1  0
 37 35  1  0
 39 42  1  0
 40 44  1  0
 40 39  1  0
 41 40  2  0
 44 43  1  0
 46 44  1  0
 46 47  1  0
 46 45  1  0
 48  5  1  0
 50 49  1  0
 50 48  1  0
 50 52  1  0
 51 52  1  0
 53 61  1  0
 54 59  1  0
 55 56  1  0
 55 54  1  0
 57 56  1  0
 57 66  1  0
 57 58  1  0
 59 53  1  0
 59 58  1  0
 60 53  2  0
 61 62  1  0
 61 52  2  0
 63 64  2  0
 64 83  1  0
 65 64  1  0
 65 68  1  0
 66 63  1  0
 66 67  1  0
 67 65  2  0
 68 69  1  0
 69 70  2  0
 71 74  1  0
 71 70  1  0
 72 71  2  0
 73 72  1  0
 73 68  2  0
 74 75  1  0
 75 76  1  0
 76 77  2  0
 78 77  1  0
 78 82  1  0
 79 78  2  0
 80 75  2  0
 80 79  1  0
 81 80  1  0
 83 84  1  0
 84 87  1  0
 84 86  1  0
 85 83  2  0
 88 89  1  0
 88 63  1  0
 90 88  1  0
M  ISO  4   6 101   7 101  53 100  61 100
M  END
>  <TORSDO>  (43) 
F 19

>  <SCORE>  (43) 
-15.311

>  <name>  (43) 
42

>  <ligand_id>  (43) 
42

>  <original_smiles>  (43) 
[H]c1c([H])c([H])c2c(c1[H])C([H])([H])C([H])([H])C([H])([H])C2([H])N([H])C(=O)C1([H])N(C(=O)C([H])(N([H])C(=O)C([H])(N([H])C([H])([H])[H])C([H])([H])[H])C(C([H])([H])[H])(C([H])([H])[H])C([H])([H])[H])C([H])([H])c2c([H])c(Oc3c([H])c([H])c([H])c(C([H])([H])C([H])(C([H])([H])[H])C([H])(N([H])C(=O)N4C([H])([H])C([H])([H])C([H])([H])C([H])(n5nc(-c6c([H])c([H])c(Oc7c([H])c([H])c(F)c([H])c7F)c([H])c6[H])c(C(=O)N([H])[H])c5N([H])[H])C4([H])[H])C([H])([H])[H])c3[H])c([H])c([H])c2C1([H])[H]

>  <smiles>  (43) 
[H]c1c([H])c([H])c2c(c1[H])C([H])([H])C([H])([H])C([H])([H])C2([H])N([H])C(=O)C1([H])N(C(=O)C([H])(N([H])C(=O)C([H])(N([H])C([H])([H])[H])C([H])([H])[H])C(C([H])([H])[H])(C([H])([H])[H])C([H])([H])[H])C([H])([H])c2c([H])c(Oc3c([H])c([H])c([H])c(C([H])([H])C([H])(C([H])([H])[H])C([H])(N([H])C(=O)N4C([H])([H])C([H])([H])C([H])([H])C([H])(n5nc(-c6c([H])c([H])c(Oc7c([H])c([H])c(F)c([H])c7F)c([H])c6[H])c(C(=O)N([H])[H])c5N([H])[H])C4([H])[H])C([H])([H])[H])c3[H])c([H])c([H])c2C1([H])[H]

$$$$
43:0:0
     RDKit          3D

 88 96  0  0  1  0  0  0  0  0999 V2000
  -28.6060  -22.1320   19.1280 C   0  0  0  0  0  3  0  0  0  0  0  0
  -28.3820  -23.6020   19.0820 C   0  0  0  0  0  3  0  0  0  0  0  0
  -28.6830  -22.2230   21.4210 C   0  0  0  0  0  3  0  0  0  0  0  0
  -28.7890  -21.2900   20.3040 C   0  0  0  0  0  0  0  0  0  0  0  0
  -28.4580  -23.6960   21.3830 C   0  0  0  0  0  0  0  0  0  0  0  0
  -28.2630  -24.5290   20.2020 C   0  0  0  0  0  0  0  0  0  0  0  0
  -28.4400  -24.4250   22.7130 C   0  0  0  0  0  1  0  0  0  0  0  0
  -28.2460  -26.0570   20.1520 O   0  0  0  0  0  0  0  0  0  0  0  0
  -24.6690  -31.9170   23.2260 C   0  0  0  0  0  0  0  0  0  0  0  0
  -27.1770  -27.0790   20.1610 C   0  0  0  0  0  0  0  0  0  0  0  0
  -23.4480  -30.5310   21.5940 C   0  0  0  0  0  3  0  0  0  0  0  0
  -24.8720  -28.9270   20.1510 C   0  0  0  0  0  0  0  0  0  0  0  0
  -26.0080  -30.7470   21.4140 C   0  0  0  0  0  2  0  0  0  0  0  0
  -26.0640  -29.3410   20.7580 C   0  0  0  0  0  0  0  0  0  0  0  0
  -27.2100  -28.4350   20.7420 C   0  0  0  0  0  3  0  0  0  0  0  0
  -25.9570  -26.8010   19.5110 C   0  0  0  0  0  3  0  0  0  0  0  0
  -24.8390  -27.6770   19.5090 C   0  0  0  0  0  3  0  0  0  0  0  0
  -23.6560  -29.8490   20.2130 C   0  0  0  0  0  2  0  0  0  0  0  0
  -24.7300  -31.0920   22.1320 N   0  0  0  0  0  0  0  0  0  0  0  0
  -23.5870  -32.2070   23.7630 O   0  0  0  0  0  0  0  0  0  0  0  0
  -22.7650  -29.5340   22.5650 C   0  0  0  0  0  0  0  0  0  0  0  0
  -21.4350  -29.3610   22.4430 N   0  0  0  0  0  0  0  0  0  0  0  0
  -23.4370  -28.9150   23.3940 O   0  0  0  0  0  0  0  0  0  0  0  0
  -20.9470  -29.9120   21.7500 H   0  0  0  0  0  0  0  0  0  0  0  0
  -18.0630  -28.1340   22.9540 C   0  0  0  0  0  0  0  0  0  0  0  0
  -20.6200  -28.4220   23.2190 C   0  0  0  0  0  3  0  0  0  0  0  0
  -20.7330  -26.9880   22.6510 C   0  0  0  0  0  2  0  0  0  0  0  0
  -19.6340  -26.6510   21.6380 C   0  0  0  0  0  2  0  0  0  0  0  0
  -18.2520  -26.7840   22.2810 C   0  0  0  0  0  2  0  0  0  0  0  0
  -19.1740  -28.9090   23.3790 C   0  0  0  0  0  0  0  0  0  0  0  0
  -18.9400  -30.1690   23.9730 C   0  0  0  0  0  3  0  0  0  0  0  0
  -17.6300  -30.6540   24.1420 C   0  0  0  0  0  3  0  0  0  0  0  0
  -16.5330  -29.8760   23.7310 C   0  0  0  0  0  3  0  0  0  0  0  0
  -16.7510  -28.6180   23.1420 C   0  0  0  0  0  3  0  0  0  0  0  0
  -25.9510  -32.5500   23.8460 C   0  0  0  0  0  3  0  0  0  0  0  0
  -25.6390  -33.9460   24.2030 N   0  0  0  0  0  0  0  0  0  0  0  0
  -25.9310  -35.0140   23.4490 C   0  0  0  0  0  0  0  0  0  0  0  0
  -26.5530  -34.9300   22.3870 O   0  0  0  0  0  0  0  0  0  0  0  0
  -25.0790  -34.0840   25.0310 H   0  0  0  0  0  0  0  0  0  0  0  0
  -24.1690  -36.7990   23.2210 C   0  0  0  0  0  1  0  0  0  0  0  0
  -25.4600  -36.3960   23.9500 C   0  0  0  0  0  3  0  0  0  0  0  0
  -27.6290  -37.3030   24.6650 C   0  0  0  0  0  1  0  0  0  0  0  0
  -26.4750  -37.4600   23.7850 N   0  0  0  0  0  0  0  0  0  0  0  0
  -26.0670  -38.3760   23.9560 H   0  0  0  0  0  0  0  0  0  0  0  0
  -26.4760  -31.7690   25.1140 C   0  0  1  0  0  0  0  0  0  0  0  0
  -25.3910  -31.5270   26.1910 C   0  0  0  0  0  1  0  0  0  0  0  0
  -27.0530  -30.3930   24.7150 C   0  0  0  0  0  1  0  0  0  0  0  0
  -27.6340  -32.5570   25.7720 C   0  0  0  0  0  1  0  0  0  0  0  0
  -28.7620  -19.5490   20.3870 C   0  0  0  0  0  3  0  0  0  0  0  0
  -29.9190  -18.2010   20.3360 C   0  0  0  0  0  3  0  0  0  0  0  0
  -30.4280  -15.3190   20.2650 C   0  0  0  0  0  0  0  0  0  0  0  0
  -30.3980  -12.9060   19.3410 C   0  0  0  0  0  2  0  0  0  0  0  0
  -29.4660  -12.7450   18.1150 C   0  0  0  0  0  2  0  0  0  0  0  0
  -28.0180  -12.4700   18.5620 C   0  0  0  0  0  2  0  0  0  0  0  0
  -27.5790  -13.4030   19.7180 C   0  0  0  0  0  3  0  0  0  0  0  0
  -28.6380  -13.5120   20.8360 C   0  0  0  0  0  2  0  0  0  0  0  0
  -29.8650  -14.0190   20.2030 N   0  0  0  0  0  0  0  0  0  0  0  0
  -31.6420  -15.3450   20.0200 O   0  0  0  0  0  0  0  0  0  0  0  0
  -29.6520  -16.5640   20.4010 N   0  0  0  0  0  0  0  0  0  0  0  0
  -28.6780  -16.3510   20.5630 H   0  0  0  0  0  0  0  0  0  0  0  0
  -25.2040  -13.9320   20.4870 C   0  0  0  0  0  0  0  0  0  0  0  0
  -24.1540  -13.1400   20.8570 C   0  0  0  0  0  0  0  0  0  0  0  0
  -24.6370  -11.7950   20.8150 C   0  0  0  0  0  0  0  0  0  0  0  0
  -26.2570  -13.0710   20.2310 N   0  0  0  0  0  0  0  0  0  0  0  0
  -25.9270  -11.7800   20.4970 N   0  0  0  0  0  0  0  0  0  0  0  0
  -23.9260  -10.5240   20.9980 C   0  0  0  0  0  0  0  0  0  0  0  0
  -24.3550   -9.5660   21.9430 C   0  0  0  0  0  3  0  0  0  0  0  0
  -23.6400   -8.3600   22.1150 C   0  0  0  0  0  3  0  0  0  0  0  0
  -22.4830   -8.1040   21.3420 C   0  0  0  0  0  0  0  0  0  0  0  0
  -22.0740   -9.0500   20.3850 C   0  0  0  0  0  3  0  0  0  0  0  0
  -22.7900  -10.2470   20.2110 C   0  0  0  0  0  3  0  0  0  0  0  0
  -21.7400   -6.9510   21.4230 O   0  0  0  0  0  0  0  0  0  0  0  0
  -21.6550   -6.2310   22.5880 C   0  0  0  0  0  0  0  0  0  0  0  0
  -21.1340   -6.7920   23.7740 C   0  0  0  0  0  3  0  0  0  0  0  0
  -20.9990   -5.9960   24.9290 C   0  0  0  0  0  3  0  0  0  0  0  0
  -21.3750   -4.6390   24.8980 C   0  0  0  0  0  0  0  0  0  0  0  0
  -21.8870   -4.0780   23.7160 C   0  0  0  0  0  3  0  0  0  0  0  0
  -22.0240   -4.8710   22.5640 C   0  0  0  0  0  0  0  0  0  0  0  0
  -22.5000   -4.3180   21.4220 F   0  0  0  0  0  0  0  0  0  0  0  0
  -21.2380   -3.8720   26.0050 F   0  0  0  0  0  0  0  0  0  0  0  0
  -22.7520  -13.5990   21.1320 C   0  0  0  0  0  0  0  0  0  0  0  0
  -22.0360  -12.8970   22.0020 N   0  0  0  0  0  0  0  0  0  0  0  0
  -22.2990  -14.6170   20.6100 O   0  0  0  0  0  0  0  0  0  0  0  0
  -22.4160  -12.0740   22.4480 H   0  0  0  0  0  0  0  0  0  0  0  0
  -21.0960  -13.1870   22.2290 H   0  0  0  0  0  0  0  0  0  0  0  0
  -25.3470  -15.3070   20.3150 N   0  0  0  0  0  0  0  0  0  0  0  0
  -24.5660  -15.9440   20.4300 H   0  0  0  0  0  0  0  0  0  0  0  0
  -26.1680  -15.7560   19.9340 H   0  0  0  0  0  0  0  0  0  0  0  0
  1  4  1  0
  2  1  2  0
  2  6  1  0
  4 49  1  0
  4  3  2  0
  5  3  1  0
  5  7  1  0
  6  5  2  0
  8 10  1  0
  8  6  1  0
  9 20  2  0
 10 15  1  0
 11 19  1  0
 11 21  1  0
 12 18  1  0
 12 14  1  0
 13 19  1  0
 14 13  1  0
 15 14  2  0
 16 10  2  0
 17 16  1  0
 17 12  2  0
 18 11  1  0
 19  9  1  0
 21 23  2  0
 22 21  1  0
 24 22  1  0
 25 34  2  0
 25 30  1  0
 26 22  1  0
 26 30  1  0
 27 26  1  0
 28 29  1  0
 28 27  1  0
 29 25  1  0
 30 31  2  0
 31 32  1  0
 33 32  2  0
 34 33  1  0
 35  9  1  0
 35 36  1  0
 35 45  1  0
 36 39  1  0
 37 41  1  0
 37 36  1  0
 38 37  2  0
 41 40  1  0
 43 41  1  0
 43 44  1  0
 43 42  1  0
 45 48  1  1
 45 46  1  0
 47 45  1  0
 50 49  2  0
 50 59  1  0
 51 59  1  0
 52 57  1  0
 53 54  1  0
 53 52  1  0
 55 54  1  0
 55 64  1  0
 55 56  1  0
 57 51  1  0
 57 56  1  0
 58 51  2  0
 59 60  1  0
 61 62  2  0
 62 81  1  0
 63 62  1  0
 63 66  1  0
 64 61  1  0
 64 65  1  0
 65 63  2  0
 66 67  1  0
 67 68  2  0
 69 72  1  0
 69 68  1  0
 70 69  2  0
 71 70  1  0
 71 66  2  0
 72 73  1  0
 73 74  1  0
 74 75  2  0
 76 75  1  0
 76 80  1  0
 77 76  2  0
 78 73  2  0
 78 77  1  0
 79 78  1  0
 81 82  1  0
 82 85  1  0
 82 84  1  0
 83 81  2  0
 86 87  1  0
 86 61  1  0
 88 86  1  0
M  ISO  4   6 101   8 101  51 100  59 100
M  END
>  <TORSDO>  (44) 
F 18

>  <SCORE>  (44) 
-15.529

>  <name>  (44) 
43

>  <ligand_id>  (44) 
43

>  <original_smiles>  (44) 
[H]c1c([H])c([H])c2c(c1[H])C([H])([H])C([H])([H])C([H])([H])C2([H])N([H])C(=O)C1([H])N(C(=O)C([H])(N([H])C(=O)C([H])(N([H])C([H])([H])[H])C([H])([H])[H])C(C([H])([H])[H])(C([H])([H])[H])C([H])([H])[H])C([H])([H])c2c([H])c(Oc3c([H])c([H])c(C([H])([H])C([H])([H])N([H])C(=O)N4C([H])([H])C([H])([H])C([H])([H])C([H])(n5nc(-c6c([H])c([H])c(Oc7c([H])c([H])c(F)c([H])c7F)c([H])c6[H])c(C(=O)N([H])[H])c5N([H])[H])C4([H])[H])c([H])c3C([H])([H])[H])c([H])c([H])c2C1([H])[H]

>  <smiles>  (44) 
[H]c1c([H])c([H])c2c(c1[H])C([H])([H])C([H])([H])C([H])([H])C2([H])N([H])C(=O)C1([H])N(C(=O)C([H])(N([H])C(=O)C([H])(N([H])C([H])([H])[H])C([H])([H])[H])C(C([H])([H])[H])(C([H])([H])[H])C([H])([H])[H])C([H])([H])c2c([H])c(Oc3c([H])c([H])c(C([H])([H])C([H])([H])N([H])C(=O)N4C([H])([H])C([H])([H])C([H])([H])C([H])(n5nc(-c6c([H])c([H])c(Oc7c([H])c([H])c(F)c([H])c7F)c([H])c6[H])c(C(=O)N([H])[H])c5N([H])[H])C4([H])[H])c([H])c3C([H])([H])[H])c([H])c([H])c2C1([H])[H]

$$$$
44:0:0
     RDKit          3D

 91 99  0  0  1  0  0  0  0  0999 V2000
  -31.4080  -23.8830   18.4240 C   0  0  0  0  0  3  0  0  0  0  0  0
  -31.7510  -22.5420   18.5680 C   0  0  0  0  0  3  0  0  0  0  0  0
  -30.2370  -24.3670   19.0170 C   0  0  0  0  0  3  0  0  0  0  0  0
  -30.9060  -21.6840   19.2820 C   0  0  0  0  0  3  0  0  0  0  0  0
  -29.3370  -23.5770   19.7820 C   0  0  0  0  0  0  0  0  0  0  0  0
  -29.6840  -22.0830   19.8900 C   0  0  0  0  0  0  0  0  0  0  0  0
  -27.6000  -21.0060   20.9840 C   0  0  0  0  0  1  0  0  0  0  0  0
  -29.0690  -20.7430   20.6240 C   0  0  0  0  0  3  0  0  0  0  0  0
  -29.1980  -19.2690   20.0000 N   0  0  0  0  0  4  0  0  0  0  0  0
  -28.2420  -18.9620   19.9650 H   0  0  0  0  0  0  0  0  0  0  0  0
  -29.4630  -19.3820   19.0350 H   0  0  0  0  0  0  0  0  0  0  0  0
  -29.9930  -18.0050   20.5740 C   0  0  0  0  0  2  0  0  0  0  0  0
  -29.5360  -16.3860   20.2910 C   0  0  0  0  0  2  0  0  0  0  0  0
  -30.4470  -14.9800   20.2430 C   0  0  0  0  0  0  0  0  0  0  0  0
  -30.3670  -12.6070   19.3320 C   0  0  0  0  0  2  0  0  0  0  0  0
  -29.4210  -12.5700   18.1060 C   0  0  0  0  0  2  0  0  0  0  0  0
  -27.9570  -12.3620   18.5440 C   0  0  0  0  0  2  0  0  0  0  0  0
  -27.5610  -13.2830   19.7270 C   0  0  0  0  0  3  0  0  0  0  0  0
  -28.6260  -13.2790   20.8410 C   0  0  0  0  0  2  0  0  0  0  0  0
  -29.9000  -13.6940   20.2400 N   0  0  0  0  0  0  0  0  0  0  0  0
  -31.6540  -15.0550   19.9790 O   0  0  0  0  0  0  0  0  0  0  0  0
  -25.1860  -13.8670   20.4810 C   0  0  0  0  0  0  0  0  0  0  0  0
  -24.1240  -13.0960   20.8650 C   0  0  0  0  0  0  0  0  0  0  0  0
  -24.5870  -11.7440   20.8400 C   0  0  0  0  0  0  0  0  0  0  0  0
  -26.2270  -12.9870   20.2390 N   0  0  0  0  0  0  0  0  0  0  0  0
  -25.8760  -11.7050   20.5210 N   0  0  0  0  0  0  0  0  0  0  0  0
  -23.8600  -10.4850   21.0460 C   0  0  0  0  0  0  0  0  0  0  0  0
  -24.3130   -9.5110   21.9630 C   0  0  0  0  0  3  0  0  0  0  0  0
  -23.5870   -8.3170   22.1580 C   0  0  0  0  0  3  0  0  0  0  0  0
  -22.3930   -8.0870   21.4340 C   0  0  0  0  0  0  0  0  0  0  0  0
  -21.9570   -9.0490   20.5060 C   0  0  0  0  0  3  0  0  0  0  0  0
  -22.6850  -10.2350   20.3090 C   0  0  0  0  0  3  0  0  0  0  0  0
  -21.6350   -6.9460   21.5390 O   0  0  0  0  0  0  0  0  0  0  0  0
  -21.6320   -6.1850   22.6800 C   0  0  0  0  0  0  0  0  0  0  0  0
  -21.2870   -6.7270   23.9370 C   0  0  0  0  0  3  0  0  0  0  0  0
  -21.2310   -5.8930   25.0730 C   0  0  0  0  0  3  0  0  0  0  0  0
  -21.5090   -4.5190   24.9510 C   0  0  0  0  0  0  0  0  0  0  0  0
  -21.8450   -3.9750   23.6980 C   0  0  0  0  0  3  0  0  0  0  0  0
  -21.9040   -4.8060   22.5660 C   0  0  0  0  0  0  0  0  0  0  0  0
  -22.2090   -4.2740   21.3580 F   0  0  0  0  0  0  0  0  0  0  0  0
  -21.4480   -3.7160   26.0390 F   0  0  0  0  0  0  0  0  0  0  0  0
  -22.7290  -13.5760   21.1410 C   0  0  0  0  0  0  0  0  0  0  0  0
  -22.0080  -12.8900   22.0200 N   0  0  0  0  0  0  0  0  0  0  0  0
  -22.2880  -14.5960   20.6120 O   0  0  0  0  0  0  0  0  0  0  0  0
  -22.3770  -12.0650   22.4690 H   0  0  0  0  0  0  0  0  0  0  0  0
  -21.0700  -13.1940   22.2470 H   0  0  0  0  0  0  0  0  0  0  0  0
  -25.3500  -15.2370   20.2940 N   0  0  0  0  0  0  0  0  0  0  0  0
  -24.5840  -15.8920   20.4070 H   0  0  0  0  0  0  0  0  0  0  0  0
  -26.1940  -15.6680   19.9410 H   0  0  0  0  0  0  0  0  0  0  0  0
  -28.1520  -24.5980   20.2970 C   0  0  0  0  0  2  0  0  0  0  0  0
  -28.3060  -26.1620   20.1840 O   0  0  0  0  0  0  0  0  0  0  0  0
  -24.6630  -31.8550   23.1880 C   0  0  0  0  0  0  0  0  0  0  0  0
  -27.2210  -27.1190   20.1660 C   0  0  0  0  0  0  0  0  0  0  0  0
  -23.4480  -30.4490   21.5680 C   0  0  0  0  0  3  0  0  0  0  0  0
  -24.8850  -28.8630   20.1420 C   0  0  0  0  0  0  0  0  0  0  0  0
  -25.9990  -30.7160   21.3750 C   0  0  0  0  0  2  0  0  0  0  0  0
  -26.0700  -29.3180   20.7340 C   0  0  0  0  0  0  0  0  0  0  0  0
  -27.2380  -28.4640   20.7210 C   0  0  0  0  0  3  0  0  0  0  0  0
  -26.0070  -26.7660   19.5380 C   0  0  0  0  0  3  0  0  0  0  0  0
  -24.8670  -27.6020   19.5260 C   0  0  0  0  0  3  0  0  0  0  0  0
  -23.6560  -29.7600   20.1940 C   0  0  0  0  0  2  0  0  0  0  0  0
  -24.7240  -31.0290   22.0990 N   0  0  0  0  0  0  0  0  0  0  0  0
  -23.5830  -32.1410   23.7270 O   0  0  0  0  0  0  0  0  0  0  0  0
  -22.7800  -29.4470   22.5440 C   0  0  0  0  0  0  0  0  0  0  0  0
  -21.4510  -29.2780   22.4340 N   0  0  0  0  0  0  0  0  0  0  0  0
  -23.4610  -28.8240   23.3620 O   0  0  0  0  0  0  0  0  0  0  0  0
  -20.9570  -29.8320   21.7490 H   0  0  0  0  0  0  0  0  0  0  0  0
  -18.0770  -28.0710   22.9720 C   0  0  0  0  0  0  0  0  0  0  0  0
  -20.6370  -28.3450   23.2190 C   0  0  0  0  0  3  0  0  0  0  0  0
  -20.7400  -26.9080   22.6570 C   0  0  0  0  0  2  0  0  0  0  0  0
  -19.6320  -26.5720   21.6530 C   0  0  0  0  0  2  0  0  0  0  0  0
  -18.2540  -26.7160   22.3050 C   0  0  0  0  0  2  0  0  0  0  0  0
  -19.1950  -28.8420   23.3870 C   0  0  0  0  0  0  0  0  0  0  0  0
  -18.9740  -30.1080   23.9710 C   0  0  0  0  0  3  0  0  0  0  0  0
  -17.6680  -30.6020   24.1460 C   0  0  0  0  0  3  0  0  0  0  0  0
  -16.5640  -29.8280   23.7460 C   0  0  0  0  0  3  0  0  0  0  0  0
  -16.7690  -28.5640   23.1640 C   0  0  0  0  0  3  0  0  0  0  0  0
  -25.9460  -32.4960   23.7990 C   0  0  0  0  0  3  0  0  0  0  0  0
  -25.6280  -33.8880   24.1570 N   0  0  0  0  0  0  0  0  0  0  0  0
  -25.9330  -34.9580   23.4100 C   0  0  0  0  0  0  0  0  0  0  0  0
  -26.5780  -34.8770   22.3630 O   0  0  0  0  0  0  0  0  0  0  0  0
  -25.0490  -34.0220   24.9730 H   0  0  0  0  0  0  0  0  0  0  0  0
  -24.1750  -36.7380   23.1360 C   0  0  0  0  0  1  0  0  0  0  0  0
  -25.4460  -36.3350   23.9030 C   0  0  0  0  0  3  0  0  0  0  0  0
  -27.5980  -37.2310   24.6760 C   0  0  0  0  0  1  0  0  0  0  0  0
  -26.4630  -37.4020   23.7720 N   0  0  0  0  0  0  0  0  0  0  0  0
  -26.0520  -38.3140   23.9470 H   0  0  0  0  0  0  0  0  0  0  0  0
  -26.4870  -31.7170   25.0620 C   0  0  1  0  0  0  0  0  0  0  0  0
  -25.4130  -31.4660   26.1470 C   0  0  0  0  0  1  0  0  0  0  0  0
  -27.0700  -30.3440   24.6540 C   0  0  0  0  0  1  0  0  0  0  0  0
  -27.6450  -32.5110   25.7110 C   0  0  0  0  0  1  0  0  0  0  0  0
  1  2  2  0
  1  3  1  0
  2  4  1  0
  3  5  2  0
  4  6  2  0
  5  6  1  0
  5 50  1  0
  6  8  1  0
  8  7  1  0
  9 12  1  0
  9  8  1  0
 10  9  1  0
 11  9  1  0
 13 12  1  0
 14 13  1  0
 15 20  1  0
 16 17  1  0
 16 15  1  0
 18 17  1  0
 18 25  1  0
 18 19  1  0
 20 14  1  0
 20 19  1  0
 21 14  2  0
 22 23  2  0
 23 42  1  0
 24 23  1  0
 24 27  1  0
 25 22  1  0
 25 26  1  0
 26 24  2  0
 27 28  1  0
 28 29  2  0
 30 33  1  0
 30 29  1  0
 31 30  2  0
 32 31  1  0
 32 27  2  0
 33 34  1  0
 34 35  1  0
 35 36  2  0
 37 36  1  0
 37 41  1  0
 38 37  2  0
 39 34  2  0
 39 38  1  0
 40 39  1  0
 42 43  1  0
 43 46  1  0
 43 45  1  0
 44 42  2  0
 47 48  1  0
 47 22  1  0
 49 47  1  0
 51 50  1  0
 52 63  2  0
 53 51  1  0
 53 58  1  0
 54 62  1  0
 54 64  1  0
 55 61  1  0
 55 57  1  0
 56 62  1  0
 57 56  1  0
 58 57  2  0
 59 53  2  0
 60 59  1  0
 60 55  2  0
 61 54  1  0
 62 52  1  0
 64 66  2  0
 65 64  1  0
 67 65  1  0
 68 77  2  0
 68 73  1  0
 69 65  1  0
 69 73  1  0
 70 69  1  0
 71 72  1  0
 71 70  1  0
 72 68  1  0
 73 74  2  0
 74 75  1  0
 76 75  2  0
 77 76  1  0
 78 52  1  0
 78 79  1  0
 78 88  1  0
 79 82  1  0
 80 84  1  0
 80 79  1  0
 81 80  2  0
 84 83  1  0
 86 84  1  0
 86 87  1  0
 86 85  1  0
 88 91  1  1
 88 89  1  0
 90 88  1  0
M  ISO  4  13 100  14 100  50 101  51 101
M  END
>  <TORSDO>  (45) 
F 21

>  <SCORE>  (45) 
-13.587

>  <name>  (45) 
44

>  <ligand_id>  (45) 
44

>  <original_smiles>  (45) 
[H]c1c([H])c([H])c(C([H])(C([H])([H])[H])[N+]([H])([H])C([H])([H])C([H])([H])C(=O)N2C([H])([H])C([H])([H])C([H])([H])C([H])(n3nc(-c4c([H])c([H])c(Oc5c([H])c([H])c(F)c([H])c5F)c([H])c4[H])c(C(=O)N([H])[H])c3N([H])[H])C2([H])[H])c(C([H])([H])Oc2c([H])c([H])c3c(c2[H])C([H])([H])N(C(=O)C([H])(N([H])C(=O)C([H])(N([H])C([H])([H])[H])C([H])([H])[H])C(C([H])([H])[H])(C([H])([H])[H])C([H])([H])[H])C([H])(C(=O)N([H])C2([H])c4c([H])c([H])c([H])c([H])c4C([H])([H])C([H])([H])C2([H])[H])C3([H])[H])c1[H]

>  <smiles>  (45) 
[H]c1c([H])c([H])c(C([H])(C([H])([H])[H])[N+]([H])([H])C([H])([H])C([H])([H])C(=O)N2C([H])([H])C([H])([H])C([H])([H])C([H])(n3nc(-c4c([H])c([H])c(Oc5c([H])c([H])c(F)c([H])c5F)c([H])c4[H])c(C(=O)N([H])[H])c3N([H])[H])C2([H])[H])c(C([H])([H])Oc2c([H])c([H])c3c(c2[H])C([H])([H])N(C(=O)C([H])(N([H])C(=O)C([H])(N([H])C([H])([H])[H])C([H])([H])[H])C(C([H])([H])[H])(C([H])([H])[H])C([H])([H])[H])C([H])(C(=O)N([H])C2([H])c4c([H])c([H])c([H])c([H])c4C([H])([H])C([H])([H])C2([H])[H])C3([H])[H])c1[H]

$$$$
45:0:0
     RDKit          3D

 88 96  0  0  1  0  0  0  0  0999 V2000
  -28.6120  -21.6890   20.3880 C   0  0  0  0  0  2  0  0  0  0  0  0
  -29.6490  -20.4830   20.2940 N   0  0  0  0  0  4  0  0  0  0  0  0
  -30.0660  -20.5330   19.3780 H   0  0  0  0  0  0  0  0  0  0  0  0
  -30.3850  -20.7200   20.9400 H   0  0  0  0  0  0  0  0  0  0  0  0
  -30.5480  -15.0480   20.2710 C   0  0  0  0  0  0  0  0  0  0  0  0
  -30.3740  -12.6970   19.3220 C   0  0  0  0  0  2  0  0  0  0  0  0
  -29.4260  -12.6140   18.1060 C   0  0  0  0  0  2  0  0  0  0  0  0
  -27.9800  -12.3640   18.5710 C   0  0  0  0  0  2  0  0  0  0  0  0
  -27.5680  -13.2980   19.7340 C   0  0  0  0  0  3  0  0  0  0  0  0
  -28.6440  -13.3870   20.8400 C   0  0  0  0  0  2  0  0  0  0  0  0
  -29.8940  -13.8120   20.1920 N   0  0  0  0  0  0  0  0  0  0  0  0
  -31.7700  -15.0210   20.0870 O   0  0  0  0  0  0  0  0  0  0  0  0
  -28.3490  -18.2100   19.6660 C   0  0  0  0  0  2  0  0  0  0  0  0
  -28.5190  -16.6590   19.9180 C   0  0  0  0  0  2  0  0  0  0  0  0
  -30.4650  -17.7520   20.5440 C   0  0  0  0  0  2  0  0  0  0  0  0
  -29.3330  -18.9440   20.5810 C   0  0  0  0  0  3  0  0  0  0  0  0
  -29.8820  -16.3230   20.3800 N   0  0  0  0  0  0  0  0  0  0  0  0
  -25.2000  -13.8710   20.5110 C   0  0  0  0  0  0  0  0  0  0  0  0
  -24.1450  -13.0920   20.8870 C   0  0  0  0  0  0  0  0  0  0  0  0
  -24.6130  -11.7430   20.8420 C   0  0  0  0  0  0  0  0  0  0  0  0
  -26.2440  -12.9960   20.2570 N   0  0  0  0  0  0  0  0  0  0  0  0
  -25.9020  -11.7120   20.5230 N   0  0  0  0  0  0  0  0  0  0  0  0
  -23.8940  -10.4790   21.0250 C   0  0  0  0  0  0  0  0  0  0  0  0
  -24.3200   -9.5160   21.9660 C   0  0  0  0  0  3  0  0  0  0  0  0
  -23.5980   -8.3160   22.1370 C   0  0  0  0  0  3  0  0  0  0  0  0
  -22.4370   -8.0700   21.3670 C   0  0  0  0  0  0  0  0  0  0  0  0
  -22.0310   -9.0210   20.4150 C   0  0  0  0  0  3  0  0  0  0  0  0
  -22.7530  -10.2130   20.2410 C   0  0  0  0  0  3  0  0  0  0  0  0
  -21.6890   -6.9210   21.4470 O   0  0  0  0  0  0  0  0  0  0  0  0
  -21.6050   -6.1990   22.6110 C   0  0  0  0  0  0  0  0  0  0  0  0
  -21.1140   -6.7670   23.8070 C   0  0  0  0  0  3  0  0  0  0  0  0
  -20.9790   -5.9700   24.9610 C   0  0  0  0  0  3  0  0  0  0  0  0
  -21.3240   -4.6060   24.9200 C   0  0  0  0  0  0  0  0  0  0  0  0
  -21.8090   -4.0380   23.7290 C   0  0  0  0  0  3  0  0  0  0  0  0
  -21.9460   -4.8310   22.5760 C   0  0  0  0  0  0  0  0  0  0  0  0
  -22.3930   -4.2740   21.4250 F   0  0  0  0  0  0  0  0  0  0  0  0
  -21.1870   -3.8370   26.0250 F   0  0  0  0  0  0  0  0  0  0  0  0
  -22.7490  -13.5640   21.1700 C   0  0  0  0  0  0  0  0  0  0  0  0
  -22.0300  -12.8600   22.0370 N   0  0  0  0  0  0  0  0  0  0  0  0
  -22.3060  -14.5920   20.6590 O   0  0  0  0  0  0  0  0  0  0  0  0
  -22.4020  -12.0290   22.4710 H   0  0  0  0  0  0  0  0  0  0  0  0
  -21.0930  -13.1590   22.2710 H   0  0  0  0  0  0  0  0  0  0  0  0
  -25.3470  -15.2430   20.3310 N   0  0  0  0  0  0  0  0  0  0  0  0
  -24.5640  -15.8790   20.4380 H   0  0  0  0  0  0  0  0  0  0  0  0
  -26.1700  -15.6850   19.9470 H   0  0  0  0  0  0  0  0  0  0  0  0
  -29.0320  -23.3370   20.2920 C   0  0  0  0  0  3  0  0  0  0  0  0
  -27.9540  -24.6450   20.2310 C   0  0  0  0  0  3  0  0  0  0  0  0
  -28.2370  -26.1870   20.2540 O   0  0  0  0  0  0  0  0  0  0  0  0
  -24.6210  -31.8990   23.2420 C   0  0  0  0  0  0  0  0  0  0  0  0
  -27.1770  -27.1720   20.2040 C   0  0  0  0  0  0  0  0  0  0  0  0
  -23.4110  -30.5070   21.6090 C   0  0  0  0  0  3  0  0  0  0  0  0
  -24.8500  -28.9270   20.1800 C   0  0  0  0  0  0  0  0  0  0  0  0
  -25.9650  -30.7640   21.4330 C   0  0  0  0  0  2  0  0  0  0  0  0
  -26.0340  -29.3710   20.7810 C   0  0  0  0  0  0  0  0  0  0  0  0
  -27.1990  -28.5120   20.7720 C   0  0  0  0  0  3  0  0  0  0  0  0
  -25.9620  -26.8320   19.5670 C   0  0  0  0  0  3  0  0  0  0  0  0
  -24.8280  -27.6710   19.5570 C   0  0  0  0  0  3  0  0  0  0  0  0
  -23.6250  -29.8270   20.2300 C   0  0  0  0  0  2  0  0  0  0  0  0
  -24.6860  -31.0780   22.1500 N   0  0  0  0  0  0  0  0  0  0  0  0
  -23.5370  -32.1860   23.7740 O   0  0  0  0  0  0  0  0  0  0  0  0
  -22.7320  -29.5010   22.5730 C   0  0  0  0  0  0  0  0  0  0  0  0
  -21.4030  -29.3330   22.4480 N   0  0  0  0  0  0  0  0  0  0  0  0
  -23.4030  -28.8750   23.3970 O   0  0  0  0  0  0  0  0  0  0  0  0
  -20.9180  -29.8870   21.7570 H   0  0  0  0  0  0  0  0  0  0  0  0
  -18.0200  -28.1410   22.9630 C   0  0  0  0  0  0  0  0  0  0  0  0
  -20.5800  -28.3980   23.2220 C   0  0  0  0  0  3  0  0  0  0  0  0
  -20.6770  -26.9650   22.6490 C   0  0  0  0  0  2  0  0  0  0  0  0
  -19.5720  -26.6430   21.6390 C   0  0  0  0  0  2  0  0  0  0  0  0
  -18.1940  -26.7900   22.2890 C   0  0  0  0  0  2  0  0  0  0  0  0
  -19.1410  -28.9020   23.3870 C   0  0  0  0  0  0  0  0  0  0  0  0
  -18.9240  -30.1650   23.9800 C   0  0  0  0  0  3  0  0  0  0  0  0
  -17.6210  -30.6650   24.1530 C   0  0  0  0  0  3  0  0  0  0  0  0
  -16.5140  -29.9020   23.7440 C   0  0  0  0  0  3  0  0  0  0  0  0
  -16.7150  -28.6400   23.1550 C   0  0  0  0  0  3  0  0  0  0  0  0
  -25.9020  -32.5320   23.8640 C   0  0  0  0  0  3  0  0  0  0  0  0
  -26.4180  -31.7590   25.1400 C   0  0  1  0  0  0  0  0  0  0  0  0
  -25.3250  -31.5230   26.2100 C   0  0  0  0  0  1  0  0  0  0  0  0
  -26.9990  -30.3810   24.7510 C   0  0  0  0  0  1  0  0  0  0  0  0
  -27.5700  -32.5510   25.8010 C   0  0  0  0  0  1  0  0  0  0  0  0
  -25.5920  -33.9290   24.2040 N   0  0  0  0  0  0  0  0  0  0  0  0
  -25.9030  -34.9880   23.4440 C   0  0  0  0  0  0  0  0  0  0  0  0
  -26.5460  -34.8900   22.3950 O   0  0  0  0  0  0  0  0  0  0  0  0
  -25.0180  -34.0790   25.0200 H   0  0  0  0  0  0  0  0  0  0  0  0
  -24.1540  -36.7750   23.1540 C   0  0  0  0  0  1  0  0  0  0  0  0
  -25.4260  -36.3740   23.9200 C   0  0  0  0  0  3  0  0  0  0  0  0
  -27.5810  -37.2750   24.6780 C   0  0  0  0  0  1  0  0  0  0  0  0
  -26.4480  -37.4340   23.7700 N   0  0  0  0  0  0  0  0  0  0  0  0
  -26.0420  -38.3520   23.9290 H   0  0  0  0  0  0  0  0  0  0  0  0
  2  1  1  0
  2  4  1  0
  3  2  1  0
  5 17  1  0
  6 11  1  0
  7  8  1  0
  7  6  1  0
  9  8  1  0
  9 21  1  0
  9 10  1  0
 11  5  1  0
 11 10  1  0
 12  5  2  0
 13 14  1  0
 13 16  1  0
 14 17  1  0
 15 16  1  0
 16  2  1  0
 17 15  1  0
 18 19  2  0
 19 38  1  0
 20 19  1  0
 20 23  1  0
 21 18  1  0
 21 22  1  0
 22 20  2  0
 23 24  1  0
 24 25  2  0
 26 29  1  0
 26 25  1  0
 27 26  2  0
 28 27  1  0
 28 23  2  0
 29 30  1  0
 30 31  1  0
 31 32  2  0
 33 32  1  0
 33 37  1  0
 34 33  2  0
 35 30  2  0
 35 34  1  0
 36 35  1  0
 38 39  1  0
 39 42  1  0
 39 41  1  0
 40 38  2  0
 43 44  1  0
 43 18  1  0
 45 43  1  0
 46  1  1  0
 47 48  1  0
 47 46  2  0
 49 60  2  0
 50 48  1  0
 50 55  1  0
 51 59  1  0
 51 61  1  0
 52 58  1  0
 52 54  1  0
 53 59  1  0
 54 53  1  0
 55 54  2  0
 56 50  2  0
 57 56  1  0
 57 52  2  0
 58 51  1  0
 59 49  1  0
 61 63  2  0
 62 61  1  0
 64 62  1  0
 65 74  2  0
 65 70  1  0
 66 62  1  0
 66 70  1  0
 67 66  1  0
 68 69  1  0
 68 67  1  0
 69 65  1  0
 70 71  2  0
 71 72  1  0
 73 72  2  0
 74 73  1  0
 75 49  1  0
 75 80  1  0
 75 76  1  0
 76 79  1  1
 76 77  1  0
 78 76  1  0
 80 83  1  0
 81 85  1  0
 81 80  1  0
 82 81  2  0
 85 84  1  0
 87 85  1  0
 87 88  1  0
 87 86  1  0
M  ISO  4   5 100  17 100  47 101  48 101
M  END
>  <TORSDO>  (46) 
F 19

>  <SCORE>  (46) 
-15.412

>  <name>  (46) 
45

>  <ligand_id>  (46) 
45

>  <original_smiles>  (46) 
[H]c1c([H])c([H])c2c(c1[H])C([H])([H])C([H])([H])C([H])([H])C2([H])N([H])C(=O)C1([H])N(C(=O)C([H])(N([H])C(=O)C([H])(N([H])C([H])([H])[H])C([H])([H])[H])C(C([H])([H])[H])(C([H])([H])[H])C([H])([H])[H])C([H])([H])c2c([H])c(OC([H])([H])C([H])([H])C([H])([H])[N+]([H])([H])C3([H])C([H])([H])N(C(=O)N4C([H])([H])C([H])([H])C([H])([H])C([H])(n5nc(-c6c([H])c([H])c(Oc7c([H])c([H])c(F)c([H])c7F)c([H])c6[H])c(C(=O)N([H])[H])c5N([H])[H])C4([H])[H])C([H])([H])C3([H])[H])c([H])c([H])c2C1([H])[H]

>  <smiles>  (46) 
[H]c1c([H])c([H])c2c(c1[H])C([H])([H])C([H])([H])C([H])([H])C2([H])N([H])C(=O)C1([H])N(C(=O)C([H])(N([H])C(=O)C([H])(N([H])C([H])([H])[H])C([H])([H])[H])C(C([H])([H])[H])(C([H])([H])[H])C([H])([H])[H])C([H])([H])c2c([H])c(OC([H])([H])C([H])([H])C([H])([H])[N+]([H])([H])C3([H])C([H])([H])N(C(=O)N4C([H])([H])C([H])([H])C([H])([H])C([H])(n5nc(-c6c([H])c([H])c(Oc7c([H])c([H])c(F)c([H])c7F)c([H])c6[H])c(C(=O)N([H])[H])c5N([H])[H])C4([H])[H])C([H])([H])C3([H])[H])c([H])c([H])c2C1([H])[H]

$$$$
46:0:0
     RDKit          3D

 98107  0  0  1  0  0  0  0  0999 V2000
  -28.1760  -24.1170   19.5600 C   0  0  0  0  0  2  0  0  0  0  0  0
  -27.9790  -22.7650   20.2830 C   0  0  0  0  0  2  0  0  0  0  0  0
  -28.4740  -24.5170   21.8770 C   0  0  0  0  0  2  0  0  0  0  0  0
  -27.8700  -25.1640   20.6140 C   0  0  0  0  0  3  0  0  0  0  0  0
  -28.0170  -23.0120   21.8320 C   0  0  2  0  0  0  0  0  0  0  0  0
  -28.9810  -22.1360   22.5890 N   0  0  0  0  0  4  0  0  0  0  0  0
  -28.7250  -22.1140   23.5650 H   0  0  0  0  0  0  0  0  0  0  0  0
  -29.8630  -22.6220   22.5650 H   0  0  0  0  0  0  0  0  0  0  0  0
  -29.3280  -20.7410   22.1520 C   0  0  0  0  0  2  0  0  0  0  0  0
  -28.2380  -19.6420   22.2930 C   0  0  0  0  0  2  0  0  0  0  0  0
  -28.8860  -17.9400   20.5280 C   0  0  0  0  0  3  0  0  0  0  0  0
  -29.0960  -17.2690   22.8410 C   0  0  0  0  0  3  0  0  0  0  0  0
  -29.8820  -15.7390   21.0610 C   0  0  0  0  0  0  0  0  0  0  0  0
  -28.7420  -18.2500   21.8900 C   0  0  0  0  0  0  0  0  0  0  0  0
  -29.4620  -16.7210   20.1100 C   0  0  0  0  0  0  0  0  0  0  0  0
  -29.6630  -16.0280   22.4440 C   0  0  0  0  0  0  0  0  0  0  0  0
  -29.6360  -16.5490   18.6090 C   0  0  0  0  0  1  0  0  0  0  0  0
  -30.0900  -15.0610   23.5400 C   0  0  0  0  0  1  0  0  0  0  0  0
  -30.6440  -14.4970   20.5880 C   0  0  0  0  0  0  0  0  0  0  0  0
  -30.4010  -12.3010   19.4760 C   0  0  0  0  0  2  0  0  0  0  0  0
  -29.5040  -12.5050   18.2330 C   0  0  0  0  0  2  0  0  0  0  0  0
  -28.0130  -12.3710   18.6030 C   0  0  0  0  0  2  0  0  0  0  0  0
  -27.6400  -13.2080   19.8540 C   0  0  0  0  0  3  0  0  0  0  0  0
  -28.6560  -13.0020   20.9900 C   0  0  0  0  0  2  0  0  0  0  0  0
  -29.9950  -13.3050   20.4750 N   0  0  0  0  0  0  0  0  0  0  0  0
  -31.7870  -14.6600   20.1530 O   0  0  0  0  0  0  0  0  0  0  0  0
  -25.2500  -13.8190   20.5610 C   0  0  0  0  0  0  0  0  0  0  0  0
  -24.1750  -13.0440   20.9130 C   0  0  0  0  0  0  0  0  0  0  0  0
  -24.6300  -11.6930   20.8660 C   0  0  0  0  0  0  0  0  0  0  0  0
  -26.2850  -12.9320   20.3130 N   0  0  0  0  0  0  0  0  0  0  0  0
  -25.9200  -11.6470   20.5590 N   0  0  0  0  0  0  0  0  0  0  0  0
  -23.8980  -10.4320   21.0360 C   0  0  0  0  0  0  0  0  0  0  0  0
  -24.3560   -9.4250   21.9140 C   0  0  0  0  0  3  0  0  0  0  0  0
  -23.6280   -8.2250   22.0710 C   0  0  0  0  0  3  0  0  0  0  0  0
  -22.4250   -8.0270   21.3500 C   0  0  0  0  0  0  0  0  0  0  0  0
  -21.9860   -9.0240   20.4580 C   0  0  0  0  0  3  0  0  0  0  0  0
  -22.7150  -10.2140   20.3020 C   0  0  0  0  0  3  0  0  0  0  0  0
  -21.6630   -6.8860   21.4240 O   0  0  0  0  0  0  0  0  0  0  0  0
  -21.6850   -6.0730   22.5290 C   0  0  0  0  0  0  0  0  0  0  0  0
  -21.4010   -6.5630   23.8230 C   0  0  0  0  0  3  0  0  0  0  0  0
  -21.3680   -5.6780   24.9190 C   0  0  0  0  0  3  0  0  0  0  0  0
  -21.6050   -4.3050   24.7230 C   0  0  0  0  0  0  0  0  0  0  0  0
  -21.8800   -3.8140   23.4340 C   0  0  0  0  0  3  0  0  0  0  0  0
  -21.9140   -4.6950   22.3410 C   0  0  0  0  0  0  0  0  0  0  0  0
  -22.1620   -4.2150   21.0980 F   0  0  0  0  0  0  0  0  0  0  0  0
  -21.5670   -3.4540   25.7730 F   0  0  0  0  0  0  0  0  0  0  0  0
  -22.7790  -13.5240   21.1880 C   0  0  0  0  0  0  0  0  0  0  0  0
  -22.0470  -12.8200   22.0440 N   0  0  0  0  0  0  0  0  0  0  0  0
  -22.3400  -14.5530   20.6740 O   0  0  0  0  0  0  0  0  0  0  0  0
  -22.4020  -11.9810   22.4810 H   0  0  0  0  0  0  0  0  0  0  0  0
  -21.1130  -13.1270   22.2750 H   0  0  0  0  0  0  0  0  0  0  0  0
  -25.4290  -15.1880   20.4100 N   0  0  0  0  0  0  0  0  0  0  0  0
  -24.6910  -15.8600   20.5900 H   0  0  0  0  0  0  0  0  0  0  0  0
  -26.2970  -15.6210   20.1240 H   0  0  0  0  0  0  0  0  0  0  0  0
  -28.2640  -26.5270   20.2590 O   0  0  0  0  0  0  0  0  0  0  0  0
  -24.6170  -31.8730   23.2100 C   0  0  0  0  0  0  0  0  0  0  0  0
  -27.1940  -27.3960   20.1180 C   0  0  0  0  0  0  0  0  0  0  0  0
  -23.4050  -30.4980   21.5480 C   0  0  0  0  0  3  0  0  0  0  0  0
  -24.8490  -28.9800   20.0930 C   0  0  0  0  0  0  0  0  0  0  0  0
  -25.9350  -30.8250   21.3720 C   0  0  0  0  0  2  0  0  0  0  0  0
  -26.0090  -29.4590   20.7160 C   0  0  0  0  0  0  0  0  0  0  0  0
  -27.1900  -28.6720   20.7300 C   0  0  0  0  0  3  0  0  0  0  0  0
  -26.0360  -26.9790   19.4220 C   0  0  0  0  0  3  0  0  0  0  0  0
  -24.8600  -27.7440   19.4310 C   0  0  0  0  0  3  0  0  0  0  0  0
  -23.6140  -29.8470   20.1560 C   0  0  0  0  0  2  0  0  0  0  0  0
  -24.6700  -31.0820   22.1010 N   0  0  0  0  0  0  0  0  0  0  0  0
  -23.5370  -32.1510   23.7510 O   0  0  0  0  0  0  0  0  0  0  0  0
  -22.7410  -29.4680   22.4960 C   0  0  0  0  0  0  0  0  0  0  0  0
  -21.4160  -29.3020   22.3690 N   0  0  0  0  0  0  0  0  0  0  0  0
  -23.4190  -28.8300   23.3050 O   0  0  0  0  0  0  0  0  0  0  0  0
  -20.9370  -29.8700   21.6850 H   0  0  0  0  0  0  0  0  0  0  0  0
  -18.0270  -28.1320   22.8500 C   0  0  0  0  0  0  0  0  0  0  0  0
  -20.5870  -28.3700   23.1350 C   0  0  0  0  0  3  0  0  0  0  0  0
  -20.6800  -26.9430   22.5530 C   0  0  0  0  0  2  0  0  0  0  0  0
  -19.5830  -26.6390   21.5280 C   0  0  0  0  0  2  0  0  0  0  0  0
  -18.1970  -26.7850   22.1670 C   0  0  0  0  0  2  0  0  0  0  0  0
  -19.1490  -28.8820   23.2890 C   0  0  0  0  0  0  0  0  0  0  0  0
  -18.9390  -30.1450   23.8830 C   0  0  0  0  0  3  0  0  0  0  0  0
  -17.6370  -30.6580   24.0420 C   0  0  0  0  0  3  0  0  0  0  0  0
  -16.5290  -29.9020   23.6240 C   0  0  0  0  0  3  0  0  0  0  0  0
  -16.7230  -28.6410   23.0330 C   0  0  0  0  0  3  0  0  0  0  0  0
  -25.9090  -32.4840   23.8380 C   0  0  0  0  0  3  0  0  0  0  0  0
  -25.5930  -33.8630   24.2350 N   0  0  0  0  0  0  0  0  0  0  0  0
  -25.9040  -34.9480   23.5140 C   0  0  0  0  0  0  0  0  0  0  0  0
  -26.5600  -34.8940   22.4700 O   0  0  0  0  0  0  0  0  0  0  0  0
  -25.0070  -33.9770   25.0480 H   0  0  0  0  0  0  0  0  0  0  0  0
  -24.1480  -36.7310   23.2620 C   0  0  0  0  0  1  0  0  0  0  0  0
  -25.4110  -36.3120   24.0320 C   0  0  0  0  0  3  0  0  0  0  0  0
  -27.5590  -37.1820   24.8470 C   0  0  0  0  0  1  0  0  0  0  0  0
  -26.4310  -37.3790   23.9400 N   0  0  0  0  0  0  0  0  0  0  0  0
  -26.0200  -38.2850   24.1440 H   0  0  0  0  0  0  0  0  0  0  0  0
  -26.4510  -31.6580   25.0690 C   0  0  1  0  0  0  0  0  0  0  0  0
  -25.3750  -31.3710   26.1410 C   0  0  0  0  0  1  0  0  0  0  0  0
  -27.0340  -30.3030   24.6050 C   0  0  0  0  0  1  0  0  0  0  0  0
  -27.6110  -32.4270   25.7450 C   0  0  0  0  0  1  0  0  0  0  0  0
  -26.6160  -22.9750   22.5500 C   0  0  0  0  0  2  0  0  0  0  0  0
  -24.2200  -22.0730   22.7010 C   0  0  0  0  0  1  0  0  0  0  0  0
  -25.6880  -21.7520   22.3850 C   0  0  0  0  0  2  0  0  0  0  0  0
  1  2  1  0
  1  4  1  0
  2  5  1  0
  4 55  1  0
  4  3  1  0
  5  3  1  0
  5 96  1  1
  5  6  1  0
  6  7  1  0
  8  6  1  0
  9 10  1  0
  9  6  1  0
 11 14  1  0
 13 16  2  0
 14 10  1  0
 14 12  2  0
 15 11  2  0
 15 13  1  0
 16 12  1  0
 16 18  1  0
 17 15  1  0
 19 13  1  0
 20 25  1  0
 21 22  1  0
 21 20  1  0
 23 22  1  0
 23 30  1  0
 23 24  1  0
 25 19  1  0
 25 24  1  0
 26 19  2  0
 27 28  2  0
 28 47  1  0
 29 28  1  0
 29 32  1  0
 30 31  1  0
 30 27  1  0
 31 29  2  0
 32 33  1  0
 33 34  2  0
 35 38  1  0
 35 34  1  0
 36 35  2  0
 37 36  1  0
 37 32  2  0
 38 39  1  0
 39 40  1  0
 40 41  2  0
 42 41  1  0
 42 46  1  0
 43 42  2  0
 44 39  2  0
 44 43  1  0
 45 44  1  0
 47 48  1  0
 48 51  1  0
 48 50  1  0
 49 47  2  0
 52 27  1  0
 52 53  1  0
 54 52  1  0
 56 67  2  0
 57 55  1  0
 57 62  1  0
 58 66  1  0
 58 68  1  0
 59 65  1  0
 59 61  1  0
 60 66  1  0
 61 62  2  0
 61 60  1  0
 63 64  1  0
 63 57  2  0
 64 59  2  0
 65 58  1  0
 66 56  1  0
 68 70  2  0
 69 68  1  0
 71 69  1  0
 72 81  2  0
 72 77  1  0
 73 69  1  0
 73 77  1  0
 74 73  1  0
 75 76  1  0
 75 74  1  0
 76 72  1  0
 77 78  2  0
 78 79  1  0
 80 79  2  0
 81 80  1  0
 82 56  1  0
 82 83  1  0
 82 92  1  0
 83 86  1  0
 84 88  1  0
 84 83  1  0
 85 84  2  0
 88 87  1  0
 90 88  1  0
 90 91  1  0
 90 89  1  0
 92 95  1  1
 92 93  1  0
 94 92  1  0
 98 96  1  0
 98 97  1  0
M  ISO  4   4 101  13 100  19 100  55 101
M  END
>  <TORSDO>  (47) 
F 22

>  <SCORE>  (47) 
10.666

>  <name>  (47) 
46

>  <ligand_id>  (47) 
46

>  <original_smiles>  (47) 
[H]c1c([H])c([H])c2c(c1[H])C([H])([H])C([H])([H])C([H])([H])C2([H])N([H])C(=O)C1([H])N(C(=O)C([H])(N([H])C(=O)C([H])(N([H])C([H])([H])[H])C([H])([H])[H])C(C([H])([H])[H])(C([H])([H])[H])C([H])([H])[H])C([H])([H])c2c([H])c(OC3([H])C([H])([H])C([H])([H])C(C([H])([H])C([H])([H])C([H])([H])[H])([N+]([H])([H])C([H])([H])C([H])([H])c4c([H])c(C([H])([H])[H])c(C(=O)N5C([H])([H])C([H])([H])C([H])([H])C([H])(n6nc(-c7c([H])c([H])c(Oc8c([H])c([H])c(F)c([H])c8F)c([H])c7[H])c(C(=O)N([H])[H])c6N([H])[H])C5([H])[H])c(C([H])([H])[H])c4[H])C3([H])[H])c([H])c([H])c2C1([H])[H]

>  <smiles>  (47) 
[H]c1c([H])c([H])c2c(c1[H])C([H])([H])C([H])([H])C([H])([H])C2([H])N([H])C(=O)C1([H])N(C(=O)C([H])(N([H])C(=O)C([H])(N([H])C([H])([H])[H])C([H])([H])[H])C(C([H])([H])[H])(C([H])([H])[H])C([H])([H])[H])C([H])([H])c2c([H])c(OC3([H])C([H])([H])C([H])([H])C(C([H])([H])C([H])([H])C([H])([H])[H])([N+]([H])([H])C([H])([H])C([H])([H])c4c([H])c(C([H])([H])[H])c(C(=O)N5C([H])([H])C([H])([H])C([H])([H])C([H])(n6nc(-c7c([H])c([H])c(Oc8c([H])c([H])c(F)c([H])c8F)c([H])c7[H])c(C(=O)N([H])[H])c6N([H])[H])C5([H])[H])c(C([H])([H])[H])c4[H])C3([H])[H])c([H])c([H])c2C1([H])[H]

$$$$
47:0:0
     RDKit          3D

 92100  0  0  1  0  0  0  0  0999 V2000
  -27.0470  -23.0620   22.6570 C   0  0  0  0  0  3  0  0  0  0  0  0
  -26.8190  -24.4260   22.7910 C   0  0  0  0  0  3  0  0  0  0  0  0
  -27.7570  -22.5920   21.5510 C   0  0  0  0  0  3  0  0  0  0  0  0
  -27.2470  -25.3070   21.7940 C   0  0  0  0  0  3  0  0  0  0  0  0
  -28.2690  -23.4130   20.5110 C   0  0  0  0  0  0  0  0  0  0  0  0
  -27.9190  -24.9350   20.5910 C   0  0  0  0  0  0  0  0  0  0  0  0
  -29.1410  -22.4900   19.5250 C   0  0  0  0  0  0  0  0  0  0  0  0
  -29.4730  -21.0650   19.5460 N   0  0  0  0  0  0  0  0  0  0  0  0
  -29.6680  -23.1180   18.6070 O   0  0  0  0  0  0  0  0  0  0  0  0
  -30.1360  -20.9560   18.7920 H   0  0  0  0  0  0  0  0  0  0  0  0
  -29.2000  -19.5790   20.1130 C   0  0  0  0  0  2  0  0  0  0  0  0
  -31.5800  -18.5320   20.3710 C   0  0  0  0  0  1  0  0  0  0  0  0
  -30.2010  -18.1900   19.7800 C   0  0  0  0  0  3  0  0  0  0  0  0
  -30.6440  -15.3720   19.8600 C   0  0  0  0  0  0  0  0  0  0  0  0
  -30.5450  -12.9670   18.9840 C   0  0  0  0  0  2  0  0  0  0  0  0
  -29.5790  -12.8270   17.7830 C   0  0  0  0  0  2  0  0  0  0  0  0
  -28.1440  -12.5710   18.2730 C   0  0  0  0  0  2  0  0  0  0  0  0
  -27.7430  -13.5140   19.4360 C   0  0  0  0  0  3  0  0  0  0  0  0
  -28.8350  -13.6290   20.5220 C   0  0  0  0  0  2  0  0  0  0  0  0
  -30.0600  -14.0910   19.8530 N   0  0  0  0  0  0  0  0  0  0  0  0
  -31.8340  -15.3970   19.5280 O   0  0  0  0  0  0  0  0  0  0  0  0
  -29.8970  -16.6090   20.0320 N   0  0  0  0  0  0  0  0  0  0  0  0
  -28.9340  -16.4300   20.2810 H   0  0  0  0  0  0  0  0  0  0  0  0
  -25.3920  -14.0350   20.2880 C   0  0  0  0  0  0  0  0  0  0  0  0
  -24.3590  -13.2380   20.6950 C   0  0  0  0  0  0  0  0  0  0  0  0
  -24.8450  -11.8960   20.6340 C   0  0  0  0  0  0  0  0  0  0  0  0
  -26.4390  -13.1790   19.9940 N   0  0  0  0  0  0  0  0  0  0  0  0
  -26.1240  -11.8850   20.2690 N   0  0  0  0  0  0  0  0  0  0  0  0
  -24.1470  -10.6200   20.8430 C   0  0  0  0  0  0  0  0  0  0  0  0
  -24.5870   -9.6860   21.8060 C   0  0  0  0  0  3  0  0  0  0  0  0
  -23.8860   -8.4770   22.0040 C   0  0  0  0  0  3  0  0  0  0  0  0
  -22.7300   -8.1930   21.2380 C   0  0  0  0  0  0  0  0  0  0  0  0
  -22.3100   -9.1160   20.2640 C   0  0  0  0  0  3  0  0  0  0  0  0
  -23.0120  -10.3180   20.0650 C   0  0  0  0  0  3  0  0  0  0  0  0
  -22.0000   -7.0340   21.3430 O   0  0  0  0  0  0  0  0  0  0  0  0
  -21.8980   -6.3530   22.5290 C   0  0  0  0  0  0  0  0  0  0  0  0
  -21.3620   -6.9530   23.6890 C   0  0  0  0  0  3  0  0  0  0  0  0
  -21.2110   -6.1950   24.8680 C   0  0  0  0  0  3  0  0  0  0  0  0
  -21.5840   -4.8380   24.8870 C   0  0  0  0  0  0  0  0  0  0  0  0
  -22.1130   -4.2370   23.7310 C   0  0  0  0  0  3  0  0  0  0  0  0
  -22.2670   -4.9920   22.5550 C   0  0  0  0  0  0  0  0  0  0  0  0
  -22.7560   -4.4030   21.4380 F   0  0  0  0  0  0  0  0  0  0  0  0
  -21.4330   -4.1080   26.0160 F   0  0  0  0  0  0  0  0  0  0  0  0
  -22.9660  -13.6900   21.0230 C   0  0  0  0  0  0  0  0  0  0  0  0
  -22.2870  -12.9790   21.9160 N   0  0  0  0  0  0  0  0  0  0  0  0
  -22.4910  -14.7090   20.5230 O   0  0  0  0  0  0  0  0  0  0  0  0
  -22.6880  -12.1580   22.3430 H   0  0  0  0  0  0  0  0  0  0  0  0
  -21.3530  -13.2620   22.1760 H   0  0  0  0  0  0  0  0  0  0  0  0
  -25.5230  -15.4100   20.1150 N   0  0  0  0  0  0  0  0  0  0  0  0
  -24.7450  -16.0440   20.2620 H   0  0  0  0  0  0  0  0  0  0  0  0
  -26.3350  -15.8670   19.7210 H   0  0  0  0  0  0  0  0  0  0  0  0
  -28.1070  -26.2000   19.8160 O   0  0  0  0  0  0  0  0  0  0  0  0
  -24.6930  -31.9920   23.0680 C   0  0  0  0  0  0  0  0  0  0  0  0
  -27.1280  -27.2970   19.8160 C   0  0  0  0  0  0  0  0  0  0  0  0
  -23.4270  -30.6450   21.4390 C   0  0  0  0  0  3  0  0  0  0  0  0
  -24.8180  -29.1000   19.9120 C   0  0  0  0  0  0  0  0  0  0  0  0
  -25.9800  -30.8890   21.1900 C   0  0  0  0  0  2  0  0  0  0  0  0
  -26.0250  -29.5090   20.4960 C   0  0  0  0  0  0  0  0  0  0  0  0
  -27.1790  -28.6250   20.4350 C   0  0  0  0  0  3  0  0  0  0  0  0
  -25.8980  -27.0170   19.1850 C   0  0  0  0  0  3  0  0  0  0  0  0
  -24.7700  -27.8700   19.2390 C   0  0  0  0  0  3  0  0  0  0  0  0
  -23.5970  -30.0060   20.0340 C   0  0  0  0  0  2  0  0  0  0  0  0
  -24.7230  -31.1980   21.9540 N   0  0  0  0  0  0  0  0  0  0  0  0
  -23.6270  -32.2670   23.6440 O   0  0  0  0  0  0  0  0  0  0  0  0
  -22.7760  -29.6190   22.4000 C   0  0  0  0  0  0  0  0  0  0  0  0
  -21.4450  -29.4420   22.3080 N   0  0  0  0  0  0  0  0  0  0  0  0
  -23.4720  -28.9820   23.1950 O   0  0  0  0  0  0  0  0  0  0  0  0
  -20.9350  -30.0090   21.6440 H   0  0  0  0  0  0  0  0  0  0  0  0
  -18.0870  -28.2040   22.8860 C   0  0  0  0  0  0  0  0  0  0  0  0
  -20.6510  -28.4840   23.0840 C   0  0  0  0  0  3  0  0  0  0  0  0
  -20.7470  -27.0630   22.4790 C   0  0  0  0  0  2  0  0  0  0  0  0
  -19.6190  -26.7530   21.4900 C   0  0  0  0  0  2  0  0  0  0  0  0
  -18.2550  -26.8720   22.1750 C   0  0  0  0  0  2  0  0  0  0  0  0
  -19.2110  -28.9690   23.2990 C   0  0  0  0  0  0  0  0  0  0  0  0
  -18.9970  -30.2140   23.9270 C   0  0  0  0  0  3  0  0  0  0  0  0
  -17.6940  -30.6970   24.1450 C   0  0  0  0  0  3  0  0  0  0  0  0
  -16.5850  -29.9310   23.7470 C   0  0  0  0  0  3  0  0  0  0  0  0
  -16.7820  -28.6870   23.1220 C   0  0  0  0  0  3  0  0  0  0  0  0
  -25.9940  -32.6080   23.6670 C   0  0  0  0  0  3  0  0  0  0  0  0
  -26.5380  -31.8150   24.9180 C   0  0  1  0  0  0  0  0  0  0  0  0
  -25.4720  -31.5770   26.0140 C   0  0  0  0  0  1  0  0  0  0  0  0
  -27.0940  -30.4360   24.4990 C   0  0  0  0  0  1  0  0  0  0  0  0
  -27.7150  -32.5880   25.5570 C   0  0  0  0  0  1  0  0  0  0  0  0
  -25.7030  -34.0040   24.0350 N   0  0  0  0  0  0  0  0  0  0  0  0
  -26.0370  -35.0750   23.3030 C   0  0  0  0  0  0  0  0  0  0  0  0
  -26.6850  -34.9910   22.2560 O   0  0  0  0  0  0  0  0  0  0  0  0
  -25.1230  -34.1440   24.8490 H   0  0  0  0  0  0  0  0  0  0  0  0
  -24.3290  -36.9060   23.0330 C   0  0  0  0  0  1  0  0  0  0  0  0
  -25.5800  -36.4590   23.8070 C   0  0  0  0  0  3  0  0  0  0  0  0
  -27.7400  -37.2930   24.6230 C   0  0  0  0  0  1  0  0  0  0  0  0
  -26.6250  -37.5000   23.7020 N   0  0  0  0  0  0  0  0  0  0  0  0
  -26.2350  -38.4210   23.8780 H   0  0  0  0  0  0  0  0  0  0  0  0
  1  2  1  0
  3  1  2  0
  4  2  2  0
  5  6  2  0
  5  3  1  0
  6  4  1  0
  7  8  1  0
  7  5  1  0
  8 11  1  0
  9  7  2  0
 10  8  1  0
 13 22  1  0
 13 11  1  0
 13 12  1  0
 14 22  1  0
 15 20  1  0
 16 17  1  0
 16 15  1  0
 18 17  1  0
 18 27  1  0
 18 19  1  0
 20 14  1  0
 20 19  1  0
 21 14  2  0
 22 23  1  0
 24 25  2  0
 25 44  1  0
 26 25  1  0
 26 29  1  0
 27 28  1  0
 27 24  1  0
 28 26  2  0
 29 30  1  0
 30 31  2  0
 32 35  1  0
 32 31  1  0
 33 32  2  0
 34 33  1  0
 34 29  2  0
 35 36  1  0
 36 41  2  0
 36 37  1  0
 37 38  2  0
 38 39  1  0
 39 43  1  0
 40 39  2  0
 41 40  1  0
 42 41  1  0
 44 45  1  0
 45 48  1  0
 45 47  1  0
 46 44  2  0
 49 50  1  0
 49 24  1  0
 51 49  1  0
 52  6  1  0
 53 64  2  0
 54 52  1  0
 54 59  1  0
 55 63  1  0
 55 65  1  0
 56 62  1  0
 56 58  1  0
 57 63  1  0
 58 57  1  0
 59 58  2  0
 60 61  1  0
 60 54  2  0
 61 56  2  0
 62 55  1  0
 63 53  1  0
 65 67  2  0
 66 65  1  0
 68 66  1  0
 69 78  2  0
 69 74  1  0
 70 66  1  0
 70 74  1  0
 71 70  1  0
 72 73  1  0
 72 71  1  0
 73 69  1  0
 74 75  2  0
 75 76  1  0
 77 76  2  0
 78 77  1  0
 79 53  1  0
 79 84  1  0
 79 80  1  0
 80 83  1  1
 80 81  1  0
 82 80  1  0
 84 87  1  0
 85 89  1  0
 85 84  1  0
 86 85  2  0
 89 88  1  0
 91 89  1  0
 91 92  1  0
 91 90  1  0
M  ISO  4   6 101  14 100  22 100  52 101
M  END
>  <TORSDO>  (48) 
F 19

>  <SCORE>  (48) 
-12.513

>  <name>  (48) 
47

>  <ligand_id>  (48) 
47

>  <original_smiles>  (48) 
[H]c1c([H])c([H])c(C(=O)N([H])C([H])([H])C([H])(N([H])C(=O)N2C([H])([H])C([H])([H])C([H])([H])C([H])(n3nc(-c4c([H])c([H])c(Oc5c([H])c([H])c(F)c([H])c5F)c([H])c4[H])c(C(=O)N([H])[H])c3N([H])[H])C2([H])[H])C([H])([H])[H])c(Oc2c([H])c([H])c3c(c2[H])C([H])([H])N(C(=O)C([H])(N([H])C(=O)C([H])(N([H])C([H])([H])[H])C([H])([H])[H])C(C([H])([H])[H])(C([H])([H])[H])C([H])([H])[H])C([H])(C(=O)N([H])C2([H])c4c([H])c([H])c([H])c([H])c4C([H])([H])C([H])([H])C2([H])[H])C3([H])[H])c1[H]

>  <smiles>  (48) 
[H]c1c([H])c([H])c(C(=O)N([H])C([H])([H])C([H])(N([H])C(=O)N2C([H])([H])C([H])([H])C([H])([H])C([H])(n3nc(-c4c([H])c([H])c(Oc5c([H])c([H])c(F)c([H])c5F)c([H])c4[H])c(C(=O)N([H])[H])c3N([H])[H])C2([H])[H])C([H])([H])[H])c(Oc2c([H])c([H])c3c(c2[H])C([H])([H])N(C(=O)C([H])(N([H])C(=O)C([H])(N([H])C([H])([H])[H])C([H])([H])[H])C(C([H])([H])[H])(C([H])([H])[H])C([H])([H])[H])C([H])(C(=O)N([H])C2([H])c4c([H])c([H])c([H])c([H])c4C([H])([H])C([H])([H])C2([H])[H])C3([H])[H])c1[H]

$$$$
48:0:0
     RDKit          3D

 90 99  0  0  1  0  0  0  0  0999 V2000
  -29.6540  -21.3510   22.2050 C   0  0  0  0  0  3  0  0  0  0  0  0
  -29.2490  -22.6300   21.6840 C   0  0  0  0  0  3  0  0  0  0  0  0
  -29.1890  -21.5790   19.5370 C   0  0  0  0  0  3  0  0  0  0  0  0
  -29.8320  -20.1590   21.4340 C   0  0  0  0  0  0  0  0  0  0  0  0
  -29.6490  -20.2010   20.0470 C   0  0  0  0  0  0  0  0  0  0  0  0
  -28.9530  -22.8850   20.3140 C   0  0  0  0  0  0  0  0  0  0  0  0
  -30.3080  -18.8150   22.0550 C   0  0  0  0  0  2  0  0  0  0  0  0
  -30.0790  -18.7060   19.3310 C   0  0  0  0  0  2  0  0  0  0  0  0
  -29.6510  -17.4730   21.5270 C   0  0  0  0  0  2  0  0  0  0  0  0
  -29.7580  -17.1100   19.9920 C   0  0  2  0  0  0  0  0  0  0  0  0
  -30.5750  -15.5300   19.7570 C   0  0  0  0  0  0  0  0  0  0  0  0
  -30.5570  -13.0560   18.9140 C   0  0  0  0  0  2  0  0  0  0  0  0
  -29.5280  -12.8010   17.7790 C   0  0  0  0  0  2  0  0  0  0  0  0
  -28.1360  -12.4690   18.3490 C   0  0  0  0  0  2  0  0  0  0  0  0
  -27.7500  -13.4340   19.4910 C   0  0  0  0  0  3  0  0  0  0  0  0
  -28.9020  -13.6210   20.5100 C   0  0  0  0  0  2  0  0  0  0  0  0
  -30.0630  -14.1870   19.7870 N   0  0  0  0  0  0  0  0  0  0  0  0
  -31.7650  -15.5310   19.4060 O   0  0  0  0  0  0  0  0  0  0  0  0
  -25.4650  -13.9630   20.5190 C   0  0  0  0  0  0  0  0  0  0  0  0
  -24.4420  -13.1750   20.9480 C   0  0  0  0  0  0  0  0  0  0  0  0
  -24.8910  -11.8300   20.7810 C   0  0  0  0  0  0  0  0  0  0  0  0
  -26.4770  -13.1040   20.1200 N   0  0  0  0  0  0  0  0  0  0  0  0
  -26.1450  -11.8080   20.3410 N   0  0  0  0  0  0  0  0  0  0  0  0
  -24.1710  -10.5670   20.9530 C   0  0  0  0  0  0  0  0  0  0  0  0
  -24.6100   -9.5890   21.8700 C   0  0  0  0  0  3  0  0  0  0  0  0
  -23.8840   -8.3920   22.0410 C   0  0  0  0  0  3  0  0  0  0  0  0
  -22.7060   -8.1650   21.2900 C   0  0  0  0  0  0  0  0  0  0  0  0
  -22.2880   -9.1330   20.3590 C   0  0  0  0  0  3  0  0  0  0  0  0
  -23.0150  -10.3210   20.1870 C   0  0  0  0  0  3  0  0  0  0  0  0
  -21.9490   -7.0200   21.3700 O   0  0  0  0  0  0  0  0  0  0  0  0
  -21.7990   -6.3430   22.5530 C   0  0  0  0  0  0  0  0  0  0  0  0
  -21.2270   -6.9500   23.6920 C   0  0  0  0  0  3  0  0  0  0  0  0
  -21.0270   -6.1960   24.8650 C   0  0  0  0  0  3  0  0  0  0  0  0
  -21.3860   -4.8340   24.8990 C   0  0  0  0  0  0  0  0  0  0  0  0
  -21.9490   -4.2270   23.7630 C   0  0  0  0  0  3  0  0  0  0  0  0
  -22.1530   -4.9790   22.5930 C   0  0  0  0  0  0  0  0  0  0  0  0
  -22.6780   -4.3850   21.4930 F   0  0  0  0  0  0  0  0  0  0  0  0
  -21.1840   -4.1060   26.0220 F   0  0  0  0  0  0  0  0  0  0  0  0
  -23.0850  -13.6470   21.3810 C   0  0  0  0  0  0  0  0  0  0  0  0
  -22.4390  -12.9120   22.2760 N   0  0  0  0  0  0  0  0  0  0  0  0
  -22.6140  -14.7060   20.9630 O   0  0  0  0  0  0  0  0  0  0  0  0
  -22.8380  -12.0570   22.6390 H   0  0  0  0  0  0  0  0  0  0  0  0
  -21.5360  -13.2110   22.6130 H   0  0  0  0  0  0  0  0  0  0  0  0
  -25.5780  -15.3380   20.4080 N   0  0  0  0  0  0  0  0  0  0  0  0
  -24.7840  -15.9360   20.6090 H   0  0  0  0  0  0  0  0  0  0  0  0
  -26.3600  -15.8350   20.0030 H   0  0  0  0  0  0  0  0  0  0  0  0
  -27.3130  -17.9970   19.3130 C   0  0  0  0  0  1  0  0  0  0  0  0
  -28.3380  -16.8390   19.4240 C   0  0  0  0  0  2  0  0  0  0  0  0
  -28.2260  -24.4240   19.8560 C   0  0  0  0  0  2  0  0  0  0  0  0
  -28.3560  -25.9970   20.3590 O   0  0  0  0  0  0  0  0  0  0  0  0
  -24.7040  -31.9200   23.3080 C   0  0  0  0  0  0  0  0  0  0  0  0
  -27.3400  -27.0950   20.2520 C   0  0  0  0  0  0  0  0  0  0  0  0
  -23.5360  -30.5410   21.6320 C   0  0  0  0  0  3  0  0  0  0  0  0
  -25.0180  -28.9630   20.2010 C   0  0  0  0  0  0  0  0  0  0  0  0
  -26.1030  -30.7650   21.5240 C   0  0  0  0  0  2  0  0  0  0  0  0
  -26.1940  -29.3660   20.8470 C   0  0  0  0  0  0  0  0  0  0  0  0
  -27.3440  -28.4530   20.8500 C   0  0  0  0  0  3  0  0  0  0  0  0
  -26.1370  -26.8520   19.5520 C   0  0  0  0  0  3  0  0  0  0  0  0
  -25.0170  -27.7270   19.5310 C   0  0  0  0  0  3  0  0  0  0  0  0
  -23.7890  -29.8720   20.2500 C   0  0  0  0  0  2  0  0  0  0  0  0
  -24.8010  -31.1020   22.2090 N   0  0  0  0  0  0  0  0  0  0  0  0
  -23.6070  -32.1980   23.8200 O   0  0  0  0  0  0  0  0  0  0  0  0
  -22.8290  -29.5340   22.5760 C   0  0  0  0  0  0  0  0  0  0  0  0
  -21.5060  -29.3440   22.4140 N   0  0  0  0  0  0  0  0  0  0  0  0
  -23.4810  -28.9220   23.4260 O   0  0  0  0  0  0  0  0  0  0  0  0
  -21.0290  -29.8930   21.7110 H   0  0  0  0  0  0  0  0  0  0  0  0
  -18.1430  -28.0370   22.8120 C   0  0  0  0  0  0  0  0  0  0  0  0
  -20.6830  -28.3860   23.1610 C   0  0  0  0  0  3  0  0  0  0  0  0
  -20.8470  -26.9540   22.6010 C   0  0  0  0  0  2  0  0  0  0  0  0
  -19.7930  -26.5920   21.5510 C   0  0  0  0  0  2  0  0  0  0  0  0
  -18.3860  -26.6940   22.1450 C   0  0  0  0  0  2  0  0  0  0  0  0
  -19.2210  -28.8380   23.2740 C   0  0  0  0  0  0  0  0  0  0  0  0
  -18.9390  -30.0910   23.8620 C   0  0  0  0  0  3  0  0  0  0  0  0
  -17.6130  -30.5460   23.9860 C   0  0  0  0  0  3  0  0  0  0  0  0
  -16.5490  -29.7450   23.5360 C   0  0  0  0  0  3  0  0  0  0  0  0
  -16.8150  -28.4920   22.9560 C   0  0  0  0  0  3  0  0  0  0  0  0
  -25.9650  -32.5580   23.9660 C   0  0  0  0  0  3  0  0  0  0  0  0
  -25.6570  -33.9690   24.2650 N   0  0  0  0  0  0  0  0  0  0  0  0
  -25.9900  -35.0100   23.4890 C   0  0  0  0  0  0  0  0  0  0  0  0
  -26.6480  -34.8840   22.4530 O   0  0  0  0  0  0  0  0  0  0  0  0
  -25.0700  -34.1400   25.0680 H   0  0  0  0  0  0  0  0  0  0  0  0
  -24.2540  -36.8050   23.1490 C   0  0  0  0  0  1  0  0  0  0  0  0
  -25.5200  -36.4120   23.9280 C   0  0  0  0  0  3  0  0  0  0  0  0
  -27.6750  -37.3260   24.6750 C   0  0  0  0  0  1  0  0  0  0  0  0
  -26.5490  -37.4620   23.7550 N   0  0  0  0  0  0  0  0  0  0  0  0
  -26.1460  -38.3860   23.8880 H   0  0  0  0  0  0  0  0  0  0  0  0
  -26.4240  -31.8140   25.2810 C   0  0  1  0  0  0  0  0  0  0  0  0
  -25.2870  -31.6060   26.3100 C   0  0  0  0  0  1  0  0  0  0  0  0
  -27.0150  -30.4230   24.9550 C   0  0  0  0  0  1  0  0  0  0  0  0
  -27.5500  -32.6180   25.9710 C   0  0  0  0  0  1  0  0  0  0  0  0
  2  1  1  0
  3  5  2  0
  3  6  1  0
  4  7  1  0
  4  1  2  0
  5  4  1  0
  6  2  2  0
  8 10  1  0
  8  5  1  0
  9  7  1  0
 10 48  1  6
 10  9  1  0
 11 17  1  0
 11 10  1  0
 12 17  1  0
 13 14  1  0
 13 12  1  0
 15 14  1  0
 15 22  1  0
 15 16  1  0
 17 16  1  0
 18 11  2  0
 19 20  2  0
 20 39  1  0
 21 20  1  0
 21 24  1  0
 22 23  1  0
 22 19  1  0
 23 21  2  0
 24 25  1  0
 25 26  2  0
 27 30  1  0
 27 26  1  0
 28 27  2  0
 29 28  1  0
 29 24  2  0
 30 31  1  0
 31 36  2  0
 31 32  1  0
 32 33  2  0
 33 34  1  0
 34 38  1  0
 35 34  2  0
 36 35  1  0
 37 36  1  0
 39 40  1  0
 40 43  1  0
 40 42  1  0
 41 39  2  0
 44 19  1  0
 44 45  1  0
 46 44  1  0
 47 48  1  0
 49  6  1  0
 49 50  1  0
 51 62  2  0
 52 50  1  0
 52 57  1  0
 53 61  1  0
 53 63  1  0
 54 60  1  0
 54 56  1  0
 55 61  1  0
 56 57  2  0
 56 55  1  0
 58 52  2  0
 59 58  1  0
 59 54  2  0
 60 53  1  0
 61 51  1  0
 63 65  2  0
 64 63  1  0
 66 64  1  0
 67 76  2  0
 67 72  1  0
 68 64  1  0
 68 72  1  0
 69 68  1  0
 70 71  1  0
 70 69  1  0
 71 67  1  0
 72 73  2  0
 73 74  1  0
 75 74  2  0
 76 75  1  0
 77 51  1  0
 77 78  1  0
 77 87  1  0
 78 81  1  0
 79 83  1  0
 79 78  1  0
 80 79  2  0
 83 82  1  0
 85 86  1  0
 85 83  1  0
 85 84  1  0
 87 90  1  1
 87 88  1  0
 89 87  1  0
M  ISO  4  10 100  11 100  49 101  50 101
M  END
>  <TORSDO>  (49) 
F 18

>  <SCORE>  (49) 
-15.646

>  <name>  (49) 
48

>  <ligand_id>  (49) 
48

>  <original_smiles>  (49) 
[H]c1c([H])c([H])c2c(c1[H])C([H])([H])C([H])([H])C([H])([H])C2([H])N([H])C(=O)C1([H])N(C(=O)C([H])(N([H])C(=O)C([H])(N([H])C([H])([H])[H])C([H])([H])[H])C(C([H])([H])[H])(C([H])([H])[H])C([H])([H])[H])C([H])([H])c2c([H])c(OC([H])([H])c3c([H])c([H])c4c(c3[H])C([H])([H])C(C(=O)N3C([H])([H])C([H])([H])C([H])([H])C([H])(n5nc(-c6c([H])c([H])c(Oc7c([H])c([H])c(F)c([H])c7F)c([H])c6[H])c(C(=O)N([H])[H])c5N([H])[H])C3([H])[H])(C([H])([H])C([H])([H])[H])C([H])([H])C4([H])[H])c([H])c([H])c2C1([H])[H]

>  <smiles>  (49) 
[H]c1c([H])c([H])c2c(c1[H])C([H])([H])C([H])([H])C([H])([H])C2([H])N([H])C(=O)C1([H])N(C(=O)C([H])(N([H])C(=O)C([H])(N([H])C([H])([H])[H])C([H])([H])[H])C(C([H])([H])[H])(C([H])([H])[H])C([H])([H])[H])C([H])([H])c2c([H])c(OC([H])([H])c3c([H])c([H])c4c(c3[H])C([H])([H])C(C(=O)N3C([H])([H])C([H])([H])C([H])([H])C([H])(n5nc(-c6c([H])c([H])c(Oc7c([H])c([H])c(F)c([H])c7F)c([H])c6[H])c(C(=O)N([H])[H])c5N([H])[H])C3([H])[H])(C([H])([H])C([H])([H])[H])C([H])([H])C4([H])[H])c([H])c([H])c2C1([H])[H]

$$$$
49:0:0
     RDKit          3D

 92100  0  0  1  0  0  0  0  0999 V2000
  -28.4940  -23.9320   21.5260 C   0  0  0  0  0  3  0  0  0  0  0  0
  -28.6900  -22.7570   22.2840 C   0  0  0  0  0  3  0  0  0  0  0  0
  -29.1960  -22.6960   19.5650 C   0  0  0  0  0  3  0  0  0  0  0  0
  -29.4200  -21.4660   20.3080 C   0  0  0  0  0  0  0  0  0  0  0  0
  -28.7270  -23.9400   20.1420 C   0  0  0  0  0  0  0  0  0  0  0  0
  -29.1240  -21.5370   21.7050 C   0  0  0  0  0  0  0  0  0  0  0  0
  -29.2190  -20.3360   22.6400 C   0  0  0  0  0  1  0  0  0  0  0  0
  -29.8570  -20.1480   19.5850 C   0  0  0  0  0  0  0  0  0  0  0  0
  -30.3260  -19.0340   20.2510 N   0  0  0  0  0  0  0  0  0  0  0  0
  -29.7930  -20.1230   18.3540 O   0  0  0  0  0  0  0  0  0  0  0  0
  -30.3930  -19.1260   21.2540 H   0  0  0  0  0  0  0  0  0  0  0  0
  -30.7150  -17.6800   19.6610 C   0  0  0  0  0  2  0  0  0  0  0  0
  -30.0260  -16.4090   21.8250 C   0  0  0  0  0  1  0  0  0  0  0  0
  -31.0160  -16.4400   20.6490 C   0  0  0  0  0  3  0  0  0  0  0  0
  -31.4740  -15.0170   20.0280 C   0  0  0  0  0  0  0  0  0  0  0  0
  -31.0740  -12.7880   18.9580 C   0  0  0  0  0  2  0  0  0  0  0  0
  -30.0960  -12.9530   17.7730 C   0  0  0  0  0  2  0  0  0  0  0  0
  -28.6320  -12.8700   18.2490 C   0  0  0  0  0  2  0  0  0  0  0  0
  -28.3680  -13.7400   19.5060 C   0  0  0  0  0  3  0  0  0  0  0  0
  -29.4560  -13.5020   20.5720 C   0  0  0  0  0  2  0  0  0  0  0  0
  -30.7540  -13.8340   19.9660 N   0  0  0  0  0  0  0  0  0  0  0  0
  -32.5930  -15.0270   19.5060 O   0  0  0  0  0  0  0  0  0  0  0  0
  -26.0660  -14.4700   20.3780 C   0  0  0  0  0  0  0  0  0  0  0  0
  -24.9600  -13.7590   20.7540 C   0  0  0  0  0  0  0  0  0  0  0  0
  -25.3110  -12.3800   20.6190 C   0  0  0  0  0  0  0  0  0  0  0  0
  -27.0250  -13.5290   20.0400 N   0  0  0  0  0  0  0  0  0  0  0  0
  -26.5770  -12.2620   20.2430 N   0  0  0  0  0  0  0  0  0  0  0  0
  -24.4940  -11.1690   20.7720 C   0  0  0  0  0  0  0  0  0  0  0  0
  -24.8490  -10.1460   21.6780 C   0  0  0  0  0  3  0  0  0  0  0  0
  -24.0370   -9.0000   21.8180 C   0  0  0  0  0  3  0  0  0  0  0  0
  -22.8560   -8.8680   21.0500 C   0  0  0  0  0  0  0  0  0  0  0  0
  -22.5200   -9.8790   20.1320 C   0  0  0  0  0  3  0  0  0  0  0  0
  -23.3310  -11.0160   19.9900 C   0  0  0  0  0  3  0  0  0  0  0  0
  -22.0200   -7.7790   21.1020 O   0  0  0  0  0  0  0  0  0  0  0  0
  -21.8440   -7.0600   22.2560 C   0  0  0  0  0  0  0  0  0  0  0  0
  -21.3970   -7.6660   23.4500 C   0  0  0  0  0  3  0  0  0  0  0  0
  -21.1630   -6.8790   24.5960 C   0  0  0  0  0  3  0  0  0  0  0  0
  -21.3660   -5.4860   24.5460 C   0  0  0  0  0  0  0  0  0  0  0  0
  -21.8070   -4.8800   23.3570 C   0  0  0  0  0  3  0  0  0  0  0  0
  -22.0420   -5.6650   22.2140 C   0  0  0  0  0  0  0  0  0  0  0  0
  -22.4460   -5.0730   21.0640 F   0  0  0  0  0  0  0  0  0  0  0  0
  -21.1350   -4.7270   25.6430 F   0  0  0  0  0  0  0  0  0  0  0  0
  -23.6180  -14.3240   21.1250 C   0  0  0  0  0  0  0  0  0  0  0  0
  -22.8840  -13.6400   21.9950 N   0  0  0  0  0  0  0  0  0  0  0  0
  -23.2360  -15.4060   20.6800 O   0  0  0  0  0  0  0  0  0  0  0  0
  -23.2070  -12.7640   22.3770 H   0  0  0  0  0  0  0  0  0  0  0  0
  -21.9830  -13.9960   22.2810 H   0  0  0  0  0  0  0  0  0  0  0  0
  -26.3330  -15.8310   20.2720 N   0  0  0  0  0  0  0  0  0  0  0  0
  -25.6370  -16.5420   20.4660 H   0  0  0  0  0  0  0  0  0  0  0  0
  -27.2060  -16.2170   19.9320 H   0  0  0  0  0  0  0  0  0  0  0  0
  -28.4530  -25.2550   19.3030 C   0  0  0  0  0  2  0  0  0  0  0  0
  -28.3210  -26.5870   19.9690 O   0  0  0  0  0  0  0  0  0  0  0  0
  -24.5070  -31.8430   23.1420 C   0  0  0  0  0  0  0  0  0  0  0  0
  -27.1580  -27.3840   19.9410 C   0  0  0  0  0  0  0  0  0  0  0  0
  -23.3010  -30.4490   21.4990 C   0  0  0  0  0  3  0  0  0  0  0  0
  -24.7530  -28.9520   20.0160 C   0  0  0  0  0  0  0  0  0  0  0  0
  -25.8300  -30.8210   21.2710 C   0  0  0  0  0  2  0  0  0  0  0  0
  -25.9230  -29.4540   20.5980 C   0  0  0  0  0  0  0  0  0  0  0  0
  -27.1220  -28.6790   20.5530 C   0  0  0  0  0  3  0  0  0  0  0  0
  -25.9550  -26.9310   19.3520 C   0  0  0  0  0  3  0  0  0  0  0  0
  -24.7720  -27.6970   19.3840 C   0  0  0  0  0  3  0  0  0  0  0  0
  -23.4990  -29.7980   20.1040 C   0  0  0  0  0  2  0  0  0  0  0  0
  -24.5660  -31.0550   22.0280 N   0  0  0  0  0  0  0  0  0  0  0  0
  -23.4300  -32.0880   23.7030 O   0  0  0  0  0  0  0  0  0  0  0  0
  -22.6790  -29.4040   22.4540 C   0  0  0  0  0  0  0  0  0  0  0  0
  -21.3620  -29.1700   22.3200 N   0  0  0  0  0  0  0  0  0  0  0  0
  -23.3790  -28.8030   23.2720 O   0  0  0  0  0  0  0  0  0  0  0  0
  -20.8530  -29.7120   21.6360 H   0  0  0  0  0  0  0  0  0  0  0  0
  -18.0500  -27.7790   22.7560 C   0  0  0  0  0  0  0  0  0  0  0  0
  -20.5810  -28.1940   23.0830 C   0  0  0  0  0  3  0  0  0  0  0  0
  -20.7810  -26.7630   22.5310 C   0  0  0  0  0  2  0  0  0  0  0  0
  -19.7260  -26.3640   21.4940 C   0  0  0  0  0  2  0  0  0  0  0  0
  -18.3230  -26.4340   22.1030 C   0  0  0  0  0  2  0  0  0  0  0  0
  -19.1100  -28.6110   23.2030 C   0  0  0  0  0  0  0  0  0  0  0  0
  -18.8040  -29.8660   23.7730 C   0  0  0  0  0  3  0  0  0  0  0  0
  -17.4670  -30.2900   23.9010 C   0  0  0  0  0  3  0  0  0  0  0  0
  -16.4200  -29.4560   23.4700 C   0  0  0  0  0  3  0  0  0  0  0  0
  -16.7130  -28.2020   22.9050 C   0  0  0  0  0  3  0  0  0  0  0  0
  -25.7880  -32.4920   23.7520 C   0  0  0  0  0  3  0  0  0  0  0  0
  -26.3480  -31.7070   25.0010 C   0  0  1  0  0  0  0  0  0  0  0  0
  -25.2790  -31.4080   26.0790 C   0  0  0  0  0  1  0  0  0  0  0  0
  -26.9650  -30.3570   24.5670 C   0  0  0  0  0  1  0  0  0  0  0  0
  -27.4850  -32.5180   25.6670 C   0  0  0  0  0  1  0  0  0  0  0  0
  -25.4550  -33.8770   24.1200 N   0  0  0  0  0  0  0  0  0  0  0  0
  -25.7580  -34.9550   23.3860 C   0  0  0  0  0  0  0  0  0  0  0  0
  -26.4150  -34.8900   22.3430 O   0  0  0  0  0  0  0  0  0  0  0  0
  -24.8700  -34.0000   24.9340 H   0  0  0  0  0  0  0  0  0  0  0  0
  -23.9940  -36.7250   23.0920 C   0  0  0  0  0  1  0  0  0  0  0  0
  -25.2490  -36.3220   23.8830 C   0  0  0  0  0  3  0  0  0  0  0  0
  -27.3740  -37.2230   24.7200 C   0  0  0  0  0  1  0  0  0  0  0  0
  -26.2620  -37.3960   23.7900 N   0  0  0  0  0  0  0  0  0  0  0  0
  -25.8410  -38.3040   23.9650 H   0  0  0  0  0  0  0  0  0  0  0  0
  1  2  1  0
  3  5  1  0
  3  4  2  0
  4  6  1  0
  5  1  2  0
  6  2  2  0
  6  7  1  0
  8  9  1  0
  8  4  1  0
  9 11  1  0
 10  8  2  0
 12  9  1  0
 12 14  1  0
 14 13  1  0
 15 14  1  0
 16 21  1  0
 17 18  1  0
 17 16  1  0
 19 18  1  0
 19 26  1  0
 19 20  1  0
 21 15  1  0
 21 20  1  0
 22 15  2  0
 23 24  2  0
 24 43  1  0
 25 24  1  0
 25 28  1  0
 26 27  1  0
 26 23  1  0
 27 25  2  0
 28 29  1  0
 29 30  2  0
 31 34  1  0
 31 30  1  0
 32 31  2  0
 33 32  1  0
 33 28  2  0
 34 35  1  0
 35 36  1  0
 36 37  2  0
 38 37  1  0
 38 42  1  0
 39 38  2  0
 40 35  2  0
 40 39  1  0
 41 40  1  0
 43 44  1  0
 44 47  1  0
 44 46  1  0
 45 43  2  0
 48 23  1  0
 48 49  1  0
 50 48  1  0
 51 52  1  0
 51  5  1  0
 53 64  2  0
 54 52  1  0
 54 59  1  0
 55 63  1  0
 55 65  1  0
 56 62  1  0
 56 58  1  0
 57 63  1  0
 58 57  1  0
 59 58  2  0
 60 61  1  0
 60 54  2  0
 61 56  2  0
 62 55  1  0
 63 53  1  0
 65 67  2  0
 66 65  1  0
 68 66  1  0
 69 78  2  0
 69 74  1  0
 70 66  1  0
 70 74  1  0
 71 70  1  0
 72 73  1  0
 72 71  1  0
 73 69  1  0
 74 75  2  0
 75 76  1  0
 77 76  2  0
 78 77  1  0
 79 53  1  0
 79 84  1  0
 79 80  1  0
 80 83  1  1
 80 81  1  0
 82 80  1  0
 84 87  1  0
 85 89  1  0
 85 84  1  0
 86 85  2  0
 89 88  1  0
 91 89  1  0
 91 92  1  0
 91 90  1  0
M  ISO  4  14 100  15 100  51 101  52 101
M  END
>  <TORSDO>  (50) 
F 20

>  <SCORE>  (50) 
-11.268

>  <name>  (50) 
49

>  <ligand_id>  (50) 
49

>  <original_smiles>  (50) 
[H]c1c([H])c([H])c2c(c1[H])C([H])([H])C([H])([H])C([H])([H])C2([H])N([H])C(=O)C1([H])N(C(=O)C([H])(N([H])C(=O)C([H])(N([H])C([H])([H])[H])C([H])([H])[H])C(C([H])([H])[H])(C([H])([H])[H])C([H])([H])[H])C([H])([H])c2c([H])c(OC([H])([H])c3c([H])c([H])c(C([H])([H])[H])c(C(=O)N([H])C([H])([H])C([H])(C(=O)N4C([H])([H])C([H])([H])C([H])([H])C([H])(n5nc(-c6c([H])c([H])c(Oc7c([H])c([H])c(F)c([H])c7F)c([H])c6[H])c(C(=O)N([H])[H])c5N([H])[H])C4([H])[H])C([H])([H])[H])c3[H])c([H])c([H])c2C1([H])[H]

>  <smiles>  (50) 
[H]c1c([H])c([H])c2c(c1[H])C([H])([H])C([H])([H])C([H])([H])C2([H])N([H])C(=O)C1([H])N(C(=O)C([H])(N([H])C(=O)C([H])(N([H])C([H])([H])[H])C([H])([H])[H])C(C([H])([H])[H])(C([H])([H])[H])C([H])([H])[H])C([H])([H])c2c([H])c(OC([H])([H])c3c([H])c([H])c(C([H])([H])[H])c(C(=O)N([H])C([H])([H])C([H])(C(=O)N4C([H])([H])C([H])([H])C([H])([H])C([H])(n5nc(-c6c([H])c([H])c(Oc7c([H])c([H])c(F)c([H])c7F)c([H])c6[H])c(C(=O)N([H])[H])c5N([H])[H])C4([H])[H])C([H])([H])[H])c3[H])c([H])c([H])c2C1([H])[H]

$$$$
50:0:0
     RDKit          3D

 93101  0  0  1  0  0  0  0  0999 V2000
  -28.3240  -23.3330   22.7990 C   0  0  0  0  0  3  0  0  0  0  0  0
  -27.2580  -25.0860   21.5620 C   0  0  0  0  0  3  0  0  0  0  0  0
  -28.8870  -22.8300   21.6180 C   0  0  0  0  0  0  0  0  0  0  0  0
  -28.4240  -23.2260   20.3180 C   0  0  0  0  0  0  0  0  0  0  0  0
  -27.4330  -24.3940   22.7600 C   0  0  0  0  0  0  0  0  0  0  0  0
  -27.8370  -24.7260   20.3120 C   0  0  0  0  0  0  0  0  0  0  0  0
  -26.8510  -24.8460   23.9100 O   0  0  0  0  0  0  0  0  0  0  0  0
  -27.0880  -24.3310   24.6760 H   0  0  0  0  0  0  0  0  0  0  0  0
  -27.8330  -26.0380   19.5070 O   0  0  0  0  0  0  0  0  0  0  0  0
  -24.4950  -31.9170   23.0290 C   0  0  0  0  0  0  0  0  0  0  0  0
  -26.8840  -27.2040   19.6150 C   0  0  0  0  0  0  0  0  0  0  0  0
  -23.2290  -30.6380   21.3520 C   0  0  0  0  0  3  0  0  0  0  0  0
  -24.6090  -29.1150   19.7780 C   0  0  0  0  0  0  0  0  0  0  0  0
  -25.7910  -30.8310   21.1260 C   0  0  0  0  0  2  0  0  0  0  0  0
  -25.8240  -29.4600   20.3850 C   0  0  0  0  0  0  0  0  0  0  0  0
  -26.9560  -28.5240   20.2870 C   0  0  0  0  0  3  0  0  0  0  0  0
  -25.6430  -27.0270   18.9650 C   0  0  0  0  0  3  0  0  0  0  0  0
  -24.5420  -27.9180   19.0490 C   0  0  0  0  0  3  0  0  0  0  0  0
  -23.4020  -30.0420   19.9290 C   0  0  0  0  0  2  0  0  0  0  0  0
  -24.5280  -31.1520   21.8910 N   0  0  0  0  0  0  0  0  0  0  0  0
  -23.4280  -32.1850   23.6050 O   0  0  0  0  0  0  0  0  0  0  0  0
  -22.5570  -29.5890   22.2780 C   0  0  0  0  0  0  0  0  0  0  0  0
  -21.2240  -29.4300   22.1750 N   0  0  0  0  0  0  0  0  0  0  0  0
  -23.2400  -28.9200   23.0560 O   0  0  0  0  0  0  0  0  0  0  0  0
  -20.7260  -30.0210   21.5240 H   0  0  0  0  0  0  0  0  0  0  0  0
  -17.8380  -28.3000   22.8370 C   0  0  0  0  0  0  0  0  0  0  0  0
  -20.4200  -28.4490   22.9130 C   0  0  0  0  0  3  0  0  0  0  0  0
  -20.4120  -27.0810   22.1930 C   0  0  0  0  0  2  0  0  0  0  0  0
  -19.2220  -26.9040   21.2440 C   0  0  0  0  0  2  0  0  0  0  0  0
  -17.9030  -27.0270   22.0120 C   0  0  0  0  0  2  0  0  0  0  0  0
  -19.0180  -28.9770   23.2460 C   0  0  0  0  0  0  0  0  0  0  0  0
  -18.8990  -30.1730   23.9870 C   0  0  0  0  0  3  0  0  0  0  0  0
  -17.6320  -30.6930   24.3140 C   0  0  0  0  0  3  0  0  0  0  0  0
  -16.4680  -30.0140   23.9160 C   0  0  0  0  0  3  0  0  0  0  0  0
  -16.5720  -28.8180   23.1840 C   0  0  0  0  0  3  0  0  0  0  0  0
  -25.7960  -32.5070   23.6560 C   0  0  0  0  0  3  0  0  0  0  0  0
  -25.5200  -33.9040   24.0400 N   0  0  0  0  0  0  0  0  0  0  0  0
  -25.8370  -34.9790   23.3050 C   0  0  0  0  0  0  0  0  0  0  0  0
  -26.4540  -34.8970   22.2400 O   0  0  0  0  0  0  0  0  0  0  0  0
  -24.9660  -34.0400   24.8720 H   0  0  0  0  0  0  0  0  0  0  0  0
  -24.1170  -36.8080   23.1190 C   0  0  0  0  0  1  0  0  0  0  0  0
  -25.4030  -36.3620   23.8330 C   0  0  0  0  0  3  0  0  0  0  0  0
  -27.5880  -37.2080   24.5680 C   0  0  0  0  0  1  0  0  0  0  0  0
  -26.4430  -37.4040   23.6830 N   0  0  0  0  0  0  0  0  0  0  0  0
  -26.0580  -38.3280   23.8600 H   0  0  0  0  0  0  0  0  0  0  0  0
  -26.3040  -31.6910   24.9070 C   0  0  1  0  0  0  0  0  0  0  0  0
  -25.2090  -31.4290   25.9680 C   0  0  0  0  0  1  0  0  0  0  0  0
  -26.8760  -30.3210   24.4780 C   0  0  0  0  0  1  0  0  0  0  0  0
  -27.4620  -32.4520   25.5940 C   0  0  0  0  0  1  0  0  0  0  0  0
  -30.0590  -21.8620   21.8380 C   0  0  0  0  0  2  0  0  0  0  0  0
  -32.1370  -21.3270   23.2300 C   0  0  0  0  0  1  0  0  0  0  0  0
  -30.9790  -22.3050   22.9940 C   0  0  0  0  0  2  0  0  0  0  0  0
  -28.6940  -21.8210   19.3120 C   0  0  0  0  0  2  0  0  0  0  0  0
  -28.6510  -20.0290   19.7370 C   0  0  0  0  0  3  0  0  0  0  0  0
  -29.6780  -18.5550   19.4280 C   0  0  0  0  0  3  0  0  0  0  0  0
  -30.3280  -15.6590   19.6810 C   0  0  0  0  0  0  0  0  0  0  0  0
  -30.3970  -13.1530   18.9820 C   0  0  0  0  0  2  0  0  0  0  0  0
  -29.4100  -12.7880   17.8420 C   0  0  0  0  0  2  0  0  0  0  0  0
  -28.0170  -12.4630   18.4060 C   0  0  0  0  0  2  0  0  0  0  0  0
  -27.5830  -13.4780   19.4930 C   0  0  0  0  0  3  0  0  0  0  0  0
  -28.6940  -13.7810   20.5210 C   0  0  0  0  0  2  0  0  0  0  0  0
  -29.8380  -14.3190   19.7650 N   0  0  0  0  0  0  0  0  0  0  0  0
  -31.5210  -15.7000   19.3480 O   0  0  0  0  0  0  0  0  0  0  0  0
  -29.5130  -16.9090   19.7650 N   0  0  0  0  0  0  0  0  0  0  0  0
  -28.5710  -16.6830   20.0490 H   0  0  0  0  0  0  0  0  0  0  0  0
  -25.3150  -13.9690   20.5470 C   0  0  0  0  0  0  0  0  0  0  0  0
  -24.2940  -13.1650   20.9670 C   0  0  0  0  0  0  0  0  0  0  0  0
  -24.7420  -11.8210   20.7760 C   0  0  0  0  0  0  0  0  0  0  0  0
  -26.3170  -13.1180   20.1210 N   0  0  0  0  0  0  0  0  0  0  0  0
  -25.9920  -11.8140   20.3230 N   0  0  0  0  0  0  0  0  0  0  0  0
  -24.0290  -10.5470   20.9390 C   0  0  0  0  0  0  0  0  0  0  0  0
  -24.4160   -9.6030   21.9160 C   0  0  0  0  0  3  0  0  0  0  0  0
  -23.6980   -8.3970   22.0700 C   0  0  0  0  0  3  0  0  0  0  0  0
  -22.5800   -8.1260   21.2460 C   0  0  0  0  0  0  0  0  0  0  0  0
  -22.2130   -9.0590   20.2600 C   0  0  0  0  0  3  0  0  0  0  0  0
  -22.9320  -10.2560   20.1040 C   0  0  0  0  0  3  0  0  0  0  0  0
  -21.8390   -6.9710   21.3060 O   0  0  0  0  0  0  0  0  0  0  0  0
  -21.5770   -6.3440   22.4990 C   0  0  0  0  0  0  0  0  0  0  0  0
  -20.8140   -6.9620   23.5130 C   0  0  0  0  0  3  0  0  0  0  0  0
  -20.5110   -6.2570   24.6960 C   0  0  0  0  0  3  0  0  0  0  0  0
  -20.9610   -4.9340   24.8600 C   0  0  0  0  0  0  0  0  0  0  0  0
  -21.7150   -4.3140   23.8480 C   0  0  0  0  0  3  0  0  0  0  0  0
  -22.0200   -5.0170   22.6700 C   0  0  0  0  0  0  0  0  0  0  0  0
  -22.7300   -4.4080   21.6900 F   0  0  0  0  0  0  0  0  0  0  0  0
  -20.6640   -4.2520   25.9920 F   0  0  0  0  0  0  0  0  0  0  0  0
  -22.9370  -13.6180   21.4220 C   0  0  0  0  0  0  0  0  0  0  0  0
  -22.2920  -12.8440   22.2870 N   0  0  0  0  0  0  0  0  0  0  0  0
  -22.4640  -14.6900   21.0480 O   0  0  0  0  0  0  0  0  0  0  0  0
  -22.6930  -11.9760   22.6110 H   0  0  0  0  0  0  0  0  0  0  0  0
  -21.3840  -13.1230   22.6300 H   0  0  0  0  0  0  0  0  0  0  0  0
  -25.4670  -15.3510   20.4620 N   0  0  0  0  0  0  0  0  0  0  0  0
  -24.7160  -15.9900   20.7040 H   0  0  0  0  0  0  0  0  0  0  0  0
  -26.2600  -15.8140   20.0410 H   0  0  0  0  0  0  0  0  0  0  0  0
  2  5  2  0
  3 50  1  0
  3  1  2  0
  4  3  1  0
  5  1  1  0
  5  7  1  0
  6  4  2  0
  6  2  1  0
  7  8  1  0
  9 11  1  0
  9  6  1  0
 10 21  2  0
 11 16  1  0
 12 20  1  0
 12 22  1  0
 13 19  1  0
 13 15  1  0
 14 20  1  0
 15 14  1  0
 16 15  2  0
 17 18  1  0
 17 11  2  0
 18 13  2  0
 19 12  1  0
 20 10  1  0
 22 24  2  0
 23 22  1  0
 25 23  1  0
 26 35  2  0
 26 31  1  0
 27 23  1  0
 27 31  1  0
 28 27  1  0
 29 30  1  0
 29 28  1  0
 30 26  1  0
 31 32  2  0
 32 33  1  0
 34 33  2  0
 35 34  1  0
 36 10  1  0
 36 37  1  0
 36 46  1  0
 37 40  1  0
 38 42  1  0
 38 37  1  0
 39 38  2  0
 42 41  1  0
 44 42  1  0
 44 45  1  0
 44 43  1  0
 46 49  1  1
 46 47  1  0
 48 46  1  0
 50 52  1  0
 52 51  1  0
 53 54  1  0
 53  4  1  0
 55 54  2  0
 55 64  1  0
 56 62  1  0
 56 64  1  0
 57 62  1  0
 58 59  1  0
 58 57  1  0
 60 59  1  0
 60 69  1  0
 60 61  1  0
 62 61  1  0
 63 56  2  0
 64 65  1  0
 66 67  2  0
 67 86  1  0
 68 71  1  0
 68 67  1  0
 69 70  1  0
 69 66  1  0
 70 68  2  0
 71 72  1  0
 72 73  2  0
 74 77  1  0
 74 73  1  0
 75 74  2  0
 76 75  1  0
 76 71  2  0
 77 78  1  0
 78 83  2  0
 78 79  1  0
 79 80  2  0
 80 81  1  0
 81 85  1  0
 82 81  2  0
 83 82  1  0
 84 83  1  0
 86 87  1  0
 87 89  1  0
 87 90  1  0
 88 86  2  0
 91 66  1  0
 91 92  1  0
 93 91  1  0
M  ISO  4   6 101   9 101  56 100  64 100
M  END
>  <TORSDO>  (51) 
F 22

>  <SCORE>  (51) 
-11.964

>  <name>  (51) 
50

>  <ligand_id>  (51) 
50

>  <original_smiles>  (51) 
[H]Oc1c([H])c(Oc2c([H])c([H])c3c(c2[H])C([H])([H])N(C(=O)C([H])(N([H])C(=O)C([H])(N([H])C([H])([H])[H])C([H])([H])[H])C(C([H])([H])[H])(C([H])([H])[H])C([H])([H])[H])C([H])(C(=O)N([H])C2([H])c4c([H])c([H])c([H])c([H])c4C([H])([H])C([H])([H])C2([H])[H])C3([H])[H])c(C([H])([H])C([H])([H])C([H])([H])N([H])C(=O)N2C([H])([H])C([H])([H])C([H])([H])C([H])(n3nc(-c4c([H])c([H])c(Oc5c([H])c([H])c(F)c([H])c5F)c([H])c4[H])c(C(=O)N([H])[H])c3N([H])[H])C2([H])[H])c(C([H])([H])C([H])([H])C([H])([H])[H])c1[H]

>  <smiles>  (51) 
[H]Oc1c([H])c(Oc2c([H])c([H])c3c(c2[H])C([H])([H])N(C(=O)C([H])(N([H])C(=O)C([H])(N([H])C([H])([H])[H])C([H])([H])[H])C(C([H])([H])[H])(C([H])([H])[H])C([H])([H])[H])C([H])(C(=O)N([H])C2([H])c4c([H])c([H])c([H])c([H])c4C([H])([H])C([H])([H])C2([H])[H])C3([H])[H])c(C([H])([H])C([H])([H])C([H])([H])N([H])C(=O)N2C([H])([H])C([H])([H])C([H])([H])C([H])(n3nc(-c4c([H])c([H])c(Oc5c([H])c([H])c(F)c([H])c5F)c([H])c4[H])c(C(=O)N([H])[H])c3N([H])[H])C2([H])[H])c(C([H])([H])C([H])([H])C([H])([H])[H])c1[H]

$$$$
51:0:0
     RDKit          3D

 91100  0  0  1  0  0  0  0  0999 V2000
  -28.7350  -23.6220   20.2100 C   0  0  0  0  0  3  0  0  0  0  0  0
  -28.4370  -22.5490   18.0870 C   0  0  0  0  0  3  0  0  0  0  0  0
  -28.0830  -24.8510   18.2450 C   0  0  0  0  0  3  0  0  0  0  0  0
  -28.8190  -22.3570   19.4350 C   0  0  0  0  0  0  0  0  0  0  0  0
  -28.3300  -24.9310   19.6290 C   0  0  0  0  0  0  0  0  0  0  0  0
  -28.1010  -23.7210   17.5110 N   0  0  0  0  0  0  0  0  0  0  0  0
  -29.7280  -19.9910   18.8040 C   0  0  0  0  0  3  0  0  0  0  0  0
  -29.2710  -20.8510   19.7780 C   0  0  0  0  0  0  0  0  0  0  0  0
  -30.0490  -18.4390   18.8480 C   0  0  0  0  0  2  0  0  0  0  0  0
  -29.0890  -20.0930   21.1190 C   0  0  0  0  0  2  0  0  0  0  0  0
  -28.9860  -18.4820   21.0630 C   0  0  0  0  0  2  0  0  0  0  0  0
  -30.0390  -17.6540   20.2170 C   0  0  0  0  0  3  0  0  0  0  0  0
  -30.6010  -14.9510   19.9360 C   0  0  0  0  0  0  0  0  0  0  0  0
  -30.4000  -12.6340   18.9490 C   0  0  0  0  0  2  0  0  0  0  0  0
  -29.3830  -12.6440   17.7840 C   0  0  0  0  0  2  0  0  0  0  0  0
  -27.9480  -12.4430   18.3090 C   0  0  0  0  0  2  0  0  0  0  0  0
  -27.6330  -13.3410   19.5340 C   0  0  0  0  0  3  0  0  0  0  0  0
  -28.7600  -13.3000   20.5870 C   0  0  0  0  0  2  0  0  0  0  0  0
  -29.9980  -13.7010   19.9050 N   0  0  0  0  0  0  0  0  0  0  0  0
  -31.7790  -15.0430   19.5780 O   0  0  0  0  0  0  0  0  0  0  0  0
  -29.8100  -16.0970   20.1760 N   0  0  0  0  0  0  0  0  0  0  0  0
  -28.8610  -15.8400   20.3970 H   0  0  0  0  0  0  0  0  0  0  0  0
  -25.3100  -13.9230   20.4440 C   0  0  0  0  0  0  0  0  0  0  0  0
  -24.2650  -13.1480   20.8630 C   0  0  0  0  0  0  0  0  0  0  0  0
  -24.7120  -11.7950   20.7630 C   0  0  0  0  0  0  0  0  0  0  0  0
  -26.3260  -13.0440   20.1100 N   0  0  0  0  0  0  0  0  0  0  0  0
  -25.9790  -11.7560   20.3670 N   0  0  0  0  0  0  0  0  0  0  0  0
  -23.9860  -10.5330   20.9660 C   0  0  0  0  0  0  0  0  0  0  0  0
  -24.4440   -9.5550   21.8740 C   0  0  0  0  0  3  0  0  0  0  0  0
  -23.7170   -8.3590   22.0660 C   0  0  0  0  0  3  0  0  0  0  0  0
  -22.5190   -8.1350   21.3480 C   0  0  0  0  0  0  0  0  0  0  0  0
  -22.0790   -9.1020   20.4280 C   0  0  0  0  0  3  0  0  0  0  0  0
  -22.8060  -10.2880   20.2350 C   0  0  0  0  0  3  0  0  0  0  0  0
  -21.7610   -6.9930   21.4500 O   0  0  0  0  0  0  0  0  0  0  0  0
  -21.7120   -6.2630   22.6110 C   0  0  0  0  0  0  0  0  0  0  0  0
  -21.2830   -6.8320   23.8300 C   0  0  0  0  0  3  0  0  0  0  0  0
  -21.1800   -6.0290   24.9840 C   0  0  0  0  0  3  0  0  0  0  0  0
  -21.4960   -4.6590   24.9190 C   0  0  0  0  0  0  0  0  0  0  0  0
  -21.9190   -4.0900   23.7050 C   0  0  0  0  0  3  0  0  0  0  0  0
  -22.0230   -4.8900   22.5540 C   0  0  0  0  0  0  0  0  0  0  0  0
  -22.4100   -4.3320   21.3810 F   0  0  0  0  0  0  0  0  0  0  0  0
  -21.3900   -3.8860   26.0250 F   0  0  0  0  0  0  0  0  0  0  0  0
  -22.8930  -13.6290   21.2370 C   0  0  0  0  0  0  0  0  0  0  0  0
  -22.2170  -12.9180   22.1320 N   0  0  0  0  0  0  0  0  0  0  0  0
  -22.4330  -14.6700   20.7720 O   0  0  0  0  0  0  0  0  0  0  0  0
  -22.6050  -12.0760   22.5310 H   0  0  0  0  0  0  0  0  0  0  0  0
  -21.3000  -13.2210   22.4250 H   0  0  0  0  0  0  0  0  0  0  0  0
  -25.4740  -15.2980   20.2930 N   0  0  0  0  0  0  0  0  0  0  0  0
  -24.7160  -15.9480   20.4710 H   0  0  0  0  0  0  0  0  0  0  0  0
  -26.2850  -15.7410   19.8830 H   0  0  0  0  0  0  0  0  0  0  0  0
  -28.2890  -26.2670   20.2240 O   0  0  0  0  0  0  0  0  0  0  0  0
  -24.6440  -31.8840   23.2350 C   0  0  0  0  0  0  0  0  0  0  0  0
  -27.2060  -27.2120   20.1490 C   0  0  0  0  0  0  0  0  0  0  0  0
  -23.4280  -30.4940   21.6010 C   0  0  0  0  0  3  0  0  0  0  0  0
  -24.8630  -28.9310   20.1570 C   0  0  0  0  0  0  0  0  0  0  0  0
  -25.9770  -30.7710   21.4090 C   0  0  0  0  0  2  0  0  0  0  0  0
  -26.0470  -29.3850   20.7490 C   0  0  0  0  0  0  0  0  0  0  0  0
  -27.2170  -28.5410   20.7290 C   0  0  0  0  0  3  0  0  0  0  0  0
  -25.9810  -26.8410   19.5500 C   0  0  0  0  0  3  0  0  0  0  0  0
  -24.8400  -27.6700   19.5440 C   0  0  0  0  0  3  0  0  0  0  0  0
  -23.6340  -29.8230   20.2190 C   0  0  0  0  0  2  0  0  0  0  0  0
  -24.7040  -31.0700   22.1360 N   0  0  0  0  0  0  0  0  0  0  0  0
  -23.5630  -32.1650   23.7750 O   0  0  0  0  0  0  0  0  0  0  0  0
  -22.7600  -29.4810   22.5660 C   0  0  0  0  0  0  0  0  0  0  0  0
  -21.4340  -29.2990   22.4400 N   0  0  0  0  0  0  0  0  0  0  0  0
  -23.4390  -28.8630   23.3910 O   0  0  0  0  0  0  0  0  0  0  0  0
  -20.9430  -29.8490   21.7500 H   0  0  0  0  0  0  0  0  0  0  0  0
  -18.0680  -28.0520   22.9260 C   0  0  0  0  0  0  0  0  0  0  0  0
  -20.6200  -28.3580   23.2140 C   0  0  0  0  0  3  0  0  0  0  0  0
  -20.7490  -26.9200   22.6580 C   0  0  0  0  0  2  0  0  0  0  0  0
  -19.6620  -26.5690   21.6370 C   0  0  0  0  0  2  0  0  0  0  0  0
  -18.2720  -26.6990   22.2660 C   0  0  0  0  0  2  0  0  0  0  0  0
  -19.1700  -28.8380   23.3560 C   0  0  0  0  0  0  0  0  0  0  0  0
  -18.9250  -30.1030   23.9350 C   0  0  0  0  0  3  0  0  0  0  0  0
  -17.6100  -30.5830   24.0840 C   0  0  0  0  0  3  0  0  0  0  0  0
  -16.5220  -29.7950   23.6690 C   0  0  0  0  0  3  0  0  0  0  0  0
  -16.7520  -28.5320   23.0950 C   0  0  0  0  0  3  0  0  0  0  0  0
  -25.9280  -32.5180   23.8510 C   0  0  0  0  0  3  0  0  0  0  0  0
  -25.6190  -33.9160   24.1890 N   0  0  0  0  0  0  0  0  0  0  0  0
  -25.9290  -34.9720   23.4260 C   0  0  0  0  0  0  0  0  0  0  0  0
  -26.5730  -34.8730   22.3780 O   0  0  0  0  0  0  0  0  0  0  0  0
  -25.0450  -34.0660   25.0060 H   0  0  0  0  0  0  0  0  0  0  0  0
  -24.1810  -36.7590   23.1320 C   0  0  0  0  0  1  0  0  0  0  0  0
  -25.4520  -36.3600   23.9000 C   0  0  0  0  0  3  0  0  0  0  0  0
  -27.6080  -37.2600   24.6560 C   0  0  0  0  0  1  0  0  0  0  0  0
  -26.4750  -37.4180   23.7490 N   0  0  0  0  0  0  0  0  0  0  0  0
  -26.0680  -38.3370   23.9050 H   0  0  0  0  0  0  0  0  0  0  0  0
  -26.4480  -31.7460   25.1260 C   0  0  1  0  0  0  0  0  0  0  0  0
  -25.3590  -31.5110   26.2000 C   0  0  0  0  0  1  0  0  0  0  0  0
  -27.0270  -30.3670   24.7360 C   0  0  0  0  0  1  0  0  0  0  0  0
  -27.6030  -32.5390   25.7830 C   0  0  0  0  0  1  0  0  0  0  0  0
  2  4  1  0
  3  5  2  0
  4  8  1  0
  4  1  2  0
  5  1  1  0
  5 51  1  0
  6  2  2  0
  6  3  1  0
  7  9  1  0
  7  8  2  0
  8 10  1  0
  9 12  1  0
 11 10  1  0
 12 21  1  0
 12 11  1  0
 13 21  1  0
 14 19  1  0
 15 16  1  0
 15 14  1  0
 17 16  1  0
 17 26  1  0
 17 18  1  0
 19 13  1  0
 19 18  1  0
 20 13  2  0
 21 22  1  0
 23 24  2  0
 24 43  1  0
 25 24  1  0
 25 28  1  0
 26 27  1  0
 26 23  1  0
 27 25  2  0
 28 29  1  0
 29 30  2  0
 31 34  1  0
 31 30  1  0
 32 31  2  0
 33 32  1  0
 33 28  2  0
 34 35  1  0
 35 36  1  0
 36 37  2  0
 38 37  1  0
 38 42  1  0
 39 38  2  0
 40 35  2  0
 40 39  1  0
 41 40  1  0
 43 44  1  0
 44 47  1  0
 44 46  1  0
 45 43  2  0
 48 23  1  0
 48 49  1  0
 50 48  1  0
 52 63  2  0
 53 51  1  0
 53 58  1  0
 54 62  1  0
 54 64  1  0
 55 61  1  0
 55 57  1  0
 56 62  1  0
 57 56  1  0
 58 57  2  0
 59 53  2  0
 60 59  1  0
 60 55  2  0
 61 54  1  0
 62 52  1  0
 64 66  2  0
 65 64  1  0
 67 65  1  0
 68 77  2  0
 68 73  1  0
 69 65  1  0
 69 73  1  0
 70 69  1  0
 71 72  1  0
 71 70  1  0
 72 68  1  0
 73 74  2  0
 74 75  1  0
 76 75  2  0
 77 76  1  0
 78 52  1  0
 78 79  1  0
 78 88  1  0
 79 82  1  0
 80 84  1  0
 80 79  1  0
 81 80  2  0
 84 83  1  0
 86 84  1  0
 86 87  1  0
 86 85  1  0
 88 91  1  1
 88 89  1  0
 90 88  1  0
M  ISO  4   5 101  13 100  21 100  51 101
M  END
>  <TORSDO>  (52) 
F 17

>  <SCORE>  (52) 
-14.600

>  <name>  (52) 
51

>  <ligand_id>  (52) 
51

>  <original_smiles>  (52) 
[H]C1=C(c2c([H])nc([H])c(Oc3c([H])c([H])c4c(c3[H])C([H])([H])N(C(=O)C([H])(N([H])C(=O)C([H])(N([H])C([H])([H])[H])C([H])([H])[H])C(C([H])([H])[H])(C([H])([H])[H])C([H])([H])[H])C([H])(C(=O)N([H])C3([H])c5c([H])c([H])c([H])c([H])c5C([H])([H])C([H])([H])C3([H])[H])C4([H])[H])c2[H])C([H])([H])C([H])([H])C([H])(N([H])C(=O)N2C([H])([H])C([H])([H])C([H])([H])C([H])(n3nc(-c4c([H])c([H])c(Oc5c([H])c([H])c(F)c([H])c5F)c([H])c4[H])c(C(=O)N([H])[H])c3N([H])[H])C2([H])[H])C1([H])[H]

>  <smiles>  (52) 
[H]C1=C(c2c([H])nc([H])c(Oc3c([H])c([H])c4c(c3[H])C([H])([H])N(C(=O)C([H])(N([H])C(=O)C([H])(N([H])C([H])([H])[H])C([H])([H])[H])C(C([H])([H])[H])(C([H])([H])[H])C([H])([H])[H])C([H])(C(=O)N([H])C3([H])c5c([H])c([H])c([H])c([H])c5C([H])([H])C([H])([H])C3([H])[H])C4([H])[H])c2[H])C([H])([H])C([H])([H])C([H])(N([H])C(=O)N2C([H])([H])C([H])([H])C([H])([H])C([H])(n3nc(-c4c([H])c([H])c(Oc5c([H])c([H])c(F)c([H])c5F)c([H])c4[H])c(C(=O)N([H])[H])c3N([H])[H])C2([H])[H])C1([H])[H]

$$$$
52:0:0
     RDKit          3D

 89 97  0  0  1  0  0  0  0  0999 V2000
  -25.8830  -24.3220   22.9270 C   0  0  0  0  0  2  0  0  0  0  0  0
  -27.3330  -24.8210   22.9310 C   0  0  0  0  0  2  0  0  0  0  0  0
  -25.3390  -24.3150   21.4960 C   0  0  0  0  0  2  0  0  0  0  0  0
  -28.2200  -23.9630   22.0040 C   0  0  0  0  0  2  0  0  0  0  0  0
  -26.2620  -23.5630   20.4900 C   0  0  0  0  0  2  0  0  0  0  0  0
  -27.7940  -23.9220   20.5010 C   0  0  2  0  0  0  0  0  0  0  0  0
  -28.6430  -22.3550   19.9160 C   0  0  0  0  0  0  0  0  0  0  0  0
  -28.6910  -20.8640   20.3610 N   0  0  0  0  0  0  0  0  0  0  0  0
  -29.3350  -22.5640   18.9210 O   0  0  0  0  0  0  0  0  0  0  0  0
  -28.1190  -20.7560   21.1890 H   0  0  0  0  0  0  0  0  0  0  0  0
  -29.4570  -19.3080   19.9610 C   0  0  0  0  0  3  0  0  0  0  0  0
  -29.3700  -17.4300   20.4060 C   0  0  0  0  0  3  0  0  0  0  0  0
  -30.2140  -15.7940   20.0610 C   0  0  0  0  0  0  0  0  0  0  0  0
  -30.3680  -13.2570   19.2210 C   0  0  0  0  0  2  0  0  0  0  0  0
  -29.4570  -12.8930   18.0120 C   0  0  0  0  0  2  0  0  0  0  0  0
  -28.0360  -12.5360   18.4730 C   0  0  0  0  0  2  0  0  0  0  0  0
  -27.5470  -13.5100   19.5680 C   0  0  0  0  0  3  0  0  0  0  0  0
  -28.5870  -13.7880   20.6730 C   0  0  0  0  0  2  0  0  0  0  0  0
  -29.7590  -14.4090   20.0280 N   0  0  0  0  0  0  0  0  0  0  0  0
  -31.4230  -15.7840   19.7560 O   0  0  0  0  0  0  0  0  0  0  0  0
  -25.2000  -14.0130   20.3880 C   0  0  0  0  0  0  0  0  0  0  0  0
  -24.1550  -13.2230   20.7790 C   0  0  0  0  0  0  0  0  0  0  0  0
  -24.6320  -11.8790   20.7220 C   0  0  0  0  0  0  0  0  0  0  0  0
  -26.2400  -13.1510   20.1070 N   0  0  0  0  0  0  0  0  0  0  0  0
  -25.9200  -11.8570   20.3720 N   0  0  0  0  0  0  0  0  0  0  0  0
  -23.9170  -10.6070   20.9210 C   0  0  0  0  0  0  0  0  0  0  0  0
  -24.3430   -9.6650   21.8850 C   0  0  0  0  0  3  0  0  0  0  0  0
  -23.6310   -8.4600   22.0750 C   0  0  0  0  0  3  0  0  0  0  0  0
  -22.4760   -8.1930   21.3020 C   0  0  0  0  0  0  0  0  0  0  0  0
  -22.0680   -9.1220   20.3280 C   0  0  0  0  0  3  0  0  0  0  0  0
  -22.7820  -10.3180   20.1380 C   0  0  0  0  0  3  0  0  0  0  0  0
  -21.7360   -7.0400   21.3940 O   0  0  0  0  0  0  0  0  0  0  0  0
  -21.6250   -6.3460   22.5740 C   0  0  0  0  0  0  0  0  0  0  0  0
  -21.1070   -6.9370   23.7450 C   0  0  0  0  0  3  0  0  0  0  0  0
  -20.9620   -6.1700   24.9180 C   0  0  0  0  0  3  0  0  0  0  0  0
  -21.3140   -4.8080   24.9140 C   0  0  0  0  0  0  0  0  0  0  0  0
  -21.8160   -4.2130   23.7450 C   0  0  0  0  0  3  0  0  0  0  0  0
  -21.9720   -4.9800   22.5790 C   0  0  0  0  0  0  0  0  0  0  0  0
  -22.4400   -4.3960   21.4480 F   0  0  0  0  0  0  0  0  0  0  0  0
  -21.1630   -4.0660   26.0350 F   0  0  0  0  0  0  0  0  0  0  0  0
  -22.7600  -13.6840   21.0860 C   0  0  0  0  0  0  0  0  0  0  0  0
  -22.0500  -12.9780   21.9550 N   0  0  0  0  0  0  0  0  0  0  0  0
  -22.3090  -14.7140   20.5830 O   0  0  0  0  0  0  0  0  0  0  0  0
  -22.4170  -12.1420   22.3850 H   0  0  0  0  0  0  0  0  0  0  0  0
  -21.1150  -13.2850   22.1940 H   0  0  0  0  0  0  0  0  0  0  0  0
  -25.3580  -15.3870   20.2120 N   0  0  0  0  0  0  0  0  0  0  0  0
  -24.6010  -16.0530   20.3220 H   0  0  0  0  0  0  0  0  0  0  0  0
  -26.2070  -15.8110   19.8650 H   0  0  0  0  0  0  0  0  0  0  0  0
  -27.9750  -25.6170   20.0260 O   0  0  0  0  0  0  0  0  0  0  0  0
  -24.5480  -31.8940   23.0510 C   0  0  0  0  0  0  0  0  0  0  0  0
  -27.0370  -26.8550   20.0180 C   0  0  0  0  0  0  0  0  0  0  0  0
  -23.3510  -30.5090   21.4110 C   0  0  0  0  0  3  0  0  0  0  0  0
  -24.7940  -28.8900   19.9660 C   0  0  0  0  0  0  0  0  0  0  0  0
  -25.9260  -30.6660   21.2710 C   0  0  0  0  0  2  0  0  0  0  0  0
  -25.9880  -29.2370   20.6120 C   0  0  0  0  0  0  0  0  0  0  0  0
  -27.0970  -28.2430   20.6140 C   0  0  0  0  0  3  0  0  0  0  0  0
  -25.8460  -26.7530   19.2600 C   0  0  0  0  0  3  0  0  0  0  0  0
  -24.7640  -27.6750   19.2650 C   0  0  0  0  0  3  0  0  0  0  0  0
  -23.5840  -29.8330   20.0300 C   0  0  0  0  0  2  0  0  0  0  0  0
  -24.6320  -31.0560   21.9630 N   0  0  0  0  0  0  0  0  0  0  0  0
  -23.4590  -32.1840   23.5760 O   0  0  0  0  0  0  0  0  0  0  0  0
  -22.6530  -29.5140   22.3790 C   0  0  0  0  0  0  0  0  0  0  0  0
  -21.3220  -29.3440   22.2570 N   0  0  0  0  0  0  0  0  0  0  0  0
  -23.3210  -28.8950   23.2100 O   0  0  0  0  0  0  0  0  0  0  0  0
  -20.8340  -29.9020   21.5700 H   0  0  0  0  0  0  0  0  0  0  0  0
  -17.9530  -28.0700   22.7520 C   0  0  0  0  0  0  0  0  0  0  0  0
  -20.5060  -28.3940   23.0260 C   0  0  0  0  0  3  0  0  0  0  0  0
  -20.6390  -26.9620   22.4580 C   0  0  0  0  0  2  0  0  0  0  0  0
  -19.5500  -26.6150   21.4370 C   0  0  0  0  0  2  0  0  0  0  0  0
  -18.1630  -26.7280   22.0720 C   0  0  0  0  0  2  0  0  0  0  0  0
  -19.0530  -28.8600   23.1840 C   0  0  0  0  0  0  0  0  0  0  0  0
  -18.8010  -30.1140   23.7860 C   0  0  0  0  0  3  0  0  0  0  0  0
  -17.4820  -30.5800   23.9490 C   0  0  0  0  0  3  0  0  0  0  0  0
  -16.3990  -29.7890   23.5280 C   0  0  0  0  0  3  0  0  0  0  0  0
  -16.6360  -28.5360   22.9380 C   0  0  0  0  0  3  0  0  0  0  0  0
  -25.8120  -32.5470   23.6860 C   0  0  0  0  0  3  0  0  0  0  0  0
  -26.3270  -31.7710   24.9600 C   0  0  1  0  0  0  0  0  0  0  0  0
  -25.2350  -31.5180   26.0270 C   0  0  0  0  0  1  0  0  0  0  0  0
  -26.9130  -30.3980   24.5680 C   0  0  0  0  0  1  0  0  0  0  0  0
  -27.4830  -32.5590   25.6230 C   0  0  0  0  0  1  0  0  0  0  0  0
  -25.4820  -33.9380   24.0500 N   0  0  0  0  0  0  0  0  0  0  0  0
  -25.8240  -35.0220   23.3390 C   0  0  0  0  0  0  0  0  0  0  0  0
  -26.5070  -34.9560   22.3160 O   0  0  0  0  0  0  0  0  0  0  0  0
  -24.8690  -34.0610   24.8420 H   0  0  0  0  0  0  0  0  0  0  0  0
  -24.1100  -36.8410   23.0160 C   0  0  0  0  0  1  0  0  0  0  0  0
  -25.3320  -36.3980   23.8390 C   0  0  0  0  0  3  0  0  0  0  0  0
  -27.4510  -37.2430   24.7500 C   0  0  0  0  0  1  0  0  0  0  0  0
  -26.3700  -37.4530   23.7870 N   0  0  0  0  0  0  0  0  0  0  0  0
  -25.9620  -38.3680   23.9650 H   0  0  0  0  0  0  0  0  0  0  0  0
  1  2  1  0
  3  1  1  0
  4  2  1  0
  5  6  1  0
  5  3  1  0
  6  4  1  0
  7  8  1  0
  7  6  1  0
  8 10  1  0
  9  7  2  0
 11  8  1  0
 11 12  2  0
 13 12  1  0
 14 19  1  0
 15 16  1  0
 15 14  1  0
 17 16  1  0
 17 24  1  0
 17 18  1  0
 19 13  1  0
 19 18  1  0
 20 13  2  0
 21 22  2  0
 22 41  1  0
 23 22  1  0
 23 26  1  0
 24 25  1  0
 24 21  1  0
 25 23  2  0
 26 27  1  0
 27 28  2  0
 29 32  1  0
 29 28  1  0
 30 29  2  0
 31 30  1  0
 31 26  2  0
 32 33  1  0
 33 38  2  0
 33 34  1  0
 34 35  2  0
 36 35  1  0
 36 40  1  0
 37 36  2  0
 38 37  1  0
 39 38  1  0
 41 42  1  0
 42 45  1  0
 42 44  1  0
 43 41  2  0
 46 47  1  0
 46 21  1  0
 48 46  1  0
  6 49  1  6
 50 61  2  0
 51 49  1  0
 51 56  1  0
 52 60  1  0
 52 62  1  0
 53 59  1  0
 53 55  1  0
 54 60  1  0
 55 56  2  0
 55 54  1  0
 57 58  1  0
 57 51  2  0
 58 53  2  0
 59 52  1  0
 60 50  1  0
 62 64  2  0
 63 62  1  0
 65 63  1  0
 66 75  2  0
 66 71  1  0
 67 63  1  0
 67 71  1  0
 68 67  1  0
 69 70  1  0
 69 68  1  0
 70 66  1  0
 71 72  2  0
 72 73  1  0
 74 73  2  0
 75 74  1  0
 76 50  1  0
 76 81  1  0
 76 77  1  0
 77 80  1  1
 77 78  1  0
 79 77  1  0
 81 84  1  0
 82 86  1  0
 82 81  1  0
 83 82  2  0
 86 85  1  0
 88 86  1  0
 88 89  1  0
 88 87  1  0
M  ISO  4   6 101  12 100  13 100  49 101
M  END
>  <TORSDO>  (53) 
F 19

>  <SCORE>  (53) 
-15.560

>  <name>  (53) 
52

>  <ligand_id>  (53) 
52

>  <original_smiles>  (53) 
[H]c1c([H])c([H])c2c(c1[H])C([H])([H])C([H])([H])C([H])([H])C2([H])N([H])C(=O)C1([H])N(C(=O)C([H])(N([H])C(=O)C([H])(N([H])C([H])([H])[H])C([H])([H])[H])C(C([H])([H])[H])(C([H])([H])[H])C([H])([H])[H])C([H])([H])c2c([H])c(OC3(C(=O)N([H])C([H])([H])C([H])([H])C(=O)N4C([H])([H])C([H])([H])C([H])([H])C([H])(n5nc(-c6c([H])c([H])c(Oc7c([H])c([H])c(F)c([H])c7F)c([H])c6[H])c(C(=O)N([H])[H])c5N([H])[H])C4([H])[H])C([H])([H])C([H])([H])C([H])([H])C([H])([H])C3([H])[H])c([H])c([H])c2C1([H])[H]

>  <smiles>  (53) 
[H]c1c([H])c([H])c2c(c1[H])C([H])([H])C([H])([H])C([H])([H])C2([H])N([H])C(=O)C1([H])N(C(=O)C([H])(N([H])C(=O)C([H])(N([H])C([H])([H])[H])C([H])([H])[H])C(C([H])([H])[H])(C([H])([H])[H])C([H])([H])[H])C([H])([H])c2c([H])c(OC3(C(=O)N([H])C([H])([H])C([H])([H])C(=O)N4C([H])([H])C([H])([H])C([H])([H])C([H])(n5nc(-c6c([H])c([H])c(Oc7c([H])c([H])c(F)c([H])c7F)c([H])c6[H])c(C(=O)N([H])[H])c5N([H])[H])C4([H])[H])C([H])([H])C([H])([H])C([H])([H])C([H])([H])C3([H])[H])c([H])c([H])c2C1([H])[H]

$$$$
53:0:0
     RDKit          3D

 87 96  0  0  1  0  0  0  0  0999 V2000
  -27.0820  -22.8990   20.2350 C   0  0  0  0  0  3  0  0  0  0  0  0
  -26.9550  -21.4190   20.2270 C   0  0  0  0  0  3  0  0  0  0  0  0
  -29.3450  -22.5160   20.1250 C   0  0  0  0  0  3  0  0  0  0  0  0
  -29.3300  -20.8740   20.1070 C   0  0  0  0  0  0  0  0  0  0  0  0
  -30.2230  -19.4280   20.0430 C   0  0  0  0  0  0  0  0  0  0  0  0
  -28.2700  -23.7290   20.1870 C   0  0  0  0  0  0  0  0  0  0  0  0
  -28.0050  -20.3970   20.1690 C   0  0  0  0  0  0  0  0  0  0  0  0
  -29.7310  -17.9560   20.0560 C   0  0  0  0  0  0  0  0  0  0  0  0
  -31.7090  -19.6100   19.9460 C   0  0  0  0  0  1  0  0  0  0  0  0
  -27.9630  -18.4650   20.1550 S   0  0  0  0  0  0  0  0  0  0  0  0
  -30.3840  -16.1430   19.9660 C   0  0  0  0  0  0  0  0  0  0  0  0
  -30.5550  -13.5190   19.2000 C   0  0  0  0  0  2  0  0  0  0  0  0
  -29.6650  -12.9800   18.0350 C   0  0  0  0  0  2  0  0  0  0  0  0
  -28.2870  -12.5410   18.5480 C   0  0  0  0  0  2  0  0  0  0  0  0
  -27.7540  -13.5510   19.5840 C   0  0  0  0  0  3  0  0  0  0  0  0
  -28.7920  -14.0100   20.6420 C   0  0  0  0  0  2  0  0  0  0  0  0
  -29.9000  -14.7220   19.9410 N   0  0  0  0  0  0  0  0  0  0  0  0
  -31.6130  -15.9930   19.7630 O   0  0  0  0  0  0  0  0  0  0  0  0
  -25.4400  -14.0070   20.5000 C   0  0  0  0  0  0  0  0  0  0  0  0
  -24.4090  -13.2010   20.8870 C   0  0  0  0  0  0  0  0  0  0  0  0
  -24.8890  -11.8590   20.7790 C   0  0  0  0  0  0  0  0  0  0  0  0
  -26.4790  -13.1600   20.1660 N   0  0  0  0  0  0  0  0  0  0  0  0
  -26.1670  -11.8560   20.3990 N   0  0  0  0  0  0  0  0  0  0  0  0
  -24.1800  -10.5830   20.9550 C   0  0  0  0  0  0  0  0  0  0  0  0
  -24.5980   -9.6280   21.9080 C   0  0  0  0  0  3  0  0  0  0  0  0
  -23.8810   -8.4220   22.0770 C   0  0  0  0  0  3  0  0  0  0  0  0
  -22.7320   -8.1630   21.2920 C   0  0  0  0  0  0  0  0  0  0  0  0
  -22.3320   -9.1080   20.3300 C   0  0  0  0  0  3  0  0  0  0  0  0
  -23.0500  -10.3040   20.1610 C   0  0  0  0  0  3  0  0  0  0  0  0
  -21.9900   -7.0080   21.3690 O   0  0  0  0  0  0  0  0  0  0  0  0
  -21.8240   -6.3350   22.5520 C   0  0  0  0  0  0  0  0  0  0  0  0
  -21.2100   -6.9370   23.6720 C   0  0  0  0  0  3  0  0  0  0  0  0
  -20.9970   -6.1870   24.8460 C   0  0  0  0  0  3  0  0  0  0  0  0
  -21.3870   -4.8350   24.8990 C   0  0  0  0  0  0  0  0  0  0  0  0
  -21.9920   -4.2320   23.7830 C   0  0  0  0  0  3  0  0  0  0  0  0
  -22.2070   -4.9800   22.6120 C   0  0  0  0  0  0  0  0  0  0  0  0
  -22.7710   -4.3870   21.5320 F   0  0  0  0  0  0  0  0  0  0  0  0
  -21.1750   -4.1130   26.0240 F   0  0  0  0  0  0  0  0  0  0  0  0
  -23.0240  -13.6540   21.2360 C   0  0  0  0  0  0  0  0  0  0  0  0
  -22.3450  -12.9310   22.1180 N   0  0  0  0  0  0  0  0  0  0  0  0
  -22.5530  -14.6890   20.7620 O   0  0  0  0  0  0  0  0  0  0  0  0
  -22.7410  -12.0950   22.5220 H   0  0  0  0  0  0  0  0  0  0  0  0
  -21.4170  -13.2180   22.3950 H   0  0  0  0  0  0  0  0  0  0  0  0
  -25.5800  -15.3860   20.3690 N   0  0  0  0  0  0  0  0  0  0  0  0
  -24.8150  -16.0250   20.5570 H   0  0  0  0  0  0  0  0  0  0  0  0
  -26.4110  -15.8530   20.0300 H   0  0  0  0  0  0  0  0  0  0  0  0
  -28.2730  -25.4190   20.2260 O   0  0  0  0  0  0  0  0  0  0  0  0
  -24.7650  -31.9210   23.2200 C   0  0  0  0  0  0  0  0  0  0  0  0
  -27.2970  -26.7010   20.2280 C   0  0  0  0  0  0  0  0  0  0  0  0
  -23.5870  -30.5220   21.5790 C   0  0  0  0  0  3  0  0  0  0  0  0
  -25.0410  -28.8480   20.1710 C   0  0  0  0  0  0  0  0  0  0  0  0
  -26.1730  -30.6190   21.4790 C   0  0  0  0  0  2  0  0  0  0  0  0
  -26.2380  -29.1670   20.8210 C   0  0  0  0  0  0  0  0  0  0  0  0
  -27.3380  -28.1270   20.8150 C   0  0  0  0  0  3  0  0  0  0  0  0
  -26.0650  -26.6470   19.5110 C   0  0  0  0  0  3  0  0  0  0  0  0
  -25.0040  -27.6150   19.4920 C   0  0  0  0  0  3  0  0  0  0  0  0
  -23.8390  -29.8180   20.2110 C   0  0  0  0  0  2  0  0  0  0  0  0
  -24.8680  -31.0580   22.1450 N   0  0  0  0  0  0  0  0  0  0  0  0
  -23.6680  -32.2220   23.7230 O   0  0  0  0  0  0  0  0  0  0  0  0
  -22.8580  -29.5520   22.5510 C   0  0  0  0  0  0  0  0  0  0  0  0
  -21.5280  -29.3920   22.4180 N   0  0  0  0  0  0  0  0  0  0  0  0
  -23.5080  -28.9410   23.4030 O   0  0  0  0  0  0  0  0  0  0  0  0
  -21.0500  -29.9340   21.7130 H   0  0  0  0  0  0  0  0  0  0  0  0
  -18.1440  -28.1530   22.9270 C   0  0  0  0  0  0  0  0  0  0  0  0
  -20.7030  -28.4490   23.1870 C   0  0  0  0  0  3  0  0  0  0  0  0
  -20.8170  -27.0170   22.6130 C   0  0  0  0  0  2  0  0  0  0  0  0
  -19.7200  -26.6860   21.5970 C   0  0  0  0  0  2  0  0  0  0  0  0
  -18.3360  -26.8110   22.2400 C   0  0  0  0  0  2  0  0  0  0  0  0
  -19.2540  -28.9290   23.3570 C   0  0  0  0  0  0  0  0  0  0  0  0
  -19.0160  -30.1800   23.9670 C   0  0  0  0  0  3  0  0  0  0  0  0
  -17.7040  -30.6570   24.1440 C   0  0  0  0  0  3  0  0  0  0  0  0
  -16.6100  -29.8800   23.7260 C   0  0  0  0  0  3  0  0  0  0  0  0
  -16.8310  -28.6280   23.1250 C   0  0  0  0  0  3  0  0  0  0  0  0
  -26.0180  -32.5830   23.8700 C   0  0  0  0  0  3  0  0  0  0  0  0
  -25.6840  -33.9830   24.2100 N   0  0  0  0  0  0  0  0  0  0  0  0
  -25.9780  -35.0550   23.4600 C   0  0  0  0  0  0  0  0  0  0  0  0
  -26.6120  -34.9700   22.4060 O   0  0  0  0  0  0  0  0  0  0  0  0
  -25.1140  -34.1200   25.0310 H   0  0  0  0  0  0  0  0  0  0  0  0
  -24.2050  -36.8330   23.2260 C   0  0  0  0  0  1  0  0  0  0  0  0
  -25.5000  -36.4390   23.9540 C   0  0  0  0  0  3  0  0  0  0  0  0
  -27.6600  -37.3750   24.6650 C   0  0  0  0  0  1  0  0  0  0  0  0
  -26.5070  -37.5100   23.7770 N   0  0  0  0  0  0  0  0  0  0  0  0
  -26.0930  -38.4260   23.9330 H   0  0  0  0  0  0  0  0  0  0  0  0
  -26.5090  -31.8290   25.1690 C   0  0  1  0  0  0  0  0  0  0  0  0
  -25.3940  -31.6010   26.2180 C   0  0  0  0  0  1  0  0  0  0  0  0
  -27.1050  -30.4470   24.8200 C   0  0  0  0  0  1  0  0  0  0  0  0
  -27.6440  -32.6340   25.8450 C   0  0  0  0  0  1  0  0  0  0  0  0
  2  1  1  0
  3  6  1  0
  4  3  2  0
  4  7  1  0
  5  8  2  0
  5  4  1  0
  6 47  1  0
  6  1  2  0
  7  2  2  0
  8 10  1  0
  9  5  1  0
 10  7  1  0
 11  8  1  0
 12 17  1  0
 13 14  1  0
 13 12  1  0
 15 14  1  0
 15 22  1  0
 15 16  1  0
 17 11  1  0
 17 16  1  0
 18 11  2  0
 19 20  2  0
 20 39  1  0
 21 20  1  0
 21 24  1  0
 22 23  1  0
 22 19  1  0
 23 21  2  0
 24 25  1  0
 25 26  2  0
 27 30  1  0
 27 26  1  0
 28 27  2  0
 29 28  1  0
 29 24  2  0
 30 31  1  0
 31 36  2  0
 31 32  1  0
 32 33  2  0
 33 34  1  0
 34 38  1  0
 35 34  2  0
 36 35  1  0
 37 36  1  0
 39 40  1  0
 40 43  1  0
 40 42  1  0
 41 39  2  0
 44 19  1  0
 44 45  1  0
 46 44  1  0
 47 49  1  0
 48 59  2  0
 49 54  1  0
 50 58  1  0
 50 60  1  0
 51 57  1  0
 51 53  1  0
 52 58  1  0
 53 52  1  0
 54 53  2  0
 55 49  2  0
 56 55  1  0
 56 51  2  0
 57 50  1  0
 58 48  1  0
 60 62  2  0
 61 60  1  0
 63 61  1  0
 64 73  2  0
 64 69  1  0
 65 61  1  0
 65 69  1  0
 66 65  1  0
 67 68  1  0
 67 66  1  0
 68 64  1  0
 69 70  2  0
 70 71  1  0
 72 71  2  0
 73 72  1  0
 74 48  1  0
 74 75  1  0
 74 84  1  0
 75 78  1  0
 76 80  1  0
 76 75  1  0
 77 76  2  0
 80 79  1  0
 82 83  1  0
 82 80  1  0
 82 81  1  0
 84 87  1  1
 84 85  1  0
 86 84  1  0
M  ISO  4   6 101   8 100  11 100  47 101
M  END
>  <TORSDO>  (54) 
F 16

>  <SCORE>  (54) 
-15.873

>  <name>  (54) 
53

>  <ligand_id>  (54) 
53

>  <original_smiles>  (54) 
[H]c1c([H])c([H])c2c(c1[H])C([H])([H])C([H])([H])C([H])([H])C2([H])N([H])C(=O)C1([H])N(C(=O)C([H])(N([H])C(=O)C([H])(N([H])C([H])([H])[H])C([H])([H])[H])C(C([H])([H])[H])(C([H])([H])[H])C([H])([H])[H])C([H])([H])c2c([H])c(Oc3c([H])c([H])c4sc(C(=O)N5C([H])([H])C([H])([H])C([H])([H])C([H])(n6nc(-c7c([H])c([H])c(Oc8c([H])c([H])c(F)c([H])c8F)c([H])c7[H])c(C(=O)N([H])[H])c6N([H])[H])C5([H])[H])c(C([H])([H])[H])c4c3[H])c([H])c([H])c2C1([H])[H]

>  <smiles>  (54) 
[H]c1c([H])c([H])c2c(c1[H])C([H])([H])C([H])([H])C([H])([H])C2([H])N([H])C(=O)C1([H])N(C(=O)C([H])(N([H])C(=O)C([H])(N([H])C([H])([H])[H])C([H])([H])[H])C(C([H])([H])[H])(C([H])([H])[H])C([H])([H])[H])C([H])([H])c2c([H])c(Oc3c([H])c([H])c4sc(C(=O)N5C([H])([H])C([H])([H])C([H])([H])C([H])(n6nc(-c7c([H])c([H])c(Oc8c([H])c([H])c(F)c([H])c8F)c([H])c7[H])c(C(=O)N([H])[H])c6N([H])[H])C5([H])[H])c(C([H])([H])[H])c4c3[H])c([H])c([H])c2C1([H])[H]

$$$$
54:0:0
     RDKit          3D

 94103  0  0  1  0  0  0  0  0999 V2000
  -28.0160  -21.9890   22.1280 C   0  0  0  0  0  3  0  0  0  0  0  0
  -28.6710  -20.8570   21.6240 C   0  0  0  0  0  3  0  0  0  0  0  0
  -29.7060  -22.2200   19.8920 C   0  0  0  0  0  3  0  0  0  0  0  0
  -28.2150  -23.2570   21.5460 C   0  0  0  0  0  0  0  0  0  0  0  0
  -29.0470  -23.3720   20.3950 C   0  0  0  0  0  0  0  0  0  0  0  0
  -29.5290  -20.9560   20.5040 C   0  0  0  0  0  0  0  0  0  0  0  0
  -27.5460  -24.4440   22.1690 C   0  0  0  0  0  0  0  0  0  0  0  0
  -29.2220  -24.6970   19.7220 C   0  0  0  0  0  0  0  0  0  0  0  0
  -27.8830  -25.8040   21.5640 C   0  0  0  0  0  2  0  0  0  0  0  0
  -28.0910  -25.6880   20.0410 C   0  0  0  0  0  3  0  0  0  0  0  0
  -26.7830  -24.3780   23.1370 O   0  0  0  0  0  0  0  0  0  0  0  0
  -30.1400  -24.9870   18.9460 O   0  0  0  0  0  0  0  0  0  0  0  0
  -30.1850  -19.8330   19.9720 N   0  0  0  0  0  0  0  0  0  0  0  0
  -30.9120  -20.0020   19.2810 H   0  0  0  0  0  0  0  0  0  0  0  0
  -30.3170  -18.6300   20.7900 C   0  0  0  0  0  2  0  0  0  0  0  0
  -30.7120  -17.3980   19.9700 C   0  0  0  0  0  2  0  0  0  0  0  0
  -30.6280  -16.1180   20.8350 C   0  0  0  0  0  2  0  0  0  0  0  0
  -31.2020  -14.8850   20.1150 C   0  0  0  0  0  0  0  0  0  0  0  0
  -30.8320  -12.7220   19.0030 C   0  0  0  0  0  2  0  0  0  0  0  0
  -29.8680  -12.9480   17.8200 C   0  0  0  0  0  2  0  0  0  0  0  0
  -28.4020  -12.8180   18.2820 C   0  0  0  0  0  2  0  0  0  0  0  0
  -28.1050  -13.6690   19.5470 C   0  0  0  0  0  3  0  0  0  0  0  0
  -29.1880  -13.4500   20.6260 C   0  0  0  0  0  2  0  0  0  0  0  0
  -30.5040  -13.7230   20.0260 N   0  0  0  0  0  0  0  0  0  0  0  0
  -32.2910  -15.0360   19.5540 O   0  0  0  0  0  0  0  0  0  0  0  0
  -25.7600  -14.2970   20.3990 C   0  0  0  0  0  0  0  0  0  0  0  0
  -24.6820  -13.5360   20.7600 C   0  0  0  0  0  0  0  0  0  0  0  0
  -25.0970  -12.1760   20.6210 C   0  0  0  0  0  0  0  0  0  0  0  0
  -26.7650  -13.4050   20.0650 N   0  0  0  0  0  0  0  0  0  0  0  0
  -26.3710  -12.1190   20.2550 N   0  0  0  0  0  0  0  0  0  0  0  0
  -24.3380  -10.9270   20.7620 C   0  0  0  0  0  0  0  0  0  0  0  0
  -24.7320   -9.9160   21.6680 C   0  0  0  0  0  3  0  0  0  0  0  0
  -23.9720   -8.7350   21.7980 C   0  0  0  0  0  3  0  0  0  0  0  0
  -22.8030   -8.5540   21.0200 C   0  0  0  0  0  0  0  0  0  0  0  0
  -22.4260   -9.5520   20.1060 C   0  0  0  0  0  3  0  0  0  0  0  0
  -23.1870  -10.7260   19.9740 C   0  0  0  0  0  3  0  0  0  0  0  0
  -22.0190   -7.4260   21.0590 O   0  0  0  0  0  0  0  0  0  0  0  0
  -21.8750   -6.6890   22.2070 C   0  0  0  0  0  0  0  0  0  0  0  0
  -21.3630   -7.2550   23.3940 C   0  0  0  0  0  3  0  0  0  0  0  0
  -21.1580   -6.4470   24.5300 C   0  0  0  0  0  3  0  0  0  0  0  0
  -21.4650   -5.0730   24.4790 C   0  0  0  0  0  0  0  0  0  0  0  0
  -21.9740   -4.5060   23.2980 C   0  0  0  0  0  3  0  0  0  0  0  0
  -22.1740   -5.3120   22.1630 C   0  0  0  0  0  0  0  0  0  0  0  0
  -22.6440   -4.7580   21.0200 F   0  0  0  0  0  0  0  0  0  0  0  0
  -21.2640   -4.2930   25.5690 F   0  0  0  0  0  0  0  0  0  0  0  0
  -23.3160  -14.0390   21.1270 C   0  0  0  0  0  0  0  0  0  0  0  0
  -22.6060  -13.3170   21.9840 N   0  0  0  0  0  0  0  0  0  0  0  0
  -22.8920  -15.1070   20.6900 O   0  0  0  0  0  0  0  0  0  0  0  0
  -22.9610  -12.4500   22.3590 H   0  0  0  0  0  0  0  0  0  0  0  0
  -21.6930  -13.6450   22.2730 H   0  0  0  0  0  0  0  0  0  0  0  0
  -25.9590  -15.6710   20.3110 N   0  0  0  0  0  0  0  0  0  0  0  0
  -25.2090  -16.3300   20.4770 H   0  0  0  0  0  0  0  0  0  0  0  0
  -26.8160  -16.1180   20.0170 H   0  0  0  0  0  0  0  0  0  0  0  0
  -28.2720  -26.9820   19.4240 O   0  0  0  0  0  0  0  0  0  0  0  0
  -24.6670  -31.8530   23.1310 C   0  0  0  0  0  0  0  0  0  0  0  0
  -27.1330  -27.7520   19.4990 C   0  0  0  0  0  0  0  0  0  0  0  0
  -23.3680  -30.6030   21.4390 C   0  0  0  0  0  3  0  0  0  0  0  0
  -24.7400  -29.2220   19.7930 C   0  0  0  0  0  0  0  0  0  0  0  0
  -25.8780  -31.0000   21.1290 C   0  0  0  0  0  2  0  0  0  0  0  0
  -25.9300  -29.7000   20.3560 C   0  0  0  0  0  0  0  0  0  0  0  0
  -27.1340  -28.9720   20.2090 C   0  0  0  0  0  3  0  0  0  0  0  0
  -25.9280  -27.3020   18.9090 C   0  0  0  0  0  3  0  0  0  0  0  0
  -24.7320  -28.0210   19.0680 C   0  0  0  0  0  3  0  0  0  0  0  0
  -23.4960  -30.0600   19.9910 C   0  0  0  0  0  2  0  0  0  0  0  0
  -24.6600  -31.1600   21.9590 N   0  0  0  0  0  0  0  0  0  0  0  0
  -23.6200  -32.0710   23.7560 O   0  0  0  0  0  0  0  0  0  0  0  0
  -22.7780  -29.4910   22.3330 C   0  0  0  0  0  0  0  0  0  0  0  0
  -21.4520  -29.2920   22.2410 N   0  0  0  0  0  0  0  0  0  0  0  0
  -23.5050  -28.8100   23.0630 O   0  0  0  0  0  0  0  0  0  0  0  0
  -20.9270  -29.9030   21.6330 H   0  0  0  0  0  0  0  0  0  0  0  0
  -18.1260  -27.9770   22.7520 C   0  0  0  0  0  0  0  0  0  0  0  0
  -20.6860  -28.2710   22.9520 C   0  0  0  0  0  3  0  0  0  0  0  0
  -20.8020  -26.8990   22.2470 C   0  0  0  0  0  2  0  0  0  0  0  0
  -19.6620  -26.6190   21.2630 C   0  0  0  0  0  2  0  0  0  0  0  0
  -18.3070  -26.6820   21.9720 C   0  0  0  0  0  2  0  0  0  0  0  0
  -19.2450  -28.7260   23.2020 C   0  0  0  0  0  0  0  0  0  0  0  0
  -19.0240  -29.9330   23.8990 C   0  0  0  0  0  3  0  0  0  0  0  0
  -17.7160  -30.3930   24.1450 C   0  0  0  0  0  3  0  0  0  0  0  0
  -16.6120  -29.6410   23.7070 C   0  0  0  0  0  3  0  0  0  0  0  0
  -16.8190  -28.4310   23.0180 C   0  0  0  0  0  3  0  0  0  0  0  0
  -25.9890  -32.4320   23.7290 C   0  0  0  0  0  3  0  0  0  0  0  0
  -26.5560  -31.5750   24.9270 C   0  0  1  0  0  0  0  0  0  0  0  0
  -25.5100  -31.2800   26.0260 C   0  0  0  0  0  1  0  0  0  0  0  0
  -27.1040  -30.2210   24.4170 C   0  0  0  0  0  1  0  0  0  0  0  0
  -27.7450  -32.3140   25.5850 C   0  0  0  0  0  1  0  0  0  0  0  0
  -25.7110  -33.8080   24.1620 N   0  0  0  0  0  0  0  0  0  0  0  0
  -26.0270  -34.9030   23.4590 C   0  0  0  0  0  0  0  0  0  0  0  0
  -26.6590  -34.8620   22.4000 O   0  0  0  0  0  0  0  0  0  0  0  0
  -25.1510  -33.9130   24.9950 H   0  0  0  0  0  0  0  0  0  0  0  0
  -24.3080  -36.7290   23.2780 C   0  0  0  0  0  1  0  0  0  0  0  0
  -25.5690  -36.2620   24.0220 C   0  0  0  0  0  3  0  0  0  0  0  0
  -27.7350  -37.0720   24.8440 C   0  0  0  0  0  1  0  0  0  0  0  0
  -26.6090  -37.3100   23.9460 N   0  0  0  0  0  0  0  0  0  0  0  0
  -26.2180  -38.2220   24.1650 H   0  0  0  0  0  0  0  0  0  0  0  0
  2  1  1  0
  3  5  2  0
  3  6  1  0
  4  1  2  0
  4  7  1  0
  5  4  1  0
  6  2  2  0
  7 11  2  0
  8 10  1  0
  8  5  1  0
  9  7  1  0
 10 54  1  0
 10  9  1  0
 12  8  2  0
 13  6  1  0
 13 15  1  0
 14 13  1  0
 16 15  1  0
 16 17  1  0
 18 17  1  0
 19 24  1  0
 20 21  1  0
 20 19  1  0
 22 21  1  0
 22 29  1  0
 22 23  1  0
 24 18  1  0
 24 23  1  0
 25 18  2  0
 26 27  2  0
 27 46  1  0
 28 27  1  0
 28 31  1  0
 29 30  1  0
 29 26  1  0
 30 28  2  0
 31 32  1  0
 32 33  2  0
 34 37  1  0
 34 33  1  0
 35 34  2  0
 36 35  1  0
 36 31  2  0
 37 38  1  0
 38 39  1  0
 39 40  2  0
 41 40  1  0
 41 45  1  0
 42 41  2  0
 43 38  2  0
 43 42  1  0
 44 43  1  0
 46 47  1  0
 47 50  1  0
 47 49  1  0
 48 46  2  0
 51 26  1  0
 51 52  1  0
 53 51  1  0
 54 56  1  0
 55 66  2  0
 56 61  1  0
 57 65  1  0
 57 67  1  0
 58 64  1  0
 58 60  1  0
 59 65  1  0
 60 59  1  0
 61 60  2  0
 62 63  1  0
 62 56  2  0
 63 58  2  0
 64 57  1  0
 65 55  1  0
 67 69  2  0
 68 67  1  0
 70 68  1  0
 71 80  2  0
 71 76  1  0
 72 68  1  0
 72 76  1  0
 73 72  1  0
 74 75  1  0
 74 73  1  0
 75 71  1  0
 76 77  2  0
 77 78  1  0
 79 78  2  0
 80 79  1  0
 81 55  1  0
 81 86  1  0
 81 82  1  0
 82 85  1  1
 82 83  1  0
 84 82  1  0
 86 89  1  0
 87 91  1  0
 87 86  1  0
 88 87  2  0
 91 90  1  0
 93 91  1  0
 93 94  1  0
 93 92  1  0
M  ISO  4  10 101  17 100  18 100  54 101
M  END
>  <TORSDO>  (55) 
F 20

>  <SCORE>  (55) 
-11.429

>  <name>  (55) 
54

>  <ligand_id>  (55) 
54

>  <original_smiles>  (55) 
[H]c1c([H])c([H])c2c(c1[H])C([H])([H])C([H])([H])C([H])([H])C2([H])N([H])C(=O)C1([H])N(C(=O)C([H])(N([H])C(=O)C([H])(N([H])C([H])([H])[H])C([H])([H])[H])C(C([H])([H])[H])(C([H])([H])[H])C([H])([H])[H])C([H])([H])c2c([H])c(OC3([H])C(=O)c4c([H])c(N([H])C([H])([H])C([H])([H])C([H])([H])C(=O)N5C([H])([H])C([H])([H])C([H])([H])C([H])(n6nc(-c7c([H])c([H])c(Oc8c([H])c([H])c(F)c([H])c8F)c([H])c7[H])c(C(=O)N([H])[H])c6N([H])[H])C5([H])[H])c([H])c([H])c4C(=O)C3([H])[H])c([H])c([H])c2C1([H])[H]

>  <smiles>  (55) 
[H]c1c([H])c([H])c2c(c1[H])C([H])([H])C([H])([H])C([H])([H])C2([H])N([H])C(=O)C1([H])N(C(=O)C([H])(N([H])C(=O)C([H])(N([H])C([H])([H])[H])C([H])([H])[H])C(C([H])([H])[H])(C([H])([H])[H])C([H])([H])[H])C([H])([H])c2c([H])c(OC3([H])C(=O)c4c([H])c(N([H])C([H])([H])C([H])([H])C([H])([H])C(=O)N5C([H])([H])C([H])([H])C([H])([H])C([H])(n6nc(-c7c([H])c([H])c(Oc8c([H])c([H])c(F)c([H])c8F)c([H])c7[H])c(C(=O)N([H])[H])c6N([H])[H])C5([H])[H])c([H])c([H])c4C(=O)C3([H])[H])c([H])c([H])c2C1([H])[H]

$$$$
55:0:0
     RDKit          3D

 88 97  0  0  1  0  0  0  0  0999 V2000
  -29.7060  -21.6700   19.4860 C   0  0  0  0  0  3  0  0  0  0  0  0
  -29.4800  -20.1340   19.7400 C   0  0  0  0  0  0  0  0  0  0  0  0
  -28.2210  -20.0280   20.2350 C   0  0  0  0  0  0  0  0  0  0  0  0
  -28.7160  -22.7210   19.7930 C   0  0  0  0  0  0  0  0  0  0  0  0
  -30.2890  -18.6420   19.5210 C   0  0  0  0  0  2  0  0  0  0  0  0
  -27.5860  -18.6620   20.5540 C   0  0  0  0  0  2  0  0  0  0  0  0
  -28.2110  -17.3120   19.9400 C   0  0  0  0  0  2  0  0  0  0  0  0
  -29.7590  -17.0640   20.0840 C   0  0  2  0  0  0  0  0  0  0  0  0
  -30.0730  -17.1130   21.5970 C   0  0  0  0  0  1  0  0  0  0  0  0
  -27.4200  -21.6540   20.4410 S   0  0  0  0  0  0  0  0  0  0  0  0
  -30.4090  -15.4360   19.6950 C   0  0  0  0  0  0  0  0  0  0  0  0
  -30.4060  -12.9320   18.9330 C   0  0  0  0  0  2  0  0  0  0  0  0
  -29.4220  -12.6390   17.7700 C   0  0  0  0  0  2  0  0  0  0  0  0
  -28.0140  -12.3360   18.3100 C   0  0  0  0  0  2  0  0  0  0  0  0
  -27.6040  -13.3310   19.4230 C   0  0  0  0  0  3  0  0  0  0  0  0
  -28.7150  -13.5650   20.4700 C   0  0  0  0  0  2  0  0  0  0  0  0
  -29.8880  -14.0990   19.7540 N   0  0  0  0  0  0  0  0  0  0  0  0
  -31.5790  -15.4040   19.2790 O   0  0  0  0  0  0  0  0  0  0  0  0
  -25.3080  -13.8540   20.3970 C   0  0  0  0  0  0  0  0  0  0  0  0
  -24.2790  -13.0640   20.8260 C   0  0  0  0  0  0  0  0  0  0  0  0
  -24.7350  -11.7160   20.6970 C   0  0  0  0  0  0  0  0  0  0  0  0
  -26.3240  -12.9910   20.0300 N   0  0  0  0  0  0  0  0  0  0  0  0
  -25.9970  -11.6930   20.2760 N   0  0  0  0  0  0  0  0  0  0  0  0
  -24.0180  -10.4480   20.8950 C   0  0  0  0  0  0  0  0  0  0  0  0
  -24.4640   -9.4810   21.8240 C   0  0  0  0  0  3  0  0  0  0  0  0
  -23.7420   -8.2840   22.0110 C   0  0  0  0  0  3  0  0  0  0  0  0
  -22.5600   -8.0420   21.2700 C   0  0  0  0  0  0  0  0  0  0  0  0
  -22.1330   -8.9970   20.3310 C   0  0  0  0  0  3  0  0  0  0  0  0
  -22.8550  -10.1870   20.1420 C   0  0  0  0  0  3  0  0  0  0  0  0
  -21.8090   -6.8960   21.3680 O   0  0  0  0  0  0  0  0  0  0  0  0
  -21.6940   -6.2080   22.5500 C   0  0  0  0  0  0  0  0  0  0  0  0
  -21.1650   -6.8090   23.7130 C   0  0  0  0  0  3  0  0  0  0  0  0
  -21.0000   -6.0460   24.8860 C   0  0  0  0  0  3  0  0  0  0  0  0
  -21.3540   -4.6840   24.8970 C   0  0  0  0  0  0  0  0  0  0  0  0
  -21.8770   -4.0830   23.7390 C   0  0  0  0  0  3  0  0  0  0  0  0
  -22.0430   -4.8430   22.5680 C   0  0  0  0  0  0  0  0  0  0  0  0
  -22.5270   -4.2530   21.4480 F   0  0  0  0  0  0  0  0  0  0  0  0
  -21.1900   -3.9490   26.0220 F   0  0  0  0  0  0  0  0  0  0  0  0
  -22.9130  -13.5330   21.2310 C   0  0  0  0  0  0  0  0  0  0  0  0
  -22.2620  -12.8140   22.1360 N   0  0  0  0  0  0  0  0  0  0  0  0
  -22.4370  -14.5750   20.7800 O   0  0  0  0  0  0  0  0  0  0  0  0
  -22.6620  -11.9720   22.5220 H   0  0  0  0  0  0  0  0  0  0  0  0
  -21.3490  -13.1100   22.4520 H   0  0  0  0  0  0  0  0  0  0  0  0
  -25.4550  -15.2290   20.2590 N   0  0  0  0  0  0  0  0  0  0  0  0
  -24.6970  -15.8740   20.4560 H   0  0  0  0  0  0  0  0  0  0  0  0
  -26.2640  -15.6800   19.8540 H   0  0  0  0  0  0  0  0  0  0  0  0
  -28.3270  -24.3880   19.3210 C   0  0  0  0  0  2  0  0  0  0  0  0
  -28.4100  -25.8920   20.0270 O   0  0  0  0  0  0  0  0  0  0  0  0
  -24.6040  -31.6720   23.1270 C   0  0  0  0  0  0  0  0  0  0  0  0
  -27.3990  -27.0060   19.9370 C   0  0  0  0  0  0  0  0  0  0  0  0
  -23.4960  -30.3060   21.4060 C   0  0  0  0  0  3  0  0  0  0  0  0
  -25.0330  -28.8280   19.9340 C   0  0  0  0  0  0  0  0  0  0  0  0
  -26.0570  -30.6120   21.3230 C   0  0  0  0  0  2  0  0  0  0  0  0
  -26.1930  -29.2340   20.6040 C   0  0  0  0  0  0  0  0  0  0  0  0
  -27.3640  -28.3430   20.5900 C   0  0  0  0  0  3  0  0  0  0  0  0
  -26.2110  -26.7810   19.2010 C   0  0  0  0  0  3  0  0  0  0  0  0
  -25.0700  -27.6250   19.2130 C   0  0  0  0  0  3  0  0  0  0  0  0
  -23.7770  -29.6980   20.0040 C   0  0  0  0  0  2  0  0  0  0  0  0
  -24.7390  -30.8900   22.0070 N   0  0  0  0  0  0  0  0  0  0  0  0
  -23.4940  -31.8970   23.6390 O   0  0  0  0  0  0  0  0  0  0  0  0
  -22.8250  -29.2410   22.3150 C   0  0  0  0  0  0  0  0  0  0  0  0
  -21.5010  -29.0420   22.1710 N   0  0  0  0  0  0  0  0  0  0  0  0
  -23.5030  -28.5970   23.1190 O   0  0  0  0  0  0  0  0  0  0  0  0
  -21.0040  -29.6150   21.5040 H   0  0  0  0  0  0  0  0  0  0  0  0
  -18.1480  -27.7290   22.6260 C   0  0  0  0  0  0  0  0  0  0  0  0
  -20.7040  -28.0400   22.8880 C   0  0  0  0  0  3  0  0  0  0  0  0
  -20.8330  -26.6490   22.2250 C   0  0  0  0  0  2  0  0  0  0  0  0
  -19.7310  -26.3630   21.2000 C   0  0  0  0  0  2  0  0  0  0  0  0
  -18.3510  -26.4320   21.8610 C   0  0  0  0  0  2  0  0  0  0  0  0
  -19.2510  -28.4920   23.0950 C   0  0  0  0  0  0  0  0  0  0  0  0
  -19.0040  -29.7040   23.7730 C   0  0  0  0  0  3  0  0  0  0  0  0
  -17.6880  -30.1560   23.9860 C   0  0  0  0  0  3  0  0  0  0  0  0
  -16.6000  -29.3910   23.5320 C   0  0  0  0  0  3  0  0  0  0  0  0
  -16.8310  -28.1790   22.8590 C   0  0  0  0  0  3  0  0  0  0  0  0
  -25.8360  -32.3380   23.8110 C   0  0  0  0  0  3  0  0  0  0  0  0
  -25.4710  -33.7250   24.1540 N   0  0  0  0  0  0  0  0  0  0  0  0
  -25.7790  -34.8040   23.4230 C   0  0  0  0  0  0  0  0  0  0  0  0
  -26.4620  -34.7400   22.3970 O   0  0  0  0  0  0  0  0  0  0  0  0
  -24.8650  -33.8460   24.9520 H   0  0  0  0  0  0  0  0  0  0  0  0
  -23.9940  -36.5520   23.1030 C   0  0  0  0  0  1  0  0  0  0  0  0
  -25.2500  -36.1720   23.9030 C   0  0  0  0  0  3  0  0  0  0  0  0
  -27.3510  -37.1240   24.7480 C   0  0  0  0  0  1  0  0  0  0  0  0
  -26.2470  -37.2600   23.8010 N   0  0  0  0  0  0  0  0  0  0  0  0
  -25.8110  -38.1660   23.9520 H   0  0  0  0  0  0  0  0  0  0  0  0
  -26.3150  -31.5700   25.1050 C   0  0  1  0  0  0  0  0  0  0  0  0
  -25.1830  -31.2990   26.1250 C   0  0  0  0  0  1  0  0  0  0  0  0
  -26.9460  -30.2080   24.7390 C   0  0  0  0  0  1  0  0  0  0  0  0
  -27.4190  -32.3860   25.8200 C   0  0  0  0  0  1  0  0  0  0  0  0
  1  2  1  0
  1  4  2  0
  2  3  2  0
  3 10  1  0
  3  6  1  0
  4 10  1  0
  5  2  1  0
  5  8  1  0
  7  8  1  0
  7  6  1  0
  8  9  1  1
 11 17  1  0
 11  8  1  0
 12 17  1  0
 13 14  1  0
 13 12  1  0
 15 14  1  0
 15 22  1  0
 15 16  1  0
 17 16  1  0
 18 11  2  0
 19 20  2  0
 20 39  1  0
 21 20  1  0
 21 24  1  0
 22 23  1  0
 22 19  1  0
 23 21  2  0
 24 25  1  0
 25 26  2  0
 27 30  1  0
 27 26  1  0
 28 27  2  0
 29 28  1  0
 29 24  2  0
 30 31  1  0
 31 36  2  0
 31 32  1  0
 32 33  2  0
 33 34  1  0
 34 38  1  0
 35 34  2  0
 36 35  1  0
 37 36  1  0
 39 40  1  0
 40 43  1  0
 40 42  1  0
 41 39  2  0
 44 19  1  0
 44 45  1  0
 46 44  1  0
 47  4  1  0
 47 48  1  0
 49 60  2  0
 50 48  1  0
 50 55  1  0
 51 59  1  0
 51 61  1  0
 52 58  1  0
 52 54  1  0
 53 59  1  0
 54 53  1  0
 55 54  2  0
 56 57  1  0
 56 50  2  0
 57 52  2  0
 58 51  1  0
 59 49  1  0
 61 63  2  0
 62 61  1  0
 64 62  1  0
 65 74  2  0
 65 70  1  0
 66 62  1  0
 66 70  1  0
 67 66  1  0
 68 69  1  0
 68 67  1  0
 69 65  1  0
 70 71  2  0
 71 72  1  0
 73 72  2  0
 74 73  1  0
 75 49  1  0
 75 76  1  0
 75 85  1  0
 76 79  1  0
 77 81  1  0
 77 76  1  0
 78 77  2  0
 81 80  1  0
 83 81  1  0
 83 84  1  0
 83 82  1  0
 85 88  1  1
 85 86  1  0
 87 85  1  0
M  ISO  4   8 100  11 100  47 101  48 101
M  END
>  <TORSDO>  (56) 
F 17

>  <SCORE>  (56) 
-15.880

>  <name>  (56) 
55

>  <ligand_id>  (56) 
55

>  <original_smiles>  (56) 
[H]c1c([H])c([H])c2c(c1[H])C([H])([H])C([H])([H])C([H])([H])C2([H])N([H])C(=O)C1([H])N(C(=O)C([H])(N([H])C(=O)C([H])(N([H])C([H])([H])[H])C([H])([H])[H])C(C([H])([H])[H])(C([H])([H])[H])C([H])([H])[H])C([H])([H])c2c([H])c(OC([H])([H])c3sc4c(c3[H])C([H])([H])C(C(=O)N3C([H])([H])C([H])([H])C([H])([H])C([H])(n5nc(-c6c([H])c([H])c(Oc7c([H])c([H])c(F)c([H])c7F)c([H])c6[H])c(C(=O)N([H])[H])c5N([H])[H])C3([H])[H])(C([H])([H])[H])C([H])([H])C4([H])[H])c([H])c([H])c2C1([H])[H]

>  <smiles>  (56) 
[H]c1c([H])c([H])c2c(c1[H])C([H])([H])C([H])([H])C([H])([H])C2([H])N([H])C(=O)C1([H])N(C(=O)C([H])(N([H])C(=O)C([H])(N([H])C([H])([H])[H])C([H])([H])[H])C(C([H])([H])[H])(C([H])([H])[H])C([H])([H])[H])C([H])([H])c2c([H])c(OC([H])([H])c3sc4c(c3[H])C([H])([H])C(C(=O)N3C([H])([H])C([H])([H])C([H])([H])C([H])(n5nc(-c6c([H])c([H])c(Oc7c([H])c([H])c(F)c([H])c7F)c([H])c6[H])c(C(=O)N([H])[H])c5N([H])[H])C3([H])[H])(C([H])([H])[H])C([H])([H])C4([H])[H])c([H])c([H])c2C1([H])[H]

$$$$
56:0:0
     RDKit          3D

 91 99  0  0  1  0  0  0  0  0999 V2000
  -28.3320  -22.5730   21.3510 C   0  0  0  0  0  3  0  0  0  0  0  0
  -28.0130  -23.9960   21.3070 C   0  0  0  0  0  3  0  0  0  0  0  0
  -29.2610  -22.7230   19.1880 C   0  0  0  0  0  3  0  0  0  0  0  0
  -29.0060  -21.8550   20.3020 C   0  0  0  0  0  0  0  0  0  0  0  0
  -28.3340  -24.8720   20.2140 C   0  0  0  0  0  0  0  0  0  0  0  0
  -28.9580  -24.1410   19.1490 C   0  0  0  0  0  0  0  0  0  0  0  0
  -29.3550  -24.8500   18.0540 O   0  0  0  0  0  0  0  0  0  0  0  0
  -29.1580  -25.7760   18.1620 H   0  0  0  0  0  0  0  0  0  0  0  0
  -28.3050  -26.3350   20.2310 O   0  0  0  0  0  0  0  0  0  0  0  0
  -24.6270  -31.9300   23.2410 C   0  0  0  0  0  0  0  0  0  0  0  0
  -27.1870  -27.2260   20.2290 C   0  0  0  0  0  0  0  0  0  0  0  0
  -23.4140  -30.5280   21.6120 C   0  0  0  0  0  3  0  0  0  0  0  0
  -24.8500  -28.9360   20.1950 C   0  0  0  0  0  0  0  0  0  0  0  0
  -25.9620  -30.7970   21.4300 C   0  0  0  0  0  2  0  0  0  0  0  0
  -26.0270  -29.4000   20.7940 C   0  0  0  0  0  0  0  0  0  0  0  0
  -27.1940  -28.5580   20.7950 C   0  0  0  0  0  3  0  0  0  0  0  0
  -25.9860  -26.8420   19.5990 C   0  0  0  0  0  3  0  0  0  0  0  0
  -24.8380  -27.6690   19.5850 C   0  0  0  0  0  3  0  0  0  0  0  0
  -23.6250  -29.8360   20.2380 C   0  0  0  0  0  2  0  0  0  0  0  0
  -24.6880  -31.1070   22.1500 N   0  0  0  0  0  0  0  0  0  0  0  0
  -23.5460  -32.2190   23.7750 O   0  0  0  0  0  0  0  0  0  0  0  0
  -22.7390  -29.5280   22.5850 C   0  0  0  0  0  0  0  0  0  0  0  0
  -21.4110  -29.3590   22.4630 N   0  0  0  0  0  0  0  0  0  0  0  0
  -23.4130  -28.9070   23.4110 O   0  0  0  0  0  0  0  0  0  0  0  0
  -20.9250  -29.9110   21.7700 H   0  0  0  0  0  0  0  0  0  0  0  0
  -18.0300  -28.1750   22.9810 C   0  0  0  0  0  0  0  0  0  0  0  0
  -20.5910  -28.4290   23.2420 C   0  0  0  0  0  3  0  0  0  0  0  0
  -20.6860  -26.9940   22.6750 C   0  0  0  0  0  2  0  0  0  0  0  0
  -19.5810  -26.6690   21.6660 C   0  0  0  0  0  2  0  0  0  0  0  0
  -18.2010  -26.8210   22.3130 C   0  0  0  0  0  2  0  0  0  0  0  0
  -19.1520  -28.9370   23.4030 C   0  0  0  0  0  0  0  0  0  0  0  0
  -18.9370  -30.2030   23.9910 C   0  0  0  0  0  3  0  0  0  0  0  0
  -17.6340  -30.7070   24.1580 C   0  0  0  0  0  3  0  0  0  0  0  0
  -16.5260  -29.9420   23.7520 C   0  0  0  0  0  3  0  0  0  0  0  0
  -16.7250  -28.6780   23.1690 C   0  0  0  0  0  3  0  0  0  0  0  0
  -25.9120  -32.5630   23.8590 C   0  0  0  0  0  3  0  0  0  0  0  0
  -26.4340  -31.7910   25.1330 C   0  0  1  0  0  0  0  0  0  0  0  0
  -25.3460  -31.5530   26.2060 C   0  0  0  0  0  1  0  0  0  0  0  0
  -27.0150  -30.4120   24.7390 C   0  0  0  0  0  1  0  0  0  0  0  0
  -27.5890  -32.5830   25.7900 C   0  0  0  0  0  1  0  0  0  0  0  0
  -25.6040  -33.9610   24.1980 N   0  0  0  0  0  0  0  0  0  0  0  0
  -25.9190  -35.0190   23.4400 C   0  0  0  0  0  0  0  0  0  0  0  0
  -26.5670  -34.9200   22.3940 O   0  0  0  0  0  0  0  0  0  0  0  0
  -25.0250  -34.1100   25.0110 H   0  0  0  0  0  0  0  0  0  0  0  0
  -24.1750  -36.8090   23.1400 C   0  0  0  0  0  1  0  0  0  0  0  0
  -25.4400  -36.4060   23.9140 C   0  0  0  0  0  3  0  0  0  0  0  0
  -27.5930  -37.3010   24.6880 C   0  0  0  0  0  1  0  0  0  0  0  0
  -26.4660  -37.4630   23.7730 N   0  0  0  0  0  0  0  0  0  0  0  0
  -26.0600  -38.3820   23.9300 H   0  0  0  0  0  0  0  0  0  0  0  0
  -29.7250  -20.3780   20.4490 C   0  0  0  0  0  3  0  0  0  0  0  0
  -29.1250  -18.8190   20.3760 C   0  0  0  0  0  3  0  0  0  0  0  0
  -30.5490  -14.9610   20.3320 C   0  0  0  0  0  0  0  0  0  0  0  0
  -30.4050  -12.6250   19.3830 C   0  0  0  0  0  2  0  0  0  0  0  0
  -29.4750  -12.6030   18.1490 C   0  0  0  0  0  2  0  0  0  0  0  0
  -28.0110  -12.3960   18.5810 C   0  0  0  0  0  2  0  0  0  0  0  0
  -27.6060  -13.3100   19.7660 C   0  0  0  0  0  3  0  0  0  0  0  0
  -28.6630  -13.3160   20.8910 C   0  0  0  0  0  2  0  0  0  0  0  0
  -29.9340  -13.7150   20.2800 N   0  0  0  0  0  0  0  0  0  0  0  0
  -31.7570  -14.9870   20.0720 O   0  0  0  0  0  0  0  0  0  0  0  0
  -30.1430  -17.5200   20.3910 C   0  0  0  0  0  0  0  0  0  0  0  0
  -29.7770  -16.1490   20.4500 N   0  0  0  0  0  0  0  0  0  0  0  0
  -31.3380  -17.8250   20.3340 O   0  0  0  0  0  0  0  0  0  0  0  0
  -28.7880  -15.9910   20.5560 H   0  0  0  0  0  0  0  0  0  0  0  0
  -25.2230  -13.8740   20.5120 C   0  0  0  0  0  0  0  0  0  0  0  0
  -24.1630  -13.0900   20.8750 C   0  0  0  0  0  0  0  0  0  0  0  0
  -24.6340  -11.7420   20.8340 C   0  0  0  0  0  0  0  0  0  0  0  0
  -26.2700  -13.0020   20.2640 N   0  0  0  0  0  0  0  0  0  0  0  0
  -25.9250  -11.7140   20.5240 N   0  0  0  0  0  0  0  0  0  0  0  0
  -23.9140  -10.4740   21.0120 C   0  0  0  0  0  0  0  0  0  0  0  0
  -24.3460   -9.5020   21.9410 C   0  0  0  0  0  3  0  0  0  0  0  0
  -23.6230   -8.3020   22.1080 C   0  0  0  0  0  3  0  0  0  0  0  0
  -22.4540   -8.0630   21.3470 C   0  0  0  0  0  0  0  0  0  0  0  0
  -22.0420   -9.0250   20.4060 C   0  0  0  0  0  3  0  0  0  0  0  0
  -22.7650  -10.2170   20.2370 C   0  0  0  0  0  3  0  0  0  0  0  0
  -21.7030   -6.9150   21.4230 O   0  0  0  0  0  0  0  0  0  0  0  0
  -21.6470   -6.1680   22.5730 C   0  0  0  0  0  0  0  0  0  0  0  0
  -21.1920   -6.7120   23.7930 C   0  0  0  0  0  3  0  0  0  0  0  0
  -21.0830   -5.8910   24.9330 C   0  0  0  0  0  3  0  0  0  0  0  0
  -21.4200   -4.5270   24.8530 C   0  0  0  0  0  0  0  0  0  0  0  0
  -21.8690   -3.9820   23.6370 C   0  0  0  0  0  3  0  0  0  0  0  0
  -21.9790   -4.8010   22.5000 C   0  0  0  0  0  0  0  0  0  0  0  0
  -22.3910   -4.2650   21.3250 F   0  0  0  0  0  0  0  0  0  0  0  0
  -21.3080   -3.7350   25.9460 F   0  0  0  0  0  0  0  0  0  0  0  0
  -22.7630  -13.5580   21.1460 C   0  0  0  0  0  0  0  0  0  0  0  0
  -22.0380  -12.8550   22.0070 N   0  0  0  0  0  0  0  0  0  0  0  0
  -22.3220  -14.5850   20.6300 O   0  0  0  0  0  0  0  0  0  0  0  0
  -22.4080  -12.0260   22.4470 H   0  0  0  0  0  0  0  0  0  0  0  0
  -21.0980  -13.1520   22.2310 H   0  0  0  0  0  0  0  0  0  0  0  0
  -25.3760  -15.2470   20.3440 N   0  0  0  0  0  0  0  0  0  0  0  0
  -24.5960  -15.8860   20.4520 H   0  0  0  0  0  0  0  0  0  0  0  0
  -26.2000  -15.6940   19.9650 H   0  0  0  0  0  0  0  0  0  0  0  0
  2  1  1  0
  3  4  1  0
  4 50  1  0
  4  1  2  0
  5  9  1  0
  5  2  2  0
  6  3  2  0
  6  5  1  0
  7  8  1  0
  7  6  1  0
 10 21  2  0
 11  9  1  0
 11 16  1  0
 12 20  1  0
 12 22  1  0
 13 19  1  0
 13 15  1  0
 14 20  1  0
 15 16  2  0
 15 14  1  0
 17 11  2  0
 18 17  1  0
 18 13  2  0
 19 12  1  0
 20 10  1  0
 22 24  2  0
 23 22  1  0
 25 23  1  0
 26 35  2  0
 26 31  1  0
 27 23  1  0
 27 31  1  0
 28 27  1  0
 29 30  1  0
 29 28  1  0
 30 26  1  0
 31 32  2  0
 32 33  1  0
 34 33  2  0
 35 34  1  0
 36 10  1  0
 36 41  1  0
 36 37  1  0
 37 40  1  1
 37 38  1  0
 39 37  1  0
 41 44  1  0
 42 46  1  0
 42 41  1  0
 43 42  2  0
 46 45  1  0
 48 46  1  0
 48 49  1  0
 48 47  1  0
 51 60  1  0
 51 50  2  0
 52 61  1  0
 53 58  1  0
 54 55  1  0
 54 53  1  0
 56 55  1  0
 56 67  1  0
 56 57  1  0
 58 52  1  0
 58 57  1  0
 59 52  2  0
 60 61  1  0
 61 63  1  0
 62 60  2  0
 64 65  2  0
 65 84  1  0
 66 65  1  0
 66 69  1  0
 67 64  1  0
 67 68  1  0
 68 66  2  0
 69 70  1  0
 70 71  2  0
 72 75  1  0
 72 71  1  0
 73 72  2  0
 74 73  1  0
 74 69  2  0
 75 76  1  0
 76 77  1  0
 77 78  2  0
 79 78  1  0
 79 83  1  0
 80 79  2  0
 81 76  2  0
 81 80  1  0
 82 81  1  0
 84 85  1  0
 85 88  1  0
 85 87  1  0
 86 84  2  0
 89 90  1  0
 89 64  1  0
 91 89  1  0
M  ISO  4   5 101   9 101  52 100  61 100
M  END
>  <TORSDO>  (57) 
F 19

>  <SCORE>  (57) 
-14.430

>  <name>  (57) 
56

>  <ligand_id>  (57) 
56

>  <original_smiles>  (57) 
[H]Oc1c([H])c(C([H])([H])C([H])([H])C(=O)N([H])C(=O)N2C([H])([H])C([H])([H])C([H])([H])C([H])(n3nc(-c4c([H])c([H])c(Oc5c([H])c([H])c(F)c([H])c5F)c([H])c4[H])c(C(=O)N([H])[H])c3N([H])[H])C2([H])[H])c([H])c([H])c1Oc1c([H])c([H])c2c(c1[H])C([H])([H])N(C(=O)C([H])(N([H])C(=O)C([H])(N([H])C([H])([H])[H])C([H])([H])[H])C(C([H])([H])[H])(C([H])([H])[H])C([H])([H])[H])C([H])(C(=O)N([H])C1([H])c3c([H])c([H])c([H])c([H])c3C([H])([H])C([H])([H])C1([H])[H])C2([H])[H]

>  <smiles>  (57) 
[H]Oc1c([H])c(C([H])([H])C([H])([H])C(=O)N([H])C(=O)N2C([H])([H])C([H])([H])C([H])([H])C([H])(n3nc(-c4c([H])c([H])c(Oc5c([H])c([H])c(F)c([H])c5F)c([H])c4[H])c(C(=O)N([H])[H])c3N([H])[H])C2([H])[H])c([H])c([H])c1Oc1c([H])c([H])c2c(c1[H])C([H])([H])N(C(=O)C([H])(N([H])C(=O)C([H])(N([H])C([H])([H])[H])C([H])([H])[H])C(C([H])([H])[H])(C([H])([H])[H])C([H])([H])[H])C([H])(C(=O)N([H])C1([H])c3c([H])c([H])c([H])c([H])c3C([H])([H])C([H])([H])C1([H])[H])C2([H])[H]

$$$$
57:0:0
     RDKit          3D

 89 98  0  0  1  0  0  0  0  0999 V2000
  -30.2340  -19.3210   21.6220 C   0  0  0  0  0  0  0  0  0  0  0  0
  -29.7950  -20.7320   22.1300 C   0  0  0  0  0  2  0  0  0  0  0  0
  -29.1780  -22.4520   19.0790 C   0  0  0  0  0  2  0  0  0  0  0  0
  -28.7560  -23.0960   21.1940 C   0  0  0  0  0  2  0  0  0  0  0  0
  -30.1650  -19.0700   20.0850 C   0  0  0  0  0  3  0  0  0  0  0  0
  -29.2870  -20.7900   19.8320 C   0  0  0  0  0  3  0  0  0  0  0  0
  -28.4220  -23.9150   19.8350 C   0  0  0  0  0  3  0  0  0  0  0  0
  -28.7830  -21.4190   21.1600 C   0  0  1  0  0  0  0  0  0  0  0  0
  -27.3580  -20.8970   21.4210 C   0  0  0  0  0  1  0  0  0  0  0  0
  -30.6170  -18.4700   22.4310 O   0  0  0  0  0  0  0  0  0  0  0  0
  -30.7000  -15.9290   19.9430 C   0  0  0  0  0  0  0  0  0  0  0  0
  -30.8230  -13.3640   19.1680 C   0  0  0  0  0  2  0  0  0  0  0  0
  -29.9000  -12.9020   18.0030 C   0  0  0  0  0  2  0  0  0  0  0  0
  -28.4980  -12.5370   18.5170 C   0  0  0  0  0  2  0  0  0  0  0  0
  -28.0090  -13.5440   19.5810 C   0  0  0  0  0  3  0  0  0  0  0  0
  -29.0750  -13.9090   20.6420 C   0  0  0  0  0  2  0  0  0  0  0  0
  -30.1960  -14.5520   19.9130 N   0  0  0  0  0  0  0  0  0  0  0  0
  -31.9340  -15.8730   19.7690 O   0  0  0  0  0  0  0  0  0  0  0  0
  -29.9320  -17.2950   19.9750 N   0  0  0  0  0  0  0  0  0  0  0  0
  -28.9450  -17.0900   20.0220 H   0  0  0  0  0  0  0  0  0  0  0  0
  -25.6970  -14.0400   20.5040 C   0  0  0  0  0  0  0  0  0  0  0  0
  -24.6590  -13.2450   20.8970 C   0  0  0  0  0  0  0  0  0  0  0  0
  -25.1240  -11.8990   20.7790 C   0  0  0  0  0  0  0  0  0  0  0  0
  -26.7250  -13.1810   20.1620 N   0  0  0  0  0  0  0  0  0  0  0  0
  -26.3990  -11.8810   20.3950 N   0  0  0  0  0  0  0  0  0  0  0  0
  -24.4010  -10.6300   20.9510 C   0  0  0  0  0  0  0  0  0  0  0  0
  -24.8070   -9.6730   21.9070 C   0  0  0  0  0  3  0  0  0  0  0  0
  -24.0820   -8.4720   22.0690 C   0  0  0  0  0  3  0  0  0  0  0  0
  -22.9360   -8.2200   21.2770 C   0  0  0  0  0  0  0  0  0  0  0  0
  -22.5500   -9.1670   20.3120 C   0  0  0  0  0  3  0  0  0  0  0  0
  -23.2750  -10.3580   20.1470 C   0  0  0  0  0  3  0  0  0  0  0  0
  -22.1860   -7.0710   21.3490 O   0  0  0  0  0  0  0  0  0  0  0  0
  -21.9870   -6.4140   22.5370 C   0  0  0  0  0  0  0  0  0  0  0  0
  -21.3750   -7.0420   23.6430 C   0  0  0  0  0  3  0  0  0  0  0  0
  -21.1270   -6.3090   24.8210 C   0  0  0  0  0  3  0  0  0  0  0  0
  -21.4790   -4.9490   24.8920 C   0  0  0  0  0  0  0  0  0  0  0  0
  -22.0840   -4.3190   23.7890 C   0  0  0  0  0  3  0  0  0  0  0  0
  -22.3350   -5.0500   22.6140 C   0  0  0  0  0  0  0  0  0  0  0  0
  -22.8970   -4.4330   21.5480 F   0  0  0  0  0  0  0  0  0  0  0  0
  -21.2350   -4.2410   26.0200 F   0  0  0  0  0  0  0  0  0  0  0  0
  -23.2790  -13.7110   21.2520 C   0  0  0  0  0  0  0  0  0  0  0  0
  -22.5930  -12.9860   22.1280 N   0  0  0  0  0  0  0  0  0  0  0  0
  -22.8220  -14.7560   20.7900 O   0  0  0  0  0  0  0  0  0  0  0  0
  -22.9780  -12.1430   22.5260 H   0  0  0  0  0  0  0  0  0  0  0  0
  -21.6670  -13.2790   22.4030 H   0  0  0  0  0  0  0  0  0  0  0  0
  -25.8460  -15.4170   20.3750 N   0  0  0  0  0  0  0  0  0  0  0  0
  -25.0730  -16.0510   20.5490 H   0  0  0  0  0  0  0  0  0  0  0  0
  -26.6480  -15.8750   19.9650 H   0  0  0  0  0  0  0  0  0  0  0  0
  -28.5150  -25.6960   19.7560 O   0  0  0  0  0  0  0  0  0  0  0  0
  -25.0190  -31.7430   23.2550 C   0  0  0  0  0  0  0  0  0  0  0  0
  -27.5290  -26.9060   19.8440 C   0  0  0  0  0  0  0  0  0  0  0  0
  -23.8290  -30.4960   21.5020 C   0  0  0  0  0  3  0  0  0  0  0  0
  -25.2720  -28.9620   19.9600 C   0  0  0  0  0  0  0  0  0  0  0  0
  -26.4110  -30.6310   21.3990 C   0  0  0  0  0  2  0  0  0  0  0  0
  -26.4700  -29.2560   20.6200 C   0  0  0  0  0  0  0  0  0  0  0  0
  -27.5850  -28.2630   20.5260 C   0  0  0  0  0  3  0  0  0  0  0  0
  -26.2940  -26.8310   19.1500 C   0  0  0  0  0  3  0  0  0  0  0  0
  -25.2240  -27.7780   19.2030 C   0  0  0  0  0  3  0  0  0  0  0  0
  -24.0700  -29.9140   20.0790 C   0  0  0  0  0  2  0  0  0  0  0  0
  -25.1110  -30.9850   22.1070 N   0  0  0  0  0  0  0  0  0  0  0  0
  -23.9250  -32.0020   23.7870 O   0  0  0  0  0  0  0  0  0  0  0  0
  -23.1050  -29.4430   22.3860 C   0  0  0  0  0  0  0  0  0  0  0  0
  -21.7730  -29.3000   22.2390 N   0  0  0  0  0  0  0  0  0  0  0  0
  -23.7540  -28.7550   23.1770 O   0  0  0  0  0  0  0  0  0  0  0  0
  -21.3000  -29.9050   21.5820 H   0  0  0  0  0  0  0  0  0  0  0  0
  -18.3740  -28.0900   22.6770 C   0  0  0  0  0  0  0  0  0  0  0  0
  -20.9410  -28.3040   22.9270 C   0  0  0  0  0  3  0  0  0  0  0  0
  -21.0150  -26.9330   22.2140 C   0  0  0  0  0  2  0  0  0  0  0  0
  -19.8960  -26.7250   21.1880 C   0  0  0  0  0  2  0  0  0  0  0  0
  -18.5260  -26.8170   21.8630 C   0  0  0  0  0  2  0  0  0  0  0  0
  -19.5070  -28.7970   23.1630 C   0  0  0  0  0  0  0  0  0  0  0  0
  -19.3050  -29.9900   23.8910 C   0  0  0  0  0  3  0  0  0  0  0  0
  -18.0060  -30.4760   24.1320 C   0  0  0  0  0  3  0  0  0  0  0  0
  -16.8890  -29.7660   23.6590 C   0  0  0  0  0  3  0  0  0  0  0  0
  -17.0750  -28.5730   22.9370 C   0  0  0  0  0  3  0  0  0  0  0  0
  -26.2800  -32.3340   23.9550 C   0  0  0  0  0  3  0  0  0  0  0  0
  -25.9540  -33.6920   24.4310 N   0  0  0  0  0  0  0  0  0  0  0  0
  -26.2430  -34.8280   23.7830 C   0  0  0  0  0  0  0  0  0  0  0  0
  -26.8690  -34.8430   22.7200 O   0  0  0  0  0  0  0  0  0  0  0  0
  -25.3890  -33.7500   25.2650 H   0  0  0  0  0  0  0  0  0  0  0  0
  -24.4650  -36.6140   23.7260 C   0  0  0  0  0  1  0  0  0  0  0  0
  -25.7660  -36.1590   24.4060 C   0  0  0  0  0  3  0  0  0  0  0  0
  -27.9280  -37.0250   25.1910 C   0  0  0  0  0  1  0  0  0  0  0  0
  -26.7720  -37.2420   24.3240 N   0  0  0  0  0  0  0  0  0  0  0  0
  -26.3590  -38.1390   24.5610 H   0  0  0  0  0  0  0  0  0  0  0  0
  -26.7830  -31.4530   25.1660 C   0  0  1  0  0  0  0  0  0  0  0  0
  -25.6800  -31.1300   26.2020 C   0  0  0  0  0  1  0  0  0  0  0  0
  -27.3630  -30.1100   24.6740 C   0  0  0  0  0  1  0  0  0  0  0  0
  -27.9330  -32.1820   25.9010 C   0  0  0  0  0  1  0  0  0  0  0  0
  1  2  1  0
  1 10  2  0
  3  7  1  0
  5 19  1  0
  5  1  1  0
  6  3  1  0
  6  5  1  0
  6  8  1  0
  7 49  1  0
  7  4  1  0
  8  4  1  0
  8  9  1  1
  8  2  1  0
 11 19  1  0
 12 17  1  0
 13 14  1  0
 13 12  1  0
 15 14  1  0
 15 24  1  0
 15 16  1  0
 17 11  1  0
 17 16  1  0
 18 11  2  0
 19 20  1  0
 21 22  2  0
 22 41  1  0
 23 22  1  0
 23 26  1  0
 24 25  1  0
 24 21  1  0
 25 23  2  0
 26 27  1  0
 27 28  2  0
 29 32  1  0
 29 28  1  0
 30 29  2  0
 31 30  1  0
 31 26  2  0
 32 33  1  0
 33 38  2  0
 33 34  1  0
 34 35  2  0
 35 36  1  0
 36 40  1  0
 37 36  2  0
 38 37  1  0
 39 38  1  0
 41 42  1  0
 42 45  1  0
 42 44  1  0
 43 41  2  0
 46 21  1  0
 46 47  1  0
 48 46  1  0
 49 51  1  0
 50 61  2  0
 51 56  1  0
 52 60  1  0
 52 62  1  0
 53 59  1  0
 53 55  1  0
 54 60  1  0
 55 54  1  0
 56 55  2  0
 57 58  1  0
 57 51  2  0
 58 53  2  0
 59 52  1  0
 60 50  1  0
 62 64  2  0
 63 62  1  0
 65 63  1  0
 66 75  2  0
 66 71  1  0
 67 63  1  0
 67 71  1  0
 68 67  1  0
 69 70  1  0
 69 68  1  0
 70 66  1  0
 71 72  2  0
 72 73  1  0
 74 73  2  0
 75 74  1  0
 76 50  1  0
 76 77  1  0
 76 86  1  0
 77 80  1  0
 78 82  1  0
 78 77  1  0
 79 78  2  0
 82 81  1  0
 84 82  1  0
 84 85  1  0
 84 83  1  0
 86 89  1  1
 86 87  1  0
 88 86  1  0
M  ISO  4   7 101  11 100  19 100  49 101
M  END
>  <TORSDO>  (58) 
F 16

>  <SCORE>  (58) 
-13.342

>  <name>  (58) 
57

>  <ligand_id>  (58) 
57

>  <original_smiles>  (58) 
[H]c1c([H])c([H])c2c(c1[H])C([H])([H])C([H])([H])C([H])([H])C2([H])N([H])C(=O)C1([H])N(C(=O)C([H])(N([H])C(=O)C([H])(N([H])C([H])([H])[H])C([H])([H])[H])C(C([H])([H])[H])(C([H])([H])[H])C([H])([H])[H])C([H])([H])c2c([H])c(OC3([H])C([H])([H])C4([H])C([H])(N([H])C(=O)N5C([H])([H])C([H])([H])C([H])([H])C([H])(n6nc(-c7c([H])c([H])c(Oc8c([H])c([H])c(F)c([H])c8F)c([H])c7[H])c(C(=O)N([H])[H])c6N([H])[H])C5([H])[H])C(=O)C([H])([H])C4(C([H])([H])[H])C3([H])[H])c([H])c([H])c2C1([H])[H]

>  <smiles>  (58) 
[H]c1c([H])c([H])c2c(c1[H])C([H])([H])C([H])([H])C([H])([H])C2([H])N([H])C(=O)C1([H])N(C(=O)C([H])(N([H])C(=O)C([H])(N([H])C([H])([H])[H])C([H])([H])[H])C(C([H])([H])[H])(C([H])([H])[H])C([H])([H])[H])C([H])([H])c2c([H])c(OC3([H])C([H])([H])C4([H])C([H])(N([H])C(=O)N5C([H])([H])C([H])([H])C([H])([H])C([H])(n6nc(-c7c([H])c([H])c(Oc8c([H])c([H])c(F)c([H])c8F)c([H])c7[H])c(C(=O)N([H])[H])c6N([H])[H])C5([H])[H])C(=O)C([H])([H])C4(C([H])([H])[H])C3([H])[H])c([H])c([H])c2C1([H])[H]

$$$$
58:0:0
     RDKit          3D

100109  0  0  1  0  0  0  0  0999 V2000
  -30.3940  -23.7310   19.1620 C   0  0  0  0  0  0  0  0  0  0  0  0
  -27.6070  -21.6780   17.4960 C   0  0  0  0  0  2  0  0  0  0  0  0
  -29.1050  -21.9070   17.7670 C   0  0  0  0  0  2  0  0  0  0  0  0
  -26.8600  -22.5400   18.5270 C   0  0  0  0  0  2  0  0  0  0  0  0
  -29.7810  -25.0680   21.3830 C   0  0  0  0  0  2  0  0  0  0  0  0
  -27.5120  -24.2580   20.3090 C   0  0  0  0  0  2  0  0  0  0  0  0
  -29.1480  -22.8530   18.9800 C   0  0  0  0  0  3  0  0  0  0  0  0
  -30.7860  -24.1430   20.5970 C   0  0  0  0  0  3  0  0  0  0  0  0
  -28.3680  -25.4540   20.8410 C   0  0  0  0  0  3  0  0  0  0  0  0
  -27.8460  -23.6600   18.9110 C   0  0  1  0  0  0  0  0  0  0  0  0
  -27.8420  -24.7000   17.7500 C   0  0  0  0  0  1  0  0  0  0  0  0
  -31.0730  -24.0460   18.1820 O   0  0  0  0  0  0  0  0  0  0  0  0
  -31.3070  -22.9310   21.3120 N   0  0  0  0  0  4  0  0  0  0  0  0
  -32.0830  -23.2440   21.8750 H   0  0  0  0  0  0  0  0  0  0  0  0
  -31.7090  -22.3370   20.6040 H   0  0  0  0  0  0  0  0  0  0  0  0
  -30.4010  -22.1460   22.2010 C   0  0  0  0  0  2  0  0  0  0  0  0
  -30.8910  -20.7080   22.5350 C   0  0  0  0  0  2  0  0  0  0  0  0
  -30.6120  -19.6170   21.4640 C   0  0  0  0  0  2  0  0  0  0  0  0
  -30.7390  -18.2310   21.9960 N   0  0  0  0  0  4  0  0  0  0  0  0
  -31.6040  -18.1550   22.5080 H   0  0  0  0  0  0  0  0  0  0  0  0
  -29.9860  -18.0710   22.6440 H   0  0  0  0  0  0  0  0  0  0  0  0
  -30.7230  -17.1640   20.9590 C   0  0  0  0  0  2  0  0  0  0  0  0
  -30.3910  -15.7410   21.5090 C   0  0  0  0  0  2  0  0  0  0  0  0
  -30.9340  -14.5960   20.6210 C   0  0  0  0  0  0  0  0  0  0  0  0
  -30.6180  -12.4840   19.3720 C   0  0  0  0  0  2  0  0  0  0  0  0
  -29.7060  -12.7040   18.1490 C   0  0  0  0  0  2  0  0  0  0  0  0
  -28.2220  -12.5770   18.5440 C   0  0  0  0  0  2  0  0  0  0  0  0
  -27.8630  -13.4020   19.8090 C   0  0  0  0  0  3  0  0  0  0  0  0
  -28.8870  -13.1420   20.9380 C   0  0  0  0  0  2  0  0  0  0  0  0
  -30.2270  -13.4500   20.4140 N   0  0  0  0  0  0  0  0  0  0  0  0
  -32.0250  -14.7820   20.0730 O   0  0  0  0  0  0  0  0  0  0  0  0
  -25.4380  -14.0190   20.4140 C   0  0  0  0  0  0  0  0  0  0  0  0
  -24.3570  -13.2510   20.7650 C   0  0  0  0  0  0  0  0  0  0  0  0
  -24.8240  -11.9000   20.7830 C   0  0  0  0  0  0  0  0  0  0  0  0
  -26.4930  -13.1360   20.2450 N   0  0  0  0  0  0  0  0  0  0  0  0
  -26.1240  -11.8580   20.5220 N   0  0  0  0  0  0  0  0  0  0  0  0
  -24.0950  -10.6400   20.9810 C   0  0  0  0  0  0  0  0  0  0  0  0
  -24.5060   -9.6930   21.9440 C   0  0  0  0  0  3  0  0  0  0  0  0
  -23.7800   -8.4970   22.1260 C   0  0  0  0  0  3  0  0  0  0  0  0
  -22.6290   -8.2390   21.3440 C   0  0  0  0  0  0  0  0  0  0  0  0
  -22.2370   -9.1750   20.3720 C   0  0  0  0  0  3  0  0  0  0  0  0
  -22.9650  -10.3630   20.1870 C   0  0  0  0  0  3  0  0  0  0  0  0
  -21.8760   -7.0920   21.4350 O   0  0  0  0  0  0  0  0  0  0  0  0
  -21.7980   -6.3720   22.5990 C   0  0  0  0  0  0  0  0  0  0  0  0
  -21.3520   -6.9530   23.8070 C   0  0  0  0  0  3  0  0  0  0  0  0
  -21.2200   -6.1600   24.9630 C   0  0  0  0  0  3  0  0  0  0  0  0
  -21.5270   -4.7880   24.9150 C   0  0  0  0  0  0  0  0  0  0  0  0
  -21.9650   -4.2050   23.7130 C   0  0  0  0  0  3  0  0  0  0  0  0
  -22.1000   -4.9950   22.5580 C   0  0  0  0  0  0  0  0  0  0  0  0
  -22.5030   -4.4250   21.3970 F   0  0  0  0  0  0  0  0  0  0  0  0
  -21.3940   -4.0220   26.0240 F   0  0  0  0  0  0  0  0  0  0  0  0
  -22.9520  -13.7310   20.9780 C   0  0  0  0  0  0  0  0  0  0  0  0
  -22.1970  -13.0560   21.8400 N   0  0  0  0  0  0  0  0  0  0  0  0
  -22.5270  -14.7370   20.4150 O   0  0  0  0  0  0  0  0  0  0  0  0
  -22.5510  -12.2420   22.3190 H   0  0  0  0  0  0  0  0  0  0  0  0
  -21.2510  -13.3600   22.0220 H   0  0  0  0  0  0  0  0  0  0  0  0
  -25.6070  -15.3830   20.2070 N   0  0  0  0  0  0  0  0  0  0  0  0
  -24.8400  -16.0420   20.2730 H   0  0  0  0  0  0  0  0  0  0  0  0
  -26.4700  -15.8090   19.8910 H   0  0  0  0  0  0  0  0  0  0  0  0
  -28.4020  -26.6800   20.0680 O   0  0  0  0  0  0  0  0  0  0  0  0
  -24.6170  -31.8830   23.1870 C   0  0  0  0  0  0  0  0  0  0  0  0
  -27.2460  -27.4430   20.0860 C   0  0  0  0  0  0  0  0  0  0  0  0
  -23.4040  -30.4670   21.5670 C   0  0  0  0  0  3  0  0  0  0  0  0
  -24.8470  -28.9510   20.1270 C   0  0  0  0  0  0  0  0  0  0  0  0
  -25.9280  -30.8430   21.3390 C   0  0  0  0  0  2  0  0  0  0  0  0
  -26.0150  -29.4750   20.6970 C   0  0  0  0  0  0  0  0  0  0  0  0
  -27.2200  -28.7310   20.6740 C   0  0  0  0  0  3  0  0  0  0  0  0
  -26.0560  -26.9560   19.5020 C   0  0  0  0  0  3  0  0  0  0  0  0
  -24.8620  -27.6870   19.5270 C   0  0  0  0  0  3  0  0  0  0  0  0
  -23.5990  -29.7990   20.1840 C   0  0  0  0  0  2  0  0  0  0  0  0
  -24.6690  -31.0780   22.0890 N   0  0  0  0  0  0  0  0  0  0  0  0
  -23.5410  -32.1450   23.7390 O   0  0  0  0  0  0  0  0  0  0  0  0
  -22.7780  -29.4370   22.5340 C   0  0  0  0  0  0  0  0  0  0  0  0
  -21.4550  -29.2320   22.4180 N   0  0  0  0  0  0  0  0  0  0  0  0
  -23.4790  -28.8280   23.3470 O   0  0  0  0  0  0  0  0  0  0  0  0
  -20.9460  -29.7780   21.7370 H   0  0  0  0  0  0  0  0  0  0  0  0
  -18.1050  -27.9840   22.9450 C   0  0  0  0  0  0  0  0  0  0  0  0
  -20.6580  -28.2890   23.2030 C   0  0  0  0  0  3  0  0  0  0  0  0
  -20.7840  -26.8540   22.6420 C   0  0  0  0  0  2  0  0  0  0  0  0
  -19.6830  -26.5010   21.6360 C   0  0  0  0  0  2  0  0  0  0  0  0
  -18.3010  -26.6300   22.2850 C   0  0  0  0  0  2  0  0  0  0  0  0
  -19.2120  -28.7700   23.3610 C   0  0  0  0  0  0  0  0  0  0  0  0
  -18.9720  -30.0370   23.9360 C   0  0  0  0  0  3  0  0  0  0  0  0
  -17.6600  -30.5160   24.1040 C   0  0  0  0  0  3  0  0  0  0  0  0
  -16.5670  -29.7270   23.7040 C   0  0  0  0  0  3  0  0  0  0  0  0
  -16.7920  -28.4640   23.1280 C   0  0  0  0  0  3  0  0  0  0  0  0
  -25.9030  -32.5300   23.7840 C   0  0  0  0  0  3  0  0  0  0  0  0
  -25.5760  -33.9170   24.1390 N   0  0  0  0  0  0  0  0  0  0  0  0
  -25.8770  -34.9860   23.3880 C   0  0  0  0  0  0  0  0  0  0  0  0
  -26.5310  -34.9090   22.3450 O   0  0  0  0  0  0  0  0  0  0  0  0
  -24.9900  -34.0490   24.9510 H   0  0  0  0  0  0  0  0  0  0  0  0
  -24.1170  -36.7550   23.0750 C   0  0  0  0  0  1  0  0  0  0  0  0
  -25.3700  -36.3570   23.8720 C   0  0  0  0  0  3  0  0  0  0  0  0
  -27.4960  -37.2600   24.7050 C   0  0  0  0  0  1  0  0  0  0  0  0
  -26.3840  -37.4280   23.7720 N   0  0  0  0  0  0  0  0  0  0  0  0
  -25.9650  -38.3380   23.9420 H   0  0  0  0  0  0  0  0  0  0  0  0
  -26.4660  -31.7500   25.0350 C   0  0  1  0  0  0  0  0  0  0  0  0
  -25.4050  -31.4740   26.1250 C   0  0  0  0  0  1  0  0  0  0  0  0
  -27.0650  -30.3910   24.6060 C   0  0  0  0  0  1  0  0  0  0  0  0
  -27.6160  -32.5580   25.6790 C   0  0  0  0  0  1  0  0  0  0  0  0
  1  8  1  0
  2  3  1  0
  2  4  1  0
  4 10  1  0
  6  9  1  0
  7  3  1  0
  7  1  1  0
  8 13  1  0
  8  5  1  0
  9 60  1  0
  9  5  1  0
 10 11  1  6
 10  7  1  0
 10  6  1  0
 12  1  2  0
 13 14  1  0
 13 16  1  0
 15 13  1  0
 16 17  1  0
 18 19  1  0
 18 17  1  0
 19 20  1  0
 19 21  1  0
 22 23  1  0
 22 19  1  0
 24 23  1  0
 25 30  1  0
 26 27  1  0
 26 25  1  0
 28 27  1  0
 28 35  1  0
 28 29  1  0
 30 24  1  0
 30 29  1  0
 31 24  2  0
 32 33  2  0
 33 34  1  0
 33 52  1  0
 34 37  1  0
 35 32  1  0
 35 36  1  0
 36 34  2  0
 37 38  1  0
 38 39  2  0
 40 43  1  0
 40 39  1  0
 41 40  2  0
 42 41  1  0
 42 37  2  0
 43 44  1  0
 44 45  1  0
 45 46  2  0
 47 46  1  0
 47 51  1  0
 48 47  2  0
 49 44  2  0
 49 48  1  0
 50 49  1  0
 52 53  1  0
 53 56  1  0
 53 55  1  0
 54 52  2  0
 57 58  1  0
 57 32  1  0
 59 57  1  0
 60 62  1  0
 61 72  2  0
 62 67  1  0
 63 71  1  0
 63 73  1  0
 64 70  1  0
 64 66  1  0
 65 71  1  0
 66 65  1  0
 67 66  2  0
 68 69  1  0
 68 62  2  0
 69 64  2  0
 70 63  1  0
 71 61  1  0
 73 75  2  0
 74 73  1  0
 76 74  1  0
 77 86  2  0
 77 82  1  0
 78 74  1  0
 78 82  1  0
 79 78  1  0
 80 81  1  0
 80 79  1  0
 81 77  1  0
 82 83  2  0
 83 84  1  0
 85 84  2  0
 86 85  1  0
 87 61  1  0
 87 88  1  0
 87 97  1  0
 88 91  1  0
 89 93  1  0
 89 88  1  0
 90 89  2  0
 93 92  1  0
 95 93  1  0
 95 96  1  0
 95 94  1  0
 97100  1  1
 97 98  1  0
 99 97  1  0
M  ISO  4   9 101  23 100  24 100  60 101
M  END
>  <TORSDO>  (59) 
F 23

>  <SCORE>  (59) 
-13.169

>  <name>  (59) 
58

>  <ligand_id>  (59) 
58

>  <original_smiles>  (59) 
[H]c1c([H])c([H])c2c(c1[H])C([H])([H])C([H])([H])C([H])([H])C2([H])N([H])C(=O)C1([H])N(C(=O)C([H])(N([H])C(=O)C([H])(N([H])C([H])([H])[H])C([H])([H])[H])C(C([H])([H])[H])(C([H])([H])[H])C([H])([H])[H])C([H])([H])c2c([H])c(OC3([H])C([H])([H])C4(C([H])([H])[H])C([H])([H])C([H])([H])C([H])([H])C4([H])C(=O)C([H])([N+]([H])([H])C([H])([H])C([H])([H])C([H])([H])[N+]([H])([H])C([H])([H])C([H])([H])C(=O)N4C([H])([H])C([H])([H])C([H])([H])C([H])(n5nc(-c6c([H])c([H])c(Oc7c([H])c([H])c(F)c([H])c7F)c([H])c6[H])c(C(=O)N([H])[H])c5N([H])[H])C4([H])[H])C3([H])[H])c([H])c([H])c2C1([H])[H]

>  <smiles>  (59) 
[H]c1c([H])c([H])c2c(c1[H])C([H])([H])C([H])([H])C([H])([H])C2([H])N([H])C(=O)C1([H])N(C(=O)C([H])(N([H])C(=O)C([H])(N([H])C([H])([H])[H])C([H])([H])[H])C(C([H])([H])[H])(C([H])([H])[H])C([H])([H])[H])C([H])([H])c2c([H])c(OC3([H])C([H])([H])C4(C([H])([H])[H])C([H])([H])C([H])([H])C([H])([H])C4([H])C(=O)C([H])([N+]([H])([H])C([H])([H])C([H])([H])C([H])([H])[N+]([H])([H])C([H])([H])C([H])([H])C(=O)N4C([H])([H])C([H])([H])C([H])([H])C([H])(n5nc(-c6c([H])c([H])c(Oc7c([H])c([H])c(F)c([H])c7F)c([H])c6[H])c(C(=O)N([H])[H])c5N([H])[H])C4([H])[H])C3([H])[H])c([H])c([H])c2C1([H])[H]

$$$$
59:0:0
     RDKit          3D

 94102  0  0  1  0  0  0  0  0999 V2000
  -30.6820  -25.1740   22.3340 C   0  0  0  0  0  3  0  0  0  0  0  0
  -28.5700  -23.9550   22.2190 C   0  0  0  0  0  3  0  0  0  0  0  0
  -30.1690  -26.1460   21.4540 C   0  0  0  0  0  3  0  0  0  0  0  0
  -28.0590  -24.9310   21.3450 C   0  0  0  0  0  3  0  0  0  0  0  0
  -29.8960  -24.0600   22.6880 C   0  0  0  0  0  0  0  0  0  0  0  0
  -28.8690  -26.0060   20.9300 C   0  0  0  0  0  0  0  0  0  0  0  0
  -28.4520  -26.8580   19.9470 O   0  0  0  0  0  0  0  0  0  0  0  0
  -24.6070  -31.8730   23.2150 C   0  0  0  0  0  0  0  0  0  0  0  0
  -27.2560  -27.5070   20.0770 C   0  0  0  0  0  0  0  0  0  0  0  0
  -23.3960  -30.4910   21.5530 C   0  0  0  0  0  3  0  0  0  0  0  0
  -24.8470  -28.9560   20.1260 C   0  0  0  0  0  0  0  0  0  0  0  0
  -25.9150  -30.8540   21.3600 C   0  0  0  0  0  2  0  0  0  0  0  0
  -25.9990  -29.4860   20.7230 C   0  0  0  0  0  0  0  0  0  0  0  0
  -27.2050  -28.7610   20.7100 C   0  0  0  0  0  3  0  0  0  0  0  0
  -26.0950  -26.9710   19.4830 C   0  0  0  0  0  3  0  0  0  0  0  0
  -24.8830  -27.6880   19.5150 C   0  0  0  0  0  3  0  0  0  0  0  0
  -23.6040  -29.8100   20.1720 C   0  0  0  0  0  2  0  0  0  0  0  0
  -24.6570  -31.0840   22.1040 N   0  0  0  0  0  0  0  0  0  0  0  0
  -23.5260  -32.1440   23.7550 O   0  0  0  0  0  0  0  0  0  0  0  0
  -22.7380  -29.4670   22.5050 C   0  0  0  0  0  0  0  0  0  0  0  0
  -21.4110  -29.3030   22.3750 N   0  0  0  0  0  0  0  0  0  0  0  0
  -23.4170  -28.8220   23.3070 O   0  0  0  0  0  0  0  0  0  0  0  0
  -20.9290  -29.8760   21.6960 H   0  0  0  0  0  0  0  0  0  0  0  0
  -18.0250  -28.1370   22.8470 C   0  0  0  0  0  0  0  0  0  0  0  0
  -20.5840  -28.3650   23.1320 C   0  0  0  0  0  3  0  0  0  0  0  0
  -20.6760  -26.9400   22.5410 C   0  0  0  0  0  2  0  0  0  0  0  0
  -19.5740  -26.6380   21.5200 C   0  0  0  0  0  2  0  0  0  0  0  0
  -18.1910  -26.7910   22.1590 C   0  0  0  0  0  2  0  0  0  0  0  0
  -19.1490  -28.8810   23.2900 C   0  0  0  0  0  0  0  0  0  0  0  0
  -18.9430  -30.1420   23.8920 C   0  0  0  0  0  3  0  0  0  0  0  0
  -17.6440  -30.6590   24.0550 C   0  0  0  0  0  3  0  0  0  0  0  0
  -16.5340  -29.9110   23.6290 C   0  0  0  0  0  3  0  0  0  0  0  0
  -16.7230  -28.6510   23.0330 C   0  0  0  0  0  3  0  0  0  0  0  0
  -25.8970  -32.4840   23.8440 C   0  0  0  0  0  3  0  0  0  0  0  0
  -25.5860  -33.8650   24.2370 N   0  0  0  0  0  0  0  0  0  0  0  0
  -25.9040  -34.9480   23.5170 C   0  0  0  0  0  0  0  0  0  0  0  0
  -26.5610  -34.8920   22.4730 O   0  0  0  0  0  0  0  0  0  0  0  0
  -24.9990  -33.9850   25.0490 H   0  0  0  0  0  0  0  0  0  0  0  0
  -24.1510  -36.7340   23.2640 C   0  0  0  0  0  1  0  0  0  0  0  0
  -25.4130  -36.3150   24.0350 C   0  0  0  0  0  3  0  0  0  0  0  0
  -27.5600  -37.1830   24.8460 C   0  0  0  0  0  1  0  0  0  0  0  0
  -26.4290  -37.3850   23.9400 N   0  0  0  0  0  0  0  0  0  0  0  0
  -26.0190  -38.2940   24.1390 H   0  0  0  0  0  0  0  0  0  0  0  0
  -26.4390  -31.6590   25.0750 C   0  0  1  0  0  0  0  0  0  0  0  0
  -25.3650  -31.3690   26.1500 C   0  0  0  0  0  1  0  0  0  0  0  0
  -27.0180  -30.3050   24.6050 C   0  0  0  0  0  1  0  0  0  0  0  0
  -27.6030  -32.4230   25.7490 C   0  0  0  0  0  1  0  0  0  0  0  0
  -30.5100  -22.9400   23.4970 C   0  0  0  0  0  2  0  0  0  0  0  0
  -31.7650  -20.8740   23.0430 C   0  0  0  0  0  0  0  0  0  0  0  0
  -31.1930  -22.0030   22.6180 N   0  0  0  0  0  0  0  0  0  0  0  0
  -32.0090  -20.6660   24.2310 O   0  0  0  0  0  0  0  0  0  0  0  0
  -31.0820  -22.1430   21.6230 H   0  0  0  0  0  0  0  0  0  0  0  0
  -32.0290  -19.7830   22.0020 C   0  0  0  0  0  2  0  0  0  0  0  0
  -30.9430  -18.6920   22.0950 C   0  0  0  0  0  2  0  0  0  0  0  0
  -31.4580  -17.2560   21.9050 C   0  0  0  0  0  2  0  0  0  0  0  0
  -30.2920  -16.2570   22.0720 C   0  0  0  0  0  2  0  0  0  0  0  0
  -30.8320  -14.3040   20.6900 C   0  0  0  0  0  0  0  0  0  0  0  0
  -30.4130  -12.2920   19.3370 C   0  0  0  0  0  2  0  0  0  0  0  0
  -29.4590  -12.5560   18.1600 C   0  0  0  0  0  2  0  0  0  0  0  0
  -27.9860  -12.4410   18.5860 C   0  0  0  0  0  2  0  0  0  0  0  0
  -27.6730  -13.2200   19.8860 C   0  0  0  0  0  3  0  0  0  0  0  0
  -28.7300  -12.9350   20.9780 C   0  0  0  0  0  2  0  0  0  0  0  0
  -30.0730  -13.2080   20.4300 N   0  0  0  0  0  0  0  0  0  0  0  0
  -31.7330  -14.7050   19.9470 O   0  0  0  0  0  0  0  0  0  0  0  0
  -31.3300  -14.2210   23.0390 C   0  0  0  0  0  1  0  0  0  0  0  0
  -30.6510  -14.8440   21.9050 N   0  0  0  0  0  0  0  0  0  0  0  0
  -25.2600  -13.8180   20.5700 C   0  0  0  0  0  0  0  0  0  0  0  0
  -24.1880  -13.0410   20.9140 C   0  0  0  0  0  0  0  0  0  0  0  0
  -24.6490  -11.6880   20.8730 C   0  0  0  0  0  0  0  0  0  0  0  0
  -26.3120  -12.9400   20.3490 N   0  0  0  0  0  0  0  0  0  0  0  0
  -25.9440  -11.6540   20.5850 N   0  0  0  0  0  0  0  0  0  0  0  0
  -23.9180  -10.4240   21.0420 C   0  0  0  0  0  0  0  0  0  0  0  0
  -24.3690   -9.4140   21.9210 C   0  0  0  0  0  3  0  0  0  0  0  0
  -23.6320   -8.2190   22.0770 C   0  0  0  0  0  3  0  0  0  0  0  0
  -22.4310   -8.0270   21.3550 C   0  0  0  0  0  0  0  0  0  0  0  0
  -21.9990   -9.0260   20.4660 C   0  0  0  0  0  3  0  0  0  0  0  0
  -22.7350  -10.2110   20.3080 C   0  0  0  0  0  3  0  0  0  0  0  0
  -21.6630   -6.8890   21.4250 O   0  0  0  0  0  0  0  0  0  0  0  0
  -21.6850   -6.0730   22.5270 C   0  0  0  0  0  0  0  0  0  0  0  0
  -21.4020   -6.5640   23.8210 C   0  0  0  0  0  3  0  0  0  0  0  0
  -21.3670   -5.6810   24.9180 C   0  0  0  0  0  3  0  0  0  0  0  0
  -21.6060   -4.3080   24.7240 C   0  0  0  0  0  0  0  0  0  0  0  0
  -21.8840   -3.8140   23.4370 C   0  0  0  0  0  3  0  0  0  0  0  0
  -21.9200   -4.6950   22.3410 C   0  0  0  0  0  0  0  0  0  0  0  0
  -22.1670   -4.2120   21.0990 F   0  0  0  0  0  0  0  0  0  0  0  0
  -21.5630   -3.4600   25.7770 F   0  0  0  0  0  0  0  0  0  0  0  0
  -22.7870  -13.5140   21.1790 C   0  0  0  0  0  0  0  0  0  0  0  0
  -22.0540  -12.8140   22.0370 N   0  0  0  0  0  0  0  0  0  0  0  0
  -22.3520  -14.5440   20.6650 O   0  0  0  0  0  0  0  0  0  0  0  0
  -22.4260  -11.9860   22.4800 H   0  0  0  0  0  0  0  0  0  0  0  0
  -21.1160  -13.1120   22.2600 H   0  0  0  0  0  0  0  0  0  0  0  0
  -25.4220  -15.1910   20.4040 N   0  0  0  0  0  0  0  0  0  0  0  0
  -24.6480  -15.8440   20.4880 H   0  0  0  0  0  0  0  0  0  0  0  0
  -26.2830  -15.6290   20.1000 H   0  0  0  0  0  0  0  0  0  0  0  0
  1  5  1  0
  2  5  2  0
  3  1  2  0
  4  2  1  0
  5 48  1  0
  6  4  2  0
  6  3  1  0
  7  9  1  0
  7  6  1  0
  8 19  2  0
  9 14  1  0
 10 18  1  0
 10 20  1  0
 11 17  1  0
 11 13  1  0
 12 18  1  0
 13 12  1  0
 14 13  2  0
 15 16  1  0
 15  9  2  0
 16 11  2  0
 17 10  1  0
 18  8  1  0
 20 22  2  0
 21 20  1  0
 23 21  1  0
 24 33  2  0
 24 29  1  0
 25 21  1  0
 25 29  1  0
 26 25  1  0
 27 28  1  0
 27 26  1  0
 28 24  1  0
 29 30  2  0
 30 31  1  0
 32 31  2  0
 33 32  1  0
 34  8  1  0
 34 35  1  0
 34 44  1  0
 35 38  1  0
 36 40  1  0
 36 35  1  0
 37 36  2  0
 40 39  1  0
 42 40  1  0
 42 43  1  0
 42 41  1  0
 44 47  1  1
 44 45  1  0
 46 44  1  0
 49 51  2  0
 50 49  1  0
 50 48  1  0
 52 50  1  0
 53 54  1  0
 53 49  1  0
 55 56  1  0
 55 54  1  0
 57 66  1  0
 58 63  1  0
 59 60  1  0
 59 58  1  0
 61 60  1  0
 61 70  1  0
 61 62  1  0
 63 57  1  0
 63 62  1  0
 64 57  2  0
 66 56  1  0
 66 65  1  0
 67 68  2  0
 68 87  1  0
 69 68  1  0
 69 72  1  0
 70 67  1  0
 70 71  1  0
 71 69  2  0
 72 73  1  0
 73 74  2  0
 75 78  1  0
 75 74  1  0
 76 75  2  0
 77 76  1  0
 77 72  2  0
 78 79  1  0
 79 80  1  0
 80 81  2  0
 82 81  1  0
 82 86  1  0
 83 82  2  0
 84 79  2  0
 84 83  1  0
 85 84  1  0
 87 88  1  0
 88 91  1  0
 88 90  1  0
 89 87  2  0
 92 93  1  0
 92 67  1  0
 94 92  1  0
M  ISO  4   6 101   7 101  57 100  66 100
M  END
>  <TORSDO>  (60) 
F 22

>  <SCORE>  (60) 
-9.819

>  <name>  (60) 
59

>  <ligand_id>  (60) 
59

>  <original_smiles>  (60) 
[H]c1c([H])c([H])c2c(c1[H])C([H])([H])C([H])([H])C([H])([H])C2([H])N([H])C(=O)C1([H])N(C(=O)C([H])(N([H])C(=O)C([H])(N([H])C([H])([H])[H])C([H])([H])[H])C(C([H])([H])[H])(C([H])([H])[H])C([H])([H])[H])C([H])([H])c2c([H])c(Oc3c([H])c([H])c(C([H])([H])N([H])C(=O)C([H])([H])C([H])([H])C([H])([H])C([H])([H])N(C(=O)N4C([H])([H])C([H])([H])C([H])([H])C([H])(n5nc(-c6c([H])c([H])c(Oc7c([H])c([H])c(F)c([H])c7F)c([H])c6[H])c(C(=O)N([H])[H])c5N([H])[H])C4([H])[H])C([H])([H])[H])c([H])c3[H])c([H])c([H])c2C1([H])[H]

>  <smiles>  (60) 
[H]c1c([H])c([H])c2c(c1[H])C([H])([H])C([H])([H])C([H])([H])C2([H])N([H])C(=O)C1([H])N(C(=O)C([H])(N([H])C(=O)C([H])(N([H])C([H])([H])[H])C([H])([H])[H])C(C([H])([H])[H])(C([H])([H])[H])C([H])([H])[H])C([H])([H])c2c([H])c(Oc3c([H])c([H])c(C([H])([H])N([H])C(=O)C([H])([H])C([H])([H])C([H])([H])C([H])([H])N(C(=O)N4C([H])([H])C([H])([H])C([H])([H])C([H])(n5nc(-c6c([H])c([H])c(Oc7c([H])c([H])c(F)c([H])c7F)c([H])c6[H])c(C(=O)N([H])[H])c5N([H])[H])C4([H])[H])C([H])([H])[H])c([H])c3[H])c([H])c([H])c2C1([H])[H]

$$$$
60:0:0
     RDKit          3D

 98107  0  0  1  0  0  0  0  0999 V2000
  -26.1060  -26.6280   21.0880 C   0  0  0  0  0  3  0  0  0  0  0  0
  -24.9220  -27.3840   21.1790 C   0  0  0  0  0  3  0  0  0  0  0  0
  -25.8370  -25.8930   23.3890 C   0  0  0  0  0  3  0  0  0  0  0  0
  -26.5570  -25.8500   22.1790 C   0  0  0  0  0  0  0  0  0  0  0  0
  -24.6730  -26.6880   23.5040 C   0  0  0  0  0  0  0  0  0  0  0  0
  -24.1960  -27.4140   22.3840 C   0  0  0  0  0  0  0  0  0  0  0  0
  -23.0560  -28.1640   22.4690 O   0  0  0  0  0  0  0  0  0  0  0  0
  -22.8040  -28.5780   21.6500 H   0  0  0  0  0  0  0  0  0  0  0  0
  -24.0210  -26.8420   24.8650 C   0  0  0  0  0  2  0  0  0  0  0  0
  -24.9580  -27.6590   25.7670 C   0  0  0  0  0  2  0  0  0  0  0  0
  -24.7280  -27.4970   27.2690 C   0  0  0  0  0  2  0  0  0  0  0  0
  -25.8710  -28.1980   28.0160 C   0  0  0  0  0  2  0  0  0  0  0  0
  -26.5780  -29.0430   31.7520 C   0  0  0  0  0  2  0  0  0  0  0  0
  -26.5930  -29.1810   30.2220 C   0  0  0  0  0  2  0  0  0  0  0  0
  -27.0590  -27.6560   32.1950 C   0  0  0  0  0  2  0  0  0  0  0  0
  -26.4040  -26.6740   29.9820 C   0  0  0  0  0  2  0  0  0  0  0  0
  -25.8260  -28.0330   29.5360 C   0  0  0  0  0  3  0  0  0  0  0  0
  -26.2530  -26.5450   31.4960 C   0  0  0  0  0  3  0  0  0  0  0  0
  -26.3860  -24.4950   33.0570 C   0  0  0  0  0  0  0  0  0  0  0  0
  -25.3490  -24.1550   35.2630 C   0  0  0  0  0  2  0  0  0  0  0  0
  -23.8440  -23.8510   35.1040 C   0  0  0  0  0  2  0  0  0  0  0  0
  -23.0100  -25.1480   35.0240 C   0  0  0  0  0  2  0  0  0  0  0  0
  -23.6120  -26.1780   34.0320 C   0  0  0  0  0  3  0  0  0  0  0  0
  -25.1150  -26.3440   34.3380 C   0  0  0  0  0  2  0  0  0  0  0  0
  -25.7650  -25.0320   34.1520 N   0  0  0  0  0  0  0  0  0  0  0  0
  -26.7510  -23.3190   33.0220 O   0  0  0  0  0  0  0  0  0  0  0  0
  -26.6660  -25.2290   31.9660 N   0  0  0  0  0  0  0  0  0  0  0  0
  -27.1560  -24.6810   31.2770 H   0  0  0  0  0  0  0  0  0  0  0  0
  -21.9810  -27.9870   33.1830 C   0  0  0  0  0  0  0  0  0  0  0  0
  -21.5660  -29.1740   33.7320 C   0  0  0  0  0  0  0  0  0  0  0  0
  -22.2590  -29.2960   34.9740 C   0  0  0  0  0  0  0  0  0  0  0  0
  -22.8970  -27.4540   34.0800 N   0  0  0  0  0  0  0  0  0  0  0  0
  -23.0920  -28.2770   35.1420 N   0  0  0  0  0  0  0  0  0  0  0  0
  -22.1400  -30.2960   36.0430 C   0  0  0  0  0  0  0  0  0  0  0  0
  -23.2480  -31.0700   36.4580 C   0  0  0  0  0  3  0  0  0  0  0  0
  -23.1040  -32.0340   37.4770 C   0  0  0  0  0  3  0  0  0  0  0  0
  -21.8450  -32.2370   38.0890 C   0  0  0  0  0  0  0  0  0  0  0  0
  -20.7520  -31.4510   37.6880 C   0  0  0  0  0  3  0  0  0  0  0  0
  -20.8960  -30.4880   36.6770 C   0  0  0  0  0  3  0  0  0  0  0  0
  -21.6210  -33.1310   39.1090 O   0  0  0  0  0  0  0  0  0  0  0  0
  -22.3220  -34.3040   39.2050 C   0  0  0  0  0  0  0  0  0  0  0  0
  -22.2950  -35.2750   38.1790 C   0  0  0  0  0  3  0  0  0  0  0  0
  -22.9770  -36.4970   38.3470 C   0  0  0  0  0  3  0  0  0  0  0  0
  -23.6760  -36.7540   39.5410 C   0  0  0  0  0  0  0  0  0  0  0  0
  -23.6980  -35.7940   40.5660 C   0  0  0  0  0  3  0  0  0  0  0  0
  -23.0220  -34.5730   40.3990 C   0  0  0  0  0  0  0  0  0  0  0  0
  -23.0290  -33.6580   41.3980 F   0  0  0  0  0  0  0  0  0  0  0  0
  -24.3250  -37.9320   39.7050 F   0  0  0  0  0  0  0  0  0  0  0  0
  -20.5170  -30.0960   33.1820 C   0  0  0  0  0  0  0  0  0  0  0  0
  -20.7120  -31.4020   33.3220 N   0  0  0  0  0  0  0  0  0  0  0  0
  -19.5350  -29.6630   32.5780 O   0  0  0  0  0  0  0  0  0  0  0  0
  -21.5230  -31.7600   33.8030 H   0  0  0  0  0  0  0  0  0  0  0  0
  -20.0450  -32.0520   32.9350 H   0  0  0  0  0  0  0  0  0  0  0  0
  -21.6410  -27.3170   32.0120 N   0  0  0  0  0  0  0  0  0  0  0  0
  -20.9360  -27.6760   31.3800 H   0  0  0  0  0  0  0  0  0  0  0  0
  -21.9870  -26.4020   31.7500 H   0  0  0  0  0  0  0  0  0  0  0  0
  -27.7630  -24.9200   22.0270 C   0  0  0  0  0  2  0  0  0  0  0  0
  -27.4060  -23.5530   21.7440 O   0  0  0  0  0  0  0  0  0  0  0  0
  -25.5420  -26.3130   15.5170 C   0  0  0  0  0  0  0  0  0  0  0  0
  -26.5280  -23.4750   20.6980 C   0  0  0  0  0  0  0  0  0  0  0  0
  -23.7940  -25.0080   16.6890 C   0  0  0  0  0  3  0  0  0  0  0  0
  -24.5970  -23.6020   18.6590 C   0  0  0  0  0  0  0  0  0  0  0  0
  -26.2700  -24.4610   17.0050 C   0  0  0  0  0  2  0  0  0  0  0  0
  -25.9200  -23.9840   18.3980 C   0  0  0  0  0  0  0  0  0  0  0  0
  -26.8910  -23.9390   19.4190 C   0  0  0  0  0  3  0  0  0  0  0  0
  -25.2100  -23.0370   20.9390 C   0  0  0  0  0  3  0  0  0  0  0  0
  -24.2330  -23.1290   19.9330 C   0  0  0  0  0  3  0  0  0  0  0  0
  -23.6210  -23.7040   17.5110 C   0  0  0  0  0  2  0  0  0  0  0  0
  -25.2320  -25.3160   16.3910 N   0  0  0  0  0  0  0  0  0  0  0  0
  -24.6540  -26.9440   14.9290 O   0  0  0  0  0  0  0  0  0  0  0  0
  -23.0630  -26.1560   17.4210 C   0  0  0  0  0  0  0  0  0  0  0  0
  -21.7570  -25.9680   17.6700 N   0  0  0  0  0  0  0  0  0  0  0  0
  -23.6690  -27.1720   17.7730 O   0  0  0  0  0  0  0  0  0  0  0  0
  -21.3290  -25.1170   17.3330 H   0  0  0  0  0  0  0  0  0  0  0  0
  -18.6200  -26.2120   19.4460 C   0  0  0  0  0  0  0  0  0  0  0  0
  -20.8780  -26.8920   18.3820 C   0  0  0  0  0  3  0  0  0  0  0  0
  -21.3690  -27.1300   19.8290 C   0  0  0  0  0  2  0  0  0  0  0  0
  -20.7250  -26.1820   20.8470 C   0  0  0  0  0  2  0  0  0  0  0  0
  -19.2010  -26.3450   20.8420 C   0  0  0  0  0  2  0  0  0  0  0  0
  -19.4100  -26.4530   18.2900 C   0  0  0  0  0  0  0  0  0  0  0  0
  -18.8320  -26.2800   17.0150 C   0  0  0  0  0  3  0  0  0  0  0  0
  -17.4910  -25.8760   16.8820 C   0  0  0  0  0  3  0  0  0  0  0  0
  -16.7090  -25.6510   18.0280 C   0  0  0  0  0  3  0  0  0  0  0  0
  -17.2720  -25.8240   19.3050 C   0  0  0  0  0  3  0  0  0  0  0  0
  -27.0230  -26.6880   15.1930 C   0  0  0  0  0  3  0  0  0  0  0  0
  -27.0840  -27.0680   13.7770 N   0  0  0  0  0  0  0  0  0  0  0  0
  -27.4490  -26.2450   12.7850 C   0  0  0  0  0  0  0  0  0  0  0  0
  -27.8460  -25.0920   12.9820 O   0  0  0  0  0  0  0  0  0  0  0  0
  -26.7250  -27.9800   13.5390 H   0  0  0  0  0  0  0  0  0  0  0  0
  -26.1180  -26.2060   10.6520 C   0  0  0  0  0  1  0  0  0  0  0  0
  -27.3630  -26.7850   11.3460 C   0  0  0  0  0  3  0  0  0  0  0  0
  -29.7380  -27.2570   10.9480 C   0  0  0  0  0  1  0  0  0  0  0  0
  -28.5640  -26.4950   10.5340 N   0  0  0  0  0  0  0  0  0  0  0  0
  -28.3910  -26.6880    9.5520 H   0  0  0  0  0  0  0  0  0  0  0  0
  -27.5810  -27.8470   16.1080 C   0  0  1  0  0  0  0  0  0  0  0  0
  -26.6060  -29.0370   16.2640 C   0  0  0  0  0  1  0  0  0  0  0  0
  -27.9120  -27.3110   17.5210 C   0  0  0  0  0  1  0  0  0  0  0  0
  -28.9020  -28.3920   15.5170 C   0  0  0  0  0  1  0  0  0  0  0  0
  1  2  2  0
  1  4  1  0
  2  6  1  0
  3  5  1  0
  4  3  2  0
  5  9  1  0
  6  7  1  0
  6  5  2  0
  8  7  1  0
  9 10  1  0
 10 11  1  0
 11 12  1  0
 13 15  1  0
 14 13  1  0
 16 18  1  0
 17 12  1  0
 17 16  1  0
 17 14  1  0
 18 27  1  0
 18 15  1  0
 19 25  1  0
 21 20  1  0
 22 21  1  0
 23 32  1  0
 23 24  1  0
 23 22  1  0
 25 24  1  0
 25 20  1  0
 26 19  2  0
 27 19  1  0
 28 27  1  0
 29 30  2  0
 29 32  1  0
 30 31  1  0
 31 33  2  0
 31 34  1  0
 32 33  1  0
 34 35  2  0
 34 39  1  0
 35 36  1  0
 36 37  2  0
 37 40  1  0
 38 37  1  0
 39 38  2  0
 40 41  1  0
 41 46  1  0
 42 43  1  0
 42 41  2  0
 43 44  2  0
 44 48  1  0
 44 45  1  0
 46 45  2  0
 46 47  1  0
 49 50  1  0
 49 30  1  0
 50 52  1  0
 51 49  2  0
 53 50  1  0
 54 29  1  0
 55 54  1  0
 56 54  1  0
 57  4  1  0
 58 57  1  0
 59 69  1  0
 60 66  1  0
 60 58  1  0
 61 71  1  0
 61 68  1  0
 62 67  1  0
 63 64  1  0
 64 62  2  0
 64 65  1  0
 65 60  2  0
 67 66  2  0
 68 62  1  0
 69 61  1  0
 69 63  1  0
 70 59  2  0
 71 72  1  0
 71 73  2  0
 74 72  1  0
 75 79  1  0
 76 72  1  0
 76 77  1  0
 77 78  1  0
 79 78  1  0
 80 76  1  0
 80 75  2  0
 81 80  1  0
 82 81  2  0
 82 83  1  0
 83 84  2  0
 84 75  1  0
 85 59  1  0
 85 95  1  0
 86 85  1  0
 87 88  2  0
 87 86  1  0
 89 86  1  0
 91 90  1  0
 91 87  1  0
 93 92  1  0
 93 91  1  0
 94 93  1  0
 95 96  1  1
 95 97  1  0
 98 95  1  0
M  ISO  4  19 100  27 100  57 101  58 101
M  END
>  <TORSDO>  (61) 
F 23

>  <SCORE>  (61) 
-6.039

>  <name>  (61) 
60

>  <ligand_id>  (61) 
60

>  <original_smiles>  (61) 
[H]Oc1c([H])c([H])c(C([H])([H])Oc2c([H])c([H])c3c(c2[H])C([H])([H])N(C(=O)C([H])(N([H])C(=O)C([H])(N([H])C([H])([H])[H])C([H])([H])[H])C(C([H])([H])[H])(C([H])([H])[H])C([H])([H])[H])C([H])(C(=O)N([H])C2([H])c4c([H])c([H])c([H])c([H])c4C([H])([H])C([H])([H])C2([H])[H])C3([H])[H])c([H])c1C([H])([H])C([H])([H])C([H])([H])C([H])([H])C1([H])C([H])([H])C([H])([H])C([H])([H])C([H])(N([H])C(=O)N2C([H])([H])C([H])([H])C([H])([H])C([H])(n3nc(-c4c([H])c([H])c(Oc5c([H])c([H])c(F)c([H])c5F)c([H])c4[H])c(C(=O)N([H])[H])c3N([H])[H])C2([H])[H])C1([H])[H]

>  <smiles>  (61) 
[H]Oc1c([H])c([H])c(C([H])([H])Oc2c([H])c([H])c3c(c2[H])C([H])([H])N(C(=O)C([H])(N([H])C(=O)C([H])(N([H])C([H])([H])[H])C([H])([H])[H])C(C([H])([H])[H])(C([H])([H])[H])C([H])([H])[H])C([H])(C(=O)N([H])C2([H])c4c([H])c([H])c([H])c([H])c4C([H])([H])C([H])([H])C2([H])[H])C3([H])[H])c([H])c1C([H])([H])C([H])([H])C([H])([H])C([H])([H])C1([H])C([H])([H])C([H])([H])C([H])([H])C([H])(N([H])C(=O)N2C([H])([H])C([H])([H])C([H])([H])C([H])(n3nc(-c4c([H])c([H])c(Oc5c([H])c([H])c(F)c([H])c5F)c([H])c4[H])c(C(=O)N([H])[H])c3N([H])[H])C2([H])[H])C1([H])[H]

$$$$
61:0:0
     RDKit          3D

 89 98  0  0  1  0  0  0  0  0999 V2000
  -28.7070  -21.5170   21.4800 C   0  0  0  0  0  3  0  0  0  0  0  0
  -28.3710  -23.0170   21.4490 C   0  0  0  0  0  3  0  0  0  0  0  0
  -28.6410  -23.0270   19.2450 C   0  0  0  0  0  3  0  0  0  0  0  0
  -29.0660  -20.5620   20.3890 C   0  0  0  0  0  0  0  0  0  0  0  0
  -28.9720  -21.5230   19.2960 C   0  0  0  0  0  0  0  0  0  0  0  0
  -28.2800  -24.0060   20.3280 C   0  0  0  0  0  0  0  0  0  0  0  0
  -29.5900  -19.1940   18.5310 C   0  0  0  0  0  0  0  0  0  0  0  0
  -29.3860  -20.6910   18.0940 C   0  0  0  0  0  2  0  0  0  0  0  0
  -29.7730  -18.8770   20.0560 C   0  0  0  0  0  3  0  0  0  0  0  0
  -29.6030  -18.3090   17.6670 O   0  0  0  0  0  0  0  0  0  0  0  0
  -30.3060  -15.7590   20.2020 C   0  0  0  0  0  0  0  0  0  0  0  0
  -30.4010  -13.2230   19.3530 C   0  0  0  0  0  2  0  0  0  0  0  0
  -29.4960  -12.8340   18.1490 C   0  0  0  0  0  2  0  0  0  0  0  0
  -28.0800  -12.4680   18.6210 C   0  0  0  0  0  2  0  0  0  0  0  0
  -27.5820  -13.4500   19.7050 C   0  0  0  0  0  3  0  0  0  0  0  0
  -28.6270  -13.7540   20.8050 C   0  0  0  0  0  2  0  0  0  0  0  0
  -29.7860  -14.3910   20.1360 N   0  0  0  0  0  0  0  0  0  0  0  0
  -31.5340  -15.6990   19.9950 O   0  0  0  0  0  0  0  0  0  0  0  0
  -29.5510  -17.1220   20.2830 N   0  0  0  0  0  0  0  0  0  0  0  0
  -28.5710  -16.9350   20.4290 H   0  0  0  0  0  0  0  0  0  0  0  0
  -25.2290  -13.9510   20.5130 C   0  0  0  0  0  0  0  0  0  0  0  0
  -24.1830  -13.1570   20.8880 C   0  0  0  0  0  0  0  0  0  0  0  0
  -24.6660  -11.8120   20.8310 C   0  0  0  0  0  0  0  0  0  0  0  0
  -26.2770  -13.0930   20.2410 N   0  0  0  0  0  0  0  0  0  0  0  0
  -25.9550  -11.7990   20.4990 N   0  0  0  0  0  0  0  0  0  0  0  0
  -23.9530  -10.5390   21.0110 C   0  0  0  0  0  0  0  0  0  0  0  0
  -24.3800   -9.5780   21.9520 C   0  0  0  0  0  3  0  0  0  0  0  0
  -23.6610   -8.3750   22.1240 C   0  0  0  0  0  3  0  0  0  0  0  0
  -22.5010   -8.1250   21.3540 C   0  0  0  0  0  0  0  0  0  0  0  0
  -22.0930   -9.0750   20.4020 C   0  0  0  0  0  3  0  0  0  0  0  0
  -22.8120  -10.2690   20.2280 C   0  0  0  0  0  3  0  0  0  0  0  0
  -21.7560   -6.9720   21.4340 O   0  0  0  0  0  0  0  0  0  0  0  0
  -21.6650   -6.2530   22.5990 C   0  0  0  0  0  0  0  0  0  0  0  0
  -21.1400   -6.8150   23.7830 C   0  0  0  0  0  3  0  0  0  0  0  0
  -21.0010   -6.0210   24.9370 C   0  0  0  0  0  3  0  0  0  0  0  0
  -21.3760   -4.6640   24.9090 C   0  0  0  0  0  0  0  0  0  0  0  0
  -21.8940   -4.1010   23.7300 C   0  0  0  0  0  3  0  0  0  0  0  0
  -22.0340   -4.8930   22.5770 C   0  0  0  0  0  0  0  0  0  0  0  0
  -22.5140   -4.3400   21.4370 F   0  0  0  0  0  0  0  0  0  0  0  0
  -21.2350   -3.8970   26.0160 F   0  0  0  0  0  0  0  0  0  0  0  0
  -22.7850  -13.6150   21.1780 C   0  0  0  0  0  0  0  0  0  0  0  0
  -22.0730  -12.9020   22.0420 N   0  0  0  0  0  0  0  0  0  0  0  0
  -22.3350  -14.6440   20.6740 O   0  0  0  0  0  0  0  0  0  0  0  0
  -22.4510  -12.0690   22.4690 H   0  0  0  0  0  0  0  0  0  0  0  0
  -21.1370  -13.1940   22.2820 H   0  0  0  0  0  0  0  0  0  0  0  0
  -25.3700  -15.3260   20.3460 N   0  0  0  0  0  0  0  0  0  0  0  0
  -24.5840  -15.9600   20.4480 H   0  0  0  0  0  0  0  0  0  0  0  0
  -26.1830  -15.7680   19.9380 H   0  0  0  0  0  0  0  0  0  0  0  0
  -28.2060  -25.6320   20.3340 O   0  0  0  0  0  0  0  0  0  0  0  0
  -24.6500  -31.9220   23.2330 C   0  0  0  0  0  0  0  0  0  0  0  0
  -27.1880  -26.8070   20.3100 C   0  0  0  0  0  0  0  0  0  0  0  0
  -23.4680  -30.5100   21.6040 C   0  0  0  0  0  3  0  0  0  0  0  0
  -24.9180  -28.8420   20.2170 C   0  0  0  0  0  0  0  0  0  0  0  0
  -26.0450  -30.6460   21.4930 C   0  0  0  0  0  2  0  0  0  0  0  0
  -26.1080  -29.2040   20.8570 C   0  0  0  0  0  0  0  0  0  0  0  0
  -27.2240  -28.2140   20.8730 C   0  0  0  0  0  3  0  0  0  0  0  0
  -25.9650  -26.6570   19.6070 C   0  0  0  0  0  3  0  0  0  0  0  0
  -24.8830  -27.5920   19.5700 C   0  0  0  0  0  3  0  0  0  0  0  0
  -23.7120  -29.7960   20.2420 C   0  0  0  0  0  2  0  0  0  0  0  0
  -24.7450  -31.0610   22.1630 N   0  0  0  0  0  0  0  0  0  0  0  0
  -23.5560  -32.2280   23.7360 O   0  0  0  0  0  0  0  0  0  0  0  0
  -22.7470  -29.5430   22.5830 C   0  0  0  0  0  0  0  0  0  0  0  0
  -21.4160  -29.3850   22.4510 N   0  0  0  0  0  0  0  0  0  0  0  0
  -23.3970  -28.9330   23.4340 O   0  0  0  0  0  0  0  0  0  0  0  0
  -20.9400  -29.9270   21.7430 H   0  0  0  0  0  0  0  0  0  0  0  0
  -18.0250  -28.1800   22.9620 C   0  0  0  0  0  0  0  0  0  0  0  0
  -20.5850  -28.4560   23.2290 C   0  0  0  0  0  3  0  0  0  0  0  0
  -20.6900  -27.0180   22.6700 C   0  0  0  0  0  2  0  0  0  0  0  0
  -19.5920  -26.6840   21.6540 C   0  0  0  0  0  2  0  0  0  0  0  0
  -18.2080  -26.8280   22.2930 C   0  0  0  0  0  2  0  0  0  0  0  0
  -19.1410  -28.9520   23.3870 C   0  0  0  0  0  0  0  0  0  0  0  0
  -18.9130  -30.2130   23.9790 C   0  0  0  0  0  3  0  0  0  0  0  0
  -17.6050  -30.7050   24.1470 C   0  0  0  0  0  3  0  0  0  0  0  0
  -16.5040  -29.9320   23.7340 C   0  0  0  0  0  3  0  0  0  0  0  0
  -16.7160  -28.6720   23.1490 C   0  0  0  0  0  3  0  0  0  0  0  0
  -25.9110  -32.5770   23.8750 C   0  0  0  0  0  3  0  0  0  0  0  0
  -25.5890  -33.9820   24.1970 N   0  0  0  0  0  0  0  0  0  0  0  0
  -25.9140  -35.0410   23.4440 C   0  0  0  0  0  0  0  0  0  0  0  0
  -26.5760  -34.9400   22.4080 O   0  0  0  0  0  0  0  0  0  0  0  0
  -24.9990  -34.1340   25.0010 H   0  0  0  0  0  0  0  0  0  0  0  0
  -24.1790  -36.8410   23.1260 C   0  0  0  0  0  1  0  0  0  0  0  0
  -25.4360  -36.4330   23.9120 C   0  0  0  0  0  3  0  0  0  0  0  0
  -27.5800  -37.3350   24.7080 C   0  0  0  0  0  1  0  0  0  0  0  0
  -26.4660  -37.4890   23.7760 N   0  0  0  0  0  0  0  0  0  0  0  0
  -26.0580  -38.4090   23.9180 H   0  0  0  0  0  0  0  0  0  0  0  0
  -26.4000  -31.8300   25.1780 C   0  0  1  0  0  0  0  0  0  0  0  0
  -25.2820  -31.6070   26.2260 C   0  0  0  0  0  1  0  0  0  0  0  0
  -26.9980  -30.4480   24.8350 C   0  0  0  0  0  1  0  0  0  0  0  0
  -27.5330  -32.6400   25.8530 C   0  0  0  0  0  1  0  0  0  0  0  0
  2  1  1  0
  3  5  2  0
  3  6  1  0
  4  1  2  0
  5  4  1  0
  6 49  1  0
  6  2  2  0
  7  9  1  0
  8  7  1  0
  8  5  1  0
  9 19  1  0
  9  4  1  0
 10  7  2  0
 11 19  1  0
 12 17  1  0
 13 14  1  0
 13 12  1  0
 15 14  1  0
 15 24  1  0
 15 16  1  0
 17 11  1  0
 17 16  1  0
 18 11  2  0
 19 20  1  0
 21 22  2  0
 22 41  1  0
 23 22  1  0
 23 26  1  0
 24 25  1  0
 24 21  1  0
 25 23  2  0
 26 27  1  0
 27 28  2  0
 29 32  1  0
 29 28  1  0
 30 29  2  0
 31 30  1  0
 31 26  2  0
 32 33  1  0
 33 34  1  0
 34 35  2  0
 36 35  1  0
 36 40  1  0
 37 36  2  0
 38 33  2  0
 38 37  1  0
 39 38  1  0
 41 42  1  0
 42 45  1  0
 42 44  1  0
 43 41  2  0
 46 47  1  0
 46 21  1  0
 48 46  1  0
 50 61  2  0
 51 49  1  0
 51 56  1  0
 52 60  1  0
 52 62  1  0
 53 59  1  0
 53 55  1  0
 54 60  1  0
 55 56  2  0
 55 54  1  0
 57 51  2  0
 58 57  1  0
 58 53  2  0
 59 52  1  0
 60 50  1  0
 62 64  2  0
 63 62  1  0
 65 63  1  0
 66 75  2  0
 66 71  1  0
 67 63  1  0
 67 71  1  0
 68 67  1  0
 69 70  1  0
 69 68  1  0
 70 66  1  0
 71 72  2  0
 72 73  1  0
 74 73  2  0
 75 74  1  0
 76 50  1  0
 76 77  1  0
 76 86  1  0
 77 80  1  0
 78 82  1  0
 78 77  1  0
 79 78  2  0
 82 81  1  0
 84 82  1  0
 84 85  1  0
 84 83  1  0
 86 89  1  1
 86 87  1  0
 88 86  1  0
M  ISO  4   6 101  11 100  19 100  49 101
M  END
>  <TORSDO>  (62) 
F 16

>  <SCORE>  (62) 
-16.064

>  <name>  (62) 
61

>  <ligand_id>  (62) 
61

>  <original_smiles>  (62) 
[H]c1c([H])c([H])c2c(c1[H])C([H])([H])C([H])([H])C([H])([H])C2([H])N([H])C(=O)C1([H])N(C(=O)C([H])(N([H])C(=O)C([H])(N([H])C([H])([H])[H])C([H])([H])[H])C(C([H])([H])[H])(C([H])([H])[H])C([H])([H])[H])C([H])([H])c2c([H])c(Oc3c([H])c([H])c4c(c3[H])C([H])([H])C(=O)C4([H])N([H])C(=O)N3C([H])([H])C([H])([H])C([H])([H])C([H])(n4nc(-c5c([H])c([H])c(Oc6c([H])c([H])c(F)c([H])c6F)c([H])c5[H])c(C(=O)N([H])[H])c4N([H])[H])C3([H])[H])c([H])c([H])c2C1([H])[H]

>  <smiles>  (62) 
[H]c1c([H])c([H])c2c(c1[H])C([H])([H])C([H])([H])C([H])([H])C2([H])N([H])C(=O)C1([H])N(C(=O)C([H])(N([H])C(=O)C([H])(N([H])C([H])([H])[H])C([H])([H])[H])C(C([H])([H])[H])(C([H])([H])[H])C([H])([H])[H])C([H])([H])c2c([H])c(Oc3c([H])c([H])c4c(c3[H])C([H])([H])C(=O)C4([H])N([H])C(=O)N3C([H])([H])C([H])([H])C([H])([H])C([H])(n4nc(-c5c([H])c([H])c(Oc6c([H])c([H])c(F)c([H])c6F)c([H])c5[H])c(C(=O)N([H])[H])c4N([H])[H])C3([H])[H])c([H])c([H])c2C1([H])[H]

$$$$
62:0:0
     RDKit          3D

 91 99  0  0  1  0  0  0  0  0999 V2000
  -28.1630  -24.0130   22.7970 C   0  0  0  0  0  3  0  0  0  0  0  0
  -28.4340  -22.7990   22.1320 C   0  0  0  0  0  3  0  0  0  0  0  0
  -28.1190  -25.2360   22.0990 C   0  0  0  0  0  3  0  0  0  0  0  0
  -28.6390  -24.0370   20.0470 C   0  0  0  0  0  3  0  0  0  0  0  0
  -28.6830  -22.7640   20.7420 C   0  0  0  0  0  0  0  0  0  0  0  0
  -28.3510  -25.2940   20.7090 C   0  0  0  0  0  0  0  0  0  0  0  0
  -28.3570  -26.5660   20.0890 O   0  0  0  0  0  0  0  0  0  0  0  0
  -24.6270  -31.9230   23.2400 C   0  0  0  0  0  0  0  0  0  0  0  0
  -27.2330  -27.4010   20.1370 C   0  0  0  0  0  0  0  0  0  0  0  0
  -23.4120  -30.5290   21.6010 C   0  0  0  0  0  3  0  0  0  0  0  0
  -24.8570  -28.9890   20.1560 C   0  0  0  0  0  0  0  0  0  0  0  0
  -25.9460  -30.8630   21.3940 C   0  0  0  0  0  2  0  0  0  0  0  0
  -26.0280  -29.4860   20.7450 C   0  0  0  0  0  0  0  0  0  0  0  0
  -27.2210  -28.7020   20.7280 C   0  0  0  0  0  3  0  0  0  0  0  0
  -26.0430  -26.9500   19.5310 C   0  0  0  0  0  3  0  0  0  0  0  0
  -24.8660  -27.7250   19.5410 C   0  0  0  0  0  3  0  0  0  0  0  0
  -23.6170  -29.8570   20.2170 C   0  0  0  0  0  2  0  0  0  0  0  0
  -24.6810  -31.1230   22.1350 N   0  0  0  0  0  0  0  0  0  0  0  0
  -23.5480  -32.1930   23.7870 O   0  0  0  0  0  0  0  0  0  0  0  0
  -22.7640  -29.5060   22.5630 C   0  0  0  0  0  0  0  0  0  0  0  0
  -21.4390  -29.3160   22.4410 N   0  0  0  0  0  0  0  0  0  0  0  0
  -23.4500  -28.8830   23.3780 O   0  0  0  0  0  0  0  0  0  0  0  0
  -20.9440  -29.8700   21.7560 H   0  0  0  0  0  0  0  0  0  0  0  0
  -18.0760  -28.0830   22.9400 C   0  0  0  0  0  0  0  0  0  0  0  0
  -20.6300  -28.3710   23.2110 C   0  0  0  0  0  3  0  0  0  0  0  0
  -20.7490  -26.9400   22.6370 C   0  0  0  0  0  2  0  0  0  0  0  0
  -19.6520  -26.6040   21.6230 C   0  0  0  0  0  2  0  0  0  0  0  0
  -18.2680  -26.7350   22.2660 C   0  0  0  0  0  2  0  0  0  0  0  0
  -19.1850  -28.8570   23.3690 C   0  0  0  0  0  0  0  0  0  0  0  0
  -18.9510  -30.1180   23.9600 C   0  0  0  0  0  3  0  0  0  0  0  0
  -17.6410  -30.6050   24.1260 C   0  0  0  0  0  3  0  0  0  0  0  0
  -16.5450  -29.8260   23.7120 C   0  0  0  0  0  3  0  0  0  0  0  0
  -16.7640  -28.5670   23.1250 C   0  0  0  0  0  3  0  0  0  0  0  0
  -25.9140  -32.5560   23.8540 C   0  0  0  0  0  3  0  0  0  0  0  0
  -25.6070  -33.9540   24.1860 N   0  0  0  0  0  0  0  0  0  0  0  0
  -25.9350  -35.0080   23.4260 C   0  0  0  0  0  0  0  0  0  0  0  0
  -26.5970  -34.9040   22.3900 O   0  0  0  0  0  0  0  0  0  0  0  0
  -25.0180  -34.1080   24.9910 H   0  0  0  0  0  0  0  0  0  0  0  0
  -24.2050  -36.8020   23.0860 C   0  0  0  0  0  1  0  0  0  0  0  0
  -25.4520  -36.3960   23.8880 C   0  0  0  0  0  3  0  0  0  0  0  0
  -27.5930  -37.2800   24.7040 C   0  0  0  0  0  1  0  0  0  0  0  0
  -26.4840  -37.4480   23.7680 N   0  0  0  0  0  0  0  0  0  0  0  0
  -26.0800  -38.3690   23.9180 H   0  0  0  0  0  0  0  0  0  0  0  0
  -26.4390  -31.7840   25.1270 C   0  0  1  0  0  0  0  0  0  0  0  0
  -25.3520  -31.5470   26.2020 C   0  0  0  0  0  1  0  0  0  0  0  0
  -27.0210  -30.4080   24.7320 C   0  0  0  0  0  1  0  0  0  0  0  0
  -27.5930  -32.5800   25.7810 C   0  0  0  0  0  1  0  0  0  0  0  0
  -28.8620  -21.3540   20.0380 C   0  0  0  0  0  2  0  0  0  0  0  0
  -31.1570  -20.5110   20.8550 C   0  0  0  0  0  1  0  0  0  0  0  0
  -29.6630  -20.1450   20.7520 C   0  0  0  0  0  3  0  0  0  0  0  0
  -29.4680  -18.7510   20.1390 N   0  0  0  0  0  4  0  0  0  0  0  0
  -28.4970  -18.5220   20.2850 H   0  0  0  0  0  0  0  0  0  0  0  0
  -29.5960  -18.8230   19.1430 H   0  0  0  0  0  0  0  0  0  0  0  0
  -30.2990  -17.5520   20.6220 C   0  0  0  0  0  2  0  0  0  0  0  0
  -29.6680  -16.0830   20.4400 C   0  0  0  0  0  2  0  0  0  0  0  0
  -30.5650  -14.7800   20.2090 C   0  0  0  0  0  0  0  0  0  0  0  0
  -30.3850  -12.5230   19.1690 C   0  0  0  0  0  2  0  0  0  0  0  0
  -29.4140  -12.6400   17.9690 C   0  0  0  0  0  2  0  0  0  0  0  0
  -27.9480  -12.4700   18.4200 C   0  0  0  0  0  2  0  0  0  0  0  0
  -27.6060  -13.3320   19.6640 C   0  0  0  0  0  3  0  0  0  0  0  0
  -28.6850  -13.1840   20.7570 C   0  0  0  0  0  2  0  0  0  0  0  0
  -29.9840  -13.5360   20.1660 N   0  0  0  0  0  0  0  0  0  0  0  0
  -31.7410  -14.9210   19.8570 O   0  0  0  0  0  0  0  0  0  0  0  0
  -25.2300  -13.9320   20.4340 C   0  0  0  0  0  0  0  0  0  0  0  0
  -24.1700  -13.1590   20.8230 C   0  0  0  0  0  0  0  0  0  0  0  0
  -24.6310  -11.8070   20.7790 C   0  0  0  0  0  0  0  0  0  0  0  0
  -26.2690  -13.0500   20.1760 N   0  0  0  0  0  0  0  0  0  0  0  0
  -25.9140  -11.7670   20.4450 N   0  0  0  0  0  0  0  0  0  0  0  0
  -23.9070  -10.5450   20.9790 C   0  0  0  0  0  0  0  0  0  0  0  0
  -24.3580   -9.5730   21.8980 C   0  0  0  0  0  3  0  0  0  0  0  0
  -23.6340   -8.3750   22.0860 C   0  0  0  0  0  3  0  0  0  0  0  0
  -22.4460   -8.1420   21.3530 C   0  0  0  0  0  0  0  0  0  0  0  0
  -22.0140   -9.1030   20.4240 C   0  0  0  0  0  3  0  0  0  0  0  0
  -22.7380  -10.2920   20.2330 C   0  0  0  0  0  3  0  0  0  0  0  0
  -21.6930   -6.9970   21.4520 O   0  0  0  0  0  0  0  0  0  0  0  0
  -21.6700   -6.2460   22.5990 C   0  0  0  0  0  0  0  0  0  0  0  0
  -21.2680   -6.7910   23.8380 C   0  0  0  0  0  3  0  0  0  0  0  0
  -21.1930   -5.9660   24.9780 C   0  0  0  0  0  3  0  0  0  0  0  0
  -21.5100   -4.5980   24.8810 C   0  0  0  0  0  0  0  0  0  0  0  0
  -21.9050   -4.0530   23.6470 C   0  0  0  0  0  3  0  0  0  0  0  0
  -21.9810   -4.8750   22.5080 C   0  0  0  0  0  0  0  0  0  0  0  0
  -22.3420   -4.3400   21.3170 F   0  0  0  0  0  0  0  0  0  0  0  0
  -21.4300   -3.8030   25.9740 F   0  0  0  0  0  0  0  0  0  0  0  0
  -22.7790  -13.6370   21.1230 C   0  0  0  0  0  0  0  0  0  0  0  0
  -22.0660  -12.9390   21.9990 N   0  0  0  0  0  0  0  0  0  0  0  0
  -22.3320  -14.6640   20.6130 O   0  0  0  0  0  0  0  0  0  0  0  0
  -22.4400  -12.1080   22.4330 H   0  0  0  0  0  0  0  0  0  0  0  0
  -21.1330  -13.2410   22.2420 H   0  0  0  0  0  0  0  0  0  0  0  0
  -25.3930  -15.3030   20.2600 N   0  0  0  0  0  0  0  0  0  0  0  0
  -24.6250  -15.9540   20.3800 H   0  0  0  0  0  0  0  0  0  0  0  0
  -26.2290  -15.7390   19.8960 H   0  0  0  0  0  0  0  0  0  0  0  0
  2  1  1  0
  3  1  2  0
  4  6  2  0
  4  5  1  0
  5  2  2  0
  6  3  1  0
  7  9  1  0
  7  6  1  0
  8 19  2  0
  9 14  1  0
 10 18  1  0
 10 20  1  0
 11 17  1  0
 11 13  1  0
 12 18  1  0
 13 12  1  0
 14 13  2  0
 15 16  1  0
 15  9  2  0
 16 11  2  0
 17 10  1  0
 18  8  1  0
 20 22  2  0
 21 20  1  0
 23 21  1  0
 24 33  2  0
 24 29  1  0
 25 21  1  0
 25 29  1  0
 26 25  1  0
 27 28  1  0
 27 26  1  0
 28 24  1  0
 29 30  2  0
 30 31  1  0
 32 31  2  0
 33 32  1  0
 34  8  1  0
 34 35  1  0
 34 44  1  0
 35 38  1  0
 36 40  1  0
 36 35  1  0
 37 36  2  0
 40 39  1  0
 42 40  1  0
 42 43  1  0
 42 41  1  0
 44 47  1  1
 44 45  1  0
 46 44  1  0
 48  5  1  0
 48 50  1  0
 50 49  1  0
 51 52  1  0
 51 54  1  0
 51 50  1  0
 53 51  1  0
 55 54  1  0
 56 55  1  0
 57 62  1  0
 58 59  1  0
 58 57  1  0
 60 59  1  0
 60 67  1  0
 60 61  1  0
 62 56  1  0
 62 61  1  0
 63 56  2  0
 64 65  2  0
 65 84  1  0
 66 65  1  0
 66 69  1  0
 67 64  1  0
 67 68  1  0
 68 66  2  0
 69 70  1  0
 70 71  2  0
 72 75  1  0
 72 71  1  0
 73 72  2  0
 74 73  1  0
 74 69  2  0
 75 76  1  0
 76 77  1  0
 77 78  2  0
 79 78  1  0
 79 83  1  0
 80 79  2  0
 81 76  2  0
 81 80  1  0
 82 81  1  0
 84 85  1  0
 85 88  1  0
 85 87  1  0
 86 84  2  0
 89 90  1  0
 89 64  1  0
 91 89  1  0
M  ISO  4   6 101   7 101  55 100  56 100
M  END
>  <TORSDO>  (63) 
F 21

>  <SCORE>  (63) 
-13.017

>  <name>  (63) 
62

>  <ligand_id>  (63) 
62

>  <original_smiles>  (63) 
[H]c1c([H])c([H])c2c(c1[H])C([H])([H])C([H])([H])C([H])([H])C2([H])N([H])C(=O)C1([H])N(C(=O)C([H])(N([H])C(=O)C([H])(N([H])C([H])([H])[H])C([H])([H])[H])C(C([H])([H])[H])(C([H])([H])[H])C([H])([H])[H])C([H])([H])c2c([H])c(Oc3c([H])c([H])c([H])c(C([H])([H])C([H])(C([H])([H])[H])[N+]([H])([H])C([H])([H])C([H])([H])C(=O)N4C([H])([H])C([H])([H])C([H])([H])C([H])(n5nc(-c6c([H])c([H])c(Oc7c([H])c([H])c(F)c([H])c7F)c([H])c6[H])c(C(=O)N([H])[H])c5N([H])[H])C4([H])[H])c3[H])c([H])c([H])c2C1([H])[H]

>  <smiles>  (63) 
[H]c1c([H])c([H])c2c(c1[H])C([H])([H])C([H])([H])C([H])([H])C2([H])N([H])C(=O)C1([H])N(C(=O)C([H])(N([H])C(=O)C([H])(N([H])C([H])([H])[H])C([H])([H])[H])C(C([H])([H])[H])(C([H])([H])[H])C([H])([H])[H])C([H])([H])c2c([H])c(Oc3c([H])c([H])c([H])c(C([H])([H])C([H])(C([H])([H])[H])[N+]([H])([H])C([H])([H])C([H])([H])C(=O)N4C([H])([H])C([H])([H])C([H])([H])C([H])(n5nc(-c6c([H])c([H])c(Oc7c([H])c([H])c(F)c([H])c7F)c([H])c6[H])c(C(=O)N([H])[H])c5N([H])[H])C4([H])[H])c3[H])c([H])c([H])c2C1([H])[H]

$$$$
63:0:0
     RDKit          3D

 92101  0  0  1  0  0  0  0  0999 V2000
  -28.0910  -23.5950   17.7150 C   0  0  0  0  0  3  0  0  0  0  0  0
  -28.1590  -24.8800   18.3200 C   0  0  0  0  0  3  0  0  0  0  0  0
  -28.4780  -23.9340   20.5960 C   0  0  0  0  0  3  0  0  0  0  0  0
  -28.2350  -22.5080   18.5800 C   0  0  0  0  0  0  0  0  0  0  0  0
  -28.5010  -22.6260   19.9920 C   0  0  0  0  0  0  0  0  0  0  0  0
  -28.3030  -25.0950   19.7290 C   0  0  0  0  0  0  0  0  0  0  0  0
  -28.1390  -21.0440   18.6780 C   0  0  0  0  0  0  0  0  0  0  0  0
  -28.3990  -21.0680   20.2600 C   0  0  0  0  0  3  0  0  0  0  0  0
  -27.9900  -20.1810   17.8100 O   0  0  0  0  0  0  0  0  0  0  0  0
  -29.5650  -20.1090   20.4460 N   0  0  0  0  0  4  0  0  0  0  0  0
  -30.1950  -20.5040   21.1240 H   0  0  0  0  0  0  0  0  0  0  0  0
  -30.0470  -20.0860   19.5610 H   0  0  0  0  0  0  0  0  0  0  0  0
  -29.2270  -18.6760   20.8640 C   0  0  0  0  0  3  0  0  0  0  0  0
  -30.1930  -17.4600   20.4380 C   0  0  0  0  0  3  0  0  0  0  0  0
  -29.8240  -15.9840   20.9710 C   0  0  0  0  0  2  0  0  0  0  0  0
  -30.6010  -14.6940   20.4480 C   0  0  0  0  0  0  0  0  0  0  0  0
  -30.4050  -12.4540   19.3520 C   0  0  0  0  0  2  0  0  0  0  0  0
  -29.4720  -12.5820   18.1280 C   0  0  0  0  0  2  0  0  0  0  0  0
  -27.9930  -12.4150   18.5390 C   0  0  0  0  0  2  0  0  0  0  0  0
  -27.6190  -13.2730   19.7770 C   0  0  0  0  0  3  0  0  0  0  0  0
  -28.6680  -13.1240   20.9020 C   0  0  0  0  0  2  0  0  0  0  0  0
  -29.9840  -13.4690   20.3440 N   0  0  0  0  0  0  0  0  0  0  0  0
  -31.7550  -14.8370   20.0370 O   0  0  0  0  0  0  0  0  0  0  0  0
  -25.2210  -13.8690   20.4700 C   0  0  0  0  0  0  0  0  0  0  0  0
  -24.1510  -13.0970   20.8400 C   0  0  0  0  0  0  0  0  0  0  0  0
  -24.6170  -11.7460   20.8260 C   0  0  0  0  0  0  0  0  0  0  0  0
  -26.2680  -12.9900   20.2520 N   0  0  0  0  0  0  0  0  0  0  0  0
  -25.9110  -11.7090   20.5260 N   0  0  0  0  0  0  0  0  0  0  0  0
  -23.8900  -10.4860   21.0190 C   0  0  0  0  0  0  0  0  0  0  0  0
  -24.3190   -9.5210   21.9570 C   0  0  0  0  0  3  0  0  0  0  0  0
  -23.5910   -8.3250   22.1390 C   0  0  0  0  0  3  0  0  0  0  0  0
  -22.4200   -8.0840   21.3830 C   0  0  0  0  0  0  0  0  0  0  0  0
  -22.0090   -9.0380   20.4340 C   0  0  0  0  0  3  0  0  0  0  0  0
  -22.7370  -10.2260   20.2510 C   0  0  0  0  0  3  0  0  0  0  0  0
  -21.6650   -6.9400   21.4740 O   0  0  0  0  0  0  0  0  0  0  0  0
  -21.6210   -6.1970   22.6260 C   0  0  0  0  0  0  0  0  0  0  0  0
  -21.2090   -6.7540   23.8560 C   0  0  0  0  0  3  0  0  0  0  0  0
  -21.1100   -5.9380   25.0000 C   0  0  0  0  0  3  0  0  0  0  0  0
  -21.4110   -4.5650   24.9160 C   0  0  0  0  0  0  0  0  0  0  0  0
  -21.8160   -4.0080   23.6900 C   0  0  0  0  0  3  0  0  0  0  0  0
  -21.9170   -4.8220   22.5470 C   0  0  0  0  0  0  0  0  0  0  0  0
  -22.2860   -4.2750   21.3640 F   0  0  0  0  0  0  0  0  0  0  0  0
  -21.3100   -3.7790   26.0120 F   0  0  0  0  0  0  0  0  0  0  0  0
  -22.7520  -13.5760   21.0920 C   0  0  0  0  0  0  0  0  0  0  0  0
  -22.0150  -12.8880   21.9580 N   0  0  0  0  0  0  0  0  0  0  0  0
  -22.3190  -14.5970   20.5590 O   0  0  0  0  0  0  0  0  0  0  0  0
  -22.3770  -12.0610   22.4100 H   0  0  0  0  0  0  0  0  0  0  0  0
  -21.0740  -13.1930   22.1710 H   0  0  0  0  0  0  0  0  0  0  0  0
  -25.3860  -15.2370   20.2810 N   0  0  0  0  0  0  0  0  0  0  0  0
  -24.6140  -15.8890   20.3590 H   0  0  0  0  0  0  0  0  0  0  0  0
  -26.2320  -15.6640   19.9290 H   0  0  0  0  0  0  0  0  0  0  0  0
  -28.3110  -26.4420   20.1830 O   0  0  0  0  0  0  0  0  0  0  0  0
  -24.6120  -31.8630   23.2190 C   0  0  0  0  0  0  0  0  0  0  0  0
  -27.1850  -27.2890   20.1370 C   0  0  0  0  0  0  0  0  0  0  0  0
  -23.3940  -30.4650   21.5910 C   0  0  0  0  0  3  0  0  0  0  0  0
  -24.8250  -28.9150   20.1500 C   0  0  0  0  0  0  0  0  0  0  0  0
  -25.9350  -30.7770   21.3890 C   0  0  0  0  0  2  0  0  0  0  0  0
  -26.0030  -29.4050   20.7290 C   0  0  0  0  0  0  0  0  0  0  0  0
  -27.1870  -28.6050   20.7050 C   0  0  0  0  0  3  0  0  0  0  0  0
  -25.9720  -26.8500   19.5590 C   0  0  0  0  0  3  0  0  0  0  0  0
  -24.8120  -27.6430   19.5590 C   0  0  0  0  0  3  0  0  0  0  0  0
  -23.5880  -29.7820   20.2130 C   0  0  0  0  0  2  0  0  0  0  0  0
  -24.6670  -31.0560   22.1190 N   0  0  0  0  0  0  0  0  0  0  0  0
  -23.5320  -32.1390   23.7620 O   0  0  0  0  0  0  0  0  0  0  0  0
  -22.7360  -29.4520   22.5570 C   0  0  0  0  0  0  0  0  0  0  0  0
  -21.4090  -29.2720   22.4340 N   0  0  0  0  0  0  0  0  0  0  0  0
  -23.4170  -28.8270   23.3750 O   0  0  0  0  0  0  0  0  0  0  0  0
  -20.9210  -29.8160   21.7360 H   0  0  0  0  0  0  0  0  0  0  0  0
  -18.0340  -28.0850   22.9640 C   0  0  0  0  0  0  0  0  0  0  0  0
  -20.5930  -28.3410   23.2160 C   0  0  0  0  0  3  0  0  0  0  0  0
  -20.6890  -26.9030   22.6540 C   0  0  0  0  0  2  0  0  0  0  0  0
  -19.5800  -26.5780   21.6460 C   0  0  0  0  0  2  0  0  0  0  0  0
  -18.2030  -26.7300   22.2960 C   0  0  0  0  0  2  0  0  0  0  0  0
  -19.1570  -28.8480   23.3820 C   0  0  0  0  0  0  0  0  0  0  0  0
  -18.9470  -30.1160   23.9680 C   0  0  0  0  0  3  0  0  0  0  0  0
  -17.6450  -30.6200   24.1420 C   0  0  0  0  0  3  0  0  0  0  0  0
  -16.5370  -29.8530   23.7410 C   0  0  0  0  0  3  0  0  0  0  0  0
  -16.7330  -28.5910   23.1540 C   0  0  0  0  0  3  0  0  0  0  0  0
  -25.9000  -32.4920   23.8350 C   0  0  0  0  0  3  0  0  0  0  0  0
  -26.4230  -31.7210   25.1090 C   0  0  1  0  0  0  0  0  0  0  0  0
  -25.3380  -31.4890   26.1860 C   0  0  0  0  0  1  0  0  0  0  0  0
  -27.0050  -30.3410   24.7200 C   0  0  0  0  0  1  0  0  0  0  0  0
  -27.5760  -32.5180   25.7630 C   0  0  0  0  0  1  0  0  0  0  0  0
  -25.5880  -33.8880   24.1730 N   0  0  0  0  0  0  0  0  0  0  0  0
  -25.9100  -34.9460   23.4200 C   0  0  0  0  0  0  0  0  0  0  0  0
  -26.5690  -34.8520   22.3810 O   0  0  0  0  0  0  0  0  0  0  0  0
  -25.0010  -34.0340   24.9820 H   0  0  0  0  0  0  0  0  0  0  0  0
  -24.1730  -36.7400   23.1080 C   0  0  0  0  0  1  0  0  0  0  0  0
  -25.4280  -36.3310   23.8960 C   0  0  0  0  0  3  0  0  0  0  0  0
  -27.5720  -37.2150   24.7000 C   0  0  0  0  0  1  0  0  0  0  0  0
  -26.4560  -37.3870   23.7720 N   0  0  0  0  0  0  0  0  0  0  0  0
  -26.0490  -38.3030   23.9300 H   0  0  0  0  0  0  0  0  0  0  0  0
  1  2  2  0
  1  4  1  0
  2  6  1  0
  4  7  1  0
  4  5  2  0
  5  8  1  0
  5  3  1  0
  6 52  1  0
  6  3  2  0
  7  8  1  0
  8 10  1  0
  9  7  2  0
 10 13  1  0
 10 11  1  0
 12 10  1  0
 14 13  2  0
 14 15  1  0
 16 15  1  0
 17 22  1  0
 18 19  1  0
 18 17  1  0
 20 19  1  0
 20 27  1  0
 20 21  1  0
 22 16  1  0
 22 21  1  0
 23 16  2  0
 24 25  2  0
 25 44  1  0
 26 25  1  0
 26 29  1  0
 27 24  1  0
 27 28  1  0
 28 26  2  0
 29 30  1  0
 30 31  2  0
 32 35  1  0
 32 31  1  0
 33 32  2  0
 34 33  1  0
 34 29  2  0
 35 36  1  0
 36 37  1  0
 37 38  2  0
 39 38  1  0
 39 43  1  0
 40 39  2  0
 41 36  2  0
 41 40  1  0
 42 41  1  0
 44 45  1  0
 45 48  1  0
 45 47  1  0
 46 44  2  0
 49 50  1  0
 49 24  1  0
 51 49  1  0
 53 64  2  0
 54 52  1  0
 54 59  1  0
 55 63  1  0
 55 65  1  0
 56 62  1  0
 56 58  1  0
 57 63  1  0
 58 57  1  0
 59 58  2  0
 60 54  2  0
 61 60  1  0
 61 56  2  0
 62 55  1  0
 63 53  1  0
 65 67  2  0
 66 65  1  0
 68 66  1  0
 69 78  2  0
 69 74  1  0
 70 66  1  0
 70 74  1  0
 71 70  1  0
 72 73  1  0
 72 71  1  0
 73 69  1  0
 74 75  2  0
 75 76  1  0
 77 76  2  0
 78 77  1  0
 79 53  1  0
 79 84  1  0
 79 80  1  0
 80 83  1  1
 80 81  1  0
 82 80  1  0
 84 87  1  0
 85 89  1  0
 85 84  1  0
 86 85  2  0
 89 88  1  0
 91 89  1  0
 91 92  1  0
 91 90  1  0
M  ISO  4   6 101  15 100  16 100  52 101
M  END
>  <TORSDO>  (64) 
F 20

>  <SCORE>  (64) 
-13.779

>  <name>  (64) 
63

>  <ligand_id>  (64) 
63

>  <original_smiles>  (64) 
[H]c1c([H])c([H])c2c(c1[H])C([H])([H])C([H])([H])C([H])([H])C2([H])N([H])C(=O)C1([H])N(C(=O)C([H])(N([H])C(=O)C([H])(N([H])C([H])([H])[H])C([H])([H])[H])C(C([H])([H])[H])(C([H])([H])[H])C([H])([H])[H])C([H])([H])c2c([H])c(Oc3c([H])c([H])c4c(c3[H])C([H])([N+]([H])([H])C([H])([H])C([H])([H])C([H])([H])C(=O)N3C([H])([H])C([H])([H])C([H])([H])C([H])(n5nc(-c6c([H])c([H])c(Oc7c([H])c([H])c(F)c([H])c7F)c([H])c6[H])c(C(=O)N([H])[H])c5N([H])[H])C3([H])[H])C4=O)c([H])c([H])c2C1([H])[H]

>  <smiles>  (64) 
[H]c1c([H])c([H])c2c(c1[H])C([H])([H])C([H])([H])C([H])([H])C2([H])N([H])C(=O)C1([H])N(C(=O)C([H])(N([H])C(=O)C([H])(N([H])C([H])([H])[H])C([H])([H])[H])C(C([H])([H])[H])(C([H])([H])[H])C([H])([H])[H])C([H])([H])c2c([H])c(Oc3c([H])c([H])c4c(c3[H])C([H])([N+]([H])([H])C([H])([H])C([H])([H])C([H])([H])C(=O)N3C([H])([H])C([H])([H])C([H])([H])C([H])(n5nc(-c6c([H])c([H])c(Oc7c([H])c([H])c(F)c([H])c7F)c([H])c6[H])c(C(=O)N([H])[H])c5N([H])[H])C3([H])[H])C4=O)c([H])c([H])c2C1([H])[H]

$$$$
64:0:0
     RDKit          3D

 91 99  0  0  1  0  0  0  0  0999 V2000
  -28.2540  -23.8400   23.5530 C   0  0  0  0  0  3  0  0  0  0  0  0
  -28.2490  -25.2280   23.5330 C   0  0  0  0  0  3  0  0  0  0  0  0
  -28.4190  -23.1330   22.3570 C   0  0  0  0  0  3  0  0  0  0  0  0
  -28.3310  -25.8910   22.3060 C   0  0  0  0  0  3  0  0  0  0  0  0
  -28.5880  -23.7230   21.0740 C   0  0  0  0  0  0  0  0  0  0  0  0
  -28.4190  -25.2530   21.0350 C   0  0  0  0  0  0  0  0  0  0  0  0
  -28.3570  -26.3260   20.0410 O   0  0  0  0  0  0  0  0  0  0  0  0
  -24.6560  -31.9450   23.1610 C   0  0  0  0  0  0  0  0  0  0  0  0
  -27.3200  -27.3410   20.0390 C   0  0  0  0  0  0  0  0  0  0  0  0
  -23.4820  -30.5680   21.4870 C   0  0  0  0  0  3  0  0  0  0  0  0
  -24.9610  -29.0470   20.0310 C   0  0  0  0  0  0  0  0  0  0  0  0
  -26.0310  -30.8820   21.3310 C   0  0  0  0  0  2  0  0  0  0  0  0
  -26.1320  -29.5040   20.6500 C   0  0  0  0  0  0  0  0  0  0  0  0
  -27.3150  -28.6720   20.6320 C   0  0  0  0  0  3  0  0  0  0  0  0
  -26.1220  -26.9860   19.3850 C   0  0  0  0  0  3  0  0  0  0  0  0
  -24.9680  -27.8020   19.3820 C   0  0  0  0  0  3  0  0  0  0  0  0
  -23.7170  -29.9210   20.0960 C   0  0  0  0  0  2  0  0  0  0  0  0
  -24.7420  -31.1530   22.0490 N   0  0  0  0  0  0  0  0  0  0  0  0
  -23.5640  -32.1990   23.6950 O   0  0  0  0  0  0  0  0  0  0  0  0
  -22.8170  -29.5300   22.4280 C   0  0  0  0  0  0  0  0  0  0  0  0
  -21.4940  -29.3290   22.2840 N   0  0  0  0  0  0  0  0  0  0  0  0
  -23.4950  -28.9080   23.2490 O   0  0  0  0  0  0  0  0  0  0  0  0
  -21.0030  -29.8870   21.5990 H   0  0  0  0  0  0  0  0  0  0  0  0
  -18.1400  -28.0300   22.7250 C   0  0  0  0  0  0  0  0  0  0  0  0
  -20.6880  -28.3590   23.0310 C   0  0  0  0  0  3  0  0  0  0  0  0
  -20.8360  -26.9380   22.4400 C   0  0  0  0  0  2  0  0  0  0  0  0
  -19.7570  -26.5990   21.4050 C   0  0  0  0  0  2  0  0  0  0  0  0
  -18.3640  -26.6960   22.0320 C   0  0  0  0  0  2  0  0  0  0  0  0
  -19.2330  -28.8170   23.1810 C   0  0  0  0  0  0  0  0  0  0  0  0
  -18.9700  -30.0640   23.7900 C   0  0  0  0  0  3  0  0  0  0  0  0
  -17.6490  -30.5240   23.9450 C   0  0  0  0  0  3  0  0  0  0  0  0
  -16.5720  -29.7350   23.5050 C   0  0  0  0  0  3  0  0  0  0  0  0
  -16.8190  -28.4890   22.9030 C   0  0  0  0  0  3  0  0  0  0  0  0
  -25.9220  -32.5880   23.8050 C   0  0  0  0  0  3  0  0  0  0  0  0
  -25.5920  -33.9780   24.1560 N   0  0  0  0  0  0  0  0  0  0  0  0
  -25.9290  -35.0510   23.4270 C   0  0  0  0  0  0  0  0  0  0  0  0
  -26.6150  -34.9730   22.4050 O   0  0  0  0  0  0  0  0  0  0  0  0
  -24.9820  -34.1110   24.9480 H   0  0  0  0  0  0  0  0  0  0  0  0
  -24.2010  -36.8480   23.0770 C   0  0  0  0  0  1  0  0  0  0  0  0
  -25.4250  -36.4270   23.9060 C   0  0  0  0  0  3  0  0  0  0  0  0
  -27.5330  -37.3060   24.8100 C   0  0  0  0  0  1  0  0  0  0  0  0
  -26.4550  -37.4870   23.8400 N   0  0  0  0  0  0  0  0  0  0  0  0
  -26.0410  -38.4020   23.9950 H   0  0  0  0  0  0  0  0  0  0  0  0
  -26.4320  -31.8080   25.0810 C   0  0  1  0  0  0  0  0  0  0  0  0
  -25.3270  -31.5410   26.1300 C   0  0  0  0  0  1  0  0  0  0  0  0
  -27.0420  -30.4460   24.6830 C   0  0  0  0  0  1  0  0  0  0  0  0
  -27.5600  -32.6130   25.7680 C   0  0  0  0  0  1  0  0  0  0  0  0
  -28.8260  -22.4630   20.0260 C   0  0  0  0  0  2  0  0  0  0  0  0
  -31.1630  -21.2820   19.9230 C   0  0  0  0  0  1  0  0  0  0  0  0
  -29.7250  -21.0390   20.4140 C   0  0  0  0  0  3  0  0  0  0  0  0
  -29.3010  -19.5420   20.0350 N   0  0  0  0  0  4  0  0  0  0  0  0
  -28.4340  -19.3750   20.5210 H   0  0  0  0  0  0  0  0  0  0  0  0
  -29.0650  -19.5460   19.0550 H   0  0  0  0  0  0  0  0  0  0  0  0
  -30.2090  -18.2390   20.2740 C   0  0  0  0  0  3  0  0  0  0  0  0
  -29.6510  -16.6290   20.2430 C   0  0  0  0  0  3  0  0  0  0  0  0
  -30.5220  -15.2050   20.0800 C   0  0  0  0  0  0  0  0  0  0  0  0
  -30.4150  -12.8310   19.1660 C   0  0  0  0  0  2  0  0  0  0  0  0
  -29.4570  -12.7830   17.9500 C   0  0  0  0  0  2  0  0  0  0  0  0
  -27.9990  -12.5780   18.4060 C   0  0  0  0  0  2  0  0  0  0  0  0
  -27.6180  -13.5070   19.5880 C   0  0  0  0  0  3  0  0  0  0  0  0
  -28.6920  -13.5170   20.6940 C   0  0  0  0  0  2  0  0  0  0  0  0
  -29.9610  -13.9240   20.0760 N   0  0  0  0  0  0  0  0  0  0  0  0
  -31.7190  -15.2670   19.7720 O   0  0  0  0  0  0  0  0  0  0  0  0
  -25.2620  -14.1090   20.3810 C   0  0  0  0  0  0  0  0  0  0  0  0
  -24.1960  -13.3460   20.7690 C   0  0  0  0  0  0  0  0  0  0  0  0
  -24.6430  -11.9900   20.7200 C   0  0  0  0  0  0  0  0  0  0  0  0
  -26.2870  -13.2200   20.1120 N   0  0  0  0  0  0  0  0  0  0  0  0
  -25.9270  -11.9390   20.3840 N   0  0  0  0  0  0  0  0  0  0  0  0
  -23.9050  -10.7360   20.9180 C   0  0  0  0  0  0  0  0  0  0  0  0
  -24.3190   -9.7770   21.8700 C   0  0  0  0  0  3  0  0  0  0  0  0
  -23.5830   -8.5880   22.0570 C   0  0  0  0  0  3  0  0  0  0  0  0
  -22.4170   -8.3470   21.2920 C   0  0  0  0  0  0  0  0  0  0  0  0
  -22.0210   -9.2940   20.3310 C   0  0  0  0  0  3  0  0  0  0  0  0
  -22.7580  -10.4750   20.1420 C   0  0  0  0  0  3  0  0  0  0  0  0
  -21.6540   -7.2090   21.3850 O   0  0  0  0  0  0  0  0  0  0  0  0
  -21.5630   -6.4970   22.5540 C   0  0  0  0  0  0  0  0  0  0  0  0
  -21.0730   -7.0770   23.7440 C   0  0  0  0  0  3  0  0  0  0  0  0
  -20.9320   -6.2900   24.9040 C   0  0  0  0  0  3  0  0  0  0  0  0
  -21.2710   -4.9240   24.8750 C   0  0  0  0  0  0  0  0  0  0  0  0
  -21.7520   -4.3440   23.6880 C   0  0  0  0  0  3  0  0  0  0  0  0
  -21.8950   -5.1280   22.5310 C   0  0  0  0  0  0  0  0  0  0  0  0
  -22.3400   -4.5580   21.3850 F   0  0  0  0  0  0  0  0  0  0  0  0
  -21.1290   -4.1660   25.9880 F   0  0  0  0  0  0  0  0  0  0  0  0
  -22.8110  -13.8380   21.0700 C   0  0  0  0  0  0  0  0  0  0  0  0
  -22.0940  -13.1480   21.9500 N   0  0  0  0  0  0  0  0  0  0  0  0
  -22.3740  -14.8690   20.5610 O   0  0  0  0  0  0  0  0  0  0  0  0
  -22.4610  -12.3140   22.3830 H   0  0  0  0  0  0  0  0  0  0  0  0
  -21.1640  -13.4570   22.1920 H   0  0  0  0  0  0  0  0  0  0  0  0
  -25.4430  -15.4780   20.2060 N   0  0  0  0  0  0  0  0  0  0  0  0
  -24.6920  -16.1480   20.3380 H   0  0  0  0  0  0  0  0  0  0  0  0
  -26.2920  -15.9010   19.8560 H   0  0  0  0  0  0  0  0  0  0  0  0
  2  1  1  0
  3  1  2  0
  4  2  2  0
  5  3  1  0
  6  5  2  0
  6  4  1  0
  7  6  1  0
  8 19  2  0
  9  7  1  0
  9 14  1  0
 10 18  1  0
 10 20  1  0
 11 17  1  0
 11 13  1  0
 12 18  1  0
 13 12  1  0
 14 13  2  0
 15  9  2  0
 16 15  1  0
 16 11  2  0
 17 10  1  0
 18  8  1  0
 20 22  2  0
 21 20  1  0
 23 21  1  0
 24 33  2  0
 24 29  1  0
 25 21  1  0
 25 29  1  0
 26 25  1  0
 27 28  1  0
 27 26  1  0
 28 24  1  0
 29 30  2  0
 30 31  1  0
 32 31  2  0
 33 32  1  0
 34  8  1  0
 34 35  1  0
 34 44  1  0
 35 38  1  0
 36 40  1  0
 36 35  1  0
 37 36  2  0
 40 39  1  0
 42 40  1  0
 42 43  1  0
 42 41  1  0
 44 47  1  1
 44 45  1  0
 46 44  1  0
 48 50  1  0
 48  5  1  0
 50 49  1  0
 51 54  1  0
 51 50  1  0
 51 52  1  0
 53 51  1  0
 55 54  2  0
 56 55  1  0
 57 62  1  0
 58 59  1  0
 58 57  1  0
 60 59  1  0
 60 67  1  0
 60 61  1  0
 62 56  1  0
 62 61  1  0
 63 56  2  0
 64 65  2  0
 65 84  1  0
 66 65  1  0
 66 69  1  0
 67 64  1  0
 67 68  1  0
 68 66  2  0
 69 70  1  0
 70 71  2  0
 72 75  1  0
 72 71  1  0
 73 72  2  0
 74 73  1  0
 74 69  2  0
 75 76  1  0
 76 77  1  0
 77 78  2  0
 79 78  1  0
 79 83  1  0
 80 79  2  0
 81 76  2  0
 81 80  1  0
 82 81  1  0
 84 85  1  0
 85 88  1  0
 85 87  1  0
 86 84  2  0
 89 90  1  0
 89 64  1  0
 91 89  1  0
M  ISO  4   6 101   7 101  55 100  56 100
M  END
>  <TORSDO>  (65) 
F 21

>  <SCORE>  (65) 
-12.864

>  <name>  (65) 
64

>  <ligand_id>  (65) 
64

>  <original_smiles>  (65) 
[H]c1c([H])c([H])c(C([H])([H])C([H])(C([H])([H])[H])[N+]([H])([H])C([H])([H])C([H])([H])C(=O)N2C([H])([H])C([H])([H])C([H])([H])C([H])(n3nc(-c4c([H])c([H])c(Oc5c([H])c([H])c(F)c([H])c5F)c([H])c4[H])c(C(=O)N([H])[H])c3N([H])[H])C2([H])[H])c(Oc2c([H])c([H])c3c(c2[H])C([H])([H])N(C(=O)C([H])(N([H])C(=O)C([H])(N([H])C([H])([H])[H])C([H])([H])[H])C(C([H])([H])[H])(C([H])([H])[H])C([H])([H])[H])C([H])(C(=O)N([H])C2([H])c4c([H])c([H])c([H])c([H])c4C([H])([H])C([H])([H])C2([H])[H])C3([H])[H])c1[H]

>  <smiles>  (65) 
[H]c1c([H])c([H])c(C([H])([H])C([H])(C([H])([H])[H])[N+]([H])([H])C([H])([H])C([H])([H])C(=O)N2C([H])([H])C([H])([H])C([H])([H])C([H])(n3nc(-c4c([H])c([H])c(Oc5c([H])c([H])c(F)c([H])c5F)c([H])c4[H])c(C(=O)N([H])[H])c3N([H])[H])C2([H])[H])c(Oc2c([H])c([H])c3c(c2[H])C([H])([H])N(C(=O)C([H])(N([H])C(=O)C([H])(N([H])C([H])([H])[H])C([H])([H])[H])C(C([H])([H])[H])(C([H])([H])[H])C([H])([H])[H])C([H])(C(=O)N([H])C2([H])c4c([H])c([H])c([H])c([H])c4C([H])([H])C([H])([H])C2([H])[H])C3([H])[H])c1[H]

$$$$
65:0:0
     RDKit          3D

 95104  0  0  1  0  0  0  0  0999 V2000
  -31.6380  -21.4530   19.7480 C   0  0  0  0  0  2  0  0  0  0  0  0
  -31.2410  -17.6720   19.1050 C   0  0  0  0  0  3  0  0  0  0  0  0
  -31.5300  -19.0420   18.9160 C   0  0  0  0  0  3  0  0  0  0  0  0
  -31.4210  -19.4310   21.3290 C   0  0  0  0  0  3  0  0  0  0  0  0
  -30.9500  -17.2090   20.4080 C   0  0  0  0  0  0  0  0  0  0  0  0
  -31.1180  -18.0620   21.4960 C   0  0  0  0  0  0  0  0  0  0  0  0
  -31.5490  -19.9450   20.0120 C   0  0  0  0  0  0  0  0  0  0  0  0
  -30.7650  -17.3610   22.7820 C   0  0  0  0  0  2  0  0  0  0  0  0
  -30.4750  -15.9020   22.3390 C   0  0  0  0  0  2  0  0  0  0  0  0
  -30.1890  -15.9290   20.8110 C   0  0  2  0  0  0  0  0  0  0  0  0
  -30.7210  -14.6100   20.1060 C   0  0  0  0  0  0  0  0  0  0  0  0
  -30.3280  -12.4710   18.9100 C   0  0  0  0  0  2  0  0  0  0  0  0
  -29.2980  -12.6730   17.7800 C   0  0  0  0  0  2  0  0  0  0  0  0
  -27.8670  -12.4580   18.3100 C   0  0  0  0  0  2  0  0  0  0  0  0
  -27.6010  -13.2600   19.6060 C   0  0  0  0  0  3  0  0  0  0  0  0
  -28.7480  -13.0620   20.6350 C   0  0  0  0  0  2  0  0  0  0  0  0
  -30.0130  -13.4380   19.9840 N   0  0  0  0  0  0  0  0  0  0  0  0
  -31.8300  -14.6970   19.5720 O   0  0  0  0  0  0  0  0  0  0  0  0
  -25.2460  -13.8630   20.4690 C   0  0  0  0  0  0  0  0  0  0  0  0
  -24.1990  -13.0790   20.8700 C   0  0  0  0  0  0  0  0  0  0  0  0
  -24.6600  -11.7320   20.7770 C   0  0  0  0  0  0  0  0  0  0  0  0
  -26.2800  -12.9870   20.1630 N   0  0  0  0  0  0  0  0  0  0  0  0
  -25.9320  -11.7000   20.4040 N   0  0  0  0  0  0  0  0  0  0  0  0
  -23.9470  -10.4640   20.9640 C   0  0  0  0  0  0  0  0  0  0  0  0
  -24.3930   -9.4990   21.8930 C   0  0  0  0  0  3  0  0  0  0  0  0
  -23.6800   -8.2940   22.0680 C   0  0  0  0  0  3  0  0  0  0  0  0
  -22.5090   -8.0470   21.3130 C   0  0  0  0  0  0  0  0  0  0  0  0
  -22.0810   -9.0010   20.3730 C   0  0  0  0  0  3  0  0  0  0  0  0
  -22.7950  -10.1990   20.1960 C   0  0  0  0  0  3  0  0  0  0  0  0
  -21.7680   -6.8940   21.3970 O   0  0  0  0  0  0  0  0  0  0  0  0
  -21.6790   -6.1830   22.5660 C   0  0  0  0  0  0  0  0  0  0  0  0
  -21.1870   -6.7650   23.7560 C   0  0  0  0  0  3  0  0  0  0  0  0
  -21.0450   -5.9800   24.9170 C   0  0  0  0  0  3  0  0  0  0  0  0
  -21.3870   -4.6140   24.8900 C   0  0  0  0  0  0  0  0  0  0  0  0
  -21.8740   -4.0320   23.7060 C   0  0  0  0  0  3  0  0  0  0  0  0
  -22.0150   -4.8140   22.5460 C   0  0  0  0  0  0  0  0  0  0  0  0
  -22.4630   -4.2450   21.4020 F   0  0  0  0  0  0  0  0  0  0  0  0
  -21.2440   -3.8580   26.0030 F   0  0  0  0  0  0  0  0  0  0  0  0
  -22.8190  -13.5480   21.2330 C   0  0  0  0  0  0  0  0  0  0  0  0
  -22.1420  -12.8210   22.1150 N   0  0  0  0  0  0  0  0  0  0  0  0
  -22.3530  -14.5880   20.7730 O   0  0  0  0  0  0  0  0  0  0  0  0
  -22.5340  -11.9770   22.5050 H   0  0  0  0  0  0  0  0  0  0  0  0
  -21.2210  -13.1150   22.4050 H   0  0  0  0  0  0  0  0  0  0  0  0
  -25.3810  -15.2380   20.3210 N   0  0  0  0  0  0  0  0  0  0  0  0
  -24.6070  -15.8780   20.4710 H   0  0  0  0  0  0  0  0  0  0  0  0
  -26.2110  -15.6970   19.9730 H   0  0  0  0  0  0  0  0  0  0  0  0
  -28.3120  -16.7530   19.1440 C   0  0  0  0  0  1  0  0  0  0  0  0
  -28.6900  -16.3110   20.5760 C   0  0  0  0  0  2  0  0  0  0  0  0
  -30.3870  -22.2500   20.2220 C   0  0  0  0  0  2  0  0  0  0  0  0
  -30.2910  -23.6270   19.6620 N   0  0  0  0  0  4  0  0  0  0  0  0
  -30.1450  -23.5410   18.6670 H   0  0  0  0  0  0  0  0  0  0  0  0
  -31.1740  -24.0970   19.7920 H   0  0  0  0  0  0  0  0  0  0  0  0
  -29.2070  -24.4800   20.2370 C   0  0  0  0  0  2  0  0  0  0  0  0
  -28.8660  -25.7280   19.3760 C   0  0  0  0  0  2  0  0  0  0  0  0
  -28.4960  -26.8330   20.2130 O   0  0  0  0  0  0  0  0  0  0  0  0
  -24.5740  -31.9040   23.2230 C   0  0  0  0  0  0  0  0  0  0  0  0
  -27.2710  -27.4730   20.1520 C   0  0  0  0  0  0  0  0  0  0  0  0
  -23.3770  -30.4900   21.5770 C   0  0  0  0  0  3  0  0  0  0  0  0
  -24.8450  -28.9470   20.1630 C   0  0  0  0  0  0  0  0  0  0  0  0
  -25.9010  -30.8560   21.3950 C   0  0  0  0  0  2  0  0  0  0  0  0
  -25.9920  -29.4830   20.7570 C   0  0  0  0  0  0  0  0  0  0  0  0
  -27.1960  -28.7490   20.7550 C   0  0  0  0  0  3  0  0  0  0  0  0
  -26.1020  -26.9390   19.5610 C   0  0  0  0  0  3  0  0  0  0  0  0
  -24.8940  -27.6730   19.5650 C   0  0  0  0  0  3  0  0  0  0  0  0
  -23.5940  -29.7970   20.2030 C   0  0  0  0  0  2  0  0  0  0  0  0
  -24.6330  -31.1000   22.1220 N   0  0  0  0  0  0  0  0  0  0  0  0
  -23.4900  -32.1760   23.7570 O   0  0  0  0  0  0  0  0  0  0  0  0
  -22.7250  -29.4750   22.5440 C   0  0  0  0  0  0  0  0  0  0  0  0
  -21.4020  -29.2870   22.4110 N   0  0  0  0  0  0  0  0  0  0  0  0
  -23.4070  -28.8580   23.3660 O   0  0  0  0  0  0  0  0  0  0  0  0
  -20.9130  -29.8350   21.7170 H   0  0  0  0  0  0  0  0  0  0  0  0
  -18.0300  -28.0800   22.8920 C   0  0  0  0  0  0  0  0  0  0  0  0
  -20.5840  -28.3490   23.1810 C   0  0  0  0  0  3  0  0  0  0  0  0
  -20.6960  -26.9150   22.6090 C   0  0  0  0  0  2  0  0  0  0  0  0
  -19.6020  -26.5850   21.5900 C   0  0  0  0  0  2  0  0  0  0  0  0
  -18.2160  -26.7290   22.2240 C   0  0  0  0  0  2  0  0  0  0  0  0
  -19.1430  -28.8480   23.3270 C   0  0  0  0  0  0  0  0  0  0  0  0
  -18.9140  -30.1140   23.9090 C   0  0  0  0  0  3  0  0  0  0  0  0
  -17.6060  -30.6120   24.0610 C   0  0  0  0  0  3  0  0  0  0  0  0
  -16.5090  -29.8390   23.6430 C   0  0  0  0  0  3  0  0  0  0  0  0
  -16.7210  -28.5750   23.0660 C   0  0  0  0  0  3  0  0  0  0  0  0
  -25.8580  -32.5380   23.8450 C   0  0  0  0  0  3  0  0  0  0  0  0
  -25.5490  -33.9360   24.1690 N   0  0  0  0  0  0  0  0  0  0  0  0
  -25.8930  -34.9870   23.4120 C   0  0  0  0  0  0  0  0  0  0  0  0
  -26.5750  -34.8790   22.3890 O   0  0  0  0  0  0  0  0  0  0  0  0
  -24.9440  -34.0950   24.9620 H   0  0  0  0  0  0  0  0  0  0  0  0
  -24.1780  -36.7830   23.0240 C   0  0  0  0  0  1  0  0  0  0  0  0
  -25.4020  -36.3760   23.8600 C   0  0  0  0  0  3  0  0  0  0  0  0
  -27.5230  -37.2520   24.7330 C   0  0  0  0  0  1  0  0  0  0  0  0
  -26.4420  -37.4250   23.7670 N   0  0  0  0  0  0  0  0  0  0  0  0
  -26.0360  -38.3470   23.9030 H   0  0  0  0  0  0  0  0  0  0  0  0
  -26.3750  -31.7720   25.1240 C   0  0  1  0  0  0  0  0  0  0  0  0
  -25.2800  -31.5330   26.1890 C   0  0  0  0  0  1  0  0  0  0  0  0
  -26.9660  -30.3950   24.7360 C   0  0  0  0  0  1  0  0  0  0  0  0
  -27.5230  -32.5700   25.7860 C   0  0  0  0  0  1  0  0  0  0  0  0
  1  7  1  0
  1 49  1  0
  2  5  1  0
  3  2  2  0
  3  7  1  0
  4  6  1  0
  5 10  1  0
  5  6  2  0
  6  8  1  0
  7  4  2  0
  9  8  1  0
 10 48  1  1
 10  9  1  0
 11 10  1  0
 12 17  1  0
 13 14  1  0
 13 12  1  0
 15 14  1  0
 15 22  1  0
 15 16  1  0
 17 11  1  0
 17 16  1  0
 18 11  2  0
 19 20  2  0
 20 39  1  0
 21 20  1  0
 21 24  1  0
 22 23  1  0
 22 19  1  0
 23 21  2  0
 24 25  1  0
 25 26  2  0
 27 30  1  0
 27 26  1  0
 28 27  2  0
 29 28  1  0
 29 24  2  0
 30 31  1  0
 31 32  1  0
 32 33  2  0
 34 33  1  0
 34 38  1  0
 35 34  2  0
 36 31  2  0
 36 35  1  0
 37 36  1  0
 39 40  1  0
 40 43  1  0
 40 42  1  0
 41 39  2  0
 44 19  1  0
 44 45  1  0
 46 44  1  0
 47 48  1  0
 50 52  1  0
 50 49  1  0
 50 53  1  0
 51 50  1  0
 54 55  1  0
 54 53  1  0
 56 67  2  0
 57 55  1  0
 57 62  1  0
 58 66  1  0
 58 68  1  0
 59 65  1  0
 59 61  1  0
 60 66  1  0
 61 60  1  0
 62 61  2  0
 63 64  1  0
 63 57  2  0
 64 59  2  0
 65 58  1  0
 66 56  1  0
 68 70  2  0
 69 68  1  0
 71 69  1  0
 72 81  2  0
 72 77  1  0
 73 69  1  0
 73 77  1  0
 74 73  1  0
 75 76  1  0
 75 74  1  0
 76 72  1  0
 77 78  2  0
 78 79  1  0
 80 79  2  0
 81 80  1  0
 82 56  1  0
 82 83  1  0
 82 92  1  0
 83 86  1  0
 84 88  1  0
 84 83  1  0
 85 84  2  0
 88 87  1  0
 90 88  1  0
 90 91  1  0
 90 89  1  0
 92 95  1  1
 92 93  1  0
 94 92  1  0
M  ISO  4  10 100  11 100  54 101  55 101
M  END
>  <TORSDO>  (66) 
F 22

>  <SCORE>  (66) 
-12.980

>  <name>  (66) 
65

>  <ligand_id>  (66) 
65

>  <original_smiles>  (66) 
[H]c1c([H])c([H])c2c(c1[H])C([H])([H])C([H])([H])C([H])([H])C2([H])N([H])C(=O)C1([H])N(C(=O)C([H])(N([H])C(=O)C([H])(N([H])C([H])([H])[H])C([H])([H])[H])C(C([H])([H])[H])(C([H])([H])[H])C([H])([H])[H])C([H])([H])c2c([H])c(OC([H])([H])C([H])([H])[N+]([H])([H])C([H])([H])C([H])([H])c3c([H])c([H])c4c(c3[H])C([H])([H])C([H])([H])C4(C(=O)N3C([H])([H])C([H])([H])C([H])([H])C([H])(n4nc(-c5c([H])c([H])c(Oc6c([H])c([H])c(F)c([H])c6F)c([H])c5[H])c(C(=O)N([H])[H])c4N([H])[H])C3([H])[H])C([H])([H])C([H])([H])[H])c([H])c([H])c2C1([H])[H]

>  <smiles>  (66) 
[H]c1c([H])c([H])c2c(c1[H])C([H])([H])C([H])([H])C([H])([H])C2([H])N([H])C(=O)C1([H])N(C(=O)C([H])(N([H])C(=O)C([H])(N([H])C([H])([H])[H])C([H])([H])[H])C(C([H])([H])[H])(C([H])([H])[H])C([H])([H])[H])C([H])([H])c2c([H])c(OC([H])([H])C([H])([H])[N+]([H])([H])C([H])([H])C([H])([H])c3c([H])c([H])c4c(c3[H])C([H])([H])C([H])([H])C4(C(=O)N3C([H])([H])C([H])([H])C([H])([H])C([H])(n4nc(-c5c([H])c([H])c(Oc6c([H])c([H])c(F)c([H])c6F)c([H])c5[H])c(C(=O)N([H])[H])c4N([H])[H])C3([H])[H])C([H])([H])C([H])([H])[H])c([H])c([H])c2C1([H])[H]

$$$$
66:0:0
     RDKit          3D

 89 97  0  0  1  0  0  0  0  0999 V2000
  -28.8300  -20.2700   19.8530 C   0  0  0  0  0  2  0  0  0  0  0  0
  -29.6680  -17.5430   19.8380 C   0  0  0  0  0  3  0  0  0  0  0  0
  -29.9690  -18.9630   21.7740 C   0  0  0  0  0  3  0  0  0  0  0  0
  -30.1930  -16.3210   20.5150 C   0  0  0  0  0  0  0  0  0  0  0  0
  -29.5220  -18.8960   20.4470 C   0  0  0  0  0  0  0  0  0  0  0  0
  -30.5020  -17.8500   22.4600 C   0  0  0  0  0  0  0  0  0  0  0  0
  -30.6140  -16.5570   21.8620 C   0  0  0  0  0  0  0  0  0  0  0  0
  -31.0200  -18.1110   23.8680 C   0  0  0  0  0  1  0  0  0  0  0  0
  -31.3250  -15.4580   22.6590 C   0  0  0  0  0  1  0  0  0  0  0  0
  -30.6230  -14.9300   19.8270 C   0  0  0  0  0  0  0  0  0  0  0  0
  -30.2750  -12.6330   18.8220 C   0  0  0  0  0  2  0  0  0  0  0  0
  -29.2620  -12.7120   17.6560 C   0  0  0  0  0  2  0  0  0  0  0  0
  -27.8320  -12.5280   18.1910 C   0  0  0  0  0  2  0  0  0  0  0  0
  -27.5540  -13.4050   19.4380 C   0  0  0  0  0  3  0  0  0  0  0  0
  -28.6910  -13.3470   20.4850 C   0  0  0  0  0  2  0  0  0  0  0  0
  -29.9410  -13.7090   19.8050 N   0  0  0  0  0  0  0  0  0  0  0  0
  -31.7280  -14.9400   19.2770 O   0  0  0  0  0  0  0  0  0  0  0  0
  -25.2380  -14.0040   20.3480 C   0  0  0  0  0  0  0  0  0  0  0  0
  -24.1870  -13.2380   20.7770 C   0  0  0  0  0  0  0  0  0  0  0  0
  -24.6250  -11.8820   20.6940 C   0  0  0  0  0  0  0  0  0  0  0  0
  -26.2490  -13.1150   20.0250 N   0  0  0  0  0  0  0  0  0  0  0  0
  -25.8920  -11.8310   20.2970 N   0  0  0  0  0  0  0  0  0  0  0  0
  -23.8900  -10.6280   20.9160 C   0  0  0  0  0  0  0  0  0  0  0  0
  -24.3540   -9.6480   21.8220 C   0  0  0  0  0  3  0  0  0  0  0  0
  -23.6170   -8.4620   22.0320 C   0  0  0  0  0  3  0  0  0  0  0  0
  -22.4020   -8.2490   21.3360 C   0  0  0  0  0  0  0  0  0  0  0  0
  -21.9570   -9.2170   20.4190 C   0  0  0  0  0  3  0  0  0  0  0  0
  -22.6950  -10.3940   20.2080 C   0  0  0  0  0  3  0  0  0  0  0  0
  -21.6320   -7.1160   21.4570 O   0  0  0  0  0  0  0  0  0  0  0  0
  -21.6090   -6.3830   22.6160 C   0  0  0  0  0  0  0  0  0  0  0  0
  -21.2540   -6.9600   23.8560 C   0  0  0  0  0  3  0  0  0  0  0  0
  -21.1740   -6.1570   25.0100 C   0  0  0  0  0  3  0  0  0  0  0  0
  -21.4380   -4.7750   24.9280 C   0  0  0  0  0  0  0  0  0  0  0  0
  -21.7860   -4.1970   23.6940 C   0  0  0  0  0  3  0  0  0  0  0  0
  -21.8660   -4.9990   22.5420 C   0  0  0  0  0  0  0  0  0  0  0  0
  -22.1810   -4.4350   21.3500 F   0  0  0  0  0  0  0  0  0  0  0  0
  -21.3550   -4.0010   26.0340 F   0  0  0  0  0  0  0  0  0  0  0  0
  -22.8230  -13.7370   21.1500 C   0  0  0  0  0  0  0  0  0  0  0  0
  -22.1490  -13.0510   22.0670 N   0  0  0  0  0  0  0  0  0  0  0  0
  -22.3620  -14.7680   20.6610 O   0  0  0  0  0  0  0  0  0  0  0  0
  -22.5320  -12.2130   22.4810 H   0  0  0  0  0  0  0  0  0  0  0  0
  -21.2380  -13.3710   22.3590 H   0  0  0  0  0  0  0  0  0  0  0  0
  -25.4130  -15.3730   20.1830 N   0  0  0  0  0  0  0  0  0  0  0  0
  -24.6810  -16.0480   20.3750 H   0  0  0  0  0  0  0  0  0  0  0  0
  -26.2680  -15.8010   19.8480 H   0  0  0  0  0  0  0  0  0  0  0  0
  -29.2650  -21.8730   20.1800 C   0  0  0  0  0  2  0  0  0  0  0  0
  -28.2660  -23.2320   20.3670 C   0  0  0  0  0  2  0  0  0  0  0  0
  -28.4490  -24.7710   19.6890 C   0  0  0  0  0  2  0  0  0  0  0  0
  -28.3080  -26.2050   20.2870 O   0  0  0  0  0  0  0  0  0  0  0  0
  -24.6590  -31.8690   23.2120 C   0  0  0  0  0  0  0  0  0  0  0  0
  -27.2250  -27.1490   20.1750 C   0  0  0  0  0  0  0  0  0  0  0  0
  -23.4510  -30.4700   21.5780 C   0  0  0  0  0  3  0  0  0  0  0  0
  -24.8940  -28.8870   20.1490 C   0  0  0  0  0  0  0  0  0  0  0  0
  -26.0030  -30.7350   21.4050 C   0  0  0  0  0  2  0  0  0  0  0  0
  -26.0720  -29.3400   20.7530 C   0  0  0  0  0  0  0  0  0  0  0  0
  -27.2330  -28.4830   20.7530 C   0  0  0  0  0  3  0  0  0  0  0  0
  -26.0200  -26.7860   19.5390 C   0  0  0  0  0  3  0  0  0  0  0  0
  -24.8800  -27.6260   19.5290 C   0  0  0  0  0  3  0  0  0  0  0  0
  -23.6660  -29.7850   20.2000 C   0  0  0  0  0  2  0  0  0  0  0  0
  -24.7240  -31.0460   22.1200 N   0  0  0  0  0  0  0  0  0  0  0  0
  -23.5750  -32.1600   23.7400 O   0  0  0  0  0  0  0  0  0  0  0  0
  -22.7730  -29.4690   22.5460 C   0  0  0  0  0  0  0  0  0  0  0  0
  -21.4440  -29.3070   22.4260 N   0  0  0  0  0  0  0  0  0  0  0  0
  -23.4450  -28.8410   23.3680 O   0  0  0  0  0  0  0  0  0  0  0  0
  -20.9610  -29.8620   21.7340 H   0  0  0  0  0  0  0  0  0  0  0  0
  -18.0590  -28.1250   22.9390 C   0  0  0  0  0  0  0  0  0  0  0  0
  -20.6210  -28.3770   23.2030 C   0  0  0  0  0  3  0  0  0  0  0  0
  -20.7150  -26.9430   22.6300 C   0  0  0  0  0  2  0  0  0  0  0  0
  -19.6090  -26.6240   21.6190 C   0  0  0  0  0  2  0  0  0  0  0  0
  -18.2290  -26.7750   22.2640 C   0  0  0  0  0  2  0  0  0  0  0  0
  -19.1820  -28.8850   23.3650 C   0  0  0  0  0  0  0  0  0  0  0  0
  -18.9670  -30.1490   23.9550 C   0  0  0  0  0  3  0  0  0  0  0  0
  -17.6620  -30.6530   24.1260 C   0  0  0  0  0  3  0  0  0  0  0  0
  -16.5560  -29.8890   23.7170 C   0  0  0  0  0  3  0  0  0  0  0  0
  -16.7550  -28.6280   23.1280 C   0  0  0  0  0  3  0  0  0  0  0  0
  -25.9410  -32.5000   23.8380 C   0  0  0  0  0  3  0  0  0  0  0  0
  -26.4640  -31.7220   25.1090 C   0  0  1  0  0  0  0  0  0  0  0  0
  -25.3750  -31.4820   26.1790 C   0  0  0  0  0  1  0  0  0  0  0  0
  -27.0450  -30.3460   24.7120 C   0  0  0  0  0  1  0  0  0  0  0  0
  -27.6210  -32.5110   25.7690 C   0  0  0  0  0  1  0  0  0  0  0  0
  -25.6330  -33.8960   24.1850 N   0  0  0  0  0  0  0  0  0  0  0  0
  -25.9560  -34.9600   23.4370 C   0  0  0  0  0  0  0  0  0  0  0  0
  -26.6140  -34.8690   22.3970 O   0  0  0  0  0  0  0  0  0  0  0  0
  -25.0500  -34.0440   24.9950 H   0  0  0  0  0  0  0  0  0  0  0  0
  -24.2170  -36.7540   23.1350 C   0  0  0  0  0  1  0  0  0  0  0  0
  -25.4740  -36.3410   23.9190 C   0  0  0  0  0  3  0  0  0  0  0  0
  -27.6210  -37.2190   24.7220 C   0  0  0  0  0  1  0  0  0  0  0  0
  -26.5000  -37.4000   23.8050 N   0  0  0  0  0  0  0  0  0  0  0  0
  -26.0920  -38.3140   23.9830 H   0  0  0  0  0  0  0  0  0  0  0  0
  1 46  1  0
  1  5  1  0
  2  5  2  0
  2  4  1  0
  3  6  2  0
  4  7  2  0
  5  3  1  0
  6  8  1  0
  7  6  1  0
  7  9  1  0
 10  4  1  0
 11 16  1  0
 12 13  1  0
 12 11  1  0
 14 13  1  0
 14 21  1  0
 14 15  1  0
 16 10  1  0
 16 15  1  0
 17 10  2  0
 18 19  2  0
 19 38  1  0
 20 19  1  0
 20 23  1  0
 21 22  1  0
 21 18  1  0
 22 20  2  0
 23 24  1  0
 24 25  2  0
 26 29  1  0
 26 25  1  0
 27 26  2  0
 28 27  1  0
 28 23  2  0
 29 30  1  0
 30 31  1  0
 31 32  2  0
 33 32  1  0
 33 37  1  0
 34 33  2  0
 35 30  2  0
 35 34  1  0
 36 35  1  0
 38 39  1  0
 39 42  1  0
 39 41  1  0
 40 38  2  0
 43 18  1  0
 43 44  1  0
 45 43  1  0
 46 47  1  0
 48 49  1  0
 48 47  1  0
 50 61  2  0
 51 49  1  0
 51 56  1  0
 52 60  1  0
 52 62  1  0
 53 59  1  0
 53 55  1  0
 54 60  1  0
 55 54  1  0
 56 55  2  0
 57 51  2  0
 58 57  1  0
 58 53  2  0
 59 52  1  0
 60 50  1  0
 62 64  2  0
 63 62  1  0
 65 63  1  0
 66 75  2  0
 66 71  1  0
 67 63  1  0
 67 71  1  0
 68 67  1  0
 69 70  1  0
 69 68  1  0
 70 66  1  0
 71 72  2  0
 72 73  1  0
 74 73  2  0
 75 74  1  0
 76 50  1  0
 76 81  1  0
 76 77  1  0
 77 80  1  1
 77 78  1  0
 79 77  1  0
 81 84  1  0
 82 86  1  0
 82 81  1  0
 83 82  2  0
 86 85  1  0
 88 86  1  0
 88 89  1  0
 88 87  1  0
M  ISO  4   4 100  10 100  48 101  49 101
M  END
>  <TORSDO>  (67) 
F 20

>  <SCORE>  (67) 
-12.106

>  <name>  (67) 
66

>  <ligand_id>  (67) 
66

>  <original_smiles>  (67) 
[H]c1c([H])c([H])c2c(c1[H])C([H])([H])C([H])([H])C([H])([H])C2([H])N([H])C(=O)C1([H])N(C(=O)C([H])(N([H])C(=O)C([H])(N([H])C([H])([H])[H])C([H])([H])[H])C(C([H])([H])[H])(C([H])([H])[H])C([H])([H])[H])C([H])([H])c2c([H])c(OC([H])([H])C([H])([H])C([H])([H])C([H])([H])c3c([H])c(C(=O)N4C([H])([H])C([H])([H])C([H])([H])C([H])(n5nc(-c6c([H])c([H])c(Oc7c([H])c([H])c(F)c([H])c7F)c([H])c6[H])c(C(=O)N([H])[H])c5N([H])[H])C4([H])[H])c(C([H])([H])[H])c(C([H])([H])[H])c3[H])c([H])c([H])c2C1([H])[H]

>  <smiles>  (67) 
[H]c1c([H])c([H])c2c(c1[H])C([H])([H])C([H])([H])C([H])([H])C2([H])N([H])C(=O)C1([H])N(C(=O)C([H])(N([H])C(=O)C([H])(N([H])C([H])([H])[H])C([H])([H])[H])C(C([H])([H])[H])(C([H])([H])[H])C([H])([H])[H])C([H])([H])c2c([H])c(OC([H])([H])C([H])([H])C([H])([H])C([H])([H])c3c([H])c(C(=O)N4C([H])([H])C([H])([H])C([H])([H])C([H])(n5nc(-c6c([H])c([H])c(Oc7c([H])c([H])c(F)c([H])c7F)c([H])c6[H])c(C(=O)N([H])[H])c5N([H])[H])C4([H])[H])c(C([H])([H])[H])c(C([H])([H])[H])c3[H])c([H])c([H])c2C1([H])[H]

$$$$
67:0:0
     RDKit          3D

 90 98  0  0  1  0  0  0  0  0999 V2000
  -28.3840  -22.1560   21.6780 C   0  0  0  0  0  0  0  0  0  0  0  0
  -28.3530  -23.4350   22.5480 C   0  0  0  0  0  2  0  0  0  0  0  0
  -28.6960  -24.7750   21.8250 C   0  0  0  0  0  2  0  0  0  0  0  0
  -28.7280  -23.5630   19.5640 C   0  0  0  0  0  2  0  0  0  0  0  0
  -29.1970  -22.1720   20.3630 C   0  0  0  0  0  3  0  0  0  0  0  0
  -28.1680  -24.9120   20.3830 C   0  0  0  0  0  3  0  0  0  0  0  0
  -27.7290  -21.1840   22.0560 O   0  0  0  0  0  0  0  0  0  0  0  0
  -29.2110  -20.7310   19.6720 N   0  0  0  0  0  4  0  0  0  0  0  0
  -29.8030  -20.8080   18.8600 H   0  0  0  0  0  0  0  0  0  0  0  0
  -28.2850  -20.5700   19.3190 H   0  0  0  0  0  0  0  0  0  0  0  0
  -29.6350  -19.3910   20.4090 C   0  0  0  0  0  3  0  0  0  0  0  0
  -29.8640  -17.9050   19.6580 C   0  0  0  0  0  3  0  0  0  0  0  0
  -29.9800  -16.4630   20.4970 C   0  0  0  0  0  2  0  0  0  0  0  0
  -30.6810  -15.0750   19.9610 C   0  0  0  0  0  0  0  0  0  0  0  0
  -30.5000  -12.7480   18.9780 C   0  0  0  0  0  2  0  0  0  0  0  0
  -29.5290  -12.7660   17.7670 C   0  0  0  0  0  2  0  0  0  0  0  0
  -28.0640  -12.6200   18.2360 C   0  0  0  0  0  2  0  0  0  0  0  0
  -27.7220  -13.5030   19.4720 C   0  0  0  0  0  3  0  0  0  0  0  0
  -28.8170  -13.4470   20.5550 C   0  0  0  0  0  2  0  0  0  0  0  0
  -30.0840  -13.8250   19.9230 N   0  0  0  0  0  0  0  0  0  0  0  0
  -31.8320  -15.1520   19.5200 O   0  0  0  0  0  0  0  0  0  0  0  0
  -25.3610  -14.0670   20.2860 C   0  0  0  0  0  0  0  0  0  0  0  0
  -24.3130  -13.2850   20.6800 C   0  0  0  0  0  0  0  0  0  0  0  0
  -24.7900  -11.9360   20.6450 C   0  0  0  0  0  0  0  0  0  0  0  0
  -26.4040  -13.1960   20.0130 N   0  0  0  0  0  0  0  0  0  0  0  0
  -26.0690  -11.9100   20.2980 N   0  0  0  0  0  0  0  0  0  0  0  0
  -24.0820  -10.6700   20.8610 C   0  0  0  0  0  0  0  0  0  0  0  0
  -24.5250   -9.7230   21.8140 C   0  0  0  0  0  3  0  0  0  0  0  0
  -23.8040   -8.5280   22.0220 C   0  0  0  0  0  3  0  0  0  0  0  0
  -22.6330   -8.2660   21.2780 C   0  0  0  0  0  0  0  0  0  0  0  0
  -22.2090   -9.2010   20.3170 C   0  0  0  0  0  3  0  0  0  0  0  0
  -22.9290  -10.3870   20.1060 C   0  0  0  0  0  3  0  0  0  0  0  0
  -21.8850   -7.1190   21.3910 O   0  0  0  0  0  0  0  0  0  0  0  0
  -21.8250   -6.4110   22.5660 C   0  0  0  0  0  0  0  0  0  0  0  0
  -21.3680   -6.9940   23.7650 C   0  0  0  0  0  3  0  0  0  0  0  0
  -21.2570   -6.2110   24.9340 C   0  0  0  0  0  3  0  0  0  0  0  0
  -21.5940   -4.8450   24.8980 C   0  0  0  0  0  0  0  0  0  0  0  0
  -22.0490   -4.2610   23.7050 C   0  0  0  0  0  3  0  0  0  0  0  0
  -22.1620   -5.0410   22.5390 C   0  0  0  0  0  0  0  0  0  0  0  0
  -22.5780   -4.4700   21.3850 F   0  0  0  0  0  0  0  0  0  0  0  0
  -21.4840   -4.0890   26.0160 F   0  0  0  0  0  0  0  0  0  0  0  0
  -22.9230  -13.7510   20.9820 C   0  0  0  0  0  0  0  0  0  0  0  0
  -22.2350  -13.0590   21.8850 N   0  0  0  0  0  0  0  0  0  0  0  0
  -22.4620  -14.7670   20.4610 O   0  0  0  0  0  0  0  0  0  0  0  0
  -22.6350  -12.2400   22.3250 H   0  0  0  0  0  0  0  0  0  0  0  0
  -21.3030  -13.3440   22.1500 H   0  0  0  0  0  0  0  0  0  0  0  0
  -25.4960  -15.4360   20.1080 N   0  0  0  0  0  0  0  0  0  0  0  0
  -24.7040  -16.0480   20.2770 H   0  0  0  0  0  0  0  0  0  0  0  0
  -26.2990  -15.9190   19.7280 H   0  0  0  0  0  0  0  0  0  0  0  0
  -28.3620  -26.4070   20.0110 O   0  0  0  0  0  0  0  0  0  0  0  0
  -24.6970  -31.9650   23.2280 C   0  0  0  0  0  0  0  0  0  0  0  0
  -27.2810  -27.3520   20.0590 C   0  0  0  0  0  0  0  0  0  0  0  0
  -23.4850  -30.5870   21.5830 C   0  0  0  0  0  3  0  0  0  0  0  0
  -24.9290  -29.0510   20.1110 C   0  0  0  0  0  0  0  0  0  0  0  0
  -26.0380  -30.8770   21.3970 C   0  0  0  0  0  2  0  0  0  0  0  0
  -26.1150  -29.5050   20.7050 C   0  0  0  0  0  0  0  0  0  0  0  0
  -27.2940  -28.6740   20.6570 C   0  0  0  0  0  3  0  0  0  0  0  0
  -26.0690  -26.9890   19.4420 C   0  0  0  0  0  3  0  0  0  0  0  0
  -24.9170  -27.8040   19.4670 C   0  0  0  0  0  3  0  0  0  0  0  0
  -23.6950  -29.9370   20.1890 C   0  0  0  0  0  2  0  0  0  0  0  0
  -24.7600  -31.1620   22.1220 N   0  0  0  0  0  0  0  0  0  0  0  0
  -23.6170  -32.2280   23.7740 O   0  0  0  0  0  0  0  0  0  0  0  0
  -22.8290  -29.5560   22.5330 C   0  0  0  0  0  0  0  0  0  0  0  0
  -21.5050  -29.3590   22.4030 N   0  0  0  0  0  0  0  0  0  0  0  0
  -23.5120  -28.9400   23.3550 O   0  0  0  0  0  0  0  0  0  0  0  0
  -21.0090  -29.9040   21.7120 H   0  0  0  0  0  0  0  0  0  0  0  0
  -18.1510  -28.0770   22.8830 C   0  0  0  0  0  0  0  0  0  0  0  0
  -20.7010  -28.4000   23.1640 C   0  0  0  0  0  3  0  0  0  0  0  0
  -20.8380  -26.9730   22.5860 C   0  0  0  0  0  2  0  0  0  0  0  0
  -19.7520  -26.6300   21.5620 C   0  0  0  0  0  2  0  0  0  0  0  0
  -18.3630  -26.7360   22.2000 C   0  0  0  0  0  2  0  0  0  0  0  0
  -19.2490  -28.8660   23.3200 C   0  0  0  0  0  0  0  0  0  0  0  0
  -18.9940  -30.1200   23.9170 C   0  0  0  0  0  3  0  0  0  0  0  0
  -17.6770  -30.5840   24.0850 C   0  0  0  0  0  3  0  0  0  0  0  0
  -16.5940  -29.7930   23.6640 C   0  0  0  0  0  3  0  0  0  0  0  0
  -16.8310  -28.5430   23.0670 C   0  0  0  0  0  3  0  0  0  0  0  0
  -25.9820  -32.5940   23.8490 C   0  0  0  0  0  3  0  0  0  0  0  0
  -26.5040  -31.8190   25.1240 C   0  0  1  0  0  0  0  0  0  0  0  0
  -25.4160  -31.5790   26.1960 C   0  0  0  0  0  1  0  0  0  0  0  0
  -27.0910  -30.4400   24.7420 C   0  0  0  0  0  1  0  0  0  0  0  0
  -27.6530  -32.6180   25.7810 C   0  0  0  0  0  1  0  0  0  0  0  0
  -25.6680  -33.9890   24.1900 N   0  0  0  0  0  0  0  0  0  0  0  0
  -25.9900  -35.0520   23.4390 C   0  0  0  0  0  0  0  0  0  0  0  0
  -26.6470  -34.9600   22.4010 O   0  0  0  0  0  0  0  0  0  0  0  0
  -25.0810  -34.1360   24.9980 H   0  0  0  0  0  0  0  0  0  0  0  0
  -24.2500  -36.8430   23.1180 C   0  0  0  0  0  1  0  0  0  0  0  0
  -25.5020  -36.4350   23.9120 C   0  0  0  0  0  3  0  0  0  0  0  0
  -27.6390  -37.3230   24.7330 C   0  0  0  0  0  1  0  0  0  0  0  0
  -26.5290  -37.4920   23.7990 N   0  0  0  0  0  0  0  0  0  0  0  0
  -26.1200  -38.4090   23.9550 H   0  0  0  0  0  0  0  0  0  0  0  0
  1  7  2  0
  1  2  1  0
  3  2  1  0
  4  5  1  0
  4  6  1  0
  5  8  1  0
  5  1  1  0
  6 50  1  0
  6  3  1  0
  8 11  1  0
  9  8  1  0
 10  8  1  0
 12 11  2  0
 12 13  1  0
 14 13  1  0
 15 20  1  0
 16 17  1  0
 16 15  1  0
 18 17  1  0
 18 25  1  0
 18 19  1  0
 20 14  1  0
 20 19  1  0
 21 14  2  0
 22 23  2  0
 23 42  1  0
 24 23  1  0
 24 27  1  0
 25 22  1  0
 25 26  1  0
 26 24  2  0
 27 28  1  0
 28 29  2  0
 30 33  1  0
 30 29  1  0
 31 30  2  0
 32 31  1  0
 32 27  2  0
 33 34  1  0
 34 35  1  0
 35 36  2  0
 37 36  1  0
 37 41  1  0
 38 37  2  0
 39 34  2  0
 39 38  1  0
 40 39  1  0
 42 43  1  0
 43 46  1  0
 43 45  1  0
 44 42  2  0
 47 48  1  0
 47 22  1  0
 49 47  1  0
 50 52  1  0
 51 62  2  0
 52 57  1  0
 53 61  1  0
 53 63  1  0
 54 60  1  0
 54 56  1  0
 55 61  1  0
 56 55  1  0
 57 56  2  0
 58 59  1  0
 58 52  2  0
 59 54  2  0
 60 53  1  0
 61 51  1  0
 63 65  2  0
 64 63  1  0
 66 64  1  0
 67 76  2  0
 67 72  1  0
 68 64  1  0
 68 72  1  0
 69 68  1  0
 70 71  1  0
 70 69  1  0
 71 67  1  0
 72 73  2  0
 73 74  1  0
 75 74  2  0
 76 75  1  0
 77 51  1  0
 77 82  1  0
 77 78  1  0
 78 81  1  1
 78 79  1  0
 80 78  1  0
 82 85  1  0
 83 87  1  0
 83 82  1  0
 84 83  2  0
 87 86  1  0
 89 87  1  0
 89 90  1  0
 89 88  1  0
M  ISO  4   6 101  13 100  14 100  50 101
M  END
>  <TORSDO>  (68) 
F 20

>  <SCORE>  (68) 
-12.560

>  <name>  (68) 
67

>  <ligand_id>  (68) 
67

>  <original_smiles>  (68) 
[H]c1c([H])c([H])c2c(c1[H])C([H])([H])C([H])([H])C([H])([H])C2([H])N([H])C(=O)C1([H])N(C(=O)C([H])(N([H])C(=O)C([H])(N([H])C([H])([H])[H])C([H])([H])[H])C(C([H])([H])[H])(C([H])([H])[H])C([H])([H])[H])C([H])([H])c2c([H])c(OC3([H])C([H])([H])C([H])([H])C(=O)C([H])([N+]([H])([H])C([H])([H])C([H])([H])C([H])([H])C(=O)N4C([H])([H])C([H])([H])C([H])([H])C([H])(n5nc(-c6c([H])c([H])c(Oc7c([H])c([H])c(F)c([H])c7F)c([H])c6[H])c(C(=O)N([H])[H])c5N([H])[H])C4([H])[H])C3([H])[H])c([H])c([H])c2C1([H])[H]

>  <smiles>  (68) 
[H]c1c([H])c([H])c2c(c1[H])C([H])([H])C([H])([H])C([H])([H])C2([H])N([H])C(=O)C1([H])N(C(=O)C([H])(N([H])C(=O)C([H])(N([H])C([H])([H])[H])C([H])([H])[H])C(C([H])([H])[H])(C([H])([H])[H])C([H])([H])[H])C([H])([H])c2c([H])c(OC3([H])C([H])([H])C([H])([H])C(=O)C([H])([N+]([H])([H])C([H])([H])C([H])([H])C([H])([H])C(=O)N4C([H])([H])C([H])([H])C([H])([H])C([H])(n5nc(-c6c([H])c([H])c(Oc7c([H])c([H])c(F)c([H])c7F)c([H])c6[H])c(C(=O)N([H])[H])c5N([H])[H])C4([H])[H])C3([H])[H])c([H])c([H])c2C1([H])[H]

$$$$
68:0:0
     RDKit          3D

 90 98  0  0  1  0  0  0  0  0999 V2000
  -28.8880  -23.6250   16.7850 C   0  0  0  0  0  3  0  0  0  0  0  0
  -28.7810  -25.0090   16.8140 C   0  0  0  0  0  3  0  0  0  0  0  0
  -28.8520  -22.9030   17.9830 C   0  0  0  0  0  3  0  0  0  0  0  0
  -28.5920  -25.6540   18.0380 C   0  0  0  0  0  3  0  0  0  0  0  0
  -28.7100  -23.4700   19.2860 C   0  0  0  0  0  0  0  0  0  0  0  0
  -28.4830  -25.0030   19.2990 C   0  0  0  0  0  0  0  0  0  0  0  0
  -28.7920  -22.2850   20.3790 C   0  0  0  0  0  0  0  0  0  0  0  0
  -29.2250  -20.9460   20.0440 N   0  0  0  0  0  0  0  0  0  0  0  0
  -28.4380  -22.5330   21.5320 O   0  0  0  0  0  0  0  0  0  0  0  0
  -29.5500  -20.8960   19.0890 H   0  0  0  0  0  0  0  0  0  0  0  0
  -29.2120  -19.5120   20.7480 C   0  0  0  0  0  3  0  0  0  0  0  0
  -29.9200  -18.0560   20.1740 C   0  0  0  0  0  3  0  0  0  0  0  0
  -29.6890  -16.4720   20.7920 C   0  0  0  0  0  2  0  0  0  0  0  0
  -30.4900  -15.0380   20.4170 C   0  0  0  0  0  0  0  0  0  0  0  0
  -30.4090  -12.6600   19.4930 C   0  0  0  0  0  2  0  0  0  0  0  0
  -29.4940  -12.6110   18.2440 C   0  0  0  0  0  2  0  0  0  0  0  0
  -28.0220  -12.4040   18.6500 C   0  0  0  0  0  2  0  0  0  0  0  0
  -27.6010  -13.3300   19.8190 C   0  0  0  0  0  3  0  0  0  0  0  0
  -28.6380  -13.3440   20.9610 C   0  0  0  0  0  2  0  0  0  0  0  0
  -29.9240  -13.7570   20.3830 N   0  0  0  0  0  0  0  0  0  0  0  0
  -31.6780  -15.1000   20.0770 O   0  0  0  0  0  0  0  0  0  0  0  0
  -25.2110  -13.9190   20.5160 C   0  0  0  0  0  0  0  0  0  0  0  0
  -24.1380  -13.1510   20.8740 C   0  0  0  0  0  0  0  0  0  0  0  0
  -24.5980  -11.7990   20.8630 C   0  0  0  0  0  0  0  0  0  0  0  0
  -26.2540  -13.0370   20.2990 N   0  0  0  0  0  0  0  0  0  0  0  0
  -25.8950  -11.7550   20.5740 N   0  0  0  0  0  0  0  0  0  0  0  0
  -23.8640  -10.5410   21.0530 C   0  0  0  0  0  0  0  0  0  0  0  0
  -24.2860   -9.5720   21.9910 C   0  0  0  0  0  3  0  0  0  0  0  0
  -23.5500   -8.3800   22.1700 C   0  0  0  0  0  3  0  0  0  0  0  0
  -22.3790   -8.1470   21.4100 C   0  0  0  0  0  0  0  0  0  0  0  0
  -21.9760   -9.1050   20.4620 C   0  0  0  0  0  3  0  0  0  0  0  0
  -22.7120  -10.2880   20.2820 C   0  0  0  0  0  3  0  0  0  0  0  0
  -21.6170   -7.0080   21.4980 O   0  0  0  0  0  0  0  0  0  0  0  0
  -21.5670   -6.2600   22.6460 C   0  0  0  0  0  0  0  0  0  0  0  0
  -21.1690   -6.8160   23.8820 C   0  0  0  0  0  3  0  0  0  0  0  0
  -21.0660   -5.9960   25.0230 C   0  0  0  0  0  3  0  0  0  0  0  0
  -21.3530   -4.6210   24.9310 C   0  0  0  0  0  0  0  0  0  0  0  0
  -21.7460   -4.0640   23.7000 C   0  0  0  0  0  3  0  0  0  0  0  0
  -21.8490   -4.8810   22.5620 C   0  0  0  0  0  0  0  0  0  0  0  0
  -22.2070   -4.3360   21.3740 F   0  0  0  0  0  0  0  0  0  0  0  0
  -21.2470   -3.8310   26.0250 F   0  0  0  0  0  0  0  0  0  0  0  0
  -22.7380  -13.6350   21.1170 C   0  0  0  0  0  0  0  0  0  0  0  0
  -21.9940  -12.9510   21.9790 N   0  0  0  0  0  0  0  0  0  0  0  0
  -22.3130  -14.6560   20.5780 O   0  0  0  0  0  0  0  0  0  0  0  0
  -22.3500  -12.1260   22.4370 H   0  0  0  0  0  0  0  0  0  0  0  0
  -21.0530  -13.2570   22.1840 H   0  0  0  0  0  0  0  0  0  0  0  0
  -25.3830  -15.2880   20.3330 N   0  0  0  0  0  0  0  0  0  0  0  0
  -24.6210  -15.9490   20.4420 H   0  0  0  0  0  0  0  0  0  0  0  0
  -26.2450  -15.7250   20.0290 H   0  0  0  0  0  0  0  0  0  0  0  0
  -28.2510  -26.0910   20.2600 O   0  0  0  0  0  0  0  0  0  0  0  0
  -24.6660  -31.8790   23.1900 C   0  0  0  0  0  0  0  0  0  0  0  0
  -27.2330  -27.1310   20.1530 C   0  0  0  0  0  0  0  0  0  0  0  0
  -23.4580  -30.4720   21.5670 C   0  0  0  0  0  3  0  0  0  0  0  0
  -24.9010  -28.8930   20.1340 C   0  0  0  0  0  0  0  0  0  0  0  0
  -26.0120  -30.7340   21.3860 C   0  0  0  0  0  2  0  0  0  0  0  0
  -26.0860  -29.3360   20.7370 C   0  0  0  0  0  0  0  0  0  0  0  0
  -27.2480  -28.4690   20.7350 C   0  0  0  0  0  3  0  0  0  0  0  0
  -26.0150  -26.7960   19.5200 C   0  0  0  0  0  3  0  0  0  0  0  0
  -24.8800  -27.6370   19.5100 C   0  0  0  0  0  3  0  0  0  0  0  0
  -23.6720  -29.7900   20.1900 C   0  0  0  0  0  2  0  0  0  0  0  0
  -24.7340  -31.0510   22.1020 N   0  0  0  0  0  0  0  0  0  0  0  0
  -23.5820  -32.1650   23.7230 O   0  0  0  0  0  0  0  0  0  0  0  0
  -22.7850  -29.4700   22.5400 C   0  0  0  0  0  0  0  0  0  0  0  0
  -21.4570  -29.2970   22.4240 N   0  0  0  0  0  0  0  0  0  0  0  0
  -23.4630  -28.8510   23.3650 O   0  0  0  0  0  0  0  0  0  0  0  0
  -20.9650  -29.8470   21.7340 H   0  0  0  0  0  0  0  0  0  0  0  0
  -18.0840  -28.0770   22.9440 C   0  0  0  0  0  0  0  0  0  0  0  0
  -20.6420  -28.3630   23.2070 C   0  0  0  0  0  3  0  0  0  0  0  0
  -20.7540  -26.9250   22.6480 C   0  0  0  0  0  2  0  0  0  0  0  0
  -19.6530  -26.5820   21.6380 C   0  0  0  0  0  2  0  0  0  0  0  0
  -18.2720  -26.7230   22.2810 C   0  0  0  0  0  2  0  0  0  0  0  0
  -19.1970  -28.8540   23.3650 C   0  0  0  0  0  0  0  0  0  0  0  0
  -18.9670  -30.1190   23.9470 C   0  0  0  0  0  3  0  0  0  0  0  0
  -17.6580  -30.6090   24.1130 C   0  0  0  0  0  3  0  0  0  0  0  0
  -16.5600  -29.8300   23.7080 C   0  0  0  0  0  3  0  0  0  0  0  0
  -16.7730  -28.5660   23.1290 C   0  0  0  0  0  3  0  0  0  0  0  0
  -25.9450  -32.5220   23.8060 C   0  0  0  0  0  3  0  0  0  0  0  0
  -26.4750  -31.7500   25.0770 C   0  0  1  0  0  0  0  0  0  0  0  0
  -25.3920  -31.5090   26.1550 C   0  0  0  0  0  1  0  0  0  0  0  0
  -27.0580  -30.3740   24.6820 C   0  0  0  0  0  1  0  0  0  0  0  0
  -27.6300  -32.5460   25.7300 C   0  0  0  0  0  1  0  0  0  0  0  0
  -25.6250  -33.9170   24.1520 N   0  0  0  0  0  0  0  0  0  0  0  0
  -25.9480  -34.9820   23.4090 C   0  0  0  0  0  0  0  0  0  0  0  0
  -26.6120  -34.8960   22.3730 O   0  0  0  0  0  0  0  0  0  0  0  0
  -25.0300  -34.0560   24.9570 H   0  0  0  0  0  0  0  0  0  0  0  0
  -24.2110  -36.7770   23.0910 C   0  0  0  0  0  1  0  0  0  0  0  0
  -25.4590  -36.3650   23.8890 C   0  0  0  0  0  3  0  0  0  0  0  0
  -27.5970  -37.2460   24.7170 C   0  0  0  0  0  1  0  0  0  0  0  0
  -26.4870  -37.4230   23.7840 N   0  0  0  0  0  0  0  0  0  0  0  0
  -26.0790  -38.3390   23.9480 H   0  0  0  0  0  0  0  0  0  0  0  0
  1  2  2  0
  1  3  1  0
  2  4  1  0
  3  5  2  0
  4  6  2  0
  5  6  1  0
  5  7  1  0
  6 50  1  0
  7  9  2  0
  8  7  1  0
  8 11  1  0
 10  8  1  0
 12 11  2  0
 12 13  1  0
 14 13  1  0
 15 20  1  0
 16 17  1  0
 16 15  1  0
 18 17  1  0
 18 25  1  0
 18 19  1  0
 20 14  1  0
 20 19  1  0
 21 14  2  0
 22 23  2  0
 23 42  1  0
 24 23  1  0
 24 27  1  0
 25 22  1  0
 25 26  1  0
 26 24  2  0
 27 28  1  0
 28 29  2  0
 30 33  1  0
 30 29  1  0
 31 30  2  0
 32 31  1  0
 32 27  2  0
 33 34  1  0
 34 35  1  0
 35 36  2  0
 37 36  1  0
 37 41  1  0
 38 37  2  0
 39 34  2  0
 39 38  1  0
 40 39  1  0
 42 43  1  0
 43 46  1  0
 43 45  1  0
 44 42  2  0
 47 48  1  0
 47 22  1  0
 49 47  1  0
 51 62  2  0
 52 50  1  0
 52 57  1  0
 53 61  1  0
 53 63  1  0
 54 60  1  0
 54 56  1  0
 55 61  1  0
 56 55  1  0
 57 56  2  0
 58 52  2  0
 59 58  1  0
 59 54  2  0
 60 53  1  0
 61 51  1  0
 63 65  2  0
 64 63  1  0
 66 64  1  0
 67 76  2  0
 67 72  1  0
 68 64  1  0
 68 72  1  0
 69 68  1  0
 70 71  1  0
 70 69  1  0
 71 67  1  0
 72 73  2  0
 73 74  1  0
 75 74  2  0
 76 75  1  0
 77 51  1  0
 77 82  1  0
 77 78  1  0
 78 81  1  1
 78 79  1  0
 80 78  1  0
 82 85  1  0
 83 87  1  0
 83 82  1  0
 84 83  2  0
 87 86  1  0
 89 87  1  0
 89 90  1  0
 89 88  1  0
M  ISO  4   6 101  13 100  14 100  50 101
M  END
>  <TORSDO>  (69) 
F 20

>  <SCORE>  (69) 
-14.771

>  <name>  (69) 
68

>  <ligand_id>  (69) 
68

>  <original_smiles>  (69) 
[H]c1c([H])c([H])c(C(=O)N([H])C([H])([H])C([H])([H])C([H])([H])C(=O)N2C([H])([H])C([H])([H])C([H])([H])C([H])(n3nc(-c4c([H])c([H])c(Oc5c([H])c([H])c(F)c([H])c5F)c([H])c4[H])c(C(=O)N([H])[H])c3N([H])[H])C2([H])[H])c(Oc2c([H])c([H])c3c(c2[H])C([H])([H])N(C(=O)C([H])(N([H])C(=O)C([H])(N([H])C([H])([H])[H])C([H])([H])[H])C(C([H])([H])[H])(C([H])([H])[H])C([H])([H])[H])C([H])(C(=O)N([H])C2([H])c4c([H])c([H])c([H])c([H])c4C([H])([H])C([H])([H])C2([H])[H])C3([H])[H])c1[H]

>  <smiles>  (69) 
[H]c1c([H])c([H])c(C(=O)N([H])C([H])([H])C([H])([H])C([H])([H])C(=O)N2C([H])([H])C([H])([H])C([H])([H])C([H])(n3nc(-c4c([H])c([H])c(Oc5c([H])c([H])c(F)c([H])c5F)c([H])c4[H])c(C(=O)N([H])[H])c3N([H])[H])C2([H])[H])c(Oc2c([H])c([H])c3c(c2[H])C([H])([H])N(C(=O)C([H])(N([H])C(=O)C([H])(N([H])C([H])([H])[H])C([H])([H])[H])C(C([H])([H])[H])(C([H])([H])[H])C([H])([H])[H])C([H])(C(=O)N([H])C2([H])c4c([H])c([H])c([H])c([H])c4C([H])([H])C([H])([H])C2([H])[H])C3([H])[H])c1[H]

$$$$
69:0:0
     RDKit          3D

 89 97  0  0  1  0  0  0  0  0999 V2000
  -26.9120  -23.8320   20.0940 C   0  0  0  0  0  3  0  0  0  0  0  0
  -26.5940  -22.4590   19.9300 C   0  0  0  0  0  3  0  0  0  0  0  0
  -29.1960  -23.1200   20.2390 C   0  0  0  0  0  3  0  0  0  0  0  0
  -28.9170  -21.5850   20.1160 C   0  0  0  0  0  0  0  0  0  0  0  0
  -28.2270  -24.3480   20.2030 C   0  0  0  0  0  0  0  0  0  0  0  0
  -27.5300  -21.3920   19.9250 C   0  0  0  0  0  0  0  0  0  0  0  0
  -27.0500  -20.1220   19.7980 O   0  0  0  0  0  0  0  0  0  0  0  0
  -26.1030  -20.0850   19.7040 H   0  0  0  0  0  0  0  0  0  0  0  0
  -28.3840  -25.9010   20.2960 O   0  0  0  0  0  0  0  0  0  0  0  0
  -24.6520  -31.9030   23.1410 C   0  0  0  0  0  0  0  0  0  0  0  0
  -27.3750  -27.0260   20.2070 C   0  0  0  0  0  0  0  0  0  0  0  0
  -23.5330  -30.4800   21.4750 C   0  0  0  0  0  3  0  0  0  0  0  0
  -25.0550  -28.9060   20.0870 C   0  0  0  0  0  0  0  0  0  0  0  0
  -26.0990  -30.7240   21.4110 C   0  0  0  0  0  2  0  0  0  0  0  0
  -26.2110  -29.3090   20.7640 C   0  0  0  0  0  0  0  0  0  0  0  0
  -27.3580  -28.3860   20.8140 C   0  0  0  0  0  3  0  0  0  0  0  0
  -26.2190  -26.8350   19.4130 C   0  0  0  0  0  3  0  0  0  0  0  0
  -25.0870  -27.6900   19.3900 C   0  0  0  0  0  3  0  0  0  0  0  0
  -23.8160  -29.8030   20.1040 C   0  0  0  0  0  2  0  0  0  0  0  0
  -24.7800  -31.0650   22.0610 N   0  0  0  0  0  0  0  0  0  0  0  0
  -23.5430  -32.1720   23.6310 O   0  0  0  0  0  0  0  0  0  0  0  0
  -22.8330  -29.4700   22.4230 C   0  0  0  0  0  0  0  0  0  0  0  0
  -21.5040  -29.3050   22.2900 N   0  0  0  0  0  0  0  0  0  0  0  0
  -23.4950  -28.8370   23.2490 O   0  0  0  0  0  0  0  0  0  0  0  0
  -21.0210  -29.8670   21.6020 H   0  0  0  0  0  0  0  0  0  0  0  0
  -18.1170  -28.0960   22.7890 C   0  0  0  0  0  0  0  0  0  0  0  0
  -20.6790  -28.3550   23.0460 C   0  0  0  0  0  3  0  0  0  0  0  0
  -20.7760  -26.9330   22.4440 C   0  0  0  0  0  2  0  0  0  0  0  0
  -19.6690  -26.6310   21.4290 C   0  0  0  0  0  2  0  0  0  0  0  0
  -18.2910  -26.7630   22.0820 C   0  0  0  0  0  2  0  0  0  0  0  0
  -19.2390  -28.8520   23.2280 C   0  0  0  0  0  0  0  0  0  0  0  0
  -19.0210  -30.0970   23.8530 C   0  0  0  0  0  3  0  0  0  0  0  0
  -17.7160  -30.5910   24.0420 C   0  0  0  0  0  3  0  0  0  0  0  0
  -16.6100  -29.8340   23.6170 C   0  0  0  0  0  3  0  0  0  0  0  0
  -16.8120  -28.5890   22.9970 C   0  0  0  0  0  3  0  0  0  0  0  0
  -25.8910  -32.5760   23.8030 C   0  0  0  0  0  3  0  0  0  0  0  0
  -26.3630  -31.8420   25.1200 C   0  0  1  0  0  0  0  0  0  0  0  0
  -25.2270  -31.6080   26.1440 C   0  0  0  0  0  1  0  0  0  0  0  0
  -26.9880  -30.4670   24.7970 C   0  0  0  0  0  1  0  0  0  0  0  0
  -27.4680  -32.6730   25.8140 C   0  0  0  0  0  1  0  0  0  0  0  0
  -25.5410  -33.9760   24.1040 N   0  0  0  0  0  0  0  0  0  0  0  0
  -25.9070  -35.0360   23.3700 C   0  0  0  0  0  0  0  0  0  0  0  0
  -26.6380  -34.9380   22.3810 O   0  0  0  0  0  0  0  0  0  0  0  0
  -24.8970  -34.1240   24.8670 H   0  0  0  0  0  0  0  0  0  0  0  0
  -24.2100  -36.8370   22.9000 C   0  0  0  0  0  1  0  0  0  0  0  0
  -25.3860  -36.4220   23.8000 C   0  0  0  0  0  3  0  0  0  0  0  0
  -27.4450  -37.3110   24.8050 C   0  0  0  0  0  1  0  0  0  0  0  0
  -26.4230  -37.4780   23.7750 N   0  0  0  0  0  0  0  0  0  0  0  0
  -26.0040  -38.3970   23.8890 H   0  0  0  0  0  0  0  0  0  0  0  0
  -29.8220  -20.0790   20.3870 C   0  0  0  0  0  2  0  0  0  0  0  0
  -29.9010  -18.4220   19.6200 C   0  0  0  0  0  2  0  0  0  0  0  0
  -30.7390  -15.5240   19.8880 C   0  0  0  0  0  0  0  0  0  0  0  0
  -30.6710  -13.0590   19.0350 C   0  0  0  0  0  2  0  0  0  0  0  0
  -29.7160  -12.8610   17.8290 C   0  0  0  0  0  2  0  0  0  0  0  0
  -28.2780  -12.5990   18.3100 C   0  0  0  0  0  2  0  0  0  0  0  0
  -27.8740  -13.5610   19.4530 C   0  0  0  0  0  3  0  0  0  0  0  0
  -28.9560  -13.7020   20.5480 C   0  0  0  0  0  2  0  0  0  0  0  0
  -30.1740  -14.2070   19.8920 N   0  0  0  0  0  0  0  0  0  0  0  0
  -31.9200  -15.5180   19.5070 O   0  0  0  0  0  0  0  0  0  0  0  0
  -30.0040  -16.8050   20.1330 N   0  0  0  0  0  0  0  0  0  0  0  0
  -29.1330  -16.5610   20.5860 H   0  0  0  0  0  0  0  0  0  0  0  0
  -25.5350  -14.1410   20.2810 C   0  0  0  0  0  0  0  0  0  0  0  0
  -24.4770  -13.3760   20.6820 C   0  0  0  0  0  0  0  0  0  0  0  0
  -24.9260  -12.0200   20.6320 C   0  0  0  0  0  0  0  0  0  0  0  0
  -26.5600  -13.2550   20.0010 N   0  0  0  0  0  0  0  0  0  0  0  0
  -26.2070  -11.9720   20.2780 N   0  0  0  0  0  0  0  0  0  0  0  0
  -24.1890  -10.7660   20.8420 C   0  0  0  0  0  0  0  0  0  0  0  0
  -24.5940   -9.8220   21.8100 C   0  0  0  0  0  3  0  0  0  0  0  0
  -23.8540   -8.6360   22.0080 C   0  0  0  0  0  3  0  0  0  0  0  0
  -22.6940   -8.3850   21.2370 C   0  0  0  0  0  0  0  0  0  0  0  0
  -22.3080   -9.3180   20.2580 C   0  0  0  0  0  3  0  0  0  0  0  0
  -23.0480  -10.4950   20.0590 C   0  0  0  0  0  3  0  0  0  0  0  0
  -21.9290   -7.2490   21.3420 O   0  0  0  0  0  0  0  0  0  0  0  0
  -21.7920   -6.5810   22.5320 C   0  0  0  0  0  0  0  0  0  0  0  0
  -21.2510   -7.2030   23.6780 C   0  0  0  0  0  3  0  0  0  0  0  0
  -21.0640   -6.4600   24.8600 C   0  0  0  0  0  3  0  0  0  0  0  0
  -21.4060   -5.0950   24.8960 C   0  0  0  0  0  0  0  0  0  0  0  0
  -21.9390   -4.4720   23.7540 C   0  0  0  0  0  3  0  0  0  0  0  0
  -22.1280   -5.2130   22.5740 C   0  0  0  0  0  0  0  0  0  0  0  0
  -22.6220   -4.6020   21.4700 F   0  0  0  0  0  0  0  0  0  0  0  0
  -21.2190   -4.3780   26.0300 F   0  0  0  0  0  0  0  0  0  0  0  0
  -23.0960  -13.8700   20.9960 C   0  0  0  0  0  0  0  0  0  0  0  0
  -22.3950  -13.1970   21.9010 N   0  0  0  0  0  0  0  0  0  0  0  0
  -22.6490  -14.8900   20.4720 O   0  0  0  0  0  0  0  0  0  0  0  0
  -22.7720  -12.3740   22.3470 H   0  0  0  0  0  0  0  0  0  0  0  0
  -21.4690  -13.5130   22.1550 H   0  0  0  0  0  0  0  0  0  0  0  0
  -25.7070  -15.5110   20.1020 N   0  0  0  0  0  0  0  0  0  0  0  0
  -24.9490  -16.1700   20.2380 H   0  0  0  0  0  0  0  0  0  0  0  0
  -26.5400  -15.9410   19.7190 H   0  0  0  0  0  0  0  0  0  0  0  0
  1  5  1  0
  2  1  2  0
  4  3  1  0
  4 50  1  0
  5  3  2  0
  5  9  1  0
  6  2  1  0
  6  4  2  0
  7  6  1  0
  8  7  1  0
 10 21  2  0
 11  9  1  0
 11 16  1  0
 12 20  1  0
 12 22  1  0
 13 19  1  0
 13 15  1  0
 14 20  1  0
 15 16  2  0
 15 14  1  0
 17 11  2  0
 18 17  1  0
 18 13  2  0
 19 12  1  0
 20 10  1  0
 22 24  2  0
 23 22  1  0
 25 23  1  0
 26 35  2  0
 26 31  1  0
 27 23  1  0
 27 31  1  0
 28 27  1  0
 29 30  1  0
 29 28  1  0
 30 26  1  0
 31 32  2  0
 32 33  1  0
 34 33  2  0
 35 34  1  0
 36 10  1  0
 36 41  1  0
 36 37  1  0
 37 40  1  1
 37 38  1  0
 39 37  1  0
 41 44  1  0
 42 46  1  0
 42 41  1  0
 43 42  2  0
 46 45  1  0
 48 46  1  0
 48 49  1  0
 48 47  1  0
 51 60  1  0
 51 50  1  0
 52 58  1  0
 52 60  1  0
 53 58  1  0
 54 55  1  0
 54 53  1  0
 56 55  1  0
 56 65  1  0
 56 57  1  0
 58 57  1  0
 59 52  2  0
 60 61  1  0
 62 63  2  0
 63 82  1  0
 64 63  1  0
 64 67  1  0
 65 66  1  0
 65 62  1  0
 66 64  2  0
 67 68  1  0
 68 69  2  0
 70 73  1  0
 70 69  1  0
 71 70  2  0
 72 71  1  0
 72 67  2  0
 73 74  1  0
 74 79  2  0
 74 75  1  0
 75 76  2  0
 76 77  1  0
 77 81  1  0
 78 77  2  0
 79 78  1  0
 80 79  1  0
 82 83  1  0
 83 86  1  0
 83 85  1  0
 84 82  2  0
 87 88  1  0
 87 62  1  0
 89 87  1  0
M  ISO  4   5 101   9 101  52 100  60 100
M  END
>  <TORSDO>  (70) 
F 19

>  <SCORE>  (70) 
-14.971

>  <name>  (70) 
69

>  <ligand_id>  (70) 
69

>  <original_smiles>  (70) 
[H]Oc1c([H])c([H])c(Oc2c([H])c([H])c3c(c2[H])C([H])([H])N(C(=O)C([H])(N([H])C(=O)C([H])(N([H])C([H])([H])[H])C([H])([H])[H])C(C([H])([H])[H])(C([H])([H])[H])C([H])([H])[H])C([H])(C(=O)N([H])C2([H])c4c([H])c([H])c([H])c([H])c4C([H])([H])C([H])([H])C2([H])[H])C3([H])[H])c([H])c1C([H])([H])C([H])([H])N([H])C(=O)N1C([H])([H])C([H])([H])C([H])([H])C([H])(n2nc(-c3c([H])c([H])c(Oc4c([H])c([H])c(F)c([H])c4F)c([H])c3[H])c(C(=O)N([H])[H])c2N([H])[H])C1([H])[H]

>  <smiles>  (70) 
[H]Oc1c([H])c([H])c(Oc2c([H])c([H])c3c(c2[H])C([H])([H])N(C(=O)C([H])(N([H])C(=O)C([H])(N([H])C([H])([H])[H])C([H])([H])[H])C(C([H])([H])[H])(C([H])([H])[H])C([H])([H])[H])C([H])(C(=O)N([H])C2([H])c4c([H])c([H])c([H])c([H])c4C([H])([H])C([H])([H])C2([H])[H])C3([H])[H])c([H])c1C([H])([H])C([H])([H])N([H])C(=O)N1C([H])([H])C([H])([H])C([H])([H])C([H])(n2nc(-c3c([H])c([H])c(Oc4c([H])c([H])c(F)c([H])c4F)c([H])c3[H])c(C(=O)N([H])[H])c2N([H])[H])C1([H])[H]

$$$$
70:0:0
     RDKit          3D

 88 96  0  0  1  0  0  0  0  0999 V2000
  -27.1810  -23.5680   19.7630 C   0  0  0  0  0  3  0  0  0  0  0  0
  -29.3310  -22.7180   20.3270 C   0  0  0  0  0  3  0  0  0  0  0  0
  -26.8740  -22.1960   19.4560 C   0  0  0  0  0  0  0  0  0  0  0  0
  -29.1180  -21.1200   20.0080 C   0  0  0  0  0  0  0  0  0  0  0  0
  -27.7510  -21.0450   19.6020 C   0  0  0  0  0  0  0  0  0  0  0  0
  -28.4060  -24.0700   20.2540 C   0  0  0  0  0  0  0  0  0  0  0  0
  -25.4600  -21.9840   18.9240 C   0  0  0  0  0  1  0  0  0  0  0  0
  -27.2100  -19.6440   19.3390 C   0  0  0  0  0  1  0  0  0  0  0  0
  -28.4550  -25.6970   20.5680 O   0  0  0  0  0  0  0  0  0  0  0  0
  -24.7480  -32.0360   23.4790 C   0  0  0  0  0  0  0  0  0  0  0  0
  -27.4650  -26.9400   20.5420 C   0  0  0  0  0  0  0  0  0  0  0  0
  -23.6500  -30.6350   21.7870 C   0  0  0  0  0  3  0  0  0  0  0  0
  -25.1770  -29.0050   20.4200 C   0  0  0  0  0  0  0  0  0  0  0  0
  -26.2340  -30.7870   21.7780 C   0  0  0  0  0  2  0  0  0  0  0  0
  -26.3430  -29.3500   21.1130 C   0  0  0  0  0  0  0  0  0  0  0  0
  -27.4650  -28.3470   21.1440 C   0  0  0  0  0  3  0  0  0  0  0  0
  -26.2680  -26.8440   19.7800 C   0  0  0  0  0  3  0  0  0  0  0  0
  -25.1850  -27.7800   19.7320 C   0  0  0  0  0  3  0  0  0  0  0  0
  -23.9560  -29.9480   20.4250 C   0  0  0  0  0  2  0  0  0  0  0  0
  -24.9010  -31.1890   22.4010 N   0  0  0  0  0  0  0  0  0  0  0  0
  -23.6300  -32.3180   23.9450 O   0  0  0  0  0  0  0  0  0  0  0  0
  -22.9030  -29.6450   22.7220 C   0  0  0  0  0  0  0  0  0  0  0  0
  -21.5850  -29.4500   22.5240 N   0  0  0  0  0  0  0  0  0  0  0  0
  -23.5260  -29.0450   23.6020 O   0  0  0  0  0  0  0  0  0  0  0  0
  -21.1320  -29.9830   21.7940 H   0  0  0  0  0  0  0  0  0  0  0  0
  -18.1960  -28.1850   22.9090 C   0  0  0  0  0  0  0  0  0  0  0  0
  -20.7440  -28.4910   23.2520 C   0  0  0  0  0  3  0  0  0  0  0  0
  -20.8830  -27.0700   22.6580 C   0  0  0  0  0  2  0  0  0  0  0  0
  -19.8180  -26.7490   21.6030 C   0  0  0  0  0  2  0  0  0  0  0  0
  -18.4160  -26.8560   22.2080 C   0  0  0  0  0  2  0  0  0  0  0  0
  -19.2880  -28.9600   23.3840 C   0  0  0  0  0  0  0  0  0  0  0  0
  -19.0250  -30.2010   24.0050 C   0  0  0  0  0  3  0  0  0  0  0  0
  -17.7060  -30.6690   24.1510 C   0  0  0  0  0  3  0  0  0  0  0  0
  -16.6280  -29.8920   23.6890 C   0  0  0  0  0  3  0  0  0  0  0  0
  -16.8740  -28.6510   23.0750 C   0  0  0  0  0  3  0  0  0  0  0  0
  -25.9710  -32.7030   24.1790 C   0  0  0  0  0  3  0  0  0  0  0  0
  -25.6410  -34.1210   24.4340 N   0  0  0  0  0  0  0  0  0  0  0  0
  -25.9980  -35.1520   23.6550 C   0  0  0  0  0  0  0  0  0  0  0  0
  -26.6930  -35.0090   22.6460 O   0  0  0  0  0  0  0  0  0  0  0  0
  -25.0190  -34.3040   25.2080 H   0  0  0  0  0  0  0  0  0  0  0  0
  -24.2680  -36.9370   23.2330 C   0  0  0  0  0  1  0  0  0  0  0  0
  -25.5130  -36.5620   24.0540 C   0  0  0  0  0  3  0  0  0  0  0  0
  -27.6380  -37.5030   24.8510 C   0  0  0  0  0  1  0  0  0  0  0  0
  -26.5440  -37.6110   23.8890 N   0  0  0  0  0  0  0  0  0  0  0  0
  -26.1350  -38.5380   23.9760 H   0  0  0  0  0  0  0  0  0  0  0  0
  -26.3650  -31.9980   25.5360 C   0  0  1  0  0  0  0  0  0  0  0  0
  -25.1750  -31.7900   26.5030 C   0  0  0  0  0  1  0  0  0  0  0  0
  -26.9980  -30.6130   25.2800 C   0  0  0  0  0  1  0  0  0  0  0  0
  -27.4380  -32.8370   26.2710 C   0  0  0  0  0  1  0  0  0  0  0  0
  -30.1120  -19.4670   20.0400 C   0  0  0  0  0  2  0  0  0  0  0  0
  -30.7340  -16.2360   20.1010 C   0  0  0  0  0  0  0  0  0  0  0  0
  -30.9110  -13.6410   19.3480 C   0  0  0  0  0  2  0  0  0  0  0  0
  -30.0320  -13.1180   18.1700 C   0  0  0  0  0  2  0  0  0  0  0  0
  -28.6350  -12.7090   18.6580 C   0  0  0  0  0  2  0  0  0  0  0  0
  -28.0920  -13.7340   19.6790 C   0  0  0  0  0  3  0  0  0  0  0  0
  -29.1170  -14.1570   20.7620 C   0  0  0  0  0  2  0  0  0  0  0  0
  -30.2430  -14.8370   20.0660 N   0  0  0  0  0  0  0  0  0  0  0  0
  -31.9660  -16.1570   19.9220 O   0  0  0  0  0  0  0  0  0  0  0  0
  -29.9690  -17.6390   20.1500 N   0  0  0  0  0  0  0  0  0  0  0  0
  -28.9920  -17.4160   20.2680 H   0  0  0  0  0  0  0  0  0  0  0  0
  -25.7610  -14.2290   20.5410 C   0  0  0  0  0  0  0  0  0  0  0  0
  -24.7130  -13.4370   20.9120 C   0  0  0  0  0  0  0  0  0  0  0  0
  -25.1790  -12.0890   20.8140 C   0  0  0  0  0  0  0  0  0  0  0  0
  -26.7960  -13.3690   20.2290 N   0  0  0  0  0  0  0  0  0  0  0  0
  -26.4640  -12.0700   20.4610 N   0  0  0  0  0  0  0  0  0  0  0  0
  -24.4530  -10.8220   20.9770 C   0  0  0  0  0  0  0  0  0  0  0  0
  -24.8040   -9.8910   21.9790 C   0  0  0  0  0  3  0  0  0  0  0  0
  -24.0750   -8.6910   22.1310 C   0  0  0  0  0  3  0  0  0  0  0  0
  -22.9790   -8.4140   21.2790 C   0  0  0  0  0  0  0  0  0  0  0  0
  -22.6470   -9.3350   20.2690 C   0  0  0  0  0  3  0  0  0  0  0  0
  -23.3770  -10.5250   20.1170 C   0  0  0  0  0  3  0  0  0  0  0  0
  -22.2280   -7.2650   21.3360 O   0  0  0  0  0  0  0  0  0  0  0  0
  -21.9260   -6.6590   22.5310 C   0  0  0  0  0  0  0  0  0  0  0  0
  -21.2020   -7.3250   23.5420 C   0  0  0  0  0  3  0  0  0  0  0  0
  -20.8550   -6.6430   24.7240 C   0  0  0  0  0  3  0  0  0  0  0  0
  -21.2220   -5.2950   24.8950 C   0  0  0  0  0  0  0  0  0  0  0  0
  -21.9380   -4.6280   23.8850 C   0  0  0  0  0  3  0  0  0  0  0  0
  -22.2880   -5.3070   22.7050 C   0  0  0  0  0  0  0  0  0  0  0  0
  -22.9610   -4.6540   21.7280 F   0  0  0  0  0  0  0  0  0  0  0  0
  -20.8810   -4.6360   26.0270 F   0  0  0  0  0  0  0  0  0  0  0  0
  -23.3240  -13.9070   21.2290 C   0  0  0  0  0  0  0  0  0  0  0  0
  -22.6210  -13.2030   22.1080 N   0  0  0  0  0  0  0  0  0  0  0  0
  -22.8710  -14.9370   20.7310 O   0  0  0  0  0  0  0  0  0  0  0  0
  -23.0020  -12.3730   22.5380 H   0  0  0  0  0  0  0  0  0  0  0  0
  -21.6900  -13.5020   22.3570 H   0  0  0  0  0  0  0  0  0  0  0  0
  -25.9180  -15.6060   20.4060 N   0  0  0  0  0  0  0  0  0  0  0  0
  -25.1490  -16.2530   20.5440 H   0  0  0  0  0  0  0  0  0  0  0  0
  -26.7460  -16.0440   20.0290 H   0  0  0  0  0  0  0  0  0  0  0  0
  1  6  1  0
  3  5  1  0
  3  1  2  0
  4 50  1  0
  4  2  1  0
  5  4  2  0
  6  2  2  0
  6  9  1  0
  7  3  1  0
  8  5  1  0
 10 21  2  0
 11  9  1  0
 11 16  1  0
 12 20  1  0
 12 22  1  0
 13 19  1  0
 13 15  1  0
 14 20  1  0
 15 16  2  0
 15 14  1  0
 17 11  2  0
 18 17  1  0
 18 13  2  0
 19 12  1  0
 20 10  1  0
 22 24  2  0
 23 22  1  0
 25 23  1  0
 26 35  2  0
 26 31  1  0
 27 23  1  0
 27 31  1  0
 28 27  1  0
 29 30  1  0
 29 28  1  0
 30 26  1  0
 31 32  2  0
 32 33  1  0
 34 33  2  0
 35 34  1  0
 36 10  1  0
 36 37  1  0
 36 46  1  0
 37 40  1  0
 38 42  1  0
 38 37  1  0
 39 38  2  0
 42 41  1  0
 44 45  1  0
 44 42  1  0
 44 43  1  0
 46 49  1  1
 46 47  1  0
 48 46  1  0
 50 59  1  0
 51 59  1  0
 52 57  1  0
 53 54  1  0
 53 52  1  0
 55 54  1  0
 55 64  1  0
 55 56  1  0
 57 51  1  0
 57 56  1  0
 58 51  2  0
 59 60  1  0
 61 62  2  0
 62 81  1  0
 63 62  1  0
 63 66  1  0
 64 65  1  0
 64 61  1  0
 65 63  2  0
 66 67  1  0
 67 68  2  0
 69 72  1  0
 69 68  1  0
 70 69  2  0
 71 70  1  0
 71 66  2  0
 72 73  1  0
 73 78  2  0
 73 74  1  0
 74 75  2  0
 75 76  1  0
 76 80  1  0
 77 76  2  0
 78 77  1  0
 79 78  1  0
 81 82  1  0
 82 85  1  0
 82 84  1  0
 83 81  2  0
 86 61  1  0
 86 87  1  0
 88 86  1  0
M  ISO  4   6 101   9 101  51 100  59 100
M  END
>  <TORSDO>  (71) 
F 17

>  <SCORE>  (71) 
-14.953

>  <name>  (71) 
70

>  <ligand_id>  (71) 
70

>  <original_smiles>  (71) 
[H]c1c([H])c([H])c2c(c1[H])C([H])([H])C([H])([H])C([H])([H])C2([H])N([H])C(=O)C1([H])N(C(=O)C([H])(N([H])C(=O)C([H])(N([H])C([H])([H])[H])C([H])([H])[H])C(C([H])([H])[H])(C([H])([H])[H])C([H])([H])[H])C([H])([H])c2c([H])c(Oc3c([H])c(C([H])([H])[H])c(C([H])([H])[H])c(C([H])([H])N([H])C(=O)N4C([H])([H])C([H])([H])C([H])([H])C([H])(n5nc(-c6c([H])c([H])c(Oc7c([H])c([H])c(F)c([H])c7F)c([H])c6[H])c(C(=O)N([H])[H])c5N([H])[H])C4([H])[H])c3[H])c([H])c([H])c2C1([H])[H]

>  <smiles>  (71) 
[H]c1c([H])c([H])c2c(c1[H])C([H])([H])C([H])([H])C([H])([H])C2([H])N([H])C(=O)C1([H])N(C(=O)C([H])(N([H])C(=O)C([H])(N([H])C([H])([H])[H])C([H])([H])[H])C(C([H])([H])[H])(C([H])([H])[H])C([H])([H])[H])C([H])([H])c2c([H])c(Oc3c([H])c(C([H])([H])[H])c(C([H])([H])[H])c(C([H])([H])N([H])C(=O)N4C([H])([H])C([H])([H])C([H])([H])C([H])(n5nc(-c6c([H])c([H])c(Oc7c([H])c([H])c(F)c([H])c7F)c([H])c6[H])c(C(=O)N([H])[H])c5N([H])[H])C4([H])[H])c3[H])c([H])c([H])c2C1([H])[H]

$$$$
71:0:0
     RDKit          3D

 90 98  0  0  1  0  0  0  0  0999 V2000
  -28.6380  -21.6130   20.2530 N   0  0  0  0  0  4  0  0  0  0  0  0
  -28.3300  -21.5050   21.2070 H   0  0  0  0  0  0  0  0  0  0  0  0
  -27.7920  -21.5700   19.7060 H   0  0  0  0  0  0  0  0  0  0  0  0
  -30.2130  -19.3770   20.9350 C   0  0  0  0  0  2  0  0  0  0  0  0
  -28.4600  -19.0160   19.3490 C   0  0  0  0  0  2  0  0  0  0  0  0
  -30.8060  -17.8830   20.5600 C   0  0  0  0  0  2  0  0  0  0  0  0
  -29.0430  -17.5040   19.0460 C   0  0  0  0  0  2  0  0  0  0  0  0
  -29.3930  -20.2320   19.8480 C   0  0  0  0  0  3  0  0  0  0  0  0
  -29.8390  -16.6440   20.1600 C   0  0  1  0  0  0  0  0  0  0  0  0
  -30.5440  -15.1340   19.7340 C   0  0  0  0  0  0  0  0  0  0  0  0
  -30.4250  -12.7520   18.7920 C   0  0  0  0  0  2  0  0  0  0  0  0
  -29.3590  -12.6570   17.6690 C   0  0  0  0  0  2  0  0  0  0  0  0
  -27.9610  -12.3810   18.2510 C   0  0  0  0  0  2  0  0  0  0  0  0
  -27.6580  -13.2750   19.4800 C   0  0  0  0  0  3  0  0  0  0  0  0
  -28.8330  -13.2940   20.4750 C   0  0  0  0  0  2  0  0  0  0  0  0
  -30.0070  -13.8250   19.7570 N   0  0  0  0  0  0  0  0  0  0  0  0
  -31.6870  -15.1800   19.2600 O   0  0  0  0  0  0  0  0  0  0  0  0
  -25.4090  -13.7770   20.5870 C   0  0  0  0  0  0  0  0  0  0  0  0
  -24.3920  -12.9720   21.0190 C   0  0  0  0  0  0  0  0  0  0  0  0
  -24.8290  -11.6300   20.7980 C   0  0  0  0  0  0  0  0  0  0  0  0
  -26.3980  -12.9260   20.1250 N   0  0  0  0  0  0  0  0  0  0  0  0
  -26.0670  -11.6220   20.3140 N   0  0  0  0  0  0  0  0  0  0  0  0
  -24.1140  -10.3570   20.9640 C   0  0  0  0  0  0  0  0  0  0  0  0
  -24.6000   -9.3420   21.8160 C   0  0  0  0  0  3  0  0  0  0  0  0
  -23.8810   -8.1370   21.9740 C   0  0  0  0  0  3  0  0  0  0  0  0
  -22.6640   -7.9390   21.2800 C   0  0  0  0  0  0  0  0  0  0  0  0
  -22.1970   -8.9440   20.4160 C   0  0  0  0  0  3  0  0  0  0  0  0
  -22.9160  -10.1420   20.2560 C   0  0  0  0  0  3  0  0  0  0  0  0
  -21.9130   -6.7910   21.3510 O   0  0  0  0  0  0  0  0  0  0  0  0
  -21.8620   -6.0340   22.4940 C   0  0  0  0  0  0  0  0  0  0  0  0
  -21.4170   -6.5690   23.7220 C   0  0  0  0  0  3  0  0  0  0  0  0
  -21.3130   -5.7380   24.8570 C   0  0  0  0  0  3  0  0  0  0  0  0
  -21.6440   -4.3740   24.7630 C   0  0  0  0  0  0  0  0  0  0  0  0
  -22.0830   -3.8380   23.5390 C   0  0  0  0  0  3  0  0  0  0  0  0
  -22.1870   -4.6660   22.4070 C   0  0  0  0  0  0  0  0  0  0  0  0
  -22.5890   -4.1390   21.2250 F   0  0  0  0  0  0  0  0  0  0  0  0
  -21.5390   -3.5730   25.8490 F   0  0  0  0  0  0  0  0  0  0  0  0
  -23.0520  -13.4260   21.5220 C   0  0  0  0  0  0  0  0  0  0  0  0
  -22.4460  -12.6630   22.4240 N   0  0  0  0  0  0  0  0  0  0  0  0
  -22.5580  -14.4900   21.1500 O   0  0  0  0  0  0  0  0  0  0  0  0
  -22.8630  -11.8020   22.7440 H   0  0  0  0  0  0  0  0  0  0  0  0
  -21.5530  -12.9460   22.8020 H   0  0  0  0  0  0  0  0  0  0  0  0
  -25.5680  -15.1590   20.5290 N   0  0  0  0  0  0  0  0  0  0  0  0
  -24.8510  -15.7940   20.8600 H   0  0  0  0  0  0  0  0  0  0  0  0
  -26.4270  -15.6320   20.2820 H   0  0  0  0  0  0  0  0  0  0  0  0
  -28.9800  -16.3620   21.4020 C   0  0  0  0  0  3  0  0  0  0  0  0
  -27.7960  -16.6980   21.4820 O   0  0  0  0  0  0  0  0  0  0  0  0
  -29.0930  -23.1560   20.0790 C   0  0  0  0  0  3  0  0  0  0  0  0
  -28.0260  -24.5180   20.1540 C   0  0  0  0  0  3  0  0  0  0  0  0
  -28.2910  -26.0940   20.1280 O   0  0  0  0  0  0  0  0  0  0  0  0
  -24.6040  -31.8570   23.0790 C   0  0  0  0  0  0  0  0  0  0  0  0
  -27.2350  -27.1030   20.0760 C   0  0  0  0  0  0  0  0  0  0  0  0
  -23.4290  -30.4470   21.4370 C   0  0  0  0  0  3  0  0  0  0  0  0
  -24.9000  -28.8760   20.0250 C   0  0  0  0  0  0  0  0  0  0  0  0
  -25.9860  -30.7180   21.2920 C   0  0  0  0  0  2  0  0  0  0  0  0
  -26.0760  -29.3190   20.6410 C   0  0  0  0  0  0  0  0  0  0  0  0
  -27.2430  -28.4520   20.6440 C   0  0  0  0  0  3  0  0  0  0  0  0
  -26.0270  -26.7820   19.4170 C   0  0  0  0  0  3  0  0  0  0  0  0
  -24.8920  -27.6230   19.3940 C   0  0  0  0  0  3  0  0  0  0  0  0
  -23.6670  -29.7690   20.0620 C   0  0  0  0  0  2  0  0  0  0  0  0
  -24.6940  -31.0310   21.9910 N   0  0  0  0  0  0  0  0  0  0  0  0
  -23.5110  -32.1330   23.5990 O   0  0  0  0  0  0  0  0  0  0  0  0
  -22.7500  -29.4380   22.3970 C   0  0  0  0  0  0  0  0  0  0  0  0
  -21.4170  -29.2830   22.2880 N   0  0  0  0  0  0  0  0  0  0  0  0
  -23.4240  -28.7970   23.2080 O   0  0  0  0  0  0  0  0  0  0  0  0
  -20.9280  -29.8510   21.6100 H   0  0  0  0  0  0  0  0  0  0  0  0
  -18.0240  -28.1480   22.8720 C   0  0  0  0  0  0  0  0  0  0  0  0
  -20.5970  -28.3450   23.0610 C   0  0  0  0  0  3  0  0  0  0  0  0
  -20.6440  -26.9260   22.4450 C   0  0  0  0  0  2  0  0  0  0  0  0
  -19.5030  -26.6570   21.4590 C   0  0  0  0  0  2  0  0  0  0  0  0
  -18.1470  -26.8150   22.1530 C   0  0  0  0  0  2  0  0  0  0  0  0
  -19.1740  -28.8730   23.2850 C   0  0  0  0  0  0  0  0  0  0  0  0
  -19.0030  -30.1210   23.9210 C   0  0  0  0  0  3  0  0  0  0  0  0
  -17.7160  -30.6450   24.1480 C   0  0  0  0  0  3  0  0  0  0  0  0
  -16.5810  -29.9170   23.7500 C   0  0  0  0  0  3  0  0  0  0  0  0
  -16.7360  -28.6700   23.1180 C   0  0  0  0  0  3  0  0  0  0  0  0
  -25.8700  -32.5090   23.7140 C   0  0  0  0  0  3  0  0  0  0  0  0
  -26.4030  -31.7230   24.9760 C   0  0  1  0  0  0  0  0  0  0  0  0
  -25.3160  -31.4410   26.0390 C   0  0  0  0  0  1  0  0  0  0  0  0
  -27.0180  -30.3670   24.5630 C   0  0  0  0  0  1  0  0  0  0  0  0
  -27.5360  -32.5310   25.6540 C   0  0  0  0  0  1  0  0  0  0  0  0
  -25.5270  -33.8930   24.0810 N   0  0  0  0  0  0  0  0  0  0  0  0
  -25.8200  -34.9750   23.3480 C   0  0  0  0  0  0  0  0  0  0  0  0
  -26.4730  -34.9140   22.3030 O   0  0  0  0  0  0  0  0  0  0  0  0
  -24.9430  -34.0100   24.8960 H   0  0  0  0  0  0  0  0  0  0  0  0
  -24.0400  -36.7360   23.0820 C   0  0  0  0  0  1  0  0  0  0  0  0
  -25.3110  -36.3400   23.8530 C   0  0  0  0  0  3  0  0  0  0  0  0
  -27.4390  -37.2630   24.6570 C   0  0  0  0  0  1  0  0  0  0  0  0
  -26.3140  -37.4220   23.7410 N   0  0  0  0  0  0  0  0  0  0  0  0
  -25.8880  -38.3270   23.9160 H   0  0  0  0  0  0  0  0  0  0  0  0
  1  2  1  0
  3  1  1  0
  5  8  1  0
  6  4  1  0
  7  5  1  0
  7  9  1  0
  8  1  1  0
  8  4  1  0
  9  6  1  0
  9 46  1  1
 10 16  1  0
 10  9  1  0
 11 16  1  0
 12 13  1  0
 12 11  1  0
 14 13  1  0
 14 21  1  0
 14 15  1  0
 16 15  1  0
 17 10  2  0
 18 19  2  0
 19 38  1  0
 20 23  1  0
 20 19  1  0
 21 22  1  0
 21 18  1  0
 22 20  2  0
 23 24  1  0
 24 25  2  0
 26 29  1  0
 26 25  1  0
 27 26  2  0
 28 27  1  0
 28 23  2  0
 29 30  1  0
 30 31  1  0
 31 32  2  0
 33 32  1  0
 33 37  1  0
 34 33  2  0
 35 30  2  0
 35 34  1  0
 36 35  1  0
 38 39  1  0
 39 41  1  0
 39 42  1  0
 40 38  2  0
 43 18  1  0
 43 44  1  0
 45 43  1  0
 46 47  2  0
 48 49  2  0
 48  1  1  0
 50 49  1  0
 51 62  2  0
 52 50  1  0
 52 57  1  0
 53 61  1  0
 53 63  1  0
 54 60  1  0
 54 56  1  0
 55 61  1  0
 56 57  2  0
 56 55  1  0
 58 52  2  0
 59 58  1  0
 59 54  2  0
 60 53  1  0
 61 51  1  0
 63 65  2  0
 64 63  1  0
 66 64  1  0
 67 76  2  0
 67 72  1  0
 68 64  1  0
 68 72  1  0
 69 68  1  0
 70 71  1  0
 70 69  1  0
 71 67  1  0
 72 73  2  0
 73 74  1  0
 75 74  2  0
 76 75  1  0
 77 51  1  0
 77 82  1  0
 77 78  1  0
 78 81  1  1
 78 79  1  0
 80 78  1  0
 82 85  1  0
 83 87  1  0
 83 82  1  0
 84 83  2  0
 87 86  1  0
 89 87  1  0
 89 90  1  0
 89 88  1  0
M  ISO  4   9 100  10 100  49 101  50 101
M  END
>  <TORSDO>  (72) 
F 20

>  <SCORE>  (72) 
-13.302

>  <name>  (72) 
71

>  <ligand_id>  (72) 
71

>  <original_smiles>  (72) 
[H]C(=O)C1(C(=O)N2C([H])([H])C([H])([H])C([H])([H])C([H])(n3nc(-c4c([H])c([H])c(Oc5c([H])c([H])c(F)c([H])c5F)c([H])c4[H])c(C(=O)N([H])[H])c3N([H])[H])C2([H])[H])C([H])([H])C([H])([H])C([H])([N+]([H])([H])C([H])([H])C([H])([H])Oc2c([H])c([H])c3c(c2[H])C([H])([H])N(C(=O)C([H])(N([H])C(=O)C([H])(N([H])C([H])([H])[H])C([H])([H])[H])C(C([H])([H])[H])(C([H])([H])[H])C([H])([H])[H])C([H])(C(=O)N([H])C2([H])c4c([H])c([H])c([H])c([H])c4C([H])([H])C([H])([H])C2([H])[H])C3([H])[H])C([H])([H])C1([H])[H]

>  <smiles>  (72) 
[H]C(=O)C1(C(=O)N2C([H])([H])C([H])([H])C([H])([H])C([H])(n3nc(-c4c([H])c([H])c(Oc5c([H])c([H])c(F)c([H])c5F)c([H])c4[H])c(C(=O)N([H])[H])c3N([H])[H])C2([H])[H])C([H])([H])C([H])([H])C([H])([N+]([H])([H])C([H])([H])C([H])([H])Oc2c([H])c([H])c3c(c2[H])C([H])([H])N(C(=O)C([H])(N([H])C(=O)C([H])(N([H])C([H])([H])[H])C([H])([H])[H])C(C([H])([H])[H])(C([H])([H])[H])C([H])([H])[H])C([H])(C(=O)N([H])C2([H])c4c([H])c([H])c([H])c([H])c4C([H])([H])C([H])([H])C2([H])[H])C3([H])[H])C([H])([H])C1([H])[H]

$$$$
72:0:0
     RDKit          3D

 91100  0  0  1  0  0  0  0  0999 V2000
  -29.0580  -22.6690   19.0650 C   0  0  0  0  0  3  0  0  0  0  0  0
  -28.4400  -22.5540   21.3320 C   0  0  0  0  0  3  0  0  0  0  0  0
  -28.7580  -24.0900   19.0520 C   0  0  0  0  0  3  0  0  0  0  0  0
  -28.1350  -23.9820   21.3160 C   0  0  0  0  0  3  0  0  0  0  0  0
  -28.9510  -21.8110   20.2110 C   0  0  0  0  0  0  0  0  0  0  0  0
  -28.2960  -24.8480   20.1790 C   0  0  0  0  0  0  0  0  0  0  0  0
  -30.7140  -18.3660   21.4240 C   0  0  0  0  0  0  0  0  0  0  0  0
  -30.4400  -19.9000   21.4880 C   0  0  0  0  0  2  0  0  0  0  0  0
  -28.9330  -18.8250   19.9660 C   0  0  0  0  0  2  0  0  0  0  0  0
  -29.6000  -20.2860   20.2470 C   0  0  0  0  0  3  0  0  0  0  0  0
  -30.0640  -17.6610   20.2170 C   0  0  0  0  0  3  0  0  0  0  0  0
  -31.3820  -17.7960   22.2910 O   0  0  0  0  0  0  0  0  0  0  0  0
  -30.5100  -14.9740   20.2870 C   0  0  0  0  0  0  0  0  0  0  0  0
  -30.3750  -12.6410   19.3290 C   0  0  0  0  0  2  0  0  0  0  0  0
  -29.4170  -12.6260   18.1150 C   0  0  0  0  0  2  0  0  0  0  0  0
  -27.9620  -12.4140   18.5730 C   0  0  0  0  0  2  0  0  0  0  0  0
  -27.5800  -13.3210   19.7730 C   0  0  0  0  0  3  0  0  0  0  0  0
  -28.6550  -13.3080   20.8790 C   0  0  0  0  0  2  0  0  0  0  0  0
  -29.9180  -13.7170   20.2530 N   0  0  0  0  0  0  0  0  0  0  0  0
  -31.6990  -15.0550   19.9590 O   0  0  0  0  0  0  0  0  0  0  0  0
  -29.7260  -16.1410   20.4590 N   0  0  0  0  0  0  0  0  0  0  0  0
  -28.7730  -15.9590   20.7310 H   0  0  0  0  0  0  0  0  0  0  0  0
  -25.2110  -13.8870   20.5650 C   0  0  0  0  0  0  0  0  0  0  0  0
  -24.1570  -13.1050   20.9470 C   0  0  0  0  0  0  0  0  0  0  0  0
  -24.6220  -11.7550   20.8880 C   0  0  0  0  0  0  0  0  0  0  0  0
  -26.2510  -13.0140   20.2920 N   0  0  0  0  0  0  0  0  0  0  0  0
  -25.9070  -11.7260   20.5510 N   0  0  0  0  0  0  0  0  0  0  0  0
  -23.9020  -10.4890   21.0730 C   0  0  0  0  0  0  0  0  0  0  0  0
  -24.3450   -9.5140   21.9930 C   0  0  0  0  0  3  0  0  0  0  0  0
  -23.6230   -8.3130   22.1690 C   0  0  0  0  0  3  0  0  0  0  0  0
  -22.4430   -8.0800   21.4240 C   0  0  0  0  0  0  0  0  0  0  0  0
  -22.0190   -9.0430   20.4920 C   0  0  0  0  0  3  0  0  0  0  0  0
  -22.7410  -10.2350   20.3150 C   0  0  0  0  0  3  0  0  0  0  0  0
  -21.6930   -6.9310   21.5090 O   0  0  0  0  0  0  0  0  0  0  0  0
  -21.6500   -6.1830   22.6570 C   0  0  0  0  0  0  0  0  0  0  0  0
  -21.1990   -6.7230   23.8820 C   0  0  0  0  0  3  0  0  0  0  0  0
  -21.1060   -5.8990   25.0210 C   0  0  0  0  0  3  0  0  0  0  0  0
  -21.4520   -4.5380   24.9380 C   0  0  0  0  0  0  0  0  0  0  0  0
  -21.8950   -3.9970   23.7180 C   0  0  0  0  0  3  0  0  0  0  0  0
  -21.9890   -4.8170   22.5790 C   0  0  0  0  0  0  0  0  0  0  0  0
  -22.3960   -4.2860   21.4010 F   0  0  0  0  0  0  0  0  0  0  0  0
  -21.3540   -3.7440   26.0300 F   0  0  0  0  0  0  0  0  0  0  0  0
  -22.7640  -13.5750   21.2520 C   0  0  0  0  0  0  0  0  0  0  0  0
  -22.0530  -12.8650   22.1210 N   0  0  0  0  0  0  0  0  0  0  0  0
  -22.3160  -14.6080   20.7550 O   0  0  0  0  0  0  0  0  0  0  0  0
  -22.4280  -12.0300   22.5450 H   0  0  0  0  0  0  0  0  0  0  0  0
  -21.1190  -13.1630   22.3650 H   0  0  0  0  0  0  0  0  0  0  0  0
  -25.3690  -15.2610   20.4000 N   0  0  0  0  0  0  0  0  0  0  0  0
  -24.6000  -15.9100   20.5230 H   0  0  0  0  0  0  0  0  0  0  0  0
  -26.1940  -15.6980   20.0080 H   0  0  0  0  0  0  0  0  0  0  0  0
  -28.2710  -26.3130   20.2000 O   0  0  0  0  0  0  0  0  0  0  0  0
  -24.5990  -31.9180   23.2150 C   0  0  0  0  0  0  0  0  0  0  0  0
  -27.1560  -27.2120   20.1940 C   0  0  0  0  0  0  0  0  0  0  0  0
  -23.3820  -30.5130   21.5920 C   0  0  0  0  0  3  0  0  0  0  0  0
  -24.8170  -28.9240   20.1680 C   0  0  0  0  0  0  0  0  0  0  0  0
  -25.9290  -30.7870   21.3980 C   0  0  0  0  0  2  0  0  0  0  0  0
  -25.9960  -29.3890   20.7640 C   0  0  0  0  0  0  0  0  0  0  0  0
  -27.1640  -28.5460   20.7600 C   0  0  0  0  0  3  0  0  0  0  0  0
  -25.9520  -26.8310   19.5670 C   0  0  0  0  0  3  0  0  0  0  0  0
  -24.8040  -27.6600   19.5560 C   0  0  0  0  0  3  0  0  0  0  0  0
  -23.5890  -29.8210   20.2160 C   0  0  0  0  0  2  0  0  0  0  0  0
  -24.6570  -31.0940   22.1240 N   0  0  0  0  0  0  0  0  0  0  0  0
  -23.5180  -32.2070   23.7510 O   0  0  0  0  0  0  0  0  0  0  0  0
  -22.7130  -29.5140   22.5650 C   0  0  0  0  0  0  0  0  0  0  0  0
  -21.3840  -29.3400   22.4450 N   0  0  0  0  0  0  0  0  0  0  0  0
  -23.3900  -28.8960   23.3920 O   0  0  0  0  0  0  0  0  0  0  0  0
  -20.8960  -29.8890   21.7520 H   0  0  0  0  0  0  0  0  0  0  0  0
  -18.0070  -28.1430   22.9660 C   0  0  0  0  0  0  0  0  0  0  0  0
  -20.5670  -28.4090   23.2250 C   0  0  0  0  0  3  0  0  0  0  0  0
  -20.6670  -26.9720   22.6580 C   0  0  0  0  0  2  0  0  0  0  0  0
  -19.5620  -26.6430   21.6490 C   0  0  0  0  0  2  0  0  0  0  0  0
  -18.1830  -26.7900   22.2970 C   0  0  0  0  0  2  0  0  0  0  0  0
  -19.1270  -28.9100   23.3870 C   0  0  0  0  0  0  0  0  0  0  0  0
  -18.9070  -30.1750   23.9730 C   0  0  0  0  0  3  0  0  0  0  0  0
  -17.6020  -30.6740   24.1420 C   0  0  0  0  0  3  0  0  0  0  0  0
  -16.4970  -29.9050   23.7370 C   0  0  0  0  0  3  0  0  0  0  0  0
  -16.7020  -28.6410   23.1540 C   0  0  0  0  0  3  0  0  0  0  0  0
  -25.8840  -32.5540   23.8290 C   0  0  0  0  0  3  0  0  0  0  0  0
  -25.5720  -33.9490   24.1790 N   0  0  0  0  0  0  0  0  0  0  0  0
  -25.8710  -35.0110   23.4200 C   0  0  0  0  0  0  0  0  0  0  0  0
  -26.5070  -34.9210   22.3660 O   0  0  0  0  0  0  0  0  0  0  0  0
  -25.0020  -34.0920   25.0010 H   0  0  0  0  0  0  0  0  0  0  0  0
  -24.1110  -36.7900   23.1510 C   0  0  0  0  0  1  0  0  0  0  0  0
  -25.3900  -36.3930   23.9050 C   0  0  0  0  0  3  0  0  0  0  0  0
  -27.5470  -37.3000   24.6540 C   0  0  0  0  0  1  0  0  0  0  0  0
  -26.4060  -37.4580   23.7560 N   0  0  0  0  0  0  0  0  0  0  0  0
  -25.9970  -38.3720   23.9240 H   0  0  0  0  0  0  0  0  0  0  0  0
  -26.4160  -31.7760   25.0950 C   0  0  1  0  0  0  0  0  0  0  0  0
  -25.3340  -31.5290   26.1720 C   0  0  0  0  0  1  0  0  0  0  0  0
  -26.9990  -30.4010   24.6910 C   0  0  0  0  0  1  0  0  0  0  0  0
  -27.5710  -32.5690   25.7540 C   0  0  0  0  0  1  0  0  0  0  0  0
  1  5  1  0
  3  1  2  0
  3  6  1  0
  4  2  1  0
  5  2  2  0
  6 51  1  0
  6  4  2  0
  7  8  1  0
  7 12  2  0
  9 11  1  0
  9 10  1  0
 10  5  1  0
 10  8  1  0
 11 21  1  0
 11  7  1  0
 13 21  1  0
 14 19  1  0
 15 16  1  0
 15 14  1  0
 17 16  1  0
 17 26  1  0
 17 18  1  0
 19 13  1  0
 19 18  1  0
 20 13  2  0
 21 22  1  0
 23 24  2  0
 24 43  1  0
 25 24  1  0
 25 28  1  0
 26 27  1  0
 26 23  1  0
 27 25  2  0
 28 29  1  0
 29 30  2  0
 31 34  1  0
 31 30  1  0
 32 31  2  0
 33 32  1  0
 33 28  2  0
 34 35  1  0
 35 36  1  0
 36 37  2  0
 38 37  1  0
 38 42  1  0
 39 38  2  0
 40 35  2  0
 40 39  1  0
 41 40  1  0
 43 44  1  0
 44 47  1  0
 44 46  1  0
 45 43  2  0
 48 49  1  0
 48 23  1  0
 50 48  1  0
 52 63  2  0
 53 51  1  0
 53 58  1  0
 54 62  1  0
 54 64  1  0
 55 61  1  0
 55 57  1  0
 56 62  1  0
 57 56  1  0
 58 57  2  0
 59 53  2  0
 60 59  1  0
 60 55  2  0
 61 54  1  0
 62 52  1  0
 64 66  2  0
 65 64  1  0
 67 65  1  0
 68 77  2  0
 68 73  1  0
 69 65  1  0
 69 73  1  0
 70 69  1  0
 71 72  1  0
 71 70  1  0
 72 68  1  0
 73 74  2  0
 74 75  1  0
 76 75  2  0
 77 76  1  0
 78 52  1  0
 78 79  1  0
 78 88  1  0
 79 82  1  0
 80 84  1  0
 80 79  1  0
 81 80  2  0
 84 83  1  0
 86 84  1  0
 86 87  1  0
 86 85  1  0
 88 91  1  1
 88 89  1  0
 90 88  1  0
M  ISO  4   6 101  13 100  21 100  51 101
M  END
>  <TORSDO>  (73) 
F 17

>  <SCORE>  (73) 
-15.128

>  <name>  (73) 
72

>  <ligand_id>  (73) 
72

>  <original_smiles>  (73) 
[H]c1c([H])c([H])c2c(c1[H])C([H])([H])C([H])([H])C([H])([H])C2([H])N([H])C(=O)C1([H])N(C(=O)C([H])(N([H])C(=O)C([H])(N([H])C([H])([H])[H])C([H])([H])[H])C(C([H])([H])[H])(C([H])([H])[H])C([H])([H])[H])C([H])([H])c2c([H])c(Oc3c([H])c([H])c(C4([H])C([H])([H])C(=O)C([H])(N([H])C(=O)N5C([H])([H])C([H])([H])C([H])([H])C([H])(n6nc(-c7c([H])c([H])c(Oc8c([H])c([H])c(F)c([H])c8F)c([H])c7[H])c(C(=O)N([H])[H])c6N([H])[H])C5([H])[H])C4([H])[H])c([H])c3[H])c([H])c([H])c2C1([H])[H]

>  <smiles>  (73) 
[H]c1c([H])c([H])c2c(c1[H])C([H])([H])C([H])([H])C([H])([H])C2([H])N([H])C(=O)C1([H])N(C(=O)C([H])(N([H])C(=O)C([H])(N([H])C([H])([H])[H])C([H])([H])[H])C(C([H])([H])[H])(C([H])([H])[H])C([H])([H])[H])C([H])([H])c2c([H])c(Oc3c([H])c([H])c(C4([H])C([H])([H])C(=O)C([H])(N([H])C(=O)N5C([H])([H])C([H])([H])C([H])([H])C([H])(n6nc(-c7c([H])c([H])c(Oc8c([H])c([H])c(F)c([H])c8F)c([H])c7[H])c(C(=O)N([H])[H])c6N([H])[H])C5([H])[H])C4([H])[H])c([H])c3[H])c([H])c([H])c2C1([H])[H]

$$$$
73:0:0
     RDKit          3D

 90 98  0  0  1  0  0  0  0  0999 V2000
  -26.6480  -23.4130   21.8400 C   0  0  0  0  0  3  0  0  0  0  0  0
  -27.4880  -22.3400   21.4790 C   0  0  0  0  0  3  0  0  0  0  0  0
  -26.9270  -24.7330   21.4370 C   0  0  0  0  0  3  0  0  0  0  0  0
  -28.8890  -23.9190   20.2640 C   0  0  0  0  0  3  0  0  0  0  0  0
  -28.6470  -22.5490   20.6990 C   0  0  0  0  0  0  0  0  0  0  0  0
  -28.0330  -25.0480   20.6080 C   0  0  0  0  0  0  0  0  0  0  0  0
  -29.6420  -21.3660   20.5060 C   0  0  0  0  0  0  0  0  0  0  0  0
  -29.2160  -20.0550   20.5580 N   0  0  0  0  0  0  0  0  0  0  0  0
  -30.8370  -21.6270   20.3680 O   0  0  0  0  0  0  0  0  0  0  0  0
  -28.2110  -19.9550   20.5330 H   0  0  0  0  0  0  0  0  0  0  0  0
  -29.9560  -18.8430   21.1090 C   0  0  0  0  0  2  0  0  0  0  0  0
  -30.1620  -17.4830   20.2700 C   0  0  0  0  0  2  0  0  0  0  0  0
  -30.0660  -16.0740   21.0560 C   0  0  0  0  0  2  0  0  0  0  0  0
  -30.7330  -14.7520   20.4570 C   0  0  0  0  0  0  0  0  0  0  0  0
  -30.5030  -12.5030   19.3830 C   0  0  0  0  0  2  0  0  0  0  0  0
  -29.5900  -12.6480   18.1480 C   0  0  0  0  0  2  0  0  0  0  0  0
  -28.1080  -12.4940   18.5460 C   0  0  0  0  0  2  0  0  0  0  0  0
  -27.7350  -13.3390   19.7950 C   0  0  0  0  0  3  0  0  0  0  0  0
  -28.7790  -13.1890   20.9250 C   0  0  0  0  0  2  0  0  0  0  0  0
  -30.0910  -13.5340   20.3650 N   0  0  0  0  0  0  0  0  0  0  0  0
  -31.8750  -14.8660   20.0040 O   0  0  0  0  0  0  0  0  0  0  0  0
  -25.3220  -13.9250   20.4460 C   0  0  0  0  0  0  0  0  0  0  0  0
  -24.2510  -13.1520   20.8050 C   0  0  0  0  0  0  0  0  0  0  0  0
  -24.7200  -11.8030   20.8030 C   0  0  0  0  0  0  0  0  0  0  0  0
  -26.3780  -13.0500   20.2520 N   0  0  0  0  0  0  0  0  0  0  0  0
  -26.0200  -11.7670   20.5260 N   0  0  0  0  0  0  0  0  0  0  0  0
  -23.9930  -10.5410   20.9980 C   0  0  0  0  0  0  0  0  0  0  0  0
  -24.4140   -9.5820   21.9460 C   0  0  0  0  0  3  0  0  0  0  0  0
  -23.6860   -8.3860   22.1270 C   0  0  0  0  0  3  0  0  0  0  0  0
  -22.5230   -8.1380   21.3600 C   0  0  0  0  0  0  0  0  0  0  0  0
  -22.1220   -9.0840   20.3980 C   0  0  0  0  0  3  0  0  0  0  0  0
  -22.8520  -10.2720   20.2160 C   0  0  0  0  0  3  0  0  0  0  0  0
  -21.7670   -6.9940   21.4510 O   0  0  0  0  0  0  0  0  0  0  0  0
  -21.7090   -6.2600   22.6080 C   0  0  0  0  0  0  0  0  0  0  0  0
  -21.2750   -6.8240   23.8270 C   0  0  0  0  0  3  0  0  0  0  0  0
  -21.1650   -6.0160   24.9770 C   0  0  0  0  0  3  0  0  0  0  0  0
  -21.4780   -4.6450   24.9080 C   0  0  0  0  0  0  0  0  0  0  0  0
  -21.9040   -4.0810   23.6930 C   0  0  0  0  0  3  0  0  0  0  0  0
  -22.0180   -4.8860   22.5460 C   0  0  0  0  0  0  0  0  0  0  0  0
  -22.4090   -4.3340   21.3730 F   0  0  0  0  0  0  0  0  0  0  0  0
  -21.3650   -3.8650   26.0090 F   0  0  0  0  0  0  0  0  0  0  0  0
  -22.8470  -13.6270   21.0390 C   0  0  0  0  0  0  0  0  0  0  0  0
  -22.1060  -12.9400   21.9040 N   0  0  0  0  0  0  0  0  0  0  0  0
  -22.4160  -14.6430   20.4960 O   0  0  0  0  0  0  0  0  0  0  0  0
  -22.4700  -12.1220   22.3710 H   0  0  0  0  0  0  0  0  0  0  0  0
  -21.1590  -13.2370   22.0990 H   0  0  0  0  0  0  0  0  0  0  0  0
  -25.4770  -15.2920   20.2470 N   0  0  0  0  0  0  0  0  0  0  0  0
  -24.6920  -15.9300   20.3120 H   0  0  0  0  0  0  0  0  0  0  0  0
  -26.3260  -15.7390   19.9270 H   0  0  0  0  0  0  0  0  0  0  0  0
  -28.2550  -26.4110   20.2170 O   0  0  0  0  0  0  0  0  0  0  0  0
  -24.5800  -31.8920   23.2420 C   0  0  0  0  0  0  0  0  0  0  0  0
  -27.1840  -27.3310   20.1600 C   0  0  0  0  0  0  0  0  0  0  0  0
  -23.3800  -30.4990   21.5990 C   0  0  0  0  0  3  0  0  0  0  0  0
  -24.8310  -28.9660   20.1470 C   0  0  0  0  0  0  0  0  0  0  0  0
  -25.9220  -30.8160   21.4180 C   0  0  0  0  0  2  0  0  0  0  0  0
  -25.9990  -29.4410   20.7590 C   0  0  0  0  0  0  0  0  0  0  0  0
  -27.1800  -28.6330   20.7590 C   0  0  0  0  0  3  0  0  0  0  0  0
  -26.0060  -26.9370   19.4930 C   0  0  0  0  0  3  0  0  0  0  0  0
  -24.8380  -27.7220   19.4980 C   0  0  0  0  0  3  0  0  0  0  0  0
  -23.5920  -29.8380   20.2110 C   0  0  0  0  0  2  0  0  0  0  0  0
  -24.6470  -31.0860   22.1420 N   0  0  0  0  0  0  0  0  0  0  0  0
  -23.4950  -32.1700   23.7740 O   0  0  0  0  0  0  0  0  0  0  0  0
  -22.7260  -29.4690   22.5500 C   0  0  0  0  0  0  0  0  0  0  0  0
  -21.3990  -29.2940   22.4330 N   0  0  0  0  0  0  0  0  0  0  0  0
  -23.4130  -28.8370   23.3590 O   0  0  0  0  0  0  0  0  0  0  0  0
  -20.9020  -29.8950   21.7940 H   0  0  0  0  0  0  0  0  0  0  0  0
  -18.0240  -28.0730   22.9290 C   0  0  0  0  0  0  0  0  0  0  0  0
  -20.5850  -28.3420   23.1930 C   0  0  0  0  0  3  0  0  0  0  0  0
  -20.6870  -26.9150   22.6150 C   0  0  0  0  0  2  0  0  0  0  0  0
  -19.5840  -26.5930   21.6030 C   0  0  0  0  0  2  0  0  0  0  0  0
  -18.2100  -26.7210   22.2610 C   0  0  0  0  0  2  0  0  0  0  0  0
  -19.1440  -28.8400   23.3520 C   0  0  0  0  0  0  0  0  0  0  0  0
  -18.9220  -30.1070   23.9350 C   0  0  0  0  0  3  0  0  0  0  0  0
  -17.6150  -30.6030   24.1070 C   0  0  0  0  0  3  0  0  0  0  0  0
  -16.5110  -29.8310   23.6990 C   0  0  0  0  0  3  0  0  0  0  0  0
  -16.7170  -28.5680   23.1180 C   0  0  0  0  0  3  0  0  0  0  0  0
  -25.8620  -32.5270   23.8660 C   0  0  0  0  0  3  0  0  0  0  0  0
  -26.3740  -31.7610   25.1480 C   0  0  1  0  0  0  0  0  0  0  0  0
  -25.2750  -31.5260   26.2100 C   0  0  0  0  0  1  0  0  0  0  0  0
  -26.9600  -30.3810   24.7650 C   0  0  0  0  0  1  0  0  0  0  0  0
  -27.5210  -32.5620   25.8090 C   0  0  0  0  0  1  0  0  0  0  0  0
  -25.5500  -33.9270   24.1900 N   0  0  0  0  0  0  0  0  0  0  0  0
  -25.8820  -34.9780   23.4290 C   0  0  0  0  0  0  0  0  0  0  0  0
  -26.5560  -34.8720   22.4020 O   0  0  0  0  0  0  0  0  0  0  0  0
  -24.9500  -34.0820   24.9870 H   0  0  0  0  0  0  0  0  0  0  0  0
  -24.1550  -36.7700   23.0670 C   0  0  0  0  0  1  0  0  0  0  0  0
  -25.3930  -36.3670   23.8830 C   0  0  0  0  0  3  0  0  0  0  0  0
  -27.5220  -37.2540   24.7210 C   0  0  0  0  0  1  0  0  0  0  0  0
  -26.4260  -37.4200   23.7710 N   0  0  0  0  0  0  0  0  0  0  0  0
  -26.0190  -38.3410   23.9130 H   0  0  0  0  0  0  0  0  0  0  0  0
  2  1  1  0
  3  1  2  0
  4  6  2  0
  4  5  1  0
  5  2  2  0
  6  3  1  0
  7  8  1  0
  7  5  1  0
  8 11  1  0
  9  7  2  0
 10  8  1  0
 12 13  1  0
 12 11  1  0
 14 13  1  0
 15 20  1  0
 16 17  1  0
 16 15  1  0
 18 17  1  0
 18 25  1  0
 18 19  1  0
 20 14  1  0
 20 19  1  0
 21 14  2  0
 22 23  2  0
 23 42  1  0
 24 23  1  0
 24 27  1  0
 25 22  1  0
 25 26  1  0
 26 24  2  0
 27 28  1  0
 28 29  2  0
 30 33  1  0
 30 29  1  0
 31 30  2  0
 32 31  1  0
 32 27  2  0
 33 34  1  0
 34 35  1  0
 35 36  2  0
 37 36  1  0
 37 41  1  0
 38 37  2  0
 39 34  2  0
 39 38  1  0
 40 39  1  0
 42 43  1  0
 43 46  1  0
 43 45  1  0
 44 42  2  0
 47 48  1  0
 47 22  1  0
 49 47  1  0
 50  6  1  0
 51 62  2  0
 52 50  1  0
 52 57  1  0
 53 61  1  0
 53 63  1  0
 54 60  1  0
 54 56  1  0
 55 61  1  0
 56 57  2  0
 56 55  1  0
 58 59  1  0
 58 52  2  0
 59 54  2  0
 60 53  1  0
 61 51  1  0
 63 65  2  0
 64 63  1  0
 66 64  1  0
 67 76  2  0
 67 72  1  0
 68 64  1  0
 68 72  1  0
 69 68  1  0
 70 71  1  0
 70 69  1  0
 71 67  1  0
 72 73  2  0
 73 74  1  0
 75 74  2  0
 76 75  1  0
 77 51  1  0
 77 82  1  0
 77 78  1  0
 78 81  1  1
 78 79  1  0
 80 78  1  0
 82 85  1  0
 83 87  1  0
 83 82  1  0
 84 83  2  0
 87 86  1  0
 89 87  1  0
 89 90  1  0
 89 88  1  0
M  ISO  4   6 101  13 100  14 100  50 101
M  END
>  <TORSDO>  (74) 
F 20

>  <SCORE>  (74) 
-13.763

>  <name>  (74) 
73

>  <ligand_id>  (74) 
73

>  <original_smiles>  (74) 
[H]c1c([H])c(Oc2c([H])c([H])c3c(c2[H])C([H])([H])N(C(=O)C([H])(N([H])C(=O)C([H])(N([H])C([H])([H])[H])C([H])([H])[H])C(C([H])([H])[H])(C([H])([H])[H])C([H])([H])[H])C([H])(C(=O)N([H])C2([H])c4c([H])c([H])c([H])c([H])c4C([H])([H])C([H])([H])C2([H])[H])C3([H])[H])c([H])c(C(=O)N([H])C([H])([H])C([H])([H])C([H])([H])C(=O)N2C([H])([H])C([H])([H])C([H])([H])C([H])(n3nc(-c4c([H])c([H])c(Oc5c([H])c([H])c(F)c([H])c5F)c([H])c4[H])c(C(=O)N([H])[H])c3N([H])[H])C2([H])[H])c1[H]

>  <smiles>  (74) 
[H]c1c([H])c(Oc2c([H])c([H])c3c(c2[H])C([H])([H])N(C(=O)C([H])(N([H])C(=O)C([H])(N([H])C([H])([H])[H])C([H])([H])[H])C(C([H])([H])[H])(C([H])([H])[H])C([H])([H])[H])C([H])(C(=O)N([H])C2([H])c4c([H])c([H])c([H])c([H])c4C([H])([H])C([H])([H])C2([H])[H])C3([H])[H])c([H])c(C(=O)N([H])C([H])([H])C([H])([H])C([H])([H])C(=O)N2C([H])([H])C([H])([H])C([H])([H])C([H])(n3nc(-c4c([H])c([H])c(Oc5c([H])c([H])c(F)c([H])c5F)c([H])c4[H])c(C(=O)N([H])[H])c3N([H])[H])C2([H])[H])c1[H]

$$$$
74:0:0
     RDKit          3D

 93102  0  0  1  0  0  0  0  0999 V2000
  -30.6060  -14.9980   20.4080 C   0  0  0  0  0  0  0  0  0  0  0  0
  -30.4990  -12.6430   19.4980 C   0  0  0  0  0  2  0  0  0  0  0  0
  -29.5780  -12.5520   18.2550 C   0  0  0  0  0  2  0  0  0  0  0  0
  -28.0960  -12.3710   18.6520 C   0  0  0  0  0  2  0  0  0  0  0  0
  -27.6510  -13.2900   19.8190 C   0  0  0  0  0  3  0  0  0  0  0  0
  -28.7040  -13.3610   20.9450 C   0  0  0  0  0  2  0  0  0  0  0  0
  -30.0010  -13.7410   20.3620 N   0  0  0  0  0  0  0  0  0  0  0  0
  -31.8370  -15.0630   20.3360 O   0  0  0  0  0  0  0  0  0  0  0  0
  -30.4660  -18.7490   21.2440 C   0  0  0  0  0  3  0  0  0  0  0  0
  -30.1390  -20.1740   21.2340 C   0  0  0  0  0  3  0  0  0  0  0  0
  -28.4680  -19.7670   19.6120 C   0  0  0  0  0  3  0  0  0  0  0  0
  -28.9920  -16.1900   19.0140 C   0  0  0  0  0  3  0  0  0  0  0  0
  -28.7810  -18.3570   19.5670 C   0  0  0  0  0  0  0  0  0  0  0  0
  -29.8100  -17.7820   20.4020 C   0  0  0  0  0  0  0  0  0  0  0  0
  -29.1190  -20.7560   20.4040 C   0  0  0  0  0  0  0  0  0  0  0  0
  -28.2590  -17.3100   18.7560 C   0  0  0  0  0  0  0  0  0  0  0  0
  -29.8500  -16.3260   20.1050 N   0  0  0  0  0  0  0  0  0  0  0  0
  -25.2610  -13.8810   20.5100 C   0  0  0  0  0  0  0  0  0  0  0  0
  -24.1920  -13.1050   20.8620 C   0  0  0  0  0  0  0  0  0  0  0  0
  -24.6690  -11.7590   20.8610 C   0  0  0  0  0  0  0  0  0  0  0  0
  -26.3140  -13.0000   20.3080 N   0  0  0  0  0  0  0  0  0  0  0  0
  -25.9670  -11.7200   20.5860 N   0  0  0  0  0  0  0  0  0  0  0  0
  -23.9520  -10.4930   21.0420 C   0  0  0  0  0  0  0  0  0  0  0  0
  -24.3780   -9.5360   21.9880 C   0  0  0  0  0  3  0  0  0  0  0  0
  -23.6600   -8.3330   22.1570 C   0  0  0  0  0  3  0  0  0  0  0  0
  -22.5060   -8.0810   21.3800 C   0  0  0  0  0  0  0  0  0  0  0  0
  -22.1030   -9.0270   20.4210 C   0  0  0  0  0  3  0  0  0  0  0  0
  -22.8210  -10.2200   20.2490 C   0  0  0  0  0  3  0  0  0  0  0  0
  -21.7590   -6.9310   21.4610 O   0  0  0  0  0  0  0  0  0  0  0  0
  -21.6980   -6.1930   22.6160 C   0  0  0  0  0  0  0  0  0  0  0  0
  -21.2470   -6.7540   23.8330 C   0  0  0  0  0  3  0  0  0  0  0  0
  -21.1320   -5.9430   24.9800 C   0  0  0  0  0  3  0  0  0  0  0  0
  -21.4570   -4.5740   24.9120 C   0  0  0  0  0  0  0  0  0  0  0  0
  -21.9020   -4.0160   23.7010 C   0  0  0  0  0  3  0  0  0  0  0  0
  -22.0200   -4.8230   22.5560 C   0  0  0  0  0  0  0  0  0  0  0  0
  -22.4280   -4.2760   21.3860 F   0  0  0  0  0  0  0  0  0  0  0  0
  -21.3410   -3.7940   26.0110 F   0  0  0  0  0  0  0  0  0  0  0  0
  -22.7850  -13.5750   21.0820 C   0  0  0  0  0  0  0  0  0  0  0  0
  -22.0340  -12.8870   21.9330 N   0  0  0  0  0  0  0  0  0  0  0  0
  -22.3540  -14.5870   20.5300 O   0  0  0  0  0  0  0  0  0  0  0  0
  -22.3930  -12.0720   22.4080 H   0  0  0  0  0  0  0  0  0  0  0  0
  -21.0880  -13.1860   22.1200 H   0  0  0  0  0  0  0  0  0  0  0  0
  -25.4110  -15.2530   20.3130 N   0  0  0  0  0  0  0  0  0  0  0  0
  -24.6160  -15.8820   20.3580 H   0  0  0  0  0  0  0  0  0  0  0  0
  -26.2310  -15.6840   19.9030 H   0  0  0  0  0  0  0  0  0  0  0  0
  -28.6600  -22.1530   20.2580 N   0  0  0  0  0  0  0  0  0  0  0  0
  -27.8680  -22.2320   19.6250 H   0  0  0  0  0  0  0  0  0  0  0  0
  -30.5240  -23.8420   20.3610 C   0  0  0  0  0  1  0  0  0  0  0  0
  -29.0670  -23.5570   20.7410 C   0  0  0  0  0  3  0  0  0  0  0  0
  -28.1090  -24.8330   20.2590 C   0  0  0  0  0  2  0  0  0  0  0  0
  -28.3340  -26.3280   20.5240 O   0  0  0  0  0  0  0  0  0  0  0  0
  -24.6440  -31.9760   23.3300 C   0  0  0  0  0  0  0  0  0  0  0  0
  -27.2640  -27.2730   20.4010 C   0  0  0  0  0  0  0  0  0  0  0  0
  -23.4640  -30.5730   21.6790 C   0  0  0  0  0  3  0  0  0  0  0  0
  -24.9300  -28.9840   20.3000 C   0  0  0  0  0  0  0  0  0  0  0  0
  -26.0170  -30.8440   21.5510 C   0  0  0  0  0  2  0  0  0  0  0  0
  -26.0970  -29.4490   20.9180 C   0  0  0  0  0  0  0  0  0  0  0  0
  -27.2660  -28.6090   20.9500 C   0  0  0  0  0  3  0  0  0  0  0  0
  -26.0720  -26.8960   19.7390 C   0  0  0  0  0  3  0  0  0  0  0  0
  -24.9270  -27.7190   19.6940 C   0  0  0  0  0  3  0  0  0  0  0  0
  -23.7040  -29.8830   20.3100 C   0  0  0  0  0  2  0  0  0  0  0  0
  -24.7270  -31.1510   22.2420 N   0  0  0  0  0  0  0  0  0  0  0  0
  -23.5520  -32.2700   23.8380 O   0  0  0  0  0  0  0  0  0  0  0  0
  -22.7660  -29.5770   22.6380 C   0  0  0  0  0  0  0  0  0  0  0  0
  -21.4380  -29.4200   22.4920 N   0  0  0  0  0  0  0  0  0  0  0  0
  -23.4200  -28.9480   23.4740 O   0  0  0  0  0  0  0  0  0  0  0  0
  -20.9690  -29.9790   21.7930 H   0  0  0  0  0  0  0  0  0  0  0  0
  -18.0330  -28.2770   22.9540 C   0  0  0  0  0  0  0  0  0  0  0  0
  -20.5920  -28.4990   23.2540 C   0  0  0  0  0  3  0  0  0  0  0  0
  -20.6780  -27.0630   22.6840 C   0  0  0  0  0  2  0  0  0  0  0  0
  -19.5850  -26.7540   21.6580 C   0  0  0  0  0  2  0  0  0  0  0  0
  -18.1960  -26.9230   22.2830 C   0  0  0  0  0  2  0  0  0  0  0  0
  -19.1580  -29.0230   23.3950 C   0  0  0  0  0  0  0  0  0  0  0  0
  -18.9500  -30.2910   23.9820 C   0  0  0  0  0  3  0  0  0  0  0  0
  -17.6510  -30.8110   24.1300 C   0  0  0  0  0  3  0  0  0  0  0  0
  -16.5400  -30.0610   23.7050 C   0  0  0  0  0  3  0  0  0  0  0  0
  -16.7330  -28.7950   23.1230 C   0  0  0  0  0  3  0  0  0  0  0  0
  -25.9170  -32.6070   23.9750 C   0  0  0  0  0  3  0  0  0  0  0  0
  -26.3860  -31.8540   25.2800 C   0  0  1  0  0  0  0  0  0  0  0  0
  -25.2620  -31.6480   26.3210 C   0  0  0  0  0  1  0  0  0  0  0  0
  -26.9610  -30.4620   24.9290 C   0  0  0  0  0  1  0  0  0  0  0  0
  -27.5280  -32.6460   25.9610 C   0  0  0  0  0  1  0  0  0  0  0  0
  -25.6120  -34.0140   24.2760 N   0  0  0  0  0  0  0  0  0  0  0  0
  -25.9570  -35.0530   23.5050 C   0  0  0  0  0  0  0  0  0  0  0  0
  -26.6290  -34.9270   22.4780 O   0  0  0  0  0  0  0  0  0  0  0  0
  -25.0140  -34.1860   25.0710 H   0  0  0  0  0  0  0  0  0  0  0  0
  -24.2280  -36.8440   23.1380 C   0  0  0  0  0  1  0  0  0  0  0  0
  -25.4800  -36.4540   23.9390 C   0  0  0  0  0  3  0  0  0  0  0  0
  -27.6290  -37.3500   24.7190 C   0  0  0  0  0  1  0  0  0  0  0  0
  -26.5140  -37.5000   23.7890 N   0  0  0  0  0  0  0  0  0  0  0  0
  -26.1120  -38.4240   23.9220 H   0  0  0  0  0  0  0  0  0  0  0  0
  -27.2670  -17.3990   17.8200 O   0  0  0  0  0  0  0  0  0  0  0  0
  -26.8570  -18.2550   17.9060 H   0  0  0  0  0  0  0  0  0  0  0  0
  2  7  1  0
  3  4  1  0
  3  2  1  0
  5  4  1  0
  5 21  1  0
  5  6  1  0
  7  1  1  0
  7  6  1  0
  8  1  2  0
 10  9  1  0
 11 15  1  0
 12 17  1  0
 13 11  2  0
 13 14  1  0
 14  9  2  0
 15 10  2  0
 16 12  2  0
 16 13  1  0
 17 14  1  0
 17  1  1  0
 18 19  2  0
 19 38  1  0
 20 19  1  0
 20 23  1  0
 21 18  1  0
 21 22  1  0
 22 20  2  0
 23 24  1  0
 24 25  2  0
 26 29  1  0
 26 25  1  0
 27 26  2  0
 28 27  1  0
 28 23  2  0
 29 30  1  0
 30 31  1  0
 31 32  2  0
 33 32  1  0
 33 37  1  0
 34 33  2  0
 35 30  2  0
 35 34  1  0
 36 35  1  0
 38 39  1  0
 39 42  1  0
 39 41  1  0
 40 38  2  0
 43 44  1  0
 43 18  1  0
 45 43  1  0
 46 15  1  0
 46 49  1  0
 47 46  1  0
 49 48  1  0
 50 51  1  0
 50 49  1  0
 52 63  2  0
 53 51  1  0
 53 58  1  0
 54 62  1  0
 54 64  1  0
 55 61  1  0
 55 57  1  0
 56 62  1  0
 57 58  2  0
 57 56  1  0
 59 53  2  0
 60 59  1  0
 60 55  2  0
 61 54  1  0
 62 52  1  0
 64 66  2  0
 65 64  1  0
 67 65  1  0
 68 77  2  0
 68 73  1  0
 69 65  1  0
 69 73  1  0
 70 69  1  0
 71 72  1  0
 71 70  1  0
 72 68  1  0
 73 74  2  0
 74 75  1  0
 76 75  2  0
 77 76  1  0
 78 52  1  0
 78 83  1  0
 78 79  1  0
 79 82  1  1
 79 80  1  0
 81 79  1  0
 83 86  1  0
 84 88  1  0
 84 83  1  0
 85 84  2  0
 88 87  1  0
 90 91  1  0
 90 88  1  0
 90 89  1  0
 92 93  1  0
 92 16  1  0
M  ISO  4   1 100  17 100  50 101  51 101
M  END
>  <TORSDO>  (75) 
F 19

>  <SCORE>  (75) 
-13.950

>  <name>  (75) 
74

>  <ligand_id>  (75) 
74

>  <original_smiles>  (75) 
[H]Oc1c([H])n(C(=O)N2C([H])([H])C([H])([H])C([H])([H])C([H])(n3nc(-c4c([H])c([H])c(Oc5c([H])c([H])c(F)c([H])c5F)c([H])c4[H])c(C(=O)N([H])[H])c3N([H])[H])C2([H])[H])c2c([H])c([H])c(N([H])C([H])(C([H])([H])[H])C([H])([H])Oc3c([H])c([H])c4c(c3[H])C([H])([H])N(C(=O)C([H])(N([H])C(=O)C([H])(N([H])C([H])([H])[H])C([H])([H])[H])C(C([H])([H])[H])(C([H])([H])[H])C([H])([H])[H])C([H])(C(=O)N([H])C3([H])c5c([H])c([H])c([H])c([H])c5C([H])([H])C([H])([H])C3([H])[H])C4([H])[H])c([H])c12

>  <smiles>  (75) 
[H]Oc1c([H])n(C(=O)N2C([H])([H])C([H])([H])C([H])([H])C([H])(n3nc(-c4c([H])c([H])c(Oc5c([H])c([H])c(F)c([H])c5F)c([H])c4[H])c(C(=O)N([H])[H])c3N([H])[H])C2([H])[H])c2c([H])c([H])c(N([H])C([H])(C([H])([H])[H])C([H])([H])Oc3c([H])c([H])c4c(c3[H])C([H])([H])N(C(=O)C([H])(N([H])C(=O)C([H])(N([H])C([H])([H])[H])C([H])([H])[H])C(C([H])([H])[H])(C([H])([H])[H])C([H])([H])[H])C([H])(C(=O)N([H])C3([H])c5c([H])c([H])c([H])c([H])c5C([H])([H])C([H])([H])C3([H])[H])C4([H])[H])c([H])c12

$$$$
75:0:0
     RDKit          3D

 93102  0  0  1  0  0  0  0  0999 V2000
  -28.2980  -21.1960   19.2510 C   0  0  0  0  0  3  0  0  0  0  0  0
  -28.0720  -22.6220   19.3710 C   0  0  0  0  0  3  0  0  0  0  0  0
  -29.4270  -22.6360   21.3020 C   0  0  0  0  0  3  0  0  0  0  0  0
  -29.0820  -20.3900   20.1480 C   0  0  0  0  0  0  0  0  0  0  0  0
  -29.6650  -21.1990   21.1850 C   0  0  0  0  0  0  0  0  0  0  0  0
  -28.6020  -23.4260   20.4240 C   0  0  0  0  0  0  0  0  0  0  0  0
  -29.0700  -18.7820   20.0140 C   0  0  0  0  0  0  0  0  0  0  0  0
  -31.4550  -19.4550   21.8170 C   0  0  0  0  0  0  0  0  0  0  0  0
  -32.7240  -19.7580   21.4990 C   0  0  0  0  0  2  0  0  0  0  0  0
  -30.4760  -20.5250   22.2860 C   0  0  0  0  0  2  0  0  0  0  0  0
  -30.9360  -18.0230   21.7580 C   0  0  0  0  0  2  0  0  0  0  0  0
  -30.2190  -17.6670   20.4370 C   0  0  0  0  0  3  0  0  0  0  0  0
  -28.0670  -18.2890   19.4900 O   0  0  0  0  0  0  0  0  0  0  0  0
  -30.6390  -14.9740   20.2090 C   0  0  0  0  0  0  0  0  0  0  0  0
  -30.4750  -12.6380   19.2640 C   0  0  0  0  0  2  0  0  0  0  0  0
  -29.5150  -12.6170   18.0530 C   0  0  0  0  0  2  0  0  0  0  0  0
  -28.0570  -12.4230   18.5160 C   0  0  0  0  0  2  0  0  0  0  0  0
  -27.6840  -13.3490   19.7030 C   0  0  0  0  0  3  0  0  0  0  0  0
  -28.7630  -13.3410   20.8070 C   0  0  0  0  0  2  0  0  0  0  0  0
  -30.0280  -13.7270   20.1730 N   0  0  0  0  0  0  0  0  0  0  0  0
  -31.8290  -15.0480   19.8910 O   0  0  0  0  0  0  0  0  0  0  0  0
  -29.8710  -16.1350   20.4150 N   0  0  0  0  0  0  0  0  0  0  0  0
  -28.8890  -15.9540   20.5670 H   0  0  0  0  0  0  0  0  0  0  0  0
  -25.3250  -13.9410   20.5040 C   0  0  0  0  0  0  0  0  0  0  0  0
  -24.2630  -13.1690   20.8890 C   0  0  0  0  0  0  0  0  0  0  0  0
  -24.7150  -11.8150   20.8270 C   0  0  0  0  0  0  0  0  0  0  0  0
  -26.3550  -13.0580   20.2270 N   0  0  0  0  0  0  0  0  0  0  0  0
  -25.9980  -11.7730   20.4870 N   0  0  0  0  0  0  0  0  0  0  0  0
  -23.9820  -10.5560   21.0160 C   0  0  0  0  0  0  0  0  0  0  0  0
  -24.4110   -9.5820   21.9450 C   0  0  0  0  0  3  0  0  0  0  0  0
  -23.6770   -8.3900   22.1210 C   0  0  0  0  0  3  0  0  0  0  0  0
  -22.5000   -8.1610   21.3700 C   0  0  0  0  0  0  0  0  0  0  0  0
  -22.0900   -9.1230   20.4300 C   0  0  0  0  0  3  0  0  0  0  0  0
  -22.8240  -10.3080   20.2510 C   0  0  0  0  0  3  0  0  0  0  0  0
  -21.7380   -7.0210   21.4560 O   0  0  0  0  0  0  0  0  0  0  0  0
  -21.6630   -6.2920   22.6160 C   0  0  0  0  0  0  0  0  0  0  0  0
  -21.1830   -6.8520   23.8190 C   0  0  0  0  0  3  0  0  0  0  0  0
  -21.0570   -6.0480   24.9690 C   0  0  0  0  0  3  0  0  0  0  0  0
  -21.4030   -4.6840   24.9180 C   0  0  0  0  0  0  0  0  0  0  0  0
  -21.8770   -4.1240   23.7190 C   0  0  0  0  0  3  0  0  0  0  0  0
  -22.0030   -4.9250   22.5710 C   0  0  0  0  0  0  0  0  0  0  0  0
  -22.4410   -4.3740   21.4120 F   0  0  0  0  0  0  0  0  0  0  0  0
  -21.2750   -3.9090   26.0200 F   0  0  0  0  0  0  0  0  0  0  0  0
  -22.8760  -13.6540   21.1980 C   0  0  0  0  0  0  0  0  0  0  0  0
  -22.1620  -12.9510   22.0690 N   0  0  0  0  0  0  0  0  0  0  0  0
  -22.4370  -14.6900   20.7010 O   0  0  0  0  0  0  0  0  0  0  0  0
  -22.5300  -12.1110   22.4900 H   0  0  0  0  0  0  0  0  0  0  0  0
  -21.2310  -13.2560   22.3180 H   0  0  0  0  0  0  0  0  0  0  0  0
  -25.4940  -15.3120   20.3410 N   0  0  0  0  0  0  0  0  0  0  0  0
  -24.7280  -15.9640   20.4730 H   0  0  0  0  0  0  0  0  0  0  0  0
  -26.3180  -15.7530   19.9540 H   0  0  0  0  0  0  0  0  0  0  0  0
  -28.0240  -24.9110   20.8170 C   0  0  0  0  0  2  0  0  0  0  0  0
  -28.3580  -26.2970   20.2420 O   0  0  0  0  0  0  0  0  0  0  0  0
  -24.5890  -31.8940   23.1770 C   0  0  0  0  0  0  0  0  0  0  0  0
  -27.3010  -27.2630   20.1940 C   0  0  0  0  0  0  0  0  0  0  0  0
  -23.4400  -30.4760   21.5200 C   0  0  0  0  0  3  0  0  0  0  0  0
  -24.9390  -28.9360   20.1190 C   0  0  0  0  0  0  0  0  0  0  0  0
  -25.9870  -30.8020   21.3900 C   0  0  0  0  0  2  0  0  0  0  0  0
  -26.0990  -29.4130   20.7450 C   0  0  0  0  0  0  0  0  0  0  0  0
  -27.2860  -28.5920   20.7660 C   0  0  0  0  0  3  0  0  0  0  0  0
  -26.1210  -26.8830   19.5190 C   0  0  0  0  0  3  0  0  0  0  0  0
  -24.9600  -27.6820   19.4900 C   0  0  0  0  0  3  0  0  0  0  0  0
  -23.6930  -29.8040   20.1450 C   0  0  0  0  0  2  0  0  0  0  0  0
  -24.6910  -31.0780   22.0850 N   0  0  0  0  0  0  0  0  0  0  0  0
  -23.4910  -32.1570   23.6900 O   0  0  0  0  0  0  0  0  0  0  0  0
  -22.7680  -29.4550   22.4720 C   0  0  0  0  0  0  0  0  0  0  0  0
  -21.4400  -29.2860   22.3480 N   0  0  0  0  0  0  0  0  0  0  0  0
  -23.4430  -28.8180   23.2840 O   0  0  0  0  0  0  0  0  0  0  0  0
  -20.9500  -29.8520   21.6700 H   0  0  0  0  0  0  0  0  0  0  0  0
  -18.0550  -28.1070   22.8700 C   0  0  0  0  0  0  0  0  0  0  0  0
  -20.6190  -28.3410   23.1100 C   0  0  0  0  0  3  0  0  0  0  0  0
  -20.7010  -26.9190   22.5080 C   0  0  0  0  0  2  0  0  0  0  0  0
  -19.5840  -26.6250   21.5010 C   0  0  0  0  0  2  0  0  0  0  0  0
  -18.2110  -26.7700   22.1650 C   0  0  0  0  0  2  0  0  0  0  0  0
  -19.1860  -28.8510   23.3010 C   0  0  0  0  0  0  0  0  0  0  0  0
  -18.9840  -30.1020   23.9220 C   0  0  0  0  0  3  0  0  0  0  0  0
  -17.6850  -30.6090   24.1160 C   0  0  0  0  0  3  0  0  0  0  0  0
  -16.5690  -29.8620   23.7000 C   0  0  0  0  0  3  0  0  0  0  0  0
  -16.7560  -28.6120   23.0830 C   0  0  0  0  0  3  0  0  0  0  0  0
  -25.8470  -32.5510   23.8230 C   0  0  0  0  0  3  0  0  0  0  0  0
  -25.5020  -33.9410   24.1610 N   0  0  0  0  0  0  0  0  0  0  0  0
  -25.8060  -35.0080   23.4090 C   0  0  0  0  0  0  0  0  0  0  0  0
  -26.4740  -34.9280   22.3740 O   0  0  0  0  0  0  0  0  0  0  0  0
  -24.9090  -34.0760   24.9660 H   0  0  0  0  0  0  0  0  0  0  0  0
  -24.0360  -36.7650   23.0740 C   0  0  0  0  0  1  0  0  0  0  0  0
  -25.2890  -36.3820   23.8790 C   0  0  0  0  0  3  0  0  0  0  0  0
  -27.4010  -37.3150   24.7150 C   0  0  0  0  0  1  0  0  0  0  0  0
  -26.2960  -37.4610   23.7710 N   0  0  0  0  0  0  0  0  0  0  0  0
  -25.8680  -38.3700   23.9240 H   0  0  0  0  0  0  0  0  0  0  0  0
  -26.3590  -31.7840   25.1030 C   0  0  1  0  0  0  0  0  0  0  0  0
  -25.2550  -31.5210   26.1530 C   0  0  0  0  0  1  0  0  0  0  0  0
  -26.9740  -30.4180   24.7160 C   0  0  0  0  0  1  0  0  0  0  0  0
  -27.4840  -32.5970   25.7860 C   0  0  0  0  0  1  0  0  0  0  0  0
  1  2  2  0
  1  4  1  0
  2  6  1  0
  4  5  2  0
  5  3  1  0
  5 10  1  0
  6 52  1  0
  6  3  2  0
  7  4  1  0
  7 12  1  0
  8 10  1  0
  9  8  2  0
 11  8  1  0
 12 22  1  0
 12 11  1  0
 13  7  2  0
 14 22  1  0
 15 20  1  0
 16 17  1  0
 16 15  1  0
 18 17  1  0
 18 27  1  0
 18 19  1  0
 20 14  1  0
 20 19  1  0
 21 14  2  0
 22 23  1  0
 24 25  2  0
 25 44  1  0
 26 25  1  0
 26 29  1  0
 27 28  1  0
 27 24  1  0
 28 26  2  0
 29 30  1  0
 30 31  2  0
 32 35  1  0
 32 31  1  0
 33 32  2  0
 34 33  1  0
 34 29  2  0
 35 36  1  0
 36 37  1  0
 37 38  2  0
 39 38  1  0
 39 43  1  0
 40 39  2  0
 41 36  2  0
 41 40  1  0
 42 41  1  0
 44 45  1  0
 45 48  1  0
 45 47  1  0
 46 44  2  0
 49 50  1  0
 49 24  1  0
 51 49  1  0
 53 52  1  0
 54 65  2  0
 55 53  1  0
 55 60  1  0
 56 64  1  0
 56 66  1  0
 57 63  1  0
 57 59  1  0
 58 64  1  0
 59 60  2  0
 59 58  1  0
 61 55  2  0
 62 61  1  0
 62 57  2  0
 63 56  1  0
 64 54  1  0
 66 68  2  0
 67 66  1  0
 69 67  1  0
 70 79  2  0
 70 75  1  0
 71 67  1  0
 71 75  1  0
 72 71  1  0
 73 74  1  0
 73 72  1  0
 74 70  1  0
 75 76  2  0
 76 77  1  0
 78 77  2  0
 79 78  1  0
 80 54  1  0
 80 81  1  0
 80 90  1  0
 81 84  1  0
 82 86  1  0
 82 81  1  0
 83 82  2  0
 86 85  1  0
 88 86  1  0
 88 89  1  0
 88 87  1  0
 90 93  1  1
 90 91  1  0
 92 90  1  0
M  ISO  4  14 100  22 100  52 101  53 101
M  END
>  <TORSDO>  (76) 
F 17

>  <SCORE>  (76) 
-15.620

>  <name>  (76) 
75

>  <ligand_id>  (76) 
75

>  <original_smiles>  (76) 
[H]C([H])=C1C([H])([H])c2c([H])c(C([H])([H])Oc3c([H])c([H])c4c(c3[H])C([H])([H])N(C(=O)C([H])(N([H])C(=O)C([H])(N([H])C([H])([H])[H])C([H])([H])[H])C(C([H])([H])[H])(C([H])([H])[H])C([H])([H])[H])C([H])(C(=O)N([H])C3([H])c5c([H])c([H])c([H])c([H])c5C([H])([H])C([H])([H])C3([H])[H])C4([H])[H])c([H])c([H])c2C(=O)C([H])(N([H])C(=O)N2C([H])([H])C([H])([H])C([H])([H])C([H])(n3nc(-c4c([H])c([H])c(Oc5c([H])c([H])c(F)c([H])c5F)c([H])c4[H])c(C(=O)N([H])[H])c3N([H])[H])C2([H])[H])C1([H])[H]

>  <smiles>  (76) 
[H]C([H])=C1C([H])([H])c2c([H])c(C([H])([H])Oc3c([H])c([H])c4c(c3[H])C([H])([H])N(C(=O)C([H])(N([H])C(=O)C([H])(N([H])C([H])([H])[H])C([H])([H])[H])C(C([H])([H])[H])(C([H])([H])[H])C([H])([H])[H])C([H])(C(=O)N([H])C3([H])c5c([H])c([H])c([H])c([H])c5C([H])([H])C([H])([H])C3([H])[H])C4([H])[H])c([H])c([H])c2C(=O)C([H])(N([H])C(=O)N2C([H])([H])C([H])([H])C([H])([H])C([H])(n3nc(-c4c([H])c([H])c(Oc5c([H])c([H])c(F)c([H])c5F)c([H])c4[H])c(C(=O)N([H])[H])c3N([H])[H])C2([H])[H])C1([H])[H]

$$$$
76:0:0
     RDKit          3D

 86 91  0  0  1  0  0  0  0  0999 V2000
  -28.2070  -18.5900   20.5530 C   0  0  0  0  0  0  0  0  0  0  0  0
  -28.3700  -19.6020   21.6910 C   0  0  0  0  0  2  0  0  0  0  0  0
  -29.3450  -20.7180   21.2710 C   0  0  0  0  0  2  0  0  0  0  0  0
  -27.9500  -21.4810   18.1740 C   0  0  0  0  0  3  0  0  0  0  0  0
  -28.3370  -19.7470   18.1750 C   0  0  0  0  0  3  0  0  0  0  0  0
  -29.2780  -20.8540   19.7510 C   0  0  0  0  0  1  0  0  0  0  0  0
  -28.2320  -22.6350   19.3710 C   0  0  0  0  0  1  0  0  0  0  0  0
  -29.1180  -18.8210   19.3570 C   0  0  0  0  0  2  0  0  0  0  0  0
  -27.3870  -17.6730   20.6020 O   0  0  0  0  0  0  0  0  0  0  0  0
  -29.9550  -16.7620   19.2070 C   0  0  0  0  0  2  0  0  0  0  0  0
  -30.2940  -13.9630   18.4980 C   0  0  0  0  0  2  0  0  0  0  0  0
  -29.3900  -13.1210   17.5010 C   0  0  0  0  0  2  0  0  0  0  0  0
  -28.1440  -12.5520   18.1800 C   0  0  0  0  0  2  0  0  0  0  0  0
  -27.6040  -13.5970   19.1660 C   0  0  0  0  0  3  0  0  0  0  0  0
  -28.6820  -14.3050   20.0670 C   0  0  0  0  0  2  0  0  0  0  0  0
  -29.6030  -15.2070   19.2410 N   0  0  0  0  0  0  0  0  0  0  0  0
  -31.1750  -16.5600   18.9160 O   0  0  0  0  0  1  0  0  0  0  0  0
  -25.4130  -14.0040   20.3430 C   0  0  0  0  0  0  0  0  0  0  0  0
  -24.4130  -13.1990   20.8040 C   0  0  0  0  0  0  0  0  0  0  0  0
  -24.8540  -11.8560   20.5960 C   0  0  0  0  0  0  0  0  0  0  0  0
  -26.4050  -13.1650   19.8810 N   0  0  0  0  0  0  0  0  0  0  0  0
  -26.0870  -11.8510   20.0810 N   0  0  0  0  0  0  0  0  0  0  0  0
  -24.1300  -10.5900   20.8080 C   0  0  0  0  0  0  0  0  0  0  0  0
  -24.6080   -9.5980   21.6910 C   0  0  0  0  0  3  0  0  0  0  0  0
  -23.8770   -8.4090   21.9040 C   0  0  0  0  0  3  0  0  0  0  0  0
  -22.6470   -8.2020   21.2340 C   0  0  0  0  0  0  0  0  0  0  0  0
  -22.1820   -9.1820   20.3380 C   0  0  0  0  0  3  0  0  0  0  0  0
  -22.9170  -10.3620   20.1260 C   0  0  0  0  0  3  0  0  0  0  0  0
  -21.8840   -7.0640   21.3540 O   0  0  0  0  0  0  0  0  0  0  0  0
  -21.8150   -6.3630   22.5310 C   0  0  0  0  0  0  0  0  0  0  0  0
  -21.3500   -6.9560   23.7260 C   0  0  0  0  0  3  0  0  0  0  0  0
  -21.2310   -6.1810   24.8970 C   0  0  0  0  0  3  0  0  0  0  0  0
  -21.5660   -4.8130   24.8750 C   0  0  0  0  0  0  0  0  0  0  0  0
  -22.0220   -4.2190   23.6840 C   0  0  0  0  0  3  0  0  0  0  0  0
  -22.1440   -4.9920   22.5160 C   0  0  0  0  0  0  0  0  0  0  0  0
  -22.5640   -4.4090   21.3670 F   0  0  0  0  0  0  0  0  0  0  0  0
  -21.4450   -4.0660   25.9970 F   0  0  0  0  0  0  0  0  0  0  0  0
  -23.0840  -13.6680   21.3180 C   0  0  0  0  0  0  0  0  0  0  0  0
  -22.4920  -12.9310   22.2480 N   0  0  0  0  0  0  0  0  0  0  0  0
  -22.5920  -14.7310   20.9370 O   0  0  0  0  0  0  0  0  0  0  0  0
  -22.9100  -12.0710   22.5750 H   0  0  0  0  0  0  0  0  0  0  0  0
  -21.6070  -13.2250   22.6370 H   0  0  0  0  0  0  0  0  0  0  0  0
  -25.5430  -15.3820   20.2550 N   0  0  0  0  0  0  0  0  0  0  0  0
  -24.8100  -15.9900   20.6090 H   0  0  0  0  0  0  0  0  0  0  0  0
  -26.4080  -15.8890   20.0910 H   0  0  0  0  0  0  0  0  0  0  0  0
  -28.1080  -24.7400   19.3510 O   0  0  0  0  0  1  0  0  0  0  0  0
  -24.7650  -31.6490   22.8020 C   0  0  0  0  0  0  0  0  0  0  0  0
  -27.1740  -26.2170   19.4550 C   0  0  0  0  0  0  0  0  0  0  0  0
  -23.5380  -30.3130   21.1520 C   0  0  0  0  0  3  0  0  0  0  0  0
  -24.9390  -28.6230   19.6240 C   0  0  0  0  0  0  0  0  0  0  0  0
  -26.1330  -30.3010   20.9830 C   0  0  0  0  0  2  0  0  0  0  0  0
  -26.1730  -28.8350   20.2460 C   0  0  0  0  0  0  0  0  0  0  0  0
  -27.2350  -27.6880   20.1160 C   0  0  0  0  0  3  0  0  0  0  0  0
  -25.8890  -26.3810   18.7990 C   0  0  0  0  0  3  0  0  0  0  0  0
  -24.8720  -27.4270   18.8740 C   0  0  0  0  0  3  0  0  0  0  0  0
  -23.7530  -29.6350   19.7560 C   0  0  0  0  0  2  0  0  0  0  0  0
  -24.8470  -30.7980   21.6990 N   0  0  0  0  0  0  0  0  0  0  0  0
  -23.6790  -31.9400   23.3390 O   0  0  0  0  0  0  0  0  0  0  0  0
  -22.8110  -29.3380   22.1240 C   0  0  0  0  0  0  0  0  0  0  0  0
  -21.4680  -29.2190   22.0590 N   0  0  0  0  0  0  0  0  0  0  0  0
  -23.4830  -28.6770   22.9190 O   0  0  0  0  0  0  0  0  0  0  0  0
  -20.9640  -29.8020   21.4070 H   0  0  0  0  0  0  0  0  0  0  0  0
  -18.0950  -27.9890   22.7060 C   0  0  0  0  0  0  0  0  0  0  0  0
  -20.6710  -28.2420   22.8200 C   0  0  0  0  0  3  0  0  0  0  0  0
  -20.7270  -26.8470   22.1530 C   0  0  0  0  0  2  0  0  0  0  0  0
  -19.5640  -26.5950   21.1870 C   0  0  0  0  0  2  0  0  0  0  0  0
  -18.2230  -26.6950   21.9200 C   0  0  0  0  0  2  0  0  0  0  0  0
  -19.2420  -28.7230   23.1140 C   0  0  0  0  0  0  0  0  0  0  0  0
  -19.0600  -29.9320   23.8200 C   0  0  0  0  0  3  0  0  0  0  0  0
  -17.7670  -30.4090   24.1110 C   0  0  0  0  0  3  0  0  0  0  0  0
  -16.6370  -29.6730   23.7110 C   0  0  0  0  0  3  0  0  0  0  0  0
  -16.8030  -28.4620   23.0180 C   0  0  0  0  0  3  0  0  0  0  0  0
  -26.0220  -32.3070   23.4520 C   0  0  0  0  0  3  0  0  0  0  0  0
  -25.6610  -33.6550   23.9570 N   0  0  0  0  0  0  0  0  0  0  0  0
  -25.9130  -34.8180   23.3380 C   0  0  0  0  0  0  0  0  0  0  0  0
  -26.5130  -34.8720   22.2630 O   0  0  0  0  0  0  0  0  0  0  0  0
  -25.1260  -33.6810   24.8130 H   0  0  0  0  0  0  0  0  0  0  0  0
  -24.1050  -36.5780   23.3710 C   0  0  0  0  0  1  0  0  0  0  0  0
  -25.4280  -36.1240   24.0100 C   0  0  0  0  0  3  0  0  0  0  0  0
  -27.5960  -37.0150   24.7560 C   0  0  0  0  0  1  0  0  0  0  0  0
  -26.4080  -37.2320   23.9340 N   0  0  0  0  0  0  0  0  0  0  0  0
  -25.9810  -38.1090   24.2160 H   0  0  0  0  0  0  0  0  0  0  0  0
  -26.6040  -31.4590   24.6520 C   0  0  1  0  0  0  0  0  0  0  0  0
  -25.5560  -31.1090   25.7380 C   0  0  0  0  0  1  0  0  0  0  0  0
  -27.2100  -30.1340   24.1500 C   0  0  0  0  0  1  0  0  0  0  0  0
  -27.7630  -32.2310   25.3290 C   0  0  0  0  0  1  0  0  0  0  0  0
  1  9  2  0
  1  2  1  0
  3  2  1  0
  4  5  2  0
  4  7  1  0
  5  8  1  0
  6  3  1  0
  8  1  1  0
 10 16  1  0
 11 16  1  0
 12 13  1  0
 12 11  1  0
 14 13  1  0
 14 21  1  0
 14 15  1  0
 16 15  1  0
 17 10  1  0
 18 19  2  0
 19 38  1  0
 20 19  1  0
 20 23  1  0
 21 22  1  0
 21 18  1  0
 22 20  2  0
 23 24  1  0
 24 25  2  0
 26 29  1  0
 26 25  1  0
 27 26  2  0
 28 27  1  0
 28 23  2  0
 29 30  1  0
 30 31  1  0
 31 32  2  0
 33 32  1  0
 33 37  1  0
 34 33  2  0
 35 30  2  0
 35 34  1  0
 36 35  1  0
 38 39  1  0
 39 41  1  0
 39 42  1  0
 40 38  2  0
 43 18  1  0
 43 44  1  0
 45 43  1  0
 46 48  1  0
 47 58  2  0
 48 53  1  0
 49 57  1  0
 49 59  1  0
 50 56  1  0
 50 52  1  0
 51 57  1  0
 52 51  1  0
 53 52  2  0
 54 55  1  0
 54 48  2  0
 55 50  2  0
 56 49  1  0
 57 47  1  0
 59 61  2  0
 60 59  1  0
 62 60  1  0
 63 72  2  0
 63 68  1  0
 64 60  1  0
 64 68  1  0
 65 64  1  0
 66 67  1  0
 66 65  1  0
 67 63  1  0
 68 69  2  0
 69 70  1  0
 71 70  2  0
 72 71  1  0
 73 47  1  0
 73 74  1  0
 73 83  1  0
 74 77  1  0
 75 74  1  0
 75 79  1  0
 76 75  2  0
 79 78  1  0
 81 79  1  0
 81 82  1  0
 81 80  1  0
 83 86  1  1
 83 84  1  0
 85 83  1  0
M  ISO  4   7 101   8 100  10 100  46 101
M  END
>  <TORSDO>  (77) 
F 16

>  <SCORE>  (77) 
-13.117

>  <name>  (77) 
76

>  <ligand_id>  (77) 
76

>  <original_smiles>  (77) 
[H]c1c([H])c([H])c2c(c1[H])C([H])([H])C([H])([H])C([H])([H])C2([H])N([H])C(=O)C1([H])N(C(=O)C([H])(N([H])C(=O)C([H])(N([H])C([H])([H])[H])C([H])([H])[H])C(C([H])([H])[H])(C([H])([H])[H])C([H])([H])[H])C([H])([H])c2c([H])c(OC3([H])C([H])([H])C([H])([H])C4(C(=O)N5C([H])([H])C([H])([H])C([H])([H])C([H])(n6nc(-c7c([H])c([H])c(Oc8c([H])c([H])c(F)c([H])c8F)c([H])c7[H])c(C(=O)N([H])[H])c6N([H])[H])C5([H])[H])C(=O)C([H])([H])C([H])([H])C34[H])c([H])c([H])c2C1([H])[H]

>  <smiles>  (77) 
[H]c1c([H])c([H])c2c(c1[H])C([H])([H])C([H])([H])C([H])([H])C2([H])N([H])C(=O)C1([H])N(C(=O)C([H])(N([H])C(=O)C([H])(N([H])C([H])([H])[H])C([H])([H])[H])C(C([H])([H])[H])(C([H])([H])[H])C([H])([H])[H])C([H])([H])c2c([H])c(OC3([H])C([H])([H])C([H])([H])C4(C(=O)N5C([H])([H])C([H])([H])C([H])([H])C([H])(n6nc(-c7c([H])c([H])c(Oc8c([H])c([H])c(F)c([H])c8F)c([H])c7[H])c(C(=O)N([H])[H])c6N([H])[H])C5([H])[H])C(=O)C([H])([H])C([H])([H])C34[H])c([H])c([H])c2C1([H])[H]

$$$$
77:0:0
     RDKit          3D

 94103  0  0  1  0  0  0  0  0999 V2000
  -29.7610  -24.3630   23.4780 C   0  0  0  0  0  3  0  0  0  0  0  0
  -29.4240  -25.7170   23.5240 C   0  0  0  0  0  3  0  0  0  0  0  0
  -29.5660  -23.6390   22.2930 C   0  0  0  0  0  3  0  0  0  0  0  0
  -28.9360  -26.3460   22.3700 C   0  0  0  0  0  3  0  0  0  0  0  0
  -29.0360  -24.2160   21.1070 C   0  0  0  0  0  0  0  0  0  0  0  0
  -28.7410  -25.6640   21.1400 C   0  0  0  0  0  0  0  0  0  0  0  0
  -28.9000  -23.2160   19.9340 C   0  0  0  0  0  0  0  0  0  0  0  0
  -28.5780  -23.6480   18.8230 O   0  0  0  0  0  0  0  0  0  0  0  0
  -28.6810  -20.7810   21.0380 C   0  0  0  0  0  3  0  0  0  0  0  0
  -30.0970  -21.0540   19.1370 C   0  0  0  0  0  3  0  0  0  0  0  0
  -29.0510  -19.3910   21.1170 C   0  0  0  0  0  3  0  0  0  0  0  0
  -30.4650  -19.6740   19.2120 C   0  0  0  0  0  3  0  0  0  0  0  0
  -29.2240  -21.6830   20.0680 C   0  0  0  0  0  0  0  0  0  0  0  0
  -29.9830  -18.7930   20.2200 C   0  0  0  0  0  0  0  0  0  0  0  0
  -30.6870  -17.3820   20.4550 C   0  0  0  0  0  2  0  0  0  0  0  0
  -30.7400  -14.8270   20.1500 C   0  0  0  0  0  0  0  0  0  0  0  0
  -30.4680  -12.5480   19.1760 C   0  0  0  0  0  2  0  0  0  0  0  0
  -29.5260  -12.6150   17.9550 C   0  0  0  0  0  2  0  0  0  0  0  0
  -28.0560  -12.4800   18.4020 C   0  0  0  0  0  2  0  0  0  0  0  0
  -27.7070  -13.3870   19.6150 C   0  0  0  0  0  3  0  0  0  0  0  0
  -28.7750  -13.3180   20.7260 C   0  0  0  0  0  2  0  0  0  0  0  0
  -30.0660  -13.6300   20.1040 N   0  0  0  0  0  0  0  0  0  0  0  0
  -31.9240  -14.8730   19.8070 O   0  0  0  0  0  0  0  0  0  0  0  0
  -30.0480  -16.0040   20.3880 N   0  0  0  0  0  0  0  0  0  0  0  0
  -29.0650  -15.9380   20.6070 H   0  0  0  0  0  0  0  0  0  0  0  0
  -25.3450  -14.0070   20.3920 C   0  0  0  0  0  0  0  0  0  0  0  0
  -24.2770  -13.2480   20.7830 C   0  0  0  0  0  0  0  0  0  0  0  0
  -24.7200  -11.8900   20.7420 C   0  0  0  0  0  0  0  0  0  0  0  0
  -26.3690  -13.1140   20.1300 N   0  0  0  0  0  0  0  0  0  0  0  0
  -26.0030  -11.8350   20.4040 N   0  0  0  0  0  0  0  0  0  0  0  0
  -23.9780  -10.6390   20.9460 C   0  0  0  0  0  0  0  0  0  0  0  0
  -24.4080   -9.6710   21.8820 C   0  0  0  0  0  3  0  0  0  0  0  0
  -23.6690   -8.4860   22.0750 C   0  0  0  0  0  3  0  0  0  0  0  0
  -22.4850   -8.2560   21.3320 C   0  0  0  0  0  0  0  0  0  0  0  0
  -22.0730   -9.2130   20.3890 C   0  0  0  0  0  3  0  0  0  0  0  0
  -22.8120  -10.3910   20.1940 C   0  0  0  0  0  3  0  0  0  0  0  0
  -21.7180   -7.1230   21.4340 O   0  0  0  0  0  0  0  0  0  0  0  0
  -21.6560   -6.3970   22.5970 C   0  0  0  0  0  0  0  0  0  0  0  0
  -21.2450   -6.9770   23.8160 C   0  0  0  0  0  3  0  0  0  0  0  0
  -21.1280   -6.1780   24.9710 C   0  0  0  0  0  3  0  0  0  0  0  0
  -21.4120   -4.8000   24.9070 C   0  0  0  0  0  0  0  0  0  0  0  0
  -21.8170   -4.2200   23.6920 C   0  0  0  0  0  3  0  0  0  0  0  0
  -21.9350   -5.0160   22.5390 C   0  0  0  0  0  0  0  0  0  0  0  0
  -22.3030   -4.4490   21.3660 F   0  0  0  0  0  0  0  0  0  0  0  0
  -21.2930   -4.0310   26.0160 F   0  0  0  0  0  0  0  0  0  0  0  0
  -22.8920  -13.7450   21.0810 C   0  0  0  0  0  0  0  0  0  0  0  0
  -22.1730  -13.0680   21.9700 N   0  0  0  0  0  0  0  0  0  0  0  0
  -22.4570  -14.7710   20.5580 O   0  0  0  0  0  0  0  0  0  0  0  0
  -22.5400  -12.2430   22.4220 H   0  0  0  0  0  0  0  0  0  0  0  0
  -21.2430  -13.3830   22.2070 H   0  0  0  0  0  0  0  0  0  0  0  0
  -25.5250  -15.3750   20.2160 N   0  0  0  0  0  0  0  0  0  0  0  0
  -24.7720  -16.0390   20.3550 H   0  0  0  0  0  0  0  0  0  0  0  0
  -26.3660  -15.8050   19.8510 H   0  0  0  0  0  0  0  0  0  0  0  0
  -28.4060  -26.5320   20.0750 O   0  0  0  0  0  0  0  0  0  0  0  0
  -24.6320  -31.9150   23.1880 C   0  0  0  0  0  0  0  0  0  0  0  0
  -27.3010  -27.4040   20.1200 C   0  0  0  0  0  0  0  0  0  0  0  0
  -23.4480  -30.5220   21.5270 C   0  0  0  0  0  3  0  0  0  0  0  0
  -24.9190  -28.9920   20.0990 C   0  0  0  0  0  0  0  0  0  0  0  0
  -25.9830  -30.8680   21.3570 C   0  0  0  0  0  2  0  0  0  0  0  0
  -26.0820  -29.4950   20.7000 C   0  0  0  0  0  0  0  0  0  0  0  0
  -27.2800  -28.7190   20.6880 C   0  0  0  0  0  3  0  0  0  0  0  0
  -26.1190  -26.9550   19.4990 C   0  0  0  0  0  3  0  0  0  0  0  0
  -24.9410  -27.7280   19.4870 C   0  0  0  0  0  3  0  0  0  0  0  0
  -23.6750  -29.8560   20.1440 C   0  0  0  0  0  2  0  0  0  0  0  0
  -24.7060  -31.1190   22.0810 N   0  0  0  0  0  0  0  0  0  0  0  0
  -23.5440  -32.1760   23.7210 O   0  0  0  0  0  0  0  0  0  0  0  0
  -22.7900  -29.4910   22.4760 C   0  0  0  0  0  0  0  0  0  0  0  0
  -21.4630  -29.3120   22.3500 N   0  0  0  0  0  0  0  0  0  0  0  0
  -23.4720  -28.8540   23.2840 O   0  0  0  0  0  0  0  0  0  0  0  0
  -20.9720  -29.8750   21.6710 H   0  0  0  0  0  0  0  0  0  0  0  0
  -18.0880  -28.1120   22.8520 C   0  0  0  0  0  0  0  0  0  0  0  0
  -20.6500  -28.3620   23.1090 C   0  0  0  0  0  3  0  0  0  0  0  0
  -20.7460  -26.9420   22.5070 C   0  0  0  0  0  2  0  0  0  0  0  0
  -19.6370  -26.6400   21.4950 C   0  0  0  0  0  2  0  0  0  0  0  0
  -18.2580  -26.7750   22.1500 C   0  0  0  0  0  2  0  0  0  0  0  0
  -19.2120  -28.8640   23.2890 C   0  0  0  0  0  0  0  0  0  0  0  0
  -19.0000  -30.1160   23.9050 C   0  0  0  0  0  3  0  0  0  0  0  0
  -17.6970  -30.6160   24.0910 C   0  0  0  0  0  3  0  0  0  0  0  0
  -16.5880  -29.8600   23.6700 C   0  0  0  0  0  3  0  0  0  0  0  0
  -16.7850  -28.6100   23.0570 C   0  0  0  0  0  3  0  0  0  0  0  0
  -25.9080  -32.5510   23.8220 C   0  0  0  0  0  3  0  0  0  0  0  0
  -26.4280  -31.7710   25.0920 C   0  0  1  0  0  0  0  0  0  0  0  0
  -25.3340  -31.5130   26.1540 C   0  0  0  0  0  1  0  0  0  0  0  0
  -27.0270  -30.4020   24.6910 C   0  0  0  0  0  1  0  0  0  0  0  0
  -27.5680  -32.5680   25.7660 C   0  0  0  0  0  1  0  0  0  0  0  0
  -25.5800  -33.9420   24.1690 N   0  0  0  0  0  0  0  0  0  0  0  0
  -25.9140  -35.0090   23.4310 C   0  0  0  0  0  0  0  0  0  0  0  0
  -26.5960  -34.9270   22.4070 O   0  0  0  0  0  0  0  0  0  0  0  0
  -24.9740  -34.0780   24.9640 H   0  0  0  0  0  0  0  0  0  0  0  0
  -24.1770  -36.7970   23.0870 C   0  0  0  0  0  1  0  0  0  0  0  0
  -25.4120  -36.3870   23.9050 C   0  0  0  0  0  3  0  0  0  0  0  0
  -27.5320  -37.2710   24.7740 C   0  0  0  0  0  1  0  0  0  0  0  0
  -26.4380  -37.4490   23.8240 N   0  0  0  0  0  0  0  0  0  0  0  0
  -26.0230  -38.3630   23.9860 H   0  0  0  0  0  0  0  0  0  0  0  0
  1  2  1  0
  3  1  2  0
  4  2  2  0
  5  6  2  0
  5  3  1  0
  6  4  1  0
  7 13  1  0
  7  5  1  0
  8  7  2  0
  9 11  1  0
 10 12  2  0
 10 13  1  0
 12 14  1  0
 13  9  2  0
 14 15  1  0
 14 11  2  0
 16 24  1  0
 17 22  1  0
 18 19  1  0
 18 17  1  0
 20 19  1  0
 20 29  1  0
 20 21  1  0
 22 16  1  0
 22 21  1  0
 23 16  2  0
 24 15  1  0
 24 25  1  0
 26 27  2  0
 27 46  1  0
 28 27  1  0
 28 31  1  0
 29 26  1  0
 29 30  1  0
 30 28  2  0
 31 32  1  0
 32 33  2  0
 34 37  1  0
 34 33  1  0
 35 34  2  0
 36 35  1  0
 36 31  2  0
 37 38  1  0
 38 39  1  0
 39 40  2  0
 41 40  1  0
 41 45  1  0
 42 41  2  0
 43 38  2  0
 43 42  1  0
 44 43  1  0
 46 47  1  0
 47 50  1  0
 47 49  1  0
 48 46  2  0
 51 52  1  0
 51 26  1  0
 53 51  1  0
 54 56  1  0
 54  6  1  0
 55 66  2  0
 56 61  1  0
 57 65  1  0
 57 67  1  0
 58 64  1  0
 58 60  1  0
 59 65  1  0
 60 59  1  0
 61 60  2  0
 62 56  2  0
 63 62  1  0
 63 58  2  0
 64 57  1  0
 65 55  1  0
 67 69  2  0
 68 67  1  0
 70 68  1  0
 71 80  2  0
 71 76  1  0
 72 68  1  0
 72 76  1  0
 73 72  1  0
 74 75  1  0
 74 73  1  0
 75 71  1  0
 76 77  2  0
 77 78  1  0
 79 78  2  0
 80 79  1  0
 81 55  1  0
 81 86  1  0
 81 82  1  0
 82 85  1  1
 82 83  1  0
 84 82  1  0
 86 89  1  0
 87 91  1  0
 87 86  1  0
 88 87  2  0
 91 90  1  0
 93 91  1  0
 93 94  1  0
 93 92  1  0
M  ISO  4   6 101  16 100  24 100  54 101
M  END
>  <TORSDO>  (78) 
F 19

>  <SCORE>  (78) 
-13.947

>  <name>  (78) 
77

>  <ligand_id>  (78) 
77

>  <original_smiles>  (78) 
[H]c1c([H])c([H])c(C(=O)c2c([H])c([H])c(C([H])([H])N([H])C(=O)N3C([H])([H])C([H])([H])C([H])([H])C([H])(n4nc(-c5c([H])c([H])c(Oc6c([H])c([H])c(F)c([H])c6F)c([H])c5[H])c(C(=O)N([H])[H])c4N([H])[H])C3([H])[H])c([H])c2[H])c(Oc2c([H])c([H])c3c(c2[H])C([H])([H])N(C(=O)C([H])(N([H])C(=O)C([H])(N([H])C([H])([H])[H])C([H])([H])[H])C(C([H])([H])[H])(C([H])([H])[H])C([H])([H])[H])C([H])(C(=O)N([H])C2([H])c4c([H])c([H])c([H])c([H])c4C([H])([H])C([H])([H])C2([H])[H])C3([H])[H])c1[H]

>  <smiles>  (78) 
[H]c1c([H])c([H])c(C(=O)c2c([H])c([H])c(C([H])([H])N([H])C(=O)N3C([H])([H])C([H])([H])C([H])([H])C([H])(n4nc(-c5c([H])c([H])c(Oc6c([H])c([H])c(F)c([H])c6F)c([H])c5[H])c(C(=O)N([H])[H])c4N([H])[H])C3([H])[H])c([H])c2[H])c(Oc2c([H])c([H])c3c(c2[H])C([H])([H])N(C(=O)C([H])(N([H])C(=O)C([H])(N([H])C([H])([H])[H])C([H])([H])[H])C(C([H])([H])[H])(C([H])([H])[H])C([H])([H])[H])C([H])(C(=O)N([H])C2([H])c4c([H])c([H])c([H])c([H])c4C([H])([H])C([H])([H])C2([H])[H])C3([H])[H])c1[H]

$$$$
78:0:0
     RDKit          3D

 91100  0  0  1  0  0  0  0  0999 V2000
  -28.8730  -21.0070   18.9420 C   0  0  0  0  0  3  0  0  0  0  0  0
  -28.6830  -22.3230   20.9550 C   0  0  0  0  0  3  0  0  0  0  0  0
  -28.6390  -22.2760   18.3280 C   0  0  0  0  0  0  0  0  0  0  0  0
  -28.3600  -23.5430   18.9380 C   0  0  0  0  0  0  0  0  0  0  0  0
  -28.9500  -20.8160   20.3360 C   0  0  0  0  0  0  0  0  0  0  0  0
  -28.3280  -23.8150   20.3500 C   0  0  0  0  0  0  0  0  0  0  0  0
  -28.8010  -22.4260   16.8350 C   0  0  0  0  0  2  0  0  0  0  0  0
  -28.9700  -23.9380   16.6410 C   0  0  0  0  0  2  0  0  0  0  0  0
  -28.2320  -24.5750   17.8280 C   0  0  0  0  0  3  0  0  0  0  0  0
  -26.9000  -24.6960   17.3640 O   0  0  0  0  0  0  0  0  0  0  0  0
  -26.5900  -23.8190   17.1670 H   0  0  0  0  0  0  0  0  0  0  0  0
  -28.2130  -25.4040   20.8360 O   0  0  0  0  0  0  0  0  0  0  0  0
  -24.8150  -32.0200   23.4570 C   0  0  0  0  0  0  0  0  0  0  0  0
  -27.2830  -26.6900   20.7040 C   0  0  0  0  0  0  0  0  0  0  0  0
  -23.6330  -30.5890   21.8530 C   0  0  0  0  0  3  0  0  0  0  0  0
  -25.0700  -28.8460   20.5380 C   0  0  0  0  0  0  0  0  0  0  0  0
  -26.2230  -30.6410   21.7880 C   0  0  0  0  0  2  0  0  0  0  0  0
  -26.2670  -29.1750   21.1790 C   0  0  0  0  0  0  0  0  0  0  0  0
  -27.3550  -28.1310   21.2220 C   0  0  0  0  0  3  0  0  0  0  0  0
  -26.0270  -26.5910   20.0490 C   0  0  0  0  0  3  0  0  0  0  0  0
  -24.9920  -27.5730   19.9520 C   0  0  0  0  0  3  0  0  0  0  0  0
  -23.8870  -29.8340   20.5170 C   0  0  0  0  0  2  0  0  0  0  0  0
  -24.9150  -31.1190   22.4170 N   0  0  0  0  0  0  0  0  0  0  0  0
  -23.7160  -32.3660   23.9270 O   0  0  0  0  0  0  0  0  0  0  0  0
  -22.8640  -29.6720   22.8450 C   0  0  0  0  0  0  0  0  0  0  0  0
  -21.5430  -29.4870   22.6520 N   0  0  0  0  0  0  0  0  0  0  0  0
  -23.4720  -29.1210   23.7650 O   0  0  0  0  0  0  0  0  0  0  0  0
  -21.1000  -29.9800   21.8910 H   0  0  0  0  0  0  0  0  0  0  0  0
  -18.1540  -28.2180   23.0290 C   0  0  0  0  0  0  0  0  0  0  0  0
  -20.6840  -28.5910   23.4370 C   0  0  0  0  0  3  0  0  0  0  0  0
  -20.8600  -27.1210   22.9900 C   0  0  0  0  0  2  0  0  0  0  0  0
  -19.8420  -26.6860   21.9320 C   0  0  0  0  0  2  0  0  0  0  0  0
  -18.4150  -26.8310   22.4670 C   0  0  0  0  0  2  0  0  0  0  0  0
  -19.2190  -29.0520   23.4680 C   0  0  0  0  0  0  0  0  0  0  0  0
  -18.9180  -30.3420   23.9550 C   0  0  0  0  0  3  0  0  0  0  0  0
  -17.5890  -30.8040   24.0030 C   0  0  0  0  0  3  0  0  0  0  0  0
  -16.5390  -29.9730   23.5760 C   0  0  0  0  0  3  0  0  0  0  0  0
  -16.8230  -28.6820   23.0950 C   0  0  0  0  0  3  0  0  0  0  0  0
  -26.0720  -32.6750   24.1050 C   0  0  0  0  0  3  0  0  0  0  0  0
  -25.7740  -34.0980   24.3670 N   0  0  0  0  0  0  0  0  0  0  0  0
  -26.1290  -35.1210   23.5790 C   0  0  0  0  0  0  0  0  0  0  0  0
  -26.7960  -34.9650   22.5530 O   0  0  0  0  0  0  0  0  0  0  0  0
  -25.1800  -34.2930   25.1600 H   0  0  0  0  0  0  0  0  0  0  0  0
  -24.4330  -36.9440   23.1800 C   0  0  0  0  0  1  0  0  0  0  0  0
  -25.6780  -36.5420   23.9870 C   0  0  0  0  0  3  0  0  0  0  0  0
  -27.8310  -37.4360   24.7650 C   0  0  0  0  0  1  0  0  0  0  0  0
  -26.7300  -37.5700   23.8150 N   0  0  0  0  0  0  0  0  0  0  0  0
  -26.3400  -38.5040   23.9090 H   0  0  0  0  0  0  0  0  0  0  0  0
  -26.5080  -31.9680   25.4500 C   0  0  1  0  0  0  0  0  0  0  0  0
  -25.3530  -31.7820   26.4630 C   0  0  0  0  0  1  0  0  0  0  0  0
  -27.1100  -30.5740   25.1750 C   0  0  0  0  0  1  0  0  0  0  0  0
  -27.6210  -32.7950   26.1370 C   0  0  0  0  0  1  0  0  0  0  0  0
  -29.4700  -19.0430   20.8530 C   0  0  0  0  0  2  0  0  0  0  0  0
  -30.1060  -15.8530   20.3210 C   0  0  0  0  0  0  0  0  0  0  0  0
  -30.2110  -13.3360   19.3260 C   0  0  0  0  0  2  0  0  0  0  0  0
  -29.2930  -12.9240   18.1360 C   0  0  0  0  0  2  0  0  0  0  0  0
  -27.9000  -12.5030   18.6260 C   0  0  0  0  0  2  0  0  0  0  0  0
  -27.4010  -13.4470   19.7420 C   0  0  0  0  0  3  0  0  0  0  0  0
  -28.4650  -13.7660   20.8230 C   0  0  0  0  0  2  0  0  0  0  0  0
  -29.5800  -14.4810   20.1430 N   0  0  0  0  0  0  0  0  0  0  0  0
  -31.3460  -15.7560   20.2020 O   0  0  0  0  0  0  0  0  0  0  0  0
  -29.3640  -17.2600   20.4380 N   0  0  0  0  0  0  0  0  0  0  0  0
  -28.3840  -17.0530   20.3120 H   0  0  0  0  0  0  0  0  0  0  0  0
  -25.0550  -13.8950   20.5930 C   0  0  0  0  0  0  0  0  0  0  0  0
  -24.0230  -13.0800   20.9610 C   0  0  0  0  0  0  0  0  0  0  0  0
  -24.5240  -11.7440   20.8820 C   0  0  0  0  0  0  0  0  0  0  0  0
  -26.1130  -13.0570   20.2970 N   0  0  0  0  0  0  0  0  0  0  0  0
  -25.8100  -11.7530   20.5390 N   0  0  0  0  0  0  0  0  0  0  0  0
  -23.8280  -10.4600   21.0520 C   0  0  0  0  0  0  0  0  0  0  0  0
  -24.2640   -9.5010   21.9920 C   0  0  0  0  0  3  0  0  0  0  0  0
  -23.5620   -8.2870   22.1540 C   0  0  0  0  0  3  0  0  0  0  0  0
  -22.4110   -8.0220   21.3750 C   0  0  0  0  0  0  0  0  0  0  0  0
  -21.9940   -8.9710   20.4250 C   0  0  0  0  0  3  0  0  0  0  0  0
  -22.6970  -10.1760   20.2600 C   0  0  0  0  0  3  0  0  0  0  0  0
  -21.6810   -6.8590   21.4460 O   0  0  0  0  0  0  0  0  0  0  0  0
  -21.6000   -6.1290   22.6050 C   0  0  0  0  0  0  0  0  0  0  0  0
  -21.0220   -6.6580   23.7790 C   0  0  0  0  0  3  0  0  0  0  0  0
  -20.8950   -5.8510   24.9280 C   0  0  0  0  0  3  0  0  0  0  0  0
  -21.3370   -4.5140   24.9020 C   0  0  0  0  0  0  0  0  0  0  0  0
  -21.9080   -3.9840   23.7310 C   0  0  0  0  0  3  0  0  0  0  0  0
  -22.0360   -4.7890   22.5850 C   0  0  0  0  0  0  0  0  0  0  0  0
  -22.5670   -4.2660   21.4550 F   0  0  0  0  0  0  0  0  0  0  0  0
  -21.2080   -3.7360   26.0010 F   0  0  0  0  0  0  0  0  0  0  0  0
  -22.6200  -13.5180   21.2650 C   0  0  0  0  0  0  0  0  0  0  0  0
  -21.9240  -12.7860   22.1270 N   0  0  0  0  0  0  0  0  0  0  0  0
  -22.1530  -14.5470   20.7770 O   0  0  0  0  0  0  0  0  0  0  0  0
  -22.3170  -11.9570   22.5450 H   0  0  0  0  0  0  0  0  0  0  0  0
  -20.9810  -13.0590   22.3720 H   0  0  0  0  0  0  0  0  0  0  0  0
  -25.1780  -15.2740   20.4470 N   0  0  0  0  0  0  0  0  0  0  0  0
  -24.3950  -15.9030   20.5820 H   0  0  0  0  0  0  0  0  0  0  0  0
  -26.0020  -15.7370   20.0860 H   0  0  0  0  0  0  0  0  0  0  0  0
  1  5  1  0
  3  4  1  0
  3  1  2  0
  4  6  2  0
  5 53  1  0
  5  2  2  0
  6 12  1  0
  6  2  1  0
  7  3  1  0
  8  7  1  0
  8  9  1  0
  9 10  1  0
  9  4  1  0
 11 10  1  0
 13 24  2  0
 14 12  1  0
 14 19  1  0
 15 23  1  0
 15 25  1  0
 16 18  1  0
 17 23  1  0
 18 19  2  0
 18 17  1  0
 20 14  2  0
 21 20  1  0
 21 16  2  0
 22 16  1  0
 22 15  1  0
 23 13  1  0
 25 27  2  0
 26 25  1  0
 28 26  1  0
 29 38  2  0
 29 34  1  0
 30 26  1  0
 30 34  1  0
 31 30  1  0
 32 33  1  0
 32 31  1  0
 33 29  1  0
 34 35  2  0
 35 36  1  0
 37 36  2  0
 38 37  1  0
 39 13  1  0
 39 40  1  0
 39 49  1  0
 40 43  1  0
 41 45  1  0
 41 40  1  0
 42 41  2  0
 45 44  1  0
 47 48  1  0
 47 45  1  0
 47 46  1  0
 49 52  1  1
 49 50  1  0
 51 49  1  0
 54 62  1  0
 55 60  1  0
 56 57  1  0
 56 55  1  0
 58 57  1  0
 58 67  1  0
 58 59  1  0
 60 54  1  0
 60 59  1  0
 61 54  2  0
 62 53  1  0
 63 62  1  0
 64 65  2  0
 65 84  1  0
 66 65  1  0
 66 69  1  0
 67 68  1  0
 67 64  1  0
 68 66  2  0
 69 70  1  0
 70 71  2  0
 72 75  1  0
 72 71  1  0
 73 72  2  0
 74 73  1  0
 74 69  2  0
 75 76  1  0
 76 77  1  0
 77 78  2  0
 79 78  1  0
 79 83  1  0
 80 79  2  0
 81 76  2  0
 81 80  1  0
 82 81  1  0
 84 85  1  0
 85 88  1  0
 85 87  1  0
 86 84  2  0
 89 90  1  0
 89 64  1  0
 91 89  1  0
M  ISO  4   6 101  12 101  54 100  62 100
M  END
>  <TORSDO>  (79) 
F 18

>  <SCORE>  (79) 
-15.470

>  <name>  (79) 
78

>  <ligand_id>  (79) 
78

>  <original_smiles>  (79) 
[H]OC1([H])c2c(Oc3c([H])c([H])c4c(c3[H])C([H])([H])N(C(=O)C([H])(N([H])C(=O)C([H])(N([H])C([H])([H])[H])C([H])([H])[H])C(C([H])([H])[H])(C([H])([H])[H])C([H])([H])[H])C([H])(C(=O)N([H])C3([H])c5c([H])c([H])c([H])c([H])c5C([H])([H])C([H])([H])C3([H])[H])C4([H])[H])c([H])c(C([H])([H])N([H])C(=O)N3C([H])([H])C([H])([H])C([H])([H])C([H])(n4nc(-c5c([H])c([H])c(Oc6c([H])c([H])c(F)c([H])c6F)c([H])c5[H])c(C(=O)N([H])[H])c4N([H])[H])C3([H])[H])c([H])c2C([H])([H])C1([H])[H]

>  <smiles>  (79) 
[H]OC1([H])c2c(Oc3c([H])c([H])c4c(c3[H])C([H])([H])N(C(=O)C([H])(N([H])C(=O)C([H])(N([H])C([H])([H])[H])C([H])([H])[H])C(C([H])([H])[H])(C([H])([H])[H])C([H])([H])[H])C([H])(C(=O)N([H])C3([H])c5c([H])c([H])c([H])c([H])c5C([H])([H])C([H])([H])C3([H])[H])C4([H])[H])c([H])c(C([H])([H])N([H])C(=O)N3C([H])([H])C([H])([H])C([H])([H])C([H])(n4nc(-c5c([H])c([H])c(Oc6c([H])c([H])c(F)c([H])c6F)c([H])c5[H])c(C(=O)N([H])[H])c4N([H])[H])C3([H])[H])c([H])c2C([H])([H])C1([H])[H]

$$$$
79:0:0
     RDKit          3D

 94103  0  0  1  0  0  0  0  0999 V2000
  -30.4480  -19.4100   19.2520 C   0  0  0  0  0  3  0  0  0  0  0  0
  -30.7700  -18.1800   19.8640 C   0  0  0  0  0  3  0  0  0  0  0  0
  -30.3190  -19.1680   22.0310 C   0  0  0  0  0  3  0  0  0  0  0  0
  -29.9360  -20.3840   21.4110 C   0  0  0  0  0  0  0  0  0  0  0  0
  -30.0420  -20.5380   20.0080 C   0  0  0  0  0  0  0  0  0  0  0  0
  -30.7350  -18.0580   21.2660 C   0  0  0  0  0  0  0  0  0  0  0  0
  -29.4050  -21.4620   22.2530 C   0  0  0  0  0  0  0  0  0  0  0  0
  -29.0870  -23.0960   19.7920 C   0  0  0  0  0  3  0  0  0  0  0  0
  -29.2900  -24.2940   19.1730 C   0  0  0  0  0  2  0  0  0  0  0  0
  -29.8410  -21.8620   19.2450 C   0  0  0  0  0  2  0  0  0  0  0  0
  -27.9910  -21.8570   21.8800 C   0  0  0  0  0  2  0  0  0  0  0  0
  -27.8970  -22.8950   20.7460 C   0  0  0  0  0  2  0  0  0  0  0  0
  -29.9790  -21.9570   23.2250 O   0  0  0  0  0  0  0  0  0  0  0  0
  -31.1850  -16.7720   21.9630 C   0  0  0  0  0  2  0  0  0  0  0  0
  -31.1570  -14.6250   20.6950 C   0  0  0  0  0  0  0  0  0  0  0  0
  -30.8740  -12.4360   19.5860 C   0  0  0  0  0  2  0  0  0  0  0  0
  -29.9750  -12.5510   18.3400 C   0  0  0  0  0  2  0  0  0  0  0  0
  -28.4880  -12.4400   18.7250 C   0  0  0  0  0  2  0  0  0  0  0  0
  -28.1050  -13.3740   19.9050 C   0  0  0  0  0  3  0  0  0  0  0  0
  -29.1090  -13.1950   21.0650 C   0  0  0  0  0  2  0  0  0  0  0  0
  -30.4590  -13.4700   20.5430 N   0  0  0  0  0  0  0  0  0  0  0  0
  -32.2540  -14.8330   20.1660 O   0  0  0  0  0  0  0  0  0  0  0  0
  -30.5680  -15.5430   21.4650 N   0  0  0  0  0  0  0  0  0  0  0  0
  -29.6600  -15.3000   21.8270 H   0  0  0  0  0  0  0  0  0  0  0  0
  -25.7030  -14.0460   20.5570 C   0  0  0  0  0  0  0  0  0  0  0  0
  -24.6060  -13.2950   20.8800 C   0  0  0  0  0  0  0  0  0  0  0  0
  -25.0300  -11.9290   20.8290 C   0  0  0  0  0  0  0  0  0  0  0  0
  -26.7320  -13.1390   20.3410 N   0  0  0  0  0  0  0  0  0  0  0  0
  -26.3270  -11.8620   20.5570 N   0  0  0  0  0  0  0  0  0  0  0  0
  -24.2650  -10.6820   20.9600 C   0  0  0  0  0  0  0  0  0  0  0  0
  -24.6410   -9.6760   21.8770 C   0  0  0  0  0  3  0  0  0  0  0  0
  -23.8730   -8.4980   22.0000 C   0  0  0  0  0  3  0  0  0  0  0  0
  -22.7150   -8.3190   21.2050 C   0  0  0  0  0  0  0  0  0  0  0  0
  -22.3560   -9.3150   20.2780 C   0  0  0  0  0  3  0  0  0  0  0  0
  -23.1260  -10.4830   20.1550 C   0  0  0  0  0  3  0  0  0  0  0  0
  -21.9270   -7.1940   21.2380 O   0  0  0  0  0  0  0  0  0  0  0  0
  -21.8070   -6.4330   22.3740 C   0  0  0  0  0  0  0  0  0  0  0  0
  -21.3400   -6.9770   23.5920 C   0  0  0  0  0  3  0  0  0  0  0  0
  -21.1700   -6.1410   24.7140 C   0  0  0  0  0  3  0  0  0  0  0  0
  -21.4560   -4.7650   24.6170 C   0  0  0  0  0  0  0  0  0  0  0  0
  -21.9130   -4.2230   23.4030 C   0  0  0  0  0  3  0  0  0  0  0  0
  -22.0850   -5.0540   22.2840 C   0  0  0  0  0  0  0  0  0  0  0  0
  -22.5070   -4.5240   21.1110 F   0  0  0  0  0  0  0  0  0  0  0  0
  -21.2810   -3.9620   25.6910 F   0  0  0  0  0  0  0  0  0  0  0  0
  -23.2140  -13.8030   21.1330 C   0  0  0  0  0  0  0  0  0  0  0  0
  -22.4490  -13.1110   21.9680 N   0  0  0  0  0  0  0  0  0  0  0  0
  -22.8140  -14.8510   20.6260 O   0  0  0  0  0  0  0  0  0  0  0  0
  -22.7810  -12.2600   22.3980 H   0  0  0  0  0  0  0  0  0  0  0  0
  -21.5140  -13.4270   22.1800 H   0  0  0  0  0  0  0  0  0  0  0  0
  -25.9110  -15.4160   20.4100 N   0  0  0  0  0  0  0  0  0  0  0  0
  -25.1430  -16.0790   20.4630 H   0  0  0  0  0  0  0  0  0  0  0  0
  -26.7860  -15.8510   20.1480 H   0  0  0  0  0  0  0  0  0  0  0  0
  -28.2470  -25.4130   19.0550 C   0  0  0  0  0  2  0  0  0  0  0  0
  -28.4810  -26.7340   19.6170 O   0  0  0  0  0  0  0  0  0  0  0  0
  -24.6680  -31.7380   23.1240 C   0  0  0  0  0  0  0  0  0  0  0  0
  -27.3360  -27.5360   19.6660 C   0  0  0  0  0  0  0  0  0  0  0  0
  -23.4680  -30.4410   21.3980 C   0  0  0  0  0  3  0  0  0  0  0  0
  -24.9300  -29.0590   19.8470 C   0  0  0  0  0  0  0  0  0  0  0  0
  -26.0020  -30.8360   21.2220 C   0  0  0  0  0  2  0  0  0  0  0  0
  -26.0970  -29.5230   20.4620 C   0  0  0  0  0  0  0  0  0  0  0  0
  -27.3030  -28.7720   20.3730 C   0  0  0  0  0  3  0  0  0  0  0  0
  -26.1310  -27.1350   19.0220 C   0  0  0  0  0  3  0  0  0  0  0  0
  -24.9440  -27.8630   19.1290 C   0  0  0  0  0  3  0  0  0  0  0  0
  -23.6780  -29.8930   19.9680 C   0  0  0  0  0  2  0  0  0  0  0  0
  -24.7300  -31.0150   21.9710 N   0  0  0  0  0  0  0  0  0  0  0  0
  -23.5850  -31.9540   23.6870 O   0  0  0  0  0  0  0  0  0  0  0  0
  -22.8410  -29.3350   22.2790 C   0  0  0  0  0  0  0  0  0  0  0  0
  -21.5190  -29.1280   22.1440 N   0  0  0  0  0  0  0  0  0  0  0  0
  -23.5400  -28.6690   23.0460 O   0  0  0  0  0  0  0  0  0  0  0  0
  -21.0200  -29.6690   21.4530 H   0  0  0  0  0  0  0  0  0  0  0  0
  -18.1650  -27.8800   22.6430 C   0  0  0  0  0  0  0  0  0  0  0  0
  -20.7250  -28.1390   22.8740 C   0  0  0  0  0  3  0  0  0  0  0  0
  -20.8120  -26.7490   22.2020 C   0  0  0  0  0  2  0  0  0  0  0  0
  -19.6930  -26.5120   21.1820 C   0  0  0  0  0  2  0  0  0  0  0  0
  -18.3390  -26.5680   21.8910 C   0  0  0  0  0  2  0  0  0  0  0  0
  -19.2870  -28.6230   23.1010 C   0  0  0  0  0  0  0  0  0  0  0  0
  -19.0690  -29.8380   23.7870 C   0  0  0  0  0  3  0  0  0  0  0  0
  -17.7620  -30.3170   24.0060 C   0  0  0  0  0  3  0  0  0  0  0  0
  -16.6580  -29.5740   23.5520 C   0  0  0  0  0  3  0  0  0  0  0  0
  -16.8600  -28.3540   22.8810 C   0  0  0  0  0  3  0  0  0  0  0  0
  -25.9500  -32.3410   23.7750 C   0  0  0  0  0  3  0  0  0  0  0  0
  -25.6350  -33.7190   24.1740 N   0  0  0  0  0  0  0  0  0  0  0  0
  -25.9390  -34.8050   23.4520 C   0  0  0  0  0  0  0  0  0  0  0  0
  -26.5920  -34.7550   22.4070 O   0  0  0  0  0  0  0  0  0  0  0  0
  -25.0530  -33.8330   24.9890 H   0  0  0  0  0  0  0  0  0  0  0  0
  -24.1750  -36.5820   23.2180 C   0  0  0  0  0  1  0  0  0  0  0  0
  -25.4450  -36.1660   23.9780 C   0  0  0  0  0  3  0  0  0  0  0  0
  -27.5850  -37.0540   24.7900 C   0  0  0  0  0  1  0  0  0  0  0  0
  -26.4590  -37.2390   23.8780 N   0  0  0  0  0  0  0  0  0  0  0  0
  -26.0410  -38.1450   24.0720 H   0  0  0  0  0  0  0  0  0  0  0  0
  -26.4710  -31.5070   25.0100 C   0  0  1  0  0  0  0  0  0  0  0  0
  -25.3790  -31.2140   26.0660 C   0  0  0  0  0  1  0  0  0  0  0  0
  -27.0590  -30.1520   24.5530 C   0  0  0  0  0  1  0  0  0  0  0  0
  -27.6200  -32.2730   25.7070 C   0  0  0  0  0  1  0  0  0  0  0  0
  1  2  2  0
  1  5  1  0
  2  6  1  0
  4  3  1  0
  4  7  1  0
  5  4  2  0
  6 14  1  0
  6  3  2  0
  7 13  2  0
  8  9  1  0
  8 12  1  0
 10  8  1  0
 10  5  1  0
 11  7  1  0
 12 11  1  0
 15 23  1  0
 16 21  1  0
 17 18  1  0
 17 16  1  0
 19 18  1  0
 19 28  1  0
 19 20  1  0
 21 15  1  0
 21 20  1  0
 22 15  2  0
 23 24  1  0
 23 14  1  0
 25 26  2  0
 26 45  1  0
 27 26  1  0
 27 30  1  0
 28 29  1  0
 28 25  1  0
 29 27  2  0
 30 31  1  0
 31 32  2  0
 33 36  1  0
 33 32  1  0
 34 33  2  0
 35 34  1  0
 35 30  2  0
 36 37  1  0
 37 38  1  0
 38 39  2  0
 40 39  1  0
 40 44  1  0
 41 40  2  0
 42 37  2  0
 42 41  1  0
 43 42  1  0
 45 46  1  0
 46 49  1  0
 46 48  1  0
 47 45  2  0
 50 51  1  0
 50 25  1  0
 52 50  1  0
 53  9  1  0
 53 54  1  0
 54 56  1  0
 55 66  2  0
 56 61  1  0
 57 65  1  0
 57 67  1  0
 58 64  1  0
 58 60  1  0
 59 65  1  0
 60 59  1  0
 61 60  2  0
 62 63  1  0
 62 56  2  0
 63 58  2  0
 64 57  1  0
 65 55  1  0
 67 69  2  0
 68 67  1  0
 70 68  1  0
 71 80  2  0
 71 76  1  0
 72 68  1  0
 72 76  1  0
 73 72  1  0
 74 75  1  0
 74 73  1  0
 75 71  1  0
 76 77  2  0
 77 78  1  0
 79 78  2  0
 80 79  1  0
 81 55  1  0
 81 82  1  0
 81 91  1  0
 82 85  1  0
 83 87  1  0
 83 82  1  0
 84 83  2  0
 87 86  1  0
 89 87  1  0
 89 90  1  0
 89 88  1  0
 91 94  1  1
 91 92  1  0
 93 91  1  0
M  ISO  4  15 100  23 100  53 101  54 101
M  END
>  <TORSDO>  (80) 
F 18

>  <SCORE>  (80) 
-13.762

>  <name>  (80) 
79

>  <ligand_id>  (80) 
79

>  <original_smiles>  (80) 
[H]C(=C1C([H])([H])c2c([H])c([H])c(C([H])([H])N([H])C(=O)N3C([H])([H])C([H])([H])C([H])([H])C([H])(n4nc(-c5c([H])c([H])c(Oc6c([H])c([H])c(F)c([H])c6F)c([H])c5[H])c(C(=O)N([H])[H])c4N([H])[H])C3([H])[H])c([H])c2C(=O)C([H])([H])C1([H])[H])C([H])([H])Oc1c([H])c([H])c2c(c1[H])C([H])([H])N(C(=O)C([H])(N([H])C(=O)C([H])(N([H])C([H])([H])[H])C([H])([H])[H])C(C([H])([H])[H])(C([H])([H])[H])C([H])([H])[H])C([H])(C(=O)N([H])C1([H])c3c([H])c([H])c([H])c([H])c3C([H])([H])C([H])([H])C1([H])[H])C2([H])[H]

>  <smiles>  (80) 
[H]C(=C1C([H])([H])c2c([H])c([H])c(C([H])([H])N([H])C(=O)N3C([H])([H])C([H])([H])C([H])([H])C([H])(n4nc(-c5c([H])c([H])c(Oc6c([H])c([H])c(F)c([H])c6F)c([H])c5[H])c(C(=O)N([H])[H])c4N([H])[H])C3([H])[H])c([H])c2C(=O)C([H])([H])C1([H])[H])C([H])([H])Oc1c([H])c([H])c2c(c1[H])C([H])([H])N(C(=O)C([H])(N([H])C(=O)C([H])(N([H])C([H])([H])[H])C([H])([H])[H])C(C([H])([H])[H])(C([H])([H])[H])C([H])([H])[H])C([H])(C(=O)N([H])C1([H])c3c([H])c([H])c([H])c([H])c3C([H])([H])C([H])([H])C1([H])[H])C2([H])[H]

$$$$
80:0:0
     RDKit          3D

 92101  0  0  1  0  0  0  0  0999 V2000
  -27.6060  -22.4250   21.0480 C   0  0  0  0  0  3  0  0  0  0  0  0
  -28.7080  -22.3230   20.2260 C   0  0  0  0  0  0  0  0  0  0  0  0
  -28.2200  -24.7870   20.2820 C   0  0  0  0  0  0  0  0  0  0  0  0
  -29.0210  -23.7220   19.8200 N   0  0  0  0  0  0  0  0  0  0  0  0
  -26.9840  -24.0810   21.3240 S   0  0  0  0  0  0  0  0  0  0  0  0
  -28.3060  -26.2220   20.1430 O   0  0  0  0  0  0  0  0  0  0  0  0
  -24.6230  -31.8970   23.2140 C   0  0  0  0  0  0  0  0  0  0  0  0
  -27.2210  -27.1790   20.1790 C   0  0  0  0  0  0  0  0  0  0  0  0
  -23.4230  -30.4830   21.5900 C   0  0  0  0  0  3  0  0  0  0  0  0
  -24.8730  -28.9050   20.1700 C   0  0  0  0  0  0  0  0  0  0  0  0
  -25.9720  -30.7650   21.4060 C   0  0  0  0  0  2  0  0  0  0  0  0
  -26.0520  -29.3620   20.7720 C   0  0  0  0  0  0  0  0  0  0  0  0
  -27.2220  -28.5090   20.7700 C   0  0  0  0  0  3  0  0  0  0  0  0
  -26.0190  -26.8330   19.5270 C   0  0  0  0  0  3  0  0  0  0  0  0
  -24.8670  -27.6500   19.5380 C   0  0  0  0  0  3  0  0  0  0  0  0
  -23.6370  -29.7890   20.2190 C   0  0  0  0  0  2  0  0  0  0  0  0
  -24.6930  -31.0720   22.1250 N   0  0  0  0  0  0  0  0  0  0  0  0
  -23.5380  -32.1740   23.7470 O   0  0  0  0  0  0  0  0  0  0  0  0
  -22.7580  -29.4780   22.5630 C   0  0  0  0  0  0  0  0  0  0  0  0
  -21.4320  -29.2960   22.4410 N   0  0  0  0  0  0  0  0  0  0  0  0
  -23.4390  -28.8630   23.3890 O   0  0  0  0  0  0  0  0  0  0  0  0
  -20.9410  -29.8380   21.7450 H   0  0  0  0  0  0  0  0  0  0  0  0
  -18.0640  -28.0610   22.9580 C   0  0  0  0  0  0  0  0  0  0  0  0
  -20.6220  -28.3550   23.2190 C   0  0  0  0  0  3  0  0  0  0  0  0
  -20.7390  -26.9200   22.6540 C   0  0  0  0  0  2  0  0  0  0  0  0
  -19.6400  -26.5770   21.6450 C   0  0  0  0  0  2  0  0  0  0  0  0
  -18.2570  -26.7110   22.2890 C   0  0  0  0  0  2  0  0  0  0  0  0
  -19.1750  -28.8400   23.3800 C   0  0  0  0  0  0  0  0  0  0  0  0
  -18.9430  -30.1030   23.9650 C   0  0  0  0  0  3  0  0  0  0  0  0
  -17.6320  -30.5880   24.1350 C   0  0  0  0  0  3  0  0  0  0  0  0
  -16.5350  -29.8060   23.7300 C   0  0  0  0  0  3  0  0  0  0  0  0
  -16.7530  -28.5450   23.1480 C   0  0  0  0  0  3  0  0  0  0  0  0
  -25.9010  -32.5450   23.8340 C   0  0  0  0  0  3  0  0  0  0  0  0
  -26.4300  -31.7760   25.1060 C   0  0  1  0  0  0  0  0  0  0  0  0
  -25.3460  -31.5260   26.1800 C   0  0  0  0  0  1  0  0  0  0  0  0
  -27.0220  -30.4040   24.7100 C   0  0  0  0  0  1  0  0  0  0  0  0
  -27.5790  -32.5780   25.7610 C   0  0  0  0  0  1  0  0  0  0  0  0
  -25.5760  -33.9390   24.1760 N   0  0  0  0  0  0  0  0  0  0  0  0
  -25.8950  -35.0060   23.4290 C   0  0  0  0  0  0  0  0  0  0  0  0
  -26.5620  -34.9180   22.3950 O   0  0  0  0  0  0  0  0  0  0  0  0
  -24.9800  -34.0790   24.9800 H   0  0  0  0  0  0  0  0  0  0  0  0
  -24.1560  -36.7950   23.1040 C   0  0  0  0  0  1  0  0  0  0  0  0
  -25.4010  -36.3870   23.9070 C   0  0  0  0  0  3  0  0  0  0  0  0
  -27.5330  -37.2750   24.7390 C   0  0  0  0  0  1  0  0  0  0  0  0
  -26.4250  -37.4480   23.8040 N   0  0  0  0  0  0  0  0  0  0  0  0
  -26.0140  -38.3620   23.9670 H   0  0  0  0  0  0  0  0  0  0  0  0
  -29.4080  -20.9160   19.6770 C   0  0  0  0  0  2  0  0  0  0  0  0
  -28.3720  -18.5150   20.7710 C   0  0  0  0  0  2  0  0  0  0  0  0
  -28.8210  -17.0030   20.9550 C   0  0  0  0  0  2  0  0  0  0  0  0
  -30.5270  -18.1280   19.8120 C   0  0  0  0  0  2  0  0  0  0  0  0
  -29.6060  -19.3790   20.4140 C   0  0  0  0  0  3  0  0  0  0  0  0
  -29.8510  -16.6080   19.8570 C   0  0  1  0  0  0  0  0  0  0  0  0
  -30.6710  -15.1290   20.0200 C   0  0  0  0  0  0  0  0  0  0  0  0
  -30.5570  -12.7280   19.1720 C   0  0  0  0  0  2  0  0  0  0  0  0
  -29.5940  -12.6150   17.9650 C   0  0  0  0  0  2  0  0  0  0  0  0
  -28.1350  -12.4090   18.4300 C   0  0  0  0  0  2  0  0  0  0  0  0
  -27.7420  -13.3320   19.6170 C   0  0  0  0  0  3  0  0  0  0  0  0
  -28.8420  -13.4140   20.6980 C   0  0  0  0  0  2  0  0  0  0  0  0
  -30.0880  -13.8490   20.0420 N   0  0  0  0  0  0  0  0  0  0  0  0
  -31.8850  -15.1420   19.7890 O   0  0  0  0  0  0  0  0  0  0  0  0
  -25.3900  -13.8960   20.4580 C   0  0  0  0  0  0  0  0  0  0  0  0
  -24.3350  -13.1170   20.8430 C   0  0  0  0  0  0  0  0  0  0  0  0
  -24.7990  -11.7660   20.7740 C   0  0  0  0  0  0  0  0  0  0  0  0
  -26.4250  -13.0230   20.1650 N   0  0  0  0  0  0  0  0  0  0  0  0
  -26.0790  -11.7350   20.4180 N   0  0  0  0  0  0  0  0  0  0  0  0
  -24.0770  -10.5020   20.9690 C   0  0  0  0  0  0  0  0  0  0  0  0
  -24.5110   -9.5380   21.9080 C   0  0  0  0  0  3  0  0  0  0  0  0
  -23.7860   -8.3380   22.0880 C   0  0  0  0  0  3  0  0  0  0  0  0
  -22.6160   -8.0950   21.3320 C   0  0  0  0  0  0  0  0  0  0  0  0
  -22.2000   -9.0470   20.3830 C   0  0  0  0  0  3  0  0  0  0  0  0
  -22.9230  -10.2380   20.2020 C   0  0  0  0  0  3  0  0  0  0  0  0
  -21.8680   -6.9450   21.4210 O   0  0  0  0  0  0  0  0  0  0  0  0
  -21.7840   -6.2280   22.5880 C   0  0  0  0  0  0  0  0  0  0  0  0
  -21.3120   -6.8060   23.7870 C   0  0  0  0  0  3  0  0  0  0  0  0
  -21.1840   -6.0180   24.9460 C   0  0  0  0  0  3  0  0  0  0  0  0
  -21.5100   -4.6490   24.9060 C   0  0  0  0  0  0  0  0  0  0  0  0
  -21.9710   -4.0680   23.7120 C   0  0  0  0  0  3  0  0  0  0  0  0
  -22.1070   -4.8550   22.5560 C   0  0  0  0  0  0  0  0  0  0  0  0
  -22.5350   -4.2870   21.4020 F   0  0  0  0  0  0  0  0  0  0  0  0
  -21.3770   -3.8880   26.0180 F   0  0  0  0  0  0  0  0  0  0  0  0
  -22.9500  -13.5940   21.1680 C   0  0  0  0  0  0  0  0  0  0  0  0
  -22.2430  -12.8920   22.0440 N   0  0  0  0  0  0  0  0  0  0  0  0
  -22.5030  -14.6300   20.6770 O   0  0  0  0  0  0  0  0  0  0  0  0
  -22.6130  -12.0560   22.4710 H   0  0  0  0  0  0  0  0  0  0  0  0
  -21.3100  -13.2000   22.2870 H   0  0  0  0  0  0  0  0  0  0  0  0
  -25.5540  -15.2700   20.3150 N   0  0  0  0  0  0  0  0  0  0  0  0
  -24.8010  -15.9190   20.5160 H   0  0  0  0  0  0  0  0  0  0  0  0
  -26.4420  -15.7320   20.2030 H   0  0  0  0  0  0  0  0  0  0  0  0
  -29.2140  -16.4590   18.5340 N   0  0  0  0  0  4  0  0  0  0  0  0
  -28.7980  -17.3170   18.2200 H   0  0  0  0  0  0  0  0  0  0  0  0
  -28.5300  -15.7280   18.5130 H   0  0  0  0  0  0  0  0  0  0  0  0
  -29.9400  -16.2160   17.8790 H   0  0  0  0  0  0  0  0  0  0  0  0
  1  5  1  0
  2  1  2  0
  3  5  1  0
  4  2  1  0
  4  3  2  0
  6  8  1  0
  6  3  1  0
  7 18  2  0
  8 13  1  0
  9 17  1  0
  9 19  1  0
 10 16  1  0
 10 12  1  0
 11 17  1  0
 12 11  1  0
 13 12  2  0
 14 15  1  0
 14  8  2  0
 15 10  2  0
 16  9  1  0
 17  7  1  0
 19 21  2  0
 20 19  1  0
 22 20  1  0
 23 32  2  0
 23 28  1  0
 24 20  1  0
 24 28  1  0
 25 24  1  0
 26 27  1  0
 26 25  1  0
 27 23  1  0
 28 29  2  0
 29 30  1  0
 31 30  2  0
 32 31  1  0
 33  7  1  0
 33 38  1  0
 33 34  1  0
 34 37  1  1
 34 35  1  0
 36 34  1  0
 38 41  1  0
 39 43  1  0
 39 38  1  0
 40 39  2  0
 43 42  1  0
 45 43  1  0
 45 46  1  0
 45 44  1  0
 47  2  1  0
 48 49  1  0
 50 52  1  0
 50 51  1  0
 51 47  1  0
 51 48  1  0
 52 53  1  0
 52 49  1  0
 53 59  1  0
 54 59  1  0
 55 56  1  0
 55 54  1  0
 57 56  1  0
 57 64  1  0
 57 58  1  0
 59 58  1  0
 60 53  2  0
 61 62  2  0
 62 81  1  0
 63 62  1  0
 63 66  1  0
 64 65  1  0
 64 61  1  0
 65 63  2  0
 66 67  1  0
 67 68  2  0
 69 72  1  0
 69 68  1  0
 70 69  2  0
 71 70  1  0
 71 66  2  0
 72 73  1  0
 73 74  1  0
 74 75  2  0
 76 75  1  0
 76 80  1  0
 77 76  2  0
 78 73  2  0
 78 77  1  0
 79 78  1  0
 81 82  1  0
 82 85  1  0
 82 84  1  0
 83 81  2  0
 86 61  1  0
 86 87  1  0
 88 86  1  0
 52 89  1  6
 90 89  1  0
 91 89  1  0
 92 89  1  0
M  ISO  4   3 101   6 101  52 100  53 100
M  END
>  <TORSDO>  (81) 
F 19

>  <SCORE>  (81) 
-15.281

>  <name>  (81) 
80

>  <ligand_id>  (81) 
80

>  <original_smiles>  (81) 
[H]c1sc(Oc2c([H])c([H])c3c(c2[H])C([H])([H])N(C(=O)C([H])(N([H])C(=O)C([H])(N([H])C([H])([H])[H])C([H])([H])[H])C(C([H])([H])[H])(C([H])([H])[H])C([H])([H])[H])C([H])(C(=O)N([H])C2([H])c4c([H])c([H])c([H])c([H])c4C([H])([H])C([H])([H])C2([H])[H])C3([H])[H])nc1C([H])([H])C1([H])C([H])([H])C([H])([H])C(C(=O)N2C([H])([H])C([H])([H])C([H])([H])C([H])(n3nc(-c4c([H])c([H])c(Oc5c([H])c([H])c(F)c([H])c5F)c([H])c4[H])c(C(=O)N([H])[H])c3N([H])[H])C2([H])[H])([N+]([H])([H])[H])C1([H])[H]

>  <smiles>  (81) 
[H]c1sc(Oc2c([H])c([H])c3c(c2[H])C([H])([H])N(C(=O)C([H])(N([H])C(=O)C([H])(N([H])C([H])([H])[H])C([H])([H])[H])C(C([H])([H])[H])(C([H])([H])[H])C([H])([H])[H])C([H])(C(=O)N([H])C2([H])c4c([H])c([H])c([H])c([H])c4C([H])([H])C([H])([H])C2([H])[H])C3([H])[H])nc1C([H])([H])C1([H])C([H])([H])C([H])([H])C(C(=O)N2C([H])([H])C([H])([H])C([H])([H])C([H])(n3nc(-c4c([H])c([H])c(Oc5c([H])c([H])c(F)c([H])c5F)c([H])c4[H])c(C(=O)N([H])[H])c3N([H])[H])C2([H])[H])([N+]([H])([H])[H])C1([H])[H]

$$$$
81:0:0
     RDKit          3D

 91100  0  0  1  0  0  0  0  0999 V2000
  -27.1050  -23.7590   22.2590 C   0  0  0  0  0  3  0  0  0  0  0  0
  -27.5830  -22.5340   21.7640 C   0  0  0  0  0  3  0  0  0  0  0  0
  -27.3520  -24.9670   21.5920 C   0  0  0  0  0  3  0  0  0  0  0  0
  -28.5850  -23.7080   19.8970 C   0  0  0  0  0  3  0  0  0  0  0  0
  -28.3610  -22.4120   20.5880 C   0  0  0  0  0  0  0  0  0  0  0  0
  -28.0710  -25.0240   20.3800 C   0  0  0  0  0  0  0  0  0  0  0  0
  -29.5260  -20.0300   21.3610 C   0  0  0  0  0  2  0  0  0  0  0  0
  -29.3380  -20.2350   18.9450 C   0  0  0  0  0  2  0  0  0  0  0  0
  -29.4970  -18.4370   21.2810 C   0  0  0  0  0  2  0  0  0  0  0  0
  -29.3540  -18.6110   18.8360 C   0  0  0  0  0  2  0  0  0  0  0  0
  -28.7150  -20.8310   20.2640 C   0  0  0  0  0  3  0  0  0  0  0  0
  -30.0510  -17.7420   19.9820 C   0  0  0  0  0  3  0  0  0  0  0  0
  -30.6970  -15.0670   19.8030 C   0  0  0  0  0  0  0  0  0  0  0  0
  -30.5870  -12.7000   18.9340 C   0  0  0  0  0  2  0  0  0  0  0  0
  -29.5780  -12.6170   17.7660 C   0  0  0  0  0  2  0  0  0  0  0  0
  -28.1460  -12.3940   18.2920 C   0  0  0  0  0  2  0  0  0  0  0  0
  -27.7910  -13.3450   19.4660 C   0  0  0  0  0  3  0  0  0  0  0  0
  -28.9120  -13.3930   20.5260 C   0  0  0  0  0  2  0  0  0  0  0  0
  -30.1420  -13.7970   19.8330 N   0  0  0  0  0  0  0  0  0  0  0  0
  -31.8720  -15.1890   19.4440 O   0  0  0  0  0  0  0  0  0  0  0  0
  -29.8610  -16.1870   19.9860 N   0  0  0  0  0  0  0  0  0  0  0  0
  -28.9160  -15.9070   20.2060 H   0  0  0  0  0  0  0  0  0  0  0  0
  -25.4760  -13.9030   20.4110 C   0  0  0  0  0  0  0  0  0  0  0  0
  -24.4390  -13.1160   20.8290 C   0  0  0  0  0  0  0  0  0  0  0  0
  -24.8910  -11.7660   20.7010 C   0  0  0  0  0  0  0  0  0  0  0  0
  -26.4920  -13.0330   20.0510 N   0  0  0  0  0  0  0  0  0  0  0  0
  -26.1530  -11.7400   20.2900 N   0  0  0  0  0  0  0  0  0  0  0  0
  -24.1730  -10.4990   20.8890 C   0  0  0  0  0  0  0  0  0  0  0  0
  -24.5810   -9.5540   21.8560 C   0  0  0  0  0  3  0  0  0  0  0  0
  -23.8630   -8.3510   22.0300 C   0  0  0  0  0  3  0  0  0  0  0  0
  -22.7210   -8.0850   21.2380 C   0  0  0  0  0  0  0  0  0  0  0  0
  -22.3320   -9.0190   20.2600 C   0  0  0  0  0  3  0  0  0  0  0  0
  -23.0530  -10.2110   20.0840 C   0  0  0  0  0  3  0  0  0  0  0  0
  -21.9770   -6.9320   21.3200 O   0  0  0  0  0  0  0  0  0  0  0  0
  -21.7680   -6.2940   22.5160 C   0  0  0  0  0  0  0  0  0  0  0  0
  -21.1480   -6.9400   23.6070 C   0  0  0  0  0  3  0  0  0  0  0  0
  -20.8900   -6.2250   24.7940 C   0  0  0  0  0  3  0  0  0  0  0  0
  -21.2430   -4.8650   24.8890 C   0  0  0  0  0  0  0  0  0  0  0  0
  -21.8580   -4.2200   23.8020 C   0  0  0  0  0  3  0  0  0  0  0  0
  -22.1180   -4.9320   22.6170 C   0  0  0  0  0  0  0  0  0  0  0  0
  -22.6900   -4.3000   21.5650 F   0  0  0  0  0  0  0  0  0  0  0  0
  -20.9900   -4.1760   26.0260 F   0  0  0  0  0  0  0  0  0  0  0  0
  -23.0700  -13.5840   21.2270 C   0  0  0  0  0  0  0  0  0  0  0  0
  -22.4070  -12.8540   22.1180 N   0  0  0  0  0  0  0  0  0  0  0  0
  -22.5980  -14.6320   20.7850 O   0  0  0  0  0  0  0  0  0  0  0  0
  -22.8030  -12.0060   22.4960 H   0  0  0  0  0  0  0  0  0  0  0  0
  -21.4920  -13.1490   22.4270 H   0  0  0  0  0  0  0  0  0  0  0  0
  -25.6320  -15.2800   20.2810 N   0  0  0  0  0  0  0  0  0  0  0  0
  -24.8730  -15.9250   20.4720 H   0  0  0  0  0  0  0  0  0  0  0  0
  -26.4370  -15.7310   19.8660 H   0  0  0  0  0  0  0  0  0  0  0  0
  -28.2320  -26.3620   19.8280 O   0  0  0  0  0  0  0  0  0  0  0  0
  -24.6560  -31.8790   23.1220 C   0  0  0  0  0  0  0  0  0  0  0  0
  -27.1770  -27.3300   19.8630 C   0  0  0  0  0  0  0  0  0  0  0  0
  -23.4110  -30.5170   21.4840 C   0  0  0  0  0  3  0  0  0  0  0  0
  -24.8260  -29.0080   19.9630 C   0  0  0  0  0  0  0  0  0  0  0  0
  -25.9500  -30.8300   21.2340 C   0  0  0  0  0  2  0  0  0  0  0  0
  -26.0170  -29.4600   20.5460 C   0  0  0  0  0  0  0  0  0  0  0  0
  -27.1960  -28.6330   20.4870 C   0  0  0  0  0  3  0  0  0  0  0  0
  -25.9630  -26.9670   19.2410 C   0  0  0  0  0  3  0  0  0  0  0  0
  -24.8060  -27.7720   19.2970 C   0  0  0  0  0  3  0  0  0  0  0  0
  -23.5890  -29.8840   20.0790 C   0  0  0  0  0  2  0  0  0  0  0  0
  -24.6930  -31.0950   22.0020 N   0  0  0  0  0  0  0  0  0  0  0  0
  -23.5880  -32.1350   23.6970 O   0  0  0  0  0  0  0  0  0  0  0  0
  -22.7800  -29.4740   22.4400 C   0  0  0  0  0  0  0  0  0  0  0  0
  -21.4610  -29.2490   22.3140 N   0  0  0  0  0  0  0  0  0  0  0  0
  -23.4810  -28.8690   23.2550 O   0  0  0  0  0  0  0  0  0  0  0  0
  -20.9510  -29.7920   21.6310 H   0  0  0  0  0  0  0  0  0  0  0  0
  -18.1460  -27.8610   22.7610 C   0  0  0  0  0  0  0  0  0  0  0  0
  -20.6800  -28.2730   23.0780 C   0  0  0  0  0  3  0  0  0  0  0  0
  -20.8780  -26.8450   22.5240 C   0  0  0  0  0  2  0  0  0  0  0  0
  -19.8190  -26.4450   21.4910 C   0  0  0  0  0  2  0  0  0  0  0  0
  -18.4160  -26.5170   22.1040 C   0  0  0  0  0  2  0  0  0  0  0  0
  -19.2100  -28.6920   23.2030 C   0  0  0  0  0  0  0  0  0  0  0  0
  -18.9030  -29.9450   23.7780 C   0  0  0  0  0  3  0  0  0  0  0  0
  -17.5660  -30.3690   23.9120 C   0  0  0  0  0  3  0  0  0  0  0  0
  -16.5190  -29.5350   23.4840 C   0  0  0  0  0  3  0  0  0  0  0  0
  -16.8100  -28.2830   22.9130 C   0  0  0  0  0  3  0  0  0  0  0  0
  -25.9510  -32.5070   23.7200 C   0  0  0  0  0  3  0  0  0  0  0  0
  -25.6410  -33.8940   24.1010 N   0  0  0  0  0  0  0  0  0  0  0  0
  -25.9450  -34.9730   23.3680 C   0  0  0  0  0  0  0  0  0  0  0  0
  -26.5850  -34.9060   22.3150 O   0  0  0  0  0  0  0  0  0  0  0  0
  -25.0690  -34.0180   24.9230 H   0  0  0  0  0  0  0  0  0  0  0  0
  -24.1990  -36.7690   23.1210 C   0  0  0  0  0  1  0  0  0  0  0  0
  -25.4650  -36.3440   23.8830 C   0  0  0  0  0  3  0  0  0  0  0  0
  -27.6160  -37.2200   24.6840 C   0  0  0  0  0  1  0  0  0  0  0  0
  -26.4880  -37.4070   23.7740 N   0  0  0  0  0  0  0  0  0  0  0  0
  -26.0810  -38.3200   23.9560 H   0  0  0  0  0  0  0  0  0  0  0  0
  -26.5130  -31.7080   24.9600 C   0  0  1  0  0  0  0  0  0  0  0  0
  -25.4550  -31.4330   26.0550 C   0  0  0  0  0  1  0  0  0  0  0  0
  -27.0950  -30.3460   24.5190 C   0  0  0  0  0  1  0  0  0  0  0  0
  -27.6760  -32.4950   25.6080 C   0  0  0  0  0  1  0  0  0  0  0  0
  2  1  1  0
  3  1  2  0
  4  6  2  0
  4  5  1  0
  5  2  2  0
  6  3  1  0
  8 11  1  0
  9  7  1  0
 10  8  1  0
 10 12  1  0
 11  5  1  0
 11  7  1  0
 12 21  1  0
 12  9  1  0
 13 19  1  0
 13 21  1  0
 14 19  1  0
 15 16  1  0
 15 14  1  0
 17 16  1  0
 17 26  1  0
 17 18  1  0
 19 18  1  0
 20 13  2  0
 21 22  1  0
 23 24  2  0
 24 43  1  0
 25 24  1  0
 25 28  1  0
 26 27  1  0
 26 23  1  0
 27 25  2  0
 28 29  1  0
 29 30  2  0
 31 34  1  0
 31 30  1  0
 32 31  2  0
 33 32  1  0
 33 28  2  0
 34 35  1  0
 35 40  2  0
 35 36  1  0
 36 37  2  0
 37 38  1  0
 38 42  1  0
 39 38  2  0
 40 39  1  0
 41 40  1  0
 43 44  1  0
 44 47  1  0
 44 46  1  0
 45 43  2  0
 48 23  1  0
 48 49  1  0
 50 48  1  0
 51 53  1  0
 51  6  1  0
 52 63  2  0
 53 58  1  0
 54 62  1  0
 54 64  1  0
 55 61  1  0
 55 57  1  0
 56 62  1  0
 57 56  1  0
 58 57  2  0
 59 60  1  0
 59 53  2  0
 60 55  2  0
 61 54  1  0
 62 52  1  0
 64 66  2  0
 65 64  1  0
 67 65  1  0
 68 77  2  0
 68 73  1  0
 69 65  1  0
 69 73  1  0
 70 69  1  0
 71 72  1  0
 71 70  1  0
 72 68  1  0
 73 74  2  0
 74 75  1  0
 76 75  2  0
 77 76  1  0
 78 52  1  0
 78 79  1  0
 78 88  1  0
 79 82  1  0
 80 84  1  0
 80 79  1  0
 81 80  2  0
 84 83  1  0
 86 84  1  0
 86 87  1  0
 86 85  1  0
 88 91  1  1
 88 89  1  0
 90 88  1  0
M  ISO  4   6 101  13 100  21 100  51 101
M  END
>  <TORSDO>  (82) 
F 17

>  <SCORE>  (82) 
-13.726

>  <name>  (82) 
81

>  <ligand_id>  (82) 
81

>  <original_smiles>  (82) 
[H]c1c([H])c([H])c2c(c1[H])C([H])([H])C([H])([H])C([H])([H])C2([H])N([H])C(=O)C1([H])N(C(=O)C([H])(N([H])C(=O)C([H])(N([H])C([H])([H])[H])C([H])([H])[H])C(C([H])([H])[H])(C([H])([H])[H])C([H])([H])[H])C([H])([H])c2c([H])c(Oc3c([H])c([H])c([H])c(C4([H])C([H])([H])C([H])([H])C([H])(N([H])C(=O)N5C([H])([H])C([H])([H])C([H])([H])C([H])(n6nc(-c7c([H])c([H])c(Oc8c([H])c([H])c(F)c([H])c8F)c([H])c7[H])c(C(=O)N([H])[H])c6N([H])[H])C5([H])[H])C([H])([H])C4([H])[H])c3[H])c([H])c([H])c2C1([H])[H]

>  <smiles>  (82) 
[H]c1c([H])c([H])c2c(c1[H])C([H])([H])C([H])([H])C([H])([H])C2([H])N([H])C(=O)C1([H])N(C(=O)C([H])(N([H])C(=O)C([H])(N([H])C([H])([H])[H])C([H])([H])[H])C(C([H])([H])[H])(C([H])([H])[H])C([H])([H])[H])C([H])([H])c2c([H])c(Oc3c([H])c([H])c([H])c(C4([H])C([H])([H])C([H])([H])C([H])(N([H])C(=O)N5C([H])([H])C([H])([H])C([H])([H])C([H])(n6nc(-c7c([H])c([H])c(Oc8c([H])c([H])c(F)c([H])c8F)c([H])c7[H])c(C(=O)N([H])[H])c6N([H])[H])C5([H])[H])C([H])([H])C4([H])[H])c3[H])c([H])c([H])c2C1([H])[H]

$$$$
82:0:0
     RDKit          3D

 88 97  0  0  1  0  0  0  0  0999 V2000
  -27.2430  -21.6930   20.7110 C   0  0  0  0  0  3  0  0  0  0  0  0
  -27.4090  -23.1370   20.5700 C   0  0  0  0  0  3  0  0  0  0  0  0
  -29.5430  -22.5950   19.7480 C   0  0  0  0  0  3  0  0  0  0  0  0
  -28.1810  -20.6250   20.4140 C   0  0  0  0  0  0  0  0  0  0  0  0
  -29.4230  -20.9820   19.8610 C   0  0  0  0  0  0  0  0  0  0  0  0
  -28.5650  -23.8330   20.0870 C   0  0  0  0  0  0  0  0  0  0  0  0
  -27.8270  -19.1160   20.6010 C   0  0  0  0  0  0  0  0  0  0  0  0
  -30.3870  -19.4750   19.5090 C   0  0  0  0  0  2  0  0  0  0  0  0
  -28.8970  -17.9310   20.7880 C   0  0  0  0  0  2  0  0  0  0  0  0
  -29.9610  -17.6430   19.6530 C   0  0  0  0  0  3  0  0  0  0  0  0
  -26.6430  -18.7800   20.6680 O   0  0  0  0  0  0  0  0  0  0  0  0
  -30.8080  -15.9130   19.5780 C   0  0  0  0  0  0  0  0  0  0  0  0
  -30.9600  -13.3050   18.8610 C   0  0  0  0  0  2  0  0  0  0  0  0
  -29.9770  -12.7980   17.7610 C   0  0  0  0  0  2  0  0  0  0  0  0
  -28.6210  -12.4000   18.3640 C   0  0  0  0  0  2  0  0  0  0  0  0
  -28.1730  -13.4240   19.4290 C   0  0  0  0  0  3  0  0  0  0  0  0
  -29.2880  -13.8420   20.4150 C   0  0  0  0  0  2  0  0  0  0  0  0
  -30.3690  -14.5000   19.6350 N   0  0  0  0  0  0  0  0  0  0  0  0
  -32.0180  -15.8480   19.2760 O   0  0  0  0  0  0  0  0  0  0  0  0
  -25.9880  -13.9140   20.6190 C   0  0  0  0  0  0  0  0  0  0  0  0
  -24.9540  -13.1270   21.0380 C   0  0  0  0  0  0  0  0  0  0  0  0
  -25.3400  -11.7790   20.7550 C   0  0  0  0  0  0  0  0  0  0  0  0
  -26.9340  -13.0520   20.0990 N   0  0  0  0  0  0  0  0  0  0  0  0
  -26.5690  -11.7500   20.2440 N   0  0  0  0  0  0  0  0  0  0  0  0
  -24.5780  -10.5290   20.8860 C   0  0  0  0  0  0  0  0  0  0  0  0
  -24.9800   -9.5060   21.7720 C   0  0  0  0  0  3  0  0  0  0  0  0
  -24.2160   -8.3260   21.8980 C   0  0  0  0  0  3  0  0  0  0  0  0
  -23.0350   -8.1590   21.1360 C   0  0  0  0  0  0  0  0  0  0  0  0
  -22.6510   -9.1710   20.2380 C   0  0  0  0  0  3  0  0  0  0  0  0
  -23.4160  -10.3430   20.1110 C   0  0  0  0  0  3  0  0  0  0  0  0
  -22.2440   -7.0360   21.1720 O   0  0  0  0  0  0  0  0  0  0  0  0
  -22.0220   -6.3480   22.3390 C   0  0  0  0  0  0  0  0  0  0  0  0
  -21.4360   -6.9630   23.4660 C   0  0  0  0  0  3  0  0  0  0  0  0
  -21.1620   -6.2020   24.6210 C   0  0  0  0  0  3  0  0  0  0  0  0
  -21.4660   -4.8280   24.6470 C   0  0  0  0  0  0  0  0  0  0  0  0
  -22.0440   -4.2120   23.5230 C   0  0  0  0  0  3  0  0  0  0  0  0
  -22.3190   -4.9700   22.3720 C   0  0  0  0  0  0  0  0  0  0  0  0
  -22.8560   -4.3680   21.2840 F   0  0  0  0  0  0  0  0  0  0  0  0
  -21.1960   -4.0950   25.7530 F   0  0  0  0  0  0  0  0  0  0  0  0
  -23.6390  -13.6110   21.5710 C   0  0  0  0  0  0  0  0  0  0  0  0
  -23.0180  -12.8430   22.4600 N   0  0  0  0  0  0  0  0  0  0  0  0
  -23.1780  -14.7020   21.2390 O   0  0  0  0  0  0  0  0  0  0  0  0
  -23.4100  -11.9580   22.7480 H   0  0  0  0  0  0  0  0  0  0  0  0
  -22.1390  -13.1430   22.8570 H   0  0  0  0  0  0  0  0  0  0  0  0
  -26.1970  -15.2900   20.6040 N   0  0  0  0  0  0  0  0  0  0  0  0
  -25.5010  -15.9480   20.9380 H   0  0  0  0  0  0  0  0  0  0  0  0
  -27.0130  -15.7430   20.2150 H   0  0  0  0  0  0  0  0  0  0  0  0
  -28.6080  -25.4830   20.0940 O   0  0  0  0  0  0  0  0  0  0  0  0
  -24.9490  -31.7710   23.1200 C   0  0  0  0  0  0  0  0  0  0  0  0
  -27.6100  -26.7070   20.1160 C   0  0  0  0  0  0  0  0  0  0  0  0
  -23.8250  -30.3930   21.4240 C   0  0  0  0  0  3  0  0  0  0  0  0
  -25.3280  -28.7700   20.0300 C   0  0  0  0  0  0  0  0  0  0  0  0
  -26.4070  -30.5380   21.3900 C   0  0  0  0  0  2  0  0  0  0  0  0
  -26.5030  -29.1080   20.7120 C   0  0  0  0  0  0  0  0  0  0  0  0
  -27.6230  -28.1070   20.7220 C   0  0  0  0  0  3  0  0  0  0  0  0
  -26.4010  -26.6050   19.3740 C   0  0  0  0  0  3  0  0  0  0  0  0
  -25.3210  -27.5450   19.3390 C   0  0  0  0  0  3  0  0  0  0  0  0
  -24.1150  -29.7180   20.0510 C   0  0  0  0  0  2  0  0  0  0  0  0
  -25.0840  -30.9350   22.0310 N   0  0  0  0  0  0  0  0  0  0  0  0
  -23.8370  -32.0540   23.6000 O   0  0  0  0  0  0  0  0  0  0  0  0
  -23.0840  -29.3950   22.3580 C   0  0  0  0  0  0  0  0  0  0  0  0
  -21.7560  -29.2350   22.1930 N   0  0  0  0  0  0  0  0  0  0  0  0
  -23.7200  -28.7630   23.2050 O   0  0  0  0  0  0  0  0  0  0  0  0
  -21.2930  -29.7960   21.4910 H   0  0  0  0  0  0  0  0  0  0  0  0
  -18.3590  -28.0110   22.6210 C   0  0  0  0  0  0  0  0  0  0  0  0
  -20.9160  -28.2760   22.9230 C   0  0  0  0  0  3  0  0  0  0  0  0
  -21.0250  -26.8610   22.3080 C   0  0  0  0  0  2  0  0  0  0  0  0
  -19.9380  -26.5700   21.2690 C   0  0  0  0  0  2  0  0  0  0  0  0
  -18.5480  -26.6880   21.8990 C   0  0  0  0  0  2  0  0  0  0  0  0
  -19.4700  -28.7640   23.0880 C   0  0  0  0  0  0  0  0  0  0  0  0
  -19.2360  -29.9990   23.7300 C   0  0  0  0  0  3  0  0  0  0  0  0
  -17.9260  -30.4840   23.9050 C   0  0  0  0  0  3  0  0  0  0  0  0
  -16.8300  -29.7290   23.4500 C   0  0  0  0  0  3  0  0  0  0  0  0
  -17.0480  -28.4940   22.8150 C   0  0  0  0  0  3  0  0  0  0  0  0
  -26.1830  -32.4250   23.8120 C   0  0  0  0  0  3  0  0  0  0  0  0
  -25.8230  -33.8050   24.1960 N   0  0  0  0  0  0  0  0  0  0  0  0
  -26.1200  -34.9070   23.4920 C   0  0  0  0  0  0  0  0  0  0  0  0
  -26.7830  -34.8700   22.4540 O   0  0  0  0  0  0  0  0  0  0  0  0
  -25.2270  -33.9040   25.0050 H   0  0  0  0  0  0  0  0  0  0  0  0
  -24.3380  -36.6750   23.2590 C   0  0  0  0  0  1  0  0  0  0  0  0
  -25.6070  -36.2640   24.0220 C   0  0  0  0  0  3  0  0  0  0  0  0
  -27.7280  -37.1860   24.8560 C   0  0  0  0  0  1  0  0  0  0  0  0
  -26.6090  -37.3500   23.9320 N   0  0  0  0  0  0  0  0  0  0  0  0
  -26.1780  -38.2540   24.1130 H   0  0  0  0  0  0  0  0  0  0  0  0
  -26.6680  -31.6290   25.0890 C   0  0  1  0  0  0  0  0  0  0  0  0
  -25.5410  -31.3380   26.1080 C   0  0  0  0  0  1  0  0  0  0  0  0
  -27.2970  -30.2750   24.6950 C   0  0  0  0  0  1  0  0  0  0  0  0
  -27.7740  -32.4300   25.8150 C   0  0  0  0  0  1  0  0  0  0  0  0
  2  1  1  0
  3  5  2  0
  3  6  1  0
  4  7  1  0
  4  1  2  0
  5  4  1  0
  6 48  1  0
  6  2  2  0
  7 11  2  0
  7  9  1  0
  8 10  1  0
  8  5  1  0
 10 12  1  0
 10  9  1  0
 12 18  1  0
 13 18  1  0
 14 15  1  0
 14 13  1  0
 16 15  1  0
 16 23  1  0
 16 17  1  0
 18 17  1  0
 19 12  2  0
 20 21  2  0
 21 40  1  0
 22 25  1  0
 22 21  1  0
 23 24  1  0
 23 20  1  0
 24 22  2  0
 25 26  1  0
 26 27  2  0
 28 31  1  0
 28 27  1  0
 29 28  2  0
 30 29  1  0
 30 25  2  0
 31 32  1  0
 32 37  2  0
 32 33  1  0
 33 34  2  0
 34 35  1  0
 35 39  1  0
 36 35  2  0
 37 36  1  0
 38 37  1  0
 40 41  1  0
 41 43  1  0
 41 44  1  0
 42 40  2  0
 45 20  1  0
 45 46  1  0
 47 45  1  0
 48 50  1  0
 49 60  2  0
 50 55  1  0
 51 59  1  0
 51 61  1  0
 52 58  1  0
 52 54  1  0
 53 59  1  0
 54 55  2  0
 54 53  1  0
 56 50  2  0
 57 56  1  0
 57 52  2  0
 58 51  1  0
 59 49  1  0
 61 63  2  0
 62 61  1  0
 64 62  1  0
 65 74  2  0
 65 70  1  0
 66 62  1  0
 66 70  1  0
 67 66  1  0
 68 69  1  0
 68 67  1  0
 69 65  1  0
 70 71  2  0
 71 72  1  0
 73 72  2  0
 74 73  1  0
 75 49  1  0
 75 76  1  0
 75 85  1  0
 76 79  1  0
 77 81  1  0
 77 76  1  0
 78 77  2  0
 81 80  1  0
 83 81  1  0
 83 84  1  0
 83 82  1  0
 85 88  1  1
 85 86  1  0
 87 85  1  0
M  ISO  4   6 101  10 100  12 100  48 101
M  END
>  <TORSDO>  (83) 
F 16

>  <SCORE>  (83) 
-12.704

>  <name>  (83) 
82

>  <ligand_id>  (83) 
82

>  <original_smiles>  (83) 
[H]c1c([H])c([H])c2c(c1[H])C([H])([H])C([H])([H])C([H])([H])C2([H])N([H])C(=O)C1([H])N(C(=O)C([H])(N([H])C(=O)C([H])(N([H])C([H])([H])[H])C([H])([H])[H])C(C([H])([H])[H])(C([H])([H])[H])C([H])([H])[H])C([H])([H])c2c([H])c(Oc3c([H])c([H])c4c(c3[H])C([H])([H])C([H])(C(=O)N3C([H])([H])C([H])([H])C([H])([H])C([H])(n5nc(-c6c([H])c([H])c(Oc7c([H])c([H])c(F)c([H])c7F)c([H])c6[H])c(C(=O)N([H])[H])c5N([H])[H])C3([H])[H])C([H])([H])C4=O)c([H])c([H])c2C1([H])[H]

>  <smiles>  (83) 
[H]c1c([H])c([H])c2c(c1[H])C([H])([H])C([H])([H])C([H])([H])C2([H])N([H])C(=O)C1([H])N(C(=O)C([H])(N([H])C(=O)C([H])(N([H])C([H])([H])[H])C([H])([H])[H])C(C([H])([H])[H])(C([H])([H])[H])C([H])([H])[H])C([H])([H])c2c([H])c(Oc3c([H])c([H])c4c(c3[H])C([H])([H])C([H])(C(=O)N3C([H])([H])C([H])([H])C([H])([H])C([H])(n5nc(-c6c([H])c([H])c(Oc7c([H])c([H])c(F)c([H])c7F)c([H])c6[H])c(C(=O)N([H])[H])c5N([H])[H])C3([H])[H])C([H])([H])C4=O)c([H])c([H])c2C1([H])[H]

$$$$
83:0:0
     RDKit          3D

 90 98  0  0  1  0  0  0  0  0999 V2000
  -28.0240  -21.5780   20.1590 C   0  0  0  0  0  3  0  0  0  0  0  0
  -30.3480  -22.2060   20.3410 C   0  0  0  0  0  3  0  0  0  0  0  0
  -27.6470  -22.9280   20.4070 C   0  0  0  0  0  3  0  0  0  0  0  0
  -29.9670  -23.5570   20.5880 C   0  0  0  0  0  3  0  0  0  0  0  0
  -29.3860  -21.1820   20.1190 C   0  0  0  0  0  0  0  0  0  0  0  0
  -28.6070  -23.9510   20.6230 C   0  0  0  0  0  0  0  0  0  0  0  0
  -29.8130  -19.7360   19.6940 C   0  0  0  0  0  2  0  0  0  0  0  0
  -30.5640  -18.9910   21.9370 C   0  0  0  0  0  1  0  0  0  0  0  0
  -29.8430  -18.6050   20.7010 N   0  0  2  0  0  4  0  0  0  0  0  0
  -28.8810  -18.4600   20.9650 H   0  0  0  0  0  0  0  0  0  0  0  0
  -30.3500  -17.2940   20.1160 C   0  0  0  0  0  3  0  0  0  0  0  0
  -30.0220  -15.9370   20.8800 C   0  0  0  0  0  3  0  0  0  0  0  0
  -30.7290  -14.6420   20.3220 C   0  0  0  0  0  0  0  0  0  0  0  0
  -30.4590  -12.4370   19.2050 C   0  0  0  0  0  2  0  0  0  0  0  0
  -29.5110  -12.6090   17.9970 C   0  0  0  0  0  2  0  0  0  0  0  0
  -28.0380  -12.4660   18.4320 C   0  0  0  0  0  2  0  0  0  0  0  0
  -27.7030  -13.3100   19.6900 C   0  0  0  0  0  3  0  0  0  0  0  0
  -28.7660  -13.1210   20.7940 C   0  0  0  0  0  2  0  0  0  0  0  0
  -30.0770  -13.4410   20.2180 N   0  0  0  0  0  0  0  0  0  0  0  0
  -31.8730  -14.7690   19.8760 O   0  0  0  0  0  0  0  0  0  0  0  0
  -25.3090  -13.9190   20.4050 C   0  0  0  0  0  0  0  0  0  0  0  0
  -24.2420  -13.1500   20.7870 C   0  0  0  0  0  0  0  0  0  0  0  0
  -24.7040  -11.7980   20.7700 C   0  0  0  0  0  0  0  0  0  0  0  0
  -26.3530  -13.0360   20.1790 N   0  0  0  0  0  0  0  0  0  0  0  0
  -25.9940  -11.7570   20.4590 N   0  0  0  0  0  0  0  0  0  0  0  0
  -23.9780  -10.5380   20.9750 C   0  0  0  0  0  0  0  0  0  0  0  0
  -24.4130   -9.5770   21.9140 C   0  0  0  0  0  3  0  0  0  0  0  0
  -23.6880   -8.3820   22.1050 C   0  0  0  0  0  3  0  0  0  0  0  0
  -22.5110   -8.1390   21.3570 C   0  0  0  0  0  0  0  0  0  0  0  0
  -22.0950   -9.0880   20.4070 C   0  0  0  0  0  3  0  0  0  0  0  0
  -22.8210  -10.2750   20.2140 C   0  0  0  0  0  3  0  0  0  0  0  0
  -21.7560   -6.9960   21.4580 O   0  0  0  0  0  0  0  0  0  0  0  0
  -21.7150   -6.2600   22.6150 C   0  0  0  0  0  0  0  0  0  0  0  0
  -21.3010   -6.8220   23.8420 C   0  0  0  0  0  3  0  0  0  0  0  0
  -21.2070   -6.0130   24.9920 C   0  0  0  0  0  3  0  0  0  0  0  0
  -21.5180   -4.6420   24.9160 C   0  0  0  0  0  0  0  0  0  0  0  0
  -21.9240   -4.0790   23.6930 C   0  0  0  0  0  3  0  0  0  0  0  0
  -22.0200   -4.8860   22.5460 C   0  0  0  0  0  0  0  0  0  0  0  0
  -22.3920   -4.3330   21.3650 F   0  0  0  0  0  0  0  0  0  0  0  0
  -21.4210   -3.8620   26.0170 F   0  0  0  0  0  0  0  0  0  0  0  0
  -22.8460  -13.6300   21.0560 C   0  0  0  0  0  0  0  0  0  0  0  0
  -22.1180  -12.9420   21.9300 N   0  0  0  0  0  0  0  0  0  0  0  0
  -22.4070  -14.6490   20.5260 O   0  0  0  0  0  0  0  0  0  0  0  0
  -22.4850  -12.1170   22.3800 H   0  0  0  0  0  0  0  0  0  0  0  0
  -21.1800  -13.2460   22.1520 H   0  0  0  0  0  0  0  0  0  0  0  0
  -25.4760  -15.2870   20.2100 N   0  0  0  0  0  0  0  0  0  0  0  0
  -24.7100  -15.9450   20.3040 H   0  0  0  0  0  0  0  0  0  0  0  0
  -26.3190  -15.7110   19.8460 H   0  0  0  0  0  0  0  0  0  0  0  0
  -28.1580  -25.3750   21.0790 C   0  0  0  0  0  2  0  0  0  0  0  0
  -28.3540  -26.5380   20.2120 O   0  0  0  0  0  0  0  0  0  0  0  0
  -24.6210  -31.8800   23.2480 C   0  0  0  0  0  0  0  0  0  0  0  0
  -27.2540  -27.3890   20.1740 C   0  0  0  0  0  0  0  0  0  0  0  0
  -23.4200  -30.4840   21.6010 C   0  0  0  0  0  3  0  0  0  0  0  0
  -24.8780  -28.9490   20.1680 C   0  0  0  0  0  0  0  0  0  0  0  0
  -25.9530  -30.8270   21.4140 C   0  0  0  0  0  2  0  0  0  0  0  0
  -26.0410  -29.4550   20.7630 C   0  0  0  0  0  0  0  0  0  0  0  0
  -27.2380  -28.6850   20.7590 C   0  0  0  0  0  3  0  0  0  0  0  0
  -26.0770  -26.9210   19.5550 C   0  0  0  0  0  3  0  0  0  0  0  0
  -24.8940  -27.6850   19.5520 C   0  0  0  0  0  3  0  0  0  0  0  0
  -23.6350  -29.8120   20.2190 C   0  0  0  0  0  2  0  0  0  0  0  0
  -24.6820  -31.0790   22.1460 N   0  0  0  0  0  0  0  0  0  0  0  0
  -23.5370  -32.1510   23.7840 O   0  0  0  0  0  0  0  0  0  0  0  0
  -22.7610  -29.4620   22.5570 C   0  0  0  0  0  0  0  0  0  0  0  0
  -21.4370  -29.2810   22.4240 N   0  0  0  0  0  0  0  0  0  0  0  0
  -23.4400  -28.8350   23.3750 O   0  0  0  0  0  0  0  0  0  0  0  0
  -20.9500  -29.8380   21.7370 H   0  0  0  0  0  0  0  0  0  0  0  0
  -18.0600  -28.0720   22.9020 C   0  0  0  0  0  0  0  0  0  0  0  0
  -20.6160  -28.3400   23.1880 C   0  0  0  0  0  3  0  0  0  0  0  0
  -20.7270  -26.9080   22.6140 C   0  0  0  0  0  2  0  0  0  0  0  0
  -19.6330  -26.5820   21.5930 C   0  0  0  0  0  2  0  0  0  0  0  0
  -18.2460  -26.7240   22.2270 C   0  0  0  0  0  2  0  0  0  0  0  0
  -19.1730  -28.8390   23.3380 C   0  0  0  0  0  0  0  0  0  0  0  0
  -18.9460  -30.1010   23.9280 C   0  0  0  0  0  3  0  0  0  0  0  0
  -17.6400  -30.5980   24.0850 C   0  0  0  0  0  3  0  0  0  0  0  0
  -16.5410  -29.8280   23.6660 C   0  0  0  0  0  3  0  0  0  0  0  0
  -16.7520  -28.5680   23.0800 C   0  0  0  0  0  3  0  0  0  0  0  0
  -25.9030  -32.5120   23.8740 C   0  0  0  0  0  3  0  0  0  0  0  0
  -25.5930  -33.9110   24.1990 N   0  0  0  0  0  0  0  0  0  0  0  0
  -25.9330  -34.9620   23.4400 C   0  0  0  0  0  0  0  0  0  0  0  0
  -26.6110  -34.8550   22.4150 O   0  0  0  0  0  0  0  0  0  0  0  0
  -24.9920  -34.0670   24.9950 H   0  0  0  0  0  0  0  0  0  0  0  0
  -24.2120  -36.7590   23.0740 C   0  0  0  0  0  1  0  0  0  0  0  0
  -25.4470  -36.3510   23.8940 C   0  0  0  0  0  3  0  0  0  0  0  0
  -27.5800  -37.2300   24.7370 C   0  0  0  0  0  1  0  0  0  0  0  0
  -26.4840  -37.4010   23.7870 N   0  0  0  0  0  0  0  0  0  0  0  0
  -26.0800  -38.3220   23.9340 H   0  0  0  0  0  0  0  0  0  0  0  0
  -26.4120  -31.7420   25.1540 C   0  0  1  0  0  0  0  0  0  0  0  0
  -25.3160  -31.5090   26.2180 C   0  0  0  0  0  1  0  0  0  0  0  0
  -26.9940  -30.3630   24.7660 C   0  0  0  0  0  1  0  0  0  0  0  0
  -27.5630  -32.5360   25.8180 C   0  0  0  0  0  1  0  0  0  0  0  0
  1  3  1  0
  2  4  2  0
  3  6  2  0
  4  6  1  0
  5  1  2  0
  5  2  1  0
  6 49  1  0
  7  5  1  0
  7  9  1  0
  9 10  1  1
  9  8  1  0
 11  9  1  0
 11 12  2  0
 13 12  1  0
 14 19  1  0
 15 16  1  0
 15 14  1  0
 17 16  1  0
 17 24  1  0
 17 18  1  0
 19 13  1  0
 19 18  1  0
 20 13  2  0
 21 22  2  0
 22 41  1  0
 23 22  1  0
 23 26  1  0
 24 21  1  0
 24 25  1  0
 25 23  2  0
 26 27  1  0
 27 28  2  0
 29 32  1  0
 29 28  1  0
 30 29  2  0
 31 30  1  0
 31 26  2  0
 32 33  1  0
 33 34  1  0
 34 35  2  0
 36 35  1  0
 36 40  1  0
 37 36  2  0
 38 33  2  0
 38 37  1  0
 39 38  1  0
 41 42  1  0
 42 45  1  0
 42 44  1  0
 43 41  2  0
 46 47  1  0
 46 21  1  0
 48 46  1  0
 50 49  1  0
 51 62  2  0
 52 50  1  0
 52 57  1  0
 53 61  1  0
 53 63  1  0
 54 60  1  0
 54 56  1  0
 55 61  1  0
 56 55  1  0
 57 56  2  0
 58 52  2  0
 59 58  1  0
 59 54  2  0
 60 53  1  0
 61 51  1  0
 63 65  2  0
 64 63  1  0
 66 64  1  0
 67 76  2  0
 67 72  1  0
 68 64  1  0
 68 72  1  0
 69 68  1  0
 70 71  1  0
 70 69  1  0
 71 67  1  0
 72 73  2  0
 73 74  1  0
 75 74  2  0
 76 75  1  0
 77 51  1  0
 77 78  1  0
 77 87  1  0
 78 81  1  0
 79 83  1  0
 79 78  1  0
 80 79  2  0
 83 82  1  0
 85 83  1  0
 85 86  1  0
 85 84  1  0
 87 90  1  1
 87 88  1  0
 89 87  1  0
M  ISO  4  12 100  13 100  49 101  50 101
M  END
>  <TORSDO>  (84) 
F 21

>  <SCORE>  (84) 
-13.376

>  <name>  (84) 
83

>  <ligand_id>  (84) 
83

>  <original_smiles>  (84) 
[H]c1c([H])c([H])c2c(c1[H])C([H])([H])C([H])([H])C([H])([H])C2([H])N([H])C(=O)C1([H])N(C(=O)C([H])(N([H])C(=O)C([H])(N([H])C([H])([H])[H])C([H])([H])[H])C(C([H])([H])[H])(C([H])([H])[H])C([H])([H])[H])C([H])([H])c2c([H])c(OC([H])([H])c3c([H])c([H])c(C([H])([H])[N+]([H])(C([H])([H])[H])C([H])([H])C([H])([H])C(=O)N4C([H])([H])C([H])([H])C([H])([H])C([H])(n5nc(-c6c([H])c([H])c(Oc7c([H])c([H])c(F)c([H])c7F)c([H])c6[H])c(C(=O)N([H])[H])c5N([H])[H])C4([H])[H])c([H])c3[H])c([H])c([H])c2C1([H])[H]

>  <smiles>  (84) 
[H]c1c([H])c([H])c2c(c1[H])C([H])([H])C([H])([H])C([H])([H])C2([H])N([H])C(=O)C1([H])N(C(=O)C([H])(N([H])C(=O)C([H])(N([H])C([H])([H])[H])C([H])([H])[H])C(C([H])([H])[H])(C([H])([H])[H])C([H])([H])[H])C([H])([H])c2c([H])c(OC([H])([H])c3c([H])c([H])c(C([H])([H])[N+]([H])(C([H])([H])[H])C([H])([H])C([H])([H])C(=O)N4C([H])([H])C([H])([H])C([H])([H])C([H])(n5nc(-c6c([H])c([H])c(Oc7c([H])c([H])c(F)c([H])c7F)c([H])c6[H])c(C(=O)N([H])[H])c5N([H])[H])C4([H])[H])c([H])c3[H])c([H])c([H])c2C1([H])[H]

$$$$
84:0:0
     RDKit          3D

 89 98  0  0  1  0  0  0  0  0999 V2000
  -30.4600  -18.3420   21.0700 C   0  0  0  0  0  3  0  0  0  0  0  0
  -28.6940  -17.9520   19.7370 C   0  0  0  0  0  3  0  0  0  0  0  0
  -29.7750  -17.2060   20.4220 C   0  0  0  0  0  0  0  0  0  0  0  0
  -29.0390  -20.5720   20.4420 C   0  0  0  0  0  0  0  0  0  0  0  0
  -30.1380  -19.8190   21.0890 C   0  0  0  0  0  0  0  0  0  0  0  0
  -28.3560  -19.4420   19.7520 C   0  0  0  0  0  0  0  0  0  0  0  0
  -31.0810  -20.6800   21.9160 C   0  0  0  0  0  1  0  0  0  0  0  0
  -30.3530  -15.5650   20.3120 C   0  0  0  0  0  0  0  0  0  0  0  0
  -30.3640  -13.0590   19.4960 C   0  0  0  0  0  2  0  0  0  0  0  0
  -29.4700  -12.7310   18.2700 C   0  0  0  0  0  2  0  0  0  0  0  0
  -28.0400  -12.3950   18.7150 C   0  0  0  0  0  2  0  0  0  0  0  0
  -27.5380  -13.3920   19.7850 C   0  0  0  0  0  3  0  0  0  0  0  0
  -28.5640  -13.6750   20.9040 C   0  0  0  0  0  2  0  0  0  0  0  0
  -29.7730  -14.2370   20.2650 N   0  0  0  0  0  0  0  0  0  0  0  0
  -31.5810  -15.4450   20.1490 O   0  0  0  0  0  0  0  0  0  0  0  0
  -25.1690  -13.9070   20.5430 C   0  0  0  0  0  0  0  0  0  0  0  0
  -24.1130  -13.1160   20.9010 C   0  0  0  0  0  0  0  0  0  0  0  0
  -24.5960  -11.7710   20.8720 C   0  0  0  0  0  0  0  0  0  0  0  0
  -26.2200  -13.0460   20.3000 N   0  0  0  0  0  0  0  0  0  0  0  0
  -25.8910  -11.7540   20.5680 N   0  0  0  0  0  0  0  0  0  0  0  0
  -23.8810  -10.5000   21.0550 C   0  0  0  0  0  0  0  0  0  0  0  0
  -24.3120   -9.5340   21.9920 C   0  0  0  0  0  3  0  0  0  0  0  0
  -23.5910   -8.3330   22.1640 C   0  0  0  0  0  3  0  0  0  0  0  0
  -22.4260   -8.0870   21.3980 C   0  0  0  0  0  0  0  0  0  0  0  0
  -22.0160   -9.0410   20.4510 C   0  0  0  0  0  3  0  0  0  0  0  0
  -22.7380  -10.2340   20.2760 C   0  0  0  0  0  3  0  0  0  0  0  0
  -21.6760   -6.9380   21.4800 O   0  0  0  0  0  0  0  0  0  0  0  0
  -21.6160   -6.1990   22.6340 C   0  0  0  0  0  0  0  0  0  0  0  0
  -21.1450   -6.7470   23.8480 C   0  0  0  0  0  3  0  0  0  0  0  0
  -21.0320   -5.9310   24.9900 C   0  0  0  0  0  3  0  0  0  0  0  0
  -21.3860   -4.5700   24.9240 C   0  0  0  0  0  0  0  0  0  0  0  0
  -21.8530   -4.0220   23.7160 C   0  0  0  0  0  3  0  0  0  0  0  0
  -21.9660   -4.8350   22.5740 C   0  0  0  0  0  0  0  0  0  0  0  0
  -22.3950   -4.2970   21.4070 F   0  0  0  0  0  0  0  0  0  0  0  0
  -21.2710   -3.7860   26.0200 F   0  0  0  0  0  0  0  0  0  0  0  0
  -22.7100  -13.5790   21.1590 C   0  0  0  0  0  0  0  0  0  0  0  0
  -21.9840  -12.8790   22.0220 N   0  0  0  0  0  0  0  0  0  0  0  0
  -22.2690  -14.5980   20.6310 O   0  0  0  0  0  0  0  0  0  0  0  0
  -22.3530  -12.0490   22.4620 H   0  0  0  0  0  0  0  0  0  0  0  0
  -21.0450  -13.1780   22.2460 H   0  0  0  0  0  0  0  0  0  0  0  0
  -25.3220  -15.2800   20.3730 N   0  0  0  0  0  0  0  0  0  0  0  0
  -24.5570  -15.9320   20.4990 H   0  0  0  0  0  0  0  0  0  0  0  0
  -26.1870  -15.7290   20.1000 H   0  0  0  0  0  0  0  0  0  0  0  0
  -29.4280  -23.5240   20.1540 C   0  0  0  0  0  2  0  0  0  0  0  0
  -28.6890  -22.3680   20.7220 C   0  0  0  0  0  3  0  0  0  0  0  0
  -27.9680  -24.0190   20.2020 C   0  0  0  0  0  3  0  0  0  0  0  0
  -28.1320  -25.7170   20.3950 O   0  0  0  0  0  0  0  0  0  0  0  0
  -24.6340  -31.9200   23.2570 C   0  0  0  0  0  0  0  0  0  0  0  0
  -27.1450  -26.8800   20.3150 C   0  0  0  0  0  0  0  0  0  0  0  0
  -23.4420  -30.5200   21.6240 C   0  0  0  0  0  3  0  0  0  0  0  0
  -24.8820  -28.8640   20.2300 C   0  0  0  0  0  0  0  0  0  0  0  0
  -26.0160  -30.6670   21.5050 C   0  0  0  0  0  2  0  0  0  0  0  0
  -26.0720  -29.2370   20.8650 C   0  0  0  0  0  0  0  0  0  0  0  0
  -27.1930  -28.2690   20.8780 C   0  0  0  0  0  3  0  0  0  0  0  0
  -25.9230  -26.6870   19.6300 C   0  0  0  0  0  3  0  0  0  0  0  0
  -24.8390  -27.6130   19.5910 C   0  0  0  0  0  3  0  0  0  0  0  0
  -23.6800  -29.8150   20.2570 C   0  0  0  0  0  2  0  0  0  0  0  0
  -24.7210  -31.0670   22.1820 N   0  0  0  0  0  0  0  0  0  0  0  0
  -23.5420  -32.2290   23.7650 O   0  0  0  0  0  0  0  0  0  0  0  0
  -22.7200  -29.5490   22.5970 C   0  0  0  0  0  0  0  0  0  0  0  0
  -21.3900  -29.3920   22.4580 N   0  0  0  0  0  0  0  0  0  0  0  0
  -23.3670  -28.9350   23.4490 O   0  0  0  0  0  0  0  0  0  0  0  0
  -20.9180  -29.9370   21.7490 H   0  0  0  0  0  0  0  0  0  0  0  0
  -17.9970  -28.1930   22.9380 C   0  0  0  0  0  0  0  0  0  0  0  0
  -20.5520  -28.4680   23.2320 C   0  0  0  0  0  3  0  0  0  0  0  0
  -20.6640  -27.0260   22.6830 C   0  0  0  0  0  2  0  0  0  0  0  0
  -19.5760  -26.6870   21.6590 C   0  0  0  0  0  2  0  0  0  0  0  0
  -18.1840  -26.8370   22.2790 C   0  0  0  0  0  2  0  0  0  0  0  0
  -19.1080  -28.9650   23.3710 C   0  0  0  0  0  0  0  0  0  0  0  0
  -18.8740  -30.2330   23.9500 C   0  0  0  0  0  3  0  0  0  0  0  0
  -17.5640  -30.7260   24.0980 C   0  0  0  0  0  3  0  0  0  0  0  0
  -16.4690  -29.9530   23.6790 C   0  0  0  0  0  3  0  0  0  0  0  0
  -16.6860  -28.6880   23.1060 C   0  0  0  0  0  3  0  0  0  0  0  0
  -25.9020  -32.5600   23.8990 C   0  0  0  0  0  3  0  0  0  0  0  0
  -25.5950  -33.9670   24.2200 N   0  0  0  0  0  0  0  0  0  0  0  0
  -25.9190  -35.0200   23.4570 C   0  0  0  0  0  0  0  0  0  0  0  0
  -26.5670  -34.9090   22.4150 O   0  0  0  0  0  0  0  0  0  0  0  0
  -25.0240  -34.1270   25.0370 H   0  0  0  0  0  0  0  0  0  0  0  0
  -24.1870  -36.8220   23.1410 C   0  0  0  0  0  1  0  0  0  0  0  0
  -25.4490  -36.4150   23.9180 C   0  0  0  0  0  3  0  0  0  0  0  0
  -27.6070  -37.3100   24.6790 C   0  0  0  0  0  1  0  0  0  0  0  0
  -26.4800  -37.4650   23.7640 N   0  0  0  0  0  0  0  0  0  0  0  0
  -26.0790  -38.3890   23.9070 H   0  0  0  0  0  0  0  0  0  0  0  0
  -26.3840  -31.8070   25.2020 C   0  0  1  0  0  0  0  0  0  0  0  0
  -25.2680  -31.6040   26.2540 C   0  0  0  0  0  1  0  0  0  0  0  0
  -26.9580  -30.4150   24.8550 C   0  0  0  0  0  1  0  0  0  0  0  0
  -27.5340  -32.5980   25.8700 C   0  0  0  0  0  1  0  0  0  0  0  0
  -27.2630  -19.8060   19.0210 O   0  0  0  0  0  0  0  0  0  0  0  0
  -26.9180  -19.1020   18.4810 H   0  0  0  0  0  0  0  0  0  0  0  0
  1  5  1  0
  2  6  2  0
  2  3  1  0
  3  1  2  0
  4  5  2  0
  5  7  1  0
  6  4  1  0
  8  3  1  0
  9 14  1  0
 10 11  1  0
 10  9  1  0
 12 11  1  0
 12 19  1  0
 12 13  1  0
 14  8  1  0
 14 13  1  0
 15  8  2  0
 16 17  2  0
 17 36  1  0
 18 17  1  0
 18 21  1  0
 19 16  1  0
 19 20  1  0
 20 18  2  0
 21 22  1  0
 22 23  2  0
 24 27  1  0
 24 23  1  0
 25 24  2  0
 26 25  1  0
 26 21  2  0
 27 28  1  0
 28 29  1  0
 29 30  2  0
 31 30  1  0
 31 35  1  0
 32 31  2  0
 33 28  2  0
 33 32  1  0
 34 33  1  0
 36 37  1  0
 37 40  1  0
 37 39  1  0
 38 36  2  0
 41 42  1  0
 41 16  1  0
 43 41  1  0
 44 46  1  0
 44 45  1  0
 45  4  1  0
 46 47  1  0
 46 45  1  0
 48 59  2  0
 49 47  1  0
 49 54  1  0
 50 58  1  0
 50 60  1  0
 51 57  1  0
 51 53  1  0
 52 58  1  0
 53 54  2  0
 53 52  1  0
 55 49  2  0
 56 55  1  0
 56 51  2  0
 57 50  1  0
 58 48  1  0
 60 62  2  0
 61 60  1  0
 63 61  1  0
 64 73  2  0
 64 69  1  0
 65 61  1  0
 65 69  1  0
 66 65  1  0
 67 68  1  0
 67 66  1  0
 68 64  1  0
 69 70  2  0
 70 71  1  0
 72 71  2  0
 73 72  1  0
 74 48  1  0
 74 75  1  0
 74 84  1  0
 75 78  1  0
 76 80  1  0
 76 75  1  0
 77 76  2  0
 80 79  1  0
 82 83  1  0
 82 80  1  0
 82 81  1  0
 84 87  1  1
 84 85  1  0
 86 84  1  0
 88  6  1  0
 89 88  1  0
M  ISO  4   3 100   8 100  46 101  47 101
M  END
>  <TORSDO>  (85) 
F 18

>  <SCORE>  (85) 
-16.744

>  <name>  (85) 
84

>  <ligand_id>  (85) 
84

>  <original_smiles>  (85) 
[H]Oc1c([H])c(C(=O)N2C([H])([H])C([H])([H])C([H])([H])C([H])(n3nc(-c4c([H])c([H])c(Oc5c([H])c([H])c(F)c([H])c5F)c([H])c4[H])c(C(=O)N([H])[H])c3N([H])[H])C2([H])[H])c([H])c(C([H])([H])[H])c1C1([H])C([H])([H])C1([H])Oc1c([H])c([H])c2c(c1[H])C([H])([H])N(C(=O)C([H])(N([H])C(=O)C([H])(N([H])C([H])([H])[H])C([H])([H])[H])C(C([H])([H])[H])(C([H])([H])[H])C([H])([H])[H])C([H])(C(=O)N([H])C1([H])c3c([H])c([H])c([H])c([H])c3C([H])([H])C([H])([H])C1([H])[H])C2([H])[H]

>  <smiles>  (85) 
[H]Oc1c([H])c(C(=O)N2C([H])([H])C([H])([H])C([H])([H])C([H])(n3nc(-c4c([H])c([H])c(Oc5c([H])c([H])c(F)c([H])c5F)c([H])c4[H])c(C(=O)N([H])[H])c3N([H])[H])C2([H])[H])c([H])c(C([H])([H])[H])c1C1([H])C([H])([H])C1([H])Oc1c([H])c([H])c2c(c1[H])C([H])([H])N(C(=O)C([H])(N([H])C(=O)C([H])(N([H])C([H])([H])[H])C([H])([H])[H])C(C([H])([H])[H])(C([H])([H])[H])C([H])([H])[H])C([H])(C(=O)N([H])C1([H])c3c([H])c([H])c([H])c([H])c3C([H])([H])C([H])([H])C1([H])[H])C2([H])[H]

$$$$
86:0:0
     RDKit          3D

 88 96  0  0  1  0  0  0  0  0999 V2000
  -29.5720  -21.5930   20.6240 C   0  0  0  0  0  3  0  0  0  0  0  0
  -29.3040  -20.0470   20.3340 C   0  0  0  0  0  0  0  0  0  0  0  0
  -28.6630  -22.7270   20.2700 C   0  0  0  0  0  0  0  0  0  0  0  0
  -28.0210  -20.1400   19.8130 C   0  0  0  0  0  0  0  0  0  0  0  0
  -27.0380  -19.0330   19.6220 C   0  0  0  0  0  1  0  0  0  0  0  0
  -27.4120  -21.8030   19.4580 S   0  0  0  0  0  0  0  0  0  0  0  0
  -30.1140  -18.4910   20.7200 C   0  0  0  0  0  2  0  0  0  0  0  0
  -30.7200  -15.5560   20.6090 C   0  0  0  0  0  0  0  0  0  0  0  0
  -30.8020  -13.0510   19.8670 C   0  0  0  0  0  2  0  0  0  0  0  0
  -29.9780  -12.6910   18.6060 C   0  0  0  0  0  2  0  0  0  0  0  0
  -28.5140  -12.3950   18.9760 C   0  0  0  0  0  2  0  0  0  0  0  0
  -27.9530  -13.4350   19.9750 C   0  0  0  0  0  3  0  0  0  0  0  0
  -28.9140  -13.7260   21.1440 C   0  0  0  0  0  2  0  0  0  0  0  0
  -30.1560  -14.2410   20.5400 N   0  0  0  0  0  0  0  0  0  0  0  0
  -31.9620  -15.5010   20.6630 O   0  0  0  0  0  0  0  0  0  0  0  0
  -30.0340  -16.8580   20.2340 N   0  0  0  0  0  0  0  0  0  0  0  0
  -25.5460  -14.0010   20.5810 C   0  0  0  0  0  0  0  0  0  0  0  0
  -24.4620  -13.2310   20.8850 C   0  0  0  0  0  0  0  0  0  0  0  0
  -24.9290  -11.8810   20.9100 C   0  0  0  0  0  0  0  0  0  0  0  0
  -26.6010  -13.1230   20.4150 N   0  0  0  0  0  0  0  0  0  0  0  0
  -26.2380  -11.8420   20.6860 N   0  0  0  0  0  0  0  0  0  0  0  0
  -24.1880  -10.6230   21.0720 C   0  0  0  0  0  0  0  0  0  0  0  0
  -24.5470   -9.6760   22.0590 C   0  0  0  0  0  3  0  0  0  0  0  0
  -23.8070   -8.4840   22.2100 C   0  0  0  0  0  3  0  0  0  0  0  0
  -22.6920   -8.2290   21.3740 C   0  0  0  0  0  0  0  0  0  0  0  0
  -22.3520   -9.1640   20.3800 C   0  0  0  0  0  3  0  0  0  0  0  0
  -23.0930  -10.3470   20.2280 C   0  0  0  0  0  3  0  0  0  0  0  0
  -21.9310   -7.0860   21.4290 O   0  0  0  0  0  0  0  0  0  0  0  0
  -21.7780   -6.3790   22.5950 C   0  0  0  0  0  0  0  0  0  0  0  0
  -21.1990   -6.9570   23.7450 C   0  0  0  0  0  3  0  0  0  0  0  0
  -20.9930   -6.1770   24.9000 C   0  0  0  0  0  3  0  0  0  0  0  0
  -21.3610   -4.8190   24.9060 C   0  0  0  0  0  0  0  0  0  0  0  0
  -21.9360   -4.2390   23.7620 C   0  0  0  0  0  3  0  0  0  0  0  0
  -22.1420   -5.0170   22.6100 C   0  0  0  0  0  0  0  0  0  0  0  0
  -22.6750   -4.4490   21.5020 F   0  0  0  0  0  0  0  0  0  0  0  0
  -21.1580   -4.0650   26.0120 F   0  0  0  0  0  0  0  0  0  0  0  0
  -23.0500  -13.7110   21.0490 C   0  0  0  0  0  0  0  0  0  0  0  0
  -22.2670  -13.0400   21.8840 N   0  0  0  0  0  0  0  0  0  0  0  0
  -22.6470  -14.7210   20.4690 O   0  0  0  0  0  0  0  0  0  0  0  0
  -22.6050  -12.2250   22.3760 H   0  0  0  0  0  0  0  0  0  0  0  0
  -21.3170  -13.3480   22.0380 H   0  0  0  0  0  0  0  0  0  0  0  0
  -25.7270  -15.3700   20.4030 N   0  0  0  0  0  0  0  0  0  0  0  0
  -24.9650  -16.0320   20.4910 H   0  0  0  0  0  0  0  0  0  0  0  0
  -26.6140  -15.8050   20.1930 H   0  0  0  0  0  0  0  0  0  0  0  0
  -28.7080  -17.1790   18.0890 C   0  0  0  0  0  1  0  0  0  0  0  0
  -30.0670  -16.9310   18.7510 C   0  0  0  0  0  2  0  0  0  0  0  0
  -28.2280  -24.3880   20.7490 C   0  0  0  0  0  2  0  0  0  0  0  0
  -28.2860  -25.9050   20.0710 O   0  0  0  0  0  0  0  0  0  0  0  0
  -24.5880  -31.8630   23.1400 C   0  0  0  0  0  0  0  0  0  0  0  0
  -27.2630  -27.0080   20.1350 C   0  0  0  0  0  0  0  0  0  0  0  0
  -23.4450  -30.4660   21.4700 C   0  0  0  0  0  3  0  0  0  0  0  0
  -24.9410  -28.8820   20.0700 C   0  0  0  0  0  0  0  0  0  0  0  0
  -26.0140  -30.7020   21.3730 C   0  0  0  0  0  2  0  0  0  0  0  0
  -26.1170  -29.2920   20.7140 C   0  0  0  0  0  0  0  0  0  0  0  0
  -27.2750  -28.3790   20.7140 C   0  0  0  0  0  3  0  0  0  0  0  0
  -26.0520  -26.7630   19.4530 C   0  0  0  0  0  3  0  0  0  0  0  0
  -24.9350  -27.6380   19.4220 C   0  0  0  0  0  3  0  0  0  0  0  0
  -23.7140  -29.7940   20.0950 C   0  0  0  0  0  2  0  0  0  0  0  0
  -24.7040  -31.0380   22.0490 N   0  0  0  0  0  0  0  0  0  0  0  0
  -23.4840  -32.1350   23.6430 O   0  0  0  0  0  0  0  0  0  0  0  0
  -22.7410  -29.4560   22.4140 C   0  0  0  0  0  0  0  0  0  0  0  0
  -21.4100  -29.3030   22.2820 N   0  0  0  0  0  0  0  0  0  0  0  0
  -23.4000  -28.8110   23.2320 O   0  0  0  0  0  0  0  0  0  0  0  0
  -20.9300  -29.8740   21.6010 H   0  0  0  0  0  0  0  0  0  0  0  0
  -18.0100  -28.1470   22.8200 C   0  0  0  0  0  0  0  0  0  0  0  0
  -20.5820  -28.3510   23.0320 C   0  0  0  0  0  3  0  0  0  0  0  0
  -20.6380  -26.9430   22.3940 C   0  0  0  0  0  2  0  0  0  0  0  0
  -19.5070  -26.6870   21.3940 C   0  0  0  0  0  2  0  0  0  0  0  0
  -18.1440  -26.8270   22.0780 C   0  0  0  0  0  2  0  0  0  0  0  0
  -19.1540  -28.8700   23.2530 C   0  0  0  0  0  0  0  0  0  0  0  0
  -18.9730  -30.1040   23.9140 C   0  0  0  0  0  3  0  0  0  0  0  0
  -17.6820  -30.6180   24.1400 C   0  0  0  0  0  3  0  0  0  0  0  0
  -16.5540  -29.8920   23.7210 C   0  0  0  0  0  3  0  0  0  0  0  0
  -16.7180  -28.6580   23.0670 C   0  0  0  0  0  3  0  0  0  0  0  0
  -25.8360  -32.5200   23.8050 C   0  0  0  0  0  3  0  0  0  0  0  0
  -26.3190  -31.7540   25.0990 C   0  0  1  0  0  0  0  0  0  0  0  0
  -25.1960  -31.5020   26.1330 C   0  0  0  0  0  1  0  0  0  0  0  0
  -26.9320  -30.3840   24.7330 C   0  0  0  0  0  1  0  0  0  0  0  0
  -27.4390  -32.5620   25.7980 C   0  0  0  0  0  1  0  0  0  0  0  0
  -25.4930  -33.9130   24.1430 N   0  0  0  0  0  0  0  0  0  0  0  0
  -25.8620  -34.9890   23.4360 C   0  0  0  0  0  0  0  0  0  0  0  0
  -26.5870  -34.9110   22.4410 O   0  0  0  0  0  0  0  0  0  0  0  0
  -24.8530  -34.0440   24.9130 H   0  0  0  0  0  0  0  0  0  0  0  0
  -24.1830  -36.8160   23.0060 C   0  0  0  0  0  1  0  0  0  0  0  0
  -25.3490  -36.3680   23.9020 C   0  0  0  0  0  3  0  0  0  0  0  0
  -27.4050  -37.2100   24.9470 C   0  0  0  0  0  1  0  0  0  0  0  0
  -26.3960  -37.4140   23.9120 N   0  0  0  0  0  0  0  0  0  0  0  0
  -25.9860  -38.3330   24.0470 H   0  0  0  0  0  0  0  0  0  0  0  0
  2  1  1  0
  2  7  1  0
  3  1  2  0
  3 47  1  0
  4  2  2  0
  5  4  1  0
  6  4  1  0
  6  3  1  0
  8 15  2  0
  9 14  1  0
 10 11  1  0
 10  9  1  0
 12 11  1  0
 12 20  1  0
 12 13  1  0
 14  8  1  0
 14 13  1  0
 16  8  1  0
 16  7  1  0
 17 18  2  0
 18 19  1  0
 18 37  1  0
 19 22  1  0
 20 17  1  0
 20 21  1  0
 21 19  2  0
 22 23  1  0
 23 24  2  0
 25 28  1  0
 25 24  1  0
 26 25  2  0
 27 26  1  0
 27 22  2  0
 28 29  1  0
 29 34  2  0
 29 30  1  0
 30 31  2  0
 31 32  1  0
 32 36  1  0
 33 32  2  0
 34 33  1  0
 35 34  1  0
 37 38  1  0
 38 41  1  0
 38 40  1  0
 39 37  2  0
 42 43  1  0
 42 17  1  0
 44 42  1  0
 45 46  1  0
 46 16  1  0
 48 50  1  0
 48 47  1  0
 49 60  2  0
 50 55  1  0
 51 59  1  0
 51 61  1  0
 52 58  1  0
 52 54  1  0
 53 59  1  0
 54 53  1  0
 55 54  2  0
 56 50  2  0
 57 56  1  0
 57 52  2  0
 58 51  1  0
 59 49  1  0
 61 63  2  0
 62 61  1  0
 64 62  1  0
 65 74  2  0
 65 70  1  0
 66 62  1  0
 66 70  1  0
 67 66  1  0
 68 69  1  0
 68 67  1  0
 69 65  1  0
 70 71  2  0
 71 72  1  0
 73 72  2  0
 74 73  1  0
 75 49  1  0
 75 80  1  0
 75 76  1  0
 76 79  1  1
 76 77  1  0
 78 76  1  0
 80 83  1  0
 81 85  1  0
 81 80  1  0
 82 81  2  0
 85 84  1  0
 85 87  1  0
 87 88  1  0
 87 86  1  0
M  ISO  4   8 100  16 100  47 101  48 101
M  END
>  <TORSDO>  (86) 
F 19

>  <SCORE>  (86) 
-15.343

>  <name>  (86) 
86

>  <ligand_id>  (86) 
86

>  <original_smiles>  (86) 
[H]c1c([H])c([H])c2c(c1[H])C([H])([H])C([H])([H])C([H])([H])C2([H])N([H])C(=O)C1([H])N(C(=O)C([H])(N([H])C(=O)C([H])(N([H])C([H])([H])[H])C([H])([H])[H])C(C([H])([H])[H])(C([H])([H])[H])C([H])([H])[H])C([H])([H])c2c([H])c(OC([H])([H])c3sc(C([H])([H])[H])c(C([H])([H])N(C(=O)N4C([H])([H])C([H])([H])C([H])([H])C([H])(n5nc(-c6c([H])c([H])c(Oc7c([H])c([H])c(F)c([H])c7F)c([H])c6[H])c(C(=O)N([H])[H])c5N([H])[H])C4([H])[H])C([H])([H])C([H])([H])[H])c3[H])c([H])c([H])c2C1([H])[H]

>  <smiles>  (86) 
[H]c1c([H])c([H])c2c(c1[H])C([H])([H])C([H])([H])C([H])([H])C2([H])N([H])C(=O)C1([H])N(C(=O)C([H])(N([H])C(=O)C([H])(N([H])C([H])([H])[H])C([H])([H])[H])C(C([H])([H])[H])(C([H])([H])[H])C([H])([H])[H])C([H])([H])c2c([H])c(OC([H])([H])c3sc(C([H])([H])[H])c(C([H])([H])N(C(=O)N4C([H])([H])C([H])([H])C([H])([H])C([H])(n5nc(-c6c([H])c([H])c(Oc7c([H])c([H])c(F)c([H])c7F)c([H])c6[H])c(C(=O)N([H])[H])c5N([H])[H])C4([H])[H])C([H])([H])C([H])([H])[H])c3[H])c([H])c([H])c2C1([H])[H]

$$$$
87:0:0
     RDKit          3D

 90 99  0  0  1  0  0  0  0  0999 V2000
  -29.7320  -22.3810   19.2600 C   0  0  0  0  0  3  0  0  0  0  0  0
  -30.1230  -20.9500   19.3220 C   0  0  0  0  0  3  0  0  0  0  0  0
  -28.5690  -20.5390   20.9930 C   0  0  0  0  0  3  0  0  0  0  0  0
  -28.7290  -23.0100   20.0920 C   0  0  0  0  0  0  0  0  0  0  0  0
  -28.1850  -21.9790   20.9290 C   0  0  0  0  0  0  0  0  0  0  0  0
  -29.5880  -19.8850   20.1730 C   0  0  0  0  0  0  0  0  0  0  0  0
  -27.0170  -24.1200   21.3440 C   0  0  0  0  0  0  0  0  0  0  0  0
  -27.0770  -22.6180   21.7460 C   0  0  0  0  0  2  0  0  0  0  0  0
  -27.8820  -24.4970   20.1120 C   0  0  0  0  0  3  0  0  0  0  0  0
  -26.3350  -24.9330   21.9770 O   0  0  0  0  0  0  0  0  0  0  0  0
  -28.2530  -26.0940   20.1360 O   0  0  0  0  0  0  0  0  0  0  0  0
  -24.6590  -31.9140   23.2850 C   0  0  0  0  0  0  0  0  0  0  0  0
  -27.2500  -27.1930   20.0980 C   0  0  0  0  0  0  0  0  0  0  0  0
  -23.4790  -30.5800   21.5860 C   0  0  0  0  0  3  0  0  0  0  0  0
  -24.9410  -29.0470   20.1090 C   0  0  0  0  0  0  0  0  0  0  0  0
  -26.0440  -30.8150   21.4610 C   0  0  0  0  0  2  0  0  0  0  0  0
  -26.1230  -29.4360   20.7510 C   0  0  0  0  0  0  0  0  0  0  0  0
  -27.2750  -28.5310   20.7230 C   0  0  0  0  0  3  0  0  0  0  0  0
  -26.0390  -26.9580   19.4050 C   0  0  0  0  0  3  0  0  0  0  0  0
  -24.9220  -27.8280   19.4170 C   0  0  0  0  0  3  0  0  0  0  0  0
  -23.7170  -29.9560   20.1850 C   0  0  0  0  0  2  0  0  0  0  0  0
  -24.7480  -31.1260   22.1660 N   0  0  0  0  0  0  0  0  0  0  0  0
  -23.5660  -32.1780   23.8120 O   0  0  0  0  0  0  0  0  0  0  0  0
  -22.7850  -29.5420   22.5080 C   0  0  0  0  0  0  0  0  0  0  0  0
  -21.4590  -29.3660   22.3590 N   0  0  0  0  0  0  0  0  0  0  0  0
  -23.4470  -28.8960   23.3230 O   0  0  0  0  0  0  0  0  0  0  0  0
  -20.9780  -29.9390   21.6790 H   0  0  0  0  0  0  0  0  0  0  0  0
  -18.0760  -28.1370   22.8140 C   0  0  0  0  0  0  0  0  0  0  0  0
  -20.6370  -28.3960   23.0890 C   0  0  0  0  0  3  0  0  0  0  0  0
  -20.7410  -26.9910   22.4520 C   0  0  0  0  0  2  0  0  0  0  0  0
  -19.6390  -26.7090   21.4250 C   0  0  0  0  0  2  0  0  0  0  0  0
  -18.2570  -26.8210   22.0760 C   0  0  0  0  0  2  0  0  0  0  0  0
  -19.1940  -28.8840   23.2760 C   0  0  0  0  0  0  0  0  0  0  0  0
  -18.9690  -30.1150   23.9300 C   0  0  0  0  0  3  0  0  0  0  0  0
  -17.6620  -30.6000   24.1240 C   0  0  0  0  0  3  0  0  0  0  0  0
  -16.5600  -29.8510   23.6760 C   0  0  0  0  0  3  0  0  0  0  0  0
  -16.7690  -28.6210   23.0270 C   0  0  0  0  0  3  0  0  0  0  0  0
  -25.9250  -32.5350   23.9490 C   0  0  0  0  0  3  0  0  0  0  0  0
  -25.6180  -33.9360   24.2870 N   0  0  0  0  0  0  0  0  0  0  0  0
  -25.9270  -34.9950   23.5260 C   0  0  0  0  0  0  0  0  0  0  0  0
  -26.5640  -34.8960   22.4750 O   0  0  0  0  0  0  0  0  0  0  0  0
  -25.0500  -34.0860   25.1070 H   0  0  0  0  0  0  0  0  0  0  0  0
  -24.1680  -36.7780   23.2670 C   0  0  0  0  0  1  0  0  0  0  0  0
  -25.4560  -36.3830   24.0070 C   0  0  0  0  0  3  0  0  0  0  0  0
  -27.6220  -37.2980   24.7200 C   0  0  0  0  0  1  0  0  0  0  0  0
  -26.4730  -37.4450   23.8310 N   0  0  0  0  0  0  0  0  0  0  0  0
  -26.0650  -38.3620   23.9900 H   0  0  0  0  0  0  0  0  0  0  0  0
  -26.3930  -31.7550   25.2400 C   0  0  1  0  0  0  0  0  0  0  0  0
  -25.2640  -31.5280   26.2740 C   0  0  0  0  0  1  0  0  0  0  0  0
  -26.9730  -30.3720   24.8700 C   0  0  0  0  0  1  0  0  0  0  0  0
  -27.5300  -32.5370   25.9390 C   0  0  0  0  0  1  0  0  0  0  0  0
  -30.3100  -18.3010   20.2600 C   0  0  0  0  0  2  0  0  0  0  0  0
  -30.6110  -15.4480   20.1890 C   0  0  0  0  0  0  0  0  0  0  0  0
  -30.5650  -13.0260   19.2920 C   0  0  0  0  0  2  0  0  0  0  0  0
  -29.6270  -12.8380   18.0740 C   0  0  0  0  0  2  0  0  0  0  0  0
  -28.1850  -12.5610   18.5370 C   0  0  0  0  0  2  0  0  0  0  0  0
  -27.7470  -13.5110   19.6780 C   0  0  0  0  0  3  0  0  0  0  0  0
  -28.8120  -13.6540   20.7860 C   0  0  0  0  0  2  0  0  0  0  0  0
  -30.0330  -14.1550   20.1350 N   0  0  0  0  0  0  0  0  0  0  0  0
  -31.8260  -15.4540   19.9480 O   0  0  0  0  0  0  0  0  0  0  0  0
  -29.8700  -16.7160   20.3050 N   0  0  0  0  0  0  0  0  0  0  0  0
  -28.8780  -16.5790   20.4350 H   0  0  0  0  0  0  0  0  0  0  0  0
  -25.3830  -14.0340   20.4850 C   0  0  0  0  0  0  0  0  0  0  0  0
  -24.3360  -13.2390   20.8570 C   0  0  0  0  0  0  0  0  0  0  0  0
  -24.8160  -11.8950   20.7930 C   0  0  0  0  0  0  0  0  0  0  0  0
  -26.4320  -13.1750   20.2070 N   0  0  0  0  0  0  0  0  0  0  0  0
  -26.1030  -11.8810   20.4610 N   0  0  0  0  0  0  0  0  0  0  0  0
  -24.1060  -10.6220   20.9700 C   0  0  0  0  0  0  0  0  0  0  0  0
  -24.5210   -9.6680   21.9260 C   0  0  0  0  0  3  0  0  0  0  0  0
  -23.8070   -8.4610   22.0920 C   0  0  0  0  0  3  0  0  0  0  0  0
  -22.6630   -8.2000   21.3020 C   0  0  0  0  0  0  0  0  0  0  0  0
  -22.2670   -9.1420   20.3360 C   0  0  0  0  0  3  0  0  0  0  0  0
  -22.9820  -10.3390   20.1680 C   0  0  0  0  0  3  0  0  0  0  0  0
  -21.9220   -7.0450   21.3760 O   0  0  0  0  0  0  0  0  0  0  0  0
  -21.7950   -6.3460   22.5500 C   0  0  0  0  0  0  0  0  0  0  0  0
  -21.2120   -6.9200   23.7000 C   0  0  0  0  0  3  0  0  0  0  0  0
  -21.0390   -6.1440   24.8640 C   0  0  0  0  0  3  0  0  0  0  0  0
  -21.4360   -4.7940   24.8770 C   0  0  0  0  0  0  0  0  0  0  0  0
  -22.0110   -4.2180   23.7300 C   0  0  0  0  0  3  0  0  0  0  0  0
  -22.1860   -4.9920   22.5680 C   0  0  0  0  0  0  0  0  0  0  0  0
  -22.7210   -4.4260   21.4590 F   0  0  0  0  0  0  0  0  0  0  0  0
  -21.2610   -4.0460   25.9910 F   0  0  0  0  0  0  0  0  0  0  0  0
  -22.9390  -13.6960   21.1550 C   0  0  0  0  0  0  0  0  0  0  0  0
  -22.2360  -12.9850   22.0300 N   0  0  0  0  0  0  0  0  0  0  0  0
  -22.4810  -14.7190   20.6490 O   0  0  0  0  0  0  0  0  0  0  0  0
  -22.6200  -12.1570   22.4590 H   0  0  0  0  0  0  0  0  0  0  0  0
  -21.3000  -13.2740   22.2750 H   0  0  0  0  0  0  0  0  0  0  0  0
  -25.5270  -15.4090   20.3270 N   0  0  0  0  0  0  0  0  0  0  0  0
  -24.7510  -16.0490   20.4590 H   0  0  0  0  0  0  0  0  0  0  0  0
  -26.3520  -15.8630   19.9570 H   0  0  0  0  0  0  0  0  0  0  0  0
  1  2  2  0
  1  4  1  0
  2  6  1  0
  4  9  1  0
  4  5  2  0
  5  3  1  0
  5  8  1  0
  6 52  1  0
  6  3  2  0
  7  8  1  0
  7 10  2  0
  9 11  1  0
  9  7  1  0
 12 23  2  0
 13 11  1  0
 13 18  1  0
 14 22  1  0
 14 24  1  0
 15 21  1  0
 15 17  1  0
 16 22  1  0
 17 16  1  0
 18 17  2  0
 19 20  1  0
 19 13  2  0
 20 15  2  0
 21 14  1  0
 22 12  1  0
 24 26  2  0
 25 24  1  0
 27 25  1  0
 28 37  2  0
 28 33  1  0
 29 25  1  0
 29 33  1  0
 30 29  1  0
 31 32  1  0
 31 30  1  0
 32 28  1  0
 33 34  2  0
 34 35  1  0
 36 35  2  0
 37 36  1  0
 38 12  1  0
 38 39  1  0
 38 48  1  0
 39 42  1  0
 40 44  1  0
 40 39  1  0
 41 40  2  0
 44 43  1  0
 46 47  1  0
 46 44  1  0
 46 45  1  0
 48 51  1  1
 48 49  1  0
 50 48  1  0
 52 61  1  0
 53 61  1  0
 54 59  1  0
 55 56  1  0
 55 54  1  0
 57 56  1  0
 57 66  1  0
 57 58  1  0
 59 53  1  0
 59 58  1  0
 60 53  2  0
 61 62  1  0
 63 64  2  0
 64 83  1  0
 65 64  1  0
 65 68  1  0
 66 67  1  0
 66 63  1  0
 67 65  2  0
 68 69  1  0
 69 70  2  0
 71 74  1  0
 71 70  1  0
 72 71  2  0
 73 72  1  0
 73 68  2  0
 74 75  1  0
 75 80  2  0
 75 76  1  0
 76 77  2  0
 77 78  1  0
 78 82  1  0
 79 78  2  0
 80 79  1  0
 81 80  1  0
 83 84  1  0
 84 87  1  0
 84 86  1  0
 85 83  2  0
 88 89  1  0
 88 63  1  0
 90 88  1  0
M  ISO  4   9 101  11 101  53 100  61 100
M  END
>  <TORSDO>  (87) 
F 17

>  <SCORE>  (87) 
-15.601

>  <name>  (87) 
87

>  <ligand_id>  (87) 
87

>  <original_smiles>  (87) 
[H]c1c([H])c([H])c2c(c1[H])C([H])([H])C([H])([H])C([H])([H])C2([H])N([H])C(=O)C1([H])N(C(=O)C([H])(N([H])C(=O)C([H])(N([H])C([H])([H])[H])C([H])([H])[H])C(C([H])([H])[H])(C([H])([H])[H])C([H])([H])[H])C([H])([H])c2c([H])c(OC3([H])C(=O)C([H])([H])c4c([H])c(C([H])([H])N([H])C(=O)N5C([H])([H])C([H])([H])C([H])([H])C([H])(n6nc(-c7c([H])c([H])c(Oc8c([H])c([H])c(F)c([H])c8F)c([H])c7[H])c(C(=O)N([H])[H])c6N([H])[H])C5([H])[H])c([H])c([H])c43)c([H])c([H])c2C1([H])[H]

>  <smiles>  (87) 
[H]c1c([H])c([H])c2c(c1[H])C([H])([H])C([H])([H])C([H])([H])C2([H])N([H])C(=O)C1([H])N(C(=O)C([H])(N([H])C(=O)C([H])(N([H])C([H])([H])[H])C([H])([H])[H])C(C([H])([H])[H])(C([H])([H])[H])C([H])([H])[H])C([H])([H])c2c([H])c(OC3([H])C(=O)C([H])([H])c4c([H])c(C([H])([H])N([H])C(=O)N5C([H])([H])C([H])([H])C([H])([H])C([H])(n6nc(-c7c([H])c([H])c(Oc8c([H])c([H])c(F)c([H])c8F)c([H])c7[H])c(C(=O)N([H])[H])c6N([H])[H])C5([H])[H])c([H])c([H])c43)c([H])c([H])c2C1([H])[H]

$$$$
88:0:0
     RDKit          3D

 93102  0  0  1  0  0  0  0  0999 V2000
  -30.9670  -14.8030   20.1740 C   0  0  0  0  0  0  0  0  0  0  0  0
  -30.6650  -12.5060   19.2860 C   0  0  0  0  0  2  0  0  0  0  0  0
  -29.7250  -12.5250   18.0650 C   0  0  0  0  0  2  0  0  0  0  0  0
  -28.2590  -12.3730   18.5160 C   0  0  0  0  0  2  0  0  0  0  0  0
  -27.8860  -13.3470   19.6600 C   0  0  0  0  0  3  0  0  0  0  0  0
  -28.9530  -13.3690   20.7800 C   0  0  0  0  0  2  0  0  0  0  0  0
  -30.2630  -13.6250   20.1590 N   0  0  0  0  0  0  0  0  0  0  0  0
  -32.1660  -14.8300   19.8890 O   0  0  0  0  0  0  0  0  0  0  0  0
  -28.2140  -20.2610   21.7320 C   0  0  0  0  0  2  0  0  0  0  0  0
  -28.1210  -21.5400   20.8850 C   0  0  0  0  0  2  0  0  0  0  0  0
  -28.2770  -19.0040   20.8500 C   0  0  0  0  0  2  0  0  0  0  0  0
  -30.8050  -18.5380   20.6660 C   0  0  0  0  0  2  0  0  0  0  0  0
  -29.3570  -17.8570   18.8580 C   0  0  0  0  0  2  0  0  0  0  0  0
  -29.6110  -20.3720   19.1680 C   0  0  0  0  0  2  0  0  0  0  0  0
  -30.8130  -17.0730   21.2390 C   0  0  0  0  0  2  0  0  0  0  0  0
  -29.2420  -16.4180   19.4220 C   0  0  0  0  0  2  0  0  0  0  0  0
  -29.3450  -21.7120   19.9620 C   0  0  0  0  0  3  0  0  0  0  0  0
  -29.5150  -18.9730   19.9160 C   0  0  1  0  0  0  0  0  0  0  0  0
  -30.2880  -15.9840   20.3700 N   0  0  0  0  0  0  0  0  0  0  0  0
  -25.5490  -14.0400   20.4620 C   0  0  0  0  0  0  0  0  0  0  0  0
  -24.4550  -13.3040   20.8240 C   0  0  0  0  0  0  0  0  0  0  0  0
  -24.8560  -11.9350   20.7380 C   0  0  0  0  0  0  0  0  0  0  0  0
  -26.5440  -13.1170   20.1760 N   0  0  0  0  0  0  0  0  0  0  0  0
  -26.1370  -11.8470   20.4060 N   0  0  0  0  0  0  0  0  0  0  0  0
  -24.0810  -10.7010   20.8910 C   0  0  0  0  0  0  0  0  0  0  0  0
  -24.4920   -9.6780   21.7730 C   0  0  0  0  0  3  0  0  0  0  0  0
  -23.7190   -8.5060   21.9160 C   0  0  0  0  0  3  0  0  0  0  0  0
  -22.5220   -8.3520   21.1770 C   0  0  0  0  0  0  0  0  0  0  0  0
  -22.1320   -9.3640   20.2820 C   0  0  0  0  0  3  0  0  0  0  0  0
  -22.9040  -10.5270   20.1370 C   0  0  0  0  0  3  0  0  0  0  0  0
  -21.7210   -7.2380   21.2340 O   0  0  0  0  0  0  0  0  0  0  0  0
  -21.6890   -6.4330   22.3440 C   0  0  0  0  0  0  0  0  0  0  0  0
  -21.3350   -6.9310   23.6180 C   0  0  0  0  0  3  0  0  0  0  0  0
  -21.2480   -6.0550   24.7170 C   0  0  0  0  0  3  0  0  0  0  0  0
  -21.5030   -4.6810   24.5450 C   0  0  0  0  0  0  0  0  0  0  0  0
  -21.8510   -4.1820   23.2770 C   0  0  0  0  0  3  0  0  0  0  0  0
  -21.9410   -5.0560   22.1790 C   0  0  0  0  0  0  0  0  0  0  0  0
  -22.2560   -4.5680   20.9560 F   0  0  0  0  0  0  0  0  0  0  0  0
  -21.4120   -3.8370   25.5990 F   0  0  0  0  0  0  0  0  0  0  0  0
  -23.0860  -13.8330   21.1350 C   0  0  0  0  0  0  0  0  0  0  0  0
  -22.3550  -13.1620   22.0180 N   0  0  0  0  0  0  0  0  0  0  0  0
  -22.6730  -14.8760   20.6290 O   0  0  0  0  0  0  0  0  0  0  0  0
  -22.7020  -12.3170   22.4470 H   0  0  0  0  0  0  0  0  0  0  0  0
  -21.4380  -13.5010   22.2710 H   0  0  0  0  0  0  0  0  0  0  0  0
  -25.7690  -15.4070   20.3280 N   0  0  0  0  0  0  0  0  0  0  0  0
  -25.0320  -16.0880   20.4770 H   0  0  0  0  0  0  0  0  0  0  0  0
  -26.6310  -15.8190   19.9980 H   0  0  0  0  0  0  0  0  0  0  0  0
  -29.1940  -22.9010   19.0400 N   0  0  0  0  0  4  0  0  0  0  0  0
  -28.5220  -22.6570   18.3290 H   0  0  0  0  0  0  0  0  0  0  0  0
  -30.0790  -23.0120   18.5670 H   0  0  0  0  0  0  0  0  0  0  0  0
  -28.8020  -24.2450   19.6090 C   0  0  0  0  0  2  0  0  0  0  0  0
  -28.6240  -25.3770   18.5280 C   0  0  0  0  0  2  0  0  0  0  0  0
  -28.5070  -26.7460   19.0230 O   0  0  0  0  0  0  0  0  0  0  0  0
  -24.6310  -31.4890   22.7180 C   0  0  0  0  0  0  0  0  0  0  0  0
  -27.2960  -27.4340   19.0980 C   0  0  0  0  0  0  0  0  0  0  0  0
  -23.4130  -30.2330   20.9720 C   0  0  0  0  0  3  0  0  0  0  0  0
  -24.8610  -28.8970   19.3460 C   0  0  0  0  0  0  0  0  0  0  0  0
  -25.9250  -30.6760   20.7410 C   0  0  0  0  0  2  0  0  0  0  0  0
  -26.0260  -29.3790   19.9520 C   0  0  0  0  0  0  0  0  0  0  0  0
  -27.2400  -28.6570   19.8230 C   0  0  0  0  0  3  0  0  0  0  0  0
  -26.0990  -26.9740   18.4980 C   0  0  0  0  0  3  0  0  0  0  0  0
  -24.8950  -27.6960   18.6180 C   0  0  0  0  0  3  0  0  0  0  0  0
  -23.5970  -29.7120   19.5230 C   0  0  0  0  0  2  0  0  0  0  0  0
  -24.6770  -30.8090   21.5360 N   0  0  0  0  0  0  0  0  0  0  0  0
  -23.5600  -31.6690   23.3150 O   0  0  0  0  0  0  0  0  0  0  0  0
  -22.8200  -29.0960   21.8380 C   0  0  0  0  0  0  0  0  0  0  0  0
  -21.4830  -28.9690   21.8290 N   0  0  0  0  0  0  0  0  0  0  0  0
  -23.5570  -28.3360   22.4730 O   0  0  0  0  0  0  0  0  0  0  0  0
  -20.9480  -29.6360   21.2910 H   0  0  0  0  0  0  0  0  0  0  0  0
  -18.1290  -27.8260   22.5460 C   0  0  0  0  0  0  0  0  0  0  0  0
  -20.7110  -27.9460   22.5360 C   0  0  0  0  0  3  0  0  0  0  0  0
  -20.6680  -26.6270   21.7300 C   0  0  0  0  0  2  0  0  0  0  0  0
  -19.4390  -26.5150   20.8220 C   0  0  0  0  0  2  0  0  0  0  0  0
  -18.1510  -26.6010   21.6470 C   0  0  0  0  0  2  0  0  0  0  0  0
  -19.3310  -28.4660   22.9510 C   0  0  0  0  0  0  0  0  0  0  0  0
  -19.2510  -29.6230   23.7570 C   0  0  0  0  0  3  0  0  0  0  0  0
  -18.0040  -30.1360   24.1610 C   0  0  0  0  0  3  0  0  0  0  0  0
  -16.8200  -29.4880   23.7720 C   0  0  0  0  0  3  0  0  0  0  0  0
  -16.8830  -28.3350   22.9690 C   0  0  0  0  0  3  0  0  0  0  0  0
  -25.9160  -32.0910   23.3660 C   0  0  0  0  0  3  0  0  0  0  0  0
  -25.5650  -33.4130   23.9010 N   0  0  0  0  0  0  0  0  0  0  0  0
  -25.8600  -34.5780   23.3090 C   0  0  0  0  0  0  0  0  0  0  0  0
  -26.5280  -34.6520   22.2730 O   0  0  0  0  0  0  0  0  0  0  0  0
  -24.9710  -33.4280   24.7180 H   0  0  0  0  0  0  0  0  0  0  0  0
  -24.0710  -36.3440   23.2290 C   0  0  0  0  0  1  0  0  0  0  0  0
  -25.3300  -35.8660   23.9680 C   0  0  0  0  0  3  0  0  0  0  0  0
  -27.4380  -36.6930   24.9210 C   0  0  0  0  0  1  0  0  0  0  0  0
  -26.3260  -36.9590   24.0100 N   0  0  0  0  0  0  0  0  0  0  0  0
  -25.8900  -37.8330   24.2900 H   0  0  0  0  0  0  0  0  0  0  0  0
  -26.5310  -31.1770   24.4950 C   0  0  1  0  0  0  0  0  0  0  0  0
  -25.5060  -30.7380   25.5670 C   0  0  0  0  0  1  0  0  0  0  0  0
  -27.1530  -29.8990   23.8850 C   0  0  0  0  0  1  0  0  0  0  0  0
  -27.6790  -31.9280   25.2120 C   0  0  0  0  0  1  0  0  0  0  0  0
  1 19  1  0
  2  7  1  0
  3  4  1  0
  3  2  1  0
  5  4  1  0
  5 23  1  0
  5  6  1  0
  7  1  1  0
  7  6  1  0
  8  1  2  0
 10  9  1  0
 11  9  1  0
 12 15  1  0
 13 16  1  0
 18 14  1  6
 14 17  1  0
 16 19  1  0
 17 48  1  0
 17 10  1  0
 18 13  1  0
 18 12  1  0
 18 11  1  0
 19 15  1  0
 20 21  2  0
 21 40  1  0
 22 21  1  0
 22 25  1  0
 23 24  1  0
 23 20  1  0
 24 22  2  0
 25 26  1  0
 26 27  2  0
 28 31  1  0
 28 27  1  0
 29 28  2  0
 30 29  1  0
 30 25  2  0
 31 32  1  0
 32 33  1  0
 33 34  2  0
 35 34  1  0
 35 39  1  0
 36 35  2  0
 37 32  2  0
 37 36  1  0
 38 37  1  0
 40 41  1  0
 41 44  1  0
 41 43  1  0
 42 40  2  0
 45 20  1  0
 45 46  1  0
 47 45  1  0
 48 51  1  0
 49 48  1  0
 50 48  1  0
 52 53  1  0
 52 51  1  0
 53 55  1  0
 54 65  2  0
 55 60  1  0
 56 64  1  0
 56 66  1  0
 57 63  1  0
 57 59  1  0
 58 64  1  0
 59 58  1  0
 60 59  2  0
 61 62  1  0
 61 55  2  0
 62 57  2  0
 63 56  1  0
 64 54  1  0
 66 68  2  0
 67 66  1  0
 69 67  1  0
 70 75  2  0
 70 79  1  0
 71 67  1  0
 71 75  1  0
 72 71  1  0
 73 74  1  0
 73 72  1  0
 74 70  1  0
 75 76  1  0
 76 77  2  0
 78 77  1  0
 79 78  2  0
 80 54  1  0
 80 81  1  0
 80 90  1  0
 81 84  1  0
 82 81  1  0
 82 86  1  0
 83 82  2  0
 86 85  1  0
 86 88  1  0
 88 89  1  0
 88 87  1  0
 90 93  1  1
 90 91  1  0
 92 90  1  0
M  ISO  4   1 100  19 100  52 101  53 101
M  END
>  <TORSDO>  (88) 
F 18

>  <SCORE>  (88) 
-11.414

>  <name>  (88) 
88

>  <ligand_id>  (88) 
88

>  <original_smiles>  (88) 
[H]c1c([H])c([H])c2c(c1[H])C([H])([H])C([H])([H])C([H])([H])C2([H])N([H])C(=O)C1([H])N(C(=O)C([H])(N([H])C(=O)C([H])(N([H])C([H])([H])[H])C([H])([H])[H])C(C([H])([H])[H])(C([H])([H])[H])C([H])([H])[H])C([H])([H])c2c([H])c(OC([H])([H])C([H])([H])[N+]([H])([H])C3([H])C([H])([H])C([H])([H])C([H])([H])C4(C([H])([H])C([H])([H])N(C(=O)N5C([H])([H])C([H])([H])C([H])([H])C([H])(n6nc(-c7c([H])c([H])c(Oc8c([H])c([H])c(F)c([H])c8F)c([H])c7[H])c(C(=O)N([H])[H])c6N([H])[H])C5([H])[H])C([H])([H])C4([H])[H])C3([H])[H])c([H])c([H])c2C1([H])[H]

>  <smiles>  (88) 
[H]c1c([H])c([H])c2c(c1[H])C([H])([H])C([H])([H])C([H])([H])C2([H])N([H])C(=O)C1([H])N(C(=O)C([H])(N([H])C(=O)C([H])(N([H])C([H])([H])[H])C([H])([H])[H])C(C([H])([H])[H])(C([H])([H])[H])C([H])([H])[H])C([H])([H])c2c([H])c(OC([H])([H])C([H])([H])[N+]([H])([H])C3([H])C([H])([H])C([H])([H])C([H])([H])C4(C([H])([H])C([H])([H])N(C(=O)N5C([H])([H])C([H])([H])C([H])([H])C([H])(n6nc(-c7c([H])c([H])c(Oc8c([H])c([H])c(F)c([H])c8F)c([H])c7[H])c(C(=O)N([H])[H])c6N([H])[H])C5([H])[H])C([H])([H])C4([H])[H])C3([H])[H])c([H])c([H])c2C1([H])[H]

$$$$
89:0:0
     RDKit          3D

 92100  0  0  1  0  0  0  0  0999 V2000
  -29.1930  -23.9060   19.4430 C   0  0  0  0  0  3  0  0  0  0  0  0
  -28.3360  -25.2540   21.2400 C   0  0  0  0  0  3  0  0  0  0  0  0
  -29.4140  -22.6810   20.2910 C   0  0  0  0  0  0  0  0  0  0  0  0
  -28.5230  -24.1470   22.1030 C   0  0  0  0  0  0  0  0  0  0  0  0
  -29.0050  -22.8730   21.6540 C   0  0  0  0  0  0  0  0  0  0  0  0
  -28.6310  -25.2260   19.8670 C   0  0  0  0  0  0  0  0  0  0  0  0
  -28.1980  -24.3930   23.5730 C   0  0  0  0  0  1  0  0  0  0  0  0
  -30.0500  -21.2760   19.7640 C   0  0  0  0  0  0  0  0  0  0  0  0
  -30.0890  -20.0020   20.4240 N   0  0  0  0  0  0  0  0  0  0  0  0
  -30.5780  -21.3300   18.6530 O   0  0  0  0  0  0  0  0  0  0  0  0
  -29.6570  -20.0250   21.3390 H   0  0  0  0  0  0  0  0  0  0  0  0
  -30.7430  -18.5880   20.0470 C   0  0  0  0  0  3  0  0  0  0  0  0
  -30.3860  -17.0590   20.7230 C   0  0  0  0  0  3  0  0  0  0  0  0
  -31.2430  -15.6210   20.5570 C   0  0  0  0  0  0  0  0  0  0  0  0
  -31.2510  -13.1700   19.8470 C   0  0  0  0  0  2  0  0  0  0  0  0
  -30.3990  -12.9880   18.5680 C   0  0  0  0  0  2  0  0  0  0  0  0
  -28.9120  -12.7920   18.9190 C   0  0  0  0  0  2  0  0  0  0  0  0
  -28.4190  -13.8130   19.9760 C   0  0  0  0  0  3  0  0  0  0  0  0
  -29.3970  -13.9480   21.1610 C   0  0  0  0  0  2  0  0  0  0  0  0
  -30.7040  -14.3310   20.6130 N   0  0  0  0  0  0  0  0  0  0  0  0
  -32.4480  -15.6790   20.2780 O   0  0  0  0  0  0  0  0  0  0  0  0
  -26.0290  -14.4390   20.6420 C   0  0  0  0  0  0  0  0  0  0  0  0
  -24.9300  -13.6860   20.9550 C   0  0  0  0  0  0  0  0  0  0  0  0
  -25.3600  -12.3240   20.9100 C   0  0  0  0  0  0  0  0  0  0  0  0
  -27.0550  -13.5370   20.4180 N   0  0  0  0  0  0  0  0  0  0  0  0
  -26.6600  -12.2580   20.6460 N   0  0  0  0  0  0  0  0  0  0  0  0
  -24.5920  -11.0790   21.0460 C   0  0  0  0  0  0  0  0  0  0  0  0
  -24.9540  -10.0820   21.9780 C   0  0  0  0  0  3  0  0  0  0  0  0
  -24.1870   -8.9040   22.1010 C   0  0  0  0  0  3  0  0  0  0  0  0
  -23.0430   -8.7140   21.2920 C   0  0  0  0  0  0  0  0  0  0  0  0
  -22.7000   -9.6970   20.3480 C   0  0  0  0  0  3  0  0  0  0  0  0
  -23.4670  -10.8670   20.2220 C   0  0  0  0  0  3  0  0  0  0  0  0
  -22.2510   -7.5910   21.3260 O   0  0  0  0  0  0  0  0  0  0  0  0
  -22.0100   -6.9150   22.4960 C   0  0  0  0  0  0  0  0  0  0  0  0
  -21.4000   -7.5400   23.6050 C   0  0  0  0  0  3  0  0  0  0  0  0
  -21.1070   -6.7900   24.7620 C   0  0  0  0  0  3  0  0  0  0  0  0
  -21.4150   -5.4160   24.8090 C   0  0  0  0  0  0  0  0  0  0  0  0
  -22.0170   -4.7920   23.7020 C   0  0  0  0  0  3  0  0  0  0  0  0
  -22.3100   -5.5390   22.5480 C   0  0  0  0  0  0  0  0  0  0  0  0
  -22.8710   -4.9270   21.4760 F   0  0  0  0  0  0  0  0  0  0  0  0
  -21.1270   -4.6940   25.9160 F   0  0  0  0  0  0  0  0  0  0  0  0
  -23.5370  -14.1970   21.1830 C   0  0  0  0  0  0  0  0  0  0  0  0
  -22.7660  -13.5200   22.0280 N   0  0  0  0  0  0  0  0  0  0  0  0
  -23.1410  -15.2310   20.6470 O   0  0  0  0  0  0  0  0  0  0  0  0
  -23.0990  -12.6830   22.4840 H   0  0  0  0  0  0  0  0  0  0  0  0
  -21.8290  -13.8440   22.2210 H   0  0  0  0  0  0  0  0  0  0  0  0
  -26.2350  -15.8080   20.5030 N   0  0  0  0  0  0  0  0  0  0  0  0
  -25.4830  -16.4810   20.6000 H   0  0  0  0  0  0  0  0  0  0  0  0
  -27.1090  -16.2320   20.2200 H   0  0  0  0  0  0  0  0  0  0  0  0
  -30.4510  -21.5450   23.3040 C   0  0  0  0  0  1  0  0  0  0  0  0
  -29.0570  -21.7330   22.6810 C   0  0  0  0  0  2  0  0  0  0  0  0
  -28.4490  -26.4990   19.1290 O   0  0  0  0  0  0  0  0  0  0  0  0
  -25.1870  -31.5930   23.4430 C   0  0  0  0  0  0  0  0  0  0  0  0
  -27.4310  -27.4950   19.4000 C   0  0  0  0  0  0  0  0  0  0  0  0
  -23.8480  -30.5680   21.6450 C   0  0  0  0  0  3  0  0  0  0  0  0
  -25.1630  -29.2690   19.8500 C   0  0  0  0  0  0  0  0  0  0  0  0
  -26.3930  -30.8100   21.3680 C   0  0  0  0  0  2  0  0  0  0  0  0
  -26.3890  -29.5630   20.4620 C   0  0  0  0  0  0  0  0  0  0  0  0
  -27.5230  -28.6930   20.2240 C   0  0  0  0  0  3  0  0  0  0  0  0
  -26.1810  -27.3140   18.7730 C   0  0  0  0  0  3  0  0  0  0  0  0
  -25.0720  -28.1630   18.9920 C   0  0  0  0  0  3  0  0  0  0  0  0
  -23.9670  -30.1640   20.1500 C   0  0  0  0  0  2  0  0  0  0  0  0
  -25.1670  -31.0010   22.2090 N   0  0  0  0  0  0  0  0  0  0  0  0
  -24.1450  -31.7920   24.0840 O   0  0  0  0  0  0  0  0  0  0  0  0
  -23.1960  -29.4050   22.4360 C   0  0  0  0  0  0  0  0  0  0  0  0
  -21.8660  -29.2460   22.3080 N   0  0  0  0  0  0  0  0  0  0  0  0
  -23.8890  -28.6550   23.1290 O   0  0  0  0  0  0  0  0  0  0  0  0
  -21.3630  -29.9050   21.7310 H   0  0  0  0  0  0  0  0  0  0  0  0
  -18.5310  -27.8530   22.5580 C   0  0  0  0  0  0  0  0  0  0  0  0
  -21.0690  -28.1840   22.9270 C   0  0  0  0  0  3  0  0  0  0  0  0
  -21.2440  -26.8440   22.1720 C   0  0  0  0  0  2  0  0  0  0  0  0
  -20.1810  -26.6180   21.0910 C   0  0  0  0  0  2  0  0  0  0  0  0
  -18.7810  -26.6170   21.7110 C   0  0  0  0  0  2  0  0  0  0  0  0
  -19.6040  -28.5980   23.1150 C   0  0  0  0  0  0  0  0  0  0  0  0
  -19.3160  -29.7570   23.8660 C   0  0  0  0  0  3  0  0  0  0  0  0
  -17.9870  -30.1770   24.0600 C   0  0  0  0  0  3  0  0  0  0  0  0
  -16.9270  -29.4300   23.5170 C   0  0  0  0  0  3  0  0  0  0  0  0
  -17.1990  -28.2680   22.7730 C   0  0  0  0  0  3  0  0  0  0  0  0
  -26.5200  -32.0700   24.0970 C   0  0  0  0  0  3  0  0  0  0  0  0
  -27.0420  -31.0930   25.2210 C   0  0  1  0  0  0  0  0  0  0  0  0
  -25.9810  -30.7530   26.2950 C   0  0  0  0  0  1  0  0  0  0  0  0
  -27.5290  -29.7590   24.6080 C   0  0  0  0  0  1  0  0  0  0  0  0
  -28.2620  -31.7190   25.9380 C   0  0  0  0  0  1  0  0  0  0  0  0
  -26.2920  -33.4140   24.6530 N   0  0  0  0  0  0  0  0  0  0  0  0
  -26.7290  -34.5540   24.1000 C   0  0  0  0  0  0  0  0  0  0  0  0
  -27.4320  -34.5770   23.0880 O   0  0  0  0  0  0  0  0  0  0  0  0
  -25.6740  -33.4740   25.4490 H   0  0  0  0  0  0  0  0  0  0  0  0
  -25.1660  -36.5230   23.9960 C   0  0  0  0  0  1  0  0  0  0  0  0
  -26.3230  -35.8780   24.7770 C   0  0  0  0  0  3  0  0  0  0  0  0
  -28.4660  -36.4180   25.8470 C   0  0  0  0  0  1  0  0  0  0  0  0
  -27.4380  -36.8430   24.9000 N   0  0  0  0  0  0  0  0  0  0  0  0
  -27.0980  -37.7550   25.1910 H   0  0  0  0  0  0  0  0  0  0  0  0
  1  6  2  0
  1  3  1  0
  2  4  2  0
  3  5  2  0
  4  7  1  0
  5  4  1  0
  5 51  1  0
  6  2  1  0
  8  3  1  0
  8  9  1  0
  9 11  1  0
 10  8  2  0
 12  9  1  0
 12 13  2  0
 14 20  1  0
 14 13  1  0
 15 20  1  0
 16 17  1  0
 16 15  1  0
 18 17  1  0
 18 25  1  0
 18 19  1  0
 20 19  1  0
 21 14  2  0
 22 23  2  0
 23 42  1  0
 24 23  1  0
 24 27  1  0
 25 22  1  0
 25 26  1  0
 26 24  2  0
 27 28  1  0
 28 29  2  0
 30 33  1  0
 30 29  1  0
 31 30  2  0
 32 31  1  0
 32 27  2  0
 33 34  1  0
 34 39  2  0
 34 35  1  0
 35 36  2  0
 36 37  1  0
 37 41  1  0
 38 37  2  0
 39 38  1  0
 40 39  1  0
 42 43  1  0
 43 46  1  0
 43 45  1  0
 44 42  2  0
 47 48  1  0
 47 22  1  0
 49 47  1  0
 51 50  1  0
 52 54  1  0
 52  6  1  0
 53 64  2  0
 54 59  1  0
 55 63  1  0
 55 65  1  0
 56 62  1  0
 56 58  1  0
 57 63  1  0
 58 57  1  0
 59 58  2  0
 60 61  1  0
 60 54  2  0
 61 56  2  0
 62 55  1  0
 63 53  1  0
 65 67  2  0
 66 65  1  0
 68 66  1  0
 69 78  2  0
 69 74  1  0
 70 66  1  0
 70 74  1  0
 71 70  1  0
 72 73  1  0
 72 71  1  0
 73 69  1  0
 74 75  2  0
 75 76  1  0
 77 76  2  0
 78 77  1  0
 79 53  1  0
 79 84  1  0
 79 80  1  0
 80 83  1  1
 80 81  1  0
 82 80  1  0
 84 87  1  0
 85 84  1  0
 85 89  1  0
 86 85  2  0
 89 88  1  0
 89 91  1  0
 91 92  1  0
 91 90  1  0
M  ISO  4   6 101  13 100  14 100  52 101
M  END
>  <TORSDO>  (89) 
F 20

>  <SCORE>  (89) 
-10.813

>  <name>  (89) 
89

>  <ligand_id>  (89) 
89

>  <original_smiles>  (89) 
[H]c1c([H])c([H])c2c(c1[H])C([H])([H])C([H])([H])C([H])([H])C2([H])N([H])C(=O)C1([H])N(C(=O)C([H])(N([H])C(=O)C([H])(N([H])C([H])([H])[H])C([H])([H])[H])C(C([H])([H])[H])(C([H])([H])[H])C([H])([H])[H])C([H])([H])c2c([H])c(Oc3c([H])c(C(=O)N([H])C([H])([H])C([H])([H])C(=O)N4C([H])([H])C([H])([H])C([H])([H])C([H])(n5nc(-c6c([H])c([H])c(Oc7c([H])c([H])c(F)c([H])c7F)c([H])c6[H])c(C(=O)N([H])[H])c5N([H])[H])C4([H])[H])c(C([H])([H])C([H])([H])[H])c(C([H])([H])[H])c3[H])c([H])c([H])c2C1([H])[H]

>  <smiles>  (89) 
[H]c1c([H])c([H])c2c(c1[H])C([H])([H])C([H])([H])C([H])([H])C2([H])N([H])C(=O)C1([H])N(C(=O)C([H])(N([H])C(=O)C([H])(N([H])C([H])([H])[H])C([H])([H])[H])C(C([H])([H])[H])(C([H])([H])[H])C([H])([H])[H])C([H])([H])c2c([H])c(Oc3c([H])c(C(=O)N([H])C([H])([H])C([H])([H])C(=O)N4C([H])([H])C([H])([H])C([H])([H])C([H])(n5nc(-c6c([H])c([H])c(Oc7c([H])c([H])c(F)c([H])c7F)c([H])c6[H])c(C(=O)N([H])[H])c5N([H])[H])C4([H])[H])c(C([H])([H])C([H])([H])[H])c(C([H])([H])[H])c3[H])c([H])c([H])c2C1([H])[H]

$$$$
90:0:0
     RDKit          3D

 95104  0  0  1  0  0  0  0  0999 V2000
  -31.2060  -20.1920   19.0400 C   0  0  0  0  0  3  0  0  0  0  0  0
  -31.6380  -21.5250   19.3130 C   0  0  0  0  0  3  0  0  0  0  0  0
  -29.0240  -21.1570   18.7480 C   0  0  0  0  0  3  0  0  0  0  0  0
  -29.8720  -19.8520   18.7290 C   0  0  0  0  0  0  0  0  0  0  0  0
  -29.4190  -22.6360   19.0380 C   0  0  0  0  0  0  0  0  0  0  0  0
  -30.8070  -22.6850   19.3180 C   0  0  0  0  0  0  0  0  0  0  0  0
  -31.3910  -23.8880   19.5980 O   0  0  0  0  0  0  0  0  0  0  0  0
  -30.7670  -24.6100   19.6150 H   0  0  0  0  0  0  0  0  0  0  0  0
  -28.5250  -24.1650   19.0060 C   0  0  0  0  0  2  0  0  0  0  0  0
  -28.8880  -25.7510   19.3990 O   0  0  0  0  0  0  0  0  0  0  0  0
  -25.2660  -31.0440   23.4970 C   0  0  0  0  0  0  0  0  0  0  0  0
  -27.9220  -26.8930   19.5690 C   0  0  0  0  0  0  0  0  0  0  0  0
  -24.1630  -30.1150   21.5030 C   0  0  0  0  0  3  0  0  0  0  0  0
  -25.6770  -28.8430   19.8310 C   0  0  0  0  0  0  0  0  0  0  0  0
  -26.7400  -30.2590   21.5720 C   0  0  0  0  0  2  0  0  0  0  0  0
  -26.8290  -29.0380   20.6050 C   0  0  0  0  0  0  0  0  0  0  0  0
  -27.9500  -28.0930   20.4500 C   0  0  0  0  0  3  0  0  0  0  0  0
  -26.7450  -26.8710   18.7880 C   0  0  0  0  0  3  0  0  0  0  0  0
  -25.6660  -27.7860   18.9090 C   0  0  0  0  0  3  0  0  0  0  0  0
  -24.4740  -29.7710   20.0220 C   0  0  0  0  0  2  0  0  0  0  0  0
  -25.4090  -30.4860   22.2510 N   0  0  0  0  0  0  0  0  0  0  0  0
  -24.1470  -31.2400   24.0010 O   0  0  0  0  0  0  0  0  0  0  0  0
  -23.3850  -28.9450   22.1570 C   0  0  0  0  0  0  0  0  0  0  0  0
  -22.0560  -28.8810   21.9460 N   0  0  0  0  0  0  0  0  0  0  0  0
  -23.9850  -28.1010   22.8280 O   0  0  0  0  0  0  0  0  0  0  0  0
  -21.6280  -29.6120   21.3930 H   0  0  0  0  0  0  0  0  0  0  0  0
  -18.5970  -27.8000   22.1040 C   0  0  0  0  0  0  0  0  0  0  0  0
  -21.1650  -27.8210   22.4260 C   0  0  0  0  0  3  0  0  0  0  0  0
  -21.1880  -26.6030   21.4720 C   0  0  0  0  0  2  0  0  0  0  0  0
  -20.0850  -26.6480   20.4110 C   0  0  0  0  0  2  0  0  0  0  0  0
  -18.7040  -26.6890   21.0720 C   0  0  0  0  0  2  0  0  0  0  0  0
  -19.7540  -28.3400   22.7280 C   0  0  0  0  0  0  0  0  0  0  0  0
  -19.5980  -29.3910   23.6590 C   0  0  0  0  0  3  0  0  0  0  0  0
  -18.3210  -29.8970   23.9680 C   0  0  0  0  0  3  0  0  0  0  0  0
  -17.1800  -29.3500   23.3570 C   0  0  0  0  0  3  0  0  0  0  0  0
  -17.3190  -28.3010   22.4300 C   0  0  0  0  0  3  0  0  0  0  0  0
  -26.4990  -31.4790   24.3440 C   0  0  0  0  0  3  0  0  0  0  0  0
  -26.8850  -30.4270   25.4570 C   0  0  1  0  0  0  0  0  0  0  0  0
  -25.7010  -30.0140   26.3620 C   0  0  0  0  0  1  0  0  0  0  0  0
  -27.4600  -29.1400   24.8240 C   0  0  0  0  0  1  0  0  0  0  0  0
  -27.9980  -31.0060   26.3620 C   0  0  0  0  0  1  0  0  0  0  0  0
  -26.1900  -32.7810   24.9630 N   0  0  0  0  0  0  0  0  0  0  0  0
  -26.6060  -33.9690   24.5030 C   0  0  0  0  0  0  0  0  0  0  0  0
  -27.3540  -34.0800   23.5290 O   0  0  0  0  0  0  0  0  0  0  0  0
  -25.5330  -32.7720   25.7300 H   0  0  0  0  0  0  0  0  0  0  0  0
  -24.9440  -35.8610   24.4810 C   0  0  0  0  0  1  0  0  0  0  0  0
  -26.1220  -35.2330   25.2430 C   0  0  0  0  0  3  0  0  0  0  0  0
  -28.2110  -35.8360   26.3840 C   0  0  0  0  0  1  0  0  0  0  0  0
  -27.1820  -36.2480   25.4340 N   0  0  0  0  0  0  0  0  0  0  0  0
  -26.7840  -37.1250   25.7580 H   0  0  0  0  0  0  0  0  0  0  0  0
  -29.5270  -18.1370   18.4270 C   0  0  0  0  0  0  0  0  0  0  0  0
  -31.0140  -15.4330   18.7310 C   0  0  0  0  0  0  0  0  0  0  0  0
  -30.9030  -12.8610   18.3420 C   0  0  0  0  0  2  0  0  0  0  0  0
  -29.9110  -12.3290   17.2860 C   0  0  0  0  0  2  0  0  0  0  0  0
  -28.5290  -12.1060   17.9160 C   0  0  0  0  0  2  0  0  0  0  0  0
  -28.1220  -13.2800   18.8430 C   0  0  0  0  0  3  0  0  0  0  0  0
  -29.2510  -13.7660   19.7810 C   0  0  0  0  0  2  0  0  0  0  0  0
  -30.3640  -14.1680   18.9020 N   0  0  0  0  0  0  0  0  0  0  0  0
  -32.2250  -15.2550   18.5350 O   0  0  0  0  0  0  0  0  0  0  0  0
  -30.5320  -16.7960   18.3110 N   0  0  0  0  0  4  0  0  0  0  0  0
  -31.3640  -17.1760   17.8870 H   0  0  0  0  0  0  0  0  0  0  0  0
  -25.9500  -13.9690   19.9680 C   0  0  0  0  0  0  0  0  0  0  0  0
  -24.8880  -13.2600   20.4510 C   0  0  0  0  0  0  0  0  0  0  0  0
  -25.2270  -11.8810   20.2920 C   0  0  0  0  0  0  0  0  0  0  0  0
  -26.8690  -13.0310   19.5390 N   0  0  0  0  0  0  0  0  0  0  0  0
  -26.4570  -11.7620   19.8000 N   0  0  0  0  0  0  0  0  0  0  0  0
  -24.4250  -10.6730   20.5280 C   0  0  0  0  0  0  0  0  0  0  0  0
  -24.7940   -9.7180   21.5010 C   0  0  0  0  0  3  0  0  0  0  0  0
  -23.9910   -8.5780   21.7240 C   0  0  0  0  0  3  0  0  0  0  0  0
  -22.8060   -8.3850   20.9750 C   0  0  0  0  0  0  0  0  0  0  0  0
  -22.4560   -9.3280   19.9930 C   0  0  0  0  0  3  0  0  0  0  0  0
  -23.2560  -10.4590   19.7690 C   0  0  0  0  0  3  0  0  0  0  0  0
  -21.9800   -7.2930   21.1050 O   0  0  0  0  0  0  0  0  0  0  0  0
  -21.6820   -6.7580   22.3330 C   0  0  0  0  0  0  0  0  0  0  0  0
  -21.1340   -7.5410   23.3730 C   0  0  0  0  0  3  0  0  0  0  0  0
  -20.7810   -6.9370   24.5960 C   0  0  0  0  0  3  0  0  0  0  0  0
  -20.9610   -5.5520   24.7760 C   0  0  0  0  0  0  0  0  0  0  0  0
  -21.4990   -4.7700   23.7390 C   0  0  0  0  0  3  0  0  0  0  0  0
  -21.8570   -5.3720   22.5200 C   0  0  0  0  0  0  0  0  0  0  0  0
  -22.3570   -4.6120   21.5150 F   0  0  0  0  0  0  0  0  0  0  0  0
  -20.6140   -4.9700   25.9480 F   0  0  0  0  0  0  0  0  0  0  0  0
  -23.5890  -13.8350   20.9340 C   0  0  0  0  0  0  0  0  0  0  0  0
  -22.9210  -13.1490   21.8540 N   0  0  0  0  0  0  0  0  0  0  0  0
  -23.1860  -14.9260   20.5330 O   0  0  0  0  0  0  0  0  0  0  0  0
  -23.2640  -12.2660   22.2000 H   0  0  0  0  0  0  0  0  0  0  0  0
  -22.0500  -13.5130   22.2150 H   0  0  0  0  0  0  0  0  0  0  0  0
  -26.2010  -15.3310   19.8230 N   0  0  0  0  0  0  0  0  0  0  0  0
  -25.5260  -16.0370   20.0960 H   0  0  0  0  0  0  0  0  0  0  0  0
  -27.0560  -15.7140   19.4440 H   0  0  0  0  0  0  0  0  0  0  0  0
  -26.1370  -17.0650   20.9240 C   0  0  0  0  0  3  0  0  0  0  0  0
  -27.4060  -17.2670   21.5010 C   0  0  0  0  0  3  0  0  0  0  0  0
  -25.9660  -17.2120   19.5330 C   0  0  0  0  0  3  0  0  0  0  0  0
  -28.5050  -17.6050   20.6880 C   0  0  0  0  0  3  0  0  0  0  0  0
  -27.0620  -17.5670   18.7240 C   0  0  0  0  0  3  0  0  0  0  0  0
  -28.3390  -17.7580   19.2950 C   0  0  0  0  0  0  0  0  0  0  0  0
  1  2  1  0
  2  6  2  0
  3  5  2  0
  4  3  1  0
  4  1  2  0
  5  6  1  0
  6  7  1  0
  7  8  1  0
  9  5  1  0
  9 10  1  0
 10 12  1  0
 11 22  2  0
 12 17  1  0
 13 23  1  0
 13 21  1  0
 14 20  1  0
 14 16  1  0
 15 21  1  0
 16 15  1  0
 17 16  2  0
 18 19  1  0
 18 12  2  0
 19 14  2  0
 20 13  1  0
 21 11  1  0
 23 25  2  0
 24 23  1  0
 26 24  1  0
 27 36  2  0
 27 32  1  0
 28 24  1  0
 28 32  1  0
 29 28  1  0
 30 31  1  0
 30 29  1  0
 31 27  1  0
 32 33  2  0
 33 34  1  0
 35 34  2  0
 36 35  1  0
 37 11  1  0
 37 42  1  0
 37 38  1  0
 38 41  1  1
 38 39  1  0
 40 38  1  0
 42 45  1  0
 43 42  1  0
 43 47  1  0
 44 43  2  0
 47 46  1  0
 47 49  1  0
 49 50  1  0
 49 48  1  0
 51  4  1  0
 51 95  1  0
 52 58  1  0
 53 58  1  0
 54 55  1  0
 54 53  1  0
 56 55  1  0
 56 65  1  0
 56 57  1  0
 58 57  1  0
 59 52  2  0
 60 51  2  0
 60 52  1  0
 61 60  1  0
 62 63  2  0
 63 82  1  0
 64 63  1  0
 64 67  1  0
 65 66  1  0
 65 62  1  0
 66 64  2  0
 67 68  1  0
 68 69  2  0
 70 73  1  0
 70 69  1  0
 71 70  2  0
 72 71  1  0
 72 67  2  0
 73 74  1  0
 74 79  2  0
 74 75  1  0
 75 76  2  0
 76 77  1  0
 77 81  1  0
 78 77  2  0
 79 78  1  0
 80 79  1  0
 82 83  1  0
 83 85  1  0
 83 86  1  0
 84 82  2  0
 87 62  1  0
 87 88  1  0
 89 87  1  0
 90 91  1  0
 92 90  2  0
 93 91  2  0
 94 95  2  0
 94 92  1  0
 95 93  1  0
M  ISO  4   9 101  10 101  52 100  60 100
M  END
>  <TORSDO>  (90) 
F 20

>  <SCORE>  (90) 
-7.733

>  <name>  (90) 
90

>  <ligand_id>  (90) 
90

>  <original_smiles>  (90) 
[H]Oc1c([H])c([H])c(C([H])(c2c([H])c([H])c([H])c([H])c2[H])N([H])C(=O)N2C([H])([H])C([H])([H])C([H])([H])C([H])(n3nc(-c4c([H])c([H])c(Oc5c([H])c([H])c(F)c([H])c5F)c([H])c4[H])c(C(=O)N([H])[H])c3N([H])[H])C2([H])[H])c([H])c1C([H])([H])Oc1c([H])c([H])c2c(c1[H])C([H])([H])N(C(=O)C([H])(N([H])C(=O)C([H])(N([H])C([H])([H])[H])C([H])([H])[H])C(C([H])([H])[H])(C([H])([H])[H])C([H])([H])[H])C([H])(C(=O)N([H])C1([H])c3c([H])c([H])c([H])c([H])c3C([H])([H])C([H])([H])C1([H])[H])C2([H])[H]

>  <smiles>  (90) 
[H]Oc1c([H])c([H])c(C([H])(c2c([H])c([H])c([H])c([H])c2[H])N([H])C(=O)N2C([H])([H])C([H])([H])C([H])([H])C([H])(n3nc(-c4c([H])c([H])c(Oc5c([H])c([H])c(F)c([H])c5F)c([H])c4[H])c(C(=O)N([H])[H])c3N([H])[H])C2([H])[H])c([H])c1C([H])([H])Oc1c([H])c([H])c2c(c1[H])C([H])([H])N(C(=O)C([H])(N([H])C(=O)C([H])(N([H])C([H])([H])[H])C([H])([H])[H])C(C([H])([H])[H])(C([H])([H])[H])C([H])([H])[H])C([H])(C(=O)N([H])C1([H])c3c([H])c([H])c([H])c([H])c3C([H])([H])C([H])([H])C1([H])[H])C2([H])[H]

$$$$
91:0:0
     RDKit          3D

 89 97  0  0  1  0  0  0  0  0999 V2000
  -25.6880  -22.6020   21.3030 C   0  0  0  0  0  3  0  0  0  0  0  0
  -26.8750  -22.2090   20.6870 C   0  0  0  0  0  3  0  0  0  0  0  0
  -26.5450  -24.8410   21.4000 C   0  0  0  0  0  3  0  0  0  0  0  0
  -25.5510  -23.9130   21.7260 C   0  0  0  0  0  0  0  0  0  0  0  0
  -27.9910  -23.0430   20.4060 C   0  0  0  0  0  0  0  0  0  0  0  0
  -27.6900  -24.6160   20.5740 C   0  0  0  0  0  0  0  0  0  0  0  0
  -24.3040  -24.3470   22.4730 C   0  0  0  0  0  1  0  0  0  0  0  0
  -28.1480  -26.0470   20.2010 O   0  0  0  0  0  0  0  0  0  0  0  0
  -24.6600  -32.0550   23.2620 C   0  0  0  0  0  0  0  0  0  0  0  0
  -27.2340  -27.2460   20.1250 C   0  0  0  0  0  0  0  0  0  0  0  0
  -23.4710  -30.6820   21.6000 C   0  0  0  0  0  3  0  0  0  0  0  0
  -24.9320  -29.1290   20.1270 C   0  0  0  0  0  0  0  0  0  0  0  0
  -26.0380  -30.9020   21.4630 C   0  0  0  0  0  2  0  0  0  0  0  0
  -26.1150  -29.5090   20.7730 C   0  0  0  0  0  0  0  0  0  0  0  0
  -27.2580  -28.5830   20.7660 C   0  0  0  0  0  3  0  0  0  0  0  0
  -26.0400  -27.0540   19.3890 C   0  0  0  0  0  3  0  0  0  0  0  0
  -24.9190  -27.9200   19.4150 C   0  0  0  0  0  3  0  0  0  0  0  0
  -23.7030  -30.0340   20.2060 C   0  0  0  0  0  2  0  0  0  0  0  0
  -24.7440  -31.2410   22.1610 N   0  0  0  0  0  0  0  0  0  0  0  0
  -23.5710  -32.3280   23.7920 O   0  0  0  0  0  0  0  0  0  0  0  0
  -22.7840  -29.6630   22.5450 C   0  0  0  0  0  0  0  0  0  0  0  0
  -21.4570  -29.4860   22.4140 N   0  0  0  0  0  0  0  0  0  0  0  0
  -23.4520  -29.0340   23.3680 O   0  0  0  0  0  0  0  0  0  0  0  0
  -20.9700  -30.0440   21.7280 H   0  0  0  0  0  0  0  0  0  0  0  0
  -18.0870  -28.2360   22.9040 C   0  0  0  0  0  0  0  0  0  0  0  0
  -20.6440  -28.5260   23.1700 C   0  0  0  0  0  3  0  0  0  0  0  0
  -20.7600  -27.1060   22.5700 C   0  0  0  0  0  2  0  0  0  0  0  0
  -19.6610  -26.7880   21.5500 C   0  0  0  0  0  2  0  0  0  0  0  0
  -18.2780  -26.9040   22.1980 C   0  0  0  0  0  2  0  0  0  0  0  0
  -19.1970  -29.0050   23.3460 C   0  0  0  0  0  0  0  0  0  0  0  0
  -18.9610  -30.2500   23.9690 C   0  0  0  0  0  3  0  0  0  0  0  0
  -17.6490  -30.7270   24.1530 C   0  0  0  0  0  3  0  0  0  0  0  0
  -16.5550  -29.9570   23.7240 C   0  0  0  0  0  3  0  0  0  0  0  0
  -16.7730  -28.7130   23.1060 C   0  0  0  0  0  3  0  0  0  0  0  0
  -25.9290  -32.6930   23.9020 C   0  0  0  0  0  3  0  0  0  0  0  0
  -26.4150  -31.9320   25.1980 C   0  0  1  0  0  0  0  0  0  0  0  0
  -25.3040  -31.7090   26.2490 C   0  0  0  0  0  1  0  0  0  0  0  0
  -27.0010  -30.5470   24.8420 C   0  0  0  0  0  1  0  0  0  0  0  0
  -27.5580  -32.7270   25.8710 C   0  0  0  0  0  1  0  0  0  0  0  0
  -25.6150  -34.0960   24.2270 N   0  0  0  0  0  0  0  0  0  0  0  0
  -25.9350  -35.1510   23.4660 C   0  0  0  0  0  0  0  0  0  0  0  0
  -26.5870  -35.0460   22.4240 O   0  0  0  0  0  0  0  0  0  0  0  0
  -25.0320  -34.2490   25.0370 H   0  0  0  0  0  0  0  0  0  0  0  0
  -24.1880  -36.9410   23.1630 C   0  0  0  0  0  1  0  0  0  0  0  0
  -25.4600  -36.5420   23.9310 C   0  0  0  0  0  3  0  0  0  0  0  0
  -27.6130  -37.4520   24.6830 C   0  0  0  0  0  1  0  0  0  0  0  0
  -26.4810  -37.6010   23.7730 N   0  0  0  0  0  0  0  0  0  0  0  0
  -26.0740  -38.5210   23.9210 H   0  0  0  0  0  0  0  0  0  0  0  0
  -29.2080  -21.8390   20.0640 C   0  0  0  0  0  2  0  0  0  0  0  0
  -29.0420  -20.0110   20.1450 C   0  0  0  0  0  3  0  0  0  0  0  0
  -30.1270  -18.5630   20.1000 C   0  0  0  0  0  3  0  0  0  0  0  0
  -30.6090  -15.6390   20.1560 C   0  0  0  0  0  0  0  0  0  0  0  0
  -30.6200  -13.1710   19.3410 C   0  0  0  0  0  2  0  0  0  0  0  0
  -29.7000  -12.9150   18.1210 C   0  0  0  0  0  2  0  0  0  0  0  0
  -28.2590  -12.6270   18.5760 C   0  0  0  0  0  2  0  0  0  0  0  0
  -27.7920  -13.6030   19.6850 C   0  0  0  0  0  3  0  0  0  0  0  0
  -28.8470  -13.8080   20.7960 C   0  0  0  0  0  2  0  0  0  0  0  0
  -30.0570  -14.3250   20.1360 N   0  0  0  0  0  0  0  0  0  0  0  0
  -31.8290  -15.6430   19.9330 O   0  0  0  0  0  0  0  0  0  0  0  0
  -29.8420  -16.9120   20.2170 N   0  0  0  0  0  0  0  0  0  0  0  0
  -28.8600  -16.7140   20.3470 H   0  0  0  0  0  0  0  0  0  0  0  0
  -25.4230  -14.1260   20.4700 C   0  0  0  0  0  0  0  0  0  0  0  0
  -24.3700  -13.3340   20.8350 C   0  0  0  0  0  0  0  0  0  0  0  0
  -24.8500  -11.9890   20.7830 C   0  0  0  0  0  0  0  0  0  0  0  0
  -26.4730  -13.2660   20.2060 N   0  0  0  0  0  0  0  0  0  0  0  0
  -26.1410  -11.9740   20.4630 N   0  0  0  0  0  0  0  0  0  0  0  0
  -24.1340  -10.7190   20.9600 C   0  0  0  0  0  0  0  0  0  0  0  0
  -24.5340   -9.7740   21.9320 C   0  0  0  0  0  3  0  0  0  0  0  0
  -23.8160   -8.5700   22.0990 C   0  0  0  0  0  3  0  0  0  0  0  0
  -22.6820   -8.3020   21.2950 C   0  0  0  0  0  0  0  0  0  0  0  0
  -22.3010   -9.2350   20.3130 C   0  0  0  0  0  3  0  0  0  0  0  0
  -23.0210  -10.4310   20.1460 C   0  0  0  0  0  3  0  0  0  0  0  0
  -21.9390   -7.1480   21.3680 O   0  0  0  0  0  0  0  0  0  0  0  0
  -21.7860   -6.4640   22.5480 C   0  0  0  0  0  0  0  0  0  0  0  0
  -21.2100   -7.0670   23.6890 C   0  0  0  0  0  3  0  0  0  0  0  0
  -21.0080   -6.3070   24.8590 C   0  0  0  0  0  3  0  0  0  0  0  0
  -21.3710   -4.9480   24.8890 C   0  0  0  0  0  0  0  0  0  0  0  0
  -21.9390   -4.3450   23.7520 C   0  0  0  0  0  3  0  0  0  0  0  0
  -22.1440   -5.1020   22.5850 C   0  0  0  0  0  0  0  0  0  0  0  0
  -22.6710   -4.5110   21.4850 F   0  0  0  0  0  0  0  0  0  0  0  0
  -21.1700   -4.2160   26.0090 F   0  0  0  0  0  0  0  0  0  0  0  0
  -22.9700  -13.7950   21.1160 C   0  0  0  0  0  0  0  0  0  0  0  0
  -22.2560  -13.0880   21.9820 N   0  0  0  0  0  0  0  0  0  0  0  0
  -22.5200  -14.8210   20.6040 O   0  0  0  0  0  0  0  0  0  0  0  0
  -22.6340  -12.2610   22.4200 H   0  0  0  0  0  0  0  0  0  0  0  0
  -21.3160  -13.3800   22.2150 H   0  0  0  0  0  0  0  0  0  0  0  0
  -25.5650  -15.5010   20.3040 N   0  0  0  0  0  0  0  0  0  0  0  0
  -24.7830  -16.1350   20.4220 H   0  0  0  0  0  0  0  0  0  0  0  0
  -26.3880  -15.9520   19.9280 H   0  0  0  0  0  0  0  0  0  0  0  0
  1  4  1  0
  2  1  2  0
  3  4  2  0
  4  7  1  0
  5  6  2  0
  5  2  1  0
  6  3  1  0
  8  6  1  0
  9 20  2  0
 10  8  1  0
 10 15  1  0
 11 19  1  0
 11 21  1  0
 12 18  1  0
 12 14  1  0
 13 19  1  0
 14 13  1  0
 15 14  2  0
 16 17  1  0
 16 10  2  0
 17 12  2  0
 18 11  1  0
 19  9  1  0
 21 23  2  0
 22 21  1  0
 24 22  1  0
 25 34  2  0
 25 30  1  0
 26 22  1  0
 26 30  1  0
 27 26  1  0
 28 29  1  0
 28 27  1  0
 29 25  1  0
 30 31  2  0
 31 32  1  0
 33 32  2  0
 34 33  1  0
 35  9  1  0
 35 40  1  0
 35 36  1  0
 36 39  1  1
 36 37  1  0
 38 36  1  0
 40 43  1  0
 41 45  1  0
 41 40  1  0
 42 41  2  0
 45 44  1  0
 47 48  1  0
 47 45  1  0
 47 46  1  0
 49 50  1  0
 49  5  1  0
 51 50  2  0
 51 60  1  0
 52 60  1  0
 53 58  1  0
 54 55  1  0
 54 53  1  0
 56 55  1  0
 56 65  1  0
 56 57  1  0
 58 52  1  0
 58 57  1  0
 59 52  2  0
 60 61  1  0
 62 63  2  0
 63 82  1  0
 64 63  1  0
 64 67  1  0
 65 66  1  0
 65 62  1  0
 66 64  2  0
 67 68  1  0
 68 69  2  0
 70 73  1  0
 70 69  1  0
 71 70  2  0
 72 71  1  0
 72 67  2  0
 73 74  1  0
 74 79  2  0
 74 75  1  0
 75 76  2  0
 76 77  1  0
 77 81  1  0
 78 77  2  0
 79 78  1  0
 80 79  1  0
 82 83  1  0
 83 86  1  0
 83 85  1  0
 84 82  2  0
 87 88  1  0
 87 62  1  0
 89 87  1  0
M  ISO  4   6 101   8 101  52 100  60 100
M  END
>  <TORSDO>  (91) 
F 19

>  <SCORE>  (91) 
-14.814

>  <name>  (91) 
91

>  <ligand_id>  (91) 
91

>  <original_smiles>  (91) 
[H]c1c([H])c([H])c2c(c1[H])C([H])([H])C([H])([H])C([H])([H])C2([H])N([H])C(=O)C1([H])N(C(=O)C([H])(N([H])C(=O)C([H])(N([H])C([H])([H])[H])C([H])([H])[H])C(C([H])([H])[H])(C([H])([H])[H])C([H])([H])[H])C([H])([H])c2c([H])c(Oc3c([H])c(C([H])([H])[H])c([H])c([H])c3C([H])([H])C([H])([H])C([H])([H])N([H])C(=O)N3C([H])([H])C([H])([H])C([H])([H])C([H])(n4nc(-c5c([H])c([H])c(Oc6c([H])c([H])c(F)c([H])c6F)c([H])c5[H])c(C(=O)N([H])[H])c4N([H])[H])C3([H])[H])c([H])c([H])c2C1([H])[H]

>  <smiles>  (91) 
[H]c1c([H])c([H])c2c(c1[H])C([H])([H])C([H])([H])C([H])([H])C2([H])N([H])C(=O)C1([H])N(C(=O)C([H])(N([H])C(=O)C([H])(N([H])C([H])([H])[H])C([H])([H])[H])C(C([H])([H])[H])(C([H])([H])[H])C([H])([H])[H])C([H])([H])c2c([H])c(Oc3c([H])c(C([H])([H])[H])c([H])c([H])c3C([H])([H])C([H])([H])C([H])([H])N([H])C(=O)N3C([H])([H])C([H])([H])C([H])([H])C([H])(n4nc(-c5c([H])c([H])c(Oc6c([H])c([H])c(F)c([H])c6F)c([H])c5[H])c(C(=O)N([H])[H])c4N([H])[H])C3([H])[H])c([H])c([H])c2C1([H])[H]

$$$$
92:0:0
     RDKit          3D

 93101  0  0  1  0  0  0  0  0999 V2000
  -28.7030  -25.1060   22.0370 C   0  0  0  0  0  3  0  0  0  0  0  0
  -28.9490  -23.8770   22.6860 C   0  0  0  0  0  3  0  0  0  0  0  0
  -28.4280  -23.8890   19.9540 C   0  0  0  0  0  3  0  0  0  0  0  0
  -28.6680  -22.6000   20.6030 C   0  0  0  0  0  0  0  0  0  0  0  0
  -28.4290  -25.1670   20.6550 C   0  0  0  0  0  0  0  0  0  0  0  0
  -28.9260  -22.6510   21.9900 C   0  0  0  0  0  0  0  0  0  0  0  0
  -29.1580  -21.4990   22.6680 F   0  0  0  0  0  0  0  0  0  0  0  0
  -28.5680  -21.2430   18.3930 C   0  0  0  0  0  1  0  0  0  0  0  0
  -28.5630  -21.1460   19.9300 C   0  0  0  0  0  3  0  0  0  0  0  0
  -29.5130  -20.0240   20.3930 N   0  0  0  0  0  4  0  0  0  0  0  0
  -30.3800  -20.1420   19.8930 H   0  0  0  0  0  0  0  0  0  0  0  0
  -29.7070  -20.2220   21.3650 H   0  0  0  0  0  0  0  0  0  0  0  0
  -29.0840  -18.5410   20.3120 C   0  0  0  0  0  3  0  0  0  0  0  0
  -30.1900  -17.3800   20.5750 C   0  0  0  0  0  3  0  0  0  0  0  0
  -30.5640  -14.7750   20.3570 C   0  0  0  0  0  0  0  0  0  0  0  0
  -30.3700  -12.4970   19.3510 C   0  0  0  0  0  2  0  0  0  0  0  0
  -29.4300  -12.5740   18.1300 C   0  0  0  0  0  2  0  0  0  0  0  0
  -27.9600  -12.4010   18.5620 C   0  0  0  0  0  2  0  0  0  0  0  0
  -27.5860  -13.2890   19.7780 C   0  0  0  0  0  3  0  0  0  0  0  0
  -28.6470  -13.1990   20.8980 C   0  0  0  0  0  2  0  0  0  0  0  0
  -29.9410  -13.5500   20.3010 N   0  0  0  0  0  0  0  0  0  0  0  0
  -31.7470  -14.8840   20.0280 O   0  0  0  0  0  0  0  0  0  0  0  0
  -29.7870  -15.9020   20.5830 N   0  0  0  0  0  0  0  0  0  0  0  0
  -28.8200  -15.7130   20.7980 H   0  0  0  0  0  0  0  0  0  0  0  0
  -25.1980  -13.8820   20.5080 C   0  0  0  0  0  0  0  0  0  0  0  0
  -24.1320  -13.1090   20.8800 C   0  0  0  0  0  0  0  0  0  0  0  0
  -24.5950  -11.7580   20.8470 C   0  0  0  0  0  0  0  0  0  0  0  0
  -26.2420  -13.0030   20.2690 N   0  0  0  0  0  0  0  0  0  0  0  0
  -25.8850  -11.7190   20.5360 N   0  0  0  0  0  0  0  0  0  0  0  0
  -23.8700  -10.4940   21.0400 C   0  0  0  0  0  0  0  0  0  0  0  0
  -24.3110   -9.5200   21.9620 C   0  0  0  0  0  3  0  0  0  0  0  0
  -23.5840   -8.3230   22.1420 C   0  0  0  0  0  3  0  0  0  0  0  0
  -22.3990   -8.0940   21.4010 C   0  0  0  0  0  0  0  0  0  0  0  0
  -21.9760   -9.0580   20.4680 C   0  0  0  0  0  3  0  0  0  0  0  0
  -22.7040  -10.2450   20.2870 C   0  0  0  0  0  3  0  0  0  0  0  0
  -21.6420   -6.9510   21.4940 O   0  0  0  0  0  0  0  0  0  0  0  0
  -21.6180   -6.1920   22.6370 C   0  0  0  0  0  0  0  0  0  0  0  0
  -21.2320   -6.7340   23.8820 C   0  0  0  0  0  3  0  0  0  0  0  0
  -21.1530   -5.9040   25.0180 C   0  0  0  0  0  3  0  0  0  0  0  0
  -21.4520   -4.5330   24.9090 C   0  0  0  0  0  0  0  0  0  0  0  0
  -21.8310   -3.9910   23.6690 C   0  0  0  0  0  3  0  0  0  0  0  0
  -21.9110   -4.8180   22.5360 C   0  0  0  0  0  0  0  0  0  0  0  0
  -22.2580   -4.2860   21.3380 F   0  0  0  0  0  0  0  0  0  0  0  0
  -21.3690   -3.7310   25.9980 F   0  0  0  0  0  0  0  0  0  0  0  0
  -22.7360  -13.5880   21.1520 C   0  0  0  0  0  0  0  0  0  0  0  0
  -22.0060  -12.8940   22.0200 N   0  0  0  0  0  0  0  0  0  0  0  0
  -22.3000  -14.6150   20.6310 O   0  0  0  0  0  0  0  0  0  0  0  0
  -22.3710  -12.0660   22.4650 H   0  0  0  0  0  0  0  0  0  0  0  0
  -21.0710  -13.1990   22.2460 H   0  0  0  0  0  0  0  0  0  0  0  0
  -25.3600  -15.2530   20.3270 N   0  0  0  0  0  0  0  0  0  0  0  0
  -24.5730  -15.8870   20.4130 H   0  0  0  0  0  0  0  0  0  0  0  0
  -26.1800  -15.6880   19.9220 H   0  0  0  0  0  0  0  0  0  0  0  0
  -28.3360  -26.4630   20.0680 O   0  0  0  0  0  0  0  0  0  0  0  0
  -24.6140  -31.8890   23.2250 C   0  0  0  0  0  0  0  0  0  0  0  0
  -27.2090  -27.3030   20.1570 C   0  0  0  0  0  0  0  0  0  0  0  0
  -23.4030  -30.4950   21.5870 C   0  0  0  0  0  3  0  0  0  0  0  0
  -24.8470  -28.9330   20.1590 C   0  0  0  0  0  0  0  0  0  0  0  0
  -25.9440  -30.8010   21.3940 C   0  0  0  0  0  2  0  0  0  0  0  0
  -26.0200  -29.4170   20.7540 C   0  0  0  0  0  0  0  0  0  0  0  0
  -27.2030  -28.6110   20.7460 C   0  0  0  0  0  3  0  0  0  0  0  0
  -26.0150  -26.8750   19.5440 C   0  0  0  0  0  3  0  0  0  0  0  0
  -24.8470  -27.6680   19.5460 C   0  0  0  0  0  3  0  0  0  0  0  0
  -23.6150  -29.8170   20.2060 C   0  0  0  0  0  2  0  0  0  0  0  0
  -24.6730  -31.0810   22.1250 N   0  0  0  0  0  0  0  0  0  0  0  0
  -23.5310  -32.1640   23.7660 O   0  0  0  0  0  0  0  0  0  0  0  0
  -22.7430  -29.4790   22.5500 C   0  0  0  0  0  0  0  0  0  0  0  0
  -21.4170  -29.2970   22.4270 N   0  0  0  0  0  0  0  0  0  0  0  0
  -23.4250  -28.8530   23.3660 O   0  0  0  0  0  0  0  0  0  0  0  0
  -20.9260  -29.8520   21.7400 H   0  0  0  0  0  0  0  0  0  0  0  0
  -18.0480  -28.0780   22.9240 C   0  0  0  0  0  0  0  0  0  0  0  0
  -20.6030  -28.3570   23.1990 C   0  0  0  0  0  3  0  0  0  0  0  0
  -20.7190  -26.9240   22.6300 C   0  0  0  0  0  2  0  0  0  0  0  0
  -19.6230  -26.5890   21.6150 C   0  0  0  0  0  2  0  0  0  0  0  0
  -18.2370  -26.7270   22.2540 C   0  0  0  0  0  2  0  0  0  0  0  0
  -19.1590  -28.8510   23.3540 C   0  0  0  0  0  0  0  0  0  0  0  0
  -18.9280  -30.1140   23.9400 C   0  0  0  0  0  3  0  0  0  0  0  0
  -17.6180  -30.6030   24.1040 C   0  0  0  0  0  3  0  0  0  0  0  0
  -16.5210  -29.8280   23.6880 C   0  0  0  0  0  3  0  0  0  0  0  0
  -16.7370  -28.5670   23.1020 C   0  0  0  0  0  3  0  0  0  0  0  0
  -25.8980  -32.5230   23.8430 C   0  0  0  0  0  3  0  0  0  0  0  0
  -26.4170  -31.7510   25.1170 C   0  0  1  0  0  0  0  0  0  0  0  0
  -25.3280  -31.5180   26.1920 C   0  0  0  0  0  1  0  0  0  0  0  0
  -26.9950  -30.3720   24.7240 C   0  0  0  0  0  1  0  0  0  0  0  0
  -27.5710  -32.5440   25.7750 C   0  0  0  0  0  1  0  0  0  0  0  0
  -25.5870  -33.9200   24.1780 N   0  0  0  0  0  0  0  0  0  0  0  0
  -25.9190  -34.9760   23.4240 C   0  0  0  0  0  0  0  0  0  0  0  0
  -26.5850  -34.8770   22.3890 O   0  0  0  0  0  0  0  0  0  0  0  0
  -24.9990  -34.0710   24.9840 H   0  0  0  0  0  0  0  0  0  0  0  0
  -24.1900  -36.7740   23.0860 C   0  0  0  0  0  1  0  0  0  0  0  0
  -25.4360  -36.3640   23.8900 C   0  0  0  0  0  3  0  0  0  0  0  0
  -27.5760  -37.2450   24.7120 C   0  0  0  0  0  1  0  0  0  0  0  0
  -26.4690  -37.4170   23.7760 N   0  0  0  0  0  0  0  0  0  0  0  0
  -26.0650  -38.3370   23.9290 H   0  0  0  0  0  0  0  0  0  0  0  0
  1  2  1  0
  3  4  2  0
  3  5  1  0
  4  6  1  0
  5  1  2  0
  6  7  1  0
  6  2  2  0
  9  8  1  0
  9 10  1  0
  9  4  1  0
 10 12  1  0
 11 10  1  0
 13 10  1  0
 13 14  2  0
 14 23  1  0
 15 23  1  0
 16 21  1  0
 17 18  1  0
 17 16  1  0
 19 18  1  0
 19 28  1  0
 19 20  1  0
 21 15  1  0
 21 20  1  0
 22 15  2  0
 23 24  1  0
 25 26  2  0
 26 45  1  0
 27 26  1  0
 27 30  1  0
 28 25  1  0
 28 29  1  0
 29 27  2  0
 30 31  1  0
 31 32  2  0
 33 36  1  0
 33 32  1  0
 34 33  2  0
 35 34  1  0
 35 30  2  0
 36 37  1  0
 37 38  1  0
 38 39  2  0
 40 39  1  0
 40 44  1  0
 41 40  2  0
 42 37  2  0
 42 41  1  0
 43 42  1  0
 45 46  1  0
 46 49  1  0
 46 48  1  0
 47 45  2  0
 50 51  1  0
 50 25  1  0
 52 50  1  0
 53 55  1  0
 53  5  1  0
 54 65  2  0
 55 60  1  0
 56 64  1  0
 56 66  1  0
 57 63  1  0
 57 59  1  0
 58 64  1  0
 59 58  1  0
 60 59  2  0
 61 62  1  0
 61 55  2  0
 62 57  2  0
 63 56  1  0
 64 54  1  0
 66 68  2  0
 67 66  1  0
 69 67  1  0
 70 79  2  0
 70 75  1  0
 71 67  1  0
 71 75  1  0
 72 71  1  0
 73 74  1  0
 73 72  1  0
 74 70  1  0
 75 76  2  0
 76 77  1  0
 78 77  2  0
 79 78  1  0
 80 54  1  0
 80 85  1  0
 80 81  1  0
 81 84  1  1
 81 82  1  0
 83 81  1  0
 85 88  1  0
 86 90  1  0
 86 85  1  0
 87 86  2  0
 90 89  1  0
 92 90  1  0
 92 93  1  0
 92 91  1  0
M  ISO  4   5 101  15 100  23 100  53 101
M  END
>  <TORSDO>  (92) 
F 20

>  <SCORE>  (92) 
-13.946

>  <name>  (92) 
92

>  <ligand_id>  (92) 
92

>  <original_smiles>  (92) 
[H]c1c([H])c([H])c2c(c1[H])C([H])([H])C([H])([H])C([H])([H])C2([H])N([H])C(=O)C1([H])N(C(=O)C([H])(N([H])C(=O)C([H])(N([H])C([H])([H])[H])C([H])([H])[H])C(C([H])([H])[H])(C([H])([H])[H])C([H])([H])[H])C([H])([H])c2c([H])c(Oc3c([H])c([H])c(F)c(C([H])(C([H])([H])[H])[N+]([H])([H])C([H])([H])C([H])([H])N([H])C(=O)N4C([H])([H])C([H])([H])C([H])([H])C([H])(n5nc(-c6c([H])c([H])c(Oc7c([H])c([H])c(F)c([H])c7F)c([H])c6[H])c(C(=O)N([H])[H])c5N([H])[H])C4([H])[H])c3[H])c([H])c([H])c2C1([H])[H]

>  <smiles>  (92) 
[H]c1c([H])c([H])c2c(c1[H])C([H])([H])C([H])([H])C([H])([H])C2([H])N([H])C(=O)C1([H])N(C(=O)C([H])(N([H])C(=O)C([H])(N([H])C([H])([H])[H])C([H])([H])[H])C(C([H])([H])[H])(C([H])([H])[H])C([H])([H])[H])C([H])([H])c2c([H])c(Oc3c([H])c([H])c(F)c(C([H])(C([H])([H])[H])[N+]([H])([H])C([H])([H])C([H])([H])N([H])C(=O)N4C([H])([H])C([H])([H])C([H])([H])C([H])(n5nc(-c6c([H])c([H])c(Oc7c([H])c([H])c(F)c([H])c7F)c([H])c6[H])c(C(=O)N([H])[H])c5N([H])[H])C4([H])[H])c3[H])c([H])c([H])c2C1([H])[H]

$$$$
93:0:0
     RDKit          3D

 90 98  0  0  1  0  0  0  0  0999 V2000
  -29.8070  -22.7090   18.1080 C   0  0  0  0  0  3  0  0  0  0  0  0
  -29.9830  -21.4910   18.8020 C   0  0  0  0  0  3  0  0  0  0  0  0
  -29.3010  -23.8620   18.7480 C   0  0  0  0  0  3  0  0  0  0  0  0
  -29.1370  -22.5730   20.8020 C   0  0  0  0  0  3  0  0  0  0  0  0
  -29.6480  -21.3720   20.1680 C   0  0  0  0  0  0  0  0  0  0  0  0
  -28.9570  -23.8370   20.1140 C   0  0  0  0  0  0  0  0  0  0  0  0
  -29.9450  -20.0520   20.9310 C   0  0  0  0  0  0  0  0  0  0  0  0
  -30.0000  -18.8350   20.2830 N   0  0  0  0  0  0  0  0  0  0  0  0
  -30.1600  -20.1180   22.1430 O   0  0  0  0  0  0  0  0  0  0  0  0
  -29.7530  -18.8640   19.3040 H   0  0  0  0  0  0  0  0  0  0  0  0
  -30.6440  -17.5380   20.7640 C   0  0  0  0  0  2  0  0  0  0  0  0
  -29.9390  -16.1220   20.4750 C   0  0  0  0  0  2  0  0  0  0  0  0
  -30.7950  -14.7760   20.3250 C   0  0  0  0  0  0  0  0  0  0  0  0
  -30.5960  -12.5290   19.2690 C   0  0  0  0  0  2  0  0  0  0  0  0
  -29.6610  -12.6750   18.0460 C   0  0  0  0  0  2  0  0  0  0  0  0
  -28.1860  -12.5140   18.4630 C   0  0  0  0  0  2  0  0  0  0  0  0
  -27.8200  -13.3700   19.7060 C   0  0  0  0  0  3  0  0  0  0  0  0
  -28.8720  -13.2120   20.8240 C   0  0  0  0  0  2  0  0  0  0  0  0
  -30.1850  -13.5470   20.2600 N   0  0  0  0  0  0  0  0  0  0  0  0
  -31.9890  -14.8790   20.0290 O   0  0  0  0  0  0  0  0  0  0  0  0
  -25.4190  -13.9680   20.4030 C   0  0  0  0  0  0  0  0  0  0  0  0
  -24.3500  -13.1950   20.7690 C   0  0  0  0  0  0  0  0  0  0  0  0
  -24.8170  -11.8450   20.7580 C   0  0  0  0  0  0  0  0  0  0  0  0
  -26.4680  -13.0880   20.1850 N   0  0  0  0  0  0  0  0  0  0  0  0
  -26.1100  -11.8080   20.4610 N   0  0  0  0  0  0  0  0  0  0  0  0
  -24.0890  -10.5840   20.9540 C   0  0  0  0  0  0  0  0  0  0  0  0
  -24.5050   -9.6310   21.9100 C   0  0  0  0  0  3  0  0  0  0  0  0
  -23.7770   -8.4350   22.0940 C   0  0  0  0  0  3  0  0  0  0  0  0
  -22.6190   -8.1840   21.3190 C   0  0  0  0  0  0  0  0  0  0  0  0
  -22.2220   -9.1250   20.3530 C   0  0  0  0  0  3  0  0  0  0  0  0
  -22.9510  -10.3120   20.1680 C   0  0  0  0  0  3  0  0  0  0  0  0
  -21.8650   -7.0380   21.4090 O   0  0  0  0  0  0  0  0  0  0  0  0
  -21.7860   -6.3180   22.5750 C   0  0  0  0  0  0  0  0  0  0  0  0
  -21.3070   -6.8910   23.7740 C   0  0  0  0  0  3  0  0  0  0  0  0
  -21.1770   -6.0960   24.9300 C   0  0  0  0  0  3  0  0  0  0  0  0
  -21.5160   -4.7300   24.8900 C   0  0  0  0  0  0  0  0  0  0  0  0
  -21.9880   -4.1580   23.6950 C   0  0  0  0  0  3  0  0  0  0  0  0
  -22.1200   -4.9500   22.5400 C   0  0  0  0  0  0  0  0  0  0  0  0
  -22.5540   -4.3880   21.3870 F   0  0  0  0  0  0  0  0  0  0  0  0
  -21.3830   -3.9640   25.9970 F   0  0  0  0  0  0  0  0  0  0  0  0
  -22.9500  -13.6740   21.0190 C   0  0  0  0  0  0  0  0  0  0  0  0
  -22.2110  -12.9900   21.8850 N   0  0  0  0  0  0  0  0  0  0  0  0
  -22.5160  -14.6930   20.4810 O   0  0  0  0  0  0  0  0  0  0  0  0
  -22.5710  -12.1690   22.3500 H   0  0  0  0  0  0  0  0  0  0  0  0
  -21.2700  -13.2950   22.0910 H   0  0  0  0  0  0  0  0  0  0  0  0
  -25.5810  -15.3370   20.2160 N   0  0  0  0  0  0  0  0  0  0  0  0
  -24.8100  -15.9870   20.3260 H   0  0  0  0  0  0  0  0  0  0  0  0
  -26.4330  -15.7830   19.9000 H   0  0  0  0  0  0  0  0  0  0  0  0
  -28.3220  -25.1180   20.7930 C   0  0  0  0  0  2  0  0  0  0  0  0
  -28.5330  -26.4880   20.2350 O   0  0  0  0  0  0  0  0  0  0  0  0
  -24.6790  -31.8530   23.2350 C   0  0  0  0  0  0  0  0  0  0  0  0
  -27.4170  -27.3450   20.2080 C   0  0  0  0  0  0  0  0  0  0  0  0
  -23.5250  -30.4330   21.5790 C   0  0  0  0  0  3  0  0  0  0  0  0
  -25.0240  -28.9150   20.1650 C   0  0  0  0  0  0  0  0  0  0  0  0
  -26.0590  -30.8020   21.4260 C   0  0  0  0  0  2  0  0  0  0  0  0
  -26.1750  -29.4240   20.7810 C   0  0  0  0  0  0  0  0  0  0  0  0
  -27.3780  -28.6500   20.7920 C   0  0  0  0  0  3  0  0  0  0  0  0
  -26.2480  -26.8960   19.5560 C   0  0  0  0  0  3  0  0  0  0  0  0
  -25.0640  -27.6580   19.5420 C   0  0  0  0  0  3  0  0  0  0  0  0
  -23.7670  -29.7630   20.2010 C   0  0  0  0  0  2  0  0  0  0  0  0
  -24.7720  -31.0480   22.1360 N   0  0  0  0  0  0  0  0  0  0  0  0
  -23.5850  -32.1060   23.7600 O   0  0  0  0  0  0  0  0  0  0  0  0
  -22.8720  -29.4030   22.5320 C   0  0  0  0  0  0  0  0  0  0  0  0
  -21.5520  -29.1920   22.3840 N   0  0  0  0  0  0  0  0  0  0  0  0
  -23.5530  -28.7960   23.3630 O   0  0  0  0  0  0  0  0  0  0  0  0
  -21.0590  -29.7350   21.6880 H   0  0  0  0  0  0  0  0  0  0  0  0
  -18.2020  -27.8990   22.8250 C   0  0  0  0  0  0  0  0  0  0  0  0
  -20.7460  -28.2350   23.1450 C   0  0  0  0  0  3  0  0  0  0  0  0
  -20.9010  -26.8030   22.5820 C   0  0  0  0  0  2  0  0  0  0  0  0
  -19.8300  -26.4440   21.5480 C   0  0  0  0  0  2  0  0  0  0  0  0
  -18.4320  -26.5510   22.1620 C   0  0  0  0  0  2  0  0  0  0  0  0
  -19.2890  -28.6970   23.2720 C   0  0  0  0  0  0  0  0  0  0  0  0
  -19.0190  -29.9560   23.8510 C   0  0  0  0  0  3  0  0  0  0  0  0
  -17.6960  -30.4170   23.9890 C   0  0  0  0  0  3  0  0  0  0  0  0
  -16.6240  -29.6170   23.5550 C   0  0  0  0  0  3  0  0  0  0  0  0
  -16.8790  -28.3610   22.9770 C   0  0  0  0  0  3  0  0  0  0  0  0
  -25.9420  -32.5110   23.8720 C   0  0  0  0  0  3  0  0  0  0  0  0
  -26.4510  -31.7570   25.1620 C   0  0  1  0  0  0  0  0  0  0  0  0
  -25.3460  -31.5100   26.2160 C   0  0  0  0  0  1  0  0  0  0  0  0
  -27.0610  -30.3850   24.7910 C   0  0  0  0  0  1  0  0  0  0  0  0
  -27.5760  -32.5750   25.8350 C   0  0  0  0  0  1  0  0  0  0  0  0
  -25.6040  -33.9050   24.1890 N   0  0  0  0  0  0  0  0  0  0  0  0
  -25.9320  -34.9610   23.4330 C   0  0  0  0  0  0  0  0  0  0  0  0
  -26.6210  -34.8640   22.4130 O   0  0  0  0  0  0  0  0  0  0  0  0
  -24.9900  -34.0530   24.9780 H   0  0  0  0  0  0  0  0  0  0  0  0
  -24.1900  -36.7320   23.0360 C   0  0  0  0  0  1  0  0  0  0  0  0
  -25.4170  -36.3450   23.8750 C   0  0  0  0  0  3  0  0  0  0  0  0
  -27.5170  -37.2640   24.7540 C   0  0  0  0  0  1  0  0  0  0  0  0
  -26.4380  -37.4110   23.7810 N   0  0  0  0  0  0  0  0  0  0  0  0
  -26.0160  -38.3270   23.9130 H   0  0  0  0  0  0  0  0  0  0  0  0
  1  3  2  0
  1  2  1  0
  2  5  2  0
  3  6  1  0
  5  4  1  0
  5  7  1  0
  6 49  1  0
  6  4  2  0
  7  9  2  0
  8 11  1  0
  8  7  1  0
 10  8  1  0
 12 11  1  0
 13 12  1  0
 14 19  1  0
 15 16  1  0
 15 14  1  0
 17 16  1  0
 17 24  1  0
 17 18  1  0
 19 13  1  0
 19 18  1  0
 20 13  2  0
 21 22  2  0
 22 41  1  0
 23 22  1  0
 23 26  1  0
 24 21  1  0
 24 25  1  0
 25 23  2  0
 26 27  1  0
 27 28  2  0
 29 32  1  0
 29 28  1  0
 30 29  2  0
 31 30  1  0
 31 26  2  0
 32 33  1  0
 33 34  1  0
 34 35  2  0
 36 35  1  0
 36 40  1  0
 37 36  2  0
 38 33  2  0
 38 37  1  0
 39 38  1  0
 41 42  1  0
 42 45  1  0
 42 44  1  0
 43 41  2  0
 46 47  1  0
 46 21  1  0
 48 46  1  0
 50 49  1  0
 51 62  2  0
 52 50  1  0
 52 57  1  0
 53 61  1  0
 53 63  1  0
 54 60  1  0
 54 56  1  0
 55 61  1  0
 56 57  2  0
 56 55  1  0
 58 52  2  0
 59 58  1  0
 59 54  2  0
 60 53  1  0
 61 51  1  0
 63 65  2  0
 64 63  1  0
 66 64  1  0
 67 76  2  0
 67 72  1  0
 68 64  1  0
 68 72  1  0
 69 68  1  0
 70 71  1  0
 70 69  1  0
 71 67  1  0
 72 73  2  0
 73 74  1  0
 75 74  2  0
 76 75  1  0
 77 51  1  0
 77 82  1  0
 77 78  1  0
 78 81  1  1
 78 79  1  0
 80 78  1  0
 82 85  1  0
 83 87  1  0
 83 82  1  0
 84 83  2  0
 87 86  1  0
 89 87  1  0
 89 90  1  0
 89 88  1  0
M  ISO  4  12 100  13 100  49 101  50 101
M  END
>  <TORSDO>  (93) 
F 20

>  <SCORE>  (93) 
-13.590

>  <name>  (93) 
93

>  <ligand_id>  (93) 
93

>  <original_smiles>  (93) 
[H]c1c([H])c(C(=O)N([H])C([H])([H])C([H])([H])C(=O)N2C([H])([H])C([H])([H])C([H])([H])C([H])(n3nc(-c4c([H])c([H])c(Oc5c([H])c([H])c(F)c([H])c5F)c([H])c4[H])c(C(=O)N([H])[H])c3N([H])[H])C2([H])[H])c([H])c(C([H])([H])Oc2c([H])c([H])c3c(c2[H])C([H])([H])N(C(=O)C([H])(N([H])C(=O)C([H])(N([H])C([H])([H])[H])C([H])([H])[H])C(C([H])([H])[H])(C([H])([H])[H])C([H])([H])[H])C([H])(C(=O)N([H])C2([H])c4c([H])c([H])c([H])c([H])c4C([H])([H])C([H])([H])C2([H])[H])C3([H])[H])c1[H]

>  <smiles>  (93) 
[H]c1c([H])c(C(=O)N([H])C([H])([H])C([H])([H])C(=O)N2C([H])([H])C([H])([H])C([H])([H])C([H])(n3nc(-c4c([H])c([H])c(Oc5c([H])c([H])c(F)c([H])c5F)c([H])c4[H])c(C(=O)N([H])[H])c3N([H])[H])C2([H])[H])c([H])c(C([H])([H])Oc2c([H])c([H])c3c(c2[H])C([H])([H])N(C(=O)C([H])(N([H])C(=O)C([H])(N([H])C([H])([H])[H])C([H])([H])[H])C(C([H])([H])[H])(C([H])([H])[H])C([H])([H])[H])C([H])(C(=O)N([H])C2([H])c4c([H])c([H])c([H])c([H])c4C([H])([H])C([H])([H])C2([H])[H])C3([H])[H])c1[H]

$$$$
94:0:0
     RDKit          3D

 89 97  0  0  1  0  0  0  0  0999 V2000
  -26.6070  -23.0330   21.5250 C   0  0  0  0  0  3  0  0  0  0  0  0
  -27.4550  -21.9550   21.1810 C   0  0  0  0  0  3  0  0  0  0  0  0
  -26.9010  -24.3820   21.2110 C   0  0  0  0  0  3  0  0  0  0  0  0
  -28.9290  -23.5980   20.1650 C   0  0  0  0  0  3  0  0  0  0  0  0
  -28.6730  -22.1550   20.4990 C   0  0  0  0  0  0  0  0  0  0  0  0
  -28.0580  -24.7720   20.4950 C   0  0  0  0  0  0  0  0  0  0  0  0
  -29.5910  -20.8690   20.1670 C   0  0  0  0  0  0  0  0  0  0  0  0
  -29.3390  -19.5050   20.5230 N   0  0  0  0  0  0  0  0  0  0  0  0
  -30.6250  -21.1040   19.5380 O   0  0  0  0  0  0  0  0  0  0  0  0
  -28.4840  -19.3680   21.0430 H   0  0  0  0  0  0  0  0  0  0  0  0
  -30.1700  -18.1630   20.2450 C   0  0  0  0  0  3  0  0  0  0  0  0
  -29.7540  -16.5640   20.6810 C   0  0  0  0  0  3  0  0  0  0  0  0
  -30.6030  -15.1460   20.3690 C   0  0  0  0  0  0  0  0  0  0  0  0
  -30.5370  -12.7890   19.3980 C   0  0  0  0  0  2  0  0  0  0  0  0
  -29.6160  -12.7680   18.1530 C   0  0  0  0  0  2  0  0  0  0  0  0
  -28.1480  -12.5390   18.5620 C   0  0  0  0  0  2  0  0  0  0  0  0
  -27.7270  -13.4340   19.7560 C   0  0  0  0  0  3  0  0  0  0  0  0
  -28.7690  -13.4310   20.8920 C   0  0  0  0  0  2  0  0  0  0  0  0
  -30.0500  -13.8600   20.3170 N   0  0  0  0  0  0  0  0  0  0  0  0
  -31.7960  -15.2230   20.0570 O   0  0  0  0  0  0  0  0  0  0  0  0
  -25.3320  -13.9860   20.4630 C   0  0  0  0  0  0  0  0  0  0  0  0
  -24.2710  -13.2000   20.8220 C   0  0  0  0  0  0  0  0  0  0  0  0
  -24.7530  -11.8540   20.8060 C   0  0  0  0  0  0  0  0  0  0  0  0
  -26.3880  -13.1190   20.2390 N   0  0  0  0  0  0  0  0  0  0  0  0
  -26.0480  -11.8330   20.5120 N   0  0  0  0  0  0  0  0  0  0  0  0
  -24.0370  -10.5860   20.9930 C   0  0  0  0  0  0  0  0  0  0  0  0
  -24.4540   -9.6370   21.9520 C   0  0  0  0  0  3  0  0  0  0  0  0
  -23.7370   -8.4340   22.1290 C   0  0  0  0  0  3  0  0  0  0  0  0
  -22.5900   -8.1700   21.3450 C   0  0  0  0  0  0  0  0  0  0  0  0
  -22.1920   -9.1070   20.3740 C   0  0  0  0  0  3  0  0  0  0  0  0
  -22.9090  -10.3020   20.1970 C   0  0  0  0  0  3  0  0  0  0  0  0
  -21.8480   -7.0170   21.4260 O   0  0  0  0  0  0  0  0  0  0  0  0
  -21.7560   -6.3020   22.5940 C   0  0  0  0  0  0  0  0  0  0  0  0
  -21.2610   -6.8790   23.7830 C   0  0  0  0  0  3  0  0  0  0  0  0
  -21.1170   -6.0890   24.9410 C   0  0  0  0  0  3  0  0  0  0  0  0
  -21.4590   -4.7240   24.9110 C   0  0  0  0  0  0  0  0  0  0  0  0
  -21.9470   -4.1460   23.7250 C   0  0  0  0  0  3  0  0  0  0  0  0
  -22.0910   -4.9330   22.5690 C   0  0  0  0  0  0  0  0  0  0  0  0
  -22.5420   -4.3670   21.4230 F   0  0  0  0  0  0  0  0  0  0  0  0
  -21.3140   -3.9620   26.0200 F   0  0  0  0  0  0  0  0  0  0  0  0
  -22.8660  -13.6630   21.0710 C   0  0  0  0  0  0  0  0  0  0  0  0
  -22.1350  -12.9650   21.9330 N   0  0  0  0  0  0  0  0  0  0  0  0
  -22.4240  -14.6780   20.5350 O   0  0  0  0  0  0  0  0  0  0  0  0
  -22.5060  -12.1440   22.3870 H   0  0  0  0  0  0  0  0  0  0  0  0
  -21.1920  -13.2570   22.1430 H   0  0  0  0  0  0  0  0  0  0  0  0
  -25.4800  -15.3580   20.2850 N   0  0  0  0  0  0  0  0  0  0  0  0
  -24.7050  -16.0020   20.3920 H   0  0  0  0  0  0  0  0  0  0  0  0
  -26.3310  -15.8100   19.9740 H   0  0  0  0  0  0  0  0  0  0  0  0
  -28.2600  -26.2220   20.2400 O   0  0  0  0  0  0  0  0  0  0  0  0
  -24.6330  -31.9490   23.2620 C   0  0  0  0  0  0  0  0  0  0  0  0
  -27.2140  -27.2290   20.2190 C   0  0  0  0  0  0  0  0  0  0  0  0
  -23.4330  -30.5510   21.6250 C   0  0  0  0  0  3  0  0  0  0  0  0
  -24.8850  -28.9820   20.1900 C   0  0  0  0  0  0  0  0  0  0  0  0
  -25.9880  -30.8170   21.4590 C   0  0  0  0  0  2  0  0  0  0  0  0
  -26.0630  -29.4230   20.8070 C   0  0  0  0  0  0  0  0  0  0  0  0
  -27.2270  -28.5600   20.8100 C   0  0  0  0  0  3  0  0  0  0  0  0
  -26.0180  -26.9080   19.5420 C   0  0  0  0  0  3  0  0  0  0  0  0
  -24.8760  -27.7380   19.5430 C   0  0  0  0  0  3  0  0  0  0  0  0
  -23.6550  -29.8780   20.2440 C   0  0  0  0  0  2  0  0  0  0  0  0
  -24.7050  -31.1290   22.1690 N   0  0  0  0  0  0  0  0  0  0  0  0
  -23.5470  -32.2300   23.7930 O   0  0  0  0  0  0  0  0  0  0  0  0
  -22.7620  -29.5400   22.5880 C   0  0  0  0  0  0  0  0  0  0  0  0
  -21.4350  -29.3580   22.4610 N   0  0  0  0  0  0  0  0  0  0  0  0
  -23.4370  -28.9220   23.4150 O   0  0  0  0  0  0  0  0  0  0  0  0
  -20.9450  -29.9090   21.7710 H   0  0  0  0  0  0  0  0  0  0  0  0
  -18.0660  -28.1210   22.9620 C   0  0  0  0  0  0  0  0  0  0  0  0
  -20.6220  -28.4160   23.2360 C   0  0  0  0  0  3  0  0  0  0  0  0
  -20.7410  -26.9820   22.6700 C   0  0  0  0  0  2  0  0  0  0  0  0
  -19.6460  -26.6410   21.6540 C   0  0  0  0  0  2  0  0  0  0  0  0
  -18.2610  -26.7720   22.2930 C   0  0  0  0  0  2  0  0  0  0  0  0
  -19.1750  -28.9010   23.3910 C   0  0  0  0  0  0  0  0  0  0  0  0
  -18.9370  -30.1620   23.9800 C   0  0  0  0  0  3  0  0  0  0  0  0
  -17.6260  -30.6460   24.1420 C   0  0  0  0  0  3  0  0  0  0  0  0
  -16.5320  -29.8650   23.7290 C   0  0  0  0  0  3  0  0  0  0  0  0
  -16.7540  -28.6050   23.1440 C   0  0  0  0  0  3  0  0  0  0  0  0
  -25.9100  -32.5920   23.8850 C   0  0  0  0  0  3  0  0  0  0  0  0
  -26.4220  -31.8320   25.1710 C   0  0  1  0  0  0  0  0  0  0  0  0
  -25.3250  -31.6040   26.2370 C   0  0  0  0  0  1  0  0  0  0  0  0
  -27.0080  -30.4510   24.7990 C   0  0  0  0  0  1  0  0  0  0  0  0
  -27.5690  -32.6350   25.8280 C   0  0  0  0  0  1  0  0  0  0  0  0
  -25.5940  -33.9920   24.2100 N   0  0  0  0  0  0  0  0  0  0  0  0
  -25.9150  -35.0470   23.4470 C   0  0  0  0  0  0  0  0  0  0  0  0
  -26.5730  -34.9430   22.4090 O   0  0  0  0  0  0  0  0  0  0  0  0
  -25.0050  -34.1450   25.0150 H   0  0  0  0  0  0  0  0  0  0  0  0
  -24.1730  -36.8360   23.1190 C   0  0  0  0  0  1  0  0  0  0  0  0
  -25.4310  -36.4370   23.9080 C   0  0  0  0  0  3  0  0  0  0  0  0
  -27.5740  -37.3370   24.7000 C   0  0  0  0  0  1  0  0  0  0  0  0
  -26.4570  -37.4930   23.7710 N   0  0  0  0  0  0  0  0  0  0  0  0
  -26.0490  -38.4130   23.9170 H   0  0  0  0  0  0  0  0  0  0  0  0
  2  1  2  0
  3  1  1  0
  4  6  1  0
  4  5  2  0
  5  2  1  0
  6  3  2  0
  7  5  1  0
  7  8  1  0
  8 10  1  0
  9  7  2  0
 11  8  1  0
 11 12  2  0
 13 12  1  0
 14 19  1  0
 15 16  1  0
 15 14  1  0
 17 16  1  0
 17 24  1  0
 17 18  1  0
 19 13  1  0
 19 18  1  0
 20 13  2  0
 21 22  2  0
 22 41  1  0
 23 22  1  0
 23 26  1  0
 24 21  1  0
 24 25  1  0
 25 23  2  0
 26 27  1  0
 27 28  2  0
 29 32  1  0
 29 28  1  0
 30 29  2  0
 31 30  1  0
 31 26  2  0
 32 33  1  0
 33 34  1  0
 34 35  2  0
 36 35  1  0
 36 40  1  0
 37 36  2  0
 38 33  2  0
 38 37  1  0
 39 38  1  0
 41 42  1  0
 42 45  1  0
 42 44  1  0
 43 41  2  0
 46 47  1  0
 46 21  1  0
 48 46  1  0
 49  6  1  0
 50 61  2  0
 51 49  1  0
 51 56  1  0
 52 60  1  0
 52 62  1  0
 53 59  1  0
 53 55  1  0
 54 60  1  0
 55 56  2  0
 55 54  1  0
 57 58  1  0
 57 51  2  0
 58 53  2  0
 59 52  1  0
 60 50  1  0
 62 64  2  0
 63 62  1  0
 65 63  1  0
 66 75  2  0
 66 71  1  0
 67 63  1  0
 67 71  1  0
 68 67  1  0
 69 70  1  0
 69 68  1  0
 70 66  1  0
 71 72  2  0
 72 73  1  0
 74 73  2  0
 75 74  1  0
 76 50  1  0
 76 81  1  0
 76 77  1  0
 77 80  1  1
 77 78  1  0
 79 77  1  0
 81 84  1  0
 82 86  1  0
 82 81  1  0
 83 82  2  0
 86 85  1  0
 88 86  1  0
 88 89  1  0
 88 87  1  0
M  ISO  4   6 101  12 100  13 100  49 101
M  END
>  <TORSDO>  (94) 
F 19

>  <SCORE>  (94) 
-14.917

>  <name>  (94) 
94

>  <ligand_id>  (94) 
94

>  <original_smiles>  (94) 
[H]c1c([H])c(Oc2c([H])c([H])c3c(c2[H])C([H])([H])N(C(=O)C([H])(N([H])C(=O)C([H])(N([H])C([H])([H])[H])C([H])([H])[H])C(C([H])([H])[H])(C([H])([H])[H])C([H])([H])[H])C([H])(C(=O)N([H])C2([H])c4c([H])c([H])c([H])c([H])c4C([H])([H])C([H])([H])C2([H])[H])C3([H])[H])c([H])c(C(=O)N([H])C([H])([H])C([H])([H])C(=O)N2C([H])([H])C([H])([H])C([H])([H])C([H])(n3nc(-c4c([H])c([H])c(Oc5c([H])c([H])c(F)c([H])c5F)c([H])c4[H])c(C(=O)N([H])[H])c3N([H])[H])C2([H])[H])c1[H]

>  <smiles>  (94) 
[H]c1c([H])c(Oc2c([H])c([H])c3c(c2[H])C([H])([H])N(C(=O)C([H])(N([H])C(=O)C([H])(N([H])C([H])([H])[H])C([H])([H])[H])C(C([H])([H])[H])(C([H])([H])[H])C([H])([H])[H])C([H])(C(=O)N([H])C2([H])c4c([H])c([H])c([H])c([H])c4C([H])([H])C([H])([H])C2([H])[H])C3([H])[H])c([H])c(C(=O)N([H])C([H])([H])C([H])([H])C(=O)N2C([H])([H])C([H])([H])C([H])([H])C([H])(n3nc(-c4c([H])c([H])c(Oc5c([H])c([H])c(F)c([H])c5F)c([H])c4[H])c(C(=O)N([H])[H])c3N([H])[H])C2([H])[H])c1[H]

$$$$
95:0:0
     RDKit          3D

 92101  0  0  1  0  0  0  0  0999 V2000
  -28.5870  -22.0510   19.0430 C   0  0  0  0  0  3  0  0  0  0  0  0
  -29.4070  -22.2740   21.1770 C   0  0  0  0  0  3  0  0  0  0  0  0
  -28.3160  -23.5150   18.9970 C   0  0  0  0  0  3  0  0  0  0  0  0
  -29.1350  -23.7340   21.1300 C   0  0  0  0  0  3  0  0  0  0  0  0
  -29.1720  -21.2820   20.1370 C   0  0  0  0  0  0  0  0  0  0  0  0
  -28.5420  -24.5050   20.0460 C   0  0  0  0  0  0  0  0  0  0  0  0
  -29.9900  -16.8130   20.2050 C   0  0  0  0  0  3  0  0  0  0  0  0
  -29.7870  -18.2680   19.3620 C   0  0  0  0  0  3  0  0  0  0  0  0
  -30.5400  -17.6540   21.4130 C   0  0  0  0  0  3  0  0  0  0  0  0
  -29.2540  -19.5520   20.3400 C   0  0  2  0  0  0  0  0  0  0  0  0
  -30.2160  -17.0310   22.7770 C   0  0  0  0  0  1  0  0  0  0  0  0
  -27.8270  -19.2100   20.8150 C   0  0  0  0  0  1  0  0  0  0  0  0
  -30.0910  -19.0800   21.4310 O   0  0  0  0  0  0  0  0  0  0  0  0
  -30.7830  -15.3070   19.8050 C   0  0  0  0  0  0  0  0  0  0  0  0
  -30.6430  -12.9310   18.7840 C   0  0  0  0  0  2  0  0  0  0  0  0
  -29.6010  -12.8690   17.6360 C   0  0  0  0  0  2  0  0  0  0  0  0
  -28.1890  -12.6040   18.1900 C   0  0  0  0  0  2  0  0  0  0  0  0
  -27.8790  -13.4850   19.4260 C   0  0  0  0  0  3  0  0  0  0  0  0
  -29.0310  -13.5020   20.4500 C   0  0  0  0  0  2  0  0  0  0  0  0
  -30.2260  -14.0020   19.7550 N   0  0  0  0  0  0  0  0  0  0  0  0
  -31.9580  -15.3300   19.4090 O   0  0  0  0  0  0  0  0  0  0  0  0
  -25.6130  -14.0280   20.4660 C   0  0  0  0  0  0  0  0  0  0  0  0
  -24.5720  -13.2440   20.8780 C   0  0  0  0  0  0  0  0  0  0  0  0
  -24.9930  -11.8920   20.6860 C   0  0  0  0  0  0  0  0  0  0  0  0
  -26.5990  -13.1560   20.0410 N   0  0  0  0  0  0  0  0  0  0  0  0
  -26.2460  -11.8590   20.2390 N   0  0  0  0  0  0  0  0  0  0  0  0
  -24.2530  -10.6330   20.8450 C   0  0  0  0  0  0  0  0  0  0  0  0
  -24.6810   -9.6310   21.7440 C   0  0  0  0  0  3  0  0  0  0  0  0
  -23.9390   -8.4400   21.8930 C   0  0  0  0  0  3  0  0  0  0  0  0
  -22.7540   -8.2410   21.1440 C   0  0  0  0  0  0  0  0  0  0  0  0
  -22.3460   -9.2320   20.2340 C   0  0  0  0  0  3  0  0  0  0  0  0
  -23.0890  -10.4140   20.0820 C   0  0  0  0  0  3  0  0  0  0  0  0
  -21.9850   -7.1040   21.2040 O   0  0  0  0  0  0  0  0  0  0  0  0
  -21.8450   -6.3910   22.3680 C   0  0  0  0  0  0  0  0  0  0  0  0
  -21.3430   -6.9810   23.5480 C   0  0  0  0  0  3  0  0  0  0  0  0
  -21.1490   -6.1950   24.7010 C   0  0  0  0  0  3  0  0  0  0  0  0
  -21.4470   -4.8200   24.6740 C   0  0  0  0  0  0  0  0  0  0  0  0
  -21.9420   -4.2290   23.4980 C   0  0  0  0  0  3  0  0  0  0  0  0
  -22.1360   -5.0130   22.3470 C   0  0  0  0  0  0  0  0  0  0  0  0
  -22.5930   -4.4340   21.2110 F   0  0  0  0  0  0  0  0  0  0  0  0
  -21.2550   -4.0620   25.7790 F   0  0  0  0  0  0  0  0  0  0  0  0
  -23.2230  -13.7250   21.3280 C   0  0  0  0  0  0  0  0  0  0  0  0
  -22.5800  -12.9910   22.2290 N   0  0  0  0  0  0  0  0  0  0  0  0
  -22.7540  -14.7840   20.9150 O   0  0  0  0  0  0  0  0  0  0  0  0
  -22.9760  -12.1330   22.5830 H   0  0  0  0  0  0  0  0  0  0  0  0
  -21.6790  -13.2930   22.5720 H   0  0  0  0  0  0  0  0  0  0  0  0
  -25.7960  -15.4050   20.3890 N   0  0  0  0  0  0  0  0  0  0  0  0
  -25.0590  -16.0590   20.6310 H   0  0  0  0  0  0  0  0  0  0  0  0
  -26.6070  -15.8520   19.9850 H   0  0  0  0  0  0  0  0  0  0  0  0
  -28.8630  -18.0790   18.3000 O   0  0  0  0  0  0  0  0  0  0  0  0
  -27.9890  -18.0890   18.6750 H   0  0  0  0  0  0  0  0  0  0  0  0
  -28.4730  -26.0280   19.9610 O   0  0  0  0  0  0  0  0  0  0  0  0
  -24.6730  -31.7690   22.9740 C   0  0  0  0  0  0  0  0  0  0  0  0
  -27.3740  -27.0150   19.9500 C   0  0  0  0  0  0  0  0  0  0  0  0
  -23.5190  -30.3490   21.3240 C   0  0  0  0  0  3  0  0  0  0  0  0
  -25.0140  -28.7900   19.9020 C   0  0  0  0  0  0  0  0  0  0  0  0
  -26.0740  -30.6420   21.1830 C   0  0  0  0  0  2  0  0  0  0  0  0
  -26.1830  -29.2400   20.5280 C   0  0  0  0  0  0  0  0  0  0  0  0
  -27.3560  -28.3700   20.5290 C   0  0  0  0  0  3  0  0  0  0  0  0
  -26.1730  -26.6990   19.2790 C   0  0  0  0  0  3  0  0  0  0  0  0
  -25.0290  -27.5390   19.2600 C   0  0  0  0  0  3  0  0  0  0  0  0
  -23.7690  -29.6740   19.9460 C   0  0  0  0  0  2  0  0  0  0  0  0
  -24.7750  -30.9470   21.8810 N   0  0  0  0  0  0  0  0  0  0  0  0
  -23.5750  -32.0260   23.4960 O   0  0  0  0  0  0  0  0  0  0  0  0
  -22.8530  -29.3290   22.2830 C   0  0  0  0  0  0  0  0  0  0  0  0
  -21.5200  -29.1700   22.1920 N   0  0  0  0  0  0  0  0  0  0  0  0
  -23.5400  -28.6820   23.0770 O   0  0  0  0  0  0  0  0  0  0  0  0
  -21.0190  -29.7430   21.5280 H   0  0  0  0  0  0  0  0  0  0  0  0
  -18.1460  -27.9810   22.7850 C   0  0  0  0  0  0  0  0  0  0  0  0
  -20.7160  -28.2150   22.9610 C   0  0  0  0  0  3  0  0  0  0  0  0
  -20.7810  -26.8020   22.3360 C   0  0  0  0  0  2  0  0  0  0  0  0
  -19.6390  -26.5250   21.3540 C   0  0  0  0  0  2  0  0  0  0  0  0
  -18.2840  -26.6570   22.0540 C   0  0  0  0  0  2  0  0  0  0  0  0
  -19.2860  -28.7200   23.1970 C   0  0  0  0  0  0  0  0  0  0  0  0
  -19.1010  -29.9610   23.8470 C   0  0  0  0  0  3  0  0  0  0  0  0
  -17.8070  -30.4630   24.0850 C   0  0  0  0  0  3  0  0  0  0  0  0
  -16.6810  -29.7210   23.6860 C   0  0  0  0  0  3  0  0  0  0  0  0
  -16.8520  -28.4820   23.0430 C   0  0  0  0  0  3  0  0  0  0  0  0
  -25.9260  -32.4400   23.6140 C   0  0  0  0  0  3  0  0  0  0  0  0
  -25.5520  -33.8070   24.0150 N   0  0  0  0  0  0  0  0  0  0  0  0
  -25.8040  -34.9130   23.3010 C   0  0  0  0  0  0  0  0  0  0  0  0
  -26.4390  -34.8910   22.2430 O   0  0  0  0  0  0  0  0  0  0  0  0
  -24.9790  -33.8920   24.8410 H   0  0  0  0  0  0  0  0  0  0  0  0
  -23.9720  -36.6300   23.1110 C   0  0  0  0  0  1  0  0  0  0  0  0
  -25.2700  -36.2540   23.8440 C   0  0  0  0  0  3  0  0  0  0  0  0
  -27.3910  -37.2200   24.6170 C   0  0  0  0  0  1  0  0  0  0  0  0
  -26.2400  -37.3660   23.7310 N   0  0  0  0  0  0  0  0  0  0  0  0
  -25.7940  -38.2560   23.9340 H   0  0  0  0  0  0  0  0  0  0  0  0
  -26.4890  -31.6450   24.8560 C   0  0  1  0  0  0  0  0  0  0  0  0
  -25.4200  -31.3210   25.9270 C   0  0  0  0  0  1  0  0  0  0  0  0
  -27.1260  -30.3070   24.4140 C   0  0  0  0  0  1  0  0  0  0  0  0
  -27.6120  -32.4620   25.5360 C   0  0  0  0  0  1  0  0  0  0  0  0
  1  5  1  0
  3  1  2  0
  3  6  1  0
  4  2  1  0
  5 10  1  0
  5  2  2  0
  6  4  2  0
  7 14  1  0
  7  9  1  0
  8 50  1  0
  8  7  1  0
  8 10  1  0
  9 13  1  0
  9 11  1  0
 10 12  1  1
 10 13  1  0
 15 20  1  0
 16 17  1  0
 16 15  1  0
 18 17  1  0
 18 25  1  0
 18 19  1  0
 20 14  1  0
 20 19  1  0
 21 14  2  0
 22 23  2  0
 23 42  1  0
 24 27  1  0
 24 23  1  0
 25 26  1  0
 25 22  1  0
 26 24  2  0
 27 28  1  0
 28 29  2  0
 30 33  1  0
 30 29  1  0
 31 30  2  0
 32 31  1  0
 32 27  2  0
 33 34  1  0
 34 35  1  0
 35 36  2  0
 37 36  1  0
 37 41  1  0
 38 37  2  0
 39 34  2  0
 39 38  1  0
 40 39  1  0
 42 43  1  0
 43 46  1  0
 43 45  1  0
 44 42  2  0
 47 22  1  0
 47 48  1  0
 49 47  1  0
 50 51  1  0
 52  6  1  0
 53 64  2  0
 54 52  1  0
 54 59  1  0
 55 63  1  0
 55 65  1  0
 56 62  1  0
 56 58  1  0
 57 63  1  0
 58 59  2  0
 58 57  1  0
 60 54  2  0
 61 60  1  0
 61 56  2  0
 62 55  1  0
 63 53  1  0
 65 67  2  0
 66 65  1  0
 68 66  1  0
 69 78  2  0
 69 74  1  0
 70 66  1  0
 70 74  1  0
 71 70  1  0
 72 73  1  0
 72 71  1  0
 73 69  1  0
 74 75  2  0
 75 76  1  0
 77 76  2  0
 78 77  1  0
 79 53  1  0
 79 80  1  0
 79 89  1  0
 80 83  1  0
 81 85  1  0
 81 80  1  0
 82 81  2  0
 85 84  1  0
 87 85  1  0
 87 88  1  0
 87 86  1  0
 89 92  1  1
 89 90  1  0
 91 89  1  0
M  ISO  4   6 101   7 100  14 100  52 101
M  END
>  <TORSDO>  (95) 
F 18

>  <SCORE>  (95) 
-14.071

>  <name>  (95) 
95

>  <ligand_id>  (95) 
95

>  <original_smiles>  (95) 
[H]OC1([H])C([H])(C(=O)N2C([H])([H])C([H])([H])C([H])([H])C([H])(n3nc(-c4c([H])c([H])c(Oc5c([H])c([H])c(F)c([H])c5F)c([H])c4[H])c(C(=O)N([H])[H])c3N([H])[H])C2([H])[H])C([H])(C([H])([H])[H])OC1(c1c([H])c([H])c(Oc2c([H])c([H])c3c(c2[H])C([H])([H])N(C(=O)C([H])(N([H])C(=O)C([H])(N([H])C([H])([H])[H])C([H])([H])[H])C(C([H])([H])[H])(C([H])([H])[H])C([H])([H])[H])C([H])(C(=O)N([H])C2([H])c4c([H])c([H])c([H])c([H])c4C([H])([H])C([H])([H])C2([H])[H])C3([H])[H])c([H])c1[H])C([H])([H])[H]

>  <smiles>  (95) 
[H]OC1([H])C([H])(C(=O)N2C([H])([H])C([H])([H])C([H])([H])C([H])(n3nc(-c4c([H])c([H])c(Oc5c([H])c([H])c(F)c([H])c5F)c([H])c4[H])c(C(=O)N([H])[H])c3N([H])[H])C2([H])[H])C([H])(C([H])([H])[H])OC1(c1c([H])c([H])c(Oc2c([H])c([H])c3c(c2[H])C([H])([H])N(C(=O)C([H])(N([H])C(=O)C([H])(N([H])C([H])([H])[H])C([H])([H])[H])C(C([H])([H])[H])(C([H])([H])[H])C([H])([H])[H])C([H])(C(=O)N([H])C2([H])c4c([H])c([H])c([H])c([H])c4C([H])([H])C([H])([H])C2([H])[H])C3([H])[H])c([H])c1[H])C([H])([H])[H]

$$$$
96:0:0
     RDKit          3D

 90 98  0  0  1  0  0  0  0  0999 V2000
  -28.8880  -23.6250   16.7850 C   0  0  0  0  0  3  0  0  0  0  0  0
  -28.7810  -25.0090   16.8140 C   0  0  0  0  0  3  0  0  0  0  0  0
  -28.8520  -22.9030   17.9830 C   0  0  0  0  0  3  0  0  0  0  0  0
  -28.5920  -25.6540   18.0380 C   0  0  0  0  0  3  0  0  0  0  0  0
  -28.7100  -23.4700   19.2860 C   0  0  0  0  0  0  0  0  0  0  0  0
  -28.4830  -25.0030   19.2990 C   0  0  0  0  0  0  0  0  0  0  0  0
  -28.7920  -22.2850   20.3790 C   0  0  0  0  0  0  0  0  0  0  0  0
  -29.2250  -20.9460   20.0440 N   0  0  0  0  0  0  0  0  0  0  0  0
  -28.4380  -22.5330   21.5320 O   0  0  0  0  0  0  0  0  0  0  0  0
  -29.5500  -20.8960   19.0890 H   0  0  0  0  0  0  0  0  0  0  0  0
  -29.2120  -19.5120   20.7480 C   0  0  0  0  0  3  0  0  0  0  0  0
  -29.9200  -18.0560   20.1740 C   0  0  0  0  0  3  0  0  0  0  0  0
  -29.6890  -16.4720   20.7920 C   0  0  0  0  0  2  0  0  0  0  0  0
  -30.4900  -15.0380   20.4170 C   0  0  0  0  0  0  0  0  0  0  0  0
  -30.4090  -12.6600   19.4930 C   0  0  0  0  0  2  0  0  0  0  0  0
  -29.4940  -12.6110   18.2440 C   0  0  0  0  0  2  0  0  0  0  0  0
  -28.0220  -12.4040   18.6500 C   0  0  0  0  0  2  0  0  0  0  0  0
  -27.6010  -13.3300   19.8190 C   0  0  0  0  0  3  0  0  0  0  0  0
  -28.6380  -13.3440   20.9610 C   0  0  0  0  0  2  0  0  0  0  0  0
  -29.9240  -13.7570   20.3830 N   0  0  0  0  0  0  0  0  0  0  0  0
  -31.6780  -15.1000   20.0770 O   0  0  0  0  0  0  0  0  0  0  0  0
  -25.2110  -13.9190   20.5160 C   0  0  0  0  0  0  0  0  0  0  0  0
  -24.1380  -13.1510   20.8740 C   0  0  0  0  0  0  0  0  0  0  0  0
  -24.5980  -11.7990   20.8630 C   0  0  0  0  0  0  0  0  0  0  0  0
  -26.2540  -13.0370   20.2990 N   0  0  0  0  0  0  0  0  0  0  0  0
  -25.8950  -11.7550   20.5740 N   0  0  0  0  0  0  0  0  0  0  0  0
  -23.8640  -10.5410   21.0530 C   0  0  0  0  0  0  0  0  0  0  0  0
  -24.2860   -9.5720   21.9910 C   0  0  0  0  0  3  0  0  0  0  0  0
  -23.5500   -8.3800   22.1700 C   0  0  0  0  0  3  0  0  0  0  0  0
  -22.3790   -8.1470   21.4100 C   0  0  0  0  0  0  0  0  0  0  0  0
  -21.9760   -9.1050   20.4620 C   0  0  0  0  0  3  0  0  0  0  0  0
  -22.7120  -10.2880   20.2820 C   0  0  0  0  0  3  0  0  0  0  0  0
  -21.6170   -7.0080   21.4980 O   0  0  0  0  0  0  0  0  0  0  0  0
  -21.5670   -6.2600   22.6460 C   0  0  0  0  0  0  0  0  0  0  0  0
  -21.1690   -6.8160   23.8820 C   0  0  0  0  0  3  0  0  0  0  0  0
  -21.0660   -5.9960   25.0230 C   0  0  0  0  0  3  0  0  0  0  0  0
  -21.3530   -4.6210   24.9310 C   0  0  0  0  0  0  0  0  0  0  0  0
  -21.7460   -4.0640   23.7000 C   0  0  0  0  0  3  0  0  0  0  0  0
  -21.8490   -4.8810   22.5620 C   0  0  0  0  0  0  0  0  0  0  0  0
  -22.2070   -4.3360   21.3740 F   0  0  0  0  0  0  0  0  0  0  0  0
  -21.2470   -3.8310   26.0250 F   0  0  0  0  0  0  0  0  0  0  0  0
  -22.7380  -13.6350   21.1170 C   0  0  0  0  0  0  0  0  0  0  0  0
  -21.9940  -12.9510   21.9790 N   0  0  0  0  0  0  0  0  0  0  0  0
  -22.3130  -14.6560   20.5780 O   0  0  0  0  0  0  0  0  0  0  0  0
  -22.3500  -12.1260   22.4370 H   0  0  0  0  0  0  0  0  0  0  0  0
  -21.0530  -13.2570   22.1840 H   0  0  0  0  0  0  0  0  0  0  0  0
  -25.3830  -15.2880   20.3330 N   0  0  0  0  0  0  0  0  0  0  0  0
  -24.6210  -15.9490   20.4420 H   0  0  0  0  0  0  0  0  0  0  0  0
  -26.2450  -15.7250   20.0290 H   0  0  0  0  0  0  0  0  0  0  0  0
  -28.2510  -26.0910   20.2600 O   0  0  0  0  0  0  0  0  0  0  0  0
  -24.6660  -31.8790   23.1900 C   0  0  0  0  0  0  0  0  0  0  0  0
  -27.2330  -27.1310   20.1530 C   0  0  0  0  0  0  0  0  0  0  0  0
  -23.4580  -30.4720   21.5670 C   0  0  0  0  0  3  0  0  0  0  0  0
  -24.9010  -28.8930   20.1340 C   0  0  0  0  0  0  0  0  0  0  0  0
  -26.0120  -30.7340   21.3860 C   0  0  0  0  0  2  0  0  0  0  0  0
  -26.0860  -29.3360   20.7370 C   0  0  0  0  0  0  0  0  0  0  0  0
  -27.2480  -28.4690   20.7350 C   0  0  0  0  0  3  0  0  0  0  0  0
  -26.0150  -26.7960   19.5200 C   0  0  0  0  0  3  0  0  0  0  0  0
  -24.8800  -27.6370   19.5100 C   0  0  0  0  0  3  0  0  0  0  0  0
  -23.6720  -29.7900   20.1900 C   0  0  0  0  0  2  0  0  0  0  0  0
  -24.7340  -31.0510   22.1020 N   0  0  0  0  0  0  0  0  0  0  0  0
  -23.5820  -32.1650   23.7230 O   0  0  0  0  0  0  0  0  0  0  0  0
  -22.7850  -29.4700   22.5400 C   0  0  0  0  0  0  0  0  0  0  0  0
  -21.4570  -29.2970   22.4240 N   0  0  0  0  0  0  0  0  0  0  0  0
  -23.4630  -28.8510   23.3650 O   0  0  0  0  0  0  0  0  0  0  0  0
  -20.9650  -29.8470   21.7340 H   0  0  0  0  0  0  0  0  0  0  0  0
  -18.0840  -28.0770   22.9440 C   0  0  0  0  0  0  0  0  0  0  0  0
  -20.6420  -28.3630   23.2070 C   0  0  0  0  0  3  0  0  0  0  0  0
  -20.7540  -26.9250   22.6480 C   0  0  0  0  0  2  0  0  0  0  0  0
  -19.6530  -26.5820   21.6380 C   0  0  0  0  0  2  0  0  0  0  0  0
  -18.2720  -26.7230   22.2810 C   0  0  0  0  0  2  0  0  0  0  0  0
  -19.1970  -28.8540   23.3650 C   0  0  0  0  0  0  0  0  0  0  0  0
  -18.9670  -30.1190   23.9470 C   0  0  0  0  0  3  0  0  0  0  0  0
  -17.6580  -30.6090   24.1130 C   0  0  0  0  0  3  0  0  0  0  0  0
  -16.5600  -29.8300   23.7080 C   0  0  0  0  0  3  0  0  0  0  0  0
  -16.7730  -28.5660   23.1290 C   0  0  0  0  0  3  0  0  0  0  0  0
  -25.9450  -32.5220   23.8060 C   0  0  0  0  0  3  0  0  0  0  0  0
  -26.4750  -31.7500   25.0770 C   0  0  1  0  0  0  0  0  0  0  0  0
  -25.3920  -31.5090   26.1550 C   0  0  0  0  0  1  0  0  0  0  0  0
  -27.0580  -30.3740   24.6820 C   0  0  0  0  0  1  0  0  0  0  0  0
  -27.6300  -32.5460   25.7300 C   0  0  0  0  0  1  0  0  0  0  0  0
  -25.6250  -33.9170   24.1520 N   0  0  0  0  0  0  0  0  0  0  0  0
  -25.9480  -34.9820   23.4090 C   0  0  0  0  0  0  0  0  0  0  0  0
  -26.6120  -34.8960   22.3730 O   0  0  0  0  0  0  0  0  0  0  0  0
  -25.0300  -34.0560   24.9570 H   0  0  0  0  0  0  0  0  0  0  0  0
  -24.2110  -36.7770   23.0910 C   0  0  0  0  0  1  0  0  0  0  0  0
  -25.4590  -36.3650   23.8890 C   0  0  0  0  0  3  0  0  0  0  0  0
  -27.5970  -37.2460   24.7170 C   0  0  0  0  0  1  0  0  0  0  0  0
  -26.4870  -37.4230   23.7840 N   0  0  0  0  0  0  0  0  0  0  0  0
  -26.0790  -38.3390   23.9480 H   0  0  0  0  0  0  0  0  0  0  0  0
  1  2  2  0
  1  3  1  0
  2  4  1  0
  3  5  2  0
  4  6  2  0
  5  6  1  0
  5  7  1  0
  6 50  1  0
  7  9  2  0
  8  7  1  0
  8 11  1  0
 10  8  1  0
 12 11  2  0
 12 13  1  0
 14 13  1  0
 15 20  1  0
 16 17  1  0
 16 15  1  0
 18 17  1  0
 18 25  1  0
 18 19  1  0
 20 14  1  0
 20 19  1  0
 21 14  2  0
 22 23  2  0
 23 42  1  0
 24 23  1  0
 24 27  1  0
 25 22  1  0
 25 26  1  0
 26 24  2  0
 27 28  1  0
 28 29  2  0
 30 33  1  0
 30 29  1  0
 31 30  2  0
 32 31  1  0
 32 27  2  0
 33 34  1  0
 34 35  1  0
 35 36  2  0
 37 36  1  0
 37 41  1  0
 38 37  2  0
 39 34  2  0
 39 38  1  0
 40 39  1  0
 42 43  1  0
 43 46  1  0
 43 45  1  0
 44 42  2  0
 47 48  1  0
 47 22  1  0
 49 47  1  0
 51 62  2  0
 52 50  1  0
 52 57  1  0
 53 61  1  0
 53 63  1  0
 54 60  1  0
 54 56  1  0
 55 61  1  0
 56 55  1  0
 57 56  2  0
 58 52  2  0
 59 58  1  0
 59 54  2  0
 60 53  1  0
 61 51  1  0
 63 65  2  0
 64 63  1  0
 66 64  1  0
 67 76  2  0
 67 72  1  0
 68 64  1  0
 68 72  1  0
 69 68  1  0
 70 71  1  0
 70 69  1  0
 71 67  1  0
 72 73  2  0
 73 74  1  0
 75 74  2  0
 76 75  1  0
 77 51  1  0
 77 82  1  0
 77 78  1  0
 78 81  1  1
 78 79  1  0
 80 78  1  0
 82 85  1  0
 83 87  1  0
 83 82  1  0
 84 83  2  0
 87 86  1  0
 89 87  1  0
 89 90  1  0
 89 88  1  0
M  ISO  4   6 101  13 100  14 100  50 101
M  END
>  <TORSDO>  (96) 
F 20

>  <SCORE>  (96) 
-14.771

>  <name>  (96) 
96

>  <ligand_id>  (96) 
96

>  <original_smiles>  (96) 
[H]c1c([H])c([H])c(C(=O)N([H])C([H])([H])C([H])([H])C([H])([H])C(=O)N2C([H])([H])C([H])([H])C([H])([H])C([H])(n3nc(-c4c([H])c([H])c(Oc5c([H])c([H])c(F)c([H])c5F)c([H])c4[H])c(C(=O)N([H])[H])c3N([H])[H])C2([H])[H])c(Oc2c([H])c([H])c3c(c2[H])C([H])([H])N(C(=O)C([H])(N([H])C(=O)C([H])(N([H])C([H])([H])[H])C([H])([H])[H])C(C([H])([H])[H])(C([H])([H])[H])C([H])([H])[H])C([H])(C(=O)N([H])C2([H])c4c([H])c([H])c([H])c([H])c4C([H])([H])C([H])([H])C2([H])[H])C3([H])[H])c1[H]

>  <smiles>  (96) 
[H]c1c([H])c([H])c(C(=O)N([H])C([H])([H])C([H])([H])C([H])([H])C(=O)N2C([H])([H])C([H])([H])C([H])([H])C([H])(n3nc(-c4c([H])c([H])c(Oc5c([H])c([H])c(F)c([H])c5F)c([H])c4[H])c(C(=O)N([H])[H])c3N([H])[H])C2([H])[H])c(Oc2c([H])c([H])c3c(c2[H])C([H])([H])N(C(=O)C([H])(N([H])C(=O)C([H])(N([H])C([H])([H])[H])C([H])([H])[H])C(C([H])([H])[H])(C([H])([H])[H])C([H])([H])[H])C([H])(C(=O)N([H])C2([H])c4c([H])c([H])c([H])c([H])c4C([H])([H])C([H])([H])C2([H])[H])C3([H])[H])c1[H]

$$$$
97:0:0
     RDKit          3D

 94104  0  0  1  0  0  0  0  0999 V2000
  -28.9550  -22.4770   19.0090 C   0  0  0  0  0  3  0  0  0  0  0  0
  -29.9080  -23.0000   21.0840 C   0  0  0  0  0  3  0  0  0  0  0  0
  -28.5570  -23.8840   18.8730 C   0  0  0  0  0  3  0  0  0  0  0  0
  -29.5070  -24.3850   20.9560 C   0  0  0  0  0  3  0  0  0  0  0  0
  -29.6750  -21.9360   20.1340 C   0  0  0  0  0  0  0  0  0  0  0  0
  -28.8100  -24.9310   19.8370 C   0  0  0  0  0  0  0  0  0  0  0  0
  -30.9700  -16.4170   23.0960 C   0  0  0  0  0  3  0  0  0  0  0  0
  -30.5550  -17.7460   23.0650 C   0  0  0  0  0  3  0  0  0  0  0  0
  -31.1820  -15.7230   21.8970 C   0  0  0  0  0  3  0  0  0  0  0  0
  -30.3950  -18.3810   21.8250 C   0  0  0  0  0  0  0  0  0  0  0  0
  -30.9600  -16.2530   20.5950 C   0  0  0  0  0  0  0  0  0  0  0  0
  -30.5720  -17.7310   20.5770 C   0  0  0  0  0  0  0  0  0  0  0  0
  -30.0360  -19.8220   21.7580 C   0  0  0  0  0  0  0  0  0  0  0  0
  -30.2490  -18.9560   19.5600 C   0  0  0  0  0  2  0  0  0  0  0  0
  -30.3600  -20.4200   20.3710 C   0  0  1  0  0  0  0  0  0  0  0  0
  -31.8800  -20.7250   20.3460 C   0  0  0  0  0  1  0  0  0  0  0  0
  -29.5730  -20.4700   22.7030 O   0  0  0  0  0  0  0  0  0  0  0  0
  -31.3340  -15.1310   19.5210 C   0  0  0  0  0  0  0  0  0  0  0  0
  -30.9850  -12.8550   18.4190 C   0  0  0  0  0  2  0  0  0  0  0  0
  -29.8790  -12.9080   17.3370 C   0  0  0  0  0  2  0  0  0  0  0  0
  -28.4830  -12.7150   17.9590 C   0  0  0  0  0  2  0  0  0  0  0  0
  -28.2910  -13.5800   19.2290 C   0  0  0  0  0  3  0  0  0  0  0  0
  -29.4890  -13.4590   20.1900 C   0  0  0  0  0  2  0  0  0  0  0  0
  -30.6960  -13.8850   19.4600 N   0  0  0  0  0  0  0  0  0  0  0  0
  -32.3310  -15.2940   18.8080 O   0  0  0  0  0  0  0  0  0  0  0  0
  -26.0990  -14.2070   20.4000 C   0  0  0  0  0  0  0  0  0  0  0  0
  -25.0520  -13.4540   20.8570 C   0  0  0  0  0  0  0  0  0  0  0  0
  -25.4060  -12.0920   20.6100 C   0  0  0  0  0  0  0  0  0  0  0  0
  -27.0240  -13.3050   19.8990 N   0  0  0  0  0  0  0  0  0  0  0  0
  -26.6260  -12.0210   20.0870 N   0  0  0  0  0  0  0  0  0  0  0  0
  -24.6290  -10.8580   20.7870 C   0  0  0  0  0  0  0  0  0  0  0  0
  -25.0360   -9.8510   21.6900 C   0  0  0  0  0  3  0  0  0  0  0  0
  -24.2600   -8.6840   21.8570 C   0  0  0  0  0  3  0  0  0  0  0  0
  -23.0640   -8.5140   21.1200 C   0  0  0  0  0  0  0  0  0  0  0  0
  -22.6750   -9.5100   20.2060 C   0  0  0  0  0  3  0  0  0  0  0  0
  -23.4510  -10.6690   20.0380 C   0  0  0  0  0  3  0  0  0  0  0  0
  -22.2600   -7.4030   21.1980 O   0  0  0  0  0  0  0  0  0  0  0  0
  -22.0270   -6.7650   22.3900 C   0  0  0  0  0  0  0  0  0  0  0  0
  -21.4870   -7.4450   23.5050 C   0  0  0  0  0  3  0  0  0  0  0  0
  -21.1970   -6.7370   24.6880 C   0  0  0  0  0  3  0  0  0  0  0  0
  -21.4360   -5.3510   24.7560 C   0  0  0  0  0  0  0  0  0  0  0  0
  -21.9670   -4.6720   23.6460 C   0  0  0  0  0  3  0  0  0  0  0  0
  -22.2580   -5.3770   22.4640 C   0  0  0  0  0  0  0  0  0  0  0  0
  -22.7500   -4.7150   21.3900 F   0  0  0  0  0  0  0  0  0  0  0  0
  -21.1500   -4.6680   25.8900 F   0  0  0  0  0  0  0  0  0  0  0  0
  -23.7530  -13.9730   21.4030 C   0  0  0  0  0  0  0  0  0  0  0  0
  -23.1810  -13.2840   22.3840 N   0  0  0  0  0  0  0  0  0  0  0  0
  -23.2620  -15.0250   20.9950 O   0  0  0  0  0  0  0  0  0  0  0  0
  -23.5950  -12.4330   22.7340 H   0  0  0  0  0  0  0  0  0  0  0  0
  -22.3170  -13.6110   22.7900 H   0  0  0  0  0  0  0  0  0  0  0  0
  -26.3310  -15.5780   20.3430 N   0  0  0  0  0  0  0  0  0  0  0  0
  -25.6500  -16.2570   20.6630 H   0  0  0  0  0  0  0  0  0  0  0  0
  -27.1670  -16.0030   19.9600 H   0  0  0  0  0  0  0  0  0  0  0  0
  -28.6700  -26.3790   19.6310 O   0  0  0  0  0  0  0  0  0  0  0  0
  -24.6480  -31.6200   22.8960 C   0  0  0  0  0  0  0  0  0  0  0  0
  -27.5000  -27.2090   19.6910 C   0  0  0  0  0  0  0  0  0  0  0  0
  -23.5280  -30.2270   21.1940 C   0  0  0  0  0  3  0  0  0  0  0  0
  -25.0630  -28.7870   19.7180 C   0  0  0  0  0  0  0  0  0  0  0  0
  -26.0570  -30.6490   21.0450 C   0  0  0  0  0  2  0  0  0  0  0  0
  -26.2100  -29.2880   20.3480 C   0  0  0  0  0  0  0  0  0  0  0  0
  -27.4260  -28.5140   20.3170 C   0  0  0  0  0  3  0  0  0  0  0  0
  -26.3230  -26.7920   19.0340 C   0  0  0  0  0  3  0  0  0  0  0  0
  -25.1300  -27.5520   19.0490 C   0  0  0  0  0  3  0  0  0  0  0  0
  -23.7870  -29.6120   19.7920 C   0  0  0  0  0  2  0  0  0  0  0  0
  -24.7630  -30.8540   21.7680 N   0  0  0  0  0  0  0  0  0  0  0  0
  -23.5490  -31.8210   23.4350 O   0  0  0  0  0  0  0  0  0  0  0  0
  -22.9060  -29.1470   22.1150 C   0  0  0  0  0  0  0  0  0  0  0  0
  -21.5750  -28.9670   22.0360 N   0  0  0  0  0  0  0  0  0  0  0  0
  -23.6220  -28.4740   22.8610 O   0  0  0  0  0  0  0  0  0  0  0  0
  -21.0520  -29.5630   21.4110 H   0  0  0  0  0  0  0  0  0  0  0  0
  -18.2310  -27.7210   22.6420 C   0  0  0  0  0  0  0  0  0  0  0  0
  -20.8020  -27.9660   22.7760 C   0  0  0  0  0  3  0  0  0  0  0  0
  -20.8640  -26.5880   22.0780 C   0  0  0  0  0  2  0  0  0  0  0  0
  -19.7020  -26.3480   21.1090 C   0  0  0  0  0  2  0  0  0  0  0  0
  -18.3630  -26.4360   21.8450 C   0  0  0  0  0  2  0  0  0  0  0  0
  -19.3750  -28.4490   23.0660 C   0  0  0  0  0  0  0  0  0  0  0  0
  -19.1940  -29.6570   23.7750 C   0  0  0  0  0  3  0  0  0  0  0  0
  -17.9030  -30.1350   24.0640 C   0  0  0  0  0  3  0  0  0  0  0  0
  -16.7740  -29.4040   23.6560 C   0  0  0  0  0  3  0  0  0  0  0  0
  -16.9400  -28.1980   22.9510 C   0  0  0  0  0  3  0  0  0  0  0  0
  -25.8910  -32.2980   23.5520 C   0  0  0  0  0  3  0  0  0  0  0  0
  -25.4930  -33.6490   23.9750 N   0  0  0  0  0  0  0  0  0  0  0  0
  -25.7670  -34.7740   23.2990 C   0  0  0  0  0  0  0  0  0  0  0  0
  -26.4470  -34.7840   22.2700 O   0  0  0  0  0  0  0  0  0  0  0  0
  -24.8890  -33.7100   24.7810 H   0  0  0  0  0  0  0  0  0  0  0  0
  -23.9270  -36.4750   23.0730 C   0  0  0  0  0  1  0  0  0  0  0  0
  -25.1970  -36.0950   23.8530 C   0  0  0  0  0  3  0  0  0  0  0  0
  -27.2740  -37.0590   24.7390 C   0  0  0  0  0  1  0  0  0  0  0  0
  -26.1600  -37.2160   23.8080 N   0  0  0  0  0  0  0  0  0  0  0  0
  -25.6950  -38.0970   24.0150 H   0  0  0  0  0  0  0  0  0  0  0  0
  -26.4650  -31.4860   24.7790 C   0  0  1  0  0  0  0  0  0  0  0  0
  -25.4000  -31.1260   25.8400 C   0  0  0  0  0  1  0  0  0  0  0  0
  -27.1210  -30.1680   24.3060 C   0  0  0  0  0  1  0  0  0  0  0  0
  -27.5760  -32.3060   25.4760 C   0  0  0  0  0  1  0  0  0  0  0  0
  1  5  1  0
  3  1  2  0
  3  6  1  0
  4  2  1  0
  5 15  1  0
  5  2  2  0
  6  4  2  0
  8  7  1  0
  9  7  2  0
 10  8  2  0
 11  9  1  0
 12 11  2  0
 12 10  1  0
 13 10  1  0
 13 17  2  0
 14 15  1  0
 14 12  1  0
 15 16  1  1
 15 13  1  0
 18 11  1  0
 19 24  1  0
 20 21  1  0
 20 19  1  0
 22 21  1  0
 22 29  1  0
 22 23  1  0
 24 18  1  0
 24 23  1  0
 25 18  2  0
 26 27  2  0
 27 46  1  0
 28 31  1  0
 28 27  1  0
 29 30  1  0
 29 26  1  0
 30 28  2  0
 31 32  1  0
 32 33  2  0
 34 37  1  0
 34 33  1  0
 35 34  2  0
 36 35  1  0
 36 31  2  0
 37 38  1  0
 38 43  2  0
 38 39  1  0
 39 40  2  0
 40 41  1  0
 41 45  1  0
 42 41  2  0
 43 42  1  0
 44 43  1  0
 46 47  1  0
 47 49  1  0
 47 50  1  0
 48 46  2  0
 51 26  1  0
 51 52  1  0
 53 51  1  0
 54 56  1  0
 54  6  1  0
 55 66  2  0
 56 61  1  0
 57 65  1  0
 57 67  1  0
 58 64  1  0
 58 60  1  0
 59 65  1  0
 60 59  1  0
 61 60  2  0
 62 63  1  0
 62 56  2  0
 63 58  2  0
 64 57  1  0
 65 55  1  0
 67 69  2  0
 68 67  1  0
 70 68  1  0
 71 80  2  0
 71 76  1  0
 72 68  1  0
 72 76  1  0
 73 72  1  0
 74 75  1  0
 74 73  1  0
 75 71  1  0
 76 77  2  0
 77 78  1  0
 79 78  2  0
 80 79  1  0
 81 55  1  0
 81 82  1  0
 81 91  1  0
 82 85  1  0
 83 87  1  0
 83 82  1  0
 84 83  2  0
 87 86  1  0
 89 87  1  0
 89 90  1  0
 89 88  1  0
 91 94  1  1
 91 92  1  0
 93 91  1  0
M  ISO  4   6 101  11 100  18 100  54 101
M  END
>  <TORSDO>  (97) 
F 17

>  <SCORE>  (97) 
-10.454

>  <name>  (97) 
97

>  <ligand_id>  (97) 
97

>  <original_smiles>  (97) 
[H]c1c([H])c(C(=O)N2C([H])([H])C([H])([H])C([H])([H])C([H])(n3nc(-c4c([H])c([H])c(Oc5c([H])c([H])c(F)c([H])c5F)c([H])c4[H])c(C(=O)N([H])[H])c3N([H])[H])C2([H])[H])c2c(c1[H])C(=O)C(c1c([H])c([H])c(Oc3c([H])c([H])c4c(c3[H])C([H])([H])N(C(=O)C([H])(N([H])C(=O)C([H])(N([H])C([H])([H])[H])C([H])([H])[H])C(C([H])([H])[H])(C([H])([H])[H])C([H])([H])[H])C([H])(C(=O)N([H])C3([H])c5c([H])c([H])c([H])c([H])c5C([H])([H])C([H])([H])C3([H])[H])C4([H])[H])c([H])c1[H])(C([H])([H])[H])C2([H])[H]

>  <smiles>  (97) 
[H]c1c([H])c(C(=O)N2C([H])([H])C([H])([H])C([H])([H])C([H])(n3nc(-c4c([H])c([H])c(Oc5c([H])c([H])c(F)c([H])c5F)c([H])c4[H])c(C(=O)N([H])[H])c3N([H])[H])C2([H])[H])c2c(c1[H])C(=O)C(c1c([H])c([H])c(Oc3c([H])c([H])c4c(c3[H])C([H])([H])N(C(=O)C([H])(N([H])C(=O)C([H])(N([H])C([H])([H])[H])C([H])([H])[H])C(C([H])([H])[H])(C([H])([H])[H])C([H])([H])[H])C([H])(C(=O)N([H])C3([H])c5c([H])c([H])c([H])c([H])c5C([H])([H])C([H])([H])C3([H])[H])C4([H])[H])c([H])c1[H])(C([H])([H])[H])C2([H])[H]

$$$$
